data_POSCAR
  _audit_creation_date              2014-09-24
  _audit_creation_method            'ToBaCCo'
  _symmetry_space_group_name_H-M    'P1'
  _symmetry_Int_Tables_number       1
  _symmetry_cell_setting            triclinic
  loop_
  _symmetry_equiv_pos_as_xyz
 x,y,z
_cell_length_a 32.0660
_cell_length_b 39.6375
_cell_length_c 25.0131
_cell_angle_alpha 89.546300
_cell_angle_beta 89.612100
_cell_angle_gamma 90.144200
loop_
  _atom_site_label
  _atom_site_type_symbol
  _atom_site_fract_x
  _atom_site_fract_y
  _atom_site_fract_z
O1 O 0.24083 0.27544 0.36160
 O2 O 0.17467 0.21778 0.28594
 O3 O 0.23308 0.21026 0.35832
 O4 O 0.18808 0.28266 0.28468
 O5 O 0.23697 0.27751 0.22263
 O6 O 0.28236 0.20661 0.29668
 O7 O 0.22376 0.21286 0.22416
 O8 O 0.28992 0.27219 0.29945
 Cu9 Cu 0.20416 0.24672 0.32873
 Cu10 Cu 0.26322 0.24154 0.25466
 C11 C 0.27616 0.28419 0.34318
 C12 C 0.18747 0.20583 0.24200
 C13 C 0.26608 0.19653 0.34037
 C14 C 0.20529 0.29251 0.24126
 O15 O 0.79573 0.27922 0.21877
 O16 O 0.73027 0.21186 0.27942
 O17 O 0.79151 0.21346 0.20914
 O18 O 0.74046 0.27626 0.29397
 O19 O 0.69303 0.28504 0.23175
 O20 O 0.74430 0.22129 0.14649
 O21 O 0.68335 0.22033 0.21660
 O22 O 0.74835 0.28660 0.15606
 Cu23 Cu 0.76932 0.24411 0.25636
 Cu24 Cu 0.71248 0.25393 0.18154
 C25 C 0.78256 0.29475 0.17748
 C26 C 0.69524 0.20497 0.25838
 C27 C 0.77701 0.20674 0.16339
 C28 C 0.70856 0.29175 0.27718
 O29 O 0.71842 0.70403 0.74634
 O30 O 0.76527 0.77493 0.81971
 O31 O 0.70175 0.76765 0.75610
 O32 O 0.77987 0.71054 0.81326
 O33 O 0.82124 0.71930 0.74362
 O34 O 0.74425 0.77925 0.68851
 O35 O 0.80829 0.78433 0.75190
 O36 O 0.75964 0.71519 0.67729
 Cu37 Cu 0.73719 0.73827 0.79077
 Cu38 Cu 0.78764 0.75065 0.70855
 C39 C 0.73089 0.69776 0.69908
 C40 C 0.79497 0.79159 0.79831
 C41 C 0.70962 0.78323 0.71275
 C42 C 0.81358 0.70472 0.78806
 O43 O 0.28082 0.77889 0.69787
 O44 O 0.21526 0.71655 0.76891
 O45 O 0.27921 0.71310 0.70458
 O46 O 0.21530 0.78176 0.76029
 O47 O 0.17325 0.77864 0.69095
 O48 O 0.23749 0.71077 0.63480
 O49 O 0.17373 0.71356 0.69900
 O50 O 0.23889 0.77664 0.62833
 Cu51 Cu 0.25197 0.74792 0.73979
 Cu52 Cu 0.20181 0.74474 0.65610
 C53 C 0.27100 0.78846 0.65107
 C54 C 0.18327 0.70452 0.74617
 C55 C 0.26891 0.70008 0.66031
 C56 C 0.18291 0.79148 0.73550
 C57 C 1.03528 0.02982 0.00568
 C58 C 0.99117 0.03106 0.00388
 C59 C 0.96984 0.00830 -0.02925
 C60 C 0.99139 -0.01544 -0.06047
 C61 C 1.03547 -0.01636 -0.05850
 C62 C 1.05659 0.00627 -0.02562
 H63 H 1.09040 0.00539 -0.02407
 H64 H 0.93611 0.00886 -0.03054
 C65 C 0.52798 0.51677 0.53787
 C66 C 0.48417 0.51993 0.53382
 C67 C 0.46210 0.49730 0.50154
 C68 C 0.48259 0.47148 0.47399
 C69 C 0.52639 0.46855 0.47737
 C70 C 0.54866 0.49125 0.50936
 H71 H 0.58194 0.48803 0.51426
 H72 H 0.42887 0.50034 0.49605
 C73 C -0.01094 0.48900 0.06981
 C74 C 0.03167 0.49284 0.08245
 C75 C 0.05449 0.51989 0.06052
 C76 C 0.03538 0.54366 0.02698
 C77 C -0.00791 0.54115 0.01719
 C78 C -0.03040 0.51341 0.03757
 H79 H -0.06322 0.51109 0.02840
 H80 H 0.08735 0.52250 0.06961
 C81 C 0.49250 0.97489 0.54207
 C82 C 0.53585 0.97976 0.54940
 C83 C 0.55497 1.00889 0.52869
 C84 C 0.53260 1.03263 0.49890
 C85 C 0.48931 1.02817 0.49121
 C86 C 0.46990 0.99917 0.51284
 H87 H 0.43676 0.99560 0.50748
 H88 H 0.58817 1.01269 0.53445
 C89 C 1.15897 0.18426 0.21166
 C90 C 1.17052 0.16859 0.16418
 C91 C 1.14088 0.14804 0.13311
 C92 C 1.15591 0.12071 0.10354
 C93 C 1.12852 0.10047 0.07462
 C94 C 1.08555 0.10754 0.07417
 C95 C 1.07070 0.13567 0.10196
 C96 C 1.09803 0.15564 0.13155
 C97 C 1.05600 0.08639 0.04407
 C98 C 1.06119 0.05158 0.04005
 H99 H 1.20270 0.16998 0.15082
 H100 H 1.18887 0.11475 0.10338
 H101 H 1.14113 0.07963 0.05203
 H102 H 1.03783 0.14190 0.10138
 H103 H 1.08565 0.17724 0.15250
 H104 H 1.02945 0.09847 0.02558
 H105 H 1.12776 0.18063 0.22753
 H106 H 1.08803 0.04000 0.05870
 C107 C 0.71199 0.67022 0.66845
 C108 C 0.67764 0.65200 0.68748
 C109 C 0.65624 0.62585 0.65575
 C110 C 0.61409 0.61901 0.66648
 C111 C 0.59237 0.59516 0.63663
 C112 C 0.61269 0.57703 0.59585
 C113 C 0.65505 0.58361 0.58564
 C114 C 0.67671 0.60764 0.61533
 C115 C 0.59064 0.55219 0.56198
 C116 C 0.55155 0.53868 0.57475
 H117 H 0.66402 0.65882 0.72566
 H118 H 0.59762 0.63274 0.69735
 H119 H 0.55956 0.59184 0.64516
 H120 H 0.67150 0.57006 0.55455
 H121 H 0.70949 0.61156 0.60684
 H122 H 0.60551 0.54476 0.52489
 H123 H 0.72436 0.66547 0.62888
 H124 H 0.53640 0.54524 0.61190
 C125 C -0.19401 0.32322 0.15423
 C126 C -0.15892 0.33696 0.17846
 C127 C -0.13823 0.36801 0.15827
 C128 C -0.09608 0.37345 0.17000
 C129 C -0.07562 0.40250 0.15157
 C130 C -0.09711 0.42683 0.12115
 C131 C -0.13963 0.42201 0.11112
 C132 C -0.16004 0.39286 0.12929
 C133 C -0.07625 0.45770 0.10057
 C134 C -0.03383 0.45836 0.08802
 H135 H -0.14574 0.32428 0.21294
 H136 H -0.07886 0.35506 0.19325
 H137 H -0.04322 0.40600 0.16202
 H138 H -0.15702 0.44071 0.08873
 H139 H -0.19299 0.39025 0.12133
 H140 H -0.09500 0.48003 0.09434
 H141 H -0.20597 0.33439 0.11785
 H142 H -0.01599 0.43540 0.09262
 C143 C 0.29686 0.81357 0.62243
 C144 C 0.33246 0.82766 0.64533
 C145 C 0.35903 0.85355 0.61869
 C146 C 0.38607 0.87286 0.65011
 C147 C 0.41138 0.89783 0.62691
 C148 C 0.41056 0.90374 0.57139
 C149 C 0.38385 0.88419 0.53990
 C150 C 0.35853 0.85923 0.56310
 C151 C 0.43553 0.93079 0.54514
 C152 C 0.46990 0.94652 0.56849
 H153 H 0.34040 0.82036 0.68584
 H154 H 0.38713 0.86899 0.69301
 H155 H 0.43069 0.91279 0.65292
 H156 H 0.38262 0.88818 0.49704
 H157 H 0.33909 0.84436 0.53713
 H158 H 0.42713 0.93797 0.50475
 H159 H 0.28680 0.82146 0.58313
 H160 H 0.48170 0.93723 0.60619
 C161 C -0.15766 0.68185 -0.19118
 C162 C -0.16246 0.66762 -0.14023
 C163 C -0.13390 0.64189 -0.11854
 C164 C -0.12522 0.64177 -0.06369
 C165 C -0.10009 0.61670 -0.04139
 C166 C -0.08406 0.59077 -0.07345
 C167 C -0.09319 0.59056 -0.12821
 C168 C -0.11749 0.61619 -0.15081
 C169 C -0.05955 0.56306 -0.04974
 C170 C -0.03066 0.56885 -0.00952
 H171 H -0.18700 0.67666 -0.11403
 H172 H -0.13803 0.66111 -0.03803
 H173 H -0.09424 0.61702 0.00119
 H174 H -0.08148 0.57057 -0.15344
 H175 H -0.12455 0.61528 -0.19304
 H176 H -0.06300 0.53786 -0.06563
 H177 H -0.13055 0.67543 -0.21509
 H178 H -0.02302 0.59455 0.00122
 C179 C 0.28485 1.17061 0.36967
 C180 C 0.32219 1.15561 0.35281
 C181 C 0.34639 1.13040 0.38397
 C182 C 0.38253 1.11690 0.36047
 C183 C 0.40741 1.09394 0.38835
 C184 C 0.39683 1.08406 0.44082
 C185 C 0.36035 1.09705 0.46410
 C186 C 0.33547 1.12010 0.43624
 C187 C 0.42223 1.05961 0.47162
 C188 C 0.46446 1.05355 0.46110
 H189 H 0.33535 1.16339 0.31460
 H190 H 0.39165 1.12415 0.32019
 H191 H 0.43446 1.08369 0.36825
 H192 H 0.35131 1.08961 0.50431
 H193 H 0.30815 1.12980 0.45629
 H194 H 0.40754 1.04730 0.50566
 H195 H 0.27018 1.16299 0.40687
 H196 H 0.48030 1.06914 0.43173
 C197 C 1.15691 -0.18404 -0.24273
 C198 C 1.16561 -0.16793 -0.19465
 C199 C 1.13637 -0.14388 -0.16979
 C200 C 1.15230 -0.11714 -0.13975
 C201 C 1.12537 -0.09421 -0.11528
 C202 C 1.08193 -0.09802 -0.11971
 C203 C 1.06594 -0.12535 -0.14837
 C204 C 1.09290 -0.14795 -0.17368
 C205 C 1.05290 -0.07454 -0.09322
 C206 C 1.06149 -0.04012 -0.08953
 H207 H 1.19541 -0.17202 -0.17548
 H208 H 1.18566 -0.11388 -0.13550
 H209 H 1.13860 -0.07398 -0.09197
 H210 H 1.03256 -0.12904 -0.15151
 H211 H 1.07969 -0.16896 -0.19521
 H212 H 1.02414 -0.08468 -0.07684
 H213 H 1.12878 -0.17751 -0.26418
 H214 H 1.09072 -0.03058 -0.10560
 C215 C 0.69056 0.31816 0.31104
 C216 C 0.65523 0.33639 0.29670
 C217 C 0.63853 0.36395 0.33004
 C218 C 0.59564 0.37058 0.32933
 C219 C 0.57882 0.39613 0.36094
 C220 C 0.60476 0.41583 0.39351
 C221 C 0.64787 0.41011 0.39263
 C222 C 0.66465 0.38425 0.36148
 C223 C 0.58752 0.44300 0.42721
 C224 C 0.54794 0.44034 0.45024
 H225 H 0.63817 0.32924 0.26129
 H226 H 0.57503 0.35571 0.30468
 H227 H 0.54560 0.40073 0.35913
 H228 H 0.66850 0.42543 0.41656
 H229 H 0.69808 0.38059 0.36147
 H230 H 0.60626 0.46535 0.43361
 H231 H 0.70592 0.32341 0.34850
 H232 H 0.53092 0.41694 0.44559
 C233 C 0.81390 -0.18045 -0.17192
 C234 C 0.84752 -0.16185 -0.19248
 C235 C 0.86819 -0.13399 -0.16351
 C236 C 0.90877 -0.12448 -0.17880
 C237 C 0.92965 -0.09857 -0.15232
 C238 C 0.91004 -0.08121 -0.11023
 C239 C 0.86930 -0.09051 -0.09532
 C240 C 0.84844 -0.11646 -0.12176
 C241 C 0.93146 -0.05459 -0.07926
 C242 C 0.96783 -0.03809 -0.09620
 H243 H 0.86062 -0.16901 -0.23079
 H244 H 0.92470 -0.13756 -0.21083
 H245 H 0.96136 -0.09298 -0.16434
 H246 H 0.85346 -0.07759 -0.06306
 H247 H 0.81681 -0.12231 -0.10965
 H248 H 0.91854 -0.04844 -0.04042
 H249 H 0.80160 -0.17523 -0.13250
 H250 H 0.98130 -0.04350 -0.13489
 C251 C 0.30047 0.30895 0.37325
 C252 C 0.33648 0.32416 0.35274
 C253 C 0.35848 0.35170 0.38069
 C254 C 0.38318 0.37430 0.35075
 C255 C 0.40358 0.40110 0.37561
 C256 C 0.40001 0.40553 0.43121
 C257 C 0.37546 0.38287 0.46114
 C258 C 0.35520 0.35605 0.43635
 C259 C 0.42148 0.43316 0.45944
 C260 C 0.45807 0.44820 0.44043
 H261 H 0.34708 0.31744 0.31300
 H262 H 0.38617 0.37153 0.30784
 H263 H 0.42146 0.41849 0.35099
 H264 H 0.37246 0.38561 0.50406
 H265 H 0.33758 0.33863 0.46118
 H266 H 0.41062 0.43948 0.49925
 H267 H 0.28752 0.31711 0.41102
 H268 H 0.47169 0.43987 0.40315
 C269 C 0.15653 0.67991 -0.22565
 C270 C 0.16311 0.67093 -0.17228
 C271 C 0.13619 0.64684 -0.14231
 C272 C 0.13574 0.64787 -0.08623
 C273 C 0.11073 0.62557 -0.05647
 C274 C 0.08602 0.60140 -0.08240
 C275 C 0.08664 0.60031 -0.13846
 C276 C 0.11158 0.62260 -0.16817
 C277 C 0.05870 0.57735 -0.05302
 C278 C 0.06193 0.56993 0.00149
 H279 H 0.18798 0.68325 -0.15068
 H280 H 0.15445 0.66629 -0.06535
 H281 H 0.11050 0.62780 -0.01343
 H282 H 0.06797 0.58191 -0.15944
 H283 H 0.11190 0.62027 -0.21120
 H284 H 0.03622 0.56330 -0.07620
 H285 H 0.13024 0.66979 -0.24716
 H286 H 0.08751 0.58004 0.02435
 C287 C 0.66888 1.18054 0.28060
 C288 C 0.67776 1.16300 0.32781
 C289 C 0.64868 1.13786 0.35175
 C290 C 0.65052 1.13122 0.40684
 C291 C 0.62332 1.10791 0.43088
 C292 C 0.59368 1.09058 0.40007
 C293 C 0.59255 1.09665 0.34478
 C294 C 0.61969 1.11998 0.32078
 C295 C 0.56493 1.06495 0.42334
 C296 C 0.55589 1.06200 0.47778
 H297 H 0.70576 1.16923 0.34970
 H298 H 0.67300 1.14425 0.43144
 H299 H 0.62637 1.10321 0.47327
 H300 H 0.57062 1.08320 0.31995
 H301 H 0.61828 1.12338 0.27790
 H302 H 0.55016 1.04736 0.39638
 H303 H 0.63956 1.17607 0.26067
 H304 H 0.57000 1.07873 0.50639
 C305 C 0.18922 0.32182 0.21173
 C306 C 0.15486 0.34026 0.22916
 C307 C 0.13898 0.36997 0.19958
 C308 C 0.09670 0.37830 0.20432
 C309 C 0.08034 0.40567 0.17597
 C310 C 0.10629 0.42582 0.14302
 C311 C 0.14874 0.41772 0.13889
 C312 C 0.16504 0.39021 0.16706
 C313 C 0.08990 0.45421 0.11049
 C314 C 0.05155 0.46938 0.12070
 H315 H 0.13769 0.33162 0.26416
 H316 H 0.07601 0.36307 0.22907
 H317 H 0.04720 0.41014 0.17911
 H318 H 0.16938 0.43275 0.11380
 H319 H 0.19807 0.38515 0.16363
 H320 H 0.10803 0.46269 0.07622
 H321 H 0.20496 0.32875 0.17484
 H322 H 0.03342 0.46194 0.15543
 C323 C 0.67764 0.80580 0.69080
 C324 C 0.68619 0.82906 0.65011
 C325 C 0.65402 0.85222 0.62924
 C326 C 0.66576 0.88467 0.61216
 C327 C 0.63591 0.90727 0.59297
 C328 C 0.59380 0.89755 0.58968
 C329 C 0.58227 0.86472 0.60503
 C330 C 0.61202 0.84231 0.62515
 C331 C 0.56189 0.92071 0.56821
 C332 C 0.56321 0.95537 0.57734
 H333 H 0.71799 0.83204 0.63588
 H334 H 0.69805 0.89265 0.61422
 H335 H 0.64599 0.93206 0.57972
 H336 H 0.55011 0.85655 0.60192
 H337 H 0.60224 0.81710 0.63660
 H338 H 0.53704 0.91008 0.54455
 H339 H 0.64687 0.80501 0.70889
 H340 H 0.58848 0.96557 0.60081
 C341 C 0.79829 0.18190 0.12928
 C342 C 0.83551 0.16657 0.14512
 C343 C 0.85924 0.14198 0.11254
 C344 C 0.90075 0.13509 0.12637
 C345 C 0.92441 0.11192 0.09730
 C346 C 0.90679 0.09472 0.05392
 C347 C 0.86533 0.10166 0.03998
 C348 C 0.84166 0.12486 0.06906
 C349 C 0.93075 0.07028 0.02135
 C350 C 0.96715 0.05428 0.03858
 H351 H 0.84894 0.17388 0.18297
 H352 H 0.91514 0.14798 0.15956
 H353 H 0.95657 0.10818 0.10851
 H354 H 0.85103 0.08883 0.00668
 H355 H 0.80959 0.12880 0.05764
 H356 H 0.91899 0.06465 -0.01808
 H357 H 0.78488 0.17660 0.09071
 H358 H 0.97932 0.05940 0.07787
 C359 C 0.29284 0.67189 0.63799
 C360 C 0.32919 0.65977 0.66158
 C361 C 0.35224 0.63047 0.64027
 C362 C 0.39538 0.62822 0.64841
 C363 C 0.41802 0.60100 0.62812
 C364 C 0.39769 0.57532 0.59973
 C365 C 0.35433 0.57696 0.59339
 C366 C 0.33179 0.60430 0.61320
 C367 C 0.42043 0.54630 0.57698
 C368 C 0.46198 0.54827 0.56013
 H369 H 0.34216 0.67302 0.69538
 H370 H 0.41166 0.64776 0.67005
 H371 H 0.45121 0.59996 0.63544
 H372 H 0.33790 0.55718 0.57247
 H373 H 0.29833 0.60459 0.60791
 H374 H 0.40309 0.52317 0.57118
 H375 H 0.28149 0.66060 0.60160
 H376 H 0.47892 0.57162 0.56547
   
