data_POSCAR
  _audit_creation_date              2014-09-24
  _audit_creation_method            'ToBaCCo'
  _symmetry_space_group_name_H-M    'P1'
  _symmetry_Int_Tables_number       1
  _symmetry_cell_setting            triclinic
  loop_
  _symmetry_equiv_pos_as_xyz
 x,y,z
_cell_length_a 29.9885
_cell_length_b 30.0459
_cell_length_c 30.0473
_cell_angle_alpha 90.001700
_cell_angle_beta 90.000100
_cell_angle_gamma 89.999600
loop_
  _atom_site_label
  _atom_site_type_symbol
  _atom_site_fract_x
  _atom_site_fract_y
  _atom_site_fract_z
Si1 Si 0.25000 0.50001 1.00000
 Si2 Si 0.75001 0.49999 0.00000
 Si3 Si 0.00001 0.25009 0.50000
 Si4 Si 0.99999 0.74991 0.50000
 Si5 Si 0.50000 0.00001 0.24991
 Si6 Si 0.50000 -0.00000 0.75009
 C7 C 0.31901 0.03305 0.44732
 H8 H 0.32096 0.05767 0.47352
 C9 C 0.34952 0.03399 0.41230
 H10 H 0.37512 0.05942 0.41153
 C11 C 0.28449 -0.03129 0.41729
 H12 H 0.25973 -0.05725 0.41987
 C13 C 0.31435 -0.03150 0.38157
 H14 H 0.31221 -0.05759 0.35686
 N15 N 0.28736 0.00071 0.44925
 C16 C 0.18100 0.05267 0.53306
 H17 H 0.17905 0.02647 0.55768
 C18 C 0.15049 0.08770 0.53401
 H19 H 0.12489 0.08846 0.55943
 C20 C 0.21552 0.08270 0.46873
 H21 H 0.24028 0.08012 0.44277
 C22 C 0.18566 0.11843 0.46852
 H23 H 0.18780 0.14313 0.44242
 Zn24 Zn 0.25000 -0.00001 0.50000
 N25 N 0.21265 0.05074 0.50072
 C26 C 0.28449 0.03126 0.58271
 N27 N 0.28735 -0.00074 0.55076
 C28 C 0.31901 -0.03307 0.55269
 C29 C 0.34952 -0.03402 0.58771
 C30 C 0.31435 0.03147 0.61844
 C31 C 0.18100 -0.05270 0.46694
 C32 C 0.15049 -0.08772 0.46599
 C33 C 0.18565 -0.11845 0.53148
 C34 C 0.21552 -0.08273 0.53128
 N35 N 0.21265 -0.05077 0.49928
 H36 H 0.25973 0.05723 0.58014
 H37 H 0.32096 -0.05770 0.52649
 H38 H 0.37512 -0.05944 0.58848
 H39 H 0.31221 0.05757 0.64314
 H40 H 0.17905 -0.02650 0.44232
 H41 H 0.12489 -0.08848 0.44057
 H42 H 0.18778 -0.14315 0.55758
 H43 H 0.24027 -0.08015 0.55724
 C44 C 0.15250 0.12082 0.50127
 C45 C 0.34751 0.00125 0.37918
 C46 C 0.15249 -0.12083 0.49874
 C47 C 0.34750 -0.00128 0.62083
 C48 C 0.68099 0.03307 0.55269
 H49 H 0.67904 0.05770 0.52649
 C50 C 0.65048 0.03402 0.58771
 H51 H 0.62489 0.05944 0.58848
 C52 C 0.71551 -0.03127 0.58271
 H53 H 0.74027 -0.05723 0.58013
 C54 C 0.68565 -0.03148 0.61843
 H55 H 0.68779 -0.05758 0.64314
 N56 N 0.71265 0.00073 0.55075
 C57 C 0.81900 0.05269 0.46694
 H58 H 0.82095 0.02649 0.44232
 C59 C 0.84951 0.08771 0.46599
 H60 H 0.87511 0.08848 0.44057
 C61 C 0.78448 0.08272 0.53128
 H62 H 0.75972 0.08015 0.55724
 C63 C 0.81435 0.11845 0.53148
 H64 H 0.81221 0.14315 0.55758
 Zn65 Zn 0.74999 0.00001 0.50000
 N66 N 0.78735 0.05076 0.49928
 C67 C 0.71551 0.03129 0.41729
 N68 N 0.71264 -0.00071 0.44925
 C69 C 0.68099 -0.03305 0.44731
 C70 C 0.65048 -0.03399 0.41229
 C71 C 0.68565 0.03150 0.38157
 C72 C 0.81900 -0.05268 0.53306
 C73 C 0.84951 -0.08770 0.53400
 C74 C 0.81434 -0.11843 0.46851
 C75 C 0.78448 -0.08271 0.46872
 N76 N 0.78734 -0.05075 0.50072
 H77 H 0.74027 0.05725 0.41987
 H78 H 0.67904 -0.05767 0.47351
 H79 H 0.62488 -0.05941 0.41153
 H80 H 0.68778 0.05760 0.35686
 H81 H 0.82095 -0.02647 0.55768
 H82 H 0.87511 -0.08846 0.55942
 H83 H 0.81220 -0.14314 0.44241
 H84 H 0.75972 -0.08013 0.44276
 C85 C 0.84750 0.12083 0.49873
 C86 C 0.65250 0.00127 0.62082
 C87 C 0.84750 -0.12082 0.50126
 C88 C 0.65249 -0.00125 0.37918
 C89 C 0.46663 0.18139 1.05315
 H90 H 0.44151 0.17993 1.02735
 C91 C 0.46570 0.15091 1.08815
 H92 H 0.43980 0.12581 1.08929
 C93 C 0.53218 0.21463 1.08218
 H94 H 0.55865 0.23880 1.07919
 C95 C 0.53240 0.18481 1.11788
 H96 H 0.55898 0.18643 1.14216
 N97 N 0.49956 0.21241 1.05074
 C98 C 0.44627 0.31761 0.96635
 H99 H 0.47173 0.31870 0.94086
 C100 C 0.41114 0.34802 0.96545
 H101 H 0.40954 0.37266 0.93919
 C102 C 0.41824 0.28536 1.03272
 H103 H 0.42164 0.26151 1.05939
 C104 C 0.38260 0.31534 1.03317
 H105 H 0.35874 0.31416 1.06014
 Zn106 Zn 0.49999 0.24973 1.00000
 N107 N 0.44919 0.28707 0.99961
 C108 C 0.46780 0.21463 0.91783
 N109 N 0.50043 0.21240 0.94927
 C110 C 0.53334 0.18138 0.94686
 C111 C 0.53428 0.15090 0.91186
 C112 C 0.46759 0.18480 0.88212
 C113 C 0.55373 0.31760 1.03366
 C114 C 0.58885 0.34801 1.03455
 C115 C 0.61739 0.31533 0.96683
 C116 C 0.58175 0.28535 0.96729
 N117 N 0.55080 0.28707 1.00039
 H118 H 0.44134 0.23880 0.92082
 H119 H 0.55846 0.17992 0.97266
 H120 H 0.56018 0.12580 0.91073
 H121 H 0.44100 0.18642 0.85784
 H122 H 0.52827 0.31870 1.05915
 H123 H 0.59046 0.37265 1.06082
 H124 H 0.64125 0.31414 0.93986
 H125 H 0.57834 0.26150 0.94062
 C126 C 0.37916 0.34732 0.99940
 C127 C 0.49903 0.15232 1.12077
 C128 C 0.62084 0.34730 1.00060
 C129 C 0.50095 0.15231 0.87924
 C130 C 0.46666 0.81862 -0.05315
 H131 H 0.44154 0.82008 -0.02735
 C132 C 0.46572 0.84910 -0.08815
 H133 H 0.43982 0.87420 -0.08928
 C134 C 0.53220 0.78537 -0.08218
 H135 H 0.55867 0.76120 -0.07919
 C136 C 0.53242 0.81519 -0.11788
 H137 H 0.55900 0.81358 -0.14216
 N138 N 0.49958 0.78760 -0.05074
 C139 C 0.44628 0.68240 0.03365
 H140 H 0.47174 0.68131 0.05914
 C141 C 0.41115 0.65199 0.03454
 H142 H 0.40955 0.62736 0.06081
 C143 C 0.41826 0.71465 -0.03272
 H144 H 0.42166 0.73850 -0.05939
 C145 C 0.38261 0.68468 -0.03317
 H146 H 0.35875 0.68586 -0.06015
 Zn147 Zn 0.50001 0.75027 -0.00000
 N148 N 0.44921 0.71294 0.00038
 C149 C 0.46782 0.78538 0.08217
 N150 N 0.50045 0.78760 0.05074
 C151 C 0.53337 0.81862 0.05315
 C152 C 0.53430 0.84910 0.08814
 C153 C 0.46760 0.81520 0.11788
 C154 C 0.55374 0.68240 -0.03366
 C155 C 0.58886 0.65199 -0.03455
 C156 C 0.61740 0.68466 0.03317
 C157 C 0.58176 0.71464 0.03272
 N158 N 0.55081 0.71293 -0.00039
 H159 H 0.44135 0.76120 0.07918
 H160 H 0.55849 0.82008 0.02734
 H161 H 0.56020 0.87420 0.08928
 H162 H 0.44102 0.81358 0.14216
 H163 H 0.52828 0.68131 -0.05915
 H164 H 0.59047 0.62735 -0.06082
 H165 H 0.64126 0.68585 0.06015
 H166 H 0.57835 0.73849 0.05939
 C167 C 0.37917 0.65270 0.00059
 C168 C 0.49905 0.84769 -0.12077
 C169 C 0.62085 0.65269 -0.00059
 C170 C 0.50097 0.84769 0.12076
 C171 C 1.05376 0.46632 0.18242
 H172 H 1.02832 0.44081 0.18135
 C173 C 1.08889 0.46543 0.15202
 H174 H 1.09052 0.43915 0.12740
 C175 C 1.08173 0.53275 0.21462
 H176 H 1.07830 0.55943 0.23845
 C177 C 1.11737 0.53321 0.18464
 H178 H 1.14120 0.56021 0.18580
 N179 N 1.05081 0.49961 0.21293
 C180 C 0.96665 0.44683 0.31860
 H181 H 0.94151 0.47262 0.32005
 C182 C 0.96571 0.41183 0.34908
 H183 H 0.93980 0.41069 0.37417
 C184 C 1.03222 0.41782 0.28539
 H185 H 1.05869 0.42083 0.26123
 C186 C 1.03243 0.38212 0.31521
 H187 H 1.05903 0.35785 0.31361
 Zn188 Zn 1.00001 0.49999 0.25027
 N189 N 0.99958 0.44925 0.28759
 C190 C 0.91828 0.46724 0.21462
 N191 N 0.94921 0.50037 0.21293
 C192 C 0.94626 0.53366 0.18242
 C193 C 0.91113 0.53455 0.15202
 C194 C 0.88264 0.46678 0.18464
 C195 C 1.03336 0.55315 0.31860
 C196 C 1.03429 0.58815 0.34909
 C197 C 0.96757 0.61786 0.31521
 C198 C 0.96779 0.58216 0.28539
 N199 N 1.00043 0.55073 0.28760
 H200 H 0.92171 0.44055 0.23845
 H201 H 0.97169 0.55917 0.18135
 H202 H 0.90950 0.56084 0.12740
 H203 H 0.85880 0.43979 0.18580
 H204 H 1.05849 0.52736 0.32005
 H205 H 1.06020 0.58929 0.37418
 H206 H 0.94097 0.64213 0.31361
 H207 H 0.94132 0.57915 0.26123
 C208 C 0.99905 0.37922 0.34769
 C209 C 1.12084 0.49942 0.15269
 C210 C 1.00095 0.62076 0.34769
 C211 C 0.87917 0.50057 0.15269
 C212 C -0.05375 0.46633 0.81758
 H213 H -0.02831 0.44082 0.81865
 C214 C -0.08888 0.46544 0.84798
 H215 H -0.09050 0.43915 0.87260
 C216 C -0.08173 0.53275 0.78538
 H217 H -0.07831 0.55943 0.76155
 C218 C -0.11738 0.53320 0.81536
 H219 H -0.14122 0.56019 0.81420
 N220 N -0.05080 0.49962 0.78707
 C221 C 0.03336 0.44685 0.68139
 H222 H 0.05849 0.47265 0.67995
 C223 C 0.03430 0.41185 0.65091
 H224 H 0.06021 0.41071 0.62582
 C225 C -0.03221 0.41784 0.71461
 H226 H -0.05868 0.42084 0.73877
 C227 C -0.03242 0.38213 0.68478
 H228 H -0.05901 0.35786 0.68639
 Zn229 Zn -0.00000 0.50001 0.74973
 N230 N 0.00043 0.44927 0.71240
 C231 C 0.08173 0.46726 0.78538
 N232 N 0.05080 0.50039 0.78707
 C233 C 0.05375 0.53368 0.81757
 C234 C 0.08888 0.53458 0.84798
 C235 C 0.11737 0.46681 0.81536
 C236 C -0.03337 0.55316 0.68140
 C237 C -0.03431 0.58816 0.65092
 C238 C 0.03241 0.61788 0.68479
 C239 C 0.03220 0.58218 0.71461
 N240 N -0.00044 0.55075 0.71241
 H241 H 0.07830 0.44058 0.76155
 H242 H 0.02831 0.55919 0.81865
 H243 H 0.09050 0.56086 0.87259
 H244 H 0.14121 0.43981 0.81419
 H245 H -0.05850 0.52737 0.67995
 H246 H -0.06022 0.58930 0.62583
 H247 H 0.05901 0.64215 0.68639
 H248 H 0.05868 0.57917 0.73877
 C249 C 0.00096 0.37924 0.65231
 C250 C -0.12084 0.49941 0.84731
 C251 C -0.00097 0.62077 0.65231
 C252 C 0.12084 0.50060 0.84730
 C253 C 0.06793 0.14366 0.49310
 C254 C 0.05515 0.17400 0.53253
 C255 C 0.05013 0.21331 0.50009
 C256 C 0.06288 0.18322 0.46068
 C257 C 0.09933 0.22606 0.50699
 C258 C 0.10468 0.18633 0.53948
 C259 C 0.11715 0.15616 0.50003
 C260 C 0.11249 0.19552 0.46751
 H261 H 0.05495 0.10954 0.48733
 H262 H 0.03182 0.16497 0.55969
 H263 H 0.04591 0.18227 0.42788
 H264 H 0.11183 0.26034 0.51280
 H265 H 0.12217 0.18743 0.57201
 H266 H 0.13600 0.20480 0.44055
 C267 C 0.69260 0.60984 0.03591
 C268 C 0.67978 0.56004 0.03787
 C269 C 0.71319 0.55014 0.00029
 C270 C 0.72645 0.59959 -0.00172
 C271 C 0.67669 0.55786 -0.03487
 C272 C 0.64304 0.56775 0.00272
 C273 C 0.65606 0.61719 0.00067
 C274 C 0.68952 0.60763 -0.03693
 H275 H 0.69960 0.63104 0.06532
 H276 H 0.67577 0.54098 0.06920
 H277 H 0.76108 0.61245 -0.00349
 H278 H 0.67011 0.53699 -0.06456
 H279 H 0.60852 0.55454 0.00460
 H280 H 0.69335 0.62753 -0.06782
 C281 C 0.89532 -0.18634 0.53947
 C282 C 0.90066 -0.22606 0.50699
 C283 C 0.94987 -0.21331 0.50009
 C284 C 0.94485 -0.17400 0.53252
 C285 C 0.93712 -0.18322 0.46067
 C286 C 0.88751 -0.19553 0.46750
 C287 C 0.88285 -0.15616 0.50002
 C288 C 0.93207 -0.14367 0.49310
 H289 H 0.87782 -0.18743 0.57200
 H290 H 0.88816 -0.26034 0.51279
 H291 H 0.96817 -0.16497 0.55968
 H292 H 0.95409 -0.18228 0.42788
 H293 H 0.86400 -0.20481 0.44054
 H294 H 0.94505 -0.10955 0.48733
 C295 C 0.31049 0.39238 0.96305
 C296 C 0.27356 0.40042 0.99826
 C297 C 0.28681 0.44986 1.00028
 C298 C 0.32332 0.44215 0.96513
 C299 C 0.32022 0.43996 1.03787
 C300 C 0.30739 0.39016 1.03590
 C301 C 0.34394 0.38281 1.00066
 C302 C 0.35696 0.43226 1.00273
 H303 H 0.30667 0.37248 0.93217
 H304 H 0.23892 0.38755 0.99648
 H305 H 0.32992 0.46303 0.93545
 H306 H 0.32421 0.45901 1.06921
 H307 H 0.30038 0.36895 1.06530
 H308 H 0.39148 0.44546 1.00462
 C309 C 0.89534 0.18634 0.46052
 C310 C 0.90068 0.22607 0.49301
 C311 C 0.94989 0.21331 0.49990
 C312 C 0.94486 0.17400 0.46747
 C313 C 0.93713 0.18322 0.53932
 C314 C 0.88753 0.19554 0.53249
 C315 C 0.88286 0.15617 0.49997
 C316 C 0.93208 0.14367 0.50690
 H317 H 0.87784 0.18744 0.42799
 H318 H 0.88819 0.26035 0.48720
 H319 H 0.96819 0.16497 0.44031
 H320 H 0.95410 0.18228 0.57212
 H321 H 0.86402 0.20482 0.55945
 H322 H 0.94506 0.10955 0.51267
 C323 C 0.30739 0.60986 -0.03591
 C324 C 0.32022 0.56006 -0.03788
 C325 C 0.28681 0.55016 -0.00029
 C326 C 0.27356 0.59961 0.00174
 C327 C 0.32333 0.55787 0.03486
 C328 C 0.35696 0.56776 -0.00274
 C329 C 0.34395 0.61721 -0.00067
 C330 C 0.31050 0.60764 0.03694
 H331 H 0.30039 0.63108 -0.06531
 H332 H 0.32421 0.54101 -0.06922
 H333 H 0.23893 0.61247 0.00351
 H334 H 0.32991 0.53699 0.06454
 H335 H 0.39148 0.55456 -0.00463
 H336 H 0.30667 0.62754 0.06783
 C337 C 0.11247 -0.19554 0.53249
 C338 C 0.06286 -0.18322 0.53932
 C339 C 0.05011 -0.21332 0.49991
 C340 C 0.09931 -0.22607 0.49301
 C341 C 0.05514 -0.17401 0.46747
 C342 C 0.06792 -0.14367 0.50690
 C343 C 0.11714 -0.15618 0.49997
 C344 C 0.10466 -0.18635 0.46053
 H345 H 0.13598 -0.20482 0.55945
 H346 H 0.04590 -0.18227 0.57212
 H347 H 0.11181 -0.26036 0.48721
 H348 H 0.03181 -0.16498 0.44031
 H349 H 0.05494 -0.10955 0.51266
 H350 H 0.12216 -0.18745 0.42800
 C351 C 0.69260 0.39015 0.96409
 C352 C 0.67977 0.43995 0.96213
 C353 C 0.71319 0.44984 0.99972
 C354 C 0.72644 0.40040 1.00173
 C355 C 0.67669 0.44212 1.03487
 C356 C 0.64304 0.43224 0.99728
 C357 C 0.65605 0.38279 0.99934
 C358 C 0.68952 0.39235 1.03694
 H359 H 0.69959 0.36894 0.93468
 H360 H 0.67577 0.45900 0.93080
 H361 H 0.76108 0.38753 1.00349
 H362 H 0.67011 0.46300 1.06456
 H363 H 0.60852 0.44545 0.99540
 H364 H 0.69335 0.37245 1.06782
 C365 C 0.50666 0.06782 1.14347
 C366 C 0.53939 0.06248 1.18279
 C367 C 0.50001 0.05004 1.21315
 C368 C 0.46728 0.05535 1.17408
 C369 C 0.49359 0.09919 1.22600
 C370 C 0.53303 0.11203 1.19519
 C371 C 0.50021 0.11699 1.15607
 C372 C 0.46080 0.10483 1.18651
 H373 H 0.51209 0.05485 1.10930
 H374 H 0.57212 0.04531 1.18160
 H375 H 0.43980 0.03231 1.16523
 H376 H 0.48812 0.11168 1.26033
 H377 H 0.56030 0.13528 1.20430
 H378 H 0.42836 0.12256 1.18787
 C379 C -0.03919 0.68652 0.60483
 C380 C -0.00640 0.72600 0.59919
 C381 C 0.00001 0.71315 0.55004
 C382 C -0.03273 0.67408 0.55535
 C383 C 0.03939 0.68278 0.56246
 C384 C 0.03304 0.69518 0.61201
 C385 C 0.00021 0.65607 0.61698
 C386 C 0.00664 0.64347 0.56781
 H387 H -0.07163 0.68789 0.62257
 H388 H -0.01186 0.76033 0.61167
 H389 H -0.06022 0.66523 0.53233
 H390 H 0.07211 0.68158 0.54528
 H391 H 0.06031 0.70429 0.63525
 H392 H 0.01206 0.60929 0.55485
 C393 C 0.46082 0.89517 -0.18651
 C394 C 0.46729 0.94465 -0.17408
 C395 C 0.50003 0.94996 -0.21315
 C396 C 0.49361 0.90081 -0.22600
 C397 C 0.53941 0.93753 -0.18279
 C398 C 0.50667 0.93219 -0.14347
 C399 C 0.50023 0.88302 -0.15607
 C400 C 0.53305 0.88797 -0.19519
 H401 H 0.42838 0.87744 -0.18786
 H402 H 0.43981 0.96768 -0.16523
 H403 H 0.48814 0.88832 -0.26032
 H404 H 0.57213 0.95471 -0.18160
 H405 H 0.51210 0.94516 -0.10930
 H406 H 0.56032 0.86473 -0.20430
 C407 C 0.96083 0.31347 0.39517
 C408 C 0.99363 0.27400 0.40081
 C409 C 1.00003 0.28685 0.44996
 C410 C 0.96729 0.32591 0.44464
 C411 C 1.03941 0.31722 0.43754
 C412 C 1.03307 0.30481 0.38798
 C413 C 1.00023 0.34393 0.38302
 C414 C 1.00666 0.35653 0.43219
 H415 H 0.92839 0.31211 0.37743
 H416 H 0.98816 0.23966 0.38832
 H417 H 0.93980 0.33476 0.46767
 H418 H 1.07213 0.31841 0.45472
 H419 H 1.06034 0.29570 0.36475
 H420 H 1.01208 0.39070 0.44515
 C421 C 0.49334 0.93220 0.14347
 C422 C 0.46060 0.93753 0.18278
 C423 C 0.49998 0.94997 0.21315
 C424 C 0.53272 0.94466 0.17408
 C425 C 0.50640 0.90082 0.22599
 C426 C 0.46696 0.88798 0.19518
 C427 C 0.49979 0.88303 0.15606
 C428 C 0.53919 0.89518 0.18651
 H429 H 0.48791 0.94516 0.10930
 H430 H 0.42787 0.95471 0.18160
 H431 H 0.56019 0.96770 0.16523
 H432 H 0.51188 0.88833 0.26032
 H433 H 0.43970 0.86474 0.20429
 H434 H 0.57163 0.87746 0.18786
 C435 C 0.03919 0.31349 0.60483
 C436 C 0.00639 0.27401 0.59918
 C437 C -0.00001 0.28685 0.55003
 C438 C 0.03273 0.32592 0.55535
 C439 C -0.03939 0.31723 0.56246
 C440 C -0.03305 0.30482 0.61201
 C441 C -0.00022 0.34394 0.61697
 C442 C -0.00665 0.35654 0.56781
 H443 H 0.07162 0.31213 0.62256
 H444 H 0.01186 0.23968 0.61167
 H445 H 0.06021 0.33477 0.53232
 H446 H -0.07211 0.31842 0.54528
 H447 H -0.06032 0.29571 0.63524
 H448 H -0.01207 0.39071 0.55484
 C449 C 0.46695 0.11202 0.80482
 C450 C 0.50639 0.09919 0.77401
 C451 C 0.49998 0.05004 0.78685
 C452 C 0.46059 0.06247 0.81722
 C453 C 0.53271 0.05534 0.82592
 C454 C 0.53918 0.10482 0.81349
 C455 C 0.49977 0.11698 0.84394
 C456 C 0.49333 0.06781 0.85653
 H457 H 0.43968 0.13526 0.79571
 H458 H 0.51187 0.11168 0.73968
 H459 H 0.42787 0.04529 0.81840
 H460 H 0.56019 0.03231 0.83478
 H461 H 0.57162 0.12255 0.81214
 H462 H 0.48790 0.05484 0.89070
 C463 C 0.99334 0.64346 0.43219
 C464 C 1.03271 0.67408 0.44465
 C465 C 0.99997 0.71314 0.44997
 C466 C 0.96059 0.68277 0.43754
 C467 C 1.00637 0.72599 0.40082
 C468 C 1.03917 0.68651 0.39517
 C469 C 0.99977 0.65606 0.38303
 C470 C 0.96693 0.69517 0.38799
 H471 H 0.98792 0.60929 0.44516
 H472 H 1.06020 0.66523 0.46768
 H473 H 0.92787 0.68157 0.45472
 H474 H 1.01184 0.76032 0.38833
 H475 H 1.07161 0.68787 0.37744
 H476 H 0.93966 0.70428 0.36475
 C477 C 1.14303 0.50263 0.06775
 C478 C 1.17969 0.53784 0.05998
 C479 C 1.21318 0.50030 0.05015
 C480 C 1.17675 0.46508 0.05792
 C481 C 1.22644 0.49840 0.09959
 C482 C 1.19253 0.53599 0.10978
 C483 C 1.15605 0.50068 0.11720
 C484 C 1.18959 0.46313 0.10769
 H485 H 1.10850 0.50442 0.05454
 H486 H 1.17563 0.56913 0.04088
 H487 H 1.17023 0.43534 0.03710
 H488 H 1.26108 0.49672 0.11246
 H489 H 1.19947 0.56545 0.13094
 H490 H 1.19348 0.43228 0.12765
 C491 C 0.61248 -0.03249 0.69553
 C492 C 0.59933 0.00700 0.72607
 C493 C 0.55012 0.00010 0.71331
 C494 C 0.56287 -0.03933 0.68322
 C495 C 0.55514 0.03253 0.67400
 C496 C 0.60466 0.03948 0.68634
 C497 C 0.61714 0.00004 0.65617
 C498 C 0.56792 -0.00690 0.64367
 H499 H 0.63600 -0.05944 0.70481
 H500 H 0.61182 0.01281 0.76034
 H501 H 0.54591 -0.07212 0.68228
 H502 H 0.53181 0.05969 0.66497
 H503 H 0.62216 0.07202 0.68744
 H504 H 0.55494 -0.01267 0.60955
 C505 C -0.14303 0.50263 0.93225
 C506 C -0.17970 0.53783 0.94001
 C507 C -0.21318 0.50028 0.94985
 C508 C -0.17673 0.46507 0.94208
 C509 C -0.22644 0.49836 0.90041
 C510 C -0.19254 0.53596 0.89021
 C511 C -0.15605 0.50067 0.88280
 C512 C -0.18957 0.46310 0.89231
 H513 H -0.10850 0.50443 0.94546
 H514 H -0.17565 0.56912 0.95911
 H515 H -0.17020 0.43534 0.96290
 H516 H -0.26108 0.49667 0.88754
 H517 H -0.19949 0.56542 0.86906
 H518 H -0.19345 0.43226 0.87236
 C519 C 0.43208 -0.00691 0.35633
 C520 C 0.43713 -0.03933 0.31677
 C521 C 0.44987 0.00009 0.28669
 C522 C 0.44486 0.03252 0.32600
 C523 C 0.40067 0.00699 0.27394
 C524 C 0.38752 -0.03250 0.30447
 C525 C 0.38286 0.00002 0.34383
 C526 C 0.39533 0.03947 0.31367
 H527 H 0.44506 -0.01268 0.39045
 H528 H 0.45409 -0.07213 0.31771
 H529 H 0.46818 0.05968 0.33503
 H530 H 0.38817 0.01280 0.23966
 H531 H 0.36401 -0.05946 0.29519
 H532 H 0.37783 0.07200 0.31257
 C533 C 0.14303 0.49739 0.93225
 C534 C 0.17970 0.46218 0.94001
 C535 C 0.21318 0.49972 0.94985
 C536 C 0.17674 0.53494 0.94207
 C537 C 0.22644 0.50163 0.90040
 C538 C 0.19253 0.46404 0.89021
 C539 C 0.15605 0.49934 0.88280
 C540 C 0.18958 0.53690 0.89230
 H541 H 0.10850 0.49559 0.94545
 H542 H 0.17563 0.43089 0.95912
 H543 H 0.17022 0.56468 0.96289
 H544 H 0.26108 0.50331 0.88753
 H545 H 0.19947 0.43458 0.86906
 H546 H 0.19346 0.56774 0.87235
 C547 C 0.56791 0.00691 0.35633
 C548 C 0.56287 0.03934 0.31678
 C549 C 0.55012 -0.00008 0.28669
 C550 C 0.55514 -0.03251 0.32600
 C551 C 0.59932 -0.00698 0.27394
 C552 C 0.61248 0.03250 0.30447
 C553 C 0.61714 -0.00002 0.34383
 C554 C 0.60467 -0.03946 0.31366
 H555 H 0.55493 0.01268 0.39045
 H556 H 0.54590 0.07214 0.31772
 H557 H 0.53181 -0.05968 0.33503
 H558 H 0.61182 -0.01279 0.23966
 H559 H 0.63598 0.05946 0.29519
 H560 H 0.62217 -0.07200 0.31257
 C561 C 0.85698 0.49735 0.06775
 C562 C 0.82030 0.46215 0.05999
 C563 C 0.78682 0.49970 0.05015
 C564 C 0.82327 0.53491 0.05792
 C565 C 0.77357 0.50162 0.09960
 C566 C 0.80747 0.46402 0.10979
 C567 C 0.84396 0.49931 0.11720
 C568 C 0.81043 0.53688 0.10769
 H569 H 0.89150 0.49555 0.05454
 H570 H 0.82435 0.43086 0.04089
 H571 H 0.82980 0.56464 0.03710
 H572 H 0.73893 0.50331 0.11246
 H573 H 0.80052 0.43456 0.13095
 H574 H 0.80655 0.56773 0.12764
 C575 C 0.38752 0.03248 0.69553
 C576 C 0.40068 -0.00700 0.72607
 C577 C 0.44988 -0.00010 0.71331
 C578 C 0.43713 0.03932 0.68323
 C579 C 0.44486 -0.03253 0.67400
 C580 C 0.39534 -0.03949 0.68634
 C581 C 0.38286 -0.00004 0.65617
 C582 C 0.43208 0.00689 0.64367
 H583 H 0.36401 0.05944 0.70482
 H584 H 0.38818 -0.01281 0.76034
 H585 H 0.45409 0.07212 0.68229
 H586 H 0.46819 -0.05969 0.66497
 H587 H 0.37784 -0.07202 0.68743
 H588 H 0.44506 0.01267 0.60956
   
