data_POSCAR
  _audit_creation_date              2014-09-24
  _audit_creation_method            'ToBaCCo'
  _symmetry_space_group_name_H-M    'P1'
  _symmetry_Int_Tables_number       1
  _symmetry_cell_setting            triclinic
  loop_
  _symmetry_equiv_pos_as_xyz
 x,y,z
_cell_length_a 28.8686
_cell_length_b 26.4532
_cell_length_c 13.9985
_cell_angle_alpha 90.019200
_cell_angle_beta 90.040100
_cell_angle_gamma 90.028300
loop_
  _atom_site_label
  _atom_site_type_symbol
  _atom_site_fract_x
  _atom_site_fract_y
  _atom_site_fract_z
C1 C 0.72035 0.28300 0.55597
 C2 C 0.71568 0.27787 0.45357
 C3 C 0.75030 0.25000 0.40568
 C4 C 0.78590 0.22209 0.45090
 C5 C 0.78231 0.21653 0.55382
 C6 C 0.75177 0.24990 0.60155
 H7 H 0.75238 0.24991 0.67833
 H8 H 0.74942 0.25009 0.32884
 C9 C 0.21867 0.78086 0.55387
 C10 C 0.21730 0.77964 0.45108
 C11 C 0.24673 0.74502 0.40468
 C12 C 0.28290 0.71854 0.45042
 C13 C 0.28399 0.71955 0.55369
 C14 C 0.25511 0.75506 0.59942
 H15 H 0.26071 0.76249 0.67451
 H16 H 0.24145 0.73863 0.32923
 C17 C 0.28088 0.28080 -0.55288
 C18 C 0.28255 0.27847 -0.45026
 C19 C 0.25338 0.24342 -0.40443
 C20 C 0.21628 0.21806 -0.44967
 C21 C 0.21514 0.21976 -0.55328
 C22 C 0.24420 0.25544 -0.59856
 H23 H 0.23861 0.26329 -0.67349
 H24 H 0.25948 0.23617 -0.32944
 C25 C -0.21795 0.77900 -0.55140
 C26 C -0.21924 0.78103 -0.44874
 C27 C -0.25560 0.75530 -0.40286
 C28 C -0.28463 0.71957 -0.44818
 C29 C -0.28389 0.71819 -0.55181
 C30 C -0.24709 0.74390 -0.59725
 H31 H -0.24123 0.73688 -0.67238
 H32 H -0.26095 0.76290 -0.32777
 N33 N 0.04973 0.94494 -0.16444
 N34 N 0.08011 0.93389 -0.23141
 N35 N -0.04823 0.90968 -0.10139
 N36 N -0.07868 0.87408 -0.12260
 N37 N -0.04752 0.94455 -0.16811
 N38 N -0.07744 0.93363 -0.23632
 N39 N 0.04913 0.90970 -0.09838
 N40 N 0.07920 0.87367 -0.11894
 C41 C 0.09877 0.88982 -0.20142
 C42 C -0.09713 0.88998 -0.20638
 N43 N -0.05022 0.94754 0.16879
 N44 N -0.08076 0.93788 0.23612
 N45 N 0.04762 0.91112 0.10777
 N46 N 0.07826 0.87604 0.13089
 N47 N 0.04700 0.94716 0.17221
 N48 N 0.07715 0.93765 0.24063
 N49 N -0.04980 0.91123 0.10482
 N50 N -0.08020 0.87579 0.12732
 Mn51 Mn -0.00033 0.90990 0.00320
 C52 C -0.09972 0.89342 0.20885
 C53 C 0.09687 0.89353 0.21347
 N54 N -0.04744 1.05317 -0.17069
 N55 N -0.07799 1.06179 -0.23860
 N56 N 0.04919 1.08979 -0.10283
 N57 N 0.07893 1.12589 -0.12512
 N58 N 0.04974 1.05389 -0.16767
 N59 N 0.07979 1.06471 -0.23566
 N60 N -0.04832 1.08934 -0.10643
 N61 N -0.07976 1.12362 -0.12926
 Mn62 Mn 0.00117 0.99914 -0.16839
 C63 C -0.09833 1.10549 -0.21152
 C64 C 0.09834 1.10929 -0.20741
 N65 N 0.04703 1.05562 0.16914
 N66 N 0.07731 1.06531 0.23694
 N67 N -0.04961 1.09149 0.10048
 N68 N -0.07805 1.12874 0.12336
 N69 N -0.05008 1.05633 0.16674
 N70 N -0.07888 1.06870 0.23601
 N71 N 0.04772 1.09113 0.10366
 N72 N 0.07864 1.12618 0.12575
 Mn73 Mn -0.00160 1.00165 0.16976
 Mn74 Mn -0.00028 1.09099 -0.00139
 Cl75 Cl -0.00028 1.00045 0.00080
 C76 C 0.09726 1.10901 0.20865
 C77 C -0.09664 1.11352 0.20742
 N78 N 0.54924 0.58960 -0.10535
 N79 N 0.57989 0.62486 -0.12758
 N80 N 0.45187 0.55375 -0.17066
 N81 N 0.42162 0.56354 -0.23856
 N82 N 0.45174 0.58962 -0.10590
 N83 N 0.42124 0.62498 -0.12846
 N84 N 0.54898 0.55380 -0.17024
 N85 N 0.57934 0.56349 -0.23783
 C86 C 0.59887 0.60751 -0.20993
 C87 C 0.40226 0.60768 -0.21093
 N88 N 0.45194 0.40959 -0.10642
 N89 N 0.42130 0.37431 -0.12875
 N90 N 0.54914 0.44581 -0.17078
 N91 N 0.58004 0.43688 -0.23776
 N92 N 0.54956 0.40991 -0.10612
 N93 N 0.58100 0.37538 -0.12787
 N94 N 0.45201 0.44552 -0.17099
 N95 N 0.42158 0.43585 -0.23860
 Mn96 Mn 0.50047 0.49971 -0.17112
 C97 C 0.40219 0.39172 -0.21091
 C98 C 0.60013 0.39321 -0.20983
 N99 N 0.45173 0.58949 0.10041
 N100 N 0.42168 0.62535 0.12204
 N101 N 0.54898 0.55409 0.16685
 N102 N 0.57872 0.56516 0.23536
 N103 N 0.54904 0.58955 0.10111
 N104 N 0.57887 0.62559 0.12334
 N105 N 0.45165 0.55401 0.16606
 N106 N 0.42159 0.56484 0.23393
 Mn107 Mn 0.50045 0.59011 -0.00238
 C108 C 0.40262 0.60900 0.20481
 C109 C 0.59767 0.60942 0.20658
 N110 N 0.54889 0.40929 0.10076
 N111 N 0.57749 0.37238 0.12445
 N112 N 0.45159 0.44479 0.16574
 N113 N 0.42136 0.43401 0.23334
 N114 N 0.45167 0.40936 0.09991
 N115 N 0.42140 0.37360 0.12116
 N116 N 0.54884 0.44468 0.16671
 N117 N 0.57744 0.43273 0.23668
 Mn118 Mn 0.50055 0.40899 -0.00298
 Mn119 Mn 0.50028 0.49941 0.16709
 Cl120 Cl 0.50046 0.49954 -0.00213
 C121 C 0.59557 0.38794 0.20873
 C122 C 0.40223 0.38996 0.20391
 C123 C 0.31522 0.30868 0.37988
 C124 C 0.29815 0.36218 0.35475
 C125 C 0.32677 0.38883 0.29653
 C126 C 0.36978 0.35953 0.26501
 C127 C 0.39331 0.34198 0.35720
 C128 C 0.36549 0.31424 0.41514
 C129 C 0.32282 0.28369 0.28053
 C130 C 0.35084 0.31057 0.22037
 H131 H 0.26523 0.37733 0.37890
 H132 H 0.31845 0.42665 0.27179
 H133 H 0.43048 0.34414 0.36862
 H134 H 0.38095 0.29041 0.46851
 H135 H 0.30998 0.24657 0.26094
 H136 H 0.36033 0.29685 0.14999
 C137 C -0.18757 0.81182 0.38193
 C138 C -0.17611 0.86519 0.41833
 C139 C -0.14652 0.89161 0.36217
 C140 C -0.13259 0.86381 0.27028
 C141 C -0.11236 0.81325 0.30285
 C142 C -0.14127 0.78585 0.35896
 C143 C -0.20804 0.82365 0.28150
 C144 C -0.17896 0.85030 0.22301
 H145 H -0.19607 0.88472 0.47173
 H146 H -0.13994 0.93147 0.37483
 H147 H -0.07886 0.79904 0.28007
 H148 H -0.13250 0.74803 0.38305
 H149 H -0.24333 0.81522 0.26011
 H150 H -0.18912 0.86298 0.15230
 C151 C 0.68359 0.69159 0.38425
 C152 C 0.70151 0.63858 0.35745
 C153 C 0.67320 0.61167 0.29896
 C154 C 0.62964 0.64018 0.26838
 C155 C 0.60595 0.65676 0.36097
 C156 C 0.63331 0.68498 0.41921
 C157 C 0.67509 0.71704 0.28533
 C158 C 0.64755 0.68981 0.22470
 H159 H 0.73480 0.62390 0.38068
 H160 H 0.68216 0.57421 0.27321
 H161 H 0.56878 0.65418 0.37196
 H162 H 0.61713 0.70888 0.47154
 H163 H 0.68673 0.75476 0.26659
 H164 H 0.63743 0.70386 0.15491
 C165 C 0.18612 1.18899 0.38303
 C166 C 0.17433 1.13539 0.41803
 C167 C 0.14430 1.10972 0.36155
 C168 C 0.13056 1.13811 0.27015
 C169 C 0.11088 1.18876 0.30338
 C170 C 0.14005 1.21558 0.35996
 C171 C 0.20647 1.17706 0.28221
 C172 C 0.17705 1.15115 0.22314
 H173 H 0.19458 1.11494 0.46976
 H174 H 0.13770 1.06976 0.37298
 H175 H 0.07757 1.20349 0.28058
 H176 H 0.13156 1.25343 0.38444
 H177 H 0.24199 1.18453 0.26117
 H178 H 0.18712 1.13835 0.15248
 C179 C 0.69126 0.31431 -0.38135
 C180 C 0.67695 0.36637 -0.42030
 C181 C 0.64619 0.39175 -0.36482
 C182 C 0.63426 0.36474 -0.27071
 C183 C 0.61660 0.31247 -0.29951
 C184 C 0.64649 0.28601 -0.35486
 C185 C 0.71178 0.32973 -0.28225
 C186 C 0.68159 0.35521 -0.22428
 H187 H 0.69541 0.38617 -0.47575
 H188 H 0.63729 0.43083 -0.37976
 H189 H 0.58393 0.29668 -0.27532
 H190 H 0.63914 0.24750 -0.37723
 H191 H 0.74802 0.32626 -0.26267
 H192 H 0.69184 0.37086 -0.15576
 C193 C 0.18462 0.80849 -0.37843
 C194 C 0.17692 0.78306 -0.27947
 C195 C 0.14925 0.80993 -0.21867
 C196 C 0.13077 0.85920 -0.26252
 C197 C 0.17397 0.88828 -0.29371
 C198 C 0.20223 0.86167 -0.35256
 C199 C 0.13441 0.81458 -0.41343
 C200 C 0.10693 0.84228 -0.35486
 H201 H 0.18933 0.74565 -0.26071
 H202 H 0.13963 0.79597 -0.14855
 H203 H 0.18264 0.92591 -0.26838
 H204 H 0.23521 0.87667 -0.37682
 H205 H 0.11871 0.79113 -0.46717
 H206 H 0.06976 0.84480 -0.36600
 C207 C 0.31321 0.68849 -0.38368
 C208 C 0.35943 0.71488 -0.36091
 C209 C 0.38868 0.68778 -0.30499
 C210 C 0.36899 0.63701 -0.27224
 C211 C 0.32265 0.64996 -0.22459
 C212 C 0.29313 0.67616 -0.28286
 C213 C 0.32486 0.63507 -0.41984
 C214 C 0.35496 0.60904 -0.36400
 H215 H 0.36805 0.75270 -0.38536
 H216 H 0.42217 0.70228 -0.28264
 H217 H 0.31270 0.63688 -0.15403
 H218 H 0.25769 0.68360 -0.26126
 H219 H 0.30456 0.61502 -0.47212
 H220 H 0.36162 0.56918 -0.37633
 C221 C -0.18864 1.18458 -0.38431
 C222 C -0.14418 1.21296 -0.35576
 C223 C -0.11453 1.18635 -0.30019
 C224 C -0.13212 1.13384 -0.27313
 C225 C -0.17979 1.14276 -0.22793
 C226 C -0.20972 1.16834 -0.28626
 C227 C -0.17381 1.13276 -0.42392
 C228 C -0.14322 1.10727 -0.36810
 H229 H -0.13693 1.25171 -0.37669
 H230 H -0.08214 1.20223 -0.27456
 H231 H -0.19038 1.12669 -0.16002
 H232 H -0.24610 1.17168 -0.26771
 H233 H -0.19204 1.11282 -0.47951
 H234 H -0.13416 1.06826 -0.38330
 C235 C 0.68673 0.68843 -0.38450
 C236 C 0.64060 0.71468 -0.36064
 C237 C 0.61176 0.68752 -0.30408
 C238 C 0.63181 0.63690 -0.27158
 C239 C 0.64539 0.60883 -0.36341
 C240 C 0.67510 0.63485 -0.41995
 C241 C 0.70747 0.67637 -0.28405
 C242 C 0.67837 0.65012 -0.22494
 H243 H 0.63185 0.75256 -0.38452
 H244 H 0.57844 0.70199 -0.28075
 H245 H 0.63898 0.56886 -0.37516
 H246 H 0.69533 0.61464 -0.47199
 H247 H 0.74302 0.68401 -0.26331
 H248 H 0.68875 0.63720 -0.15453
 C249 C 0.18388 1.19146 -0.38556
 C250 C 0.13346 1.18507 -0.41994
 C251 C 0.10624 1.15683 -0.36156
 C252 C 0.13020 1.14002 -0.26938
 C253 C 0.17358 1.11142 -0.30072
 C254 C 0.20174 1.13832 -0.35941
 C255 C 0.17582 1.21675 -0.28634
 C256 C 0.14842 1.18952 -0.22557
 H257 H 0.11717 1.20904 -0.47200
 H258 H 0.06903 1.15434 -0.37215
 H259 H 0.18252 1.07388 -0.27541
 H260 H 0.23487 1.12355 -0.38328
 H261 H 0.18767 1.25439 -0.26745
 H262 H 0.13862 1.20346 -0.15552
 C263 C 0.31333 0.31094 -0.38362
 C264 C 0.29329 0.32263 -0.28280
 C265 C 0.32269 0.34898 -0.22441
 C266 C 0.36895 0.36237 -0.27213
 C267 C 0.38883 0.31178 -0.30545
 C268 C 0.35961 0.28468 -0.36151
 C269 C 0.32488 0.36435 -0.41961
 C270 C 0.35479 0.39047 -0.36356
 H271 H 0.25804 0.31433 -0.26104
 H272 H 0.31285 0.36154 -0.15344
 H273 H 0.42236 0.29735 -0.28324
 H274 H 0.36815 0.24690 -0.38619
 H275 H 0.30487 0.38408 -0.47269
 H276 H 0.36153 0.43031 -0.37595
 C277 C -0.18471 0.80886 -0.38171
 C278 C -0.20175 0.86230 -0.35600
 C279 C -0.17291 0.88892 -0.29806
 C280 C -0.12976 0.85962 -0.26729
 C281 C -0.14850 0.81058 -0.22269
 C282 C -0.17671 0.78375 -0.28263
 C283 C -0.13459 0.81452 -0.41762
 C284 C -0.10657 0.84220 -0.35988
 H285 H -0.23481 0.87742 -0.37949
 H286 H -0.18117 0.92668 -0.27294
 H287 H -0.13870 0.79674 -0.15256
 H288 H -0.18940 0.74656 -0.26310
 H289 H -0.11931 0.79072 -0.47124
 H290 H -0.06944 0.84437 -0.37175
 C291 C 0.31696 0.69072 0.38241
 C292 C 0.36718 0.68414 0.41740
 C293 C 0.39451 0.65623 0.35887
 C294 C 0.37067 0.63962 0.26640
 C295 C 0.32725 0.61087 0.29723
 C296 C 0.29905 0.63768 0.35596
 C297 C 0.32493 0.71619 0.28363
 C298 C 0.35250 0.68917 0.22283
 H299 H 0.38311 0.70738 0.47115
 H300 H 0.43165 0.65338 0.37014
 H301 H 0.31830 0.57340 0.27150
 H302 H 0.26583 0.62301 0.37949
 H303 H 0.31283 0.75374 0.26500
 H304 H 0.36228 0.70319 0.15284
 C305 C -0.18118 1.19638 0.38648
 C306 C -0.13157 1.18714 0.42340
 C307 C -0.10456 1.15888 0.36450
 C308 C -0.12779 1.14497 0.26964
 C309 C -0.17262 1.11779 0.29616
 C310 C -0.20055 1.14469 0.35506
 C311 C -0.17047 1.22339 0.28985
 C312 C -0.14334 1.19610 0.22857
 H313 H -0.11536 1.20889 0.47913
 H314 H -0.06769 1.15428 0.37731
 H315 H -0.18255 1.08115 0.26778
 H316 H -0.23442 1.13074 0.37626
 H317 H -0.17939 1.26237 0.27411
 H318 H -0.13128 1.21133 0.16103
 C319 C 0.68040 0.30523 0.38697
 C320 C 0.69998 0.35667 0.35492
 C321 C 0.67196 0.38367 0.29632
 C322 C 0.62679 0.35678 0.27110
 C323 C 0.64172 0.30534 0.23027
 C324 C 0.66903 0.27807 0.29112
 C325 C 0.63124 0.31532 0.42537
 C326 C 0.60403 0.34349 0.36667
 H327 H 0.73407 0.37029 0.37542
 H328 H 0.68196 0.42017 0.26747
 H329 H 0.62925 0.28998 0.16311
 H330 H 0.67775 0.23902 0.27560
 H331 H 0.61540 0.29448 0.48262
 H332 H 0.56735 0.34884 0.38064
 C333 C 0.18630 0.81247 0.38515
 C334 C 0.14008 0.78611 0.36265
 C335 C 0.11069 0.81333 0.30721
 C336 C 0.13029 0.86423 0.27472
 C337 C 0.14438 0.89193 0.36662
 C338 C 0.17448 0.86568 0.42214
 C339 C 0.20618 0.82478 0.28451
 C340 C 0.17662 0.85130 0.22674
 H341 H 0.13167 0.74818 0.38673
 H342 H 0.07718 0.79884 0.28497
 H343 H 0.13727 0.93162 0.37988
 H344 H 0.19427 0.88521 0.47589
 H345 H 0.24145 0.81683 0.26247
 H346 H 0.18639 0.86429 0.15602
   
