data_POSCAR
  _audit_creation_date              2014-09-24
  _audit_creation_method            'ToBaCCo'
  _symmetry_space_group_name_H-M    'P1'
  _symmetry_Int_Tables_number       1
  _symmetry_cell_setting            triclinic
  loop_
  _symmetry_equiv_pos_as_xyz
 x,y,z
_cell_length_a 27.8210
_cell_length_b 28.0962
_cell_length_c 59.0257
_cell_angle_alpha 85.697400
_cell_angle_beta 93.061700
_cell_angle_gamma 120.590400
loop_
  _atom_site_label
  _atom_site_type_symbol
  _atom_site_fract_x
  _atom_site_fract_y
  _atom_site_fract_z
C1 C 0.03231 0.09627 0.53515
 H2 H 0.07110 0.09713 0.53291
 C3 C 0.03033 0.13122 0.55013
 H4 H 0.06803 0.15929 0.55922
 C5 C -0.06318 0.06016 0.52504
 H6 H -0.09917 0.03289 0.51494
 C7 C -0.06681 0.09521 0.53962
 H8 H -0.10593 0.09438 0.54085
 N9 N -0.01409 0.06127 0.52319
 C10 C 0.02540 -0.06306 0.50648
 H11 H 0.02395 -0.05954 0.48811
 C12 C 0.03137 -0.10555 0.51756
 H13 H 0.03439 -0.13439 0.50742
 C14 C 0.01733 -0.03278 0.54172
 H15 H 0.00939 -0.00603 0.55111
 C16 C 0.02323 -0.07451 0.55347
 H17 H 0.02111 -0.07830 0.57183
 Zn18 Zn -0.00415 0.01876 0.50266
 N19 N 0.01779 -0.02825 0.51863
 C20 C 0.10158 0.07490 0.48074
 N21 N 0.05068 0.07015 0.48220
 C22 C 0.03838 0.10621 0.47048
 C23 C 0.07811 0.14956 0.45673
 C24 C 0.14289 0.11809 0.46727
 C25 C -0.11290 -0.06965 0.49995
 C26 C -0.16030 -0.11199 0.48967
 C27 C -0.12269 -0.06735 0.45309
 C28 C -0.07579 -0.02625 0.46415
 N29 N -0.07141 -0.02858 0.48717
 H30 H 0.11080 0.04638 0.49057
 H31 H -0.00228 0.10173 0.47215
 H32 H 0.06659 0.17698 0.44739
 H33 H 0.18364 0.12209 0.46673
 H34 H -0.10814 -0.07061 0.51827
 H35 H -0.19130 -0.14328 0.50094
 H36 H -0.12353 -0.06434 0.43469
 H37 H -0.04192 0.00615 0.45422
 C38 C 0.02924 -0.11235 0.54141
 C39 C -0.01971 0.13099 0.55251
 C40 C -0.16554 -0.11289 0.46567
 C41 C 0.13181 0.15690 0.45540
 C42 C 1.13987 0.03530 0.14808
 H43 H 1.15712 0.06977 0.15891
 C44 C 1.17568 0.02959 0.13441
 H45 H 1.22001 0.05936 0.13529
 C46 C 1.06164 -0.04394 0.13337
 H47 H 1.01692 -0.07169 0.13262
 C48 C 1.09622 -0.05141 0.11941
 H49 H 1.07753 -0.08501 0.10804
 N50 N 1.08392 -0.00126 0.14751
 C51 C 0.96140 0.04843 0.15943
 H52 H 0.96866 0.05614 0.17727
 C53 C 0.91930 0.05391 0.14785
 H54 H 0.89511 0.06626 0.15702
 C55 C 0.98504 0.02449 0.12587
 H56 H 1.01018 0.01235 0.11736
 C57 C 0.94325 0.02948 0.11359
 H58 H 0.93671 0.02086 0.09576
 Zn59 Zn 1.03911 0.01239 0.16646
 N60 N 0.99205 0.03206 0.14858
 C61 C 1.09743 0.12220 0.18257
 N62 N 1.08757 0.06951 0.18556
 C63 C 1.11452 0.05524 0.20212
 C64 C 1.15445 0.09496 0.21609
 C65 C 1.13703 0.16337 0.19632
 C66 C 0.98240 -0.10236 0.18331
 C67 C 0.94334 -0.14696 0.19705
 C68 C 0.92848 -0.08294 0.21641
 C69 C 0.96776 -0.03988 0.20249
 N70 N 0.99258 -0.05021 0.18583
 H71 H 1.07580 0.13263 0.16916
 H72 H 1.10568 0.01296 0.20411
 H73 H 1.17534 0.08252 0.22914
 H74 H 1.14546 0.20544 0.19347
 H75 H 1.00335 -0.10986 0.17038
 H76 H 0.93402 -0.18842 0.19416
 H77 H 0.90841 -0.07364 0.22921
 H78 H 0.97816 0.00202 0.20492
 C79 C 0.90830 0.04229 0.12479
 C80 C 1.15421 -0.01422 0.11986
 C81 C 0.91498 -0.13747 0.21355
 C82 C 1.16697 0.15011 0.21300
 C83 C 0.02029 0.95363 0.87415
 H84 H -0.02055 0.93941 0.88080
 C85 C 0.06250 0.95635 0.88881
 H86 H 0.05412 0.94531 0.90673
 C87 C 0.08020 0.98242 0.84265
 H88 H 0.08608 0.99075 0.82451
 C89 C 0.12404 0.98689 0.85682
 H90 H 0.16391 0.99914 0.84955
 N91 N 0.02964 0.96625 0.85151
 C92 C -0.14130 0.89090 0.85105
 H93 H -0.14748 0.85594 0.84212
 C94 C -0.18428 0.88591 0.86421
 H95 H -0.22285 0.84662 0.86477
 C96 C -0.08361 0.98459 0.85992
 H97 H -0.04412 1.02297 0.85813
 C98 C -0.12521 0.98181 0.87294
 H99 H -0.11627 1.01883 0.88106
 Zn100 Zn -0.03124 0.95310 0.83180
 N101 N -0.09213 0.93969 0.84931
 C102 C -0.05847 0.84401 0.82713
 N103 N -0.04727 0.89165 0.81513
 C104 C -0.04152 0.89688 0.79220
 C105 C -0.04658 0.85313 0.78047
 C106 C -0.06394 0.79920 0.81609
 C107 C 0.03294 1.06516 0.81399
 C108 C 0.03966 1.11225 0.80137
 C109 C -0.05272 1.05667 0.78519
 C110 C -0.05768 1.01080 0.79811
 N111 N -0.01538 1.01579 0.81226
 H112 H -0.06126 0.84155 0.84544
 H113 H -0.03104 0.93560 0.78303
 H114 H -0.04096 0.85843 0.76226
 H115 H -0.07068 0.76266 0.82620
 H116 H 0.06559 1.06867 0.82573
 H117 H 0.07847 1.15102 0.80306
 H118 H -0.08757 1.05188 0.77447
 H119 H -0.09611 0.97130 0.79742
 C120 C -0.17689 0.93200 0.87546
 C121 C 0.11491 0.97262 0.88011
 C122 C -0.00408 1.10861 0.78707
 C123 C -0.05751 0.80355 0.79242
 C124 C 0.52031 0.00749 0.00842
 C125 C 0.51230 0.00109 -0.01437
 C126 C 0.46612 0.00380 -0.02686
 C127 C 0.55150 -0.00490 -0.02829
 C128 C 0.57231 0.01525 0.02017
 C129 C 0.47855 0.00961 0.02241
 C130 C 0.42479 -0.04242 -0.03793
 C131 C 0.38219 -0.03953 -0.05042
 C132 C 0.38136 0.01016 -0.05260
 C133 C 0.42299 0.05654 -0.04156
 C134 C 0.46488 0.05324 -0.02864
 C135 C 0.56203 -0.04856 -0.02367
 C136 C 0.60039 -0.05257 -0.03662
 C137 C 0.62924 -0.01254 -0.05413
 C138 C 0.61757 0.03031 -0.05903
 C139 C 0.57876 0.03383 -0.04633
 C140 C 0.62508 0.05674 0.01238
 C141 C 0.67371 0.06378 0.02350
 C142 C 0.67056 0.03006 0.04288
 C143 C 0.61767 -0.01029 0.05103
 C144 C 0.56905 -0.01767 0.03976
 C145 C 0.49568 0.05354 0.03659
 C146 C 0.45682 0.05685 0.04941
 C147 C 0.39969 0.01633 0.04824
 C148 C 0.38295 -0.02864 0.03458
 C149 C 0.42199 -0.03209 0.02187
 H150 H 0.42547 -0.08073 -0.03680
 H151 H 0.35057 -0.07574 -0.05882
 H152 H 0.42282 0.09511 -0.04278
 H153 H 0.49687 0.08940 -0.02032
 H154 H 0.54082 -0.07919 -0.00996
 H155 H 0.60857 -0.08609 -0.03262
 H156 H 0.57089 0.06758 -0.05024
 H157 H 0.62861 0.08400 -0.00222
 H158 H 0.71367 0.09641 0.01718
 H159 H 0.61391 -0.03667 0.06599
 H160 H 0.52879 -0.04941 0.04622
 H161 H 0.53922 0.08571 0.03756
 H162 H 0.47197 0.09099 0.06037
 H163 H 0.33950 -0.06092 0.03349
 H164 H 0.40801 -0.06725 0.01155
 H165 H 0.63836 0.06105 -0.07274
 C166 C -0.03058 0.47780 0.67756
 C167 C -0.03218 0.48260 0.65444
 C168 C -0.03590 0.43935 0.64032
 C169 C -0.02980 0.53165 0.64205
 C170 C -0.02577 0.52181 0.69154
 C171 C -0.03379 0.42831 0.68989
 C172 C 0.00573 0.42511 0.64157
 C173 C 0.00132 0.38392 0.62827
 C174 C -0.04458 0.35644 0.61332
 C175 C -0.08622 0.37100 0.61220
 C176 C -0.08158 0.41237 0.62543
 C177 C 0.01383 0.56449 0.62702
 C178 C 0.01798 0.61205 0.61589
 C179 C -0.02156 0.62764 0.61951
 C180 C -0.06636 0.59346 0.63406
 C181 C -0.07041 0.54592 0.64521
 C182 C -0.06859 0.50987 0.70640
 C183 C -0.06698 0.55192 0.71824
 C184 C -0.02233 0.60679 0.71551
 C185 C 0.02188 0.61799 0.70135
 C186 C 0.02010 0.57589 0.68948
 C187 C -0.07998 0.37527 0.68699
 C188 C -0.08108 0.32869 0.69776
 C189 C -0.03584 0.33427 0.71162
 C190 C 0.00946 0.38782 0.71503
 C191 C 0.01038 0.43432 0.70432
 H192 H 0.04164 0.44599 0.65280
 H193 H 0.03422 0.37395 0.62954
 H194 H -0.12301 0.34997 0.60148
 H195 H -0.11422 0.42274 0.62436
 H196 H 0.04535 0.55386 0.62427
 H197 H 0.05276 0.63715 0.60471
 H198 H -0.10512 0.52028 0.65635
 H199 H -0.10418 0.46826 0.70829
 H200 H -0.10148 0.54167 0.72910
 H201 H 0.05805 0.65910 0.69942
 H202 H 0.05412 0.58558 0.67842
 H203 H -0.11503 0.36998 0.67628
 H204 H -0.11772 0.28858 0.69534
 H205 H 0.04480 0.39378 0.72569
 H206 H 0.04624 0.47502 0.70684
 H207 H -0.09882 0.60278 0.63668
 C208 C 0.51195 0.52676 0.34589
 C209 C 0.51258 0.52687 0.32281
 C210 C 0.55994 0.57089 0.30935
 C211 C 0.46549 0.48330 0.30978
 C212 C 0.46996 0.47737 0.35947
 C213 C 0.55270 0.57600 0.35853
 C214 C 0.54989 0.60085 0.29155
 C215 C 0.59407 0.64257 0.27885
 C216 C 0.64910 0.65457 0.28351
 C217 C 0.65893 0.62344 0.30090
 C218 C 0.61472 0.58210 0.31382
 C219 C 0.41062 0.47179 0.31231
 C220 C 0.36672 0.43158 0.29962
 C221 C 0.37700 0.40239 0.28405
 C222 C 0.43204 0.41413 0.28159
 C223 C 0.47588 0.45449 0.29419
 C224 C 0.46195 0.42463 0.35659
 C225 C 0.42174 0.37822 0.36906
 C226 C 0.38928 0.38371 0.38503
 C227 C 0.39815 0.43683 0.38811
 C228 C 0.43818 0.48313 0.37554
 C229 C 0.57970 0.56938 0.37826
 C230 C 0.61742 0.61525 0.39037
 C231 C 0.62937 0.66871 0.38282
 C232 C 0.60165 0.67529 0.36332
 C233 C 0.56313 0.62931 0.35148
 H234 H 0.50783 0.59235 0.28770
 H235 H 0.58506 0.66501 0.26521
 H236 H 0.70092 0.63173 0.30474
 H237 H 0.62311 0.55874 0.32726
 H238 H 0.40186 0.49412 0.32407
 H239 H 0.32477 0.42287 0.30231
 H240 H 0.51797 0.46300 0.29191
 H241 H 0.48662 0.41933 0.34452
 H242 H 0.41556 0.33814 0.36574
 H243 H 0.37409 0.44268 0.40028
 H244 H 0.44387 0.52346 0.37813
 H245 H 0.57190 0.52868 0.38421
 H246 H 0.63809 0.60909 0.40542
 H247 H 0.60896 0.71586 0.35746
 H248 H 0.54123 0.63537 0.33687
 H249 H 0.44131 0.39244 0.26971
 C250 C -0.05199 0.23294 0.57347
 C251 C -0.02113 0.24692 0.59392
 N252 N 0.00805 0.22165 0.60090
 C253 C 0.00836 0.18343 0.58819
 C254 C -0.02188 0.16979 0.56746
 N255 N -0.05179 0.19473 0.56075
 N256 N -0.08033 0.25899 0.56634
 C257 C -0.07931 0.29841 0.57874
 C258 C -0.04844 0.31264 0.59936
 N259 N -0.02008 0.28620 0.60631
 H260 H 0.03193 0.16390 0.59424
 H261 H -0.10128 0.31913 0.57213
 C262 C 0.78327 0.78263 0.24554
 C263 C 0.78258 0.73334 0.25220
 N264 N 0.82510 0.72663 0.24611
 C265 C 0.86827 0.76702 0.23360
 C266 C 0.86918 0.81668 0.22699
 N267 N 0.82639 0.82294 0.23327
 N268 N 0.74079 0.78947 0.25138
 C269 C 0.69723 0.74902 0.26354
 C270 C 0.69610 0.69935 0.27029
 N271 N 0.73926 0.69295 0.26453
 H272 H 0.90181 0.76069 0.22925
 H273 H 0.66427 0.75599 0.26816
 C274 C 0.25422 0.01547 -0.09337
 C275 C 0.24189 -0.02967 -0.07796
 N276 N 0.18855 -0.07244 -0.07620
 C277 C 0.14685 -0.07223 -0.08921
 C278 C 0.15910 -0.02755 -0.10496
 N279 N 0.21276 0.01527 -0.10669
 N280 N 0.30747 0.05867 -0.09480
 C281 C 0.34905 0.05869 -0.08157
 C282 C 0.33701 0.01301 -0.06643
 N283 N 0.28350 -0.03014 -0.06507
 H284 H 0.10476 -0.10716 -0.08762
 H285 H 0.39125 0.09336 -0.08324
 C286 C -0.00441 0.77392 0.58548
 C287 C 0.01850 0.74517 0.57655
 N288 N 0.04628 0.76416 0.55666
 C289 C 0.05158 0.81034 0.54512
 C290 C 0.02772 0.83890 0.55380
 N291 N 0.00066 0.81981 0.57396
 N292 N -0.03184 0.75527 0.60542
 C293 C -0.03794 0.70868 0.61680
 C294 C -0.01583 0.67891 0.60777
 N295 N 0.01234 0.69855 0.58785
 H296 H 0.07445 0.82453 0.52945
 H297 H -0.05907 0.69581 0.63288
 C298 C 0.24751 0.27779 0.24511
 C299 C 0.29515 0.27517 0.25204
 N300 N 0.30034 0.23232 0.24615
 C301 C 0.25981 0.19160 0.23370
 C302 C 0.21166 0.19371 0.22674
 N303 N 0.20703 0.23727 0.23255
 N304 N 0.24259 0.32087 0.25103
 C305 C 0.28312 0.36141 0.26363
 C306 C 0.33108 0.35895 0.27063
 N307 N 0.33568 0.31568 0.26448
 H308 H 0.26578 0.15852 0.22898
 H309 H 0.27828 0.39561 0.26771
 C310 C 0.75131 -0.01825 -0.09167
 C311 C 0.70154 -0.06693 -0.08589
 N312 N 0.69235 -0.11588 -0.09287
 C313 C 0.73054 -0.11842 -0.10548
 C314 C 0.78109 -0.06936 -0.11141
 N315 N 0.78943 -0.02078 -0.10404
 N316 N 0.76074 0.03098 -0.08503
 C317 C 0.72225 0.03383 -0.07291
 C318 C 0.67198 -0.01485 -0.06707
 N319 N 0.66305 -0.06433 -0.07360
 H320 H 0.72121 -0.15860 -0.11025
 H321 H 0.73112 0.07367 -0.06769
 C322 C 0.27964 0.02605 0.08612
 C323 C 0.26971 -0.02502 0.07944
 N324 N 0.22150 -0.07195 0.08550
 C325 C 0.18286 -0.07009 0.09807
 C326 C 0.19304 -0.01886 0.10508
 N327 N 0.24145 0.02789 0.09878
 N328 N 0.32750 0.07306 0.08002
 C329 C 0.36646 0.07138 0.06772
 C330 C 0.35759 0.02009 0.06134
 N331 N 0.30878 -0.02689 0.06726
 H332 H 0.14549 -0.10836 0.10300
 H333 H 0.40346 0.10995 0.06280
 C334 C 0.74915 0.80536 0.41927
 C335 C 0.71055 0.75594 0.43068
 N336 N 0.71218 0.75155 0.45368
 C337 C 0.75105 0.79407 0.46592
 C338 C 0.79175 0.84406 0.45461
 N339 N 0.78860 0.84754 0.43138
 N340 N 0.74735 0.81011 0.39623
 C341 C 0.70863 0.76730 0.38407
 C342 C 0.67037 0.71708 0.39546
 N343 N 0.67244 0.71281 0.41859
 H344 H 0.75017 0.78692 0.48410
 H345 H 0.70871 0.77199 0.36570
 C346 C -0.03322 0.19554 0.74431
 C347 C -0.00140 0.24830 0.75280
 N348 N 0.03024 0.25518 0.77193
 C349 C 0.03139 0.21156 0.78304
 C350 C -0.00086 0.15821 0.77471
 N351 N -0.03243 0.15189 0.75544
 N352 N -0.06483 0.18867 0.72517
 C353 C -0.06652 0.23216 0.71421
 C354 C -0.03537 0.28529 0.72287
 N355 N -0.00321 0.29172 0.74196
 H356 H 0.05592 0.21849 0.79857
 H357 H -0.09128 0.22511 0.69875
 C358 C 0.81537 0.04766 0.07803
 C359 C 0.76633 0.03173 0.08966
 N360 N 0.76471 0.02088 0.11247
 C361 C 0.80995 0.02513 0.12424
 C362 C 0.85937 0.04077 0.11268
 N363 N 0.86050 0.05146 0.08972
 N364 N 0.81673 0.05819 0.05518
 C365 C 0.77124 0.05354 0.04341
 C366 C 0.72172 0.03719 0.05501
 N367 N 0.72078 0.02660 0.07794
 H368 H 0.80650 0.01469 0.14231
 H369 H 0.77346 0.06130 0.02517
 C370 C 0.26144 0.24529 0.42224
 C371 C 0.26029 0.29447 0.41818
 N372 N 0.21787 0.29836 0.42634
 C373 C 0.17612 0.25507 0.43827
 C374 C 0.17641 0.20505 0.44220
 N375 N 0.21970 0.20186 0.43414
 N376 N 0.30449 0.24190 0.41436
 C377 C 0.34629 0.28539 0.40244
 C378 C 0.34506 0.33484 0.39807
 N379 N 0.30184 0.33780 0.40628
 H380 H 0.14389 0.26046 0.44495
 H381 H 0.38037 0.28138 0.39686
 C382 C -0.02637 0.73263 0.74960
 C383 C -0.05570 0.67724 0.75786
 N384 N -0.08625 0.66346 0.77693
 C385 C -0.08837 0.70273 0.78829
 C386 C -0.05831 0.75869 0.78026
 N387 N -0.02834 0.77187 0.76092
 N388 N 0.00368 0.74634 0.73040
 C389 C 0.00610 0.70717 0.71911
 C390 C -0.02278 0.65136 0.72744
 N391 N -0.05332 0.63806 0.74664
 H392 H -0.11377 0.69005 0.80324
 H393 H 0.02942 0.71966 0.70359
   
