data_POSCAR
  _audit_creation_date              2014-09-24
  _audit_creation_method            'ToBaCCo'
  _symmetry_space_group_name_H-M    'P1'
  _symmetry_Int_Tables_number       1
  _symmetry_cell_setting            triclinic
  loop_
  _symmetry_equiv_pos_as_xyz
 x,y,z
_cell_length_a 52.0101
_cell_length_b 37.3752
_cell_length_c 22.5876
_cell_angle_alpha 90.090000
_cell_angle_beta 89.620500
_cell_angle_gamma 89.984000
loop_
  _atom_site_label
  _atom_site_type_symbol
  _atom_site_fract_x
  _atom_site_fract_y
  _atom_site_fract_z
O1 O 0.73839 0.28108 0.56349
 O2 O 0.77984 0.24806 0.44265
 O3 O 0.73719 0.28505 0.44830
 O4 O 0.78033 0.24333 0.55747
 O5 O 0.75729 0.19386 0.55355
 O6 O 0.71435 0.23532 0.44501
 O7 O 0.75722 0.19830 0.43862
 O8 O 0.71523 0.23169 0.55880
 Cu9 Cu 0.76123 0.26935 0.50321
 Cu10 Cu 0.73381 0.20976 0.49838
 C11 C 0.71959 0.26222 0.58145
 C12 C 0.77595 0.21730 0.42038
 C13 C 0.71809 0.26744 0.42898
 C14 C 0.77615 0.21137 0.57414
 O15 O 0.28388 0.74857 0.44652
 O16 O 0.24410 0.78920 0.56423
 O17 O 0.28323 0.74596 0.56101
 O18 O 0.24460 0.79243 0.44897
 O19 O 0.21860 0.74594 0.44384
 O20 O 0.25648 0.70021 0.55844
 O21 O 0.21709 0.74394 0.55840
 O22 O 0.25774 0.70215 0.44384
 Cu23 Cu 0.26656 0.77371 0.50541
 Cu24 Cu 0.23481 0.71847 0.50078
 C25 C 0.27793 0.71802 0.42597
 C26 C 0.22353 0.77376 0.58101
 C27 C 0.27660 0.71503 0.57862
 C28 C 0.22490 0.77726 0.42743
 O29 O 0.27864 0.25605 -0.44091
 O30 O 0.23735 0.21362 -0.55329
 O31 O 0.27935 0.25176 -0.55553
 O32 O 0.23764 0.21630 -0.43756
 O33 O 0.21298 0.26407 -0.44346
 O34 O 0.25621 0.30117 -0.55832
 O35 O 0.21430 0.26297 -0.55841
 O36 O 0.25423 0.30427 -0.44353
 Cu37 Cu 0.26056 0.22950 -0.49646
 Cu38 Cu 0.23204 0.28797 -0.50123
 C39 C 0.27351 0.28757 -0.42320
 C40 C 0.21876 0.23115 -0.57541
 C41 C 0.27524 0.28271 -0.57652
 C42 C 0.21800 0.23381 -0.42053
 O43 O -0.28058 0.75730 -0.43570
 O44 O -0.24324 0.80192 -0.55294
 O45 O -0.28451 0.76168 -0.54911
 O46 O -0.23923 0.79707 -0.43874
 O47 O -0.21475 0.74933 -0.45094
 O48 O -0.26049 0.71334 -0.55926
 O49 O -0.21954 0.75346 -0.56413
 O50 O -0.25603 0.70937 -0.44446
 Cu51 Cu -0.26428 0.78435 -0.49311
 Cu52 Cu -0.23536 0.72646 -0.50566
 C53 C -0.27487 0.72561 -0.42044
 C54 C -0.22473 0.78558 -0.57819
 C55 C -0.28044 0.73120 -0.57233
 C56 C -0.21894 0.77957 -0.42703
 N57 N 0.02895 1.06475 -0.05802
 N58 N 0.04594 1.09006 -0.06993
 N59 N -0.02561 1.04079 -0.09751
 N60 N -0.04420 1.04768 -0.13520
 N61 N -0.02518 1.06485 -0.05510
 N62 N -0.04353 1.08882 -0.06292
 N63 N 0.02823 1.04120 -0.10125
 N64 N 0.04447 1.05007 -0.14383
 C65 C 0.05566 1.08030 -0.12338
 C66 C -0.05535 1.07758 -0.11295
 N67 N -0.02515 0.93797 -0.06422
 N68 N -0.04442 0.91562 -0.07279
 N69 N 0.02840 0.96398 -0.10701
 N70 N 0.04579 0.95842 -0.14880
 N71 N 0.02908 0.93833 -0.06738
 N72 N 0.04718 0.91485 -0.08076
 N73 N -0.02550 0.96376 -0.10354
 N74 N -0.04483 0.95945 -0.14044
 Mn75 Mn 0.00137 1.00244 -0.10288
 C76 C -0.05653 0.92938 -0.12051
 C77 C 0.05754 0.92788 -0.13148
 N78 N -0.02439 1.06126 0.07248
 N79 N -0.04402 1.08291 0.08268
 N80 N 0.02988 1.03512 0.10884
 N81 N 0.04915 1.03879 0.14597
 N82 N 0.02984 1.06118 0.06994
 N83 N 0.04912 1.08340 0.07976
 N84 N -0.02417 1.03510 0.11121
 N85 N -0.04358 1.03821 0.14871
 Mn86 Mn 0.00234 1.06347 0.00743
 C87 C -0.05582 1.06817 0.13048
 C88 C 0.06104 1.06897 0.12733
 N89 N 0.02992 0.93470 0.06000
 N90 N 0.04855 0.91113 0.06718
 N91 N -0.02412 0.95818 0.10530
 N92 N -0.04329 0.95227 0.14261
 N93 N -0.02414 0.93440 0.06253
 N94 N -0.04332 0.91166 0.06947
 N95 N 0.03001 0.95836 0.10298
 N96 N 0.04874 0.95162 0.14047
 Mn97 Mn 0.00247 0.93595 -0.00232
 Mn98 Mn 0.00289 0.99670 0.10774
 Cl99 Cl 0.00231 0.99967 0.00246
 C100 C 0.06025 0.92216 0.11743
 C101 C -0.05514 0.92316 0.11960
 N102 N 0.53065 0.55863 -0.06982
 N103 N 0.54972 0.58056 -0.08306
 N104 N 0.47477 0.53652 -0.10322
 N105 N 0.45518 0.54213 -0.13887
 N106 N 0.47660 0.56240 -0.06415
 N107 N 0.45825 0.58629 -0.07204
 N108 N 0.52868 0.53333 -0.10991
 N109 N 0.54622 0.53751 -0.15179
 C110 C 0.55935 0.56691 -0.13418
 C111 C 0.44498 0.57325 -0.11874
 N112 N 0.47296 0.43525 -0.05653
 N113 N 0.45412 0.41200 -0.06375
 N114 N 0.52642 0.45639 -0.10525
 N115 N 0.54294 0.44784 -0.14748
 N116 N 0.52702 0.43272 -0.06236
 N117 N 0.54415 0.40754 -0.07415
 N118 N 0.47260 0.45946 -0.09856
 N119 N 0.45355 0.45335 -0.13548
 Mn120 Mn 0.50056 0.49643 -0.10483
 C121 C 0.44205 0.42380 -0.11300
 C122 C 0.55405 0.41752 -0.12727
 N123 N 0.47880 0.56529 0.06276
 N124 N 0.46065 0.58945 0.07140
 N125 N 0.53229 0.53811 0.10070
 N126 N 0.55092 0.54439 0.13866
 N127 N 0.53283 0.56158 0.05753
 N128 N 0.55198 0.58433 0.06473
 N129 N 0.47835 0.54124 0.10502
 N130 N 0.45989 0.54838 0.14361
 Mn131 Mn 0.50479 0.56238 -0.00347
 C132 C 0.44896 0.57852 0.12197
 C133 C 0.56320 0.57311 0.11538
 N134 N 0.52926 0.43575 0.06528
 N135 N 0.54807 0.41254 0.07337
 N136 N 0.47617 0.46426 0.10981
 N137 N 0.45709 0.46175 0.14833
 N138 N 0.47506 0.43827 0.07076
 N139 N 0.45511 0.41737 0.08166
 N140 N 0.53010 0.46120 0.10536
 N141 N 0.54933 0.45587 0.14208
 Mn142 Mn 0.50112 0.43504 0.00438
 Mn143 Mn 0.50420 0.50119 0.10588
 Cl144 Cl 0.50269 0.49874 0.00047
 C145 C 0.56045 0.42551 0.12146
 C146 C 0.44407 0.43237 0.13026
 C147 C 0.31351 0.27660 0.35634
 C148 C 0.33132 0.29105 0.31648
 C149 C 0.32938 0.32681 0.29827
 C150 C 0.30850 0.34747 0.31882
 C151 C 0.29060 0.33296 0.35859
 C152 C 0.29313 0.29752 0.37847
 C153 C 0.34956 0.34142 0.25838
 C154 C 0.35579 0.37623 0.25649
 C155 C 0.37783 0.39040 0.22167
 C156 C 0.38925 0.42255 0.23992
 C157 C 0.41064 0.43628 0.20993
 C158 C 0.42094 0.41829 0.16059
 C159 C 0.40912 0.38666 0.14107
 C160 C 0.38772 0.37285 0.17119
 H161 H 0.31593 0.24913 0.37041
 H162 H 0.34704 0.27444 0.30088
 H163 H 0.30583 0.37477 0.30425
 H164 H 0.27497 0.34967 0.37436
 H165 H 0.36107 0.32227 0.23385
 H166 H 0.34585 0.39488 0.28533
 H167 H 0.38188 0.43680 0.27826
 H168 H 0.41922 0.46088 0.22572
 H169 H 0.41648 0.37247 0.10271
 H170 H 0.37895 0.34866 0.15449
 C171 C -0.21388 0.83962 0.36593
 C172 C -0.19707 0.85826 0.32859
 C173 C -0.17555 0.84122 0.30359
 C174 C -0.17139 0.80479 0.31596
 C175 C -0.18814 0.78613 0.35333
 C176 C -0.20937 0.80343 0.37980
 C177 C -0.15685 0.86286 0.26914
 C178 C -0.13994 0.84873 0.23059
 C179 C -0.11945 0.86981 0.20096
 C180 C -0.10842 0.85645 0.14856
 C181 C -0.08784 0.87418 0.12145
 C182 C -0.07769 0.90546 0.14666
 C183 C -0.08881 0.91907 0.19881
 C184 C -0.10944 0.90140 0.22585
 H185 H -0.22998 0.85398 0.38521
 H186 H -0.20064 0.88634 0.32004
 H187 H -0.15467 0.79085 0.29903
 H188 H -0.18390 0.75835 0.36286
 H189 H -0.15725 0.89154 0.27588
 H190 H -0.14116 0.82062 0.21940
 H191 H -0.11560 0.83202 0.12879
 H192 H -0.07962 0.86306 0.08127
 H193 H -0.08128 0.94305 0.21933
 H194 H -0.11684 0.91198 0.26716
 C195 C 0.67471 0.72706 0.38943
 C196 C 0.65606 0.71013 0.35510
 C197 C 0.66287 0.68230 0.31636
 C198 C 0.68875 0.67166 0.31233
 C199 C 0.70735 0.68809 0.34762
 C200 C 0.70046 0.71577 0.38682
 C201 C 0.64235 0.66305 0.28452
 C202 C 0.64565 0.64870 0.23064
 C203 C 0.62485 0.62870 0.20112
 C204 C 0.62086 0.63301 0.14019
 C205 C 0.60076 0.61495 0.11206
 C206 C 0.58487 0.59150 0.14421
 C207 C 0.58946 0.58626 0.20474
 C208 C 0.60913 0.60490 0.23307
 H209 H 0.66882 0.74809 0.41965
 H210 H 0.63619 0.71855 0.35924
 H211 H 0.69447 0.64974 0.28376
 H212 H 0.72705 0.67880 0.34489
 H213 H 0.62359 0.66166 0.30557
 H214 H 0.66342 0.65312 0.20648
 H215 H 0.63293 0.65097 0.11470
 H216 H 0.59770 0.61922 0.06522
 H217 H 0.57753 0.56825 0.23048
 H218 H 0.61221 0.60046 0.27986
 C219 C 0.18214 1.23455 0.35755
 C220 C 0.16572 1.21857 0.31662
 C221 C 0.16939 1.18295 0.29897
 C222 C 0.19055 1.16395 0.32147
 C223 C 0.20704 1.17992 0.36247
 C224 C 0.20288 1.21533 0.38172
 C225 C 0.15060 1.16678 0.25762
 C226 C 0.14614 1.13148 0.25433
 C227 C 0.12517 1.11564 0.21864
 C228 C 0.11532 1.08223 0.23564
 C229 C 0.09472 1.06696 0.20541
 C230 C 0.08364 1.08462 0.15705
 C231 C 0.09400 1.11746 0.13852
 C232 C 0.11462 1.13284 0.16891
 H233 H 0.17830 1.26195 0.37065
 H234 H 0.14974 1.23394 0.29958
 H235 H 0.19459 1.13684 0.30742
 H236 H 0.22295 1.16432 0.37930
 H237 H 0.13851 1.18501 0.23313
 H238 H 0.15663 1.11351 0.28288
 H239 H 0.12322 1.06823 0.27334
 H240 H 0.08729 1.04144 0.22042
 H241 H 0.08601 1.13144 0.10092
 H242 H 0.12223 1.15803 0.15313
 C243 C 0.71061 0.30338 -0.33333
 C244 C 0.69364 0.31834 -0.29185
 C245 C 0.66789 0.30732 -0.28957
 C246 C 0.65967 0.27968 -0.32724
 C247 C 0.67676 0.26418 -0.36782
 C248 C 0.70225 0.27640 -0.37209
 C249 C 0.64979 0.32560 -0.24888
 C250 C 0.62599 0.33432 -0.26586
 C251 C 0.60829 0.35580 -0.22878
 C252 C 0.59209 0.38054 -0.25645
 C253 C 0.57488 0.40109 -0.22311
 C254 C 0.57302 0.39654 -0.16156
 C255 C 0.58897 0.37142 -0.13374
 C256 C 0.60668 0.35141 -0.16703
 H257 H 0.73021 0.31310 -0.33540
 H258 H 0.70039 0.33944 -0.26291
 H259 H 0.64001 0.27020 -0.32552
 H260 H 0.66982 0.24339 -0.39710
 H261 H 0.65697 0.33510 -0.20676
 H262 H 0.61999 0.32819 -0.31062
 H263 H 0.59293 0.38419 -0.30400
 H264 H 0.56267 0.42009 -0.24569
 H265 H 0.58782 0.36739 -0.08632
 H266 H 0.61867 0.33202 -0.14475
 C267 C 0.21539 0.82139 -0.34666
 C268 C 0.19896 0.83834 -0.30614
 C269 C 0.17418 0.82500 -0.29585
 C270 C 0.16645 0.79342 -0.32426
 C271 C 0.18306 0.77585 -0.36347
 C272 C 0.20759 0.79002 -0.37628
 C273 C 0.15645 0.84453 -0.25612
 C274 C 0.13214 0.85099 -0.27183
 C275 C 0.11418 0.87180 -0.23453
 C276 C 0.09713 0.89564 -0.26165
 C277 C 0.07925 0.91476 -0.22776
 C278 C 0.07757 0.90941 -0.16637
 C279 C 0.09452 0.88536 -0.13915
 C280 C 0.11291 0.86696 -0.17289
 H281 H 0.23416 0.83299 -0.35478
 H282 H 0.20530 0.86256 -0.28424
 H283 H 0.14751 0.78233 -0.31608
 H284 H 0.17632 0.75172 -0.38497
 H285 H 0.16401 0.85610 -0.21581
 H286 H 0.12561 0.84269 -0.31523
 H287 H 0.09772 0.89954 -0.30916
 H288 H 0.06625 0.93296 -0.24978
 H289 H 0.09351 0.88078 -0.09185
 H290 H 0.12560 0.84823 -0.15113
 C291 C 0.28731 0.66040 -0.36195
 C292 C 0.30394 0.64142 -0.32507
 C293 C 0.32641 0.65746 -0.30343
 C294 C 0.33185 0.69309 -0.31924
 C295 C 0.31526 0.71203 -0.35613
 C296 C 0.29296 0.69580 -0.37845
 C297 C 0.34459 0.63553 -0.26847
 C298 C 0.36221 0.64961 -0.23210
 C299 C 0.38207 0.62814 -0.20148
 C300 C 0.39421 0.64284 -0.15174
 C301 C 0.41430 0.62467 -0.12407
 C302 C 0.42284 0.59153 -0.14598
 C303 C 0.41057 0.57656 -0.19534
 C304 C 0.39044 0.59469 -0.22299
 H305 H 0.27035 0.64706 -0.37860
 H306 H 0.29941 0.61393 -0.31403
 H307 H 0.34933 0.70614 -0.30518
 H308 H 0.32028 0.73916 -0.36834
 H309 H 0.34306 0.60676 -0.27266
 H310 H 0.36207 0.67810 -0.22347
 H311 H 0.38831 0.66867 -0.13458
 H312 H 0.42343 0.63686 -0.08610
 H313 H 0.41685 0.55113 -0.21337
 H314 H 0.38218 0.58290 -0.26224
 C315 C -0.21057 1.15843 -0.36559
 C316 C -0.19346 1.14136 -0.32756
 C317 C -0.17192 1.15949 -0.30556
 C318 C -0.16789 1.19535 -0.32226
 C319 C -0.18502 1.21245 -0.36044
 C320 C -0.20642 1.19407 -0.38295
 C321 C -0.15329 1.13924 -0.26922
 C322 C -0.13595 1.15450 -0.23345
 C323 C -0.11622 1.13356 -0.20143
 C324 C -0.10544 1.14769 -0.14957
 C325 C -0.08597 1.12924 -0.11990
 C326 C -0.07673 1.09652 -0.14207
 C327 C -0.08750 1.08239 -0.19389
 C328 C -0.10694 1.10072 -0.22340
 H329 H -0.22684 1.14346 -0.38215
 H330 H -0.19691 1.11367 -0.31581
 H331 H -0.15116 1.21000 -0.30769
 H332 H -0.18121 1.23986 -0.37324
 H333 H -0.15431 1.11034 -0.27166
 H334 H -0.13638 1.18311 -0.22611
 H335 H -0.11205 1.17310 -0.13209
 H336 H -0.07791 1.14082 -0.08015
 H337 H -0.08062 1.05735 -0.21229
 H338 H -0.11406 1.08951 -0.26431
 C339 C 0.71860 0.67812 -0.34340
 C340 C 0.70262 0.65968 -0.30374
 C341 C 0.67667 0.66928 -0.29758
 C342 C 0.66721 0.69869 -0.32936
 C343 C 0.68328 0.71761 -0.36781
 C344 C 0.70900 0.70715 -0.37600
 C345 C 0.65957 0.64845 -0.25826
 C346 C 0.63585 0.63927 -0.27521
 C347 C 0.61789 0.61891 -0.23731
 C348 C 0.60086 0.59474 -0.26387
 C349 C 0.58241 0.57686 -0.22986
 C350 C 0.58017 0.58369 -0.16893
 C351 C 0.59726 0.60779 -0.14217
 C352 C 0.61615 0.62505 -0.17600
 H353 H 0.73840 0.66966 -0.34872
 H354 H 0.71029 0.63725 -0.27921
 H355 H 0.64737 0.70702 -0.32442
 H356 H 0.67536 0.73984 -0.39243
 H357 H 0.66705 0.63892 -0.21650
 H358 H 0.62963 0.64573 -0.31966
 H359 H 0.60177 0.58986 -0.31113
 H360 H 0.56936 0.55856 -0.25158
 H361 H 0.59586 0.61351 -0.09523
 H362 H 0.62873 0.64411 -0.15463
 C363 C 0.20856 1.18779 -0.34660
 C364 C 0.19205 1.17274 -0.30442
 C365 C 0.16800 1.18812 -0.29278
 C366 C 0.16112 1.21985 -0.32191
 C367 C 0.17792 1.23557 -0.36292
 C368 C 0.20169 1.21935 -0.37678
 C369 C 0.15023 1.17023 -0.25103
 C370 C 0.12536 1.16570 -0.26378
 C371 C 0.10802 1.14386 -0.22654
 C372 C 0.09050 1.12087 -0.25414
 C373 C 0.07392 1.09965 -0.22036
 C374 C 0.07397 1.10191 -0.15831
 C375 C 0.09116 1.12543 -0.13052
 C376 C 0.10831 1.14596 -0.16438
 H377 H 0.22674 1.17461 -0.35541
 H378 H 0.19775 1.14837 -0.28214
 H379 H 0.14277 1.23249 -0.31286
 H380 H 0.17192 1.25991 -0.38484
 H381 H 0.15826 1.15722 -0.21249
 H382 H 0.11809 1.17524 -0.30577
 H383 H 0.08990 1.11899 -0.30198
 H384 H 0.06068 1.08195 -0.24285
 H385 H 0.09147 1.12768 -0.08272
 H386 H 0.12143 1.16393 -0.14214
 C387 C 0.28568 0.34089 -0.36222
 C388 C 0.30261 0.35864 -0.32447
 C389 C 0.32455 0.34130 -0.30287
 C390 C 0.32913 0.30553 -0.31956
 C391 C 0.31221 0.28778 -0.35745
 C392 C 0.29044 0.30539 -0.37972
 C393 C 0.34303 0.36220 -0.26704
 C394 C 0.36045 0.34740 -0.23100
 C395 C 0.38019 0.36857 -0.19938
 C396 C 0.39128 0.35442 -0.14799
 C397 C 0.41100 0.37272 -0.11897
 C398 C 0.42021 0.40537 -0.14131
 C399 C 0.40906 0.41967 -0.19251
 C400 C 0.38932 0.40146 -0.22138
 H401 H 0.26913 0.35529 -0.37866
 H402 H 0.29872 0.38624 -0.31271
 H403 H 0.34618 0.29149 -0.30532
 H404 H 0.31651 0.26050 -0.37040
 H405 H 0.34186 0.39105 -0.27011
 H406 H 0.36009 0.31884 -0.22320
 H407 H 0.38478 0.32899 -0.13046
 H408 H 0.41932 0.36102 -0.07968
 H409 H 0.41590 0.44467 -0.21096
 H410 H 0.38190 0.41273 -0.26191
 C411 C -0.17364 0.78439 -0.39243
 C412 C -0.15460 0.80141 -0.35946
 C413 C -0.16103 0.82882 -0.31964
 C414 C -0.18692 0.83899 -0.31315
 C415 C -0.20595 0.82249 -0.34717
 C416 C -0.19944 0.79517 -0.38738
 C417 C -0.14015 0.84791 -0.28888
 C418 C -0.14249 0.86074 -0.23375
 C419 C -0.12097 0.87934 -0.20451
 C420 C -0.11559 0.87223 -0.14494
 C421 C -0.09457 0.88848 -0.11746
 C422 C -0.07911 0.91290 -0.14873
 C423 C -0.08510 0.92102 -0.20769
 C424 C -0.10572 0.90416 -0.23553
 H425 H -0.16803 0.76367 -0.42350
 H426 H -0.13474 0.79334 -0.36543
 H427 H -0.19234 0.86057 -0.28355
 H428 H -0.22568 0.83140 -0.34263
 H429 H -0.12177 0.84996 -0.31153
 H430 H -0.15980 0.85552 -0.20826
 H431 H -0.12726 0.85340 -0.12018
 H432 H -0.09043 0.88203 -0.07176
 H433 H -0.07353 0.93985 -0.23266
 H434 H -0.10983 0.91065 -0.28121
 C435 C 0.28992 0.66514 0.36336
 C436 C 0.30731 0.64703 0.32667
 C437 C 0.33013 0.66358 0.30779
 C438 C 0.33510 0.69895 0.32594
 C439 C 0.31773 0.71705 0.36279
 C440 C 0.29511 0.70018 0.38253
 C441 C 0.34903 0.64228 0.27327
 C442 C 0.36731 0.65683 0.23878
 C443 C 0.38728 0.63535 0.20801
 C444 C 0.39906 0.64931 0.15699
 C445 C 0.41883 0.63056 0.12840
 C446 C 0.42743 0.59768 0.15084
 C447 C 0.41569 0.58366 0.20189
 C448 C 0.39585 0.60230 0.23031
 H449 H 0.27271 0.65132 0.37793
 H450 H 0.30310 0.61974 0.31370
 H451 H 0.35279 0.71234 0.31381
 H452 H 0.32239 0.74393 0.37711
 H453 H 0.34744 0.61344 0.27585
 H454 H 0.36743 0.68543 0.23134
 H455 H 0.39299 0.67485 0.13929
 H456 H 0.42759 0.64205 0.08919
 H457 H 0.42205 0.55846 0.22034
 H458 H 0.38782 0.59120 0.27058
 C459 C -0.18619 1.22470 0.35672
 C460 C -0.16837 1.21064 0.31639
 C461 C -0.17084 1.17553 0.29527
 C462 C -0.19234 1.15526 0.31299
 C463 C -0.21028 1.16933 0.35320
 C464 C -0.20718 1.20402 0.37661
 C465 C -0.15047 1.16100 0.25569
 C466 C -0.14475 1.12603 0.25255
 C467 C -0.12246 1.11160 0.21878
 C468 C -0.11198 1.07872 0.23633
 C469 C -0.09044 1.06459 0.20738
 C470 C -0.07905 1.08288 0.15972
 C471 C -0.08991 1.11529 0.14086
 C472 C -0.11144 1.12954 0.17002
 H473 H -0.18316 1.25163 0.37304
 H474 H -0.15216 1.22698 0.30289
 H475 H -0.19543 1.12854 0.29600
 H476 H -0.22633 1.15267 0.36662
 H477 H -0.13836 1.18016 0.23292
 H478 H -0.15537 1.10731 0.27982
 H479 H -0.12020 1.06419 0.27334
 H480 H -0.08263 1.03939 0.22261
 H481 H -0.08168 1.12974 0.10380
 H482 H -0.11945 1.15436 0.15390
 C483 C 0.67359 0.27342 0.39015
 C484 C 0.65513 0.29143 0.35698
 C485 C 0.66215 0.32042 0.32110
 C486 C 0.68802 0.33129 0.31901
 C487 C 0.70643 0.31383 0.35353
 C488 C 0.69933 0.28478 0.38951
 C489 C 0.64181 0.34030 0.28996
 C490 C 0.64489 0.35384 0.23557
 C491 C 0.62379 0.37311 0.20594
 C492 C 0.61858 0.36642 0.14609
 C493 C 0.59787 0.38333 0.11840
 C494 C 0.58260 0.40800 0.14978
 C495 C 0.58843 0.41561 0.20906
 C496 C 0.60869 0.39810 0.23706
 H497 H 0.66755 0.25135 0.41799
 H498 H 0.63527 0.28283 0.35956
 H499 H 0.69381 0.35403 0.29246
 H500 H 0.72614 0.32316 0.35247
 H501 H 0.62316 0.34220 0.31148
 H502 H 0.66249 0.34879 0.21101
 H503 H 0.63013 0.34742 0.12127
 H504 H 0.59386 0.37725 0.07248
 H505 H 0.57701 0.43462 0.23416
 H506 H 0.61266 0.40422 0.28299
 C507 C 0.21421 0.83225 0.36908
 C508 C 0.19785 0.85131 0.33172
 C509 C 0.17584 0.83510 0.30812
 C510 C 0.17057 0.79918 0.32245
 C511 C 0.18689 0.78015 0.35993
 C512 C 0.20874 0.79657 0.38418
 C513 C 0.15793 0.85718 0.27270
 C514 C 0.14086 0.84343 0.23464
 C515 C 0.12148 0.86537 0.20330
 C516 C 0.11064 0.85204 0.15097
 C517 C 0.09113 0.87087 0.12221
 C518 C 0.08187 0.90324 0.14570
 C519 C 0.09281 0.91677 0.19779
 C520 C 0.11236 0.89803 0.22643
 H521 H 0.23082 0.84574 0.38716
 H522 H 0.20225 0.87900 0.32182
 H523 H 0.15342 0.78599 0.30671
 H524 H 0.18203 0.75278 0.37101
 H525 H 0.15924 0.88592 0.27788
 H526 H 0.14120 0.81506 0.22497
 H527 H 0.11714 0.82682 0.13252
 H528 H 0.08300 0.85976 0.08218
 H529 H 0.08594 0.94157 0.21708
 H530 H 0.11960 0.90869 0.26761
   
