data_POSCAR
  _audit_creation_date              2014-09-24
  _audit_creation_method            'ToBaCCo'
  _symmetry_space_group_name_H-M    'P1'
  _symmetry_Int_Tables_number       1
  _symmetry_cell_setting            triclinic
  loop_
  _symmetry_equiv_pos_as_xyz
 x,y,z
_cell_length_a 31.2593
_cell_length_b 31.3042
_cell_length_c 58.8678
_cell_angle_alpha 85.100000
_cell_angle_beta 92.262900
_cell_angle_gamma 120.421100
loop_
  _atom_site_label
  _atom_site_type_symbol
  _atom_site_fract_x
  _atom_site_fract_y
  _atom_site_fract_z
C1 C 0.01069 0.08623 0.53081
 H2 H 0.04438 0.08460 0.53018
 C3 C 0.00853 0.11951 0.54433
 H4 H 0.04083 0.14315 0.55416
 C5 C -0.07162 0.05793 0.51811
 H6 H -0.10235 0.03444 0.50752
 C7 C -0.07538 0.09088 0.53141
 H8 H -0.10943 0.09205 0.53107
 N9 N -0.02898 0.05626 0.51810
 C10 C -0.00185 -0.06320 0.50584
 H11 H 0.00036 -0.05953 0.48742
 C12 C -0.00050 -0.10280 0.51801
 H13 H 0.00338 -0.12911 0.50877
 C14 C -0.01219 -0.03458 0.54004
 H15 H -0.01839 -0.00892 0.54853
 C16 C -0.01098 -0.07356 0.55288
 H17 H -0.01547 -0.07678 0.57121
 Zn18 Zn -0.01878 0.01652 0.49912
 N19 N -0.00800 -0.03033 0.51694
 C20 C 0.07927 0.05883 0.48081
 N21 N 0.03677 0.06079 0.48069
 C22 C 0.03314 0.09750 0.46833
 C23 C 0.07313 0.13418 0.45530
 C24 C 0.12040 0.09498 0.46801
 C25 C -0.11721 -0.05590 0.49144
 C26 C -0.15715 -0.08978 0.47888
 C27 C -0.10924 -0.04918 0.44443
 C28 C -0.07029 -0.01623 0.45770
 N29 N -0.07466 -0.02055 0.48078
 H30 H 0.08167 0.02989 0.49115
 H31 H -0.00088 0.09853 0.46886
 H32 H 0.06927 0.16315 0.44574
 H33 H 0.15408 0.09312 0.46846
 H34 H -0.11936 -0.05901 0.50986
 H35 H -0.18997 -0.11823 0.48805
 H36 H -0.10383 -0.04529 0.42614
 H37 H -0.03580 0.01138 0.44955
 C38 C -0.00594 -0.10885 0.54185
 C39 C -0.03478 0.12248 0.54466
 C40 C -0.15325 -0.08781 0.45495
 C41 C 0.11770 0.13351 0.45513
 C42 C 1.11631 0.05271 0.13482
 H43 H 1.11513 0.08667 0.13481
 C44 C 1.15171 0.05139 0.12171
 H45 H 1.17748 0.08460 0.11154
 C46 C 1.08452 -0.03126 0.14869
 H47 H 1.05880 -0.06303 0.15957
 C48 C 1.11948 -0.03424 0.13582
 H49 H 1.11992 -0.06870 0.13678
 N50 N 1.08358 0.01180 0.14790
 C51 C 0.96210 0.03823 0.15842
 H52 H 0.96247 0.03829 0.17680
 C53 C 0.92441 0.04067 0.14589
 H54 H 0.89626 0.04322 0.15482
 C55 C 0.99699 0.03198 0.12473
 H56 H 1.02430 0.02689 0.11661
 C57 C 0.96002 0.03434 0.11153
 H58 H 0.95999 0.03183 0.09330
 Zn59 Zn 1.04052 0.02022 0.16622
 N60 N 0.99708 0.03347 0.14775
 C61 C 1.07957 0.11585 0.18354
 N62 N 1.08153 0.07333 0.18422
 C63 C 1.11584 0.06791 0.19702
 C64 C 1.14989 0.10596 0.20998
 C65 C 1.11312 0.15507 0.19626
 C66 C 0.96615 -0.07898 0.17462
 C67 C 0.92997 -0.12053 0.18745
 C68 C 0.96432 -0.07721 0.22153
 C69 C 0.99978 -0.03648 0.20805
 N70 N 0.99972 -0.03787 0.18502
 H71 H 1.05261 0.11974 0.17289
 H72 H 1.11697 0.03394 0.19695
 H73 H 1.17695 0.10068 0.21993
 H74 H 1.11127 0.18878 0.19541
 H75 H 0.96632 -0.07871 0.15624
 H76 H 0.90278 -0.15232 0.17873
 H77 H 0.96425 -0.07471 0.23975
 H78 H 1.02590 -0.00307 0.21596
 C79 C 0.92248 0.03775 0.12214
 C80 C 1.15388 0.00760 0.12217
 C81 C 0.92808 -0.11960 0.21120
 C82 C 1.14907 0.15045 0.20964
 C83 C 0.03473 0.93436 0.86556
 H84 H -0.00017 0.89982 0.86485
 C85 C 0.07341 0.93586 0.87874
 H86 H 0.06766 0.90218 0.88824
 C87 C 0.08440 1.01964 0.85335
 H88 H 0.08868 1.05186 0.84306
 C89 C 0.12428 1.02281 0.86632
 H90 H 0.15891 1.05787 0.86604
 N91 N 0.04076 0.97579 0.85324
 C92 C -0.11069 0.94372 0.84162
 H93 H -0.11224 0.94465 0.82320
 C94 C -0.15005 0.93962 0.85395
 H95 H -0.18197 0.93667 0.84470
 C96 C -0.06554 0.94948 0.87561
 H97 H -0.03185 0.95517 0.88394
 C98 C -0.10399 0.94541 0.88863
 H99 H -0.09928 0.94711 0.90691
 Zn100 Zn -0.01322 0.96665 0.83450
 N101 N -0.06923 0.94930 0.85253
 C102 C -0.06818 0.87234 0.81523
 N103 N -0.02468 0.91629 0.81549
 C104 C 0.01512 0.92530 0.80304
 C105 C 0.01226 0.88949 0.78956
 C106 C -0.07267 0.83522 0.80197
 C107 C 0.00759 1.06485 0.82781
 C108 C 0.01003 1.10635 0.81566
 C109 C -0.00092 1.06653 0.78078
 C110 C -0.00324 1.02578 0.79360
 N111 N 0.00049 1.02544 0.81670
 H112 H -0.09904 0.86564 0.82562
 H113 H 0.04946 0.96035 0.80386
 H114 H 0.04469 0.89760 0.77996
 H115 H -0.10738 0.80025 0.80213
 H116 H 0.00939 1.06315 0.84624
 H117 H 0.01438 1.13674 0.82492
 H118 H -0.00531 1.06537 0.76246
 H119 H -0.01021 0.99363 0.78511
 C120 C -0.14658 0.94180 0.87780
 C121 C 0.11913 0.98039 0.87912
 C122 C 0.00473 1.10712 0.79183
 C123 C -0.03192 0.84351 0.78901
 C124 C 0.47302 -0.01144 -0.01217
 C125 C 0.47845 -0.00483 0.01149
 C126 C 0.52029 -0.00150 0.02277
 C127 C 0.55663 -0.00513 0.01123
 C128 C 0.55053 -0.01309 -0.01231
 C129 C 0.50898 -0.01575 -0.02366
 H130 H 0.50454 -0.02127 -0.04173
 H131 H 0.52463 0.00402 0.04085
 C132 C -0.03811 0.44233 0.65566
 C133 C -0.03659 0.44031 0.67979
 C134 C -0.03718 0.47786 0.69097
 C135 C -0.03815 0.51789 0.67879
 C136 C -0.03835 0.52058 0.65464
 C137 C -0.03886 0.48248 0.64347
 H138 H -0.03933 0.48436 0.62499
 H139 H -0.03635 0.47616 0.70945
 C140 C 0.55466 0.56266 0.32168
 C141 C 0.54836 0.56421 0.34525
 C142 C 0.50699 0.52445 0.35672
 C143 C 0.47081 0.48423 0.34517
 C144 C 0.47501 0.48482 0.32126
 C145 C 0.51736 0.52350 0.30997
 H146 H 0.52136 0.52304 0.29179
 H147 H 0.50290 0.52478 0.37490
 N148 N -0.07850 0.19798 0.56999
 C149 C -0.03865 0.22823 0.58245
 N150 N 0.00208 0.22346 0.58274
 N151 N 0.00303 0.18960 0.57087
 C152 C -0.03669 0.15922 0.55827
 N153 N -0.07754 0.16408 0.55810
 C154 C -0.03912 0.26530 0.59501
 C155 C -0.03882 0.29675 0.60560
 C156 C -0.03815 0.33429 0.61824
 N157 N -0.06924 0.35180 0.61268
 N158 N -0.06899 0.38628 0.62457
 C159 C -0.03783 0.40425 0.64251
 N160 N -0.00615 0.38718 0.64779
 N161 N -0.00641 0.35268 0.63590
 N162 N 0.84476 0.80589 0.25972
 C163 C 0.80779 0.76688 0.24943
 N164 N 0.81094 0.76419 0.22675
 N165 N 0.84973 0.79965 0.21470
 C166 C 0.88678 0.83911 0.22488
 N167 N 0.88353 0.84133 0.24767
 C168 C 0.76465 0.73029 0.26214
 C169 C 0.72796 0.70019 0.27273
 C170 C 0.68387 0.66492 0.28522
 N171 N 0.68672 0.64958 0.30717
 N172 N 0.64566 0.61735 0.31882
 C173 C 0.60028 0.59966 0.30899
 N174 N 0.59770 0.61476 0.28690
 N175 N 0.63875 0.64697 0.27525
 N176 N 0.19353 -0.05901 -0.08410
 C177 C 0.23839 -0.01683 -0.08431
 N178 N 0.24421 0.02476 -0.09629
 N179 N 0.20629 0.02409 -0.10779
 C180 C 0.16119 -0.01818 -0.10769
 N181 N 0.15567 -0.05966 -0.09559
 C182 C 0.27919 -0.01647 -0.07209
 C183 C 0.31322 -0.01657 -0.06177
 C184 C 0.35369 -0.01660 -0.04940
 N185 N 0.40054 0.01059 -0.05780
 N186 N 0.43831 0.01166 -0.04603
 C187 C 0.43058 -0.01422 -0.02541
 N188 N 0.38343 -0.04217 -0.01725
 N189 N 0.34565 -0.04323 -0.02902
 N190 N -0.01092 0.77123 0.55599
 C191 C -0.01818 0.76476 0.57887
 N192 N -0.02043 0.80008 0.58969
 N193 N -0.01589 0.84051 0.57796
 C194 C -0.00883 0.84717 0.55500
 N195 N -0.00638 0.81168 0.54427
 C196 C -0.02363 0.72098 0.59149
 C197 C -0.02799 0.68439 0.60219
 C198 C -0.03239 0.64129 0.61506
 N199 N -0.06365 0.62019 0.63319
 N200 N -0.06620 0.58135 0.64566
 C201 C -0.03732 0.56251 0.64049
 N202 N -0.00675 0.58323 0.62205
 N203 N -0.00422 0.62202 0.60960
 N204 N 0.25476 0.22372 0.24712
 C205 C 0.25562 0.26751 0.24633
 N206 N 0.22128 0.27301 0.23367
 N207 N 0.18718 0.23579 0.22210
 C208 C 0.18621 0.19177 0.22279
 N209 N 0.22071 0.18659 0.23556
 C210 C 0.29280 0.30743 0.25868
 C211 C 0.32460 0.34013 0.26925
 C212 C 0.36290 0.37812 0.28209
 N213 N 0.41132 0.39591 0.27719
 N214 N 0.44695 0.42989 0.28962
 C215 C 0.43537 0.44694 0.30750
 N216 N 0.38677 0.42952 0.31212
 N217 N 0.35115 0.39554 0.29970
 N218 N 0.78817 -0.04832 -0.07508
 C219 C 0.74889 -0.04862 -0.08581
 N220 N 0.74356 -0.05363 -0.10855
 N221 N 0.77682 -0.05770 -0.12024
 C222 C 0.81669 -0.05691 -0.10965
 N223 N 0.82140 -0.05238 -0.08677
 C224 C 0.71420 -0.04228 -0.07334
 C225 C 0.68540 -0.03654 -0.06282
 C226 C 0.65117 -0.02978 -0.05021
 N227 N 0.60162 -0.05992 -0.05269
 N228 N 0.56979 -0.05429 -0.04069
 C229 C 0.58637 -0.01851 -0.02570
 N230 N 0.63608 0.01216 -0.02355
 N231 N 0.66793 0.00651 -0.03555
 N232 N 0.26102 0.04640 0.08429
 C233 C 0.26428 0.00477 0.08513
 N234 N 0.23113 -0.03620 0.09795
 N235 N 0.19587 -0.03547 0.10963
 C236 C 0.19246 0.00623 0.10890
 N237 N 0.22578 0.04711 0.09596
 C238 C 0.30246 0.00422 0.07263
 C239 C 0.33455 0.00388 0.06208
 C240 C 0.37246 0.00311 0.04947
 N241 N 0.39233 -0.02481 0.05766
 N242 N 0.42644 -0.02677 0.04565
 C243 C 0.44167 -0.00110 0.02497
 N244 N 0.42234 0.02758 0.01701
 N245 N 0.38820 0.02953 0.02903
 N246 N 0.73499 0.80191 0.44094
 C247 C 0.74073 0.80285 0.41818
 N248 N 0.78137 0.84143 0.40770
 N249 N 0.81551 0.87771 0.41966
 C250 C 0.81053 0.87686 0.44260
 N251 N 0.76915 0.83822 0.45290
 C252 C 0.70566 0.76221 0.40553
 C253 C 0.67700 0.72762 0.39493
 C254 C 0.64364 0.68606 0.38233
 N255 N 0.63244 0.69317 0.36037
 N256 N 0.60234 0.65447 0.34855
 C257 C 0.58274 0.60728 0.35820
 N258 N 0.59365 0.60041 0.38030
 N259 N 0.62373 0.63911 0.39212
 N260 N -0.01004 0.18363 0.74421
 C261 C -0.00799 0.22105 0.75509
 N262 N -0.00050 0.22192 0.77792
 N263 N 0.00439 0.18620 0.78954
 C264 C 0.00208 0.14837 0.77875
 N265 N -0.00515 0.14793 0.75583
 C266 C -0.01439 0.25885 0.74261
 C267 C -0.01978 0.29047 0.73199
 C268 C -0.02568 0.32826 0.71919
 N269 N 0.00219 0.37634 0.72414
 N270 N -0.00189 0.41174 0.71174
 C271 C -0.03377 0.40035 0.69390
 N272 N -0.06232 0.35197 0.68926
 N273 N -0.05823 0.31655 0.70166
 N274 N 0.80340 0.03145 0.10730
 C275 C 0.80053 0.02601 0.08460
 N276 N 0.83811 0.02564 0.07408
 N277 N 0.87721 0.03020 0.08594
 C278 C 0.88023 0.03538 0.10875
 N279 N 0.84251 0.03600 0.11916
 C280 C 0.75785 0.01990 0.07194
 C281 C 0.72193 0.01468 0.06134
 C282 C 0.67927 0.00888 0.04876
 N283 N 0.65627 -0.02731 0.03409
 N284 N 0.61711 -0.03208 0.02218
 C285 C 0.59984 -0.00060 0.02443
 N286 N 0.62257 0.03509 0.03941
 N287 N 0.66168 0.03984 0.05132
 N288 N 0.19679 0.24718 0.41835
 C289 C 0.24067 0.24827 0.41878
 N290 N 0.24433 0.21145 0.43093
 N291 N 0.20522 0.17473 0.44237
 C292 C 0.16110 0.17353 0.44205
 N293 N 0.15777 0.21053 0.42977
 C294 C 0.28262 0.28828 0.40662
 C295 C 0.31709 0.32248 0.39623
 C296 C 0.35727 0.36362 0.38363
 N297 N 0.37856 0.35587 0.36603
 N298 N 0.41470 0.39419 0.35384
 C299 C 0.43051 0.44161 0.35869
 N300 N 0.40954 0.44915 0.37656
 N301 N 0.37340 0.41082 0.38876
 N302 N -0.07767 0.72347 0.76377
 C303 C -0.03765 0.73254 0.75154
 N304 N 0.00382 0.77795 0.75138
 N305 N 0.00534 0.81317 0.76314
 C306 C -0.03453 0.80439 0.77550
 N307 N -0.07613 0.75878 0.77554
 C308 C -0.03867 0.69456 0.73912
 C309 C -0.03862 0.66317 0.72861
 C310 C -0.03804 0.62618 0.71603
 N311 N -0.06808 0.57723 0.72220
 N312 N -0.06786 0.54291 0.71038
 C313 C -0.03777 0.55634 0.69191
 N314 N -0.00711 0.60546 0.68601
 N315 N -0.00734 0.63979 0.69784
   
