data_POSCAR
  _audit_creation_date              2014-09-24
  _audit_creation_method            'ToBaCCo'
  _symmetry_space_group_name_H-M    'P1'
  _symmetry_Int_Tables_number       1
  _symmetry_cell_setting            triclinic
  loop_
  _symmetry_equiv_pos_as_xyz
 x,y,z
_cell_length_a 22.2398
_cell_length_b 21.8411
_cell_length_c 47.7534
_cell_angle_alpha 82.312500
_cell_angle_beta 94.118800
_cell_angle_gamma 118.737700
loop_
  _atom_site_label
  _atom_site_type_symbol
  _atom_site_fract_x
  _atom_site_fract_y
  _atom_site_fract_z
C1 C 0.00399 0.15896 0.51872
 H2 H 0.05319 0.19081 0.50876
 C3 C -0.01590 0.18674 0.53871
 H4 H 0.01841 0.23983 0.54335
 C5 C -0.09531 0.04871 0.52766
 H6 H -0.12441 -0.00598 0.52440
 C7 C -0.11681 0.07415 0.54800
 H8 H -0.16315 0.03897 0.55976
 N9 N -0.03549 0.09084 0.51364
 C10 C -0.02083 -0.08941 0.51480
 H11 H -0.04836 -0.10802 0.49553
 C12 C -0.01887 -0.13752 0.53685
 H13 H -0.04609 -0.19271 0.53409
 C14 C 0.04495 0.00502 0.54192
 H15 H 0.06843 0.06062 0.54391
 C16 C 0.04828 -0.04100 0.56441
 H17 H 0.07487 -0.02029 0.58364
 Zn18 Zn -0.00178 0.04703 0.49196
 N19 N 0.00946 -0.01986 0.51802
 C20 C 0.13482 0.09370 0.47665
 N21 N 0.08474 0.11280 0.47577
 C22 C 0.09256 0.17337 0.46045
 C23 C 0.15201 0.21675 0.44486
 C24 C 0.19451 0.13485 0.46090
 C25 C -0.12754 -0.05287 0.46761
 C26 C -0.17011 -0.08742 0.44549
 C27 C -0.08258 -0.00475 0.41256
 C28 C -0.04168 0.02721 0.43522
 N29 N -0.06413 0.00290 0.46222
 H30 H 0.12693 0.04453 0.48834
 H31 H 0.05096 0.18605 0.45909
 H32 H 0.15554 0.26278 0.43175
 H33 H 0.23250 0.11732 0.46074
 H34 H -0.14444 -0.07260 0.48913
 H35 H -0.21933 -0.13220 0.45093
 H36 H -0.06227 0.01584 0.39139
 H37 H 0.00877 0.07076 0.43098
 C38 C 0.01506 -0.11342 0.56235
 C39 C -0.07661 0.14365 0.55399
 C40 C -0.14736 -0.06395 0.41730
 C41 C 0.20329 0.19677 0.44455
 C42 C 1.18204 0.10500 0.13099
 H43 H 1.18165 0.15422 0.13138
 C44 C 1.22600 0.10124 0.11278
 H45 H 1.25984 0.14807 0.09942
 C46 C 1.13494 -0.01665 0.14656
 H47 H 1.09779 -0.06277 0.15918
 C48 C 1.17836 -0.02280 0.12858
 H49 H 1.17365 -0.07408 0.12754
 N50 N 1.13646 0.04628 0.14689
 C51 C 0.95066 0.06710 0.14751
 H52 H 0.93941 0.05948 0.16971
 C53 C 0.90290 0.07067 0.12749
 H54 H 0.85666 0.06814 0.13469
 C55 C 1.02237 0.07578 0.11123
 H56 H 1.06734 0.07526 0.10460
 C57 C 0.97674 0.08046 0.09063
 H58 H 0.98810 0.08443 0.06856
 Zn59 Zn 1.06923 0.05372 0.16643
 N60 N 1.00891 0.06898 0.13917
 C61 C 1.07455 0.14668 0.20397
 N62 N 1.11317 0.12839 0.18967
 C63 C 1.18230 0.15816 0.19378
 C64 C 1.21514 0.20876 0.21251
 C65 C 1.10529 0.19692 0.22300
 C66 C 0.95291 -0.07714 0.18290
 C67 C 0.91096 -0.13286 0.20249
 C68 C 1.00427 -0.09297 0.23633
 C69 C 1.04433 -0.03817 0.21611
 N70 N 1.01752 -0.03008 0.19029
 H71 H 1.01959 0.12091 0.20133
 H72 H 1.21208 0.14073 0.18350
 H73 H 1.26968 0.22920 0.21602
 H74 H 1.07350 0.20981 0.23457
 H75 H 0.93298 -0.07025 0.16208
 H76 H 0.85929 -0.16784 0.19610
 H77 H 1.02570 -0.09666 0.25720
 H78 H 1.09591 -0.00007 0.22145
 C79 C 0.91541 0.07624 0.09857
 C80 C 1.22360 0.03664 0.11092
 C81 C 0.93591 -0.13997 0.23003
 C82 C 1.17644 0.22872 0.22749
 C83 C 0.00275 0.85504 0.87923
 H84 H -0.05128 0.81729 0.88018
 C85 C 0.04784 0.84688 0.89913
 H86 H 0.02806 0.80225 0.91528
 C87 C 0.09284 0.96079 0.85768
 H88 H 0.10942 1.00603 0.84192
 C89 C 0.14012 0.95475 0.87740
 H90 H 0.19284 0.99589 0.87645
 N91 N 0.02553 0.91140 0.85917
 C92 C -0.17371 0.87797 0.86537
 H93 H -0.20054 0.84098 0.85013
 C94 C -0.21028 0.88395 0.88674
 H95 H -0.26524 0.85083 0.88758
 C96 C -0.06919 0.96525 0.88277
 H97 H -0.01414 0.99708 0.88102
 C98 C -0.10301 0.97217 0.90444
 H99 H -0.07304 1.00961 0.91924
 Zn100 Zn -0.04544 0.91874 0.83724
 N101 N -0.10443 0.91886 0.86380
 C102 C -0.13815 0.84032 0.79595
 N103 N -0.08819 0.84322 0.81475
 C104 C -0.06072 0.79944 0.81469
 C105 C -0.08156 0.75206 0.79464
 C106 C -0.16036 0.79376 0.77535
 C107 C -0.03957 1.04716 0.81450
 C108 C -0.02532 1.10417 0.79406
 C109 C 0.04526 1.07167 0.77004
 C110 C 0.02960 1.01509 0.79103
 N111 N -0.01295 1.00340 0.81249
 H112 H -0.15798 0.87687 0.79595
 H113 H -0.01940 0.80396 0.82903
 H114 H -0.05537 0.72140 0.79430
 H115 H -0.19792 0.79432 0.75971
 H116 H -0.07479 1.03614 0.83121
 H117 H -0.05024 1.13539 0.79584
 H118 H 0.07738 1.07884 0.75258
 H119 H 0.04903 0.97875 0.78959
 C120 C -0.17448 0.93173 0.90675
 C121 C 0.11726 0.89739 0.89874
 C122 C 0.01677 1.11649 0.77107
 C123 C -0.13107 0.74975 0.77415
 C124 C 0.33453 -0.05766 0.00661
 C125 C 0.36542 -0.05293 -0.01876
 C126 C 0.42873 -0.05253 -0.01779
 C127 C 0.45893 -0.06222 0.00830
 C128 C 0.42488 -0.07060 0.03350
 C129 C 0.36458 -0.06516 0.03276
 C130 C 0.52704 -0.06053 0.00929
 C131 C 0.57301 -0.03351 0.03186
 C132 C 0.63771 -0.02954 0.03265
 C133 C 0.65731 -0.05198 0.01044
 C134 C 0.61373 -0.07674 -0.01300
 C135 C 0.54765 -0.08339 -0.01273
 H136 H 0.28721 -0.05473 0.00607
 H137 H 0.45412 -0.04451 -0.03748
 H138 H 0.44600 -0.07927 0.05385
 H139 H 0.55956 -0.01385 0.04871
 H140 H 0.70551 -0.05295 0.01244
 H141 H 0.51272 -0.10527 -0.03005
 C142 C -0.07388 0.62172 0.66752
 C143 C -0.08892 0.57392 0.69216
 C144 C -0.08357 0.51252 0.69175
 C145 C -0.06243 0.49870 0.66725
 C146 C -0.04674 0.54812 0.64304
 C147 C -0.05284 0.60901 0.64288
 C148 C -0.05624 0.43348 0.66676
 C149 C -0.06480 0.40430 0.64123
 C150 C -0.05723 0.34469 0.64015
 C151 C -0.04236 0.31234 0.66508
 C152 C -0.03395 0.33987 0.69092
 C153 C -0.04076 0.40040 0.69153
 H154 H -0.07783 0.66908 0.66753
 H155 H -0.09675 0.47535 0.71062
 H156 H -0.02798 0.54066 0.62418
 H157 H -0.07844 0.42702 0.62192
 H158 H -0.03717 0.26594 0.66422
 H159 H -0.03245 0.42219 0.71138
 C160 C 0.69232 0.71985 0.32375
 C161 C 0.67227 0.67591 0.30218
 C162 C 0.60900 0.61446 0.30397
 C163 C 0.56470 0.59643 0.32692
 C164 C 0.58606 0.64189 0.34826
 C165 C 0.65004 0.70321 0.34722
 C166 C 0.49685 0.53033 0.32868
 C167 C 0.46548 0.49672 0.35504
 C168 C 0.40286 0.43444 0.35681
 C169 C 0.37112 0.40444 0.33208
 C170 C 0.40052 0.43694 0.30555
 C171 C 0.46289 0.49977 0.30404
 H172 H 0.74107 0.76690 0.32172
 H173 H 0.59557 0.58040 0.28752
 H174 H 0.55243 0.63071 0.36568
 H175 H 0.49001 0.51728 0.37453
 H176 H 0.32333 0.35574 0.33368
 H177 H 0.48387 0.52501 0.28337
 C178 C -0.09451 0.16640 0.57853
 C179 C -0.07253 0.23371 0.58187
 C180 C -0.08123 0.25339 0.60899
 C181 C -0.05992 0.32054 0.61235
 H182 H -0.04499 0.27493 0.56512
 H183 H -0.10239 0.21288 0.62668
 H184 H -0.12496 0.12597 0.59506
 H185 H -0.04249 0.35986 0.59409
 C186 C 0.89205 0.80960 0.25348
 C187 C 0.82420 0.76758 0.25162
 C188 C 0.78351 0.73307 0.27753
 C189 C 0.71495 0.69651 0.27663
 H190 H 0.79725 0.76320 0.23163
 H191 H 0.80985 0.74225 0.29776
 H192 H 0.91613 0.81179 0.27417
 H193 H 0.68898 0.68415 0.25645
 C194 C 0.16111 -0.10987 -0.07759
 C195 C 0.22940 -0.07170 -0.07591
 C196 C 0.26448 -0.08050 -0.04954
 C197 C 0.33265 -0.04645 -0.04633
 H198 H 0.25891 -0.03351 -0.09313
 H199 H 0.23313 -0.11564 -0.03197
 H200 H 0.13473 -0.14875 -0.05991
 H201 H 0.36480 -0.01486 -0.06424
 C202 C 0.01273 0.83883 0.58797
 C203 C -0.00938 0.76993 0.58839
 C204 C -0.01697 0.72579 0.61545
 C205 C -0.03934 0.65679 0.61624
 H206 H -0.02366 0.74517 0.56909
 H207 H -0.00498 0.75009 0.63487
 H208 H 0.02850 0.86157 0.60780
 H209 H -0.04748 0.63424 0.59651
 C210 C 0.20714 0.27692 0.24969
 C211 C 0.27414 0.32224 0.25160
 C212 C 0.30186 0.36127 0.27642
 C213 C 0.36916 0.40427 0.27929
 H214 H 0.30933 0.32895 0.23550
 H215 H 0.26676 0.35257 0.29292
 H216 H 0.17297 0.27373 0.26559
 H217 H 0.40295 0.41519 0.26190
 C218 C 0.79452 -0.05871 -0.07079
 C219 C 0.72419 -0.08887 -0.06578
 C220 C 0.70323 -0.07273 -0.04219
 C221 C 0.63451 -0.09446 -0.03660
 H222 H 0.68630 -0.12270 -0.07999
 H223 H 0.74300 -0.03859 -0.02867
 H224 H 0.82880 -0.02297 -0.05609
 H225 H 0.59632 -0.12153 -0.05229
 C226 C 0.26317 0.03288 0.08817
 C227 C 0.27761 -0.01944 0.08675
 C228 C 0.31029 -0.02021 0.06114
 C229 C 0.33417 -0.06523 0.05934
 H230 H 0.26454 -0.06168 0.10376
 H231 H 0.31501 0.01762 0.04308
 H232 H 0.28034 0.07563 0.07113
 H233 H 0.33444 -0.09985 0.07780
 C234 C 0.81716 0.90376 0.39470
 C235 C 0.75461 0.84127 0.39530
 C236 C 0.72980 0.80917 0.37055
 C237 C 0.67033 0.74423 0.37007
 H238 H 0.72686 0.81515 0.41471
 H239 H 0.75925 0.83557 0.35158
 H240 H 0.84057 0.92644 0.37408
 H241 H 0.63870 0.72348 0.38883
 C242 C 0.02635 0.17004 0.74656
 C243 C 0.00658 0.21935 0.74597
 C244 C 0.00590 0.26155 0.71926
 C245 C -0.02186 0.30446 0.71783
 H246 H -0.01292 0.22654 0.76465
 H247 H 0.02543 0.25464 0.70048
 H248 H 0.04732 0.16609 0.72747
 H249 H -0.03814 0.31279 0.73719
 C250 C 0.86555 0.07442 0.07596
 C251 C 0.79778 0.04438 0.07974
 C252 C 0.75167 0.03098 0.05493
 C253 C 0.68344 -0.00491 0.05744
 H254 H 0.77585 0.02358 0.10059
 H255 H 0.77424 0.04725 0.03408
 H256 H 0.88489 0.09186 0.05454
 H257 H 0.66052 -0.01794 0.07813
 C258 C 0.26087 0.23391 0.42448
 C259 C 0.28898 0.30281 0.41607
 C260 C 0.33480 0.33380 0.39154
 C261 C 0.36858 0.40328 0.38439
 H262 H 0.27478 0.33569 0.42606
 H263 H 0.33756 0.29896 0.37810
 H264 H 0.27863 0.20261 0.41538
 H265 H 0.36934 0.43830 0.39866
 C266 C -0.14603 0.70989 0.74937
 C267 C -0.12988 0.65854 0.74819
 C268 C -0.12971 0.63362 0.72100
 C269 C -0.10444 0.58956 0.71926
 H270 H -0.11159 0.63821 0.76682
 H271 H -0.14594 0.65542 0.70215
 H272 H -0.16678 0.72711 0.73059
 H273 H -0.09143 0.56617 0.73861
   
