data_POSCAR
  _audit_creation_date              2014-09-24
  _audit_creation_method            'ToBaCCo'
  _symmetry_space_group_name_H-M    'P1'
  _symmetry_Int_Tables_number       1
  _symmetry_cell_setting            triclinic
  loop_
  _symmetry_equiv_pos_as_xyz
 x,y,z
_cell_length_a 53.5411
_cell_length_b 47.4718
_cell_length_c 48.8607
_cell_angle_alpha 87.012400
_cell_angle_beta 89.426800
_cell_angle_gamma 87.523500
loop_
  _atom_site_label
  _atom_site_type_symbol
  _atom_site_fract_x
  _atom_site_fract_y
  _atom_site_fract_z
N1 N 0.59817 0.68088 0.60337
 N2 N 0.58403 0.66449 0.61882
 C3 C 0.56373 0.67963 0.62704
 C4 C 0.56537 0.70700 0.61614
 C5 C 0.58748 0.70707 0.60134
 H6 H 0.54906 0.67136 0.64012
 H7 H 0.59496 0.72474 0.58954
 Cu8 Cu 0.59360 0.62504 0.62710
 Cu9 Cu 0.62829 0.66631 0.58549
 Cu10 Cu 0.65277 0.60258 0.61319
 N11 N 0.60854 0.59094 0.64483
 N12 N 0.63187 0.58270 0.64004
 C13 C 0.63769 0.55943 0.65603
 C14 C 0.61680 0.55278 0.67167
 C15 C 0.59865 0.57315 0.66394
 H16 H 0.65575 0.54834 0.65617
 H17 H 0.57983 0.57523 0.67206
 N18 N 0.67065 0.62598 0.58546
 N19 N 0.66140 0.65048 0.57520
 C20 C 0.67762 0.66114 0.55657
 C21 C 0.69784 0.64231 0.55475
 C22 C 0.69289 0.62025 0.57338
 H23 H 0.67469 0.68083 0.54465
 H24 H 0.70446 0.60134 0.57763
 H25 H 0.62486 0.62266 0.59020
 H26 H 0.63565 0.64147 0.62028
 N27 N 0.89187 0.32823 0.10847
 N28 N 0.90572 0.34415 0.12283
 C29 C 0.92765 0.33032 0.12858
 C30 C 0.92747 0.30415 0.11729
 C31 C 0.90444 0.30349 0.10481
 H32 H 0.94229 0.33861 0.14050
 H33 H 0.89761 0.28654 0.09336
 Cu34 Cu 0.89359 0.38085 0.13406
 Cu35 Cu 0.85961 0.34189 0.09357
 Cu36 Cu 0.83774 0.40763 0.11336
 N37 N 0.87574 0.41004 0.15385
 N38 N 0.85358 0.42011 0.14597
 C39 C 0.84526 0.43958 0.16332
 C40 C 0.86319 0.44182 0.18312
 C41 C 0.88235 0.42276 0.17653
 H42 H 0.82748 0.45124 0.16165
 H43 H 0.89959 0.41813 0.18752
 N44 N 0.82002 0.38568 0.08731
 N45 N 0.82780 0.36024 0.08036
 C46 C 0.81200 0.35127 0.06166
 C47 C 0.79350 0.37215 0.05673
 C48 C 0.79915 0.39356 0.07332
 H49 H 0.81441 0.33162 0.05153
 H50 H 0.78908 0.41370 0.07459
 H51 H 0.86611 0.38391 0.09397
 H52 H 0.85109 0.36793 0.12536
 N53 N 0.40077 0.17043 -0.10494
 N54 N 0.41074 0.15917 -0.12674
 C55 C 0.43312 0.17030 -0.13197
 C56 C 0.43731 0.18954 -0.11235
 C57 C 0.41647 0.18902 -0.09550
 H58 H 0.44555 0.16455 -0.14851
 H59 H 0.41293 0.20145 -0.07782
 Cu60 Cu 0.39404 0.13006 -0.14537
 Cu61 Cu 0.36771 0.16098 -0.09134
 Cu62 Cu 0.33943 0.10609 -0.12119
 N63 N 0.37685 0.10099 -0.16350
 N64 N 0.35615 0.09082 -0.15309
 C65 C 0.34948 0.06917 -0.16774
 C66 C 0.36672 0.06579 -0.18859
 C67 C 0.38387 0.08632 -0.18539
 H68 H 0.33344 0.05654 -0.16339
 H69 H 0.40074 0.08942 -0.19731
 N70 N 0.32544 0.12462 -0.08893
 N71 N 0.33644 0.14513 -0.07711
 C72 C 0.32225 0.15331 -0.05576
 C73 C 0.30122 0.13738 -0.05440
 C74 C 0.30378 0.11954 -0.07571
 H75 H 0.32649 0.17017 -0.04273
 H76 H 0.29064 0.10418 -0.08126
 H77 H 0.37114 0.11993 -0.10296
 H78 H 0.35349 0.14538 -0.12680
 N79 N 0.09718 0.81483 0.39726
 N80 N 0.08119 0.83183 0.38355
 C81 C 0.06105 0.81742 0.37736
 C82 C 0.06478 0.78981 0.38768
 C83 C 0.08792 0.78892 0.40004
 H84 H 0.04517 0.82637 0.36595
 H85 H 0.09709 0.77086 0.41072
 Cu86 Cu 0.08822 0.87104 0.37435
 Cu87 Cu 0.12798 0.82801 0.41202
 Cu88 Cu 0.14463 0.89473 0.38946
 N89 N 0.10061 0.90547 0.35682
 N90 N 0.12269 0.91449 0.36272
 C91 C 0.12695 0.93802 0.34716
 C92 C 0.10643 0.94406 0.33053
 C93 C 0.09003 0.92304 0.33727
 H94 H 0.14388 0.94957 0.34774
 H95 H 0.07199 0.92039 0.32818
 N96 N 0.16427 0.87122 0.41644
 N97 N 0.15821 0.84549 0.42473
 C98 C 0.17508 0.83497 0.44327
 C99 C 0.19246 0.85510 0.44685
 C100 C 0.18508 0.87781 0.42950
 H101 H 0.17455 0.81442 0.45385
 H102 H 0.19403 0.89773 0.42668
 H103 H 0.11863 0.87075 0.41113
 H104 H 0.13192 0.85619 0.37882
 C105 C 0.11218 0.14423 0.15678
 C106 C 0.09141 0.16294 0.15238
 C107 C 0.09196 0.18453 0.13157
 C108 C 0.11324 0.18696 0.11476
 C109 C 0.13395 0.16811 0.11855
 C110 C 0.13361 0.14696 0.13993
 C111 C 0.11208 0.12321 0.17811
 C112 C 0.13324 0.10504 0.18291
 C113 C 0.15457 0.10818 0.16627
 C114 C 0.15485 0.12882 0.14471
 C115 C 0.17606 0.13161 0.12788
 C116 C 0.17612 0.15185 0.10593
 C117 C 0.15511 0.17027 0.10152
 H118 H 0.07523 0.16131 0.16578
 H119 H 0.11366 0.20363 0.09874
 H120 H 0.09579 0.12161 0.19132
 H121 H 0.17096 0.09434 0.17003
 H122 H 0.19238 0.11761 0.13145
 H123 H 0.15536 0.18650 0.08508
 C124 C 0.39564 0.88950 0.63581
 C125 C 0.41235 0.86599 0.63887
 C126 C 0.41037 0.84291 0.62221
 C127 C 0.39111 0.84318 0.60293
 C128 C 0.37449 0.86671 0.59934
 C129 C 0.37690 0.89010 0.61565
 C130 C 0.39732 0.91242 0.65261
 C131 C 0.38083 0.93616 0.64909
 C132 C 0.36293 0.93716 0.62826
 C133 C 0.36058 0.91410 0.61178
 C134 C 0.34199 0.91450 0.59174
 C135 C 0.33911 0.89105 0.57587
 C136 C 0.35561 0.86730 0.57960
 H137 H 0.42670 0.86554 0.65439
 H138 H 0.38942 0.82525 0.59029
 H139 H 0.41158 0.91191 0.66824
 H140 H 0.35034 0.95558 0.62547
 H141 H 0.32941 0.93291 0.58878
 H142 H 0.35415 0.84945 0.56687
 C143 C 0.90559 0.61369 0.36272
 C144 C 0.92224 0.63573 0.36262
 C145 C 0.91897 0.65731 0.38115
 C146 C 0.89891 0.65673 0.39984
 C147 C 0.88241 0.63454 0.40057
 C148 C 0.88566 0.61300 0.38185
 C149 C 0.90831 0.59256 0.34375
 C150 C 0.89116 0.57103 0.34332
 C151 C 0.87181 0.56996 0.36299
 C152 C 0.86897 0.59079 0.38225
 C153 C 0.84960 0.58987 0.40178
 C154 C 0.84626 0.61120 0.42048
 C155 C 0.86276 0.63353 0.41976
 H156 H 0.93732 0.63644 0.34768
 H157 H 0.89635 0.67344 0.41404
 H158 H 0.92341 0.59323 0.32880
 H159 H 0.85900 0.55288 0.36346
 H160 H 0.83689 0.57266 0.40227
 H161 H 0.86077 0.64977 0.43448
 C162 C 0.61558 0.34909 -0.16258
 C163 C 0.59614 0.33031 -0.16341
 C164 C 0.59312 0.30944 -0.14237
 C165 C 0.61022 0.30690 -0.12060
 C166 C 0.63001 0.32528 -0.11968
 C167 C 0.63262 0.34657 -0.14066
 C168 C 0.61826 0.37032 -0.18333
 C169 C 0.63780 0.38912 -0.18249
 C170 C 0.65499 0.38615 -0.16091
 C171 C 0.65241 0.36519 -0.13987
 C172 C 0.66933 0.36254 -0.11806
 C173 C 0.66675 0.34147 -0.09700
 C174 C 0.64726 0.32272 -0.09815
 H175 H 0.58306 0.33215 -0.18028
 H176 H 0.60845 0.29037 -0.10466
 H177 H 0.60534 0.37183 -0.20032
 H178 H 0.67019 0.40047 -0.16035
 H179 H 0.68473 0.37660 -0.11780
 H180 H 0.64536 0.30634 -0.08204
 C181 C -0.05383 0.28268 0.11790
 C182 C -0.03002 0.28628 0.12819
 C183 C -0.01036 0.26367 0.12886
 N184 N 0.01384 0.27023 0.13173
 N185 N 0.03193 0.25007 0.13275
 C186 C 0.02646 0.22253 0.13120
 N187 N 0.00221 0.21591 0.12859
 N188 N -0.01588 0.23613 0.12730
 C189 C 0.04630 0.20012 0.13307
 C190 C 0.07128 0.20600 0.12812
 H191 H -0.02503 0.30664 0.13491
 H192 H 0.04109 0.17860 0.13776
 H193 H -0.05786 0.26282 0.10925
 H194 H 0.07586 0.22701 0.12050
 C195 C 0.54763 0.73122 0.61893
 C196 C 0.52304 0.72800 0.62773
 C197 C 0.50503 0.75219 0.62898
 N198 N 0.48018 0.74781 0.63088
 N199 N 0.46363 0.76956 0.63141
 C200 C 0.47135 0.79648 0.63029
 N201 N 0.49621 0.80084 0.62877
 N202 N 0.51275 0.77911 0.62802
 C203 C 0.45334 0.82075 0.63036
 C204 C 0.42809 0.81820 0.62463
 H205 H 0.51636 0.70707 0.63238
 H206 H 0.46049 0.84141 0.63305
 H207 H 0.55377 0.75199 0.61245
 H208 H 0.42162 0.79792 0.61922
 C209 C 1.04905 0.76722 0.38653
 C210 C 1.02477 0.77018 0.37634
 C211 C 1.00840 0.74612 0.37590
 N212 N 0.98334 0.75078 0.37333
 N213 N 0.96824 0.72921 0.37315
 C214 C 0.97769 0.70218 0.37529
 N215 N 1.00278 0.69751 0.37751
 N216 N 1.01786 0.71909 0.37794
 C217 C 0.96123 0.67819 0.37506
 C218 C 0.93572 0.68124 0.38077
 H219 H 1.01694 0.79080 0.36979
 H220 H 0.96961 0.65746 0.37176
 H221 H 1.05587 0.74672 0.39480
 H222 H 0.92806 0.70145 0.38698
 C223 C 0.45914 0.20693 -0.10939
 C224 C 0.47712 0.21004 -0.13003
 C225 C 0.49873 0.22775 -0.12740
 N226 N 0.51324 0.23384 -0.14966
 N227 N 0.53281 0.25001 -0.14773
 C228 C 0.53868 0.26056 -0.12341
 N229 N 0.52430 0.25426 -0.10108
 N230 N 0.50464 0.23821 -0.10304
 C231 C 0.56014 0.27860 -0.12105
 C232 C 0.57228 0.29020 -0.14411
 H233 H 0.47494 0.19996 -0.14918
 H234 H 0.56560 0.28399 -0.10077
 H235 H 0.46061 0.21824 -0.09083
 H236 H 0.56510 0.28669 -0.16425
 C237 C 0.10280 -0.03288 0.30938
 C238 C 0.12187 -0.01488 0.30183
 C239 C 0.11915 0.00748 0.27997
 N240 N 0.13932 0.02223 0.27196
 N241 N 0.13746 0.04235 0.25199
 C242 C 0.11531 0.04856 0.23929
 N243 N 0.09505 0.03394 0.24741
 N244 N 0.09693 0.01372 0.26737
 C245 C 0.11316 0.07063 0.21701
 C246 C 0.13422 0.08327 0.20571
 H247 H 0.13987 -0.01764 0.31169
 H248 H 0.09480 0.07607 0.20876
 H249 H 0.08499 -0.03062 0.29901
 H250 H 0.15253 0.07584 0.21294
 C251 C 0.61396 0.53083 -0.30856
 C252 C 0.63354 0.51201 -0.30028
 C253 C 0.63014 0.48930 -0.27908
 N254 N 0.65035 0.47425 -0.26876
 N255 N 0.64759 0.45370 -0.24946
 C256 C 0.62449 0.44736 -0.23987
 N257 N 0.60428 0.46228 -0.25033
 N258 N 0.60705 0.48292 -0.26953
 C259 C 0.62105 0.42468 -0.21867
 C260 C 0.64107 0.41164 -0.20416
 H261 H 0.65210 0.51429 -0.30885
 H262 H 0.60213 0.41897 -0.21369
 H263 H 0.59576 0.52884 -0.29892
 H264 H 0.65966 0.41934 -0.20763
 C265 C 0.36744 1.04326 0.79187
 C266 C 0.38086 1.04519 0.76734
 C267 C 0.38200 1.02195 0.74858
 N268 N 0.38762 1.02703 0.72167
 N269 N 0.38861 1.00605 0.70454
 C270 C 0.38432 0.97919 0.71379
 N271 N 0.37905 0.97408 0.74076
 N272 N 0.37778 0.99508 0.75781
 C273 C 0.38536 0.95577 0.69527
 C274 C 0.38191 0.96006 0.66711
 H275 H 0.38992 1.06452 0.76127
 H276 H 0.38700 0.93444 0.70427
 H277 H 0.35644 1.02499 0.79662
 H278 H 0.37733 0.98116 0.65857
 C279 C 0.86131 0.46039 0.20631
 C280 C 0.88151 0.46473 0.22314
 C281 C 0.87930 0.48355 0.24613
 N282 N 0.90009 0.49069 0.25936
 N283 N 0.89833 0.50792 0.28005
 C284 C 0.87569 0.51850 0.28834
 N285 N 0.85490 0.51115 0.27526
 N286 N 0.85667 0.49406 0.25450
 C287 C 0.87329 0.53774 0.31094
 C288 C 0.89386 0.55001 0.32206
 H289 H 0.89961 0.45474 0.21899
 H290 H 0.85461 0.54363 0.31786
 H291 H 0.84355 0.47149 0.20975
 H292 H 0.91225 0.54596 0.31329
 C293 C 0.27959 0.13961 -0.03575
 C294 C 0.28064 0.15248 -0.01084
 C295 C 0.25872 0.15444 0.00743
 N296 N 0.26168 0.15876 0.03442
 N297 N 0.24193 0.16014 0.05120
 C298 C 0.21848 0.15755 0.04151
 N299 N 0.21551 0.15366 0.01445
 N300 N 0.23526 0.15200 -0.00226
 C301 C 0.19650 0.15867 0.05973
 C302 C 0.19841 0.15345 0.08798
 H303 H 0.29817 0.16010 -0.00399
 H304 H 0.17821 0.16148 0.05046
 H305 H 0.26260 0.12986 -0.04141
 H306 H 0.21651 0.14754 0.09677
 C307 C 0.71927 0.64533 0.53589
 C308 C 0.73608 0.62292 0.53083
 C309 C 0.75655 0.62565 0.51069
 N310 N 0.76994 0.60231 0.50329
 N311 N 0.78831 0.60437 0.48479
 C312 C 0.79402 0.62989 0.47307
 N313 N 0.78076 0.65326 0.48063
 N314 N 0.76232 0.65118 0.49904
 C315 C 0.81426 0.63256 0.45263
 C316 C 0.82585 0.60908 0.44104
 H317 H 0.73361 0.60242 0.54101
 H318 H 0.81941 0.65361 0.44590
 H319 H 0.72109 0.66545 0.52471
 H320 H 0.81891 0.58835 0.44624
 C321 C 0.77329 0.37344 0.03646
 C322 C 0.76732 0.35050 0.02149
 C323 C 0.74831 0.35318 -0.00018
 N324 N 0.74063 0.32987 -0.01206
 N325 N 0.72381 0.33218 -0.03209
 C326 C 0.71417 0.35794 -0.04104
 N327 N 0.72193 0.38122 -0.02923
 N328 N 0.73863 0.37890 -0.00914
 C329 C 0.69613 0.36110 -0.06360
 C330 C 0.68454 0.33820 -0.07396
 H331 H 0.77677 0.33012 0.02561
 H332 H 0.69136 0.38228 -0.07174
 H333 H 0.76289 0.39339 0.03312
 H334 H 0.68757 0.31743 -0.06398
 C335 C 0.21370 0.85256 0.46587
 C336 C 0.22848 0.87527 0.47056
 C337 C 0.24919 0.87316 0.49020
 N338 N 0.26146 0.89662 0.49565
 N339 N 0.28012 0.89521 0.51355
 C340 C 0.28725 0.87025 0.52663
 N341 N 0.27507 0.84676 0.52106
 N342 N 0.25635 0.84818 0.50321
 C343 C 0.30775 0.86837 0.54655
 C344 C 0.31900 0.89231 0.55523
 H345 H 0.22448 0.89556 0.46006
 H346 H 0.31332 0.84767 0.55531
 H347 H 0.21732 0.83247 0.47694
 H348 H 0.31180 0.91296 0.54782
   
