data_POSCAR
  _audit_creation_date              2014-09-24
  _audit_creation_method            'ToBaCCo'
  _symmetry_space_group_name_H-M    'P1'
  _symmetry_Int_Tables_number       1
  _symmetry_cell_setting            triclinic
  loop_
  _symmetry_equiv_pos_as_xyz
 x,y,z
_cell_length_a 45.5383
_cell_length_b 45.5065
_cell_length_c 45.5910
_cell_angle_alpha 89.930700
_cell_angle_beta 89.948400
_cell_angle_gamma 90.006000
loop_
  _atom_site_label
  _atom_site_type_symbol
  _atom_site_fract_x
  _atom_site_fract_y
  _atom_site_fract_z
C1 C 0.25011 0.27226 0.22764
 C2 C 0.27199 0.27210 0.20596
 C3 C 0.29373 0.25031 0.20603
 C4 C 0.29376 0.22852 0.22776
 C5 C 0.27204 0.22834 0.24960
 C6 C 0.25009 0.25029 0.24958
 C7 C 0.22823 0.29396 0.22779
 C8 C 0.20648 0.29390 0.24954
 C9 C 0.20642 0.27215 0.27132
 C10 C 0.22813 0.25027 0.27150
 C11 C 0.22828 0.22838 0.29320
 C12 C 0.25006 0.20664 0.29317
 C13 C 0.27186 0.20661 0.27147
 H14 H 0.27216 0.28888 0.18904
 H15 H 0.31069 0.21174 0.22762
 H16 H 0.22808 0.31090 0.21103
 H17 H 0.18948 0.27229 0.28806
 H18 H 0.21150 0.22821 0.31010
 H19 H 0.28863 0.18968 0.27164
 C20 C 0.74960 -0.27207 0.22762
 C21 C 0.72767 -0.27196 0.20602
 C22 C 0.70585 -0.25023 0.20613
 C23 C 0.70581 -0.22845 0.22786
 C24 C 0.72759 -0.22824 0.24962
 C25 C 0.74960 -0.25014 0.24953
 C26 C 0.77154 -0.29373 0.22770
 C27 C 0.79335 -0.29365 0.24939
 C28 C 0.79338 -0.27190 0.27114
 C29 C 0.77161 -0.25009 0.27137
 C30 C 0.77143 -0.22823 0.29305
 C31 C 0.74959 -0.20655 0.29308
 C32 C 0.72775 -0.20655 0.27146
 H33 H 0.72758 -0.28876 0.18915
 H34 H 0.68887 -0.21168 0.22783
 H35 H 0.77163 -0.31063 0.21092
 H36 H 0.81032 -0.27195 0.28787
 H37 H 0.78824 -0.22804 0.30989
 H38 H 0.71094 -0.18967 0.27168
 C39 C 0.75022 0.27251 0.77203
 C40 C 0.72835 0.27231 0.79372
 C41 C 0.70659 0.25051 0.79369
 C42 C 0.70657 0.22874 0.77196
 C43 C 0.72829 0.22862 0.75011
 C44 C 0.75023 0.25058 0.75010
 C45 C 0.77209 0.29423 0.77186
 C46 C 0.79385 0.29424 0.75009
 C47 C 0.79390 0.27250 0.72832
 C48 C 0.77219 0.25062 0.72817
 C49 C 0.77203 0.22876 0.70649
 C50 C 0.75025 0.20701 0.70654
 C51 C 0.72847 0.20693 0.72825
 H52 H 0.72825 0.28910 0.81061
 H53 H 0.68967 0.21192 0.77205
 H54 H 0.77218 0.31112 0.78866
 H55 H 0.81080 0.27261 0.71152
 H56 H 0.78880 0.22863 0.68958
 H57 H 0.71170 0.19000 0.72810
 C58 C 0.24948 -0.27288 0.77279
 C59 C 0.27132 -0.27272 0.79449
 C60 C 0.29310 -0.25098 0.79440
 C61 C 0.29324 -0.22923 0.77262
 C62 C 0.27159 -0.22905 0.75076
 C63 C 0.24958 -0.25096 0.75080
 C64 C 0.22756 -0.29455 0.77268
 C65 C 0.20585 -0.29450 0.75089
 C66 C 0.20592 -0.27277 0.72906
 C67 C 0.22768 -0.25095 0.72886
 C68 C 0.22795 -0.22910 0.70712
 C69 C 0.24978 -0.20741 0.70712
 C70 C 0.27152 -0.20737 0.72885
 H71 H 0.27140 -0.28946 0.81145
 H72 H 0.31021 -0.21249 0.77275
 H73 H 0.22739 -0.31142 0.78952
 H74 H 0.18906 -0.27285 0.71225
 H75 H 0.21122 -0.22894 0.69020
 H76 H 0.28832 -0.19048 0.72866
 C77 C 0.75016 -0.27236 0.77248
 C78 C 0.72831 -0.27221 0.79419
 C79 C 0.70655 -0.25045 0.79413
 C80 C 0.70645 -0.22867 0.77239
 C81 C 0.72813 -0.22849 0.75051
 C82 C 0.75011 -0.25041 0.75052
 C83 C 0.77205 -0.29404 0.77233
 C84 C 0.79378 -0.29399 0.75053
 C85 C 0.79377 -0.27224 0.72872
 C86 C 0.77203 -0.25040 0.72856
 C87 C 0.77181 -0.22853 0.70684
 C88 C 0.75000 -0.20683 0.70689
 C89 C 0.72824 -0.20679 0.72863
 H90 H 0.72819 -0.28897 0.81112
 H91 H 0.68950 -0.21193 0.77254
 H92 H 0.77218 -0.31094 0.78915
 H93 H 0.81065 -0.27231 0.71190
 H94 H 0.78855 -0.22836 0.68991
 H95 H 0.71145 -0.18989 0.72847
 C96 C 0.25012 0.27186 0.77168
 C97 C 0.27205 0.27173 0.79326
 C98 C 0.29383 0.24999 0.79314
 C99 C 0.29386 0.22821 0.77145
 C100 C 0.27210 0.22800 0.74970
 C101 C 0.25010 0.24991 0.74978
 C102 C 0.22821 0.29352 0.77159
 C103 C 0.20641 0.29342 0.74993
 C104 C 0.20633 0.27169 0.72819
 C105 C 0.22808 0.24987 0.72795
 C106 C 0.22822 0.22800 0.70629
 C107 C 0.25005 0.20631 0.70627
 C108 C 0.27191 0.20630 0.72788
 H109 H 0.27223 0.28850 0.81016
 H110 H 0.31082 0.21147 0.77155
 H111 H 0.22807 0.31045 0.78832
 H112 H 0.18935 0.27182 0.71152
 H113 H 0.21140 0.22780 0.68947
 H114 H 0.28871 0.18941 0.72766
 C115 C 0.24982 -0.27260 0.22757
 C116 C 0.27176 -0.27250 0.20595
 C117 C 0.29362 -0.25080 0.20608
 C118 C 0.29369 -0.22906 0.22783
 C119 C 0.27190 -0.22885 0.24960
 C120 C 0.24985 -0.25070 0.24951
 C121 C 0.22784 -0.29421 0.22764
 C122 C 0.20601 -0.29411 0.24934
 C123 C 0.20600 -0.27240 0.27113
 C124 C 0.22782 -0.25064 0.27137
 C125 C 0.22802 -0.22881 0.29306
 C126 C 0.24990 -0.20718 0.29310
 C127 C 0.27176 -0.20718 0.27147
 H128 H 0.27183 -0.28928 0.18905
 H129 H 0.31067 -0.21232 0.22781
 H130 H 0.22772 -0.31108 0.21083
 H131 H 0.18904 -0.27244 0.28787
 H132 H 0.21119 -0.22860 0.30992
 H133 H 0.28861 -0.19033 0.27169
 C134 C 0.75079 0.27291 0.22782
 C135 C 0.72900 0.27269 0.20610
 C136 C 0.70731 0.25086 0.20614
 C137 C 0.70723 0.22907 0.22787
 C138 C 0.72885 0.22896 0.24976
 C139 C 0.75076 0.25096 0.24978
 C140 C 0.77262 0.29466 0.22800
 C141 C 0.79430 0.29467 0.24981
 C142 C 0.79430 0.27292 0.27161
 C143 C 0.77263 0.25100 0.27175
 C144 C 0.77243 0.22913 0.29346
 C145 C 0.75068 0.20735 0.29338
 C146 C 0.72898 0.20725 0.27163
 H147 H 0.72886 0.28945 0.18917
 H148 H 0.69033 0.21227 0.22770
 H149 H 0.77273 0.31157 0.21118
 H150 H 0.81114 0.27305 0.28844
 H151 H 0.78913 0.22900 0.31040
 H152 H 0.71224 0.19029 0.27177
 O153 O 0.22574 0.02798 0.47132
 O154 O 0.22576 -0.02928 0.52851
 O155 O 0.22573 0.02795 0.52844
 O156 O 0.22576 -0.02925 0.47137
 O157 O 0.27433 -0.02922 0.47133
 O158 O 0.27430 0.02798 0.52840
 O159 O 0.27433 -0.02925 0.52847
 O160 O 0.27430 0.02801 0.47128
 Cu161 Cu 0.22085 -0.00065 0.49991
 Cu162 Cu 0.27921 -0.00062 0.49987
 C163 C 0.25001 0.03767 0.46165
 C164 C 0.25005 -0.03892 0.53815
 C165 C 0.25001 0.03762 0.53805
 C166 C 0.25005 -0.03888 0.46172
 O167 O 0.77436 0.02862 0.52850
 O168 O 0.77419 -0.02856 0.47135
 O169 O 0.77436 0.02867 0.47137
 O170 O 0.77422 -0.02862 0.52849
 O171 O 0.72566 -0.02850 0.52855
 O172 O 0.72579 0.02880 0.47143
 O173 O 0.72562 -0.02844 0.47141
 O174 O 0.72579 0.02874 0.52855
 Cu175 Cu 0.77918 0.00001 0.49992
 Cu176 Cu 0.72082 0.00016 0.49999
 C177 C 0.75010 0.03833 0.53817
 C178 C 0.74988 -0.03815 0.46173
 C179 C 0.75010 0.03841 0.46177
 C180 C 0.74992 -0.03822 0.53817
 O181 O 0.47227 0.22611 0.02800
 O182 O 0.52949 0.22613 -0.02917
 O183 O 0.52946 0.22620 0.02796
 O184 O 0.47230 0.22604 -0.02913
 O185 O 0.47223 0.27464 -0.02924
 O186 O 0.52939 0.27480 0.02785
 O187 O 0.52943 0.27472 -0.02929
 O188 O 0.47220 0.27470 0.02789
 Cu189 Cu 0.50089 0.22121 -0.00057
 Cu190 Cu 0.50081 0.27962 -0.00071
 C191 C 0.46257 0.25040 0.03759
 C192 C 0.53912 0.25043 -0.03888
 C193 C 0.53907 0.25052 0.03754
 C194 C 0.46262 0.25032 -0.03882
 O195 O 0.52841 0.77367 0.02958
 O196 O 0.47123 0.77352 -0.02754
 O197 O 0.47120 0.77356 0.02958
 O198 O 0.52842 0.77363 -0.02755
 O199 O 0.52851 0.72503 -0.02746
 O200 O 0.47129 0.72496 0.02968
 O201 O 0.47132 0.72492 -0.02745
 O202 O 0.52850 0.72508 0.02967
 Cu203 Cu 0.49981 0.77850 0.00101
 Cu204 Cu 0.49992 0.72009 0.00112
 C205 C 0.53811 0.74940 0.03927
 C206 C 0.46162 0.74920 -0.03714
 C207 C 0.46158 0.74924 0.03927
 C208 C 0.53812 0.74934 -0.03715
 O209 O 0.02813 0.47228 0.22517
 O210 O -0.02909 0.52951 0.22510
 O211 O 0.02812 0.52951 0.22507
 O212 O -0.02905 0.47227 0.22522
 O213 O -0.02907 0.47230 0.27373
 O214 O 0.02811 0.52954 0.27358
 O215 O -0.02910 0.52954 0.27360
 O216 O 0.02812 0.47231 0.27368
 Cu217 Cu -0.00047 0.50089 0.22024
 Cu218 Cu -0.00049 0.50094 0.27854
 C219 C 0.03778 0.46263 0.24944
 C220 C -0.03876 0.53918 0.24934
 C221 C 0.03778 0.53917 0.24930
 C222 C -0.03870 0.46262 0.24950
 O223 O 0.02805 0.52877 0.77491
 O224 O -0.02921 0.47156 0.77470
 O225 O 0.02798 0.47154 0.77475
 O226 O -0.02916 0.52881 0.77484
 O227 O -0.02906 0.52898 0.72633
 O228 O 0.02807 0.47172 0.72624
 O229 O -0.02912 0.47174 0.72619
 O230 O 0.02814 0.52895 0.72640
 Cu231 Cu -0.00060 0.50015 0.77969
 Cu232 Cu -0.00049 0.50037 0.72140
 C233 C 0.03777 0.53850 0.75068
 C234 C -0.03882 0.46199 0.75041
 C235 C 0.03767 0.46197 0.75048
 C236 C -0.03876 0.53856 0.75059
 C237 C 0.35715 0.25036 0.14274
 N238 N 0.35092 0.24105 0.11519
 N239 N 0.37165 0.24106 0.09453
 C240 C 0.39923 0.25039 0.10080
 N241 N 0.40545 0.25970 0.12835
 N242 N 0.38473 0.25969 0.14901
 C243 C 0.33484 0.25033 0.16500
 C244 C 0.31610 0.25031 0.18369
 C245 C 0.42155 0.25038 0.07855
 C246 C 0.44029 0.25039 0.05985
 C247 C 0.64353 0.74964 0.14423
 N248 N 0.62176 0.76997 0.14467
 N249 N 0.60103 0.76993 0.12405
 C250 C 0.60144 0.74955 0.10237
 N251 N 0.62321 0.72921 0.10194
 N252 N 0.64394 0.72926 0.12256
 C253 C 0.66585 0.74969 0.16643
 C254 C 0.68462 0.74972 0.18508
 C255 C 0.57912 0.74950 0.08016
 C256 C 0.56039 0.74946 0.06149
 C257 C 0.64442 0.25045 -0.14415
 N258 N 0.64900 0.23645 -0.11828
 N259 N 0.62831 0.23645 -0.09758
 C260 C 0.60241 0.25044 -0.10214
 N261 N 0.59783 0.26444 -0.12801
 N262 N 0.61852 0.26445 -0.14871
 C263 C 0.66670 0.25046 -0.16644
 C264 C 0.68543 0.25047 -0.18516
 C265 C 0.58012 0.25043 -0.07986
 C266 C 0.56141 0.25043 -0.06114
 C267 C 0.35638 0.74903 -0.14228
 N268 N 0.37565 0.72640 -0.14019
 N269 N 0.39633 0.72642 -0.11952
 C270 C 0.39837 0.74908 -0.10033
 N271 N 0.37911 0.77171 -0.10242
 N272 N 0.35843 0.77169 -0.12309
 C273 C 0.33412 0.74902 -0.16454
 C274 C 0.31542 0.74901 -0.18325
 C275 C 0.42065 0.74910 -0.07807
 C276 C 0.43936 0.74914 -0.05938
 C277 C 0.14309 0.35728 0.24952
 N278 N 0.11427 0.34976 0.24968
 N279 N 0.09357 0.37046 0.24967
 C280 C 0.10107 0.39931 0.24951
 N281 N 0.12989 0.40683 0.24935
 N282 N 0.15059 0.38612 0.24935
 C283 C 0.16538 0.33499 0.24951
 C284 C 0.18411 0.31626 0.24951
 C285 C 0.07878 0.42161 0.24948
 C286 C 0.06006 0.44034 0.24947
 C287 C 0.14346 0.64350 0.75091
 N288 N 0.12883 0.63692 0.72586
 N289 N 0.10805 0.61630 0.72583
 C290 C 0.10126 0.60163 0.75085
 N291 N 0.11588 0.60821 0.77590
 N292 N 0.13667 0.62883 0.77593
 C293 C 0.16583 0.66571 0.75093
 C294 C 0.18463 0.68438 0.75093
 C295 C 0.07889 0.57941 0.75081
 C296 C 0.06010 0.56074 0.75076
 C297 C -0.14431 0.64431 0.24926
 N298 N -0.11550 0.65189 0.24945
 N299 N -0.09475 0.63124 0.24945
 C300 C -0.10217 0.60237 0.24927
 N301 N -0.13098 0.59479 0.24908
 N302 N -0.15173 0.61544 0.24908
 C303 C -0.16665 0.66654 0.24929
 C304 C -0.18543 0.68523 0.24932
 C305 C -0.07983 0.58013 0.24928
 C306 C -0.06107 0.56144 0.24931
 C307 C -0.14401 0.35650 0.75013
 N308 N -0.11710 0.35089 0.76156
 N309 N -0.09643 0.37163 0.76160
 C310 C -0.10205 0.39860 0.75022
 N311 N -0.12896 0.40420 0.73879
 N312 N -0.14963 0.38347 0.73875
 C313 C -0.16627 0.33417 0.75010
 C314 C -0.18499 0.31542 0.75009
 C315 C -0.07979 0.42093 0.75028
 C316 C -0.06109 0.43969 0.75034
 C317 C 0.25003 0.14316 0.35646
 N318 N 0.23195 0.11959 0.35423
 N319 N 0.23194 0.09884 0.37489
 C320 C 0.25002 0.10105 0.39842
 N321 N 0.26810 0.12463 0.40065
 N322 N 0.26810 0.14537 0.37998
 C323 C 0.25003 0.16550 0.33421
 C324 C 0.25004 0.18425 0.31551
 C325 C 0.25000 0.07872 0.42068
 C326 C 0.25000 0.05997 0.43938
 C327 C 0.75024 0.14366 0.64327
 N328 N 0.77287 0.14159 0.62402
 N329 N 0.77285 0.12088 0.60336
 C330 C 0.75021 0.10163 0.60134
 N331 N 0.72759 0.10370 0.62059
 N332 N 0.72760 0.12440 0.64125
 C333 C 0.75025 0.16595 0.66551
 C334 C 0.75026 0.18467 0.68420
 C335 C 0.75019 0.07933 0.57910
 C336 C 0.75016 0.06061 0.56041
 C337 C 0.24996 -0.14412 0.64364
 N338 N 0.27112 -0.14383 0.62268
 N339 N 0.27115 -0.12316 0.60194
 C340 C 0.25002 -0.10216 0.60153
 N341 N 0.22886 -0.10245 0.62249
 N342 N 0.22884 -0.12312 0.64323
 C343 C 0.24992 -0.16638 0.66597
 C344 C 0.24987 -0.18508 0.68472
 C345 C 0.25005 -0.07990 0.57920
 C346 C 0.25005 -0.06120 0.56045
 C347 C 0.74964 -0.14327 0.35643
 N348 N 0.76816 -0.14529 0.37963
 N349 N 0.76820 -0.12463 0.40033
 C350 C 0.74971 -0.10133 0.39845
 N351 N 0.73119 -0.09932 0.37525
 N352 N 0.73116 -0.11998 0.35455
 C353 C 0.74961 -0.16552 0.33414
 C354 C 0.74959 -0.18421 0.31542
 C355 C 0.74976 -0.07909 0.42074
 C356 C 0.74981 -0.06040 0.43947
 C357 C 0.64330 0.74948 -0.14248
 N358 N 0.62155 0.76984 -0.14286
 N359 N 0.60088 0.76981 -0.12215
 C360 C 0.60135 0.74943 -0.10042
 N361 N 0.62310 0.72908 -0.10003
 N362 N 0.64376 0.72910 -0.12075
 C363 C 0.66553 0.74950 -0.16478
 C364 C 0.68422 0.74952 -0.18351
 C365 C 0.57910 0.74939 -0.07813
 C366 C 0.56039 0.74937 -0.05941
 C367 C 0.35728 0.25009 -0.14378
 N368 N 0.35105 0.24078 -0.11620
 N369 N 0.37177 0.24082 -0.09557
 C370 C 0.39933 0.25017 -0.10191
 N371 N 0.40556 0.25947 -0.12949
 N372 N 0.38485 0.25943 -0.15012
 C373 C 0.33498 0.25005 -0.16598
 C374 C 0.31623 0.25002 -0.18462
 C375 C 0.42163 0.25021 -0.07970
 C376 C 0.44035 0.25026 -0.06104
 C377 C 0.35598 0.74915 0.14417
 N378 N 0.37522 0.72649 0.14216
 N379 N 0.39600 0.72651 0.12155
 C380 C 0.39815 0.74918 0.10233
 N381 N 0.37891 0.77184 0.10434
 N382 N 0.35814 0.77182 0.12495
 C383 C 0.33363 0.74914 0.16635
 C384 C 0.31485 0.74916 0.18500
 C385 C 0.42050 0.74920 0.08014
 C386 C 0.43927 0.74921 0.06148
 C387 C 0.64416 0.25075 0.14275
 N388 N 0.64881 0.23674 0.11693
 N389 N 0.62816 0.23670 0.09623
 C390 C 0.60225 0.25068 0.10074
 N391 N 0.59760 0.26470 0.12657
 N392 N 0.61825 0.26473 0.14726
 C393 C 0.66638 0.25078 0.16503
 C394 C 0.68504 0.25081 0.18377
 C395 C 0.58001 0.25062 0.07847
 C396 C 0.56132 0.25058 0.05977
 C397 C -0.14402 0.64388 0.75057
 N398 N -0.11520 0.65140 0.75041
 N399 N -0.09450 0.63070 0.75043
 C400 C -0.10200 0.60186 0.75062
 N401 N -0.13082 0.59434 0.75078
 N402 N -0.15152 0.61504 0.75076
 C403 C -0.16630 0.66616 0.75054
 C404 C -0.18504 0.68487 0.75053
 C405 C -0.07972 0.57958 0.75062
 C406 C -0.06101 0.56085 0.75062
 C407 C -0.14370 0.35700 0.24978
 N408 N -0.11676 0.35146 0.23835
 N409 N -0.09612 0.37223 0.23830
 C410 C -0.10181 0.39917 0.24967
 N411 N -0.12875 0.40471 0.26110
 N412 N -0.14939 0.38394 0.26115
 C413 C -0.16591 0.33466 0.24981
 C414 C -0.18459 0.31588 0.24982
 C415 C -0.07960 0.42152 0.24961
 C416 C -0.06093 0.44029 0.24956
 C417 C 0.14298 0.35670 0.75017
 N418 N 0.11417 0.34916 0.75005
 N419 N 0.09346 0.36984 0.75012
 C420 C 0.10094 0.39869 0.75033
 N421 N 0.12975 0.40623 0.75046
 N422 N 0.15047 0.38554 0.75038
 C423 C 0.16528 0.33443 0.75008
 C424 C 0.18402 0.31574 0.75001
 C425 C 0.07865 0.42096 0.75040
 C426 C 0.05993 0.43968 0.75045
 C427 C 0.14350 0.64405 0.24922
 N428 N 0.12880 0.63743 0.27425
 N429 N 0.10798 0.61684 0.27424
 C430 C 0.10125 0.60226 0.24921
 N431 N 0.11596 0.60888 0.22418
 N432 N 0.13677 0.62947 0.22418
 C433 C 0.16591 0.66621 0.24923
 C434 C 0.18474 0.68483 0.24927
 C435 C 0.07888 0.58007 0.24922
 C436 C 0.06010 0.56140 0.24924
 C437 C 0.74988 -0.14352 0.64348
 N438 N 0.76838 -0.14548 0.62023
 N439 N 0.76836 -0.12479 0.59952
 C440 C 0.74985 -0.10152 0.60143
 N441 N 0.73135 -0.09956 0.62468
 N442 N 0.73137 -0.12025 0.64539
 C443 C 0.74990 -0.16578 0.66578
 C444 C 0.74994 -0.18449 0.68452
 C445 C 0.74986 -0.07924 0.57914
 C446 C 0.74988 -0.06051 0.56043
 C447 C 0.24997 -0.14396 0.35645
 N448 N 0.27113 -0.14369 0.37736
 N449 N 0.27115 -0.12305 0.39807
 C450 C 0.25002 -0.10205 0.39848
 N451 N 0.22887 -0.10232 0.37756
 N452 N 0.22884 -0.12297 0.35685
 C453 C 0.24994 -0.16619 0.33417
 C454 C 0.24992 -0.18487 0.31544
 C455 C 0.25005 -0.07982 0.42076
 C456 C 0.25006 -0.06113 0.43947
 C457 C 0.75049 0.14393 0.35668
 N458 N 0.77306 0.14181 0.37595
 N459 N 0.77297 0.12107 0.39661
 C460 C 0.75031 0.10182 0.39862
 N461 N 0.72774 0.10394 0.37934
 N462 N 0.72783 0.12468 0.35868
 C463 C 0.75058 0.16624 0.33443
 C464 C 0.75064 0.18499 0.31573
 C465 C 0.75022 0.07949 0.42085
 C466 C 0.75015 0.06073 0.43954
 C467 C 0.25001 0.14294 0.64308
 N468 N 0.23191 0.11938 0.64535
 N469 N 0.23190 0.09868 0.62471
 C470 C 0.25000 0.10091 0.60117
 N471 N 0.26811 0.12447 0.59889
 N472 N 0.26811 0.14518 0.61954
 C473 C 0.25001 0.16523 0.66530
 C474 C 0.25002 0.18396 0.68397
 C475 C 0.24999 0.07863 0.57894
 C476 C 0.24999 0.05990 0.56027
   
