data_POSCAR
  _audit_creation_date              2014-09-24
  _audit_creation_method            'ToBaCCo'
  _symmetry_space_group_name_H-M    'P1'
  _symmetry_Int_Tables_number       1
  _symmetry_cell_setting            triclinic
  loop_
  _symmetry_equiv_pos_as_xyz
 x,y,z
_cell_length_a 55.5611
_cell_length_b 59.4467
_cell_length_c 8.8666
_cell_angle_alpha 89.704200
_cell_angle_beta 89.990900
_cell_angle_gamma 89.990100
loop_
  _atom_site_label
  _atom_site_type_symbol
  _atom_site_fract_x
  _atom_site_fract_y
  _atom_site_fract_z
C1 C 0.30017 0.26999 0.29201
 C2 C 0.31255 0.24961 0.30238
 C3 C 0.30044 0.22907 0.29246
 C4 C 0.27518 0.22873 0.27143
 C5 C 0.26242 0.24937 0.26065
 C6 C 0.27496 0.27010 0.27103
 C7 C 0.26199 0.29035 0.26005
 C8 C 0.23715 0.29027 0.23919
 C9 C 0.22436 0.26993 0.22860
 C10 C 0.23708 0.24928 0.23937
 C11 C 0.26235 0.20839 0.26086
 C12 C 0.23752 0.20831 0.24008
 C13 C 0.22451 0.22857 0.22901
 C14 C 0.19925 0.22873 0.20799
 C15 C 0.18695 0.24919 0.19750
 C16 C 0.19915 0.26966 0.20756
 H17 H 0.27095 0.30648 0.26744
 H18 H 0.22805 0.30633 0.23135
 H19 H 0.27144 0.19231 0.26869
 H20 H 0.22857 0.19217 0.23274
 H21 H 0.33194 0.24978 0.31823
 H22 H 0.16756 0.24923 0.18155
 C23 C 0.70036 0.22955 0.29022
 C24 C 0.68796 0.24992 0.30094
 C25 C 0.70007 0.27047 0.29124
 C26 C 0.72528 0.27087 0.27030
 C27 C 0.73808 0.25028 0.25924
 C28 C 0.72557 0.22952 0.26923
 C29 C 0.73859 0.20931 0.25784
 C30 C 0.76343 0.20948 0.23708
 C31 C 0.77619 0.22986 0.22705
 C32 C 0.76341 0.25047 0.23812
 C33 C 0.73801 0.29125 0.26022
 C34 C 0.76285 0.29144 0.23945
 C35 C 0.77593 0.27123 0.22815
 C36 C 0.80119 0.27116 0.20730
 C37 C 0.81355 0.25075 0.19662
 C38 C 0.80139 0.23023 0.20619
 H39 H 0.72965 0.19316 0.26487
 H40 H 0.77257 0.19345 0.22882
 H41 H 0.72885 0.30728 0.26845
 H42 H 0.77175 0.30761 0.23236
 H43 H 0.66859 0.24978 0.31689
 H44 H 0.83294 0.25078 0.18083
 C45 C 0.69977 0.72931 0.71035
 C46 C 0.68749 0.74976 0.69993
 C47 C 0.69971 0.77023 0.70990
 C48 C 0.72492 0.77046 0.73081
 C49 C 0.73761 0.74979 0.74155
 C50 C 0.72498 0.72911 0.73128
 C51 C 0.73789 0.70882 0.74222
 C52 C 0.76273 0.70883 0.76298
 C53 C 0.77564 0.72914 0.77342
 C54 C 0.76294 0.74981 0.76265
 C55 C 0.73777 0.79077 0.74122
 C56 C 0.76261 0.79079 0.76194
 C57 C 0.77554 0.77051 0.77292
 C58 C 0.80075 0.77034 0.79381
 C59 C 0.81307 0.74992 0.80417
 C60 C 0.80090 0.72941 0.79431
 H61 H 0.72886 0.69273 0.73481
 H62 H 0.77176 0.69272 0.77089
 H63 H 0.72870 0.80685 0.73339
 H64 H 0.77161 0.80690 0.76934
 H65 H 0.66812 0.74975 0.68393
 H66 H 0.83246 0.75005 0.81988
 C67 C 0.29967 0.77060 0.70978
 C68 C 0.31199 0.75020 0.69905
 C69 C 0.29980 0.72970 0.70861
 C70 C 0.27459 0.72938 0.72951
 C71 C 0.26186 0.75001 0.74067
 C72 C 0.27446 0.77072 0.73071
 C73 C 0.26153 0.79097 0.74204
 C74 C 0.23670 0.79089 0.76284
 C75 C 0.22381 0.77055 0.77322
 C76 C 0.23652 0.74991 0.76203
 C77 C 0.26179 0.70904 0.73968
 C78 C 0.23696 0.70892 0.76053
 C79 C 0.22395 0.72917 0.77204
 C80 C 0.19869 0.72929 0.79314
 C81 C 0.18638 0.74972 0.80395
 C82 C 0.19857 0.77024 0.79431
 H83 H 0.27053 0.80710 0.73499
 H84 H 0.22765 0.80698 0.77082
 H85 H 0.27090 0.69298 0.73165
 H86 H 0.22801 0.69277 0.76762
 H87 H 0.33137 0.75027 0.68321
 H88 H 0.16697 0.74964 0.81973
 O89 O 1.02382 -0.02530 0.09558
 O90 O 0.97722 0.01801 0.14952
 O91 O 0.97706 -0.02507 0.09357
 O92 O 1.02400 0.01776 0.15174
 O93 O 1.02431 0.02484 -0.09335
 O94 O 0.97736 -0.01799 -0.15154
 O95 O 0.97756 0.02509 -0.09555
 O96 O 1.02414 -0.01821 -0.14948
 Cu97 Cu 1.00049 -0.00439 0.14704
 Cu98 Cu 1.00087 0.00417 -0.14692
 C99 C 1.03174 -0.02917 -0.03591
 C100 C 0.96964 0.02897 0.03594
 C101 C 0.96940 -0.02887 -0.03861
 C102 C 1.03197 0.02864 0.03883
 O103 O 0.47622 0.51795 0.65014
 O104 O 0.52294 0.47478 0.59565
 O105 O 0.52301 0.51786 0.65130
 O106 O 0.47618 0.47487 0.59444
 O107 O 0.47634 0.48191 0.34930
 O108 O 0.52316 0.52488 0.40615
 O109 O 0.52313 0.48182 0.35050
 O110 O 0.47641 0.52499 0.40499
 Cu111 Cu 0.49957 0.49563 0.64733
 Cu112 Cu 0.49977 0.50414 0.35331
 C113 C 0.46854 0.52886 0.53660
 C114 C 0.53082 0.47092 0.46404
 C115 C 0.53089 0.52873 0.53811
 C116 C 0.46846 0.47103 0.46245
 O117 O -0.02327 0.52533 0.09451
 O118 O 0.02339 0.48204 0.14952
 O119 O 0.02349 0.52514 0.09214
 O120 O -0.02340 0.48219 0.15169
 O121 O -0.02370 0.47537 -0.09327
 O122 O 0.02319 0.51830 -0.15276
 O123 O 0.02305 0.47518 -0.09532
 O124 O -0.02360 0.51848 -0.15038
 Cu125 Cu 0.00009 0.50440 0.14635
 Cu126 Cu -0.00029 0.49612 -0.14730
 C127 C -0.03120 0.52932 -0.03706
 C128 C 0.03099 0.47120 0.03622
 C129 C 0.03115 0.52907 -0.04015
 C130 C -0.03135 0.47142 0.03901
 O131 O 0.47660 1.02534 0.59368
 O132 O 0.52328 0.98209 0.64979
 O133 O 0.52338 1.02517 0.59206
 O134 O 0.47649 0.98223 0.65134
 O135 O 0.47627 0.97533 0.40650
 O136 O 0.52317 1.01826 0.34723
 O137 O 0.52303 0.97517 0.40499
 O138 O 0.47638 1.01844 0.34886
 Cu139 Cu 0.49996 1.00443 0.64611
 Cu140 Cu 0.49969 0.99608 0.35250
 C141 C 0.46872 1.02929 0.46195
 C142 C 0.53093 0.97123 0.53669
 C143 C 0.53109 1.02906 0.45984
 C144 C 0.46857 0.97142 0.53872
 C145 C 1.18608 0.20936 0.19807
 C146 C 1.17405 0.19254 0.18943
 C147 C 1.15916 0.17281 0.17933
 C148 C 1.16413 0.15624 0.07215
 C149 C 1.14902 0.13753 0.05881
 C150 C 1.12870 0.13521 0.15242
 C151 C 1.12407 0.15183 0.26110
 C152 C 1.13920 0.17048 0.27433
 C153 C 1.11207 0.11586 0.13475
 C154 C 1.08702 0.11912 0.14257
 C155 C 1.07126 0.10103 0.12477
 C156 C 1.08028 0.07941 0.09905
 C157 C 1.10517 0.07594 0.09128
 C158 C 1.12099 0.09405 0.10887
 C159 C 1.06383 0.06098 0.07877
 C160 C 1.04955 0.04596 0.06107
 H161 H 1.17950 0.15793 -0.00227
 H162 H 1.15291 0.12515 -0.02697
 H163 H 1.10878 0.15035 0.33623
 H164 H 1.13522 0.18319 0.35792
 H165 H 1.07959 0.13575 0.15998
 H166 H 1.05203 0.10393 0.13014
 H167 H 1.11233 0.05926 0.07149
 H168 H 1.14018 0.09098 0.10383
 C169 C 0.68579 0.70890 0.69949
 C170 C 0.67359 0.69219 0.69044
 C171 C 0.65843 0.67265 0.67976
 C172 C 0.63636 0.67220 0.75568
 C173 C 0.62109 0.65367 0.74154
 C174 C 0.62767 0.63530 0.65097
 C175 C 0.65006 0.63577 0.57663
 C176 C 0.66532 0.65436 0.59088
 C177 C 0.61101 0.61599 0.63208
 C178 C 0.61973 0.59376 0.63068
 C179 C 0.60388 0.57567 0.61281
 C180 C 0.57918 0.57958 0.59592
 C181 C 0.57038 0.60163 0.59675
 C182 C 0.58615 0.61971 0.61475
 C183 C 0.56273 0.56112 0.57671
 C184 C 0.54845 0.54609 0.55976
 H185 H 0.63089 0.68625 0.82513
 H186 H 0.60415 0.65368 0.80193
 H187 H 0.65552 0.62200 0.50484
 H188 H 0.68235 0.65457 0.53137
 H189 H 0.63873 0.59036 0.64532
 H190 H 0.61088 0.55865 0.61234
 H191 H 0.55131 0.60486 0.58288
 H192 H 0.57893 0.63662 0.61299
 C193 C -0.18567 0.29057 0.19782
 C194 C -0.17364 0.30741 0.18960
 C195 C -0.15872 0.32715 0.17994
 C196 C -0.13852 0.32907 0.27312
 C197 C -0.12335 0.34772 0.26002
 C198 C -0.12818 0.36473 0.15328
 C199 C -0.14874 0.36281 0.06154
 C200 C -0.16390 0.34411 0.07478
 C201 C -0.11150 0.38408 0.13552
 C202 C -0.12039 0.40600 0.11218
 C203 C -0.10454 0.42411 0.09445
 C204 C -0.07965 0.42053 0.09955
 C205 C -0.07066 0.39880 0.12268
 C206 C -0.08645 0.38070 0.14062
 C207 C -0.06318 0.43899 0.07936
 C208 C -0.04891 0.45404 0.06161
 H209 H -0.13438 0.31606 0.35509
 H210 H -0.10786 0.34887 0.33360
 H211 H -0.15278 0.37549 -0.02286
 H212 H -0.17945 0.34273 0.00170
 H213 H -0.13958 0.40916 0.10930
 H214 H -0.11169 0.44088 0.07673
 H215 H -0.05143 0.39582 0.12603
 H216 H -0.07905 0.36400 0.15606
 C217 C 0.31362 0.79106 0.69952
 C218 C 0.32575 0.80783 0.69098
 C219 C 0.34081 0.82747 0.68090
 C220 C 0.33508 0.84494 0.58081
 C221 C 0.35031 0.86359 0.56725
 C222 C 0.37153 0.86492 0.65344
 C223 C 0.37694 0.84738 0.75513
 C224 C 0.36169 0.82880 0.76856
 C225 C 0.38826 0.88422 0.63517
 C226 C 0.41329 0.88065 0.63290
 C227 C 0.42911 0.89872 0.61502
 C228 C 0.42019 0.92061 0.59911
 C229 C 0.39533 0.92438 0.60119
 C230 C 0.37943 0.90630 0.61894
 C231 C 0.43669 0.93904 0.57903
 C232 C 0.45100 0.95407 0.56129
 H233 H 0.31900 0.84403 0.51195
 H234 H 0.34580 0.87669 0.48683
 H235 H 0.39295 0.84807 0.82459
 H236 H 0.36628 0.81537 0.84649
 H237 H 0.42063 0.86383 0.64264
 H238 H 0.44833 0.89559 0.61286
 H239 H 0.38823 0.94127 0.58916
 H240 H 0.36027 0.90960 0.62171
 C241 C -0.18580 0.71010 -0.19538
 C242 C -0.17363 0.69336 -0.18645
 C243 C -0.15854 0.67374 -0.17609
 C244 C -0.16459 0.65604 -0.07853
 C245 C -0.14936 0.63739 -0.06473
 C246 C -0.12785 0.63627 -0.14824
 C247 C -0.12213 0.65402 -0.24749
 C248 C -0.13737 0.67262 -0.26115
 C249 C -0.11118 0.61692 -0.12989
 C250 C -0.08615 0.62046 -0.12440
 C251 C -0.07039 0.60234 -0.10666
 C252 C -0.07936 0.58042 -0.09426
 C253 C -0.10422 0.57668 -0.09939
 C254 C -0.12005 0.59481 -0.11699
 C255 C -0.06292 0.56191 -0.07500
 C256 C -0.04869 0.54680 -0.05822
 H257 H -0.18091 0.65677 -0.01191
 H258 H -0.15414 0.62411 0.01372
 H259 H -0.10590 0.65349 -0.31497
 H260 H -0.13255 0.68620 -0.33732
 H261 H -0.07878 0.63729 -0.13160
 H262 H -0.05118 0.60544 -0.10200
 H263 H -0.11135 0.55977 -0.08995
 H264 H -0.13920 0.59153 -0.12234
 C265 C 0.31379 1.20979 0.30285
 C266 C 0.32600 1.19307 0.31183
 C267 C 0.34111 1.17347 0.32223
 C268 C 0.33526 1.15590 0.42132
 C269 C 0.35051 1.13728 0.43508
 C270 C 0.37186 1.13604 0.35001
 C271 C 0.37739 1.15367 0.24928
 C272 C 0.36212 1.17224 0.23566
 C273 C 0.38857 1.11672 0.36823
 C274 C 0.41360 1.12028 0.37170
 C275 C 0.42941 1.10219 0.38937
 C276 C 0.42047 1.08029 0.40380
 C277 C 0.39560 1.07653 0.40058
 C278 C 0.37973 1.09463 0.38305
 C279 C 0.43694 1.06181 0.42334
 C280 C 0.45121 1.04674 0.44042
 H281 H 0.31907 1.15673 0.48916
 H282 H 0.34590 1.12410 0.51473
 H283 H 0.39349 1.15305 0.18065
 H284 H 0.36679 1.18573 0.15835
 H285 H 0.42096 1.13711 0.36300
 H286 H 0.44862 1.10530 0.39242
 H287 H 0.38849 1.05963 0.41148
 H288 H 0.36057 1.09134 0.37927
 C289 C 1.18528 -0.21047 -0.19504
 C290 C 1.17316 -0.19371 -0.18578
 C291 C 1.15817 -0.17405 -0.17490
 C292 C 1.16445 -0.15646 -0.07825
 C293 C 1.14936 -0.13775 -0.06419
 C294 C 1.12774 -0.13645 -0.14649
 C295 C 1.12176 -0.15411 -0.24468
 C296 C 1.13687 -0.17277 -0.25861
 C297 C 1.11122 -0.11702 -0.12804
 C298 C 1.08618 -0.12043 -0.12103
 C299 C 1.07055 -0.10223 -0.10340
 C300 C 1.07967 -0.08037 -0.09251
 C301 C 1.10454 -0.07676 -0.09916
 C302 C 1.12025 -0.09497 -0.11667
 C303 C 1.06336 -0.06180 -0.07332
 C304 C 1.04919 -0.04666 -0.05669
 H305 H 1.18087 -0.15733 -0.01254
 H306 H 1.15432 -0.12454 0.01347
 H307 H 1.10543 -0.15345 -0.31119
 H308 H 1.13185 -0.18627 -0.33394
 H309 H 1.07870 -0.13722 -0.12695
 H310 H 1.05133 -0.10523 -0.09766
 H311 H 1.11179 -0.05989 -0.09098
 H312 H 1.13941 -0.09179 -0.12314
 C313 C 0.68591 0.29078 0.30284
 C314 C 0.67360 0.30740 0.31249
 C315 C 0.65832 0.32686 0.32386
 C316 C 0.63579 0.32688 0.25344
 C317 C 0.62048 0.34538 0.26793
 C318 C 0.62749 0.36415 0.35334
 C319 C 0.65032 0.36412 0.42211
 C320 C 0.66562 0.34556 0.40755
 C321 C 0.61084 0.38348 0.37239
 C322 C 0.61944 0.40574 0.36718
 C323 C 0.60361 0.42386 0.38482
 C324 C 0.57904 0.41993 0.40805
 C325 C 0.57036 0.39786 0.41400
 C326 C 0.58612 0.37975 0.39625
 C327 C 0.56260 0.43842 0.42667
 C328 C 0.54834 0.45349 0.44313
 H329 H 0.63001 0.31253 0.18780
 H330 H 0.60320 0.34505 0.21160
 H331 H 0.65614 0.37823 0.48968
 H332 H 0.68303 0.34570 0.46261
 H333 H 0.63832 0.40915 0.34745
 H334 H 0.61051 0.44089 0.38014
 H335 H 0.55140 0.39463 0.43292
 H336 H 0.57900 0.36282 0.40317
 C337 C 0.81468 -0.20920 -0.19577
 C338 C 0.82677 -0.19242 -0.18734
 C339 C 0.84175 -0.17274 -0.17758
 C340 C 0.83690 -0.15616 -0.07030
 C341 C 0.85209 -0.13750 -0.05725
 C342 C 0.87236 -0.13525 -0.15132
 C343 C 0.87687 -0.15187 -0.26011
 C344 C 0.86166 -0.17048 -0.27303
 C345 C 0.88908 -0.11595 -0.13391
 C346 C 0.91412 -0.11929 -0.14228
 C347 C 0.92994 -0.10124 -0.12461
 C348 C 0.92101 -0.07960 -0.09850
 C349 C 0.89614 -0.07606 -0.09010
 C350 C 0.88025 -0.09412 -0.10755
 C351 C 0.93752 -0.06120 -0.07844
 C352 C 0.95182 -0.04620 -0.06083
 H353 H 0.82158 -0.15780 0.00451
 H354 H 0.84830 -0.12512 0.02870
 H355 H 0.89213 -0.15046 -0.33550
 H356 H 0.86555 -0.18320 -0.35666
 H357 H 0.92148 -0.13593 -0.16004
 H358 H 0.94916 -0.10419 -0.13044
 H359 H 0.88904 -0.05937 -0.06997
 H360 H 0.86107 -0.09100 -0.10201
 C361 C 0.31406 0.29047 0.30268
 C362 C 0.32615 0.30725 0.31146
 C363 C 0.34117 0.32689 0.32172
 C364 C 0.36218 0.32831 0.23529
 C365 C 0.37738 0.34691 0.24890
 C366 C 0.37177 0.36437 0.34951
 C367 C 0.35042 0.36296 0.43445
 C368 C 0.33524 0.34430 0.42071
 C369 C 0.38843 0.38370 0.36786
 C370 C 0.37953 0.40575 0.38259
 C371 C 0.39537 0.42385 0.40025
 C372 C 0.42024 0.42013 0.40372
 C373 C 0.42923 0.39826 0.38942
 C374 C 0.41347 0.38017 0.37162
 C375 C 0.43667 0.43859 0.42341
 C376 C 0.45093 0.45364 0.44067
 H377 H 0.36692 0.31494 0.15813
 H378 H 0.39349 0.34766 0.18038
 H379 H 0.34576 0.37601 0.51401
 H380 H 0.31905 0.34333 0.48854
 H381 H 0.36037 0.40902 0.37862
 H382 H 0.38822 0.44073 0.41109
 H383 H 0.44844 0.39517 0.39270
 H384 H 0.42086 0.36337 0.36304
 C385 C 0.18553 0.70990 -0.19725
 C386 C 0.17348 0.69306 -0.18890
 C387 C 0.15856 0.67333 -0.17915
 C388 C 0.13876 0.67111 -0.27531
 C389 C 0.12361 0.65244 -0.26261
 C390 C 0.12806 0.63571 -0.15324
 C391 C 0.14822 0.63793 -0.05840
 C392 C 0.16335 0.65666 -0.07124
 C393 C 0.11138 0.61634 -0.13612
 C394 C 0.12025 0.59452 -0.10857
 C395 C 0.10439 0.57640 -0.09130
 C396 C 0.07952 0.57988 -0.10108
 C397 C 0.07056 0.60151 -0.12851
 C398 C 0.08635 0.61962 -0.14594
 C399 C 0.06303 0.56145 -0.08073
 C400 C 0.04873 0.54642 -0.06280
 H401 H 0.13492 0.68390 -0.35942
 H402 H 0.10845 0.65105 -0.33868
 H403 H 0.15196 0.62547 0.02793
 H404 H 0.17859 0.65827 0.00412
 H405 H 0.13943 0.59144 -0.10184
 H406 H 0.11152 0.55972 -0.07007
 H407 H 0.05134 0.60442 -0.13535
 H408 H 0.07895 0.63625 -0.16454
 C409 C 0.68648 1.20905 0.30042
 C410 C 0.67440 1.19224 0.30875
 C411 C 0.65940 1.17257 0.31845
 C412 C 0.66416 1.15584 0.42603
 C413 C 0.64890 1.13722 0.43923
 C414 C 0.62864 1.13515 0.34506
 C415 C 0.62423 1.15192 0.23598
 C416 C 0.63951 1.17049 0.22289
 C417 C 0.61182 1.11590 0.36271
 C418 C 0.58681 1.11937 0.35433
 C419 C 0.57089 1.10138 0.37233
 C420 C 0.57970 1.07967 0.39875
 C421 C 0.60455 1.07600 0.40708
 C422 C 0.62054 1.09401 0.38932
 C423 C 0.56309 1.06133 0.41925
 C424 C 0.54872 1.04637 0.43722
 H425 H 0.67947 1.15734 0.50098
 H426 H 0.65261 1.12472 0.52543
 H427 H 0.60897 1.15065 0.16058
 H428 H 0.63568 1.18333 0.13908
 H429 H 0.57953 1.13607 0.33636
 H430 H 0.55168 1.10443 0.36658
 H431 H 0.61156 1.05925 0.42747
 H432 H 0.63970 1.09078 0.39483
 C433 C 0.18509 0.29005 0.19631
 C434 C 0.17287 0.30675 0.18692
 C435 C 0.15771 0.32631 0.17576
 C436 C 0.13528 0.32641 0.24740
 C437 C 0.12007 0.34502 0.23309
 C438 C 0.12709 0.36382 0.14663
 C439 C 0.14982 0.36369 0.07647
 C440 C 0.16501 0.34502 0.09088
 C441 C 0.11056 0.38327 0.12793
 C442 C 0.11933 0.40547 0.13178
 C443 C 0.10360 0.42370 0.11432
 C444 C 0.07898 0.41995 0.09263
 C445 C 0.07013 0.39793 0.08831
 C446 C 0.08578 0.37972 0.10584
 C447 C 0.06265 0.43855 0.07385
 C448 C 0.04846 0.45370 0.05731
 H449 H 0.12948 0.31205 0.31380
 H450 H 0.10286 0.34475 0.29036
 H451 H 0.15563 0.37780 0.00794
 H452 H 0.18233 0.34509 0.03474
 H453 H 0.13827 0.40874 0.15025
 H454 H 0.11064 0.44069 0.11798
 H455 H 0.05111 0.39484 0.07084
 H456 H 0.07852 0.36284 0.10007
 C457 C 0.68567 0.79062 0.69869
 C458 C 0.67345 0.80733 0.68945
 C459 C 0.65828 0.82689 0.67856
 C460 C 0.63625 0.82728 0.75486
 C461 C 0.62098 0.84584 0.74062
 C462 C 0.62754 0.86430 0.64953
 C463 C 0.64988 0.86389 0.57479
 C464 C 0.66514 0.84527 0.58919
 C465 C 0.61089 0.88365 0.63060
 C466 C 0.61964 0.90587 0.62856
 C467 C 0.60382 0.92401 0.61072
 C468 C 0.57910 0.92016 0.59452
 C469 C 0.57026 0.89813 0.59604
 C470 C 0.58601 0.88000 0.61397
 C471 C 0.56268 0.93868 0.57521
 C472 C 0.54844 0.95378 0.55824
 H473 H 0.63079 0.81316 0.82471
 H474 H 0.60407 0.84579 0.80141
 H475 H 0.65532 0.87773 0.50264
 H476 H 0.68215 0.84512 0.52944
 H477 H 0.63866 0.90923 0.64268
 H478 H 0.61085 0.94101 0.60974
 H479 H 0.55117 0.89496 0.58276
 H480 H 0.57875 0.86310 0.61273
 C481 C 0.81551 0.20989 0.19475
 C482 C 0.82775 0.19321 0.18532
 C483 C 0.84289 0.17365 0.17431
 C484 C 0.83609 0.15551 0.08380
 C485 C 0.85129 0.13687 0.06961
 C486 C 0.87351 0.13619 0.14566
 C487 C 0.88001 0.15440 0.23787
 C488 C 0.86480 0.17299 0.25194
 C489 C 0.89008 0.11679 0.12714
 C490 C 0.91501 0.12035 0.11226
 C491 C 0.93068 0.10217 0.09466
 C492 C 0.92171 0.08019 0.09182
 C493 C 0.89694 0.07644 0.10628
 C494 C 0.88120 0.09463 0.12375
 C495 C 0.93804 0.06163 0.07311
 C496 C 0.95221 0.04648 0.05672
 H497 H 0.81918 0.15588 0.02307
 H498 H 0.84589 0.12322 -0.00334
 H499 H 0.89681 0.15423 0.29973
 H500 H 0.87019 0.18691 0.32279
 H501 H 0.92237 0.13721 0.11214
 H502 H 0.94981 0.10528 0.08273
 H503 H 0.88980 0.05948 0.10429
 H504 H 0.86214 0.09134 0.13657
 C505 C 0.31389 0.70934 0.69729
 C506 C 0.32612 0.69266 0.68795
 C507 C 0.34128 0.67311 0.67697
 C508 C 0.33464 0.65508 0.58505
 C509 C 0.34988 0.63647 0.57065
 C510 C 0.37200 0.63573 0.64789
 C511 C 0.37835 0.65384 0.74140
 C512 C 0.36309 0.67239 0.75563
 C513 C 0.38864 0.61639 0.62905
 C514 C 0.41358 0.62002 0.61557
 C515 C 0.42932 0.60190 0.59777
 C516 C 0.42040 0.57991 0.59311
 C517 C 0.39563 0.57608 0.60626
 C518 C 0.37982 0.59421 0.62396
 C519 C 0.43681 0.56141 0.57410
 C520 C 0.45104 0.54631 0.55752
 H521 H 0.31783 0.65551 0.52323
 H522 H 0.34463 0.62292 0.49647
 H523 H 0.39508 0.65363 0.80396
 H524 H 0.36839 0.68625 0.82723
 H525 H 0.42089 0.63690 0.61678
 H526 H 0.44845 0.60506 0.58723
 H527 H 0.38855 0.55911 0.60321
 H528 H 0.36075 0.59087 0.63569
   
