data_POSCAR
  _audit_creation_date              2014-09-24
  _audit_creation_method            'ToBaCCo'
  _symmetry_space_group_name_H-M    'P1'
  _symmetry_Int_Tables_number       1
  _symmetry_cell_setting            triclinic
  loop_
  _symmetry_equiv_pos_as_xyz
 x,y,z
_cell_length_a 28.6862
_cell_length_b 28.6594
_cell_length_c 26.9681
_cell_angle_alpha 90.049000
_cell_angle_beta 90.097900
_cell_angle_gamma 89.943300
loop_
  _atom_site_label
  _atom_site_type_symbol
  _atom_site_fract_x
  _atom_site_fract_y
  _atom_site_fract_z
C1 C 0.14232 0.27042 -0.02558
 C2 C 0.14235 0.27044 0.02528
 C3 C 0.09778 0.28314 0.03997
 N4 N 0.07078 0.29138 -0.00020
 C5 C 0.09773 0.28310 -0.04033
 C6 C 0.08339 0.28876 0.08967
 C7 C 0.03682 0.29706 0.10416
 C8 C 0.02306 0.31013 0.15146
 C9 C -0.02492 0.31024 0.15162
 C10 C -0.03920 0.29719 0.10437
 N11 N -0.00130 0.28922 0.07581
 C12 C -0.08596 0.28901 0.09006
 C13 C -0.10048 0.28344 0.04022
 C14 C -0.14504 0.27064 0.02539
 C15 C -0.14507 0.27062 -0.02545
 C16 C -0.10053 0.28341 -0.04021
 N17 N -0.07358 0.29173 0.00003
 C18 C -0.08611 0.28897 -0.09002
 C19 C -0.03942 0.29716 -0.10442
 C20 C -0.02538 0.31016 -0.15170
 C21 C 0.02260 0.30997 -0.15168
 C22 C 0.03660 0.29691 -0.10444
 N23 N -0.00140 0.28915 -0.07598
 C24 C 0.08324 0.28864 -0.09004
 H25 H 0.17180 0.26207 -0.04898
 H26 H 0.17187 0.26212 0.04873
 H27 H -0.00142 0.27319 -0.04149
 H28 H 0.04528 0.31786 0.18289
 H29 H -0.04681 0.31806 0.18321
 H30 H -0.17450 0.26223 0.04876
 H31 H -0.17457 0.26219 -0.04888
 H32 H 0.04466 0.31764 -0.18316
 H33 H -0.00142 0.27323 0.04131
 H34 H -0.04744 0.31797 -0.18322
 C35 C 0.64407 0.77365 0.52531
 C36 C 0.64386 0.77380 0.47444
 C37 C 0.59905 0.78590 0.45987
 N38 N 0.57215 0.79368 0.50015
 C39 C 0.59939 0.78567 0.54022
 C40 C 0.58429 0.79118 0.41017
 C41 C 0.53751 0.79870 0.39574
 C42 C 0.52325 0.81108 0.34835
 C43 C 0.47526 0.81061 0.34838
 C44 C 0.46151 0.79797 0.39580
 N45 N 0.49967 0.79071 0.42430
 C46 C 0.41496 0.78974 0.41038
 C47 C 0.40069 0.78460 0.46019
 C48 C 0.35614 0.77220 0.47509
 C49 C 0.35635 0.77245 0.52596
 C50 C 0.40103 0.78497 0.54052
 N51 N 0.42784 0.79291 0.50025
 C52 C 0.41571 0.79052 0.59021
 C53 C 0.46239 0.79851 0.60465
 C54 C 0.47650 0.81112 0.65204
 C55 C 0.52449 0.81112 0.65201
 C56 C 0.53840 0.79855 0.60460
 N57 N 0.50034 0.79085 0.57610
 C58 C 0.58504 0.79073 0.59003
 H59 H 0.67377 0.76562 0.54862
 H60 H 0.67337 0.76590 0.45091
 H61 H 0.50026 0.77520 0.54144
 H62 H 0.54516 0.81874 0.31675
 H63 H 0.45304 0.81787 0.31684
 H64 H 0.32652 0.76388 0.45179
 H65 H 0.32692 0.76434 0.54949
 H66 H 0.54662 0.81866 0.68356
 H67 H 0.49993 0.77512 0.45896
 H68 H 0.45450 0.81862 0.68364
 C69 C 0.85634 0.72931 0.02582
 C70 C 0.85608 0.72953 -0.02503
 C71 C 0.90060 0.71684 -0.04006
 N72 N 0.92775 0.70841 -0.00001
 C73 C 0.90098 0.71652 0.04030
 C74 C 0.91489 0.71147 -0.08993
 C75 C 0.96158 0.70320 -0.10432
 C76 C 0.97566 0.69019 -0.15159
 C77 C 1.02364 0.69007 -0.15145
 C78 C 1.03761 0.70300 -0.10412
 N79 N 0.99961 0.71096 -0.07575
 C80 C 1.08424 0.71115 -0.08966
 C81 C 1.09886 0.71677 -0.03997
 C82 C 1.14348 0.72953 -0.02542
 C83 C 1.14374 0.72962 0.02543
 C84 C 1.09925 0.71687 0.04039
 N85 N 1.07212 0.70854 0.00030
 C86 C 1.08497 0.71134 0.09024
 C87 C 1.03831 0.70297 0.10458
 C88 C 1.02427 0.68981 0.15180
 C89 C 0.97629 0.68963 0.15165
 C90 C 0.96228 0.70265 0.10439
 N91 N 1.00026 0.71074 0.07605
 C92 C 0.91562 0.71078 0.08996
 H93 H 0.82697 0.73758 0.04939
 H94 H 0.82646 0.73800 -0.04828
 H95 H 1.00013 0.72674 0.04159
 H96 H 0.95363 0.68252 -0.18319
 H97 H 1.04572 0.68232 -0.18291
 H98 H 1.17283 0.73788 -0.04896
 H99 H 1.17334 0.73803 0.04872
 H100 H 0.95423 0.68176 0.18307
 H101 H 0.99968 0.72687 -0.04121
 H102 H 1.04633 0.68210 0.18336
 C103 C 0.35664 0.22756 0.52458
 C104 C 0.35681 0.22734 0.47371
 C105 C 0.40153 0.21493 0.45925
 N106 N 0.42842 0.20703 0.49959
 C107 C 0.40126 0.21525 0.53959
 C108 C 0.41619 0.20946 0.40959
 C109 C 0.46290 0.20162 0.39526
 C110 C 0.47703 0.18911 0.34789
 C111 C 0.52502 0.18925 0.34805
 C112 C 0.53890 0.20181 0.39552
 N113 N 0.50083 0.20936 0.42393
 C114 C 0.58552 0.20975 0.41023
 C115 C 0.59988 0.21477 0.46009
 C116 C 0.64452 0.22690 0.47512
 C117 C 0.64436 0.22666 0.52599
 C118 C 0.59961 0.21441 0.54042
 N119 N 0.57271 0.20662 0.50006
 C120 C 0.58493 0.20901 0.59006
 C121 C 0.53820 0.20137 0.60437
 C122 C 0.52404 0.18892 0.65171
 C123 C 0.47605 0.18930 0.65156
 C124 C 0.46220 0.20195 0.60412
 N125 N 0.50030 0.20932 0.57573
 C126 C 0.41561 0.21011 0.58943
 H127 H 0.32702 0.23579 0.54781
 H128 H 0.32733 0.23540 0.45010
 H129 H 0.50047 0.22495 0.54109
 H130 H 0.45504 0.18158 0.31623
 H131 H 0.54716 0.18182 0.31655
 H132 H 0.67416 0.23504 0.45191
 H133 H 0.67385 0.23460 0.54962
 H134 H 0.45389 0.18196 0.68304
 H135 H 0.50071 0.22497 0.45860
 H136 H 0.54601 0.18126 0.68336
 C137 C 0.73029 -0.14430 -0.02576
 C138 C 0.73022 -0.14439 0.02509
 C139 C 0.71728 -0.09984 0.03993
 N140 N 0.70898 -0.07282 -0.00024
 C141 C 0.71739 -0.09969 -0.04049
 C142 C 0.71155 -0.08542 0.08976
 C143 C 0.70315 -0.03865 0.10401
 C144 C 0.68984 -0.02442 0.15114
 C145 C 0.68976 0.02360 0.15097
 C146 C 0.70299 0.03744 0.10377
 N147 N 0.71109 -0.00068 0.07549
 C148 C 0.71132 0.08406 0.08938
 C149 C 0.71725 0.09856 0.03976
 C150 C 0.73020 0.14315 0.02533
 C151 C 0.73049 0.14331 -0.02551
 C152 C 0.71768 0.09879 -0.04059
 N153 N 0.70912 0.07173 -0.00058
 C154 C 0.71219 0.08445 -0.09046
 C155 C 0.70377 0.03771 -0.10482
 C156 C 0.69044 0.02363 -0.15203
 C157 C 0.69022 -0.02438 -0.15194
 C158 C 0.70344 -0.03843 -0.10469
 N159 N 0.71161 -0.00036 -0.07633
 C160 C 0.71172 -0.08518 -0.09029
 H161 H 0.73878 -0.17378 -0.04920
 H162 H 0.73865 -0.17392 0.04845
 H163 H 0.72771 -0.00044 -0.04187
 H164 H 0.68198 -0.04637 0.18268
 H165 H 0.68184 0.04580 0.18234
 H166 H 0.73851 0.17256 0.04895
 H167 H 0.73904 0.17288 -0.04873
 H168 H 0.68224 -0.04647 -0.18341
 H169 H 0.72720 -0.00071 0.04110
 H170 H 0.68263 0.04568 -0.18354
 C171 C 0.22706 0.35591 0.47456
 C172 C 0.22685 0.35611 0.52543
 C173 C 0.21441 0.40088 0.53993
 N174 N 0.20647 0.42775 0.49963
 C175 C 0.21472 0.40054 0.45961
 C176 C 0.20897 0.41560 0.58960
 C177 C 0.20115 0.46234 0.60404
 C178 C 0.18871 0.47648 0.65144
 C179 C 0.18895 0.52452 0.65144
 C180 C 0.20149 0.53841 0.60404
 N181 N 0.20894 0.50030 0.57552
 C182 C 0.20951 0.58505 0.58949
 C183 C 0.21451 0.59939 0.53968
 C184 C 0.22672 0.64403 0.52475
 C185 C 0.22644 0.64382 0.47388
 C186 C 0.21409 0.59905 0.45935
 N187 N 0.20628 0.57218 0.49964
 C188 C 0.20864 0.58432 0.40967
 C189 C 0.20091 0.53757 0.39521
 C190 C 0.18845 0.52342 0.34779
 C191 C 0.18881 0.47538 0.34779
 C192 C 0.20145 0.46150 0.39522
 N193 N 0.20883 0.49962 0.42375
 C194 C 0.20960 0.41487 0.40980
 H195 H 0.23533 0.32625 0.45130
 H196 H 0.23495 0.32664 0.54899
 H197 H 0.22448 0.49979 0.45842
 H198 H 0.18118 0.45447 0.68302
 H199 H 0.18160 0.54669 0.68299
 H200 H 0.23494 0.67369 0.54803
 H201 H 0.23444 0.67330 0.45033
 H202 H 0.18147 0.45321 0.31622
 H203 H 0.22454 0.50014 0.54089
 H204 H 0.18082 0.54542 0.31619
 C205 C 0.27126 0.85622 0.02535
 C206 C 0.27114 0.85596 -0.02550
 C207 C 0.28394 0.90047 -0.04049
 N208 N 0.29235 0.92761 -0.00043
 C209 C 0.28410 0.90085 0.03986
 C210 C 0.28943 0.91477 -0.09034
 C211 C 0.29784 0.96148 -0.10465
 C212 C 0.31100 0.97557 -0.15185
 C213 C 0.31121 1.02359 -0.15167
 C214 C 0.29821 1.03757 -0.10441
 N215 N 0.29012 0.99953 -0.07610
 C216 C 0.29004 1.08424 -0.08999
 C217 C 0.28432 1.09890 -0.04035
 C218 C 0.27152 1.14357 -0.02591
 C219 C 0.27130 1.14384 0.02494
 C220 C 0.28401 1.09928 0.04001
 N221 N 0.29245 1.07212 -0.00001
 C222 C 0.28938 1.08496 0.08989
 C223 C 0.29770 1.03822 0.10425
 C224 C 0.31075 1.02408 0.15151
 C225 C 0.31091 0.97606 0.15134
 C226 C 0.29796 0.96213 0.10400
 N227 N 0.28997 1.00019 0.07565
 C228 C 0.28976 0.91548 0.08953
 H229 H 0.26287 0.82685 0.04890
 H230 H 0.26265 0.82636 -0.04877
 H231 H 0.27401 1.00013 0.04112
 H232 H 0.31868 0.95353 -0.18341
 H233 H 0.31907 1.04571 -0.18308
 H234 H 0.26323 1.17297 -0.04952
 H235 H 0.26283 1.17347 0.04816
 H236 H 0.31868 0.95392 0.18279
 H237 H 0.27410 0.99965 -0.04167
 H238 H 0.31841 1.04610 0.18312
 C239 C 0.77244 0.35613 0.52553
 C240 C 0.77270 0.35632 0.47465
 C241 C 0.78490 0.40112 0.46022
 N242 N 0.79264 0.42803 0.50058
 C243 C 0.78452 0.40081 0.54057
 C244 C 0.79035 0.41583 0.41056
 C245 C 0.79802 0.46259 0.39619
 C246 C 0.81050 0.47672 0.34884
 C247 C 0.81017 0.52476 0.34890
 C248 C 0.79752 0.53867 0.39629
 N249 N 0.79011 0.50056 0.42475
 C250 C 0.78946 0.58534 0.41090
 C251 C 0.78436 0.59969 0.46073
 C252 C 0.77216 0.64437 0.47570
 C253 C 0.77237 0.64419 0.52657
 C254 C 0.78466 0.59939 0.54107
 N255 N 0.79250 0.57248 0.50075
 C256 C 0.79010 0.58470 0.59075
 C257 C 0.79781 0.53793 0.60518
 C258 C 0.81026 0.52381 0.65259
 C259 C 0.81002 0.47577 0.65253
 C260 C 0.79746 0.46185 0.60508
 N261 N 0.79000 0.49996 0.57658
 C262 C 0.78953 0.41517 0.59043
 H263 H 0.76433 0.32645 0.54875
 H264 H 0.76480 0.32680 0.45104
 H265 H 0.77444 0.50010 0.54187
 H266 H 0.81814 0.45470 0.31724
 H267 H 0.81754 0.54691 0.31739
 H268 H 0.76400 0.67405 0.45243
 H269 H 0.76438 0.67371 0.55014
 H270 H 0.81741 0.45362 0.68408
 H271 H 0.77449 0.50041 0.45937
 H272 H 0.81783 0.54583 0.68422
 O273 O 0.21123 0.27342 0.31207
 O274 O 0.24219 0.17692 0.22794
 O275 O 0.27522 0.20955 0.31164
 O276 O 0.17814 0.24073 0.22861
 O277 O 0.22476 0.28791 0.18692
 O278 O 0.32185 0.25673 0.26998
 O279 O 0.28881 0.22411 0.18628
 O280 O 0.25784 0.32060 0.27039
 Cu281 Cu 0.22201 0.22037 0.27427
 Cu282 Cu 0.27805 0.27708 0.22419
 C283 C 0.22975 0.31315 0.30578
 C284 C 0.27020 0.18441 0.19248
 C285 C 0.31473 0.22840 0.30527
 C286 C 0.18522 0.26913 0.19339
 O287 O 0.75801 0.82290 0.22833
 O288 O 0.78865 0.72655 0.31280
 O289 O 0.82171 0.75879 0.22922
 O290 O 0.72501 0.79076 0.31215
 O291 O 0.67804 0.74367 0.27055
 O292 O 0.77473 0.71171 0.18760
 O293 O 0.74169 0.67947 0.27118
 O294 O 0.71105 0.77581 0.18674
 Cu295 Cu 0.77806 0.77952 0.27482
 Cu296 Cu 0.72161 0.72293 0.22483
 C297 C 0.72993 0.81542 0.19281
 C298 C 0.76987 0.68690 0.30661
 C299 C 0.81437 0.73036 0.19401
 C300 C 0.68540 0.77205 0.30581
 O301 O 0.82274 0.24216 0.22833
 O302 O 0.72661 0.21106 0.31244
 O303 O 0.75902 0.17821 0.22882
 O304 O 0.79041 0.27497 0.31219
 O305 O 0.74315 0.32189 0.27071
 O306 O 0.71177 0.22514 0.18731
 O307 O 0.67936 0.25797 0.27094
 O308 O 0.77548 0.28907 0.18685
 Cu309 Cu 0.77949 0.22189 0.27463
 Cu310 Cu 0.72269 0.27828 0.22478
 C311 C 0.81514 0.27030 0.19293
 C312 C 0.68691 0.22972 0.30624
 C313 C 0.73059 0.18551 0.19360
 C314 C 0.77154 0.31457 0.30598
 O315 O 0.17720 0.75835 0.22819
 O316 O 0.27374 0.78881 0.31240
 O317 O 0.24146 0.82179 0.22873
 O318 O 0.20957 0.72527 0.31186
 O319 O 0.25641 0.67802 0.27033
 O320 O 0.28831 0.77453 0.18722
 O321 O 0.32060 0.74157 0.27090
 O322 O 0.22405 0.71112 0.18666
 Cu323 Cu 0.22075 0.77832 0.27449
 Cu324 Cu 0.27706 0.72152 0.22459
 C325 C 0.18450 0.73010 0.19280
 C326 C 0.31331 0.76989 0.30623
 C327 C 0.26979 0.81428 0.19356
 C328 C 0.22812 0.68552 0.30553
 O329 O 0.67859 0.25638 0.72999
 O330 O 0.77499 0.28816 0.81363
 O331 O 0.74209 0.32062 0.72985
 O332 O 0.71175 0.22372 0.81355
 O333 O 0.75897 0.17696 0.77191
 O334 O 0.78934 0.27385 0.68825
 O335 O 0.82225 0.24139 0.77204
 O336 O 0.72583 0.20964 0.68834
 Cu337 Cu 0.72209 0.27694 0.77594
 Cu338 Cu 0.77886 0.22075 0.72594
 C339 C 0.68611 0.22817 0.69463
 C340 C 0.81470 0.26961 0.80739
 C341 C 0.77035 0.31341 0.69451
 C342 C 0.73075 0.18416 0.80727
 O343 O 0.32178 0.74301 0.72958
 O344 O 0.22510 0.71175 0.81270
 O345 O 0.25786 0.67917 0.72907
 O346 O 0.28892 0.77562 0.81324
 O347 O 0.24204 0.82282 0.77163
 O348 O 0.21097 0.72637 0.68747
 O349 O 0.17820 0.75895 0.77110
 O350 O 0.27488 0.79019 0.68797
 Cu351 Cu 0.27816 0.72263 0.77533
 Cu352 Cu 0.22180 0.77935 0.72534
 C353 C 0.31447 0.77137 0.69433
 C354 C 0.18551 0.73056 0.80633
 C355 C 0.22962 0.68665 0.69369
 C356 C 0.27021 0.81533 0.80706
 O357 O 0.25689 0.32172 0.72899
 O358 O 0.28874 0.22514 0.81222
 O359 O 0.32111 0.25807 0.72866
 O360 O 0.22432 0.28852 0.81232
 O361 O 0.17763 0.24134 0.77047
 O362 O 0.27441 0.21086 0.68687
 O363 O 0.24204 0.17793 0.77042
 O364 O 0.21021 0.27452 0.68713
 Cu365 Cu 0.27748 0.27813 0.77476
 Cu366 Cu 0.22136 0.22139 0.72449
 C367 C 0.22866 0.31426 0.69363
 C368 C 0.27027 0.18541 0.80578
 C369 C 0.31392 0.22978 0.69326
 C370 C 0.18480 0.26959 0.80590
 O371 O 0.72620 0.78989 0.68823
 O372 O 0.82272 0.75880 0.77224
 O373 O 0.78996 0.72582 0.68865
 O374 O 0.75879 0.82268 0.77202
 O375 O 0.71177 0.77579 0.81357
 O376 O 0.74295 0.67895 0.73026
 O377 O 0.77571 0.71195 0.81383
 O378 O 0.67918 0.74302 0.72979
 Cu379 Cu 0.77916 0.77903 0.72609
 Cu380 Cu 0.72265 0.72270 0.77605
 C381 C 0.68657 0.77121 0.69442
 C382 C 0.81534 0.73064 0.80762
 C383 C 0.77121 0.68621 0.69499
 C384 C 0.73054 0.81539 0.80730
 C385 C 0.28485 0.11812 0.12629
 C386 C 0.27920 0.14796 0.15728
 C387 C 0.78576 0.61968 0.62926
 C388 C 0.78023 0.64962 0.66008
 C389 C 0.71580 0.88149 0.12626
 C390 C 0.72119 0.85175 0.15739
 C391 C 0.21354 0.38069 0.62806
 C392 C 0.21932 0.35079 0.65882
 C393 C 0.88106 0.28469 0.12654
 C394 C 0.85139 0.27920 0.15763
 C395 C 0.38083 0.78606 0.62869
 C396 C 0.35098 0.78044 0.65948
 C397 C 0.11814 0.71573 0.12665
 C398 C 0.14802 0.72125 0.15762
 C399 C 0.61983 0.21338 0.62865
 C400 C 0.64967 0.21899 0.65958
 C401 C 0.71653 0.11762 0.87318
 C402 C 0.72199 0.14756 0.84230
 C403 C 0.21312 0.61921 0.37119
 C404 C 0.21884 0.64906 0.34038
 C405 C 0.28491 0.88162 0.87324
 C406 C 0.27925 0.85177 0.84225
 C407 C 0.78604 0.38090 0.37198
 C408 C 0.78053 0.35105 0.34104
 C409 C 0.11824 0.28412 0.87154
 C410 C 0.14819 0.27852 0.84079
 C411 C 0.61915 0.78681 0.37165
 C412 C 0.64895 0.78120 0.34077
 C413 C 0.88172 0.71596 0.87368
 C414 C 0.85183 0.72160 0.84274
 C415 C 0.38127 0.21386 0.37102
 C416 C 0.35135 0.21941 0.34017
 C417 C 0.71603 0.88174 0.87327
 C418 C 0.72157 0.85190 0.84232
 C419 C 0.21453 0.37974 0.37145
 C420 C 0.22047 0.34974 0.34072
 C421 C 0.28541 0.11912 0.87151
 C422 C 0.27960 0.14895 0.84067
 C423 C 0.78470 0.62047 0.37255
 C424 C 0.77895 0.65041 0.34173
 C425 C 0.11912 0.71571 0.87189
 C426 C 0.14899 0.72141 0.84113
 C427 C 0.62059 0.21458 0.37195
 C428 C 0.65048 0.22046 0.34122
 C429 C 0.88084 0.28450 0.87353
 C430 C 0.85107 0.27880 0.84252
 C431 C 0.37984 0.78484 0.37202
 C432 C 0.34987 0.77900 0.34124
 C433 C 0.28506 0.88061 0.12799
 C434 C 0.27918 0.85076 0.15876
 C435 C 0.78488 0.38002 0.62876
 C436 C 0.77925 0.35003 0.65953
 C437 C 0.71577 0.11903 0.12788
 C438 C 0.72143 0.14895 0.15870
 C439 C 0.21443 0.62016 0.62787
 C440 C 0.22035 0.65012 0.65866
 C441 C 0.88075 0.71530 0.12844
 C442 C 0.85089 0.72105 0.15921
 C443 C 0.38051 0.21493 0.62771
 C444 C 0.35053 0.22072 0.65840
 C445 C 0.11845 0.28412 0.12805
 C446 C 0.14849 0.27834 0.15870
 C447 C 0.62016 0.78605 0.62844
 C448 C 0.65008 0.78032 0.65931
   
