data_POSCAR
  _audit_creation_date              2014-09-24
  _audit_creation_method            'ToBaCCo'
  _symmetry_space_group_name_H-M    'P1'
  _symmetry_Int_Tables_number       1
  _symmetry_cell_setting            triclinic
  loop_
  _symmetry_equiv_pos_as_xyz
 x,y,z
_cell_length_a 34.8612
_cell_length_b 46.2924
_cell_length_c 29.9104
_cell_angle_alpha 90.000500
_cell_angle_beta 90.000200
_cell_angle_gamma 90.166200
loop_
  _atom_site_label
  _atom_site_type_symbol
  _atom_site_fract_x
  _atom_site_fract_y
  _atom_site_fract_z
O1 O 0.24337 0.27759 0.18804
 O2 O 0.30009 0.22138 0.24459
 O3 O 0.24326 0.22145 0.18803
 O4 O 0.30013 0.27781 0.24466
 O5 O 0.25893 0.27770 0.30078
 O6 O 0.20212 0.22140 0.24418
 O7 O 0.25890 0.22132 0.30071
 O8 O 0.20220 0.27749 0.24421
 Cu9 Cu 0.27592 0.24956 0.21075
 Cu10 Cu 0.22647 0.24946 0.27817
 C11 C 0.21306 0.28702 0.20645
 C12 C 0.28905 0.21171 0.28219
 C13 C 0.21289 0.21189 0.20638
 C14 C 0.28910 0.28743 0.28227
 O15 O 0.80027 0.27795 0.25479
 O16 O 0.74339 0.22160 0.31142
 O17 O 0.80021 0.22151 0.25485
 O18 O 0.74349 0.27773 0.31140
 O19 O 0.70233 0.27764 0.25523
 O20 O 0.75902 0.22146 0.19873
 O21 O 0.70225 0.22154 0.25527
 O22 O 0.75907 0.27784 0.19867
 Cu23 Cu 0.77605 0.24970 0.28869
 Cu24 Cu 0.72660 0.24961 0.22127
 C25 C 0.78924 0.28757 0.21718
 C26 C 0.71302 0.21204 0.29308
 C27 C 0.78916 0.21184 0.21725
 C28 C 0.71318 0.28716 0.29299
 O29 O 0.74431 0.77867 0.68936
 O30 O 0.80104 0.72247 0.74595
 O31 O 0.74427 0.72254 0.68932
 O32 O 0.80107 0.77890 0.74602
 O33 O 0.75986 0.77878 0.80209
 O34 O 0.70308 0.72247 0.74547
 O35 O 0.75982 0.72240 0.80204
 O36 O 0.70313 0.77856 0.74551
 Cu37 Cu 0.77688 0.75066 0.71209
 Cu38 Cu 0.72741 0.75054 0.77948
 C39 C 0.71399 0.78809 0.70775
 C40 C 0.78997 0.71278 0.78353
 C41 C 0.71393 0.71300 0.70770
 C42 C 0.79006 0.78856 0.78365
 O43 O 0.20248 0.77762 0.75546
 O44 O 0.25916 0.72146 0.69894
 O45 O 0.20243 0.72153 0.75552
 O46 O 0.25923 0.77784 0.69890
 O47 O 0.30044 0.77795 0.75500
 O48 O 0.24359 0.72159 0.81165
 O49 O 0.30038 0.72151 0.75504
 O50 O 0.24366 0.77773 0.81162
 Cu51 Cu 0.22676 0.74960 0.72151
 Cu52 Cu 0.27622 0.74970 0.78890
 C53 C 0.21334 0.78715 0.79322
 C54 C 0.28931 0.71184 0.71744
 C55 C 0.21322 0.71203 0.79333
 C56 C 0.28940 0.78757 0.71740
 C57 C 1.01878 0.02218 0.02229
 C58 C 0.97814 0.02198 0.02268
 C59 C 0.95844 -0.00013 0.00007
 C60 C 0.97809 -0.02220 -0.02247
 C61 C 1.01872 -0.02234 -0.02194
 C62 C 1.03839 -0.00006 0.00021
 H63 H 1.06950 -0.00004 0.00026
 H64 H 0.92733 -0.00016 0.00002
 C65 C 0.51877 0.52221 0.52221
 C66 C 0.47813 0.52201 0.52261
 C67 C 0.45843 0.49992 0.49996
 C68 C 0.47808 0.47786 0.47738
 C69 C 0.51871 0.47772 0.47792
 C70 C 0.53838 0.49998 0.50010
 H71 H 0.56949 0.50000 0.50015
 H72 H 0.42732 0.49990 0.49990
 C73 C -0.02170 0.47815 0.02252
 C74 C 0.01894 0.47794 0.02191
 C75 C 0.03865 0.50019 -0.00023
 C76 C 0.01907 0.52249 -0.02223
 C77 C -0.02157 0.52236 -0.02255
 C78 C -0.04131 0.50027 0.00006
 H79 H -0.07242 0.50030 0.00017
 H80 H 0.06976 0.50016 -0.00034
 C81 C 0.47836 0.97810 0.52248
 C82 C 0.51900 0.97803 0.52202
 C83 C 0.53863 1.00029 0.49982
 C84 C 0.51898 1.02247 0.47761
 C85 C 0.47834 1.02221 0.47717
 C86 C 0.45868 1.00011 0.49983
 H87 H 0.42757 1.00003 0.49984
 H88 H 0.56974 1.00037 0.49981
 N89 N 1.18101 0.16032 0.12364
 C90 C 1.14847 0.15002 0.14277
 N91 N 1.13755 0.16037 0.18319
 N92 N 1.15849 0.18044 0.20385
 C93 C 1.19112 0.19085 0.18482
 N94 N 1.20197 0.18040 0.14429
 C95 C 1.12604 0.12823 0.12076
 C96 C 1.10718 0.10978 0.10264
 C97 C 1.08480 0.08757 0.08159
 N98 N 1.05272 0.09431 0.05823
 N99 N 1.03165 0.07357 0.03934
 C100 C 1.04180 0.04537 0.04344
 N101 N 1.07426 0.03879 0.06636
 N102 N 1.09532 0.05951 0.08523
 N103 N 0.68094 0.66031 0.62378
 C104 C 0.64839 0.65001 0.64289
 N105 N 0.63744 0.66036 0.68331
 N106 N 0.65837 0.68044 0.70399
 C107 C 0.69099 0.69081 0.68496
 N108 N 0.70189 0.68040 0.64446
 C109 C 0.62597 0.62823 0.62086
 C110 C 0.60713 0.60977 0.60271
 C111 C 0.58476 0.58758 0.58162
 N112 N 0.55269 0.59432 0.55826
 N113 N 0.53164 0.57359 0.53932
 C114 C 0.54179 0.54539 0.54339
 N115 N 0.57425 0.53880 0.56632
 N116 N 0.59529 0.55952 0.58523
 N117 N -0.13625 0.34210 0.19396
 C118 C -0.14782 0.35273 0.15395
 N119 N -0.17997 0.34188 0.13465
 N120 N -0.19998 0.32105 0.15479
 C121 C -0.18850 0.31035 0.19487
 N122 N -0.15627 0.32126 0.21411
 C123 C -0.12622 0.37509 0.13211
 C124 C -0.10810 0.39375 0.11346
 C125 C -0.08649 0.41576 0.09082
 N126 N -0.09763 0.42525 0.04997
 N127 N -0.07709 0.44518 0.02842
 C128 C -0.04456 0.45618 0.04685
 N129 N -0.03386 0.44695 0.08813
 N130 N -0.05439 0.42701 0.10967
 N131 N 0.32021 0.84184 0.63482
 C132 C 0.35237 0.85269 0.65409
 N133 N 0.36394 0.84206 0.69411
 N134 N 0.34391 0.82124 0.71428
 C135 C 0.31167 0.81034 0.69507
 N136 N 0.30018 0.82103 0.65498
 C137 C 0.37398 0.87503 0.63223
 C138 C 0.39210 0.89368 0.61355
 C139 C 0.41370 0.91568 0.59086
 N140 N 0.44570 0.92704 0.60977
 N141 N 0.46620 0.94698 0.58819
 C142 C 0.45556 0.95611 0.54683
 N143 N 0.42313 0.94498 0.52835
 N144 N 0.40262 0.92505 0.54993
 N145 N -0.13563 0.65848 -0.19333
 C146 C -0.14723 0.64777 -0.15335
 N147 N -0.17936 0.65850 -0.13404
 N148 N -0.19933 0.67928 -0.15413
 C149 C -0.18781 0.69006 -0.19419
 N150 N -0.15560 0.67927 -0.21344
 C151 C -0.12569 0.62545 -0.13158
 C152 C -0.10762 0.60680 -0.11299
 C153 C -0.08608 0.58480 -0.09045
 N154 N -0.09711 0.57534 -0.04952
 N155 N -0.07665 0.55540 -0.02810
 C156 C -0.04432 0.54436 -0.04673
 N157 N -0.03372 0.55358 -0.08808
 N158 N -0.05417 0.57353 -0.10950
 N159 N 0.31992 1.15758 0.36477
 C160 C 0.35208 1.14689 0.34549
 N161 N 0.36362 1.15756 0.30545
 N162 N 0.34356 1.17827 0.28528
 C163 C 0.31132 1.18902 0.30450
 N164 N 0.29986 1.17829 0.34461
 C165 C 0.37374 1.12468 0.36737
 C166 C 0.39191 1.10614 0.38607
 C167 C 0.41356 1.08427 0.40878
 N168 N 0.44559 1.07309 0.38988
 N169 N 0.46614 1.05327 0.41147
 C170 C 0.45551 1.04409 0.45282
 N171 N 0.42305 1.05503 0.47130
 N172 N 0.40251 1.07485 0.44971
 N173 N 1.13698 -0.16041 -0.18252
 C174 C 1.14796 -0.14999 -0.14212
 N175 N 1.18048 -0.16018 -0.12299
 N176 N 1.20137 -0.18022 -0.14361
 C177 C 1.19045 -0.19071 -0.18408
 N178 N 1.15787 -0.18045 -0.20315
 C179 C 1.12561 -0.12823 -0.12016
 C180 C 1.10683 -0.10980 -0.10207
 C181 C 1.08453 -0.08763 -0.08106
 N182 N 1.05238 -0.09442 -0.05777
 N183 N 1.03139 -0.07371 -0.03892
 C184 C 1.04169 -0.04549 -0.04301
 N185 N 1.07422 -0.03886 -0.06586
 N186 N 1.09520 -0.05955 -0.08468
 N187 N 0.63686 0.33964 0.31724
 C188 C 0.64785 0.35006 0.35763
 N189 N 0.68036 0.33985 0.37677
 N190 N 0.70123 0.31980 0.35615
 C191 C 0.69030 0.30931 0.31568
 N192 N 0.65773 0.31959 0.29661
 C193 C 0.62551 0.37182 0.37960
 C194 C 0.60675 0.39026 0.39770
 C195 C 0.58447 0.41243 0.41873
 N196 N 0.55232 0.40565 0.44202
 N197 N 0.53135 0.42635 0.46089
 C198 C 0.54166 0.45457 0.45684
 N199 N 0.57420 0.46120 0.43399
 N200 N 0.59516 0.44050 0.41514
 N201 N 0.81979 -0.15836 -0.13485
 C202 C 0.85196 -0.14752 -0.15411
 N203 N 0.86352 -0.15814 -0.19414
 N204 N 0.84347 -0.17894 -0.21433
 C205 C 0.81118 -0.18985 -0.19517
 N206 N 0.79974 -0.17915 -0.15503
 C207 C 0.87359 -0.12521 -0.13223
 C208 C 0.89173 -0.10657 -0.11353
 C209 C 0.91335 -0.08458 -0.09085
 N210 N 0.94543 -0.07330 -0.10970
 N211 N 0.96595 -0.05337 -0.08812
 C212 C 0.95526 -0.04418 -0.04682
 N213 N 0.92276 -0.05523 -0.02839
 N214 N 0.90223 -0.07515 -0.04996
 N215 N 0.31989 0.34169 0.36487
 C216 C 0.35205 0.35255 0.34561
 N217 N 0.36363 0.34193 0.30558
 N218 N 0.34361 0.32111 0.28540
 C219 C 0.31136 0.31020 0.30461
 N220 N 0.29987 0.32088 0.34470
 C221 C 0.37366 0.37488 0.36749
 C222 C 0.39177 0.39353 0.38619
 C223 C 0.41337 0.41551 0.40890
 N224 N 0.44543 0.42682 0.39007
 N225 N 0.46595 0.44674 0.41167
 C226 C 0.45525 0.45591 0.45299
 N227 N 0.42275 0.44484 0.47140
 N228 N 0.40224 0.42492 0.44979
 N229 N 0.13789 0.66051 -0.18340
 C230 C 0.14884 0.65018 -0.14298
 N231 N 0.18138 0.66048 -0.12388
 N232 N 0.20233 0.68056 -0.14457
 C233 C 0.19146 0.69099 -0.18510
 N234 N 0.15882 0.68058 -0.20410
 C235 C 0.12641 0.62840 -0.12093
 C236 C 0.10756 0.60997 -0.10276
 C237 C 0.08517 0.58779 -0.08164
 N238 N 0.09560 0.55971 -0.08536
 N239 N 0.07452 0.53901 -0.06644
 C240 C 0.04214 0.54565 -0.04340
 N241 N 0.03209 0.57386 -0.03922
 N242 N 0.05317 0.59457 -0.05817
 N243 N 0.63764 1.16055 0.31632
 C244 C 0.64857 1.15022 0.35675
 N245 N 0.68111 1.16051 0.37587
 N246 N 0.70208 1.18058 0.35519
 C247 C 0.69123 1.19101 0.31465
 N248 N 0.65860 1.18061 0.29563
 C249 C 0.62613 1.12845 0.37880
 C250 C 0.60727 1.11001 0.39696
 C251 C 0.58491 1.08782 0.41808
 N252 N 0.59548 1.05977 0.41455
 N253 N 0.57445 1.03905 0.43350
 C254 C 0.54197 1.04565 0.45638
 N255 N 0.53177 1.07384 0.46035
 N256 N 0.55281 1.09457 0.44138
 N257 N 0.13679 0.33955 0.18224
 C258 C 0.14779 0.34998 0.14186
 N259 N 0.18029 0.33976 0.12272
 N260 N 0.20114 0.31968 0.14332
 C261 C 0.19019 0.30919 0.18377
 N262 N 0.15763 0.31947 0.20285
 C263 C 0.12550 0.37178 0.11993
 C264 C 0.10678 0.39026 0.10187
 C265 C 0.08456 0.41249 0.08088
 N266 N 0.05238 0.40577 0.05759
 N267 N 0.03146 0.42653 0.03879
 C268 C 0.04185 0.45472 0.04291
 N269 N 0.07440 0.46128 0.06576
 N270 N 0.09533 0.44054 0.08454
 N271 N 0.68106 0.84065 0.62384
 C272 C 0.64851 0.85082 0.64294
 N273 N 0.63754 0.84043 0.68336
 N274 N 0.65846 0.82044 0.70404
 C275 C 0.69107 0.81020 0.68502
 N276 N 0.70199 0.82066 0.64453
 C277 C 0.62610 0.87251 0.62089
 C278 C 0.60727 0.89087 0.60271
 C279 C 0.58493 0.91297 0.58157
 N280 N 0.59549 0.94107 0.58510
 N281 N 0.57447 0.96169 0.56615
 C282 C 0.54200 0.95495 0.54324
 N283 N 0.53181 0.92671 0.53925
 N284 N 0.55284 0.90608 0.55823
 N285 N 0.81996 0.15766 0.13472
 C286 C 0.85211 0.14695 0.15402
 N287 N 0.86367 0.15763 0.19404
 N288 N 0.84364 0.17837 0.21419
 C289 C 0.81141 0.18914 0.19496
 N290 N 0.79994 0.17839 0.15486
 C291 C 0.87373 0.12470 0.13217
 C292 C 0.89186 0.10612 0.11352
 C293 C 0.91347 0.08420 0.09088
 N294 N 0.94547 0.07300 0.10981
 N295 N 0.96598 0.05313 0.08829
 C296 C 0.95535 0.04391 0.04696
 N297 N 0.92292 0.05488 0.02844
 N298 N 0.90241 0.07474 0.04996
 N299 N 0.32005 0.65766 0.63488
 C300 C 0.35221 0.64694 0.65415
 N301 N 0.36379 0.65762 0.69417
 N302 N 0.34378 0.67836 0.71434
 C303 C 0.31155 0.68914 0.69513
 N304 N 0.30005 0.67840 0.65504
 C305 C 0.37380 0.62469 0.63229
 C306 C 0.39191 0.60611 0.61360
 C307 C 0.41350 0.58420 0.59092
 N308 N 0.44549 0.57297 0.60984
 N309 N 0.46599 0.55311 0.58828
 C310 C 0.45535 0.54393 0.54693
 N311 N 0.42292 0.55492 0.52843
 N312 N 0.40243 0.57478 0.54999
   
