data_POSCAR
  _audit_creation_date              2014-09-24
  _audit_creation_method            'ToBaCCo'
  _symmetry_space_group_name_H-M    'P1'
  _symmetry_Int_Tables_number       1
  _symmetry_cell_setting            triclinic
  loop_
  _symmetry_equiv_pos_as_xyz
 x,y,z
_cell_length_a 56.8709
_cell_length_b 56.0014
_cell_length_c 56.8461
_cell_angle_alpha 89.969800
_cell_angle_beta 89.995700
_cell_angle_gamma 90.037500
loop_
  _atom_site_label
  _atom_site_type_symbol
  _atom_site_fract_x
  _atom_site_fract_y
  _atom_site_fract_z
N1 N 0.59814 0.66260 0.61409
 N2 N 0.58899 0.65293 0.63306
 C3 C 0.56989 0.66555 0.63948
 C4 C 0.56686 0.68417 0.62367
 C5 C 0.58519 0.68166 0.60779
 H6 H 0.55892 0.66138 0.65444
 H7 H 0.58901 0.69294 0.59284
 Cu8 Cu 0.60299 0.62479 0.64746
 Cu9 Cu 0.62619 0.64986 0.59898
 Cu10 Cu 0.65147 0.59975 0.62437
 N11 N 0.61732 0.59665 0.66152
 N12 N 0.63626 0.58697 0.65240
 C13 C 0.64250 0.56789 0.66536
 C14 C 0.62659 0.56532 0.68377
 C15 C 0.61085 0.58405 0.68063
 H16 H 0.65754 0.55680 0.66150
 H17 H 0.59576 0.58829 0.69137
 N18 N 0.66422 0.61530 0.59598
 N19 N 0.65459 0.63435 0.58632
 C20 C 0.66726 0.64066 0.56728
 C21 C 0.68581 0.62483 0.56476
 C22 C 0.68326 0.60900 0.58334
 H23 H 0.66314 0.65561 0.55601
 H24 H 0.69449 0.59403 0.58747
 H25 H 0.62165 0.61499 0.61007
 H26 H 0.64042 0.63458 0.62888
 N27 N 0.90229 0.33693 0.11387
 N28 N 0.91146 0.34662 0.13279
 C29 C 0.93055 0.33401 0.13925
 C30 C 0.93362 0.31527 0.12351
 C31 C 0.91520 0.31783 0.10763
 H32 H 0.94134 0.33827 0.15431
 H33 H 0.91131 0.30674 0.09259
 Cu34 Cu 0.89750 0.37482 0.14710
 Cu35 Cu 0.87432 0.34978 0.09866
 Cu36 Cu 0.84925 0.40012 0.12380
 N37 N 0.88323 0.40300 0.16110
 N38 N 0.86441 0.41283 0.15185
 C39 C 0.85824 0.43196 0.16477
 C40 C 0.87403 0.43432 0.18320
 C41 C 0.88966 0.41556 0.18025
 H42 H 0.84323 0.44316 0.16107
 H43 H 0.90471 0.41144 0.19111
 N44 N 0.83652 0.38459 0.09540
 N45 N 0.84601 0.36541 0.08588
 C46 C 0.83330 0.35905 0.06690
 C47 C 0.81487 0.37500 0.06428
 C48 C 0.81753 0.39095 0.08271
 H49 H 0.83729 0.34401 0.05571
 H50 H 0.80634 0.40598 0.08674
 H51 H 0.87903 0.38464 0.10963
 H52 H 0.86007 0.36522 0.12844
 N53 N 0.40233 0.16239 -0.11377
 N54 N 0.41182 0.15234 -0.13235
 C55 C 0.43093 0.16496 -0.13880
 C56 C 0.43363 0.18396 -0.12340
 C57 C 0.41507 0.18169 -0.10774
 H58 H 0.44214 0.16052 -0.15350
 H59 H 0.41097 0.19329 -0.09312
 Cu60 Cu 0.39830 0.12374 -0.14633
 Cu61 Cu 0.37417 0.14976 -0.09877
 Cu62 Cu 0.34907 0.09943 -0.12385
 N63 N 0.38359 0.09588 -0.16056
 N64 N 0.36439 0.08646 -0.15167
 C65 C 0.35798 0.06753 -0.16476
 C66 C 0.37402 0.06487 -0.18294
 C67 C 0.39003 0.08326 -0.17966
 H68 H 0.34264 0.05667 -0.16136
 H69 H 0.40533 0.08709 -0.19027
 N70 N 0.33616 0.11515 -0.09568
 N71 N 0.34568 0.13433 -0.08615
 C72 C 0.33290 0.14075 -0.06724
 C73 C 0.31440 0.12485 -0.06467
 C74 C 0.31709 0.10886 -0.08306
 H75 H 0.33693 0.15578 -0.05604
 H76 H 0.30588 0.09383 -0.08710
 H77 H 0.37873 0.11473 -0.10917
 H78 H 0.36058 0.13413 -0.12877
 N79 N 0.09713 0.83744 0.38637
 N80 N 0.08758 0.84752 0.36783
 C81 C 0.06848 0.83489 0.36140
 C82 C 0.06579 0.81575 0.37676
 C83 C 0.08445 0.81809 0.39240
 H84 H 0.05746 0.83939 0.34659
 H85 H 0.08867 0.80666 0.40711
 Cu86 Cu 0.10108 0.87614 0.35383
 Cu87 Cu 0.12526 0.85011 0.40136
 Cu88 Cu 0.15029 0.90052 0.37630
 N89 N 0.11576 0.90403 0.33960
 N90 N 0.13494 0.91348 0.34847
 C91 C 0.14134 0.93240 0.33534
 C92 C 0.12532 0.93501 0.31714
 C93 C 0.10932 0.91661 0.32046
 H94 H 0.15667 0.94327 0.33871
 H95 H 0.09404 0.91274 0.30984
 N96 N 0.16321 0.88479 0.40449
 N97 N 0.15372 0.86557 0.41399
 C98 C 0.16651 0.85910 0.43287
 C99 C 0.18500 0.87501 0.43546
 C100 C 0.18228 0.89106 0.41711
 H101 H 0.16252 0.84402 0.44404
 H102 H 0.19347 0.90611 0.41308
 H103 H 0.12065 0.88517 0.39098
 H104 H 0.13885 0.86584 0.37137
 N105 N 0.12428 0.12525 0.12480
 N106 N 0.37517 0.87474 0.62483
 N107 N 0.87567 0.62496 0.37494
 N108 N 0.62490 0.37523 -0.12536
 C109 C -0.01337 0.28010 0.14115
 C110 C -0.01306 0.26241 0.12383
 C111 C -0.03038 0.26221 0.10640
 C112 C -0.04798 0.27963 0.10625
 C113 C -0.04860 0.29765 0.12361
 C114 C -0.03093 0.29756 0.14108
 C115 C 0.00503 0.24444 0.12394
 C116 C 0.02017 0.22938 0.12401
 C117 C 0.03787 0.21173 0.12410
 C118 C 0.05298 0.19665 0.12420
 C119 C 0.07100 0.17862 0.12433
 C120 C 0.07795 0.16776 0.10328
 C121 C 0.09545 0.15024 0.10342
 C122 C 0.10620 0.14337 0.12464
 C123 C 0.09911 0.15437 0.14570
 C124 C 0.08161 0.17188 0.14554
 H125 H -0.00002 0.28041 0.15474
 H126 H -0.03030 0.24857 0.09289
 H127 H -0.06099 0.27874 0.09243
 H128 H -0.03044 0.31087 0.15483
 H129 H 0.06983 0.17281 0.08677
 H130 H 0.10050 0.14188 0.08701
 H131 H 0.10727 0.14949 0.16223
 H132 H 0.07639 0.18020 0.16193
 C133 C 0.51566 0.72287 0.64336
 C134 C 0.51274 0.73785 0.62389
 C135 C 0.52746 0.73532 0.60434
 C136 C 0.54505 0.71788 0.60424
 C137 C 0.54816 0.70268 0.62374
 C138 C 0.53322 0.70540 0.64331
 C139 C 0.49467 0.75583 0.62398
 C140 C 0.47955 0.77090 0.62406
 C141 C 0.46184 0.78854 0.62417
 C142 C 0.44671 0.80360 0.62427
 C143 C 0.42863 0.82158 0.62441
 C144 C 0.42163 0.83240 0.60334
 C145 C 0.40407 0.84986 0.60347
 C146 C 0.39331 0.85670 0.62469
 C147 C 0.40045 0.84574 0.64577
 C148 C 0.41801 0.82828 0.64562
 H149 H 0.50439 0.72471 0.65862
 H150 H 0.52534 0.74681 0.58915
 H151 H 0.55602 0.71627 0.58879
 H152 H 0.53513 0.69424 0.65871
 H153 H 0.42976 0.82737 0.58684
 H154 H 0.39898 0.85819 0.58705
 H155 H 0.39229 0.85060 0.66229
 H156 H 0.42327 0.82000 0.66202
 C157 C 1.01277 0.78054 0.35917
 C158 C 1.01278 0.76250 0.37616
 C159 C 1.03035 0.76207 0.39334
 C160 C 1.04786 0.77961 0.39357
 C161 C 1.04813 0.79799 0.37655
 C162 C 1.03023 0.79812 0.35932
 C163 C 0.99478 0.74443 0.37597
 C164 C 0.97970 0.72930 0.37582
 C165 C 0.96203 0.71159 0.37565
 C166 C 0.94694 0.69647 0.37552
 C167 C 0.92893 0.67841 0.37537
 C168 C 0.92195 0.66756 0.39644
 C169 C 0.90447 0.65001 0.39631
 C170 C 0.89375 0.64310 0.37509
 C171 C 0.90086 0.65409 0.35401
 C172 C 0.91835 0.67164 0.35416
 H173 H 0.99923 0.78104 0.34577
 H174 H 1.03052 0.74816 0.40660
 H175 H 1.06106 0.77854 0.40720
 H176 H 1.02948 0.81170 0.34584
 H177 H 0.93005 0.67265 0.41295
 H178 H 0.89939 0.64166 0.41273
 H179 H 0.89273 0.64918 0.33749
 H180 H 0.92360 0.67995 0.33776
 C181 C 0.48500 0.22245 -0.14319
 C182 C 0.48757 0.23789 -0.12403
 C183 C 0.47254 0.23574 -0.10466
 C184 C 0.45501 0.21824 -0.10444
 C185 C 0.45225 0.20258 -0.12362
 C186 C 0.46749 0.20492 -0.14301
 C187 C 0.50560 0.25595 -0.12425
 C188 C 0.52069 0.27107 -0.12443
 C189 C 0.53837 0.28876 -0.12463
 C190 C 0.55348 0.30387 -0.12479
 C191 C 0.57152 0.32190 -0.12496
 C192 C 0.59490 0.31568 -0.12028
 C193 C 0.61243 0.33318 -0.12042
 C194 C 0.60679 0.35713 -0.12524
 C195 C 0.58326 0.36322 -0.12993
 C196 C 0.56575 0.34570 -0.12979
 H197 H 0.49652 0.22399 -0.15830
 H198 H 0.47440 0.24758 -0.08971
 H199 H 0.44380 0.21693 -0.08913
 H200 H 0.46586 0.19339 -0.15818
 H201 H 0.59957 0.29731 -0.11656
 H202 H 0.63045 0.32806 -0.11694
 H203 H 0.57848 0.38157 -0.13352
 H204 H 0.54771 0.35071 -0.13340
 C205 C 0.11013 -0.03138 0.26108
 C206 C 0.12519 -0.01168 0.26257
 C207 C 0.14032 -0.00939 0.28184
 C208 C 0.14040 -0.02671 0.29957
 C209 C 0.12530 -0.04661 0.29828
 C210 C 0.11017 -0.04872 0.27878
 C211 C 0.12507 0.00622 0.24439
 C212 C 0.12497 0.02124 0.22919
 C213 C 0.12485 0.03886 0.21144
 C214 C 0.12475 0.05394 0.19629
 C215 C 0.12463 0.07195 0.17822
 C216 C 0.14570 0.08279 0.17124
 C217 C 0.14559 0.10030 0.15371
 C218 C 0.12439 0.10718 0.14294
 C219 C 0.10331 0.09621 0.15006
 C220 C 0.10344 0.07871 0.16760
 H221 H 0.09837 -0.03336 0.24621
 H222 H 0.15203 0.00581 0.28319
 H223 H 0.15217 -0.02431 0.31431
 H224 H 0.09843 -0.06381 0.27701
 H225 H 0.16219 0.07774 0.17938
 H226 H 0.16201 0.10863 0.14863
 H227 H 0.08681 0.10110 0.14189
 H228 H 0.08704 0.07042 0.17285
 C229 C 0.60877 0.53007 -0.26329
 C230 C 0.62612 0.51242 -0.26288
 C231 C 0.64363 0.51229 -0.28011
 C232 C 0.64384 0.52972 -0.29772
 C233 C 0.62645 0.54770 -0.29844
 C234 C 0.60889 0.54755 -0.28085
 C235 C 0.62594 0.49443 -0.24478
 C236 C 0.62579 0.47937 -0.22963
 C237 C 0.62563 0.46172 -0.21191
 C238 C 0.62549 0.44663 -0.19678
 C239 C 0.62534 0.42860 -0.17873
 C240 C 0.62050 0.40481 -0.18452
 C241 C 0.62036 0.38728 -0.16700
 C242 C 0.62506 0.39334 -0.14347
 C243 C 0.62991 0.41729 -0.13781
 C244 C 0.63004 0.43480 -0.15534
 H245 H 0.59511 0.53034 -0.25000
 H246 H 0.65717 0.49868 -0.27996
 H247 H 0.65773 0.52888 -0.31067
 H248 H 0.59512 0.56082 -0.28044
 H249 H 0.61686 0.39981 -0.20256
 H250 H 0.61676 0.36893 -0.17180
 H251 H 0.63340 0.42240 -0.11978
 H252 H 0.63377 0.45317 -0.15066
 C253 C 0.35904 1.00917 0.78197
 C254 C 0.37413 1.01145 0.76267
 C255 C 0.38917 1.03116 0.76110
 C256 C 0.38914 1.04854 0.77875
 C257 C 0.37404 1.04644 0.79828
 C258 C 0.35897 1.02652 0.79965
 C259 C 0.37422 0.99356 0.74450
 C260 C 0.37432 0.97856 0.72930
 C261 C 0.37445 0.96100 0.71150
 C262 C 0.37457 0.94599 0.69632
 C263 C 0.37472 0.92804 0.67821
 C264 C 0.39592 0.92131 0.66760
 C265 C 0.39608 0.90383 0.65006
 C266 C 0.37501 0.89285 0.64293
 C267 C 0.35380 0.89972 0.65366
 C268 C 0.35366 0.91721 0.67119
 H269 H 0.34735 0.99396 0.78339
 H270 H 0.40090 1.03312 0.74620
 H271 H 0.40085 1.06364 0.77691
 H272 H 0.34722 1.02414 0.81442
 H273 H 0.41231 0.92960 0.67288
 H274 H 0.41260 0.89895 0.64192
 H275 H 0.33739 0.89138 0.64857
 H276 H 0.33716 0.92225 0.67931
 C277 C 0.85979 0.49048 0.21784
 C278 C 0.87456 0.48798 0.23736
 C279 C 0.88914 0.46797 0.23923
 C280 C 0.88899 0.45052 0.22165
 C281 C 0.87420 0.45283 0.20191
 C282 C 0.85959 0.47305 0.20024
 C283 C 0.87475 0.50595 0.25546
 C284 C 0.87490 0.52100 0.27061
 C285 C 0.87505 0.53864 0.28833
 C286 C 0.87516 0.55371 0.30346
 C287 C 0.87530 0.57172 0.32152
 C288 C 0.89649 0.57853 0.33209
 C289 C 0.89663 0.59601 0.34963
 C290 C 0.87555 0.60689 0.35681
 C291 C 0.85433 0.59995 0.34610
 C292 C 0.85422 0.58246 0.32856
 H293 H 0.84845 0.50593 0.21620
 H294 H 0.90063 0.46584 0.25429
 H295 H 0.90035 0.43519 0.22371
 H296 H 0.84810 0.47561 0.18530
 H297 H 0.91290 0.57031 0.32679
 H298 H 0.91315 0.60095 0.35775
 H299 H 0.83791 0.60823 0.35121
 H300 H 0.83772 0.57736 0.32047
 C301 C 0.26334 0.10519 -0.02613
 C302 C 0.26069 0.12496 -0.01133
 C303 C 0.27556 0.14469 -0.01393
 C304 C 0.29302 0.14468 -0.03125
 C305 C 0.29586 0.12489 -0.04626
 C306 C 0.28077 0.10514 -0.04347
 C307 C 0.24275 0.12498 0.00652
 C308 C 0.22772 0.12501 0.02148
 C309 C 0.21015 0.12506 0.03900
 C310 C 0.19514 0.12510 0.05397
 C311 C 0.17723 0.12514 0.07186
 C312 C 0.17015 0.14666 0.08216
 C313 C 0.15276 0.14672 0.09954
 C314 C 0.14224 0.12522 0.10682
 C315 C 0.14946 0.10368 0.09638
 C316 C 0.16685 0.10365 0.07900
 H317 H 0.25194 0.08980 -0.02424
 H318 H 0.27365 0.16010 -0.00259
 H319 H 0.30411 0.16028 -0.03291
 H320 H 0.28247 0.08950 -0.05449
 H321 H 0.17809 0.16339 0.07679
 H322 H 0.14761 0.16349 0.10747
 H323 H 0.14148 0.08693 0.10158
 H324 H 0.17217 0.08690 0.07112
 C325 C 0.72340 0.64374 0.51266
 C326 C 0.73928 0.62476 0.51112
 C327 C 0.73774 0.60580 0.52707
 C328 C 0.72039 0.60580 0.54449
 C329 C 0.70428 0.62481 0.54624
 C330 C 0.70603 0.64380 0.53007
 C331 C 0.75717 0.62474 0.49321
 C332 C 0.77217 0.62474 0.47823
 C333 C 0.78975 0.62474 0.46069
 C334 C 0.80476 0.62476 0.44572
 C335 C 0.82268 0.62481 0.42785
 C336 C 0.83309 0.60333 0.42076
 C337 C 0.85050 0.60337 0.40340
 C338 C 0.85771 0.62491 0.39291
 C339 C 0.84717 0.64640 0.40014
 C340 C 0.82977 0.64634 0.41751
 H341 H 0.72445 0.65854 0.50042
 H342 H 0.74994 0.59099 0.52602
 H343 H 0.71962 0.59080 0.55644
 H344 H 0.69413 0.65882 0.53084
 H345 H 0.82777 0.58658 0.42868
 H346 H 0.85849 0.58664 0.39824
 H347 H 0.85232 0.66318 0.39218
 H348 H 0.82181 0.66305 0.42284
 C349 C 0.77593 0.35510 0.01362
 C350 C 0.76122 0.37492 0.01088
 C351 C 0.76400 0.39476 0.02556
 C352 C 0.78142 0.39481 0.04292
 C353 C 0.79635 0.37497 0.04584
 C354 C 0.79337 0.35511 0.03096
 C355 C 0.74330 0.37490 -0.00700
 C356 C 0.72830 0.37490 -0.02199
 C357 C 0.71074 0.37493 -0.03953
 C358 C 0.69574 0.37498 -0.05451
 C359 C 0.67784 0.37505 -0.07241
 C360 C 0.68385 0.37955 -0.09588
 C361 C 0.66648 0.37963 -0.11327
 C362 C 0.64286 0.37520 -0.10739
 C363 C 0.63697 0.37069 -0.08377
 C364 C 0.65436 0.37062 -0.06640
 H365 H 0.77390 0.33962 0.00237
 H366 H 0.75274 0.41022 0.02356
 H367 H 0.78323 0.41049 0.05385
 H368 H 0.80432 0.33944 0.03274
 H369 H 0.70197 0.38296 -0.10074
 H370 H 0.67144 0.38296 -0.13137
 H371 H 0.61887 0.36741 -0.07881
 H372 H 0.64951 0.36714 -0.04829
 C373 C 0.22399 0.85490 0.48599
 C374 C 0.23880 0.87466 0.48869
 C375 C 0.23606 0.89453 0.47403
 C376 C 0.21860 0.89467 0.45672
 C377 C 0.20357 0.87489 0.45383
 C378 C 0.20650 0.85499 0.46870
 C379 C 0.25675 0.87457 0.50653
 C380 C 0.27177 0.87452 0.52149
 C381 C 0.28933 0.87449 0.53902
 C382 C 0.30432 0.87450 0.55401
 C383 C 0.32222 0.87456 0.57191
 C384 C 0.33254 0.89609 0.57896
 C385 C 0.34993 0.89617 0.59634
 C386 C 0.35719 0.87468 0.60688
 C387 C 0.34672 0.85313 0.59969
 C388 C 0.32934 0.85309 0.58231
 H389 H 0.22597 0.83941 0.49723
 H390 H 0.24740 0.90996 0.47600
 H391 H 0.21682 0.91038 0.44580
 H392 H 0.19547 0.83936 0.46695
 H393 H 0.32718 0.91281 0.57101
 H394 H 0.35787 0.91295 0.60148
 H395 H 0.35191 0.83640 0.60769
 H396 H 0.32144 0.83632 0.57701
   
