data_POSCAR
  _audit_creation_date              2014-09-24
  _audit_creation_method            'ToBaCCo'
  _symmetry_space_group_name_H-M    'P1'
  _symmetry_Int_Tables_number       1
  _symmetry_cell_setting            triclinic
  loop_
  _symmetry_equiv_pos_as_xyz
 x,y,z
_cell_length_a 18.0554
_cell_length_b 17.5533
_cell_length_c 17.4342
_cell_angle_alpha 90.258100
_cell_angle_beta 89.811500
_cell_angle_gamma 89.586600
loop_
  _atom_site_label
  _atom_site_type_symbol
  _atom_site_fract_x
  _atom_site_fract_y
  _atom_site_fract_z
C1 C 0.27881 1.10693 -0.47942
 C2 C 0.27992 1.10011 -0.55766
 C3 C 0.34537 1.06248 -0.57678
 N4 N 0.38497 1.04727 -0.51291
 C5 C 0.34376 1.07376 -0.45333
 C6 C 0.35994 1.02910 -0.64935
 C7 C 0.43340 1.01498 -0.67481
 C8 C 0.45437 0.96692 -0.73461
 C9 C 0.53067 0.96219 -0.73336
 C10 C 0.55424 1.00738 -0.67277
 N11 N 0.49472 1.04090 -0.63899
 C12 C 0.62781 1.01251 -0.64528
 C13 C 0.64348 1.04386 -0.57223
 C14 C 0.71137 1.07419 -0.55162
 C15 C 0.70992 1.08347 -0.47370
 C16 C 0.64110 1.05899 -0.44922
 N17 N 0.59989 1.03561 -0.50960
 C18 C 0.62323 1.04372 -0.37205
 C19 C 0.54945 1.03752 -0.34725
 C20 C 0.52546 1.00315 -0.28026
 C21 C 0.44902 1.00563 -0.28158
 C22 C 0.42926 1.04182 -0.34915
 N23 N 0.49074 1.06261 -0.38762
 C24 C 0.35688 1.05389 -0.37627
 H25 H 0.23375 1.12994 -0.44513
 H26 H 0.23575 1.11685 -0.59607
 H27 H 0.49272 1.09452 -0.43792
 H28 H 0.41884 0.93471 -0.77234
 H29 H 0.56411 0.92573 -0.76995
 H30 H 0.75821 1.08522 -0.58878
 H31 H 0.75549 1.10248 -0.43841
 H32 H 0.41266 0.98126 -0.23897
 H33 H 0.49588 1.07970 -0.59355
 H34 H 0.55915 0.97665 -0.23650
 C35 C -0.72057 1.55294 0.08853
 C36 C -0.72235 1.47616 0.10129
 C37 C -0.66039 1.44497 0.06523
 N38 N -0.61916 1.50077 0.03325
 C39 C -0.65663 1.56659 0.04697
 C40 C -0.64931 1.36602 0.05054
 C41 C -0.57648 1.33685 0.04115
 C42 C -0.55608 1.26864 0.00608
 C43 C -0.47960 1.26651 0.00457
 C44 C -0.45563 1.33373 0.03793
 N45 N -0.51476 1.37530 0.06138
 C46 C -0.38125 1.35698 0.04440
 C47 C -0.36153 1.43323 0.06008
 C48 C -0.29129 1.45558 0.08237
 C49 C -0.28843 1.53295 0.07326
 C50 C -0.35703 1.55554 0.04578
 N51 N -0.40214 1.49459 0.03850
 C52 C -0.37237 1.62836 0.01522
 C53 C -0.44518 1.65485 0.00264
 C54 C -0.46502 1.71583 -0.04347
 C55 C -0.54138 1.71876 -0.04411
 C56 C -0.56564 1.65976 0.00210
 N57 N -0.50666 1.62251 0.03177
 C58 C -0.63974 1.63723 0.01293
 H59 H -0.76228 1.59414 0.10610
 H60 H -0.76593 1.44610 0.13104
 H61 H -0.50839 1.57817 0.07132
 H62 H -0.59159 1.22662 -0.01992
 H63 H -0.44577 1.22204 -0.02112
 H64 H -0.24565 1.41915 0.09943
 H65 H -0.24029 1.56824 0.08234
 H66 H -0.57467 1.75775 -0.07754
 H67 H -0.51306 1.42667 0.09162
 H68 H -0.42860 1.75240 -0.07588
 C69 C 0.08525 0.46449 0.26009
 C70 C 0.08581 0.38979 0.28102
 C71 C 0.05694 0.38667 0.35468
 N72 N 0.04318 0.45788 0.38123
 C73 C 0.05744 0.50528 0.32214
 C74 C 0.04837 0.31928 0.39779
 C75 C 0.05232 0.32178 0.47877
 C76 C 0.08780 0.26819 0.52409
 C77 C 0.07588 0.28959 0.59902
 C78 C 0.03206 0.35487 0.59764
 N79 N 0.02000 0.37548 0.52391
 C80 C 0.00153 0.39292 0.66248
 C81 C -0.01705 0.47131 0.65813
 C82 C -0.06586 0.50991 0.70639
 C83 C -0.06321 0.58517 0.68622
 C84 C -0.01278 0.59032 0.62642
 N85 N 0.01441 0.52044 0.60829
 C86 C 0.00953 0.65842 0.59025
 C87 C 0.03778 0.65676 0.51434
 C88 C 0.08040 0.71316 0.48058
 C89 C 0.08962 0.69306 0.40499
 C90 C 0.05302 0.62489 0.39472
 N91 N 0.02318 0.60187 0.46189
 C92 C 0.04879 0.58522 0.32463
 H93 H 0.10873 0.48593 0.20741
 H94 H 0.11019 0.34401 0.24752
 H95 H -0.01196 0.55560 0.46945
 H96 H 0.12126 0.22020 0.50533
 H97 H 0.09888 0.26111 0.64847
 H98 H -0.10133 0.48637 0.75028
 H99 H -0.09647 0.63037 0.71135
 H100 H 0.12222 0.72363 0.36318
 H101 H -0.01519 0.41911 0.50562
 H102 H 0.10399 0.76296 0.50753
 O103 O -0.20240 1.00470 -0.10468
 O104 O 0.18169 1.01097 -0.11186
 O105 O -0.01664 1.13467 -0.17253
 O106 O -0.00744 0.93459 -0.21888
 O107 O -0.00217 0.82372 -0.14926
 O108 O -0.01661 1.20438 -0.06039
 O109 O 0.08668 1.02826 -0.19845
 O110 O -0.11135 1.02856 -0.19447
 Zr111 Zr -0.01112 1.02040 -0.13434
 O112 O 0.06027 0.94149 -0.08768
 O113 O -0.07951 1.07174 -0.05526
 C114 C -0.17948 1.01718 -0.17431
 C115 C 0.15586 1.02001 -0.18092
 C116 C -0.01788 1.19851 -0.13452
 C117 C -0.00364 0.86113 -0.21331
 H118 H 0.08571 1.11310 -0.08428
 O119 O 0.05607 1.07442 -0.05721
 H120 H -0.10546 0.91030 -0.12306
 O121 O -0.07522 0.93781 -0.08498
 O122 O 0.18471 0.98285 0.09836
 O123 O -0.19996 0.96881 0.10138
 O124 O 0.08469 1.18431 0.03710
 O125 O 0.09623 0.80526 -0.05159
 O126 O -0.10202 0.79795 -0.04315
 O127 O -0.11308 1.18108 0.03218
 O128 O -0.00426 1.04602 0.21109
 O129 O -0.00275 0.84749 0.16383
 O130 O -0.00685 1.15749 0.14207
 O131 O -0.00168 0.77864 0.05129
 O132 O 0.18120 1.10069 0.01289
 O133 O -0.20311 1.09070 0.01178
 O134 O -0.19668 0.88305 -0.01627
 O135 O 0.18737 0.89323 -0.02617
 O136 O 0.09301 0.95520 0.18622
 O137 O -0.10601 0.94486 0.18737
 Zr138 Zr 0.12473 0.99530 -0.00592
 Zr139 Zr -0.14101 0.98836 -0.00202
 Zr140 Zr -0.01217 1.12083 0.02583
 Zr141 Zr -0.00461 0.86228 -0.03414
 Zr142 Zr -0.00700 0.96183 0.12583
 O143 O -0.07386 0.90713 0.04883
 O144 O 0.05830 1.04484 0.07755
 C145 C 0.16131 0.96789 0.16738
 C146 C -0.17537 0.95245 0.16937
 C147 C 0.15422 1.16844 0.02739
 C148 C 0.16479 0.82481 -0.04342
 C149 C -0.17121 0.81524 -0.03222
 C150 C -0.18096 1.16045 0.02081
 C151 C -0.00206 1.11935 0.20581
 C152 C -0.00025 0.78405 0.12528
 H153 H -0.10841 1.06809 0.11872
 O154 O -0.07726 1.04224 0.07959
 H155 H 0.09504 0.87474 0.07194
 O156 O 0.06226 0.91218 0.04660
 N157 N 0.19013 0.94966 0.30000
 N158 N 0.24091 0.96760 0.35091
 C159 C 0.29852 0.99762 0.31232
 C160 C 0.28131 0.99649 0.23451
 N161 N 0.21253 0.96683 0.22993
 H162 H 0.31205 1.02135 0.18758
 N163 N -0.20538 0.92492 0.30062
 N164 N -0.25612 0.94256 0.35245
 C165 C -0.31256 0.97715 0.31546
 C166 C -0.29483 0.97888 0.23786
 N167 N -0.22691 0.94650 0.23159
 H168 H -0.32396 1.00857 0.19263
 N169 N -0.21186 0.96359 -0.29576
 N170 N -0.26301 0.96840 -0.34929
 C171 C -0.31538 1.01698 -0.32292
 C172 C -0.29508 1.04155 -0.25024
 N173 N -0.22978 1.00682 -0.23616
 H174 H -0.32206 1.08369 -0.21404
 N175 N 0.18372 0.98376 -0.31036
 N176 N 0.23525 0.99141 -0.36340
 C177 C 0.29157 1.02968 -0.33098
 C178 C 0.27312 1.04461 -0.25487
 N179 N 0.20503 1.01506 -0.24503
 H180 H 0.30380 1.07697 -0.21278
 N181 N 0.17225 1.30132 0.00865
 N182 N 0.22233 1.35499 0.01432
 C183 C 0.28646 1.32194 0.03625
 C184 C 0.27346 1.24352 0.04244
 N185 N 0.20097 1.23406 0.02548
 H186 H 0.31058 1.19920 0.06226
 N187 N 0.19398 0.69444 -0.07072
 N188 N 0.24346 0.64188 -0.05315
 C189 C 0.30081 0.67777 -0.01998
 C190 C 0.28481 0.75557 -0.01852
 N191 N 0.21682 0.76300 -0.05009
 H192 H 0.31517 0.80023 0.01029
 N193 N -0.20502 0.68890 -0.07383
 N194 N -0.25697 0.63759 -0.06209
 C195 C -0.30899 0.67081 -0.01723
 C196 C -0.28759 0.74499 -0.00230
 N197 N -0.22220 0.75362 -0.03866
 H198 H -0.31405 0.78634 0.03523
 N199 N -0.21783 1.27749 -0.03843
 N200 N -0.27024 1.33013 -0.03492
 C201 C -0.32051 1.30644 0.01692
 C202 C -0.29737 1.23631 0.04502
 N203 N -0.23276 1.22098 0.00888
 H204 H -0.32194 1.20291 0.09037
 N205 N 0.02277 1.12768 0.34252
 N206 N 0.03869 1.17978 0.39495
 C207 C 0.03728 1.24838 0.36007
 C208 C 0.01640 1.23587 0.28432
 N209 N 0.00929 1.16040 0.27578
 H210 H 0.00454 1.27680 0.23980
 N211 N -0.01641 1.33640 -0.14469
 N212 N -0.01067 1.38972 -0.19773
 C213 C -0.00762 1.35435 -0.26673
 C214 C -0.01278 1.27656 -0.25345
 N215 N -0.01772 1.26814 -0.17696
 H216 H -0.01394 1.23042 -0.29478
 N217 N -0.00558 0.85036 -0.35212
 N218 N -0.00231 0.79734 -0.40620
 C219 C 0.00316 0.72918 -0.37084
 C220 C 0.00317 0.74281 -0.29238
 N221 N -0.00223 0.81876 -0.28352
 H222 H 0.00964 0.70226 -0.24625
 N223 N 0.01173 0.64712 0.13212
 N224 N 0.02727 0.59361 0.18265
 C225 C 0.03648 0.62782 0.25147
 C226 C 0.02275 0.70510 0.24127
 N227 N 0.00861 0.71438 0.16621
 H228 H 0.02199 0.75039 0.28347
   
