data_POSCAR
  _audit_creation_date              2014-09-24
  _audit_creation_method            'ToBaCCo'
  _symmetry_space_group_name_H-M    'P1'
  _symmetry_Int_Tables_number       1
  _symmetry_cell_setting            triclinic
  loop_
  _symmetry_equiv_pos_as_xyz
 x,y,z
_cell_length_a 20.6988
_cell_length_b 20.6673
_cell_length_c 20.4860
_cell_angle_alpha 89.011900
_cell_angle_beta 90.116500
_cell_angle_gamma 89.837800
loop_
  _atom_site_label
  _atom_site_type_symbol
  _atom_site_fract_x
  _atom_site_fract_y
  _atom_site_fract_z
O1 O -0.15513 0.10744 -0.00938
 O2 O 0.17312 0.06409 0.02289
 O3 O 0.00396 0.15450 0.10168
 O4 O 0.02191 0.17274 -0.07968
 O5 O 0.03137 0.09925 -0.16243
 O6 O -0.01623 0.06699 0.17054
 O7 O 0.10535 0.15314 0.01738
 O8 O -0.06820 0.17540 0.00639
 Zr9 Zr 0.01181 0.11283 0.00716
 O10 O 0.07157 0.05628 -0.04849
 O11 O -0.05895 0.05840 0.05354
 C12 C -0.12936 0.16393 0.00053
 C13 C 0.16202 0.12587 0.02230
 C14 C -0.00786 0.12816 0.15888
 C15 C 0.02818 0.15734 -0.14126
 H16 H 0.08167 0.06537 0.10022
 O17 O 0.05503 0.04379 0.06698
 H18 H -0.06734 0.10266 -0.09075
 O19 O -0.04494 0.07035 -0.06262
 O20 O 0.15228 -0.10974 0.00851
 O21 O -0.17511 -0.06553 -0.03219
 O22 O 0.06280 -0.02821 0.17374
 O23 O 0.10876 0.01040 -0.15593
 O24 O -0.06456 0.02293 -0.17968
 O25 O -0.10863 -0.00893 0.15142
 O26 O -0.02546 -0.17603 0.06460
 O27 O -0.01178 -0.15298 -0.11086
 O28 O -0.02098 -0.10769 0.15224
 O29 O 0.01110 -0.06629 -0.17912
 O30 O 0.15103 -0.03045 0.10528
 O31 O -0.17586 0.01253 0.06365
 O32 O -0.15300 0.02330 -0.11147
 O33 O 0.17561 -0.01037 -0.06792
 O34 O 0.06539 -0.17689 -0.01033
 O35 O -0.10694 -0.15405 -0.03011
 Zr36 Zr 0.11112 -0.01554 0.01088
 Zr37 Zr -0.11298 0.01372 -0.01682
 Zr38 Zr -0.01534 -0.01343 0.10936
 Zr39 Zr 0.01444 0.01116 -0.11565
 Zr40 Zr -0.01399 -0.11322 -0.01622
 O41 O -0.05772 -0.04487 -0.07510
 O42 O 0.04277 -0.07283 0.05541
 C43 C 0.12627 -0.16619 -0.00063
 C44 C -0.16390 -0.12730 -0.03438
 C45 C 0.12415 -0.03271 0.16260
 C46 C 0.16521 0.00183 -0.12916
 C47 C -0.12617 0.02404 -0.16885
 C48 C -0.16494 0.00223 0.12519
 C49 C -0.02298 -0.16491 0.12654
 C50 C -0.00114 -0.12646 -0.16790
 H51 H -0.10477 -0.08508 0.06400
 O52 O -0.07227 -0.05770 0.04164
 H53 H 0.08583 -0.08720 -0.08818
 O54 O 0.05804 -0.06001 -0.06054
 O55 O 0.34801 0.60740 -0.02795
 O56 O 0.67626 0.56563 0.00775
 O57 O 0.51177 0.67680 0.06280
 O58 O 0.52886 0.65225 -0.10961
 O59 O 0.52908 0.56387 -0.17686
 O60 O 0.49004 0.61099 0.15209
 O61 O 0.60968 0.65258 -0.01628
 O62 O 0.43639 0.67524 -0.02898
 Zr63 Zr 0.51553 0.61215 -0.01538
 O64 O 0.57274 0.54295 -0.05739
 O65 O 0.44371 0.57318 0.04274
 C66 C 0.37483 0.66424 -0.03039
 C67 C 0.66612 0.62618 -0.00669
 C68 C 0.50054 0.66718 0.12440
 C69 C 0.53140 0.62555 -0.16641
 H70 H 0.58664 0.58729 0.08490
 O71 O 0.55881 0.55911 0.05840
 H72 H 0.43470 0.58292 -0.10704
 O73 O 0.45673 0.55659 -0.07289
 O74 O 0.65187 0.39307 0.03495
 O75 O 0.32478 0.43453 -0.01071
 O76 O 0.56601 0.51287 0.17839
 O77 O 0.60720 0.47280 -0.15127
 O78 O 0.43392 0.48440 -0.17559
 O79 O 0.39436 0.53261 0.15394
 O80 O 0.47669 0.34842 0.11124
 O81 O 0.48476 0.32516 -0.06291
 O82 O 0.47653 0.43671 0.17870
 O83 O 0.50613 0.39132 -0.15213
 O84 O 0.65317 0.49277 0.11165
 O85 O 0.32615 0.53220 0.06467
 O86 O 0.34674 0.50283 -0.10831
 O87 O 0.67508 0.47145 -0.06167
 O88 O 0.56339 0.32534 0.03454
 O89 O 0.39144 0.34732 0.01210
 Zr90 Zr 0.61226 0.48663 0.01693
 Zr91 Zr 0.38829 0.51379 -0.01434
 Zr92 Zr 0.48707 0.51642 0.11366
 Zr93 Zr 0.51354 0.48491 -0.11186
 Zr94 Zr 0.48515 0.38859 0.01658
 O95 O 0.44166 0.44174 -0.05701
 O96 O 0.54343 0.44390 0.07523
 C97 C 0.62483 0.33630 0.03869
 C98 C 0.33525 0.37351 0.00032
 C99 C 0.62707 0.50365 0.16823
 C100 C 0.66384 0.46960 -0.12374
 C101 C 0.37262 0.49058 -0.16472
 C102 C 0.33766 0.53671 0.12664
 C103 C 0.47663 0.37499 0.16814
 C104 C 0.49373 0.33541 -0.12483
 H105 H 0.39571 0.43663 0.08741
 O106 O 0.42858 0.45766 0.05933
 H107 H 0.58316 0.39452 -0.06173
 O108 O 0.55665 0.42826 -0.04099
 O109 O -0.15526 0.60618 0.49646
 O110 O 0.17394 0.56564 0.52901
 O111 O 0.00304 0.65408 0.60756
 O112 O 0.02692 0.67496 0.43369
 O113 O 0.02670 0.60631 0.34609
 O114 O -0.01753 0.56725 0.67640
 O115 O 0.10493 0.65365 0.52511
 O116 O -0.06879 0.67446 0.51248
 Zr117 Zr 0.01185 0.61242 0.51421
 O118 O 0.07208 0.55732 0.45763
 O119 O -0.05969 0.55884 0.55897
 C120 C -0.13004 0.66289 0.50698
 C121 C 0.16200 0.62721 0.52903
 C122 C -0.00950 0.62801 0.66439
 C123 C 0.02905 0.66343 0.37185
 H124 H 0.08226 0.56682 0.60687
 O125 O 0.05614 0.54486 0.57346
 H126 H -0.06689 0.60346 0.41553
 O127 O -0.04441 0.57079 0.44319
 O128 O 0.15491 0.39208 0.51381
 O129 O -0.17222 0.43240 0.47172
 O130 O 0.06319 0.47380 0.67901
 O131 O 0.10953 0.51350 0.34897
 O132 O -0.06335 0.52233 0.32507
 O133 O -0.10895 0.49329 0.65527
 O134 O -0.01721 0.32684 0.57910
 O135 O -0.00755 0.34559 0.39609
 O136 O -0.02442 0.40003 0.66219
 O137 O 0.01277 0.43321 0.32741
 O138 O 0.15195 0.47100 0.61125
 O139 O -0.17616 0.51110 0.56690
 O140 O -0.15203 0.52284 0.39306
 O141 O 0.17637 0.49226 0.43706
 O142 O 0.06881 0.32357 0.49621
 O143 O -0.10330 0.34423 0.47670
 Zr144 Zr 0.11244 0.48582 0.51672
 Zr145 Zr -0.11202 0.51291 0.48789
 Zr146 Zr -0.01505 0.48852 0.61449
 Zr147 Zr 0.01543 0.51285 0.38954
 Zr148 Zr -0.01119 0.38618 0.49138
 O149 O -0.05493 0.45479 0.43125
 O150 O 0.04449 0.42866 0.56218
 C151 C 0.12959 0.33523 0.50505
 C152 C -0.16010 0.37080 0.47006
 C153 C 0.12466 0.46917 0.66838
 C154 C 0.16598 0.50486 0.37576
 C155 C -0.12494 0.52337 0.33585
 C156 C -0.16536 0.50248 0.62857
 C157 C -0.01965 0.34202 0.64097
 C158 C 0.00232 0.37230 0.33867
 H159 H -0.10325 0.41456 0.56980
 O160 O -0.07095 0.44212 0.54732
 H161 H 0.08746 0.41473 0.41822
 O162 O 0.05917 0.44151 0.44572
 O163 O 0.34955 0.10845 0.47100
 O164 O 0.67712 0.06199 0.50821
 O165 O 0.51353 0.17462 0.56333
 O166 O 0.53139 0.15215 0.39075
 O167 O 0.53043 0.06481 0.32211
 O168 O 0.49074 0.10806 0.65184
 O169 O 0.61158 0.14993 0.48485
 O170 O 0.43872 0.17524 0.47110
 Zr171 Zr 0.51695 0.11092 0.48421
 O172 O 0.57349 0.04164 0.44134
 O173 O 0.44438 0.07214 0.54132
 C174 C 0.37703 0.16500 0.46949
 C175 C 0.66761 0.12283 0.49491
 C176 C 0.50189 0.16434 0.62476
 C177 C 0.53360 0.12628 0.33356
 H178 H 0.58728 0.08384 0.58440
 O179 O 0.55936 0.05636 0.55726
 H180 H 0.43622 0.08404 0.39181
 O181 O 0.45776 0.05688 0.42561
 O182 O 0.65105 -0.11052 0.53104
 O183 O 0.32431 -0.06477 0.48583
 O184 O 0.56536 0.00894 0.67662
 O185 O 0.60728 -0.02738 0.34613
 O186 O 0.43446 -0.01347 0.32169
 O187 O 0.39403 0.03132 0.65129
 O188 O 0.47532 -0.15359 0.60773
 O189 O 0.48272 -0.17487 0.43331
 O190 O 0.47474 -0.06587 0.67590
 O191 O 0.50513 -0.10813 0.34475
 O192 O 0.65239 -0.01256 0.60995
 O193 O 0.32619 0.03252 0.56171
 O194 O 0.34719 0.00572 0.38877
 O195 O 0.67500 -0.03031 0.43584
 O196 O 0.56175 -0.17705 0.52959
 O197 O 0.39011 -0.15263 0.50869
 Zr198 Zr 0.61218 -0.01624 0.51490
 Zr199 Zr 0.38856 0.01407 0.48315
 Zr200 Zr 0.48683 0.01416 0.61170
 Zr201 Zr 0.51378 -0.01496 0.38584
 Zr202 Zr 0.48411 -0.11248 0.51332
 O203 O 0.44134 -0.05808 0.44001
 O204 O 0.54272 -0.05861 0.57277
 C205 C 0.62340 -0.16705 0.53354
 C206 C 0.33419 -0.12590 0.49698
 C207 C 0.62611 -0.00159 0.66635
 C208 C 0.66389 -0.03119 0.37365
 C209 C 0.37331 -0.00597 0.33241
 C210 C 0.33754 0.03642 0.62370
 C211 C 0.47465 -0.12746 0.66487
 C212 C 0.49191 -0.16410 0.37157
 H213 H 0.39481 -0.06415 0.58427
 O214 O 0.42799 -0.04328 0.55645
 H215 H 0.58223 -0.10664 0.43478
 O216 O 0.55604 -0.07302 0.45609
 C217 C 0.21965 0.16723 0.02723
 C218 C 0.21841 0.23088 0.01503
 C219 C 0.27844 0.26919 0.01593
 C220 C 0.27736 0.33216 0.00023
 H221 H 0.17320 0.25468 0.00250
 H222 H 0.32363 0.24570 0.02912
 H223 H 0.26545 0.14378 0.03814
 H224 H 0.23166 0.35491 -0.01255
 C225 C 0.21900 -0.33062 0.53325
 C226 C 0.21728 -0.26766 0.51758
 C227 C 0.27702 -0.22901 0.51689
 C228 C 0.27612 -0.16696 0.49761
 H229 H 0.17206 -0.24496 0.50309
 H230 H 0.32205 -0.25163 0.53211
 H231 H 0.26490 -0.35313 0.54565
 H232 H 0.23064 -0.14477 0.48315
 C233 C 0.78147 0.83302 -0.03871
 C234 C 0.78334 0.76839 -0.03167
 C235 C 0.72305 0.73005 -0.02860
 C236 C 0.72447 0.66707 -0.01215
 H237 H 0.82916 0.74366 -0.02454
 H238 H 0.67723 0.75389 -0.03830
 H239 H 0.73473 0.85651 -0.04370
 H240 H 0.77071 0.64410 -0.00220
 C241 C 0.78311 0.32859 0.46264
 C242 C 0.78483 0.26490 0.47512
 C243 C 0.72503 0.22614 0.47474
 C244 C 0.72606 0.16348 0.49204
 H245 H 0.83005 0.24164 0.48862
 H246 H 0.67972 0.24943 0.46157
 H247 H 0.73724 0.35152 0.45095
 H248 H 0.77179 0.14079 0.50479
 C249 C 0.82866 0.22131 0.00487
 C250 C 0.76645 0.21882 0.02179
 C251 C 0.72852 0.27918 0.02660
 C252 C 0.66637 0.27834 0.04399
 H253 H 0.74372 0.17260 0.03224
 H254 H 0.75105 0.32465 0.01259
 H255 H 0.85112 0.26817 -0.00293
 H256 H 0.64361 0.23247 0.05595
 C257 C 0.82978 -0.28299 0.51323
 C258 C 0.76535 -0.28534 0.51810
 C259 C 0.72774 -0.22481 0.52497
 C260 C 0.66423 -0.22582 0.53671
 H261 H 0.74036 -0.33137 0.51756
 H262 H 0.75206 -0.17885 0.51780
 H263 H 0.85307 -0.23618 0.51688
 H264 H 0.64023 -0.27208 0.54299
 C265 C 0.17210 0.27813 0.50344
 C266 C 0.23486 0.28132 0.48893
 C267 C 0.27341 0.22149 0.48413
 C268 C 0.33578 0.22323 0.46765
 H269 H 0.25745 0.32780 0.47941
 H270 H 0.25081 0.17553 0.49613
 H271 H 0.14976 0.23109 0.51029
 H272 H 0.35851 0.26951 0.45746
 C273 C 0.16822 0.77629 -0.00181
 C274 C 0.23138 0.77938 -0.01447
 C275 C 0.27023 0.71969 -0.01833
 C276 C 0.33297 0.72196 -0.03322
 H277 H 0.25429 0.82587 -0.02300
 H278 H 0.24761 0.67362 -0.00691
 H279 H 0.14547 0.72935 0.00411
 H280 H 0.35548 0.76843 -0.04304
 C281 C -0.01162 0.16869 0.21747
 C282 C -0.00269 0.23255 0.21755
 C283 C -0.00590 0.26840 0.27949
 C284 C 0.00331 0.33223 0.27965
 H285 H 0.00754 0.25832 0.17222
 H286 H -0.01534 0.24251 0.32494
 H287 H -0.02169 0.14400 0.26349
 H288 H 0.01261 0.35706 0.23354
 C289 C 0.49008 0.27769 0.83389
 C290 C 0.49765 0.27977 0.76912
 C291 C 0.49436 0.22009 0.73061
 C292 C 0.50281 0.22221 0.66595
 H293 H 0.50673 0.32558 0.74429
 H294 H 0.48563 0.17420 0.75542
 H295 H 0.48093 0.23150 0.85801
 H296 H 0.51174 0.26850 0.64196
 C297 C -0.00144 0.83348 0.77425
 C298 C -0.01129 0.77025 0.77728
 C299 C -0.00796 0.73259 0.71776
 C300 C -0.01450 0.66895 0.72136
 H301 H -0.02045 0.74607 0.82375
 H302 H 0.00100 0.75675 0.67123
 H303 H 0.00796 0.85691 0.72742
 H304 H -0.02339 0.64554 0.76831
 C305 C 0.50119 -0.27765 0.16285
 C306 C 0.49196 -0.27911 0.22744
 C307 C 0.49553 -0.21931 0.26549
 C308 C 0.48757 -0.22142 0.33011
 H309 H 0.48261 -0.32460 0.25285
 H310 H 0.50535 -0.17365 0.24065
 H311 H 0.51053 -0.23142 0.13882
 H312 H 0.47774 -0.26754 0.35410
 C313 C -0.02014 0.78014 0.16717
 C314 C -0.00271 0.78156 0.23007
 C315 C 0.00563 0.72077 0.26812
 C316 C 0.02979 0.72112 0.32863
 H317 H 0.00797 0.82722 0.25302
 H318 H -0.01031 0.67564 0.24727
 H319 H -0.02708 0.73341 0.14486
 H320 H 0.04369 0.76680 0.34974
 C321 C 0.53215 -0.33134 0.77580
 C322 C 0.50833 -0.27118 0.77838
 C323 C 0.50126 -0.23058 0.71925
 C324 C 0.47646 -0.17087 0.72234
 H325 H 0.49149 -0.25229 0.82442
 H326 H 0.51791 -0.24918 0.67302
 H327 H 0.54629 -0.35115 0.72929
 H328 H 0.46241 -0.15159 0.76913
 C329 C 0.47955 0.33174 0.22567
 C330 C 0.50425 0.27202 0.22185
 C331 C 0.51175 0.23072 0.28036
 C332 C 0.53475 0.17032 0.27655
 H333 H 0.52019 0.25368 0.17526
 H334 H 0.49555 0.24915 0.32682
 H335 H 0.46615 0.35086 0.27271
 H336 H 0.54819 0.15106 0.22958
 C337 C 0.02716 0.20389 0.80827
 C338 C 0.00421 0.26383 0.81378
 C339 C -0.00659 0.30810 0.75675
 C340 C -0.01356 0.29115 0.69313
 H341 H -0.00799 0.28182 0.86159
 H342 H -0.01017 0.35855 0.76963
 H343 H 0.03896 0.18717 0.75987
 H344 H -0.01206 0.24101 0.67899
 C345 C 0.16586 -0.03723 0.22079
 C346 C 0.22927 -0.02598 0.21817
 C347 C 0.26810 -0.02153 0.27824
 C348 C 0.33150 -0.01067 0.27462
 H349 H 0.25242 -0.01711 0.17144
 H350 H 0.24483 -0.02693 0.32539
 H351 H 0.14290 -0.04463 0.26786
 H352 H 0.35439 -0.00749 0.22709
 C353 C 0.33271 0.48330 0.78097
 C354 C 0.26830 0.48056 0.78423
 C355 C 0.22981 0.47364 0.72423
 C356 C 0.16591 0.46578 0.72694
 H357 H 0.24377 0.48346 0.83083
 H358 H 0.25378 0.47786 0.67734
 H359 H 0.35573 0.47769 0.73383
 H360 H 0.14239 0.46219 0.77412
 C361 C 0.83427 0.02425 0.77605
 C362 C 0.77024 0.01717 0.77951
 C363 C 0.73135 0.01070 0.71999
 C364 C 0.66780 0.00145 0.72412
 H365 H 0.74628 0.01366 0.82649
 H366 H 0.75463 0.01422 0.67268
 H367 H 0.85713 0.02626 0.72842
 H368 H 0.64486 -0.00013 0.77168
 C369 C -0.33328 0.50764 0.22317
 C370 C -0.26877 0.50827 0.22036
 C371 C -0.23020 0.51480 0.28036
 C372 C -0.16638 0.52333 0.27739
 H373 H -0.24413 0.50527 0.17382
 H374 H -0.25415 0.51126 0.32732
 H375 H -0.35642 0.51329 0.27025
 H376 H -0.14304 0.52652 0.23009
 C377 C 0.22310 0.00567 0.82955
 C378 C 0.22185 0.02694 0.76770
 C379 C 0.28165 0.02861 0.72902
 C380 C 0.28044 0.04394 0.66550
 H381 H 0.17666 0.04204 0.74522
 H382 H 0.32662 0.01357 0.75202
 H383 H 0.26886 -0.00853 0.85147
 H384 H 0.23488 0.05661 0.64230
 C385 C 0.28056 0.54387 0.16876
 C386 C 0.28216 0.53008 0.23271
 C387 C 0.22242 0.52853 0.27178
 C388 C 0.22395 0.50903 0.33430
 H389 H 0.32744 0.51640 0.25590
 H390 H 0.17696 0.54214 0.24896
 H391 H 0.23470 0.55528 0.14554
 H392 H 0.26993 0.49608 0.35649
 C393 C 0.77768 0.00175 0.16729
 C394 C 0.77915 -0.01850 0.22945
 C395 C 0.71964 -0.01952 0.26852
 C396 C 0.72119 -0.03586 0.33176
 H397 H 0.82422 -0.03438 0.25162
 H398 H 0.67452 -0.00449 0.24582
 H399 H 0.73205 0.01670 0.14560
 H400 H 0.76690 -0.04866 0.35458
 C401 C -0.27896 0.46457 0.83453
 C402 C -0.28069 0.48040 0.77127
 C403 C -0.22120 0.48171 0.73244
 C404 C -0.22282 0.50166 0.67029
 H405 H -0.32589 0.49502 0.74845
 H406 H -0.17602 0.46637 0.75479
 H407 H -0.23318 0.45223 0.85747
 H408 H -0.26855 0.51592 0.64834
   
