data_POSCAR
  _audit_creation_date              2014-09-24
  _audit_creation_method            'ToBaCCo'
  _symmetry_space_group_name_H-M    'P1'
  _symmetry_Int_Tables_number       1
  _symmetry_cell_setting            triclinic
  loop_
  _symmetry_equiv_pos_as_xyz
 x,y,z
_cell_length_a 43.0232
_cell_length_b 43.7997
_cell_length_c 21.1177
_cell_angle_alpha 90.046800
_cell_angle_beta 90.056000
_cell_angle_gamma 124.548000
loop_
  _atom_site_label
  _atom_site_type_symbol
  _atom_site_fract_x
  _atom_site_fract_y
  _atom_site_fract_z
C1 C 0.50189 1.07481 0.44186
 C2 C 0.50776 1.09225 0.50081
 C3 C 0.50227 1.07379 0.55858
 C4 C 0.48867 1.03555 0.55707
 C5 C 0.48104 1.01689 0.49809
 C6 C 0.48726 1.03642 0.44055
 C7 C 0.47748 1.01660 0.38308
 C8 C 0.46441 0.97952 0.38158
 C9 C 0.45929 0.95996 0.43751
 C10 C 0.46716 0.97848 0.49650
 C11 C 0.48142 1.01495 0.61294
 C12 C 0.46904 0.97800 0.61129
 C13 C 0.46117 0.95870 0.55372
 C14 C 0.44851 0.92065 0.55152
 C15 C 0.44233 0.90368 0.49191
 C16 C 0.44675 0.92241 0.43557
 H17 H 0.47896 1.02902 0.33807
 H18 H 0.45851 0.96644 0.33557
 H19 H 0.48471 1.02659 0.65947
 H20 H 0.46625 0.96535 0.65658
 H21 H 0.52124 1.12184 0.50159
 H22 H 0.43070 0.87441 0.48849
 C23 C -0.07667 0.45142 0.44348
 C24 C -0.09653 0.44185 0.50057
 C25 C -0.07812 0.45178 0.55970
 C26 C -0.03791 0.47199 0.56094
 C27 C -0.01748 0.48099 0.50319
 C28 C -0.03700 0.47041 0.44447
 C29 C -0.01644 0.47840 0.38804
 C30 C 0.02249 0.49637 0.38899
 C31 C 0.04256 0.50733 0.44638
 C32 C 0.02262 0.50028 0.50403
 C33 C -0.01748 0.48188 0.61819
 C34 C 0.02162 0.50163 0.61891
 C35 C 0.04259 0.51196 0.56248
 C36 C 0.08264 0.53150 0.56300
 C37 C 0.10141 0.53738 0.50518
 C38 C 0.08213 0.52561 0.44745
 H39 H -0.03028 0.47018 0.34236
 H40 H 0.03667 0.50174 0.34397
 H41 H -0.03106 0.47384 0.66382
 H42 H 0.03483 0.50720 0.66488
 H43 H -0.12664 0.42902 0.49808
 H44 H 0.13186 0.55250 0.50408
 C45 C 0.47380 0.54381 0.56274
 C46 C 0.45924 0.54669 0.50509
 C47 C 0.46589 0.53561 0.44747
 C48 C 0.48722 0.52025 0.44653
 C49 C 0.50176 0.51626 0.50396
 C50 C 0.49537 0.52831 0.56212
 C51 C 0.50971 0.52324 0.61811
 C52 C 0.53012 0.50759 0.61722
 C53 C 0.53639 0.49488 0.56059
 C54 C 0.52279 0.50015 0.50311
 C55 C 0.49530 0.50976 0.38931
 C56 C 0.51646 0.49486 0.38837
 C57 C 0.53006 0.48931 0.44470
 C58 C 0.55138 0.47390 0.44378
 C59 C 0.56465 0.46894 0.50072
 C60 C 0.55673 0.47809 0.55966
 H61 H 0.50517 0.53070 0.66414
 H62 H 0.54140 0.50644 0.66212
 H63 H 0.48582 0.51341 0.34429
 H64 H 0.52228 0.48807 0.34261
 H65 H 0.44361 0.55919 0.50383
 H66 H 0.57848 0.45465 0.49861
 O67 O 0.39983 0.65381 -0.05377
 O68 O 0.40236 0.71252 -0.08593
 C69 C 0.38628 0.72830 -0.10092
 O70 O 0.35995 0.72546 -0.06840
 O71 O 0.29447 0.66141 -0.07113
 C72 C 0.27543 0.62634 -0.07472
 O73 O 0.28000 0.60640 -0.03755
 O74 O 0.33923 0.60623 -0.05684
 C75 C 0.37285 0.62298 -0.07630
 O76 O 0.40679 0.67448 0.06911
 O77 O 0.41204 0.73440 0.03703
 C78 C 0.39159 0.74189 0.06729
 O79 O 0.35632 0.72483 0.05878
 O80 O 0.28963 0.66302 0.05598
 C81 C 0.28335 0.63758 0.09368
 O82 O 0.29745 0.61906 0.08676
 O83 O 0.35590 0.61611 0.06814
 C84 C 0.38758 0.64188 0.09098
 Cr85 Cr 0.40313 0.69276 -0.00807
 Cr86 Cr 0.32600 0.69263 -0.00599
 Cr87 Cr 0.31938 0.61404 0.01470
 O88 O 0.34953 0.66647 0.00037
 O89 O 0.62193 0.36424 -0.05512
 O90 O 0.59525 0.29475 -0.07311
 C91 C 0.60050 0.26976 -0.08570
 O92 O 0.62290 0.26536 -0.05435
 O93 O 0.69448 0.31426 -0.07375
 C94 C 0.72173 0.34709 -0.08627
 O95 O 0.72908 0.37505 -0.05424
 O96 O 0.68389 0.39578 -0.07295
 C97 C 0.65135 0.38772 -0.08621
 O98 O 0.61856 0.35322 0.07101
 O99 O 0.58932 0.28306 0.05395
 C100 C 0.60351 0.26869 0.08441
 O101 O 0.63532 0.27479 0.07134
 O102 O 0.70753 0.32123 0.05278
 C103 C 0.72441 0.35147 0.08369
 O104 O 0.72060 0.37752 0.07177
 O105 O 0.67780 0.40132 0.05364
 C106 C 0.64679 0.38562 0.08362
 Cr107 Cr 0.60821 0.32420 -0.00078
 Cr108 Cr 0.66484 0.29550 -0.00095
 Cr109 Cr 0.70111 0.38545 -0.00040
 O110 O 0.65803 0.33505 -0.00038
 C111 C 0.43963 0.89899 -0.39297
 C112 C 0.43828 0.86630 -0.38982
 C113 C 0.42586 0.84315 -0.33250
 N114 N 0.43173 0.81591 -0.32714
 N115 N 0.42018 0.79439 -0.27594
 C116 C 0.40208 0.79918 -0.22837
 N117 N 0.39599 0.82625 -0.23392
 N118 N 0.40773 0.84789 -0.28496
 C119 C 0.38876 0.77548 -0.17177
 C120 C 0.39927 0.75134 -0.15835
 H121 H 0.44836 0.85810 -0.42877
 H122 H 0.37099 0.77793 -0.13882
 H123 H 0.43350 0.90758 -0.34960
 H124 H 0.41853 0.75018 -0.18962
 C125 C 0.10410 0.54646 -0.38078
 C126 C 0.13939 0.55244 -0.37227
 C127 C 0.16232 0.57020 -0.31529
 N128 N 0.18778 0.56294 -0.29749
 N129 N 0.20957 0.57948 -0.24692
 C130 C 0.20708 0.60428 -0.21276
 N131 N 0.18192 0.61193 -0.23098
 N132 N 0.15974 0.59501 -0.28118
 C133 C 0.23193 0.62323 -0.15801
 C134 C 0.24713 0.60711 -0.12496
 H135 H 0.14948 0.54123 -0.40576
 H136 H 0.23799 0.64977 -0.14317
 H137 H 0.09280 0.55281 -0.34115
 H138 H 0.23794 0.57904 -0.13650
 C139 C 0.46787 0.55763 -0.38116
 C140 C 0.43704 0.55992 -0.37201
 C141 C 0.43203 0.57506 -0.31376
 N142 N 0.39762 0.56764 -0.29998
 N143 N 0.39247 0.58130 -0.24779
 C144 C 0.42161 0.60313 -0.20757
 N145 N 0.45617 0.61087 -0.22161
 N146 N 0.46126 0.59695 -0.27364
 C147 C 0.41616 0.61901 -0.15069
 C148 C 0.38012 0.60552 -0.12828
 H149 H 0.41411 0.54763 -0.40589
 H150 H 0.44075 0.64164 -0.12640
 H151 H 0.48708 0.56602 -0.34177
 H152 H 0.35587 0.58152 -0.15082
 C153 C 0.51366 0.09437 -0.38409
 C154 C 0.51735 0.12802 -0.37554
 C155 C 0.53309 0.14994 -0.31693
 N156 N 0.53207 0.18001 -0.30739
 N157 N 0.54710 0.20063 -0.25533
 C158 C 0.56383 0.19199 -0.21099
 N159 N 0.56489 0.16197 -0.22059
 N160 N 0.54976 0.14130 -0.27250
 C161 C 0.58182 0.21513 -0.15433
 C162 C 0.57963 0.24488 -0.13943
 H163 H 0.50737 0.13825 -0.41120
 H164 H 0.59776 0.20879 -0.12398
 H165 H 0.52051 0.08426 -0.34360
 H166 H 0.56278 0.25060 -0.16863
 C167 C 0.90034 0.44340 -0.38432
 C168 C 0.86215 0.41430 -0.37912
 C169 C 0.84074 0.40728 -0.32033
 N170 N 0.80662 0.37474 -0.31265
 N171 N 0.78678 0.36807 -0.25989
 C172 C 0.80027 0.39381 -0.21296
 N173 N 0.83428 0.42645 -0.22079
 N174 N 0.85421 0.43303 -0.27340
 C175 C 0.77822 0.38735 -0.15526
 C176 C 0.74567 0.35276 -0.14084
 H177 H 0.84790 0.39445 -0.41716
 H178 H 0.78780 0.41054 -0.12355
 H179 H 0.91363 0.45943 -0.34196
 H180 H 0.73702 0.32922 -0.17112
 C181 C 0.56608 0.46763 -0.38378
 C182 C 0.59394 0.46062 -0.37871
 C183 C 0.59956 0.44634 -0.31982
 N184 N 0.63103 0.44661 -0.31205
 N185 N 0.63606 0.43311 -0.25945
 C186 C 0.60968 0.41864 -0.21283
 N187 N 0.57814 0.41820 -0.22075
 N188 N 0.57322 0.43188 -0.27317
 C189 C 0.61414 0.40249 -0.15541
 C190 C 0.64786 0.40651 -0.14067
 H191 H 0.61338 0.46722 -0.41717
 H192 H 0.59010 0.38685 -0.12412
 H193 H 0.55079 0.46431 -0.34096
 H194 H 0.67238 0.42352 -0.17045
 C195 C 0.90222 0.44428 0.38354
 C196 C 0.86771 0.41086 0.37164
 C197 C 0.84474 0.40555 0.31569
 N198 N 0.81479 0.37111 0.29988
 N199 N 0.79303 0.36613 0.25052
 C200 C 0.80027 0.39549 0.21548
 N201 N 0.83010 0.42993 0.23148
 N202 N 0.85201 0.43488 0.28053
 C203 C 0.77584 0.39070 0.16220
 C204 C 0.74954 0.35611 0.13567
 H205 H 0.85719 0.38803 0.40446
 H206 H 0.77917 0.41525 0.14260
 H207 H 0.91392 0.46611 0.34845
 H208 H 0.74789 0.33186 0.15243
 C209 C 0.51434 0.09640 0.38585
 C210 C 0.51921 0.13065 0.37893
 C211 C 0.53689 0.15342 0.32186
 N212 N 0.53268 0.18111 0.30773
 N213 N 0.54930 0.20227 0.25679
 C214 C 0.57100 0.19666 0.21850
 N215 N 0.57543 0.16919 0.23295
 N216 N 0.55858 0.14787 0.28350
 C217 C 0.59080 0.22047 0.16350
 C218 C 0.58182 0.24379 0.13749
 H219 H 0.50858 0.14045 0.41420
 H220 H 0.61286 0.21908 0.14213
 H221 H 0.52127 0.08647 0.34506
 H222 H 0.55810 0.24344 0.15581
 C223 C 0.55709 0.45931 0.38472
 C224 C 0.59158 0.46500 0.36983
 C225 C 0.59614 0.44748 0.31443
 N226 N 0.63104 0.45737 0.29689
 N227 N 0.63538 0.44091 0.24788
 C228 C 0.60492 0.41379 0.21489
 N229 N 0.57005 0.40384 0.23255
 N230 N 0.56573 0.42043 0.28129
 C231 C 0.60886 0.39437 0.16199
 C232 C 0.64365 0.40631 0.13530
 H233 H 0.61590 0.48273 0.39977
 H234 H 0.58333 0.37004 0.14299
 H235 H 0.53343 0.44334 0.35271
 H236 H 0.66905 0.43171 0.15182
 C237 C 0.10439 0.53237 0.38924
 C238 C 0.13719 0.56712 0.37687
 C239 C 0.16246 0.57399 0.32391
 N240 N 0.18956 0.60934 0.30706
 N241 N 0.21352 0.61624 0.26044
 C242 C 0.21155 0.58803 0.22937
 N243 N 0.18464 0.55263 0.24658
 N244 N 0.16044 0.54571 0.29292
 C245 C 0.23798 0.59552 0.17787
 C246 C 0.25827 0.62972 0.14743
 H247 H 0.14466 0.59025 0.40739
 H248 H 0.24002 0.57327 0.16146
 H249 H 0.09498 0.50979 0.35622
 H250 H 0.25368 0.65079 0.16059
 C251 C 0.43504 0.90107 0.37560
 C252 C 0.44726 0.87873 0.35899
 C253 C 0.43354 0.85560 0.30159
 N254 N 0.45053 0.83911 0.28120
 N255 N 0.43760 0.81718 0.23034
 C256 C 0.40705 0.81081 0.19826
 N257 N 0.39001 0.82722 0.21877
 N258 N 0.40310 0.84933 0.26933
 C259 C 0.39105 0.78506 0.14430
 C260 C 0.40998 0.77149 0.11519
 H261 H 0.46760 0.87840 0.38874
 H262 H 0.36320 0.77600 0.12785
 H263 H 0.41660 0.90325 0.34385
 H264 H 0.43867 0.78211 0.12906
 C265 C 0.45004 0.54058 0.38902
 C266 C 0.45445 0.57407 0.37644
 C267 C 0.43775 0.57990 0.32098
 N268 N 0.44736 0.61452 0.30774
 N269 N 0.43215 0.62048 0.25847
 C270 C 0.40653 0.59198 0.22073
 N271 N 0.39672 0.55727 0.23414
 N272 N 0.41210 0.55132 0.28332
 C273 C 0.38948 0.59843 0.16637
 C274 C 0.40348 0.63418 0.14536
 H275 H 0.47131 0.59727 0.40834
 H276 H 0.36622 0.57471 0.14160
 H277 H 0.43540 0.51801 0.35532
 H278 H 0.42796 0.65766 0.16843
   
