data_POSCAR
  _audit_creation_date              2014-09-24
  _audit_creation_method            'ToBaCCo'
  _symmetry_space_group_name_H-M    'P1'
  _symmetry_Int_Tables_number       1
  _symmetry_cell_setting            triclinic
  loop_
  _symmetry_equiv_pos_as_xyz
 x,y,z
_cell_length_a 26.5315
_cell_length_b 26.4078
_cell_length_c 43.5950
_cell_angle_alpha 89.128100
_cell_angle_beta 87.747300
_cell_angle_gamma 87.620000
loop_
  _atom_site_label
  _atom_site_type_symbol
  _atom_site_fract_x
  _atom_site_fract_y
  _atom_site_fract_z
C1 C -0.00995 0.63845 1.00390
 C2 C -0.00961 0.61032 1.03180
 C3 C -0.00880 0.55692 1.03000
 C4 C -0.00116 0.53182 1.00189
 C5 C 0.00190 0.56140 0.97488
 C6 C -0.00597 0.61450 0.97508
 C7 C 0.00475 0.47496 1.00060
 C8 C -0.00495 0.44910 0.97349
 C9 C 0.00490 0.39662 0.97091
 C10 C 0.02024 0.36888 0.99684
 C11 C 0.02692 0.39296 1.02474
 C12 C 0.02103 0.44600 1.02612
 H13 H -0.01317 0.67908 1.00452
 H14 H -0.01555 0.53467 1.05058
 H15 H 0.01252 0.54309 0.95350
 H16 H -0.02041 0.46948 0.95410
 H17 H 0.02834 0.32846 0.99525
 H18 H 0.02891 0.46420 1.04733
 C19 C 0.36817 -0.01756 0.49732
 C20 C 0.39149 -0.02065 0.52566
 C21 C 0.44393 -0.01475 0.52637
 C22 C 0.47274 -0.00268 0.49948
 C23 C 0.44723 0.00334 0.47176
 C24 C 0.39578 -0.00608 0.47027
 C25 C 0.52910 0.00241 0.49998
 C26 C 0.55934 -0.00316 0.47293
 C27 C 0.61172 0.00370 0.47224
 C28 C 0.63490 0.00965 0.50049
 C29 C 0.60639 0.01222 0.52857
 C30 C 0.55325 0.01178 0.52737
 H31 H 0.32859 -0.02556 0.49617
 H32 H 0.46183 -0.01954 0.54806
 H33 H 0.46685 0.01547 0.45092
 H34 H 0.54250 -0.01507 0.45225
 H35 H 0.67525 0.01218 0.50053
 H36 H 0.53055 0.02040 0.54782
 C37 C 0.11878 -0.00009 0.26006
 H38 H 0.12140 0.00365 0.23531
 C39 C 0.16251 -0.00094 0.27687
 H40 H 0.19862 0.00271 0.26479
 C41 C 0.06803 -0.00734 0.30571
 H42 H 0.03119 -0.00915 0.31696
 C43 C 0.11080 -0.00897 0.32340
 H44 H 0.10611 -0.01340 0.34806
 N45 N 0.07277 -0.00376 0.27459
 C46 C -0.02709 -0.06766 0.20955
 H47 H -0.05714 -0.03868 0.20944
 C48 C -0.03071 -0.11146 0.19235
 H49 H -0.06393 -0.11607 0.17917
 C50 C 0.05200 -0.09724 0.22768
 H51 H 0.08399 -0.09178 0.24166
 C52 C 0.04998 -0.14155 0.21080
 H53 H 0.08114 -0.16928 0.21154
 Zn54 Zn 0.01569 -0.00138 0.24980
 N55 N 0.01400 -0.06119 0.22655
 C56 C 0.02296 0.05083 0.19248
 N57 N 0.02137 0.05596 0.22350
 C58 C 0.02703 0.10172 0.23654
 C59 C 0.03404 0.14486 0.21819
 C60 C 0.02984 0.09297 0.17328
 C61 C -0.05560 -0.03644 0.29331
 C62 C -0.09987 -0.03525 0.31174
 C63 C -0.12207 0.04693 0.28990
 C64 C -0.07715 0.04438 0.27210
 N65 N -0.04473 0.00334 0.27434
 H66 H 0.01976 0.01397 0.18252
 H67 H 0.02638 0.10457 0.26129
 H68 H 0.03790 0.18105 0.22902
 H69 H 0.03177 0.08795 0.14865
 H70 H -0.02970 -0.06914 0.29412
 H71 H -0.10797 -0.06725 0.32669
 H72 H -0.14720 0.08011 0.28808
 H73 H -0.06845 0.07509 0.25640
 C74 C 0.00821 -0.14915 0.19280
 C75 C 0.15897 -0.00587 0.30903
 C76 C -0.13375 0.00685 0.31013
 C77 C 0.03558 0.14078 0.18608
 C78 C -0.04451 0.07639 0.79651
 H79 H -0.07321 0.04928 0.80135
 C80 C -0.04347 0.11970 0.81443
 H81 H -0.07267 0.12628 0.83213
 C82 C 0.02930 0.09971 0.76846
 H83 H 0.05847 0.09147 0.75116
 C84 C 0.03190 0.14337 0.78589
 H85 H 0.06308 0.16801 0.78157
 N86 N -0.00926 0.06780 0.77345
 C87 C 0.07199 -0.04708 0.72607
 H88 H 0.05990 -0.07611 0.74209
 C89 C 0.11553 -0.05603 0.70761
 H90 H 0.13599 -0.09215 0.70967
 C91 C 0.05823 0.03353 0.70269
 H92 H 0.03524 0.06812 0.70060
 C93 C 0.10202 0.02652 0.68412
 H94 H 0.11284 0.05664 0.66842
 Zn95 Zn -0.01435 0.00861 0.74945
 N96 N 0.04467 -0.00254 0.72369
 C97 C -0.06695 0.00363 0.69422
 N98 N -0.07201 0.01469 0.72462
 C99 C -0.11803 0.02767 0.73774
 C100 C -0.16109 0.02962 0.72031
 C101 C -0.10911 0.00494 0.67594
 C102 C 0.01411 -0.05462 0.79855
 C103 C 0.01282 -0.09714 0.81797
 C104 C -0.06159 -0.12260 0.79298
 C105 C -0.05865 -0.07982 0.77390
 N106 N -0.02084 -0.04723 0.77676
 H107 H -0.03042 -0.00768 0.68421
 H108 H -0.12181 0.03558 0.76190
 H109 H -0.19723 0.04014 0.73131
 H110 H -0.10435 -0.00549 0.65205
 H111 H 0.04381 -0.02806 0.80026
 H112 H 0.04207 -0.10322 0.83441
 H113 H -0.09204 -0.14803 0.79032
 H114 H -0.08606 -0.07322 0.75643
 C115 C 0.13159 -0.01872 0.68650
 C116 C -0.00517 0.15421 0.80900
 C117 C -0.02508 -0.13220 0.81509
 C118 C -0.15712 0.01762 0.68902
 C119 C -0.01796 -0.29037 0.09276
 C120 C 0.00200 -0.31727 0.11689
 C121 C 0.01697 -0.36804 0.11490
 C122 C 0.01185 -0.39202 0.08677
 C123 C -0.00843 -0.36542 0.06085
 C124 C -0.02425 -0.31349 0.06469
 O125 O -0.02777 -0.24181 0.09898
 C126 C -0.01342 -0.23802 0.12766
 C127 C 0.00495 -0.28318 0.13972
 C128 C 0.02357 -0.28750 0.16905
 C129 C 0.02362 -0.24335 0.18658
 C130 C 0.00557 -0.19597 0.17453
 C131 C -0.01366 -0.19365 0.14464
 H132 H 0.03356 -0.38820 0.13407
 H133 H 0.02677 -0.43062 0.08520
 H134 H -0.04159 -0.29095 0.04680
 H135 H 0.03797 -0.32346 0.17802
 H136 H 0.03773 -0.24614 0.20953
 H137 H -0.02688 -0.15813 0.13447
 C138 C 0.02424 0.28903 0.08514
 C139 C 0.05901 0.30512 0.10504
 C140 C 0.08506 0.34936 0.09998
 C141 C 0.07470 0.37813 0.07338
 C142 C 0.03886 0.36224 0.05253
 C143 C 0.01343 0.31690 0.05869
 O144 O 0.00342 0.24618 0.09404
 C145 C 0.02554 0.23481 0.12014
 C146 C 0.05983 0.26959 0.12799
 C147 C 0.08708 0.26483 0.15457
 C148 C 0.07871 0.22244 0.17372
 C149 C 0.04361 0.18589 0.16601
 C150 C 0.01665 0.19255 0.13877
 H151 H 0.11236 0.36128 0.11591
 H152 H 0.09490 0.41242 0.06890
 H153 H -0.01467 0.30403 0.04356
 H154 H 0.11396 0.29258 0.16030
 H155 H 0.10017 0.21769 0.19425
 H156 H -0.01084 0.16585 0.13234
 C157 C 0.28327 -0.01552 0.58493
 C158 C 0.30340 -0.04401 0.60844
 C159 C 0.35167 -0.06669 0.60634
 C160 C 0.38034 -0.05952 0.57892
 C161 C 0.36069 -0.02955 0.55441
 C162 C 0.31123 -0.00736 0.55774
 O163 O 0.23668 0.00247 0.59133
 C164 C 0.22717 -0.01490 0.61957
 C165 C 0.26678 -0.04335 0.63119
 C166 C 0.26500 -0.06437 0.66062
 C167 C 0.22058 -0.05578 0.67873
 C168 C 0.17870 -0.02709 0.66714
 C169 C 0.18248 -0.00649 0.63696
 H170 H 0.36662 -0.08932 0.62505
 H171 H 0.41756 -0.07777 0.57677
 H172 H 0.29507 0.01640 0.53989
 H173 H 0.29683 -0.08618 0.66944
 H174 H 0.21928 -0.07097 0.70193
 H175 H 0.15142 0.01499 0.62701
 C176 C -0.29685 0.02792 0.58788
 C177 C -0.32190 0.00902 0.61340
 C178 C -0.37073 -0.00754 0.61280
 C179 C -0.39464 -0.00517 0.58466
 C180 C -0.36980 0.01370 0.55734
 C181 C -0.31991 0.03112 0.55965
 O182 O -0.24996 0.04023 0.59316
 C183 C -0.24531 0.02848 0.62267
 C184 C -0.28832 0.00931 0.63613
 C185 C -0.29131 -0.00690 0.66660
 C186 C -0.24811 -0.00340 0.68389
 C187 C -0.20299 0.01610 0.67058
 C188 C -0.20193 0.03246 0.63945
 H189 H -0.38941 -0.02305 0.63316
 H190 H -0.43152 -0.02102 0.58429
 H191 H -0.29915 0.04761 0.54045
 H192 H -0.32543 -0.02243 0.67658
 H193 H -0.24952 -0.01710 0.70742
 H194 H -0.16834 0.04764 0.62854
 C195 C -0.00725 -0.27911 0.91689
 C196 C -0.02286 -0.30393 0.89176
 C197 C -0.03278 -0.35503 0.89239
 C198 C -0.02662 -0.38175 0.92010
 C199 C -0.01024 -0.35757 0.94692
 C200 C -0.00036 -0.30491 0.94470
 O201 O -0.00043 -0.23017 0.91148
 C202 C -0.01216 -0.22411 0.88228
 C203 C -0.02608 -0.26814 0.86916
 C204 C -0.03994 -0.27049 0.83883
 C205 C -0.03947 -0.22556 0.82126
 C206 C -0.02560 -0.17929 0.83422
 C207 C -0.01167 -0.17888 0.86530
 H208 H -0.04577 -0.37358 0.87236
 H209 H -0.03718 -0.42086 0.92057
 H210 H 0.01376 -0.28413 0.96348
 H211 H -0.05050 -0.30572 0.82898
 H212 H -0.04919 -0.22709 0.79743
 H213 H -0.00137 -0.14435 0.87609
 C214 C -0.01207 0.29690 0.91091
 C215 C 0.00321 0.32245 0.88468
 C216 C 0.01774 0.37239 0.88484
 C217 C 0.01705 0.39681 0.91323
 C218 C 0.00163 0.37129 0.94079
 C219 C -0.01376 0.32062 0.93931
 O220 O -0.02230 0.24900 0.90599
 C221 C -0.01320 0.24419 0.87600
 C222 C 0.00239 0.28805 0.86186
 C223 C 0.01520 0.29103 0.83068
 C224 C 0.01200 0.24695 0.81339
 C225 C -0.00345 0.20091 0.82747
 C226 C -0.01649 0.19991 0.85930
 H227 H 0.03034 0.39150 0.86395
 H228 H 0.03013 0.43505 0.91377
 H229 H -0.02603 0.29987 0.95967
 H230 H 0.02746 0.32597 0.82007
 H231 H 0.02136 0.24880 0.78902
 H232 H -0.02755 0.16539 0.87096
 C233 C -0.28180 -0.00359 0.41309
 C234 C -0.30651 0.01307 0.38753
 C235 C -0.35767 0.02608 0.38819
 C236 C -0.38455 0.02204 0.41638
 C237 C -0.36031 0.00522 0.44368
 C238 C -0.30764 -0.00790 0.44146
 O239 O -0.23285 -0.01363 0.40752
 C240 C -0.22663 -0.00275 0.37780
 C241 C -0.27055 0.01388 0.36451
 C242 C -0.27249 0.02842 0.33378
 C243 C -0.22721 0.02584 0.31602
 C244 C -0.18129 0.00876 0.32915
 C245 C -0.18124 -0.00598 0.36052
 H246 H -0.37619 0.03968 0.36778
 H247 H -0.42389 0.03464 0.41685
 H248 H -0.28700 -0.02249 0.46080
 H249 H -0.30754 0.04151 0.32387
 H250 H -0.22795 0.03675 0.29199
 H251 H -0.14675 -0.01856 0.37130
 C252 C 0.29906 0.00857 0.40893
 C253 C 0.32434 -0.01590 0.38493
 C254 C 0.37339 -0.03599 0.38689
 C255 C 0.39711 -0.03119 0.41485
 C256 C 0.37154 -0.00684 0.44018
 C257 C 0.32188 0.01375 0.43692
 O258 O 0.25220 0.02360 0.40264
 C259 C 0.24772 0.00800 0.37412
 C260 C 0.29072 -0.01644 0.36223
 C261 C 0.29351 -0.03761 0.33319
 C262 C 0.25013 -0.03358 0.31573
 C263 C 0.20512 -0.00843 0.32741
 C264 C 0.20440 0.01296 0.35707
 H265 H 0.39237 -0.05549 0.36778
 H266 H 0.43478 -0.04790 0.41707
 H267 H 0.30132 0.03255 0.45575
 H268 H 0.32756 -0.05735 0.32450
 H269 H 0.25139 -0.05120 0.29345
 H270 H 0.17110 0.03276 0.36675
   
