data_POSCAR
  _audit_creation_date              2014-09-24
  _audit_creation_method            'ToBaCCo'
  _symmetry_space_group_name_H-M    'P1'
  _symmetry_Int_Tables_number       1
  _symmetry_cell_setting            triclinic
  loop_
  _symmetry_equiv_pos_as_xyz
 x,y,z
_cell_length_a 30.2339
_cell_length_b 32.2373
_cell_length_c 31.5247
_cell_angle_alpha 90.178000
_cell_angle_beta 90.382500
_cell_angle_gamma 89.553900
loop_
  _atom_site_label
  _atom_site_type_symbol
  _atom_site_fract_x
  _atom_site_fract_y
  _atom_site_fract_z
O1 O 0.38374 0.31099 -0.06008
 O2 O 0.33820 0.38507 0.01621
 O3 O 0.39454 0.32502 0.02039
 O4 O 0.33511 0.37644 -0.06467
 O5 O 0.27658 0.33738 -0.05457
 O6 O 0.33919 0.28193 0.03083
 O7 O 0.28100 0.34426 0.02703
 O8 O 0.32731 0.26907 -0.05046
 Cu9 Cu 0.36856 0.35316 -0.02303
 Cu10 Cu 0.30033 0.30374 -0.01089
 C11 C 0.36365 0.27740 -0.06829
 C12 C 0.30149 0.37789 0.03394
 C13 C 0.37794 0.29475 0.03985
 C14 C 0.29530 0.36755 -0.07316
 O15 O 0.65505 0.62037 0.01975
 O16 O 0.63384 0.69792 -0.06211
 O17 O 0.68617 0.63381 -0.05517
 O18 O 0.60487 0.68465 0.01164
 O19 O 0.65657 0.72174 0.04362
 O20 O 0.73914 0.67308 -0.02906
 O21 O 0.68230 0.73957 -0.03142
 O22 O 0.70994 0.65726 0.04649
 Cu23 Cu 0.64028 0.65511 -0.02451
 Cu24 Cu 0.70296 0.70200 0.00955
 C25 C 0.68614 0.62494 0.04651
 C26 C 0.65151 0.73319 -0.05830
 C27 C 0.72672 0.64336 -0.05291
 C28 C 0.61617 0.71189 0.03855
 O29 O 0.64503 0.41313 0.96595
 O30 O 0.58576 0.34277 1.03464
 O31 O 0.64692 0.39661 1.04611
 O32 O 0.58685 0.35647 0.95399
 O33 O 0.63793 0.30791 0.94499
 O34 O 0.69989 0.35005 1.03711
 O35 O 0.63674 0.29399 1.02636
 O36 O 0.69810 0.36662 0.95623
 Cu37 Cu 0.61106 0.38188 1.00111
 Cu38 Cu 0.67350 0.32475 0.99025
 C39 C 0.68158 0.40256 0.94970
 C40 C 0.60024 0.30656 1.04197
 C41 C 0.68407 0.38108 1.05695
 C42 C 0.60153 0.32498 0.93425
 O43 O 0.37681 0.59443 0.96854
 O44 O 0.42128 0.64195 1.06511
 O45 O 0.36673 0.58378 1.04875
 O46 O 0.43475 0.65187 0.98469
 O47 O 0.38097 0.69850 0.98133
 O48 O 0.31197 0.62956 1.04854
 O49 O 0.36872 0.68991 1.06321
 O50 O 0.32098 0.63905 0.96771
 Cu51 Cu 0.40531 0.61361 1.01667
 Cu52 Cu 0.34029 0.66922 1.01490
 C53 C 0.34055 0.60725 0.95270
 C54 C 0.40310 0.67418 1.08041
 C55 C 0.32787 0.59436 1.05924
 C56 C 0.42023 0.68683 0.97248
 O57 O -0.06000 0.38524 0.32493
 O58 O 0.02737 0.34699 0.39604
 O59 O 0.02315 0.40042 0.33626
 O60 O -0.05724 0.33784 0.39123
 O61 O -0.04036 0.28332 0.35181
 O62 O 0.03678 0.34995 0.29048
 O63 O 0.04259 0.29539 0.35198
 O64 O -0.04791 0.33265 0.28148
 Cu65 Cu -0.01832 0.37265 0.36619
 Cu66 Cu -0.00171 0.31020 0.31387
 C67 C -0.06835 0.36604 0.29059
 C68 C 0.04954 0.31466 0.38654
 C69 C 0.04348 0.38663 0.30422
 C70 C -0.06019 0.29946 0.38353
 O71 O 0.03500 0.65039 0.59633
 O72 O -0.04347 0.60447 0.66969
 O73 O -0.04946 0.65264 0.60515
 O74 O 0.04118 0.59955 0.65863
 O75 O 0.04812 0.65112 0.70447
 O76 O -0.03951 0.70856 0.64462
 O77 O -0.03788 0.65847 0.71251
 O78 O 0.04512 0.70339 0.63988
 Cu79 Cu -0.00502 0.62141 0.62840
 Cu80 Cu 0.00455 0.68576 0.68013
 C81 C 0.05294 0.68482 0.60505
 C82 C -0.05418 0.62326 0.70359
 C83 C -0.05852 0.69009 0.61379
 C84 C 0.05962 0.61542 0.69087
 O85 O 1.03870 0.58634 0.34493
 O86 O 0.95990 0.64229 0.41135
 O87 O 0.95457 0.58319 0.35741
 O88 O 1.04479 0.64312 0.40207
 O89 O 1.03371 0.69321 0.35550
 O90 O 0.94594 0.62843 0.30542
 O91 O 0.94881 0.68918 0.36131
 O92 O 1.03162 0.63351 0.29462
 Cu93 Cu 1.00059 0.60916 0.38376
 Cu94 Cu 0.98957 0.66580 0.32373
 C95 C 1.04819 0.59968 0.30838
 C96 C 0.94096 0.67506 0.39810
 C97 C 0.93521 0.59488 0.32380
 C98 C 1.05332 0.67900 0.38836
 O99 O 0.96613 0.35157 0.59227
 O100 O 1.03892 0.41747 0.65486
 O101 O 1.05025 0.36393 0.59534
 O102 O 0.95500 0.40349 0.65351
 O103 O 0.96403 0.35547 0.70279
 O104 O 1.05728 0.31189 0.64035
 O105 O 1.04879 0.36814 0.70257
 O106 O 0.97238 0.30117 0.63932
 Cu107 Cu 1.00176 0.38905 0.61948
 Cu108 Cu 1.01155 0.32905 0.67618
 C109 C 0.95718 0.31518 0.60433
 C110 C 1.05595 0.40473 0.68925
 C111 C 1.06890 0.33035 0.60661
 C112 C 0.94393 0.38724 0.68836
 O113 O 0.39989 0.02192 0.33308
 O114 O 0.32631 -0.05642 0.37543
 O115 O 0.38193 -0.05368 0.31299
 O116 O 0.34396 0.01985 0.39365
 O117 O 0.29069 0.04214 0.35095
 O118 O 0.32967 -0.03205 0.26872
 O119 O 0.27237 -0.03515 0.33312
 O120 O 0.34799 0.04335 0.28831
 Cu121 Cu 0.36814 -0.01951 0.35802
 Cu122 Cu 0.30448 0.00645 0.30588
 C123 C 0.38704 0.04550 0.30335
 C124 C 0.28649 -0.05850 0.36281
 C125 C 0.36354 -0.05432 0.27676
 C126 C 0.31107 0.04347 0.38637
 O127 O 0.64969 -0.02156 0.60569
 O128 O 0.62082 0.05718 0.68466
 O129 O 0.67275 0.05450 0.61983
 O130 O 0.59425 -0.01689 0.66688
 O131 O 0.64567 -0.04089 0.71072
 O132 O 0.72677 0.03011 0.66043
 O133 O 0.67309 0.03358 0.72784
 O134 O 0.70234 -0.04598 0.64791
 Cu135 Cu 0.62930 0.02084 0.64011
 Cu136 Cu 0.69243 -0.00798 0.69117
 C137 C 0.68098 -0.04700 0.61310
 C138 C 0.64108 0.05815 0.71999
 C139 C 0.71307 0.05392 0.63085
 C140 C 0.60598 -0.04069 0.69684
 O141 O 0.35113 1.03516 0.60769
 O142 O 0.39753 0.95049 0.67038
 O143 O 0.34831 0.95555 0.60404
 O144 O 0.40096 1.03022 0.67453
 O145 O 0.34202 1.03283 0.71533
 O146 O 0.28838 0.95552 0.64379
 O147 O 0.33986 0.95199 0.71310
 O148 O 0.29063 1.03593 0.64663
 Cu149 Cu 0.38032 0.99292 0.63525
 Cu150 Cu 0.30914 0.99413 0.68394
 C151 C 0.31273 1.04914 0.61531
 C152 C 0.37747 0.93730 0.70272
 C153 C 0.30944 0.94317 0.61119
 C154 C 0.38136 1.04388 0.70725
 O155 O 0.57835 0.98164 0.34859
 O156 O 0.64676 1.04269 0.42001
 O157 O 0.59304 1.05959 0.35767
 O158 O 0.63782 0.96461 0.40504
 O159 O 0.69305 0.96394 0.35946
 O160 O 0.64536 1.05785 0.30910
 O161 O 0.70122 1.04247 0.37367
 O162 O 0.63169 0.97847 0.30107
 Cu163 Cu 0.60881 1.01237 0.38744
 Cu164 Cu 0.67328 1.01088 0.33094
 C165 C 0.59259 0.96982 0.31288
 C166 C 0.68588 1.05201 0.41007
 C167 C 0.61038 1.07393 0.32429
 C168 C 0.67350 0.94871 0.39125
 C169 C 0.90622 0.74965 0.50324
 C170 C 0.88645 0.75948 0.46436
 C171 C 0.85351 0.79030 0.46297
 C172 C 0.84031 0.81172 0.50037
 C173 C 0.86129 0.80056 0.53926
 C174 C 0.89219 0.76815 0.54096
 C175 C 0.80393 0.84412 0.49923
 C176 C 0.78300 0.85744 0.53715
 C177 C 0.74998 0.88807 0.53674
 C178 C 0.73613 0.90453 0.49792
 C179 C 0.75396 0.89048 0.45969
 C180 C 0.78912 0.86192 0.46043
 H181 H 0.93274 0.72685 0.50442
 H182 H 0.83781 0.79608 0.43272
 H183 H 0.85372 0.81589 0.56878
 H184 H 0.79147 0.84436 0.56758
 H185 H 0.71239 0.92982 0.49709
 H186 H 0.80426 0.85411 0.43053
 C187 C 0.10421 0.26418 0.50093
 C188 C 0.11366 0.24436 0.46254
 C189 C 0.14116 0.20916 0.46283
 C190 C 0.16253 0.19576 0.50068
 C191 C 0.15432 0.21854 0.53851
 C192 C 0.12487 0.25228 0.53886
 C193 C 0.19311 0.15851 0.50076
 C194 C 0.20450 0.13817 0.53920
 C195 C 0.23506 0.10541 0.53971
 C196 C 0.25130 0.08984 0.50141
 C197 C 0.24046 0.10855 0.46267
 C198 C 0.21191 0.14309 0.46257
 H199 H 0.07891 0.28810 0.50155
 H200 H 0.14509 0.19249 0.43333
 H201 H 0.17064 0.21085 0.56802
 H202 H 0.19045 0.14752 0.56915
 H203 H 0.27196 0.06226 0.50210
 H204 H 0.20551 0.15793 0.43248
 C205 C 0.08556 0.74914 0.49173
 C206 C 0.10373 0.76296 0.53000
 C207 C 0.13473 0.79488 0.52947
 C208 C 0.14772 0.81353 0.49083
 C209 C 0.12890 0.79830 0.45242
 C210 C 0.09963 0.76478 0.45278
 C211 C 0.18294 0.84637 0.49077
 C212 C 0.20796 0.85428 0.45382
 C213 C 0.24320 0.88213 0.45500
 C214 C 0.25503 0.90110 0.49312
 C215 C 0.23141 0.89378 0.53033
 C216 C 0.19413 0.86825 0.52852
 H217 H 0.06030 0.72546 0.49207
 H218 H 0.14953 0.80356 0.55943
 H219 H 0.13729 0.81132 0.42204
 H220 H 0.20193 0.83798 0.42442
 H221 H 0.28277 0.92224 0.49356
 H222 H 0.17509 0.86494 0.55714
 C223 C 0.92635 0.23777 0.49776
 C224 C 0.91317 0.22489 0.53809
 C225 C 0.88596 0.19006 0.54164
 C226 C 0.87214 0.16756 0.50514
 C227 C 0.88748 0.18088 0.46495
 C228 C 0.91226 0.21708 0.46105
 C229 C 0.83951 0.13253 0.50847
 C230 C 0.81407 0.12040 0.47262
 C231 C 0.78162 0.08992 0.47553
 C232 C 0.77390 0.07114 0.51474
 C233 C 0.79736 0.08314 0.55100
 C234 C 0.83092 0.11275 0.54774
 H235 H 0.94795 0.26426 0.49471
 H236 H 0.87456 0.18213 0.57293
 H237 H 0.87953 0.16430 0.43614
 H238 H 0.81728 0.13569 0.44241
 H239 H 0.74870 0.04757 0.51749
 H240 H 0.84916 0.12046 0.57620
 C241 C 0.49097 0.91363 0.76442
 C242 C 0.45369 0.89883 0.78541
 C243 C 0.45909 0.87301 0.82078
 C244 C 0.50179 0.85903 0.83335
 C245 C 0.53864 0.87266 0.80958
 C246 C 0.53365 0.90054 0.77587
 C247 C 0.50825 0.83050 0.87075
 C248 C 0.55022 0.82678 0.89067
 C249 C 0.55716 0.79930 0.92423
 C250 C 0.52183 0.77654 0.93997
 C251 C 0.47984 0.77884 0.92086
 C252 C 0.47319 0.80591 0.88645
 H253 H 0.48609 0.93628 0.73952
 H254 H 0.42985 0.86417 0.83794
 H255 H 0.57171 0.86162 0.81639
 H256 H 0.57803 0.84520 0.88101
 H257 H 0.52759 0.75604 0.96668
 H258 H 0.44101 0.80627 0.87137
 C259 C 0.50517 0.09709 0.25047
 C260 C 0.46487 0.10162 0.22894
 C261 C 0.46362 0.12412 0.19108
 C262 C 0.50125 0.14574 0.17656
 C263 C 0.54125 0.14160 0.20010
 C264 C 0.54327 0.11710 0.23669
 C265 C 0.49806 0.17347 0.13824
 C266 C 0.53656 0.18747 0.11720
 C267 C 0.53340 0.21685 0.08466
 C268 C 0.49167 0.22937 0.07005
 C269 C 0.45314 0.21609 0.08983
 C270 C 0.45632 0.18859 0.12390
 H271 H 0.50756 0.07638 0.27739
 H272 H 0.43286 0.12447 0.17350
 H273 H 0.57092 0.15765 0.19112
 H274 H 0.56923 0.17717 0.12656
 H275 H 0.48925 0.25116 0.04396
 H276 H 0.42602 0.18112 0.13999
 C277 C 0.52107 0.07296 0.76457
 C278 C 0.55516 0.08807 0.78998
 C279 C 0.54810 0.12327 0.81507
 C280 C 0.50736 0.14534 0.81316
 C281 C 0.47340 0.12963 0.78636
 C282 C 0.48035 0.09344 0.76231
 C283 C 0.50172 0.18589 0.83639
 C284 C 0.45912 0.20238 0.84508
 C285 C 0.45453 0.24141 0.86432
 C286 C 0.49191 0.26315 0.87728
 C287 C 0.53445 0.24708 0.87085
 C288 C 0.53912 0.20910 0.84959
 H289 H 0.52722 0.04614 0.74446
 H290 H 0.57510 0.13327 0.83509
 H291 H 0.44266 0.14640 0.78183
 H292 H 0.42946 0.18550 0.83707
 H293 H 0.48713 0.29182 0.89470
 H294 H 0.57238 0.19848 0.84333
 C295 C 0.49052 0.94070 0.22090
 C296 C 0.53136 0.91986 0.21965
 C297 C 0.53482 0.88218 0.19753
 C298 C 0.49731 0.86446 0.17763
 C299 C 0.45627 0.88566 0.18065
 C300 C 0.45276 0.92302 0.20309
 C301 C 0.50037 0.82279 0.15654
 C302 C 0.46269 0.79712 0.15318
 C303 C 0.46535 0.75799 0.13415
 C304 C 0.50637 0.74361 0.11982
 C305 C 0.54358 0.76927 0.11967
 C306 C 0.54068 0.80855 0.13876
 H307 H 0.48738 0.96950 0.23857
 H308 H 0.56614 0.86573 0.19828
 H309 H 0.42656 0.87344 0.16626
 H310 H 0.43096 0.80686 0.16540
 H311 H 0.50871 0.71303 0.10584
 H312 H 0.56935 0.82841 0.13805
 C313 C 0.75313 0.51188 0.91242
 C314 C 0.76811 0.47281 0.89914
 C315 C 0.80154 0.47043 0.86866
 C316 C 0.82024 0.50680 0.85096
 C317 C 0.80441 0.54584 0.86571
 C318 C 0.76997 0.54813 0.89507
 C319 C 0.85219 0.50375 0.81441
 C320 C 0.85973 0.53817 0.78733
 C321 C 0.88536 0.53372 0.75071
 C322 C 0.90233 0.49496 0.73989
 C323 C 0.89608 0.46059 0.76591
 C324 C 0.87309 0.46542 0.80401
 H325 H 0.72700 0.51440 0.93569
 H326 H 0.81047 0.43986 0.85751
 H327 H 0.81676 0.57471 0.85354
 H328 H 0.84473 0.56812 0.79283
 H329 H 0.92164 0.49166 0.71115
 H330 H 0.87095 0.43868 0.82438
 C331 C 0.24482 0.49300 0.07749
 C332 C 0.22385 0.45589 0.08755
 C333 C 0.18809 0.45686 0.11556
 C334 C 0.17613 0.49391 0.13735
 C335 C 0.20024 0.53044 0.12828
 C336 C 0.23430 0.53007 0.09836
 C337 C 0.14060 0.49393 0.17081
 C338 C 0.12147 0.53160 0.18586
 C339 C 0.09180 0.53161 0.21983
 C340 C 0.07776 0.49380 0.23632
 C341 C 0.09548 0.45610 0.22214
 C342 C 0.12691 0.45625 0.18977
 H343 H 0.26970 0.49303 0.05292
 H344 H 0.17054 0.42825 0.12032
 H345 H 0.19417 0.55913 0.14505
 H346 H 0.12986 0.56121 0.17235
 H347 H 0.05277 0.49392 0.26084
 H348 H 0.14140 0.42676 0.18112
 C349 C 0.71542 0.50569 0.10323
 C350 C 0.74225 0.53970 0.11241
 C351 C 0.77788 0.53440 0.14065
 C352 C 0.78465 0.49653 0.16296
 C353 C 0.75629 0.46296 0.15297
 C354 C 0.72247 0.46756 0.12274
 C355 C 0.81957 0.49286 0.19740
 C356 C 0.83202 0.45380 0.21500
 C357 C 0.86150 0.45156 0.24950
 C358 C 0.88067 0.48761 0.26522
 C359 C 0.86985 0.52644 0.24835
 C360 C 0.83934 0.52896 0.21492
 H361 H 0.68977 0.50798 0.07918
 H362 H 0.79971 0.56040 0.14477
 H363 H 0.75901 0.43342 0.16876
 H364 H 0.81878 0.42502 0.20314
 H365 H 0.90464 0.48505 0.29084
 H366 H 0.83043 0.55968 0.20435
 C367 C 0.28252 0.50202 0.89401
 C368 C 0.25985 0.53993 0.89089
 C369 C 0.21921 0.54123 0.86904
 C370 C 0.20290 0.50573 0.84733
 C371 C 0.22711 0.46810 0.85107
 C372 C 0.26599 0.46615 0.87514
 C373 C 0.16231 0.50816 0.81945
 C374 C 0.14003 0.47163 0.80614
 C375 C 0.10657 0.47337 0.77528
 C376 C 0.09155 0.51207 0.76121
 C377 C 0.11221 0.54868 0.77405
 C378 C 0.14755 0.54676 0.80287
 H379 H 0.31233 0.49969 0.91318
 H380 H 0.20094 0.57016 0.86905
 H381 H 0.21720 0.44022 0.83470
 H382 H 0.14918 0.44143 0.81814
 H383 H 0.06413 0.51370 0.73889
 H384 H 0.16440 0.57533 0.81025
 C385 C 0.28325 0.41056 0.06135
 C386 C 0.23991 0.41636 0.06853
 H387 H 0.30658 0.43373 0.07215
 H388 H 0.21620 0.39300 0.05911
 C389 C 0.69407 0.59115 0.07667
 C390 C 0.73443 0.58008 0.09078
 H391 H 0.66577 0.57204 0.08360
 H392 H 0.76247 0.59985 0.08460
 C393 C 0.70393 0.43412 0.92425
 C394 C 0.74733 0.43464 0.91602
 H395 H 0.68371 0.46065 0.91536
 H396 H 0.76791 0.40786 0.92309
 C397 C 0.32108 0.58249 0.91821
 C398 C 0.27734 0.57698 0.91350
 H399 H 0.34375 0.56243 0.90113
 H400 H 0.25424 0.59718 0.92987
 C401 C 0.08190 0.29949 0.41775
 C402 C 0.09209 0.25919 0.42285
 H403 H 0.09308 0.32196 0.44100
 H404 H 0.08195 0.23661 0.39925
 C405 C 0.08062 0.70343 0.57229
 C406 C 0.08947 0.74404 0.57041
 H407 H 0.08873 0.68374 0.54546
 H408 H 0.08289 0.76408 0.59732
 C409 C 0.91162 0.69673 0.42787
 C410 C 0.90122 0.73717 0.42565
 H411 H 0.90352 0.67975 0.45639
 H412 H 0.90765 0.75470 0.39712
 C413 C 0.93074 0.28974 0.57497
 C414 C 0.92825 0.24828 0.57617
 H415 H 0.91706 0.30590 0.54771
 H416 H 0.94019 0.23131 0.60360
 C417 C 0.41919 0.07468 0.28663
 C418 C 0.42456 0.08118 0.24506
 H419 H 0.44307 0.08659 0.30924
 H420 H 0.40034 0.06966 0.22253
 C421 C 0.62389 0.08630 0.75251
 C422 C 0.59950 0.07021 0.78354
 H423 H 0.61614 0.11755 0.74198
 H424 H 0.60327 0.03745 0.79058
 C425 C 0.40059 0.90582 0.72814
 C426 C 0.40964 0.91178 0.76933
 H427 H 0.42193 0.88489 0.71046
 H428 H 0.39072 0.93401 0.78775
 C429 C 0.56120 0.94768 0.28549
 C430 C 0.56872 0.93561 0.24552
 H431 H 0.52851 0.94321 0.29864
 H432 H 0.60148 0.93737 0.23200
 C433 C 0.38508 0.24727 0.90315
 C434 C 0.41159 0.26130 0.87276
 H435 H 0.38674 0.21508 0.91286
 H436 H 0.40942 0.29395 0.86464
 C437 C 0.63012 0.76758 0.91915
 C438 C 0.60170 0.79087 0.94155
 H439 H 0.62382 0.76317 0.88554
 H440 H 0.60456 0.79073 0.97589
 C441 C 0.42546 0.69429 0.11636
 C442 C 0.42469 0.73549 0.12154
 H443 H 0.45162 0.67641 0.13150
 H444 H 0.39813 0.75368 0.10750
 C445 C 0.57187 0.28009 0.06777
 C446 C 0.57276 0.23856 0.06831
 H447 H 0.54442 0.29595 0.08303
 H448 H 0.59975 0.22112 0.05432
 C449 C 0.29420 0.07899 0.58490
 C450 C 0.25092 0.08680 0.57994
 H451 H 0.31693 0.09044 0.56124
 H452 H 0.22720 0.07675 0.60329
 C453 C 0.71177 0.07073 0.44128
 C454 C 0.75507 0.07823 0.43771
 H455 H 0.69597 0.07674 0.47151
 H456 H 0.77154 0.07477 0.40745
 C457 C 0.69313 0.92388 0.57928
 C458 C 0.73300 0.90563 0.57706
 H459 H 0.67014 0.92149 0.55293
 H460 H 0.75530 0.90681 0.60409
 C461 C 0.25570 0.91444 0.38587
 C462 C 0.27067 0.89083 0.41786
 H463 H 0.22047 0.91965 0.38185
 H464 H 0.30603 0.88734 0.42270
 C465 C 0.08308 0.43463 0.71279
 C466 C 0.08892 0.43524 0.75498
 H467 H 0.09429 0.46092 0.69446
 H468 H 0.07922 0.40919 0.77433
 C469 C 0.07734 0.57315 0.28266
 C470 C 0.07589 0.57046 0.24022
 H471 H 0.09509 0.54916 0.30002
 H472 H 0.05875 0.59364 0.22137
 C473 C 0.90076 0.38536 0.25977
 C474 C 0.87091 0.41317 0.27323
 H475 H 0.90864 0.38322 0.22636
 H476 H 0.86453 0.41501 0.30701
 C477 C 0.91675 0.60198 0.73392
 C478 C 0.89483 0.56805 0.72155
 H479 H 0.91920 0.60992 0.76726
 H480 H 0.89381 0.56034 0.68803
 C481 C 0.75777 0.61839 0.92584
 C482 C 0.74399 0.58626 0.90209
 H483 H 0.79265 0.62194 0.93293
 H484 H 0.70900 0.58297 0.89514
 C485 C 0.27114 0.39377 0.89984
 C486 C 0.29041 0.42722 0.88279
 H487 H 0.23552 0.39045 0.89820
 H488 H 0.32609 0.43027 0.88456
 C489 C 0.30300 0.56496 0.08049
 C490 C 0.25953 0.56805 0.08826
 H491 H 0.31968 0.53581 0.08745
 H492 H 0.24189 0.59713 0.08393
 C493 C 0.70913 0.40039 0.08871
 C494 C 0.69330 0.43360 0.10949
 H495 H 0.74368 0.39175 0.09222
 H496 H 0.65864 0.44195 0.10598
 C497 C 0.91274 0.71032 0.58608
 C498 C 0.90933 0.75160 0.58177
 H499 H 0.89738 0.69094 0.56198
 H500 H 0.92308 0.77262 0.60518
 C501 C 0.91750 0.27597 0.41344
 C502 C 0.92263 0.23496 0.41893
 H503 H 0.90078 0.29339 0.43822
 H504 H 0.93839 0.21570 0.39512
 C505 C 0.09951 0.31312 0.57876
 C506 C 0.11189 0.27305 0.57910
 H507 H 0.10750 0.33165 0.55121
 H508 H 0.10598 0.25387 0.60663
 C509 C 0.08225 0.70251 0.41288
 C510 C 0.08402 0.74412 0.41326
 H511 H 0.09862 0.68599 0.43862
 H512 H 0.06897 0.76250 0.38826
 C513 C 0.57160 0.93308 0.71531
 C514 C 0.57336 0.91786 0.75478
 H515 H 0.54183 0.92960 0.69645
 H516 H 0.60376 0.92024 0.77301
 C517 C 0.38500 0.92114 0.24350
 C518 C 0.40959 0.94092 0.21492
 H519 H 0.39310 0.88917 0.25108
 H520 H 0.40569 0.97427 0.21177
 C521 C 0.58589 0.10666 0.30169
 C522 C 0.58548 0.10867 0.25924
 H523 H 0.55855 0.12068 0.31880
 H524 H 0.61220 0.09498 0.24109
 C525 C 0.40611 0.07068 0.73716
 C526 C 0.44888 0.07846 0.72997
 H527 H 0.39111 0.07969 0.76694
 H528 H 0.46371 0.06741 0.70077
 C529 C 0.58017 0.73177 0.06207
 C530 C 0.58411 0.75551 0.09688
 H531 H 0.54754 0.72541 0.04937
 H532 H 0.61641 0.76468 0.10843
 C533 C 0.40634 0.27475 0.07168
 C534 C 0.41019 0.23362 0.07563
 H535 H 0.43241 0.29396 0.08485
 H536 H 0.38556 0.21311 0.06219
 C537 C 0.57367 0.30771 0.90038
 C538 C 0.57351 0.26721 0.89073
 H539 H 0.54785 0.32790 0.88813
 H540 H 0.60007 0.24734 0.90217
 C541 C 0.45149 0.71352 0.94965
 C542 C 0.44330 0.75245 0.93674
 H543 H 0.48439 0.70064 0.94531
 H544 H 0.41012 0.76524 0.93838
 C545 C 0.69275 0.91421 0.41543
 C546 C 0.73651 0.90840 0.41972
 H547 H 0.67090 0.89945 0.43789
 H548 H 0.75940 0.92257 0.39792
 C549 C 0.28986 0.91537 0.57938
 C550 C 0.24648 0.91278 0.57086
 H551 H 0.31309 0.90047 0.55804
 H552 H 0.22239 0.92644 0.59211
 C553 C 0.29669 0.07093 0.42104
 C554 C 0.25746 0.09062 0.42234
 H555 H 0.31837 0.07196 0.44851
 H556 H 0.23641 0.09148 0.39441
 C557 C 0.74303 0.08046 0.60660
 C558 C 0.78229 0.06722 0.59233
 H559 H 0.72782 0.10711 0.59123
 H560 H 0.79688 0.03877 0.60434
 C561 C 0.90148 0.56710 0.30651
 C562 C 0.89152 0.56419 0.26525
 H563 H 0.88914 0.54388 0.32815
 H564 H 0.90253 0.58764 0.24324
 C565 C 0.90876 0.40810 0.71205
 C566 C 0.91475 0.42021 0.75233
 H567 H 0.88417 0.42432 0.69300
 H568 H 0.93990 0.40569 0.77205
 C569 C 0.09291 0.58972 0.71245
 C570 C 0.09747 0.58817 0.75463
 H571 H 0.10671 0.56449 0.69374
 H572 H 0.08368 0.61227 0.77470
 C573 C 0.07358 0.41556 0.28353
 C574 C 0.08052 0.41686 0.24170
 H575 H 0.08423 0.44156 0.30289
 H576 H 0.07090 0.39123 0.22145
   
