data_POSCAR
  _audit_creation_date              2014-09-24
  _audit_creation_method            'ToBaCCo'
  _symmetry_space_group_name_H-M    'P1'
  _symmetry_Int_Tables_number       1
  _symmetry_cell_setting            triclinic
  loop_
  _symmetry_equiv_pos_as_xyz
 x,y,z
_cell_length_a 52.1914
_cell_length_b 52.2103
_cell_length_c 52.1295
_cell_angle_alpha 90.000700
_cell_angle_beta 90.065500
_cell_angle_gamma 90.007600
loop_
  _atom_site_label
  _atom_site_type_symbol
  _atom_site_fract_x
  _atom_site_fract_y
  _atom_site_fract_z
C1 C 0.16463 0.16352 0.19653
 N2 N 0.15417 0.18478 0.18570
 C3 C 0.16465 0.19555 0.16444
 N4 N 0.18591 0.18482 0.15395
 C5 C 0.19673 0.16355 0.16443
 N6 N 0.18591 0.15308 0.18571
 C7 C -0.16431 0.83649 0.19597
 N8 N -0.15385 0.81524 0.18514
 C9 C -0.16436 0.80447 0.16387
 N10 N -0.18565 0.81519 0.15338
 C11 C -0.19647 0.83644 0.16386
 N12 N -0.18562 0.84692 0.18515
 C13 C -0.16470 0.16349 -0.19568
 N14 N -0.18600 0.15304 -0.18497
 C15 C -0.19682 0.16352 -0.16369
 N16 N -0.18598 0.18478 -0.15319
 C17 C -0.16468 0.19549 -0.16364
 N18 N -0.15418 0.18472 -0.18489
 C19 C 0.16423 0.83627 -0.19639
 N20 N 0.15378 0.81501 -0.18555
 C21 C 0.16429 0.80428 -0.16427
 N22 N 0.18556 0.81502 -0.15377
 C23 C 0.19637 0.83628 -0.16425
 N24 N 0.18553 0.84673 -0.18556
 C25 C 0.16310 1.16448 0.80369
 N26 N 0.15266 1.18577 0.81449
 C27 C 0.16312 1.19658 0.83581
 N28 N 0.18437 1.18574 0.84634
 C29 C 0.19509 1.16447 0.83587
 N30 N 0.18434 1.15399 0.81457
 C31 C 0.83621 0.83639 0.80328
 N32 N 0.81495 0.84687 0.81410
 C33 C 0.80421 0.83640 0.83540
 N34 N 0.81496 0.81516 0.84592
 C35 C 0.83620 0.80440 0.83543
 N36 N 0.84668 0.81513 0.81413
 C37 C 0.16386 0.83531 1.19664
 N38 N 0.15342 0.81401 1.18583
 C39 C 0.16387 0.80319 1.16454
 N40 N 0.18512 0.81402 1.15405
 C41 C 0.19584 0.83530 1.16453
 N42 N 0.18510 0.84579 1.18580
 C43 C 0.83672 1.16438 1.19599
 N44 N 0.81545 1.15393 1.18515
 C45 C 0.80466 1.16445 1.16389
 N46 N 0.81538 1.18573 1.15343
 C47 C 0.83666 1.19654 1.16393
 N48 N 0.84715 1.18569 1.18521
 N49 N 0.52666 1.04547 0.97243
 N50 N 0.54660 1.06077 0.96970
 N51 N 0.47268 1.02765 0.95468
 N52 N 0.45270 1.03039 0.93938
 N53 N 0.47271 1.04541 0.97251
 N54 N 0.45276 1.06070 0.96982
 N55 N 0.52663 1.02771 0.95460
 N56 N 0.54654 1.03045 0.93927
 C57 C 0.55880 1.05122 0.94887
 C58 C 0.44047 1.05114 0.94902
 N59 N 0.47279 0.95472 0.97240
 N60 N 0.45287 0.93939 0.96965
 N61 N 0.52668 0.97258 0.95454
 N62 N 0.54659 0.96991 0.93918
 N63 N 0.52675 0.95478 0.97232
 N64 N 0.54671 0.93952 0.96955
 N65 N 0.47273 0.97253 0.95461
 N66 N 0.45277 0.96979 0.93930
 Mn67 Mn 0.49968 1.00012 0.95428
 C68 C 0.44057 0.94898 0.94886
 C69 C 0.55889 0.94914 0.94874
 N70 N 0.47285 1.04534 1.02772
 N71 N 0.45291 1.06063 1.03051
 N72 N 0.52687 1.02761 1.04543
 N73 N 0.54686 1.03034 1.06071
 N74 N 0.52680 1.04540 1.02764
 N75 N 0.54674 1.06072 1.03034
 N76 N 0.47292 1.02754 1.04551
 N77 N 0.45302 1.03024 1.06088
 Mn78 Mn 0.49976 1.04573 1.00008
 C79 C 0.44073 1.05102 1.05133
 C80 C 0.55905 1.05114 1.05112
 N81 N 0.52690 0.95472 1.02754
 N82 N 0.54685 0.93942 1.03024
 N83 N 0.47297 0.97241 1.04544
 N84 N 0.45307 0.96964 1.06079
 N85 N 0.47295 0.95466 1.02761
 N86 N 0.45303 0.93932 1.03036
 N87 N 0.52692 0.97247 1.04536
 N88 N 0.54689 0.96974 1.06068
 Mn89 Mn 0.49985 0.95439 0.99997
 Mn90 Mn 0.49992 1.00001 1.04576
 Cl91 Cl 0.49980 1.00006 1.00002
 C92 C 0.55913 0.94898 1.05105
 C93 C 0.44083 0.94886 1.05119
 N94 N -0.02752 0.47298 -0.04521
 N95 N -0.03028 0.45302 -0.06051
 N96 N -0.04524 0.52693 -0.02743
 N97 N -0.06054 0.54688 -0.03018
 N98 N -0.02748 0.52691 -0.04524
 N99 N -0.03020 0.54684 -0.06058
 N100 N -0.04528 0.47301 -0.02740
 N101 N -0.06060 0.45308 -0.03010
 C102 C -0.05106 0.44081 -0.05089
 C103 C -0.05096 0.55910 -0.05100
 N104 N -0.02738 0.52696 0.04559
 N105 N -0.03010 0.54691 0.06089
 N106 N -0.04521 0.47302 0.02781
 N107 N -0.06052 0.45309 0.03054
 N108 N -0.02741 0.47302 0.04561
 N109 N -0.03012 0.45309 0.06094
 N110 N -0.04518 0.52695 0.02777
 N111 N -0.06048 0.54689 0.03048
 Mn112 Mn -0.04555 0.49998 0.00019
 C113 C -0.05088 0.55915 0.05128
 C114 C -0.05092 0.44085 0.05135
 N115 N 0.02767 0.52689 -0.04524
 N116 N 0.03039 0.54681 -0.06058
 N117 N 0.04544 0.47295 -0.02742
 N118 N 0.06073 0.45300 -0.03017
 N119 N 0.02763 0.47296 -0.04522
 N120 N 0.03032 0.45303 -0.06055
 N121 N 0.04547 0.52689 -0.02744
 N122 N 0.06079 0.54681 -0.03018
 Mn123 Mn 0.00007 0.49993 -0.04555
 C124 C 0.05119 0.55905 -0.05099
 C125 C 0.05111 0.44078 -0.05098
 N126 N 0.02774 0.47300 0.04561
 N127 N 0.03049 0.45307 0.06094
 N128 N 0.04554 0.52692 0.02778
 N129 N 0.06086 0.54685 0.03053
 N130 N 0.02777 0.52693 0.04559
 N131 N 0.03053 0.54685 0.06092
 N132 N 0.04551 0.47299 0.02780
 N133 N 0.06081 0.45305 0.03054
 Mn134 Mn 0.00018 0.49998 0.04593
 Mn135 Mn 0.04582 0.49994 0.00018
 Cl136 Cl 0.00013 0.49996 0.00019
 C137 C 0.05126 0.44082 0.05135
 C138 C 0.05131 0.55908 0.05134
 N139 N 1.04556 0.02743 0.47287
 N140 N 1.06093 0.03014 0.45296
 N141 N 1.02768 0.04525 0.52681
 N142 N 1.03037 0.06058 0.54676
 N143 N 1.04546 0.02747 0.52689
 N144 N 1.06073 0.03023 0.54690
 N145 N 1.02779 0.04522 0.47280
 N146 N 1.03058 0.06051 0.45284
 C147 C 1.05139 0.05092 0.44066
 C148 C 1.05112 0.05103 0.55910
 N149 N 0.95474 0.02750 0.52659
 N150 N 0.93940 0.03021 0.54651
 N151 N 0.97265 0.04525 0.47264
 N152 N 0.96996 0.06057 0.45268
 N153 N 0.95485 0.02748 0.47258
 N154 N 0.93957 0.03024 0.45258
 N155 N 0.97253 0.04527 0.52665
 N156 N 0.96977 0.06056 0.54662
 Mn157 Mn 1.00016 0.04557 0.49973
 C158 C 0.94896 0.05098 0.55881
 C159 C 0.94919 0.05102 0.44036
 N160 N 1.04542 -0.02767 0.52691
 N161 N 1.06072 -0.03041 0.54690
 N162 N 1.02772 -0.04547 0.47286
 N163 N 1.03048 -0.06081 0.45293
 N164 N 1.04552 -0.02771 0.47289
 N165 N 1.06087 -0.03048 0.45298
 N166 N 1.02763 -0.04544 0.52687
 N167 N 1.03034 -0.06075 0.54684
 Mn168 Mn 1.04582 -0.00012 0.49989
 C169 C 1.05112 -0.05118 0.55913
 C170 C 1.05129 -0.05127 0.44072
 N171 N 0.95481 -0.02764 0.47262
 N172 N 0.93951 -0.03037 0.45263
 N173 N 0.97247 -0.04541 0.52669
 N174 N 0.96970 -0.06070 0.54666
 N175 N 0.95470 -0.02762 0.52663
 N176 N 0.93936 -0.03033 0.54655
 N177 N 0.97257 -0.04544 0.47267
 N178 N 0.96984 -0.06076 0.45271
 Mn179 Mn 0.95445 -0.00007 0.49960
 Mn180 Mn 1.00010 -0.04577 0.49977
 Cl181 Cl 1.00013 -0.00010 0.49975
 C182 C 0.94907 -0.05116 0.44040
 C183 C 0.94891 -0.05110 0.55885
 C184 C 1.15386 0.11996 0.25225
 C185 C 1.13213 0.13101 0.26335
 C186 C 1.12108 0.15272 0.25221
 C187 C 1.13172 0.16344 0.23008
 C188 C 1.15372 0.15259 0.21869
 C189 C 1.16458 0.13061 0.23012
 C190 C 1.12130 0.12019 0.28631
 C191 C 1.11228 0.11122 0.30559
 C192 C 1.10178 0.10082 0.32825
 C193 C 1.09288 0.09201 0.34767
 C194 C 1.08234 0.08157 0.37093
 C195 C 1.06085 0.09294 0.38224
 C196 C 1.05073 0.08295 0.40496
 C197 C 1.06203 0.06146 0.41664
 C198 C 1.08355 0.05009 0.40511
 C199 C 1.09364 0.06011 0.38239
 H200 H 1.16257 0.10314 0.26074
 H201 H 1.10424 0.16143 0.26067
 H202 H 1.12267 0.18029 0.22203
 H203 H 1.18145 0.12157 0.22209
 H204 H 1.05195 0.10955 0.37352
 H205 H 1.03411 0.09206 0.41339
 H206 H 1.09260 0.03348 0.41365
 H207 H 1.11027 0.05115 0.37379
 C208 C 0.87936 -0.15276 0.25167
 C209 C 0.86832 -0.13107 0.26284
 C210 C 0.84656 -0.12002 0.25175
 C211 C 0.83579 -0.13064 0.22960
 C212 C 0.84664 -0.15260 0.21814
 C213 C 0.86867 -0.16345 0.22952
 C214 C 0.87920 -0.12029 0.28582
 C215 C 0.88825 -0.11137 0.30513
 C216 C 0.89879 -0.10101 0.32782
 C217 C 0.90770 -0.09223 0.34726
 C218 C 0.91824 -0.08181 0.37055
 C219 C 0.90695 -0.06032 0.38195
 C220 C 0.91701 -0.05031 0.40470
 C221 C 0.93849 -0.06171 0.41634
 C222 C 0.94977 -0.08323 0.40472
 C223 C 0.93968 -0.09321 0.38196
 H224 H 0.89621 -0.16147 0.26012
 H225 H 0.83786 -0.10321 0.26026
 H226 H 0.81891 -0.12160 0.22158
 H227 H 0.87772 -0.18029 0.22145
 H228 H 0.89036 -0.05134 0.37327
 H229 H 0.90797 -0.03368 0.41319
 H230 H 0.96637 -0.09235 0.41323
 H231 H 0.94857 -0.10984 0.37329
 C232 C 0.84655 0.11954 0.74741
 C233 C 0.86833 0.13060 0.73635
 C234 C 0.87942 0.15227 0.74758
 C235 C 0.86876 0.16292 0.76973
 C236 C 0.84679 0.15202 0.78098
 C237 C 0.83584 0.13016 0.76957
 C238 C 0.87916 0.11985 0.71337
 C239 C 0.88818 0.11095 0.69405
 C240 C 0.89868 0.10063 0.67136
 C241 C 0.90758 0.09188 0.65192
 C242 C 0.91810 0.08150 0.62863
 C243 C 0.93957 0.09291 0.61731
 C244 C 0.94967 0.08296 0.59456
 C245 C 0.93835 0.06149 0.58286
 C246 C 0.91684 0.05009 0.59439
 C247 C 0.90678 0.06006 0.61714
 H248 H 0.83780 0.10277 0.73886
 H249 H 0.89628 0.16098 0.73917
 H250 H 0.87771 0.17973 0.77797
 H251 H 0.81896 0.12126 0.77768
 H252 H 0.94848 0.10950 0.62605
 H253 H 0.96628 0.09208 0.58613
 H254 H 0.90779 0.03350 0.58583
 H255 H 0.89017 0.05108 0.62574
 C256 C 1.12061 -0.15301 0.74787
 C257 C 1.13165 -0.13130 0.73671
 C258 C 1.15339 -0.12024 0.74783
 C259 C 1.16414 -0.13086 0.76998
 C260 C 1.15329 -0.15283 0.78143
 C261 C 1.13128 -0.16370 0.77002
 C262 C 1.12079 -0.12052 0.71373
 C263 C 1.11176 -0.11157 0.69441
 C264 C 1.10127 -0.10117 0.67172
 C265 C 1.09239 -0.09236 0.65228
 C266 C 1.08189 -0.08190 0.62899
 C267 C 1.09323 -0.06044 0.61759
 C268 C 1.08319 -0.05040 0.59484
 C269 C 1.06169 -0.06175 0.58321
 C270 C 1.05035 -0.08324 0.59482
 C271 C 1.06041 -0.09325 0.61758
 H272 H 1.10377 -0.16173 0.73940
 H273 H 1.16209 -0.10342 0.73932
 H274 H 1.18101 -0.12180 0.77801
 H275 H 1.12224 -0.18055 0.77808
 H276 H 1.10985 -0.05149 0.62627
 H277 H 1.09227 -0.03378 0.58635
 H278 H 1.03373 -0.09233 0.58631
 H279 H 1.05148 -0.10987 0.62624
 C280 C 0.25242 1.12004 1.15368
 C281 C 0.26353 1.13110 1.13195
 C282 C 0.25241 1.15282 1.12088
 C283 C 0.23029 1.16353 1.13152
 C284 C 0.21888 1.15265 1.15352
 C285 C 0.23030 1.13066 1.16440
 C286 C 0.28648 1.12030 1.12112
 C287 C 0.30575 1.11133 1.11212
 C288 C 0.32840 1.10091 1.10166
 C289 C 0.34781 1.09210 1.09278
 C290 C 0.37105 1.08165 1.08225
 C291 C 0.38237 1.09303 1.06075
 C292 C 0.40507 1.08305 1.05064
 C293 C 0.41673 1.06155 1.06197
 C294 C 0.40519 1.05018 1.08350
 C295 C 0.38248 1.06019 1.09357
 H296 H 0.26089 1.10321 1.16240
 H297 H 0.26088 1.16154 1.10404
 H298 H 0.22225 1.18038 1.12246
 H299 H 0.22227 1.12161 1.18126
 H300 H 0.37368 1.10964 1.05183
 H301 H 0.41351 1.09215 1.03400
 H302 H 0.41371 1.03357 1.09256
 H303 H 0.37388 1.05123 1.11021
 C304 C 0.25208 0.87980 0.84654
 C305 C 0.26321 0.86875 0.86829
 C306 C 0.25209 0.84705 0.87936
 C307 C 0.22995 0.83633 0.86870
 C308 C 0.21853 0.84719 0.84668
 C309 C 0.22995 0.86917 0.83580
 C310 C 0.28617 0.87955 0.87914
 C311 C 0.30547 0.88852 0.88816
 C312 C 0.32813 0.89893 0.89864
 C313 C 0.34755 0.90776 0.90753
 C314 C 0.37082 0.91823 0.91804
 C315 C 0.38224 0.90685 0.93951
 C316 C 0.40497 0.91687 0.94959
 C317 C 0.41654 0.93840 0.93827
 C318 C 0.40489 0.94978 0.91677
 C319 C 0.38217 0.93972 0.90672
 H320 H 0.26056 0.89661 0.83781
 H321 H 0.26057 0.83833 0.89622
 H322 H 0.22192 0.81949 0.87777
 H323 H 0.22190 0.87821 0.81891
 H324 H 0.37361 0.89021 0.94843
 H325 H 0.41349 0.90777 0.96621
 H326 H 0.41335 0.96641 0.90771
 H327 H 0.37348 0.94869 0.89011
 C328 C 0.74775 0.84713 1.12030
 C329 C 0.73663 0.86883 1.13136
 C330 C 0.74778 0.87990 1.15310
 C331 C 0.76993 0.86929 1.16382
 C332 C 0.78135 0.84732 1.15294
 C333 C 0.76991 0.83644 1.13094
 C334 C 0.71365 0.87962 1.12054
 C335 C 0.69434 0.88857 1.11155
 C336 C 0.67166 0.89898 1.10110
 C337 C 0.65222 0.90780 1.09225
 C338 C 0.62894 0.91827 1.08177
 C339 C 0.61756 0.93971 1.09316
 C340 C 0.59481 0.94975 1.08314
 C341 C 0.58318 0.93842 1.06161
 C342 C 0.59478 0.91694 1.05023
 C343 C 0.61753 0.90693 1.06028
 H344 H 0.73926 0.83840 1.10345
 H345 H 0.73930 0.89672 1.16183
 H346 H 0.77799 0.87835 1.18069
 H347 H 0.77794 0.81960 1.12187
 H348 H 0.62623 0.94864 1.10980
 H349 H 0.58634 0.96635 1.09226
 H350 H 0.58628 0.90787 1.03359
 H351 H 0.62618 0.89033 1.05131
 C352 C 0.74742 1.15288 0.87977
 C353 C 0.73626 1.13119 0.86868
 C354 C 0.74738 1.12011 0.84697
 C355 C 0.76954 1.13070 0.83628
 C356 C 0.78099 1.15266 0.84718
 C357 C 0.76957 1.16355 0.86917
 C358 C 0.71328 1.12043 0.87947
 C359 C 0.69397 1.11149 0.88843
 C360 C 0.67128 1.10112 0.89885
 C361 C 0.65185 1.09232 0.90768
 C362 C 0.62857 1.08188 0.91815
 C363 C 0.61714 1.06045 0.90676
 C364 C 0.59440 1.05043 0.91677
 C365 C 0.58283 1.06178 0.93830
 C366 C 0.59448 1.08324 0.94969
 C367 C 0.61721 1.09323 0.93964
 H368 H 0.73894 1.16162 0.89660
 H369 H 0.73888 1.10331 0.83822
 H370 H 0.77758 1.12163 0.81943
 H371 H 0.77764 1.18039 0.87825
 H372 H 0.62577 1.05151 0.89012
 H373 H 0.58589 1.03384 0.90766
 H374 H 0.58602 1.09232 0.96633
 H375 H 0.62591 1.10982 0.94861
 C376 C 0.15337 0.25237 0.12041
 C377 C 0.13164 0.26347 0.13148
 C378 C 0.12057 0.25230 0.15321
 C379 C 0.13123 0.23016 0.16389
 C380 C 0.15316 0.21887 0.15296
 C381 C 0.16407 0.23023 0.13104
 C382 C 0.12082 0.28643 0.12070
 C383 C 0.11182 0.30572 0.11174
 C384 C 0.10136 0.32839 0.10135
 C385 C 0.09250 0.34781 0.09253
 C386 C 0.08202 0.37108 0.08207
 C387 C 0.06057 0.38246 0.09345
 C388 C 0.05051 0.40518 0.08344
 C389 C 0.06183 0.41679 0.06192
 C390 C 0.08331 0.40520 0.05054
 C391 C 0.09334 0.38247 0.06058
 H392 H 0.16210 0.26087 0.10359
 H393 H 0.10375 0.26074 0.16194
 H394 H 0.12231 0.22197 0.18074
 H395 H 0.18093 0.22209 0.12212
 H396 H 0.05166 0.37379 0.11009
 H397 H 0.03392 0.41366 0.09255
 H398 H 0.09237 0.41368 0.03391
 H399 H 0.10993 0.37382 0.05161
 C400 C -0.15339 0.25231 -0.11961
 C401 C -0.13162 0.26338 -0.13067
 C402 C -0.12054 0.25218 -0.15236
 C403 C -0.13121 0.23005 -0.16304
 C404 C -0.15317 0.21880 -0.15215
 C405 C -0.16411 0.23018 -0.13025
 C406 C -0.12079 0.28634 -0.11989
 C407 C -0.11177 0.30564 -0.11097
 C408 C -0.10129 0.32831 -0.10062
 C409 C -0.09240 0.34775 -0.09185
 C410 C -0.08188 0.37102 -0.08145
 C411 C -0.06044 0.38237 -0.09288
 C412 C -0.05036 0.40511 -0.08292
 C413 C -0.06166 0.41677 -0.06141
 C414 C -0.08313 0.40520 -0.04999
 C415 C -0.09318 0.38246 -0.05998
 H416 H -0.16213 0.26084 -0.10281
 H417 H -0.10369 0.26061 -0.16108
 H418 H -0.12228 0.22184 -0.17988
 H419 H -0.18099 0.22206 -0.12135
 H420 H -0.05155 0.37366 -0.10950
 H421 H -0.03376 0.41356 -0.09206
 H422 H -0.09217 0.41373 -0.03337
 H423 H -0.10978 0.37384 -0.05098
 C424 C 0.15309 0.74750 -0.12017
 C425 C 0.13134 0.73638 -0.13126
 C426 C 0.12025 0.74751 -0.15301
 C427 C 0.13088 0.76964 -0.16371
 C428 C 0.15282 0.78096 -0.15277
 C429 C 0.16376 0.76964 -0.13082
 C430 C 0.12056 0.71342 -0.12045
 C431 C 0.11159 0.69413 -0.11147
 C432 C 0.10117 0.67146 -0.10105
 C433 C 0.09235 0.65204 -0.09221
 C434 C 0.08189 0.62878 -0.08174
 C435 C 0.06041 0.61740 -0.09311
 C436 C 0.05037 0.59468 -0.08309
 C437 C 0.06175 0.58307 -0.06157
 C438 C 0.08326 0.59467 -0.05020
 C439 C 0.09327 0.61739 -0.06026
 H440 H 0.16184 0.73903 -0.10333
 H441 H 0.10342 0.73904 -0.16175
 H442 H 0.12194 0.77781 -0.18058
 H443 H 0.18063 0.77780 -0.12189
 H444 H 0.05144 0.62606 -0.10973
 H445 H 0.03374 0.58620 -0.09218
 H446 H 0.09237 0.58618 -0.03357
 H447 H 0.10989 0.62604 -0.05130
 C448 C -0.12024 0.74777 0.15269
 C449 C -0.13133 0.73657 0.13098
 C450 C -0.15310 0.74763 0.11988
 C451 C -0.16381 0.76977 0.13049
 C452 C -0.15286 0.78116 0.15240
 C453 C -0.13090 0.76991 0.16335
 C454 C -0.12050 0.71361 0.12023
 C455 C -0.11148 0.69431 0.11133
 C456 C -0.10100 0.67163 0.10100
 C457 C -0.09212 0.65220 0.09224
 C458 C -0.08163 0.62893 0.08184
 C459 C -0.09297 0.61749 0.06036
 C460 C -0.08294 0.59476 0.05037
 C461 C -0.06145 0.58319 0.06180
 C462 C -0.05011 0.59484 0.08332
 C463 C -0.06017 0.61758 0.09327
 H464 H -0.10339 0.73936 0.16145
 H465 H -0.16184 0.73910 0.10307
 H466 H -0.18069 0.77788 0.12155
 H467 H -0.12196 0.77813 0.18019
 H468 H -0.10958 0.62612 0.05135
 H469 H -0.09202 0.58624 0.03374
 H470 H -0.03350 0.58638 0.09246
 H471 H -0.05124 0.62628 0.10990
 C472 C 1.11964 0.15368 0.74782
 C473 C 1.13070 0.13194 0.73675
 C474 C 1.15239 0.12089 0.74798
 C475 C 1.16307 0.13155 0.77014
 C476 C 1.15220 0.15356 0.78150
 C477 C 1.13025 0.16442 0.76999
 C478 C 1.11995 0.12108 0.71376
 C479 C 1.11105 0.11202 0.69443
 C480 C 1.10073 0.10148 0.67173
 C481 C 1.09199 0.09254 0.65228
 C482 C 1.08161 0.08197 0.62897
 C483 C 1.09304 0.06050 0.61768
 C484 C 1.08310 0.05038 0.59491
 C485 C 1.06162 0.06166 0.58317
 C486 C 1.05020 0.08316 0.59469
 C487 C 1.06017 0.09325 0.61745
 H488 H 1.10284 0.16239 0.73926
 H489 H 1.16111 0.10404 0.73955
 H490 H 1.17990 0.12249 0.77825
 H491 H 1.12120 0.18129 0.77798
 H492 H 1.10964 0.05162 0.62644
 H493 H 1.09224 0.03376 0.58649
 H494 H 1.03360 0.09219 0.58611
 H495 H 1.05117 0.10987 0.62604
 C496 C 0.87969 -0.15289 0.74752
 C497 C 0.86863 -0.13119 0.73637
 C498 C 0.84692 -0.12013 0.74750
 C499 C 0.83623 -0.13074 0.76966
 C500 C 0.84710 -0.15272 0.78110
 C501 C 0.86908 -0.16359 0.76968
 C502 C 0.87941 -0.12039 0.71339
 C503 C 0.88838 -0.11142 0.69407
 C504 C 0.89879 -0.10101 0.67138
 C505 C 0.90763 -0.09218 0.65194
 C506 C 0.91811 -0.08174 0.62866
 C507 C 0.90678 -0.06029 0.61722
 C508 C 0.91681 -0.05027 0.59447
 C509 C 0.93831 -0.06164 0.58290
 C510 C 0.94964 -0.08313 0.59456
 C511 C 0.93957 -0.09311 0.61730
 H512 H 0.89651 -0.16161 0.73904
 H513 H 0.83820 -0.10331 0.73900
 H514 H 0.81938 -0.12169 0.77770
 H515 H 0.87813 -0.18044 0.77774
 H516 H 0.89016 -0.05133 0.62585
 H517 H 0.90774 -0.03367 0.58594
 H518 H 0.96625 -0.09223 0.58610
 H519 H 0.94850 -0.10972 0.62600
 C520 C 1.12039 -0.15388 0.25240
 C521 C 1.13143 -0.13212 0.26348
 C522 C 1.15312 -0.12107 0.25231
 C523 C 1.16382 -0.13174 0.23018
 C524 C 1.15296 -0.15376 0.21881
 C525 C 1.13100 -0.16463 0.23026
 C526 C 1.12064 -0.12126 0.28643
 C527 C 1.11170 -0.11220 0.30571
 C528 C 1.10132 -0.10167 0.32837
 C529 C 1.09251 -0.09275 0.34777
 C530 C 1.08205 -0.08220 0.37102
 C531 C 1.09344 -0.06074 0.38240
 C532 C 1.08342 -0.05062 0.40511
 C533 C 1.06188 -0.06190 0.41671
 C534 C 1.05050 -0.08339 0.40511
 C535 C 1.06055 -0.09348 0.38240
 H536 H 1.10358 -0.16259 0.26090
 H537 H 1.16183 -0.10422 0.26075
 H538 H 1.18065 -0.12269 0.22212
 H539 H 1.12196 -0.18151 0.22225
 H540 H 1.11008 -0.05185 0.37375
 H541 H 1.09253 -0.03401 0.41359
 H542 H 1.03386 -0.09243 0.41358
 H543 H 1.05158 -0.11009 0.37375
 C544 C 0.84754 0.12074 0.25164
 C545 C 0.86926 0.13178 0.26282
 C546 C 0.88030 0.15352 0.25175
 C547 C 0.86965 0.16428 0.22961
 C548 C 0.84766 0.15343 0.21815
 C549 C 0.83681 0.13142 0.22951
 C550 C 0.88006 0.12091 0.28579
 C551 C 0.88902 0.11187 0.30509
 C552 C 0.89940 0.10136 0.32777
 C553 C 0.90819 0.09245 0.34721
 C554 C 0.91861 0.08190 0.37050
 C555 C 0.94008 0.09319 0.38198
 C556 C 0.95007 0.08312 0.40474
 C557 C 0.93867 0.06163 0.41629
 C558 C 0.91717 0.05033 0.40459
 C559 C 0.90721 0.06044 0.38183
 H560 H 0.83883 0.10389 0.26008
 H561 H 0.89713 0.16222 0.26027
 H562 H 0.87869 0.18116 0.22161
 H563 H 0.81996 0.12237 0.22144
 H564 H 0.94906 0.10981 0.37337
 H565 H 0.96669 0.09216 0.41329
 H566 H 0.90805 0.03372 0.41303
 H567 H 0.89059 0.05154 0.37310
 C568 C 0.11970 0.25235 -0.15346
 C569 C 0.13078 0.26343 -0.13169
 C570 C 0.15247 0.25226 -0.12060
 C571 C 0.16313 0.23012 -0.13124
 C572 C 0.15225 0.21875 -0.15328
 C573 C 0.13029 0.23021 -0.16419
 C574 C 0.12003 0.28639 -0.12085
 C575 C 0.11113 0.30569 -0.11182
 C576 C 0.10080 0.32835 -0.10131
 C577 C 0.09204 0.34777 -0.09240
 C578 C 0.08165 0.37103 -0.08186
 C579 C 0.09308 0.38238 -0.06038
 C580 C 0.08313 0.40510 -0.05027
 C581 C 0.06162 0.41675 -0.06159
 C582 C 0.05019 0.40518 -0.08310
 C583 C 0.06017 0.38246 -0.09317
 H584 H 0.10290 0.26086 -0.16221
 H585 H 0.16120 0.26070 -0.10373
 H586 H 0.17997 0.22205 -0.12215
 H587 H 0.12123 0.22220 -0.18108
 H588 H 0.10971 0.37369 -0.05146
 H589 H 0.09228 0.41356 -0.03365
 H590 H 0.03356 0.41369 -0.09216
 H591 H 0.05116 0.37384 -0.10980
 C592 C -0.15268 0.25231 0.12046
 C593 C -0.13095 0.26342 0.13155
 C594 C -0.11986 0.25227 0.15326
 C595 C -0.13047 0.23012 0.16395
 C596 C -0.15246 0.21872 0.15305
 C597 C -0.16336 0.23016 0.13106
 C598 C -0.12017 0.28640 0.12076
 C599 C -0.11122 0.30570 0.11180
 C600 C -0.10082 0.32838 0.10138
 C601 C -0.09201 0.34781 0.09255
 C602 C -0.08157 0.37109 0.08208
 C603 C -0.06011 0.38248 0.09346
 C604 C -0.05009 0.40522 0.08344
 C605 C -0.06147 0.41682 0.06192
 C606 C -0.08297 0.40521 0.05055
 C607 C -0.09296 0.38247 0.06060
 H608 H -0.16142 0.26081 0.10363
 H609 H -0.10303 0.26074 0.16201
 H610 H -0.12139 0.22206 0.18081
 H611 H -0.18022 0.22213 0.12198
 H612 H -0.05114 0.37383 0.11009
 H613 H -0.03347 0.41371 0.09254
 H614 H -0.09208 0.41369 0.03392
 H615 H -0.10958 0.37381 0.05164
 C616 C -0.11981 0.74758 -0.15327
 C617 C -0.13088 0.73648 -0.13151
 C618 C -0.15257 0.74765 -0.12043
 C619 C -0.16324 0.76979 -0.13110
 C620 C -0.15233 0.78108 -0.15306
 C621 C -0.13043 0.76972 -0.16399
 C622 C -0.12011 0.71352 -0.12067
 C623 C -0.11117 0.69423 -0.11166
 C624 C -0.10080 0.67156 -0.10119
 C625 C -0.09201 0.65213 -0.09232
 C626 C -0.08158 0.62886 -0.08181
 C627 C -0.09295 0.61751 -0.06032
 C628 C -0.08297 0.59478 -0.05024
 C629 C -0.06150 0.58313 -0.06159
 C630 C -0.05014 0.59470 -0.08311
 C631 C -0.06015 0.61743 -0.09316
 H632 H -0.10301 0.73908 -0.16200
 H633 H -0.16130 0.73920 -0.10359
 H634 H -0.18007 0.77798 -0.12218
 H635 H -0.12152 0.77786 -0.18087
 H636 H -0.10954 0.62620 -0.05138
 H637 H -0.09206 0.58632 -0.03361
 H638 H -0.03355 0.58619 -0.09220
 H639 H -0.05120 0.62606 -0.10979
 C640 C 0.12041 0.74744 0.15376
 C641 C 0.13146 0.73634 0.13202
 C642 C 0.15315 0.74749 0.12096
 C643 C 0.16384 0.76963 0.13161
 C644 C 0.15298 0.78102 0.15362
 C645 C 0.13102 0.76957 0.16450
 C646 C 0.12067 0.71339 0.12117
 C647 C 0.11172 0.69410 0.11214
 C648 C 0.10133 0.67144 0.10164
 C649 C 0.09252 0.65203 0.09274
 C650 C 0.08205 0.62879 0.08221
 C651 C 0.09341 0.61742 0.06072
 C652 C 0.08339 0.59471 0.05062
 C653 C 0.06189 0.58310 0.06195
 C654 C 0.05054 0.59468 0.08347
 C655 C 0.06059 0.61739 0.09354
 H656 H 0.10360 0.73894 0.16248
 H657 H 0.16187 0.73904 0.10411
 H658 H 0.18068 0.77768 0.12255
 H659 H 0.12197 0.77759 0.18137
 H660 H 0.11002 0.62609 0.05180
 H661 H 0.09248 0.58625 0.03399
 H662 H 0.03393 0.58619 0.09255
 H663 H 0.05164 0.62602 0.11017
 C664 C 0.25182 1.12038 0.84720
 C665 C 0.26298 1.13145 0.86895
 C666 C 0.25188 1.15319 0.88002
 C667 C 0.22974 1.16389 0.86934
 C668 C 0.21840 1.15297 0.84739
 C669 C 0.22968 1.13104 0.83648
 C670 C 0.28594 1.12064 0.87977
 C671 C 0.30524 1.11165 0.88874
 C672 C 0.32792 1.10121 0.89914
 C673 C 0.34735 1.09236 0.90796
 C674 C 0.37064 1.08187 0.91840
 C675 C 0.38207 1.09319 0.93989
 C676 C 0.40483 1.08318 0.94990
 C677 C 0.41641 1.06171 0.93849
 C678 C 0.40475 1.05039 0.91696
 C679 C 0.38200 1.06044 0.90698
 H680 H 0.26026 1.10355 0.83847
 H681 H 0.26037 1.16192 0.89686
 H682 H 0.22160 1.18075 0.87826
 H683 H 0.22150 1.12212 0.81961
 H684 H 0.37343 1.10979 0.94888
 H685 H 0.41335 1.09224 0.96654
 H686 H 0.41322 1.03380 0.90783
 H687 H 0.37330 1.05152 0.89035
 C688 C 0.25258 0.84660 1.12045
 C689 C 0.26369 0.86835 1.13151
 C690 C 0.25255 0.87942 1.15325
 C691 C 0.23044 0.86875 1.16395
 C692 C 0.21914 0.84681 1.15303
 C693 C 0.23047 0.83588 1.13110
 C694 C 0.28662 0.87918 1.12070
 C695 C 0.30589 0.88819 1.11172
 C696 C 0.32853 0.89865 1.10129
 C697 C 0.34793 0.90752 1.09245
 C698 C 0.37117 0.91803 1.08197
 C699 C 0.38256 0.93948 1.09336
 C700 C 0.40526 0.94956 1.08333
 C701 C 0.41683 0.93826 1.06178
 C702 C 0.40522 0.91677 1.05040
 C703 C 0.38253 0.90672 1.06046
 H704 H 0.26106 0.83787 1.10362
 H705 H 0.26100 0.89626 1.16198
 H706 H 0.22227 0.87767 1.18081
 H707 H 0.22232 0.81901 1.12218
 H708 H 0.37392 0.94838 1.11002
 H709 H 0.41374 0.96616 1.09245
 H710 H 0.41368 0.90772 1.03374
 H711 H 0.37386 0.89012 1.05149
 C712 C 0.74789 1.12038 1.15263
 C713 C 0.73668 1.13149 1.13092
 C714 C 0.74775 1.15325 1.11986
 C715 C 0.76992 1.16393 1.13050
 C716 C 0.78132 1.15297 1.15240
 C717 C 0.77005 1.13102 1.16331
 C718 C 0.71369 1.12069 1.12015
 C719 C 0.69436 1.11170 1.11122
 C720 C 0.67166 1.10125 1.10086
 C721 C 0.65221 1.09239 1.09208
 C722 C 0.62891 1.08190 1.08167
 C723 C 0.61742 1.09324 1.06022
 C724 C 0.59466 1.08322 1.05023
 C725 C 0.58312 1.06172 1.06163
 C726 C 0.59482 1.05038 1.08312
 C727 C 0.61758 1.06044 1.09308
 H728 H 0.73946 1.10354 1.16135
 H729 H 0.73922 1.16200 1.10306
 H730 H 0.77804 1.18081 1.12159
 H731 H 0.77828 1.12207 1.18014
 H732 H 0.62604 1.10986 1.05124
 H733 H 0.58610 1.09229 1.03363
 H734 H 0.58638 1.03376 1.09224
 H735 H 0.62632 1.05150 1.10968
 C736 C 0.74741 0.88041 0.84658
 C737 C 0.73629 0.86935 0.86834
 C738 C 0.74745 0.84765 0.87945
 C739 C 0.76958 0.83698 0.86882
 C740 C 0.78089 0.84788 0.84687
 C741 C 0.76955 0.86977 0.83590
 C742 C 0.71333 0.88013 0.87913
 C743 C 0.69403 0.88908 0.88810
 C744 C 0.67135 0.89945 0.89854
 C745 C 0.65192 0.90823 0.90740
 C746 C 0.62865 0.91863 0.91790
 C747 C 0.61732 0.90722 0.93937
 C748 C 0.59458 0.91716 0.94945
 C749 C 0.58292 0.93864 0.93813
 C750 C 0.59447 0.95005 0.91662
 C751 C 0.61720 0.94007 0.90657
 H752 H 0.73892 0.89721 0.83782
 H753 H 0.73899 0.83894 0.89629
 H754 H 0.77777 0.82014 0.87778
 H755 H 0.77770 0.87868 0.81903
 H756 H 0.62603 0.89061 0.94830
 H757 H 0.58614 0.90803 0.96608
 H758 H 0.58594 0.96665 0.90755
 H759 H 0.62582 0.94906 0.88995
   
