data_POSCAR
  _audit_creation_date              2014-09-24
  _audit_creation_method            'ToBaCCo'
  _symmetry_space_group_name_H-M    'P1'
  _symmetry_Int_Tables_number       1
  _symmetry_cell_setting            triclinic
  loop_
  _symmetry_equiv_pos_as_xyz
 x,y,z
_cell_length_a 40.6115
_cell_length_b 41.7822
_cell_length_c 39.1595
_cell_angle_alpha 89.374000
_cell_angle_beta 88.796400
_cell_angle_gamma 88.281700
loop_
  _atom_site_label
  _atom_site_type_symbol
  _atom_site_fract_x
  _atom_site_fract_y
  _atom_site_fract_z
C1 C 0.22000 0.20748 0.25224
 N2 N 0.24673 0.19592 0.23438
 C3 C 0.25687 0.21054 0.20499
 N4 N 0.24000 0.23693 0.19344
 C5 C 0.21332 0.24877 0.21118
 N6 N 0.20334 0.23392 0.24048
 C7 C -0.19435 0.79842 0.24597
 N8 N -0.22429 0.80791 0.23406
 C9 C -0.24078 0.78898 0.21268
 N10 N -0.22709 0.76027 0.20320
 C11 C -0.19725 0.75046 0.21519
 N12 N -0.18093 0.76965 0.23643
 C13 C -0.20587 0.19815 -0.22115
 N14 N -0.23306 0.18659 -0.20510
 C15 C -0.24545 0.20060 -0.17619
 N16 N -0.23033 0.22630 -0.16326
 C17 C -0.20324 0.23807 -0.17933
 N18 N -0.19114 0.22390 -0.20814
 C19 C 0.20898 0.81089 -0.22797
 N20 N 0.23854 0.81883 -0.21543
 C21 C 0.25182 0.80191 -0.18893
 N22 N 0.23518 0.77705 -0.17491
 C23 C 0.20563 0.76902 -0.18738
 N24 N 0.19265 0.78603 -0.21382
 C25 C 0.19686 1.20424 0.74637
 N26 N 0.22127 1.18626 0.76111
 C27 C 0.23611 1.19661 0.78954
 N28 N 0.22638 1.22510 0.80334
 C29 C 0.20204 1.24334 0.78891
 N30 N 0.18729 1.23277 0.76042
 C31 C 0.80290 0.79579 0.74520
 N32 N 0.77432 0.81034 0.75632
 C33 C 0.75636 0.79733 0.78233
 N34 N 0.76721 0.76964 0.79743
 C35 C 0.79574 0.75485 0.78652
 N36 N 0.81346 0.76806 0.76040
 C37 C 0.18159 0.78945 1.23612
 N38 N 0.20897 0.80375 1.22358
 C39 C 0.22615 0.79130 1.19653
 N40 N 0.21584 0.76418 1.18184
 C41 C 0.18860 0.74946 1.19422
 N42 N 0.17140 0.76225 1.22128
 C43 C 0.79728 1.21003 1.22546
 N44 N 0.77362 1.19287 1.21077
 C45 C 0.76057 1.20238 1.18056
 N46 N 0.77138 1.22940 1.16480
 C47 C 0.79499 1.24692 1.17938
 N48 N 0.80785 1.23705 1.20967
 O49 O 0.53233 0.98082 0.93312
 O50 O 0.47077 0.95666 1.06820
 O51 O 0.55074 0.93787 1.02784
 O52 O 0.44948 0.95204 0.98786
 O53 O 0.53138 0.95895 1.07418
 O54 O 0.47357 0.96626 0.94104
 O55 O 0.43130 0.97990 1.04082
 O56 O 0.54087 0.94540 0.96985
 C57 C 0.54287 0.95347 0.93983
 C58 C 0.44090 0.95902 1.06170
 C59 C 0.54745 0.93717 1.05930
 C60 C 0.45674 0.94642 0.95752
 O61 O 0.45980 1.02825 0.95772
 O62 O 0.53026 1.02032 1.06974
 O63 O 0.56303 1.00845 0.97426
 O64 O 0.45177 1.03428 1.01761
 O65 O 0.46775 1.02109 1.06827
 O66 O 0.51939 1.03695 0.96005
 O67 O 0.41680 1.00385 0.97881
 O68 O 0.56881 0.99914 1.03537
 Co69 Co 0.49654 1.00132 0.95375
 Co70 Co 0.49972 0.98928 1.06428
 Co71 Co 0.55160 0.97398 1.00171
 Co72 Co 0.45320 0.99277 1.00222
 O73 O 0.50215 0.98809 1.00830
 C74 C 0.42925 1.02267 0.95519
 C75 C 0.55954 1.01892 1.05836
 C76 C 0.54983 1.03468 0.96434
 C77 C 0.45355 1.04061 1.04851
 O78 O 0.01616 0.47184 0.07848
 O79 O 0.03377 0.53138 -0.07001
 O80 O 0.05641 0.45880 -0.02664
 O81 O 0.01797 0.55919 0.02493
 O82 O 0.03384 0.47104 -0.07401
 O83 O 0.04268 0.51537 0.04301
 O84 O 0.00868 0.56678 -0.03635
 O85 O 0.04390 0.45762 0.03302
 C86 C 0.03769 0.45238 0.06441
 C87 C 0.03057 0.55938 -0.05879
 C88 C 0.05761 0.45910 -0.05821
 C89 C 0.04248 0.54520 0.03873
 O90 O -0.01306 0.52773 0.07023
 O91 O -0.03025 0.47299 -0.06989
 O92 O -0.01767 0.43682 0.01988
 O93 O -0.05349 0.54419 -0.02660
 O94 O -0.02923 0.53305 -0.07393
 O95 O -0.03731 0.47815 0.04579
 O96 O -0.04595 0.53721 0.03121
 O97 O -0.00395 0.43558 -0.04077
 Co98 Co 0.00300 0.49577 0.04220
 Co99 Co 0.00187 0.50183 -0.06591
 Co100 Co 0.01796 0.45171 -0.00401
 Co101 Co -0.01663 0.54792 -0.00203
 O102 O 0.00043 0.50071 -0.00954
 C103 C -0.03908 0.54110 0.06145
 C104 C -0.02695 0.44441 -0.06038
 C105 C -0.04009 0.44975 0.03771
 C106 C -0.05329 0.54497 -0.05806
 O107 O 1.06946 0.01724 0.46254
 O108 O 0.94045 0.04639 0.52598
 O109 O 0.97838 0.06120 0.44139
 O110 O 1.01622 0.04892 0.54790
 O111 O 0.93368 0.04313 0.46347
 O112 O 1.06155 0.03311 0.52343
 O113 O 0.96522 0.02233 0.56712
 O114 O 1.03418 0.05297 0.45183
 C115 C 1.06325 0.04463 0.45187
 C116 C 0.94500 0.04328 0.55714
 C117 C 0.94813 0.06323 0.44536
 C118 C 1.04566 0.05361 0.54088
 O119 O 1.04504 -0.02815 0.53748
 O120 O 0.93683 -0.01817 0.46486
 O121 O 1.03008 -0.01069 0.43020
 O122 O 0.98738 -0.03278 0.54538
 O123 O 0.93874 -0.01809 0.52918
 O124 O 1.04349 -0.03825 0.47575
 O125 O 1.02484 -0.00240 0.58188
 O126 O 0.97068 -0.00047 0.42425
 Co127 Co 1.04938 -0.00217 0.49945
 Co128 Co 0.94305 0.01312 0.49620
 Co129 Co 1.00342 0.02451 0.44149
 Co130 Co 1.00232 0.00839 0.54408
 O131 O 0.99691 0.01221 0.49325
 C132 C 1.04774 -0.02170 0.56900
 C133 C 0.94749 -0.01829 0.43442
 C134 C 1.03981 -0.03669 0.44410
 C135 C 0.95745 -0.03811 0.54373
 N136 N 1.16822 0.18478 0.32396
 C137 C 1.18306 0.15687 0.33408
 N138 N 1.21095 0.14642 0.31756
 N139 N 1.22349 0.16331 0.29157
 C140 C 1.20843 0.19111 0.28105
 N141 N 1.18071 0.20164 0.29797
 C142 C 1.16731 0.13721 0.35945
 C143 C 1.15199 0.12097 0.37943
 C144 C 1.13110 0.10237 0.40139
 N145 N 1.14038 0.07240 0.41183
 N146 N 1.11922 0.05415 0.42912
 C147 C 1.08808 0.06528 0.43629
 N148 N 1.07909 0.09536 0.42608
 N149 N 1.10021 0.11357 0.40894
 N150 N 0.82688 -0.13234 0.29422
 C151 C 0.85730 -0.14108 0.30519
 N152 N 0.87031 -0.17027 0.29678
 N153 N 0.85346 -0.19005 0.27774
 C154 C 0.82299 -0.18133 0.26657
 N155 N 0.81004 -0.15209 0.27519
 C156 C 0.87503 -0.11996 0.32619
 C157 C 0.88911 -0.10210 0.34444
 C158 C 0.90469 -0.08091 0.36720
 N159 N 0.89436 -0.07931 0.40025
 N160 N 0.90816 -0.05933 0.42155
 C161 C 0.93274 -0.04022 0.41054
 N162 N 0.94313 -0.04187 0.37738
 N163 N 0.92929 -0.06190 0.35603
 N164 N 0.80997 0.13970 0.71279
 C165 C 0.83823 0.15050 0.69834
 N166 N 0.85109 0.17770 0.71010
 N167 N 0.83630 0.19353 0.73575
 C168 C 0.80818 0.18266 0.75060
 N169 N 0.79515 0.15554 0.73847
 C170 C 0.85556 0.13236 0.67247
 C171 C 0.87097 0.11694 0.65146
 C172 C 0.88999 0.09835 0.62722
 N173 N 0.91280 0.07641 0.63813
 N174 N 0.93055 0.05901 0.61574
 C175 C 0.92612 0.06305 0.58169
 N176 N 0.90331 0.08510 0.57081
 N177 N 0.88555 0.10250 0.59323
 N178 N 1.14850 -0.15945 0.70981
 C179 C 1.16277 -0.13273 0.69736
 N180 N 1.19274 -0.12487 0.70881
 N181 N 1.20789 -0.14315 0.73216
 C182 C 1.19352 -0.16985 0.74482
 N183 N 1.16361 -0.17769 0.73313
 C184 C 1.14541 -0.11233 0.67369
 C185 C 1.12970 -0.09546 0.65447
 C186 C 1.10985 -0.07572 0.63232
 N187 N 1.08923 -0.05272 0.64557
 N188 N 1.06962 -0.03529 0.62530
 C189 C 1.06991 -0.04036 0.59112
 N190 N 1.09066 -0.06333 0.57788
 N191 N 1.11028 -0.08077 0.59817
 N192 N 0.32315 1.15663 1.17803
 C193 C 0.33207 1.16950 1.14743
 N194 N 0.31641 1.19668 1.13637
 N195 N 0.29240 1.21044 1.15535
 C196 C 0.28318 1.19739 1.18593
 N197 N 0.29917 1.17033 1.19696
 C198 C 0.35641 1.15315 1.12644
 C199 C 0.37631 1.13735 1.11014
 C200 C 0.39922 1.11607 1.09279
 N201 N 0.42144 1.09874 1.11117
 N202 N 0.43981 1.07564 1.09648
 C203 C 0.43661 1.06902 1.06288
 N204 N 0.41469 1.08675 1.04430
 N205 N 0.39621 1.10986 1.05907
 N206 N 0.32443 0.84687 0.82653
 C207 C 0.33661 0.83159 0.85447
 N208 N 0.32096 0.80576 0.86731
 N209 N 0.29387 0.79561 0.85271
 C210 C 0.28135 0.81110 0.82493
 N211 N 0.29735 0.83676 0.81195
 C212 C 0.36335 0.84494 0.87232
 C213 C 0.38439 0.85810 0.88771
 C214 C 0.40736 0.87623 0.90628
 N215 N 0.42933 0.89468 0.88929
 N216 N 0.44674 0.91577 0.90604
 C217 C 0.44268 0.91917 0.94033
 N218 N 0.42114 0.90020 0.95736
 N219 N 0.40376 0.87912 0.94061
 N220 N 0.68664 0.79428 1.16082
 C221 C 0.67421 0.82372 1.16920
 N222 N 0.68961 0.84096 1.19287
 N223 N 0.71674 0.82929 1.20757
 C224 C 0.72954 0.79998 1.19901
 N225 N 0.71379 0.78256 1.17557
 C226 C 0.64723 0.83803 1.15093
 C227 C 0.62590 0.85188 1.13517
 C228 C 0.60233 0.87045 1.11601
 N229 N 0.58218 0.89228 1.13196
 N230 N 0.56353 0.91270 1.11386
 C231 C 0.56452 0.91205 1.07918
 N232 N 0.58440 0.88988 1.06330
 N233 N 0.60304 0.86946 1.08141
 N234 N 0.69157 1.18619 0.88827
 C235 C 0.67762 1.15974 0.87590
 N236 N 0.68882 1.14754 0.84577
 N237 N 0.71336 1.16122 0.82857
 C238 C 0.72766 1.18755 0.84095
 N239 N 0.71613 1.19993 0.87103
 C240 C 0.65312 1.14313 0.89541
 C241 C 0.63352 1.12724 0.91101
 C242 C 0.61151 1.10603 0.92831
 N243 N 0.62393 1.08028 0.94559
 N244 N 0.60401 1.05818 0.95824
 C245 C 0.57097 1.06104 0.95400
 N246 N 0.55849 1.08710 0.93710
 N247 N 0.57847 1.10921 0.92438
 N248 N 0.14723 0.31007 0.20006
 C249 C 0.15618 0.32381 0.16988
 N250 N 0.18433 0.31348 0.15377
 N251 N 0.20291 0.29000 0.16732
 C252 C 0.19395 0.27603 0.19743
 N253 N 0.16582 0.28658 0.21363
 C254 C 0.13524 0.34765 0.15404
 C255 C 0.11781 0.36705 0.13955
 C256 C 0.09745 0.38939 0.12080
 N257 N 0.07292 0.40671 0.13663
 N258 N 0.05378 0.42695 0.11875
 C259 C 0.05858 0.43043 0.08450
 N260 N 0.08314 0.41303 0.06880
 N261 N 0.10223 0.39285 0.08664
 N262 N -0.14076 0.29832 -0.16702
 C263 C -0.15024 0.31105 -0.13660
 N264 N -0.17774 0.30040 -0.12044
 N265 N -0.19513 0.27748 -0.13428
 C266 C -0.18554 0.26454 -0.16471
 N267 N -0.15810 0.27544 -0.18083
 C268 C -0.13061 0.33475 -0.12144
 C269 C -0.11317 0.35435 -0.10952
 C270 C -0.09165 0.37746 -0.09622
 N271 N -0.09456 0.40857 -0.10609
 N272 N -0.07383 0.42991 -0.09469
 C273 C -0.04941 0.42078 -0.07318
 N274 N -0.04657 0.38959 -0.06330
 N275 N -0.06732 0.36825 -0.07472
 N276 N 0.18041 0.70422 -0.12877
 C277 C 0.15047 0.69725 -0.14096
 N278 N 0.13900 0.71345 -0.16863
 N279 N 0.15683 0.73607 -0.18358
 C280 C 0.18677 0.74323 -0.17142
 N281 N 0.19827 0.72688 -0.14374
 C282 C 0.13090 0.67319 -0.12485
 C283 C 0.11385 0.65306 -0.11201
 C284 C 0.09311 0.62904 -0.09761
 N285 N 0.06988 0.63674 -0.07345
 N286 N 0.04993 0.61453 -0.06093
 C287 C 0.05251 0.58394 -0.07227
 N288 N 0.07583 0.57633 -0.09642
 N289 N 0.09576 0.59852 -0.10892
 N290 N -0.18109 0.67619 0.16729
 C291 C -0.15030 0.66762 0.17737
 N292 N -0.13541 0.68568 0.20071
 N293 N -0.15079 0.71162 0.21349
 C294 C -0.18152 0.72045 0.20324
 N295 N -0.19648 0.70215 0.18007
 C296 C -0.13244 0.64185 0.16087
 C297 C -0.11702 0.62135 0.14552
 C298 C -0.09844 0.59845 0.12543
 N299 N -0.07002 0.58488 0.13713
 N300 N -0.05136 0.56582 0.11707
 C301 C -0.06051 0.55989 0.08464
 N302 N -0.08906 0.57335 0.07312
 N303 N -0.10769 0.59234 0.09317
 N304 N 1.13922 0.19765 0.67768
 C305 C 1.14824 0.16865 0.66468
 N306 N 1.17389 0.15198 0.67855
 N307 N 1.18995 0.16380 0.70466
 C308 C 1.18091 0.19273 0.71797
 N309 N 1.15533 0.20953 0.70382
 C310 C 1.12960 0.15450 0.63824
 C311 C 1.11408 0.14090 0.61713
 C312 C 1.09583 0.12254 0.59357
 N313 N 1.11195 0.10378 0.57022
 N314 N 1.09558 0.08309 0.55182
 C315 C 1.06249 0.08044 0.55612
 N316 N 1.04632 0.09969 0.57909
 N317 N 1.06271 0.12037 0.59749
 N318 N 0.83035 -0.14784 0.68091
 C319 C 0.85961 -0.16140 0.67070
 N320 N 0.86972 -0.18963 0.68500
 N321 N 0.85112 -0.20376 0.70889
 C322 C 0.82184 -0.19013 0.71934
 N323 N 0.81179 -0.16194 0.70478
 C324 C 0.87990 -0.14524 0.64591
 C325 C 0.89582 -0.13005 0.62545
 C326 C 0.91297 -0.10983 0.60159
 N327 N 0.94571 -0.10500 0.60440
 N328 N 0.96051 -0.08318 0.58475
 C329 C 0.94298 -0.06545 0.56176
 N330 N 0.91035 -0.07071 0.55877
 N331 N 0.89562 -0.09251 0.57830
 N332 N 1.11722 -0.19390 0.29951
 C333 C 1.12767 -0.16627 0.31298
 N334 N 1.15631 -0.15403 0.30125
 N335 N 1.17393 -0.16877 0.27674
 C336 C 1.16357 -0.19631 0.26293
 N337 N 1.13492 -0.20872 0.27494
 C338 C 1.10805 -0.14879 0.33789
 C339 C 1.09269 -0.13210 0.35794
 C340 C 1.07576 -0.10999 0.38058
 N341 N 1.05915 -0.08422 0.36749
 N342 N 1.04665 -0.06149 0.38797
 C343 C 1.05034 -0.06369 0.42231
 N344 N 1.06662 -0.08975 0.43546
 N345 N 1.07920 -0.11249 0.41492
 N346 N 0.81682 0.15941 0.29796
 C347 C 0.84212 0.17495 0.31166
 N348 N 0.85189 0.20279 0.29709
 N349 N 0.83687 0.21463 0.26954
 C350 C 0.81170 0.19892 0.25551
 N351 N 0.80183 0.17121 0.27043
 C352 C 0.86004 0.16046 0.33931
 C353 C 0.87534 0.14672 0.36140
 C354 C 0.89384 0.12851 0.38612
 N355 N 0.92723 0.12827 0.38493
 N356 N 0.94458 0.10839 0.40496
 C357 C 0.92912 0.08802 0.42682
 N358 N 0.89566 0.08861 0.42827
 N359 N 0.87832 0.10849 0.40823
 N360 N 0.19404 0.30822 -0.15091
 C361 C 0.16870 0.32587 -0.16406
 N362 N 0.15496 0.31630 -0.19338
 N363 N 0.16614 0.28984 -0.20902
 C364 C 0.19137 0.27192 -0.19579
 N365 N 0.20523 0.28177 -0.16654
 C366 C 0.15482 0.35290 -0.14584
 C367 C 0.14174 0.37479 -0.13037
 C368 C 0.12406 0.39973 -0.11209
 N369 N 0.10290 0.41971 -0.12887
 N370 N 0.08302 0.43998 -0.11163
 C371 C 0.08361 0.44105 -0.07700
 N372 N 0.10526 0.42141 -0.06025
 N373 N 0.12514 0.40107 -0.07752
 N374 N -0.19087 0.30846 0.11539
 C375 C -0.16655 0.32495 0.12980
 N376 N -0.15573 0.31576 0.16100
 N377 N -0.16868 0.29081 0.17727
 C378 C -0.19286 0.27403 0.16289
 N379 N -0.20389 0.28349 0.13171
 C380 C -0.15020 0.34994 0.11121
 C381 C -0.13453 0.36984 0.09599
 C382 C -0.11350 0.39188 0.07830
 N383 N -0.09268 0.38100 0.05327
 N384 N -0.07023 0.40004 0.03941
 C385 C -0.06778 0.43067 0.05006
 N386 N -0.08898 0.44174 0.07483
 N387 N -0.11144 0.42262 0.08877
 N388 N -0.15123 0.68734 -0.19095
 C389 C -0.16765 0.67489 -0.16366
 N390 N -0.19675 0.68878 -0.15339
 N391 N -0.20897 0.71443 -0.16990
 C392 C -0.19243 0.72714 -0.19713
 N393 N -0.16341 0.71297 -0.20743
 C394 C -0.15310 0.64865 -0.14473
 C395 C -0.13917 0.62739 -0.12913
 C396 C -0.12043 0.60318 -0.11108
 N397 N -0.12251 0.60091 -0.07652
 N398 N -0.10212 0.58115 -0.05955
 C399 C -0.07893 0.56306 -0.07661
 N400 N -0.07724 0.56511 -0.11123
 N401 N -0.09763 0.58482 -0.12816
 N402 N 0.18168 0.68420 0.13244
 C403 C 0.15362 0.67020 0.14335
 N404 N 0.13743 0.68180 0.17145
 N405 N 0.14889 0.70666 0.18810
 C406 C 0.17690 0.72086 0.17713
 N407 N 0.19316 0.70905 0.14909
 C408 C 0.13955 0.64534 0.12372
 C409 C 0.12624 0.62568 0.10686
 C410 C 0.10817 0.60404 0.08658
 N411 N 0.08726 0.61606 0.06285
 N412 N 0.06758 0.59684 0.04640
 C413 C 0.06814 0.56486 0.05294
 N414 N 0.08951 0.55271 0.07634
 N415 N 0.10921 0.57201 0.09291
 N416 N 0.29706 1.16734 0.85173
 C417 C 0.30562 1.13802 0.83934
 N418 N 0.29181 1.12816 0.81017
 N419 N 0.27002 1.14702 0.79397
 C420 C 0.26129 1.17636 0.80641
 N421 N 0.27528 1.18619 0.83555
 C422 C 0.32802 1.11725 0.85767
 C423 C 0.34640 1.09992 0.87374
 C424 C 0.36779 1.07944 0.89364
 N425 N 0.35502 1.05674 0.91462
 N426 N 0.37468 1.03840 0.93399
 C427 C 0.40777 1.04218 0.93304
 N428 N 0.42053 1.06485 0.91191
 N429 N 0.40085 1.08320 0.89254
 N430 N 0.28839 0.85255 1.18252
 C431 C 0.30431 0.84202 1.15384
 N432 N 0.29509 0.81433 1.13956
 N433 N 0.27057 0.79775 1.15348
 C434 C 0.25445 0.80836 1.18213
 N435 N 0.26390 0.83601 1.19642
 C436 C 0.32939 0.86093 1.13792
 C437 C 0.34978 0.87759 1.12449
 C438 C 0.37328 0.89817 1.10836
 N439 N 0.36314 0.92091 1.08564
 N440 N 0.38473 0.94035 1.07087
 C441 C 0.41720 0.93776 1.07837
 N442 N 0.42731 0.91495 1.10114
 N443 N 0.40570 0.89549 1.11593
 N444 N 0.70175 1.17134 1.11930
 C445 C 0.69202 1.14419 1.13544
 N446 N 0.70446 1.13655 1.16640
 N447 N 0.72605 1.15533 1.18075
 C448 C 0.73596 1.18247 1.16471
 N449 N 0.72340 1.19017 1.13368
 C450 C 0.66898 1.12351 1.12013
 C451 C 0.64968 1.10551 1.10823
 C452 C 0.62660 1.08362 1.09502
 N453 N 0.63612 1.06214 1.07076
 N454 N 0.61482 1.04137 1.05915
 C455 C 0.58331 1.04131 1.07153
 N456 N 0.57389 1.06286 1.09582
 N457 N 0.59518 1.08360 1.10742
 N458 N 0.68279 0.81782 0.83516
 C459 C 0.67313 0.84659 0.82182
 N460 N 0.69038 0.85885 0.79495
 N461 N 0.71651 0.84284 0.78189
 C462 C 0.72637 0.81409 0.79535
 N463 N 0.70892 0.80181 0.82213
 C464 C 0.64667 0.86487 0.83784
 C465 C 0.62536 0.88006 0.85295
 C466 C 0.60131 0.89773 0.87320
 N467 N 0.58987 0.92713 0.86311
 N468 N 0.57007 0.94461 0.88374
 C469 C 0.56118 0.93323 0.91513
 N470 N 0.57242 0.90368 0.92491
 N471 N 0.59210 0.88624 0.90432
   
