data_POSCAR
  _audit_creation_date              2014-09-24
  _audit_creation_method            'ToBaCCo'
  _symmetry_space_group_name_H-M    'P1'
  _symmetry_Int_Tables_number       1
  _symmetry_cell_setting            triclinic
  loop_
  _symmetry_equiv_pos_as_xyz
 x,y,z
_cell_length_a 35.7837
_cell_length_b 18.7712
_cell_length_c 14.7248
_cell_angle_alpha 90.286800
_cell_angle_beta 89.997500
_cell_angle_gamma 90.179900
loop_
  _atom_site_label
  _atom_site_type_symbol
  _atom_site_fract_x
  _atom_site_fract_y
  _atom_site_fract_z
O1 O 0.70369 0.22623 0.40856
 O2 O 0.76923 0.16790 0.58511
 O3 O 0.70287 0.22684 0.58392
 O4 O 0.77047 0.17010 0.40943
 O5 O 0.79643 0.27703 0.41191
 O6 O 0.72925 0.33326 0.58734
 O7 O 0.79575 0.27434 0.58613
 O8 O 0.72953 0.33323 0.41045
 Cu9 Cu 0.73398 0.18705 0.49664
 Cu10 Cu 0.76517 0.31540 0.49933
 C11 C 0.70506 0.28999 0.38037
 C12 C 0.79429 0.21037 0.61376
 C13 C 0.70416 0.29031 0.61438
 C14 C 0.79542 0.21338 0.38238
 O15 O 0.24106 0.85754 0.58378
 O16 O 0.29956 0.77658 0.40957
 O17 O 0.23129 0.83345 0.40462
 O18 O 0.29973 0.77927 0.58058
 O19 O 0.26865 0.67824 0.59687
 O20 O 0.20175 0.73126 0.42311
 O21 O 0.26904 0.67456 0.42133
 O22 O 0.20935 0.75717 0.59831
 Cu23 Cu 0.26962 0.82205 0.49122
 Cu24 Cu 0.23390 0.70065 0.51088
 C25 C 0.21572 0.82154 0.62232
 C26 C 0.29545 0.71169 0.38755
 C27 C 0.20494 0.79059 0.38359
 C28 C 0.29590 0.71828 0.61740
 O29 O 0.27134 0.32697 -0.59804
 O30 O 0.20395 0.26728 -0.42354
 O31 O 0.27049 0.32794 -0.42105
 O32 O 0.20466 0.27395 -0.59987
 O33 O 0.22955 0.16649 -0.60334
 O34 O 0.29673 0.22169 -0.42534
 O35 O 0.22995 0.16082 -0.42515
 O36 O 0.29616 0.21941 -0.60067
 Cu37 Cu 0.23510 0.30972 -0.50953
 Cu38 Cu 0.26541 0.18117 -0.51296
 C39 C 0.29507 0.28289 -0.62963
 C40 C 0.20520 0.20328 -0.39564
 C41 C 0.29552 0.28512 -0.39464
 C42 C 0.20607 0.21157 -0.63310
 O43 O -0.27338 0.67975 -0.59503
 O44 O -0.20950 0.73180 -0.41014
 O45 O -0.27624 0.67410 -0.41744
 O46 O -0.20754 0.73841 -0.58405
 O47 O -0.23341 0.84510 -0.57972
 O48 O -0.30231 0.78047 -0.41380
 O49 O -0.23560 0.83821 -0.40476
 O50 O -0.29913 0.78647 -0.59041
 Cu51 Cu -0.23933 0.69499 -0.50188
 Cu52 Cu -0.27038 0.82312 -0.49639
 C53 C -0.29693 0.72447 -0.62473
 C54 C -0.21098 0.79460 -0.37783
 C55 C -0.30119 0.71611 -0.38758
 C56 C -0.20840 0.80308 -0.60899
 O57 O -0.05504 0.88525 0.17193
 O58 O -0.09522 0.94888 0.08215
 C59 C -0.08833 0.90491 0.14750
 O60 O 0.05394 1.13050 0.15090
 O61 O 0.09392 1.05714 0.07231
 C62 C 0.08709 1.10768 0.13051
 O63 O -0.05108 1.13075 0.15970
 O64 O -0.09323 1.06576 0.07577
 C65 C -0.08499 1.11265 0.13730
 O66 O 0.04985 0.87537 0.16642
 O67 O 0.09203 0.93701 0.07913
 C68 C 0.08371 0.89261 0.14338
 Zr69 Zr -0.00220 0.91359 0.11810
 O70 O 0.00150 0.91569 0.26155
 O71 O -0.00780 0.80122 0.11985
 Zr72 Zr 0.00084 1.09401 0.10749
 O73 O 0.00496 1.10436 0.25028
 O74 O -0.00133 1.20628 0.09475
 O75 O -0.03370 1.00636 0.13149
 O76 O 0.03146 1.00263 0.12912
 O77 O 0.04772 0.85672 -0.14810
 O78 O 0.09105 0.92735 -0.07531
 C79 C 0.08176 0.87492 -0.12896
 O80 O -0.05186 1.11971 -0.17286
 O81 O -0.09362 1.06052 -0.08170
 C82 C -0.08565 1.10373 -0.14721
 O83 O 0.05325 1.12008 -0.16809
 O84 O 0.09340 1.05242 -0.08320
 C85 C 0.08659 1.09984 -0.14476
 O86 O -0.05645 0.87227 -0.15851
 O87 O -0.09584 0.94336 -0.07538
 C88 C -0.08954 0.89451 -0.13575
 Zr89 Zr -0.00309 0.90494 -0.11058
 O90 O 0.00126 0.90224 -0.25402
 O91 O -0.00974 0.79294 -0.10854
 Zr92 Zr 0.00036 1.08472 -0.12117
 O93 O 0.00384 1.07829 -0.26450
 O94 O -0.00161 1.19731 -0.12700
 Zr95 Zr -0.05643 1.00249 -0.00046
 Zr96 Zr 0.05485 0.99584 -0.00209
 O97 O 0.03117 0.99199 -0.13292
 O98 O -0.03469 0.99616 -0.13327
 O99 O 0.03061 0.89334 0.00425
 O100 O -0.03174 1.10419 -0.00704
 O101 O -0.03537 0.89814 0.00504
 O102 O 0.03447 1.10113 -0.00790
 H103 H 0.04772 1.00397 0.18354
 H104 H -0.04814 1.14661 -0.00875
 H105 H 0.04800 0.98843 -0.18617
 H106 H -0.05308 0.85751 0.00749
 H107 H 0.02229 1.22206 0.06615
 H108 H 0.01947 1.21589 -0.09037
 H109 H -0.01774 1.04977 -0.28593
 H110 H -0.02067 0.92743 -0.27898
 H111 H 0.00655 0.77470 -0.05974
 H112 H 0.01540 0.78065 0.09438
 H113 H -0.01727 0.95013 0.28390
 H114 H -0.01302 1.07033 0.27703
 O115 O 0.44912 0.37395 0.16501
 O116 O 0.40726 0.43628 0.07836
 C117 C 0.41543 0.39254 0.14337
 O118 O 0.55113 0.62706 0.15930
 O119 O 0.59311 0.56069 0.07709
 C120 C 0.58487 0.60851 0.13785
 O121 O 0.44634 0.61675 0.16465
 O122 O 0.40555 0.55203 0.07631
 C123 C 0.41283 0.59703 0.14088
 O124 O 0.55364 0.36899 0.15385
 O125 O 0.59424 0.43837 0.07205
 C126 C 0.58710 0.38927 0.13098
 Zr127 Zr 0.50082 0.40599 0.10886
 O128 O 0.50481 0.39750 0.25164
 O129 O 0.49695 0.29362 0.09783
 Zr130 Zr 0.49936 0.58652 0.11287
 O131 O 0.50307 0.58747 0.25640
 O132 O 0.49436 0.69891 0.11233
 O133 O 0.46704 0.49518 0.12879
 O134 O 0.53229 0.49715 0.12817
 O135 O 0.55380 0.37051 -0.16337
 O136 O 0.59435 0.43985 -0.08008
 C137 C 0.58726 0.39080 -0.13995
 O138 O 0.44757 0.62236 -0.16643
 O139 O 0.40651 0.55549 -0.08242
 C140 C 0.41404 0.60285 -0.14373
 O141 O 0.55190 0.62984 -0.15905
 O142 O 0.59340 0.56259 -0.07762
 C143 C 0.58560 0.61149 -0.13636
 O144 O 0.44882 0.37284 -0.17263
 O145 O 0.40730 0.43527 -0.08443
 C146 C 0.41509 0.39034 -0.14872
 Zr147 Zr 0.50080 0.40799 -0.11929
 O148 O 0.50496 0.40796 -0.26269
 O149 O 0.49745 0.29535 -0.11837
 Zr150 Zr 0.49977 0.58833 -0.11570
 O151 O 0.50376 0.58954 -0.25916
 O152 O 0.49521 0.70075 -0.11199
 Zr153 Zr 0.44430 0.49577 -0.00344
 Zr154 Zr 0.55593 0.49920 -0.00269
 O155 O 0.53267 0.49926 -0.13404
 O156 O 0.46694 0.49743 -0.13565
 O157 O 0.53452 0.39431 -0.00530
 O158 O 0.46685 0.59944 -0.00131
 O159 O 0.46796 0.39328 -0.00529
 O160 O 0.53304 0.60252 -0.00079
 H161 H 0.54869 0.49704 0.18237
 H162 H 0.44964 0.64068 -0.00022
 H163 H 0.54943 0.50020 -0.18758
 H164 H 0.45090 0.35160 -0.00532
 H165 H 0.51629 0.71835 0.07979
 H166 H 0.51649 0.71942 -0.07609
 H167 H 0.48298 0.56027 -0.28344
 H168 H 0.48489 0.43897 -0.28605
 H169 H 0.51932 0.27747 -0.08443
 H170 H 0.52096 0.27596 0.07330
 H171 H 0.49110 0.43840 0.27762
 H172 H 0.48257 0.55734 0.28000
 C173 C 0.32081 0.30319 0.30415
 C174 C 0.32182 0.36854 0.26758
 C175 C 0.35086 0.39161 0.20232
 C176 C 0.38513 0.36295 0.19925
 H177 H 0.30056 0.40721 0.28512
 H178 H 0.34468 0.43789 0.16137
 H179 H 0.34068 0.26333 0.28208
 H180 H 0.39262 0.32061 0.24532
 C181 C -0.17964 0.83097 0.32943
 C182 C -0.14874 0.79387 0.30964
 C183 C -0.11728 0.82283 0.25651
 C184 C -0.12067 0.87589 0.19662
 H185 H -0.14474 0.74172 0.33920
 H186 H -0.09036 0.79785 0.26647
 H187 H -0.18294 0.88504 0.30568
 H188 H -0.14780 0.89819 0.18152
 C189 C 0.67708 0.70472 0.30185
 C190 C 0.67820 0.64114 0.25995
 C191 C 0.64977 0.61617 0.19391
 C192 C 0.61502 0.64245 0.19048
 H193 H 0.70056 0.60441 0.27558
 H194 H 0.65673 0.56959 0.15367
 H195 H 0.65623 0.74367 0.28351
 H196 H 0.60687 0.68563 0.23508
 C197 C 0.18100 1.19372 0.29784
 C198 C 0.18040 1.12982 0.25646
 C199 C 0.15173 1.10813 0.18908
 C200 C 0.11812 1.13917 0.18259
 H201 H 0.20144 1.09052 0.27286
 H202 H 0.15732 1.06030 0.15015
 H203 H 0.16142 1.23449 0.27775
 H204 H 0.11116 1.18418 0.22533
 C205 C 0.67733 0.31483 -0.32417
 C206 C 0.64762 0.27553 -0.29915
 C207 C 0.61626 0.30415 -0.24476
 C208 C 0.61966 0.35860 -0.18610
 H209 H 0.64397 0.22226 -0.32649
 H210 H 0.58931 0.27875 -0.25406
 H211 H 0.67975 0.36956 -0.30129
 H212 H 0.64688 0.38141 -0.17203
 C213 C 0.19484 0.85436 -0.30931
 C214 C 0.16724 0.82147 -0.26487
 C215 C 0.14326 0.86105 -0.20090
 C216 C 0.11084 0.83290 -0.17436
 H217 H 0.16061 0.76622 -0.27997
 H218 H 0.15022 0.91560 -0.18289
 H219 H 0.20082 0.90979 -0.29365
 H220 H 0.10319 0.77996 -0.19781
 C221 C 0.32348 0.69102 -0.31756
 C222 C 0.35634 0.72308 -0.30215
 C223 C 0.38677 0.69084 -0.24817
 C224 C 0.38223 0.63640 -0.19021
 H225 H 0.36274 0.77253 -0.33652
 H226 H 0.41437 0.71338 -0.25796
 H227 H 0.31736 0.63974 -0.28788
 H228 H 0.35471 0.61554 -0.17546
 C229 C -0.17734 1.18325 -0.32318
 C230 C -0.14495 1.21764 -0.30864
 C231 C -0.11350 1.18717 -0.25677
 C232 C -0.11754 1.13584 -0.19469
 H233 H -0.13974 1.26782 -0.34246
 H234 H -0.08599 1.20894 -0.27022
 H235 H -0.18196 1.13065 -0.29560
 H236 H -0.14509 1.11679 -0.17650
 C237 C 0.67222 0.68995 -0.32680
 C238 C 0.64328 0.72910 -0.29709
 C239 C 0.61276 0.69948 -0.24115
 C240 C 0.61733 0.64558 -0.18291
 H241 H 0.63963 0.78309 -0.32116
 H242 H 0.58549 0.72361 -0.24880
 H243 H 0.67444 0.63460 -0.30709
 H244 H 0.64493 0.62424 -0.17057
 C245 C 0.17734 1.17631 -0.33016
 C246 C 0.14666 1.21332 -0.30759
 C247 C 0.11560 1.18427 -0.25224
 C248 C 0.11905 1.13058 -0.19295
 H249 H 0.14226 1.26529 -0.33730
 H250 H 0.08862 1.20931 -0.26106
 H251 H 0.18101 1.12252 -0.30572
 H252 H 0.14621 1.10778 -0.17942
 C253 C 0.32383 0.31139 -0.32984
 C254 C 0.35580 0.27649 -0.31386
 C255 C 0.38708 0.30650 -0.25973
 C256 C 0.38312 0.35822 -0.19729
 H257 H 0.36088 0.22624 -0.34810
 H258 H 0.41449 0.28418 -0.27215
 H259 H 0.31940 0.36390 -0.30133
 H260 H 0.35563 0.37806 -0.18032
 C261 C -0.18300 0.81910 -0.31137
 C262 C -0.15173 0.78209 -0.29487
 C263 C -0.11988 0.81002 -0.24138
 C264 C -0.12245 0.86372 -0.18146
 H265 H -0.14746 0.73146 -0.32886
 H266 H -0.09307 0.78493 -0.25305
 H267 H -0.18678 0.87180 -0.28290
 H268 H -0.14932 0.88678 -0.16533
 C269 C 0.32244 0.67852 0.32488
 C270 C 0.35436 0.71219 0.30329
 C271 C 0.38500 0.68054 0.24999
 C272 C 0.38077 0.62698 0.19056
 H273 H 0.36005 0.76444 0.33177
 H274 H 0.41229 0.70473 0.25898
 H275 H 0.31721 0.62451 0.30209
 H276 H 0.35333 0.60502 0.17679
 C277 C -0.17594 1.18774 0.31853
 C278 C -0.14421 1.22408 0.30318
 C279 C -0.11269 1.19545 0.24935
 C280 C -0.11677 1.14542 0.18498
 H281 H -0.13953 1.27444 0.33766
 H282 H -0.08519 1.21698 0.26372
 H283 H -0.17987 1.13496 0.29019
 H284 H -0.14438 1.12655 0.16666
 C285 C 0.67732 0.31551 0.31443
 C286 C 0.64692 0.27702 0.29265
 C287 C 0.61572 0.30474 0.23765
 C288 C 0.61940 0.35726 0.17706
 H289 H 0.64279 0.22521 0.32319
 H290 H 0.58858 0.28050 0.24846
 H291 H 0.68064 0.36930 0.28954
 H292 H 0.64672 0.37906 0.16194
 C293 C 0.17703 0.80845 0.31384
 C294 C 0.17828 0.86815 0.26445
 C295 C 0.14902 0.88858 0.19816
 C296 C 0.11403 0.86239 0.19878
 H297 H 0.20173 0.90429 0.27242
 H298 H 0.15599 0.93130 0.15204
 H299 H 0.15488 0.76999 0.30327
 H300 H 0.10589 0.82274 0.24801
   
