data_POSCAR
  _audit_creation_date              2014-09-24
  _audit_creation_method            'ToBaCCo'
  _symmetry_space_group_name_H-M    'P1'
  _symmetry_Int_Tables_number       1
  _symmetry_cell_setting            triclinic
  loop_
  _symmetry_equiv_pos_as_xyz
 x,y,z
_cell_length_a 29.5751
_cell_length_b 31.7906
_cell_length_c 37.5378
_cell_angle_alpha 89.913300
_cell_angle_beta 89.639100
_cell_angle_gamma 90.495400
loop_
  _atom_site_label
  _atom_site_type_symbol
  _atom_site_fract_x
  _atom_site_fract_y
  _atom_site_fract_z
B1 B 0.27339 0.23576 0.21728
 B2 B 0.27989 0.28529 0.23200
 B3 B 0.22886 0.26850 0.21830
 B4 B 0.22189 0.21784 0.23064
 B5 B 0.26984 0.20342 0.25257
 B6 B 0.30624 0.24551 0.25287
 B7 B 0.23069 0.26729 0.29001
 B8 B 0.22346 0.21804 0.27555
 B9 B 0.27479 0.23443 0.28878
 B10 B 0.28169 0.28523 0.27655
 B11 B 0.23365 0.29953 0.25479
 B12 B 0.19744 0.25746 0.25442
 B13 B 0.73764 0.77603 0.21058
 B14 B 0.72273 0.72655 0.22109
 B15 B 0.77684 0.73776 0.21014
 B16 B 0.79005 0.78562 0.22686
 B17 B 0.74317 0.80360 0.24846
 B18 B 0.70124 0.76673 0.24457
 B19 B 0.77034 0.73132 0.28176
 B20 B 0.78529 0.78076 0.27150
 B21 B 0.73139 0.76962 0.28196
 B22 B 0.71827 0.72183 0.26559
 B23 B 0.76510 0.70371 0.24378
 B24 B 0.80696 0.74068 0.24793
 B25 B 0.72391 0.23494 -0.28182
 B26 B 0.77907 0.22819 -0.27395
 B27 B 0.75934 0.27630 -0.28261
 B28 B 0.70772 0.28081 -0.26374
 B29 B 0.69595 0.23399 -0.24304
 B30 B 0.74057 0.20117 -0.24969
 B31 B 0.77084 0.26873 -0.21167
 B32 B 0.71548 0.27545 -0.21975
 B33 B 0.73520 0.22717 -0.21107
 B34 B 0.78702 0.22285 -0.22981
 B35 B 0.79863 0.26951 -0.25087
 B36 B 0.75417 0.30245 -0.24396
 B37 B 0.27978 0.75451 -0.29150
 B38 B 0.22881 0.77442 -0.28234
 B39 B 0.23289 0.72318 -0.29202
 B40 B 0.28175 0.70501 -0.27528
 B41 B 0.30726 0.74605 -0.25356
 B42 B 0.27399 0.78939 -0.25792
 B43 B 0.22576 0.73042 -0.22048
 B44 B 0.27687 0.70981 -0.23065
 B45 B 0.27242 0.76114 -0.22020
 B46 B 0.22349 0.77984 -0.23750
 B47 B 0.19841 0.73884 -0.25889
 B48 B 0.23117 0.69518 -0.25405
 B49 B 1.22753 1.26983 0.78483
 B50 B 1.28193 1.28021 0.77432
 B51 B 1.26597 1.23121 0.78538
 B52 B 1.21413 1.22162 0.76896
 B53 B 1.19812 1.26595 0.74706
 B54 B 1.24018 1.30270 0.75062
 B55 B 1.27377 1.23513 0.71385
 B56 B 1.21956 1.22488 0.72451
 B57 B 1.23503 1.27378 0.71321
 B58 B 1.28714 1.28356 0.72952
 B59 B 1.30341 1.23914 0.75168
 B60 B 1.26113 1.20244 0.74811
 B61 B 0.77286 0.73408 0.78691
 B62 B 0.71856 0.72416 0.77657
 B63 B 0.73488 0.77317 0.78731
 B64 B 0.78734 0.78172 0.77071
 B65 B 0.80284 0.73701 0.74894
 B66 B 0.76007 0.70087 0.75308
 B67 B 0.72811 0.76813 0.71600
 B68 B 0.78225 0.77782 0.72622
 B69 B 0.76603 0.72902 0.71545
 B70 B 0.71365 0.72027 0.73209
 B71 B 0.69796 0.76528 0.75375
 B72 B 0.74090 0.80125 0.74971
 B73 B 1.23224 0.72976 0.29244
 B74 B 1.22966 0.78134 0.28377
 B75 B 1.28041 0.75887 0.28807
 B76 B 1.27769 0.70972 0.27063
 B77 B 1.22420 0.70326 0.25467
 B78 B 1.19418 0.74792 0.26285
 B79 B 1.26414 0.76830 0.21803
 B80 B 1.26642 0.71667 0.22672
 B81 B 1.21587 0.73970 0.22243
 B82 B 1.21867 0.78857 0.23987
 B83 B 1.27207 0.79501 0.25569
 B84 B 1.30215 0.75028 0.24761
 B85 B 0.78085 1.26801 0.27412
 B86 B 0.79248 1.21719 0.26774
 B87 B 0.73936 1.23143 0.27781
 B88 B 0.72886 1.27773 0.25713
 B89 B 0.77665 1.29125 0.23385
 B90 B 0.81614 1.25355 0.24083
 B91 B 0.74530 1.21603 0.20746
 B92 B 0.73302 1.26718 0.21286
 B93 B 0.78630 1.25308 0.20333
 B94 B 0.79682 1.20705 0.22402
 B95 B 0.74908 1.19345 0.24734
 B96 B 0.70924 1.23115 0.24019
 N97 N 0.57478 1.04297 -0.03541
 N98 N 0.60728 1.05481 -0.05809
 N99 N 0.54072 1.06642 0.04135
 N100 N 0.54985 1.09410 0.06635
 N101 N 0.57270 1.03801 0.03929
 N102 N 0.60485 1.04620 0.06275
 N103 N 0.54404 1.07248 -0.03309
 N104 N 0.55400 1.10414 -0.05429
 C105 C 0.59315 1.09302 -0.07003
 C106 C 0.58953 1.08093 0.07975
 N107 N 0.40957 1.04457 0.03578
 N108 N 0.37515 1.05461 0.05644
 N109 N 0.44834 1.07699 -0.03555
 N110 N 0.44323 1.10898 -0.05740
 N111 N 0.41480 1.05000 -0.03859
 N112 N 0.38520 1.06358 -0.06218
 N113 N 0.44281 1.07185 0.03910
 N114 N 0.43142 1.10162 0.06199
 Mn115 Mn 0.49409 1.07199 0.00321
 C116 C 0.38935 1.08993 0.07299
 C117 C 0.40401 1.10012 -0.07406
 N118 N 0.56754 0.94653 0.03597
 N119 N 0.59947 0.93319 0.05775
 N120 N 0.53516 0.92260 -0.03916
 N121 N 0.54346 0.89164 -0.06145
 N122 N 0.56920 0.94960 -0.03870
 N123 N 0.60190 0.93677 -0.06040
 N124 N 0.53319 0.91986 0.03573
 N125 N 0.54114 0.88792 0.05739
 Mn126 Mn 0.57161 0.99426 0.00005
 C127 C 0.58234 0.89685 0.07135
 C128 C 0.58482 0.90088 -0.07487
 N129 N 0.40889 0.95864 -0.04210
 N130 N 0.37561 0.95038 -0.06441
 N131 N 0.43380 0.92510 0.03357
 N132 N 0.41998 0.89566 0.05617
 N133 N 0.40405 0.95550 0.03221
 N134 N 0.36974 0.94793 0.05393
 N135 N 0.43768 0.92735 -0.04132
 N136 N 0.42477 0.89730 -0.06341
 Mn137 Mn 0.40924 1.00216 -0.00343
 Mn138 Mn 0.48498 0.92345 -0.00258
 Cl139 Cl 0.49013 0.99782 -0.00074
 C140 C 0.38636 0.91235 -0.07797
 C141 C 0.38021 0.91072 0.06892
 N142 N 1.08405 0.52774 0.53509
 N143 N 1.12142 0.54907 0.54221
 N144 N 1.03715 0.44696 0.56216
 N145 N 1.04371 0.42087 0.58899
 N146 N 1.06789 0.44123 0.53729
 N147 N 1.09676 0.41185 0.54700
 N148 N 1.05276 0.53479 0.55930
 N149 N 1.06792 0.56169 0.58330
 C150 C 1.11060 0.57057 0.57205
 C151 C 1.08056 0.39875 0.57896
 N152 N 0.90864 0.46351 0.53988
 N153 N 0.87618 0.43568 0.54736
 N154 N 0.95549 0.54847 0.56102
 N155 N 0.95044 0.57635 0.58673
 N156 N 0.92215 0.55124 0.53810
 N157 N 0.89332 0.58070 0.54815
 N158 N 0.94143 0.46065 0.56324
 N159 N 0.93286 0.43054 0.58646
 Mn160 Mn 0.99664 0.49796 0.56163
 C161 C 0.89219 0.41522 0.57648
 C162 C 0.91198 0.59670 0.57818
 N163 N 1.06563 0.43935 0.46017
 N164 N 1.09240 0.40783 0.45159
 N165 N 1.05060 0.53191 0.43513
 N166 N 1.06507 0.55836 0.41020
 N167 N 1.08248 0.52584 0.45875
 N168 N 1.11945 0.54724 0.45036
 N169 N 1.03397 0.44407 0.43615
 N170 N 1.03787 0.41537 0.41100
 Mn171 Mn 1.07510 0.48336 0.49778
 C172 C 1.07403 0.39263 0.42124
 C173 C 1.10796 0.56779 0.42033
 N174 N 0.92069 0.54996 0.46003
 N175 N 0.89244 0.57997 0.45016
 N176 N 0.93801 0.45822 0.43715
 N177 N 0.92461 0.43168 0.41233
 N178 N 0.90635 0.46262 0.46159
 N179 N 0.87009 0.43985 0.45335
 N180 N 0.95332 0.54598 0.43627
 N181 N 0.94848 0.57347 0.41026
 Mn182 Mn 0.91391 0.50680 0.49996
 Mn183 Mn 0.99398 0.49522 0.43593
 Cl184 Cl 0.99477 0.49594 0.49881
 C185 C 0.91083 0.59491 0.41933
 C186 C 0.88242 0.42022 0.42274
 N187 N 1.07716 0.54907 0.04605
 N188 N 1.10596 0.57817 0.05741
 N189 N 1.04342 0.45945 0.06709
 N190 N 1.04867 0.43304 0.09376
 N191 N 1.07941 0.45986 0.04634
 N192 N 1.11004 0.43326 0.05860
 N193 N 1.04120 0.54783 0.06679
 N194 N 1.04458 0.57582 0.09247
 C195 C 1.08446 0.59540 0.08588
 C196 C 1.08989 0.41631 0.08802
 N197 N 0.91876 0.45653 0.03053
 N198 N 0.88771 0.42675 0.03443
 N199 N 0.94508 0.54568 0.05781
 N200 N 0.93203 0.57344 0.08184
 N201 N 0.91684 0.54476 0.03097
 N202 N 0.88314 0.57113 0.03654
 N203 N 0.94692 0.45635 0.05743
 N204 N 0.93624 0.42589 0.08005
 Mn205 Mn 0.99414 0.50228 0.06250
 C206 C 0.89950 0.40744 0.06515
 C207 C 0.89368 0.58946 0.06806
 N208 N 1.09244 0.46064 -0.03102
 N209 N 1.12620 0.43440 -0.03707
 N210 N 1.06205 0.54839 -0.05765
 N211 N 1.07286 0.57754 -0.08132
 N212 N 1.09040 0.54913 -0.03086
 N213 N 1.12182 0.57853 -0.03603
 N214 N 1.06358 0.45937 -0.05751
 N215 N 1.07627 0.43163 -0.08163
 Mn216 Mn 1.08547 0.50467 0.00774
 C217 C 1.11504 0.41589 -0.06845
 C218 C 1.10993 0.59640 -0.06748
 N219 N 0.93006 0.54573 -0.04576
 N220 N 0.89970 0.57287 -0.05734
 N221 N 0.96709 0.45774 -0.06671
 N222 N 0.96236 0.43081 -0.09305
 N223 N 0.93138 0.45680 -0.04574
 N224 N 0.90155 0.42872 -0.05725
 N225 N 0.96575 0.54592 -0.06678
 N226 N 0.96059 0.57280 -0.09310
 Mn227 Mn 0.92379 0.50100 -0.00756
 Mn228 Mn 1.01467 0.50282 -0.06232
 Cl229 Cl 1.00459 0.50266 0.00009
 C230 C 0.91969 0.58992 -0.08670
 C231 C 0.92177 0.41238 -0.08658
 N232 N 0.45563 1.07426 0.46123
 N233 N 0.44311 1.10389 0.43867
 N234 N 0.42531 1.04379 0.53632
 N235 N 0.39220 1.05160 0.55913
 N236 N 0.45475 1.07507 0.53592
 N237 N 0.44188 1.10506 0.55825
 N238 N 0.42624 1.04294 0.46129
 N239 N 0.39347 1.05024 0.43853
 C240 C 0.40464 1.08806 0.42433
 C241 C 0.40305 1.08969 0.57298
 N242 N 0.46072 0.92361 0.53657
 N243 N 0.45031 0.89270 0.55887
 N244 N 0.42968 0.95170 0.46165
 N245 N 0.39866 0.94162 0.43795
 N246 N 0.46134 0.92295 0.46235
 N247 N 0.45227 0.89227 0.43965
 N248 N 0.42907 0.95239 0.53673
 N249 N 0.39672 0.94207 0.55951
 Mn250 Mn 0.42729 0.99770 0.49899
 C251 C 0.41060 0.90506 0.57337
 C252 C 0.41333 0.90465 0.42432
 N253 N 0.55364 1.07823 0.53558
 N254 N 0.56294 1.10728 0.55972
 N255 N 0.58560 1.04898 0.46088
 N256 N 0.61817 1.05799 0.43795
 N257 N 0.55467 1.07843 0.46075
 N258 N 0.56615 1.10866 0.43781
 N259 N 0.58473 1.04897 0.53564
 N260 N 0.61544 1.05679 0.55997
 Mn261 Mn 0.50465 1.07696 0.49836
 C262 C 0.60137 1.09297 0.57493
 C263 C 0.60571 1.09500 0.42339
 N264 N 0.55903 0.92734 0.46201
 N265 N 0.57090 0.89787 0.43907
 N266 N 0.58817 0.95887 0.53638
 N267 N 0.62057 0.95165 0.55954
 N268 N 0.55853 0.92788 0.53656
 N269 N 0.57027 0.89854 0.55962
 N270 N 0.58846 0.95850 0.46151
 N271 N 0.62084 0.95129 0.43810
 Mn272 Mn 0.50995 0.92520 0.49939
 Mn273 Mn 0.58689 1.00388 0.49859
 Cl274 Cl 0.50706 1.00103 0.49882
 C275 C 0.60922 0.91362 0.42407
 C276 C 0.60872 0.91415 0.57410
 N277 N 1.07514 1.04656 0.54033
 N278 N 1.10804 1.07343 0.54762
 N279 N 1.03769 0.96225 0.56783
 N280 N 1.04714 0.94227 0.59749
 N281 N 1.07067 0.95852 0.54431
 N282 N 1.10364 0.93574 0.55814
 N283 N 1.04230 1.04960 0.56384
 N284 N 1.05213 1.07817 0.58800
 C285 C 1.09281 1.09322 0.57719
 C286 C 1.08778 0.92536 0.59113
 N287 N 0.91108 0.96314 0.54060
 N288 N 0.88176 0.93246 0.54694
 N289 N 0.94536 1.05262 0.56215
 N290 N 0.93739 1.08227 0.58570
 N291 N 0.91335 1.05128 0.53818
 N292 N 0.88270 1.08028 0.54464
 N293 N 0.94186 0.96476 0.56557
 N294 N 0.93468 0.93532 0.58953
 Mn295 Mn 0.99167 1.00750 0.56500
 C296 C 0.89741 0.91536 0.57749
 C297 C 0.89866 1.09964 0.57415
 N298 N 1.07298 0.95605 0.46462
 N299 N 1.10796 0.93562 0.45089
 N300 N 1.04532 1.04467 0.43990
 N301 N 1.05661 1.07047 0.41383
 N302 N 1.07699 1.04382 0.46421
 N303 N 1.11052 1.06960 0.45555
 N304 N 1.04015 0.95722 0.44105
 N305 N 1.05142 0.93722 0.41188
 Mn306 Mn 1.07448 1.00082 0.50343
 C307 C 1.09322 0.92354 0.41822
 C308 C 1.09685 1.08628 0.42426
 N309 N 0.91562 1.04873 0.46265
 N310 N 0.88688 1.07886 0.45500
 N311 N 0.94491 0.96014 0.44001
 N312 N 0.93662 0.93237 0.41495
 N313 N 0.91243 0.96031 0.46390
 N314 N 0.88074 0.93241 0.45556
 N315 N 0.94882 1.04802 0.43942
 N316 N 0.94364 1.07723 0.41508
 Mn317 Mn 0.91242 1.00565 0.50136
 Mn318 Mn 0.99471 1.00270 0.44007
 Cl319 Cl 0.99359 1.00383 0.50250
 C320 C 0.90532 1.09652 0.42543
 C321 C 0.89693 0.91491 0.42511
 N322 N 0.58092 0.54580 0.03987
 N323 N 0.61097 0.57584 0.04583
 N324 N 0.54748 0.45826 0.06611
 N325 N 0.55790 0.43681 0.09478
 N326 N 0.58051 0.45752 0.04263
 N327 N 0.61447 0.43496 0.05498
 N328 N 0.54915 0.54591 0.06432
 N329 N 0.55662 0.57571 0.08784
 C330 C 0.59486 0.59442 0.07569
 C331 C 0.59912 0.42186 0.08731
 N332 N 0.41999 0.45747 0.04120
 N333 N 0.38677 0.43190 0.05063
 N334 N 0.45352 0.54589 0.06492
 N335 N 0.44206 0.56474 0.09461
 N336 N 0.41951 0.54489 0.04246
 N337 N 0.38366 0.56271 0.05737
 N338 N 0.45155 0.45829 0.06563
 N339 N 0.44075 0.43327 0.09230
 Mn340 Mn 0.50046 0.50206 0.06514
 C341 C 0.40077 0.41661 0.08224
 C342 C 0.39896 0.57538 0.08968
 N343 N 0.58008 0.45585 -0.03436
 N344 N 0.61049 0.42677 -0.04096
 N345 N 0.54942 0.54385 -0.06021
 N346 N 0.55818 0.57200 -0.08509
 N347 N 0.58129 0.54383 -0.03607
 N348 N 0.61264 0.57220 -0.04378
 N349 N 0.54876 0.45584 -0.05900
 N350 N 0.55685 0.42663 -0.08296
 Mn351 Mn 0.58128 0.50065 0.00293
 C352 C 0.59510 0.40852 -0.07111
 C353 C 0.59734 0.58974 -0.07422
 N354 N 0.42066 0.54498 -0.03581
 N355 N 0.38759 0.57016 -0.04545
 N356 N 0.45207 0.45637 -0.05972
 N357 N 0.44325 0.42899 -0.08502
 N358 N 0.41991 0.45631 -0.03548
 N359 N 0.38837 0.42817 -0.04359
 N360 N 0.45222 0.54397 -0.06066
 N361 N 0.44121 0.56805 -0.08780
 Mn362 Mn 0.41951 0.50102 0.00299
 Mn363 Mn 0.50071 0.50006 -0.06017
 Cl364 Cl 0.50034 0.50101 0.00268
 C365 C 0.40139 0.58480 -0.07766
 C366 C 0.40393 0.41112 -0.07440
 C367 C 0.30671 1.15985 0.14325
 C368 C 0.35015 1.17427 0.13374
 N369 N 0.36659 1.21000 0.14856
 C370 C 0.34199 1.23170 0.17289
 C371 C 0.29855 1.21717 0.18315
 N372 N 0.28210 1.18139 0.16778
 N373 N 0.29087 1.12332 0.12924
 C374 C 0.31665 1.10042 0.10638
 C375 C 0.36051 1.11447 0.09727
 N376 N 0.37604 1.15136 0.11108
 H377 H 0.35774 1.25846 0.18545
 H378 H 0.30315 1.07133 0.09573
 C379 C 0.85181 0.68010 0.65197
 C380 C 0.82485 0.65892 0.62707
 N381 N 0.77908 0.66253 0.62924
 C382 C 0.75912 0.68578 0.65548
 C383 C 0.78613 0.70633 0.68095
 N384 N 0.83193 0.70298 0.67808
 N385 N 0.89735 0.67564 0.65094
 C386 C 0.91733 0.65030 0.62647
 C387 C 0.89067 0.62818 0.60180
 N388 N 0.84481 0.63339 0.60245
 H389 H 0.72267 0.68699 0.65705
 H390 H 0.95370 0.64684 0.62674
 C391 C 0.65092 0.81690 0.14382
 C392 C 0.67404 0.85013 0.12699
 N393 N 0.71840 0.85696 0.13473
 C394 C 0.74041 0.83258 0.15898
 C395 C 0.71696 0.79995 0.17680
 N396 N 0.67262 0.79313 0.16842
 N397 N 0.60665 0.80989 0.13633
 C398 C 0.58420 0.83477 0.11290
 C399 C 0.60674 0.86884 0.09641
 N400 N 0.65147 0.87553 0.10384
 H401 H 0.77535 0.83963 0.16516
 H402 H 0.54889 0.82834 0.10761
 C403 C 1.14593 0.31922 0.65212
 C404 C 1.17115 0.33982 0.62553
 N405 N 1.21709 0.33700 0.62582
 C406 C 1.23887 0.31506 0.65185
 C407 C 1.21353 0.29516 0.67895
 N408 N 1.16759 0.29767 0.67786
 N409 N 1.10032 0.32303 0.65310
 C410 C 1.07856 0.34724 0.62896
 C411 C 1.10347 0.36866 0.60253
 N412 N 1.14938 0.36410 0.60117
 H413 H 1.27540 0.31432 0.65193
 H414 H 1.04218 0.35029 0.63075
 C415 C 0.65653 1.17877 -0.14162
 C416 C 0.68109 1.14448 -0.12858
 N417 N 0.72467 1.13954 -0.13957
 C418 C 0.74424 1.16671 -0.16346
 C419 C 0.71904 1.20039 -0.17732
 N420 N 0.67582 1.20539 -0.16560
 N421 N 0.61301 1.18395 -0.13146
 C422 C 0.59260 1.15643 -0.10882
 C423 C 0.61651 1.12159 -0.09565
 N424 N 0.66061 1.11643 -0.10582
 H425 H 0.77844 1.16109 -0.17255
 H426 H 0.55770 1.16173 -0.10135
 C427 C 1.19727 0.64570 0.36079
 C428 C 1.15366 0.65920 0.37015
 N429 N 1.13937 0.69726 0.35918
 C430 C 1.16589 0.72206 0.33827
 C431 C 1.20886 0.70798 0.32663
 N432 N 1.22352 0.66990 0.33866
 N433 N 1.21147 0.60755 0.37242
 C434 C 1.18381 0.58229 0.39249
 C435 C 1.13939 0.59506 0.40021
 N436 N 1.12558 0.63346 0.38903
 H437 H 1.15169 0.75116 0.32879
 H438 H 1.19582 0.55199 0.40137
 C439 C 0.30451 0.84152 -0.14854
 C440 C 0.34693 0.82703 -0.13762
 N441 N 0.36313 0.79068 -0.15105
 C442 C 0.33919 0.76816 -0.17520
 C443 C 0.29638 0.78217 -0.18649
 N444 N 0.28027 0.81892 -0.17277
 N445 N 0.28936 0.87897 -0.13603
 C446 C 0.31483 0.90254 -0.11326
 C447 C 0.35751 0.88808 -0.10254
 N448 N 0.37226 0.85043 -0.11495
 H449 H 0.35500 0.74090 -0.18676
 H450 H 0.30193 0.93225 -0.10373
 C451 C 0.80496 0.34217 0.35415
 C452 C 0.85221 0.33939 0.35629
 N453 N 0.87472 0.31289 0.33467
 C454 C 0.85256 0.28940 0.31030
 C455 C 0.80511 0.29275 0.30645
 N456 N 0.78227 0.31911 0.32898
 N457 N 0.78307 0.36892 0.37664
 C458 C 0.80643 0.39321 0.40050
 C459 C 0.85400 0.39142 0.40136
 N460 N 0.87532 0.36421 0.37923
 H461 H 0.87261 0.26898 0.29365
 H462 H 0.78831 0.41478 0.41757
 C463 C 1.15077 0.34132 0.16744
 C464 C 1.16260 0.33523 0.13160
 N465 N 1.19317 0.30492 0.12328
 C466 C 1.21302 0.28123 0.14921
 C467 C 1.20289 0.28904 0.18536
 N468 N 1.17135 0.31864 0.19309
 N469 N 1.11964 0.37051 0.17628
 C470 C 1.09974 0.39428 0.15093
 C471 C 1.11205 0.38946 0.11492
 N472 N 1.14338 0.35979 0.10594
 H473 H 1.23767 0.25796 0.14169
 H474 H 1.07505 0.41740 0.15898
 C475 C 0.68782 0.85016 0.64979
 C476 C 0.65333 0.82896 0.63150
 N477 N 0.64509 0.78770 0.63871
 C478 C 0.66952 0.76678 0.66366
 C479 C 0.70370 0.78815 0.68251
 N480 N 0.71155 0.82953 0.67502
 N481 N 0.69625 0.89136 0.64279
 C482 C 0.67149 0.91253 0.61835
 C483 C 0.63623 0.89173 0.60043
 N484 N 0.62809 0.85023 0.60740
 H485 H 0.66114 0.73431 0.66951
 H486 H 0.67892 0.94542 0.61333
 C487 C 1.18727 0.68006 -0.13165
 C488 C 1.14110 0.67351 -0.13775
 N489 N 1.12175 0.69078 -0.16684
 C490 C 1.14684 0.71261 -0.19114
 C491 C 1.19425 0.71631 -0.18709
 N492 N 1.21267 0.70103 -0.15650
 N493 N 1.20658 0.66226 -0.10255
 C494 C 1.18201 0.63725 -0.07990
 C495 C 1.13625 0.62871 -0.08721
 N496 N 1.11692 0.64774 -0.11578
 H497 H 1.12984 0.72483 -0.21431
 H498 H 1.19856 0.62261 -0.05749
 C499 C 0.69033 1.15495 0.34648
 C500 C 0.65769 1.17859 0.36457
 N501 N 0.65412 1.22036 0.35688
 C502 C 0.68117 1.23918 0.33163
 C503 C 0.71324 1.21512 0.31287
 N504 N 0.71650 1.17350 0.32111
 N505 N 0.69450 1.11342 0.35358
 C506 C 0.66745 1.09410 0.37801
 C507 C 0.63399 1.11708 0.39615
 N508 N 0.62989 1.15917 0.38902
 H509 H 0.67659 1.27211 0.32543
 H510 H 0.67188 1.06085 0.38298
 C511 C 0.81031 0.66468 0.13329
 C512 C 0.85575 0.67571 0.12759
 N513 N 0.87350 0.70931 0.14505
 C514 C 0.84819 0.73177 0.16862
 C515 C 0.80323 0.71930 0.17621
 N516 N 0.78574 0.68587 0.15805
 N517 N 0.79209 0.63173 0.11520
 C518 C 0.81760 0.60874 0.09215
 C519 C 0.86387 0.61806 0.08804
 N520 N 0.88180 0.65161 0.10581
 H521 H 0.86391 0.75768 0.18269
 H522 H 0.80249 0.58212 0.07863
 C523 C 0.31941 1.15286 0.64825
 C524 C 0.35346 1.17498 0.62979
 N525 N 0.35950 1.21667 0.63654
 C526 C 0.33346 1.23709 0.66110
 C527 C 0.29971 1.21489 0.68025
 N528 N 0.29399 1.17304 0.67317
 N529 N 0.31307 1.11127 0.64165
 C530 C 0.33930 1.09064 0.61752
 C531 C 0.37417 1.11227 0.59929
 N532 N 0.38029 1.15425 0.60591
 H533 H 0.34021 1.26996 0.66641
 H534 H 0.33326 1.05746 0.61294
 C535 C 0.85549 0.33785 -0.16337
 C536 C 0.84423 0.33298 -0.12728
 N537 N 0.81149 0.30461 -0.11788
 C538 C 0.78887 0.28181 -0.14307
 C539 C 0.79817 0.28895 -0.17944
 N540 N 0.83202 0.31636 -0.18822
 N541 N 0.88898 0.36477 -0.17326
 C542 C 0.91158 0.38774 -0.14866
 C543 C 0.89937 0.38459 -0.11251
 N544 N 0.86591 0.35700 -0.10249
 H545 H 0.76303 0.25957 -0.13477
 H546 H 0.93786 0.40933 -0.15748
 C547 C 0.34199 0.84029 0.34386
 C548 C 0.36530 0.81715 0.36943
 N549 N 0.36252 0.77422 0.36859
 C550 C 0.33716 0.75366 0.34343
 C551 C 0.31380 0.77720 0.31780
 N552 N 0.31768 0.81991 0.31899
 N553 N 0.34247 0.88286 0.34482
 C554 C 0.36534 0.90383 0.37050
 C555 C 0.38943 0.88128 0.39616
 N556 N 0.38913 0.83816 0.39504
 H557 H 0.33488 0.71967 0.34368
 H558 H 0.36496 0.93789 0.37070
 C559 C 1.17718 1.16216 0.35725
 C560 C 1.14105 1.13857 0.34360
 N561 N 1.13239 1.13949 0.30813
 C562 C 1.15835 1.16313 0.28560
 C563 C 1.19440 1.18709 0.29931
 N564 N 1.20241 1.18612 0.33493
 N565 N 1.18656 1.16072 0.39257
 C566 C 1.16123 1.13650 0.41502
 C567 C 1.12463 1.11332 0.40148
 N568 N 1.11539 1.11496 0.36605
 H569 H 1.15042 1.16367 0.25750
 H570 H 1.16936 1.13562 0.44309
 C571 C 0.67486 0.66795 -0.14108
 C572 C 0.63274 0.65240 -0.15203
 N573 N 0.61807 0.66040 -0.18552
 C574 C 0.64399 0.68308 -0.20874
 C575 C 0.68663 0.69808 -0.19795
 N576 N 0.70057 0.69025 -0.16425
 N577 N 0.68992 0.65966 -0.10777
 C578 C 0.66486 0.63575 -0.08493
 C579 C 0.62311 0.61934 -0.09614
 N580 N 0.60788 0.62837 -0.12937
 H581 H 0.63147 0.68907 -0.23528
 H582 H 0.67786 0.62891 -0.05868
 C583 C 0.82226 1.17749 0.64105
 C584 C 0.86487 1.16297 0.65130
 N585 N 0.88018 1.17071 0.68463
 C586 C 0.85436 1.19179 0.70854
 C587 C 0.81105 1.20538 0.69873
 N588 N 0.79649 1.19842 0.66493
 N589 N 0.80654 1.16876 0.60794
 C590 C 0.83130 1.14531 0.58481
 C591 C 0.87342 1.12981 0.59551
 N592 N 0.88932 1.13950 0.62839
 H593 H 0.86742 1.19733 0.73500
 H594 H 0.81769 1.13787 0.55885
 C595 C 0.33057 0.63129 0.17550
 C596 C 0.31773 0.63931 0.14006
 N597 N 0.28784 0.66985 0.13317
 C598 C 0.27035 0.69310 0.15983
 C599 C 0.28282 0.68574 0.19567
 N600 N 0.31280 0.65455 0.20252
 N601 N 0.36284 0.60234 0.18197
 C602 C 0.38358 0.58213 0.15460
 C603 C 0.37164 0.59138 0.11913
 N604 N 0.33841 0.61927 0.11276
 H605 H 0.25001 0.71925 0.15214
 H606 H 0.41006 0.55991 0.16042
 C607 C 1.15575 0.85866 0.67194
 C608 C 1.16514 0.85142 0.63565
 N609 N 1.19377 0.82059 0.62628
 C610 C 1.21374 0.79667 0.65132
 C611 C 1.20577 0.80403 0.68811
 N612 N 1.17640 0.83503 0.69740
 N613 N 1.12515 0.88841 0.68094
 C614 C 1.10344 0.91077 0.65537
 C615 C 1.11303 0.90344 0.61905
 N616 N 1.14396 0.87402 0.61015
 H617 H 1.23514 0.77164 0.64203
 H618 H 1.07884 0.93401 0.66330
 C619 C 0.66534 0.35301 0.16657
 C620 C 0.66419 0.33874 0.13113
 N621 N 0.68218 0.30119 0.12279
 C622 C 0.70172 0.27721 0.14806
 C623 C 0.70443 0.29162 0.18365
 N624 N 0.68574 0.32938 0.19192
 N625 N 0.64624 0.39036 0.17492
 C626 C 0.62590 0.41381 0.14943
 C627 C 0.62539 0.39963 0.11394
 N628 N 0.64457 0.36238 0.10560
 H629 H 0.71804 0.24903 0.13921
 H630 H 0.61002 0.44314 0.15676
 C631 C 0.82697 0.83261 0.35664
 C632 C 0.86486 0.85545 0.34484
 N633 N 0.87810 0.85297 0.31021
 C634 C 0.85456 0.82913 0.28655
 C635 C 0.81596 0.80676 0.29809
 N636 N 0.80387 0.80854 0.33314
 N637 N 0.81272 0.83631 0.39098
 C638 C 0.83464 0.86225 0.41410
 C639 C 0.87264 0.88516 0.40228
 N640 N 0.88691 0.88089 0.36793
 H641 H 0.86560 0.82815 0.25903
 H642 H 0.82250 0.86502 0.44125
 C643 C 0.33246 0.32823 -0.14158
 C644 C 0.36436 0.35679 -0.15533
 N645 N 0.37094 0.35952 -0.19107
 C646 C 0.34636 0.33541 -0.21387
 C647 C 0.31376 0.30704 -0.20029
 N648 N 0.30859 0.30365 -0.16430
 N649 N 0.32426 0.32701 -0.10592
 C650 C 0.34654 0.35336 -0.08333
 C651 C 0.37892 0.38165 -0.09707
 N652 N 0.38717 0.38240 -0.13279
 H653 H 0.35195 0.33887 -0.24223
 H654 H 0.33931 0.35206 -0.05505
 C655 C 1.19595 0.34109 -0.13612
 C656 C 1.14993 0.33183 -0.13132
 N657 N 1.13071 0.30035 -0.15054
 C658 C 1.15518 0.27826 -0.17491
 C659 C 1.20092 0.28891 -0.18144
 N660 N 1.21982 0.32029 -0.16158
 N661 N 1.21552 0.37190 -0.11627
 C662 C 1.19086 0.39449 -0.09232
 C663 C 1.14411 0.38704 -0.08900
 N664 N 1.12485 0.35558 -0.10858
 H665 H 1.13839 0.25394 -0.19017
 H666 H 1.20708 0.41952 -0.07747
 C667 C 0.68941 0.85039 0.34834
 C668 C 0.65465 0.82894 0.36648
 N669 N 0.64662 0.78773 0.35906
 C670 C 0.67162 0.76713 0.33408
 C671 C 0.70625 0.78877 0.31556
 N672 N 0.71368 0.83008 0.32317
 N673 N 0.69761 0.89154 0.35538
 C674 C 0.67236 0.91245 0.37980
 C675 C 0.63691 0.89139 0.39766
 N676 N 0.62893 0.84993 0.39063
 H677 H 0.66331 0.73477 0.32791
 H678 H 0.67964 0.94532 0.38489
 C679 C 0.85487 0.66417 -0.16399
 C680 C 0.84324 0.66892 -0.12799
 N681 N 0.81103 0.69738 -0.11886
 C682 C 0.78936 0.72046 -0.14423
 C683 C 0.79916 0.71362 -0.18054
 N684 N 0.83239 0.68602 -0.18902
 N685 N 0.88779 0.63713 -0.17366
 C686 C 0.90957 0.61400 -0.14890
 C687 C 0.89718 0.61718 -0.11280
 N688 N 0.86419 0.64481 -0.10300
 H689 H 0.76376 0.74259 -0.13613
 H690 H 0.93552 0.59242 -0.15755
 C691 C 0.32097 1.15184 0.35175
 C692 C 0.35473 1.17378 0.37026
 N693 N 0.36042 1.21570 0.36441
 C694 C 0.33414 1.23654 0.34061
 C695 C 0.30062 1.21443 0.32160
 N696 N 0.29543 1.17244 0.32769
 N697 N 0.31503 1.11002 0.35732
 C698 C 0.34151 1.08893 0.38060
 C699 C 0.37598 1.11051 0.39882
 N700 N 0.38173 1.15263 0.39326
 H701 H 0.34049 1.26962 0.33575
 H702 H 0.33597 1.05554 0.38454
 C703 C 1.14636 0.66218 0.16927
 C704 C 1.13718 0.68326 0.13738
 N705 N 1.14855 0.72485 0.13444
 C706 C 1.16997 0.74568 0.16157
 C707 C 1.18170 0.72343 0.19260
 N708 N 1.16825 0.68256 0.19550
 N709 N 1.13547 0.62100 0.17308
 C710 C 1.11585 0.59943 0.14618
 C711 C 1.10735 0.61969 0.11376
 N712 N 1.11784 0.66150 0.10994
 H713 H 1.18024 0.77818 0.15806
 H714 H 1.10724 0.56654 0.14996
 C715 C 0.67866 1.15401 0.65347
 C716 C 0.64782 1.17693 0.63304
 N717 N 0.64372 1.21896 0.63854
 C718 C 0.66871 1.23895 0.66385
 C719 C 0.69894 1.21575 0.68483
 N720 N 0.70288 1.17377 0.67894
 N721 N 0.68331 1.11217 0.64811
 C722 C 0.65842 1.09199 0.62311
 C723 C 0.62700 1.11456 0.60284
 N724 N 0.62239 1.15669 0.60824
 H725 H 0.66396 1.27224 0.66817
 H726 H 0.66296 1.05855 0.61927
 C727 C 0.81878 0.32222 0.12425
 C728 C 0.86562 0.31660 0.12215
 N729 N 0.88489 0.28547 0.14155
 C730 C 0.85961 0.26083 0.16397
 C731 C 0.81305 0.26879 0.16849
 N732 N 0.79423 0.29921 0.14794
 N733 N 0.79902 0.35274 0.10459
 C734 C 0.82424 0.37873 0.08348
 C735 C 0.87156 0.37523 0.08320
 N736 N 0.89121 0.34384 0.10234
 H737 H 0.87640 0.23750 0.18009
 H738 H 0.80773 0.40338 0.06865
 C739 C 0.33152 0.83774 0.64821
 C740 C 0.36304 0.81620 0.62735
 N741 N 0.36683 0.77368 0.63144
 C742 C 0.34056 0.75203 0.65558
 C743 C 0.30924 0.77403 0.67668
 N744 N 0.30638 0.81641 0.67226
 N745 N 0.32647 0.87978 0.64446
 C746 C 0.35171 0.90172 0.62053
 C747 C 0.38400 0.88081 0.59969
 N748 N 0.38909 0.83826 0.60354
 H749 H 0.34461 0.71843 0.65867
 H750 H 0.34682 0.93530 0.61806
 C751 C 0.34679 1.18382 -0.14812
 C752 C 0.31920 1.15505 -0.12946
 N753 N 0.27401 1.15430 -0.13565
 C754 C 0.25535 1.18025 -0.16031
 C755 C 0.28330 1.20779 -0.18018
 N756 N 0.32837 1.20894 -0.17318
 N757 N 0.39188 1.18495 -0.14201
 C758 C 0.41084 1.15838 -0.11817
 C759 C 0.38363 1.12871 -0.10007
 N760 N 0.33822 1.12786 -0.10603
 H761 H 0.21941 1.17809 -0.16530
 H762 H 0.44696 1.16000 -0.11380
 C763 C 0.85424 0.67990 0.34514
 C764 C 0.82629 0.65959 0.37025
 N765 N 0.78073 0.66449 0.36812
 C766 C 0.76191 0.68822 0.34182
 C767 C 0.78983 0.70800 0.31616
 N768 N 0.83547 0.70332 0.31889
 N769 N 0.89958 0.67414 0.34620
 C770 C 0.91835 0.64836 0.37083
 C771 C 0.89066 0.62708 0.39571
 N772 N 0.84502 0.63357 0.39503
 H773 H 0.72555 0.69037 0.34035
 H774 H 0.95459 0.64387 0.37054
 C775 C 0.65660 1.15670 0.15485
 C776 C 0.68187 1.13296 0.13051
 N777 N 0.72776 1.13686 0.13021
 C778 C 0.74937 1.16327 0.15331
 C779 C 0.72385 1.18675 0.17787
 N780 N 0.67807 1.18255 0.17780
 N781 N 0.61091 1.15384 0.15516
 C782 C 0.58900 1.12849 0.13186
 C783 C 0.61385 1.10462 0.10726
 N784 N 0.65996 1.10723 0.10716
 H785 H 0.78589 1.16562 0.15271
 H786 H 0.55240 1.12727 0.13233
 C787 C 1.19838 0.64646 0.63354
 C788 C 1.15248 0.65640 0.62948
 N789 N 1.13508 0.68972 0.64685
 C790 C 1.16094 0.71305 0.66901
 C791 C 1.20663 0.70225 0.67508
 N792 N 1.22433 0.66907 0.65675
 N793 N 1.21545 0.61310 0.61541
 C794 C 1.18850 0.58905 0.59403
 C795 C 1.14208 0.59796 0.59158
 N796 N 1.12543 0.63168 0.60925
 H797 H 1.14490 0.73869 0.68295
 H798 H 1.20271 0.56233 0.58024
 C799 C 0.65092 0.81753 -0.14576
 C800 C 0.67528 0.85054 -0.12989
 N801 N 0.71985 0.85562 -0.13805
 C802 C 0.74078 0.82986 -0.16193
 C803 C 0.71595 0.79759 -0.17881
 N804 N 0.67158 0.79229 -0.16986
 N805 N 0.60639 0.81237 -0.13816
 C806 C 0.58486 0.83883 -0.11549
 C807 C 0.60869 0.87250 -0.09981
 N808 N 0.65368 0.87746 -0.10730
 H809 H 0.77592 0.83561 -0.16865
 H810 H 0.54925 0.83376 -0.11004
 C811 C 1.13810 0.31048 0.34945
 C812 C 1.16215 0.32761 0.37813
 N813 N 1.20754 0.32172 0.38005
 C814 C 1.23013 0.30039 0.35409
 C815 C 1.20630 0.28462 0.32462
 N816 N 1.16066 0.28969 0.32353
 N817 N 1.09315 0.31766 0.34649
 C818 C 1.07121 0.34219 0.37047
 C819 C 1.09538 0.36071 0.39856
 N820 N 1.14030 0.35242 0.40204
 H821 H 1.26643 0.29756 0.35573
 H822 H 1.03554 0.34824 0.36699
 C823 C 0.29699 0.84602 0.14344
 C824 C 0.33823 0.82927 0.13152
 N825 N 0.35310 0.79275 0.14525
 C826 C 0.32906 0.77217 0.17066
 C827 C 0.28737 0.78837 0.18314
 N828 N 0.27255 0.82540 0.16913
 N829 N 0.28328 0.88359 0.13023
 C830 C 0.30908 0.90506 0.10594
 C831 C 0.35066 0.88833 0.09444
 N832 N 0.36392 0.85064 0.10749
 H833 H 0.34382 0.74424 0.18192
 H834 H 0.29744 0.93501 0.09597
 C835 C 0.83421 0.32335 0.64423
 C836 C 0.80671 0.35433 0.62910
 N837 N 0.76311 0.35763 0.64038
 C838 C 0.74610 0.33200 0.66650
 C839 C 0.77406 0.30176 0.68248
 N840 N 0.81741 0.29822 0.67048
 N841 N 0.87821 0.32078 0.63429
 C842 C 0.89644 0.34847 0.61055
 C843 C 0.86966 0.38052 0.59609
 N844 N 0.82502 0.38243 0.60542
 H845 H 0.71170 0.33643 0.67560
 H846 H 0.93205 0.34642 0.60394
 C847 C 1.17332 1.17038 0.64227
 C848 C 1.13219 1.15355 0.65473
 N849 N 1.11929 1.15994 0.68900
 C850 C 1.14597 1.18214 0.71162
 C851 C 1.18757 1.19863 0.69938
 N852 N 1.19979 1.19271 0.66476
 N853 N 1.18668 1.16316 0.60818
 C854 C 1.16087 1.13930 0.58605
 C855 C 1.11989 1.12210 0.59866
 N856 N 1.10644 1.12995 0.63268
 H857 H 1.13470 1.18678 0.73880
 H858 H 1.17248 1.13340 0.55913
 C859 C 0.67010 0.67766 0.13878
 C860 C 0.63468 0.65346 0.15329
 N861 N 0.62685 0.65385 0.18888
 C862 C 0.65352 0.67684 0.21088
 C863 C 0.68981 0.70047 0.19658
 N864 N 0.69632 0.70096 0.16070
 N865 N 0.67917 0.67576 0.10332
 C866 C 0.65468 0.65003 0.08175
 C867 C 0.61949 0.62557 0.09643
 N868 N 0.61010 0.62826 0.13179
 H869 H 0.64650 0.67622 0.23919
 H870 H 0.66295 0.64829 0.05366
 C871 C 1.16330 0.86541 0.33416
 C872 C 1.17477 0.85716 0.36987
 N873 N 1.20479 0.82678 0.37728
 C874 C 1.22358 0.80387 0.35085
 C875 C 1.21215 0.81152 0.31480
 N876 N 1.18217 0.84248 0.30749
 N877 N 1.13155 0.89456 0.32695
 C878 C 1.11009 0.91500 0.35378
 C879 C 1.12068 0.90581 0.38952
 N880 N 1.15333 0.87749 0.39672
 H881 H 1.24528 0.77842 0.35856
 H882 H 1.08426 0.93762 0.34725
 C883 C 0.67224 0.33008 -0.13674
 C884 C 0.62879 0.34248 -0.14679
 N885 N 0.61287 0.33204 -0.17943
 C886 C 0.63887 0.31020 -0.20277
 C887 C 0.68303 0.29881 -0.19314
 N888 N 0.69821 0.30881 -0.16017
 N889 N 0.68843 0.34082 -0.10425
 C890 C 0.66331 0.36437 -0.08152
 C891 C 0.62044 0.37813 -0.09211
 N892 N 0.60402 0.36641 -0.12437
 H893 H 0.62532 0.30241 -0.22867
 H894 H 0.67729 0.37337 -0.05604
 C895 C 0.83445 1.17257 0.35469
 C896 C 0.87410 1.15208 0.34418
 N897 N 0.88765 1.15315 0.30964
 C898 C 0.86281 1.17341 0.28482
 C899 C 0.82253 1.19327 0.29515
 N900 N 0.80992 1.19294 0.33001
 N901 N 0.82006 1.17020 0.38905
 C902 C 0.84330 1.14735 0.41334
 C903 C 0.88246 1.12618 0.40252
 N904 N 0.89715 1.12953 0.36832
 H905 H 0.87442 1.17381 0.25743
 H906 H 0.83076 1.14491 0.44042
 C907 C 0.32109 0.65623 -0.14698
 C908 C 0.35561 0.63076 -0.16026
 N909 N 0.36297 0.62877 -0.19596
 C910 C 0.33750 0.65152 -0.21898
 C911 C 0.30325 0.67790 -0.20569
 N912 N 0.29642 0.67937 -0.16989
 N913 N 0.31317 0.65798 -0.11135
 C914 C 0.33837 0.63518 -0.08828
 C915 C 0.37359 0.61018 -0.10145
 N916 N 0.38134 0.60858 -0.13724
 H917 H 0.34489 0.64977 -0.24719
 H918 H 0.33133 0.63692 -0.05999
 C919 C 0.82718 0.82968 0.64240
 C920 C 0.86537 0.85139 0.65478
 N921 N 0.87784 0.84784 0.68933
 C922 C 0.85309 0.82410 0.71245
 C923 C 0.81400 0.80328 0.70038
 N924 N 0.80272 0.80592 0.66540
 N925 N 0.81374 0.83456 0.60813
 C926 C 0.83652 0.86100 0.58575
 C927 C 0.87424 0.88329 0.59845
 N928 N 0.88799 0.87751 0.63252
 H929 H 0.86353 0.82218 0.73998
 H930 H 0.82482 0.86516 0.55873
 C931 C 0.31873 0.34800 0.15259
 C932 C 0.36008 0.36494 0.16383
 N933 N 0.37372 0.35917 0.19795
 C934 C 0.34802 0.33632 0.22120
 C935 C 0.30719 0.31827 0.20949
 N936 N 0.29366 0.32512 0.17559
 N937 N 0.30501 0.35320 0.11851
 C938 C 0.33112 0.37481 0.09488
 C939 C 0.37272 0.39152 0.10600
 N940 N 0.38621 0.38633 0.14026
 H941 H 0.36018 0.33103 0.24795
 H942 H 0.31947 0.37891 0.06783
   
