data_POSCAR
  _audit_creation_date              2014-09-24
  _audit_creation_method            'ToBaCCo'
  _symmetry_space_group_name_H-M    'P1'
  _symmetry_Int_Tables_number       1
  _symmetry_cell_setting            triclinic
  loop_
  _symmetry_equiv_pos_as_xyz
 x,y,z
_cell_length_a 34.5490
_cell_length_b 37.2137
_cell_length_c 36.0637
_cell_angle_alpha 88.541700
_cell_angle_beta 87.605900
_cell_angle_gamma 90.584100
loop_
  _atom_site_label
  _atom_site_type_symbol
  _atom_site_fract_x
  _atom_site_fract_y
  _atom_site_fract_z
N1 N 0.19958 1.19481 0.19817
 N2 N 0.79440 0.80897 0.19976
 N3 N 0.82080 1.22517 -0.21150
 N4 N 0.19960 0.79522 -0.19630
 C5 C 0.56791 1.05239 -0.03652
 H6 H 0.56385 1.05753 -0.00723
 C7 C 0.59741 1.07026 -0.05753
 H8 H 0.61603 1.08902 -0.04406
 C9 C 0.54994 1.01997 -0.08895
 H10 H 0.53209 0.99967 -0.10090
 C11 C 0.57947 1.03679 -0.11082
 H12 H 0.58371 1.02970 -0.13964
 N13 N 0.54444 1.02827 -0.05259
 C14 C 0.44365 1.02034 0.02446
 H15 H 0.44111 0.99136 0.02670
 C16 C 0.41699 1.04166 0.04365
 H17 H 0.39387 1.02844 0.06001
 C18 C 0.47611 1.07200 -0.00154
 H19 H 0.49862 1.08374 -0.01981
 C20 C 0.45010 1.09439 0.01726
 H21 H 0.45322 1.12327 0.01362
 Zn22 Zn 0.50637 1.00350 -0.02211
 N23 N 0.47278 1.03567 0.00284
 C24 C 0.52939 0.98113 0.04956
 N25 N 0.53314 0.97520 0.01256
 C26 C 0.55843 0.95062 -0.00105
 C27 C 0.58141 0.93081 0.02282
 C28 C 0.55175 0.96195 0.07446
 C29 C 0.45579 0.99162 -0.07857
 C30 C 0.43071 0.97255 -0.10032
 C31 C 0.44403 0.91873 -0.06438
 C32 C 0.46951 0.93881 -0.04374
 N33 N 0.47485 0.97456 -0.05117
 H34 H 0.50982 1.00138 0.05982
 H35 H 0.56119 0.94683 -0.03069
 H36 H 0.60125 0.91188 0.01052
 H37 H 0.54855 0.96753 0.10378
 H38 H 0.46011 1.02021 -0.08346
 H39 H 0.41597 0.98685 -0.12206
 H40 H 0.44081 0.89036 -0.05775
 H41 H 0.48446 0.92592 -0.02137
 C42 C 0.42031 1.07933 0.04054
 C43 C 0.60331 1.06255 -0.09526
 C44 C 0.42392 0.93569 -0.09313
 C45 C 0.57862 0.93661 0.06136
 C46 C -0.02128 0.55473 1.07318
 H47 H 0.00984 0.55448 1.07550
 C48 C -0.04349 0.57968 1.09274
 H49 H -0.02879 0.59790 1.11039
 C50 C -0.07734 0.53114 1.04655
 H51 H -0.09036 0.51285 1.02778
 C52 C -0.10064 0.55565 1.06551
 H53 H -0.13153 0.55559 1.06143
 N54 N -0.03840 0.53112 1.05065
 C55 C 0.04727 0.44710 1.03461
 H56 H 0.04973 0.44786 1.00459
 C57 C 0.06833 0.42207 1.05467
 H58 H 0.08748 0.40448 1.03942
 C59 C 0.01926 0.46998 1.09011
 H60 H -0.00046 0.48826 1.10375
 C61 C 0.03962 0.44516 1.11133
 H62 H 0.03563 0.44482 1.14129
 Zn63 Zn -0.00588 0.50094 1.02197
 N64 N 0.02345 0.47046 1.05244
 C65 C 0.06611 0.53104 0.99438
 N66 N 0.02701 0.53137 0.99159
 C67 C 0.00984 0.55525 0.96857
 C68 C 0.03212 0.58002 0.94694
 C69 C 0.08957 0.55527 0.97323
 C70 C -0.06018 0.44694 1.01164
 C71 C -0.08173 0.42215 0.99251
 C72 C -0.05200 0.44562 0.93494
 C73 C -0.03122 0.47023 0.95528
 N74 N -0.03570 0.47045 0.99290
 H75 H 0.07923 0.51252 1.01353
 H76 H -0.02140 0.55526 0.96735
 H77 H 0.01699 0.59839 0.92920
 H78 H 0.12065 0.55461 0.97617
 H79 H -0.06269 0.44733 1.04163
 H80 H -0.10095 0.40366 1.00822
 H81 H -0.04751 0.44643 0.90514
 H82 H -0.01099 0.48866 0.94097
 C83 C 0.06416 0.42044 1.09366
 C84 C -0.08382 0.58069 1.08861
 C85 C -0.07763 0.42080 0.95363
 C86 C 0.07281 0.58051 0.94923
 C87 C 1.05756 -0.04170 0.54022
 H88 H 1.07521 -0.02442 0.52172
 C89 C 1.07529 -0.06371 0.56638
 H90 H 1.10657 -0.06373 0.56701
 C91 C 0.99545 -0.06251 0.56202
 H92 H 0.96429 -0.06156 0.56032
 C93 C 1.01195 -0.08525 0.58818
 H94 H 0.99334 -0.10192 0.60657
 N95 N 1.01831 -0.04178 0.53828
 C96 C 1.02813 0.05061 0.46967
 H97 H 1.00741 0.06539 0.48637
 C98 C 1.05340 0.06922 0.44457
 H99 H 1.05244 0.09827 0.44308
 C100 C 1.05414 -0.00511 0.45106
 H101 H 1.05376 -0.03415 0.45341
 C102 C 1.08017 0.01243 0.42587
 H103 H 1.09999 -0.00325 0.40894
 Zn104 Zn 0.99283 -0.01172 0.50410
 N105 N 1.02898 0.01410 0.47249
 C106 C 0.98205 0.04109 0.55615
 N107 N 0.96254 0.02035 0.53258
 C108 C 0.92330 0.02154 0.53136
 C109 C 0.90222 0.04469 0.55429
 C110 C 0.96227 0.06471 0.57939
 C111 C 0.96230 -0.07599 0.47538
 C112 C 0.94145 -0.09622 0.45082
 C113 C 0.92019 -0.04103 0.42186
 C114 C 0.94146 -0.02187 0.44709
 N115 N 0.96183 -0.03948 0.47323
 H116 H 1.01323 0.03906 0.55699
 H117 H 0.90822 0.00420 0.51306
 H118 H 0.87094 0.04505 0.55299
 H119 H 0.97929 0.08022 0.59776
 H120 H 0.97959 -0.08961 0.49551
 H121 H 0.94264 -0.12529 0.45297
 H122 H 0.90469 -0.02579 0.40152
 H123 H 0.94219 0.00720 0.44553
 C124 C 1.07959 0.04999 0.42200
 C125 C 1.05228 -0.08584 0.59077
 C126 C 0.92019 -0.07896 0.42328
 C127 C 0.92154 0.06683 0.57882
 C128 C 0.18593 0.22434 1.17583
 C129 C 0.16762 0.25400 1.19135
 C130 C 0.15151 0.28284 1.16815
 N131 N 0.13468 0.31170 1.18420
 N132 N 0.11913 0.33750 1.16344
 C133 C 0.11981 0.33531 1.12587
 N134 N 0.13670 0.30649 1.10987
 N135 N 0.15227 0.28076 1.13059
 C136 C 0.10198 0.36285 1.10233
 C137 C 0.08431 0.39342 1.11669
 H138 H 0.16479 0.25606 1.22123
 H139 H 0.10196 0.35780 1.07298
 H140 H 0.19040 0.22360 1.14595
 H141 H 0.08368 0.39693 1.14644
 C142 C -0.18119 0.77881 1.19142
 C143 C -0.19466 0.74899 1.17290
 C144 C -0.16909 0.71934 1.16201
 N145 N -0.18368 0.69081 1.14428
 N146 N -0.16063 0.66434 1.13311
 C147 C -0.12211 0.66545 1.13924
 N148 N -0.10756 0.69391 1.15711
 N149 N -0.13061 0.72035 1.16831
 C150 C -0.09589 0.63726 1.12569
 C151 C -0.10925 0.60770 1.10658
 H152 H -0.22476 0.74749 1.16580
 H153 H -0.06538 0.64111 1.12983
 H154 H -0.15157 0.77916 1.20019
 H155 H -0.14012 0.60512 1.10294
 C156 C -0.16327 0.25571 0.80247
 C157 C -0.17404 0.26972 0.83713
 C158 C -0.15431 0.30110 0.85212
 N159 N -0.16214 0.31032 0.88777
 N160 N -0.14381 0.33797 0.90224
 C161 C -0.11701 0.35754 0.88156
 N162 N -0.10945 0.34855 0.84576
 N163 N -0.12771 0.32081 0.83131
 C164 C -0.09562 0.38746 0.89756
 C165 C -0.09879 0.39440 0.93554
 H166 H -0.19545 0.25621 0.85539
 H167 H -0.07601 0.40272 0.87900
 H168 H -0.13905 0.26884 0.78726
 H169 H -0.11824 0.37723 0.95263
 C170 C 0.17393 0.76731 0.81893
 C171 C 0.18726 0.73764 0.83892
 C172 C 0.16063 0.71000 0.85555
 N173 N 0.17465 0.68247 0.87622
 N174 N 0.15075 0.65769 0.89205
 C175 C 0.11193 0.65950 0.88773
 N176 N 0.09796 0.68693 0.86691
 N177 N 0.12184 0.71173 0.85114
 C178 C 0.08487 0.63295 0.90569
 C179 C 0.09733 0.60539 0.92937
 H180 H 0.21799 0.73460 0.84266
 H181 H 0.05460 0.63643 0.90048
 H182 H 0.14323 0.76923 0.81432
 H183 H 0.12819 0.60357 0.93332
 C184 C 1.17761 0.18366 0.23147
 C185 C 1.19207 0.15977 0.25786
 C186 C 1.16798 0.14551 0.28959
 N187 N 1.18112 0.11802 0.31090
 N188 N 1.15904 0.10383 0.33882
 C189 C 1.12304 0.11671 0.34656
 N190 N 1.11008 0.14448 0.32554
 N191 N 1.13208 0.15855 0.29751
 C192 C 1.09778 0.10069 0.37654
 C193 C 1.10636 0.06811 0.39424
 H194 H 1.22143 0.15014 0.25461
 H195 H 1.07057 0.11376 0.38297
 H196 H 1.14851 0.19372 0.23589
 H197 H 1.13216 0.05389 0.38524
 C198 C 1.18701 -0.18200 0.77363
 C199 C 1.16146 -0.19414 0.74756
 C200 C 1.14727 -0.17048 0.71790
 N201 N 1.11783 -0.18178 0.69719
 N202 N 1.10413 -0.16048 0.67067
 C203 C 1.11951 -0.12712 0.66374
 N204 N 1.14922 -0.11595 0.68420
 N205 N 1.16278 -0.13719 0.71087
 C206 C 1.10433 -0.10313 0.63485
 C207 C 1.06924 -0.11023 0.61856
 H208 H 1.15090 -0.22164 0.74921
 H209 H 1.12014 -0.07846 0.62784
 H210 H 1.19748 -0.15448 0.77122
 H211 H 1.05216 -0.13342 0.62835
 C212 C 0.80452 -0.16739 0.22898
 C213 C 0.82269 -0.17994 0.26056
 C214 C 0.83608 -0.15576 0.28914
 N215 N 0.85462 -0.16952 0.31863
 N216 N 0.86818 -0.14795 0.34413
 C217 C 0.86368 -0.11179 0.34110
 N218 N 0.84492 -0.09805 0.31170
 N219 N 0.83137 -0.11962 0.28618
 C220 C 0.87982 -0.08747 0.36828
 C221 C 0.90100 -0.10041 0.39798
 H222 H 0.82796 -0.20842 0.26418
 H223 H 0.87555 -0.05906 0.36356
 H224 H 0.79773 -0.13910 0.22640
 H225 H 0.90361 -0.12932 0.40123
 C226 C 0.84079 0.21027 0.75907
 C227 C 0.82392 0.18813 0.73318
 C228 C 0.84742 0.17005 0.70435
 N229 N 0.83022 0.14790 0.68047
 N230 N 0.85142 0.13013 0.65537
 C231 C 0.89062 0.13388 0.65326
 N232 N 0.90775 0.15617 0.67700
 N233 N 0.88658 0.17388 0.70208
 C234 C 0.91490 0.11348 0.62692
 C235 C 0.89941 0.08925 0.60224
 H236 H 0.79290 0.18365 0.73396
 H237 H 0.94574 0.11782 0.62802
 H238 H 0.87093 0.21794 0.75357
 H239 H 0.86812 0.08748 0.60133
 C240 C 0.22907 1.17174 0.18270
 C241 C 0.25785 1.18449 0.15721
 C242 C 0.28682 1.16061 0.14013
 N243 N 0.31227 1.17369 0.11331
 N244 N 0.33821 1.15221 0.09714
 C245 C 0.33969 1.11686 0.10728
 N246 N 0.31436 1.10384 0.13422
 N247 N 0.28838 1.12528 0.15032
 C248 C 0.36765 1.09249 0.08945
 C249 C 0.39284 1.10361 0.05997
 H250 H 0.25901 1.21273 0.14919
 H251 H 0.36803 1.06514 0.10019
 H252 H 0.22892 1.14358 0.19104
 H253 H 0.39293 1.13163 0.05100
 C254 C 0.78685 1.21077 -0.19605
 C255 C 0.77872 1.17379 -0.19411
 C256 C 0.74420 1.15872 -0.17380
 N257 N 0.73554 1.12323 -0.17604
 N258 N 0.70509 1.10891 -0.15693
 C259 C 0.68231 1.12954 -0.13466
 N260 N 0.69102 1.16502 -0.13231
 N261 N 0.72134 1.17938 -0.15161
 C262 C 0.64941 1.11387 -0.11239
 C263 C 0.63519 1.07939 -0.11837
 H264 H 0.79916 1.15490 -0.20576
 H265 H 0.63564 1.13022 -0.09135
 H266 H 0.76678 1.22801 -0.18127
 H267 H 0.64678 1.06467 -0.14180
 C268 C 0.23336 0.80509 -0.17641
 C269 C 0.26312 0.82685 -0.19227
 C270 C 0.29518 0.84012 -0.17059
 N271 N 0.31785 0.86770 -0.18440
 N272 N 0.34592 0.88118 -0.16451
 C273 C 0.35257 0.86741 -0.13014
 N274 N 0.33033 0.83941 -0.11658
 N275 N 0.30204 0.82610 -0.13636
 C276 C 0.38253 0.88298 -0.10732
 C277 C 0.39720 0.91773 -0.11474
 H278 H 0.26217 0.83589 -0.22096
 H279 H 0.39030 0.86775 -0.08290
 H280 H 0.23538 0.79588 -0.14782
 H281 H 0.38546 0.93265 -0.13785
 C282 C 0.76591 0.81985 0.17376
 C283 C 0.73502 0.84207 0.18356
 C284 C 0.70727 0.85466 0.15634
 N285 N 0.67846 0.87722 0.16686
 N286 N 0.65380 0.88964 0.14227
 C287 C 0.65703 0.87992 0.10622
 N288 N 0.68572 0.85721 0.09576
 N289 N 0.71038 0.84482 0.12033
 C290 C 0.63101 0.89435 0.07828
 C291 C 0.60211 0.91920 0.08716
 H292 H 0.73121 0.85081 0.21187
 H293 H 0.63613 0.88563 0.05022
 H294 H 0.76834 0.81011 0.14572
 H295 H 0.59822 0.92626 0.11605
   
