data_POSCAR
  _audit_creation_date              2014-09-24
  _audit_creation_method            'ToBaCCo'
  _symmetry_space_group_name_H-M    'P1'
  _symmetry_Int_Tables_number       1
  _symmetry_cell_setting            triclinic
  loop_
  _symmetry_equiv_pos_as_xyz
 x,y,z
_cell_length_a 61.3177
_cell_length_b 61.5542
_cell_length_c 61.5447
_cell_angle_alpha 90.002600
_cell_angle_beta 89.977800
_cell_angle_gamma 90.008500
loop_
  _atom_site_label
  _atom_site_type_symbol
  _atom_site_fract_x
  _atom_site_fract_y
  _atom_site_fract_z
C1 C 0.21637 0.51641 1.02673
 H2 H 0.21588 0.52891 1.01439
 C3 C 0.20160 0.51694 1.04398
 H4 H 0.18989 0.53009 1.04468
 C5 C 0.23209 0.48394 1.04017
 H6 H 0.24371 0.47088 1.03840
 C7 C 0.21761 0.48379 1.05770
 H8 H 0.21858 0.47060 1.06930
 N9 N 0.23129 0.50016 1.02520
 C10 C 0.28296 0.52633 0.98414
 H11 H 0.28348 0.51397 0.97165
 C12 C 0.29771 0.54359 0.98359
 H13 H 0.30947 0.54440 0.97049
 C14 C 0.26723 0.53980 1.01662
 H15 H 0.25561 0.53805 1.02970
 C16 C 0.28169 0.55734 1.01672
 H17 H 0.28083 0.56903 1.02984
 Zn18 Zn 0.24967 0.50010 1.00049
 N19 N 0.26804 0.52481 1.00041
 C20 C 0.23213 0.51621 0.96078
 N21 N 0.23132 0.50001 0.97578
 C22 C 0.21641 0.48373 0.97425
 C23 C 0.20168 0.48316 0.95697
 C24 C 0.21769 0.51630 0.94323
 C25 C 0.28296 0.47387 1.01683
 C26 C 0.29772 0.45662 1.01737
 C27 C 0.28172 0.44288 0.98423
 C28 C 0.26726 0.46041 0.98434
 N29 N 0.26805 0.47540 1.00056
 H30 H 0.24373 0.52929 0.96254
 H31 H 0.21588 0.47125 0.98661
 H32 H 0.18993 0.47006 0.95616
 H33 H 0.21856 0.52941 0.93154
 H34 H 0.28347 0.48623 1.02933
 H35 H 0.30947 0.45580 1.03046
 H36 H 0.28087 0.43121 0.97110
 H37 H 0.25565 0.46217 0.97127
 C38 C 0.29726 0.55938 1.00007
 C39 C 0.20195 0.50041 1.05981
 C40 C 0.29728 0.44084 1.00087
 C41 C 0.20214 0.49964 0.94118
 C42 C 0.78325 0.51652 -0.02603
 H43 H 0.78379 0.52898 -0.01364
 C44 C 0.79798 0.51708 -0.04331
 H45 H 0.80976 0.53016 -0.04411
 C46 C 0.76747 0.48408 -0.03954
 H47 H 0.75585 0.47102 -0.03779
 C48 C 0.78192 0.48400 -0.05710
 H49 H 0.78103 0.47090 -0.06880
 N50 N 0.76831 0.50027 -0.02451
 C51 C 0.71675 0.52637 0.01670
 H52 H 0.71624 0.51399 0.02917
 C53 C 0.70201 0.54364 0.01731
 H54 H 0.69027 0.54443 0.03043
 C55 C 0.73243 0.53989 -0.01578
 H56 H 0.74402 0.53815 -0.02888
 C57 C 0.71797 0.55743 -0.01583
 H58 H 0.71882 0.56914 -0.02893
 Zn59 Zn 0.74998 0.50015 0.00023
 N60 N 0.73164 0.52487 0.00041
 C61 C 0.76763 0.51614 0.03995
 N62 N 0.76838 0.49997 0.02490
 C63 C 0.78328 0.48368 0.02635
 C64 C 0.79805 0.48306 0.04358
 C65 C 0.78212 0.51617 0.05746
 C66 C 0.71664 0.47400 -0.01614
 C67 C 0.70187 0.45676 -0.01672
 C68 C 0.71790 0.44290 0.01635
 C69 C 0.73238 0.46043 0.01628
 N70 N 0.73157 0.47547 0.00011
 H71 H 0.75603 0.52923 0.03825
 H72 H 0.78375 0.47123 0.01395
 H73 H 0.80979 0.46995 0.04433
 H74 H 0.78130 0.52925 0.06918
 H75 H 0.71612 0.48640 -0.02859
 H76 H 0.69010 0.45599 -0.02980
 H77 H 0.71876 0.43118 0.02943
 H78 H 0.74401 0.46213 0.02934
 C79 C 0.70243 0.55944 0.00085
 C80 C 0.79750 0.50062 -0.05912
 C81 C 0.70232 0.44093 -0.00028
 C82 C 0.79766 0.49950 0.05941
 C83 C -0.01693 0.28381 0.47366
 H84 H -0.02917 0.28427 0.48632
 C85 C -0.01791 0.29854 0.45646
 H86 H -0.03115 0.31018 0.45611
 C87 C 0.01534 0.26821 0.45939
 H88 H 0.02850 0.25664 0.46081
 C89 C 0.01503 0.28265 0.44188
 H90 H 0.02798 0.28171 0.42995
 N91 N -0.00056 0.26897 0.47477
 C92 C -0.02592 0.21748 0.51636
 H93 H -0.01329 0.21699 0.52862
 C94 C -0.04319 0.20274 0.51722
 H95 H -0.04374 0.19101 0.53031
 C96 C -0.04005 0.23311 0.48413
 H97 H -0.03855 0.24468 0.47102
 C98 C -0.05762 0.21865 0.48434
 H99 H -0.06957 0.21948 0.47142
 Zn100 Zn 0.00008 0.25066 0.49945
 N101 N -0.02471 0.23234 0.50007
 C102 C -0.01519 0.26816 0.53955
 N103 N 0.00071 0.26896 0.52415
 C104 C 0.01707 0.28382 0.52526
 C105 C 0.01806 0.29850 0.54251
 C106 C -0.01485 0.28257 0.55709
 C107 C 0.02612 0.21751 0.48255
 C108 C 0.04340 0.20278 0.48172
 C109 C 0.05777 0.21871 0.51462
 C110 C 0.04020 0.23315 0.51480
 N111 N 0.02488 0.23237 0.49885
 H112 H -0.02835 0.25659 0.53812
 H113 H 0.02929 0.28433 0.51259
 H114 H 0.03122 0.31021 0.54299
 H115 H -0.02772 0.28171 0.56911
 H116 H 0.01350 0.21701 0.47027
 H117 H 0.04398 0.19105 0.46863
 H118 H 0.06970 0.21954 0.52756
 H119 H 0.03866 0.24471 0.52791
 C120 C -0.05932 0.20313 0.50100
 C121 C -0.00172 0.29823 0.44022
 C122 C 0.05950 0.20319 0.49796
 C123 C 0.00191 0.29806 0.55871
 C124 C 0.98298 0.71644 0.52562
 H125 H 0.97077 0.71593 0.51295
 C126 C 0.98198 0.70175 0.54286
 H127 H 0.96882 0.69003 0.54333
 C128 C 1.01522 0.73211 0.53992
 H129 H 1.02838 0.74369 0.53851
 C130 C 1.01487 0.71769 0.55746
 H131 H 1.02773 0.71855 0.56948
 N132 N 0.99934 0.73131 0.52452
 C133 C 0.97400 0.78271 0.48285
 H134 H 0.98664 0.78320 0.47059
 C135 C 0.95672 0.79744 0.48198
 H136 H 0.95618 0.80916 0.46888
 C137 C 0.95985 0.76710 0.51509
 H138 H 0.96136 0.75555 0.52821
 C139 C 0.94229 0.78154 0.51487
 H140 H 0.93033 0.78073 0.52780
 Zn141 Zn 1.00001 0.74959 0.49981
 N142 N 0.97521 0.76786 0.49916
 C143 C 0.98485 0.73200 0.45973
 N144 N 1.00072 0.73126 0.47514
 C145 C 1.01711 0.71643 0.47407
 C146 C 1.01814 0.70170 0.45687
 C147 C 0.98523 0.71755 0.44223
 C148 C 1.02596 0.78279 0.51674
 C149 C 1.04322 0.79754 0.51760
 C150 C 1.05771 0.78161 0.48475
 C151 C 1.04016 0.76714 0.48453
 N152 N 1.02479 0.76792 0.50045
 H153 H 0.97167 0.74356 0.46112
 H154 H 1.02931 0.71597 0.48675
 H155 H 1.03132 0.69001 0.45643
 H156 H 0.97237 0.71835 0.43020
 H157 H 1.01330 0.78328 0.52898
 H158 H 1.04374 0.80928 0.53069
 H159 H 1.06969 0.78079 0.47184
 H160 H 1.03868 0.75557 0.47143
 C161 C 0.94059 0.79706 0.49820
 C162 C 0.99812 0.70219 0.55906
 C163 C 1.05937 0.79715 0.50140
 C164 C 1.00201 0.70207 0.44066
 C165 C 0.47403 -0.01731 0.28253
 H166 H 0.48666 -0.02958 0.28303
 C167 C 0.45675 -0.01815 0.29727
 H168 H 0.45618 -0.03123 0.30901
 C169 C 0.45993 0.01492 0.26689
 H170 H 0.46146 0.02803 0.25532
 C171 C 0.44236 0.01473 0.28134
 H172 H 0.43042 0.02766 0.28051
 N173 N 0.47526 -0.00102 0.26767
 C174 C 0.51710 -0.02619 0.21621
 H175 H 0.52933 -0.01353 0.21574
 C176 C 0.51809 -0.04339 0.20147
 H177 H 0.53133 -0.04374 0.18983
 C178 C 0.48483 -0.04047 0.23182
 H179 H 0.47167 -0.03905 0.24340
 C180 C 0.48516 -0.05798 0.21737
 H181 H 0.47221 -0.06992 0.21832
 Zn182 Zn 0.50007 -0.00041 0.24937
 N183 N 0.50073 -0.02509 0.23106
 C184 C 0.54021 -0.01569 0.26690
 N185 N 0.52485 0.00023 0.26768
 C186 C 0.52603 0.01653 0.28254
 C187 C 0.54331 0.01740 0.29728
 C188 C 0.55777 -0.01547 0.28136
 C189 C 0.48306 0.02538 0.21621
 C190 C 0.48205 0.04261 0.20152
 C191 C 0.51494 0.05722 0.21744
 C192 C 0.51530 0.03969 0.23185
 N193 N 0.49942 0.02428 0.23106
 H194 H 0.53872 -0.02880 0.25534
 H195 H 0.51339 0.02877 0.28303
 H196 H 0.54384 0.03049 0.30901
 H197 H 0.56973 -0.02837 0.28054
 H198 H 0.47084 0.01270 0.21571
 H199 H 0.46889 0.04308 0.18981
 H200 H 0.52780 0.06925 0.21829
 H201 H 0.52846 0.03828 0.24342
 C202 C 0.50191 -0.05963 0.20179
 C203 C 0.44064 -0.00192 0.29687
 C204 C 0.49818 0.05882 0.20195
 C205 C 0.55944 0.00120 0.29688
 C206 C 0.52607 -0.01703 0.71723
 H207 H 0.51344 -0.02929 0.71673
 C208 C 0.54336 -0.01787 0.70250
 H209 H 0.54393 -0.03096 0.69077
 C210 C 0.54017 0.01522 0.73286
 H211 H 0.53865 0.02833 0.74442
 C212 C 0.55775 0.01502 0.71842
 H213 H 0.56969 0.02795 0.71925
 N214 N 0.52484 -0.00073 0.73208
 C215 C 0.48295 -0.02586 0.78353
 H216 H 0.47073 -0.01319 0.78400
 C217 C 0.48193 -0.04307 0.79825
 H218 H 0.46875 -0.04353 0.80995
 C219 C 0.51523 -0.04017 0.76793
 H220 H 0.52841 -0.03877 0.75637
 C221 C 0.51486 -0.05768 0.78238
 H222 H 0.52773 -0.06969 0.78157
 Zn223 Zn 0.50002 -0.00010 0.75037
 N224 N 0.49933 -0.02478 0.76869
 C225 C 0.45989 -0.01540 0.73282
 N226 N 0.47525 0.00053 0.73205
 C227 C 0.47406 0.01682 0.71718
 C228 C 0.45679 0.01768 0.70244
 C229 C 0.44233 -0.01518 0.71837
 C230 C 0.51701 0.02570 0.78353
 C231 C 0.51800 0.04294 0.79823
 C232 C 0.48511 0.05752 0.78229
 C233 C 0.48477 0.03999 0.76787
 N234 N 0.50066 0.02460 0.76867
 H235 H 0.46138 -0.02851 0.74439
 H236 H 0.48671 0.02907 0.71669
 H237 H 0.45626 0.03077 0.69071
 H238 H 0.43036 -0.02809 0.71920
 H239 H 0.52924 0.01304 0.78404
 H240 H 0.53115 0.04341 0.80995
 H241 H 0.47224 0.06953 0.78144
 H242 H 0.47162 0.03857 0.75630
 C243 C 0.49808 -0.05927 0.79786
 C244 C 0.55947 -0.00164 0.70290
 C245 C 0.50185 0.05913 0.79780
 C246 C 0.44065 0.00148 0.70284
 C247 C 0.28333 0.01645 0.47369
 H248 H 0.28386 0.02894 0.48605
 C249 C 0.29808 0.01698 0.45643
 H250 H 0.30986 0.03005 0.45561
 C251 C 0.26755 -0.01600 0.46023
 H252 H 0.25592 -0.02906 0.46199
 C253 C 0.28202 -0.01613 0.44268
 H254 H 0.28114 -0.02925 0.43100
 N255 N 0.26838 0.00021 0.47522
 C256 C 0.21676 0.02643 0.51629
 H257 H 0.21622 0.01408 0.52879
 C258 C 0.20203 0.04371 0.51684
 H259 H 0.19027 0.04454 0.52993
 C260 C 0.23251 0.03987 0.48380
 H261 H 0.24412 0.03809 0.47073
 C262 C 0.21807 0.05742 0.48370
 H263 H 0.21895 0.06910 0.47057
 Zn264 Zn 0.25001 0.00015 0.49993
 N265 N 0.23168 0.02488 0.50002
 C266 C 0.26759 0.01623 0.53965
 N267 N 0.26837 0.00003 0.52464
 C268 C 0.28326 -0.01626 0.52614
 C269 C 0.29800 -0.01685 0.54340
 C270 C 0.28205 0.01629 0.55719
 C271 C 0.21668 -0.02602 0.48357
 C272 C 0.20193 -0.04328 0.48300
 C273 C 0.21791 -0.05706 0.51612
 C274 C 0.23238 -0.03953 0.51604
 N275 N 0.23160 -0.02453 0.49984
 H276 H 0.25600 0.02932 0.53790
 H277 H 0.28376 -0.02874 0.51377
 H278 H 0.30974 -0.02996 0.54420
 H279 H 0.28121 0.02940 0.56888
 H280 H 0.21619 -0.01365 0.47109
 H281 H 0.19017 -0.04407 0.46990
 H282 H 0.21876 -0.06876 0.52923
 H283 H 0.24399 -0.03780 0.52912
 C284 C 0.20250 0.05948 0.50034
 C285 C 0.29761 0.00049 0.44064
 C286 C 0.20236 -0.05908 0.49947
 C287 C 0.29758 -0.00038 0.55920
 C288 C 0.71681 0.01649 0.52607
 H289 H 0.71628 0.02896 0.51369
 C290 C 0.70208 0.01705 0.54335
 H291 H 0.69031 0.03014 0.54415
 C292 C 0.73256 -0.01596 0.53957
 H293 H 0.74418 -0.02903 0.53781
 C294 C 0.71811 -0.01604 0.55712
 H295 H 0.71899 -0.02914 0.56882
 N296 N 0.73174 0.00023 0.52455
 C297 C 0.78334 0.02632 0.48336
 H298 H 0.78385 0.01393 0.47089
 C299 C 0.79808 0.04359 0.48274
 H300 H 0.80982 0.04438 0.46963
 C301 C 0.76764 0.03986 0.51583
 H302 H 0.75605 0.03812 0.52892
 C303 C 0.78210 0.05741 0.51586
 H304 H 0.78124 0.06912 0.52896
 Zn305 Zn 0.75008 0.00011 0.49981
 N306 N 0.76844 0.02482 0.49965
 C307 C 0.73248 0.01613 0.46009
 N308 N 0.73168 -0.00004 0.47513
 C309 C 0.71677 -0.01632 0.47367
 C310 C 0.70202 -0.01693 0.45641
 C311 C 0.71801 0.01616 0.44256
 C312 C 0.78339 -0.02608 0.51617
 C313 C 0.79814 -0.04334 0.51673
 C314 C 0.78209 -0.05715 0.48365
 C315 C 0.76763 -0.03961 0.48373
 N316 N 0.76846 -0.02459 0.49992
 H317 H 0.74408 0.02921 0.46180
 H318 H 0.71627 -0.02877 0.48606
 H319 H 0.69027 -0.03004 0.45565
 H320 H 0.71886 0.02925 0.43083
 H321 H 0.78393 -0.01369 0.52863
 H322 H 0.80991 -0.04413 0.52981
 H323 H 0.78121 -0.06886 0.47056
 H324 H 0.75601 -0.03788 0.47067
 C325 C 0.79764 0.05941 0.49919
 C326 C 0.70254 0.00059 0.55915
 C327 C 0.79767 -0.05916 0.50028
 C328 C 0.70246 -0.00050 0.44058
 C329 C 0.48279 0.21657 1.02578
 H330 H 0.47057 0.21609 1.01312
 C331 C 0.48181 0.20184 1.04298
 H332 H 0.46865 0.19012 1.04344
 C333 C 0.51505 0.23221 1.04009
 H334 H 0.52820 0.24379 1.03868
 C335 C 0.51471 0.21775 1.05759
 H336 H 0.52758 0.21857 1.06959
 N337 N 0.49915 0.23144 1.02470
 C338 C 0.47377 0.28291 0.98313
 H339 H 0.48640 0.28342 0.97086
 C340 C 0.45648 0.29764 0.98231
 H341 H 0.45593 0.30937 0.96922
 C342 C 0.45966 0.26725 1.01537
 H343 H 0.46118 0.25568 1.02847
 C344 C 0.44208 0.28169 1.01518
 H345 H 0.43014 0.28084 1.02811
 Zn346 Zn 0.49980 0.24977 1.00002
 N347 N 0.47500 0.26805 0.99942
 C348 C 0.48460 0.23224 0.95992
 N349 N 0.50049 0.23148 0.97532
 C350 C 0.51687 0.21664 0.97422
 C351 C 0.51788 0.20194 0.95700
 C352 C 0.48497 0.21781 0.94240
 C353 C 0.52579 0.28293 1.01698
 C354 C 0.54306 0.29767 1.01784
 C355 C 0.55750 0.28178 0.98495
 C356 C 0.53994 0.26733 0.98472
 N357 N 0.52458 0.26808 1.00066
 H358 H 0.47143 0.24380 0.96134
 H359 H 0.52908 0.21616 0.98690
 H360 H 0.53106 0.19024 0.95653
 H361 H 0.47210 0.21863 0.93039
 H362 H 0.51315 0.28340 1.02924
 H363 H 0.54361 0.30938 1.03095
 H364 H 0.56946 0.28097 0.97202
 H365 H 0.53844 0.25578 0.97160
 C366 C 0.44037 0.29722 0.99854
 C367 C 0.49796 0.20224 1.05917
 C368 C 0.55919 0.29729 1.00162
 C369 C 0.50174 0.20233 0.94080
 C370 C 0.48283 0.78360 -0.02538
 H371 H 0.47061 0.78411 -0.01270
 C372 C 0.48184 0.79828 -0.04262
 H373 H 0.46868 0.81000 -0.04310
 C374 C 0.51507 0.76793 -0.03968
 H375 H 0.52823 0.75636 -0.03826
 C376 C 0.51473 0.78234 -0.05722
 H377 H 0.52759 0.78148 -0.06924
 N378 N 0.49918 0.76874 -0.02427
 C379 C 0.47381 0.71734 0.01742
 H380 H 0.48644 0.71685 0.02968
 C381 C 0.45651 0.70262 0.01830
 H382 H 0.45595 0.69091 0.03141
 C383 C 0.45968 0.73295 -0.01482
 H384 H 0.46120 0.74449 -0.02795
 C385 C 0.44210 0.71851 -0.01459
 H386 H 0.43014 0.71933 -0.02751
 Zn387 Zn 0.49983 0.75046 0.00044
 N388 N 0.47503 0.73218 0.00111
 C389 C 0.48463 0.76805 0.04053
 N390 N 0.50051 0.76880 0.02511
 C391 C 0.51689 0.78365 0.02617
 C392 C 0.51791 0.79837 0.04338
 C393 C 0.48500 0.78250 0.05803
 C394 C 0.52582 0.71727 -0.01645
 C395 C 0.54310 0.70254 -0.01730
 C396 C 0.55754 0.71851 0.01555
 C397 C 0.53997 0.73295 0.01575
 N398 N 0.52462 0.73215 -0.00017
 H399 H 0.47146 0.75649 0.03914
 H400 H 0.52911 0.78412 0.01349
 H401 H 0.53109 0.81007 0.04382
 H402 H 0.47214 0.78168 0.07006
 H403 H 0.51318 0.71676 -0.02871
 H404 H 0.54365 0.69080 -0.03039
 H405 H 0.56950 0.71935 0.02845
 H406 H 0.53847 0.74453 0.02885
 C407 C 0.44039 0.70301 0.00209
 C408 C 0.49798 0.79784 -0.05883
 C409 C 0.55924 0.70297 -0.00110
 C410 C 0.50178 0.79798 0.05960
 C411 C 1.02641 0.48263 0.21717
 H412 H 1.01379 0.47036 0.21667
 C413 C 1.04370 0.48180 0.20243
 H414 H 1.04426 0.46871 0.19069
 C415 C 1.04051 0.51488 0.23280
 H416 H 1.03898 0.52798 0.24436
 C417 C 1.05808 0.51469 0.21835
 H418 H 1.07002 0.52762 0.21917
 N419 N 1.02518 0.49892 0.23202
 C420 C 0.98330 0.47378 0.28347
 H421 H 0.97108 0.48645 0.28395
 C422 C 0.98228 0.45656 0.29819
 H423 H 0.96910 0.45610 0.30989
 C424 C 1.01557 0.45946 0.26786
 H425 H 1.02874 0.46087 0.25630
 C426 C 1.01520 0.44195 0.28230
 H427 H 1.02806 0.42993 0.28148
 Zn428 Zn 1.00036 0.49954 0.25031
 N429 N 0.99968 0.47486 0.26863
 C430 C 0.96022 0.48425 0.23278
 N431 N 0.97559 0.50017 0.23200
 C432 C 0.97440 0.51647 0.21714
 C433 C 0.95712 0.51734 0.20241
 C434 C 0.94265 0.48448 0.21834
 C435 C 1.01736 0.52535 0.28348
 C436 C 1.01834 0.54258 0.29818
 C437 C 0.98545 0.55716 0.28224
 C438 C 0.98511 0.53963 0.26782
 N439 N 1.00101 0.52424 0.26862
 H440 H 0.96172 0.47114 0.24434
 H441 H 0.98705 0.52871 0.21664
 H442 H 0.95658 0.53043 0.19068
 H443 H 0.93068 0.47157 0.21917
 H444 H 1.02958 0.51268 0.28399
 H445 H 1.03150 0.54306 0.30990
 H446 H 0.97258 0.56917 0.28140
 H447 H 0.97196 0.53820 0.25625
 C448 C 0.99842 0.44036 0.29779
 C449 C 1.05980 0.49804 0.20282
 C450 C 1.00219 0.55877 0.29775
 C451 C 0.94097 0.50114 0.20282
 C452 C -0.02602 0.48303 0.78282
 H453 H -0.01339 0.47077 0.78333
 C454 C -0.04331 0.48219 0.79755
 H455 H -0.04388 0.46909 0.80928
 C456 C -0.04013 0.51526 0.76718
 H457 H -0.03860 0.52837 0.75562
 C458 C -0.05771 0.51506 0.78162
 H459 H -0.06965 0.52798 0.78078
 N460 N -0.02478 0.49933 0.76796
 C461 C 0.01712 0.47419 0.71654
 H462 H 0.02934 0.48686 0.71607
 C463 C 0.01813 0.45699 0.70181
 H464 H 0.03131 0.45653 0.69011
 C465 C -0.01517 0.45988 0.73212
 H466 H -0.02835 0.46129 0.74368
 C467 C -0.01480 0.44238 0.71767
 H468 H -0.02768 0.43037 0.71847
 Zn469 Zn 0.00003 0.49996 0.74969
 N470 N 0.00073 0.47528 0.73138
 C471 C 0.04016 0.48469 0.76726
 N472 N 0.02480 0.50061 0.76801
 C473 C 0.02598 0.51691 0.78287
 C474 C 0.04323 0.51778 0.79763
 C475 C 0.05770 0.48492 0.78173
 C476 C -0.01697 0.52572 0.71651
 C477 C -0.01797 0.54294 0.70179
 C478 C 0.01490 0.55758 0.71772
 C479 C 0.01525 0.54006 0.73216
 N480 N -0.00062 0.52464 0.73137
 H481 H 0.03868 0.47158 0.75570
 H482 H 0.01333 0.52916 0.78334
 H483 H 0.04375 0.53088 0.80935
 H484 H 0.06966 0.47201 0.78092
 H485 H -0.02918 0.51304 0.71601
 H486 H -0.03113 0.54338 0.69008
 H487 H 0.02776 0.56960 0.71856
 H488 H 0.02841 0.53866 0.74374
 C489 C 0.00197 0.44080 0.70218
 C490 C -0.05943 0.49841 0.79714
 C491 C -0.00185 0.55915 0.70222
 C492 C 0.05937 0.50158 0.79725
 N493 N 0.10880 0.17245 0.51399
 C494 C 0.11006 0.15725 0.49811
 N495 N 0.09494 0.15723 0.48206
 N496 N 0.07901 0.17194 0.48191
 C497 C 0.07759 0.18720 0.49782
 N498 N 0.09286 0.18716 0.51384
 C499 C 0.12681 0.14098 0.49859
 C500 C 0.14063 0.12706 0.49905
 C501 C 0.15678 0.11020 0.49963
 N502 N 0.15670 0.09537 0.51590
 N503 N 0.17133 0.07937 0.51620
 C504 C 0.18657 0.07760 0.50024
 N505 N 0.18658 0.09258 0.48400
 N506 N 0.17195 0.10859 0.48369
 N507 N 0.65661 0.59524 0.01655
 C508 C 0.65664 0.61010 0.00031
 N509 N 0.67179 0.60854 -0.01565
 N510 N 0.68645 0.59256 -0.01540
 C511 C 0.68648 0.57754 0.00081
 N512 N 0.67126 0.57926 0.01680
 C513 C 0.64047 0.62694 -0.00022
 C514 C 0.62663 0.64084 -0.00063
 C515 C 0.60985 0.65708 -0.00107
 N516 N 0.60861 0.67228 0.01481
 N517 N 0.59265 0.68698 0.01470
 C518 C 0.57734 0.68699 -0.00127
 N519 N 0.57873 0.67173 -0.01718
 N520 N 0.59469 0.65704 -0.01708
 N521 N 0.90521 -0.15698 0.48222
 C522 C 0.89006 -0.15697 0.49826
 N523 N 0.89129 -0.17216 0.51415
 N524 N 0.90722 -0.18688 0.51403
 C525 C 0.92251 -0.18694 0.49803
 N526 N 0.92113 -0.17170 0.48211
 C527 C 0.87332 -0.14069 0.49871
 C528 C 0.85951 -0.12676 0.49913
 C529 C 0.84338 -0.10989 0.49968
 N530 N 0.82820 -0.10832 0.48375
 N531 N 0.81357 -0.09231 0.48403
 C532 C 0.81360 -0.07728 0.50022
 N533 N 0.82884 -0.07900 0.51616
 N534 N 0.84347 -0.09500 0.51589
 N535 N 0.34310 0.40500 1.01644
 C536 C 0.34305 0.39016 1.00018
 N537 N 0.32789 0.39176 0.98424
 N538 N 0.31324 0.40775 0.98454
 C539 C 0.31323 0.42274 1.00078
 N540 N 0.32846 0.42099 1.01674
 C541 C 0.35920 0.37331 0.99960
 C542 C 0.37303 0.35940 0.99916
 C543 C 0.38979 0.34314 0.99868
 N544 N 0.39104 0.32793 1.01455
 N545 N 0.40699 0.31323 1.01441
 C546 C 0.42227 0.31320 0.99840
 N547 N 0.42087 0.32846 0.98249
 N548 N 0.40493 0.34317 0.98263
 N549 N 0.89135 0.17237 0.48509
 C550 C 0.89011 0.15719 0.50099
 N551 N 0.90526 0.15719 0.51702
 N552 N 0.92120 0.17190 0.51711
 C553 C 0.92259 0.18714 0.50118
 N554 N 0.90730 0.18708 0.48519
 C555 C 0.87335 0.14092 0.50056
 C556 C 0.85952 0.12700 0.50017
 C557 C 0.84337 0.11014 0.49966
 N558 N 0.84342 0.09525 0.48344
 N559 N 0.82879 0.07925 0.48322
 C560 C 0.81358 0.07753 0.49921
 N561 N 0.81359 0.09257 0.51540
 N562 N 0.82823 0.10857 0.51563
 N563 N 0.34308 0.59522 -0.01555
 C564 C 0.34303 0.61007 0.00070
 N565 N 0.32786 0.60848 0.01666
 N566 N 0.31322 0.59248 0.01637
 C567 C 0.31321 0.57749 0.00015
 N568 N 0.32844 0.57923 -0.01582
 C569 C 0.35918 0.62693 0.00126
 C570 C 0.37301 0.64085 0.00167
 C571 C 0.38978 0.65711 0.00211
 N572 N 0.40493 0.65710 0.01813
 N573 N 0.42088 0.67180 0.01822
 C574 C 0.42228 0.68703 0.00228
 N575 N 0.40698 0.68698 -0.01370
 N576 N 0.39103 0.67228 -0.01380
 N577 N 0.10871 -0.17207 0.48550
 C578 C 0.10991 -0.15687 0.50139
 N579 N 0.09473 -0.15687 0.51740
 N580 N 0.07881 -0.17159 0.51750
 C581 C 0.07745 -0.18684 0.50158
 N582 N 0.09277 -0.18679 0.48561
 C583 C 0.12666 -0.14059 0.50096
 C584 C 0.14047 -0.12666 0.50055
 C585 C 0.15661 -0.10979 0.50002
 N586 N 0.17176 -0.10822 0.51598
 N587 N 0.18640 -0.09221 0.51572
 C588 C 0.18641 -0.07719 0.49952
 N589 N 0.17120 -0.07892 0.48355
 N590 N 0.15656 -0.09492 0.48380
 N591 N 0.67171 0.39179 1.01620
 C592 C 0.65653 0.39025 1.00027
 N593 N 0.65647 0.40515 0.98407
 N594 N 0.67111 0.42114 0.98382
 C595 C 0.68635 0.42283 0.99977
 N596 N 0.68636 0.40778 1.01594
 C597 C 0.64037 0.37340 1.00080
 C598 C 0.62654 0.35948 1.00121
 C599 C 0.60977 0.34322 1.00163
 N600 N 0.59462 0.34322 1.01766
 N601 N 0.57868 0.32851 1.01775
 C602 C 0.57729 0.31328 1.00181
 N603 N 0.59259 0.31334 0.98582
 N604 N 0.60854 0.32805 0.98572
 N605 N 0.48148 0.09426 1.15637
 C606 C 0.49740 0.10953 1.15638
 N607 N 0.51349 0.10834 1.17143
 N608 N 0.51365 0.09234 1.18601
 C609 C 0.49776 0.07693 1.18607
 N610 N 0.48165 0.07827 1.17095
 C611 C 0.49747 0.12638 1.14027
 C612 C 0.49744 0.14026 1.12646
 C613 C 0.49732 0.15645 1.10968
 N614 N 0.51339 0.17153 1.10853
 N615 N 0.51351 0.18619 1.09259
 C616 C 0.49758 0.18628 1.07722
 N617 N 0.48149 0.17114 1.07853
 N618 N 0.48136 0.15649 1.09446
 N619 N -0.01853 0.65654 0.59446
 C620 C -0.00259 0.65654 0.60970
 N621 N 0.01348 0.67162 0.60852
 N622 N 0.01362 0.68623 0.59254
 C623 C -0.00229 0.68628 0.57715
 N624 N -0.01838 0.67115 0.57849
 C625 C -0.00249 0.64041 0.62653
 C626 C -0.00249 0.62656 0.64038
 C627 C -0.00258 0.60975 0.65653
 N628 N 0.01350 0.60860 0.67160
 N629 N 0.01364 0.59263 0.68622
 C630 C -0.00225 0.57723 0.68630
 N631 N -0.01835 0.57853 0.67117
 N632 N -0.01850 0.59449 0.65655
 N633 N 0.48138 0.90542 -0.15645
 C634 C 0.49732 0.89018 -0.15639
 N635 N 0.51342 0.89134 -0.17144
 N636 N 0.51358 0.90729 -0.18609
 C637 C 0.49766 0.92267 -0.18620
 N638 N 0.48154 0.92136 -0.17108
 C639 C 0.49741 0.87339 -0.14022
 C640 C 0.49740 0.85956 -0.12635
 C641 C 0.49729 0.84344 -0.10951
 N642 N 0.51336 0.82838 -0.10832
 N643 N 0.51350 0.81378 -0.09233
 C644 C 0.49759 0.81373 -0.07693
 N645 N 0.48149 0.82886 -0.07827
 N646 N 0.48135 0.84345 -0.09426
 N647 N 1.01361 0.32793 0.39153
 C648 C 0.99760 0.34305 0.39040
 N649 N 0.98172 0.34313 0.40570
 N650 N 0.98187 0.32855 0.42169
 C651 C 0.99791 0.31334 0.42304
 N652 N 1.01375 0.31334 0.40753
 C653 C 0.99771 0.35917 0.37355
 C654 C 0.99773 0.37299 0.35968
 C655 C 0.99764 0.38979 0.34351
 N656 N 0.98170 0.40503 0.34346
 N657 N 0.98187 0.42097 0.32883
 C658 C 0.99799 0.42229 0.31372
 N659 N 1.01391 0.40691 0.31383
 N660 N 1.01375 0.39095 0.32846
 N661 N 0.48660 0.89170 0.17208
 C662 C 0.50261 0.89057 0.15694
 N663 N 0.51848 0.90588 0.15686
 N664 N 0.51833 0.92186 0.17145
 C665 C 0.50228 0.92319 0.18667
 N666 N 0.48645 0.90769 0.18667
 C667 C 0.50250 0.87373 0.14081
 C668 C 0.50249 0.85987 0.12698
 C669 C 0.50257 0.84371 0.11018
 N670 N 0.51850 0.84366 0.09491
 N671 N 0.51832 0.82903 0.07897
 C672 C 0.50221 0.81392 0.07767
 N673 N 0.48630 0.81402 0.09307
 N674 N 0.48647 0.82865 0.10903
 N675 N -0.01344 0.32856 0.60823
 C676 C 0.00265 0.34362 0.60943
 N677 N 0.01858 0.34363 0.59417
 N678 N 0.01842 0.32906 0.57818
 C679 C 0.00232 0.31394 0.57682
 N680 N -0.01359 0.31398 0.59222
 C681 C 0.00256 0.35972 0.62629
 C682 C 0.00257 0.37353 0.64018
 C683 C 0.00268 0.39030 0.65638
 N684 N 0.01864 0.40552 0.65645
 N685 N 0.01849 0.42145 0.67111
 C686 C 0.00238 0.42275 0.68623
 N687 N -0.01356 0.40738 0.68610
 N688 N -0.01342 0.39145 0.67143
 N689 N 0.51847 0.09454 0.84343
 C690 C 0.50253 0.10978 0.84344
 N691 N 0.48646 0.10859 0.82837
 N692 N 0.48633 0.09261 0.81376
 C693 C 0.50224 0.07722 0.81370
 N694 N 0.51833 0.07857 0.82883
 C695 C 0.50242 0.12661 0.85957
 C696 C 0.50241 0.14047 0.87340
 C697 C 0.50249 0.15663 0.89021
 N698 N 0.48640 0.17168 0.89138
 N699 N 0.48624 0.18631 0.90734
 C700 C 0.50216 0.18641 0.92273
 N701 N 0.51827 0.17130 0.92140
 N702 N 0.51844 0.15668 0.90545
 N703 N 0.98671 0.67136 0.39126
 C704 C 1.00281 0.65631 0.39012
 N705 N 1.01874 0.65638 0.40537
 N706 N 1.01856 0.67102 0.42131
 C707 C 1.00244 0.68613 0.42260
 N708 N 0.98654 0.68601 0.40721
 C709 C 1.00274 0.64014 0.37333
 C710 C 1.00276 0.62627 0.35950
 C711 C 1.00287 0.60943 0.34337
 N712 N 1.01881 0.59419 0.34338
 N713 N 1.01867 0.57821 0.32878
 C714 C 1.00258 0.57687 0.31365
 N715 N 0.98667 0.59225 0.31370
 N716 N 0.98680 0.60824 0.32830
 N717 N 1.15689 0.51592 0.09482
 C718 C 1.15703 0.49972 0.10971
 N719 N 1.17225 0.48385 0.10814
 N720 N 1.18686 0.48415 0.09211
 C721 C 1.18680 0.50031 0.07701
 N722 N 1.17150 0.51621 0.07880
 C723 C 1.14090 0.49914 0.12660
 C724 C 1.12709 0.49868 0.14054
 C725 C 1.11035 0.49819 0.15683
 N726 N 1.09523 0.48214 0.15683
 N727 N 1.07930 0.48199 0.17155
 C728 C 1.07789 0.49790 0.18681
 N729 N 1.09316 0.51392 0.18676
 N730 N 1.10909 0.51407 0.17203
 N731 N 0.60880 0.01436 0.67214
 C732 C 0.61006 -0.00153 0.65695
 N733 N 0.59493 -0.01757 0.65694
 N734 N 0.57899 -0.01770 0.67165
 C735 C 0.57757 -0.00179 0.68690
 N736 N 0.59285 0.01422 0.68686
 C737 C 0.62682 -0.00106 0.64068
 C738 C 0.64065 -0.00062 0.62675
 C739 C 0.65680 -0.00005 0.60989
 N740 N 0.67198 -0.01598 0.60830
 N741 N 0.68662 -0.01569 0.59229
 C742 C 0.68660 0.00051 0.57728
 N743 N 0.67136 0.01646 0.57902
 N744 N 0.65672 0.01618 0.59502
 N745 N -0.17195 0.48406 0.89172
 C746 C -0.15676 0.49998 0.89014
 N747 N -0.15668 0.51621 0.90501
 N748 N -0.17131 0.51649 0.92101
 C749 C -0.18656 0.50055 0.92275
 N750 N -0.18659 0.48435 0.90773
 C751 C -0.14061 0.49941 0.87327
 C752 C -0.12678 0.49897 0.85935
 C753 C -0.11002 0.49850 0.84308
 N754 N -0.10877 0.51438 0.82788
 N755 N -0.09282 0.51425 0.81317
 C756 C -0.07753 0.49825 0.81313
 N757 N -0.07894 0.48234 0.82839
 N758 N -0.09489 0.48246 0.84310
 N759 N 0.39133 0.01410 0.32764
 C760 C 0.39008 -0.00178 0.34284
 N761 N 0.40521 -0.01782 0.34286
 N762 N 0.42114 -0.01796 0.32814
 C763 C 0.42255 -0.00206 0.31287
 N764 N 0.40728 0.01395 0.31291
 C765 C 0.37333 -0.00129 0.35912
 C766 C 0.35951 -0.00083 0.37305
 C767 C 0.34336 -0.00024 0.38992
 N768 N 0.32817 -0.01616 0.39152
 N769 N 0.31353 -0.01584 0.40753
 C770 C 0.31356 0.00038 0.42253
 N771 N 0.32881 0.01631 0.42077
 N772 N 0.34345 0.01601 0.40477
 N773 N 0.15641 0.48397 0.90527
 C774 C 0.15649 0.50021 0.89040
 N775 N 0.17163 0.51617 0.89201
 N776 N 0.18624 0.51590 0.90804
 C777 C 0.18622 0.49969 0.92305
 N778 N 0.17102 0.48372 0.92129
 C779 C 0.14037 0.50074 0.87351
 C780 C 0.12657 0.50115 0.85957
 C781 C 0.10985 0.50158 0.84327
 N782 N 0.09469 0.51760 0.84325
 N783 N 0.07879 0.51769 0.82852
 C784 C 0.07743 0.50177 0.81327
 N785 N 0.09273 0.48578 0.81335
 N786 N 0.10865 0.48568 0.82808
 N787 N 0.59483 0.01724 0.34283
 C788 C 0.61000 0.00123 0.34283
 N789 N 0.60878 -0.01467 0.32765
 N790 N 0.59284 -0.01458 0.31293
 C791 C 0.57753 0.00139 0.31288
 N792 N 0.57890 0.01732 0.32812
 C793 C 0.62675 0.00082 0.35909
 C794 C 0.64058 0.00044 0.37301
 C795 C 0.65672 -0.00006 0.38987
 N796 N 0.65667 -0.01625 0.40478
 N797 N 0.67130 -0.01647 0.42077
 C798 C 0.68651 -0.00049 0.42247
 N799 N 0.68651 0.01568 0.40742
 N800 N 0.67187 0.01590 0.39141
 N801 N 0.84351 0.48373 0.09512
 C802 C 0.84351 0.49994 0.11002
 N803 N 0.82837 0.51591 0.10850
 N804 N 0.81370 0.51568 0.09253
 C805 C 0.81364 0.49950 0.07749
 N806 N 0.82884 0.48352 0.07916
 C807 C 0.85969 0.50043 0.12684
 C808 C 0.87355 0.50081 0.14073
 C809 C 0.89033 0.50121 0.15696
 N810 N 0.89157 0.48530 0.17214
 N811 N 0.90753 0.48538 0.18682
 C812 C 0.92286 0.50135 0.18685
 N813 N 0.92148 0.51728 0.17162
 N814 N 0.90552 0.51721 0.15694
 N815 N 0.40524 0.01750 0.65691
 C816 C 0.39007 0.00149 0.65692
 N817 N 0.39130 -0.01440 0.67211
 N818 N 0.40724 -0.01431 0.68681
 C819 C 0.42256 0.00167 0.68686
 N820 N 0.42118 0.01759 0.67161
 C821 C 0.37331 0.00107 0.64067
 C822 C 0.35948 0.00067 0.62676
 C823 C 0.34333 0.00015 0.60990
 N824 N 0.32820 0.01612 0.60832
 N825 N 0.31356 0.01587 0.59232
 C826 C 0.31353 -0.00034 0.57731
 N827 N 0.32872 -0.01633 0.57904
 N828 N 0.34336 -0.01609 0.59503
   
