data_POSCAR
  _audit_creation_date              2014-09-24
  _audit_creation_method            'ToBaCCo'
  _symmetry_space_group_name_H-M    'P1'
  _symmetry_Int_Tables_number       1
  _symmetry_cell_setting            triclinic
  loop_
  _symmetry_equiv_pos_as_xyz
 x,y,z
_cell_length_a 28.9519
_cell_length_b 28.9901
_cell_length_c 50.9211
_cell_angle_alpha 87.738100
_cell_angle_beta 91.142800
_cell_angle_gamma 120.099000
loop_
  _atom_site_label
  _atom_site_type_symbol
  _atom_site_fract_x
  _atom_site_fract_y
  _atom_site_fract_z
C1 C 0.02248 0.08571 0.53594
 H2 H 0.05948 0.08503 0.53546
 C3 C 0.01882 0.12291 0.55097
 H4 H 0.05300 0.15088 0.56222
 C5 C -0.06660 0.05150 0.52098
 H6 H -0.09924 0.02444 0.50876
 C7 C -0.07193 0.08827 0.53576
 H8 H -0.10888 0.08919 0.53507
 N9 N -0.01980 0.05105 0.52134
 C10 C 0.01616 -0.07465 0.50688
 H11 H 0.01786 -0.07235 0.48563
 C12 C 0.01997 -0.11520 0.52068
 H13 H 0.02509 -0.14400 0.51006
 C14 C 0.00402 -0.04202 0.54664
 H15 H -0.00408 -0.01464 0.55661
 C16 C 0.00760 -0.08199 0.56119
 H17 H 0.00295 -0.08482 0.58235
 Zn18 Zn -0.00711 0.00738 0.49952
 N19 N 0.00791 -0.03937 0.51996
 C20 C 0.09834 0.05475 0.47832
 N21 N 0.05108 0.05429 0.47782
 C22 C 0.04479 0.09110 0.46323
 C23 C 0.08709 0.13060 0.44839
 C24 C 0.14183 0.09376 0.46374
 C25 C -0.11212 -0.07371 0.49203
 C26 C -0.15549 -0.11256 0.47820
 C27 C -0.10677 -0.07351 0.43771
 C28 C -0.06431 -0.03537 0.45233
 N29 N -0.06756 -0.03648 0.47900
 H30 H 0.10283 0.02591 0.49053
 H31 H 0.00705 0.09031 0.46360
 H32 H 0.08192 0.16024 0.43717
 H33 H 0.17968 0.09463 0.46456
 H34 H -0.11309 -0.07436 0.51327
 H35 H -0.19015 -0.14291 0.48890
 H36 H -0.10308 -0.07318 0.41655
 H37 H -0.02801 -0.00644 0.44241
 C38 C 0.01492 -0.11931 0.54804
 C39 C -0.02862 0.12451 0.55072
 C40 C -0.15248 -0.11297 0.45081
 C41 C 0.13616 0.13223 0.44882
 C42 C 1.09970 0.04056 0.13034
 H43 H 1.09919 0.07761 0.13051
 C44 C 1.13779 0.03728 0.11546
 H45 H 1.16662 0.07181 0.10401
 C46 C 1.06404 -0.04913 0.14590
 H47 H 1.03600 -0.08220 0.15828
 C48 C 1.10165 -0.05409 0.13128
 H49 H 1.10225 -0.09118 0.13224
 N50 N 1.06388 -0.00221 0.14516
 C51 C 0.93689 0.03300 0.15864
 H52 H 0.93767 0.03382 0.17987
 C53 C 0.89710 0.03709 0.14460
 H54 H 0.86737 0.04156 0.15502
 C55 C 0.97250 0.02265 0.11918
 H56 H 1.00072 0.01510 0.10943
 C57 C 0.93334 0.02655 0.10440
 H58 H 0.93198 0.02269 0.08328
 Zn59 Zn 1.01864 0.00963 0.16663
 N60 N 0.97325 0.02546 0.14582
 C61 C 1.06418 0.11387 0.18737
 N62 N 1.06400 0.06679 0.18807
 C63 C 1.09984 0.05986 0.20286
 C64 C 1.13796 0.10125 0.21775
 C65 C 1.10181 0.15647 0.20200
 C66 C 0.93684 -0.09559 0.17470
 C67 C 0.89708 -0.13948 0.18878
 C68 C 0.93354 -0.09252 0.22894
 C69 C 0.97266 -0.04946 0.21412
 N70 N 0.97329 -0.05160 0.18748
 H71 H 1.03612 0.11889 0.17502
 H72 H 1.09931 0.02229 0.20266
 H73 H 1.16679 0.09556 0.22918
 H74 H 1.10242 0.19417 0.20108
 H75 H 0.93754 -0.09570 0.15347
 H76 H 0.86729 -0.17374 0.17840
 H77 H 0.93227 -0.08994 0.25006
 H78 H 1.00095 -0.01362 0.22384
 C79 C 0.89488 0.03307 0.11728
 C80 C 1.13904 -0.01031 0.11608
 C81 C 0.89499 -0.13758 0.21610
 C82 C 1.13921 0.15009 0.21718
 C83 C 0.04502 0.95328 0.86985
 H84 H 0.00730 0.91625 0.86945
 C85 C 0.08729 0.95616 0.88473
 H86 H 0.08212 0.92134 0.89594
 C87 C 0.09855 1.04330 0.85482
 H88 H 0.10303 1.07665 0.84262
 C89 C 0.14201 1.04786 0.86943
 H90 H 0.17984 1.08493 0.86866
 N91 N 0.05131 0.99639 0.85528
 C92 C -0.11191 0.96092 0.84109
 H93 H -0.11292 0.96060 0.81985
 C94 C -0.15523 0.95637 0.85494
 H95 H -0.18992 0.95203 0.84432
 C96 C -0.06400 0.97049 0.88078
 H97 H -0.02769 0.97793 0.89068
 C98 C -0.10643 0.96612 0.89540
 H99 H -0.10279 0.96951 0.91656
 Zn100 Zn -0.00689 0.98501 0.83357
 N101 N -0.06731 0.96833 0.85410
 C102 C -0.06641 0.88130 0.81211
 N103 N -0.01960 0.92863 0.81175
 C104 C 0.02267 0.93631 0.79715
 C105 C 0.01898 0.89543 0.78212
 C106 C -0.07176 0.83919 0.79733
 C107 C 0.01636 1.09035 0.82622
 C108 C 0.02015 1.13471 0.81242
 C109 C 0.00776 1.08911 0.77191
 C110 C 0.00420 1.04555 0.78646
 N111 N 0.00811 1.04681 0.81314
 H112 H -0.09904 0.87568 0.82433
 H113 H 0.05967 0.97405 0.79763
 H114 H 0.05315 0.90169 0.77087
 H115 H -0.10871 0.80126 0.79802
 H116 H 0.01807 1.08975 0.84747
 H117 H 0.02527 1.16863 0.82303
 H118 H 0.00310 1.08727 0.75075
 H119 H -0.00390 1.01006 0.77648
 C120 C -0.15213 0.95980 0.88232
 C121 C 0.13633 1.00371 0.88435
 C122 C 0.01507 1.13375 0.78506
 C123 C -0.02846 0.84632 0.78237
 C124 C 0.46333 -0.00579 -0.01436
 C125 C 0.46557 -0.00352 0.01324
 C126 C 0.50914 -0.00137 0.02680
 C127 C 0.55000 -0.00251 0.01308
 C128 C 0.54669 -0.00693 -0.01443
 C129 C 0.50363 -0.00802 -0.02803
 H130 H 0.50149 -0.01058 -0.04926
 H131 H 0.51127 0.00123 0.04802
 C132 C -0.01836 0.44936 0.65290
 C133 C -0.01725 0.44837 0.68057
 C134 C -0.01787 0.48922 0.69408
 C135 C -0.01834 0.53167 0.68020
 C136 C -0.01726 0.53375 0.65252
 C137 C -0.01790 0.49227 0.63901
 H138 H -0.01774 0.49354 0.61769
 H139 H -0.01767 0.48814 0.71540
 C140 C 0.55027 0.55317 0.32060
 C141 C 0.54701 0.55420 0.34811
 C142 C 0.50391 0.51216 0.36169
 C143 C 0.46354 0.46965 0.34799
 C144 C 0.46575 0.46972 0.32038
 C145 C 0.50934 0.51120 0.30686
 H146 H 0.51145 0.51080 0.28563
 H147 H 0.50180 0.51251 0.38292
 C148 C -0.02953 0.24530 0.58984
 C149 C -0.04822 0.23200 0.61855
 C150 C -0.04585 0.27383 0.63109
 C151 C -0.02501 0.32482 0.61367
 C152 C -0.06168 0.30818 0.58950
 C153 C -0.06405 0.26636 0.57696
 C154 C 0.02689 0.29410 0.59099
 C155 C 0.02926 0.33588 0.60352
 C156 C -0.03145 0.20073 0.57621
 C157 C -0.03130 0.16523 0.56473
 C158 C -0.02234 0.36983 0.62717
 C159 C -0.02027 0.40645 0.63858
 H160 H -0.06209 0.19319 0.62818
 H161 H -0.05773 0.27084 0.65146
 H162 H -0.08385 0.32751 0.58282
 H163 H -0.08827 0.24985 0.55955
 H164 H 0.06195 0.29566 0.58272
 H165 H 0.06631 0.37322 0.60599
 C166 C 0.76596 0.74365 0.25648
 C167 C 0.71814 0.75285 0.25496
 C168 C 0.67401 0.71424 0.26783
 C169 C 0.68200 0.67019 0.28095
 C170 C 0.73089 0.69951 0.29884
 C171 C 0.77505 0.73816 0.28597
 C172 C 0.74496 0.68769 0.24594
 C173 C 0.70082 0.64907 0.25881
 C174 C 0.81314 0.78535 0.24246
 C175 C 0.85104 0.82012 0.23061
 C176 C 0.63450 0.62859 0.29477
 C177 C 0.59580 0.59430 0.30631
 H178 H 0.71890 0.78677 0.24470
 H179 H 0.63699 0.71508 0.26861
 H180 H 0.73082 0.69067 0.31977
 H181 H 0.81281 0.76246 0.29586
 H182 H 0.76318 0.67915 0.22981
 H183 H 0.68121 0.60743 0.25370
 C184 C 0.26228 0.00364 -0.07705
 C185 C 0.25443 -0.05283 -0.07475
 C186 C 0.29541 -0.05515 -0.06239
 C187 C 0.34026 -0.00079 -0.05354
 C188 C 0.31259 0.02067 -0.03642
 C189 C 0.27157 0.02298 -0.04878
 C190 C 0.31631 0.03762 -0.09087
 C191 C 0.35732 0.03530 -0.07851
 C192 C 0.21800 0.00563 -0.09049
 C193 C 0.18110 0.00576 -0.10181
 C194 C 0.38431 -0.00327 -0.04019
 C195 C 0.42039 -0.00486 -0.02880
 H196 H 0.21967 -0.08795 -0.08216
 H197 H 0.29577 -0.09222 -0.05920
 H198 H 0.32424 0.03300 -0.01635
 H199 H 0.24804 0.03725 -0.03931
 H200 H 0.32189 0.06145 -0.10877
 H201 H 0.39802 0.05712 -0.08583
 C202 C 0.00506 0.75007 0.58797
 C203 C 0.03753 0.72792 0.57556
 C204 C 0.03238 0.68343 0.58837
 C205 C -0.00473 0.66543 0.61234
 C206 C -0.05771 0.65864 0.60177
 C207 C -0.05256 0.70313 0.58895
 C208 C 0.02324 0.75894 0.61677
 C209 C 0.01810 0.71443 0.62959
 C210 C 0.01023 0.79769 0.57404
 C211 C 0.01324 0.83607 0.56233
 C212 C -0.01014 0.61764 0.62616
 C213 C -0.01393 0.57894 0.63785
 H214 H 0.06240 0.74565 0.55824
 H215 H 0.05283 0.66302 0.58203
 H216 H -0.09590 0.62214 0.60416
 H217 H -0.08637 0.70472 0.58036
 H218 H 0.03876 0.79681 0.62625
 H219 H 0.02925 0.71417 0.65006
 C220 C 0.26131 0.27335 0.25646
 C221 C 0.28466 0.32781 0.24190
 C222 C 0.32672 0.36789 0.25456
 C223 C 0.34131 0.34957 0.28053
 C224 C 0.35078 0.30411 0.27327
 C225 C 0.30874 0.26406 0.26061
 C226 C 0.24742 0.28239 0.28402
 C227 C 0.28950 0.32249 0.29667
 C228 C 0.21642 0.23006 0.24272
 C229 C 0.18054 0.19395 0.23119
 C230 C 0.38651 0.39262 0.29418
 C231 C 0.42311 0.42784 0.30578
 H232 H 0.26946 0.33433 0.22331
 H233 H 0.34758 0.40874 0.24680
 H234 H 0.38726 0.30341 0.27771
 H235 H 0.30922 0.22902 0.25421
 H236 H 0.20806 0.25935 0.29281
 H237 H 0.28617 0.33382 0.31632
 C238 C 0.73320 -0.03107 -0.07848
 C239 C 0.67641 -0.06701 -0.08880
 C240 C 0.63846 -0.06179 -0.07601
 C241 C 0.66103 -0.02113 -0.05416
 C242 C 0.70372 0.03087 -0.06762
 C243 C 0.74164 0.02565 -0.08040
 C244 C 0.73022 -0.04477 -0.04890
 C245 C 0.69225 -0.03956 -0.03611
 C246 C 0.77420 -0.03620 -0.09239
 C247 C 0.80845 -0.03896 -0.10413
 C248 C 0.62021 -0.01552 -0.04040
 C249 C 0.58670 -0.01125 -0.02884
 H250 H 0.66685 -0.09420 -0.10474
 H251 H 0.59638 -0.08450 -0.08100
 H252 H 0.70416 0.06849 -0.06713
 H253 H 0.77458 0.05884 -0.09087
 H254 H 0.75564 -0.05746 -0.03890
 H255 H 0.68512 -0.04781 -0.01514
 C256 C 0.26117 -0.01145 0.07694
 C257 C 0.30731 0.04550 0.07132
 C258 C 0.34936 0.04747 0.05872
 C259 C 0.34118 -0.00770 0.05298
 C260 C 0.28863 -0.03550 0.03748
 C261 C 0.24654 -0.03747 0.05009
 C262 C 0.28655 -0.03972 0.09234
 C263 C 0.32862 -0.03774 0.07974
 C264 C 0.21627 -0.01305 0.09063
 C265 C 0.18038 -0.01282 0.10211
 C266 C 0.38638 -0.00557 0.03938
 C267 C 0.42297 -0.00422 0.02782
 H268 H 0.30695 0.08117 0.07673
 H269 H 0.38499 0.08479 0.05333
 H270 H 0.28483 -0.05212 0.01829
 H271 H 0.20670 -0.05576 0.04170
 H272 H 0.27268 -0.05957 0.11145
 H273 H 0.35081 -0.05589 0.08805
 C274 C 0.73411 0.76481 0.41217
 C275 C 0.67736 0.74418 0.42247
 C276 C 0.63927 0.70100 0.40969
 C277 C 0.66168 0.68271 0.38787
 C278 C 0.70418 0.67321 0.40137
 C279 C 0.74224 0.71636 0.41415
 C280 C 0.73121 0.77550 0.38259
 C281 C 0.69310 0.73231 0.36980
 C282 C 0.77525 0.81094 0.42607
 C283 C 0.80961 0.84795 0.43781
 C284 C 0.62072 0.63627 0.37412
 C285 C 0.58711 0.59850 0.36254
 H286 H 0.66792 0.76193 0.43837
 H287 H 0.59719 0.68176 0.41465
 H288 H 0.70439 0.63591 0.40092
 H289 H 0.77508 0.71600 0.42465
 H290 H 0.75679 0.81360 0.37257
 H291 H 0.68601 0.73343 0.34883
 C292 C 0.00516 0.25447 0.74513
 C293 C -0.05245 0.24373 0.74419
 C294 C -0.05762 0.28305 0.73137
 C295 C -0.00467 0.32928 0.72076
 C296 C 0.01806 0.30308 0.70350
 C297 C 0.02322 0.26372 0.71632
 C298 C 0.03771 0.30916 0.75751
 C299 C 0.03254 0.34849 0.74469
 C300 C 0.01034 0.21203 0.75905
 C301 C 0.01338 0.17668 0.77077
 C302 C -0.01010 0.37163 0.70694
 C303 C -0.01390 0.40653 0.69524
 H304 H -0.08625 0.20830 0.75282
 H305 H -0.09580 0.28132 0.72901
 H306 H 0.02913 0.31445 0.68302
 H307 H 0.03868 0.24136 0.70682
 H308 H 0.06264 0.31637 0.77481
 H309 H 0.05304 0.38940 0.75102
 C310 C 0.76575 0.02275 0.07705
 C311 C 0.74506 0.05798 0.08754
 C312 C 0.70089 0.05246 0.07472
 C313 C 0.68173 0.01225 0.05267
 C314 C 0.67362 -0.03976 0.06590
 C315 C 0.71778 -0.03424 0.07872
 C316 C 0.77464 0.03705 0.04753
 C317 C 0.73045 0.03153 0.03471
 C318 C 0.81296 0.02825 0.09102
 C319 C 0.85090 0.03140 0.10282
 C320 C 0.63421 0.00635 0.03890
 C321 C 0.59551 0.00192 0.02738
 H322 H 0.76350 0.08492 0.10360
 H323 H 0.68148 0.07466 0.07981
 H324 H 0.63650 -0.07761 0.06523
 H325 H 0.71846 -0.06739 0.08904
 H326 H 0.81229 0.05033 0.03759
 H327 H 0.73025 0.04012 0.01377
 C328 C 0.26225 0.25864 0.41041
 C329 C 0.25299 0.30622 0.40675
 C330 C 0.29402 0.34965 0.39446
 C331 C 0.34033 0.34127 0.38703
 C332 C 0.31478 0.29129 0.37041
 C333 C 0.27370 0.24783 0.38271
 C334 C 0.31560 0.28064 0.42512
 C335 C 0.35666 0.32409 0.41282
 C336 C 0.21791 0.21224 0.42378
 C337 C 0.18097 0.17508 0.43504
 C338 C 0.38445 0.38794 0.37375
 C339 C 0.42056 0.42570 0.36240
 H340 H 0.21727 0.30581 0.41322
 H341 H 0.29347 0.38641 0.39039
 H342 H 0.32782 0.29015 0.35072
 H343 H 0.25154 0.20948 0.37356
 H344 H 0.32069 0.26357 0.44355
 H345 H 0.39691 0.34425 0.42073
 C346 C -0.02941 0.72459 0.74325
 C347 C -0.06398 0.66895 0.75612
 C348 C -0.06162 0.62950 0.74358
 C349 C -0.02493 0.64958 0.71942
 C350 C 0.02935 0.69285 0.72959
 C351 C 0.02699 0.73227 0.74212
 C352 C -0.04807 0.71920 0.71453
 C353 C -0.04573 0.67973 0.70200
 C354 C -0.03132 0.76724 0.75688
 C355 C -0.03116 0.80290 0.76836
 C356 C -0.02227 0.60723 0.70592
 C357 C -0.02023 0.57267 0.69451
 H358 H -0.08821 0.66121 0.77352
 H359 H -0.08382 0.58796 0.75025
 H360 H 0.06639 0.69260 0.72715
 H361 H 0.06205 0.76580 0.75041
 H362 H -0.06191 0.74414 0.70490
 H363 H -0.05758 0.67084 0.68162
   
