data_POSCAR
  _audit_creation_date              2014-09-24
  _audit_creation_method            'ToBaCCo'
  _symmetry_space_group_name_H-M    'P1'
  _symmetry_Int_Tables_number       1
  _symmetry_cell_setting            triclinic
  loop_
  _symmetry_equiv_pos_as_xyz
 x,y,z
_cell_length_a 16.4044
_cell_length_b 15.1796
_cell_length_c 15.4241
_cell_angle_alpha 90.040800
_cell_angle_beta 90.142600
_cell_angle_gamma 89.809300
loop_
  _atom_site_label
  _atom_site_type_symbol
  _atom_site_fract_x
  _atom_site_fract_y
  _atom_site_fract_z
C1 C 0.31620 1.00075 -0.58334
 C2 C 0.27377 0.99967 -0.50372
 C3 C 0.31517 0.99882 -0.42339
 C4 C 0.40156 0.99951 -0.42260
 C5 C 0.44552 1.00012 -0.50200
 C6 C 0.40277 1.00050 -0.58240
 C7 C 0.44787 1.00059 -0.65990
 C8 C 0.53272 1.00020 -0.65892
 C9 C 0.57666 1.00012 -0.58038
 C10 C 0.53264 1.00035 -0.50095
 C11 C 0.44522 0.99965 -0.34406
 C12 C 0.53001 1.00048 -0.34298
 C13 C 0.57524 1.00079 -0.42044
 C14 C 0.66176 1.00147 -0.41920
 C15 C 0.70443 1.00076 -0.49878
 C16 C 0.66324 0.99984 -0.57945
 H17 H 0.41780 1.00079 -0.72247
 H18 H 0.56371 1.00013 -0.72081
 H19 H 0.41411 0.99930 -0.28225
 H20 H 0.55993 1.00070 -0.28033
 H21 H 0.20763 0.99951 -0.50411
 H22 H 0.77060 1.00089 -0.49792
 C23 C -0.68664 1.42137 -0.00040
 C24 C -0.72894 1.50170 -0.00222
 C25 C -0.68721 1.58220 -0.00313
 C26 C -0.60110 1.58281 -0.00156
 C27 C -0.55782 1.50174 -0.00033
 C28 C -0.60072 1.42077 -0.00008
 C29 C -0.55662 1.34120 0.00048
 C30 C -0.47196 1.34106 0.00065
 C31 C -0.42818 1.42049 0.00084
 C32 C -0.47140 1.50157 0.00071
 C33 C -0.55706 1.66225 -0.00107
 C34 C -0.47237 1.66203 0.00072
 C35 C -0.42837 1.58244 0.00156
 C36 C -0.34241 1.58158 0.00312
 C37 C -0.30034 1.50113 0.00261
 C38 C -0.34225 1.42091 0.00116
 H39 H -0.58720 1.27811 0.00055
 H40 H -0.44111 1.27790 0.00088
 H41 H -0.58781 1.72547 -0.00186
 H42 H -0.44165 1.72505 0.00121
 H43 H -0.79513 1.50137 -0.00283
 H44 H -0.23418 1.50095 0.00322
 C45 C 0.05449 0.41784 0.32156
 C46 C 0.04532 0.49788 0.27741
 C47 C 0.05236 0.57767 0.32217
 C48 C 0.06931 0.57832 0.41094
 C49 C 0.07214 0.49780 0.45621
 C50 C 0.06957 0.41712 0.41097
 C51 C 0.07546 0.33764 0.45741
 C52 C 0.06964 0.33787 0.54667
 C53 C 0.05851 0.41764 0.59165
 C54 C 0.06697 0.49808 0.54699
 C55 C 0.07655 0.65788 0.45679
 C56 C 0.07266 0.65821 0.54615
 C57 C 0.06079 0.57896 0.59159
 C58 C 0.03754 0.57880 0.67885
 C59 C 0.02361 0.49917 0.72202
 C60 C 0.03390 0.41896 0.67847
 H61 H 0.07905 0.27443 0.42501
 H62 H 0.06904 0.27481 0.57944
 H63 H 0.08030 0.72079 0.42399
 H64 H 0.07361 0.72146 0.57865
 H65 H 0.02869 0.49818 0.20924
 H66 H 0.00262 0.49968 0.78876
 O67 O -0.22376 1.00290 -0.12163
 O68 O 0.19720 0.99732 -0.12403
 O69 O -0.01367 1.12214 -0.22093
 O70 O -0.00699 0.87712 -0.22002
 O71 O -0.01102 0.77427 -0.11042
 O72 O -0.01718 1.22509 -0.11123
 O73 O 0.09394 0.99769 -0.22674
 O74 O -0.12191 1.00168 -0.22555
 Zr75 Zr -0.01364 0.99983 -0.15309
 O76 O 0.06179 0.92130 -0.07900
 O77 O -0.08898 1.07860 -0.07869
 C78 C -0.19753 1.00315 -0.20212
 C79 C 0.16994 0.99666 -0.20408
 C80 C -0.01436 1.20228 -0.19099
 C81 C -0.00549 0.79709 -0.18993
 H82 H 0.09550 1.11574 -0.11541
 O83 O 0.06135 1.07755 -0.07865
 H84 H -0.12211 0.88360 -0.11483
 O85 O -0.08822 0.92229 -0.07796
 O86 O 0.19939 1.00195 0.12091
 O87 O -0.22175 0.99850 0.12493
 O88 O 0.09410 1.22470 0.00160
 O89 O 0.09464 0.77488 -0.00369
 O90 O -0.12124 0.77606 0.00410
 O91 O -0.12137 1.22473 -0.00119
 O92 O -0.00071 1.12239 0.22011
 O93 O -0.00718 0.87768 0.22119
 O94 O -0.00761 1.22550 0.11088
 O95 O -0.01322 0.77471 0.11165
 O96 O 0.19809 1.12175 0.00115
 O97 O -0.22460 1.12188 -0.00015
 O98 O -0.22454 0.87960 0.00393
 O99 O 0.19838 0.87740 -0.00449
 O100 O 0.09800 1.00166 0.22524
 O101 O -0.11819 0.99879 0.22747
 Zr102 Zr 0.13452 0.99968 -0.00117
 Zr103 Zr -0.15975 1.00049 0.00136
 Zr104 Zr -0.01341 1.15027 0.00001
 Zr105 Zr -0.01317 0.84967 0.00038
 Zr106 Zr -0.01080 0.99997 0.15340
 O107 O -0.08748 0.92166 0.08033
 O108 O 0.06303 1.07801 0.07789
 C109 C 0.17354 1.00261 0.20140
 C110 C -0.19429 0.99793 0.20503
 C111 C 0.17005 1.20209 0.00227
 C112 C 0.17054 0.79717 -0.00536
 C113 C -0.19706 0.79917 0.00511
 C114 C -0.19716 1.20214 -0.00137
 C115 C 0.00118 1.20237 0.19004
 C116 C -0.00732 0.79755 0.19123
 H117 H -0.11975 1.11728 0.11740
 O118 O -0.08685 1.07826 0.07976
 H119 H 0.09832 0.88408 0.11333
 O120 O 0.06297 0.92226 0.07744
 C121 C 0.27217 1.00185 0.33963
 C122 C 0.23120 1.00257 0.27345
 C123 C -0.29177 0.99880 0.34419
 C124 C -0.25087 0.99808 0.27803
 C125 C -0.29469 1.00257 -0.34172
 C126 C -0.25459 1.00325 -0.27486
 C127 C 0.26775 0.99748 -0.34260
 C128 C 0.22669 0.99669 -0.27671
 C129 C 0.26689 1.34046 0.00113
 C130 C 0.22595 1.27457 0.00210
 C131 C 0.26819 0.65867 -0.00487
 C132 C 0.22677 0.72454 -0.00578
 C133 C -0.29546 0.66212 0.00469
 C134 C -0.25367 0.72735 0.00545
 C135 C -0.29528 1.34007 -0.00013
 C136 C -0.25367 1.27441 -0.00104
 C137 C 0.03574 1.34166 0.28058
 C138 C 0.01861 1.27441 0.24476
 C139 C 0.01304 1.34281 -0.28183
 C140 C -0.00271 1.27506 -0.24634
 C141 C 0.02041 0.65590 -0.28090
 C142 C 0.00676 0.72420 -0.24518
 C143 C 0.02864 0.65790 0.28060
 C144 C 0.00951 0.72517 0.24581
   
