data_POSCAR
  _audit_creation_date              2014-09-24
  _audit_creation_method            'ToBaCCo'
  _symmetry_space_group_name_H-M    'P1'
  _symmetry_Int_Tables_number       1
  _symmetry_cell_setting            triclinic
  loop_
  _symmetry_equiv_pos_as_xyz
 x,y,z
_cell_length_a 41.3621
_cell_length_b 41.3713
_cell_length_c 41.3698
_cell_angle_alpha 89.956000
_cell_angle_beta 90.041100
_cell_angle_gamma 89.959400
loop_
  _atom_site_label
  _atom_site_type_symbol
  _atom_site_fract_x
  _atom_site_fract_y
  _atom_site_fract_z
C1 C 0.37249 0.27562 0.02881
 C2 C 0.38434 0.26403 -0.00054
 C3 C 0.37266 0.27563 -0.03004
 C4 C 0.34816 0.29951 -0.03045
 C5 C 0.33586 0.31147 -0.00070
 C6 C 0.34809 0.29949 0.02909
 C7 C 0.33575 0.31179 0.05825
 C8 C 0.31189 0.33556 0.05824
 C9 C 0.29950 0.34785 0.02907
 C10 C 0.31151 0.33567 -0.00070
 C11 C 0.33575 0.31185 -0.05963
 C12 C 0.31182 0.33556 -0.05964
 C13 C 0.29941 0.34786 -0.03047
 C14 C 0.27534 0.37216 -0.03009
 C15 C 0.26376 0.38384 -0.00062
 C16 C 0.27551 0.37215 0.02877
 H17 H 0.34453 0.30314 0.08136
 H18 H 0.30322 0.34429 0.08133
 H19 H 0.34452 0.30325 -0.08274
 H20 H 0.30312 0.34427 -0.08276
 H21 H 0.40329 0.24582 -0.00036
 H22 H 0.24543 0.40268 -0.00048
 C23 C 0.72444 0.62848 0.02932
 C24 C 0.73615 0.61694 -0.00011
 C25 C 0.72460 0.62889 -0.02948
 C26 C 0.70069 0.65324 -0.02978
 C27 C 0.68863 0.66529 -0.00001
 C28 C 0.70056 0.65287 0.02973
 C29 C 0.68819 0.66501 0.05893
 C30 C 0.66439 0.68886 0.05898
 C31 C 0.65212 0.70136 0.02984
 C32 C 0.66437 0.68955 0.00004
 C33 C 0.68841 0.66569 -0.05893
 C34 C 0.66456 0.68948 -0.05891
 C35 C 0.65215 0.70170 -0.02970
 C36 C 0.62770 0.72561 -0.02926
 C37 C 0.61599 0.73707 0.00025
 C38 C 0.62777 0.72527 0.02959
 H39 H 0.69681 0.65611 0.08200
 H40 H 0.65560 0.69739 0.08210
 H41 H 0.69713 0.65706 -0.08204
 H42 H 0.65586 0.69823 -0.08200
 H43 H 0.75436 0.59802 -0.00017
 H44 H 0.59705 0.75529 0.00046
 C45 C 0.62903 0.27522 1.02974
 C46 C 0.61728 0.26361 1.00033
 C47 C 0.62894 0.27531 0.97093
 C48 C 0.65321 0.29927 0.97056
 C49 C 0.66547 0.31123 1.00030
 C50 C 0.65334 0.29916 1.03007
 C51 C 0.66567 0.31145 1.05923
 C52 C 0.68942 0.33530 1.05922
 C53 C 0.70168 0.34775 1.03003
 C54 C 0.68964 0.33555 1.00028
 C55 C 0.66539 0.31168 0.94137
 C56 C 0.68910 0.33557 0.94133
 C57 C 0.70148 0.34786 0.97049
 C58 C 0.72527 0.37230 0.97077
 C59 C 0.73699 0.38402 1.00013
 C60 C 0.72553 0.37221 1.02961
 H61 H 0.65698 0.30272 1.08232
 H62 H 0.69809 0.34400 1.08233
 H63 H 0.65659 0.30304 0.91828
 H64 H 0.69766 0.34439 0.91823
 H65 H 0.59841 0.24537 1.00033
 H66 H 0.75516 0.40298 0.99998
 C67 C 0.27497 0.62775 1.03034
 C68 C 0.26350 0.61604 1.00082
 C69 C 0.27529 0.62774 0.97148
 C70 C 0.29920 0.65208 0.97126
 C71 C 0.31108 0.66430 1.00108
 C72 C 0.29895 0.65210 1.03081
 C73 C 0.31124 0.66443 1.06002
 C74 C 0.33509 0.68820 1.06010
 C75 C 0.34753 0.70055 1.03097
 C76 C 0.33536 0.68855 1.00117
 C77 C 0.31163 0.66438 0.94214
 C78 C 0.33542 0.68820 0.94222
 C79 C 0.34763 0.70053 0.97142
 C80 C 0.37195 0.72445 0.97179
 C81 C 0.38367 0.73608 1.00119
 C82 C 0.37196 0.72448 1.03065
 H83 H 0.30251 0.65572 1.08311
 H84 H 0.34376 0.69682 1.08324
 H85 H 0.30305 0.65562 0.91902
 H86 H 0.34423 0.69685 0.91915
 H87 H 0.24523 0.59716 1.00062
 H88 H 0.40257 0.75433 1.00107
 C89 C 0.02899 0.27504 0.37148
 C90 C -0.00034 0.26327 0.38323
 C91 C -0.02987 0.27476 0.37151
 C92 C -0.03036 0.29871 0.34710
 C93 C -0.00064 0.31082 0.33486
 C94 C 0.02919 0.29893 0.34710
 C95 C 0.05832 0.31134 0.33480
 C96 C 0.05823 0.33514 0.31096
 C97 C 0.02901 0.34736 0.29861
 C98 C -0.00073 0.33508 0.31059
 C99 C -0.05959 0.31100 0.33473
 C100 C -0.05968 0.33482 0.31092
 C101 C -0.03055 0.34726 0.29856
 C102 C -0.03024 0.37168 0.27462
 C103 C -0.00080 0.38342 0.26302
 C104 C 0.02862 0.37171 0.27469
 H105 H 0.08145 0.30276 0.34357
 H106 H 0.08129 0.34396 0.30231
 H107 H -0.08267 0.30229 0.34346
 H108 H -0.08283 0.34350 0.30227
 H109 H -0.00012 0.24503 0.40215
 H110 H -0.00071 0.40234 0.24477
 C111 C 0.02888 0.62802 0.72477
 C112 C -0.00053 0.61632 0.73638
 C113 C -0.02998 0.62810 0.72476
 C114 C -0.03030 0.65255 0.70085
 C115 C -0.00050 0.66471 0.68887
 C116 C 0.02925 0.65238 0.70087
 C117 C 0.05846 0.66458 0.68855
 C118 C 0.05854 0.68840 0.66473
 C119 C 0.02940 0.70086 0.65242
 C120 C -0.00042 0.68900 0.66462
 C121 C -0.05944 0.66503 0.68848
 C122 C -0.05937 0.68890 0.66471
 C123 C -0.03015 0.70116 0.65239
 C124 C -0.02968 0.72515 0.62802
 C125 C -0.00016 0.73661 0.61632
 C126 C 0.02918 0.72478 0.62807
 H127 H 0.08154 0.65573 0.69722
 H128 H 0.08167 0.69696 0.65599
 H129 H -0.08258 0.65637 0.69710
 H130 H -0.08246 0.69765 0.65598
 H131 H -0.00043 0.59739 0.75462
 H132 H 0.00005 0.75487 0.59742
 C133 C 1.02957 0.72417 0.37159
 C134 C 1.00020 0.73576 0.38346
 C135 C 0.97074 0.72411 0.37190
 C136 C 0.97033 0.70019 0.34756
 C137 C 1.00007 0.68824 0.33519
 C138 C 1.02986 0.70028 0.34726
 C139 C 1.05901 0.68801 0.33484
 C140 C 1.05897 0.66419 0.31105
 C141 C 1.02976 0.65179 0.29882
 C142 C 1.00001 0.66399 0.31096
 C143 C 0.94112 0.68782 0.33541
 C144 C 0.94106 0.66401 0.31161
 C145 C 0.97020 0.65175 0.29914
 C146 C 0.97044 0.62741 0.27526
 C147 C 0.99978 0.61567 0.26346
 C148 C 1.02931 0.62738 0.27489
 H149 H 1.08212 0.69672 0.34349
 H150 H 1.08207 0.65550 0.30232
 H151 H 0.91805 0.69644 0.34428
 H152 H 0.91793 0.65522 0.30307
 H153 H 1.00029 0.75399 0.40235
 H154 H 0.99955 0.59677 0.24522
 C155 C 1.02998 0.27568 0.62807
 C156 C 1.00059 0.26415 0.61619
 C157 C 0.97115 0.27583 0.62779
 C158 C 0.97078 0.29970 0.65217
 C159 C 1.00055 0.31160 0.66454
 C160 C 1.03031 0.29954 0.65243
 C161 C 1.05949 0.31175 0.66485
 C162 C 1.05950 0.33554 0.68867
 C163 C 1.03032 0.34796 0.70094
 C164 C 1.00054 0.33581 0.68881
 C165 C 0.94160 0.31208 0.66437
 C166 C 0.94159 0.33585 0.68821
 C167 C 0.97075 0.34806 0.70068
 C168 C 0.97104 0.37236 0.72459
 C169 C 1.00040 0.38405 0.73639
 C170 C 1.02991 0.37233 0.72491
 H171 H 1.08259 0.30303 0.65616
 H172 H 1.08261 0.34419 0.69739
 H173 H 0.91852 0.30350 0.65550
 H174 H 0.91847 0.34465 0.69678
 H175 H 1.00063 0.24595 0.59728
 H176 H 1.00020 0.40293 0.75464
 C177 C 0.27494 -0.03059 0.37183
 C178 C 0.26337 -0.00110 0.38350
 C179 C 0.27498 0.02825 0.37164
 C180 C 0.29880 0.02854 0.34724
 C181 C 0.31074 -0.00124 0.33504
 C182 C 0.29878 -0.03099 0.34735
 C183 C 0.31111 -0.06017 0.33498
 C184 C 0.33482 -0.06017 0.31110
 C185 C 0.34713 -0.03099 0.29870
 C186 C 0.33493 -0.00123 0.31072
 C187 C 0.31109 0.05771 0.33490
 C188 C 0.33485 0.05771 0.31106
 C189 C 0.34712 0.02854 0.29872
 C190 C 0.37144 0.02825 0.27480
 C191 C 0.38315 -0.00113 0.26310
 C192 C 0.37146 -0.03059 0.27471
 H193 H 0.30250 -0.08328 0.34376
 H194 H 0.34353 -0.08328 0.30245
 H195 H 0.30246 0.08081 0.34365
 H196 H 0.34358 0.08081 0.30239
 H197 H 0.24520 -0.00092 0.40246
 H198 H 0.40204 -0.00098 0.24485
 C199 C 0.72529 -0.02957 0.62772
 C200 C 0.73684 -0.00010 0.61597
 C201 C 0.72510 0.02930 0.62761
 C202 C 0.70116 0.02965 0.65190
 C203 C 0.68922 -0.00010 0.66419
 C204 C 0.70130 -0.02990 0.65208
 C205 C 0.68895 -0.05904 0.66453
 C206 C 0.66511 -0.05896 0.68831
 C207 C 0.65275 -0.02976 0.70050
 C208 C 0.66493 -0.00004 0.68840
 C209 C 0.68875 0.05885 0.66408
 C210 C 0.66490 0.05890 0.68784
 C211 C 0.65263 0.02976 0.70027
 C212 C 0.62825 0.02947 0.72414
 C213 C 0.61658 0.00008 0.73586
 C214 C 0.62838 -0.02935 0.72438
 H215 H 0.69763 -0.08218 0.65591
 H216 H 0.65637 -0.08203 0.69706
 H217 H 0.69737 0.08192 0.65525
 H218 H 0.65608 0.08201 0.69640
 H219 H 0.75511 0.00003 0.59710
 H220 H 0.59768 0.00011 0.75407
 C221 C 0.27515 0.97108 0.62790
 C222 C 0.26354 1.00043 0.61598
 C223 C 0.27507 1.02992 0.62766
 C224 C 0.29887 1.03032 0.65222
 C225 C 0.31082 1.00056 0.66459
 C226 C 0.29892 0.97078 0.65238
 C227 C 0.31122 0.94161 0.66480
 C228 C 0.33493 0.94162 0.68872
 C229 C 0.34715 0.97080 0.70107
 C230 C 0.33495 1.00056 0.68898
 C231 C 0.31117 1.05950 0.66461
 C232 C 0.33485 1.05948 0.68857
 C233 C 0.34709 1.03031 0.70100
 C234 C 0.37134 1.02996 0.72503
 C235 C 0.38306 1.00056 0.73674
 C236 C 0.37143 0.97115 0.72508
 H237 H 0.30262 0.91851 0.65603
 H238 H 0.34367 0.91854 0.69746
 H239 H 0.30258 1.08261 0.65579
 H240 H 0.34356 1.08257 0.69726
 H241 H 0.24540 1.00025 0.59696
 H242 H 0.40191 1.00058 0.75504
 C243 C 0.72481 1.03007 0.37222
 C244 C 0.73643 1.00060 0.38394
 C245 C 0.72464 0.97121 0.37235
 C246 C 0.70058 0.97088 0.34815
 C247 C 0.68855 1.00064 0.33589
 C248 C 0.70069 1.03042 0.34795
 C249 C 0.68829 1.05957 0.33554
 C250 C 0.66433 1.05952 0.31185
 C251 C 0.65187 1.03033 0.29967
 C252 C 0.66414 1.00059 0.31176
 C253 C 0.68812 0.94169 0.33604
 C254 C 0.66416 0.94164 0.31236
 C255 C 0.65181 0.97078 0.29996
 C256 C 0.62732 0.97103 0.27617
 C257 C 0.61554 1.00039 0.26444
 C258 C 0.62734 1.02989 0.27584
 H259 H 0.69701 1.08270 0.34412
 H260 H 0.65557 1.08262 0.30314
 H261 H 0.69680 0.91861 0.34484
 H262 H 0.65532 0.91854 0.30385
 H263 H 0.75480 1.00045 0.40274
 H264 H 0.59654 1.00022 0.24627
 O265 O 0.82432 0.86874 0.53193
 O266 O 0.86871 0.82394 0.46962
 O267 O 0.82425 0.86851 0.46951
 O268 O 0.86880 0.82413 0.53204
 O269 O 0.83119 0.78616 0.53246
 O270 O 0.78616 0.83103 0.46944
 O271 O 0.83109 0.78599 0.46953
 O272 O 0.78625 0.83124 0.53236
 Cu273 Cu 0.85029 0.85009 0.50076
 Cu274 Cu 0.80482 0.80476 0.50097
 C275 C 0.79763 0.85792 0.54237
 C276 C 0.85774 0.79726 0.45931
 C277 C 0.79754 0.85762 0.45919
 C278 C 0.85788 0.79750 0.54252
 O279 O 0.13197 0.17602 0.46890
 O280 O 0.17666 0.13144 0.53118
 O281 O 0.13236 0.17611 0.53129
 O282 O 0.17637 0.13144 0.46879
 O283 O 0.21452 0.16887 0.46830
 O284 O 0.17003 0.21402 0.53132
 O285 O 0.21482 0.16886 0.53122
 O286 O 0.16964 0.21393 0.46840
 Cu287 Cu 0.15056 0.14999 0.50006
 Cu288 Cu 0.19612 0.19526 0.49979
 C289 C 0.14291 0.20264 0.45839
 C290 C 0.20341 0.14227 0.54146
 C291 C 0.14341 0.20274 0.54159
 C292 C 0.20302 0.14227 0.45826
 O293 O 0.17666 0.86808 0.46832
 O294 O 0.13205 0.82360 0.53063
 O295 O 0.17649 0.86807 0.53071
 O296 O 0.13229 0.82354 0.46824
 O297 O 0.16992 0.78553 0.46818
 O298 O 0.21460 0.83055 0.53116
 O299 O 0.16968 0.78559 0.53109
 O300 O 0.21477 0.83056 0.46824
 Cu301 Cu 0.15059 0.84959 0.49946
 Cu302 Cu 0.19611 0.80421 0.49969
 C303 C 0.20337 0.85718 0.45801
 C304 C 0.14298 0.79696 0.54112
 C305 C 0.20314 0.85718 0.54122
 C306 C 0.14328 0.79688 0.45793
 O307 O 0.86885 0.17627 0.53004
 O308 O 0.82422 0.13157 0.46780
 O309 O 0.86875 0.17607 0.46761
 O310 O 0.82435 0.13180 0.53021
 O311 O 0.78630 0.16937 0.53034
 O312 O 0.83119 0.21413 0.46725
 O313 O 0.78619 0.16916 0.46743
 O314 O 0.83126 0.21431 0.53018
 Cu315 Cu 0.85032 0.15016 0.49892
 Cu316 Cu 0.80489 0.19559 0.49878
 C317 C 0.85793 0.20296 0.54037
 C318 C 0.79751 0.14245 0.45739
 C319 C 0.85783 0.20272 0.45714
 C320 C 0.79769 0.14275 0.54058
 O321 O 0.46890 0.86853 0.82449
 O322 O 0.53138 0.82412 0.86908
 O323 O 0.53133 0.86843 0.82438
 O324 O 0.46896 0.82406 0.86904
 O325 O 0.46868 0.78596 0.83157
 O326 O 0.53156 0.83076 0.78647
 O327 O 0.53160 0.78599 0.83165
 O328 O 0.46862 0.83091 0.78655
 Cu329 Cu 0.50015 0.85007 0.85051
 Cu330 Cu 0.50011 0.80455 0.80522
 C331 C 0.45848 0.85758 0.79786
 C332 C 0.54177 0.79742 0.85826
 C333 C 0.54171 0.85743 0.79775
 C334 C 0.45856 0.79737 0.85819
 O335 O 0.53171 0.17578 0.13208
 O336 O 0.46910 0.13120 0.17615
 O337 O 0.46929 0.17585 0.13178
 O338 O 0.53153 0.13127 0.17658
 O339 O 0.53157 0.16876 0.21465
 O340 O 0.46882 0.21379 0.16940
 O341 O 0.46863 0.16866 0.21424
 O342 O 0.53175 0.21375 0.16968
 Cu343 Cu 0.50043 0.14976 0.15037
 Cu344 Cu 0.50017 0.19508 0.19585
 C345 C 0.54203 0.20243 0.14307
 C346 C 0.45856 0.14204 0.20277
 C347 C 0.45882 0.20249 0.14268
 C348 C 0.54178 0.14214 0.20332
 O349 O 0.53104 0.13212 0.82378
 O350 O 0.46898 0.17688 0.86859
 O351 O 0.46862 0.13247 0.82406
 O352 O 0.53141 0.17656 0.86829
 O353 O 0.53163 0.21466 0.83076
 O354 O 0.46834 0.17008 0.78604
 O355 O 0.46869 0.21496 0.83105
 O356 O 0.53127 0.16975 0.78578
 Cu357 Cu 0.50002 0.15073 0.84995
 Cu358 Cu 0.49998 0.19622 0.80456
 C359 C 0.54137 0.14303 0.79708
 C360 C 0.45862 0.20361 0.85773
 C361 C 0.45815 0.14347 0.79744
 C362 C 0.54185 0.20320 0.85735
 O363 O 0.46789 0.82345 0.13208
 O364 O 0.52998 0.86826 0.17680
 O365 O 0.53031 0.82377 0.13236
 O366 O 0.46756 0.86793 0.17655
 O367 O 0.46740 0.83039 0.21463
 O368 O 0.53065 0.78572 0.16994
 O369 O 0.53033 0.83069 0.21485
 O370 O 0.46771 0.78543 0.16968
 Cu371 Cu 0.49892 0.84962 0.15067
 Cu372 Cu 0.49903 0.80421 0.19613
 C373 C 0.45759 0.79674 0.14298
 C374 C 0.54038 0.85739 0.20351
 C375 C 0.54081 0.79715 0.14333
 C376 C 0.45716 0.85699 0.20319
 O377 O 0.82399 0.46986 0.86788
 O378 O 0.86847 0.53212 0.82322
 O379 O 0.82398 0.53225 0.86767
 O380 O 0.86834 0.46973 0.82334
 O381 O 0.83073 0.46946 0.78532
 O382 O 0.78589 0.53250 0.83012
 O383 O 0.83086 0.53238 0.78519
 O384 O 0.78589 0.46958 0.83034
 Cu385 Cu 0.84997 0.50100 0.84929
 Cu386 Cu 0.80448 0.50099 0.80389
 C387 C 0.79730 0.45946 0.85700
 C388 C 0.85754 0.54249 0.79653
 C389 C 0.79731 0.54265 0.85674
 C390 C 0.85737 0.45930 0.79671
 O391 O 0.13100 0.53170 0.17569
 O392 O 0.17580 0.46949 0.13116
 O393 O 0.13122 0.46929 0.17554
 O394 O 0.17571 0.53191 0.13137
 O395 O 0.21364 0.53209 0.16906
 O396 O 0.16869 0.46897 0.21370
 O397 O 0.21374 0.46917 0.16885
 O398 O 0.16846 0.53189 0.21385
 Cu399 Cu 0.14967 0.50061 0.14966
 Cu400 Cu 0.19497 0.50053 0.19523
 C401 C 0.14179 0.54201 0.20244
 C402 C 0.20247 0.45908 0.14214
 C403 C 0.14209 0.45882 0.20222
 C404 C 0.20234 0.54228 0.14239
 O405 O 0.82348 0.53036 0.13173
 O406 O 0.86810 0.46794 0.17618
 O407 O 0.82368 0.46797 0.13161
 O408 O 0.86784 0.53033 0.17631
 O409 O 0.83021 0.53037 0.21427
 O410 O 0.78555 0.46750 0.16906
 O411 O 0.83047 0.46745 0.21413
 O412 O 0.78537 0.53042 0.16920
 Cu413 Cu 0.84955 0.49916 0.15019
 Cu414 Cu 0.80403 0.49890 0.19551
 C415 C 0.79677 0.54069 0.14261
 C416 C 0.85718 0.45743 0.20280
 C417 C 0.79702 0.45748 0.14242
 C418 C 0.85683 0.54062 0.20297
 O419 O 0.17602 0.53033 0.86875
 O420 O 0.13142 0.46807 0.82411
 O421 O 0.17606 0.46791 0.86855
 O422 O 0.13152 0.53049 0.82421
 O423 O 0.16905 0.53082 0.78616
 O424 O 0.21406 0.46774 0.83097
 O425 O 0.16893 0.46789 0.78605
 O426 O 0.21402 0.53066 0.83117
 Cu427 Cu 0.14999 0.49919 0.85017
 Cu428 Cu 0.19536 0.49927 0.80474
 C429 C 0.20268 0.54075 0.85785
 C430 C 0.14227 0.45776 0.79740
 C431 C 0.20274 0.45755 0.85761
 C432 C 0.14241 0.54095 0.79756
 C433 C 0.26258 0.38673 0.05778
 C434 C 0.25047 0.40080 0.08024
 C435 C 0.23492 0.41931 0.10432
 C436 C 0.22059 0.43668 0.12282
 C437 C 0.73725 0.61366 0.05828
 C438 C 0.74921 0.59941 0.08074
 C439 C 0.76457 0.58074 0.10483
 C440 C 0.77875 0.56322 0.12333
 C441 C 0.73801 0.38697 0.94173
 C442 C 0.74990 0.40108 0.91918
 C443 C 0.76520 0.41961 0.89497
 C444 C 0.77933 0.43702 0.87638
 C445 C 0.26247 0.61315 0.94242
 C446 C 0.25044 0.59906 0.91991
 C447 C 0.23498 0.58054 0.89577
 C448 C 0.22073 0.56316 0.87722
 C449 C 0.05808 0.26224 0.38607
 C450 C 0.08066 0.25027 0.40012
 C451 C 0.10489 0.23488 0.41860
 C452 C 0.12351 0.22068 0.43597
 C453 C 0.05826 0.73753 0.61349
 C454 C 0.08082 0.74945 0.59943
 C455 C 0.10503 0.76479 0.58094
 C456 C 0.12362 0.77896 0.56356
 C457 C 0.94180 0.73706 0.38662
 C458 C 0.91941 0.74920 0.40080
 C459 C 0.89542 0.76479 0.41942
 C460 C 0.87699 0.77913 0.43685
 C461 C 0.94218 0.26294 0.61306
 C462 C 0.91976 0.25086 0.59887
 C463 C 0.89573 0.23533 0.58025
 C464 C 0.87725 0.22104 0.56281
 C465 C 0.38605 0.05728 0.26197
 C466 C 0.40012 0.07982 0.25004
 C467 C 0.41864 0.10404 0.23474
 C468 C 0.43606 0.12265 0.22064
 C469 C 0.61363 0.05849 0.73702
 C470 C 0.59954 0.08097 0.74911
 C471 C 0.58105 0.10509 0.76464
 C472 C 0.56371 0.12364 0.77896
 C473 C 0.38604 0.94215 0.73803
 C474 C 0.40011 0.91964 0.75009
 C475 C 0.41861 0.89547 0.76555
 C476 C 0.43601 0.87690 0.77980
 C477 C 0.61269 0.94199 0.26337
 C478 C 0.59860 0.91949 0.25134
 C479 C 0.58009 0.89536 0.23586
 C480 C 0.56274 0.87680 0.22159
 C481 C 0.38653 0.26343 0.94252
 C482 C 0.40052 0.25143 0.91994
 C483 C 0.41895 0.23597 0.89574
 C484 C 0.43628 0.22170 0.87715
 C485 C 0.61387 0.73789 0.94330
 C486 C 0.59993 0.74986 0.92066
 C487 C 0.58153 0.76524 0.89635
 C488 C 0.56419 0.77942 0.87769
 C489 C 0.38571 0.73672 0.05813
 C490 C 0.39963 0.74876 0.08075
 C491 C 0.41799 0.76428 0.10497
 C492 C 0.43527 0.77860 0.12357
 C493 C 0.61448 0.26228 0.05874
 C494 C 0.60044 0.25022 0.08124
 C495 C 0.58194 0.23475 0.10536
 C496 C 0.56452 0.22049 0.12386
 C497 C 0.26292 0.05737 0.61374
 C498 C 0.25101 0.08000 0.59972
 C499 C 0.23566 0.10427 0.58125
 C500 C 0.22147 0.12289 0.56388
 C501 C 0.73720 0.05754 0.38585
 C502 C 0.74937 0.08015 0.39966
 C503 C 0.76500 0.10439 0.41790
 C504 C 0.77937 0.12301 0.43511
 C505 C 0.73763 0.94295 0.61405
 C506 C 0.74973 0.92032 0.60021
 C507 C 0.76528 0.89606 0.58192
 C508 C 0.77958 0.87741 0.56469
 C509 C 0.26280 0.94197 0.38573
 C510 C 0.25091 0.91935 0.39974
 C511 C 0.23558 0.89511 0.41820
 C512 C 0.22140 0.87652 0.43558
 C513 C 0.05736 0.38605 0.73727
 C514 C 0.07997 0.39991 0.74938
 C515 C 0.10422 0.41821 0.76495
 C516 C 0.12285 0.43545 0.77927
 C517 C 0.05674 0.61364 0.26250
 C518 C 0.07936 0.59978 0.25038
 C519 C 0.10363 0.58150 0.23483
 C520 C 0.12229 0.56429 0.22053
 C521 C 0.94225 0.38543 0.26240
 C522 C 0.91957 0.39933 0.25044
 C523 C 0.89525 0.41769 0.23504
 C524 C 0.87659 0.43502 0.22083
 C525 C 0.94252 0.61436 0.73693
 C526 C 0.91985 0.60048 0.74885
 C527 C 0.89554 0.58214 0.76423
 C528 C 0.87691 0.56485 0.77845
 C529 C 0.73757 0.61452 0.94148
 C530 C 0.74962 0.60065 0.91889
 C531 C 0.76506 0.58235 0.89465
 C532 C 0.77929 0.56505 0.87606
 C533 C 0.26295 0.38583 0.94245
 C534 C 0.25082 0.39964 0.91981
 C535 C 0.23523 0.41791 0.89555
 C536 C 0.22087 0.43517 0.87695
 C537 C 0.26255 0.61406 0.05775
 C538 C 0.25041 0.60024 0.08035
 C539 C 0.23481 0.58195 0.10455
 C540 C 0.22046 0.56468 0.12311
 C541 C 0.73777 0.38591 0.05708
 C542 C 0.74968 0.39970 0.07980
 C543 C 0.76497 0.41792 0.10421
 C544 C 0.77909 0.43515 0.12295
 C545 C 0.94289 0.73755 0.61429
 C546 C 0.92025 0.74965 0.60044
 C547 C 0.89595 0.76516 0.58216
 C548 C 0.87730 0.77944 0.56490
 C549 C 0.94271 0.26244 0.38526
 C550 C 0.92009 0.25040 0.39912
 C551 C 0.89582 0.23496 0.41744
 C552 C 0.87720 0.22073 0.43473
 C553 C 0.05900 0.26270 0.61365
 C554 C 0.08154 0.25063 0.59973
 C555 C 0.10571 0.23513 0.58136
 C556 C 0.12422 0.22084 0.56402
 C557 C 0.05862 0.73711 0.38598
 C558 C 0.08121 0.74914 0.39988
 C559 C 0.10544 0.76458 0.41821
 C560 C 0.12402 0.77882 0.43552
 C561 C 0.61388 0.94169 0.73745
 C562 C 0.59989 0.91924 0.74965
 C563 C 0.58146 0.89517 0.76527
 C564 C 0.56412 0.87669 0.77963
 C565 C 0.38520 0.94194 0.26250
 C566 C 0.39905 0.91926 0.25060
 C567 C 0.41736 0.89493 0.23529
 C568 C 0.43469 0.87629 0.22115
 C569 C 0.61359 0.05732 0.26348
 C570 C 0.59971 0.07993 0.25138
 C571 C 0.58139 0.10417 0.23582
 C572 C 0.56412 0.12277 0.22147
 C573 C 0.38583 0.05896 0.73793
 C574 C 0.39981 0.08151 0.74993
 C575 C 0.41824 0.10570 0.76530
 C576 C 0.43563 0.12424 0.77948
 C577 C 0.61323 0.73799 0.05865
 C578 C 0.59922 0.74987 0.08124
 C579 C 0.58076 0.76513 0.10548
 C580 C 0.56334 0.77923 0.12406
 C581 C 0.38695 0.26262 0.05786
 C582 C 0.40088 0.25048 0.08041
 C583 C 0.41922 0.23491 0.10463
 C584 C 0.43649 0.22059 0.12325
 C585 C 0.61434 0.26246 0.94193
 C586 C 0.60030 0.25052 0.91939
 C587 C 0.58182 0.23521 0.89519
 C588 C 0.56439 0.22109 0.87663
 C589 C 0.38648 0.73743 0.94280
 C590 C 0.40047 0.74955 0.92030
 C591 C 0.41887 0.76508 0.89615
 C592 C 0.43618 0.77935 0.87758
 C593 C 0.73760 0.94220 0.38692
 C594 C 0.74969 0.91968 0.40094
 C595 C 0.76519 0.89551 0.41938
 C596 C 0.77947 0.87695 0.43675
 C597 C 0.26235 0.94203 0.61339
 C598 C 0.25044 0.91943 0.59943
 C599 C 0.23516 0.89517 0.58103
 C600 C 0.22105 0.87654 0.56367
 C601 C 0.26215 0.05729 0.38614
 C602 C 0.25023 0.07990 0.40009
 C603 C 0.23496 0.10419 0.41848
 C604 C 0.22087 0.12285 0.43582
 C605 C 0.73799 0.05830 0.61301
 C606 C 0.75001 0.08081 0.59895
 C607 C 0.76545 0.10495 0.58046
 C608 C 0.77967 0.12347 0.56306
 C609 C 0.94138 0.61287 0.26251
 C610 C 0.91879 0.59887 0.25060
 C611 C 0.89459 0.58043 0.23525
 C612 C 0.87605 0.56306 0.22104
 C613 C 0.94199 0.38692 0.73737
 C614 C 0.91943 0.40094 0.74929
 C615 C 0.89522 0.41941 0.76461
 C616 C 0.87666 0.43681 0.77876
 C617 C 0.05787 0.61341 0.73773
 C618 C 0.08037 0.59934 0.74982
 C619 C 0.10452 0.58084 0.76531
 C620 C 0.12307 0.56343 0.77956
 C621 C 0.05760 0.38631 0.26178
 C622 C 0.08009 0.40038 0.24975
 C623 C 0.10422 0.41890 0.23433
 C624 C 0.12276 0.43632 0.22015
   
