data_POSCAR
  _audit_creation_date              2014-09-24
  _audit_creation_method            'ToBaCCo'
  _symmetry_space_group_name_H-M    'P1'
  _symmetry_Int_Tables_number       1
  _symmetry_cell_setting            triclinic
  loop_
  _symmetry_equiv_pos_as_xyz
 x,y,z
_cell_length_a 40.0522
_cell_length_b 40.7566
_cell_length_c 58.0248
_cell_angle_alpha 89.994000
_cell_angle_beta 90.018000
_cell_angle_gamma 120.056600
loop_
  _atom_site_label
  _atom_site_type_symbol
  _atom_site_fract_x
  _atom_site_fract_y
  _atom_site_fract_z
C1 C 0.01817 0.51604 1.27098
 C2 C -0.02126 0.48640 1.27113
 C3 C -0.04002 0.47173 1.24989
 C4 C -0.02209 0.48697 1.22857
 C5 C 0.01698 0.51668 1.22864
 C6 C 0.03600 0.53122 1.24964
 H7 H 0.06644 0.55228 1.24913
 H8 H -0.07051 0.45086 1.25002
 C9 C 0.48538 0.50560 1.27193
 C10 C 0.50364 0.48328 1.27214
 C11 C 0.51358 0.47311 1.25121
 C12 C 0.50556 0.48398 1.22998
 C13 C 0.48669 0.50532 1.22959
 C14 C 0.47728 0.51616 1.25039
 H15 H 0.46229 0.53210 1.24962
 H16 H 0.52828 0.45684 1.25144
 C17 C 0.49907 0.98139 1.27216
 C18 C 0.50989 1.02063 1.27225
 C19 C 0.51420 1.03908 1.25096
 C20 C 0.50989 1.02058 1.22990
 C21 C 0.49971 0.98207 1.22982
 C22 C 0.49531 0.96331 1.25079
 H23 H 0.48553 0.93324 1.25027
 H24 H 0.52395 1.06915 1.25060
 C25 C 0.98189 0.48479 0.73040
 C26 C 1.02174 0.51158 0.73020
 C27 C 1.04149 0.52484 0.75115
 C28 C 1.02293 0.51120 0.77256
 C29 C 0.98276 0.48402 0.77255
 C30 C 0.96310 0.47110 0.75153
 H31 H 0.93225 0.45143 0.75165
 H32 H 1.07234 0.54429 0.75057
 C33 C 0.51405 0.49446 0.72877
 C34 C 0.48927 0.50984 0.72871
 C35 C 0.47703 0.51718 0.74976
 C36 C 0.48922 0.50995 0.77086
 C37 C 0.51394 0.49452 0.77091
 C38 C 0.52634 0.48735 0.74988
 H39 H 0.54463 0.47476 0.74995
 H40 H 0.45870 0.52972 0.74972
 C41 C 0.49788 0.01617 0.72909
 C42 C 0.48671 -0.02289 0.72888
 C43 C 0.48237 -0.04133 0.75017
 C44 C 0.48676 -0.02290 0.77147
 C45 C 0.49770 0.01609 0.77128
 C46 C 0.50266 0.03474 0.75020
 H47 H 0.51279 0.06492 0.75023
 H48 H 0.47176 -0.07156 0.75018
 O49 O 0.39387 0.65837 0.98133
 O50 O 0.39498 0.72203 0.97447
 C51 C 0.37792 0.74041 0.97016
 O52 O 0.34954 0.73677 0.98200
 O53 O 0.28477 0.67416 0.97493
 C54 C 0.26588 0.63901 0.97054
 O55 O 0.26955 0.61461 0.98224
 O56 O 0.33306 0.61356 0.97453
 C57 C 0.36872 0.63021 0.96981
 O58 O 0.39362 0.66925 1.02723
 O59 O 0.39799 0.73448 1.02052
 C60 C 0.37475 0.74068 1.03215
 O61 O 0.33898 0.72465 1.02779
 O62 O 0.27246 0.66386 1.02094
 C63 C 0.26639 0.63484 1.03251
 O64 O 0.28272 0.61586 1.02794
 O65 O 0.34431 0.61128 1.02031
 C66 C 0.37423 0.63413 1.03166
 Cr67 Cr 0.39302 0.69510 1.00090
 Cr68 Cr 0.31239 0.69874 1.00141
 Cr69 Cr 0.30856 0.61589 1.00126
 O70 O 0.33801 0.66992 1.00126
 O71 O 0.60716 0.33009 0.97325
 O72 O 0.60281 0.26488 0.97994
 C73 C 0.62636 0.25894 0.96846
 O74 O 0.66202 0.27499 0.97312
 O75 O 0.72822 0.33585 0.98047
 C76 C 0.73456 0.36514 0.96911
 O77 O 0.71812 0.38403 0.97368
 O78 O 0.65610 0.38807 0.98065
 C79 C 0.62661 0.36526 0.96895
 O80 O 0.60553 0.34024 1.01914
 O81 O 0.60459 0.27663 1.02597
 C82 C 0.62177 0.25841 1.03047
 O83 O 0.65052 0.26237 1.01888
 O84 O 0.71506 0.32494 1.02639
 C85 C 0.73367 0.36001 1.03105
 O86 O 0.72993 0.38451 1.01950
 O87 O 0.66605 0.38510 1.02658
 C88 C 0.63025 0.36821 1.03095
 Cr89 Cr 0.60713 0.30391 0.99958
 Cr90 Cr 0.68798 0.30065 0.99971
 Cr91 Cr 0.69141 0.38336 1.00009
 O92 O 0.66217 0.32930 0.99974
 O93 O 0.66970 0.38668 0.52702
 O94 O 0.73370 0.38642 0.52004
 C95 C 0.73793 0.36229 0.53169
 O96 O 0.71960 0.32715 0.52725
 O97 O 0.65515 0.26410 0.52072
 C98 C 0.62628 0.26011 0.53220
 O99 O 0.60888 0.27803 0.52748
 O100 O 0.60922 0.34122 0.52019
 C101 C 0.63401 0.36973 0.53162
 O102 O 0.65888 0.38830 0.48107
 O103 O 0.72120 0.38458 0.47421
 C104 C 0.73762 0.36566 0.46966
 O105 O 0.73162 0.33660 0.48117
 O106 O 0.66564 0.27521 0.47477
 C107 C 0.62996 0.25900 0.47021
 O108 O 0.60645 0.26512 0.48157
 O109 O 0.61039 0.32983 0.47438
 C110 C 0.62930 0.36484 0.46965
 Cr111 Cr 0.69474 0.38440 0.50059
 Cr112 Cr 0.69202 0.30188 0.50097
 Cr113 Cr 0.61085 0.30453 0.50091
 O114 O 0.66588 0.33026 0.50079
 O115 O 0.33015 0.61267 0.52618
 O116 O 0.26623 0.61295 0.51861
 C117 C 0.26218 0.63720 0.53023
 O118 O 0.28070 0.67233 0.52577
 O119 O 0.34526 0.73525 0.51888
 C120 C 0.37382 0.73908 0.53065
 O121 O 0.39112 0.72094 0.52623
 O122 O 0.39071 0.65764 0.51904
 C123 C 0.36588 0.62949 0.53069
 O124 O 0.34138 0.61046 0.48036
 O125 O 0.27919 0.61428 0.47289
 C126 C 0.26277 0.63317 0.46822
 O127 O 0.26858 0.66216 0.47973
 O128 O 0.33464 0.72336 0.47301
 C129 C 0.37039 0.73961 0.46863
 O130 O 0.39380 0.73372 0.48029
 O131 O 0.38963 0.66885 0.47318
 C132 C 0.37071 0.63373 0.46872
 Cr133 Cr 0.30535 0.61465 0.49950
 Cr134 Cr 0.30825 0.69717 0.49936
 Cr135 Cr 0.38924 0.69433 0.49969
 O136 O 0.33427 0.66873 0.49949
 C137 C 0.45258 0.54167 0.33232
 C138 C 0.46923 0.56616 0.31347
 C139 C 0.47976 0.55411 0.29370
 C140 C 0.47466 0.51734 0.29226
 C141 C 0.45765 0.49273 0.31117
 C142 C 0.44675 0.50475 0.33092
 C143 C 0.44114 0.55474 0.35312
 N144 N 0.41889 0.52995 0.36977
 N145 N 0.40824 0.54192 0.38824
 C146 C 0.41952 0.57920 0.39085
 N147 N 0.44188 0.60393 0.37425
 N148 N 0.45240 0.59196 0.35578
 C149 C 0.40748 0.59278 0.41117
 C150 C 0.42395 0.63184 0.41527
 C151 C 0.41226 0.64498 0.43407
 C152 C 0.38361 0.61940 0.44918
 C153 C 0.36719 0.58028 0.44518
 C154 C 0.37913 0.56711 0.42642
 H155 H 0.47405 0.59478 0.31390
 H156 H 0.49318 0.57424 0.27977
 H157 H 0.45122 0.46362 0.31045
 H158 H 0.43361 0.48502 0.34505
 H159 H 0.44594 0.65243 0.40394
 H160 H 0.42546 0.67530 0.43658
 H161 H 0.34508 0.55983 0.45652
 H162 H 0.36580 0.53683 0.42373
 C163 C 0.46370 0.91213 0.33221
 C164 C 0.45298 0.93976 0.32894
 C165 C 0.46480 0.96270 0.30931
 C166 C 0.48768 0.95865 0.29234
 C167 C 0.49769 0.93035 0.29553
 C168 C 0.48626 0.90775 0.31531
 C169 C 0.45091 0.88767 0.35297
 N170 N 0.46758 0.86691 0.35889
 N171 N 0.45577 0.84463 0.37744
 C172 C 0.42665 0.84204 0.39076
 N173 N 0.41001 0.86282 0.38483
 N174 N 0.42196 0.88524 0.36637
 C175 C 0.41284 0.81660 0.41107
 C176 C 0.37702 0.80640 0.42112
 C177 C 0.36336 0.78155 0.43985
 C178 C 0.38544 0.76672 0.44917
 C179 C 0.42155 0.77736 0.43937
 C180 C 0.43499 0.80184 0.42041
 H181 H 0.43535 0.94368 0.34154
 H182 H 0.45494 0.98286 0.30715
 H183 H 0.51551 0.92642 0.28305
 H184 H 0.49485 0.88659 0.31726
 H185 H 0.35918 0.81716 0.41430
 H186 H 0.33546 0.77398 0.44705
 H187 H 0.43914 0.76625 0.44609
 H188 H 0.46277 0.80925 0.41311
 C189 C 0.08893 0.55125 0.33094
 C190 C 0.06161 0.51286 0.32745
 C191 C 0.03825 0.50130 0.30785
 C192 C 0.04152 0.52783 0.29109
 C193 C 0.06958 0.56624 0.29446
 C194 C 0.09262 0.57781 0.31424
 C195 C 0.11373 0.56337 0.35174
 N196 N 0.13422 0.60051 0.35783
 N197 N 0.15671 0.61134 0.37646
 C198 C 0.15979 0.58550 0.38971
 N199 N 0.13929 0.54837 0.38361
 N200 N 0.11667 0.53752 0.36506
 C201 C 0.18540 0.59752 0.41015
 C202 C 0.19595 0.57272 0.42031
 C203 C 0.22091 0.58427 0.43919
 C204 C 0.23552 0.62072 0.44857
 C205 C 0.22453 0.64536 0.43866
 C206 C 0.19992 0.63397 0.41956
 H207 H 0.05822 0.49160 0.33989
 H208 H 0.01835 0.47130 0.30552
 H209 H 0.07291 0.58768 0.28217
 H210 H 0.11354 0.60761 0.31636
 H211 H 0.18537 0.54450 0.41345
 H212 H 0.22874 0.56457 0.44647
 H213 H 0.23545 0.67369 0.44543
 H214 H 0.19223 0.65370 0.41219
 C215 C 0.54009 0.45075 0.33353
 C216 C 0.51433 0.42329 0.31793
 C217 C 0.50252 0.43404 0.29812
 C218 C 0.51583 0.47241 0.29356
 C219 C 0.54151 0.50001 0.30904
 C220 C 0.55353 0.48927 0.32888
 C221 C 0.55301 0.43897 0.35430
 N222 N 0.58094 0.46494 0.36833
 N223 N 0.59280 0.45396 0.38673
 C224 C 0.57716 0.41657 0.39188
 N225 N 0.54917 0.39072 0.37789
 N226 N 0.53738 0.40166 0.35951
 C227 C 0.59041 0.40392 0.41211
 C228 C 0.57202 0.36525 0.41785
 C229 C 0.58456 0.35281 0.43657
 C230 C 0.61592 0.37867 0.45007
 C231 C 0.63430 0.41743 0.44445
 C232 C 0.62163 0.42993 0.42569
 H233 H 0.50347 0.39340 0.32089
 H234 H 0.48279 0.41238 0.28632
 H235 H 0.55240 0.52980 0.30566
 H236 H 0.57339 0.51113 0.34052
 H237 H 0.54786 0.34438 0.40784
 H238 H 0.56971 0.32275 0.44034
 H239 H 0.65855 0.43809 0.45450
 H240 H 0.63647 0.45992 0.42172
 C241 C 0.54206 0.08822 0.33299
 C242 C 0.55309 0.06079 0.32986
 C243 C 0.54238 0.03844 0.30999
 C244 C 0.52035 0.04290 0.29262
 C245 C 0.51004 0.07103 0.29566
 C246 C 0.52036 0.09303 0.31568
 C247 C 0.55366 0.11207 0.35400
 N248 N 0.53676 0.13277 0.35957
 N249 N 0.54763 0.15460 0.37831
 C250 C 0.57598 0.15679 0.39221
 N251 N 0.59282 0.13604 0.38665
 N252 N 0.58182 0.11407 0.36799
 C253 C 0.58897 0.18193 0.41266
 C254 C 0.62429 0.19178 0.42331
 C255 C 0.63738 0.21656 0.44207
 C256 C 0.61523 0.23170 0.45084
 C257 C 0.57955 0.22131 0.44050
 C258 C 0.56667 0.19688 0.42151
 H259 H 0.57008 0.05656 0.34278
 H260 H 0.55241 0.01838 0.30798
 H261 H 0.49280 0.07523 0.28290
 H262 H 0.51155 0.11406 0.31750
 H263 H 0.64222 0.18086 0.41690
 H264 H 0.66495 0.22392 0.44969
 H265 H 0.56192 0.23266 0.44681
 H266 H 0.53926 0.18973 0.41374
 C267 C 0.91040 0.44968 0.33202
 C268 C 0.90612 0.42350 0.31489
 C269 C 0.92840 0.43556 0.29482
 C270 C 0.95626 0.47407 0.29157
 C271 C 0.96020 0.50018 0.30880
 C272 C 0.93761 0.48815 0.32870
 C273 C 0.88618 0.43714 0.35305
 N274 N 0.88383 0.46277 0.36689
 N275 N 0.86155 0.45159 0.38558
 C276 C 0.84081 0.41432 0.39130
 N277 N 0.84334 0.38867 0.37755
 N278 N 0.86549 0.39984 0.35879
 C279 C 0.81533 0.40198 0.41179
 C280 C 0.80037 0.36523 0.42082
 C281 C 0.77570 0.35358 0.43991
 C282 C 0.76508 0.37827 0.45014
 C283 C 0.78021 0.41504 0.44117
 C284 C 0.80522 0.42683 0.42232
 H285 H 0.88528 0.39366 0.31687
 H286 H 0.92462 0.41442 0.28218
 H287 H 0.97998 0.53024 0.30663
 H288 H 0.94144 0.50912 0.34148
 H289 H 0.80773 0.34546 0.41315
 H290 H 0.76438 0.32502 0.44638
 H291 H 0.77271 0.43480 0.44871
 H292 H 0.81613 0.45529 0.41578
 C293 C 0.54166 0.45192 1.16830
 C294 C 0.50247 0.44013 1.17182
 C295 C 0.49061 0.45059 1.19181
 C296 C 0.51770 0.47301 1.20861
 C297 C 0.55673 0.48473 1.20518
 C298 C 0.56864 0.47445 1.18520
 C299 C 0.55443 0.44050 1.14732
 N300 N 0.59255 0.45442 1.14315
 N301 N 0.60417 0.44379 1.12455
 C302 C 0.57819 0.41873 1.10930
 N303 N 0.54003 0.40486 1.11342
 N304 N 0.52840 0.41555 1.13202
 C305 C 0.59129 0.40640 1.08886
 C306 C 0.56456 0.37769 1.07427
 C307 C 0.57713 0.36545 1.05538
 C308 C 0.61672 0.38177 1.05058
 C309 C 0.64340 0.41077 1.06503
 C310 C 0.63084 0.42289 1.08395
 H311 H 0.48093 0.42276 1.15917
 H312 H 0.46027 0.44096 1.19428
 H313 H 0.57804 0.50207 1.21797
 H314 H 0.59901 0.48397 1.18311
 H315 H 0.53389 0.36435 1.07755
 H316 H 0.55580 0.34306 1.04460
 H317 H 0.67410 0.42395 1.06189
 H318 H 0.65225 0.44512 1.09477
 C319 C 0.90935 0.44806 1.16773
 C320 C 0.90500 0.42257 1.18535
 C321 C 0.92763 0.43529 1.20526
 C322 C 0.95575 0.47385 1.20802
 C323 C 0.95988 0.49923 1.19024
 C324 C 0.93712 0.48651 1.17041
 C325 C 0.88450 0.43483 1.14692
 N326 N 0.88582 0.46001 1.13109
 N327 N 0.86295 0.44826 1.11264
 C328 C 0.83782 0.41079 1.10919
 N329 N 0.83662 0.38558 1.12496
 N330 N 0.85944 0.39735 1.14344
 C331 C 0.81184 0.39779 1.08888
 C332 C 0.78817 0.35891 1.08427
 C333 C 0.76314 0.34667 1.06538
 C334 C 0.76104 0.37302 1.05069
 C335 C 0.78486 0.41191 1.05522
 C336 C 0.81003 0.42414 1.07404
 H337 H 0.88388 0.39272 1.18386
 H338 H 0.92371 0.41455 1.21824
 H339 H 0.97949 0.52938 1.19200
 H340 H 0.94100 0.50704 1.15730
 H341 H 0.78886 0.33783 1.09530
 H342 H 0.74515 0.31650 1.06244
 H343 H 0.78400 0.43298 1.04425
 H344 H 0.82779 0.45431 1.07707
 C345 C 0.53821 0.08717 1.16775
 C346 C 0.51090 0.08641 1.18333
 C347 C 0.50151 0.06461 1.20343
 C348 C 0.51901 0.04296 1.20828
 C349 C 0.54619 0.04360 1.19275
 C350 C 0.55561 0.06536 1.17268
 C351 C 0.54910 0.11109 1.14674
 N352 N 0.57674 0.11312 1.13228
 N353 N 0.58717 0.13520 1.11368
 C354 C 0.57040 0.15621 1.10869
 N355 N 0.54262 0.15406 1.12309
 N356 N 0.53220 0.13199 1.14171
 C357 C 0.58271 0.18148 1.08825
 C358 C 0.56484 0.20269 1.08284
 C359 C 0.57718 0.22728 1.06395
 C360 C 0.60773 0.23130 1.05001
 C361 C 0.62533 0.20980 1.05528
 C362 C 0.61294 0.18517 1.07414
 H363 H 0.49696 0.10287 1.18011
 H364 H 0.48049 0.06455 1.21520
 H365 H 0.56051 0.02758 1.19632
 H366 H 0.57682 0.06531 1.16114
 H367 H 0.54144 0.20054 1.09330
 H368 H 0.56299 0.24342 1.06042
 H369 H 0.64894 0.21218 1.04492
 H370 H 0.62737 0.16928 1.07777
 C371 C 0.45522 0.53928 1.16695
 C372 C 0.42680 0.51419 1.18238
 C373 C 0.43721 0.50320 1.20268
 C374 C 0.47614 0.51662 1.20778
 C375 C 0.50464 0.54126 1.19234
 C376 C 0.49428 0.55263 1.17211
 C377 C 0.44403 0.55203 1.14592
 N378 N 0.47053 0.58255 1.13380
 N379 N 0.46010 0.59475 1.11536
 C380 C 0.42278 0.57685 1.10820
 N381 N 0.39638 0.54615 1.12020
 N382 N 0.40676 0.53406 1.13869
 C383 C 0.41088 0.59102 1.08811
 C384 C 0.37421 0.56883 1.07818
 C385 C 0.36252 0.58261 1.05965
 C386 C 0.38711 0.61904 1.05078
 C387 C 0.42387 0.64115 1.06062
 C388 C 0.43571 0.62721 1.07899
 H389 H 0.39649 0.50349 1.17899
 H390 H 0.41488 0.48414 1.21444
 H391 H 0.53486 0.55201 1.19610
 H392 H 0.51684 0.57189 1.16055
 H393 H 0.35443 0.54078 1.08475
 H394 H 0.33398 0.56491 1.05251
 H395 H 0.44355 0.66930 1.05414
 H396 H 0.46410 0.64508 1.08628
 C397 C 0.08795 0.55235 1.16772
 C398 C 0.08544 0.57913 1.18180
 C399 C 0.06230 0.56759 1.20155
 C400 C 0.04084 0.52904 1.20739
 C401 C 0.04318 0.50226 1.19333
 C402 C 0.06647 0.51376 1.17370
 C403 C 0.11333 0.56450 1.14716
 N404 N 0.12077 0.53964 1.13590
 N405 N 0.14411 0.55058 1.11768
 C406 C 0.16093 0.58682 1.10987
 N407 N 0.15335 0.61167 1.12105
 N408 N 0.13010 0.60075 1.13934
 C409 C 0.18739 0.59901 1.08982
 C410 C 0.20012 0.63447 1.07938
 C411 C 0.22542 0.64598 1.06062
 C412 C 0.23882 0.62241 1.05201
 C413 C 0.22604 0.58695 1.06243
 C414 C 0.20051 0.57533 1.08103
 H415 H 0.10171 0.60906 1.17775
 H416 H 0.06097 0.58868 1.21224
 H417 H 0.02724 0.47242 1.19770
 H418 H 0.06770 0.49238 1.16326
 H419 H 0.19051 0.65337 1.08569
 H420 H 0.23483 0.67353 1.05303
 H421 H 0.23573 0.56807 1.05621
 H422 H 0.19139 0.54788 1.08868
 C423 C 0.46835 0.91514 1.16780
 C424 C 0.45057 0.93628 1.17359
 C425 C 0.46115 0.95831 1.19356
 C426 C 0.48975 0.95973 1.20818
 C427 C 0.50768 0.93878 1.20248
 C428 C 0.49726 0.91686 1.18239
 C429 C 0.45596 0.89074 1.14699
 N430 N 0.47583 0.87383 1.13949
 N431 N 0.46401 0.85127 1.12106
 C432 C 0.43175 0.84457 1.10941
 N433 N 0.41200 0.86157 1.11688
 N434 N 0.42387 0.88420 1.13524
 C435 C 0.41779 0.81867 1.08929
 C436 C 0.38081 0.80632 1.08024
 C437 C 0.36702 0.78117 1.06167
 C438 C 0.38998 0.76800 1.05153
 C439 C 0.42717 0.78070 1.06036
 C440 C 0.44086 0.80562 1.07912
 H441 H 0.42823 0.93567 1.16277
 H442 H 0.44660 0.97388 1.19781
 H443 H 0.52975 0.93946 1.21359
 H444 H 0.51145 0.90084 1.17848
 H445 H 0.36221 0.81569 1.08767
 H446 H 0.33827 0.77206 1.05527
 H447 H 0.44553 0.77097 1.05298
 H448 H 0.46952 0.81465 1.08564
 C449 C 0.54904 0.46118 0.66706
 C450 C 0.50972 0.44733 0.67166
 C451 C 0.49835 0.45846 0.69156
 C452 C 0.52603 0.48371 0.70721
 C453 C 0.56526 0.49770 0.70265
 C454 C 0.57668 0.48669 0.68274
 C455 C 0.56120 0.44856 0.64633
 N456 N 0.59919 0.46342 0.64131
 N457 N 0.61024 0.45158 0.62299
 C458 C 0.58381 0.42432 0.60890
 N459 N 0.54579 0.40953 0.61387
 N460 N 0.53472 0.42141 0.63219
 C461 C 0.59633 0.41072 0.58879
 C462 C 0.56931 0.38051 0.57514
 C463 C 0.58142 0.36727 0.55651
 C464 C 0.62081 0.38403 0.55105
 C465 C 0.64775 0.41443 0.56459
 C466 C 0.63567 0.42757 0.58322
 H467 H 0.48767 0.42764 0.66000
 H468 H 0.46789 0.44694 0.69493
 H469 H 0.58705 0.51718 0.71454
 H470 H 0.60718 0.49790 0.67978
 H471 H 0.53878 0.36684 0.57895
 H472 H 0.55990 0.34380 0.54645
 H473 H 0.67833 0.42801 0.56093
 H474 H 0.65730 0.45091 0.59330
 C475 C 0.53430 0.08643 0.66836
 C476 C 0.50596 0.08572 0.68303
 C477 C 0.49407 0.06282 0.70268
 C478 C 0.51000 0.03992 0.70796
 C479 C 0.53834 0.04061 0.69341
 C480 C 0.55030 0.06354 0.67378
 C481 C 0.54737 0.11125 0.64773
 N482 N 0.57614 0.11361 0.63416
 N483 N 0.58818 0.13631 0.61581
 C484 C 0.57193 0.15759 0.61023
 N485 N 0.54309 0.15512 0.62377
 N486 N 0.53109 0.13247 0.64212
 C487 C 0.58556 0.18326 0.58999
 C488 C 0.56776 0.20430 0.58402
 C489 C 0.58083 0.22895 0.56521
 C490 C 0.61208 0.23327 0.55186
 C491 C 0.62980 0.21211 0.55774
 C492 C 0.61666 0.18735 0.57657
 H493 H 0.49306 0.10301 0.67943
 H494 H 0.47225 0.06276 0.71372
 H495 H 0.55140 0.02356 0.69737
 H496 H 0.57223 0.06344 0.66292
 H497 H 0.54372 0.20186 0.59393
 H498 H 0.56649 0.24482 0.56122
 H499 H 0.65396 0.21476 0.54784
 H500 H 0.63107 0.17161 0.58068
 C501 C 0.91298 0.44872 0.66865
 C502 C 0.93633 0.48751 0.67370
 C503 C 0.95886 0.49919 0.69367
 C504 C 0.95866 0.47238 0.70894
 C505 C 0.93542 0.43368 0.70398
 C506 C 0.91291 0.42194 0.68400
 C507 C 0.88837 0.43625 0.64774
 N508 N 0.86680 0.39887 0.64242
 N509 N 0.84418 0.38759 0.62386
 C510 C 0.84209 0.41318 0.60983
 N511 N 0.86375 0.45059 0.61510
 N512 N 0.88642 0.46188 0.63365
 C513 C 0.81626 0.40045 0.58944
 C514 C 0.81218 0.42665 0.57568
 C515 C 0.78704 0.41438 0.55682
 C516 C 0.76547 0.37564 0.55125
 C517 C 0.76987 0.34953 0.56488
 C518 C 0.79492 0.36177 0.58374
 H519 H 0.93705 0.50890 0.66232
 H520 H 0.97618 0.52921 0.69734
 H521 H 0.93483 0.41255 0.71556
 H522 H 0.89525 0.39185 0.68069
 H523 H 0.82816 0.45665 0.57957
 H524 H 0.78434 0.43526 0.54669
 H525 H 0.75371 0.31947 0.56113
 H526 H 0.79735 0.34079 0.59391
 C527 C 0.45300 0.54126 0.66674
 C528 C 0.42570 0.51620 0.68272
 C529 C 0.43754 0.50581 0.70271
 C530 C 0.47686 0.51997 0.70707
 C531 C 0.50421 0.54476 0.69111
 C532 C 0.49241 0.55527 0.67113
 C533 C 0.44039 0.55326 0.64592
 N534 N 0.46659 0.57991 0.63143
 N535 N 0.45515 0.59128 0.61304
 C536 C 0.41704 0.57646 0.60834
 N537 N 0.39088 0.54970 0.62277
 N538 N 0.40230 0.53837 0.64117
 C539 C 0.40416 0.58958 0.58814
 C540 C 0.36472 0.57283 0.58284
 C541 C 0.35240 0.58559 0.56412
 C542 C 0.37920 0.61550 0.55023
 C543 C 0.41869 0.63213 0.55543
 C544 C 0.43103 0.61928 0.57414
 H545 H 0.39513 0.50488 0.67993
 H546 H 0.41600 0.48666 0.71483
 H547 H 0.53474 0.55639 0.69430
 H548 H 0.51422 0.57462 0.65922
 H549 H 0.34321 0.54988 0.59321
 H550 H 0.32176 0.57214 0.56065
 H551 H 0.44011 0.65522 0.54509
 H552 H 0.46163 0.63286 0.57773
 C553 C 0.45794 0.91062 0.66773
 C554 C 0.44783 0.93883 0.67017
 C555 C 0.45759 0.96095 0.69012
 C556 C 0.47789 0.95562 0.70824
 C557 C 0.48770 0.92705 0.70572
 C558 C 0.47814 0.90513 0.68570
 C559 C 0.44678 0.88650 0.64681
 N560 N 0.45947 0.86157 0.64349
 N561 N 0.44887 0.83938 0.62493
 C562 C 0.42505 0.84108 0.60891
 N563 N 0.41244 0.86608 0.61219
 N564 N 0.42312 0.88835 0.63073
 C565 C 0.41261 0.81574 0.58852
 C566 C 0.38424 0.81402 0.57348
 C567 C 0.37180 0.78934 0.55463
 C568 C 0.38761 0.76597 0.55028
 C569 C 0.41631 0.76802 0.56517
 C570 C 0.42858 0.79254 0.58408
 H571 H 0.43192 0.94359 0.65677
 H572 H 0.44760 0.98108 0.69167
 H573 H 0.50381 0.92224 0.71897
 H574 H 0.48641 0.88364 0.68442
 H575 H 0.37127 0.83145 0.57639
 H576 H 0.34967 0.78850 0.54350
 H577 H 0.42906 0.75038 0.56238
 H578 H 0.45055 0.79318 0.59526
 C579 C 0.08844 0.54910 0.66767
 C580 C 0.06514 0.51020 0.67244
 C581 C 0.04326 0.49805 0.69263
 C582 C 0.04406 0.52450 0.70843
 C583 C 0.06716 0.56333 0.70373
 C584 C 0.08903 0.57553 0.68352
 C585 C 0.11257 0.56200 0.64658
 N586 N 0.13433 0.59950 0.64160
 N587 N 0.15668 0.61112 0.62293
 C588 C 0.15827 0.58575 0.60845
 N589 N 0.13639 0.54824 0.61338
 N590 N 0.11401 0.53662 0.63204
 C591 C 0.18392 0.59876 0.58799
 C592 C 0.18753 0.57263 0.57390
 C593 C 0.21260 0.58503 0.55503
 C594 C 0.23460 0.62386 0.54976
 C595 C 0.23062 0.64993 0.56369
 C596 C 0.20562 0.63754 0.58257
 H597 H 0.06402 0.48905 0.66067
 H598 H 0.02605 0.46795 0.69608
 H599 H 0.06819 0.58419 0.71572
 H600 H 0.10665 0.60569 0.68044
 H601 H 0.17127 0.54255 0.57755
 H602 H 0.21494 0.56417 0.54468
 H603 H 0.24713 0.68005 0.56016
 H604 H 0.20354 0.65846 0.59301
 C605 C 0.45342 0.54167 0.83287
 C606 C 0.49278 0.55553 0.82842
 C607 C 0.50439 0.54496 0.80840
 C608 C 0.47692 0.52025 0.79246
 C609 C 0.43765 0.50629 0.79685
 C610 C 0.42598 0.51675 0.81689
 C611 C 0.44106 0.55370 0.85377
 N612 N 0.40303 0.53904 0.85862
 N613 N 0.39189 0.55037 0.87713
 C614 C 0.41828 0.57690 0.89159
 N615 N 0.45632 0.59148 0.88679
 N616 N 0.46747 0.58010 0.86829
 C617 C 0.40577 0.59004 0.91194
 C618 C 0.43293 0.61954 0.92593
 C619 C 0.42098 0.63245 0.94478
 C620 C 0.38159 0.61607 0.95014
 C621 C 0.35447 0.58635 0.93626
 C622 C 0.36640 0.57353 0.91739
 H623 H 0.51469 0.57478 0.84031
 H624 H 0.53489 0.55646 0.80518
 H625 H 0.41601 0.48721 0.78476
 H626 H 0.39544 0.50556 0.81973
 H627 H 0.46348 0.63293 0.92223
 H628 H 0.44265 0.65539 0.95510
 H629 H 0.32388 0.57310 0.93985
 H630 H 0.34467 0.55073 0.90703
 C631 C 0.09128 0.54960 0.83346
 C632 C 0.06209 0.51155 0.83126
 C633 C 0.03944 0.49890 0.81137
 C634 C 0.04519 0.52398 0.79307
 C635 C 0.07488 0.56204 0.79530
 C636 C 0.09733 0.57470 0.81526
 C637 C 0.11579 0.56292 0.85440
 N638 N 0.14157 0.60032 0.85750
 N639 N 0.16407 0.61224 0.87610
 C640 C 0.16184 0.58728 0.89238
 N641 N 0.13599 0.54988 0.88932
 N642 N 0.11341 0.53797 0.87074
 C643 C 0.18757 0.60049 0.91280
 C644 C 0.18885 0.57433 0.92804
 C645 C 0.21400 0.58680 0.94688
 C646 C 0.23829 0.62575 0.95101
 C647 C 0.23661 0.65192 0.93596
 C648 C 0.21162 0.63944 0.91705
 H649 H 0.05692 0.49131 0.84484
 H650 H 0.01854 0.46899 0.81001
 H651 H 0.08011 0.58255 0.78189
 H652 H 0.11961 0.60422 0.81634
 H653 H 0.17077 0.54412 0.92529
 H654 H 0.21453 0.56587 0.95813
 H655 H 0.25497 0.68213 0.93859
 H656 H 0.21132 0.66039 0.90571
 C657 C 0.45946 0.91100 0.83272
 C658 C 0.44889 0.93888 0.83033
 C659 C 0.45810 0.96082 0.81034
 C660 C 0.47833 0.95567 0.79212
 C661 C 0.48855 0.92738 0.79457
 C662 C 0.47953 0.90561 0.81464
 C663 C 0.44889 0.88711 0.85372
 N664 N 0.46175 0.86229 0.85693
 N665 N 0.45164 0.84029 0.87557
 C666 C 0.42816 0.84210 0.89178
 N667 N 0.41540 0.86700 0.88861
 N668 N 0.42558 0.88906 0.87000
 C669 C 0.41615 0.81694 0.91224
 C670 C 0.38815 0.81545 0.92749
 C671 C 0.37597 0.79086 0.94638
 C672 C 0.39167 0.76734 0.95055
 C673 C 0.42004 0.76920 0.93548
 C674 C 0.43207 0.79363 0.91652
 H675 H 0.43303 0.94353 0.84382
 H676 H 0.44773 0.98066 0.80883
 H677 H 0.50460 0.92268 0.78122
 H678 H 0.48812 0.88436 0.81587
 H679 H 0.37524 0.83296 0.92471
 H680 H 0.35409 0.79018 0.95765
 H681 H 0.43269 0.75143 0.93814
 H682 H 0.45376 0.79411 0.90518
 C683 C 0.54725 0.46061 0.83299
 C684 C 0.57538 0.48719 0.81798
 C685 C 0.56453 0.49831 0.79785
 C686 C 0.52542 0.48350 0.79254
 C687 C 0.49727 0.45727 0.80757
 C688 C 0.50805 0.44588 0.82758
 C689 C 0.55866 0.44765 0.85387
 N690 N 0.53229 0.41670 0.86571
 N691 N 0.54267 0.40442 0.88413
 C692 C 0.57983 0.42266 0.89157
 N693 N 0.60616 0.45377 0.87982
 N694 N 0.59581 0.46596 0.86133
 C695 C 0.59149 0.40845 0.91176
 C696 C 0.62786 0.43069 0.92204
 C697 C 0.63906 0.41691 0.94082
 C698 C 0.61430 0.38042 0.94957
 C699 C 0.57788 0.35824 0.93933
 C700 C 0.56653 0.37217 0.92073
 H701 H 0.60580 0.49898 0.82158
 H702 H 0.58665 0.51854 0.78642
 H703 H 0.46691 0.44524 0.80362
 H704 H 0.48566 0.42542 0.83877
 H705 H 0.64772 0.45880 0.91559
 H706 H 0.66736 0.43465 0.94826
 H707 H 0.55808 0.33004 0.94570
 H708 H 0.53836 0.35424 0.91319
 C709 C 0.91273 0.44897 0.83381
 C710 C 0.91367 0.42198 0.81913
 C711 C 0.93645 0.43340 0.79926
 C712 C 0.95915 0.47201 0.79387
 C713 C 0.95838 0.49904 0.80849
 C714 C 0.93539 0.48765 0.82826
 C715 C 0.88774 0.43685 0.85454
 N716 N 0.88124 0.46191 0.86632
 N717 N 0.85813 0.45090 0.88465
 C718 C 0.84063 0.41438 0.89204
 N719 N 0.84730 0.38936 0.88035
 N720 N 0.87031 0.40034 0.86196
 C721 C 0.81426 0.40202 0.91215
 C722 C 0.80105 0.36619 0.92218
 C723 C 0.77560 0.35437 0.94087
 C724 C 0.76251 0.37799 0.94981
 C725 C 0.77586 0.41387 0.93983
 C726 C 0.80156 0.42581 0.92131
 H727 H 0.89645 0.39197 0.82283
 H728 H 0.93658 0.41213 0.78813
 H729 H 0.97538 0.52896 0.80446
 H730 H 0.93536 0.50918 0.83918
 H731 H 0.81035 0.34721 0.91558
 H732 H 0.76576 0.32652 0.94812
 H733 H 0.76643 0.43282 0.94633
 H734 H 0.81107 0.45355 0.91398
 C735 C 0.53322 0.08575 0.83222
 C736 C 0.55048 0.06417 0.82631
 C737 C 0.53876 0.04140 0.80661
 C738 C 0.50958 0.03974 0.79243
 C739 C 0.49247 0.06144 0.79815
 C740 C 0.50397 0.08402 0.81795
 C741 C 0.54609 0.11033 0.85294
 N742 N 0.52609 0.12692 0.86071
 N743 N 0.53802 0.14939 0.87917
 C744 C 0.57053 0.15632 0.89059
 N745 N 0.59048 0.13967 0.88283
 N746 N 0.57849 0.11711 0.86443
 C747 C 0.58435 0.18193 0.91083
 C748 C 0.62139 0.19451 0.91986
 C749 C 0.63490 0.21936 0.93859
 C750 C 0.61157 0.23197 0.94890
 C751 C 0.57434 0.21905 0.94007
 C752 C 0.56095 0.19444 0.92117
 H753 H 0.57307 0.06482 0.83689
 H754 H 0.55264 0.02521 0.80233
 H755 H 0.47000 0.06062 0.78735
 H756 H 0.49021 0.10041 0.82193
 H757 H 0.64022 0.18553 0.91230
 H758 H 0.66369 0.22868 0.94500
 H759 H 0.55571 0.22833 0.94756
 H760 H 0.53224 0.18522 0.91469
   
