data_POSCAR
  _audit_creation_date              2014-09-24
  _audit_creation_method            'ToBaCCo'
  _symmetry_space_group_name_H-M    'P1'
  _symmetry_Int_Tables_number       1
  _symmetry_cell_setting            triclinic
  loop_
  _symmetry_equiv_pos_as_xyz
 x,y,z
_cell_length_a 29.4273
_cell_length_b 29.2843
_cell_length_c 72.3213
_cell_angle_alpha 85.781200
_cell_angle_beta 92.069100
_cell_angle_gamma 120.343200
loop_
  _atom_site_label
  _atom_site_type_symbol
  _atom_site_fract_x
  _atom_site_fract_y
  _atom_site_fract_z
C1 C 0.00621 0.10154 0.52317
 H2 H 0.04345 0.10264 0.52269
 C3 C 0.00119 0.13638 0.53387
 H4 H 0.03468 0.16378 0.54181
 C5 C -0.08273 0.06374 0.51349
 H6 H -0.11504 0.03574 0.50533
 C7 C -0.08959 0.09788 0.52413
 H8 H -0.12734 0.09592 0.52407
 N9 N -0.03541 0.06602 0.51334
 C10 C -0.00410 -0.06231 0.50717
 H11 H -0.00134 -0.06148 0.49226
 C12 C -0.00324 -0.10293 0.51833
 H13 H 0.00031 -0.13321 0.51189
 C14 C -0.01587 -0.02590 0.53354
 H15 H -0.02227 0.00322 0.53943
 C16 C -0.01519 -0.06567 0.54519
 H17 H -0.01975 -0.06579 0.55999
 Zn18 Zn -0.02157 0.02294 0.49905
 N19 N -0.01084 -0.02516 0.51489
 C20 C 0.08294 0.06553 0.48483
 N21 N 0.03881 0.06948 0.48469
 C22 C 0.03641 0.10926 0.47463
 C23 C 0.07924 0.14690 0.46397
 C24 C 0.12684 0.10239 0.47426
 C25 C -0.12423 -0.05732 0.49114
 C26 C -0.16463 -0.09352 0.48014
 C27 C -0.11083 -0.04745 0.45313
 C28 C -0.07154 -0.01251 0.46470
 N29 N -0.07858 -0.01826 0.48333
 H30 H 0.08430 0.03412 0.49320
 H31 H 0.00093 0.11164 0.47492
 H32 H 0.07610 0.17775 0.45585
 H33 H 0.16186 0.09904 0.47458
 H34 H -0.12876 -0.06123 0.50605
 H35 H -0.20046 -0.12271 0.48717
 H36 H -0.10092 -0.04242 0.43861
 H37 H -0.03439 0.01777 0.45874
 C38 C -0.00987 -0.10550 0.53760
 C39 C -0.04713 0.13495 0.53443
 C40 C -0.15853 -0.09028 0.46062
 C41 C 0.12531 0.14387 0.46371
 C42 C 1.13014 0.04740 0.14149
 H43 H 1.13201 0.08530 0.14127
 C44 C 1.16604 0.04204 0.13118
 H45 H 1.19501 0.07592 0.12281
 C46 C 1.08941 -0.04279 0.15262
 H47 H 1.05986 -0.07545 0.16121
 C48 C 1.12459 -0.05001 0.14242
 H49 H 1.12183 -0.08839 0.14323
 N50 N 1.09269 0.00534 0.15186
 C51 C 0.96613 0.03960 0.15712
 H52 H 0.96468 0.04092 0.17198
 C53 C 0.92747 0.04167 0.14587
 H54 H 0.89640 0.04468 0.15222
 C55 C 1.00614 0.02990 0.13099
 H56 H 1.03584 0.02374 0.12526
 C57 C 0.96844 0.03192 0.11926
 H58 H 0.97049 0.02861 0.10454
 Zn59 Zn 1.04853 0.01960 0.16571
 N60 N 1.00402 0.03313 0.14957
 C61 C 1.09030 0.12349 0.17894
 N62 N 1.09346 0.07864 0.17942
 C63 C 1.13099 0.07425 0.18957
 C64 C 1.16693 0.11561 0.20001
 C65 C 1.12550 0.16596 0.18929
 C66 C 0.96550 -0.08357 0.17471
 C67 C 0.92679 -0.12432 0.18615
 C68 C 0.96911 -0.07256 0.21253
 C69 C 1.00682 -0.03284 0.20061
 N70 N 1.00405 -0.03867 0.18205
 H71 H 1.06067 0.12644 0.17053
 H72 H 1.13275 0.03822 0.18958
 H73 H 1.19584 0.11078 0.20826
 H74 H 1.12272 0.20151 0.18875
 H75 H 0.96355 -0.08671 0.15986
 H76 H 0.89518 -0.15879 0.17996
 H77 H 0.97168 -0.06678 0.22723
 H78 H 1.03703 0.00345 0.20619
 C79 C 0.92770 0.03666 0.12671
 C80 C 1.16370 -0.00709 0.13158
 C81 C 0.92766 -0.11852 0.20529
 C82 C 1.16453 0.16227 0.19998
 C83 C 0.04444 0.93520 0.85862
 H84 H 0.00826 0.89759 0.85775
 C85 C 0.08519 0.93868 0.86995
 H86 H 0.08023 0.90334 0.87767
 C87 C 0.09487 1.02654 0.84915
 H88 H 0.09841 1.06052 0.84092
 C89 C 0.13688 1.03181 0.86033
 H90 H 0.17234 1.07020 0.86083
 N91 N 0.04956 0.97884 0.84872
 C92 C -0.11102 0.94771 0.84191
 H93 H -0.11484 0.94882 0.82697
 C94 C -0.15079 0.94430 0.85297
 H95 H -0.18421 0.94359 0.84599
 C96 C -0.05963 0.95276 0.86841
 H97 H -0.02363 0.95721 0.87444
 C98 C -0.09824 0.94932 0.87998
 H99 H -0.09146 0.94838 0.89476
 Zn100 Zn -0.00936 0.96770 0.83414
 N101 N -0.06625 0.95257 0.84974
 C102 C -0.07321 0.86585 0.81933
 N103 N -0.02517 0.91076 0.81944
 C104 C 0.01581 0.91622 0.80951
 C105 C 0.00944 0.87573 0.79882
 C106 C -0.08142 0.82423 0.80871
 C107 C 0.01313 1.07255 0.82703
 C108 C 0.01654 1.11589 0.81632
 C109 C 0.00364 1.06844 0.78886
 C110 C 0.00033 1.02602 0.80008
 N111 N 0.00469 1.02861 0.81881
 H112 H -0.10498 0.86202 0.82759
 H113 H 0.05368 0.95223 0.81000
 H114 H 0.04251 0.88125 0.79085
 H115 H -0.11968 0.78847 0.80887
 H116 H 0.01550 1.07320 0.84198
 H117 H 0.02257 1.15026 0.82311
 H118 H -0.00187 1.06473 0.77405
 H119 H -0.00782 0.99029 0.79382
 C120 C -0.14446 0.94655 0.87242
 C121 C 0.13203 0.98753 0.87106
 C122 C 0.01098 1.11382 0.79697
 C123 C -0.03958 0.82885 0.79837
 C124 C 0.37404 -0.01546 0.01062
 C125 C 0.37352 -0.01187 -0.00837
 C126 C 0.41848 -0.01084 -0.01417
 N127 N 0.44651 -0.01326 0.00071
 C128 C 0.41959 -0.01598 0.01590
 C129 C 0.43135 -0.00979 -0.03292
 C130 C 0.47442 -0.01384 -0.03889
 C131 C 0.48064 -0.02373 -0.05682
 C132 C 0.52567 -0.02685 -0.05695
 C133 C 0.54621 -0.01837 -0.03914
 N134 N 0.51510 -0.00961 -0.02830
 C135 C 0.59275 -0.01871 -0.03360
 C136 C 0.61179 -0.01473 -0.01520
 C137 C 0.65803 -0.01386 -0.00996
 C138 C 0.66189 -0.01077 0.00890
 C139 C 0.61775 -0.01014 0.01466
 N140 N 0.58739 -0.01251 -0.00012
 C141 C 0.60726 -0.00608 0.03321
 C142 C 0.56163 -0.00677 0.03927
 C143 C 0.55407 0.00194 0.05722
 C144 C 0.50573 -0.00164 0.05763
 C145 C 0.48497 -0.01206 0.03990
 N146 N 0.51885 -0.01614 0.02889
 C147 C 0.43618 -0.01664 0.03447
 H148 H 0.34452 -0.01684 0.01952
 H149 H 0.34307 -0.01080 -0.01692
 H150 H 0.51136 -0.02845 0.01551
 H151 H 0.45483 -0.02926 -0.06854
 H152 H 0.54125 -0.03488 -0.06884
 H153 H 0.68617 -0.01526 -0.01879
 H154 H 0.69365 -0.00918 0.01739
 H155 H 0.48837 0.00391 0.06959
 H156 H 0.52303 0.00237 -0.01488
 H157 H 0.58079 0.01043 0.06884
 C158 C -0.04684 0.33666 0.65742
 C159 C -0.04475 0.33411 0.67642
 C160 C -0.04527 0.37814 0.68202
 N161 N -0.04747 0.40737 0.66705
 C162 C -0.04830 0.38233 0.65198
 C163 C -0.04197 0.39120 0.70065
 C164 C -0.04376 0.43541 0.70652
 C165 C -0.03566 0.45036 0.72467
 C166 C -0.03989 0.49494 0.72481
 C167 C -0.05008 0.50654 0.70672
 N168 N -0.05348 0.46940 0.69574
 C169 C -0.05485 0.55124 0.70099
 C170 C -0.05374 0.57011 0.68234
 C171 C -0.05332 0.61675 0.67688
 C172 C -0.04868 0.62277 0.65795
 C173 C -0.04696 0.57935 0.65236
 N174 N -0.05004 0.54735 0.66731
 C175 C -0.04428 0.56958 0.63368
 C176 C -0.04762 0.52294 0.62777
 C177 C -0.05576 0.50877 0.60954
 C178 C -0.05829 0.46064 0.60950
 C179 C -0.05123 0.44664 0.62768
 N180 N -0.04401 0.48529 0.63867
 C181 C -0.05109 0.39934 0.63337
 H182 H -0.04708 0.30816 0.64864
 H183 H -0.04292 0.30334 0.68509
 H184 H -0.03319 0.48798 0.65249
 H185 H -0.02705 0.43144 0.73660
 H186 H -0.03479 0.51700 0.73683
 H187 H -0.05529 0.64414 0.68563
 H188 H -0.04727 0.65522 0.64929
 H189 H -0.06487 0.43838 0.59740
 H190 H -0.06539 0.46550 0.68202
 H191 H -0.06040 0.53039 0.59753
 C192 C 0.37113 0.38042 0.32282
 C193 C 0.37010 0.37716 0.34182
 C194 C 0.41496 0.42200 0.34749
 N195 N 0.44344 0.45216 0.33255
 C196 C 0.41688 0.42688 0.31744
 C197 C 0.42729 0.43501 0.36617
 C198 C 0.47018 0.48316 0.37194
 C199 C 0.47569 0.50051 0.38966
 C200 C 0.52068 0.54939 0.38963
 C201 C 0.54193 0.56067 0.37193
 N202 N 0.51129 0.51960 0.36133
 C203 C 0.58863 0.60803 0.36628
 C204 C 0.60846 0.62224 0.34795
 C205 C 0.65490 0.66802 0.34261
 C206 C 0.65945 0.66772 0.32383
 C207 C 0.61551 0.62193 0.31823
 N208 N 0.58462 0.59434 0.33301
 C209 C 0.60559 0.60615 0.29980
 C210 C 0.56000 0.56030 0.29388
 C211 C 0.55288 0.54297 0.27609
 C212 C 0.50439 0.49766 0.27575
 C213 C 0.48310 0.48804 0.29339
 N214 N 0.51683 0.52697 0.30424
 C215 C 0.43397 0.44359 0.29886
 H216 H 0.34178 0.35144 0.31401
 H217 H 0.33939 0.34563 0.35044
 H218 H 0.50898 0.53246 0.31748
 H219 H 0.44939 0.48056 0.40134
 H220 H 0.53574 0.57398 0.40133
 H221 H 0.68270 0.69854 0.35132
 H222 H 0.69147 0.69790 0.31528
 H223 H 0.48727 0.47390 0.26393
 H224 H 0.51976 0.51481 0.34809
 H225 H 0.57998 0.56088 0.26452
 C226 C -0.01505 0.25876 0.55830
 C227 C -0.05920 0.24024 0.56965
 C228 C -0.10077 0.18793 0.56882
 C229 C -0.09766 0.15392 0.55697
 C230 C -0.05273 0.17183 0.54589
 C231 C -0.01182 0.22487 0.54649
 C232 C -0.06027 0.27428 0.58278
 C233 C -0.05963 0.30301 0.59402
 C234 C -0.05748 0.33669 0.60743
 C235 C -0.05485 0.36529 0.61910
 H236 H 0.01733 0.29917 0.55881
 H237 H -0.13504 0.17313 0.57762
 H238 H -0.12954 0.11319 0.55692
 H239 H 0.02291 0.24001 0.53791
 C240 C 0.82252 0.82164 0.24265
 C241 C 0.79974 0.76740 0.24036
 C242 C 0.81894 0.75010 0.22665
 C243 C 0.86078 0.78703 0.21526
 C244 C 0.88396 0.84170 0.21750
 C245 C 0.86424 0.85852 0.23132
 C246 C 0.75690 0.72999 0.25223
 C247 C 0.72138 0.70007 0.26255
 C248 C 0.68039 0.66645 0.27506
 C249 C 0.64603 0.63869 0.28611
 H250 H 0.80786 0.83548 0.25316
 H251 H 0.80163 0.70816 0.22479
 H252 H 0.87532 0.77286 0.20483
 H253 H 0.88046 0.90030 0.23317
 C254 C 0.26806 0.02333 -0.11070
 C255 C 0.25564 -0.00414 -0.09324
 C256 C 0.20320 -0.03300 -0.08732
 C257 C 0.16323 -0.03503 -0.09884
 C258 C 0.17509 -0.00822 -0.11651
 C259 C 0.22802 0.02141 -0.12228
 C260 C 0.29617 -0.00350 -0.08133
 C261 C 0.32877 -0.00413 -0.07091
 C262 C 0.36551 -0.00581 -0.05821
 C263 C 0.39586 -0.00762 -0.04694
 H264 H 0.30856 0.04579 -0.11542
 H265 H 0.19317 -0.05417 -0.07380
 H266 H 0.12297 -0.05746 -0.09389
 H267 H 0.23829 0.04205 -0.13587
 C268 C -0.05589 0.78352 0.57538
 C269 C -0.02290 0.76316 0.57259
 C270 C 0.01444 0.78556 0.55829
 C271 C 0.01883 0.82830 0.54685
 C272 C -0.01399 0.84924 0.54964
 C273 C -0.05154 0.82618 0.56400
 C274 C -0.02706 0.71997 0.58472
 C275 C -0.03110 0.68433 0.59530
 C276 C -0.03606 0.64341 0.60816
 C277 C -0.04011 0.60934 0.61955
 H278 H -0.08500 0.76643 0.58638
 H279 H 0.04032 0.77021 0.55606
 H280 H 0.04834 0.84546 0.53600
 H281 H -0.07806 0.84070 0.56630
 C282 C 0.22002 0.27163 0.23359
 C283 C 0.27247 0.28364 0.23494
 C284 C 0.29019 0.25799 0.22416
 C285 C 0.25540 0.21957 0.21240
 C286 C 0.20226 0.20616 0.21130
 C287 C 0.18511 0.23321 0.22180
 C288 C 0.30755 0.32021 0.24804
 C289 C 0.33696 0.34969 0.25928
 C290 C 0.37118 0.38308 0.27273
 C291 C 0.40000 0.41084 0.28447
 H292 H 0.20584 0.29112 0.24194
 H293 H 0.33071 0.26701 0.22507
 H294 H 0.26994 0.19999 0.20428
 H295 H 0.14435 0.22338 0.22137
 C296 C 0.72910 -0.06852 -0.11048
 C297 C 0.74513 -0.04530 -0.09348
 C298 C 0.79708 -0.02561 -0.08767
 C299 C 0.83310 -0.02878 -0.09875
 C300 C 0.81809 -0.05185 -0.11609
 C301 C 0.76508 -0.07176 -0.12169
 C302 C 0.70887 -0.04109 -0.08187
 C303 C 0.68018 -0.03662 -0.07160
 C304 C 0.64837 -0.03064 -0.05897
 C305 C 0.62252 -0.02522 -0.04770
 H306 H 0.68874 -0.08428 -0.11506
 H307 H 0.81005 -0.00709 -0.07459
 H308 H 0.87330 -0.01055 -0.09388
 H309 H 0.75033 -0.09152 -0.13443
 C310 C 0.29026 0.02399 0.10815
 C311 C 0.27304 -0.02017 0.09769
 C312 C 0.22057 -0.06143 0.09899
 C313 C 0.18517 -0.05800 0.11042
 C314 C 0.20184 -0.01303 0.12059
 C315 C 0.25498 0.02755 0.11954
 C316 C 0.30863 -0.02157 0.08491
 C317 C 0.33844 -0.02144 0.07388
 C318 C 0.37305 -0.02021 0.06059
 C319 C 0.40210 -0.01866 0.04891
 H320 H 0.33077 0.05614 0.10726
 H321 H 0.20677 -0.09570 0.09088
 H322 H 0.14442 -0.08962 0.11082
 H323 H 0.26918 0.06228 0.12742
 C324 C 0.76819 0.84275 0.41872
 C325 C 0.73240 0.79240 0.42636
 C326 C 0.73083 0.78190 0.44553
 C327 C 0.76588 0.82116 0.45702
 C328 C 0.80423 0.87229 0.44958
 C329 C 0.80341 0.88216 0.43007
 C330 C 0.69886 0.75115 0.41438
 C331 C 0.67211 0.71719 0.40396
 C332 C 0.64213 0.67827 0.39132
 C333 C 0.61746 0.64588 0.38015
 H334 H 0.76920 0.85159 0.40387
 H335 H 0.70334 0.74280 0.45160
 H336 H 0.76438 0.80913 0.47156
 H337 H 0.82855 0.92069 0.42324
 C338 C -0.02386 0.21793 0.77978
 C339 C -0.00126 0.23239 0.76207
 C340 C 0.02768 0.21018 0.75615
 C341 C 0.03302 0.17275 0.76770
 C342 C 0.00939 0.15697 0.78535
 C343 C -0.01852 0.18052 0.79137
 C344 C -0.00964 0.26815 0.74964
 C345 C -0.01716 0.29717 0.73892
 C346 C -0.02615 0.33030 0.72601
 C347 C -0.03363 0.35809 0.71467
 H348 H -0.04653 0.23470 0.78447
 H349 H 0.04539 0.22115 0.74248
 H350 H 0.05523 0.15578 0.76276
 H351 H -0.03780 0.16868 0.80476
 C352 C 0.82023 0.06043 0.10595
 C353 C 0.80009 0.02381 0.09221
 C354 C 0.82181 -0.00816 0.08970
 C355 C 0.86342 -0.00366 0.10085
 C356 C 0.88409 0.03303 0.11470
 C357 C 0.86195 0.06499 0.11716
 C358 C 0.75744 0.01886 0.08049
 C359 C 0.72209 0.01376 0.07029
 C360 C 0.68133 0.00705 0.05789
 C361 C 0.64724 0.00106 0.04690
 H362 H 0.80377 0.08548 0.10797
 H363 H 0.80644 -0.03675 0.07915
 H364 H 0.87883 -0.02959 0.09884
 H365 H 0.87723 0.09383 0.12761
 C366 C 0.24024 0.20575 0.43001
 C367 C 0.25318 0.25893 0.42895
 C368 C 0.22598 0.27481 0.43986
 C369 C 0.18526 0.23758 0.45149
 C370 C 0.17106 0.18381 0.45235
 C371 C 0.19950 0.16838 0.44168
 C372 C 0.29260 0.29687 0.41607
 C373 C 0.32458 0.32881 0.40503
 C374 C 0.36098 0.36613 0.39183
 C375 C 0.39137 0.39768 0.38031
 H376 H 0.26093 0.19300 0.42156
 H377 H 0.23570 0.31586 0.43916
 H378 H 0.16463 0.25079 0.45975
 H379 H 0.18917 0.12722 0.44193
 C380 C -0.09619 0.71979 0.76459
 C381 C -0.05559 0.70819 0.76387
 C382 C -0.01108 0.73420 0.77505
 C383 C -0.00654 0.77248 0.78660
 C384 C -0.04647 0.78541 0.78710
 C385 C -0.09176 0.75807 0.77619
 C386 C -0.05810 0.67167 0.75103
 C387 C -0.05872 0.64237 0.74003
 C388 C -0.05814 0.60947 0.72684
 C389 C -0.05689 0.58250 0.71527
 H390 H -0.13073 0.70004 0.75593
 H391 H 0.02055 0.72552 0.77462
 H392 H 0.02842 0.79227 0.79506
 H393 H -0.12292 0.76750 0.77617
   
