data_POSCAR
  _audit_creation_date              2014-09-24
  _audit_creation_method            'ToBaCCo'
  _symmetry_space_group_name_H-M    'P1'
  _symmetry_Int_Tables_number       1
  _symmetry_cell_setting            triclinic
  loop_
  _symmetry_equiv_pos_as_xyz
 x,y,z
_cell_length_a 32.0393
_cell_length_b 31.9371
_cell_length_c 16.7977
_cell_angle_alpha 89.903200
_cell_angle_beta 89.903400
_cell_angle_gamma 119.998800
loop_
  _atom_site_label
  _atom_site_type_symbol
  _atom_site_fract_x
  _atom_site_fract_y
  _atom_site_fract_z
C1 C 0.44951 0.89834 0.57309
 C2 C 0.43706 0.87367 0.50058
 C3 C 0.44939 0.89865 0.42824
 C4 C 0.47497 0.94973 0.42748
 C5 C 0.48781 0.97529 0.50062
 C6 C 0.47502 0.94953 0.57385
 C7 C 0.48807 0.97564 0.64562
 C8 C 0.51313 1.02596 0.64552
 C9 C 0.52622 1.05226 0.57364
 C10 C 0.51347 1.02668 0.50049
 C11 C 0.48802 0.97589 0.35561
 C12 C 0.51322 1.02620 0.35545
 C13 C 0.52633 1.05238 0.42720
 C14 C 0.55195 1.10355 0.42779
 C15 C 0.56424 1.12832 0.50021
 C16 C 0.55172 1.10344 0.57276
 H17 H 0.47896 0.95731 0.70266
 H18 H 0.52221 1.04416 0.70250
 H19 H 0.47885 0.95762 0.29870
 H20 H 0.52235 1.04449 0.29836
 H21 H 0.41744 0.83440 0.50029
 H22 H 0.58386 1.16763 0.50009
 C23 C -0.10292 0.44840 0.42822
 C24 C -0.12782 0.43586 0.50058
 C25 C -0.10324 0.44809 0.57311
 C26 C -0.05222 0.47369 0.57388
 C27 C -0.02657 0.48655 0.50063
 C28 C -0.05201 0.47383 0.42746
 C29 C -0.02589 0.48687 0.35559
 C30 C 0.02430 0.51192 0.35549
 C31 C 0.05024 0.52493 0.42726
 C32 C 0.02461 0.51217 0.50051
 C33 C -0.02614 0.48678 0.64566
 C34 C 0.02405 0.51197 0.64550
 C35 C 0.05012 0.52501 0.57361
 C36 C 0.10105 0.55056 0.57269
 C37 C 0.12584 0.56285 0.50023
 C38 C 0.10116 0.55037 0.42791
 H39 H -0.04407 0.47777 0.29866
 H40 H 0.04262 0.52106 0.29851
 H41 H -0.04440 0.47764 0.70271
 H42 H 0.04229 0.52115 0.70238
 H43 H -0.16697 0.41626 0.50029
 H44 H 0.16497 0.58244 0.50012
 C45 C 0.55091 0.44852 0.42952
 C46 C 0.56341 0.43616 0.50181
 C47 C 0.55123 0.44866 0.57439
 C48 C 0.52570 0.47424 0.57529
 C49 C 0.51287 0.48705 0.50212
 C50 C 0.52555 0.47417 0.42890
 C51 C 0.51256 0.48725 0.35708
 C52 C 0.48759 0.51254 0.35708
 C53 C 0.47461 0.52564 0.42889
 C54 C 0.48731 0.51277 0.50212
 C55 C 0.51266 0.48736 0.64712
 C56 C 0.48755 0.51250 0.64712
 C57 C 0.47450 0.52560 0.57529
 C58 C 0.44897 0.55118 0.57439
 C59 C 0.43677 0.56367 0.50181
 C60 C 0.44926 0.55128 0.42951
 H61 H 0.52164 0.47806 0.30011
 H62 H 0.47850 0.52172 0.30011
 H63 H 0.52179 0.47823 0.70412
 H64 H 0.47844 0.52164 0.70412
 H65 H 0.58296 0.41648 0.50142
 H66 H 0.41723 0.58334 0.50141
 O67 O 0.40671 0.65632 -0.06855
 O68 O 0.40466 0.73582 -0.09238
 C69 C 0.38132 0.75711 -0.10814
 O70 O 0.34471 0.75083 -0.06887
 O71 O 0.26544 0.66925 -0.09186
 C72 C 0.24417 0.62453 -0.10722
 O73 O 0.25051 0.59413 -0.06803
 O74 O 0.33183 0.59618 -0.09162
 C75 C 0.37639 0.61960 -0.10750
 O76 O 0.40453 0.66923 0.09020
 O77 O 0.40667 0.75081 0.06636
 C78 C 0.37632 0.75704 0.10564
 O79 O 0.33178 0.73583 0.09001
 O80 O 0.25046 0.65640 0.06693
 C81 C 0.24411 0.61965 0.10623
 O82 O 0.26534 0.59624 0.09068
 O83 O 0.34457 0.59412 0.06719
 C84 C 0.38111 0.62455 0.10624
 Cr85 Cr 0.40296 0.70170 -0.00109
 Cr86 Cr 0.29945 0.70174 -0.00095
 Cr87 Cr 0.29941 0.59785 -0.00047
 O88 O 0.33394 0.66710 -0.00086
 O89 O 0.59350 0.34352 -0.06816
 O90 O 0.59557 0.26406 -0.09157
 C91 C 0.61898 0.24288 -0.10755
 O92 O 0.65551 0.24904 -0.06843
 O93 O 0.73477 0.33060 -0.09224
 C94 C 0.75597 0.37531 -0.10812
 O95 O 0.74969 0.40571 -0.06900
 O96 O 0.66838 0.40367 -0.09205
 C97 C 0.62382 0.38026 -0.10752
 O98 O 0.59563 0.33056 0.09065
 O99 O 0.59348 0.24899 0.06734
 C100 C 0.62384 0.24283 0.10657
 O101 O 0.66836 0.26396 0.09040
 O102 O 0.74967 0.34337 0.06649
 C103 C 0.75590 0.38004 0.10564
 O104 O 0.73477 0.40353 0.08988
 O105 O 0.65559 0.40568 0.06682
 C106 C 0.61904 0.37524 0.10628
 Cr107 Cr 0.59721 0.29812 -0.00046
 Cr108 Cr 0.70073 0.29807 -0.00094
 Cr109 Cr 0.70077 0.40197 -0.00109
 O110 O 0.66624 0.33272 -0.00085
 C111 C 0.43634 0.87138 -0.35851
 C112 C 0.42432 0.84666 -0.29927
 C113 C 0.40979 0.81659 -0.23126
 C114 C 0.39700 0.78996 -0.17435
 C115 C 0.12936 0.56502 -0.35525
 C116 C 0.15415 0.57775 -0.29646
 C117 C 0.18439 0.59338 -0.22909
 C118 C 0.21119 0.60730 -0.17278
 C119 C 0.43533 0.56440 -0.35728
 C120 C 0.42273 0.57646 -0.29814
 C121 C 0.40729 0.59104 -0.23027
 C122 C 0.39351 0.60388 -0.17351
 C123 C 0.56481 0.13016 -0.35881
 C124 C 0.57668 0.15455 -0.29942
 C125 C 0.59097 0.18415 -0.23111
 C126 C 0.60354 0.21039 -0.17395
 C127 C 0.86990 0.43440 -0.35848
 C128 C 0.84525 0.42176 -0.29924
 C129 C 0.81528 0.40629 -0.23123
 C130 C 0.78872 0.39247 -0.17433
 C131 C 0.56488 0.43545 -0.35728
 C132 C 0.57749 0.42339 -0.29814
 C133 C 0.59293 0.40882 -0.23027
 C134 C 0.60671 0.39598 -0.17352
 C135 C 0.86894 0.43456 0.35594
 C136 C 0.84450 0.42263 0.29673
 C137 C 0.81480 0.40823 0.22869
 C138 C 0.78846 0.39557 0.17178
 C139 C 0.56558 0.13035 0.35919
 C140 C 0.57806 0.15472 0.29955
 C141 C 0.59328 0.18424 0.23087
 C142 C 0.60688 0.21040 0.17337
 C143 C 0.56470 0.43408 0.35717
 C144 C 0.57659 0.42147 0.29786
 C145 C 0.59092 0.40606 0.22968
 C146 C 0.60355 0.39232 0.17262
 C147 C 0.12955 0.56430 0.35566
 C148 C 0.15432 0.57638 0.29661
 C149 C 0.18448 0.59101 0.22886
 C150 C 0.21120 0.60389 0.17219
 C151 C 0.43499 0.87042 0.35596
 C152 C 0.42242 0.84590 0.29676
 C153 C 0.40705 0.81611 0.22871
 C154 C 0.39334 0.78969 0.17180
 C155 C 0.43546 0.56572 0.35715
 C156 C 0.42356 0.57832 0.29785
 C157 C 0.40922 0.59372 0.22966
 C158 C 0.39660 0.60746 0.17259
   
