data_POSCAR
  _audit_creation_date              2014-09-24
  _audit_creation_method            'ToBaCCo'
  _symmetry_space_group_name_H-M    'P1'
  _symmetry_Int_Tables_number       1
  _symmetry_cell_setting            triclinic
  loop_
  _symmetry_equiv_pos_as_xyz
 x,y,z
_cell_length_a 34.1471
_cell_length_b 33.7050
_cell_length_c 34.3266
_cell_angle_alpha 90.230100
_cell_angle_beta 89.832400
_cell_angle_gamma 85.325300
loop_
  _atom_site_label
  _atom_site_type_symbol
  _atom_site_fract_x
  _atom_site_fract_y
  _atom_site_fract_z
C1 C 1.22705 0.22522 0.21199
 C2 C 1.25325 0.25152 0.18894
 C3 C 1.27543 0.27394 0.21195
 C4 C 1.26941 0.26816 0.25600
 C5 C 1.25505 0.20049 0.23896
 C6 C 1.27713 0.22300 0.26200
 C7 C 1.20264 0.25379 0.23913
 C8 C 1.22481 0.27614 0.26221
 H9 H 1.25446 0.25209 0.15731
 H10 H 1.28749 0.28649 0.27468
 H11 H 1.25650 0.16820 0.24051
 H12 H 1.17079 0.25512 0.24102
 C13 C 0.72832 -0.27449 0.19890
 C14 C 0.75408 -0.24766 0.17616
 C15 C 0.77589 -0.22524 0.19955
 C16 C 0.76999 -0.23171 0.24360
 C17 C 0.75642 -0.29928 0.22554
 C18 C 0.77807 -0.27694 0.24903
 C19 C 0.70358 -0.24667 0.22623
 C20 C 0.72533 -0.22445 0.24970
 H21 H 0.75525 -0.24668 0.14454
 H22 H 0.78779 -0.21339 0.26256
 H23 H 0.75722 -0.33152 0.22752
 H24 H 0.67179 -0.24636 0.22854
 C25 C 0.72139 0.22122 -0.29582
 C26 C 0.74731 0.24479 -0.31821
 C27 C 0.77035 0.26882 -0.29414
 C28 C 0.76309 0.26464 -0.25223
 C29 C 0.74672 0.19786 -0.26888
 C30 C 0.76972 0.22181 -0.24476
 C31 C 0.69761 0.24955 -0.27175
 C32 C 0.72057 0.27349 -0.24768
 H33 H 0.74885 0.24480 -0.34987
 H34 H 0.78097 0.28333 -0.23360
 H35 H 0.74774 0.16560 -0.26653
 H36 H 0.66570 0.25081 -0.27002
 C37 C 1.22099 -0.27871 -0.29276
 C38 C 1.24718 -0.25350 -0.31702
 C39 C 1.27126 -0.23219 -0.29499
 C40 C 1.26702 -0.23790 -0.25075
 C41 C 1.24918 -0.30457 -0.26712
 C42 C 1.27320 -0.28323 -0.24518
 C43 C 1.19881 -0.24939 -0.26467
 C44 C 1.22293 -0.22808 -0.24268
 H45 H 1.24662 -0.25243 -0.34865
 H46 H 1.28672 -0.22053 -0.23288
 H47 H 1.24929 -0.33678 -0.26548
 H48 H 1.16699 -0.24628 -0.26190
 C49 C 0.22795 0.22730 0.78886
 C50 C 0.25238 0.25226 0.81119
 C51 C 0.27522 0.27642 0.78742
 C52 C 0.26959 0.27139 0.74566
 C53 C 0.20302 0.25578 0.76229
 C54 C 0.22492 0.27880 0.73959
 C55 C 0.25607 0.20316 0.76108
 C56 C 0.27781 0.22635 0.73840
 H57 H 0.25369 0.25234 0.84284
 H58 H 0.28737 0.29023 0.72719
 H59 H 0.17119 0.25662 0.76054
 H60 H 0.25788 0.17089 0.75881
 C61 C 0.72581 0.72837 0.80089
 C62 C 0.75056 0.75366 0.82277
 C63 C 0.77368 0.77704 0.79810
 C64 C 0.76760 0.77057 0.75626
 C65 C 0.70211 0.75495 0.77538
 C66 C 0.72511 0.77818 0.75070
 C67 C 0.75228 0.70427 0.77530
 C68 C 0.77529 0.72750 0.75061
 H69 H 0.75202 0.75448 0.85441
 H70 H 0.78553 0.78873 0.73720
 H71 H 0.67027 0.75547 0.77321
 H72 H 0.75293 0.67200 0.77312
 C73 C 0.71885 0.22291 0.29619
 C74 C 0.74601 0.24798 0.31940
 C75 C 0.76801 0.27064 0.29653
 C76 C 0.76092 0.26617 0.25243
 C77 C 0.69426 0.25250 0.27080
 C78 C 0.71622 0.27505 0.24788
 C79 C 0.74572 0.19846 0.26770
 C80 C 0.76766 0.22107 0.24474
 H81 H 0.74762 0.24796 0.35101
 H82 H 0.77884 0.28470 0.23385
 H83 H 0.66238 0.25392 0.26940
 H84 H 0.74664 0.16623 0.26524
 C85 C 0.21802 0.72321 0.29243
 C86 C 0.24373 0.74923 0.31642
 C87 C 0.26773 0.77052 0.29430
 C88 C 0.26386 0.76394 0.25001
 C89 C 0.19573 0.75178 0.26405
 C90 C 0.21968 0.77305 0.24180
 C91 C 0.24674 0.69725 0.26696
 C92 C 0.27066 0.71848 0.24477
 H93 H 0.24314 0.75058 0.34806
 H94 H 0.28344 0.78128 0.23201
 H95 H 0.16394 0.75431 0.26117
 H96 H 0.24717 0.66499 0.26553
 N97 N 0.96504 -0.03966 0.06691
 N98 N 0.93979 -0.04855 0.09411
 N99 N 1.05010 -0.06561 0.03991
 N100 N 1.07754 -0.09385 0.04938
 N101 N 1.04716 -0.03770 0.06682
 N102 N 1.07257 -0.04617 0.09508
 N103 N 0.96796 -0.06731 0.03975
 N104 N 0.94476 -0.09567 0.04775
 C105 C 0.92704 -0.08339 0.08154
 C106 C 1.09179 -0.08099 0.08362
 N107 N 1.04722 -0.03768 -0.07134
 N108 N 1.07348 -0.04569 -0.09914
 N109 N 0.96799 -0.06743 -0.04445
 N110 N 0.94481 -0.09584 -0.05255
 N111 N 0.96504 -0.03979 -0.07141
 N112 N 0.93980 -0.04879 -0.09855
 N113 N 1.05016 -0.06542 -0.04450
 N114 N 1.07845 -0.09305 -0.05347
 Mn115 Mn 1.00910 -0.06677 -0.00234
 C116 C 1.09315 -0.08004 -0.08739
 C117 C 0.92705 -0.08369 -0.08620
 N118 N 1.03834 0.04809 0.06698
 N119 N 1.06466 0.05610 0.09335
 N120 N 0.95335 0.07427 0.04060
 N121 N 0.92689 0.10320 0.05108
 N122 N 0.95625 0.04632 0.06728
 N123 N 0.93175 0.05548 0.09632
 N124 N 1.03543 0.07581 0.04016
 N125 N 1.05971 0.10342 0.04758
 Mn126 Mn 1.00167 0.00427 0.06726
 C127 C 1.07802 0.09057 0.08070
 C128 C 0.91316 0.09071 0.08562
 N129 N 0.95631 0.04647 -0.07107
 N130 N 0.93221 0.05601 -0.10016
 N131 N 1.03549 0.07573 -0.04368
 N132 N 1.06010 0.10311 -0.05050
 N133 N 1.03844 0.04814 -0.07086
 N134 N 1.06516 0.05605 -0.09696
 N135 N 0.95342 0.07438 -0.04410
 N136 N 0.92734 0.10359 -0.05441
 Mn137 Mn 1.00172 0.00428 -0.07147
 Mn138 Mn 0.99432 0.07536 -0.00175
 Cl139 Cl 1.00159 0.00427 -0.00209
 C140 C 0.91382 0.09139 -0.08918
 C141 C 1.07866 0.09031 -0.08369
 N142 N 1.03889 0.45717 0.43345
 N143 N 1.06573 0.44976 0.40612
 N144 N 0.95963 0.42678 0.45963
 N145 N 0.93670 0.39824 0.45124
 N146 N 0.95690 0.45438 0.43265
 N147 N 0.93205 0.44532 0.40523
 N148 N 1.04170 0.42932 0.46017
 N149 N 1.07052 0.40210 0.45150
 C150 C 1.08563 0.41558 0.41792
 C151 C 0.91935 0.41040 0.41740
 N152 N 0.95516 0.45498 0.57098
 N153 N 0.93027 0.44566 0.59837
 N154 N 1.04069 0.42988 0.54450
 N155 N 1.06992 0.40325 0.55300
 N156 N 1.03718 0.45786 0.57130
 N157 N 1.06396 0.45110 0.59860
 N158 N 0.95863 0.42711 0.54401
 N159 N 0.93615 0.39820 0.55241
 Mn160 Mn 1.00020 0.42788 0.50209
 C161 C 0.91825 0.41035 0.58619
 C162 C 1.08450 0.41718 0.58663
 N163 N 0.94745 0.54032 0.43253
 N164 N 0.92445 0.55016 0.40272
 N165 N 1.02589 0.57052 0.46040
 N166 N 1.04950 0.59870 0.45314
 N167 N 1.02940 0.54283 0.43335
 N168 N 1.05551 0.55149 0.40690
 N169 N 0.94402 0.56825 0.45945
 N170 N 0.91872 0.59775 0.44841
 Mn171 Mn 0.99314 0.49864 0.43272
 C172 C 0.90616 0.58569 0.41329
 C173 C 1.06810 0.58628 0.41986
 N174 N 1.02772 0.54348 0.57111
 N175 N 1.05427 0.55172 0.59716
 N176 N 0.94301 0.56885 0.54386
 N177 N 0.91794 0.59882 0.55468
 N178 N 0.94574 0.54127 0.57094
 N179 N 0.92251 0.55191 0.60062
 N180 N 1.02486 0.57079 0.54391
 N181 N 1.04934 0.59828 0.55060
 Mn182 Mn 0.99141 0.49936 0.57138
 Mn183 Mn 0.98435 0.56982 0.50191
 Cl184 Cl 0.99210 0.49890 0.50204
 C185 C 1.06770 0.58589 0.58376
 C186 C 0.90477 0.58753 0.58982
 N187 N 0.57010 0.02641 0.54234
 N188 N 0.59742 0.05112 0.54860
 N189 N 0.54084 -0.05304 0.57072
 N190 N 0.55134 -0.07577 0.60076
 N191 N 0.56806 -0.05654 0.54347
 N192 N 0.59763 -0.08166 0.55447
 N193 N 0.54306 0.03005 0.56961
 N194 N 0.55133 0.05738 0.59533
 C195 C 0.58522 0.07049 0.58159
 C196 C 0.58649 -0.09405 0.58995
 N197 N 0.42855 -0.04066 0.54354
 N198 N 0.40063 -0.06424 0.55149
 N199 N 0.45851 0.03955 0.56975
 N200 N 0.45152 0.06720 0.59672
 N201 N 0.43106 0.04239 0.54296
 N202 N 0.40458 0.07204 0.55115
 N203 N 0.45577 -0.04348 0.57059
 N204 N 0.44699 -0.06904 0.59768
 Mn205 Mn 0.49948 -0.00676 0.57050
 C206 C 0.41267 -0.08206 0.58515
 C207 C 0.41804 0.08759 0.58454
 N208 N 0.56782 -0.05747 0.45921
 N209 N 0.59716 -0.08316 0.44852
 N210 N 0.54284 0.02838 0.43196
 N211 N 0.55048 0.05585 0.40635
 N212 N 0.56990 0.02538 0.45905
 N213 N 0.59664 0.05069 0.45277
 N214 N 0.54053 -0.05463 0.43219
 N215 N 0.55071 -0.07842 0.40263
 Mn216 Mn 0.56918 -0.01567 0.50100
 C217 C 0.58574 -0.09658 0.41350
 C218 C 0.58406 0.06967 0.41993
 N219 N 0.43088 0.04146 0.45879
 N220 N 0.40402 0.07044 0.44996
 N221 N 0.45558 -0.04512 0.43221
 N222 N 0.44617 -0.07020 0.40475
 N223 N 0.42827 -0.04168 0.45932
 N224 N 0.39963 -0.06435 0.45099
 N225 N 0.45835 0.03797 0.43187
 N226 N 0.45098 0.06450 0.40416
 Mn227 Mn 0.42931 0.00041 0.50119
 Mn228 Mn 0.49932 -0.00839 0.43174
 Cl229 Cl 0.49929 -0.00779 0.50111
 C230 C 0.41726 0.08494 0.41602
 C231 C 0.41138 -0.08237 0.41708
 N232 N 0.56613 0.53715 -0.04215
 N233 N 0.59534 0.54692 -0.06446
 N234 N 0.53806 0.56500 0.04000
 N235 N 0.54728 0.59419 0.06306
 N236 N 0.56644 0.53626 0.03938
 N237 N 0.59558 0.54518 0.06203
 N238 N 0.53776 0.56591 -0.04151
 N239 N 0.54707 0.59589 -0.06337
 C240 C 0.58276 0.58333 -0.07809
 C241 C 0.58294 0.58107 0.07715
 N242 N 0.42737 0.54180 0.04080
 N243 N 0.39970 0.55132 0.06694
 N244 N 0.45327 0.56878 -0.04086
 N245 N 0.44453 0.59669 -0.06694
 N246 N 0.42708 0.54236 -0.04104
 N247 N 0.39974 0.55164 -0.06730
 N248 N 0.45359 0.56820 0.04083
 N249 N 0.44449 0.59630 0.06695
 Mn250 Mn 0.49559 0.56721 -0.00038
 C251 C 0.41102 0.58519 0.08335
 C252 C 0.41125 0.58543 -0.08347
 N253 N 0.57012 0.45091 0.03839
 N254 N 0.59762 0.44253 0.06462
 N255 N 0.54417 0.42448 -0.04337
 N256 N 0.55441 0.39636 -0.06926
 N257 N 0.56975 0.45153 -0.04324
 N258 N 0.59789 0.44265 -0.06895
 N259 N 0.54442 0.42399 0.03849
 N260 N 0.55388 0.39645 0.06485
 Mn261 Mn 0.56830 0.49388 -0.00193
 C262 C 0.58699 0.40868 0.08115
 C263 C 0.58778 0.40841 -0.08532
 N264 N 0.43073 0.45646 -0.04207
 N265 N 0.40342 0.44948 -0.06775
 N266 N 0.45945 0.42699 0.03924
 N267 N 0.45234 0.39931 0.06487
 N268 N 0.43113 0.45582 0.03980
 N269 N 0.40414 0.44851 0.06582
 N270 N 0.45911 0.42769 -0.04265
 N271 N 0.45176 0.40040 -0.06874
 Mn272 Mn 0.42869 0.49910 -0.00063
 Mn273 Mn 0.50179 0.42534 -0.00208
 Cl274 Cl 0.49857 0.49635 -0.00128
 C275 C 0.41713 0.41463 -0.08455
 C276 C 0.41794 0.41338 0.08162
 C277 C 1.15804 0.15754 0.14489
 C278 C 1.14274 0.17195 0.10940
 C279 C 1.11722 0.14980 0.08808
 C280 C 1.20301 0.20102 0.18745
 C281 C 1.12268 0.09843 0.13743
 C282 C 1.14818 0.12061 0.15870
 C283 C 1.18279 0.18116 0.16778
 C284 C 1.10666 0.11298 0.10209
 H285 H 1.15013 0.20052 0.09845
 H286 H 1.10535 0.16174 0.06094
 H287 H 1.11508 0.07017 0.14893
 H288 H 1.15981 0.10919 0.18615
 C289 C 1.14868 0.65405 0.64441
 C290 C 1.13345 0.66715 0.60852
 C291 C 1.10757 0.64452 0.58842
 C292 C 1.19528 0.69789 0.68409
 C293 C 1.11255 0.59526 0.63988
 C294 C 1.13845 0.61797 0.65995
 C295 C 1.17413 0.67801 0.66572
 C296 C 1.09663 0.60855 0.60410
 H297 H 1.14125 0.69504 0.59628
 H298 H 1.09577 0.65542 0.56087
 H299 H 1.10460 0.56766 0.65258
 H300 H 1.15015 0.60761 0.68775
 C301 C 0.65387 0.15233 0.64126
 C302 C 0.61809 0.14263 0.65718
 C303 C 0.59518 0.11657 0.63740
 C304 C 0.69864 0.19792 0.68138
 C305 C 0.64355 0.11043 0.58540
 C306 C 0.66639 0.13647 0.60521
 C307 C 0.67833 0.17740 0.66263
 C308 C 0.60794 0.09990 0.60152
 H309 H 0.60819 0.15475 0.68512
 H310 H 0.56788 0.10897 0.65045
 H311 H 0.65407 0.09807 0.55776
 H312 H 0.69405 0.14377 0.59267
 C313 C 0.65807 0.65529 0.13772
 C314 C 0.67144 0.61610 0.12837
 C315 C 0.64651 0.59144 0.10959
 C316 C 0.70430 0.70112 0.17509
 C317 C 0.59454 0.64504 0.11021
 C318 C 0.61953 0.66965 0.12899
 C319 C 0.68351 0.68041 0.15737
 C320 C 0.60797 0.60586 0.10003
 H321 H 0.70115 0.60470 0.13541
 H322 H 0.65757 0.56137 0.10202
 H323 H 0.56499 0.65686 0.10310
 H324 H 0.60890 0.69989 0.13652
 C325 C 0.85001 -0.15333 0.14618
 C326 C 0.85971 -0.11665 0.16102
 C327 C 0.88450 -0.09353 0.13981
 C328 C 0.80251 -0.19864 0.18327
 C329 C 0.88965 -0.14364 0.08880
 C330 C 0.86493 -0.16665 0.10999
 C331 C 0.82432 -0.17739 0.16737
 C332 C 0.89980 -0.10691 0.10354
 H333 H 0.84820 -0.10597 0.18892
 H334 H 0.89186 -0.06536 0.15187
 H335 H 0.90097 -0.15473 0.06098
 H336 H 0.85748 -0.19491 0.09815
 C337 C 0.84281 0.33926 0.65213
 C338 C 0.85173 0.37647 0.66634
 C339 C 0.87601 0.39986 0.64476
 C340 C 0.79561 0.29381 0.68991
 C341 C 0.88236 0.34901 0.59455
 C342 C 0.85813 0.32571 0.61613
 C343 C 0.81734 0.31504 0.67368
 C344 C 0.89164 0.38631 0.60865
 H345 H 0.83993 0.38740 0.69405
 H346 H 0.88268 0.42845 0.65639
 H347 H 0.89393 0.33773 0.56689
 H348 H 0.85132 0.29706 0.60470
 C349 C 0.34325 -0.15970 0.64954
 C350 C 0.33055 -0.14514 0.61322
 C351 C 0.35345 -0.12029 0.59207
 C352 C 0.29779 -0.20637 0.68744
 C353 C 0.40225 -0.12471 0.64337
 C354 C 0.37923 -0.14961 0.66454
 C355 C 0.31909 -0.18504 0.67098
 C356 C 0.38943 -0.10966 0.60701
 H357 H 0.30280 -0.15287 0.60130
 H358 H 0.34284 -0.10917 0.56415
 H359 H 0.42984 -0.11696 0.65557
 H360 H 0.38937 -0.16082 0.69259
 C361 C 0.34992 0.34580 0.15857
 C362 C 0.33622 0.38453 0.14800
 C363 C 0.35897 0.40703 0.12397
 C364 C 0.30254 0.29998 0.19541
 C365 C 0.40986 0.35257 0.12181
 C366 C 0.38702 0.33009 0.14584
 C367 C 0.32456 0.32114 0.17959
 C368 C 0.39572 0.39101 0.11006
 H369 H 0.30747 0.39694 0.15745
 H370 H 0.34733 0.43656 0.11546
 H371 H 0.43804 0.33946 0.11156
 H372 H 0.39785 0.30006 0.15362
 C373 C 0.83914 0.16372 -0.16605
 C374 C 0.84887 0.17858 -0.12946
 C375 C 0.87259 0.15484 -0.10392
 C376 C 0.79397 0.20499 -0.21668
 C377 C 0.87642 0.10121 -0.15134
 C378 C 0.85280 0.12490 -0.17673
 C379 C 0.81477 0.18747 -0.19288
 C380 C 0.88680 0.11597 -0.11476
 H381 H 0.83832 0.20850 -0.12076
 H382 H 0.88017 0.16703 -0.07597
 H383 H 0.88689 0.07145 -0.16056
 H384 H 0.84532 0.11295 -0.20485
 C385 C 0.84058 0.66128 0.33277
 C386 C 0.84854 0.67558 0.37001
 C387 C 0.86897 0.65062 0.39686
 C388 C 0.80138 0.70468 0.27982
 C389 C 0.87273 0.59693 0.34940
 C390 C 0.85237 0.62185 0.32270
 C391 C 0.81966 0.68625 0.30467
 C392 C 0.88158 0.61117 0.38660
 H393 H 0.83924 0.70599 0.37815
 H394 H 0.87550 0.66235 0.42531
 H395 H 0.88208 0.56671 0.34070
 H396 H 0.84605 0.61043 0.29404
 C397 C 0.34966 0.16655 0.34224
 C398 C 0.38767 0.15206 0.33126
 C399 C 0.41028 0.12666 0.35602
 C400 C 0.30340 0.20523 0.29098
 C401 C 0.35741 0.13117 0.40352
 C402 C 0.33481 0.15656 0.37867
 C403 C 0.32477 0.18857 0.31474
 C404 C 0.39506 0.11531 0.39204
 H405 H 0.39938 0.15940 0.30306
 H406 H 0.43921 0.11497 0.34644
 H407 H 0.34495 0.12293 0.43108
 H408 H 0.30532 0.16742 0.38736
 C409 C 0.34380 0.65565 -0.16691
 C410 C 0.37925 0.66834 -0.15323
 C411 C 0.40159 0.64513 -0.12642
 C412 C 0.29954 0.69756 -0.21726
 C413 C 0.35316 0.59633 -0.12728
 C414 C 0.33091 0.61955 -0.15407
 C415 C 0.32036 0.67930 -0.19419
 C416 C 0.38859 0.60903 -0.11305
 H417 H 0.38950 0.69618 -0.16311
 H418 H 0.42880 0.65561 -0.11590
 H419 H 0.34248 0.56867 -0.11747
 H420 H 0.30352 0.60945 -0.16462
 C421 C 1.17195 -0.15118 -0.16174
 C422 C 1.15825 -0.11266 -0.17292
 C423 C 1.13386 -0.08881 -0.14797
 C424 C 1.20749 -0.20022 -0.21343
 C425 C 1.13791 -0.14143 -0.09987
 C426 C 1.16229 -0.16526 -0.12490
 C427 C 1.19242 -0.17754 -0.18948
 C428 C 1.12274 -0.10331 -0.11156
 H429 H 1.16531 -0.10155 -0.20146
 H430 H 1.12267 -0.05954 -0.15772
 H431 H 1.12985 -0.15336 -0.07200
 H432 H 1.17251 -0.19514 -0.11605
 C433 C 1.16804 0.34809 0.34405
 C434 C 1.15447 0.38700 0.33408
 C435 C 1.12880 0.40949 0.35893
 C436 C 1.20712 0.30224 0.29190
 C437 C 1.13115 0.35474 0.40464
 C438 C 1.15682 0.33222 0.37966
 C439 C 1.19034 0.32339 0.31615
 C440 C 1.11624 0.39330 0.39408
 H441 H 1.16275 0.39952 0.30651
 H442 H 1.11789 0.43914 0.35006
 H443 H 1.12195 0.34151 0.43151
 H444 H 1.16693 0.30204 0.38758
 C445 C 0.66261 -0.16220 0.33359
 C446 C 0.62371 -0.15106 0.32318
 C447 C 0.59830 -0.13080 0.34973
 C448 C 0.70684 -0.20112 0.28072
 C449 C 0.65047 -0.13348 0.39769
 C450 C 0.67591 -0.15381 0.37100
 C451 C 0.68808 -0.18292 0.30561
 C452 C 0.61155 -0.12143 0.38707
 H453 H 0.61308 -0.15777 0.29437
 H454 H 0.56851 -0.12187 0.34077
 H455 H 0.66143 -0.12653 0.42627
 H456 H 0.70592 -0.16264 0.37939
 C457 C 0.66080 0.34061 -0.16764
 C458 C 0.67161 0.37740 -0.15430
 C459 C 0.64757 0.39967 -0.12778
 C460 C 0.70301 0.29761 -0.21961
 C461 C 0.60163 0.34849 -0.12806
 C462 C 0.62572 0.32627 -0.15456
 C463 C 0.68484 0.31777 -0.19555
 C464 C 0.61238 0.38537 -0.11434
 H465 H 0.69856 0.38889 -0.16440
 H466 H 0.65660 0.42799 -0.11769
 H467 H 0.57475 0.33674 -0.11818
 H468 H 0.61696 0.29790 -0.16489
 C469 C 1.15954 0.15778 -0.14579
 C470 C 1.14432 0.17142 -0.10983
 C471 C 1.11858 0.14901 -0.08921
 C472 C 1.20426 0.20238 -0.18713
 C473 C 1.12370 0.09883 -0.14017
 C474 C 1.14944 0.12130 -0.16077
 C475 C 1.18422 0.18192 -0.16801
 C476 C 1.10770 0.11271 -0.10439
 H477 H 1.15190 0.19965 -0.09802
 H478 H 1.10674 0.16041 -0.06169
 H479 H 1.11583 0.07097 -0.15254
 H480 H 1.16101 0.11051 -0.18862
 C481 C 1.14657 0.65586 0.35680
 C482 C 1.13735 0.61895 0.34210
 C483 C 1.11227 0.59591 0.36291
 C484 C 1.19243 0.69981 0.31597
 C485 C 1.10593 0.64645 0.41350
 C486 C 1.13101 0.66944 0.39264
 C487 C 1.17155 0.67995 0.33481
 C488 C 1.09610 0.60960 0.39869
 H489 H 1.14928 0.60814 0.31439
 H490 H 1.10521 0.56766 0.35082
 H491 H 1.09392 0.65773 0.44099
 H492 H 1.13799 0.69793 0.40431
 C493 C 0.65063 0.15286 0.36039
 C494 C 0.61517 0.14232 0.34459
 C495 C 0.59287 0.11584 0.36438
 C496 C 0.69484 0.19854 0.32015
 C497 C 0.64121 0.11104 0.41616
 C498 C 0.66343 0.13751 0.39634
 C499 C 0.67466 0.17805 0.33891
 C500 C 0.60598 0.09961 0.40011
 H501 H 0.60510 0.15406 0.31670
 H502 H 0.56582 0.10752 0.35143
 H503 H 0.65195 0.09903 0.44370
 H504 H 0.69088 0.14549 0.40873
 C505 C 0.65731 0.65920 -0.13802
 C506 C 0.61886 0.67326 -0.12817
 C507 C 0.59417 0.64824 -0.10941
 C508 C 0.70297 0.70536 -0.17619
 C509 C 0.64625 0.59484 -0.11084
 C510 C 0.67088 0.61990 -0.12959
 C511 C 0.68239 0.68461 -0.15807
 C512 C 0.60775 0.60887 -0.10036
 H513 H 0.60799 0.70354 -0.13492
 H514 H 0.56467 0.65984 -0.10161
 H515 H 0.65749 0.56467 -0.10417
 H516 H 0.70049 0.60865 -0.13744
 C517 C 0.84860 -0.15345 -0.15018
 C518 C 0.85845 -0.11682 -0.16491
 C519 C 0.88376 -0.09386 -0.14401
 C520 C 0.79966 -0.19825 -0.18661
 C521 C 0.88930 -0.14396 -0.09350
 C522 C 0.86407 -0.16682 -0.11439
 C523 C 0.82214 -0.17730 -0.17101
 C524 C 0.89951 -0.10725 -0.10810
 H525 H 0.84659 -0.10602 -0.19248
 H526 H 0.89110 -0.06573 -0.15601
 H527 H 0.90092 -0.15512 -0.06597
 H528 H 0.85659 -0.19500 -0.10255
 C529 C 0.84290 0.34084 0.35142
 C530 C 0.85771 0.32710 0.38733
 C531 C 0.88231 0.34992 0.40897
 C532 C 0.79507 0.29646 0.31343
 C533 C 0.87729 0.40059 0.35893
 C534 C 0.85264 0.37769 0.33729
 C535 C 0.81711 0.31718 0.32980
 C536 C 0.89242 0.38686 0.39496
 H537 H 0.85023 0.29871 0.39864
 H538 H 0.89352 0.33857 0.43659
 H539 H 0.88461 0.42893 0.34741
 H540 H 0.84120 0.38871 0.30963
 C541 C 0.34019 -0.15748 0.35075
 C542 C 0.37686 -0.14851 0.33639
 C543 C 0.40033 -0.12442 0.35815
 C544 C 0.29436 -0.20358 0.31199
 C545 C 0.35066 -0.11845 0.40885
 C546 C 0.32728 -0.14249 0.38709
 C547 C 0.31575 -0.18242 0.32880
 C548 C 0.38738 -0.10903 0.39456
 H549 H 0.38727 -0.16004 0.30839
 H550 H 0.42847 -0.11764 0.34638
 H551 H 0.33987 -0.10705 0.43675
 H552 H 0.29904 -0.14934 0.39861
 C553 C 0.34821 0.34723 -0.16063
 C554 C 0.38576 0.33182 -0.14935
 C555 C 0.40889 0.35434 -0.12567
 C556 C 0.30069 0.30112 -0.19676
 C557 C 0.35737 0.40825 -0.12537
 C558 C 0.33431 0.38570 -0.14906
 C559 C 0.32270 0.32244 -0.18121
 C560 C 0.39459 0.39248 -0.11284
 H561 H 0.39673 0.30199 -0.15796
 H562 H 0.43744 0.34145 -0.11648
 H563 H 0.34561 0.43756 -0.11599
 H564 H 0.30521 0.39785 -0.15744
 C565 C 1.16831 -0.15226 0.15959
 C566 C 1.15839 -0.16712 0.12305
 C567 C 1.13467 -0.14343 0.09755
 C568 C 1.20399 -0.20000 0.21202
 C569 C 1.13159 -0.08951 0.14462
 C570 C 1.15532 -0.11318 0.17002
 C571 C 1.18877 -0.17803 0.18770
 C572 C 1.12039 -0.10463 0.10842
 H573 H 1.16804 -0.19739 0.11472
 H574 H 1.12651 -0.15590 0.06990
 H575 H 1.12110 -0.05973 0.15381
 H576 H 1.16256 -0.10138 0.19826
 C577 C 1.16776 0.35103 0.65939
 C578 C 1.15301 0.38944 0.67024
 C579 C 1.12705 0.41162 0.64576
 C580 C 1.20706 0.30512 0.71059
 C581 C 1.13153 0.35755 0.59875
 C582 C 1.15749 0.33538 0.62333
 C583 C 1.19018 0.32640 0.68682
 C584 C 1.11540 0.39554 0.61017
 H585 H 1.16057 0.40175 0.69818
 H586 H 1.11516 0.44084 0.65526
 H587 H 1.12307 0.34445 0.57150
 H588 H 1.16853 0.30556 0.61476
 C589 C 0.66362 -0.15962 0.66936
 C590 C 0.62515 -0.14701 0.68055
 C591 C 0.59974 -0.12655 0.65435
 C592 C 0.70765 -0.19956 0.72149
 C593 C 0.65101 -0.13172 0.60517
 C594 C 0.67645 -0.15225 0.63150
 C595 C 0.68903 -0.18095 0.69690
 C596 C 0.61249 -0.11842 0.61648
 H597 H 0.61480 -0.15285 0.70969
 H598 H 0.57029 -0.11665 0.66391
 H599 H 0.66165 -0.12577 0.57619
 H600 H 0.70607 -0.16215 0.62243
 C601 C 0.65680 0.34303 0.16621
 C602 C 0.66845 0.37921 0.15237
 C603 C 0.64542 0.40084 0.12493
 C604 C 0.69789 0.30060 0.21862
 C605 C 0.59886 0.35021 0.12538
 C606 C 0.62192 0.32865 0.15280
 C607 C 0.68008 0.32059 0.19453
 C608 C 0.61048 0.38644 0.11109
 H609 H 0.69531 0.39065 0.16269
 H610 H 0.65508 0.42868 0.11441
 H611 H 0.57212 0.33844 0.11520
 H612 H 0.61260 0.30070 0.16349
 C613 C 0.83788 0.16204 0.16340
 C614 C 0.84796 0.17738 0.12719
 C615 C 0.87180 0.15392 0.10126
 C616 C 0.79307 0.20316 0.21480
 C617 C 0.87493 0.09963 0.14754
 C618 C 0.85118 0.12304 0.17331
 C619 C 0.81367 0.18561 0.19069
 C620 C 0.88576 0.11490 0.11139
 H621 H 0.83767 0.20748 0.11913
 H622 H 0.87976 0.16646 0.07363
 H623 H 0.88521 0.06972 0.15617
 H624 H 0.84340 0.11077 0.20115
 C625 C 0.83791 0.66528 0.66908
 C626 C 0.84979 0.62613 0.67980
 C627 C 0.87066 0.60055 0.65360
 C628 C 0.79760 0.70974 0.72137
 C629 C 0.86740 0.65298 0.60532
 C630 C 0.84645 0.67860 0.63166
 C631 C 0.81633 0.69092 0.69671
 C632 C 0.87998 0.61379 0.61620
 H633 H 0.84309 0.61539 0.70859
 H634 H 0.87996 0.57058 0.66284
 H635 H 0.87425 0.66400 0.57672
 H636 H 0.83716 0.70876 0.62295
 C637 C 0.35089 0.17131 0.65724
 C638 C 0.33591 0.16039 0.62118
 C639 C 0.35847 0.13443 0.59652
 C640 C 0.30429 0.20939 0.70899
 C641 C 0.41160 0.13143 0.64339
 C642 C 0.38904 0.15740 0.66795
 C643 C 0.32583 0.19316 0.68493
 C644 C 0.39616 0.11896 0.60788
 H645 H 0.30629 0.17079 0.61274
 H646 H 0.34587 0.12533 0.56932
 H647 H 0.44059 0.12006 0.65283
 H648 H 0.40081 0.16546 0.69591
 C649 C 0.34216 0.65646 0.16642
 C650 C 0.37790 0.66889 0.15301
 C651 C 0.40064 0.64539 0.12635
 C652 C 0.29728 0.69896 0.21675
 C653 C 0.35213 0.59674 0.12672
 C654 C 0.32946 0.62026 0.15335
 C655 C 0.31834 0.68043 0.19368
 C656 C 0.38785 0.60917 0.11280
 H657 H 0.38808 0.69678 0.16301
 H658 H 0.42805 0.65571 0.11610
 H659 H 0.34154 0.56902 0.11679
 H660 H 0.30189 0.61028 0.16364
   
