data_POSCAR
  _audit_creation_date              2014-09-24
  _audit_creation_method            'ToBaCCo'
  _symmetry_space_group_name_H-M    'P1'
  _symmetry_Int_Tables_number       1
  _symmetry_cell_setting            triclinic
  loop_
  _symmetry_equiv_pos_as_xyz
 x,y,z
_cell_length_a 49.4940
_cell_length_b 49.4116
_cell_length_c 50.3310
_cell_angle_alpha 90.342400
_cell_angle_beta 90.524400
_cell_angle_gamma 90.412500
loop_
  _atom_site_label
  _atom_site_type_symbol
  _atom_site_fract_x
  _atom_site_fract_y
  _atom_site_fract_z
N1 N 0.59441 0.66686 0.61256
 N2 N 0.58336 0.65573 0.63352
 C3 C 0.56128 0.66996 0.64022
 C4 C 0.55829 0.69114 0.62246
 C5 C 0.57981 0.68845 0.60524
 H6 H 0.54820 0.66507 0.65661
 H7 H 0.58461 0.70120 0.58856
 Cu8 Cu 0.59877 0.62341 0.64951
 Cu9 Cu 0.62665 0.65252 0.59578
 Cu10 Cu 0.65519 0.59605 0.62463
 N11 N 0.61544 0.59181 0.66576
 N12 N 0.63751 0.58141 0.65577
 C13 C 0.64492 0.55990 0.67022
 C14 C 0.62653 0.55633 0.69058
 C15 C 0.60804 0.57713 0.68704
 H16 H 0.66249 0.54785 0.66599
 H17 H 0.59051 0.58136 0.69896
 N18 N 0.67022 0.61362 0.59303
 N19 N 0.65931 0.63502 0.58182
 C20 C 0.67392 0.64178 0.56035
 C21 C 0.69510 0.62373 0.55790
 C22 C 0.69205 0.60624 0.57908
 H23 H 0.66926 0.65842 0.54729
 H24 H 0.70470 0.58925 0.58399
 H25 H 0.62105 0.61302 0.60768
 H26 H 0.64201 0.63537 0.62988
 N27 N 0.90532 0.32964 0.11312
 N28 N 0.91638 0.33975 0.13485
 C29 C 0.93803 0.32483 0.14157
 C30 C 0.94086 0.30416 0.12296
 C31 C 0.91953 0.30797 0.10522
 H32 H 0.95092 0.32905 0.15854
 H33 H 0.91467 0.29614 0.08769
 Cu34 Cu 0.90188 0.37209 0.15147
 Cu35 Cu 0.87363 0.34566 0.09624
 Cu36 Cu 0.84816 0.40383 0.12555
 N37 N 0.88736 0.40442 0.16808
 N38 N 0.86678 0.41716 0.15738
 C39 C 0.86105 0.43903 0.17232
 C40 C 0.87888 0.43994 0.19367
 C41 C 0.89528 0.41763 0.19034
 H42 H 0.84474 0.45289 0.16828
 H43 H 0.91187 0.41166 0.20307
 N44 N 0.83218 0.38703 0.09339
 N45 N 0.84177 0.36489 0.08226
 C46 C 0.82637 0.35847 0.06090
 C47 C 0.80601 0.37743 0.05844
 C48 C 0.81042 0.39522 0.07945
 H49 H 0.82983 0.34128 0.04804
 H50 H 0.79859 0.41279 0.08439
 H51 H 0.88114 0.38470 0.10927
 H52 H 0.85826 0.36362 0.13007
 N53 N 0.40461 0.16849 -0.11188
 N54 N 0.41676 0.15690 -0.13204
 C55 C 0.43869 0.17171 -0.13845
 C56 C 0.44022 0.19387 -0.12153
 C57 C 0.41824 0.19115 -0.10493
 H58 H 0.45219 0.16710 -0.15459
 H59 H 0.41268 0.20453 -0.08885
 Cu60 Cu 0.40181 0.12433 -0.14850
 Cu61 Cu 0.37225 0.15318 -0.09587
 Cu62 Cu 0.34600 0.09451 -0.12469
 N63 N 0.38688 0.09169 -0.16485
 N64 N 0.36497 0.08017 -0.15549
 C65 C 0.35871 0.05834 -0.17050
 C66 C 0.37770 0.05600 -0.19048
 C67 C 0.39528 0.07760 -0.18617
 H68 H 0.34159 0.04517 -0.16705
 H69 H 0.41271 0.08288 -0.19786
 N70 N 0.32986 0.11220 -0.09343
 N71 N 0.33979 0.13455 -0.08255
 C72 C 0.32477 0.14119 -0.06134
 C73 C 0.30437 0.12209 -0.05861
 C74 C 0.30826 0.10405 -0.07941
 H75 H 0.32876 0.15840 -0.04853
 H76 H 0.29640 0.08616 -0.08392
 H77 H 0.37900 0.11349 -0.10718
 H78 H 0.35767 0.13426 -0.12988
 N79 N 0.09360 0.83190 0.38330
 N80 N 0.08010 0.84600 0.36566
 C81 C 0.05739 0.83250 0.35879
 C82 C 0.05647 0.80841 0.37285
 C83 C 0.08003 0.80876 0.38813
 H84 H 0.04279 0.83982 0.34451
 H85 H 0.08653 0.79382 0.40236
 Cu86 Cu 0.09289 0.88087 0.35330
 Cu87 Cu 0.12657 0.84576 0.40014
 Cu88 Cu 0.15414 0.90372 0.37296
 N89 N 0.11139 0.90978 0.33472
 N90 N 0.13527 0.91872 0.34237
 C91 C 0.14293 0.93901 0.32631
 C92 C 0.12273 0.94304 0.30747
 C93 C 0.10304 0.92399 0.31350
 H94 H 0.16175 0.95008 0.32840
 H95 H 0.08394 0.92068 0.30340
 N96 N 0.17004 0.88548 0.40398
 N97 N 0.15966 0.86330 0.41432
 C98 C 0.17441 0.85643 0.43585
 C99 C 0.19511 0.87524 0.43929
 C100 C 0.19165 0.89330 0.41859
 H101 H 0.16991 0.83942 0.44848
 H102 H 0.20368 0.91111 0.41464
 H103 H 0.12150 0.88643 0.39258
 H104 H 0.13760 0.86556 0.36589
 C105 C 0.10677 0.12700 0.14602
 C106 C 0.08719 0.14735 0.14489
 C107 C 0.08729 0.16643 0.12427
 C108 C 0.10758 0.16523 0.10493
 C109 C 0.12737 0.14508 0.10588
 C110 C 0.12694 0.12582 0.12645
 C111 C 0.10617 0.10750 0.16613
 C112 C 0.12532 0.08661 0.16688
 C113 C 0.14558 0.08576 0.14747
 C114 C 0.14647 0.10516 0.12724
 C115 C 0.16627 0.10395 0.10751
 C116 C 0.16678 0.12305 0.08689
 C117 C 0.14730 0.14362 0.08632
 H118 H 0.07140 0.14789 0.15967
 H119 H 0.10799 0.18005 0.08914
 H120 H 0.09073 0.10857 0.18123
 H121 H 0.16024 0.06957 0.14767
 H122 H 0.18137 0.08818 0.10825
 H123 H 0.14727 0.15815 0.07027
 C124 C 0.39364 0.87137 0.64665
 C125 C 0.41298 0.85077 0.64557
 C126 C 0.41202 0.83113 0.62523
 C127 C 0.39119 0.83212 0.60606
 C128 C 0.37175 0.85260 0.60686
 C129 C 0.37295 0.87232 0.62722
 C130 C 0.39491 0.89127 0.66662
 C131 C 0.37575 0.91215 0.66751
 C132 C 0.35507 0.91283 0.64816
 C133 C 0.35362 0.89315 0.62798
 C134 C 0.33337 0.89420 0.60832
 C135 C 0.33221 0.87476 0.58779
 C136 C 0.35142 0.85393 0.58734
 H137 H 0.42919 0.85043 0.66019
 H138 H 0.39008 0.81688 0.59051
 H139 H 0.41075 0.89041 0.68160
 H140 H 0.34045 0.92905 0.64846
 H141 H 0.31845 0.91013 0.60904
 H142 H 0.35097 0.83910 0.57138
 C143 C 0.89563 0.62358 0.35568
 C144 C 0.91509 0.64434 0.35598
 C145 C 0.91391 0.66529 0.37490
 C146 C 0.89316 0.66531 0.39377
 C147 C 0.87376 0.64447 0.39397
 C148 C 0.87496 0.62354 0.37482
 C149 C 0.89653 0.60282 0.33657
 C150 C 0.87725 0.58182 0.33657
 C151 C 0.85686 0.58175 0.35580
 C152 C 0.85555 0.60251 0.37486
 C153 C 0.83521 0.60246 0.39405
 C154 C 0.83409 0.62299 0.41349
 C155 C 0.85337 0.64406 0.41317
 H156 H 0.93096 0.64446 0.34127
 H157 H 0.89241 0.68137 0.40852
 H158 H 0.91244 0.60276 0.32191
 H159 H 0.84184 0.56567 0.35571
 H160 H 0.82015 0.58641 0.39380
 H161 H 0.85290 0.65980 0.42824
 C162 C 0.60380 0.37829 -0.14563
 C163 C 0.58334 0.35851 -0.14529
 C164 C 0.58317 0.33841 -0.12564
 C165 C 0.60374 0.33817 -0.10620
 C166 C 0.62413 0.35804 -0.10604
 C167 C 0.62419 0.37815 -0.12584
 C168 C 0.60427 0.39815 -0.16546
 C169 C 0.62489 0.41789 -0.16580
 C170 C 0.64483 0.41787 -0.14573
 C171 C 0.64461 0.39819 -0.12580
 C172 C 0.66450 0.39830 -0.10581
 C173 C 0.66438 0.37859 -0.08579
 C174 C 0.64426 0.35834 -0.08620
 H175 H 0.56765 0.35855 -0.16046
 H176 H 0.60349 0.32284 -0.09088
 H177 H 0.58891 0.39790 -0.18096
 H178 H 0.66046 0.43335 -0.14551
 H179 H 0.68024 0.41367 -0.10593
 H180 H 0.64388 0.34320 -0.07071
 C181 C 0.00223 0.24537 0.11995
 C182 C -0.01783 0.24574 0.10008
 C183 C -0.03819 0.26508 0.10112
 C184 C -0.03886 0.28423 0.12193
 C185 C -0.01849 0.28281 0.14162
 N186 N 0.00108 0.26372 0.14015
 C187 C 0.02421 0.22517 0.12006
 N188 N 0.03650 0.21905 0.14356
 C189 C 0.05667 0.20061 0.14537
 C190 C 0.06577 0.18713 0.12254
 C191 C 0.05372 0.19347 0.09803
 C192 C 0.03303 0.21246 0.09668
 H193 H -0.05331 0.26477 0.08549
 H194 H -0.01789 0.29669 0.15827
 H195 H 0.06570 0.19664 0.16461
 H196 H 0.06004 0.18347 0.07995
 H197 H -0.01824 0.23100 0.08411
 H198 H 0.02442 0.21725 0.07747
 C199 C 0.49585 0.75087 0.62028
 C200 C 0.51482 0.74969 0.59974
 C201 C 0.53504 0.73022 0.60045
 C202 C 0.53672 0.71190 0.62162
 C203 C 0.51749 0.71393 0.64190
 N204 N 0.49794 0.73311 0.64077
 C205 C 0.47410 0.77132 0.62066
 N206 N 0.46304 0.77843 0.64436
 C207 C 0.44323 0.79726 0.64632
 C208 C 0.43325 0.81011 0.62347
 C209 C 0.44406 0.80276 0.59881
 C210 C 0.46435 0.78340 0.59729
 H211 H 0.54930 0.72967 0.58432
 H212 H 0.51795 0.70046 0.65874
 H213 H 0.43516 0.80200 0.66570
 H214 H 0.43710 0.81225 0.58069
 H215 H 0.51451 0.76389 0.58348
 H216 H 0.47194 0.77785 0.57796
 C217 C 0.99445 0.74950 0.37282
 C218 C 0.99077 0.77357 0.35872
 C219 C 1.01143 0.79289 0.35837
 C220 C 1.03579 0.78860 0.37236
 C221 C 1.03862 0.76395 0.38604
 N222 N 1.01829 0.74529 0.38573
 C223 C 0.97323 0.72840 0.37350
 N224 N 0.98053 0.70189 0.37375
 C225 C 0.96198 0.68147 0.37414
 C226 C 0.93430 0.68730 0.37477
 C227 C 0.92633 0.71446 0.37505
 C228 C 0.94571 0.73507 0.37426
 H229 H 1.00790 0.81127 0.34739
 H230 H 1.05694 0.75921 0.39681
 H231 H 0.96885 0.66072 0.37419
 H232 H 0.90512 0.71968 0.37552
 H233 H 0.97228 0.77728 0.34771
 H234 H 0.93925 0.75595 0.37463
 C235 C 0.49905 0.25761 -0.12264
 C236 C 0.47362 0.26236 -0.11147
 C237 C 0.45450 0.24150 -0.11090
 C238 C 0.46052 0.21600 -0.12163
 C239 C 0.48622 0.21205 -0.13249
 N240 N 0.50465 0.23259 -0.13254
 C241 C 0.52010 0.27894 -0.12344
 N242 N 0.54656 0.27177 -0.12161
 C243 C 0.56696 0.29034 -0.12215
 C244 C 0.56120 0.31792 -0.12513
 C245 C 0.53411 0.32572 -0.12748
 C246 C 0.51351 0.30634 -0.12655
 H247 H 0.43492 0.24546 -0.10235
 H248 H 0.49183 0.19260 -0.14065
 H249 H 0.58765 0.28353 -0.12056
 H250 H 0.52889 0.34684 -0.12974
 H251 H 0.46867 0.28181 -0.10288
 H252 H 0.49274 0.31272 -0.12868
 C253 C 0.12056 0.00311 0.24631
 C254 C 0.09896 -0.01528 0.24875
 C255 C 0.09971 -0.03484 0.26859
 C256 C 0.12195 -0.03641 0.28603
 C257 C 0.14334 -0.01792 0.28261
 N258 N 0.14211 0.00101 0.26315
 C259 C 0.12086 0.02445 0.22575
 N260 N 0.14502 0.03527 0.21834
 C261 C 0.14697 0.05501 0.19973
 C262 C 0.12362 0.06523 0.18745
 C263 C 0.09850 0.05457 0.19499
 C264 C 0.09700 0.03433 0.21412
 H265 H 0.08280 -0.04870 0.27009
 H266 H 0.16102 -0.01831 0.29534
 H267 H 0.16674 0.06289 0.19479
 H268 H 0.07997 0.06168 0.18591
 H269 H 0.08180 -0.01501 0.23531
 H270 H 0.07731 0.02696 0.21989
 C271 C 0.62802 0.49671 -0.24971
 C272 C 0.64801 0.49693 -0.26925
 C273 C 0.64744 0.51655 -0.28900
 C274 C 0.62691 0.53614 -0.28966
 C275 C 0.60692 0.53476 -0.26994
 N276 N 0.60798 0.51539 -0.25085
 C277 C 0.62795 0.47641 -0.22817
 N278 N 0.60414 0.46961 -0.21652
 C279 C 0.60260 0.45103 -0.19672
 C280 C 0.62605 0.43823 -0.18737
 C281 C 0.65083 0.44522 -0.19887
 C282 C 0.65189 0.46428 -0.21913
 H283 H 0.66322 0.51604 -0.30366
 H284 H 0.59045 0.54898 -0.26945
 H285 H 0.58314 0.44654 -0.18811
 H286 H 0.66940 0.43576 -0.19236
 H287 H 0.66377 0.48189 -0.26969
 H288 H 0.67135 0.46966 -0.22723
 C289 C 0.38068 0.99548 0.74818
 C290 C 0.40205 1.01416 0.75107
 C291 C 0.40110 1.03382 0.77104
 C292 C 0.37888 1.03518 0.78814
 C293 C 0.35776 1.01636 0.78432
 N294 N 0.35917 0.99737 0.76473
 C295 C 0.38043 0.97415 0.72733
 N296 N 0.35633 0.96294 0.71977
 C297 C 0.35434 0.94325 0.70086
 C298 C 0.37761 0.93350 0.68837
 C299 C 0.40271 0.94452 0.69608
 C300 C 0.40424 0.96471 0.71554
 H301 H 0.41785 1.04788 0.77297
 H302 H 0.34005 1.01667 0.79670
 H303 H 0.33461 0.93502 0.69584
 H304 H 0.42117 0.93773 0.68686
 H305 H 0.41916 1.01407 0.73786
 H306 H 0.42392 0.97240 0.72142
 C307 C 0.88036 0.49818 0.25680
 C308 C 0.89136 0.47244 0.26102
 C309 C 0.89114 0.45349 0.24034
 C310 C 0.87978 0.46003 0.21557
 C311 C 0.86919 0.48606 0.21213
 N312 N 0.86990 0.50427 0.23247
 C313 C 0.88011 0.51902 0.27796
 N314 N 0.88194 0.54557 0.27109
 C315 C 0.88142 0.56585 0.28944
 C316 C 0.87839 0.55988 0.31647
 C317 C 0.87615 0.53268 0.32398
 C318 C 0.87713 0.51218 0.30482
 H319 H 0.89951 0.43365 0.24388
 H320 H 0.86059 0.49207 0.19325
 H321 H 0.88288 0.58663 0.28288
 H322 H 0.87378 0.52731 0.34466
 H323 H 0.90038 0.46709 0.27992
 H324 H 0.87499 0.49133 0.31094
 C325 C 0.24505 0.11848 0.00288
 C326 C 0.24689 0.09710 -0.01552
 C327 C 0.26614 0.09829 -0.03557
 C328 C 0.28355 0.12075 -0.03755
 C329 C 0.28076 0.14185 -0.01896
 N330 N 0.26186 0.14021 0.00040
 C331 C 0.22496 0.11856 0.02454
 N332 N 0.21812 0.14266 0.03579
 C333 C 0.19985 0.14457 0.05569
 C334 C 0.18727 0.12121 0.06560
 C335 C 0.19431 0.09609 0.05461
 C336 C 0.21314 0.09465 0.03420
 H337 H 0.26730 0.08153 -0.04940
 H338 H 0.29342 0.15973 -0.01971
 H339 H 0.19535 0.16431 0.06387
 H340 H 0.18499 0.07758 0.06156
 H341 H 0.23344 0.07980 -0.01489
 H342 H 0.21848 0.07497 0.02646
 C343 C 0.75472 0.62042 0.49666
 C344 C 0.75363 0.59994 0.51584
 C345 C 0.73430 0.60110 0.53576
 C346 C 0.71600 0.62265 0.53690
 C347 C 0.71806 0.64298 0.51759
 N348 N 0.73709 0.64139 0.49831
 C349 C 0.77490 0.62020 0.47507
 N350 N 0.78172 0.64396 0.46320
 C351 C 0.80033 0.64539 0.44352
 C352 C 0.81329 0.62188 0.43457
 C353 C 0.80623 0.59713 0.44625
 C354 C 0.78703 0.59617 0.46630
 H355 H 0.73382 0.58497 0.55016
 H356 H 0.70469 0.66017 0.51772
 H357 H 0.80480 0.66484 0.43475
 H358 H 0.81581 0.57851 0.44012
 H359 H 0.76775 0.58335 0.51591
 H360 H 0.78167 0.57670 0.47449
 C361 C 0.74432 0.38088 -0.00182
 C362 C 0.74624 0.40152 0.01741
 C363 C 0.76625 0.40036 0.03704
 C364 C 0.78437 0.37863 0.03781
 C365 C 0.78140 0.35812 0.01850
 N366 N 0.76175 0.35974 -0.00048
 C367 C 0.72363 0.38115 -0.02326
 N368 N 0.71615 0.35732 -0.03504
 C369 C 0.69734 0.35596 -0.05488
 C370 C 0.68497 0.37961 -0.06417
 C371 C 0.69262 0.40441 -0.05255
 C372 C 0.71194 0.40530 -0.03223
 H373 H 0.76738 0.41657 0.05152
 H374 H 0.79456 0.34077 0.01834
 H375 H 0.69235 0.33646 -0.06360
 H376 H 0.68350 0.42313 -0.05902
 H377 H 0.73226 0.41824 0.01769
 H378 H 0.71785 0.42477 -0.02407
 C379 C 0.25356 0.87906 0.50269
 C380 C 0.25212 0.90023 0.48426
 C381 C 0.23318 0.89894 0.46359
 C382 C 0.21563 0.87658 0.46101
 C383 C 0.21800 0.85567 0.47967
 N384 N 0.23664 0.85739 0.49963
 C385 C 0.27347 0.87906 0.52488
 N386 N 0.28026 0.85501 0.53610
 C387 C 0.29861 0.85318 0.55625
 C388 C 0.31140 0.87655 0.56642
 C389 C 0.30433 0.90163 0.55551
 C390 C 0.28536 0.90300 0.53488
 H391 H 0.23240 0.91554 0.44973
 H392 H 0.20523 0.83787 0.47845
 H393 H 0.30309 0.83348 0.56438
 H394 H 0.31377 0.92016 0.56263
 H395 H 0.26569 0.91745 0.48533
 H396 H 0.28004 0.92265 0.52718
   
