data_POSCAR
  _audit_creation_date              2014-09-24
  _audit_creation_method            'ToBaCCo'
  _symmetry_space_group_name_H-M    'P1'
  _symmetry_Int_Tables_number       1
  _symmetry_cell_setting            triclinic
  loop_
  _symmetry_equiv_pos_as_xyz
 x,y,z
_cell_length_a 41.5419
_cell_length_b 41.5209
_cell_length_c 41.6173
_cell_angle_alpha 90.047600
_cell_angle_beta 90.055800
_cell_angle_gamma 89.835100
loop_
  _atom_site_label
  _atom_site_type_symbol
  _atom_site_fract_x
  _atom_site_fract_y
  _atom_site_fract_z
C1 C 0.33845 0.33432 1.37977
 C2 C 0.31070 0.34654 1.39470
 C3 C 0.29530 0.37397 1.38238
 C4 C 0.30763 0.38945 1.35513
 C5 C 0.33534 0.37754 1.33992
 C6 C 0.35085 0.34984 1.35225
 C7 C 0.35382 0.30665 1.39166
 C8 C 0.38130 0.29439 1.37634
 C9 C 0.39368 0.30982 1.34908
 C10 C 0.37860 0.33751 1.33688
 C11 C 0.39055 0.35290 1.30939
 C12 C 0.37508 0.38030 1.29717
 C13 C 0.34762 0.39263 1.31241
 H14 H 0.30098 0.33460 1.41573
 H15 H 0.29554 0.41062 1.34564
 H16 H 0.34429 0.29454 1.41269
 H17 H 0.41489 0.30016 1.33726
 H18 H 0.41173 0.34349 1.29735
 H19 H 0.33576 0.41379 1.30268
 C20 C 1.16126 0.66524 0.87760
 C21 C 1.18888 0.65295 0.89272
 C22 C 1.20427 0.62547 0.88048
 C23 C 1.19205 0.61001 0.85312
 C24 C 1.16446 0.62199 0.83772
 C25 C 1.14896 0.64975 0.84997
 C26 C 1.14591 0.69295 0.88942
 C27 C 1.11855 0.70530 0.87392
 C28 C 1.10626 0.68991 0.84655
 C29 C 1.12133 0.66216 0.83442
 C30 C 1.10947 0.64679 0.80682
 C31 C 1.12493 0.61933 0.79468
 C32 C 1.15227 0.60693 0.81010
 H33 H 1.19851 0.66487 0.91384
 H34 H 1.20413 0.58880 0.84370
 H35 H 1.15537 0.70503 0.91054
 H36 H 1.08515 0.69964 0.83460
 H37 H 1.08839 0.65626 0.79464
 H38 H 1.16412 0.58572 0.80044
 C39 C 0.66200 -0.16403 0.12130
 C40 C 0.68955 -0.15180 0.10619
 C41 C 0.70495 -0.12447 0.11853
 C42 C 0.69285 -0.10907 0.14596
 C43 C 0.66532 -0.12096 0.16137
 C44 C 0.64980 -0.14859 0.14902
 C45 C 0.64662 -0.19161 0.10939
 C46 C 0.61934 -0.20388 0.12490
 C47 C 0.60715 -0.18854 0.15235
 C48 C 0.62224 -0.16093 0.16457
 C49 C 0.61048 -0.14562 0.19225
 C50 C 0.62597 -0.11830 0.20449
 C51 C 0.65324 -0.10596 0.18908
 H52 H 0.69918 -0.16361 0.08501
 H53 H 0.70501 -0.08799 0.15538
 H54 H 0.65601 -0.20365 0.08821
 H55 H 0.58609 -0.19821 0.16431
 H56 H 0.58945 -0.15505 0.20443
 H57 H 0.66511 -0.08487 0.19882
 C58 C -0.16148 1.16390 -0.37990
 C59 C -0.18920 1.15176 -0.39486
 C60 C -0.20460 1.12446 -0.38246
 C61 C -0.19229 1.10904 -0.35510
 C62 C -0.16461 1.12088 -0.33986
 C63 C -0.14911 1.14844 -0.35227
 C64 C -0.14611 1.19144 -0.39185
 C65 C -0.11870 1.20361 -0.37649
 C66 C -0.10633 1.18827 -0.34915
 C67 C -0.12139 1.16071 -0.33687
 C68 C -0.10946 1.14540 -0.30927
 C69 C -0.12493 1.11814 -0.29696
 C70 C -0.15235 1.10587 -0.31222
 H71 H -0.19890 1.16365 -0.41598
 H72 H -0.20439 1.08798 -0.34555
 H73 H -0.15556 1.20356 -0.41294
 H74 H -0.08516 1.19796 -0.33736
 H75 H -0.08831 1.15478 -0.29720
 H76 H -0.16422 1.08481 -0.30243
 C77 C 0.66133 0.66429 0.62299
 C78 C 0.68893 0.65176 0.60807
 C79 C 0.70412 0.62430 0.62051
 C80 C 0.69177 0.60906 0.64785
 C81 C 0.66419 0.62126 0.66307
 C82 C 0.64887 0.64902 0.65062
 C83 C 0.64617 0.69200 0.61096
 C84 C 0.61883 0.70458 0.62627
 C85 C 0.60637 0.68942 0.65365
 C86 C 0.62126 0.66167 0.66598
 C87 C 0.60924 0.64652 0.69358
 C88 C 0.62452 0.61906 0.70592
 C89 C 0.65184 0.60643 0.69070
 H90 H 0.69875 0.66344 0.58696
 H91 H 0.70378 0.58788 0.65735
 H92 H 0.65576 0.70390 0.58984
 H93 H 0.58527 0.69933 0.66545
 H94 H 0.58816 0.65618 0.70561
 H95 H 0.66356 0.58522 0.70051
 C96 C 0.83686 0.33518 0.12021
 C97 C 0.80910 0.34761 0.10546
 C98 C 0.79387 0.37503 0.11805
 C99 C 0.80640 0.39028 0.14540
 C100 C 0.83413 0.37815 0.16043
 C101 C 0.84946 0.35046 0.14782
 C102 C 0.85206 0.30753 0.10803
 C103 C 0.87956 0.29506 0.12317
 C104 C 0.89214 0.31025 0.15051
 C105 C 0.87724 0.33791 0.16299
 C106 C 0.88940 0.35307 0.19057
 C107 C 0.87411 0.38045 0.20307
 C108 C 0.84663 0.39300 0.18803
 H109 H 0.79922 0.33586 0.08435
 H110 H 0.79445 0.41143 0.15509
 H111 H 0.84237 0.29560 0.08693
 H112 H 0.91338 0.30042 0.16219
 H113 H 0.91060 0.34348 0.20246
 H114 H 0.83490 0.41415 0.19797
 C115 C 0.33801 0.16520 0.87933
 C116 C 0.31035 0.15283 0.89412
 C117 C 0.29520 0.12543 0.88157
 C118 C 0.30769 0.11013 0.85423
 C119 C 0.33533 0.12221 0.83915
 C120 C 0.35058 0.14987 0.85171
 C121 C 0.35314 0.19284 0.89144
 C122 C 0.38052 0.20523 0.87625
 C123 C 0.39308 0.19002 0.84892
 C124 C 0.37825 0.16237 0.83648
 C125 C 0.39038 0.14718 0.80890
 C126 C 0.37516 0.11981 0.79645
 C127 C 0.34779 0.10732 0.81154
 H128 H 0.30050 0.16462 0.91523
 H129 H 0.29580 0.08900 0.84456
 H130 H 0.34355 0.20486 0.91252
 H131 H 0.41421 0.19988 0.83727
 H132 H 0.41150 0.15673 0.79697
 H133 H 0.33611 0.08618 0.80163
 C134 C 0.16194 0.83418 0.37817
 C135 C 0.18955 0.84656 0.39312
 C136 C 0.20473 0.87393 0.38069
 C137 C 0.19237 0.88921 0.35331
 C138 C 0.16480 0.87716 0.33806
 C139 C 0.14948 0.84950 0.35050
 C140 C 0.14677 0.80656 0.39018
 C141 C 0.11942 0.79415 0.37482
 C142 C 0.10697 0.80937 0.34742
 C143 C 0.12186 0.83701 0.33510
 C144 C 0.10984 0.85221 0.30747
 C145 C 0.12512 0.87957 0.29514
 C146 C 0.15245 0.89205 0.31040
 H147 H 0.19938 0.83484 0.41426
 H148 H 0.20438 0.91032 0.34381
 H149 H 0.15635 0.79461 0.41132
 H150 H 0.08586 0.79958 0.33558
 H151 H 0.08876 0.84268 0.29540
 H152 H 0.16417 0.91318 0.30060
 Zn153 Zn 0.00636 1.03964 -0.01988
 Zn154 Zn -0.02474 0.97488 -0.02611
 Zn155 Zn 0.04000 0.98113 0.00511
 Zn156 Zn -0.01854 1.00623 0.03848
 O157 O 0.00075 1.00044 -0.00063
 O158 O -0.01396 1.04248 -0.05767
 O159 O -0.00481 0.93848 -0.03845
 O160 O 0.07273 1.00498 -0.00953
 O161 O -0.03713 0.99468 -0.06244
 O162 O 0.04775 1.04840 -0.02808
 O163 O 0.04303 0.94333 -0.01532
 O164 O 0.00530 0.99143 0.07122
 O165 O -0.06108 0.96255 -0.00633
 O166 O 0.04870 0.97271 0.04643
 O167 O -0.05626 0.98585 0.04137
 O168 O -0.02704 1.04766 0.04716
 O169 O -0.00862 1.07246 0.00381
 C170 C -0.03124 1.02266 -0.07307
 C171 C 0.02325 0.92788 -0.03261
 C172 C 0.07324 1.03236 -0.02296
 C173 C 0.03265 0.97783 0.07182
 C174 C -0.07168 0.96851 0.02162
 C175 C -0.02213 1.07309 0.03109
 Zn176 Zn 0.46110 0.01875 0.50652
 Zn177 Zn 0.52576 0.02507 0.47533
 Zn178 Zn 0.51973 -0.00613 0.53995
 Zn179 Zn 0.49482 -0.03974 0.48159
 O180 O 0.50038 -0.00049 0.50082
 O181 O 0.45799 0.05653 0.48617
 O182 O 0.56212 0.03747 0.49510
 O183 O 0.49592 0.00875 0.57265
 O184 O 0.50576 0.06144 0.46300
 O185 O 0.45238 0.02715 0.54784
 O186 O 0.55748 0.01425 0.54282
 O187 O 0.50968 -0.07250 0.50543
 O188 O 0.53816 0.00521 0.43902
 O189 O 0.52815 -0.04753 0.54874
 O190 O 0.51524 -0.04270 0.44389
 O191 O 0.45346 -0.04852 0.47320
 O192 O 0.42841 -0.00514 0.49175
 C193 C 0.47771 0.07200 0.46890
 C194 C 0.57282 0.03157 0.52304
 C195 C 0.46850 0.02220 0.57323
 C196 C 0.52313 -0.07303 0.53277
 C197 C 0.53242 -0.02285 0.42846
 C198 C 0.42795 -0.03251 0.47826
 Zn199 Zn 1.01933 0.50545 0.45969
 Zn200 Zn 0.96087 0.48058 0.49302
 Zn201 Zn 1.02558 0.47427 0.52435
 Zn202 Zn 0.99424 0.53906 0.51802
 O203 O 1.00004 0.49981 0.49880
 O204 O 0.99553 0.49071 0.42692
 O205 O 0.95804 0.44274 0.51328
 O206 O 1.06198 0.46183 0.50461
 O207 O 0.95211 0.47230 0.45168
 O208 O 1.05714 0.48495 0.45684
 O209 O 1.00580 0.43789 0.53663
 O210 O 1.01465 0.54202 0.55574
 O211 O 0.92806 0.50438 0.50789
 O212 O 1.03789 0.49414 0.56068
 O213 O 0.95284 0.54781 0.52641
 O214 O 1.00896 0.57182 0.49424
 O215 O 1.02767 0.54685 0.45100
 C216 C 0.96816 0.47732 0.42630
 C217 C 0.97783 0.42729 0.53062
 C218 C 1.07259 0.46765 0.47666
 C219 C 1.03197 0.52221 0.57121
 C220 C 0.92744 0.53173 0.52141
 C221 C 1.02252 0.57234 0.46698
 Zn222 Zn 0.49288 0.54089 0.98256
 Zn223 Zn 0.45946 0.48252 1.00761
 Zn224 Zn 0.52413 0.47603 0.97634
 Zn225 Zn 0.51802 0.50741 1.04094
 O226 O 0.49865 0.50169 1.00184
 O227 O 0.45147 0.54969 0.97418
 O228 O 0.45652 0.44468 0.98732
 O229 O 0.53643 0.49579 0.94001
 O230 O 0.42664 0.50638 0.99280
 O231 O 0.51323 0.54371 0.94484
 O232 O 0.50427 0.43968 0.96406
 O233 O 0.55583 0.48692 1.04382
 O234 O 0.45083 0.47424 1.04895
 O235 O 0.56054 0.46358 0.99611
 O236 O 0.49430 0.49269 1.07370
 O237 O 0.52639 0.54883 1.04961
 O238 O 0.50770 0.57369 1.00630
 C239 C 0.42604 0.53369 0.97924
 C240 C 0.47628 0.42915 0.97001
 C241 C 0.53052 0.52382 0.92943
 C242 C 0.57121 0.46950 1.02405
 C243 C 0.46695 0.47925 1.07433
 C244 C 0.52128 0.57427 1.03358
 C245 C 1.21426 0.40740 0.42247
 N246 N 1.18836 0.38787 0.42577
 N247 N 1.16082 0.39934 0.43763
 C248 C 1.15837 0.43066 0.44658
 N249 N 1.18429 0.45017 0.44332
 N250 N 1.21183 0.43871 0.43146
 C251 C 1.24353 0.39534 0.40861
 C252 C 1.26793 0.38529 0.39650
 C253 C 1.12833 0.44336 0.45802
 C254 C 1.10295 0.45429 0.46694
 C255 C 0.28493 0.59218 0.92153
 N256 N 0.28818 0.56045 0.92860
 N257 N 0.31558 0.54924 0.94103
 C258 C 0.34055 0.56942 0.94680
 N259 N 0.33728 0.60115 0.93978
 N260 N 0.30988 0.61236 0.92734
 C261 C 0.25580 0.60408 0.90723
 C262 C 0.23151 0.61409 0.89483
 C263 C 0.37046 0.55712 0.95901
 C264 C 0.39576 0.54657 0.96863
 C265 C -0.21291 0.90924 0.07693
 N266 N -0.21042 0.94060 0.06825
 N267 N -0.18300 0.95185 0.05609
 C268 C -0.15726 0.93206 0.05221
 N269 N -0.15977 0.90068 0.06085
 N270 N -0.18719 0.88943 0.07301
 C271 C -0.24205 0.89738 0.09108
 C272 C -0.26632 0.88744 0.10339
 C273 C -0.12731 0.94453 0.04050
 C274 C -0.10198 0.95529 0.03143
 C275 C 0.71440 0.09133 0.57736
 N276 N 0.71204 0.06004 0.56829
 N277 N 0.68452 0.04869 0.55639
 C278 C 0.65853 0.06828 0.55319
 N279 N 0.66091 0.09958 0.56222
 N280 N 0.68843 0.11093 0.57412
 C281 C 0.74366 0.10326 0.59125
 C282 C 0.76805 0.11323 0.60339
 C283 C 0.62851 0.05569 0.54171
 C284 C 0.60314 0.04485 0.53278
 C285 C 0.42206 0.21350 0.40949
 N286 N 0.43081 0.21098 0.44079
 N287 N 0.44299 0.18349 0.45208
 C288 C 0.44682 0.15771 0.43240
 N289 N 0.43812 0.16025 0.40108
 N290 N 0.42594 0.18774 0.38979
 C291 C 0.40792 0.24272 0.39759
 C292 C 0.39560 0.26707 0.38762
 C293 C 0.45859 0.12770 0.44490
 C294 C 0.46775 0.10234 0.45568
 C295 C 0.92273 0.28584 0.58973
 N296 N 0.92704 0.31140 0.60958
 N297 N 0.93915 0.33886 0.59834
 C298 C 0.94735 0.34157 0.56692
 N299 N 0.94309 0.31599 0.54709
 N300 N 0.93097 0.28853 0.55833
 C301 C 0.90864 0.25667 0.60159
 C302 C 0.89638 0.23237 0.61155
 C303 C 0.95901 0.37157 0.55449
 C304 C 0.96806 0.39694 0.54377
 C305 C 0.07808 0.78630 -0.09276
 N306 N 0.07475 0.81231 -0.11219
 N307 N 0.06278 0.83983 -0.10074
 C308 C 0.05375 0.84216 -0.06951
 N309 N 0.05703 0.81614 -0.05009
 N310 N 0.06901 0.78862 -0.06154
 C311 C 0.09206 0.75705 -0.10479
 C312 C 0.10429 0.73266 -0.11481
 C313 C 0.04216 0.87218 -0.05683
 C314 C 0.03312 0.89754 -0.04592
 C315 C 0.57851 0.71543 1.09179
 N316 N 0.57136 0.71223 1.06015
 N317 N 0.55904 0.68481 1.04898
 C318 C 0.55347 0.65978 1.06913
 N319 N 0.56058 0.66300 1.10078
 N320 N 0.57290 0.69042 1.11195
 C321 C 0.59271 0.74458 1.10365
 C322 C 0.60505 0.76887 1.11360
 C323 C 0.54137 0.62985 1.05688
 C324 C 0.53183 0.60455 1.04638
 C325 C 0.40888 0.42197 1.21518
 N326 N 0.38859 0.42814 1.19037
 N327 N 0.39973 0.44048 1.16302
 C328 C 0.43151 0.44707 1.15967
 N329 N 0.45180 0.44095 1.18449
 N330 N 0.44065 0.42860 1.21184
 C331 C 0.39703 0.40776 1.24425
 C332 C 0.38706 0.39543 1.26848
 C333 C 0.44373 0.45919 1.12980
 C334 C 0.45420 0.46873 1.10455
 C335 C 0.59226 -0.07729 0.28701
 N336 N 0.56108 -0.06778 0.28931
 N337 N 0.54971 -0.05588 0.31682
 C338 C 0.56918 -0.05311 0.34285
 N339 N 0.60037 -0.06258 0.34054
 N340 N 0.61174 -0.07447 0.31303
 C341 C 0.60419 -0.09117 0.25776
 C342 C 0.61414 -0.10331 0.23338
 C343 C 0.55657 -0.04162 0.37284
 C344 C 0.54571 -0.03265 0.39818
 C345 C -0.09098 1.07709 -0.21456
 N346 N -0.11068 1.07341 -0.18886
 N347 N -0.09931 1.06149 -0.16137
 C348 C -0.06790 1.05286 -0.15875
 N349 N -0.04822 1.05649 -0.18447
 N350 N -0.05959 1.06841 -0.21197
 C351 C -0.10296 1.09100 -0.24378
 C352 C -0.11297 1.10315 -0.26813
 C353 C -0.05533 1.04136 -0.12875
 C354 C -0.04450 1.03240 -0.10339
 C355 C 1.09125 0.57776 0.71244
 N356 N 1.05995 0.56891 0.70990
 N357 N 1.04870 0.55672 0.68247
 C358 C 1.06843 0.55297 0.65677
 N359 N 1.09974 0.56178 0.65933
 N360 N 1.11098 0.57397 0.68676
 C361 C 1.10310 0.59191 0.74160
 C362 C 1.11303 0.60422 0.76590
 C363 C 1.05596 0.54121 0.62682
 C364 C 1.04519 0.53209 0.60150
 C365 C 0.78633 0.59004 0.57908
 N366 N 0.78998 0.55814 0.57301
 N367 N 0.81739 0.54694 0.56061
 C368 C 0.84195 0.56730 0.55390
 N369 N 0.83829 0.59920 0.55994
 N370 N 0.81088 0.61040 0.57233
 C371 C 0.75719 0.60199 0.59327
 C372 C 0.73290 0.61209 0.60554
 C373 C 0.87187 0.55505 0.54169
 C374 C 0.89717 0.54455 0.53205
 C375 C 0.71283 0.40897 1.07829
 N376 N 0.71021 0.44050 1.07017
 N377 N 0.68269 0.45205 1.05832
 C378 C 0.65696 0.43242 1.05421
 N379 N 0.65960 0.40089 1.06229
 N380 N 0.68712 0.38933 1.07414
 C381 C 0.74209 0.39677 1.09207
 C382 C 0.76649 0.38656 1.10408
 C383 C 0.62694 0.44517 1.04274
 C384 C 0.60156 0.45613 1.03380
 C385 C 0.21441 1.09167 -0.07856
 N386 N 0.21135 1.05986 -0.07191
 N387 N 0.18391 1.04844 -0.05996
 C388 C 0.15871 1.06849 -0.05429
 N389 N 0.16179 1.10031 -0.06090
 N390 N 0.18923 1.11173 -0.07285
 C391 C 0.24358 1.10380 -0.09239
 C392 C 0.26791 1.11395 -0.10443
 C393 C 0.12879 1.05599 -0.04254
 C394 C 0.10350 1.04531 -0.03326
 C395 C 0.28694 -0.09173 0.42182
 N396 N 0.31216 -0.11178 0.42742
 N397 N 0.33957 -0.10039 0.43954
 C398 C 0.34258 -0.06861 0.44645
 N399 N 0.31734 -0.04857 0.44089
 N400 N 0.28993 -0.05996 0.42877
 C401 C 0.25780 -0.10383 0.40783
 C402 C 0.23351 -0.11396 0.39566
 C403 C 0.37247 -0.05613 0.45837
 C404 C 0.39773 -0.04546 0.46780
 C405 C 0.57885 -0.21443 0.59246
 N406 N 0.57367 -0.18900 0.61230
 N407 N 0.56173 -0.16150 0.60079
 C408 C 0.55461 -0.15860 0.56911
 N409 N 0.55976 -0.18403 0.54929
 N410 N 0.57169 -0.21154 0.56079
 C411 C 0.59268 -0.24367 0.60465
 C412 C 0.60476 -0.26806 0.61482
 C413 C 0.54285 -0.12863 0.55652
 C414 C 0.53353 -0.10331 0.54577
 C415 C 1.07911 0.71343 0.40829
 N416 N 1.07328 0.68838 0.38819
 N417 N 1.06111 0.66097 0.39947
 C418 C 1.05439 0.65778 0.43120
 N419 N 1.06019 0.68285 0.45129
 N420 N 1.07235 0.71026 0.44000
 C421 C 1.09313 0.74258 0.39630
 C422 C 1.10530 0.76688 0.38623
 C423 C 1.04243 0.62787 0.44355
 C424 C 1.03298 0.60259 0.45413
 C425 C -0.07983 1.21428 0.08949
 N426 N -0.07421 1.21059 0.05760
 N427 N -0.06183 1.18317 0.04635
 C428 C -0.05469 1.15862 0.06665
 N429 N -0.06027 1.16233 0.09854
 N430 N -0.07265 1.18975 0.10979
 C431 C -0.09401 1.24345 0.10150
 C432 C -0.10627 1.26777 0.11163
 C433 C -0.04247 1.12869 0.05437
 C434 C -0.03282 1.10338 0.04387
 C435 C 0.42138 0.28763 0.91050
 N436 N 0.42607 0.31307 0.89064
 N437 N 0.43807 0.34056 0.90200
 C438 C 0.44578 0.34342 0.93354
 N439 N 0.44113 0.31796 0.95339
 N440 N 0.42913 0.29048 0.94204
 C441 C 0.40746 0.25842 0.89848
 C442 C 0.39537 0.23407 0.88838
 C443 C 0.45740 0.37343 0.94605
 C444 C 0.46644 0.39880 0.95682
 C445 C 0.59032 0.57827 0.78819
 N446 N 0.55882 0.57021 0.79082
 N447 N 0.54742 0.55829 0.81826
 C448 C 0.56718 0.55404 0.84388
 N449 N 0.59869 0.56206 0.84123
 N450 N 0.61009 0.57398 0.81380
 C451 C 0.60237 0.59213 0.75902
 C452 C 0.61245 0.60420 0.73471
 C453 C 0.55460 0.54253 0.87383
 C454 C 0.54377 0.53356 0.89914
 C455 C 0.40956 0.07879 0.71423
 N456 N 0.38936 0.07246 0.68940
 N457 N 0.40072 0.06033 0.66199
 C458 C 0.43261 0.05414 0.65859
 N459 N 0.45280 0.06043 0.68343
 N460 N 0.44145 0.07257 0.71084
 C461 C 0.39748 0.09277 0.74337
 C462 C 0.38733 0.10491 0.76767
 C463 C 0.44501 0.04217 0.62870
 C464 C 0.45561 0.03271 0.60344
 C465 C 0.09111 0.92077 0.21285
 N466 N 0.05939 0.92790 0.20962
 N467 N 0.04818 0.94015 0.18220
 C468 C 0.06834 0.94566 0.15720
 N469 N 0.10006 0.93857 0.16045
 N470 N 0.11128 0.92632 0.18786
 C471 C 0.10304 0.90670 0.24201
 C472 C 0.11307 0.89450 0.26633
 C473 C 0.05604 0.95773 0.12731
 C474 C 0.04550 0.96727 0.10204
 C475 C 0.90877 0.42128 0.28526
 N476 N 0.88866 0.42773 0.31012
 N477 N 0.90012 0.43977 0.33753
 C478 C 0.93203 0.44573 0.34089
 N479 N 0.95213 0.43932 0.31601
 N480 N 0.94067 0.42729 0.28861
 C481 C 0.89657 0.40740 0.25613
 C482 C 0.88634 0.39532 0.23184
 C483 C 0.94455 0.45757 0.37078
 C484 C 0.95522 0.46693 0.39606
   
