data_POSCAR
  _audit_creation_date              2014-09-24
  _audit_creation_method            'ToBaCCo'
  _symmetry_space_group_name_H-M    'P1'
  _symmetry_Int_Tables_number       1
  _symmetry_cell_setting            triclinic
  loop_
  _symmetry_equiv_pos_as_xyz
 x,y,z
_cell_length_a 35.6148
_cell_length_b 35.9936
_cell_length_c 37.0496
_cell_angle_alpha 90.628600
_cell_angle_beta 90.352000
_cell_angle_gamma 89.041400
loop_
  _atom_site_label
  _atom_site_type_symbol
  _atom_site_fract_x
  _atom_site_fract_y
  _atom_site_fract_z
N1 N 0.15399 0.21771 0.21780
 N2 N 0.16391 0.19381 0.24288
 C3 C 0.13809 0.19503 0.26941
 C4 C 0.11068 0.22102 0.26012
 C5 C 0.12155 0.23461 0.22720
 H6 H 0.13954 0.17894 0.29387
 H7 H 0.10763 0.25626 0.21182
 Cu8 Cu 0.21003 0.16415 0.23825
 Cu9 Cu 0.18467 0.22742 0.17576
 Cu10 Cu 0.27560 0.19378 0.18157
 N11 N 0.25331 0.13265 0.22550
 N12 N 0.27796 0.14413 0.20196
 C13 C 0.30402 0.11731 0.19643
 C14 C 0.29565 0.08756 0.21793
 C15 C 0.26341 0.09817 0.23634
 H16 H 0.32768 0.11952 0.17845
 H17 H 0.24810 0.08180 0.25545
 N18 N 0.26087 0.23488 0.14987
 N19 N 0.22571 0.24633 0.14594
 C20 C 0.22443 0.27410 0.12178
 C21 C 0.26065 0.28044 0.11036
 C22 C 0.28299 0.25512 0.12867
 H23 H 0.19928 0.28936 0.11404
 H24 H 0.31313 0.25161 0.12662
 H25 H 0.22126 0.18152 0.17565
 H26 H 0.23028 0.22040 0.20822
 N27 N 0.66547 0.77838 0.76722
 N28 N 0.66443 0.74507 0.78134
 C29 C 0.63121 0.74106 0.79804
 C30 C 0.61047 0.77359 0.79365
 C31 C 0.63306 0.79665 0.77414
 H32 H 0.62247 0.71618 0.81152
 H33 H 0.62628 0.82451 0.76523
 Cu34 Cu 0.70654 0.71030 0.77537
 Cu35 Cu 0.70845 0.79500 0.74013
 Cu36 Cu 0.75950 0.72219 0.70167
 N37 N 0.74594 0.67486 0.76188
 N38 N 0.76687 0.67944 0.73317
 C39 C 0.79053 0.64998 0.72951
 C40 C 0.78392 0.62587 0.75751
 C41 C 0.75552 0.64250 0.77745
 H42 H 0.81035 0.64605 0.70773
 H43 H 0.74232 0.63141 0.80114
 N44 N 0.75849 0.77307 0.68199
 N45 N 0.74105 0.80113 0.69835
 C46 C 0.74376 0.83174 0.67815
 C47 C 0.76330 0.82246 0.64728
 C48 C 0.77249 0.78511 0.65056
 H49 H 0.72956 0.85793 0.68389
 H50 H 0.78653 0.76765 0.63072
 H51 H 0.70757 0.74318 0.71835
 H52 H 0.74996 0.75281 0.74657
 N53 N 0.32689 0.77341 0.72930
 N54 N 0.32661 0.80726 0.74348
 C55 C 0.34992 0.80803 0.77220
 C56 C 0.36554 0.77294 0.77627
 C57 C 0.35036 0.75168 0.74875
 H58 H 0.35544 0.83241 0.78858
 H59 H 0.35712 0.72293 0.74249
 Cu60 Cu 0.29576 0.84826 0.72406
 Cu61 Cu 0.30008 0.76033 0.68410
 Cu62 Cu 0.25484 0.83100 0.64450
 N63 N 0.25034 0.87511 0.70888
 N64 N 0.23337 0.86664 0.67835
 C65 C 0.20151 0.88685 0.67538
 C66 C 0.19864 0.90971 0.70543
 C67 C 0.23023 0.90186 0.72614
 H68 H 0.18212 0.88531 0.65283
 H69 H 0.23754 0.91381 0.75212
 N70 N 0.26853 0.78666 0.61750
 N71 N 0.28491 0.75815 0.63336
 C72 C 0.28701 0.72953 0.60969
 C73 C 0.27157 0.74117 0.57725
 C74 C 0.26028 0.77757 0.58310
 H75 H 0.29810 0.70215 0.61587
 H76 H 0.24525 0.79535 0.56440
 H77 H 0.31165 0.81520 0.67871
 H78 H 0.26789 0.80465 0.70371
 N79 N 0.84713 0.24920 0.25871
 N80 N 0.82515 0.26215 0.28448
 C81 C 0.84395 0.26232 0.31601
 C82 C 0.88013 0.24977 0.30956
 C83 C 0.88126 0.24137 0.27293
 H84 H 0.83310 0.27377 0.34105
 H85 H 0.90533 0.23178 0.25755
 Cu86 Cu 0.77742 0.28549 0.27349
 Cu87 Cu 0.82986 0.24672 0.20842
 Cu88 Cu 0.73729 0.27451 0.19263
 N89 N 0.74090 0.32115 0.25541
 N90 N 0.72432 0.31701 0.22385
 C91 C 0.70231 0.34715 0.21751
 C92 C 0.70617 0.37144 0.24651
 C93 C 0.73065 0.35402 0.27000
 H94 H 0.68661 0.35197 0.19287
 H95 H 0.74143 0.36507 0.29522
 N96 N 0.76627 0.24385 0.15810
 N97 N 0.80198 0.23468 0.16332
 C98 C 0.81389 0.21388 0.13505
 C99 C 0.78421 0.20961 0.11123
 C100 C 0.75443 0.22893 0.12664
 H101 H 0.84162 0.20143 0.13265
 H102 H 0.72619 0.23162 0.11598
 H103 H 0.78911 0.28817 0.20887
 H104 H 0.77509 0.24099 0.22353
 N105 N 0.84303 0.73147 0.26331
 N106 N 0.83966 0.69946 0.24586
 C107 C 0.86267 0.69923 0.21699
 C108 C 0.88112 0.73283 0.21648
 C109 C 0.86790 0.75246 0.24604
 H110 H 0.86585 0.67640 0.19798
 H111 H 0.87683 0.77961 0.25506
 Cu112 Cu 0.80534 0.66048 0.26248
 Cu113 Cu 0.81905 0.74313 0.31002
 Cu114 Cu 0.77233 0.67347 0.34608
 N115 N 0.75864 0.63730 0.27835
 N116 N 0.74534 0.64404 0.31086
 C117 C 0.71272 0.62642 0.31491
 C118 C 0.70524 0.60706 0.28349
 C119 C 0.73503 0.61428 0.26076
 H120 H 0.69611 0.62695 0.33927
 H121 H 0.73908 0.60384 0.23354
 N122 N 0.79042 0.71393 0.37568
 N123 N 0.80735 0.74227 0.36126
 C124 C 0.81223 0.76874 0.38674
 C125 C 0.79796 0.75583 0.41880
 C126 C 0.78450 0.72094 0.41090
 H127 H 0.82415 0.79569 0.38200
 H128 H 0.76934 0.70309 0.42881
 H129 H 0.82725 0.68643 0.30952
 H130 H 0.78276 0.70392 0.28851
 N131 N 0.36037 0.25017 -0.25964
 N132 N 0.33737 0.23349 -0.28218
 C133 C 0.35346 0.23053 -0.31479
 C134 C 0.38859 0.24603 -0.31256
 C135 C 0.39219 0.25841 -0.27720
 H136 H 0.34096 0.21708 -0.33809
 H137 H 0.41609 0.27205 -0.26513
 Cu138 Cu 0.28985 0.21433 -0.26664
 Cu139 Cu 0.34590 0.26057 -0.20986
 Cu140 Cu 0.26789 0.21456 -0.17837
 N141 N 0.25367 0.18065 -0.24730
 N142 N 0.24524 0.17957 -0.21282
 C143 C 0.22057 0.15194 -0.20772
 C144 C 0.21368 0.13512 -0.24094
 C145 C 0.23505 0.15411 -0.26521
 H146 H 0.20892 0.14447 -0.18195
 H147 H 0.23749 0.14851 -0.29385
 N148 N 0.29581 0.25129 -0.14885
 N149 N 0.32597 0.26800 -0.16086
 C150 C 0.33642 0.29409 -0.13679
 C151 C 0.31169 0.29405 -0.10836
 C152 C 0.28632 0.26648 -0.11664
 H153 H 0.35873 0.31361 -0.14078
 H154 H 0.26149 0.25975 -0.10154
 H155 H 0.31694 0.21082 -0.20691
 H156 H 0.28756 0.25405 -0.21351
 N157 N 0.62150 0.29791 -0.22607
 N158 N 0.63556 0.32867 -0.23872
 C159 C 0.61943 0.33649 -0.27065
 C160 C 0.59412 0.30899 -0.27877
 C161 C 0.59584 0.28490 -0.24981
 H162 H 0.62684 0.35961 -0.28747
 H163 H 0.58032 0.25959 -0.24657
 Cu164 Cu 0.67664 0.35386 -0.21502
 Cu165 Cu 0.63852 0.27794 -0.17976
 Cu166 Cu 0.72755 0.30641 -0.15415
 N167 N 0.72750 0.36760 -0.20308
 N168 N 0.74784 0.34830 -0.18000
 C169 C 0.78245 0.36266 -0.17802
 C170 C 0.78373 0.39234 -0.20127
 C171 C 0.74841 0.39480 -0.21673
 H172 H 0.80504 0.35227 -0.16108
 H173 H 0.73879 0.41447 -0.23676
 N174 N 0.70173 0.26506 -0.13106
 N175 N 0.66742 0.25477 -0.13997
 C176 C 0.65718 0.22705 -0.11810
 C177 C 0.68657 0.21963 -0.09457
 C178 C 0.71430 0.24407 -0.10356
 H179 H 0.63052 0.21313 -0.11934
 H180 H 0.74142 0.24666 -0.09061
 H181 H 0.67129 0.32031 -0.15807
 H182 H 0.69120 0.29115 -0.19548
 N183 N 0.14507 0.75521 0.23352
 N184 N 0.16109 0.78346 0.21789
 C185 C 0.14108 0.79286 0.18832
 C186 C 0.11084 0.76940 0.18554
 C187 C 0.11415 0.74588 0.21466
 H188 H 0.14754 0.81549 0.17055
 H189 H 0.09534 0.72390 0.22184
 Cu190 Cu 0.20512 0.80665 0.23919
 Cu191 Cu 0.16466 0.73389 0.27813
 Cu192 Cu 0.25813 0.75383 0.29386
 N193 N 0.25237 0.82460 0.25894
 N194 N 0.27302 0.80320 0.27998
 C195 C 0.30425 0.82115 0.28975
 C196 C 0.30303 0.85588 0.27438
 C197 C 0.26976 0.85731 0.25481
 H198 H 0.32597 0.80986 0.30721
 H199 H 0.25906 0.88028 0.23898
 N200 N 0.23204 0.71382 0.31850
 N201 N 0.19629 0.70643 0.31294
 C202 C 0.18581 0.68031 0.33641
 C203 C 0.21631 0.67148 0.35811
 C204 C 0.24515 0.69314 0.34604
 H205 H 0.15755 0.67019 0.33904
 H206 H 0.27292 0.69531 0.35777
 H207 H 0.20402 0.77292 0.29591
 H208 H 0.21520 0.74193 0.25654
 N209 N 0.47560 0.38866 0.45887
 N210 N 0.46487 0.40654 0.48826
 C211 C 0.47185 0.38510 0.51715
 C212 C 0.48784 0.35205 0.50503
 C213 C 0.48973 0.35514 0.46796
 H214 H 0.46551 0.39284 0.54476
 H215 H 0.50054 0.33460 0.44900
 Cu216 Cu 0.44134 0.45533 0.48567
 Cu217 Cu 0.46972 0.41028 0.41122
 Cu218 Cu 0.44789 0.50445 0.40972
 N219 N 0.40767 0.49689 0.47586
 N220 N 0.40924 0.51611 0.44591
 C221 C 0.38168 0.54237 0.44639
 C222 C 0.36221 0.53914 0.47848
 C223 C 0.37954 0.51019 0.49642
 H224 H 0.37637 0.56225 0.42520
 H225 H 0.37188 0.49923 0.52239
 N226 N 0.47413 0.47847 0.36975
 N227 N 0.47909 0.44201 0.36928
 C228 C 0.49815 0.43203 0.33942
 C229 C 0.50644 0.46367 0.32065
 C230 C 0.49090 0.49278 0.34057
 H231 H 0.50836 0.40416 0.33351
 H232 H 0.49279 0.52212 0.33495
 H233 H 0.48118 0.46151 0.43298
 H234 H 0.43117 0.45321 0.42033
 N235 N -0.02691 -0.10667 0.98575
 N236 N -0.06333 -0.10291 0.99082
 C237 C -0.07607 -0.13324 1.00738
 C238 C -0.04594 -0.15693 1.01376
 C239 C -0.01504 -0.13916 0.99998
 H240 H -0.10475 -0.13699 1.01586
 H241 H 0.01383 -0.14897 1.00046
 Cu242 Cu -0.08981 -0.05681 0.97957
 Cu243 Cu 0.00166 -0.06841 0.96116
 Cu244 Cu -0.05601 -0.00996 0.91031
 N245 N -0.11567 -0.01274 0.96158
 N246 N -0.10290 0.00461 0.93327
 C247 C -0.12623 0.03310 0.92518
 C248 C -0.15466 0.03412 0.95029
 C249 C -0.14722 0.00469 0.97309
 H250 H -0.12205 0.05239 0.90343
 H251 H -0.16348 -0.00336 0.99620
 N252 N -0.00190 -0.01590 0.90209
 N253 N 0.02059 -0.03722 0.92172
 C254 C 0.05582 -0.03504 0.90869
 C255 C 0.05514 -0.01094 0.87977
 C256 C 0.01820 0.00066 0.87651
 H257 H 0.07978 -0.05080 0.91860
 H258 H 0.00655 0.01915 0.85638
 H259 H -0.03515 -0.02209 0.96042
 H260 H -0.04449 -0.06314 0.93074
 N261 N 1.00568 0.57686 1.00112
 N262 N 1.02979 0.56077 1.02354
 C263 C 1.03060 0.58043 1.05465
 C264 C 1.00641 0.61056 1.05144
 C265 C 0.99112 0.60763 1.01720
 H266 H 1.04828 0.57401 1.07765
 H267 H 0.97099 0.62656 1.00499
 Cu268 Cu 1.06054 0.51652 1.01042
 Cu269 Cu 0.99480 0.55680 0.95232
 Cu270 Cu 1.03776 0.47561 0.93196
 N271 N 1.08793 0.47279 0.99210
 N272 N 1.07828 0.45630 0.96169
 C273 C 1.10212 0.42773 0.95500
 C274 C 1.12835 0.42639 0.98253
 C275 C 1.11865 0.45539 1.00569
 H276 H 1.10152 0.41030 0.93104
 H277 H 1.13338 0.46377 1.02998
 N278 N 1.00747 0.50189 0.89672
 N279 N 0.98862 0.53243 0.90525
 C280 C 0.96728 0.54273 0.87675
 C281 C 0.97401 0.51767 0.84886
 C282 C 0.99972 0.49229 0.86235
 H283 H 0.94845 0.56662 0.87626
 H284 H 1.01077 0.46783 0.84862
 H285 H 1.01050 0.51093 0.98218
 H286 H 1.04878 0.53614 0.95913
 N287 N 0.52748 0.08644 0.51794
 N288 N 0.55943 0.07405 0.53155
 C289 C 0.57079 0.09762 0.55783
 C290 C 0.54449 0.12612 0.56060
 C291 C 0.51740 0.11814 0.53500
 H292 H 0.59658 0.09485 0.57321
 H293 H 0.49269 0.13470 0.52862
 Cu294 Cu 0.58344 0.02918 0.51239
 Cu295 Cu 0.50211 0.06213 0.47778
 Cu296 Cu 0.54295 -0.01927 0.44481
 N297 N 0.60590 -0.01665 0.49373
 N298 N 0.58959 -0.03582 0.46777
 C299 C 0.61092 -0.06603 0.45992
 C300 C 0.64226 -0.06561 0.48203
 C301 C 0.63826 -0.03397 0.50317
 H302 H 0.60448 -0.08649 0.43931
 H303 H 0.65756 -0.02433 0.52373
 N304 N 0.49590 0.00222 0.42512
 N305 N 0.48062 0.03355 0.43731
 C306 C 0.45051 0.04234 0.41669
 C307 C 0.44670 0.01522 0.39040
 C308 C 0.47579 -0.00983 0.39654
 H309 H 0.43329 0.06719 0.41975
 H310 H 0.48263 -0.03420 0.38043
 H311 H 0.52263 0.00951 0.48922
 H312 H 0.54929 0.03672 0.45555
 N313 N 0.00869 0.10212 0.50426
 N314 N -0.02084 0.09749 0.48330
 C315 C -0.01872 0.12041 0.45497
 C316 C 0.01414 0.14009 0.45824
 C317 C 0.03102 0.12767 0.48964
 H318 H -0.03955 0.12278 0.43373
 H319 H 0.05690 0.13738 0.50161
 Cu320 Cu -0.05886 0.06161 0.49490
 Cu321 Cu 0.01482 0.07575 0.54965
 Cu322 Cu -0.06636 0.03508 0.58061
 N323 N -0.09038 0.02035 0.50793
 N324 N -0.09396 0.01054 0.54180
 C325 C -0.11790 -0.01790 0.54359
 C326 C -0.12956 -0.02653 0.50889
 C327 C -0.11165 -0.00173 0.48690
 H328 H -0.12580 -0.03151 0.56823
 H329 H -0.11396 0.00011 0.45784
 N330 N -0.02381 0.04722 0.61231
 N331 N 0.00785 0.06088 0.60020
 C332 C 0.03268 0.06292 0.62766
 C333 C 0.01573 0.04987 0.65838
 C334 C -0.02006 0.04025 0.64777
 H335 H 0.06115 0.07257 0.62534
 H336 H -0.04116 0.02749 0.66421
 H337 H -0.02421 0.03335 0.54478
 H338 H -0.04153 0.08126 0.55606
 N339 N 0.50170 0.61350 -0.00976
 N340 N 0.46664 0.61231 -0.02102
 C341 C 0.46028 0.64061 -0.04405
 C342 C 0.49310 0.66047 -0.04680
 C343 C 0.51865 0.64252 -0.02478
 H344 H 0.43369 0.64690 -0.05702
 H345 H 0.54728 0.65059 -0.01947
 Cu346 Cu 0.43257 0.57480 -0.00300
 Cu347 Cu 0.52249 0.57974 0.02570
 Cu348 Cu 0.46486 0.51106 0.05657
 N349 N 0.40197 0.53339 0.01256
 N350 N 0.41526 0.50813 0.03486
 C351 C 0.38946 0.48172 0.03933
 C352 C 0.35817 0.49108 0.01908
 C353 C 0.36688 0.52405 0.00249
 H354 H 0.39323 0.45736 0.05588
 H355 H 0.34943 0.53933 -0.01639
 N356 N 0.51605 0.51845 0.07514
 N357 N 0.53872 0.54342 0.06188
 C358 C 0.57119 0.54273 0.08065
 C359 C 0.56849 0.51659 0.10732
 C360 C 0.53325 0.50165 0.10319
 H361 H 0.59404 0.56171 0.07706
 H362 H 0.52062 0.48119 0.12026
 H363 H 0.48718 0.53642 0.01217
 H364 H 0.47222 0.56751 0.05054
 N365 N 0.49909 -0.09685 0.01524
 N366 N 0.51597 -0.07286 -0.00570
 C367 C 0.50827 -0.08139 -0.04040
 C368 C 0.48622 -0.11258 -0.04123
 C369 C 0.48101 -0.12182 -0.00555
 H370 H 0.52028 -0.06781 -0.06342
 H371 H 0.46616 -0.14552 0.00448
 Cu372 Cu 0.55289 -0.03651 0.01264
 Cu373 Cu 0.50330 -0.09494 0.06817
 Cu374 Cu 0.57402 -0.04460 0.10043
 N375 N 0.59731 -0.01357 0.03399
 N376 N 0.60592 -0.01789 0.06827
 C377 C 0.63588 0.00269 0.07667
 C378 C 0.64660 0.02109 0.04609
 C379 C 0.62171 0.01011 0.01932
 H380 H 0.64758 0.00576 0.10354
 H381 H 0.62034 0.01990 -0.00817
 N382 N 0.53160 -0.05650 0.13023
 N383 N 0.50277 -0.07504 0.11759
 C384 C 0.47569 -0.07506 0.14291
 C385 C 0.48865 -0.05543 0.17275
 C386 C 0.52420 -0.04438 0.16385
 H387 H 0.44827 -0.08711 0.13934
 H388 H 0.54246 -0.02683 0.17977
 H389 H 0.52108 -0.04346 0.05850
 H390 H 0.55651 -0.08055 0.04713
 N391 N 1.01343 0.40375 0.49986
 N392 N 1.04714 0.41452 0.49069
 C393 C 1.05906 0.39458 0.46202
 C394 C 1.03178 0.36944 0.45291
 C395 C 1.00309 0.37576 0.47750
 H396 H 1.08572 0.39805 0.44874
 H397 H 0.97646 0.36179 0.47842
 Cu398 Cu 1.07295 0.45327 0.51672
 Cu399 Cu 0.98547 0.42900 0.53892
 Cu400 Cu 1.02746 0.50732 0.57630
 N401 N 1.09344 0.50006 0.53264
 N402 N 1.07566 0.52124 0.55630
 C403 C 1.09551 0.55226 0.56217
 C404 C 1.12720 0.55029 0.54085
 C405 C 1.12504 0.51686 0.52242
 H406 H 1.08713 0.57493 0.57993
 H407 H 1.14459 0.50588 0.50262
 N408 N 0.97889 0.48868 0.59277
 N409 N 0.96255 0.45914 0.57861
 C410 C 0.93048 0.45315 0.59675
 C411 C 0.92685 0.48002 0.62359
 C412 C 0.95794 0.50197 0.62027
 H413 H 0.91192 0.43014 0.59185
 H414 H 0.96527 0.52529 0.63739
 H415 H 1.01102 0.47880 0.52989
 H416 H 1.03008 0.45011 0.56766
 Si417 Si 0.38157 -0.02206 0.26740
 Si418 Si 0.11872 0.02121 0.75710
 Si419 Si 0.62299 0.49483 0.23816
 Si420 Si 0.86775 0.50151 0.75211
 Si421 Si 0.26744 0.37735 0.00339
 Si422 Si 0.73962 0.12473 0.00175
 Si423 Si 0.24104 0.62730 0.49173
 Si424 Si 0.77142 0.86526 0.51111
 Si425 Si 0.01488 0.25155 0.36657
 Si426 Si -0.01526 0.74260 0.11358
 Si427 Si 0.51254 0.25910 0.61319
 Si428 Si 0.48160 0.77635 0.86537
 N429 N 0.03127 0.26895 0.29658
 N430 N 0.05488 0.26185 0.26987
 C431 C 0.07838 0.23461 0.28121
 C432 C 0.06832 0.22504 0.31581
 N433 N 0.03878 0.24715 0.32428
 H434 H 0.08194 0.20518 0.33351
 N435 N 0.51912 0.81082 0.81086
 N436 N 0.55128 0.81100 0.79316
 C437 C 0.57208 0.78221 0.80559
 C438 C 0.55167 0.76427 0.83147
 N439 N 0.51887 0.78312 0.83401
 H440 H 0.56020 0.74059 0.84748
 N441 N 0.43658 0.72741 0.82819
 N442 N 0.40818 0.72622 0.80497
 C443 C 0.39461 0.76126 0.80221
 C444 C 0.41545 0.78392 0.82457
 N445 N 0.44110 0.76170 0.84051
 H446 H 0.41377 0.81388 0.82715
 N447 N -0.06002 0.25969 0.38371
 N448 N -0.09423 0.25957 0.36949
 C449 C -0.09035 0.25012 0.33435
 C450 C -0.05269 0.24429 0.32748
 N451 N -0.03479 0.25082 0.35889
 H452 H -0.03950 0.23745 0.30197
 N453 N -0.05241 0.78306 0.16580
 N454 N -0.07809 0.78120 0.19134
 C455 C -0.09035 0.74598 0.19130
 C456 C -0.07115 0.72610 0.16491
 N457 N -0.04773 0.75035 0.14976
 H458 H -0.07382 0.69709 0.15752
 N459 N 0.43954 0.23712 0.60792
 N460 N 0.40817 0.23329 0.62631
 C461 C 0.41469 0.24701 0.65972
 C462 C 0.45110 0.25969 0.66121
 N463 N 0.46553 0.25283 0.62833
 H464 H 0.46598 0.27144 0.68408
 N465 N 0.55413 0.31851 0.63578
 N466 N 0.57500 0.33129 0.66267
 C467 C 0.57365 0.30603 0.68922
 C468 C 0.55102 0.27730 0.67781
 N469 N 0.53961 0.28623 0.64428
 H470 H 0.54459 0.25193 0.69175
 N471 N 0.04820 0.78679 0.11207
 N472 N 0.07971 0.79368 0.12995
 C473 C 0.08084 0.77039 0.15818
 C474 C 0.04907 0.74906 0.15704
 N475 N 0.02945 0.76014 0.12791
 H476 H 0.04072 0.72791 0.17578
 N477 N 0.35880 0.01142 0.20490
 N478 N 0.33847 0.03949 0.19219
 C479 C 0.31739 0.05258 0.21971
 C480 C 0.32541 0.03149 0.24985
 N481 N 0.35145 0.00607 0.23939
 H482 H 0.31585 0.03630 0.27719
 N483 N 0.81005 0.53594 0.78860
 N484 N 0.78911 0.56657 0.79057
 C485 C 0.80105 0.58919 0.76446
 C486 C 0.83022 0.57143 0.74633
 N487 N 0.83480 0.53826 0.76230
 H488 H 0.84625 0.58138 0.72378
 N489 N 0.87024 0.44038 0.79661
 N490 N 0.84942 0.41310 0.80877
 C491 C 0.81585 0.41617 0.79196
 C492 C 0.81675 0.44596 0.76900
 N493 N 0.85108 0.46028 0.77275
 H494 H 0.79441 0.45687 0.75202
 N495 N 0.38067 -0.09116 0.29688
 N496 N 0.36148 -0.12217 0.29879
 C497 C 0.33011 -0.11704 0.27881
 C498 C 0.33056 -0.08167 0.26456
 N499 N 0.36264 -0.06660 0.27662
 H500 H 0.31004 -0.06837 0.24709
 N501 N 0.11823 -0.03409 0.70564
 N502 N 0.13861 -0.06166 0.69166
 C503 C 0.16961 -0.06503 0.71249
 C504 C 0.16757 -0.03873 0.73988
 N505 N 0.13511 -0.02000 0.73445
 H506 H 0.18821 -0.03264 0.76058
 N507 N 0.68524 0.46501 0.27156
 N508 N 0.70568 0.43418 0.27461
 C509 C 0.69159 0.40953 0.25069
 C510 C 0.66184 0.42618 0.23275
 N511 N 0.65890 0.46075 0.24663
 H512 H 0.64348 0.41413 0.21256
 N513 N 0.62217 0.55355 0.28756
 N514 N 0.64307 0.58133 0.29934
 C515 C 0.67308 0.58267 0.27739
 C516 C 0.66987 0.55495 0.25175
 N517 N 0.63782 0.53738 0.25907
 H518 H 0.68999 0.54680 0.23124
 N519 N 0.16343 0.06313 0.71516
 N520 N 0.18679 0.09120 0.71492
 C521 C 0.18998 0.10349 0.74924
 C522 C 0.16771 0.08178 0.77083
 N523 N 0.15164 0.05699 0.74826
 H524 H 0.16332 0.08396 0.79966
 N525 N 0.31103 0.34113 0.05376
 N526 N 0.31000 0.31641 0.07990
 C527 C 0.27358 0.30845 0.08490
 C528 C 0.25219 0.32925 0.06104
 N529 N 0.27670 0.34921 0.04213
 H530 H 0.22212 0.32870 0.05672
 N531 N 0.75721 0.89175 0.57977
 N532 N 0.75510 0.88168 0.61396
 C533 C 0.76640 0.84578 0.61524
 C534 C 0.77556 0.83419 0.58083
 N535 N 0.76918 0.86358 0.55944
 H536 H 0.78431 0.80664 0.57223
 N537 N 0.77451 0.78875 0.50659
 N538 N 0.78012 0.76105 0.48335
 C539 C 0.79301 0.77628 0.45289
 C540 C 0.79519 0.81412 0.45818
 N541 N 0.78378 0.82074 0.49216
 H542 H 0.80165 0.83500 0.43846
 N543 N 0.32093 0.37231 -0.04976
 N544 N 0.33256 0.35165 -0.07740
 C545 C 0.30993 0.32204 -0.07927
 C546 C 0.28405 0.32508 -0.05179
 N547 N 0.29184 0.35690 -0.03417
 H548 H 0.26128 0.30664 -0.04578
 N549 N 0.67301 0.14806 -0.03040
 N550 N 0.65945 0.17116 -0.05508
 C551 C 0.68855 0.19154 -0.06617
 C552 C 0.72025 0.18036 -0.04748
 N553 N 0.70941 0.15323 -0.02555
 H554 H 0.74870 0.18996 -0.05045
 N555 N 0.19407 0.61621 0.43360
 N556 N 0.18700 0.62748 0.40031
 C557 C 0.21592 0.64887 0.39082
 C558 C 0.24110 0.65019 0.41928
 N559 N 0.22634 0.62953 0.44544
 H560 H 0.26599 0.66689 0.42185
 N561 N 0.24556 0.70396 0.49143
 N562 N 0.25269 0.73276 0.51284
 C563 C 0.26438 0.71878 0.54469
 C564 C 0.26423 0.68062 0.54218
 N565 N 0.25229 0.67253 0.50864
 H566 H 0.27016 0.66068 0.56322
 N567 N 0.80346 0.15147 0.03491
 N568 N 0.81504 0.17213 0.06249
 C569 C 0.78401 0.18701 0.07796
 C570 C 0.75302 0.17490 0.05895
 N571 N 0.76639 0.15276 0.03243
 H572 H 0.72366 0.18018 0.06479
 N573 N 0.52377 0.26695 0.54016
 N574 N 0.51762 0.28968 0.51282
 C575 C 0.50010 0.32010 0.52656
 C576 C 0.49568 0.31537 0.56317
 N577 N 0.51081 0.28187 0.57049
 H578 H 0.48246 0.33409 0.58251
 N579 N -0.06922 0.76326 0.06415
 N580 N -0.07796 0.78865 0.03974
 C581 C -0.04681 0.80857 0.03454
 C582 C -0.01872 0.79457 0.05647
 N583 N -0.03385 0.76643 0.07475
 H584 H 0.00888 0.80586 0.06037
 N585 N 0.00436 0.67023 0.12857
 N586 N 0.01065 0.63725 0.11342
 C587 C 0.00036 0.64015 0.07849
 C588 C -0.01257 0.67599 0.07268
 N589 N -0.00947 0.69382 0.10461
 H590 H -0.02109 0.68846 0.04740
 N591 N 0.56538 0.20164 0.62023
 N592 N 0.57368 0.16810 0.60695
 C593 C 0.54585 0.15952 0.58357
 C594 C 0.52036 0.18853 0.58302
 N595 N 0.53349 0.21418 0.60603
 H596 H 0.49529 0.19139 0.56655
 N597 N 0.06151 0.21209 0.41268
 N598 N 0.06158 0.18463 0.43623
 C599 C 0.02711 0.16973 0.43474
 C600 C 0.00594 0.18883 0.40962
 N601 N 0.02837 0.21498 0.39654
 H602 H -0.02334 0.18514 0.40264
 N603 N 0.52794 0.74361 0.91583
 N604 N 0.53138 0.71487 0.93762
 C605 C 0.50005 0.69474 0.93339
 C606 C 0.47721 0.71203 0.90824
 N607 N 0.49577 0.74232 0.89789
 H608 H 0.44996 0.70348 0.89849
 N609 N 0.46949 0.85195 0.87042
 N610 N 0.47152 0.88031 0.89340
 C611 C 0.47623 0.86572 0.92648
 C612 C 0.47706 0.82753 0.92310
 N613 N 0.47292 0.82008 0.88769
 H614 H 0.48356 0.80739 0.94381
 N615 N 0.05413 0.31627 0.37418
 N616 N 0.05891 0.34553 0.39554
 C617 C 0.03394 0.34287 0.42256
 C618 C 0.01369 0.31089 0.41717
 N619 N 0.02725 0.29516 0.38670
 H620 H -0.00784 0.29959 0.43416
 N621 N 0.28856 0.58140 0.52948
 N622 N 0.31850 0.55937 0.52675
 C623 C 0.33003 0.56094 0.49223
 C624 C 0.30602 0.58462 0.47368
 N625 N 0.28055 0.59666 0.49801
 H626 H 0.30664 0.59195 0.44544
 N627 N 0.77838 0.10767 -0.06073
 N628 N 0.80514 0.08545 -0.07383
 C629 C 0.81500 0.06202 -0.04712
 C630 C 0.79362 0.07056 -0.01723
 N631 N 0.77121 0.09914 -0.02686
 H632 H 0.79503 0.05813 0.00923
 N633 N 0.71629 0.08888 0.06255
 N634 N 0.69372 0.06270 0.07394
 C635 C 0.67539 0.04966 0.04462
 C636 C 0.68739 0.06863 0.01481
 N637 N 0.71279 0.09287 0.02726
 H638 H 0.67858 0.06531 -0.01303
 N639 N 0.18518 0.62990 0.54316
 N640 N 0.15644 0.61106 0.55561
 C641 C 0.15589 0.57868 0.53700
 C642 C 0.18519 0.57816 0.51288
 N643 N 0.20264 0.61059 0.51753
 H644 H 0.19248 0.55689 0.49314
 N645 N 0.20218 0.36060 -0.03314
 N646 N 0.16756 0.37306 -0.03923
 C647 C 0.16156 0.40168 -0.01609
 C648 C 0.19354 0.40621 0.00456
 N649 N 0.21820 0.38004 -0.00694
 H650 H 0.19928 0.42800 0.02409
 N651 N 0.70681 0.85866 0.47013
 N652 N 0.67446 0.87562 0.46252
 C653 C 0.67344 0.90723 0.48238
 C654 C 0.70616 0.90920 0.50233
 N655 N 0.72613 0.87841 0.49391
 H656 H 0.71472 0.93084 0.52100
 N657 N 0.81056 0.90916 0.46415
 N658 N 0.83499 0.93650 0.46315
 C659 C 0.84458 0.94416 0.49767
 C660 C 0.82542 0.92065 0.51983
 N661 N 0.80457 0.89930 0.49790
 H662 H 0.82603 0.91961 0.54901
 N663 N 0.26884 0.45368 -0.00290
 N664 N 0.29171 0.48228 -0.00038
 C665 C 0.32395 0.46930 0.01436
 C666 C 0.32010 0.43192 0.02090
 N667 N 0.28529 0.42328 0.00992
 H668 H 0.34131 0.41243 0.03041
 N669 N 0.56682 0.44463 0.24668
 N670 N 0.53779 0.43609 0.26691
 C671 C 0.53189 0.46498 0.28969
 C672 C 0.55839 0.49153 0.28288
 N673 N 0.57982 0.47762 0.25594
 H674 H 0.56307 0.51691 0.29791
 N675 N 0.13582 -0.00953 0.82347
 N676 N 0.11980 -0.01893 0.85424
 C677 C 0.08537 -0.00280 0.85432
 C678 C 0.08112 0.01710 0.82303
 N679 N 0.11294 0.01204 0.80432
 H680 H 0.05617 0.03163 0.81376
 N681 N 0.04140 0.02349 0.74754
 N682 N 0.01539 0.02962 0.72248
 C683 C 0.03321 0.04359 0.69380
 C684 C 0.07080 0.04599 0.70214
 N685 N 0.07479 0.03353 0.73599
 H686 H 0.09342 0.05337 0.68436
 N687 N 0.64423 0.51651 0.17023
 N688 N 0.63088 0.52240 0.13729
 C689 C 0.59506 0.51085 0.13714
 C690 C 0.58680 0.49781 0.17089
 N691 N 0.61811 0.50196 0.19071
 H692 H 0.56003 0.48844 0.18069
 N693 N 0.45760 -0.01691 0.25628
 N694 N 0.48461 -0.02529 0.23308
 C695 C 0.46847 -0.04396 0.20550
 C696 C 0.43063 -0.04677 0.21244
 N697 N 0.42508 -0.02942 0.24432
 H698 H 0.40911 -0.05909 0.19563
 N699 N 0.85278 0.46782 0.68640
 N700 N 0.86810 0.46091 0.65443
 C701 C 0.89861 0.48241 0.65238
 C702 C 0.90128 0.50287 0.68395
 N703 N 0.87217 0.49309 0.70444
 H704 H 0.92380 0.52091 0.69232
 N705 N 0.94426 0.49539 0.75986
 N706 N 0.97110 0.49792 0.78458
 C707 C 0.95583 0.51560 0.81331
 C708 C 0.91877 0.52385 0.80541
 N709 N 0.91272 0.51102 0.77170
 H710 H 0.89738 0.53434 0.82369
 N711 N 0.37931 0.03321 0.32077
 N712 N 0.39571 0.04273 0.35171
 C713 C 0.41995 0.01486 0.36004
 C714 C 0.41774 -0.01199 0.33351
 N715 N 0.39227 0.00044 0.30953
 H716 H 0.43420 -0.03743 0.33100
   
