data_POSCAR
  _audit_creation_date              2014-09-24
  _audit_creation_method            'ToBaCCo'
  _symmetry_space_group_name_H-M    'P1'
  _symmetry_Int_Tables_number       1
  _symmetry_cell_setting            triclinic
  loop_
  _symmetry_equiv_pos_as_xyz
 x,y,z
_cell_length_a 24.6806
_cell_length_b 23.3448
_cell_length_c 30.4747
_cell_angle_alpha 90.056200
_cell_angle_beta 90.341500
_cell_angle_gamma 120.654700
loop_
  _atom_site_label
  _atom_site_type_symbol
  _atom_site_fract_x
  _atom_site_fract_y
  _atom_site_fract_z
C1 C -0.03136 0.50509 1.20785
 C2 C 0.02997 0.51418 1.20797
 C3 C 0.05879 0.51589 1.24827
 C4 C 0.03039 0.51265 1.28886
 C5 C -0.03164 0.50306 1.28923
 C6 C -0.06079 0.50012 1.24850
 H7 H -0.10963 0.48659 1.24829
 H8 H 0.10667 0.52556 1.24816
 C9 C 0.46925 0.49601 1.28943
 C10 C 0.51952 0.48294 1.28884
 C11 C 0.54732 0.48495 1.24838
 C12 C 0.52403 0.49509 1.20882
 C13 C 0.47212 0.50474 1.20952
 C14 C 0.44546 0.50521 1.24987
 H15 H 0.40812 0.51675 1.25082
 H16 H 0.58480 0.47366 1.24737
 C17 C 0.54113 1.01968 1.21305
 C18 C 0.49597 0.95174 1.21771
 C19 C 0.47762 0.92475 1.25966
 C20 C 0.50329 0.96400 1.29789
 C21 C 0.54825 1.03327 1.29347
 C22 C 0.56649 1.05957 1.25075
 H23 H 0.59954 1.11198 1.24600
 H24 H 0.44509 0.87162 1.26211
 C25 C 1.02804 0.51644 0.79491
 C26 C 0.96409 0.49856 0.79579
 C27 C 0.93155 0.49007 0.75607
 C28 C 0.96169 0.50066 0.71564
 C29 C 1.02615 0.52020 0.71443
 C30 C 1.05831 0.52675 0.75427
 H31 H 1.10830 0.54466 0.75419
 H32 H 0.88144 0.47185 0.75643
 C33 C 0.52202 0.49334 0.70774
 C34 C 0.47407 0.50950 0.70843
 C35 C 0.45027 0.51573 0.74863
 C36 C 0.47263 0.50606 0.78864
 C37 C 0.52004 0.48890 0.78814
 C38 C 0.54414 0.48314 0.74788
 H39 H 0.57917 0.46823 0.74797
 H40 H 0.41479 0.53008 0.74874
 C41 C 0.50638 -0.03463 0.78740
 C42 C 0.53824 0.03606 0.78844
 C43 C 0.55746 0.07178 0.74887
 C44 C 0.54421 0.03946 0.70801
 C45 C 0.51010 -0.03093 0.70611
 C46 C 0.49218 -0.06667 0.74595
 H47 H 0.46705 -0.12020 0.74462
 H48 H 0.58105 0.12568 0.74977
 O49 O 0.42013 0.63741 0.96291
 O50 O 0.42468 0.74954 0.94727
 C51 C 0.39840 0.78281 0.93843
 O52 O 0.35332 0.77905 0.96081
 O53 O 0.24305 0.67074 0.95135
 C54 C 0.21342 0.60945 0.94120
 O55 O 0.22018 0.56572 0.96142
 O56 O 0.32061 0.55763 0.95209
 C57 C 0.37857 0.58545 0.94324
 O58 O 0.42126 0.66025 1.04928
 O59 O 0.43360 0.77569 1.03408
 C60 C 0.39884 0.79000 1.05632
 O61 O 0.34036 0.76420 1.04907
 O62 O 0.22850 0.65922 1.03920
 C63 C 0.21355 0.60569 1.05948
 O64 O 0.23569 0.56889 1.04983
 O65 O 0.33529 0.55924 1.04078
 C66 C 0.38603 0.60026 1.06083
 Cr67 Cr 0.42119 0.70404 0.99840
 Cr68 Cr 0.29288 0.71610 1.00007
 Cr69 Cr 0.28002 0.56676 1.00098
 O70 O 0.33113 0.66207 0.99981
 O71 O 0.58133 0.34552 0.94841
 O72 O 0.57252 0.23081 0.96282
 C73 C 0.61163 0.21987 0.94311
 O74 O 0.66903 0.24712 0.95430
 O75 O 0.77690 0.35508 0.96807
 C76 C 0.78781 0.40614 0.94595
 O77 O 0.76163 0.43977 0.95354
 O78 O 0.66073 0.44753 0.96416
 C79 C 0.61199 0.40774 0.94202
 O80 O 0.57631 0.36458 1.03504
 O81 O 0.57290 0.25399 1.05001
 C82 C 0.60091 0.22404 1.06212
 O83 O 0.64828 0.22872 1.04218
 O84 O 0.75485 0.33925 1.05546
 C85 C 0.78496 0.40100 1.06376
 O86 O 0.77916 0.44321 1.04106
 O87 O 0.67502 0.44324 1.05155
 C88 C 0.61632 0.41332 1.05825
 Cr89 Cr 0.57924 0.30021 0.99912
 Cr90 Cr 0.71058 0.29437 1.00486
 Cr91 Cr 0.71734 0.43979 1.00247
 O92 O 0.66910 0.34472 1.00198
 O93 O 0.67866 0.44615 0.54955
 O94 O 0.78471 0.44965 0.54008
 C95 C 0.79148 0.40696 0.56151
 O96 O 0.76601 0.34648 0.55036
 O97 O 0.66365 0.23469 0.53614
 C98 C 0.61539 0.22494 0.55712
 O99 O 0.58366 0.25167 0.54678
 O100 O 0.58165 0.36084 0.53620
 C101 C 0.62029 0.41232 0.55788
 O102 O 0.66634 0.45078 0.46181
 O103 O 0.77029 0.44926 0.45117
 C104 C 0.79706 0.41663 0.44198
 O105 O 0.78758 0.36574 0.46334
 O106 O 0.68156 0.25636 0.44861
 C107 C 0.62381 0.22747 0.43797
 O108 O 0.58361 0.23572 0.45859
 O109 O 0.58540 0.34818 0.44881
 C110 C 0.61623 0.41021 0.44132
 Cr111 Cr 0.72334 0.44516 0.50051
 Cr112 Cr 0.72284 0.30271 0.49952
 Cr113 Cr 0.58729 0.30093 0.49757
 O114 O 0.67775 0.34968 0.49905
 O115 O 0.34441 0.54349 0.52793
 O116 O 0.23782 0.53070 0.55008
 C117 C 0.20691 0.55661 0.56373
 O118 O 0.20364 0.60207 0.54299
 O119 O 0.30286 0.71646 0.55709
 C120 C 0.36116 0.75203 0.56462
 O121 O 0.40283 0.75463 0.53890
 O122 O 0.41321 0.64938 0.54519
 C123 C 0.39030 0.58759 0.55063
 O124 O 0.31610 0.54972 0.44297
 O125 O 0.20534 0.52915 0.46416
 C126 C 0.19004 0.56807 0.44599
 O127 O 0.21514 0.62886 0.45628
 O128 O 0.31183 0.74595 0.47009
 C129 C 0.35866 0.76131 0.44538
 O130 O 0.39543 0.73887 0.45060
 O131 O 0.41197 0.63683 0.45720
 C132 C 0.37407 0.58584 0.43445
 Cr133 Cr 0.27704 0.54159 0.49632
 Cr134 Cr 0.26042 0.67220 0.50637
 Cr135 Cr 0.40264 0.69293 0.49794
 O136 O 0.31338 0.63567 0.49984
 C137 C 0.44470 0.50905 0.32970
 C138 C 0.48168 0.56096 0.35582
 C139 C 0.45800 0.58350 0.39251
 C140 C 0.39738 0.56550 0.39694
 H141 H 0.53189 0.58927 0.34974
 H142 H 0.49245 0.61746 0.41612
 H143 H 0.39442 0.47957 0.33447
 H144 H 0.36226 0.53256 0.37346
 C145 C 0.48926 0.93273 0.33934
 C146 C 0.43448 0.87778 0.34882
 C147 C 0.42626 0.84283 0.39052
 C148 C 0.36932 0.80565 0.40811
 H149 H 0.39503 0.85829 0.32609
 H150 H 0.46722 0.84595 0.40625
 H151 H 0.52424 0.95440 0.36534
 H152 H 0.32912 0.80605 0.39394
 C153 C 0.06825 0.52355 0.32662
 C154 C 0.06708 0.55610 0.36262
 C155 C 0.11326 0.57597 0.39883
 C156 C 0.14097 0.54180 0.41141
 H157 H 0.03735 0.57767 0.36345
 H158 H 0.12374 0.62087 0.41644
 H159 H 0.10670 0.51391 0.32395
 H160 H 0.12758 0.49429 0.39636
 C161 C 0.54257 0.46522 0.32571
 C162 C 0.50839 0.43324 0.36109
 C163 C 0.53247 0.40734 0.39557
 C164 C 0.59336 0.43755 0.40733
 H165 H 0.45894 0.41730 0.36255
 H166 H 0.49827 0.36288 0.41265
 H167 H 0.58845 0.46994 0.32274
 H168 H 0.62694 0.48528 0.39334
 C169 C 0.56997 0.07584 0.33082
 C170 C 0.62168 0.13699 0.33183
 C171 C 0.64190 0.18024 0.37119
 C172 C 0.60169 0.18156 0.40006
 H173 H 0.65403 0.15502 0.30465
 H174 H 0.69193 0.21525 0.37472
 H175 H 0.54404 0.05787 0.36108
 H176 H 0.55135 0.15047 0.39487
 C177 C 0.93309 0.48828 0.32859
 C178 C 0.88424 0.49811 0.33426
 C179 C 0.84643 0.48202 0.37492
 C180 C 0.84099 0.43702 0.40461
 H181 H 0.87279 0.52311 0.30921
 H182 H 0.81827 0.50522 0.37861
 H183 H 0.94761 0.47016 0.35619
 H184 H 0.86577 0.41036 0.39998
 C185 C 0.54870 0.48698 1.16658
 C186 C 0.60848 0.50250 1.16131
 C187 C 0.63084 0.48516 1.12159
 C188 C 0.59251 0.43503 1.09465
 H189 H 0.64287 0.52867 1.18706
 H190 H 0.68129 0.51124 1.11664
 H191 H 0.51588 0.46652 1.13936
 H192 H 0.54238 0.40606 1.10054
 C193 C 0.93509 0.49417 1.16785
 C194 C 0.88453 0.50105 1.16283
 C195 C 0.84657 0.48178 1.12209
 C196 C 0.82907 0.42426 1.10129
 H197 H 0.87160 0.52440 1.18806
 H198 H 0.82690 0.51194 1.11200
 H199 H 0.95099 0.47954 1.13918
 H200 H 0.84384 0.39102 1.11411
 C201 C 0.56375 0.04949 1.16915
 C202 C 0.56775 0.10689 1.15837
 C203 C 0.59061 0.13855 1.11535
 C204 C 0.57697 0.18428 1.10224
 H205 H 0.55237 0.13071 1.18173
 H206 H 0.61839 0.12520 1.09500
 H207 H 0.57438 0.02260 1.14499
 H208 H 0.54646 0.19400 1.12248
 C209 C 0.45037 0.52151 1.16869
 C210 C 0.38989 0.50169 1.16044
 C211 C 0.36938 0.52099 1.12025
 C212 C 0.40657 0.57834 1.09937
 H213 H 0.35374 0.46834 1.18294
 H214 H 0.32112 0.48903 1.10940
 H215 H 0.48560 0.54970 1.14420
 H216 H 0.45307 0.61293 1.11226
 C217 C 0.06770 0.53070 1.16679
 C218 C 0.11070 0.51275 1.15979
 C219 C 0.15216 0.53212 1.12087
 C220 C 0.16826 0.58602 1.09607
 H221 H 0.11506 0.48030 1.18307
 H222 H 0.17354 0.50239 1.11441
 H223 H 0.05964 0.55857 1.14187
 H224 H 0.14979 0.61816 1.10346
 C225 C 0.46809 0.90664 1.17959
 C226 C 0.43341 0.91542 1.14933
 C227 C 0.40237 0.86846 1.11246
 C228 C 0.42925 0.83830 1.09234
 H229 H 0.42421 0.95583 1.15318
 H230 H 0.35779 0.86102 1.10055
 H231 H 0.47172 0.86232 1.17874
 H232 H 0.47617 0.85020 1.10212
 C233 C 0.54742 0.48433 0.66580
 C234 C 0.60711 0.49845 0.66163
 C235 C 0.63141 0.48252 0.62204
 C236 C 0.59481 0.43238 0.59454
 H237 H 0.64049 0.52349 0.68811
 H238 H 0.68201 0.50969 0.61773
 H239 H 0.51619 0.46522 0.63776
 H240 H 0.54464 0.40231 0.60018
 C241 C 0.55994 0.07998 0.66752
 C242 C 0.61778 0.13163 0.66019
 C243 C 0.63533 0.17091 0.61928
 C244 C 0.59483 0.18063 0.59548
 H245 H 0.65491 0.14339 0.68393
 H246 H 0.68462 0.19652 0.61034
 H247 H 0.52392 0.06419 0.64234
 H248 H 0.54683 0.16047 0.60643
 C249 C 0.92366 0.48207 0.67467
 C250 C 0.88092 0.49976 0.66612
 C251 C 0.84463 0.48199 0.62450
 C252 C 0.83099 0.42740 0.60125
 H253 H 0.87443 0.53099 0.68924
 H254 H 0.82561 0.51271 0.61429
 H255 H 0.93421 0.45594 0.64994
 H256 H 0.84484 0.39314 0.61342
 C257 C 0.45310 0.52902 0.66880
 C258 C 0.42003 0.48611 0.63649
 C259 C 0.39459 0.50459 0.59851
 C260 C 0.41928 0.56760 0.58494
 H261 H 0.40761 0.43457 0.63928
 H262 H 0.35410 0.46484 0.58159
 H263 H 0.45947 0.57843 0.66918
 H264 H 0.46139 0.60719 0.60042
 C265 C 0.49659 0.93565 0.66506
 C266 C 0.44957 0.87296 0.65837
 C267 C 0.43682 0.84098 0.61483
 C268 C 0.37924 0.79012 0.60585
 H269 H 0.41650 0.84552 0.68418
 H270 H 0.47360 0.85916 0.59039
 H271 H 0.52338 0.96282 0.63656
 H272 H 0.34255 0.77533 0.63016
 C273 C 0.05777 0.53719 0.67395
 C274 C 0.11011 0.53585 0.66547
 C275 C 0.13840 0.55551 0.62182
 C276 C 0.17434 0.53316 0.60582
 H277 H 0.13024 0.51731 0.68921
 H278 H 0.12903 0.58844 0.60237
 H279 H 0.03697 0.54968 0.64689
 H280 H 0.18187 0.49853 0.62481
 C281 C 0.44595 0.51705 0.82910
 C282 C 0.48221 0.55613 0.86205
 C283 C 0.45909 0.57963 0.89876
 C284 C 0.39815 0.55593 0.90832
 H285 H 0.53269 0.57726 0.86036
 H286 H 0.49514 0.61985 0.91843
 H287 H 0.39627 0.50032 0.82822
 H288 H 0.36120 0.51413 0.89039
 C289 C 0.06518 0.53115 0.83619
 C290 C 0.10890 0.51398 0.84218
 C291 C 0.14862 0.53158 0.88212
 C292 C 0.16889 0.58892 0.90397
 H293 H 0.11469 0.48403 0.81759
 H294 H 0.16604 0.49901 0.89129
 H295 H 0.05523 0.55556 0.86252
 H296 H 0.15598 0.62428 0.89243
 C297 C 0.48935 0.92774 0.82682
 C298 C 0.47709 0.86461 0.82942
 C299 C 0.45859 0.82525 0.87020
 C300 C 0.42094 0.82828 0.90048
 H301 H 0.48578 0.84122 0.80193
 H302 H 0.47201 0.78786 0.87307
 H303 H 0.48931 0.95144 0.85728
 H304 H 0.40336 0.86200 0.89611
 C305 C 0.54510 0.47416 0.82788
 C306 C 0.50749 0.42805 0.85678
 C307 C 0.53127 0.40251 0.89172
 C308 C 0.59017 0.43607 0.90795
 H309 H 0.45690 0.40313 0.85218
 H310 H 0.49798 0.35406 0.90493
 H311 H 0.59544 0.49420 0.82923
 H312 H 0.62259 0.48660 0.89768
 C313 C 0.92935 0.48311 0.83772
 C314 C 0.88359 0.49696 0.84409
 C315 C 0.84411 0.47801 0.88356
 C316 C 0.83298 0.42692 0.90966
 H317 H 0.87486 0.52487 0.81954
 H318 H 0.81943 0.50465 0.88907
 H319 H 0.94238 0.46077 0.86369
 H320 H 0.85471 0.39758 0.90323
 C321 C 0.55281 0.07431 0.83022
 C322 C 0.61055 0.12619 0.83852
 C323 C 0.62902 0.16723 0.87891
 C324 C 0.58892 0.17346 0.90532
 H325 H 0.64769 0.13825 0.81510
 H326 H 0.67917 0.19705 0.88534
 H327 H 0.51613 0.05862 0.85444
 H328 H 0.53898 0.14709 0.89799
   
