data_POSCAR
  _audit_creation_date              2014-09-24
  _audit_creation_method            'ToBaCCo'
  _symmetry_space_group_name_H-M    'P1'
  _symmetry_Int_Tables_number       1
  _symmetry_cell_setting            triclinic
  loop_
  _symmetry_equiv_pos_as_xyz
 x,y,z
_cell_length_a 42.0854
_cell_length_b 42.2142
_cell_length_c 13.2261
_cell_angle_alpha 90.740500
_cell_angle_beta 89.127100
_cell_angle_gamma 120.182800
loop_
  _atom_site_label
  _atom_site_type_symbol
  _atom_site_fract_x
  _atom_site_fract_y
  _atom_site_fract_z
C1 C 0.14807 0.45903 0.39891
 C2 C 0.13117 0.45895 0.49194
 C3 C 0.14703 0.46025 0.58592
 C4 C 0.18068 0.46009 0.58726
 C5 C 0.19813 0.45954 0.49493
 C6 C 0.18171 0.45868 0.40083
 C7 C 0.19876 0.45601 0.31116
 C8 C 0.23185 0.45619 0.31302
 C9 C 0.24938 0.45865 0.40457
 C10 C 0.23210 0.45962 0.49677
 C11 C 0.19653 0.45868 0.67887
 C12 C 0.22956 0.45887 0.68061
 C13 C 0.24847 0.46026 0.59081
 C14 C 0.28216 0.46014 0.59229
 C15 C 0.29898 0.46025 0.49965
 C16 C 0.28332 0.45931 0.40624
 H17 H 0.18641 0.45269 0.23794
 H18 H 0.24307 0.45357 0.24138
 H19 H 0.18316 0.45624 0.75107
 H20 H 0.23939 0.45687 0.75389
 H21 H 0.10775 0.46290 0.49163
 H22 H 0.32646 0.46422 0.50007
 C23 C 0.51489 -0.32309 0.38939
 C24 C 0.51264 -0.34014 0.48080
 C25 C 0.51484 -0.32339 0.57537
 C26 C 0.51882 -0.28767 0.57636
 C27 C 0.52046 -0.27025 0.48331
 C28 C 0.51875 -0.28806 0.38993
 C29 C 0.52131 -0.27030 0.29875
 C30 C 0.52440 -0.23612 0.29846
 C31 C 0.52516 -0.21824 0.38935
 C32 C 0.52378 -0.23493 0.48301
 C33 C 0.52248 -0.26815 0.66681
 C34 C 0.52583 -0.23351 0.66650
 C35 C 0.52561 -0.21648 0.57572
 C36 C 0.52827 -0.18126 0.57399
 C37 C 0.52904 -0.16612 0.47891
 C38 C 0.52772 -0.18382 0.38807
 H39 H 0.52124 -0.28250 0.22625
 H40 H 0.52652 -0.22371 0.22572
 H41 H 0.52365 -0.27889 0.73945
 H42 H 0.52938 -0.22017 0.73899
 H43 H 0.50580 -0.36846 0.47622
 H44 H 0.52744 -0.14146 0.47319
 C45 C 1.32214 0.83023 0.42490
 C46 C 1.33605 0.84480 0.52110
 C47 C 1.31743 0.82840 0.61140
 C48 C 1.28305 0.79569 0.60635
 C49 C 1.26802 0.77984 0.51090
 C50 C 1.28743 0.79704 0.41990
 C51 C 1.27077 0.78103 0.32690
 C52 C 1.23698 0.74870 0.32299
 C53 C 1.21776 0.73113 0.41161
 C54 C 1.23309 0.74695 0.50665
 C55 C 1.26226 0.77960 0.69439
 C56 C 1.22831 0.74788 0.69009
 C57 C 1.21339 0.73024 0.59750
 C58 C 1.17854 0.69751 0.59317
 C59 C 1.16415 0.68269 0.49745
 C60 C 1.18307 0.69873 0.40736
 H61 H 1.28291 0.79344 0.25523
 H62 H 1.22563 0.73805 0.24913
 H63 H 1.27131 0.79195 0.76820
 H64 H 1.21363 0.73830 0.76098
 H65 H 1.36399 0.86710 0.52747
 H66 H 1.13909 0.65645 0.49174
 C67 C 0.68402 0.52699 0.42573
 C68 C 0.66824 0.52666 0.51978
 C69 C 0.68718 0.53331 0.61133
 C70 C 0.72278 0.53710 0.60846
 C71 C 0.73919 0.53689 0.51357
 C72 C 0.72012 0.53295 0.42217
 C73 C 0.73775 0.53530 0.32933
 C74 C 0.77274 0.53983 0.32567
 C75 C 0.79143 0.54167 0.41468
 C76 C 0.77482 0.54067 0.50971
 C77 C 0.74313 0.54238 0.69680
 C78 C 0.77745 0.54501 0.69307
 C79 C 0.79353 0.54313 0.60067
 C80 C 0.82833 0.54503 0.59655
 C81 C 0.84434 0.54674 0.50079
 C82 C 0.82649 0.54496 0.41050
 H83 H 0.72495 0.53421 0.25811
 H84 H 0.78500 0.54205 0.25172
 H85 H 0.73314 0.54492 0.77039
 H86 H 0.79159 0.54969 0.76401
 H87 H 0.63931 0.51800 0.52214
 H88 H 0.86945 0.54570 0.49486
 C89 C 0.49813 0.30513 0.36794
 C90 C 0.50386 0.32544 0.45733
 C91 C 0.51452 0.31606 0.54673
 C92 C 0.51900 0.28506 0.54793
 C93 C 0.51248 0.26361 0.45902
 C94 C 0.50210 0.27377 0.36872
 C95 C 0.49508 0.25181 0.28193
 C96 C 0.49814 0.22054 0.28348
 C97 C 0.50873 0.21010 0.37160
 C98 C 0.51613 0.23184 0.46051
 C99 C 0.52871 0.27432 0.63674
 C100 C 0.53211 0.24325 0.63866
 C101 C 0.52643 0.22158 0.55126
 C102 C 0.52896 0.18913 0.55281
 C103 C 0.52186 0.16856 0.46265
 C104 C 0.51137 0.17809 0.37339
 H105 H 0.48632 0.25812 0.21227
 H106 H 0.49154 0.20436 0.21480
 H107 H 0.53313 0.28952 0.70669
 H108 H 0.53846 0.23639 0.71095
 H109 H 0.50187 0.35007 0.45620
 H110 H 0.52675 0.14573 0.45891
 C111 C 0.69738 0.18589 0.62883
 C112 C 0.68030 0.17099 0.53605
 C113 C 0.69169 0.19129 0.44666
 C114 C 0.72224 0.22717 0.44833
 C115 C 0.73939 0.24328 0.54155
 C116 C 0.72636 0.22295 0.63248
 C117 C 0.74232 0.24046 0.72436
 C118 C 0.77012 0.27711 0.72721
 C119 C 0.78518 0.29722 0.63785
 C120 C 0.76913 0.28010 0.54385
 C121 C 0.73620 0.24718 0.35862
 C122 C 0.76583 0.28271 0.36029
 C123 C 0.78215 0.29993 0.45194
 C124 C 0.81125 0.33648 0.45386
 C125 C 0.82525 0.35353 0.54655
 C126 C 0.81369 0.33472 0.63857
 H127 H 0.73300 0.22637 0.79575
 H128 H 0.77876 0.28946 0.80094
 H129 H 0.72465 0.23540 0.28576
 H130 H 0.77548 0.29669 0.28873
 H131 H 0.65617 0.14385 0.53431
 H132 H 0.84690 0.38212 0.54612
 O133 O 0.97785 0.54020 -0.17180
 O134 O 1.02063 0.56706 0.16538
 O135 O 0.93801 0.53088 0.06490
 O136 O 1.06101 0.57485 -0.07205
 O137 O 0.95761 0.52300 0.20260
 O138 O 1.03477 0.54081 -0.19758
 O139 O 1.06849 0.56844 0.10267
 O140 O 0.92574 0.50639 -0.10079
 C141 C 0.94569 0.53252 -0.15841
 C142 C 1.05420 0.58417 0.15035
 C143 C 0.94368 0.53808 0.15566
 C144 C 1.05452 0.57205 -0.16337
 O145 O 1.00132 0.46929 -0.15710
 O146 O 0.97353 0.46897 0.19253
 O147 O 0.92400 0.44371 -0.02927
 O148 O 1.05203 0.49660 0.06558
 O149 O 1.03771 0.51507 0.19736
 O150 O 0.94316 0.46680 -0.17302
 O151 O 1.05608 0.50775 -0.11028
 O152 O 0.92365 0.46374 0.13778
 Co153 Co 0.98964 0.50498 -0.15647
 Co154 Co 0.99692 0.51775 0.17132
 Co155 Co 0.93418 0.48860 0.01706
 Co156 Co 1.05313 0.53449 -0.00237
 O157 O 0.99347 0.51147 0.00743
 C158 C 1.03412 0.47821 -0.15373
 C159 C 0.93966 0.45112 0.18833
 C160 C 0.92473 0.43910 -0.12113
 C161 C 1.04807 0.49502 0.15819
 O162 O 0.45907 0.41698 -0.13409
 O163 O 0.44823 0.48139 0.19842
 O164 O 0.49533 0.42112 0.07201
 O165 O 0.41442 0.48469 -0.10993
 O166 O 0.45287 0.42758 0.14233
 O167 O 0.41955 0.43924 -0.16331
 O168 O 0.41232 0.47637 0.07685
 O169 O 0.51393 0.43333 -0.10978
 C170 C 0.48372 0.40991 -0.14332
 C171 C 0.41693 0.47292 0.16810
 C172 C 0.46649 0.40800 0.12455
 C173 C 0.40175 0.45519 -0.15775
 O174 O 0.47568 0.50589 -0.21943
 O175 O 0.50697 0.47534 0.24390
 O176 O 0.55322 0.50366 -0.06996
 O177 O 0.47493 0.54060 0.09131
 O178 O 0.51502 0.52654 0.13956
 O179 O 0.51848 0.48365 -0.20322
 O180 O 0.47702 0.54410 -0.10122
 O181 O 0.54513 0.49193 0.11339
 Co182 Co 0.46930 0.46239 -0.16745
 Co183 Co 0.48394 0.47668 0.13248
 Co184 Co 0.52177 0.46366 0.00036
 Co185 Co 0.44796 0.50838 -0.00984
 O186 O 0.47796 0.47799 -0.01668
 C187 C 0.48249 0.53762 -0.19106
 C188 C 0.53996 0.48546 0.20822
 C189 C 0.54941 0.50423 -0.16326
 C190 C 0.50415 0.54895 0.13644
 O191 O 0.55622 0.02829 -0.19528
 O192 O 0.55885 -0.02435 0.13155
 O193 O 0.57231 0.08040 0.10014
 O194 O 0.51527 -0.07013 -0.09192
 O195 O 0.58225 0.03748 0.11839
 O196 O 0.50946 -0.03677 -0.20738
 O197 O 0.51016 -0.07446 0.09685
 O198 O 0.58519 0.05706 -0.06203
 C199 C 0.58588 0.04951 -0.15265
 C200 C 0.54188 -0.05804 0.13092
 C201 C 0.59146 0.06946 0.13963
 C202 C 0.51762 -0.06063 -0.18212
 O203 O 0.45919 -0.01940 -0.13362
 O204 O 0.51661 0.03081 0.19137
 O205 O 0.55160 0.09247 -0.07780
 O206 O 0.45211 -0.06856 0.09379
 O207 O 0.49312 -0.03486 0.20743
 O208 O 0.50370 0.04292 -0.12555
 O209 O 0.45243 -0.07167 -0.09685
 O210 O 0.50492 0.05253 0.05696
 Co211 Co 0.50821 0.00319 -0.15218
 Co212 Co 0.53635 0.00205 0.15030
 Co213 Co 0.54363 0.05235 -0.00592
 Co214 Co 0.48603 -0.06468 0.00027
 O215 O 0.51855 -0.00410 0.00193
 C216 C 0.43982 -0.05304 -0.13254
 C217 C 0.50153 0.04687 0.15045
 C218 C 0.52621 0.07602 -0.14510
 C219 C 0.46028 -0.05791 0.18343
 C220 C 1.13376 0.46402 0.30740
 C221 C 1.09882 0.45607 0.29658
 C222 C 1.08740 0.47048 0.21198
 C223 C 1.05714 0.47293 0.22347
 H224 H 1.07839 0.44079 0.35424
 H225 H 1.10557 0.48302 0.14757
 H226 H 1.15216 0.47685 0.24386
 H227 H 1.04109 0.46300 0.29270
 C228 C 0.50876 0.65534 0.29500
 C229 C 0.52484 0.63534 0.27877
 C230 C 0.51147 0.60697 0.19966
 C231 C 0.52372 0.58333 0.19400
 H232 H 0.54550 0.63741 0.33080
 H233 H 0.48865 0.60290 0.15335
 H234 H 0.48857 0.65376 0.24212
 H235 H 0.54638 0.58737 0.24099
 C236 C 0.34444 -0.15280 0.33770
 C237 C 0.37291 -0.11807 0.33632
 C238 C 0.39910 -0.10334 0.25078
 C239 C 0.43182 -0.07286 0.26323
 H240 H 0.37799 -0.09963 0.39939
 H241 H 0.39253 -0.11831 0.17976
 H242 H 0.33964 -0.16849 0.26877
 H243 H 0.43873 -0.05923 0.33632
 C244 C 0.84269 0.54124 0.31340
 C245 C 0.87877 0.56026 0.29377
 C246 C 0.89479 0.54964 0.20936
 C247 C 0.93011 0.55901 0.21207
 H248 H 0.89698 0.58123 0.34656
 H249 H 0.87677 0.52959 0.15430
 H250 H 0.82475 0.52033 0.26018
 H251 H 0.94710 0.57637 0.27314
 C252 C 0.49269 0.31991 0.27257
 C253 C 0.46960 0.33287 0.26575
 C254 C 0.47258 0.35631 0.18022
 C255 C 0.45275 0.37306 0.17825
 H256 H 0.45134 0.32954 0.32859
 H257 H 0.49525 0.36440 0.12719
 H258 H 0.51026 0.32257 0.20859
 H259 H 0.43035 0.36523 0.23200
 C260 C 0.66901 0.17571 0.35485
 C261 C 0.65707 0.14129 0.32501
 C262 C 0.63103 0.12451 0.24122
 C263 C 0.62148 0.09075 0.21028
 H264 H 0.66582 0.12480 0.36532
 H265 H 0.61826 0.13881 0.20890
 H266 H 0.66155 0.19275 0.31234
 H267 H 0.63463 0.07691 0.24320
 C268 C 0.53905 0.17736 -0.35914
 C269 C 0.52835 0.14208 -0.34231
 C270 C 0.53791 0.12938 -0.25029
 C271 C 0.51976 0.09354 -0.23113
 H272 H 0.50974 0.12110 -0.39423
 H273 H 0.55892 0.14864 -0.19954
 H274 H 0.55459 0.19669 -0.30011
 H275 H 0.49816 0.07519 -0.28205
 C276 C 0.66846 0.53247 -0.29749
 C277 C 0.64128 0.54050 -0.29484
 C278 C 0.61418 0.52897 -0.21171
 C279 C 0.58127 0.52534 -0.22967
 H280 H 0.63650 0.55289 -0.35983
 H281 H 0.61897 0.51877 -0.14214
 H282 H 0.67469 0.52350 -0.22817
 H283 H 0.57596 0.53285 -0.30298
 C284 C 0.83176 0.35615 -0.27585
 C285 C 0.84469 0.34609 -0.19758
 C286 C 0.87223 0.37501 -0.13072
 C287 C 0.90119 0.40413 -0.17269
 H288 H 0.83890 0.31827 -0.18828
 H289 H 0.86747 0.37348 -0.04979
 H290 H 0.84176 0.38533 -0.28226
 H291 H 0.90548 0.40403 -0.25379
 C292 C 0.52673 -0.16271 -0.33678
 C293 C 0.53666 -0.12693 -0.33423
 C294 C 0.52801 -0.10990 -0.24813
 C295 C 0.52874 -0.07807 -0.26123
 H296 H 0.55075 -0.10925 -0.39767
 H297 H 0.51897 -0.12424 -0.17675
 H298 H 0.51563 -0.17793 -0.26765
 H299 H 0.53589 -0.06516 -0.33487
 C300 C 0.30094 0.46287 -0.31706
 C301 C 0.32292 0.44856 -0.30834
 C302 C 0.34866 0.45788 -0.22416
 C303 C 0.36808 0.44085 -0.21739
 H304 H 0.32328 0.43061 -0.36720
 H305 H 0.35456 0.48099 -0.17538
 H306 H 0.29804 0.47718 -0.25231
 H307 H 0.36146 0.41760 -0.26650
 C308 C 1.15973 0.67807 -0.31813
 C309 C 1.12341 0.65461 -0.31346
 C310 C 1.10589 0.63054 -0.22563
 C311 C 1.07149 0.60278 -0.23404
 H312 H 1.10604 0.65197 -0.37634
 H313 H 1.12194 0.63296 -0.15961
 H314 H 1.17513 0.68138 -0.25027
 H315 H 1.05677 0.59946 -0.30362
 C316 C 0.84482 0.54082 -0.31548
 C317 C 0.88064 0.55143 -0.30883
 C318 C 0.89491 0.53929 -0.22553
 C319 C 0.93069 0.55002 -0.22266
 H320 H 0.89990 0.56825 -0.36715
 H321 H 0.87581 0.51910 -0.17243
 H322 H 0.82760 0.52704 -0.25056
 H323 H 0.94939 0.57010 -0.27669
 C324 C 0.52229 0.34022 -0.36365
 C325 C 0.49685 0.34723 -0.32611
 C326 C 0.50486 0.37412 -0.24407
 C327 C 0.47773 0.37854 -0.20648
 H328 H 0.46973 0.33370 -0.35953
 H329 H 0.53298 0.39203 -0.22045
 H330 H 0.54907 0.35223 -0.32880
 H331 H 0.44987 0.36048 -0.23211
 C332 C 0.68143 0.16328 -0.27867
 C333 C 0.66826 0.12700 -0.27864
 C334 C 0.64372 0.10393 -0.19672
 C335 C 0.61991 0.06832 -0.21301
 H336 H 0.67211 0.11378 -0.34472
 H337 H 0.64071 0.11727 -0.12957
 H338 H 0.67726 0.17606 -0.21218
 H339 H 0.62106 0.05575 -0.28392
 C340 C 1.13162 0.46622 -0.32470
 C341 C 1.09593 0.45572 -0.31324
 C342 C 1.08306 0.46944 -0.22827
 C343 C 1.04731 0.45802 -0.21636
 H344 H 1.07602 0.43804 -0.36876
 H345 H 1.10319 0.49163 -0.18179
 H346 H 1.14956 0.48101 -0.26235
 H347 H 1.02738 0.43575 -0.26304
 C348 C 0.50953 0.65596 -0.33531
 C349 C 0.51465 0.62694 -0.33275
 C350 C 0.50102 0.60016 -0.24991
 C351 C 0.49751 0.56713 -0.26617
 H352 H 0.52812 0.62139 -0.39513
 H353 H 0.49210 0.60648 -0.17903
 H354 H 0.49933 0.66236 -0.26713
 H355 H 0.50516 0.56095 -0.33935
 C356 C 0.33535 -0.15674 -0.29586
 C357 C 0.35816 -0.12077 -0.28267
 C358 C 0.38405 -0.10623 -0.19846
 C359 C 0.40509 -0.07004 -0.18751
 H360 H 0.35969 -0.10159 -0.33904
 H361 H 0.38920 -0.12471 -0.15473
 H362 H 0.33129 -0.17484 -0.23354
 H363 H 0.39922 -0.05203 -0.23121
 C364 C 0.52462 -0.16738 0.29331
 C365 C 0.54700 -0.13201 0.27296
 C366 C 0.53769 -0.11411 0.19391
 C367 C 0.55701 -0.07780 0.18352
 H368 H 0.57008 -0.11548 0.32200
 H369 H 0.51227 -0.13011 0.15289
 H370 H 0.50192 -0.18415 0.24346
 H371 H 0.58233 -0.06186 0.22497
 C372 C 0.30508 0.46296 0.31244
 C373 C 0.32787 0.44950 0.30587
 C374 C 0.35551 0.46024 0.22446
 C375 C 0.38639 0.45952 0.24127
 H376 H 0.32835 0.43254 0.36598
 H377 H 0.35201 0.47122 0.15455
 H378 H 0.30476 0.47961 0.25125
 H379 H 0.39043 0.45071 0.31425
 C380 C 1.16715 0.67861 0.31113
 C381 C 1.13136 0.66403 0.29143
 C382 C 1.11283 0.63567 0.21277
 C383 C 1.07633 0.61935 0.20337
 H384 H 1.11465 0.67050 0.34121
 H385 H 1.12820 0.62532 0.17137
 H386 H 1.18443 0.67327 0.26049
 H387 H 1.06142 0.62978 0.24673
 C388 C 0.50627 0.15545 0.28126
 C389 C 0.48894 0.11880 0.28466
 C390 C 0.49200 0.09729 0.20039
 C391 C 0.48516 0.06319 0.21628
 H392 H 0.47568 0.10488 0.35440
 H393 H 0.50531 0.11115 0.13058
 H394 H 0.51928 0.16929 0.21129
 H395 H 0.47460 0.05060 0.28931
 C396 C 0.66055 0.51726 0.33410
 C397 C 0.63367 0.52526 0.32783
 C398 C 0.60475 0.50856 0.25166
 C399 C 0.57058 0.49955 0.27888
 H400 H 0.63072 0.54205 0.38565
 H401 H 0.61097 0.50291 0.17603
 H402 H 0.66315 0.50054 0.27542
 H403 H 0.56475 0.50333 0.35688
 C404 C 0.82793 0.35815 0.36087
 C405 C 0.86431 0.37515 0.34583
 C406 C 0.88259 0.40158 0.26356
 C407 C 0.91922 0.41922 0.25437
 H408 H 0.88119 0.37105 0.39933
 H409 H 0.86642 0.40865 0.21568
 H410 H 0.81049 0.36104 0.30679
 H411 H 0.93506 0.41196 0.30304
   
