data_POSCAR
  _audit_creation_date              2014-09-24
  _audit_creation_method            'ToBaCCo'
  _symmetry_space_group_name_H-M    'P1'
  _symmetry_Int_Tables_number       1
  _symmetry_cell_setting            triclinic
  loop_
  _symmetry_equiv_pos_as_xyz
 x,y,z
_cell_length_a 39.7012
_cell_length_b 37.8065
_cell_length_c 38.8897
_cell_angle_alpha 91.116000
_cell_angle_beta 90.321100
_cell_angle_gamma 89.718100
loop_
  _atom_site_label
  _atom_site_type_symbol
  _atom_site_fract_x
  _atom_site_fract_y
  _atom_site_fract_z
N1 N 0.59027 0.66690 0.60404
 N2 N 0.57617 0.65524 0.63212
 C3 C 0.54662 0.67209 0.63707
 C4 C 0.54183 0.69543 0.61053
 C5 C 0.57022 0.69180 0.59027
 H6 H 0.53025 0.66843 0.65883
 H7 H 0.57611 0.70674 0.56767
 Cu8 Cu 0.59801 0.62006 0.66026
 Cu9 Cu 0.63448 0.65051 0.58876
 Cu10 Cu 0.67617 0.59218 0.64248
 N11 N 0.61580 0.57643 0.67890
 N12 N 0.64660 0.56577 0.67217
 C13 C 0.65300 0.53587 0.68923
 C14 C 0.62429 0.52655 0.70720
 C15 C 0.60140 0.55354 0.70036
 H16 H 0.67742 0.52310 0.68980
 H17 H 0.57598 0.55624 0.70993
 N18 N 0.69613 0.61044 0.60025
 N19 N 0.67970 0.63107 0.57883
 C20 C 0.69906 0.63627 0.55106
 C21 C 0.72886 0.61761 0.55501
 C22 C 0.72638 0.60212 0.58681
 H23 H 0.69199 0.65212 0.52931
 H24 H 0.74502 0.58555 0.59904
 H25 H 0.63430 0.60203 0.61308
 H26 H 0.65178 0.64111 0.63696
 N27 N 0.91442 0.33441 0.10275
 N28 N 0.92945 0.35019 0.12895
 C29 C 0.95854 0.33308 0.13566
 C30 C 0.96236 0.30533 0.11193
 C31 C 0.93321 0.30671 0.09207
 H32 H 0.97603 0.34081 0.15581
 H33 H 0.92530 0.28812 0.07220
 Cu34 Cu 0.90922 0.39149 0.15147
 Cu35 Cu 0.87231 0.35149 0.08325
 Cu36 Cu 0.83728 0.42679 0.12093
 N37 N 0.88753 0.43179 0.17427
 N38 N 0.86060 0.44663 0.16091
 C39 C 0.85102 0.47410 0.18110
 C40 C 0.87232 0.47592 0.20936
 C41 C 0.89560 0.44902 0.20381
 H42 H 0.82980 0.49123 0.17582
 H43 H 0.91651 0.44226 0.22041
 N44 N 0.81724 0.40227 0.08070
 N45 N 0.83001 0.37297 0.06701
 C46 C 0.80961 0.36152 0.04138
 C47 C 0.78249 0.38437 0.03923
 C48 C 0.78838 0.41020 0.06414
 H49 H 0.81381 0.33804 0.02564
 H50 H 0.77255 0.43288 0.06989
 H51 H 0.87901 0.40366 0.09814
 H52 H 0.85424 0.37565 0.12780
 N53 N 0.41056 0.17117 -0.10333
 N54 N 0.42833 0.15361 -0.12646
 C55 C 0.45733 0.17102 -0.13177
 C56 C 0.45782 0.20096 -0.11065
 C57 C 0.42734 0.20051 -0.09355
 H58 H 0.47663 0.16276 -0.14976
 H59 H 0.41785 0.22032 -0.07561
 Cu60 Cu 0.41060 0.11076 -0.14822
 Cu61 Cu 0.36777 0.15397 -0.08620
 Cu62 Cu 0.33708 0.07633 -0.12344
 N63 N 0.39288 0.06786 -0.16985
 N64 N 0.36409 0.05453 -0.15987
 C65 C 0.35696 0.02572 -0.17937
 C66 C 0.38280 0.02050 -0.20263
 C67 C 0.40496 0.04798 -0.19620
 H68 H 0.33421 0.01028 -0.17752
 H69 H 0.42785 0.05327 -0.21010
 N70 N 0.31355 0.10244 -0.08627
 N71 N 0.32515 0.13209 -0.07226
 C72 C 0.30401 0.14299 -0.04721
 C73 C 0.27766 0.11940 -0.04574
 C74 C 0.28465 0.09381 -0.07056
 H75 H 0.30758 0.16616 -0.03088
 H76 H 0.27006 0.07030 -0.07614
 H77 H 0.37630 0.10108 -0.09757
 H78 H 0.35367 0.12723 -0.13080
 N79 N 0.08813 0.83182 0.39341
 N80 N 0.07628 0.84195 0.36359
 C81 C 0.04710 0.82518 0.35693
 C82 C 0.03966 0.80366 0.38443
 C83 C 0.06689 0.80817 0.40675
 H84 H 0.03325 0.82746 0.33306
 H85 H 0.07065 0.79585 0.43134
 Cu86 Cu 0.09931 0.87668 0.33628
 Cu87 Cu 0.13029 0.85002 0.41236
 Cu88 Cu 0.16267 0.92333 0.37279
 N89 N 0.11333 0.92189 0.31862
 N90 N 0.13695 0.94088 0.33377
 C91 C 0.14051 0.97133 0.31679
 C92 C 0.11766 0.97157 0.28971
 C93 C 0.10132 0.93937 0.29134
 H94 H 0.15865 0.99165 0.32335
 H95 H 0.08242 0.92913 0.27370
 N96 N 0.18488 0.90091 0.41232
 N97 N 0.17265 0.87268 0.42722
 C98 C 0.19402 0.86264 0.45225
 C99 C 0.22122 0.88530 0.45276
 C100 C 0.21437 0.90957 0.42748
 H101 H 0.19048 0.84011 0.46853
 H102 H 0.22992 0.93168 0.42051
 H103 H 0.12018 0.89877 0.39113
 H104 H 0.15174 0.86988 0.36804
 C105 C 0.10563 0.16212 0.10406
 C106 C 0.13316 0.14417 0.08951
 C107 C 0.14546 0.11373 0.10440
 C108 C 0.13031 0.10093 0.13416
 C109 C 0.10323 0.11884 0.14868
 C110 C 0.09059 0.14949 0.13334
 C111 C 0.08751 0.19117 0.09391
 N112 N 0.06117 0.19587 0.11568
 C113 C 0.06318 0.17093 0.14028
 C114 C 0.09362 0.10039 0.17711
 N115 N 0.11361 0.07125 0.17969
 C116 C 0.13637 0.07163 0.15375
 C117 C 0.17158 0.10146 0.08418
 N118 N 0.17489 0.12350 0.05729
 C119 C 0.15175 0.14985 0.06045
 H120 H 0.09258 0.20725 0.07181
 H121 H 0.04540 0.16801 0.16103
 H122 H 0.07370 0.10774 0.19479
 H123 H 0.15585 0.05193 0.14944
 H124 H 0.18678 0.07806 0.08836
 H125 H 0.14863 0.17136 0.04271
 C126 C 0.40037 0.84195 0.59527
 C127 C 0.37307 0.86045 0.58112
 C128 C 0.35937 0.88925 0.59869
 C129 C 0.37275 0.89990 0.63068
 C130 C 0.39976 0.88169 0.64459
 C131 C 0.41369 0.85262 0.62676
 C132 C 0.41820 0.81247 0.58444
 N133 N 0.44175 0.80512 0.60872
 C134 C 0.43942 0.82958 0.63455
 C135 C 0.40691 0.89713 0.67609
 N136 N 0.38468 0.92397 0.68169
 C137 C 0.36393 0.92619 0.65397
 C138 C 0.33261 0.90130 0.57945
 N139 N 0.33006 0.88078 0.55054
 C140 C 0.35441 0.85546 0.55151
 H141 H 0.41422 0.79726 0.56091
 H142 H 0.45501 0.83016 0.65749
 H143 H 0.42655 0.88930 0.69385
 H144 H 0.34366 0.94522 0.65128
 H145 H 0.31592 0.92308 0.58611
 H146 H 0.35781 0.83460 0.53236
 C147 C 0.90178 0.65891 0.40650
 C148 C 0.87691 0.63971 0.42344
 C149 C 0.86168 0.61126 0.40689
 C150 C 0.87103 0.60161 0.37332
 C151 C 0.89522 0.62073 0.35640
 C152 C 0.91081 0.64954 0.37314
 C153 C 0.92050 0.68809 0.41601
 N154 N 0.94041 0.69655 0.38921
 C155 C 0.93482 0.67321 0.36291
 C156 C 0.89848 0.60584 0.32396
 N157 N 0.87674 0.57828 0.32084
 C158 C 0.86031 0.57519 0.35118
 C159 C 0.83704 0.59909 0.42826
 N160 N 0.83720 0.61912 0.45764
 C161 C 0.86134 0.64423 0.45481
 H162 H 0.91957 0.70234 0.44040
 H163 H 0.94720 0.67366 0.33819
 H164 H 0.91543 0.61435 0.30407
 H165 H 0.84216 0.55487 0.35688
 H166 H 0.81922 0.57825 0.42227
 H167 H 0.86632 0.66502 0.47368
 C168 C 0.60277 0.34310 -0.10467
 C169 C 0.63254 0.35848 -0.09213
 C170 C 0.64687 0.38639 -0.10917
 C171 C 0.63170 0.39908 -0.13917
 C172 C 0.60207 0.38408 -0.15141
 C173 C 0.58740 0.35601 -0.13388
 C174 C 0.58337 0.31577 -0.09324
 N175 N 0.55605 0.31236 -0.11422
 C176 C 0.55858 0.33654 -0.13947
 C177 C 0.59319 0.40158 -0.18087
 N178 N 0.61685 0.42645 -0.18670
 C179 C 0.64039 0.42536 -0.16136
 C180 C 0.67475 0.39693 -0.09049
 N181 N 0.67721 0.37642 -0.06234
 C182 C 0.65189 0.35244 -0.06339
 H183 H 0.58886 0.29934 -0.07140
 H184 H 0.54070 0.33972 -0.16032
 H185 H 0.57153 0.39631 -0.19718
 H186 H 0.66238 0.44214 -0.15960
 H187 H 0.69151 0.41847 -0.09635
 H188 H 0.64752 0.33263 -0.04419
 C189 C -0.00347 0.25961 0.07995
 C190 C -0.01130 0.27988 0.11032
 C191 C 0.00669 0.27259 0.14070
 C192 C 0.02978 0.24483 0.14207
 C193 C 0.03574 0.22300 0.11335
 C194 C 0.01830 0.22960 0.08223
 C195 C -0.01481 0.26946 0.04692
 C196 C -0.00932 0.24759 0.01819
 C197 C 0.00817 0.21590 0.02154
 C198 C 0.02209 0.20698 0.05317
 H199 H -0.02684 0.29464 0.04255
 H200 H -0.01870 0.25529 -0.00677
 H201 H 0.01173 0.19860 -0.00067
 H202 H 0.03571 0.18223 0.05457
 H203 H 0.00205 0.28740 0.16430
 H204 H 0.04318 0.24020 0.16591
 C205 C 0.47997 0.71337 0.61039
 C206 C 0.51458 0.72205 0.60741
 C207 C 0.52383 0.75744 0.60335
 C208 C 0.49967 0.78425 0.60358
 C209 C 0.46555 0.77647 0.60746
 C210 C 0.45533 0.74092 0.61083
 C211 C 0.46915 0.67795 0.61242
 C212 C 0.43511 0.67005 0.61621
 C213 C 0.41124 0.69711 0.61789
 C214 C 0.42113 0.73228 0.61523
 H215 H 0.48671 0.65606 0.61067
 H216 H 0.42720 0.64277 0.61786
 H217 H 0.38489 0.69080 0.62109
 H218 H 0.40182 0.75251 0.61673
 H219 H 0.55012 0.76454 0.60106
 H220 H 0.50758 0.81145 0.60103
 C221 C 0.98039 0.78475 0.37127
 C222 C 1.01233 0.78005 0.38784
 C223 C 1.01739 0.74942 0.40734
 C224 C 0.99350 0.72265 0.40782
 C225 C 0.96373 0.72535 0.38888
 C226 C 0.95660 0.75656 0.37086
 C227 C 0.97022 0.81748 0.35743
 C228 C 0.93928 0.82106 0.34066
 C229 C 0.91725 0.79263 0.33828
 C230 C 0.92552 0.76076 0.35366
 H231 H 0.98510 0.84111 0.36075
 H232 H 0.93211 0.84625 0.32997
 H233 H 0.89320 0.79564 0.32538
 H234 H 0.90709 0.73977 0.35260
 H235 H 1.04084 0.74485 0.42090
 H236 H 0.99866 0.69900 0.42226
 C237 C 0.49291 0.24778 -0.07860
 C238 C 0.48390 0.22905 -0.10935
 C239 C 0.49888 0.23850 -0.14039
 C240 C 0.52193 0.26604 -0.14157
 C241 C 0.53037 0.28569 -0.11192
 C242 C 0.51484 0.27748 -0.08029
 C243 C 0.48136 0.23737 -0.04604
 C244 C 0.48834 0.25766 -0.01657
 C245 C 0.50702 0.28853 -0.01885
 C246 C 0.52020 0.29845 -0.05034
 H247 H 0.46748 0.21320 -0.04277
 H248 H 0.47897 0.24953 0.00813
 H249 H 0.51168 0.30465 0.00398
 H250 H 0.53417 0.32288 -0.05097
 H251 H 0.49247 0.22467 -0.16417
 H252 H 0.53358 0.27193 -0.16589
 C253 C 0.08306 0.00778 0.24715
 C254 C 0.11437 -0.00142 0.26261
 C255 C 0.14398 0.01401 0.25059
 C256 C 0.14322 0.03742 0.22345
 C257 C 0.11293 0.04585 0.20685
 C258 C 0.08259 0.03015 0.21799
 C259 C 0.05207 -0.00408 0.26026
 C260 C 0.02185 0.00305 0.24329
 C261 C 0.02182 0.02215 0.21309
 C262 C 0.05183 0.03561 0.20045
 H263 H 0.05069 -0.01830 0.28401
 H264 H -0.00165 -0.00654 0.25348
 H265 H -0.00163 0.02689 0.19957
 H266 H 0.05063 0.04983 0.17665
 H267 H 0.16815 0.00749 0.26192
 H268 H 0.16657 0.04922 0.21529
 C269 C 0.63916 0.46610 -0.27194
 C270 C 0.62030 0.49838 -0.26971
 C271 C 0.59790 0.50319 -0.24199
 C272 C 0.59665 0.47914 -0.21540
 C273 C 0.61756 0.44944 -0.21552
 C274 C 0.63855 0.44224 -0.24398
 C275 C 0.65667 0.45549 -0.30204
 C276 C 0.67559 0.42431 -0.30315
 C277 C 0.67673 0.40243 -0.27483
 C278 C 0.65804 0.41097 -0.24560
 H279 H 0.65478 0.47011 -0.32553
 H280 H 0.68904 0.41681 -0.32633
 H281 H 0.69137 0.37821 -0.27590
 H282 H 0.65844 0.39257 -0.22463
 H283 H 0.58257 0.52682 -0.23942
 H284 H 0.58005 0.48430 -0.19386
 C285 C 0.37835 0.95738 0.77379
 C286 C 0.38428 0.99395 0.76893
 C287 C 0.39048 1.00608 0.73574
 C288 C 0.39012 0.98293 0.70748
 C289 C 0.38384 0.94691 0.71152
 C290 C 0.37754 0.93383 0.74472
 C291 C 0.37385 0.94345 0.80688
 C292 C 0.36709 0.90763 0.81102
 C293 C 0.36479 0.88500 0.78246
 C294 C 0.36996 0.89786 0.74956
 H295 H 0.37595 0.95984 0.82986
 H296 H 0.36353 0.89737 0.83654
 H297 H 0.35918 0.85730 0.78582
 H298 H 0.36774 0.87943 0.72806
 H299 H 0.39500 1.03390 0.73155
 H300 H 0.39498 0.99307 0.68214
 C301 C 0.84110 0.51452 0.25374
 C302 C 0.87151 0.50183 0.23860
 C303 C 0.90233 0.51520 0.25071
 C304 C 0.90355 0.54068 0.27699
 C305 C 0.87399 0.55434 0.29166
 C306 C 0.84237 0.54236 0.27901
 C307 C 0.80945 0.49971 0.24521
 C308 C 0.77978 0.51434 0.25832
 C309 C 0.78097 0.54375 0.28032
 C310 C 0.81192 0.55769 0.29066
 H311 H 0.80717 0.47631 0.22905
 H312 H 0.75571 0.50294 0.25120
 H313 H 0.75782 0.55553 0.28979
 H314 H 0.81164 0.58079 0.30747
 H315 H 0.92583 0.50594 0.23965
 H316 H 0.92789 0.54950 0.28637
 C317 C 0.21554 0.11619 -0.03026
 C318 C 0.24989 0.11982 -0.02053
 C319 C 0.25837 0.12373 0.01436
 C320 C 0.23363 0.12388 0.03957
 C321 C 0.19964 0.12047 0.03065
 C322 C 0.19030 0.11601 -0.00434
 C323 C 0.20548 0.11370 -0.06512
 C324 C 0.17163 0.10951 -0.07405
 C325 C 0.14720 0.10791 -0.04861
 C326 C 0.15633 0.11116 -0.01403
 H327 H 0.22342 0.11537 -0.08579
 H328 H 0.16433 0.10745 -0.10087
 H329 H 0.12102 0.10434 -0.05572
 H330 H 0.13661 0.10959 0.00495
 H331 H 0.28447 0.12650 0.02222
 H332 H 0.24089 0.12738 0.06630
 C333 C 0.77500 0.58417 0.52203
 C334 C 0.75752 0.61601 0.53070
 C335 C 0.76774 0.64776 0.51604
 C336 C 0.79454 0.64852 0.49318
 C337 C 0.81228 0.61762 0.48434
 C338 C 0.80334 0.58532 0.49968
 C339 C 0.76451 0.55098 0.53407
 C340 C 0.78294 0.52033 0.52655
 C341 C 0.81195 0.52199 0.50677
 C342 C 0.82212 0.55411 0.49335
 H343 H 0.74177 0.54808 0.54880
 H344 H 0.77473 0.49516 0.53623
 H345 H 0.82645 0.49820 0.50148
 H346 H 0.84494 0.55428 0.47832
 H347 H 0.75476 0.67231 0.52227
 H348 H 0.80101 0.67336 0.48155
 C349 C 0.71986 0.38611 0.02459
 C350 C 0.75404 0.38212 0.01453
 C351 C 0.76167 0.37645 -0.02029
 C352 C 0.73632 0.37523 -0.04513
 C353 C 0.70253 0.37951 -0.03595
 C354 C 0.69402 0.38573 -0.00102
 C355 C 0.71054 0.38962 0.05951
 C356 C 0.67696 0.39486 0.06872
 C357 C 0.65204 0.39653 0.04351
 C358 C 0.66037 0.39200 0.00893
 H359 H 0.72883 0.38785 0.08006
 H360 H 0.67026 0.39775 0.09558
 H361 H 0.62608 0.40109 0.05081
 H362 H 0.64025 0.39378 -0.00981
 H363 H 0.78760 0.37330 -0.02840
 H364 H 0.74299 0.37051 -0.07179
 C365 C 0.28442 0.88649 0.46502
 C366 C 0.25056 0.88425 0.47643
 C367 C 0.24414 0.88121 0.51163
 C368 C 0.27035 0.88081 0.53552
 C369 C 0.30388 0.88326 0.52501
 C370 C 0.31119 0.88679 0.48964
 C371 C 0.29248 0.88752 0.42972
 C372 C 0.32580 0.89084 0.41912
 C373 C 0.35169 0.89301 0.44331
 C374 C 0.34458 0.89099 0.47828
 H375 H 0.27338 0.88528 0.40993
 H376 H 0.33155 0.89182 0.39198
 H377 H 0.37746 0.89602 0.43493
 H378 H 0.36542 0.89304 0.49621
 H379 H 0.21849 0.87939 0.52079
 H380 H 0.26454 0.87805 0.56250
   
