data_POSCAR
  _audit_creation_date              2014-09-24
  _audit_creation_method            'ToBaCCo'
  _symmetry_space_group_name_H-M    'P1'
  _symmetry_Int_Tables_number       1
  _symmetry_cell_setting            triclinic
  loop_
  _symmetry_equiv_pos_as_xyz
 x,y,z
_cell_length_a 47.6917
_cell_length_b 49.3016
_cell_length_c 45.4338
_cell_angle_alpha 91.641200
_cell_angle_beta 89.813900
_cell_angle_gamma 92.696400
loop_
  _atom_site_label
  _atom_site_type_symbol
  _atom_site_fract_x
  _atom_site_fract_y
  _atom_site_fract_z
C1 C 0.20591 0.52298 1.03678
 H2 H 0.20583 0.53915 1.02118
 C3 C 0.18635 0.52216 1.05972
 H4 H 0.17124 0.53785 1.06188
 C5 C 0.22494 0.48214 1.05227
 H6 H 0.23948 0.46621 1.04886
 C7 C 0.20574 0.48054 1.07550
 H8 H 0.20583 0.46350 1.09006
 N9 N 0.22469 0.50316 1.03350
 C10 C 0.29193 0.53812 0.97911
 H11 H 0.29228 0.52278 0.96162
 C12 C 0.31114 0.56037 0.97896
 H13 H 0.32640 0.56219 0.96132
 C14 C 0.27211 0.55418 1.02391
 H15 H 0.25719 0.55146 1.04163
 C16 C 0.29101 0.57675 1.02461
 H17 H 0.29051 0.59141 1.04281
 Zn18 Zn 0.24824 0.50419 0.99995
 N19 N 0.27280 0.53552 1.00125
 C20 C 0.22587 0.52545 0.94790
 N21 N 0.22430 0.50457 0.96690
 C22 C 0.20406 0.48427 0.96412
 C23 C 0.18441 0.48437 0.94141
 C24 C 0.20663 0.52633 0.92488
 C25 C 0.28979 0.47111 1.01987
 C26 C 0.30711 0.44905 1.01977
 C27 C 0.28500 0.43228 0.97461
 C28 C 0.26806 0.45467 0.97555
 N29 N 0.27056 0.47339 0.99813
 H30 H 0.24159 0.54177 0.95091
 H31 H 0.20296 0.46822 0.97989
 H32 H 0.16818 0.46830 0.93954
 H33 H 0.20778 0.54317 0.91005
 H34 H 0.29160 0.48649 1.03732
 H35 H 0.32234 0.44739 1.03719
 H36 H 0.28294 0.41748 0.95656
 H37 H 0.25311 0.45713 0.95814
 C38 C 0.31068 0.57985 1.00191
 C39 C 0.18617 0.50064 1.07914
 C40 C 0.30464 0.42943 0.99697
 C41 C 0.18566 0.50567 0.92172
 C42 C 0.79469 0.51809 -0.03155
 H43 H 0.79559 0.53278 -0.01339
 C44 C 0.81424 0.52013 -0.05435
 H45 H 0.83020 0.53652 -0.05388
 C46 C 0.77322 0.47836 -0.05400
 H47 H 0.75754 0.46184 -0.05347
 C48 C 0.79243 0.47965 -0.07730
 H49 H 0.79135 0.46427 -0.09482
 N50 N 0.77460 0.49757 -0.03185
 C51 C 0.70937 0.52903 0.02545
 H52 H 0.70768 0.51342 0.04170
 C53 C 0.69194 0.55104 0.02726
 H54 H 0.67678 0.55243 0.04498
 C55 C 0.73062 0.54599 -0.01801
 H56 H 0.74528 0.54372 -0.03596
 C57 C 0.71360 0.56830 -0.01701
 H58 H 0.71539 0.58320 -0.03406
 Zn59 Zn 0.75053 0.49608 0.00124
 N60 N 0.72837 0.52701 0.00317
 C61 C 0.77414 0.51447 0.05644
 N62 N 0.77411 0.49507 0.03449
 C63 C 0.79260 0.47488 0.03439
 C64 C 0.81197 0.47345 0.05715
 C65 C 0.79324 0.51379 0.07967
 C66 C 0.70701 0.46262 -0.02330
 C67 C 0.68765 0.44048 -0.02525
 C68 C 0.70736 0.42324 0.01903
 C69 C 0.72637 0.44569 0.02016
 N70 N 0.72595 0.46476 -0.00092
 H71 H 0.75977 0.53072 0.05573
 H72 H 0.79243 0.46005 0.01637
 H73 H 0.82671 0.45738 0.05679
 H74 H 0.79335 0.52937 0.09698
 H75 H 0.70683 0.47829 -0.03948
 H76 H 0.67246 0.43907 -0.04297
 H77 H 0.70761 0.40833 0.03608
 H78 H 0.74107 0.44805 0.03818
 C79 C 0.69409 0.57083 0.00581
 C80 C 0.81312 0.50073 -0.07740
 C81 C 0.68780 0.42065 -0.00384
 C82 C 0.81234 0.49312 0.07992
 C83 C -0.02971 0.28110 0.48755
 H84 H -0.04574 0.28215 0.50440
 C85 C -0.02977 0.29868 0.46404
 H86 H -0.04597 0.31330 0.46273
 C87 C 0.01156 0.26139 0.46928
 H88 H 0.02799 0.24731 0.47177
 C89 C 0.01231 0.27864 0.44539
 H90 H 0.02919 0.27756 0.42944
 N91 N -0.00933 0.26285 0.48968
 C92 C -0.04620 0.20108 0.54683
 H93 H -0.03084 0.20147 0.56432
 C94 C -0.06914 0.18239 0.54717
 H95 H -0.07149 0.16828 0.56496
 C96 C -0.06133 0.21810 0.50152
 H97 H -0.05786 0.23153 0.48337
 C98 C -0.08454 0.19975 0.50102
 H99 H -0.09892 0.19923 0.48258
 Zn100 Zn -0.00991 0.24155 0.52365
 N101 N -0.04273 0.21844 0.52422
 C102 C -0.02968 0.26676 0.57672
 N103 N -0.00884 0.26626 0.55618
 C104 C 0.01280 0.28525 0.55661
 C105 C 0.01406 0.30588 0.57824
 C106 C -0.02926 0.28717 0.59876
 C107 C 0.02329 0.20023 0.50201
 C108 C 0.04621 0.18365 0.50058
 C109 C 0.06472 0.20645 0.54466
 C110 C 0.04144 0.22264 0.54527
 N111 N 0.02152 0.21953 0.52387
 H112 H -0.04705 0.25190 0.57553
 H113 H 0.02875 0.28466 0.53965
 H114 H 0.03107 0.32123 0.57802
 H115 H -0.04622 0.28791 0.61464
 H116 H 0.00696 0.19796 0.48553
 H117 H 0.04758 0.16849 0.48296
 H118 H 0.08058 0.20913 0.56164
 H119 H 0.03935 0.23763 0.56284
 C120 C -0.08838 0.18164 0.52395
 C121 C -0.00851 0.29750 0.44283
 C122 C 0.06718 0.18691 0.52199
 C123 C -0.00728 0.30700 0.59932
 C124 C 0.98964 0.71639 0.50861
 H125 H 0.97423 0.71418 0.49118
 C126 C 0.98847 0.69864 0.53198
 H127 H 0.97208 0.68269 0.53265
 C128 C 1.03030 0.73947 0.52870
 H129 H 1.04686 0.75505 0.52705
 C130 C 1.02990 0.72210 0.55248
 H131 H 1.04602 0.72449 0.56923
 N132 N 1.01018 0.73645 0.50750
 C133 C 0.97443 0.79627 0.45155
 H134 H 0.99008 0.79780 0.43432
 C135 C 0.95114 0.81243 0.45110
 H136 H 0.94879 0.82648 0.43347
 C137 C 0.95870 0.77677 0.49615
 H138 H 0.96199 0.76334 0.51404
 C139 C 0.93515 0.79253 0.49653
 H140 H 0.92030 0.79101 0.51457
 Zn141 Zn 1.01042 0.75850 0.47415
 N142 N 0.97769 0.77877 0.47378
 C143 C 0.99060 0.73261 0.42080
 N144 N 1.01170 0.73463 0.44098
 C145 C 1.03317 0.71742 0.43995
 C146 C 1.03381 0.69689 0.41823
 C147 C 0.99042 0.71228 0.39870
 C148 C 1.04287 0.80229 0.49746
 C149 C 1.06537 0.82136 0.49968
 C150 C 1.08521 0.80146 0.45553
 C151 C 1.06231 0.78269 0.45414
 N152 N 1.04188 0.78330 0.47513
 H153 H 0.97334 0.74599 0.42248
 H154 H 1.04930 0.71911 0.45668
 H155 H 1.05055 0.68277 0.41812
 H156 H 0.97312 0.71019 0.38327
 H157 H 1.02614 0.80252 0.51359
 H158 H 1.06598 0.83641 0.51754
 H159 H 1.10137 0.80096 0.43874
 H160 H 1.06082 0.76784 0.43621
 C161 C 0.93137 0.81054 0.47384
 C162 C 1.00878 0.70154 0.55409
 C163 C 1.08675 0.82089 0.47857
 C164 C 1.01206 0.69409 0.39767
 C165 C 0.46601 -0.01157 0.28649
 H166 H 0.48140 -0.02700 0.28666
 C167 C 0.44438 -0.01181 0.30729
 H168 H 0.44298 -0.02754 0.32347
 C169 C 0.44956 0.02839 0.26590
 H170 H 0.45201 0.04437 0.25020
 C171 C 0.42761 0.02890 0.28633
 H172 H 0.41306 0.04512 0.28610
 N173 N 0.46816 0.00829 0.26628
 C174 C 0.51911 -0.02488 0.19508
 H175 H 0.53532 -0.00884 0.19380
 C176 C 0.51962 -0.04743 0.17583
 H177 H 0.53634 -0.04879 0.15971
 C178 C 0.47745 -0.04258 0.21755
 H179 H 0.46088 -0.04046 0.23359
 C180 C 0.47715 -0.06551 0.19869
 H181 H 0.46047 -0.08108 0.20050
 Zn182 Zn 0.49965 0.00841 0.24075
 N183 N 0.49845 -0.02301 0.21567
 C184 C 0.54998 -0.01139 0.26357
 N185 N 0.53188 0.00916 0.26510
 C186 C 0.53497 0.02957 0.28582
 C187 C 0.55697 0.02983 0.30610
 C188 C 0.57225 -0.01189 0.28340
 C189 C 0.47886 0.04010 0.19659
 C190 C 0.47809 0.06168 0.17742
 C191 C 0.52135 0.08043 0.19884
 C192 C 0.52131 0.05847 0.21766
 N193 N 0.50010 0.03899 0.21638
 H194 H 0.54678 -0.02782 0.24753
 H195 H 0.51995 0.04535 0.28695
 H196 H 0.55903 0.04592 0.32280
 H197 H 0.58629 -0.02854 0.28233
 H198 H 0.46250 0.02413 0.19575
 H199 H 0.46104 0.06241 0.16180
 H200 H 0.53827 0.09587 0.19997
 H201 H 0.53832 0.05693 0.23307
 C202 C 0.49852 -0.06801 0.17772
 C203 C 0.42508 0.00868 0.30727
 C204 C 0.49951 0.08204 0.17857
 C205 C 0.57566 0.00880 0.30497
 C206 C 0.53454 -0.02977 0.71361
 H207 H 0.51792 -0.04549 0.71307
 C208 C 0.55641 -0.03064 0.69319
 H209 H 0.55675 -0.04715 0.67695
 C210 C 0.55397 0.01141 0.73485
 H211 H 0.55260 0.02804 0.75071
 C212 C 0.57625 0.01133 0.71475
 H213 H 0.59216 0.02776 0.71537
 N214 N 0.53375 -0.00904 0.73398
 C215 C 0.47932 -0.04227 0.80309
 H216 H 0.46316 -0.02758 0.80395
 C217 C 0.47839 -0.06379 0.82252
 H218 H 0.46141 -0.06578 0.83833
 C219 C 0.52166 -0.05727 0.78207
 H220 H 0.53883 -0.05438 0.76675
 C221 C 0.52153 -0.07905 0.80108
 H222 H 0.53843 -0.09298 0.80010
 Zn223 Zn 0.50176 -0.00891 0.75880
 N224 N 0.50066 -0.03948 0.78328
 C225 C 0.44933 -0.02936 0.73415
 N226 N 0.47026 -0.00962 0.73347
 C227 C 0.47031 0.01025 0.71329
 C228 C 0.44848 0.01113 0.69307
 C229 C 0.42701 -0.02922 0.71422
 C230 C 0.52331 0.02670 0.80367
 C231 C 0.52390 0.04934 0.82297
 C232 C 0.48104 0.06324 0.80089
 C233 C 0.48124 0.04039 0.78204
 N234 N 0.50229 0.02276 0.78357
 H235 H 0.44998 -0.04530 0.74992
 H236 H 0.48744 0.02543 0.71297
 H237 H 0.44869 0.02711 0.67717
 H238 H 0.41037 -0.04493 0.71486
 H239 H 0.53953 0.01214 0.80477
 H240 H 0.54066 0.05232 0.83894
 H241 H 0.46414 0.07709 0.79957
 H242 H 0.46432 0.03661 0.76651
 C243 C 0.49974 -0.08231 0.82152
 C244 C 0.57740 -0.00986 0.69368
 C245 C 0.50254 0.06777 0.82154
 C246 C 0.42662 -0.00875 0.69353
 C247 C 0.23120 0.04343 0.50690
 C248 C 0.25016 0.03988 0.53356
 C249 C 0.26620 0.01772 0.53085
 C250 C 0.26185 0.00112 0.50189
 C251 C 0.25106 0.04423 0.48029
 C252 C 0.26709 0.02205 0.47776
 C253 C 0.21411 0.01653 0.50332
 C254 C 0.23007 -0.00554 0.50069
 H255 H 0.25152 0.05406 0.55231
 H256 H 0.27485 -0.01697 0.49976
 H257 H 0.25266 0.06095 0.46521
 H258 H 0.19129 0.01506 0.50279
 C259 C 0.77017 -0.04314 0.49254
 C260 C 0.75075 -0.04405 0.51951
 C261 C 0.73471 -0.02190 0.52243
 C262 C 0.73950 -0.00090 0.49829
 C263 C 0.75077 -0.03955 0.46627
 C264 C 0.73471 -0.01744 0.46934
 C265 C 0.78727 -0.01622 0.49594
 C266 C 0.77129 0.00582 0.49898
 H267 H 0.74945 -0.06080 0.53455
 H268 H 0.72648 0.01715 0.50071
 H269 H 0.74919 -0.05364 0.44745
 H270 H 0.81009 -0.01473 0.49632
 C271 C 0.45913 0.27595 0.99646
 C272 C 0.46118 0.25585 0.97020
 C273 C 0.48464 0.24101 0.97082
 C274 C 0.50393 0.24766 0.99741
 C275 C 0.46101 0.25856 1.02379
 C276 C 0.48446 0.24370 1.02417
 C277 C 0.48655 0.29324 0.99604
 C278 C 0.50993 0.27853 0.99653
 H279 H 0.44480 0.25245 0.95376
 H280 H 0.52311 0.23572 0.99781
 H281 H 0.44444 0.25670 1.04018
 H282 H 0.48743 0.31530 0.99543
 C283 C 0.53926 0.72410 0.00455
 C284 C 0.53766 0.74174 -0.02262
 C285 C 0.51434 0.75680 -0.02297
 C286 C 0.49473 0.75277 0.00368
 C287 C 0.53726 0.74401 0.03097
 C288 C 0.51395 0.75905 0.03040
 C289 C 0.51170 0.70701 0.00469
 C290 C 0.48846 0.72191 0.00423
 H291 H 0.55426 0.74353 -0.03898
 H292 H 0.47565 0.76487 0.00332
 H293 H 0.55364 0.74722 0.04744
 H294 H 0.51063 0.68494 0.00503
 C295 C 0.99883 0.45253 0.28132
 C296 C 0.97307 0.45313 0.26130
 C297 C 0.97386 0.47476 0.24323
 C298 C 1.00018 0.49378 0.24668
 C299 C 1.02414 0.45335 0.26042
 C300 C 1.02475 0.47498 0.24234
 C301 C 1.00024 0.48010 0.29779
 C302 C 1.00095 0.50162 0.27962
 H303 H 0.95601 0.43772 0.26113
 H304 H 1.00075 0.51140 0.23192
 H305 H 1.03997 0.43819 0.25984
 H306 H 1.00072 0.48241 0.32165
 C307 C 0.00119 0.54703 0.71842
 C308 C -0.02447 0.54618 0.73885
 C309 C -0.02539 0.52452 0.75691
 C310 C -0.00076 0.50573 0.75302
 C311 C 0.02660 0.54642 0.73891
 C312 C 0.02549 0.52478 0.75698
 C313 C 0.00004 0.51948 0.70193
 C314 C -0.00099 0.49794 0.72006
 H315 H -0.04021 0.56143 0.73927
 H316 H -0.00158 0.48810 0.76775
 H317 H 0.04362 0.56187 0.73944
 H318 H -0.00004 0.51719 0.67806
 C319 C 0.13363 0.13686 0.51755
 C320 C 0.15226 0.13734 0.54509
 C321 C 0.17348 0.11976 0.54315
 C322 C 0.17394 0.10346 0.51386
 C323 C 0.17516 0.12485 0.48994
 C324 C 0.15394 0.14243 0.49189
 C325 C 0.12340 0.10708 0.51306
 C326 C 0.14455 0.08955 0.51112
 C327 C 0.11049 0.15538 0.51950
 C328 C 0.09093 0.16999 0.52081
 C329 C 0.19616 0.08395 0.51166
 C330 C 0.21294 0.06647 0.50963
 H331 H 0.14910 0.15037 0.56437
 H332 H 0.18851 0.11772 0.56075
 H333 H 0.19127 0.12611 0.47304
 H334 H 0.15187 0.15877 0.47663
 H335 H 0.10143 0.10034 0.51152
 H336 H 0.14068 0.06779 0.50792
 C337 C 0.63951 0.63297 0.00649
 C338 C 0.60897 0.62209 0.00903
 C339 C 0.58998 0.64182 0.00872
 C340 C 0.60331 0.67058 0.00589
 C341 C 0.62144 0.66921 -0.02204
 C342 C 0.64048 0.64943 -0.02173
 C343 C 0.64336 0.65420 0.03174
 C344 C 0.62431 0.67399 0.03143
 C345 C 0.65964 0.61136 0.00668
 C346 C 0.67558 0.59308 0.00650
 C347 C 0.58225 0.69132 0.00548
 C348 C 0.56361 0.70700 0.00507
 H349 H 0.60279 0.60074 0.01094
 H350 H 0.56752 0.63734 0.01035
 H351 H 0.61955 0.68262 -0.04040
 H352 H 0.65490 0.64590 -0.03983
 H353 H 0.65963 0.65375 0.04835
 H354 H 0.62426 0.69050 0.04776
 C355 C 0.86613 -0.13800 0.47883
 C356 C 0.84949 -0.14013 0.50773
 C357 C 0.82872 -0.12213 0.51033
 C358 C 0.82665 -0.10379 0.48377
 C359 C 0.82318 -0.12335 0.45698
 C360 C 0.84397 -0.14137 0.45438
 C361 C 0.87682 -0.10822 0.47787
 C362 C 0.85610 -0.09026 0.48047
 C363 C 0.88881 -0.15701 0.47628
 C364 C 0.90801 -0.17204 0.47480
 C365 C 0.80487 -0.08387 0.48670
 C366 C 0.78834 -0.06621 0.48929
 H367 H 0.85360 -0.15454 0.52463
 H368 H 0.81504 -0.12113 0.52944
 H369 H 0.80593 -0.12310 0.44148
 H370 H 0.84453 -0.15656 0.43664
 H371 H 0.89876 -0.10177 0.47535
 H372 H 0.86031 -0.06843 0.48017
 C373 C 0.35863 0.36681 0.99576
 C374 C 0.35563 0.34809 1.02215
 C375 C 0.37467 0.32829 1.02212
 C376 C 0.39482 0.32918 0.99572
 C377 C 0.40821 0.35812 0.99658
 C378 C 0.38922 0.37785 0.99661
 C379 C 0.35674 0.34767 0.96849
 C380 C 0.37579 0.32786 0.96847
 C381 C 0.33855 0.38848 0.99590
 C382 C 0.32278 0.40690 0.99625
 C383 C 0.41592 0.30846 0.99578
 C384 C 0.43464 0.29286 0.99600
 H385 H 0.33991 0.35016 1.03930
 H386 H 0.37526 0.31341 1.03924
 H387 H 0.43070 0.36271 0.99712
 H388 H 0.39545 0.39933 0.99717
 H389 H 0.34175 0.34947 0.95081
 H390 H 0.37712 0.31270 0.95077
 C391 C 0.85115 0.11974 0.51698
 C392 C 0.86526 0.09345 0.50799
 C393 C 0.84699 0.07161 0.50462
 C394 C 0.81629 0.07808 0.51055
 C395 C 0.81040 0.10126 0.48993
 C396 C 0.82876 0.12321 0.49332
 C397 C 0.83458 0.11298 0.54508
 C398 C 0.81622 0.09104 0.54169
 C399 C 0.87152 0.14284 0.52032
 C400 C 0.88935 0.16094 0.52238
 C401 C 0.79747 0.05386 0.50672
 C402 C 0.78420 0.03261 0.50328
 H403 H 0.88771 0.09209 0.50457
 H404 H 0.85381 0.05155 0.49831
 H405 H 0.79330 0.10056 0.47418
 H406 H 0.82738 0.14131 0.48045
 H407 H 0.83698 0.12444 0.56575
 H408 H 0.80289 0.08370 0.55946
 C409 C 0.37264 0.64067 0.00346
 C410 C 0.37257 0.65998 -0.02249
 C411 C 0.39469 0.67859 -0.02231
 C412 C 0.41464 0.67603 0.00381
 C413 C 0.42334 0.64645 0.00217
 C414 C 0.40133 0.62792 0.00199
 C415 C 0.37385 0.65933 0.03113
 C416 C 0.39597 0.67794 0.03132
 C417 C 0.34940 0.62007 0.00317
 C418 C 0.33129 0.60214 0.00273
 C419 C 0.43916 0.69517 0.00398
 C420 C 0.46087 0.70872 0.00410
 H421 H 0.35654 0.65915 -0.03945
 H422 H 0.39760 0.69371 -0.03909
 H423 H 0.44499 0.64054 0.00123
 H424 H 0.40413 0.60618 0.00089
 H425 H 0.35865 0.65809 0.04894
 H426 H 0.39971 0.69266 0.04927
 C427 C 0.14863 -0.11853 0.48504
 C428 C 0.16631 -0.11343 0.45726
 C429 C 0.18511 -0.09180 0.46019
 C430 C 0.18433 -0.07745 0.49061
 C431 C 0.18887 -0.09979 0.51272
 C432 C 0.17007 -0.12143 0.50979
 C433 C 0.13496 -0.09157 0.49202
 C434 C 0.15367 -0.07003 0.49494
 C435 C 0.12778 -0.14125 0.48211
 C436 C 0.10953 -0.15896 0.48020
 C437 C 0.20358 -0.05350 0.49392
 C438 C 0.21708 -0.03234 0.49691
 H439 H 0.16431 -0.12576 0.43712
 H440 H 0.19923 -0.08558 0.44258
 H441 H 0.20541 -0.09875 0.52913
 H442 H 0.17050 -0.13894 0.52370
 H443 H 0.11249 -0.08955 0.49447
 H444 H 0.14720 -0.04957 0.49989
 C445 C 0.62545 0.36020 0.99547
 C446 C 0.59779 0.37203 1.00572
 C447 C 0.57580 0.35347 1.00589
 C448 C 0.58351 0.32478 0.99580
 C449 C 0.60771 0.31774 1.01599
 C450 C 0.62980 0.33639 1.01582
 C451 C 0.61897 0.34693 0.96512
 C452 C 0.59691 0.32830 0.96529
 C453 C 0.64869 0.38079 0.99538
 C454 C 0.66691 0.39861 0.99557
 C455 C 0.55906 0.30559 0.99603
 C456 C 0.53742 0.29192 0.99626
 H457 H 0.59564 0.39318 1.01230
 H458 H 0.55484 0.35875 1.01264
 H459 H 0.60755 0.29971 1.02917
 H460 H 0.64857 0.33433 1.02886
 H461 H 0.63072 0.35167 0.94527
 H462 H 0.58977 0.31708 0.94559
 C463 C 0.49646 0.14484 1.12111
 C464 C 0.46917 0.16004 1.12388
 C465 C 0.46735 0.18042 1.10445
 C466 C 0.49299 0.18366 1.08413
 C467 C 0.49585 0.15554 1.06931
 C468 C 0.49767 0.13516 1.08873
 C469 C 0.52009 0.16697 1.12440
 C470 C 0.51826 0.18739 1.10494
 C471 C 0.49817 0.12274 1.14193
 C472 C 0.49905 0.10432 1.15877
 C473 C 0.49072 0.20549 1.06307
 C474 C 0.48822 0.22309 1.04551
 H475 H 0.45273 0.15523 1.13974
 H476 H 0.44934 0.19306 1.10368
 H477 H 0.49643 0.15197 1.04563
 H478 H 0.49981 0.11413 1.08168
 H479 H 0.53677 0.16664 1.14057
 H480 H 0.53338 0.20454 1.10445
 C481 C 0.00657 0.64602 0.61974
 C482 C 0.00389 0.61692 0.60684
 C483 C 0.00280 0.59756 0.62762
 C484 C 0.00450 0.60917 0.65929
 C485 C -0.01941 0.62889 0.66187
 C486 C -0.01832 0.64829 0.64105
 C487 C 0.03268 0.64668 0.63948
 C488 C 0.03159 0.62728 0.66030
 C489 C 0.00766 0.66655 0.59705
 C490 C 0.00832 0.68282 0.57776
 C491 C 0.00331 0.58801 0.68128
 C492 C 0.00233 0.56989 0.69852
 H493 H 0.00291 0.61194 0.58342
 H494 H 0.00089 0.57600 0.62200
 H495 H -0.03571 0.62775 0.67857
 H496 H -0.03370 0.66378 0.63991
 H497 H 0.05041 0.66112 0.63733
 H498 H 0.04839 0.62509 0.67599
 C499 C 0.50239 0.85569 -0.11993
 C500 C 0.52969 0.84051 -0.12267
 C501 C 0.53155 0.82017 -0.10320
 C502 C 0.50593 0.81696 -0.08285
 C503 C 0.48064 0.81316 -0.10365
 C504 C 0.47878 0.83353 -0.12315
 C505 C 0.50119 0.86545 -0.08758
 C506 C 0.50305 0.84510 -0.06810
 C507 C 0.50068 0.87769 -0.14089
 C508 C 0.49990 0.89588 -0.15805
 C509 C 0.50822 0.79514 -0.06177
 C510 C 0.51070 0.77749 -0.04424
 H511 H 0.54613 0.84531 -0.13853
 H512 H 0.54958 0.80756 -0.10240
 H513 H 0.46554 0.79601 -0.10310
 H514 H 0.46208 0.83382 -0.13930
 H515 H 0.49903 0.88649 -0.08058
 H516 H 0.50248 0.84872 -0.04442
 C517 C 0.99449 0.35273 0.37911
 C518 C 0.99469 0.38171 0.39237
 C519 C 0.99564 0.40130 0.37185
 C520 C 0.99630 0.39002 0.34004
 C521 C 0.97042 0.37039 0.33730
 C522 C 0.96946 0.35077 0.35786
 C523 C 1.02060 0.35220 0.35929
 C524 C 1.02156 0.37183 0.33873
 C525 C 0.99344 0.33194 0.40154
 C526 C 0.99254 0.31547 0.42064
 C527 C 0.99729 0.41141 0.31830
 C528 C 0.99803 0.42963 0.30119
 H529 H 0.99414 0.38644 0.41585
 H530 H 0.99592 0.42281 0.37775
 H531 H 0.95431 0.37176 0.32065
 H532 H 0.95253 0.33531 0.35884
 H533 H 1.03687 0.33767 0.36121
 H534 H 1.03865 0.37413 0.32302
 C535 C 0.50160 0.86621 0.12303
 C536 C 0.47778 0.84454 0.12690
 C537 C 0.47966 0.82250 0.10827
 C538 C 0.50519 0.82431 0.08761
 C539 C 0.53061 0.82908 0.10804
 C540 C 0.52873 0.85109 0.12664
 C541 C 0.50082 0.87317 0.09033
 C542 C 0.50270 0.85115 0.07172
 C543 C 0.49985 0.88999 0.14302
 C544 C 0.49897 0.90966 0.15936
 C545 C 0.50752 0.80070 0.06748
 C546 C 0.51010 0.78156 0.05073
 H547 H 0.46092 0.84635 0.14285
 H548 H 0.46442 0.80543 0.10826
 H549 H 0.54853 0.81628 0.10793
 H550 H 0.54503 0.85712 0.14246
 H551 H 0.49892 0.89359 0.08248
 H552 H 0.50242 0.85273 0.04794
 C553 C -0.00633 0.37550 0.65269
 C554 C 0.01812 0.37876 0.67460
 C555 C 0.01909 0.40300 0.68990
 C556 C -0.00450 0.42153 0.68174
 C557 C -0.03183 0.40445 0.68643
 C558 C -0.03279 0.38021 0.67113
 C559 C -0.00304 0.40025 0.63305
 C560 C -0.00208 0.42440 0.64829
 C561 C -0.00720 0.34989 0.63548
 C562 C -0.00749 0.32978 0.61977
 C563 C -0.00338 0.44796 0.69739
 C564 C -0.00232 0.47041 0.70860
 H565 H 0.03328 0.36337 0.67787
 H566 H 0.03507 0.40839 0.70628
 H567 H -0.04885 0.41079 0.70057
 H568 H -0.05064 0.36576 0.67215
 H569 H -0.00158 0.39893 0.60920
 H570 H 0.00021 0.44375 0.63749
 C571 C 0.49891 0.13408 0.87826
 C572 C 0.49950 0.12705 0.91094
 C573 C 0.49718 0.14899 0.92958
 C574 C 0.49449 0.17583 0.91372
 C575 C 0.46929 0.17081 0.89304
 C576 C 0.47161 0.14888 0.87441
 C577 C 0.52251 0.15603 0.87466
 C578 C 0.52019 0.17799 0.89332
 C579 C 0.50108 0.11041 0.85815
 C580 C 0.50215 0.09096 0.84152
 C581 C 0.49169 0.19939 0.93385
 C582 C 0.48878 0.21851 0.95055
 H583 H 0.50159 0.10664 0.91876
 H584 H 0.49729 0.14737 0.95336
 H585 H 0.45121 0.18338 0.89301
 H586 H 0.45551 0.14268 0.85844
 H587 H 0.53954 0.15444 0.85889
 H588 H 0.53523 0.19522 0.89352
 C589 C 1.00797 0.62475 0.34554
 C590 C 1.03150 0.62158 0.32272
 C591 C 1.03007 0.59713 0.30781
 C592 C 1.00527 0.57833 0.31724
 C593 C 0.97915 0.59493 0.31333
 C594 C 0.98057 0.61936 0.32824
 C595 C 1.00991 0.60032 0.36548
 C596 C 1.00850 0.57597 0.35063
 C597 C 1.00948 0.65060 0.36231
 C598 C 1.01068 0.67096 0.37765
 C599 C 1.00373 0.55172 0.30198
 C600 C 1.00246 0.52918 0.29098
 H601 H 1.04777 0.63716 0.31860
 H602 H 1.04513 0.59176 0.29090
 H603 H 0.96119 0.58813 0.29998
 H604 H 0.96383 0.63351 0.32766
 H605 H 1.01223 0.60200 0.38924
 H606 H 1.00959 0.55680 0.36167
 C607 C 1.12622 0.49292 0.14148
 C608 C 1.12755 0.46640 0.15820
 C609 C 1.10692 0.46310 0.17877
 C610 C 1.08698 0.48663 0.18060
 C611 C 1.07583 0.48908 0.14919
 C612 C 1.09647 0.49238 0.12862
 C613 C 1.12674 0.51552 0.16545
 C614 C 1.10609 0.51221 0.18604
 C615 C 1.14833 0.49626 0.11922
 C616 C 1.16625 0.49855 0.10058
 C617 C 1.06476 0.48289 0.20268
 C618 C 1.04650 0.47946 0.22076
 H619 H 1.14332 0.45153 0.15425
 H620 H 1.10501 0.44539 0.19244
 H621 H 1.05369 0.48830 0.14359
 H622 H 1.09200 0.49443 0.10539
 H623 H 1.14197 0.53260 0.16620
 H624 H 1.10361 0.52646 0.20443
 C625 C 0.63879 -0.01223 0.63002
 C626 C 0.66147 0.01092 0.63160
 C627 C 0.68112 0.00935 0.60982
 C628 C 0.67615 -0.01521 0.58861
 C629 C 0.64616 -0.01285 0.57712
 C630 C 0.62653 -0.01129 0.59888
 C631 C 0.65496 -0.03842 0.63011
 C632 C 0.67459 -0.03998 0.60836
 C633 C 0.61745 -0.01078 0.65329
 C634 C 0.59946 -0.01009 0.67199
 C635 C 0.69720 -0.01710 0.56509
 C636 C 0.71434 -0.01908 0.54567
 H637 H 0.66204 0.02710 0.64834
 H638 H 0.69854 0.02420 0.60789
 H639 H 0.64082 -0.01243 0.55393
 H640 H 0.60437 -0.00953 0.59431
 H641 H 0.65133 -0.05433 0.64591
 H642 H 0.68778 -0.05724 0.60552
 C643 C -0.12682 0.50740 0.85793
 C644 C -0.12889 0.53322 0.84013
 C645 C -0.10836 0.53633 0.81943
 C646 C -0.08776 0.51332 0.81856
 C647 C -0.10619 0.48714 0.81414
 C648 C -0.12675 0.48403 0.83487
 C649 C -0.09704 0.50915 0.87078
 C650 C -0.07650 0.51226 0.85009
 C651 C -0.14876 0.50431 0.88041
 C652 C -0.16640 0.50235 0.89937
 C653 C -0.06559 0.51688 0.79640
 C654 C -0.04729 0.52019 0.77835
 H655 H -0.14509 0.54776 0.84346
 H656 H -0.10696 0.55354 0.80503
 H657 H -0.10335 0.47238 0.79632
 H658 H -0.14154 0.46660 0.83481
 H659 H -0.09248 0.50802 0.89410
 H660 H -0.05436 0.51379 0.85567
 C661 C 0.36417 0.01214 0.37138
 C662 C 0.34072 -0.01023 0.36884
 C663 C 0.32091 -0.00860 0.39045
 C664 C 0.32651 0.01523 0.41248
 C665 C 0.32920 0.04054 0.39358
 C666 C 0.34899 0.03892 0.37199
 C667 C 0.37600 0.00990 0.40256
 C668 C 0.35620 0.01153 0.42416
 C669 C 0.38559 0.01055 0.34820
 C670 C 0.40343 0.00954 0.32939
 C671 C 0.30524 0.01717 0.43576
 C672 C 0.28783 0.01917 0.45490
 H673 H 0.33976 -0.02595 0.35160
 H674 H 0.30298 -0.02293 0.39172
 H675 H 0.31665 0.05819 0.39686
 H676 H 0.35338 0.05517 0.35677
 H677 H 0.39799 0.00725 0.40727
 H678 H 0.36124 0.01027 0.44735
 C679 C 0.12519 0.51081 0.85821
 C680 C 0.09539 0.51082 0.87110
 C681 C 0.07506 0.51319 0.85046
 C682 C 0.08652 0.51532 0.81897
 C683 C 0.10389 0.49013 0.81409
 C684 C 0.12424 0.48775 0.83474
 C685 C 0.12844 0.53704 0.84088
 C686 C 0.10811 0.53941 0.82025
 C687 C 0.14701 0.50847 0.88052
 C688 C 0.16476 0.50698 0.89914
 C689 C 0.06466 0.51810 0.79681
 C690 C 0.04675 0.52088 0.77865
 H691 H 0.09067 0.50909 0.89438
 H692 H 0.05292 0.51350 0.85606
 H693 H 0.10049 0.47546 0.79603
 H694 H 0.13829 0.47105 0.83438
 H695 H 0.14524 0.55240 0.84449
 H696 H 0.10750 0.55680 0.80618
 C697 C 0.63688 0.00266 0.36765
 C698 C 0.62505 0.00126 0.39906
 C699 C 0.64497 -0.00200 0.41995
 C700 C 0.67478 -0.00354 0.40738
 C701 C 0.67959 0.02249 0.38990
 C702 C 0.65964 0.02575 0.36900
 C703 C 0.65293 -0.02340 0.36315
 C704 C 0.67283 -0.02666 0.38401
 C705 C 0.61533 0.00578 0.34516
 C706 C 0.59739 0.00757 0.32675
 C707 C 0.69620 -0.00745 0.42979
 C708 C 0.71376 -0.01154 0.44797
 H709 H 0.60296 0.00273 0.40444
 H710 H 0.63995 -0.00332 0.44320
 H711 H 0.69708 0.03706 0.39363
 H712 H 0.66005 0.04312 0.35482
 H713 H 0.64902 -0.03802 0.34513
 H714 H 0.68596 -0.04406 0.38385
 C715 C 0.87259 0.48880 0.14376
 C716 C 0.87318 0.51137 0.16777
 C717 C 0.89379 0.50903 0.18816
 C718 C 0.91175 0.48436 0.18249
 C719 C 0.92289 0.48740 0.15097
 C720 C 0.90231 0.48974 0.13062
 C721 C 0.87014 0.46217 0.16044
 C722 C 0.89072 0.45983 0.18080
 C723 C 0.85059 0.49104 0.12163
 C724 C 0.83289 0.49229 0.10292
 C725 C 0.93393 0.48157 0.20428
 C726 C 0.95216 0.47873 0.22207
 H727 H 0.85870 0.52772 0.16869
 H728 H 0.89698 0.52339 0.20655
 H729 H 0.94500 0.48774 0.14517
 H730 H 0.90679 0.49207 0.10736
 H731 H 0.85365 0.44653 0.15664
 H732 H 0.89186 0.44219 0.19443
 C733 C 0.36396 -0.00297 0.63244
 C734 C 0.33922 -0.02399 0.63372
 C735 C 0.31915 -0.02056 0.61298
 C736 C 0.32583 0.00355 0.59304
 C737 C 0.35488 -0.00162 0.57998
 C738 C 0.37492 -0.00504 0.60068
 C739 C 0.35060 0.02472 0.63489
 C740 C 0.33058 0.02814 0.61420
 C741 C 0.38574 -0.00621 0.65465
 C742 C 0.40411 -0.00790 0.67260
 C743 C 0.30436 0.00764 0.57074
 C744 C 0.28690 0.01183 0.55250
 H745 H 0.33762 -0.04014 0.64948
 H746 H 0.30035 -0.03378 0.61098
 H747 H 0.35931 -0.00256 0.55652
 H748 H 0.39651 -0.00891 0.59495
 H749 H 0.35634 0.04029 0.65146
 H750 H 0.31918 0.04664 0.61306
   
