data_POSCAR
  _audit_creation_date              2014-09-24
  _audit_creation_method            'ToBaCCo'
  _symmetry_space_group_name_H-M    'P1'
  _symmetry_Int_Tables_number       1
  _symmetry_cell_setting            triclinic
  loop_
  _symmetry_equiv_pos_as_xyz
 x,y,z
_cell_length_a 61.5238
_cell_length_b 61.0422
_cell_length_c 60.1496
_cell_angle_alpha 89.929500
_cell_angle_beta 89.891000
_cell_angle_gamma 89.934500
loop_
  _atom_site_label
  _atom_site_type_symbol
  _atom_site_fract_x
  _atom_site_fract_y
  _atom_site_fract_z
C1 C 0.37175 0.30957 0.01839
 C2 C 0.38033 0.30235 -0.00179
 C3 C 0.37218 0.30940 -0.02244
 C4 C 0.35569 0.32594 -0.02252
 C5 C 0.34662 0.33332 -0.00203
 C6 C 0.35470 0.32504 0.01845
 C7 C 0.34639 0.33334 0.03850
 C8 C 0.33028 0.34925 0.03860
 C9 C 0.32178 0.35758 0.01866
 C10 C 0.33003 0.34971 -0.00192
 C11 C 0.34942 0.33688 -0.04209
 C12 C 0.33329 0.35284 -0.04199
 C13 C 0.32243 0.35884 -0.02231
 C14 C 0.30572 0.37514 -0.02201
 C15 C 0.29867 0.38307 -0.00125
 C16 C 0.30611 0.37445 0.01881
 H17 H 0.35266 0.32812 0.05442
 H18 H 0.32505 0.35537 0.05460
 H19 H 0.35774 0.33439 -0.05768
 H20 H 0.33059 0.36125 -0.05750
 H21 H 0.39294 0.28995 -0.00111
 H22 H 0.28612 0.39554 -0.00040
 C23 C 0.71135 0.64387 0.02085
 C24 C 0.71946 0.63685 0.00034
 C25 C 0.71194 0.64556 -0.01971
 C26 C 0.69612 0.66241 -0.01935
 C27 C 0.68755 0.66974 0.00128
 C28 C 0.69526 0.66046 0.02150
 C29 C 0.68742 0.66874 0.04176
 C30 C 0.67215 0.68553 0.04225
 C31 C 0.66402 0.69472 0.02251
 C32 C 0.67178 0.68685 0.00175
 C33 C 0.68961 0.67303 -0.03893
 C34 C 0.67436 0.68982 -0.03849
 C35 C 0.66436 0.69648 -0.01850
 C36 C 0.64848 0.71358 -0.01782
 C37 C 0.64209 0.72166 0.00310
 C38 C 0.64914 0.71232 0.02301
 H39 H 0.69341 0.66276 0.05752
 H40 H 0.66720 0.69158 0.05838
 H41 H 0.69685 0.66904 -0.05482
 H42 H 0.67153 0.69811 -0.05404
 H43 H 0.73155 0.62390 -0.00003
 H44 H 0.63011 0.73467 0.00417
 C45 C 0.62534 0.31103 1.01762
 C46 C 0.61703 0.30295 0.99765
 C47 C 0.62624 0.30843 0.97713
 C48 C 0.64432 0.32276 0.97639
 C49 C 0.65265 0.33163 0.99649
 C50 C 0.64290 0.32599 1.01711
 C51 C 0.65016 0.33635 1.03650
 C52 C 0.66741 0.35101 1.03596
 C53 C 0.67878 0.35554 1.01610
 C54 C 0.67050 0.34649 0.99594
 C55 C 0.65385 0.32900 0.95612
 C56 C 0.67131 0.34341 0.95554
 C57 C 0.67967 0.35258 0.97516
 C58 C 0.69703 0.36764 0.97454
 C59 C 0.70535 0.37594 0.99436
 C60 C 0.69709 0.36997 1.01534
 H61 H 0.64206 0.33386 1.05227
 H62 H 0.67080 0.35932 1.05133
 H63 H 0.64778 0.32304 0.94041
 H64 H 0.67814 0.34730 0.93944
 H65 H 0.60358 0.29148 0.99810
 H66 H 0.71903 0.38708 0.99317
 C67 C 0.29794 0.63142 0.97728
 C68 C 0.28817 0.62637 0.99757
 C69 C 0.29677 0.63326 1.01806
 C70 C 0.31539 0.64733 1.01775
 C71 C 0.32532 0.65297 0.99707
 C72 C 0.31672 0.64467 0.97685
 C73 C 0.32746 0.64927 0.95678
 C74 C 0.34583 0.66241 0.95631
 C75 C 0.35419 0.67164 0.97587
 C76 C 0.34404 0.66682 0.99655
 C77 C 0.32402 0.65664 1.03720
 C78 C 0.34259 0.66953 1.03676
 C79 C 0.35271 0.67554 1.01666
 C80 C 0.37175 0.68903 1.01591
 C81 C 0.38180 0.69252 0.99517
 C82 C 0.37297 0.68488 0.97531
 H83 H 0.32202 0.64249 0.94116
 H84 H 0.35366 0.66486 0.94039
 H85 H 0.31655 0.65461 1.05325
 H86 H 0.34891 0.67407 1.05275
 H87 H 0.27404 0.61576 0.99720
 H88 H 0.39598 0.70301 0.99404
 C89 C 0.02025 0.29777 0.36671
 C90 C 0.00066 0.29182 0.37673
 C91 C -0.01936 0.30128 0.37068
 C92 C -0.01915 0.31875 0.35483
 C93 C 0.00061 0.32445 0.34389
 C94 C 0.02030 0.31374 0.34973
 C95 C 0.03947 0.31901 0.33820
 C96 C 0.03965 0.33529 0.32207
 C97 C 0.02067 0.34695 0.31676
 C98 C 0.00079 0.34115 0.32728
 C99 C -0.03752 0.33191 0.35078
 C100 C -0.03735 0.34817 0.33457
 C101 C -0.01879 0.35222 0.32150
 C102 C -0.01865 0.36816 0.30407
 C103 C 0.00153 0.37417 0.29485
 C104 C 0.02098 0.36403 0.30094
 H105 H 0.05456 0.31049 0.34137
 H106 H 0.05487 0.33844 0.31365
 H107 H -0.05202 0.33074 0.36079
 H108 H -0.05173 0.35820 0.33343
 H109 H 0.00118 0.27898 0.38919
 H110 H 0.00233 0.38671 0.28209
 C111 C 0.01922 0.63047 0.69097
 C112 C -0.00033 0.62010 0.69618
 C113 C -0.02053 0.62806 0.68879
 C114 C -0.02061 0.64589 0.67340
 C115 C -0.00084 0.65684 0.66816
 C116 C 0.01910 0.64923 0.67723
 C117 C 0.03849 0.66003 0.67160
 C118 C 0.03842 0.67794 0.65738
 C119 C 0.01905 0.68543 0.64766
 C120 C -0.00088 0.67507 0.65327
 C121 C -0.03937 0.65188 0.66153
 C122 C -0.03940 0.66957 0.64697
 C123 C -0.02071 0.68241 0.64353
 C124 C -0.02065 0.70115 0.62921
 C125 C -0.00048 0.71063 0.62375
 C126 C 0.01912 0.70303 0.63245
 H127 H 0.05404 0.65461 0.67788
 H128 H 0.05384 0.68576 0.65402
 H129 H -0.05405 0.64225 0.66222
 H130 H -0.05412 0.67203 0.63763
 H131 H 0.00036 0.60627 0.70751
 H132 H 0.00022 0.72455 0.61256
 C133 C 1.01690 0.62672 0.30815
 C134 C 0.99724 0.61870 0.29991
 C135 C 0.97733 0.62824 0.30555
 C136 C 0.97689 0.64637 0.32021
 C137 C 0.99666 0.65441 0.32927
 C138 C 1.01667 0.64432 0.32346
 C139 C 1.03572 0.65129 0.33404
 C140 C 1.03543 0.66857 0.34905
 C141 C 1.01618 0.68027 0.35375
 C142 C 0.99637 0.67227 0.34452
 C143 C 0.95722 0.65622 0.32661
 C144 C 0.95690 0.67370 0.34137
 C145 C 0.97618 0.68173 0.35081
 C146 C 0.97580 0.69906 0.36631
 C147 C 0.99532 0.70715 0.37475
 C148 C 1.01572 0.69864 0.36851
 H149 H 1.05102 0.64292 0.33145
 H150 H 1.05050 0.67169 0.35754
 H151 H 0.94176 0.65040 0.32050
 H152 H 0.94125 0.68080 0.34529
 H153 H 0.99746 0.60519 0.28819
 H154 H 0.99436 0.72084 0.38618
 C155 C 1.01601 0.29092 0.64080
 C156 C 0.99630 0.28091 0.63541
 C157 C 0.97634 0.29036 0.64104
 C158 C 0.97597 0.30988 0.65375
 C159 C 0.99584 0.31996 0.66003
 C160 C 1.01592 0.31062 0.65322
 C161 C 1.03529 0.32121 0.65907
 C162 C 1.03508 0.34057 0.67120
 C163 C 1.01554 0.34968 0.67930
 C164 C 0.99563 0.33953 0.67296
 C165 C 0.95629 0.31940 0.66059
 C166 C 0.95603 0.33874 0.67271
 C167 C 0.97544 0.34900 0.67923
 C168 C 0.97517 0.36881 0.69131
 C169 C 0.99476 0.37885 0.69700
 C170 C 1.01509 0.36923 0.69240
 H171 H 1.05096 0.31476 0.65422
 H172 H 1.05058 0.34847 0.67330
 H173 H 0.94080 0.31200 0.65675
 H174 H 0.94031 0.34563 0.67670
 H175 H 0.99650 0.26612 0.62542
 H176 H 0.99388 0.39369 0.70686
 C177 C 0.30932 -0.01905 0.37306
 C178 C 0.30228 0.00131 0.38132
 C179 C 0.30940 0.02116 0.37244
 C180 C 0.32474 0.02116 0.35498
 C181 C 0.33302 0.00096 0.34683
 C182 C 0.32579 -0.01918 0.35627
 C183 C 0.33676 -0.03846 0.35008
 C184 C 0.35256 -0.03844 0.33355
 C185 C 0.35832 -0.01915 0.32216
 C186 C 0.34923 0.00098 0.32981
 C187 C 0.33290 0.04088 0.34632
 C188 C 0.34866 0.04090 0.32981
 C189 C 0.35694 0.02121 0.32119
 C190 C 0.37361 0.02126 0.30505
 C191 C 0.38213 0.00144 0.29748
 C192 C 0.37433 -0.01897 0.30490
 H193 H 0.33441 -0.05373 0.35879
 H194 H 0.36104 -0.05369 0.33097
 H195 H 0.32765 0.05659 0.35264
 H196 H 0.35468 0.05664 0.32436
 H197 H 0.28993 0.00200 0.39419
 H198 H 0.39443 0.00219 0.28456
 C199 C 0.64581 -0.01872 0.71670
 C200 C 0.63935 0.00187 0.72491
 C201 C 0.64656 0.02152 0.71560
 C202 C 0.66169 0.02110 0.69795
 C203 C 0.66946 0.00067 0.68992
 C204 C 0.66187 -0.01932 0.69949
 C205 C 0.67187 -0.03900 0.69266
 C206 C 0.68728 -0.03935 0.67573
 C207 C 0.69397 -0.02000 0.66519
 C208 C 0.68541 0.00030 0.67270
 C209 C 0.67004 0.04059 0.68888
 C210 C 0.68547 0.04018 0.67199
 C211 C 0.69327 0.02026 0.66349
 C212 C 0.70948 0.01971 0.64676
 C213 C 0.71761 -0.00047 0.63959
 C214 C 0.70996 -0.02026 0.64825
 H215 H 0.66892 -0.05439 0.70090
 H216 H 0.69448 -0.05500 0.67159
 H217 H 0.66517 0.05646 0.69513
 H218 H 0.69160 0.05574 0.66611
 H219 H 0.62722 0.00290 0.73797
 H220 H 0.72979 -0.00078 0.62652
 C221 C 0.37209 1.01413 0.69324
 C222 C 0.38140 0.99356 0.69794
 C223 C 0.37141 0.97389 0.69198
 C224 C 0.35200 0.97435 0.67950
 C225 C 0.34285 0.99478 0.67317
 C226 C 0.35294 1.01476 0.67978
 C227 C 0.34417 1.03455 0.67162
 C228 C 0.32513 1.03495 0.65923
 C229 C 0.31457 1.01551 0.65317
 C230 C 0.32364 0.99519 0.65994
 C231 C 0.34184 0.95488 0.67266
 C232 C 0.32287 0.95533 0.66020
 C233 C 0.31361 0.97525 0.65338
 C234 C 0.29441 0.97582 0.64045
 C235 C 0.28519 0.99603 0.63489
 C236 C 0.29514 1.01580 0.64058
 H237 H 0.35210 1.05010 0.67388
 H238 H 0.31892 1.05080 0.65434
 H239 H 0.34854 0.93898 0.67665
 H240 H 0.31551 0.93978 0.65610
 H241 H 0.39591 0.99253 0.70810
 H242 H 0.27060 0.99638 0.62478
 C243 C 0.62265 0.98048 0.30583
 C244 C 0.61277 1.00039 0.30052
 C245 C 0.62083 1.02059 0.30815
 C246 C 0.63824 1.02030 0.32383
 C247 C 0.64869 1.00015 0.32918
 C248 C 0.64097 0.98022 0.31994
 C249 C 0.65121 0.96046 0.32576
 C250 C 0.66875 0.96016 0.34022
 C251 C 0.67642 0.97953 0.35000
 C252 C 0.66654 0.99982 0.34431
 C253 C 0.64431 1.03906 0.33584
 C254 C 0.66166 1.03875 0.35059
 C255 C 0.67403 1.01966 0.35414
 C256 C 0.69245 1.01924 0.36863
 C257 C 0.70145 0.99874 0.37417
 C258 C 0.69372 0.97913 0.36534
 H259 H 0.64563 0.94488 0.31946
 H260 H 0.67615 0.94446 0.34372
 H261 H 0.63501 1.05404 0.33509
 H262 H 0.66425 1.05352 0.36000
 H263 H 0.59929 0.99999 0.28894
 H264 H 0.71516 0.99778 0.38543
 O265 O 0.81496 0.84925 0.52084
 O266 O 0.84378 0.81855 0.47753
 O267 O 0.81371 0.84855 0.47778
 O268 O 0.84472 0.81920 0.52052
 O269 O 0.81958 0.79339 0.52178
 O270 O 0.78824 0.82309 0.47888
 O271 O 0.81867 0.79272 0.47859
 O272 O 0.78950 0.82379 0.52224
 Cu273 Cu 0.83179 0.83645 0.49901
 Cu274 Cu 0.80140 0.80568 0.50044
 C275 C 0.79736 0.84187 0.52891
 C276 C 0.83640 0.80030 0.47090
 C277 C 0.79562 0.84101 0.47121
 C278 C 0.83759 0.80125 0.52831
 O279 O 0.15070 0.17757 0.47947
 O280 O 0.17957 0.14696 0.52285
 O281 O 0.14894 0.17637 0.52249
 O282 O 0.18150 0.14834 0.47988
 O283 O 0.20622 0.17451 0.48160
 O284 O 0.17350 0.20266 0.52446
 O285 O 0.20440 0.17302 0.52476
 O286 O 0.17511 0.20402 0.48124
 Cu287 Cu 0.16272 0.15970 0.50098
 Cu288 Cu 0.19229 0.19122 0.50319
 C289 C 0.15778 0.19607 0.47312
 C290 C 0.19699 0.15458 0.53103
 C291 C 0.15555 0.19435 0.53061
 C292 C 0.19950 0.15647 0.47368
 O293 O 0.14978 0.82028 0.51575
 O294 O 0.18126 0.84946 0.47307
 O295 O 0.15043 0.82032 0.47269
 O296 O 0.17999 0.84991 0.51612
 O297 O 0.20501 0.82392 0.51694
 O298 O 0.17496 0.79387 0.47336
 O299 O 0.20616 0.82335 0.47368
 O300 O 0.17455 0.79406 0.51659
 Cu301 Cu 0.16290 0.83760 0.49429
 Cu302 Cu 0.19269 0.80615 0.49515
 C303 C 0.15672 0.80217 0.52336
 C304 C 0.19919 0.84156 0.46633
 C305 C 0.15739 0.80195 0.46585
 C306 C 0.19755 0.84211 0.52386
 O307 O 0.84707 0.17775 0.51787
 O308 O 0.81591 0.15003 0.47425
 O309 O 0.84612 0.17979 0.47489
 O310 O 0.81681 0.14816 0.51730
 O311 O 0.79164 0.17392 0.51928
 O312 O 0.82122 0.20585 0.47659
 O313 O 0.79062 0.17569 0.47600
 O314 O 0.82214 0.20376 0.51978
 Cu315 Cu 0.83396 0.16135 0.49585
 Cu316 Cu 0.80385 0.19242 0.49803
 C317 C 0.84006 0.19552 0.52616
 C318 C 0.79787 0.15790 0.46789
 C319 C 0.83890 0.19832 0.46874
 C320 C 0.79924 0.15554 0.52547
 O321 O 0.47849 0.84244 0.81615
 O322 O 0.52087 0.81521 0.84888
 O323 O 0.52030 0.84586 0.81903
 O324 O 0.47906 0.81144 0.84602
 O325 O 0.48293 0.78649 0.81974
 O326 O 0.52444 0.82117 0.79252
 O327 O 0.52497 0.79023 0.82264
 O328 O 0.48240 0.81788 0.78949
 Cu329 Cu 0.49922 0.83119 0.83515
 Cu330 Cu 0.50399 0.80141 0.80342
 C331 C 0.47349 0.83511 0.79710
 C332 C 0.53008 0.79809 0.84147
 C333 C 0.52934 0.83948 0.80118
 C334 C 0.47422 0.79297 0.83775
 O335 O 0.52159 0.18829 0.15353
 O336 O 0.47948 0.15711 0.18303
 O337 O 0.47955 0.18768 0.15290
 O338 O 0.52152 0.15762 0.18375
 O339 O 0.52077 0.18264 0.21025
 O340 O 0.47867 0.21302 0.17909
 O341 O 0.47859 0.18218 0.20949
 O342 O 0.52086 0.21363 0.17971
 Cu343 Cu 0.50065 0.17017 0.16568
 Cu344 Cu 0.49968 0.20042 0.19730
 C345 C 0.52812 0.20642 0.16133
 C346 C 0.47205 0.16415 0.20138
 C347 C 0.47214 0.20557 0.16056
 C348 C 0.52801 0.16474 0.20241
 O349 O 0.51777 0.15118 0.81975
 O350 O 0.47357 0.18170 0.84671
 O351 O 0.47571 0.14997 0.81780
 O352 O 0.51561 0.18256 0.84872
 O353 O 0.51645 0.20696 0.82157
 O354 O 0.47625 0.17418 0.79047
 O355 O 0.47427 0.20625 0.81970
 O356 O 0.51852 0.17533 0.79238
 Cu357 Cu 0.49554 0.16392 0.83595
 Cu358 Cu 0.49636 0.19312 0.80326
 C359 C 0.52563 0.15795 0.80147
 C360 C 0.46667 0.19936 0.83808
 C361 C 0.46940 0.15631 0.79877
 C362 C 0.52275 0.20033 0.84054
 O363 O 0.47638 0.81699 0.14753
 O364 O 0.51658 0.84851 0.17920
 O365 O 0.51855 0.81839 0.14881
 O366 O 0.47460 0.84706 0.17821
 O367 O 0.47478 0.82165 0.20440
 O368 O 0.51883 0.79265 0.17466
 O369 O 0.51689 0.82299 0.20529
 O370 O 0.47646 0.79128 0.17341
 Cu371 Cu 0.49646 0.83525 0.16081
 Cu372 Cu 0.49670 0.80451 0.19202
 C373 C 0.46972 0.79871 0.15492
 C374 C 0.52342 0.84128 0.19771
 C375 C 0.52617 0.80067 0.15665
 C376 C 0.46750 0.83953 0.19651
 O377 O 0.84577 0.52339 0.81222
 O378 O 0.81500 0.48134 0.84255
 O379 O 0.84475 0.48109 0.81181
 O380 O 0.81665 0.52378 0.84355
 O381 O 0.79068 0.52524 0.81828
 O382 O 0.81929 0.48235 0.78598
 O383 O 0.78919 0.48252 0.81708
 O384 O 0.82011 0.52483 0.78661
 Cu385 Cu 0.83307 0.50227 0.83011
 Cu386 Cu 0.80217 0.50385 0.79944
 C387 C 0.83837 0.53104 0.79412
 C388 C 0.79682 0.47487 0.83510
 C389 C 0.83710 0.47469 0.79336
 C390 C 0.79888 0.53171 0.83651
 O391 O 0.15145 0.52099 0.18487
 O392 O 0.18250 0.47986 0.15355
 O393 O 0.15237 0.47862 0.18383
 O394 O 0.18142 0.52222 0.15422
 O395 O 0.20698 0.52227 0.17997
 O396 O 0.17736 0.47862 0.21017
 O397 O 0.20779 0.47972 0.17958
 O398 O 0.17666 0.52120 0.21097
 Cu399 Cu 0.16442 0.50046 0.16653
 Cu400 Cu 0.19475 0.50050 0.19782
 C401 C 0.15856 0.52787 0.20339
 C402 C 0.20050 0.47293 0.16109
 C403 C 0.15970 0.47134 0.20211
 C404 C 0.19929 0.52941 0.16174
 O405 O 0.84858 0.47426 0.18177
 O406 O 0.81931 0.51675 0.15065
 O407 O 0.84882 0.51666 0.18148
 O408 O 0.81917 0.47428 0.15078
 O409 O 0.79326 0.47445 0.17626
 O410 O 0.82321 0.51699 0.20728
 O411 O 0.79344 0.51715 0.17618
 O412 O 0.82302 0.47443 0.20762
 Cu413 Cu 0.83651 0.49544 0.16360
 Cu414 Cu 0.80560 0.49574 0.19441
 C415 C 0.84101 0.46733 0.20011
 C416 C 0.80138 0.52412 0.15799
 C417 C 0.84124 0.52389 0.19969
 C418 C 0.80109 0.46731 0.15809
 O419 O 0.17885 0.51885 0.84509
 O420 O 0.14826 0.47670 0.81506
 O421 O 0.17899 0.47637 0.84484
 O422 O 0.14869 0.51910 0.81490
 O423 O 0.17364 0.51917 0.78842
 O424 O 0.20400 0.47622 0.81843
 O425 O 0.17298 0.47662 0.78837
 O426 O 0.20403 0.51884 0.81886
 Cu427 Cu 0.16122 0.49772 0.83262
 Cu428 Cu 0.19119 0.49766 0.80086
 C429 C 0.19668 0.52591 0.83727
 C430 C 0.15514 0.46974 0.79647
 C431 C 0.19678 0.46922 0.83692
 C432 C 0.15588 0.52627 0.79648
 N433 N 0.27618 0.37916 0.07194
 C434 C 0.27541 0.40120 0.07470
 N435 N 0.28532 0.41430 0.05958
 N436 N 0.29567 0.40567 0.04222
 C437 C 0.29657 0.38363 0.03940
 N438 N 0.28657 0.37051 0.05456
 C439 C 0.26275 0.41082 0.09220
 C440 C 0.25166 0.41986 0.10596
 C441 C 0.23802 0.43170 0.12113
 N442 N 0.21772 0.43766 0.11484
 N443 N 0.20557 0.45032 0.12791
 C444 C 0.21330 0.45748 0.14772
 N445 N 0.23359 0.45134 0.15411
 N446 N 0.24577 0.43867 0.14100
 N447 N 0.75084 0.61987 0.05985
 C448 C 0.73779 0.61022 0.07514
 N449 N 0.71591 0.61224 0.07312
 N450 N 0.70739 0.62357 0.05627
 C451 C 0.72047 0.63329 0.04093
 N452 N 0.74234 0.63115 0.04302
 C453 C 0.74720 0.59653 0.09198
 C454 C 0.75611 0.58456 0.10507
 C455 C 0.76780 0.56983 0.11933
 N456 N 0.75904 0.56249 0.13867
 N457 N 0.76982 0.54812 0.15125
 C458 C 0.78968 0.54063 0.14486
 N459 N 0.79839 0.54810 0.12554
 N460 N 0.78764 0.56244 0.11300
 N461 N 0.73894 0.38418 0.93417
 C462 C 0.72705 0.39436 0.91828
 N463 N 0.70508 0.39490 0.92029
 N464 N 0.69535 0.38558 0.93773
 C465 C 0.70727 0.37541 0.95370
 N466 N 0.72924 0.37492 0.95159
 C467 C 0.73790 0.40643 0.90106
 C468 C 0.74789 0.41723 0.88774
 C469 C 0.76071 0.43079 0.87330
 N470 N 0.75239 0.43891 0.85411
 N471 N 0.76404 0.45264 0.84160
 C472 C 0.78435 0.45873 0.84794
 N473 N 0.79262 0.45046 0.86710
 N474 N 0.78100 0.43675 0.87956
 N475 N 0.27514 0.58982 0.93973
 C476 C 0.26839 0.60201 0.92223
 N477 N 0.27177 0.62398 0.92244
 N478 N 0.28166 0.63342 0.93967
 C479 C 0.28850 0.62117 0.95721
 N480 N 0.28497 0.59923 0.95693
 C481 C 0.25647 0.59171 0.90462
 C482 C 0.24595 0.58199 0.89092
 C483 C 0.23284 0.56929 0.87603
 N484 N 0.21262 0.56308 0.88236
 N485 N 0.20095 0.54968 0.86967
 C486 C 0.20910 0.54197 0.85021
 N487 N 0.22932 0.54834 0.84377
 N488 N 0.24102 0.56175 0.85651
 N489 N 0.05731 0.25438 0.38617
 C490 C 0.07470 0.26601 0.39328
 N491 N 0.07461 0.28812 0.39097
 N492 N 0.05761 0.29826 0.38183
 C493 C 0.04016 0.28661 0.37468
 N494 N 0.04033 0.26449 0.37708
 C495 C 0.09190 0.25506 0.40492
 C496 C 0.10530 0.24503 0.41543
 C497 C 0.11987 0.23220 0.42874
 N498 N 0.13824 0.24103 0.43736
 N499 N 0.15073 0.22937 0.45110
 C500 C 0.14519 0.20853 0.45670
 N501 N 0.12687 0.19974 0.44791
 N502 N 0.11444 0.21136 0.43418
 N503 N 0.05725 0.74620 0.61486
 C504 C 0.07347 0.73443 0.60536
 N505 N 0.07237 0.71224 0.60560
 N506 N 0.05549 0.70214 0.61502
 C507 C 0.03919 0.71390 0.62455
 N508 N 0.04039 0.73612 0.62425
 C509 C 0.09028 0.74548 0.59320
 C510 C 0.10343 0.75536 0.58224
 C511 C 0.11790 0.76774 0.56837
 N512 N 0.13700 0.75907 0.56127
 N513 N 0.14965 0.77021 0.54723
 C514 C 0.14356 0.79033 0.53979
 N515 N 0.12449 0.79896 0.54704
 N516 N 0.11188 0.78785 0.56107
 N517 N 0.93647 0.74152 0.38305
 C518 C 0.92048 0.72954 0.39267
 N519 N 0.92224 0.70738 0.39301
 N520 N 0.93949 0.69754 0.38398
 C521 C 0.95552 0.70954 0.37427
 N522 N 0.95369 0.73171 0.37405
 C523 C 0.90313 0.74046 0.40417
 C524 C 0.88959 0.75055 0.41447
 C525 C 0.87488 0.76358 0.42746
 N526 N 0.85612 0.75505 0.43561
 N527 N 0.84343 0.76691 0.44901
 C528 C 0.84915 0.78766 0.45471
 N529 N 0.86785 0.79614 0.44637
 N530 N 0.88048 0.78432 0.43299
 N531 N 0.92531 0.28222 0.60990
 C532 C 0.92297 0.26016 0.61082
 N533 N 0.93766 0.24813 0.62237
 N534 N 0.95419 0.25785 0.63266
 C535 C 0.95656 0.27996 0.63186
 N536 N 0.94184 0.29195 0.62020
 C537 C 0.90648 0.24942 0.59801
 C538 C 0.89345 0.23997 0.58657
 C539 C 0.87899 0.22820 0.57220
 N540 N 0.88500 0.20841 0.56408
 N541 N 0.87235 0.19787 0.54971
 C542 C 0.85325 0.20677 0.54293
 N543 N 0.84717 0.22657 0.55118
 N544 N 0.85987 0.23714 0.56557
 N545 N 0.37823 0.07384 0.27485
 C546 C 0.40008 0.07665 0.27418
 N547 N 0.41310 0.06165 0.28409
 N548 N 0.40458 0.04436 0.29440
 C549 C 0.38271 0.04152 0.29525
 N550 N 0.36967 0.05653 0.28519
 C551 C 0.40960 0.09428 0.26176
 C552 C 0.41857 0.10822 0.25093
 C553 C 0.43039 0.12367 0.23762
 N554 N 0.43707 0.14303 0.24628
 N555 N 0.44983 0.15635 0.23448
 C556 C 0.45636 0.15068 0.21367
 N557 N 0.44947 0.13138 0.20502
 N558 N 0.43672 0.11810 0.21680
 N559 N 0.62468 0.06202 0.75510
 C560 C 0.61446 0.07635 0.74144
 N561 N 0.61562 0.07329 0.71913
 N562 N 0.62661 0.05635 0.71078
 C563 C 0.63686 0.04193 0.72446
 N564 N 0.63564 0.04508 0.74677
 C565 C 0.60073 0.09302 0.75070
 C566 C 0.58853 0.10598 0.75927
 C567 C 0.57336 0.12013 0.77034
 N568 N 0.56583 0.13860 0.76040
 N569 N 0.55084 0.15093 0.77043
 C570 C 0.54286 0.14514 0.79069
 N571 N 0.55051 0.12669 0.80058
 N572 N 0.56548 0.11440 0.79057
 N573 N 0.41234 0.93278 0.70839
 C574 C 0.40030 0.91842 0.72041
 N575 N 0.37861 0.92181 0.72245
 N576 N 0.36925 0.93904 0.71274
 C577 C 0.38125 0.95342 0.70060
 N578 N 0.40299 0.95000 0.69870
 C579 C 0.41082 0.90125 0.73268
 C580 C 0.42024 0.88777 0.74371
 C581 C 0.43221 0.87299 0.75767
 N582 N 0.44152 0.85462 0.74923
 N583 N 0.45416 0.84204 0.76197
 C584 C 0.45791 0.84747 0.78353
 N585 N 0.44839 0.86576 0.79192
 N586 N 0.43576 0.87829 0.77922
 N587 N 0.61691 0.93029 0.27203
 C588 C 0.59524 0.92649 0.27353
 N589 N 0.58278 0.93996 0.28612
 N590 N 0.59168 0.95673 0.29690
 C591 C 0.61338 0.96055 0.29557
 N592 N 0.62583 0.94708 0.28284
 C593 C 0.58518 0.90956 0.26060
 C594 C 0.57593 0.89614 0.24940
 C595 C 0.56399 0.88120 0.23568
 N596 N 0.55787 0.88735 0.21496
 N597 N 0.54537 0.87433 0.20269
 C598 C 0.53852 0.85472 0.21072
 N599 N 0.54480 0.84850 0.23143
 N600 N 0.55731 0.86155 0.24373
 N601 N 0.37667 0.28664 0.92148
 C602 C 0.39608 0.27616 0.92271
 N603 N 0.40751 0.27706 0.94186
 N604 N 0.39986 0.28810 0.95924
 C605 C 0.38051 0.29889 0.95826
 N606 N 0.36904 0.29773 0.93895
 C607 C 0.40441 0.26346 0.90453
 C608 C 0.41275 0.25208 0.89053
 C609 C 0.42416 0.23786 0.87551
 N610 N 0.42924 0.21725 0.88208
 N611 N 0.44214 0.20471 0.86966
 C612 C 0.45045 0.21236 0.85022
 N613 N 0.44512 0.23294 0.84350
 N614 N 0.43223 0.24551 0.85599
 N615 N 0.61659 0.75036 0.94756
 C616 C 0.61471 0.73885 0.92847
 N617 N 0.62437 0.71894 0.92692
 N618 N 0.63565 0.71089 0.94401
 C619 C 0.63782 0.72242 0.96324
 N620 N 0.62783 0.74228 0.96457
 C621 C 0.60169 0.74747 0.91073
 C622 C 0.59008 0.75576 0.89697
 C623 C 0.57555 0.76678 0.88204
 N624 N 0.57018 0.75797 0.86209
 N625 N 0.55590 0.76806 0.84889
 C626 C 0.54653 0.78723 0.85527
 N627 N 0.55204 0.79598 0.87520
 N628 N 0.56629 0.78593 0.88835
 N629 N 0.37757 0.71753 0.06905
 C630 C 0.39877 0.72349 0.06831
 N631 N 0.41088 0.71783 0.05043
 N632 N 0.40213 0.70646 0.03386
 C633 C 0.38094 0.70008 0.03445
 N634 N 0.36885 0.70613 0.05240
 C635 C 0.40832 0.73636 0.08569
 C636 C 0.41731 0.74749 0.09942
 C637 C 0.42907 0.76111 0.11465
 N638 N 0.43492 0.78163 0.10849
 N639 N 0.44743 0.79378 0.12164
 C640 C 0.45457 0.78581 0.14140
 N641 N 0.44855 0.76529 0.14764
 N642 N 0.43604 0.75311 0.13446
 N643 N 0.61986 0.28474 0.07272
 C644 C 0.59800 0.28248 0.07447
 N645 N 0.58515 0.29034 0.05801
 N646 N 0.59385 0.30012 0.04032
 C647 C 0.61573 0.30247 0.03849
 N648 N 0.62858 0.29455 0.05502
 C649 C 0.58854 0.27008 0.09229
 C650 C 0.57982 0.25897 0.10627
 C651 C 0.56847 0.24502 0.12158
 N652 N 0.56099 0.25284 0.14127
 N653 N 0.54871 0.24029 0.15441
 C654 C 0.54349 0.21955 0.14824
 N655 N 0.55119 0.21175 0.12863
 N656 N 0.56346 0.22426 0.11553
 N657 N 0.25350 0.05633 0.62477
 C658 C 0.26508 0.07065 0.61226
 N659 N 0.28676 0.06745 0.60969
 N660 N 0.29654 0.05044 0.61937
 C661 C 0.28498 0.03610 0.63200
 N662 N 0.26327 0.03933 0.63443
 C663 C 0.25406 0.08757 0.60009
 C664 C 0.24417 0.10085 0.58923
 C665 C 0.23170 0.11546 0.57556
 N666 N 0.23982 0.13511 0.56905
 N667 N 0.22857 0.14791 0.55522
 C668 C 0.20888 0.14142 0.54744
 N669 N 0.20080 0.12180 0.55411
 N670 N 0.21201 0.10905 0.56793
 N671 N 0.71169 0.07547 0.37620
 C672 C 0.72435 0.07322 0.39448
 N673 N 0.72627 0.05327 0.40406
 N674 N 0.71578 0.03611 0.39575
 C675 C 0.70275 0.03811 0.37759
 N676 N 0.70118 0.05822 0.36789
 C677 C 0.73610 0.09136 0.40367
 C678 C 0.74678 0.10533 0.41262
 C679 C 0.76035 0.12031 0.42461
 N680 N 0.78111 0.11455 0.42933
 N681 N 0.79323 0.12699 0.44256
 C682 C 0.78503 0.14562 0.45158
 N683 N 0.76428 0.15152 0.44665
 N684 N 0.75211 0.13902 0.43342
 N685 N 0.71418 0.92620 0.61990
 C686 C 0.73594 0.92454 0.61666
 N687 N 0.74911 0.94048 0.62457
 N688 N 0.74083 0.95761 0.63532
 C689 C 0.71907 0.95939 0.63865
 N690 N 0.70587 0.94336 0.63071
 C691 C 0.74497 0.90745 0.60314
 C692 C 0.75355 0.89425 0.59108
 C693 C 0.76491 0.88003 0.57605
 N694 N 0.75597 0.86097 0.56893
 N695 N 0.76639 0.84853 0.55411
 C696 C 0.78603 0.85481 0.54590
 N697 N 0.79489 0.87384 0.55315
 N698 N 0.78451 0.88623 0.56795
 N699 N 0.27682 0.94577 0.40878
 C700 C 0.27604 0.92693 0.39701
 N701 N 0.28665 0.92575 0.37728
 N702 N 0.29776 0.94296 0.36965
 C703 C 0.29881 0.96195 0.38146
 N704 N 0.28788 0.96289 0.40113
 C705 C 0.26334 0.90900 0.40530
 C706 C 0.25200 0.89509 0.41353
 C707 C 0.23786 0.88003 0.42476
 N708 N 0.24543 0.86059 0.43250
 N709 N 0.23284 0.84786 0.44514
 C710 C 0.21233 0.85424 0.45054
 N711 N 0.20477 0.87361 0.44258
 N712 N 0.21733 0.88629 0.42993
 N713 N 0.04962 0.40950 0.71950
 C714 C 0.06780 0.39776 0.72381
 N715 N 0.06871 0.37650 0.71743
 N716 N 0.05194 0.36735 0.70693
 C717 C 0.03367 0.37906 0.70225
 N718 N 0.03292 0.40032 0.70904
 C719 C 0.08531 0.40764 0.73593
 C720 C 0.09920 0.41676 0.74658
 C721 C 0.11461 0.42860 0.75982
 N722 N 0.13367 0.43568 0.75098
 N723 N 0.14701 0.44827 0.76287
 C724 C 0.14167 0.45422 0.78395
 N725 N 0.12267 0.44695 0.79276
 N726 N 0.10938 0.43436 0.78090
 N727 N 0.07077 0.62033 0.28159
 C728 C 0.07204 0.59828 0.27913
 N729 N 0.05566 0.58560 0.28697
 N730 N 0.03851 0.59464 0.29689
 C731 C 0.03714 0.61671 0.29944
 N732 N 0.05359 0.62939 0.29154
 C733 C 0.08943 0.58847 0.26670
 C734 C 0.10314 0.57951 0.25561
 C735 C 0.11832 0.56795 0.24177
 N736 N 0.11255 0.56223 0.22084
 N737 N 0.12571 0.54997 0.20841
 C738 C 0.14512 0.54301 0.21647
 N739 N 0.15098 0.54892 0.23740
 N740 N 0.13777 0.56117 0.24986
 N741 N 0.92527 0.37679 0.28590
 C742 C 0.92724 0.39556 0.27400
 N743 N 0.94693 0.40526 0.27244
 N744 N 0.96413 0.39654 0.28249
 C745 C 0.96243 0.37782 0.29469
 N746 N 0.94256 0.36809 0.29599
 C747 C 0.90914 0.40488 0.26230
 C748 C 0.89512 0.41377 0.25159
 C749 C 0.87997 0.42553 0.23793
 N750 N 0.86095 0.43315 0.24637
 N751 N 0.84807 0.44593 0.23409
 C752 C 0.85387 0.45156 0.21303
 N753 N 0.87282 0.44372 0.20462
 N754 N 0.88564 0.43095 0.21686
 N755 N 0.92405 0.62111 0.70956
 C756 C 0.92544 0.60121 0.71947
 N757 N 0.94447 0.59013 0.71868
 N758 N 0.96161 0.59866 0.70833
 C759 C 0.96048 0.61856 0.69817
 N760 N 0.94127 0.62962 0.69918
 C761 C 0.90753 0.59217 0.73170
 C762 C 0.89356 0.58353 0.74270
 C763 C 0.87830 0.57206 0.75648
 N764 N 0.88423 0.56574 0.77720
 N765 N 0.87114 0.55323 0.78944
 C766 C 0.85166 0.54657 0.78136
 N767 N 0.84562 0.55309 0.76066
 N768 N 0.85876 0.56560 0.74839
 N769 N 0.71615 0.61864 0.92540
 C770 C 0.73789 0.61529 0.92371
 N771 N 0.75105 0.62252 0.94016
 N772 N 0.74279 0.63275 0.95779
 C773 C 0.72105 0.63622 0.95956
 N774 N 0.70786 0.62892 0.94305
 C775 C 0.74689 0.60257 0.90588
 C776 C 0.75543 0.59122 0.89198
 C777 C 0.76673 0.57701 0.87688
 N778 N 0.78668 0.56938 0.88240
 N779 N 0.79698 0.55524 0.86927
 C780 C 0.78771 0.54821 0.85011
 N781 N 0.76773 0.55596 0.84449
 N782 N 0.75739 0.57012 0.85769
 N783 N 0.28288 0.37980 0.92205
 C784 C 0.27212 0.39914 0.92354
 N785 N 0.27283 0.41047 0.94281
 N786 N 0.28397 0.40279 0.96007
 C787 C 0.29505 0.38351 0.95883
 N788 N 0.29406 0.37213 0.93940
 C789 C 0.25949 0.40757 0.90541
 C790 C 0.24827 0.41596 0.89136
 C791 C 0.23439 0.42739 0.87610
 N792 N 0.21405 0.43316 0.88253
 N793 N 0.20181 0.44591 0.86964
 C794 C 0.20950 0.45338 0.84988
 N795 N 0.22981 0.44740 0.84334
 N796 N 0.24208 0.43465 0.85627
 N797 N 0.25626 0.60841 0.05425
 C798 C 0.26732 0.60583 0.07349
 N799 N 0.28824 0.61268 0.07458
 N800 N 0.29771 0.62193 0.05694
 C801 C 0.28667 0.62482 0.03756
 N802 N 0.26575 0.61761 0.03669
 C803 C 0.25709 0.59484 0.09183
 C804 C 0.24742 0.58491 0.10610
 C805 C 0.23476 0.57229 0.12156
 N806 N 0.24348 0.56468 0.14079
 N807 N 0.23198 0.55152 0.15407
 C808 C 0.21143 0.54552 0.14850
 N809 N 0.20276 0.55333 0.12933
 N810 N 0.21421 0.56648 0.11611
 N811 N 0.73129 0.40492 0.04947
 C812 C 0.73021 0.39502 0.06956
 N813 N 0.71812 0.37660 0.07183
 N814 N 0.70730 0.36850 0.05449
 C815 C 0.70795 0.37855 0.03428
 N816 N 0.72048 0.39681 0.03222
 C817 C 0.74196 0.40416 0.08791
 C818 C 0.75239 0.41304 0.10224
 C819 C 0.76541 0.42492 0.11788
 N820 N 0.75674 0.43251 0.13715
 N821 N 0.76833 0.44550 0.15042
 C822 C 0.78891 0.45140 0.14477
 N823 N 0.79755 0.44361 0.12556
 N824 N 0.78599 0.43062 0.11234
 N825 N 0.94503 0.73464 0.59361
 C826 C 0.92520 0.73213 0.60298
 N827 N 0.92315 0.71926 0.62125
 N828 N 0.94048 0.70910 0.62972
 C829 C 0.96047 0.71122 0.62019
 N830 N 0.96226 0.72449 0.60207
 C831 C 0.90692 0.74329 0.59347
 C832 C 0.89274 0.75340 0.58420
 C833 C 0.87738 0.76620 0.57182
 N834 N 0.85837 0.75741 0.56474
 N835 N 0.84528 0.76879 0.55135
 C836 C 0.85086 0.78926 0.54452
 N837 N 0.86982 0.79802 0.55179
 N838 N 0.88285 0.78668 0.56519
 N839 N 0.92428 0.28395 0.37883
 C840 C 0.92597 0.27190 0.39770
 N841 N 0.94558 0.26997 0.40762
 N842 N 0.96296 0.27979 0.39903
 C843 C 0.96154 0.29213 0.38022
 N844 N 0.94174 0.29381 0.37026
 C845 C 0.90768 0.26042 0.40685
 C846 C 0.89349 0.24984 0.41560
 C847 C 0.87815 0.23628 0.42718
 N848 N 0.88333 0.21516 0.43167
 N849 N 0.87040 0.20292 0.44435
 C850 C 0.85181 0.21136 0.45302
 N851 N 0.84650 0.23248 0.44833
 N852 N 0.85949 0.24477 0.43565
 N853 N 0.06696 0.28250 0.60936
 C854 C 0.07009 0.26063 0.61174
 N855 N 0.05595 0.24891 0.62429
 N856 N 0.03919 0.25873 0.63416
 C857 C 0.03603 0.28065 0.63194
 N858 N 0.05018 0.29234 0.61925
 C859 C 0.08689 0.24963 0.59949
 C860 C 0.10023 0.23992 0.58858
 C861 C 0.11514 0.22786 0.57489
 N862 N 0.10946 0.20786 0.56707
 N863 N 0.12258 0.19703 0.55330
 C864 C 0.14184 0.20584 0.54684
 N865 N 0.14757 0.22584 0.55479
 N866 N 0.13442 0.23669 0.56858
 N867 N 0.07126 0.71913 0.37483
 C868 C 0.06935 0.73127 0.39358
 N869 N 0.04980 0.73259 0.40380
 N870 N 0.03272 0.72195 0.39568
 C871 C 0.03442 0.70934 0.37711
 N872 N 0.05409 0.70848 0.36673
 C873 C 0.08755 0.74286 0.40269
 C874 C 0.10182 0.75318 0.41150
 C875 C 0.11745 0.76615 0.42329
 N876 N 0.11260 0.78717 0.42854
 N877 N 0.12578 0.79875 0.44152
 C878 C 0.14426 0.78971 0.44974
 N879 N 0.14924 0.76870 0.44427
 N880 N 0.13601 0.75709 0.43129
 N881 N 0.62184 0.92671 0.72200
 C882 C 0.61199 0.92820 0.74211
 N883 N 0.61366 0.94705 0.75377
 N884 N 0.62488 0.96387 0.74564
 C885 C 0.63508 0.96259 0.72557
 N886 N 0.63310 0.94361 0.71389
 C887 C 0.59914 0.91056 0.75084
 C888 C 0.58775 0.89671 0.75914
 C889 C 0.57356 0.88144 0.77006
 N890 N 0.56443 0.88687 0.78981
 N891 N 0.55057 0.87331 0.79980
 C892 C 0.54534 0.85383 0.79039
 N893 N 0.55457 0.84835 0.77061
 N894 N 0.56846 0.86195 0.76059
 N895 N 0.37876 0.92555 0.28235
 C896 C 0.39783 0.92684 0.27110
 N897 N 0.40902 0.94589 0.27129
 N898 N 0.40148 0.96310 0.28244
 C899 C 0.38250 0.96203 0.29406
 N900 N 0.37123 0.94285 0.29352
 C901 C 0.40616 0.90864 0.25863
 C902 C 0.41442 0.89442 0.24755
 C903 C 0.42566 0.87890 0.23379
 N904 N 0.43319 0.85977 0.24235
 N905 N 0.44586 0.84669 0.23017
 C906 C 0.45149 0.85238 0.20909
 N907 N 0.44372 0.87142 0.20053
 N908 N 0.43104 0.88445 0.21267
 N909 N 0.58423 0.05670 0.27791
 C910 C 0.59546 0.07573 0.27749
 N911 N 0.61505 0.07672 0.28772
 N912 N 0.62308 0.05915 0.29807
 C913 C 0.61185 0.03995 0.29873
 N914 N 0.59228 0.03920 0.28823
 C915 C 0.58693 0.09406 0.26534
 C916 C 0.57876 0.10841 0.25438
 C917 C 0.56788 0.12415 0.24058
 N918 N 0.56036 0.14329 0.24912
 N919 N 0.54829 0.15672 0.23671
 C920 C 0.54328 0.15139 0.21539
 N921 N 0.55102 0.13233 0.20687
 N922 N 0.56309 0.11895 0.21925
 N923 N 0.37913 0.06803 0.71862
 C924 C 0.40008 0.06697 0.72541
 N925 N 0.41171 0.04859 0.72128
 N926 N 0.40271 0.03183 0.71058
 C927 C 0.38175 0.03274 0.70337
 N928 N 0.37016 0.05122 0.70790
 C929 C 0.40976 0.08459 0.73768
 C930 C 0.41863 0.09864 0.74841
 C931 C 0.43006 0.11438 0.76169
 N932 N 0.43705 0.13355 0.75278
 N933 N 0.44911 0.14729 0.76477
 C934 C 0.45462 0.14226 0.78604
 N935 N 0.44746 0.12312 0.79492
 N936 N 0.43539 0.10942 0.78296
 N937 N 0.61739 0.71630 0.07500
 C938 C 0.61662 0.73829 0.07812
 N939 N 0.62752 0.75155 0.06388
 N940 N 0.63871 0.74314 0.04696
 C941 C 0.63951 0.72114 0.04372
 N942 N 0.62863 0.70786 0.05807
 C943 C 0.60244 0.74774 0.09448
 C944 C 0.58989 0.75657 0.10703
 C945 C 0.57436 0.76805 0.12052
 N946 N 0.56656 0.78766 0.11356
 N947 N 0.55139 0.79810 0.12528
 C948 C 0.54347 0.78930 0.14437
 N949 N 0.55136 0.76968 0.15139
 N950 N 0.56655 0.75920 0.13963
 N951 N 0.37728 0.27947 0.07146
 C952 C 0.39918 0.27912 0.07409
 N953 N 0.41190 0.28931 0.05887
 N954 N 0.40306 0.29954 0.04154
 C955 C 0.38116 0.30004 0.03887
 N956 N 0.36842 0.28973 0.05411
 C957 C 0.40904 0.26665 0.09161
 C958 C 0.41826 0.25574 0.10540
 C959 C 0.43031 0.24231 0.12061
 N960 N 0.43703 0.25032 0.14047
 N961 N 0.44987 0.23837 0.15360
 C962 C 0.45646 0.21806 0.14724
 N963 N 0.44954 0.21006 0.12743
 N964 N 0.43671 0.22198 0.11435
 N965 N 0.58505 0.28843 0.93776
 C966 C 0.59717 0.27663 0.92325
 N967 N 0.61904 0.27583 0.92592
 N968 N 0.62849 0.28653 0.94263
 C969 C 0.61636 0.29844 0.95716
 N970 N 0.59447 0.29909 0.95445
 C971 C 0.58660 0.26370 0.90655
 C972 C 0.57687 0.25245 0.89347
 C973 C 0.56436 0.23864 0.87906
 N974 N 0.55770 0.21872 0.88633
 N975 N 0.54479 0.20637 0.87380
 C976 C 0.53805 0.21352 0.85357
 N977 N 0.54485 0.23343 0.84624
 N978 N 0.55777 0.24581 0.85880
 N979 N 0.41454 0.70263 0.93491
 C980 C 0.40236 0.71264 0.91914
 N981 N 0.38040 0.71254 0.92118
 N982 N 0.37095 0.70280 0.93853
 C983 C 0.38313 0.69278 0.95441
 N984 N 0.40511 0.69291 0.95226
 C985 C 0.41275 0.72540 0.90210
 C986 C 0.42206 0.73696 0.88889
 C987 C 0.43384 0.75160 0.87459
 N988 N 0.44297 0.74443 0.85537
 N989 N 0.45535 0.75779 0.84317
 C990 C 0.45902 0.77872 0.84984
 N991 N 0.44971 0.78585 0.86899
 N992 N 0.43734 0.77252 0.88114
 N993 N 0.73643 0.94008 0.38185
 C994 C 0.72478 0.92380 0.39147
 N995 N 0.70277 0.92518 0.39170
 N996 N 0.69275 0.94237 0.38261
 C997 C 0.70442 0.95873 0.37296
 N998 N 0.72644 0.95726 0.37280
 C999 C 0.73585 0.90666 0.40325
 C1000 C 0.74600 0.89337 0.41385
 C1001 C 0.75900 0.87895 0.42721
 N1002 N 0.75079 0.85993 0.43535
 N1003 N 0.76261 0.84748 0.44901
 C1004 C 0.78298 0.85369 0.45499
 N1005 N 0.79115 0.87266 0.44668
 N1006 N 0.77936 0.88507 0.43304
 N1007 N 0.28618 0.92470 0.60878
 C1008 C 0.26427 0.92249 0.60959
 N1009 N 0.25239 0.93725 0.62125
 N1010 N 0.26209 0.95374 0.63176
 C1011 C 0.28404 0.95600 0.63107
 N1012 N 0.29590 0.94120 0.61931
 C1013 C 0.25351 0.90616 0.59646
 C1014 C 0.24390 0.89341 0.58479
 C1015 C 0.23174 0.87946 0.57021
 N1016 N 0.21211 0.88615 0.56262
 N1017 N 0.20113 0.87401 0.54812
 C1018 C 0.20940 0.85473 0.54069
 N1019 N 0.22904 0.84796 0.54840
 N1020 N 0.24005 0.86015 0.56292
 N1021 N 0.27859 0.07293 0.37753
 C1022 C 0.27796 0.07562 0.39991
 N1023 N 0.28835 0.06097 0.41309
 N1024 N 0.29899 0.04411 0.40422
 C1025 C 0.29973 0.04135 0.38184
 N1026 N 0.28928 0.05605 0.36864
 C1027 C 0.26479 0.09239 0.40982
 C1028 C 0.25321 0.10545 0.41910
 C1029 C 0.23893 0.11969 0.43124
 N1030 N 0.21856 0.11291 0.43632
 N1031 N 0.20579 0.12500 0.44934
 C1032 C 0.21297 0.14429 0.45776
 N1033 N 0.23334 0.15118 0.45249
 N1034 N 0.24613 0.13904 0.43947
 N1035 N 0.71410 0.07129 0.61478
 C1036 C 0.73597 0.07325 0.61267
 N1037 N 0.74901 0.05815 0.62240
 N1038 N 0.74050 0.04157 0.63386
 C1039 C 0.71863 0.03953 0.63610
 N1040 N 0.70556 0.05468 0.62629
 C1041 C 0.74538 0.08984 0.59873
 C1042 C 0.75425 0.10275 0.58655
 C1043 C 0.76584 0.11686 0.57155
 N1044 N 0.78521 0.11026 0.56314
 N1045 N 0.79589 0.12276 0.54865
 C1046 C 0.78758 0.14232 0.54204
 N1047 N 0.76818 0.14896 0.55054
 N1048 N 0.75747 0.13642 0.56506
 N1049 N 0.93795 0.58729 0.28583
 C1050 C 0.92385 0.59970 0.27396
 N1051 N 0.92689 0.62169 0.27293
 N1052 N 0.94353 0.63096 0.28351
 C1053 C 0.95763 0.61855 0.29552
 N1054 N 0.95457 0.59654 0.29638
 C1055 C 0.90709 0.58928 0.26125
 C1056 C 0.89391 0.57957 0.25022
 C1057 C 0.87938 0.56696 0.23670
 N1058 N 0.86009 0.55981 0.24489
 N1059 N 0.84757 0.54652 0.23288
 C1060 C 0.85399 0.53989 0.21233
 N1061 N 0.87324 0.54722 0.20416
 N1062 N 0.88572 0.56051 0.21614
 N1063 N 0.92353 0.37725 0.72157
 C1064 C 0.92028 0.39907 0.71888
 N1065 N 0.93463 0.41077 0.70655
 N1066 N 0.95168 0.40098 0.69716
 C1067 C 0.95494 0.37911 0.69970
 N1068 N 0.94059 0.36745 0.71217
 C1069 C 0.90326 0.41010 0.73078
 C1070 C 0.88989 0.41997 0.74151
 C1071 C 0.87525 0.43245 0.75513
 N1072 N 0.85637 0.44051 0.74680
 N1073 N 0.84377 0.45349 0.75917
 C1074 C 0.84968 0.45885 0.78023
 N1075 N 0.86850 0.45060 0.78851
 N1076 N 0.88105 0.43763 0.77618
 N1077 N 0.06894 0.62425 0.72477
 C1078 C 0.07304 0.60252 0.72261
 N1079 N 0.05998 0.59024 0.70948
 N1080 N 0.04331 0.59937 0.69885
 C1081 C 0.03917 0.62112 0.70087
 N1082 N 0.05225 0.63340 0.71410
 C1083 C 0.08973 0.59209 0.73546
 C1084 C 0.10289 0.58236 0.74654
 C1085 C 0.11749 0.56969 0.75996
 N1086 N 0.11133 0.56321 0.78059
 N1087 N 0.12388 0.54982 0.79245
 C1088 C 0.14303 0.54241 0.78407
 N1089 N 0.14927 0.54907 0.76346
 N1090 N 0.13668 0.56246 0.75158
 N1091 N 0.05876 0.38409 0.25792
 C1092 C 0.07602 0.39070 0.27014
 N1093 N 0.07562 0.38783 0.29251
 N1094 N 0.05843 0.37865 0.30233
 C1095 C 0.04110 0.37200 0.29009
 N1096 N 0.04160 0.37495 0.26771
 C1097 C 0.09339 0.40244 0.25957
 C1098 C 0.10690 0.41307 0.24982
 C1099 C 0.12153 0.42657 0.23725
 N1100 N 0.14017 0.43434 0.24634
 N1101 N 0.15274 0.44821 0.23497
 C1102 C 0.14702 0.45479 0.21419
 N1103 N 0.12844 0.44685 0.20515
 N1104 N 0.11593 0.43300 0.21647
   
