data_POSCAR
  _audit_creation_date              2014-09-24
  _audit_creation_method            'ToBaCCo'
  _symmetry_space_group_name_H-M    'P1'
  _symmetry_Int_Tables_number       1
  _symmetry_cell_setting            triclinic
  loop_
  _symmetry_equiv_pos_as_xyz
 x,y,z
_cell_length_a 48.7921
_cell_length_b 47.2195
_cell_length_c 41.0043
_cell_angle_alpha 90.222600
_cell_angle_beta 89.904300
_cell_angle_gamma 120.585700
loop_
  _atom_site_label
  _atom_site_type_symbol
  _atom_site_fract_x
  _atom_site_fract_y
  _atom_site_fract_z
O1 O 0.01227 0.54937 -0.05282
 O2 O 0.06488 0.52502 -0.01328
 O3 O 0.02221 0.50069 -0.05949
 O4 O 0.05570 0.57439 -0.00715
 O5 O 0.01907 0.54627 0.03007
 O6 O -0.01513 0.47292 -0.02283
 O7 O 0.02748 0.49671 0.02319
 O8 O -0.02463 0.52205 -0.01561
 Cu9 Cu 0.04247 0.54022 -0.03688
 Cu10 Cu -0.00208 0.50675 0.00739
 C11 C -0.01527 0.53957 -0.04115
 C12 C 0.05514 0.50677 0.01177
 C13 C -0.00229 0.47430 -0.05025
 C14 C 0.04348 0.57268 0.02065
 O15 O 0.46496 0.45161 0.04741
 O16 O 0.52926 0.48332 -0.01335
 O17 O 0.51117 0.50971 0.03109
 O18 O 0.48215 0.42529 0.00120
 O19 O 0.45109 0.43091 -0.03401
 O20 O 0.47976 0.51490 -0.00407
 O21 O 0.49842 0.48911 -0.04876
 O22 O 0.43374 0.45696 0.01215
 Cu23 Cu 0.49991 0.46683 0.02017
 Cu24 Cu 0.46258 0.47340 -0.02224
 C25 C 0.43858 0.44926 0.04035
 C26 C 0.52488 0.49171 -0.04135
 C27 C 0.50030 0.52662 0.01858
 C28 C 0.46190 0.41385 -0.02182
 O29 O 0.51182 1.06207 0.00857
 O30 O 0.54625 1.02039 0.05358
 O31 O 0.56078 1.05522 -0.00019
 O32 O 0.49602 1.02586 0.06054
 O33 O 0.46741 0.98109 0.03091
 O34 O 0.53168 1.01034 -0.02948
 O35 O 0.51740 0.97530 0.02448
 O36 O 0.48290 1.01719 -0.02086
 Cu37 Cu 0.53175 1.04531 0.03362
 Cu38 Cu 0.49713 0.99138 -0.00164
 C39 C 0.49161 1.04685 -0.01383
 C40 C 0.53735 0.99065 0.04716
 C41 C 0.55678 1.03811 -0.02570
 C42 C 0.47053 0.99854 0.05581
 O43 O 1.05215 0.56351 0.50384
 O44 O 0.99526 0.48133 0.53610
 O45 O 1.03735 0.50366 0.48923
 O46 O 1.01059 0.54096 0.55106
 O47 O 0.97342 0.53668 0.51730
 O48 O 1.00098 0.50030 0.45496
 O49 O 0.95866 0.47736 0.50171
 O50 O 1.01516 0.55990 0.47026
 Cu51 Cu 1.02757 0.52273 0.52340
 Cu52 Cu 0.98342 0.51820 0.48257
 C53 C 1.04328 0.57572 0.48158
 C54 C 0.96716 0.46552 0.52465
 C55 C 1.02395 0.49584 0.46145
 C56 C 0.98718 0.54474 0.54490
 O57 O 0.52535 0.52447 0.46192
 O58 O 0.49276 0.44361 0.50148
 O59 O 0.47647 0.46621 0.45146
 O60 O 0.54170 0.50187 0.51144
 O61 O 0.51318 0.51461 0.54363
 O62 O 0.44738 0.47756 0.48429
 O63 O 0.46488 0.45625 0.53473
 O64 O 0.49595 0.53605 0.49406
 Cu65 Cu 0.51190 0.48278 0.47827
 Cu66 Cu 0.47729 0.49717 0.51737
 C67 C 0.51602 0.54392 0.47115
 C68 C 0.47395 0.43662 0.52549
 C69 C 0.45094 0.46617 0.45751
 C70 C 0.53853 0.51422 0.53776
 O71 O 0.47614 -0.02201 0.46910
 O72 O 0.55107 0.02182 0.51629
 O73 O 0.53332 -0.01219 0.46184
 O74 O 0.49482 0.01495 0.52096
 O75 O 0.48044 -0.02927 0.55079
 O76 O 0.51758 -0.05755 0.49020
 O77 O 0.53632 -0.02341 0.54457
 O78 O 0.46130 -0.06632 0.49901
 Cu79 Cu 0.51544 0.00516 0.48915
 Cu80 Cu 0.49760 -0.04853 0.52413
 C81 C 0.45597 -0.05174 0.47619
 C82 C 0.55624 0.00653 0.53869
 C83 C 0.53139 -0.03981 0.46539
 C84 C 0.48111 -0.00235 0.54590
 C85 C 0.14392 0.46703 0.27020
 C86 C 0.14106 0.46348 0.23696
 C87 C 0.15927 0.44999 0.22738
 N88 N 0.17285 0.44486 0.25365
 C89 C 0.16351 0.45529 0.27988
 C90 C 0.16215 0.44152 0.19503
 C91 C 0.18514 0.43328 0.18555
 C92 C 0.18462 0.41782 0.15653
 C93 C 0.21255 0.41733 0.15515
 C94 C 0.22922 0.43221 0.18351
 N95 N 0.21230 0.44173 0.20198
 C96 C 0.26041 0.43912 0.19034
 C97 C 0.27376 0.44714 0.22198
 C98 C 0.30569 0.46014 0.22935
 C99 C 0.30828 0.46316 0.26269
 C100 C 0.27788 0.45202 0.27456
 N101 N 0.25681 0.44216 0.24966
 C102 C 0.26972 0.45031 0.30787
 C103 C 0.24013 0.44554 0.31858
 C104 C 0.22886 0.43773 0.35030
 C105 C 0.20119 0.43866 0.35162
 C106 C 0.19627 0.44699 0.32067
 N107 N 0.22004 0.45101 0.30064
 C108 C 0.17176 0.45330 0.31247
 H109 H 0.13304 0.47743 0.28535
 H110 H 0.12746 0.47046 0.22159
 H111 H 0.22457 0.46116 0.27743
 H112 H 0.16627 0.40831 0.13800
 H113 H 0.21991 0.40747 0.13535
 H114 H 0.32522 0.46718 0.21255
 H115 H 0.33015 0.47295 0.27649
 H116 H 0.18663 0.43425 0.37309
 H117 H 0.22069 0.45692 0.22240
 H118 H 0.23976 0.43251 0.37058
 C119 C 0.54103 0.83335 0.22616
 C120 C 0.54222 0.83282 0.25960
 C121 C 0.56070 0.81922 0.26743
 N122 N 0.57076 0.81137 0.23991
 C123 C 0.55867 0.81989 0.21465
 C124 C 0.56886 0.81492 0.29937
 C125 C 0.58275 0.79566 0.30602
 C126 C 0.59782 0.79655 0.33499
 C127 C 0.60457 0.77164 0.33335
 C128 C 0.59320 0.75607 0.30355
 N129 N 0.58028 0.77111 0.28687
 C130 C 0.59226 0.72690 0.29367
 C131 C 0.58844 0.71662 0.26081
 C132 C 0.58356 0.68648 0.25022
 C133 C 0.58193 0.68660 0.21687
 C134 C 0.58583 0.71681 0.20819
 N135 N 0.59003 0.73521 0.23508
 C136 C 0.58650 0.72727 0.17585
 C137 C 0.58578 0.75603 0.16804
 C138 C 0.59345 0.77122 0.13783
 C139 C 0.58718 0.79648 0.13942
 C140 C 0.57588 0.79608 0.17060
 N141 N 0.57521 0.77141 0.18791
 C142 C 0.56421 0.81646 0.18139
 H143 H 0.52817 0.84213 0.21201
 H144 H 0.53041 0.84111 0.27613
 H145 H 0.56441 0.76299 0.21048
 H146 H 0.60290 0.81306 0.35545
 H147 H 0.61589 0.76524 0.35227
 H148 H 0.58113 0.66633 0.26490
 H149 H 0.57796 0.66654 0.20093
 H150 H 0.59022 0.81301 0.11970
 H151 H 0.56651 0.76219 0.26587
 H152 H 0.60229 0.76455 0.11670
 C153 C 0.30786 0.87117 0.23519
 C154 C 0.30781 0.87399 0.26846
 C155 C 0.27618 0.85770 0.27808
 N156 N 0.25695 0.84568 0.25172
 C157 C 0.27625 0.85380 0.22544
 C158 C 0.26547 0.85592 0.31045
 C159 C 0.23331 0.83611 0.31984
 C160 C 0.22095 0.83814 0.34965
 C161 C 0.18994 0.81247 0.35065
 C162 C 0.18428 0.79534 0.32151
 N163 N 0.21081 0.80997 0.30287
 C164 C 0.15594 0.76563 0.31388
 C165 C 0.14770 0.75262 0.28191
 C166 C 0.12114 0.72261 0.27397
 C167 C 0.12125 0.71952 0.24075
 C168 C 0.14817 0.74748 0.22936
 N169 N 0.16397 0.76792 0.25456
 C170 C 0.15680 0.75452 0.19609
 C171 C 0.18486 0.78295 0.18544
 C172 C 0.19082 0.79420 0.15353
 C173 C 0.22156 0.82031 0.15263
 C174 C 0.23373 0.82419 0.18393
 N175 N 0.21119 0.80133 0.20376
 C176 C 0.26563 0.84682 0.19273
 H177 H 0.32888 0.88083 0.22004
 H178 H 0.32878 0.88670 0.28366
 H179 H 0.21492 0.79579 0.22720
 H180 H 0.23316 0.85584 0.36898
 H181 H 0.17360 0.80676 0.37079
 H182 H 0.10335 0.70471 0.29028
 H183 H 0.10319 0.69906 0.22679
 H184 H 0.23374 0.83443 0.13117
 H185 H 0.21470 0.80010 0.28192
 H186 H 0.17491 0.78437 0.13284
 C187 C 0.87522 0.60925 0.76975
 C188 C 0.87540 0.61121 0.73638
 C189 C 0.84412 0.59158 0.72632
 N190 N 0.82484 0.57779 0.75234
 C191 C 0.84382 0.58840 0.77891
 C192 C 0.83403 0.58426 0.69359
 C193 C 0.80176 0.56965 0.68425
 C194 C 0.78997 0.55648 0.65367
 C195 C 0.75805 0.54600 0.65401
 C196 C 0.75111 0.55282 0.68487
 N197 N 0.77798 0.56756 0.70305
 C198 C 0.72090 0.54701 0.69468
 C199 C 0.71220 0.54725 0.72755
 C200 C 0.68270 0.54150 0.73768
 C201 C 0.68259 0.54021 0.77106
 C202 C 0.71211 0.54533 0.78043
 N203 N 0.73000 0.54932 0.75371
 C204 C 0.72076 0.54272 0.81278
 C205 C 0.75076 0.54701 0.82134
 C206 C 0.75742 0.53719 0.85069
 C207 C 0.78913 0.54667 0.85009
 C208 C 0.80118 0.56238 0.82057
 N209 N 0.77769 0.56272 0.80331
 C210 C 0.83343 0.57705 0.81093
 H211 H 0.89588 0.62147 0.78546
 H212 H 0.89620 0.62519 0.72122
 H213 H 0.78062 0.57578 0.78199
 H214 H 0.80295 0.55464 0.63314
 H215 H 0.74188 0.53472 0.63369
 H216 H 0.66277 0.53738 0.72269
 H217 H 0.66242 0.53473 0.78635
 H218 H 0.80182 0.54254 0.86935
 H219 H 0.78063 0.57862 0.72570
 H220 H 0.74120 0.52448 0.87058
 C221 C 0.43596 0.11948 0.76022
 C222 C 0.44074 0.12327 0.72721
 C223 C 0.42729 0.14141 0.71675
 N224 N 0.41469 0.14904 0.74234
 C225 C 0.42009 0.13576 0.76894
 C226 C 0.42576 0.14962 0.68394
 C227 C 0.41774 0.17338 0.67490
 C228 C 0.41124 0.17851 0.64328
 C229 C 0.40738 0.20537 0.64420
 C230 C 0.41140 0.21586 0.67643
 N231 N 0.41780 0.19625 0.69494
 C232 C 0.41197 0.24461 0.68733
 C233 C 0.40949 0.25130 0.72061
 C234 C 0.41045 0.27945 0.73221
 C235 C 0.40612 0.27586 0.76526
 C236 C 0.40199 0.24536 0.77290
 N237 N 0.40376 0.23028 0.74552
 C238 C 0.39542 0.23153 0.80450
 C239 C 0.39267 0.20092 0.81173
 C240 C 0.37829 0.18256 0.83946
 C241 C 0.38210 0.15565 0.83832
 C242 C 0.39883 0.15839 0.80999
 N243 N 0.40506 0.18598 0.79385
 C244 C 0.40976 0.13694 0.80079
 H245 H 0.44365 0.10655 0.77604
 H246 H 0.45300 0.11394 0.71272
 H247 H 0.42023 0.19605 0.77399
 H248 H 0.40997 0.16470 0.62162
 H249 H 0.40268 0.21620 0.62332
 H250 H 0.41341 0.30033 0.71850
 H251 H 0.40574 0.29369 0.78163
 H252 H 0.37371 0.13641 0.85644
 H253 H 0.42583 0.20079 0.71887
 H254 H 0.36635 0.18802 0.85859
 C255 C 0.69618 0.14395 0.76198
 C256 C 0.69734 0.14683 0.72865
 C257 C 0.72865 0.16932 0.72059
 N258 N 0.74647 0.18062 0.74800
 C259 C 0.72662 0.16554 0.77341
 C260 C 0.74075 0.17801 0.68847
 C261 C 0.77229 0.20309 0.68162
 C262 C 0.78769 0.20656 0.65218
 C263 C 0.81698 0.23482 0.65448
 C264 C 0.81850 0.24814 0.68509
 N265 N 0.79123 0.22849 0.70158
 C266 C 0.84360 0.27887 0.69623
 C267 C 0.84752 0.28841 0.72933
 C268 C 0.86743 0.32014 0.74068
 C269 C 0.86511 0.31877 0.77402
 C270 C 0.84419 0.28615 0.78196
 N271 N 0.83346 0.26764 0.75458
 C272 C 0.83622 0.27362 0.81401
 C273 C 0.81122 0.24144 0.82093
 C274 C 0.80668 0.22597 0.85075
 C275 C 0.77856 0.19645 0.84857
 C276 C 0.76658 0.19462 0.81742
 N277 N 0.78673 0.22221 0.80075
 C278 C 0.73619 0.16973 0.80653
 H279 H 0.67519 0.12760 0.77592
 H280 H 0.67729 0.13356 0.71238
 H281 H 0.78197 0.22951 0.77866
 H282 H 0.77873 0.19039 0.63118
 H283 H 0.83491 0.24459 0.63554
 H284 H 0.88179 0.34209 0.72642
 H285 H 0.87732 0.33955 0.79041
 H286 H 0.76783 0.17886 0.86816
 H287 H 0.78432 0.23418 0.72347
 H288 H 0.82179 0.23525 0.87210
 C289 C 0.07664 0.49800 0.02805
 C290 C 0.06719 0.47796 0.05562
 C291 C 0.08890 0.47164 0.07541
 C292 C 0.07564 0.44515 0.09726
 C293 C 0.09506 0.43961 0.11809
 C294 C 0.12828 0.46086 0.11783
 C295 C 0.14162 0.48682 0.09537
 C296 C 0.12220 0.49234 0.07449
 C297 C 0.14964 0.45712 0.14079
 C298 C 0.13938 0.44065 0.17051
 H299 H 0.04258 0.46644 0.06339
 H300 H 0.05008 0.42877 0.09837
 H301 H 0.08387 0.41868 0.13425
 H302 H 0.16715 0.50349 0.09461
 H303 H 0.13340 0.51344 0.05856
 H304 H 0.17492 0.47021 0.13549
 H305 H 0.10042 0.50811 0.01832
 H306 H 0.11488 0.43050 0.17798
 C307 C 0.51080 0.55996 0.03066
 C308 C 0.53515 0.57570 0.05354
 C309 C 0.54359 0.60754 0.06894
 C310 C 0.57385 0.62669 0.08296
 C311 C 0.58177 0.65558 0.09998
 C312 C 0.55924 0.66556 0.10390
 C313 C 0.52937 0.64698 0.08892
 C314 C 0.52151 0.61821 0.07175
 C315 C 0.56509 0.69385 0.12471
 C316 C 0.58809 0.70675 0.14927
 H317 H 0.54868 0.56425 0.06051
 H318 H 0.59132 0.61908 0.08098
 H319 H 0.60543 0.66968 0.11017
 H320 H 0.51157 0.65408 0.09151
 H321 H 0.49771 0.60381 0.06193
 H322 H 0.54795 0.70199 0.12369
 H323 H 0.49882 0.57219 0.02125
 H324 H 0.60388 0.69725 0.15273
 C325 C 0.44443 0.98704 0.07961
 C326 C 0.41529 0.95814 0.07431
 C327 C 0.38810 0.94387 0.09741
 C328 C 0.36096 0.91375 0.08914
 C329 C 0.33508 0.89845 0.11042
 C330 C 0.33585 0.91292 0.14067
 C331 C 0.36247 0.94354 0.14854
 C332 C 0.38841 0.95887 0.12727
 C333 C 0.30976 0.89675 0.16475
 C334 C 0.28904 0.86276 0.16595
 H335 H 0.41233 0.94462 0.05190
 H336 H 0.35983 0.90181 0.06615
 H337 H 0.31459 0.87545 0.10288
 H338 H 0.36351 0.95534 0.17159
 H339 H 0.40849 0.98219 0.13466
 H340 H 0.30843 0.91179 0.18402
 H341 H 0.44864 1.00171 0.10132
 H342 H 0.28942 0.84699 0.14700
 C343 C 0.97551 0.55764 0.57070
 C344 C 0.94826 0.55986 0.56671
 C345 C 0.93245 0.56704 0.59373
 C346 C 0.90964 0.57570 0.58614
 C347 C 0.89223 0.58000 0.61080
 C348 C 0.89730 0.57562 0.64372
 C349 C 0.92036 0.56732 0.65130
 C350 C 0.93776 0.56305 0.62668
 C351 C 0.87757 0.57685 0.67057
 C352 C 0.85768 0.58995 0.66782
 H353 H 0.93739 0.55519 0.54277
 H354 H 0.90478 0.57850 0.56096
 H355 H 0.87417 0.58555 0.60367
 H356 H 0.92447 0.56340 0.67641
 H357 H 0.95437 0.55544 0.63370
 H358 H 0.87775 0.56560 0.69350
 H359 H 0.98807 0.56411 0.59372
 H360 H 0.85651 0.60112 0.64531
 C361 C 0.46368 0.40599 0.54356
 C362 C 0.45407 0.40313 0.57601
 C363 C 0.44994 0.37609 0.59728
 C364 C 0.43731 0.34376 0.58565
 C365 C 0.43374 0.31881 0.60672
 C366 C 0.44318 0.32603 0.63953
 C367 C 0.45601 0.35835 0.65093
 C368 C 0.45888 0.38304 0.63014
 C369 C 0.44053 0.30071 0.66234
 C370 C 0.41482 0.26855 0.66225
 H371 H 0.45353 0.42359 0.58742
 H372 H 0.42988 0.33768 0.56049
 H373 H 0.42417 0.29412 0.59722
 H374 H 0.46346 0.36441 0.67612
 H375 H 0.46865 0.40780 0.63959
 H376 H 0.45788 0.30834 0.68183
 H377 H 0.46757 0.38739 0.53269
 H378 H 0.39696 0.26044 0.64328
 C379 C 0.58507 0.02337 0.55896
 C380 C 0.60595 0.05730 0.55776
 C381 C 0.63195 0.07522 0.58176
 C382 C 0.64287 0.10856 0.58775
 C383 C 0.66594 0.12590 0.61161
 C384 C 0.67900 0.11032 0.62971
 C385 C 0.66860 0.07716 0.62320
 C386 C 0.64549 0.05981 0.59934
 C387 C 0.70207 0.12725 0.65656
 C388 C 0.71963 0.16138 0.66009
 H389 H 0.60114 0.07165 0.54062
 H390 H 0.63282 0.12102 0.57460
 H391 H 0.67260 0.15115 0.61635
 H392 H 0.67828 0.06458 0.63674
 H393 H 0.63844 0.03442 0.59481
 H394 H 0.70535 0.11233 0.67437
 H395 H 0.58815 0.00878 0.57725
 H396 H 0.72006 0.17687 0.64049
 C397 C 0.47887 0.06441 0.96802
 C398 C 0.45823 0.05018 0.94163
 C399 C 0.44824 0.06866 0.92044
 C400 C 0.43846 0.05747 0.88846
 C401 C 0.43052 0.07511 0.86702
 C402 C 0.43173 0.10420 0.87735
 C403 C 0.44076 0.11494 0.90959
 C404 C 0.44874 0.09730 0.93102
 C405 C 0.42567 0.12493 0.85490
 C406 C 0.40998 0.11388 0.82507
 H407 H 0.45119 0.02525 0.93455
 H408 H 0.43785 0.03547 0.87971
 H409 H 0.42452 0.06628 0.84223
 H410 H 0.44183 0.13720 0.91820
 H411 H 0.45520 0.10623 0.95576
 H412 H 0.43478 0.15039 0.86173
 H413 H 0.48769 0.08982 0.97456
 H414 H 0.40043 0.08861 0.81755
 C415 C 0.55063 0.50456 0.93432
 C416 C 0.57928 0.50555 0.94029
 C417 C 0.60563 0.51752 0.91640
 C418 C 0.62776 0.50705 0.91939
 C419 C 0.65293 0.51760 0.89733
 C420 C 0.65659 0.53911 0.87186
 C421 C 0.63508 0.55043 0.86947
 C422 C 0.60975 0.53969 0.89142
 C423 C 0.68261 0.55040 0.84770
 C424 C 0.69624 0.53175 0.83872
 H425 H 0.58198 0.49553 0.96299
 H426 H 0.62543 0.49043 0.93877
 H427 H 0.66965 0.50922 0.90062
 H428 H 0.63769 0.56739 0.85033
 H429 H 0.59384 0.54919 0.88897
 H430 H 0.68971 0.57303 0.83465
 H431 H 0.54637 0.51232 0.91104
 H432 H 0.68918 0.50868 0.85074
 C433 C 0.98474 0.44705 0.92902
 C434 C 0.95737 0.41728 0.93701
 C435 C 0.94058 0.38930 0.91397
 C436 C 0.90898 0.36512 0.92083
 C437 C 0.89141 0.33943 0.89888
 C438 C 0.90514 0.33740 0.86941
 C439 C 0.93722 0.36059 0.86332
 C440 C 0.95483 0.38627 0.88531
 C441 C 0.88683 0.31224 0.84414
 C442 C 0.85365 0.29522 0.84209
 H443 H 0.94624 0.41517 0.96049
 H444 H 0.89759 0.36647 0.94301
 H445 H 0.86717 0.32143 0.90524
 H446 H 0.94856 0.35928 0.84108
 H447 H 0.97944 0.40353 0.87954
 H448 H 0.89998 0.30894 0.82463
 H449 H 0.99588 0.45007 0.90547
 H450 H 0.83951 0.29711 0.86133
 C451 C 0.54389 0.94930 0.44107
 C452 C 0.53998 0.91785 0.44112
 C453 C 0.54841 0.90410 0.41290
 C454 C 0.53169 0.86992 0.40829
 C455 C 0.53797 0.85588 0.38139
 C456 C 0.56171 0.87578 0.35874
 C457 C 0.57862 0.90999 0.36347
 C458 C 0.57220 0.92406 0.39035
 C459 C 0.56891 0.86176 0.32978
 C460 C 0.56093 0.82893 0.32786
 H461 H 0.52725 0.90140 0.46114
 H462 H 0.51313 0.85402 0.42519
 H463 H 0.52364 0.82952 0.37822
 H464 H 0.59701 0.92588 0.34643
 H465 H 0.58614 0.95047 0.39348
 H466 H 0.58209 0.87806 0.30984
 H467 H 0.55496 0.96524 0.42033
 H468 H 0.55139 0.81339 0.34911
 C469 C 0.42584 0.45373 0.43247
 C470 C 0.39835 0.45557 0.43645
 C471 C 0.37475 0.44886 0.41030
 C472 C 0.35096 0.45655 0.41642
 C473 C 0.32915 0.45253 0.39222
 C474 C 0.33073 0.44083 0.36109
 C475 C 0.35369 0.43193 0.35526
 C476 C 0.37556 0.43594 0.37951
 C477 C 0.30859 0.43719 0.33452
 C478 C 0.29336 0.45543 0.33335
 H479 H 0.39492 0.46454 0.45957
 H480 H 0.34940 0.46608 0.44000
 H481 H 0.31100 0.45837 0.39824
 H482 H 0.35506 0.42232 0.33165
 H483 H 0.39293 0.42897 0.37372
 H484 H 0.30485 0.42033 0.31471
 H485 H 0.43054 0.44522 0.40983
 H486 H 0.29702 0.47266 0.35266
 C487 C 0.06632 0.60827 0.46843
 C488 C 0.05763 0.62374 0.44512
 C489 C 0.08063 0.65429 0.42793
 C490 C 0.06920 0.67225 0.41152
 C491 C 0.08960 0.69957 0.39261
 C492 C 0.12191 0.70920 0.38933
 C493 C 0.13356 0.69194 0.40666
 C494 C 0.11318 0.66468 0.42562
 C495 C 0.14385 0.73583 0.36707
 C496 C 0.13362 0.74663 0.34063
 H497 H 0.03269 0.61271 0.43878
 H498 H 0.04426 0.66486 0.41300
 H499 H 0.07982 0.71275 0.38049
 H500 H 0.15833 0.69883 0.40459
 H501 H 0.12290 0.65121 0.43728
 H502 H 0.16904 0.74437 0.36896
 H503 H 0.09059 0.61989 0.47712
 H504 H 0.10848 0.73664 0.33643
 C505 C 0.96283 0.54759 0.94222
 C506 C 0.96989 0.56236 0.91155
 C507 C 0.94648 0.56543 0.89123
 C508 C 0.92038 0.56638 0.90462
 C509 C 0.89815 0.56790 0.88424
 C510 C 0.90170 0.56855 0.85015
 C511 C 0.92802 0.56812 0.83697
 C512 C 0.95032 0.56691 0.85727
 C513 C 0.87802 0.56818 0.82740
 C514 C 0.85696 0.57901 0.83522
 H515 H 0.99254 0.56893 0.90046
 H516 H 0.91702 0.56600 0.93072
 H517 H 0.87791 0.56771 0.89529
 H518 H 0.93129 0.56858 0.81079
 H519 H 0.97028 0.56635 0.84634
 H520 H 0.87766 0.55958 0.80277
 H521 H 0.93970 0.53895 0.95309
 H522 H 0.85626 0.58726 0.85968
 C523 C 0.45230 0.38259 0.96582
 C524 C 0.43018 0.36851 0.94045
 C525 C 0.42344 0.33819 0.92277
 C526 C 0.39576 0.32181 0.90369
 C527 C 0.39009 0.29514 0.88395
 C528 C 0.41236 0.28462 0.88248
 C529 C 0.43941 0.30018 0.90254
 C530 C 0.44504 0.32677 0.92236
 C531 C 0.40920 0.25885 0.85942
 C532 C 0.39075 0.25011 0.83110
 H533 H 0.41760 0.38068 0.93244
 H534 H 0.37868 0.33001 0.90365
 H535 H 0.36842 0.28321 0.86973
 H536 H 0.45693 0.29255 0.90195
 H537 H 0.46696 0.33905 0.93615
 H538 H 0.42506 0.24930 0.86261
 H539 H 0.46306 0.36941 0.97598
 H540 H 0.37658 0.26118 0.82584
 C541 C 0.57920 0.05008 0.94927
 C542 C 0.60769 0.08019 0.95107
 C543 C 0.62762 0.09543 0.92196
 C544 C 0.66088 0.11288 0.92480
 C545 C 0.67998 0.12860 0.89765
 C546 C 0.66601 0.12785 0.86745
 C547 C 0.63276 0.11098 0.86479
 C548 C 0.61369 0.09451 0.89168
 C549 C 0.68565 0.14611 0.83912
 C550 C 0.71392 0.14703 0.83154
 H551 H 0.61557 0.09305 0.97419
 H552 H 0.67205 0.11431 0.94805
 H553 H 0.70561 0.14219 0.90052
 H554 H 0.62157 0.11053 0.84185
 H555 H 0.58805 0.08193 0.88906
 H556 H 0.67751 0.15897 0.82373
 H557 H 0.57351 0.03591 0.92688
 H558 H 0.72167 0.13368 0.84669
 C559 C 0.03466 0.48272 0.43745
 C560 C 0.06035 0.47789 0.44267
 C561 C 0.07491 0.46745 0.41704
 C562 C 0.10512 0.47173 0.42300
 C563 C 0.12061 0.46373 0.39922
 C564 C 0.10618 0.45123 0.36877
 C565 C 0.07542 0.44559 0.36326
 C566 C 0.05989 0.45364 0.38707
 C567 C 0.12244 0.44389 0.34238
 C568 C 0.15553 0.45966 0.33974
 H569 H 0.07184 0.48410 0.46635
 H570 H 0.11702 0.48173 0.44606
 H571 H 0.14374 0.46719 0.40498
 H572 H 0.06356 0.43544 0.34021
 H573 H 0.03623 0.44886 0.38174
 H574 H 0.10797 0.42700 0.32324
 H575 H 0.02315 0.47743 0.41390
 H576 H 0.17049 0.47657 0.35855
 C577 C 0.52778 0.57573 0.45492
 C578 C 0.54949 0.58601 0.42918
 C579 C 0.55841 0.61567 0.40939
 C580 C 0.57130 0.61796 0.37822
 C581 C 0.57791 0.64427 0.35773
 C582 C 0.57203 0.66909 0.36820
 C583 C 0.56010 0.66736 0.39972
 C584 C 0.55361 0.64113 0.42026
 C585 C 0.57557 0.69551 0.34623
 C586 C 0.59489 0.70565 0.31855
 H587 H 0.55841 0.57019 0.42151
 H588 H 0.57530 0.59874 0.36926
 H589 H 0.58637 0.64424 0.33335
 H590 H 0.55546 0.68624 0.40838
 H591 H 0.54474 0.64100 0.44445
 H592 H 0.56132 0.70663 0.35143
 H593 H 0.51744 0.59024 0.46244
 H594 H 0.60960 0.69519 0.31305
 C595 C 0.42624 0.92965 0.45765
 C596 C 0.41778 0.94331 0.43232
 C597 C 0.38950 0.92334 0.41154
 C598 C 0.37498 0.93857 0.39567
 C599 C 0.34885 0.92045 0.37507
 C600 C 0.33696 0.88669 0.36978
 C601 C 0.35176 0.87161 0.38535
 C602 C 0.37770 0.88964 0.40604
 C603 C 0.31076 0.86694 0.34666
 C604 C 0.28911 0.87580 0.33581
 H605 H 0.43206 0.96950 0.42781
 H606 H 0.38396 0.96461 0.39911
 H607 H 0.33870 0.93318 0.36272
 H608 H 0.34343 0.84579 0.38121
 H609 H 0.38895 0.87726 0.41687
 H610 H 0.30842 0.84428 0.33736
 H611 H 0.41072 0.90410 0.46411
 H612 H 0.28835 0.89634 0.34654
 C613 C 0.54994 0.97402 0.06718
 C614 C 0.53824 0.94024 0.06496
 C615 C 0.54704 0.92199 0.08801
 C616 C 0.52704 0.88776 0.09050
 C617 C 0.53362 0.86969 0.11283
 C618 C 0.56064 0.88551 0.13303
 C619 C 0.58088 0.91964 0.13028
 C620 C 0.57438 0.93771 0.10786
 C621 C 0.56777 0.86748 0.15791
 C622 C 0.55643 0.83378 0.15616
 H623 H 0.51988 0.92608 0.04710
 H624 H 0.50582 0.87501 0.07558
 H625 H 0.51701 0.84354 0.11473
 H626 H 0.60191 0.93239 0.14548
 H627 H 0.59098 0.96384 0.10619
 H628 H 0.58346 0.88142 0.17788
 H629 H 0.56697 0.98859 0.08588
 H630 H 0.54403 0.82013 0.13451
 C631 C 0.41395 0.43835 0.06578
 C632 C 0.38492 0.43677 0.06045
 C633 C 0.36144 0.43093 0.08651
 C634 C 0.33687 0.43724 0.07962
 C635 C 0.31527 0.43409 0.10379
 C636 C 0.31784 0.42464 0.13562
 C637 C 0.34149 0.41689 0.14216
 C638 C 0.36307 0.41997 0.11796
 C639 C 0.29668 0.42282 0.16256
 C640 C 0.27995 0.43958 0.16233
 H641 H 0.38012 0.44241 0.03628
 H642 H 0.33463 0.44514 0.05550
 H643 H 0.29666 0.43902 0.09723
 H644 H 0.34367 0.40900 0.16630
 H645 H 0.38087 0.41378 0.12427
 H646 H 0.29569 0.40940 0.18434
 H647 H 0.42008 0.43366 0.08964
 H648 H 0.28008 0.45289 0.14090
 C649 C 0.05867 0.60149 0.04239
 C650 C 0.05186 0.59876 0.07567
 C651 C 0.07099 0.62532 0.09929
 C652 C 0.08633 0.65878 0.09076
 C653 C 0.10513 0.68311 0.11359
 C654 C 0.10894 0.67432 0.14528
 C655 C 0.09339 0.64096 0.15376
 C656 C 0.07428 0.61673 0.13113
 C657 C 0.12976 0.69900 0.16968
 C658 C 0.13554 0.73110 0.17081
 H659 H 0.03428 0.57498 0.08531
 H660 H 0.08380 0.66624 0.06656
 H661 H 0.11722 0.70860 0.10611
 H662 H 0.09602 0.63363 0.17801
 H663 H 0.06263 0.59113 0.13829
 H664 H 0.13977 0.69110 0.18872
 H665 H 0.07794 0.62423 0.03265
 H666 H 0.12574 0.73977 0.15240
 C667 C 0.46601 0.00896 0.56964
 C668 C 0.46519 0.03777 0.56441
 C669 C 0.45234 0.05227 0.58768
 C670 C 0.45610 0.08305 0.58016
 C671 C 0.44555 0.09855 0.60160
 C672 C 0.43101 0.08358 0.63126
 C673 C 0.42625 0.05234 0.63836
 C674 C 0.43686 0.03682 0.61691
 C675 C 0.42079 0.09976 0.65540
 C676 C 0.43415 0.13382 0.65746
 H677 H 0.47552 0.05123 0.54207
 H678 H 0.46752 0.09536 0.55764
 H679 H 0.44868 0.12207 0.59462
 H680 H 0.41480 0.04013 0.66090
 H681 H 0.43288 0.01293 0.62360
 H682 H 0.40379 0.08452 0.67389
 H683 H 0.45608 -0.00548 0.59144
 H684 H 0.45094 0.14976 0.63928
 C685 C 0.56405 0.52766 0.56231
 C686 C 0.59129 0.52534 0.55872
 C687 C 0.61572 0.53489 0.58448
 C688 C 0.63550 0.52136 0.58355
 C689 C 0.65819 0.52878 0.60787
 C690 C 0.66163 0.55003 0.63370
 C691 C 0.64269 0.56454 0.63400
 C692 C 0.61989 0.55704 0.60970
 C693 C 0.68509 0.55809 0.66016
 C694 C 0.69638 0.53741 0.66906
 H695 H 0.59367 0.51366 0.53696
 H696 H 0.63315 0.50468 0.56409
 H697 H 0.67319 0.51811 0.60603
 H698 H 0.64532 0.58148 0.65331
 H699 H 0.60592 0.56891 0.61070
 H700 H 0.69287 0.58048 0.67408
 H701 H 0.56009 0.53755 0.58447
 H702 H 0.68848 0.51439 0.65641
 C703 C 0.94358 0.43358 0.53857
 C704 C 0.95077 0.41995 0.56499
 C705 C 0.92666 0.39069 0.58311
 C706 C 0.93696 0.37399 0.60328
 C707 C 0.91531 0.34773 0.62260
 C708 C 0.88282 0.33793 0.62254
 C709 C 0.87238 0.35406 0.60175
 C710 C 0.89402 0.38030 0.58237
 C711 C 0.85934 0.31154 0.64405
 C712 C 0.86778 0.30215 0.67282
 H713 H 0.97525 0.43159 0.57324
 H714 H 0.96193 0.38144 0.60425
 H715 H 0.92421 0.33527 0.63744
 H716 H 0.84748 0.34695 0.60118
 H717 H 0.88513 0.39293 0.56781
 H718 H 0.83427 0.30097 0.63857
 H719 H 0.91982 0.42136 0.52842
 H720 H 0.89236 0.31505 0.68066
   
