data_POSCAR
  _audit_creation_date              2014-09-24
  _audit_creation_method            'ToBaCCo'
  _symmetry_space_group_name_H-M    'P1'
  _symmetry_Int_Tables_number       1
  _symmetry_cell_setting            triclinic
  loop_
  _symmetry_equiv_pos_as_xyz
 x,y,z
_cell_length_a 33.4127
_cell_length_b 33.4095
_cell_length_c 33.0963
_cell_angle_alpha 90.101000
_cell_angle_beta 90.087500
_cell_angle_gamma 120.187200
loop_
  _atom_site_label
  _atom_site_type_symbol
  _atom_site_fract_x
  _atom_site_fract_y
  _atom_site_fract_z
C1 C 0.52277 0.07021 0.05509
 H2 H 0.55567 0.07127 0.05467
 C3 C 0.51734 0.10176 0.07873
 H4 H 0.54608 0.12716 0.09672
 C5 C 0.44543 0.03658 0.03133
 H6 H 0.41782 0.01171 0.01224
 C7 C 0.43854 0.06761 0.05456
 H8 H 0.40550 0.06631 0.05358
 N9 N 0.48702 0.03830 0.03221
 C10 C 0.51977 -0.07121 0.01279
 H11 H 0.51987 -0.07231 -0.01988
 C12 C 0.52636 -0.10288 0.03512
 H13 H 0.53175 -0.12839 0.01966
 C14 C 0.51082 -0.03783 0.07297
 H15 H 0.50363 -0.01322 0.08761
 C16 C 0.51725 -0.06887 0.09642
 H17 H 0.51542 -0.06777 0.12905
 Zn18 Zn 0.49932 -0.00073 -0.00051
 N19 N 0.51228 -0.03947 0.03192
 C20 C 0.59073 0.03709 -0.03228
 N21 N 0.55068 0.03844 -0.03317
 C22 C 0.54666 0.07006 -0.05600
 C23 C 0.58365 0.10169 -0.07958
 C24 C 0.62867 0.06821 -0.05545
 C25 C 0.40822 -0.07177 -0.01390
 C26 C 0.36981 -0.10378 -0.03624
 C27 C 0.41289 -0.06981 -0.09755
 C28 C 0.45046 -0.03846 -0.07402
 N29 N 0.44745 -0.03993 -0.03298
 H30 H 0.59361 0.01244 -0.01322
 H31 H 0.51468 0.07084 -0.05559
 H32 H 0.58018 0.12687 -0.09754
 H33 H 0.66056 0.06720 -0.05446
 H34 H 0.40710 -0.07269 0.01877
 H35 H 0.33897 -0.12930 -0.02063
 H36 H 0.41596 -0.06866 -0.13020
 H37 H 0.48228 -0.01373 -0.08862
 C38 C 0.52486 -0.10181 0.07731
 C39 C 0.47490 0.10051 0.07840
 C40 C 0.37225 -0.10294 -0.07849
 C41 C 0.62504 0.10082 -0.07924
 C42 C -0.07057 0.47688 0.61130
 H43 H -0.07163 0.44398 0.61171
 C44 C -0.10211 0.48230 0.58766
 H45 H -0.12750 0.45356 0.56966
 C46 C -0.03697 0.55422 0.63507
 H47 H -0.01211 0.58184 0.65417
 C48 C -0.06799 0.56111 0.61185
 H49 H -0.06669 0.59415 0.61283
 N50 N -0.03868 0.51264 0.63419
 C51 C 0.07083 0.47992 0.65363
 H52 H 0.07192 0.47981 0.68630
 C53 C 0.10252 0.47333 0.63130
 H54 H 0.12803 0.46795 0.64676
 C55 C 0.03748 0.48886 0.59345
 H56 H 0.01288 0.49604 0.57880
 C57 C 0.06854 0.48244 0.56999
 H58 H 0.06745 0.48427 0.53736
 Zn59 Zn 0.00034 0.50034 0.66691
 N60 N 0.03911 0.48740 0.63450
 C61 C -0.03746 0.40892 0.69867
 N62 N -0.03882 0.44897 0.69956
 C63 C -0.07045 0.45298 0.72240
 C64 C -0.10209 0.41598 0.74597
 C65 C -0.06858 0.37098 0.72183
 C66 C 0.07136 0.59147 0.68033
 C67 C 0.10333 0.62986 0.70271
 C68 C 0.06937 0.58680 0.76396
 C69 C 0.03803 0.54921 0.74045
 N70 N 0.03951 0.55222 0.69940
 H71 H -0.01281 0.40605 0.67961
 H72 H -0.07124 0.48496 0.72199
 H73 H -0.12727 0.41945 0.76393
 H74 H -0.06757 0.33909 0.72084
 H75 H 0.07232 0.59260 0.64766
 H76 H 0.12893 0.66078 0.68730
 H77 H 0.06840 0.58394 0.79659
 H78 H 0.01332 0.51739 0.75505
 C79 C 0.10147 0.47483 0.58911
 C80 C -0.10087 0.52475 0.58800
 C81 C 0.10243 0.62738 0.74490
 C82 C -0.10120 0.37460 0.74562
 C83 C 0.54717 0.47665 0.38881
 H84 H 0.51515 0.44374 0.38826
 C85 C 0.58419 0.48214 0.41248
 H86 H 0.58070 0.45344 0.43038
 C87 C 0.59129 0.55395 0.36531
 H88 H 0.59417 0.58152 0.34630
 C89 C 0.62926 0.56090 0.38858
 H90 H 0.66118 0.59395 0.38771
 N91 N 0.55120 0.51235 0.36603
 C92 C 0.40873 0.47944 0.34638
 H93 H 0.40752 0.47923 0.31371
 C94 C 0.37043 0.47290 0.36866
 H95 H 0.33949 0.46744 0.35316
 C96 C 0.45113 0.48860 0.40662
 H97 H 0.48297 0.49586 0.42131
 C98 C 0.41363 0.48223 0.43002
 H99 H 0.41658 0.48417 0.46266
 Zn100 Zn 0.49979 0.49993 0.33323
 N101 N 0.44801 0.48701 0.36556
 C102 C 0.44575 0.40842 0.30114
 N103 N 0.48736 0.44851 0.30042
 C104 C 0.52305 0.45253 0.27764
 C105 C 0.51754 0.41550 0.25397
 C106 C 0.43879 0.37045 0.27787
 C107 C 0.52032 0.59101 0.32009
 C108 C 0.52687 0.62931 0.29781
 C109 C 0.51752 0.58610 0.23644
 C110 C 0.51114 0.54859 0.25984
 N111 N 0.51273 0.55172 0.30090
 H112 H 0.41819 0.40556 0.32015
 H113 H 0.55597 0.48454 0.27819
 H114 H 0.54624 0.41897 0.23606
 H115 H 0.40573 0.33853 0.27873
 H116 H 0.52052 0.59223 0.35276
 H117 H 0.53232 0.66026 0.31331
 H118 H 0.51558 0.58314 0.20380
 H119 H 0.50387 0.51674 0.24515
 C120 C 0.37303 0.47454 0.41085
 C121 C 0.62562 0.52460 0.41230
 C122 C 0.52522 0.62671 0.25562
 C123 C 0.47508 0.37408 0.25414
 C124 C 0.24612 0.43885 0.51686
 C125 C 0.24931 0.48199 0.53759
 C126 C 0.20066 0.46750 0.52162
 C127 C 0.19685 0.42434 0.50127
 C128 C 0.26653 0.46743 0.47826
 C129 C 0.21790 0.45293 0.46227
 C130 C 0.27027 0.51054 0.49864
 C131 C 0.22112 0.49606 0.48302
 C132 C 0.16457 0.46872 0.54575
 C133 C 0.13549 0.47089 0.56555
 C134 C 0.30381 0.46856 0.45415
 C135 C 0.33506 0.47067 0.43437
 H136 H 0.25682 0.41533 0.53049
 H137 H 0.26183 0.49395 0.56882
 H138 H 0.16623 0.38891 0.50264
 H139 H 0.20541 0.44099 0.43103
 H140 H 0.30085 0.54599 0.49731
 H141 H 0.21045 0.51960 0.46937
 C142 C 0.50569 0.75806 0.19930
 C143 C 0.54916 0.80495 0.18879
 C144 C 0.53222 0.79903 0.14482
 C145 C 0.48877 0.75270 0.15500
 C146 C 0.53232 0.73319 0.18820
 C147 C 0.51538 0.72730 0.14423
 C148 C 0.57582 0.77950 0.17806
 C149 C 0.55886 0.77419 0.13368
 C150 C 0.53099 0.83511 0.12068
 C151 C 0.52881 0.86418 0.10087
 C152 C 0.53120 0.69592 0.21232
 C153 C 0.52909 0.66468 0.23210
 H154 H 0.48382 0.75104 0.22654
 H155 H 0.56304 0.83730 0.20683
 H156 H 0.45296 0.74205 0.14526
 H157 H 0.50149 0.69497 0.12617
 H158 H 0.61160 0.79008 0.18782
 H159 H 0.58071 0.78124 0.10642
 C160 C 0.23585 0.78324 0.79699
 C161 C 0.22854 0.80350 0.83664
 C162 C 0.26869 0.80039 0.85604
 C163 C 0.27657 0.78072 0.81679
 C164 C 0.20238 0.73423 0.81257
 C165 C 0.24256 0.73120 0.83199
 C166 C 0.19445 0.75386 0.85182
 C167 C 0.23521 0.75137 0.87159
 C168 C 0.30620 0.83664 0.88022
 C169 C 0.33765 0.86589 0.90006
 C170 C 0.16603 0.69681 0.78837
 C171 C 0.13672 0.66546 0.76852
 H172 H 0.23570 0.79592 0.76604
 H173 H 0.22322 0.83366 0.83885
 H174 H 0.31074 0.79216 0.80264
 H175 H 0.24795 0.70108 0.82982
 H176 H 0.16026 0.74239 0.86594
 H177 H 0.23535 0.73867 0.90253
 C178 C 0.73485 0.53265 0.52522
 C179 C 0.74980 0.49577 0.52209
 C180 C 0.80069 0.53473 0.52147
 C181 C 0.78633 0.57166 0.52497
 C182 C 0.73415 0.53471 0.47887
 C183 C 0.78502 0.57372 0.47819
 C184 C 0.74858 0.49783 0.47544
 C185 C 0.80000 0.53679 0.47512
 C186 C 0.83688 0.53311 0.54520
 C187 C 0.86576 0.53015 0.56472
 C188 C 0.69631 0.53305 0.45514
 C189 C 0.66444 0.53005 0.43561
 H190 H 0.70764 0.53093 0.54556
 H191 H 0.73568 0.46370 0.54038
 H192 H 0.80230 0.60201 0.54562
 H193 H 0.79905 0.60576 0.45986
 H194 H 0.73266 0.46744 0.45482
 H195 H 0.82719 0.53848 0.45478
 C196 C 0.45530 0.25848 0.14192
 C197 C 0.49715 0.25093 0.13721
 C198 C 0.46492 0.19897 0.14493
 C199 C 0.42302 0.20590 0.14927
 C200 C 0.46494 0.26552 0.18754
 C201 C 0.43267 0.21358 0.19533
 C202 C 0.50678 0.25849 0.18314
 C203 C 0.47456 0.20603 0.19055
 C204 C 0.46653 0.16277 0.12120
 C205 C 0.46950 0.13389 0.10168
 C206 C 0.46660 0.30337 0.21129
 C207 C 0.46961 0.33524 0.23082
 H208 H 0.44739 0.28047 0.12219
 H209 H 0.52368 0.26591 0.11307
 H210 H 0.38859 0.18384 0.13506
 H211 H 0.40617 0.19867 0.21950
 H212 H 0.54124 0.28051 0.19731
 H213 H 0.48249 0.18407 0.21030
 C214 C -0.23421 0.21771 0.79532
 C215 C -0.22703 0.19596 0.83405
 C216 C -0.26644 0.19948 0.85443
 C217 C -0.27418 0.22062 0.81610
 C218 C -0.19985 0.26607 0.81195
 C219 C -0.23930 0.26947 0.83237
 C220 C -0.19203 0.24498 0.85028
 C221 C -0.23207 0.24785 0.87103
 C222 C -0.30430 0.16323 0.87808
 C223 C -0.33616 0.13429 0.89754
 C224 C -0.16360 0.30392 0.78830
 C225 C -0.13467 0.33579 0.76884
 H226 H -0.23467 0.20575 0.76392
 H227 H -0.22244 0.16530 0.83502
 H228 H -0.30835 0.21022 0.80229
 H229 H -0.24397 0.30009 0.83144
 H230 H -0.15783 0.25543 0.86405
 H231 H -0.23160 0.25985 0.90242
   
