data_POSCAR
  _audit_creation_date              2014-09-24
  _audit_creation_method            'ToBaCCo'
  _symmetry_space_group_name_H-M    'P1'
  _symmetry_Int_Tables_number       1
  _symmetry_cell_setting            triclinic
  loop_
  _symmetry_equiv_pos_as_xyz
 x,y,z
_cell_length_a 35.1579
_cell_length_b 35.1579
_cell_length_c 33.9666
_cell_angle_alpha 90.000000
_cell_angle_beta 90.000000
_cell_angle_gamma 90.000000
loop_
  _atom_site_label
  _atom_site_type_symbol
  _atom_site_fract_x
  _atom_site_fract_y
  _atom_site_fract_z
C1 C 0.30972 0.30832 0.22766
 H2 H 0.31281 0.31269 0.25896
 C3 C 0.33117 0.33186 0.20133
 H4 H 0.34918 0.35386 0.21353
 C5 C 0.28302 0.27512 0.17456
 H6 H 0.26468 0.25299 0.16327
 C7 C 0.30422 0.29751 0.14750
 H8 H 0.30143 0.29075 0.11660
 N9 N 0.28517 0.28072 0.21432
 C10 C 0.17879 0.27803 0.28792
 H11 H 0.16574 0.25424 0.27293
 C12 C 0.15514 0.30331 0.31015
 H13 H 0.12476 0.29836 0.31097
 C14 C 0.23306 0.31343 0.30447
 H15 H 0.26340 0.31788 0.30315
 C16 C 0.21044 0.33959 0.32625
 H17 H 0.22443 0.36332 0.34048
 Zn18 Zn 0.25144 0.24790 0.25089
 N19 N 0.21743 0.28325 0.28477
 C20 C 0.28619 0.22226 0.32648
 N21 N 0.28542 0.21464 0.28702
 C22 C 0.30768 0.18520 0.27361
 C23 C 0.33011 0.16220 0.29970
 C24 C 0.30855 0.20057 0.35320
 C25 C 0.19033 0.23239 0.19310
 C26 C 0.16424 0.21188 0.16920
 C27 C 0.19170 0.15363 0.19175
 C28 C 0.21722 0.17533 0.21579
 N29 N 0.21635 0.21441 0.21657
 H30 H 0.26944 0.24563 0.33777
 H31 H 0.30790 0.17884 0.24246
 H32 H 0.34625 0.13881 0.28750
 H33 H 0.30828 0.20932 0.38367
 H34 H 0.18931 0.26314 0.19309
 H35 H 0.14416 0.22786 0.15161
 H36 H 0.19301 0.12289 0.19279
 H37 H 0.23746 0.16045 0.23412
 C38 C 0.17049 0.33545 0.32950
 C39 C 0.32846 0.32754 0.15998
 C40 C 0.16389 0.17158 0.16804
 C41 C 0.33085 0.16896 0.34086
 C42 C 0.80930 0.80180 0.23183
 H43 H 0.80978 0.80041 0.26365
 C44 C 0.83585 0.82562 0.21221
 H45 H 0.85439 0.84212 0.23089
 C46 C 0.78260 0.78359 0.17153
 H47 H 0.76195 0.76723 0.15507
 C48 C 0.80864 0.80768 0.15055
 H49 H 0.80698 0.80821 0.11877
 N50 N 0.78315 0.78055 0.21187
 C51 C 0.68491 0.76390 0.30178
 H52 H 0.68216 0.73330 0.30122
 C53 C 0.65894 0.78535 0.32498
 H54 H 0.63818 0.76982 0.34210
 C55 C 0.71467 0.81986 0.28032
 H56 H 0.73606 0.83401 0.26274
 C57 C 0.68895 0.84253 0.30327
 H58 H 0.69148 0.87318 0.30219
 Zn59 Zn 0.74727 0.74656 0.24491
 N60 N 0.71252 0.78081 0.27942
 C61 C 0.76345 0.69141 0.31086
 N62 N 0.78003 0.71154 0.28088
 C63 C 0.81873 0.70799 0.27624
 C64 C 0.84146 0.68488 0.30186
 C65 C 0.78515 0.66869 0.33738
 C66 C 0.67531 0.72493 0.20459
 C67 C 0.64884 0.70329 0.18221
 C68 C 0.69782 0.65837 0.16774
 C69 C 0.72371 0.68111 0.19045
 N70 N 0.71236 0.71388 0.20917
 H71 H 0.73306 0.69315 0.31498
 H72 H 0.83257 0.72331 0.25264
 H73 H 0.87190 0.68369 0.29726
 H74 H 0.77033 0.65401 0.36082
 H75 H 0.66576 0.75090 0.21848
 H76 H 0.62017 0.71416 0.17967
 H77 H 0.70805 0.63231 0.15452
 H78 H 0.75287 0.67178 0.19358
 C79 C 0.65966 0.82571 0.32606
 C80 C 0.83713 0.82913 0.17036
 C81 C 0.65902 0.66863 0.16351
 C82 C 0.82516 0.66490 0.33387
 C83 C 0.81400 0.30684 0.72897
 H84 H 0.81718 0.30466 0.76057
 C85 C 0.83993 0.32986 0.70734
 H86 H 0.86214 0.34456 0.72332
 C87 C 0.78210 0.29021 0.67075
 H88 H 0.75990 0.27460 0.65578
 C89 C 0.80725 0.31355 0.64799
 H90 H 0.80373 0.31470 0.61636
 N91 N 0.78559 0.28678 0.71090
 C92 C 0.68960 0.26893 0.80312
 H93 H 0.68709 0.23827 0.80223
 C94 C 0.66579 0.28991 0.82911
 H95 H 0.64558 0.27426 0.84684
 C96 C 0.71824 0.32531 0.78102
 H97 H 0.73879 0.33969 0.76258
 C98 C 0.69467 0.34749 0.80669
 H99 H 0.69824 0.37806 0.80730
 Zn100 Zn 0.75083 0.25278 0.74500
 N101 N 0.71602 0.28630 0.77966
 C102 C 0.77987 0.22148 0.82119
 N103 N 0.78425 0.21911 0.78124
 C104 C 0.81062 0.19366 0.76708
 C105 C 0.83212 0.16935 0.79265
 C106 C 0.80057 0.19779 0.84753
 C107 C 0.69269 0.23073 0.68206
 C108 C 0.67074 0.20525 0.65815
 C109 C 0.69889 0.15316 0.69266
 C110 C 0.72016 0.17933 0.71569
 N111 N 0.71764 0.21778 0.71021
 H112 H 0.75984 0.24169 0.83321
 H113 H 0.81476 0.19144 0.73561
 H114 H 0.85174 0.14910 0.77987
 H115 H 0.79555 0.20120 0.87875
 H116 H 0.68983 0.26105 0.67753
 H117 H 0.65223 0.21691 0.63574
 H118 H 0.70223 0.12317 0.69888
 H119 H 0.73889 0.16838 0.73823
 C120 C 0.66797 0.33011 0.83222
 C121 C 0.83748 0.33373 0.66586
 C122 C 0.67379 0.16529 0.66246
 C123 C 0.82708 0.17030 0.83401
 C124 C 0.31015 0.80730 0.73637
 H125 H 0.31358 0.80274 0.76765
 C126 C 0.33687 0.83048 0.71631
 H127 H 0.35835 0.84371 0.73439
 C128 C 0.27684 0.79659 0.67766
 H129 H 0.25364 0.78329 0.66195
 C130 C 0.30305 0.82017 0.65629
 H131 H 0.29883 0.82349 0.62494
 N132 N 0.28054 0.79017 0.71740
 C133 C 0.17363 0.78577 0.78953
 H134 H 0.15978 0.76385 0.77238
 C135 C 0.15077 0.81052 0.81332
 H136 H 0.12019 0.80698 0.81328
 C137 C 0.22918 0.81737 0.80946
 H138 H 0.25972 0.82068 0.80852
 C139 C 0.20742 0.84290 0.83295
 H140 H 0.22230 0.86483 0.84916
 Zn141 Zn 0.24603 0.75577 0.75125
 N142 N 0.21251 0.78939 0.78737
 C143 C 0.28011 0.71718 0.82429
 N144 N 0.28160 0.72134 0.78408
 C145 C 0.30877 0.70129 0.76411
 C146 C 0.33424 0.67614 0.78353
 C147 C 0.30524 0.69198 0.84499
 C148 C 0.18633 0.73496 0.68941
 C149 C 0.16415 0.70990 0.66526
 C150 C 0.19432 0.65720 0.69685
 C151 C 0.21568 0.68295 0.72028
 N152 N 0.21224 0.72152 0.71634
 H153 H 0.25903 0.73297 0.84074
 H154 H 0.31079 0.70457 0.73251
 H155 H 0.35515 0.66152 0.76575
 H156 H 0.30223 0.68903 0.87655
 H157 H 0.18287 0.76536 0.68604
 H158 H 0.14484 0.72193 0.64379
 H159 H 0.19857 0.62706 0.70153
 H160 H 0.23535 0.67161 0.74173
 C161 C 0.16724 0.84048 0.83534
 C162 C 0.33492 0.83735 0.67496
 C163 C 0.16813 0.66990 0.66796
 C164 C 0.33291 0.67005 0.82483
 C165 C -0.00535 0.00301 0.00267
 C166 C 0.00281 0.50201 0.49623
 C167 C 0.50207 -0.00328 0.50017
 C168 C 0.49569 0.49824 -0.00612
 C169 C 0.09212 -0.10574 -0.09763
 C170 C 0.10455 -0.06900 -0.10244
 C171 C 0.13571 -0.06028 -0.12627
 C172 C 0.15509 -0.09011 -0.14581
 C173 C 0.14376 -0.12890 -0.14239
 C174 C 0.11105 -0.13648 -0.11776
 O175 O 0.06216 -0.10747 -0.07282
 C176 C 0.05564 -0.07109 -0.06199
 C177 C 0.08080 -0.04661 -0.07962
 C178 C 0.07929 -0.00749 -0.07303
 C179 C 0.05124 0.00729 -0.04735
 C180 C 0.02440 -0.01627 -0.02721
 C181 C 0.02711 -0.05671 -0.03544
 H182 H 0.14509 -0.03115 -0.12966
 H183 H 0.17905 -0.08267 -0.16427
 H184 H 0.10113 -0.16536 -0.11382
 H185 H 0.09930 0.01140 -0.08732
 H186 H 0.05092 0.03773 -0.04272
 H187 H 0.00774 -0.07655 -0.02170
 C188 C 0.09471 0.39032 0.39439
 C189 C 0.10433 0.42714 0.38527
 C190 C 0.13386 0.43555 0.35922
 C191 C 0.15445 0.40531 0.34183
 C192 C 0.14590 0.36644 0.34965
 C193 C 0.11484 0.35912 0.37650
 O194 O 0.06629 0.38902 0.42109
 C195 C 0.05786 0.42575 0.42872
 C196 C 0.08033 0.45000 0.40725
 C197 C 0.07709 0.48938 0.41068
 C198 C 0.05047 0.50468 0.43757
 C199 C 0.02654 0.48144 0.46171
 C200 C 0.03051 0.44067 0.45622
 H201 H 0.14116 0.46476 0.35260
 H202 H 0.17719 0.41242 0.32163
 H203 H 0.10719 0.33017 0.38386
 H204 H 0.09520 0.50804 0.39363
 H205 H 0.04947 0.53530 0.44081
 H206 H 0.01387 0.42099 0.47354
 C207 C 0.60443 -0.09617 0.38841
 C208 C 0.56970 -0.11369 0.39208
 C209 C 0.56245 -0.14896 0.37485
 C210 C 0.59175 -0.16729 0.35342
 C211 C 0.62884 -0.15128 0.34897
 C212 C 0.63470 -0.11432 0.36677
 O213 O 0.60506 -0.06255 0.40756
 C214 C 0.57012 -0.05910 0.42370
 C215 C 0.54758 -0.08973 0.41500
 C216 C 0.51031 -0.09227 0.42887
 C217 C 0.49604 -0.06336 0.45394
 C218 C 0.51846 -0.03168 0.46657
 C219 C 0.55582 -0.02900 0.44823
 H220 H 0.53481 -0.16221 0.37778
 H221 H 0.58491 -0.19422 0.33980
 H222 H 0.66208 -0.10046 0.36456
 H223 H 0.49261 -0.11629 0.42102
 H224 H 0.46714 -0.06652 0.46379
 H225 H 0.57391 -0.00469 0.45344
 C226 C 0.60649 0.40722 -0.11086
 C227 C 0.59977 0.38783 -0.07647
 C228 C 0.61441 0.35150 -0.06998
 C229 C 0.63648 0.33404 -0.09976
 C230 C 0.64431 0.35214 -0.13648
 C231 C 0.62905 0.39007 -0.14153
 O232 O 0.58919 0.44151 -0.11079
 C233 C 0.57118 0.44351 -0.07572
 C234 C 0.57697 0.41130 -0.05383
 C235 C 0.56109 0.40704 -0.01651
 C236 C 0.53714 0.43597 -0.00155
 C237 C 0.52742 0.46934 -0.02350
 C238 C 0.54749 0.47358 -0.06073
 H239 H 0.60892 0.33675 -0.04259
 H240 H 0.64791 0.30609 -0.09367
 H241 H 0.63389 0.40540 -0.16869
 H242 H 0.56672 0.38178 0.00075
 H243 H 0.52585 0.43152 0.02755
 H244 H 0.54413 0.49908 -0.07817
 C245 C -0.10009 0.10197 -0.11134
 C246 C -0.12196 0.09150 -0.07967
 C247 C -0.15910 0.10465 -0.07491
 C248 C -0.17459 0.12958 -0.10340
 C249 C -0.15359 0.14206 -0.13693
 C250 C -0.11535 0.12721 -0.14084
 O251 O -0.06506 0.08630 -0.10941
 C252 C -0.06508 0.06561 -0.07588
 C253 C -0.09935 0.06800 -0.05688
 C254 C -0.10565 0.04990 -0.02105
 C255 C -0.07585 0.02873 -0.00370
 C256 C -0.03913 0.02413 -0.02157
 C257 C -0.03445 0.04380 -0.05898
 H258 H -0.17591 0.09594 -0.04979
 H259 H -0.20366 0.13882 -0.09926
 H260 H -0.09783 0.13559 -0.16555
 H261 H -0.13262 0.05292 -0.00600
 H262 H -0.08131 0.01778 0.02546
 H263 H -0.00781 0.04311 -0.07459
 C264 C -0.09978 0.59861 0.38764
 C265 C -0.11088 0.60347 0.42611
 C266 C -0.14139 0.62708 0.43600
 C267 C -0.16132 0.64632 0.40563
 C268 C -0.15118 0.64285 0.36513
 C269 C -0.11921 0.61840 0.35640
 O270 O -0.07037 0.57415 0.38479
 C271 C -0.06271 0.56366 0.42218
 C272 C -0.08661 0.58101 0.44851
 C273 C -0.08364 0.57421 0.48893
 C274 C -0.05504 0.54913 0.50299
 C275 C -0.02879 0.53016 0.47752
 C276 C -0.03402 0.53768 0.43574
 H277 H -0.14983 0.63058 0.46642
 H278 H -0.18471 0.66462 0.41402
 H279 H -0.11017 0.61437 0.32624
 H280 H -0.10293 0.58786 0.50935
 H281 H -0.05378 0.54397 0.53437
 H282 H -0.01679 0.52375 0.41380
 C283 C 0.40399 0.09814 0.39249
 C284 C 0.39128 0.10032 0.43061
 C285 C 0.35989 0.12237 0.44088
 C286 C 0.34084 0.14337 0.41133
 C287 C 0.35292 0.14368 0.37114
 C288 C 0.38532 0.11971 0.36192
 O289 O 0.43421 0.07457 0.38944
 C290 C 0.44052 0.06187 0.42643
 C291 C 0.41498 0.07713 0.45255
 C292 C 0.41639 0.06876 0.49266
 C293 C 0.44473 0.04366 0.50675
 C294 C 0.47180 0.02571 0.48143
 C295 C 0.46930 0.03579 0.44006
 H296 H 0.34989 0.12315 0.47101
 H297 H 0.31590 0.15899 0.42041
 H298 H 0.39600 0.11818 0.33211
 H299 H 0.39627 0.08149 0.51285
 H300 H 0.44549 0.03818 0.53809
 H301 H 0.48913 0.02389 0.41907
 C302 C 0.39797 0.61228 -0.10044
 C303 C 0.40735 0.58185 -0.12382
 C304 C 0.39335 0.57814 -0.16202
 C305 C 0.36923 0.60675 -0.17728
 C306 C 0.35871 0.63964 -0.15517
 C307 C 0.37338 0.64179 -0.11537
 O308 O 0.41426 0.60945 -0.06454
 C309 C 0.43424 0.57662 -0.06556
 C310 C 0.43077 0.55893 -0.10129
 C311 C 0.44800 0.52405 -0.10882
 C312 C 0.46935 0.50628 -0.07873
 C313 C 0.47507 0.52281 -0.04054
 C314 C 0.45626 0.55926 -0.03462
 H315 H 0.40066 0.55363 -0.17975
 H316 H 0.35826 0.60262 -0.20672
 H317 H 0.36636 0.66582 -0.09686
 H318 H 0.44406 0.51003 -0.13689
 H319 H 0.47919 0.47781 -0.08491
 H320 H 0.45768 0.57369 -0.00667
 C321 C -0.10695 -0.11015 0.09336
 C322 C -0.07572 -0.10075 0.11548
 C323 C -0.07135 -0.11351 0.15397
 C324 C -0.09999 -0.13648 0.17092
 C325 C -0.13388 -0.14734 0.15026
 C326 C -0.13645 -0.13387 0.10985
 O327 O -0.10525 -0.09408 0.05725
 C328 C -0.07230 -0.07426 0.05694
 C329 C -0.05335 -0.07772 0.09199
 C330 C -0.01864 -0.05971 0.09859
 C331 C -0.00324 -0.03603 0.06895
 C332 C -0.02225 -0.02878 0.03244
 C333 C -0.05685 -0.05072 0.02611
 H334 H -0.04626 -0.10607 0.17076
 H335 H -0.09417 -0.14670 0.20025
 H336 H -0.16103 -0.14048 0.09200
 H337 H -0.00375 -0.06346 0.12621
 H338 H 0.02373 -0.02288 0.07544
 H339 H -0.07213 -0.04846 -0.00142
 C340 C -0.10786 0.40050 0.59074
 C341 C -0.07124 0.39480 0.60345
 C342 C -0.06284 0.37042 0.63469
 C343 C -0.09292 0.35125 0.65395
 C344 C -0.13163 0.35564 0.64240
 C345 C -0.13888 0.38079 0.60953
 O346 O -0.10916 0.42570 0.56075
 C347 C -0.07260 0.43592 0.55458
 C348 C -0.04854 0.41750 0.57994
 C349 C -0.00939 0.42308 0.57865
 C350 C 0.00589 0.44900 0.55105
 C351 C -0.01712 0.47083 0.52458
 C352 C -0.05767 0.46259 0.52630
 H353 H -0.03375 0.36636 0.64425
 H354 H -0.08574 0.33235 0.67798
 H355 H -0.16771 0.38543 0.59946
 H356 H 0.00921 0.40768 0.59842
 H357 H 0.03632 0.45147 0.55087
 H358 H -0.07728 0.47634 0.50639
 C359 C 0.39024 -0.10105 0.59832
 C360 C 0.42398 -0.09699 0.61806
 C361 C 0.43017 -0.11354 0.65465
 C362 C 0.40077 -0.13489 0.67226
 C363 C 0.36433 -0.14033 0.65418
 C364 C 0.35980 -0.12306 0.61552
 O365 O 0.39097 -0.08234 0.56353
 C366 C 0.42597 -0.06647 0.56161
 C367 C 0.44695 -0.07493 0.59437
 C368 C 0.48392 -0.06185 0.59915
 C369 C 0.50053 -0.03937 0.56935
 C370 C 0.48111 -0.02902 0.53375
 C371 C 0.44221 -0.04327 0.53089
 H372 H 0.45730 -0.11038 0.66938
 H373 H 0.40794 -0.14838 0.69980
 H374 H 0.33327 -0.12563 0.59966
 H375 H 0.49988 -0.06881 0.62544
 H376 H 0.52900 -0.03034 0.57557
 H377 H 0.42494 -0.03644 0.50551
 C378 C 0.40000 0.39815 0.10631
 C379 C 0.38277 0.40028 0.07016
 C380 C 0.34897 0.38120 0.06197
 C381 C 0.33207 0.35871 0.09165
 C382 C 0.34866 0.35407 0.12972
 C383 C 0.38348 0.37506 0.13695
 O384 O 0.43214 0.41923 0.10735
 C385 C 0.43499 0.43474 0.07106
 C386 C 0.40543 0.42365 0.04746
 C387 C 0.40284 0.43501 0.00839
 C388 C 0.43146 0.45857 -0.00753
 C389 C 0.46308 0.47247 0.01495
 C390 C 0.46414 0.45947 0.05570
 H391 H 0.33561 0.38377 0.03338
 H392 H 0.30527 0.34534 0.08455
 H393 H 0.39757 0.37308 0.16518
 H394 H 0.37951 0.42539 -0.00987
 H395 H 0.42811 0.46523 -0.03814
 H396 H 0.48746 0.46758 0.07470
 C397 C 0.10755 0.09841 0.10116
 C398 C 0.07199 0.11446 0.10278
 C399 C 0.06473 0.14728 0.12459
 C400 C 0.09494 0.16471 0.14531
 C401 C 0.13265 0.14983 0.14496
 C402 C 0.13864 0.11540 0.12246
 O403 O 0.10780 0.06706 0.07818
 C404 C 0.07166 0.06347 0.06521
 C405 C 0.04887 0.09178 0.07973
 C406 C 0.01021 0.09335 0.07120
 C407 C -0.00598 0.06514 0.04677
 C408 C 0.01576 0.03512 0.02920
 C409 C 0.05590 0.03469 0.03984
 H410 H 0.03644 0.15937 0.12559
 H411 H 0.08858 0.18999 0.16225
 H412 H 0.16664 0.10271 0.12100
 H413 H -0.00742 0.11559 0.08357
 H414 H -0.03615 0.06728 0.04237
 H415 H 0.07425 0.01211 0.02954
 C416 C 0.09432 0.61477 0.60035
 C417 C 0.11634 0.58409 0.59020
 C418 C 0.15380 0.58027 0.60302
 C419 C 0.16949 0.60866 0.62753
 C420 C 0.14840 0.64117 0.63986
 C421 C 0.10982 0.64422 0.62519
 O422 O 0.05909 0.61210 0.58460
 C423 C 0.05918 0.57904 0.56423
 C424 C 0.09370 0.56121 0.56698
 C425 C 0.10075 0.52672 0.54854
 C426 C 0.07149 0.50945 0.52656
 C427 C 0.03409 0.52550 0.52210
 C428 C 0.02876 0.56196 0.54178
 H429 H 0.17068 0.55592 0.59439
 H430 H 0.19879 0.60523 0.63662
 H431 H 0.09230 0.66823 0.63343
 H432 H 0.12829 0.51317 0.55102
 H433 H 0.07870 0.48261 0.51296
 H434 H 0.00225 0.57715 0.54005
 C435 C 0.60008 0.11076 0.59422
 C436 C 0.62023 0.07795 0.58755
 C437 C 0.65654 0.07241 0.60298
 C438 C 0.67299 0.10130 0.62637
 C439 C 0.65369 0.13597 0.63520
 C440 C 0.61630 0.14063 0.61797
 O441 O 0.56557 0.10950 0.57677
 C442 C 0.56417 0.07520 0.55887
 C443 C 0.59704 0.05507 0.56480
 C444 C 0.60166 0.01835 0.55037
 C445 C 0.57156 0.00127 0.52929
 C446 C 0.53631 0.02025 0.52100
 C447 C 0.53334 0.05861 0.53680
 H448 H 0.67200 0.04640 0.59715
 H449 H 0.70147 0.09647 0.63731
 H450 H 0.60009 0.16623 0.62351
 H451 H 0.62746 0.00255 0.55629
 H452 H 0.57522 -0.02828 0.52137
 H453 H 0.50772 0.07509 0.53308
 C454 C 0.60512 0.59769 0.09127
 C455 C 0.56882 0.60087 0.10582
 C456 C 0.56054 0.62391 0.13811
 C457 C 0.59023 0.64480 0.15612
 C458 C 0.62859 0.64360 0.14234
 C459 C 0.63584 0.61875 0.10914
 O460 O 0.60640 0.57381 0.06015
 C461 C 0.57019 0.56183 0.05516
 C462 C 0.54627 0.57775 0.08246
 C463 C 0.50737 0.56984 0.08275
 C464 C 0.49224 0.54465 0.05424
 C465 C 0.51524 0.52649 0.02508
 C466 C 0.55544 0.53600 0.02600
 H467 H 0.53181 0.62572 0.14941
 H468 H 0.58293 0.66170 0.18161
 H469 H 0.66426 0.61633 0.09720
 H470 H 0.48890 0.58290 0.10435
 H471 H 0.46193 0.53940 0.05495
 H472 H 0.57474 0.52391 0.00462
   
