data_POSCAR
  _audit_creation_date              2014-09-24
  _audit_creation_method            'ToBaCCo'
  _symmetry_space_group_name_H-M    'P1'
  _symmetry_Int_Tables_number       1
  _symmetry_cell_setting            triclinic
  loop_
  _symmetry_equiv_pos_as_xyz
 x,y,z
_cell_length_a 38.3164
_cell_length_b 36.4817
_cell_length_c 42.4156
_cell_angle_alpha 91.842100
_cell_angle_beta 86.847900
_cell_angle_gamma 86.547100
loop_
  _atom_site_label
  _atom_site_type_symbol
  _atom_site_fract_x
  _atom_site_fract_y
  _atom_site_fract_z
N1 N 0.59748 0.62579 0.60014
 N2 N 0.58369 0.62768 0.62943
 C3 C 0.55026 0.64118 0.62941
 C4 C 0.54257 0.64802 0.59864
 C5 C 0.57297 0.63779 0.58063
 H6 H 0.53305 0.64665 0.65031
 H7 H 0.57759 0.64110 0.55553
 Cu8 Cu 0.61026 0.61416 0.66613
 Cu9 Cu 0.64784 0.61362 0.58962
 Cu10 Cu 0.69602 0.59663 0.65139
 N11 N 0.63893 0.58783 0.69569
 N12 N 0.67312 0.58305 0.69094
 C13 C 0.68646 0.56640 0.71587
 C14 C 0.65901 0.55990 0.73713
 C15 C 0.62918 0.57385 0.72357
 H16 H 0.71389 0.55857 0.71791
 H17 H 0.60248 0.57433 0.73337
 N18 N 0.71735 0.61292 0.61208
 N19 N 0.69851 0.61789 0.58738
 C20 C 0.71980 0.62508 0.56233
 C21 C 0.75368 0.62511 0.57204
 C22 C 0.75119 0.61742 0.60374
 H23 H 0.71128 0.62967 0.53880
 H24 H 0.77258 0.61392 0.61919
 H25 H 0.63877 0.58543 0.63134
 H26 H 0.64730 0.63519 0.63429
 N27 N 0.89589 0.32366 0.10050
 N28 N 0.91038 0.34195 0.12303
 C29 C 0.94428 0.33001 0.12374
 C30 C 0.95145 0.30344 0.09983
 C31 C 0.92018 0.30018 0.08550
 H32 H 0.96254 0.34047 0.13985
 H33 H 0.91507 0.28139 0.06629
 Cu34 Cu 0.88358 0.38079 0.14790
 Cu35 Cu 0.84586 0.32907 0.09455
 Cu36 Cu 0.80570 0.41173 0.12391
 N37 N 0.85352 0.41639 0.17350
 N38 N 0.82266 0.42792 0.16424
 C39 C 0.80742 0.45255 0.18582
 C40 C 0.83008 0.45680 0.20970
 C41 C 0.85913 0.43359 0.20115
 H42 H 0.78209 0.46682 0.18389
 H43 H 0.88250 0.42955 0.21412
 N44 N 0.78545 0.38064 0.09172
 N45 N 0.79962 0.34796 0.08229
 C46 C 0.77833 0.33197 0.06252
 C47 C 0.74968 0.35598 0.05907
 C48 C 0.75501 0.38664 0.07772
 H49 H 0.78360 0.30519 0.05099
 H50 H 0.73753 0.41096 0.08158
 H51 H 0.84980 0.38374 0.10061
 H52 H 0.82641 0.36162 0.13400
 N53 N 0.40223 0.17904 -0.13454
 N54 N 0.40857 0.17133 -0.16488
 C55 C 0.42322 0.20004 -0.17843
 C56 C 0.42672 0.22672 -0.15511
 C57 C 0.41334 0.21244 -0.12754
 H58 H 0.43214 0.20082 -0.20302
 H59 H 0.41201 0.22524 -0.10411
 Cu60 Cu 0.40075 0.12279 -0.18244
 Cu61 Cu 0.38122 0.14457 -0.10624
 Cu62 Cu 0.34216 0.07311 -0.14420
 N63 N 0.39136 0.07374 -0.19767
 N64 N 0.36679 0.05531 -0.18370
 C65 C 0.36397 0.02347 -0.20004
 C66 C 0.38882 0.02153 -0.22499
 C67 C 0.40589 0.05369 -0.22276
 H68 H 0.34623 0.00266 -0.19350
 H69 H 0.42705 0.06195 -0.23838
 N70 N 0.33218 0.08705 -0.09915
 N71 N 0.34675 0.11452 -0.08496
 C72 C 0.33394 0.11807 -0.05477
 C73 C 0.31091 0.09099 -0.04955
 C74 C 0.31048 0.07163 -0.07804
 H75 H 0.34095 0.13873 -0.03778
 H76 H 0.29503 0.04853 -0.08315
 H77 H 0.38740 0.09434 -0.13227
 H78 H 0.35240 0.12912 -0.14231
 N79 N 0.09123 0.83184 0.37117
 N80 N 0.08201 0.84706 0.34496
 C81 C 0.06326 0.82378 0.32865
 C82 C 0.05966 0.79266 0.34600
 C83 C 0.07758 0.79873 0.37301
 H84 H 0.05187 0.82981 0.30648
 H85 H 0.08087 0.78037 0.39230
 Cu86 Cu 0.09161 0.89750 0.33644
 Cu87 Cu 0.12062 0.85667 0.40025
 Cu88 Cu 0.16419 0.92771 0.36567
 N89 N 0.10857 0.94456 0.32506
 N90 N 0.13838 0.95530 0.33490
 C91 C 0.14555 0.98717 0.32148
 C92 C 0.11817 0.99723 0.30303
 C93 C 0.09509 0.96978 0.30592
 H94 H 0.16831 1.00242 0.32566
 H95 H 0.07072 0.96799 0.29442
 N96 N 0.17759 0.90537 0.40536
 N97 N 0.16154 0.87800 0.41825
 C98 C 0.17621 0.86990 0.44553
 C99 C 0.20201 0.89401 0.45032
 C100 C 0.20208 0.91621 0.42461
 H101 H 0.16757 0.84935 0.46152
 H102 H 0.21817 0.93916 0.42061
 H103 H 0.11827 0.91158 0.38598
 H104 H 0.14448 0.87549 0.36120
 N105 N 0.12178 0.21329 0.10503
 N106 N 0.10701 0.21280 0.13370
 C107 C 0.07553 0.23143 0.13449
 C108 C 0.07019 0.24365 0.10453
 C109 C 0.09999 0.23170 0.08640
 H110 H 0.05669 0.23306 0.15452
 H111 H 0.10475 0.23460 0.06125
 Cu112 Cu 0.12725 0.18197 0.16534
 Cu113 Cu 0.16699 0.18753 0.09390
 Cu114 Cu 0.18502 0.11265 0.14002
 N115 N 0.13715 0.14019 0.19119
 N116 N 0.15998 0.11326 0.18148
 C117 C 0.15956 0.08668 0.20280
 C118 C 0.13466 0.09733 0.22670
 C119 C 0.12091 0.13136 0.21858
 H120 H 0.17436 0.06047 0.20002
 H121 H 0.09948 0.14762 0.23080
 N122 N 0.20771 0.11822 0.09752
 N123 N 0.20252 0.14808 0.08117
 C124 C 0.22168 0.14425 0.05361
 C125 C 0.23922 0.11006 0.05224
 C126 C 0.22979 0.09415 0.08034
 H127 H 0.22116 0.16390 0.03505
 H128 H 0.23805 0.06694 0.08746
 H129 H 0.14798 0.14528 0.11872
 H130 H 0.18453 0.16824 0.13682
 N131 N 0.38945 0.77137 0.59179
 N132 N 0.40233 0.77613 0.61962
 C133 C 0.42942 0.75151 0.62245
 C134 C 0.43400 0.73033 0.59478
 C135 C 0.40820 0.74361 0.57578
 H136 H 0.44572 0.75038 0.64246
 H137 H 0.40399 0.73443 0.55187
 Cu138 Cu 0.38563 0.81685 0.64788
 Cu139 Cu 0.35042 0.80292 0.57819
 Cu140 Cu 0.31920 0.87464 0.63052
 N141 N 0.37814 0.86499 0.66875
 N142 N 0.35075 0.88679 0.66325
 C143 C 0.35095 0.91765 0.68151
 C144 C 0.38060 0.91530 0.69865
 C145 C 0.39740 0.88167 0.68991
 H146 H 0.33200 0.94082 0.68108
 H147 H 0.42180 0.87026 0.69821
 N148 N 0.29989 0.86556 0.58905
 N149 N 0.31100 0.83794 0.56940
 C150 C 0.29367 0.84068 0.54267
 C151 C 0.27136 0.87192 0.54548
 C152 C 0.27602 0.88710 0.57502
 H153 H 0.29855 0.82279 0.52187
 H154 H 0.26391 0.91269 0.58508
 H155 H 0.36114 0.84941 0.60458
 H156 H 0.32947 0.81802 0.62220
 N157 N 0.95740 0.64868 0.38174
 N158 N 0.95590 0.63625 0.35243
 C159 C 0.97639 0.65561 0.33331
 C160 C 0.99183 0.68137 0.35164
 C161 C 0.97950 0.67604 0.38234
 H162 H 0.97858 0.65228 0.30783
 H163 H 0.98406 0.69265 0.40313
 Cu164 Cu 0.92504 0.59810 0.34142
 Cu165 Cu 0.92602 0.63190 0.41552
 Cu166 Cu 0.84949 0.60339 0.38499
 N167 N 0.88589 0.57073 0.32914
 N168 N 0.85571 0.57411 0.34560
 C169 C 0.83210 0.55527 0.33050
 C170 C 0.84865 0.53878 0.30344
 C171 C 0.88280 0.54905 0.30332
 H172 H 0.80497 0.55378 0.33860
 H173 H 0.90341 0.54247 0.28521
 N174 N 0.85283 0.61953 0.42956
 N175 N 0.88234 0.62861 0.44155
 C176 C 0.87672 0.63520 0.47288
 C177 C 0.84195 0.63001 0.48092
 C178 C 0.82758 0.62016 0.45294
 H179 H 0.89652 0.64293 0.48861
 H180 H 0.80104 0.61268 0.45002
 H181 H 0.89978 0.58862 0.39439
 H182 H 0.89146 0.63671 0.38178
 N183 N 0.53566 0.35848 -0.10488
 N184 N 0.52988 0.38193 -0.12719
 C185 C 0.50608 0.36885 -0.14618
 C186 C 0.49619 0.33570 -0.13477
 C187 C 0.51528 0.33007 -0.10849
 H188 H 0.49743 0.38191 -0.16716
 H189 H 0.51569 0.30612 -0.09411
 Cu190 Cu 0.55605 0.42573 -0.13059
 Cu191 Cu 0.57191 0.36419 -0.07500
 Cu192 Cu 0.61911 0.44201 -0.08122
 N193 N 0.59207 0.45936 -0.14106
 N194 N 0.61744 0.46464 -0.12208
 C195 C 0.64055 0.48619 -0.13607
 C196 C 0.62891 0.49496 -0.16530
 C197 C 0.59797 0.47769 -0.16770
 H198 H 0.66450 0.49400 -0.12606
 H199 H 0.58206 0.47680 -0.18797
 N200 N 0.62632 0.40587 -0.04841
 N201 N 0.60949 0.37538 -0.04695
 C202 C 0.62367 0.35393 -0.02515
 C203 C 0.65044 0.37192 -0.01220
 C204 C 0.65131 0.40487 -0.02728
 H205 H 0.61601 0.32664 -0.01989
 H206 H 0.67035 0.42531 -0.02472
 H207 H 0.57006 0.42015 -0.07483
 H208 H 0.60315 0.39579 -0.10317
 N209 N 0.02424 0.24782 0.06562
 N210 N -0.00988 0.26328 0.06503
 C211 C -0.01671 0.28389 0.09185
 C212 C 0.01226 0.28174 0.11016
 C213 C 0.03704 0.25868 0.09308
 H214 H 0.01454 0.29395 0.13349
 H215 H 0.03628 0.22911 0.04866
 H216 H -0.02654 0.25923 0.04672
 N217 N 0.47226 0.68951 0.55701
 N218 N 0.50127 0.66809 0.55797
 C219 C 0.51041 0.66677 0.58815
 C220 C 0.48629 0.68825 0.60721
 C221 C 0.46268 0.70243 0.58655
 H222 H 0.48681 0.69416 0.63234
 H223 H 0.46007 0.69608 0.53633
 H224 H 0.51481 0.65525 0.53818
 N225 N 1.00967 0.72480 0.31079
 N226 N 1.02778 0.75676 0.30957
 C227 C 1.04088 0.76241 0.33805
 C228 C 1.03142 0.73466 0.35795
 C229 C 1.01160 0.71204 0.34011
 H230 H 1.03680 0.73216 0.38260
 H231 H 0.99543 0.71448 0.29255
 H232 H 1.03010 0.77301 0.28984
 N233 N 0.46562 0.30882 -0.17977
 N234 N 0.44788 0.27951 -0.18534
 C235 C 0.44373 0.26154 -0.15827
 C236 C 0.45960 0.27998 -0.13451
 C237 C 0.47338 0.30965 -0.14916
 H238 H 0.46200 0.27208 -0.11031
 H239 H 0.47324 0.32708 -0.19694
 H240 H 0.43919 0.27187 -0.20737
 N241 N 0.08765 0.07723 0.26378
 N242 N 0.08305 0.05024 0.28331
 C243 C 0.11368 0.03045 0.28478
 C244 C 0.13887 0.04509 0.26509
 C245 C 0.12113 0.07463 0.25205
 H246 H 0.16573 0.03479 0.25997
 H247 H 0.06777 0.09611 0.25772
 H248 H 0.05924 0.04533 0.29514
 N249 N 0.68272 0.51634 -0.19248
 N250 N 0.69121 0.53360 -0.22049
 C251 C 0.66105 0.54249 -0.23416
 C252 C 0.63302 0.53095 -0.21565
 C253 C 0.64770 0.51452 -0.19006
 H254 H 0.60557 0.53316 -0.22059
 H255 H 0.70083 0.50531 -0.17730
 H256 H 0.71662 0.53848 -0.22877
 N257 N 0.42725 0.95072 0.72144
 N258 N 0.42935 0.97946 0.74087
 C259 C 0.39680 0.99088 0.75200
 C260 C 0.37281 0.96891 0.73882
 C261 C 0.39328 0.94388 0.71948
 H262 H 0.34459 0.97099 0.74258
 H263 H 0.44870 0.93661 0.70930
 H264 H 0.45273 0.99067 0.74662
 N265 N 0.79825 0.51671 0.27493
 N266 N 0.79338 0.49556 0.24986
 C267 C 0.82480 0.48150 0.23782
 C268 C 0.85083 0.49440 0.25578
 C269 C 0.83287 0.51677 0.27899
 H270 H 0.87885 0.48880 0.25217
 H271 H 0.77818 0.53133 0.28853
 H272 H 0.76894 0.49089 0.24130
 N273 N 0.26272 0.05709 0.01705
 N274 N 0.28074 0.05216 -0.01042
 C275 C 0.29052 0.08503 -0.02004
 C276 C 0.27800 0.11208 0.00197
 C277 C 0.26036 0.09324 0.02503
 H278 H 0.28052 0.14141 0.00091
 H279 H 0.25137 0.03618 0.02951
 H280 H 0.28615 0.02674 -0.02226
 N281 N 0.84075 0.63604 0.53978
 N282 N 0.81749 0.63447 0.56382
 C283 C 0.78585 0.62981 0.55243
 C284 C 0.78906 0.62831 0.51976
 C285 C 0.82434 0.63216 0.51269
 H286 H 0.76882 0.62390 0.50349
 H287 H 0.86745 0.63893 0.54207
 H288 H 0.82341 0.63621 0.58754
 N289 N 0.68240 0.32068 0.01364
 N290 N 0.70912 0.31641 0.03184
 C291 C 0.71980 0.34979 0.03978
 C292 C 0.69920 0.37653 0.02592
 C293 C 0.67593 0.35683 0.00936
 H294 H 0.70162 0.40594 0.02683
 H295 H 0.66967 0.29904 0.00356
 H296 H 0.71990 0.29102 0.03848
 N297 N 0.24712 0.92516 0.51677
 N298 N 0.22983 0.93094 0.49113
 C299 C 0.22213 0.89826 0.47852
 C300 C 0.23545 0.87034 0.49663
 C301 C 0.25124 0.88868 0.52060
 H302 H 0.23415 0.84100 0.49276
 H303 H 0.25657 0.94588 0.53094
 H304 H 0.22313 0.95686 0.48269
   
