data_POSCAR
  _audit_creation_date              2014-09-24
  _audit_creation_method            'ToBaCCo'
  _symmetry_space_group_name_H-M    'P1'
  _symmetry_Int_Tables_number       1
  _symmetry_cell_setting            triclinic
  loop_
  _symmetry_equiv_pos_as_xyz
 x,y,z
_cell_length_a 11.5688
_cell_length_b 11.9533
_cell_length_c 19.5675
_cell_angle_alpha 89.249000
_cell_angle_beta 96.987600
_cell_angle_gamma 89.164700
loop_
  _atom_site_label
  _atom_site_type_symbol
  _atom_site_fract_x
  _atom_site_fract_y
  _atom_site_fract_z
O1 O 0.09256 0.57386 1.09858
 O2 O 0.14683 0.38562 0.96149
 O3 O 0.14209 0.60775 0.96997
 O4 O 0.05481 0.36921 1.07394
 O5 O -0.12682 0.39408 1.02570
 O6 O -0.04026 0.62901 0.92334
 O7 O -0.03464 0.40721 0.91231
 O8 O -0.08763 0.60645 1.04990
 Cu9 Cu 0.12665 0.48454 1.02915
 Cu10 Cu -0.08988 0.51226 0.97290
 C11 C -0.00527 0.62233 1.09826
 C12 C 0.06605 0.36088 0.91496
 C13 C 0.06475 0.65974 0.92906
 C14 C -0.05184 0.34109 1.06668
 O15 O 0.62758 -0.05875 0.57827
 O16 O 0.37508 -0.11587 0.45170
 O17 O 0.59806 -0.11175 0.44881
 O18 O 0.40321 -0.05417 0.57966
 O19 O 0.39397 0.12439 0.54888
 O20 O 0.58811 0.06649 0.41697
 O21 O 0.36333 0.06271 0.42075
 O22 O 0.62123 0.11885 0.54546
 Cu23 Cu 0.50190 -0.10281 0.51799
 Cu24 Cu 0.49039 0.11125 0.48016
 C25 C 0.66929 0.03897 0.58252
 C26 C 0.32604 -0.03672 0.41472
 C27 C 0.62649 -0.03247 0.41070
 C28 C 0.36455 0.04468 0.58624
 C29 C -0.06761 -0.10687 0.19167
 C30 C -0.16569 -0.09581 0.23693
 C31 C -0.15757 -0.00402 0.27781
 C32 C -0.05237 0.06964 0.26880
 C33 C -0.07044 0.00379 0.15139
 C34 C -0.06122 0.09605 0.19149
 C35 C 0.04599 -0.10191 0.24195
 C36 C 0.05295 -0.00998 0.28271
 H37 H -0.23513 -0.15568 0.23624
 H38 H -0.04635 0.14517 0.30150
 H39 H -0.06648 0.00774 0.09636
 H40 H 0.11849 -0.15982 0.24159
 C41 C 0.15086 -0.00205 0.71932
 C42 C 0.14554 -0.09720 0.77218
 C43 C 0.04916 -0.09340 0.80570
 C44 C -0.03311 0.00622 0.78357
 C45 C 0.03579 -0.00814 0.67177
 C46 C -0.06003 -0.00361 0.70536
 C47 C 0.14063 0.10539 0.76022
 C48 C 0.04379 0.11019 0.79390
 H49 H 0.20842 -0.16567 0.77864
 H50 H -0.11210 0.00947 0.81068
 H51 H 0.03086 -0.01967 0.61665
 H52 H 0.20274 0.17218 0.76027
 C53 C -0.01852 -0.29980 0.15409
 C54 C -0.08104 -0.20506 0.14344
 H55 H 0.03752 -0.31419 0.20182
 H56 H -0.13668 -0.19300 0.09507
 C57 C -0.08910 0.24217 0.10249
 C58 C -0.03654 0.20686 0.16358
 H59 H -0.16073 0.19522 0.07672
 H60 H 0.02854 0.25772 0.19242
 C61 C 0.28066 0.06662 0.63555
 C62 C 0.25522 -0.01185 0.68056
 H63 H 0.23338 0.14582 0.63175
 H64 H 0.30172 -0.09149 0.68310
 C65 C -0.22862 0.05874 0.62606
 C66 C -0.17743 -0.01934 0.66974
 H67 H -0.18755 0.13929 0.62258
 H68 H -0.21895 -0.09839 0.67751
 C69 C 0.09654 -0.24960 0.88988
 C70 C 0.01738 -0.18392 0.85170
 H71 H 0.18835 -0.23167 0.89140
 H72 H -0.07476 -0.19559 0.85414
 C73 C 0.09225 0.27595 0.86518
 C74 C 0.01254 0.20563 0.83602
 H75 H 0.18313 0.26317 0.85889
 H76 H -0.07646 0.21257 0.84765
 C77 C -0.29524 -0.05750 0.35888
 C78 C -0.23959 0.02238 0.32777
 H79 H -0.27921 -0.14479 0.34860
 H80 H -0.24868 0.10896 0.34218
 C81 C 0.22551 -0.06269 0.36425
 C82 C 0.15476 0.01662 0.33263
 H83 H 0.20743 -0.15015 0.35475
 H84 H 0.16826 0.10357 0.34587
   
