data_POSCAR
  _audit_creation_date              2014-09-24
  _audit_creation_method            'ToBaCCo'
  _symmetry_space_group_name_H-M    'P1'
  _symmetry_Int_Tables_number       1
  _symmetry_cell_setting            triclinic
  loop_
  _symmetry_equiv_pos_as_xyz
 x,y,z
_cell_length_a 30.3262
_cell_length_b 30.3214
_cell_length_c 30.3338
_cell_angle_alpha 90.189000
_cell_angle_beta 90.104000
_cell_angle_gamma 90.340600
loop_
  _atom_site_label
  _atom_site_type_symbol
  _atom_site_fract_x
  _atom_site_fract_y
  _atom_site_fract_z
C1 C -0.00020 0.50094 0.24991
 C2 C 0.00040 0.49897 0.74985
 C3 C 0.24955 -0.00167 0.50065
 C4 C 0.75020 0.00204 0.49959
 C5 C 0.50175 0.25009 0.99895
 C6 C 0.49836 0.74980 1.00118
 B7 B 1.00036 1.04507 0.02771
 B8 B 1.00033 1.04484 -0.02780
 B9 B 1.04515 1.02775 0.00003
 B10 B 1.02781 1.00019 0.04495
 B11 B 0.97228 1.00025 0.04487
 B12 B 0.95530 1.02784 -0.00009
 B13 B 0.99970 0.95498 -0.02773
 B14 B 0.99972 0.95521 0.02779
 B15 B 0.95491 0.97230 -0.00005
 B16 B 0.97224 0.99988 -0.04496
 B17 B 1.02777 0.99981 -0.04487
 B18 B 1.04476 0.97221 0.00009
 B19 B 0.54461 0.50012 0.47217
 B20 B 0.49966 0.52770 0.45523
 B21 B 0.49952 0.47216 0.45514
 B22 B 0.52750 0.45518 0.49992
 B23 B 0.54493 0.50022 0.52768
 B24 B 0.52772 0.54505 0.50006
 B25 B 0.45508 0.49990 0.52802
 B26 B 0.50004 0.47233 0.54497
 B27 B 0.50016 0.52787 0.54506
 B28 B 0.47219 0.54485 0.50028
 B29 B 0.45477 0.49980 0.47251
 B30 B 0.47197 0.45499 0.50014
 C31 C 1.00116 1.46097 0.22270
 C32 C 1.00235 1.42676 0.20236
 C33 C 1.00381 1.38477 0.18025
 C34 C 1.03847 1.35579 0.18897
 C35 C 1.03859 1.31369 0.17010
 C36 C 1.00395 1.29997 0.14226
 C37 C 0.96960 1.32960 0.13312
 C38 C 0.96951 1.37171 0.15210
 C39 C 1.00328 1.25467 0.12352
 C40 C 0.99000 1.24729 0.07964
 C41 C 0.98918 1.20459 0.06218
 C42 C 1.00151 1.16875 0.08831
 C43 C 1.01476 1.17568 0.13197
 C44 C 1.01564 1.21837 0.14951
 C45 C 1.00108 1.12507 0.06982
 C46 C 1.00073 1.08920 0.05276
 H47 H 1.06512 1.36552 0.21084
 H48 H 1.06579 1.29186 0.17727
 H49 H 0.94222 1.31983 0.11223
 H50 H 0.94232 1.39375 0.14545
 H51 H 0.98082 1.27458 0.05867
 H52 H 0.97906 1.19954 0.02824
 H53 H 1.02435 1.14812 0.15245
 H54 H 1.02544 1.22294 0.18357
 C55 C 0.99956 0.54049 0.22231
 C56 C 0.99934 0.57436 0.20158
 C57 C 0.99902 0.61596 0.17894
 C58 C 1.03877 0.63607 0.16668
 C59 C 1.03870 0.67809 0.14785
 C60 C 0.99880 0.70061 0.14115
 C61 C 0.95896 0.67977 0.15293
 C62 C 0.95912 0.63776 0.17177
 C63 C 0.99877 0.74598 0.12286
 C64 C 0.96646 0.75878 0.09219
 C65 C 0.96632 0.80160 0.07529
 C66 C 0.99838 0.83216 0.08881
 C67 C 1.03064 0.81983 0.11930
 C68 C 1.03084 0.77702 0.13628
 C69 C 0.99895 0.87561 0.07011
 C70 C 0.99936 0.91131 0.05292
 H71 H 1.06986 0.61956 0.17228
 H72 H 1.06984 0.69300 0.13857
 H73 H 0.92777 0.69645 0.14872
 H74 H 0.92819 0.62267 0.18156
 H75 H 0.94170 0.73552 0.08080
 H76 H 0.94141 0.81077 0.05141
 H77 H 1.05568 0.84324 0.12986
 H78 H 1.05576 0.76837 0.16030
 C79 C 1.00004 1.45959 -0.22231
 C80 C 0.99963 1.42578 -0.20147
 C81 C 0.99902 1.38420 -0.17878
 C82 C 0.96019 1.35908 -0.17763
 C83 C 0.96023 1.31708 -0.15878
 C84 C 0.99921 1.29959 -0.14090
 C85 C 1.03791 1.32543 -0.14152
 C86 C 1.03780 1.36743 -0.16045
 C87 C 0.99971 1.25425 -0.12257
 C88 C 1.02333 1.24496 -0.08377
 C89 C 1.02392 1.20219 -0.06675
 C90 C 1.00100 1.16818 -0.08827
 C91 C 0.97744 1.17700 -0.12689
 C92 C 0.97680 1.21976 -0.14398
 C93 C 1.00080 1.12459 -0.06986
 C94 C 1.00061 1.08880 -0.05285
 H95 H 0.93002 1.37167 -0.19191
 H96 H 0.92979 1.29825 -0.15824
 H97 H 1.06855 1.31269 -0.12850
 H98 H 1.06815 1.38643 -0.16156
 H99 H 1.04083 1.27087 -0.06626
 H100 H 1.04200 1.19570 -0.03663
 H101 H 0.95953 1.15089 -0.14373
 H102 H 0.95883 1.22574 -0.17423
 C103 C 1.00096 0.53920 -0.22326
 C104 C 1.00161 0.57361 -0.20321
 C105 C 1.00256 0.61581 -0.18143
 C106 C 0.96829 0.62814 -0.15321
 C107 C 0.96800 0.67030 -0.13436
 C108 C 1.00193 0.70073 -0.14370
 C109 C 1.03649 0.68778 -0.17168
 C110 C 1.03675 0.64562 -0.19042
 C111 C 1.00104 0.74595 -0.12481
 C112 C 1.01298 0.78259 -0.15069
 C113 C 1.01221 0.82517 -0.13288
 C114 C 0.99952 0.83165 -0.08905
 C115 C 0.98753 0.79547 -0.06306
 C116 C 0.98821 0.75290 -0.08080
 C117 C 0.99945 0.87517 -0.07022
 C118 C 0.99948 0.91093 -0.05290
 H119 H 0.94146 0.60544 -0.14634
 H120 H 0.94070 0.67946 -0.11334
 H121 H 1.06338 0.71022 -0.17900
 H122 H 1.06337 0.63646 -0.21233
 H123 H 1.02242 0.77836 -0.18484
 H124 H 1.02154 0.85299 -0.15325
 H125 H 0.97791 0.80017 -0.02899
 H126 H 0.97936 0.72535 -0.05991
 C127 C 1.22253 0.99786 0.46057
 C128 C 1.20221 0.99746 0.42636
 C129 C 1.17995 0.99697 0.38445
 C130 C 1.18058 0.95887 0.35830
 C131 C 1.16178 0.95914 0.31621
 C132 C 1.14213 0.99763 0.29965
 C133 C 1.14106 1.03558 0.32647
 C134 C 1.15994 1.03524 0.36856
 C135 C 1.12358 0.99841 0.25432
 C136 C 1.08370 1.02022 0.24559
 C137 C 1.06641 1.02105 0.20287
 C138 C 1.08872 1.00019 0.16834
 C139 C 1.12842 0.97846 0.17661
 C140 C 1.14579 0.97758 0.21932
 C141 C 1.07009 1.00027 0.12478
 C142 C 1.05293 1.00028 0.08898
 H143 H 1.19614 0.92911 0.37023
 H144 H 1.16258 0.92925 0.29661
 H145 H 1.12665 1.06585 0.31446
 H146 H 1.15963 1.06503 0.38837
 H147 H 1.06557 1.03608 0.27190
 H148 H 1.03548 1.03773 0.19681
 H149 H 1.14589 0.96217 0.15009
 H150 H 1.17685 0.96106 0.22488
 C151 C 1.22174 0.99779 -0.45991
 C152 C 1.20093 0.99748 -0.42608
 C153 C 1.17825 0.99727 -0.38448
 C154 C 1.16640 1.03711 -0.36450
 C155 C 1.14769 1.03720 -0.32242
 C156 C 1.14071 0.99737 -0.29971
 C157 C 1.15204 0.95743 -0.32042
 C158 C 1.17077 0.95742 -0.36250
 C159 C 1.12261 0.99756 -0.25426
 C160 C 1.09156 0.96555 -0.24116
 C161 C 1.07473 0.96571 -0.19830
 C162 C 1.08872 0.99777 -0.16800
 C163 C 1.11966 1.02968 -0.18060
 C164 C 1.13655 1.02958 -0.22345
 C165 C 1.07005 0.99871 -0.12453
 C166 C 1.05287 0.99936 -0.08881
 H167 H 1.17225 1.06816 -0.38115
 H168 H 1.13876 1.06843 -0.30760
 H169 H 1.14758 0.92629 -0.30360
 H170 H 1.18026 0.92642 -0.37750
 H171 H 1.07979 0.94081 -0.26424
 H172 H 1.05052 0.94105 -0.18890
 H173 H 1.13061 1.05469 -0.15738
 H174 H 1.16089 1.05425 -0.23234
 C175 C 0.77748 1.00276 0.45978
 C176 C 0.79783 1.00352 0.42567
 C177 C 0.81995 1.00457 0.38376
 C178 C 0.81293 1.03992 0.35511
 C179 C 0.83173 1.03977 0.31308
 C180 C 0.85778 1.00414 0.29910
 C181 C 0.86522 0.96905 0.32841
 C182 C 0.84632 0.96925 0.37044
 C183 C 0.87645 1.00326 0.25389
 C184 C 0.91962 0.98822 0.24655
 C185 C 0.93704 0.98727 0.20394
 C186 C 0.91159 1.00126 0.16815
 C187 C 0.86862 1.01624 0.17503
 C188 C 0.85112 1.01724 0.21764
 C189 C 0.93011 1.00084 0.12460
 C190 C 0.94721 1.00053 0.08883
 H191 H 0.79244 1.06736 0.36504
 H192 H 0.82591 1.06753 0.29152
 H193 H 0.88469 0.94093 0.31843
 H194 H 0.85163 0.94153 0.39222
 H195 H 0.94011 0.97776 0.27380
 H196 H 0.97045 0.97581 0.19893
 H197 H 0.84867 1.02713 0.14751
 H198 H 0.81759 1.02843 0.22216
 C199 C 0.77764 1.00339 -0.46062
 C200 C 0.79803 1.00441 -0.42646
 C201 C 0.82008 1.00553 -0.38444
 C202 C 0.84905 0.97182 -0.37255
 C203 C 0.86788 0.97138 -0.33043
 C204 C 0.85777 1.00460 -0.29959
 C205 C 0.82911 1.03867 -0.31213
 C206 C 0.81040 1.03908 -0.35425
 C207 C 0.87639 1.00334 -0.25431
 C208 C 0.85002 1.01395 -0.21765
 C209 C 0.86752 1.01270 -0.17500
 C210 C 0.91153 1.00083 -0.16846
 C211 C 0.93802 0.99019 -0.20465
 C212 C 0.92059 0.99136 -0.24731
 C213 C 0.93003 1.00025 -0.12483
 C214 C 0.94713 0.99993 -0.08901
 H215 H 0.85644 0.94546 -0.39554
 H216 H 0.88942 0.94446 -0.32159
 H217 H 0.82119 1.06502 -0.28936
 H218 H 0.78789 1.06524 -0.36307
 H219 H 0.81572 1.02271 -0.22193
 H220 H 0.84677 1.02099 -0.14717
 H221 H 0.97223 0.98123 -0.19991
 H222 H 0.94185 0.98353 -0.27485
 C223 C 1.46148 1.22316 -0.00187
 C224 C 1.42711 1.20294 -0.00263
 C225 C 1.38501 1.18085 -0.00360
 C226 C 1.35669 1.18686 -0.03953
 C227 C 1.31454 1.16799 -0.03940
 C228 C 1.30010 1.14286 -0.00323
 C229 C 1.32907 1.13645 0.03247
 C230 C 1.37122 1.15542 0.03229
 C231 C 1.25478 1.12406 -0.00243
 C232 C 1.24709 1.08132 0.01386
 C233 C 1.20438 1.06378 0.01474
 C234 C 1.16883 1.08870 -0.00056
 C235 C 1.17606 1.13124 -0.01679
 C236 C 1.21877 1.14885 -0.01772
 C237 C 1.12519 1.07003 -0.00025
 C238 C 1.08932 1.05285 -0.00006
 H239 H 1.36700 1.20662 -0.06742
 H240 H 1.29325 1.17300 -0.06762
 H241 H 1.31874 1.11771 0.06100
 H242 H 1.39274 1.15089 0.06044
 H243 H 1.27415 1.06123 0.02535
 H244 H 1.19910 1.03070 0.02717
 H245 H 1.14874 1.15077 -0.02871
 H246 H 1.22355 1.18207 -0.02988
 C247 C 0.54105 1.22223 -0.00154
 C248 C 0.57480 1.20141 -0.00207
 C249 C 0.61634 1.17877 -0.00281
 C250 C 0.63260 1.15898 0.03548
 C251 C 0.67454 1.14005 0.03560
 C252 C 0.70085 1.14090 -0.00258
 C253 C 0.68388 1.16025 -0.04109
 C254 C 0.64193 1.17909 -0.04115
 C255 C 0.74613 1.12253 -0.00198
 C256 C 0.78095 1.14479 -0.02323
 C257 C 0.82365 1.12769 -0.02242
 C258 C 0.83209 1.08821 -0.00034
 C259 C 0.79773 1.06581 0.02089
 C260 C 0.75502 1.08285 0.02014
 C261 C 0.87565 1.06987 -0.00026
 C262 C 0.91141 1.05290 -0.00019
 H263 H 0.61324 1.15895 0.06546
 H264 H 0.68688 1.12587 0.06589
 H265 H 0.70308 1.16087 -0.07114
 H266 H 0.62974 1.19451 -0.07091
 H267 H 0.77527 1.17571 -0.04001
 H268 H 0.85004 1.14522 -0.03900
 H269 H 0.80392 1.03504 0.03782
 H270 H 0.72885 1.06468 0.03632
 C271 C 1.45896 0.77752 0.00181
 C272 C 1.42513 0.79823 0.00246
 C273 C 1.38353 0.82077 0.00333
 C274 C 1.36788 0.84195 -0.03445
 C275 C 1.32594 0.86089 -0.03454
 C276 C 1.29904 0.85869 0.00317
 C277 C 1.31539 0.83791 0.04120
 C278 C 1.35733 0.81906 0.04122
 C279 C 1.25381 0.87718 0.00256
 C280 C 1.21861 0.85426 0.02247
 C281 C 1.17595 0.87149 0.02158
 C282 C 1.16794 0.91175 0.00078
 C283 C 1.20268 0.93481 -0.01907
 C284 C 1.24535 0.91767 -0.01824
 C285 C 1.12439 0.93013 0.00052
 C286 C 1.08864 0.94714 0.00029
 H287 H 1.38772 0.84308 -0.06410
 H288 H 1.31409 0.87619 -0.06447
 H289 H 1.29572 0.83622 0.07091
 H290 H 1.36906 0.80257 0.07060
 H291 H 1.22396 0.82275 0.03822
 H292 H 1.14926 0.85343 0.03711
 H293 H 1.19683 0.96618 -0.03501
 H294 H 1.27181 0.93634 -0.03335
 C295 C 0.53856 0.77685 0.00169
 C296 C 0.57293 0.79706 0.00233
 C297 C 0.61509 0.81906 0.00329
 C298 C 0.64395 0.81183 0.03855
 C299 C 0.68613 0.83065 0.03838
 C300 C 0.70005 0.85696 0.00286
 C301 C 0.67054 0.86458 -0.03215
 C302 C 0.62837 0.84565 -0.03194
 C303 C 0.74536 0.87577 0.00204
 C304 C 0.75284 0.91907 -0.01285
 C305 C 0.79552 0.93667 -0.01364
 C306 C 0.83127 0.91126 0.00034
 C307 C 0.82426 0.86816 0.01514
 C308 C 0.78157 0.85049 0.01598
 C309 C 0.87490 0.92997 0.00012
 C310 C 0.91075 0.94718 -0.00001
 H311 H 0.63405 0.79118 0.06593
 H312 H 0.70783 0.82469 0.06609
 H313 H 0.68047 0.88427 -0.06019
 H314 H 0.60642 0.85115 -0.05958
 H315 H 0.72562 0.93952 -0.02328
 H316 H 0.80063 0.97017 -0.02496
 H317 H 0.85174 0.84825 0.02602
 H318 H 0.77695 0.81686 0.02704
 C319 C 0.95942 0.50010 0.27635
 C320 C 0.92475 0.49928 0.29576
 C321 C 0.88210 0.49818 0.31643
 C322 C 0.84637 0.47930 0.29388
 C323 C 0.80436 0.47949 0.31265
 C324 C 0.79746 0.49865 0.35434
 C325 C 0.83368 0.51719 0.37702
 C326 C 0.87574 0.51702 0.35810
 C327 C 0.75260 0.49941 0.37386
 C328 C 0.74638 0.49080 0.41897
 C329 C 0.70405 0.49102 0.43711
 C330 C 0.66745 0.49996 0.41049
 C331 C 0.67326 0.50879 0.36565
 C332 C 0.71556 0.50850 0.34741
 C333 C 0.62410 0.50017 0.42950
 C334 C 0.58847 0.50021 0.44688
 H335 H 0.85093 0.46464 0.26159
 H336 H 0.77731 0.46438 0.29468
 H337 H 0.82932 0.53258 0.40896
 H338 H 0.90314 0.53196 0.37573
 H339 H 0.77414 0.48320 0.44005
 H340 H 0.69984 0.48402 0.47186
 H341 H 0.64514 0.51596 0.34484
 H342 H 0.71936 0.51588 0.31272
 C343 C 0.03909 0.50216 0.27805
 C344 C 0.07298 0.50313 0.29891
 C345 C 0.11479 0.50424 0.32138
 C346 C 0.12802 0.46859 0.34731
 C347 C 0.17015 0.46825 0.36614
 C348 C 0.19966 0.50352 0.35904
 C349 C 0.18574 0.53951 0.33351
 C350 C 0.14361 0.53982 0.31480
 C351 C 0.24504 0.50241 0.37745
 C352 C 0.28119 0.51680 0.35209
 C353 C 0.32395 0.51568 0.36937
 C354 C 0.33109 0.50017 0.41215
 C355 C 0.29540 0.48574 0.43761
 C356 C 0.25265 0.48677 0.42039
 C357 C 0.37476 0.49986 0.43054
 C358 C 0.41063 0.49972 0.44755
 H359 H 0.10613 0.44068 0.35224
 H360 H 0.18008 0.43986 0.38522
 H361 H 0.20747 0.56742 0.32798
 H362 H 0.13376 0.56750 0.29461
 H363 H 0.27646 0.52843 0.31872
 H364 H 0.35138 0.52693 0.34943
 H365 H 0.30060 0.47395 0.47089
 H366 H 0.22548 0.47596 0.44088
 C367 C 0.96054 0.49872 0.72249
 C368 C 0.92647 0.49843 0.70193
 C369 C 0.88468 0.49804 0.67944
 C370 C 0.86767 0.53706 0.66195
 C371 C 0.82558 0.53733 0.64303
 C372 C 0.79989 0.49853 0.64155
 C373 C 0.81760 0.45933 0.65862
 C374 C 0.85969 0.45914 0.67747
 C375 C 0.75453 0.49914 0.62307
 C376 C 0.72019 0.47563 0.64375
 C377 C 0.67742 0.47636 0.62648
 C378 C 0.66844 0.50062 0.58841
 C379 C 0.70230 0.52417 0.56764
 C380 C 0.74507 0.52348 0.58482
 C381 C 0.62487 0.50051 0.56978
 C382 C 0.58905 0.50040 0.55266
 H383 H 0.88657 0.56745 0.66368
 H384 H 0.81268 0.56813 0.63066
 H385 H 0.79890 0.42882 0.65740
 H386 H 0.87248 0.42878 0.69108
 H387 H 0.72628 0.45710 0.67358
 H388 H 0.65142 0.45797 0.64275
 H389 H 0.69569 0.54284 0.53797
 H390 H 0.77087 0.54146 0.56786
 C391 C 0.04008 0.49839 0.72239
 C392 C 0.07404 0.49805 0.70178
 C393 C 0.11574 0.49777 0.67927
 C394 C 0.13819 0.45805 0.67315
 C395 C 0.18026 0.45806 0.65439
 C396 C 0.20050 0.49790 0.64165
 C397 C 0.17734 0.53760 0.64731
 C398 C 0.13526 0.53750 0.66605
 C399 C 0.24590 0.49811 0.62339
 C400 C 0.27642 0.53096 0.63609
 C401 C 0.31924 0.53103 0.61909
 C402 C 0.33210 0.49826 0.58931
 C403 C 0.30207 0.46541 0.57651
 C404 C 0.25924 0.46528 0.59345
 C405 C 0.37554 0.49908 0.57055
 C406 C 0.41122 0.49960 0.55328
 H407 H 0.12355 0.42715 0.68368
 H408 H 0.19744 0.42703 0.65098
 H409 H 0.19179 0.56872 0.63728
 H410 H 0.11824 0.56846 0.67083
 H411 H 0.26734 0.55631 0.65954
 H412 H 0.34224 0.55667 0.62907
 H413 H 0.31165 0.44010 0.55317
 H414 H 0.23638 0.43989 0.58263
 C415 C 0.49808 0.72185 0.04047
 C416 C 0.49788 0.70094 0.07422
 C417 C 0.49767 0.67819 0.11576
 C418 C 0.45785 0.67085 0.13786
 C419 C 0.45784 0.65206 0.17988
 C420 C 0.49776 0.64052 0.20044
 C421 C 0.53757 0.64736 0.17762
 C422 C 0.53749 0.66612 0.13559
 C423 C 0.49792 0.62235 0.24585
 C424 C 0.53005 0.63607 0.27660
 C425 C 0.53006 0.61918 0.31943
 C426 C 0.49795 0.58847 0.33208
 C427 C 0.46580 0.57467 0.30182
 C428 C 0.46573 0.59149 0.25898
 C429 C 0.49875 0.56986 0.37555
 C430 C 0.49929 0.55273 0.41127
 H431 H 0.42687 0.68050 0.12300
 H432 H 0.42671 0.64773 0.19679
 H433 H 0.56878 0.63826 0.19231
 H434 H 0.56853 0.67187 0.11885
 H435 H 0.55488 0.66025 0.26770
 H436 H 0.55516 0.62998 0.34261
 H437 H 0.44100 0.55062 0.31124
 H438 H 0.44090 0.57988 0.23594
 C439 C 0.49779 0.72295 0.96093
 C440 C 0.49723 0.70277 0.92660
 C441 C 0.49648 0.68068 0.88455
 C442 C 0.46001 0.68538 0.85668
 C443 C 0.46026 0.66655 0.81457
 C444 C 0.49710 0.64278 0.79972
 C445 C 0.53336 0.63766 0.82826
 C446 C 0.53305 0.65659 0.87037
 C447 C 0.49798 0.62407 0.75443
 C448 C 0.51561 0.58196 0.74658
 C449 C 0.51652 0.56450 0.70390
 C450 C 0.49993 0.58888 0.66852
 C451 C 0.48237 0.63079 0.67591
 C452 C 0.48140 0.64832 0.71859
 C453 C 0.50018 0.57023 0.62492
 C454 C 0.50029 0.55304 0.58911
 H455 H 0.43158 0.70409 0.86729
 H456 H 0.43162 0.67054 0.79362
 H457 H 0.56239 0.61999 0.81761
 H458 H 0.56162 0.65308 0.89154
 H459 H 0.52811 0.56228 0.77352
 H460 H 0.52996 0.53189 0.69852
 H461 H 0.46941 0.64988 0.64873
 H462 H 0.46817 0.68106 0.72348
 C463 C 0.50220 0.27674 0.03933
 C464 C 0.50270 0.29660 0.07385
 C465 C 0.50344 0.31819 0.11615
 C466 C 0.46971 0.34712 0.12813
 C467 C 0.46921 0.36590 0.17032
 C468 C 0.50241 0.35579 0.20111
 C469 C 0.53643 0.32706 0.18853
 C470 C 0.53689 0.30840 0.14635
 C471 C 0.50134 0.37471 0.24632
 C472 C 0.51213 0.34861 0.28306
 C473 C 0.51123 0.36647 0.32561
 C474 C 0.49955 0.41058 0.33195
 C475 C 0.48870 0.43679 0.29567
 C476 C 0.48951 0.41900 0.25313
 C477 C 0.49937 0.42947 0.37544
 C478 C 0.49933 0.44686 0.41116
 H479 H 0.44345 0.35463 0.10514
 H480 H 0.44232 0.38750 0.17919
 H481 H 0.56277 0.31913 0.21125
 H482 H 0.56309 0.28593 0.13745
 H483 H 0.52078 0.31425 0.27894
 H484 H 0.51968 0.34592 0.35351
 H485 H 0.47986 0.47107 0.30026
 H486 H 0.48157 0.44007 0.22551
 C487 C 0.50243 0.27817 0.95974
 C488 C 0.50312 0.29908 0.92599
 C489 C 0.50407 0.32173 0.88440
 C490 C 0.54165 0.31933 0.85782
 C491 C 0.54157 0.33815 0.81583
 C492 C 0.50381 0.35960 0.79981
 C493 C 0.46644 0.36254 0.82710
 C494 C 0.46657 0.34362 0.86909
 C495 C 0.50308 0.37796 0.75450
 C496 C 0.48310 0.41883 0.74604
 C497 C 0.48215 0.43585 0.70330
 C498 C 0.50106 0.41227 0.66847
 C499 C 0.52103 0.37162 0.67647
 C500 C 0.52204 0.35453 0.71921
 C501 C 0.50066 0.43049 0.62482
 C502 C 0.50034 0.44738 0.58898
 H503 H 0.57079 0.30228 0.86928
 H504 H 0.57103 0.33588 0.79585
 H505 H 0.43671 0.37837 0.81552
 H506 H 0.43715 0.34528 0.88923
 H507 H 0.46872 0.43788 0.77257
 H508 H 0.46685 0.46751 0.69744
 H509 H 0.53581 0.35316 0.64971
 H510 H 0.53713 0.32271 0.72456
 C511 C 0.72404 0.96126 0.49991
 C512 C 0.70471 0.92640 0.50049
 C513 C 0.68392 0.88364 0.50151
 C514 C 0.64484 0.87561 0.47816
 C515 C 0.62591 0.83341 0.47806
 C516 C 0.64599 0.79869 0.50122
 C517 C 0.68508 0.80727 0.52484
 C518 C 0.70387 0.84944 0.52495
 C519 C 0.62647 0.75366 0.50062
 C520 C 0.65365 0.71633 0.49693
 C521 C 0.63531 0.67391 0.49669
 C522 C 0.58965 0.66828 0.50017
 C523 C 0.56234 0.70516 0.50379
 C524 C 0.58058 0.74759 0.50396
 C525 C 0.57052 0.62483 0.50005
 C526 C 0.55304 0.58910 0.50002
 H527 H 0.62927 0.90180 0.45969
 H528 H 0.59606 0.82771 0.45919
 H529 H 0.70096 0.78143 0.54350
 H530 H 0.73415 0.85530 0.54312
 H531 H 0.68903 0.71996 0.49372
 H532 H 0.65670 0.64556 0.49374
 H533 H 0.52694 0.70109 0.50668
 H534 H 0.55886 0.77560 0.50738
 C535 C 0.72167 0.04086 0.49940
 C536 C 0.70039 0.07434 0.49919
 C537 C 0.67732 0.11565 0.49890
 C538 C 0.67042 0.13775 0.45907
 C539 C 0.65153 0.17970 0.45900
 C540 C 0.63946 0.20019 0.49885
 C541 C 0.64581 0.17734 0.53865
 C542 C 0.66468 0.13538 0.53864
 C543 C 0.62135 0.24559 0.49894
 C544 C 0.63469 0.27636 0.53126
 C545 C 0.61798 0.31923 0.53111
 C546 C 0.58784 0.33192 0.49866
 C547 C 0.57438 0.30163 0.46637
 C548 C 0.59102 0.25874 0.46645
 C549 C 0.56943 0.37546 0.49925
 C550 C 0.55245 0.41122 0.49965
 H551 H 0.68053 0.12298 0.42816
 H552 H 0.64759 0.19662 0.42788
 H553 H 0.63631 0.19198 0.56980
 H554 H 0.67011 0.11866 0.56968
 H555 H 0.65846 0.26744 0.55632
 H556 H 0.62849 0.34243 0.55633
 H557 H 0.55076 0.31107 0.44131
 H558 H 0.57970 0.23570 0.44148
 C559 C 0.27743 0.95904 0.50088
 C560 C 0.29830 0.92531 0.50112
 C561 C 0.32105 0.88382 0.50144
 C562 C 0.33468 0.86459 0.46179
 C563 C 0.35359 0.82264 0.46174
 C564 C 0.35895 0.79930 0.50141
 C565 C 0.34577 0.81925 0.54117
 C566 C 0.32691 0.86120 0.54114
 C567 C 0.37734 0.75402 0.50117
 C568 C 0.35913 0.72100 0.52827
 C569 C 0.37621 0.67827 0.52778
 C570 C 0.41161 0.66800 0.50019
 C571 C 0.42995 0.70055 0.47312
 C572 C 0.41295 0.74328 0.47356
 C573 C 0.43012 0.62450 0.50038
 C574 C 0.44718 0.58878 0.50041
 H575 H 0.32987 0.88162 0.43082
 H576 H 0.36289 0.80798 0.43054
 H577 H 0.35001 0.80239 0.57229
 H578 H 0.31627 0.87571 0.57201
 H579 H 0.33132 0.72808 0.54943
 H580 H 0.36186 0.65330 0.54892
 H581 H 0.45759 0.69296 0.45187
 H582 H 0.42804 0.76807 0.45276
 C583 C 0.27640 0.03866 0.50125
 C584 C 0.29639 0.07315 0.50195
 C585 C 0.31809 0.11546 0.50300
 C586 C 0.34691 0.12779 0.46918
 C587 C 0.36574 0.17001 0.46898
 C588 C 0.35578 0.20051 0.50256
 C589 C 0.32717 0.18757 0.53667
 C590 C 0.30846 0.14535 0.53684
 C591 C 0.37468 0.24579 0.50177
 C592 C 0.34859 0.28239 0.51306
 C593 C 0.36642 0.32502 0.51235
 C594 C 0.41047 0.33158 0.50037
 C595 C 0.43667 0.29544 0.48904
 C596 C 0.41892 0.25282 0.48967
 C597 C 0.42930 0.37515 0.50026
 C598 C 0.44667 0.41094 0.50019
 H599 H 0.35429 0.10503 0.44263
 H600 H 0.38724 0.17916 0.44202
 H601 H 0.31936 0.21007 0.56330
 H602 H 0.28608 0.13618 0.56311
 H603 H 0.31427 0.27809 0.52193
 H604 H 0.34588 0.35281 0.52115
 H605 H 0.47090 0.30020 0.47996
 H606 H 0.43997 0.22531 0.48133
   
