data_POSCAR
  _audit_creation_date              2014-09-24
  _audit_creation_method            'ToBaCCo'
  _symmetry_space_group_name_H-M    'P1'
  _symmetry_Int_Tables_number       1
  _symmetry_cell_setting            triclinic
  loop_
  _symmetry_equiv_pos_as_xyz
 x,y,z
_cell_length_a 48.0609
_cell_length_b 48.1486
_cell_length_c 48.3050
_cell_angle_alpha 89.998200
_cell_angle_beta 89.996400
_cell_angle_gamma 90.003300
loop_
  _atom_site_label
  _atom_site_type_symbol
  _atom_site_fract_x
  _atom_site_fract_y
  _atom_site_fract_z
N1 N 0.29408 0.23855 0.21652
 N2 N 0.28253 0.26074 0.20552
 C3 C 0.29755 0.26872 0.18334
 C4 C 0.31939 0.25031 0.18019
 C5 C 0.31657 0.23144 0.20153
 H6 H 0.29295 0.28643 0.17035
 H7 H 0.33004 0.21400 0.20594
 Cu8 Cu 0.24913 0.27662 0.22186
 Cu9 Cu 0.27963 0.22074 0.24989
 Cu10 Cu 0.21941 0.24899 0.27767
 N11 N 0.21641 0.29370 0.23847
 N12 N 0.20556 0.28328 0.26122
 C13 C 0.18364 0.29885 0.26894
 C14 C 0.18052 0.32002 0.24990
 C15 C 0.20162 0.31620 0.23082
 H16 H 0.17056 0.29474 0.28670
 H17 H 0.20580 0.32888 0.21281
 N18 N 0.23844 0.21667 0.29414
 N19 N 0.26146 0.20600 0.28358
 C20 C 0.26922 0.18401 0.29899
 C21 C 0.25009 0.18060 0.32004
 C22 C 0.23086 0.20158 0.31639
 H23 H 0.28719 0.17109 0.29500
 H24 H 0.21268 0.20543 0.32901
 H25 H 0.23913 0.23197 0.24359
 H26 H 0.26020 0.25535 0.26603
 N27 N 0.70542 -0.23873 0.21614
 N28 N 0.71642 -0.26143 0.20566
 C29 C 0.70130 -0.26943 0.18353
 C30 C 0.67996 -0.25048 0.17986
 C31 C 0.68323 -0.23126 0.20087
 H32 H 0.70559 -0.28745 0.17086
 H33 H 0.67027 -0.21334 0.20490
 Cu34 Cu 0.74974 -0.27772 0.22189
 Cu35 Cu 0.72021 -0.22084 0.24921
 Cu36 Cu 0.77901 -0.25050 0.27872
 N37 N 0.78305 -0.29406 0.23814
 N38 N 0.79382 -0.28375 0.26096
 C39 C 0.81587 -0.29921 0.26854
 C40 C 0.81933 -0.32014 0.24923
 C41 C 0.79819 -0.31625 0.23016
 H42 H 0.82869 -0.29531 0.28653
 H43 H 0.79401 -0.32885 0.21210
 N44 N 0.76099 -0.21682 0.29363
 N45 N 0.73832 -0.20584 0.28270
 C46 C 0.73071 -0.18360 0.29787
 C47 C 0.74963 -0.18033 0.31913
 C48 C 0.76857 -0.20164 0.31582
 H49 H 0.71286 -0.17058 0.29372
 H50 H 0.78638 -0.20585 0.32885
 H51 H 0.76080 -0.23347 0.24382
 H52 H 0.73829 -0.25582 0.26597
 N53 N 0.70594 0.23880 0.78307
 N54 N 0.71711 0.26136 0.79371
 C55 C 0.70206 0.26928 0.81589
 C56 C 0.68064 0.25045 0.81947
 C57 C 0.68373 0.23138 0.79834
 H58 H 0.70650 0.28712 0.82875
 H59 H 0.67067 0.21353 0.79430
 Cu60 Cu 0.75044 0.27767 0.77746
 Cu61 Cu 0.72077 0.22092 0.75002
 Cu62 Cu 0.77967 0.25050 0.72057
 N63 N 0.78377 0.29402 0.76121
 N64 N 0.79453 0.28375 0.73834
 C65 C 0.81662 0.29921 0.73082
 C66 C 0.82008 0.32012 0.75016
 C67 C 0.79889 0.31620 0.76920
 H68 H 0.82947 0.29530 0.71284
 H69 H 0.79474 0.32871 0.78733
 N70 N 0.76159 0.21683 0.70564
 N71 N 0.73888 0.20590 0.71654
 C72 C 0.73125 0.18367 0.70139
 C73 C 0.75019 0.18034 0.68015
 C74 C 0.76916 0.20162 0.68346
 H75 H 0.71339 0.17066 0.70553
 H76 H 0.78700 0.20577 0.67046
 H77 H 0.76147 0.23339 0.75548
 H78 H 0.73900 0.25587 0.73337
 N79 N 0.29445 -0.23875 0.78362
 N80 N 0.28335 -0.26136 0.79420
 C81 C 0.29831 -0.26918 0.81649
 C82 C 0.31975 -0.25038 0.82004
 C83 C 0.31666 -0.23131 0.79889
 H84 H 0.29392 -0.28706 0.82932
 H85 H 0.32975 -0.21350 0.79483
 Cu86 Cu 0.25006 -0.27770 0.77790
 Cu87 Cu 0.27967 -0.22088 0.75052
 Cu88 Cu 0.22077 -0.25047 0.72108
 N89 N 0.21670 -0.29403 0.76169
 N90 N 0.20589 -0.28369 0.73889
 C91 C 0.18379 -0.29912 0.73136
 C92 C 0.18030 -0.32004 0.75070
 C93 C 0.20145 -0.31611 0.76976
 H94 H 0.17098 -0.29522 0.71337
 H95 H 0.20562 -0.32868 0.78785
 N96 N 0.23888 -0.21685 0.70610
 N97 N 0.26159 -0.20591 0.71699
 C98 C 0.26920 -0.18366 0.70183
 C99 C 0.25024 -0.18035 0.68061
 C100 C 0.23129 -0.20164 0.68393
 H101 H 0.28705 -0.17064 0.70598
 H102 H 0.21343 -0.20579 0.67096
 H103 H 0.23903 -0.23343 0.75595
 H104 H 0.26148 -0.25580 0.73377
 N105 N 0.70612 -0.23863 0.78340
 N106 N 0.71726 -0.26120 0.79403
 C107 C 0.70230 -0.26902 0.81630
 C108 C 0.68089 -0.25019 0.81987
 C109 C 0.68395 -0.23115 0.79870
 H110 H 0.70670 -0.28689 0.82913
 H111 H 0.67082 -0.21337 0.79459
 Cu112 Cu 0.75037 -0.27780 0.77771
 Cu113 Cu 0.72084 -0.22085 0.75027
 Cu114 Cu 0.77964 -0.25042 0.72080
 N115 N 0.78383 -0.29383 0.76147
 N116 N 0.79456 -0.28355 0.73861
 C117 C 0.81667 -0.29896 0.73106
 C118 C 0.82017 -0.31983 0.75042
 C119 C 0.79904 -0.31593 0.76950
 H120 H 0.82942 -0.29512 0.71300
 H121 H 0.79490 -0.32847 0.78761
 N122 N 0.76152 -0.21685 0.70580
 N123 N 0.73883 -0.20592 0.71672
 C124 C 0.73119 -0.18370 0.70156
 C125 C 0.75010 -0.18041 0.68030
 C126 C 0.76908 -0.20168 0.68360
 H127 H 0.71334 -0.17068 0.70572
 H128 H 0.78692 -0.20583 0.67060
 H129 H 0.73895 -0.25588 0.73357
 H130 H 0.76145 -0.23351 0.75577
 N131 N 0.29439 0.23862 0.78316
 N132 N 0.28332 0.26126 0.79371
 C133 C 0.29830 0.26915 0.81594
 C134 C 0.31963 0.25027 0.81957
 C135 C 0.31655 0.23116 0.79847
 H136 H 0.29388 0.28701 0.82880
 H137 H 0.32961 0.21333 0.79444
 Cu138 Cu 0.25000 0.27755 0.77766
 Cu139 Cu 0.27953 0.22072 0.75017
 Cu140 Cu 0.22061 0.25016 0.72082
 N141 N 0.21694 0.29391 0.76115
 N142 N 0.20586 0.28330 0.73861
 C143 C 0.18361 0.29857 0.73124
 C144 C 0.18050 0.31971 0.75030
 C145 C 0.20193 0.31618 0.76903
 H146 H 0.17055 0.29451 0.71347
 H147 H 0.20622 0.32898 0.78694
 N148 N 0.23869 0.21663 0.70587
 N149 N 0.26141 0.20571 0.71674
 C150 C 0.26903 0.18351 0.70154
 C151 C 0.25007 0.18023 0.68033
 C152 C 0.23110 0.20148 0.68367
 H153 H 0.28691 0.17051 0.70564
 H154 H 0.21325 0.20566 0.67069
 H155 H 0.26120 0.25575 0.73350
 H156 H 0.23877 0.23333 0.75573
 N157 N 0.29450 -0.23867 0.21700
 N158 N 0.28342 -0.26128 0.20643
 C159 C 0.29841 -0.26918 0.18420
 C160 C 0.31983 -0.25037 0.18066
 C161 C 0.31673 -0.23126 0.20176
 H162 H 0.29402 -0.28708 0.17141
 H163 H 0.32980 -0.21345 0.20581
 Cu164 Cu 0.25009 -0.27754 0.22251
 Cu165 Cu 0.27963 -0.22078 0.25001
 Cu166 Cu 0.22064 -0.25014 0.27929
 N167 N 0.21695 -0.29385 0.23891
 N168 N 0.20585 -0.28323 0.26144
 C169 C 0.18363 -0.29850 0.26883
 C170 C 0.18053 -0.31962 0.24977
 C171 C 0.20192 -0.31609 0.23101
 H172 H 0.17054 -0.29443 0.28657
 H173 H 0.20628 -0.32892 0.21315
 N174 N 0.23873 -0.21664 0.29427
 N175 N 0.26148 -0.20574 0.28343
 C176 C 0.26910 -0.18354 0.29863
 C177 C 0.25011 -0.18025 0.31982
 C178 C 0.23112 -0.20148 0.31646
 H179 H 0.28700 -0.17056 0.29456
 H180 H 0.21325 -0.20566 0.32941
 H181 H 0.26122 -0.25575 0.26670
 H182 H 0.23888 -0.23334 0.24445
 N183 N 0.70562 0.23854 0.21673
 N184 N 0.71673 0.26114 0.20617
 C185 C 0.70175 0.26909 0.18396
 C186 C 0.68032 0.25029 0.18039
 C187 C 0.68338 0.23117 0.20148
 H188 H 0.70613 0.28702 0.17120
 H189 H 0.67029 0.21336 0.20551
 Cu190 Cu 0.74991 0.27746 0.22246
 Cu191 Cu 0.72042 0.22065 0.24979
 Cu192 Cu 0.77936 0.25010 0.27918
 N193 N 0.78307 0.29376 0.23876
 N194 N 0.79413 0.28319 0.26132
 C195 C 0.81628 0.29855 0.26876
 C196 C 0.81936 0.31968 0.24970
 C197 C 0.79802 0.31608 0.23090
 H198 H 0.82934 0.29453 0.28655
 H199 H 0.79365 0.32892 0.21305
 N200 N 0.76127 0.21656 0.29412
 N201 N 0.73854 0.20564 0.28324
 C202 C 0.73093 0.18342 0.29842
 C203 C 0.74990 0.18014 0.31962
 C204 C 0.76887 0.20140 0.31630
 H205 H 0.71306 0.17042 0.29431
 H206 H 0.78672 0.20557 0.32927
 H207 H 0.73874 0.25564 0.26660
 H208 H 0.76114 0.23326 0.24439
 O209 O 0.27299 0.02695 0.47303
 O210 O 0.27310 -0.02697 0.52715
 O211 O 0.27303 -0.02696 0.47305
 O212 O 0.27302 0.02694 0.52711
 O213 O 0.22705 0.02707 0.52697
 O214 O 0.22706 -0.02718 0.47326
 O215 O 0.22713 -0.02718 0.52703
 O216 O 0.22702 0.02706 0.47322
 Cu217 Cu 0.27766 -0.00001 0.50008
 Cu218 Cu 0.22245 -0.00007 0.50013
 C219 C 0.24999 0.03620 0.46395
 C220 C 0.25013 -0.03626 0.53628
 C221 C 0.25005 -0.03625 0.46398
 C222 C 0.25003 0.03619 0.53621
 O223 O 0.72688 0.02680 0.52692
 O224 O 0.72677 -0.02712 0.47277
 O225 O 0.72687 -0.02713 0.52690
 O226 O 0.72688 0.02680 0.47282
 O227 O 0.77285 0.02692 0.47295
 O228 O 0.77284 -0.02734 0.52669
 O229 O 0.77274 -0.02733 0.47289
 O230 O 0.77285 0.02693 0.52671
 Cu231 Cu 0.72224 -0.00016 0.49986
 Cu232 Cu 0.77744 -0.00022 0.49980
 C233 C 0.74988 0.03606 0.53599
 C234 C 0.74974 -0.03640 0.46362
 C235 C 0.74985 -0.03642 0.53598
 C236 C 0.74987 0.03605 0.46372
 O237 O 0.47285 0.27368 0.02680
 O238 O 0.52720 0.27368 -0.02695
 O239 O 0.47286 0.27373 -0.02693
 O240 O 0.52717 0.27372 0.02681
 O241 O 0.52701 0.22782 0.02696
 O242 O 0.47302 0.22784 -0.02707
 O243 O 0.52703 0.22779 -0.02713
 O244 O 0.47303 0.22779 0.02699
 Cu245 Cu 0.50003 0.27832 -0.00007
 Cu246 Cu 0.50003 0.22319 -0.00007
 C247 C 0.46374 0.25074 0.03607
 C248 C 0.53632 0.25073 -0.03622
 C249 C 0.46374 0.25078 -0.03616
 C250 C 0.53628 0.25077 0.03606
 O251 O 0.52773 0.72632 0.02727
 O252 O 0.47330 0.72633 -0.02643
 O253 O 0.52765 0.72634 -0.02648
 O254 O 0.47337 0.72625 0.02734
 O255 O 0.47343 0.77214 0.02748
 O256 O 0.52751 0.77223 -0.02653
 O257 O 0.47347 0.77221 -0.02661
 O258 O 0.52741 0.77220 0.02760
 Cu259 Cu 0.50051 0.72170 0.00042
 Cu260 Cu 0.50046 0.77681 0.00048
 C261 C 0.53677 0.74926 0.03662
 C262 C 0.46417 0.74927 -0.03570
 C263 C 0.53678 0.74930 -0.03568
 C264 C 0.46420 0.74917 0.03658
 O265 O 0.02651 0.47333 0.27207
 O266 O -0.02753 0.52759 0.27193
 O267 O -0.02741 0.47334 0.27203
 O268 O 0.02650 0.52749 0.27202
 O269 O 0.02672 0.52728 0.22627
 O270 O -0.02751 0.47344 0.22628
 O271 O -0.02766 0.52735 0.22619
 O272 O 0.02673 0.47345 0.22633
 Cu273 Cu -0.00050 0.50046 0.27663
 Cu274 Cu -0.00043 0.50040 0.22166
 C275 C 0.03582 0.46419 0.24922
 C276 C -0.03683 0.53665 0.24903
 C277 C -0.03660 0.46417 0.24915
 C278 C 0.03585 0.53651 0.24914
 O279 O 0.02700 0.52752 0.72804
 O280 O -0.02714 0.47315 0.72796
 O281 O -0.02712 0.52751 0.72801
 O282 O 0.02688 0.47327 0.72799
 O283 O 0.02701 0.47337 0.77373
 O284 O -0.02732 0.52732 0.77375
 O285 O -0.02735 0.47330 0.77369
 O286 O 0.02715 0.52730 0.77377
 Cu287 Cu -0.00011 0.50038 0.72341
 Cu288 Cu -0.00014 0.50034 0.77831
 C289 C 0.03635 0.53659 0.75092
 C290 C -0.03644 0.46397 0.75081
 C291 C -0.03644 0.53661 0.75088
 C292 C 0.03615 0.46413 0.75086
 C293 C 0.38082 0.25073 0.11891
 N294 N 0.37763 0.22844 0.13582
 N295 N 0.35814 0.22840 0.15542
 C296 C 0.34099 0.25055 0.15869
 N297 N 0.34410 0.27281 0.14173
 N298 N 0.36375 0.27295 0.12226
 C299 C 0.40237 0.25076 0.09737
 N300 N 0.40891 0.27450 0.08369
 N301 N 0.42855 0.27452 0.06421
 C302 C 0.44220 0.25075 0.05758
 N303 N 0.43559 0.22698 0.07119
 N304 N 0.41610 0.22701 0.09081
 C305 C 0.61973 0.74929 0.11948
 N306 N 0.62161 0.77066 0.13771
 N307 N 0.64107 0.77065 0.15735
 C308 C 0.65955 0.74941 0.15936
 N309 N 0.65774 0.72809 0.14102
 N310 N 0.63811 0.72797 0.12153
 C311 C 0.59818 0.74926 0.09792
 N312 N 0.59237 0.72576 0.08351
 N313 N 0.57271 0.72572 0.06406
 C314 C 0.55832 0.74925 0.05815
 N315 N 0.56421 0.77278 0.07247
 N316 N 0.58370 0.77276 0.09209
 C317 C 0.61933 0.25070 -0.11906
 N318 N 0.62276 0.22828 -0.13575
 N319 N 0.64225 0.22825 -0.15537
 C320 C 0.65916 0.25055 -0.15888
 N321 N 0.65581 0.27294 -0.14213
 N322 N 0.63618 0.27306 -0.12263
 C323 C 0.59775 0.25074 -0.09752
 N324 N 0.59107 0.27452 -0.08396
 N325 N 0.57142 0.27454 -0.06449
 C326 C 0.55788 0.25074 -0.05774
 N327 N 0.56461 0.22694 -0.07123
 N328 N 0.58412 0.22696 -0.09084
 C329 C 0.38115 0.74933 -0.11856
 N330 N 0.37771 0.77175 -0.13524
 N331 N 0.35821 0.77179 -0.15485
 C332 C 0.34129 0.74949 -0.15835
 N333 N 0.34464 0.72710 -0.14159
 N334 N 0.36429 0.72698 -0.12212
 C335 C 0.40274 0.74928 -0.09702
 N336 N 0.40941 0.72549 -0.08346
 N337 N 0.42905 0.72547 -0.06398
 C338 C 0.44260 0.74927 -0.05721
 N339 N 0.43586 0.77307 -0.07071
 N340 N 0.41637 0.77306 -0.09032
 C341 C 0.11890 0.38127 0.24942
 N342 N 0.13572 0.37767 0.22712
 N343 N 0.15545 0.35823 0.22730
 C344 C 0.15895 0.34159 0.24972
 N345 N 0.14205 0.34511 0.27196
 N346 N 0.12246 0.36467 0.27186
 C347 C 0.09728 0.40279 0.24934
 N348 N 0.08367 0.40953 0.27303
 N349 N 0.06414 0.42917 0.27301
 C350 C 0.05739 0.44264 0.24926
 N351 N 0.07091 0.43582 0.22554
 N352 N 0.09058 0.41632 0.22560
 C353 C 0.11992 0.61940 0.75095
 N354 N 0.13770 0.62205 0.77264
 N355 N 0.15738 0.64157 0.77251
 C356 C 0.15984 0.65938 0.75082
 N357 N 0.14194 0.65678 0.72921
 N358 N 0.12246 0.63708 0.72920
 C359 C 0.09826 0.59778 0.75096
 N360 N 0.08447 0.59127 0.72730
 N361 N 0.06485 0.57170 0.72726
 C362 C 0.05810 0.55808 0.75094
 N363 N 0.07183 0.56465 0.77464
 N364 N 0.09162 0.58406 0.77462
 C365 C -0.12019 0.61947 0.24893
 N366 N -0.13800 0.62205 0.22726
 N367 N -0.15773 0.64152 0.22740
 C368 C -0.16018 0.65933 0.24908
 N369 N -0.14224 0.65680 0.27067
 N370 N -0.12272 0.63715 0.27066
 C371 C -0.09852 0.59792 0.24891
 N372 N -0.08475 0.59143 0.27258
 N373 N -0.06518 0.57183 0.27264
 C374 C -0.05848 0.55817 0.24897
 N375 N -0.07216 0.56475 0.22527
 N376 N -0.09191 0.58419 0.22526
 C377 C -0.11952 0.38066 0.75064
 N378 N -0.13735 0.37797 0.77229
 N379 N -0.15703 0.35845 0.77209
 C380 C -0.15943 0.34068 0.75037
 N381 N -0.14149 0.34332 0.72880
 N382 N -0.12202 0.36302 0.72886
 C383 C -0.09789 0.40231 0.75073
 N384 N -0.08410 0.40892 0.72709
 N385 N -0.06461 0.42862 0.72709
 C386 C -0.05800 0.44228 0.75079
 N387 N -0.07168 0.43557 0.77447
 N388 N -0.09135 0.41603 0.77441
 C389 C 0.24988 0.11902 0.38109
 N390 N 0.27244 0.12270 0.36457
 N391 N 0.27245 0.14225 0.34505
 C392 C 0.24999 0.15896 0.34147
 N393 N 0.22745 0.15532 0.35802
 N394 N 0.22736 0.13564 0.37742
 C395 C 0.24989 0.09747 0.40261
 N396 N 0.22605 0.09070 0.41610
 N397 N 0.22606 0.07110 0.43558
 C398 C 0.24995 0.05772 0.44243
 N399 N 0.27381 0.06456 0.42901
 N400 N 0.27376 0.08401 0.40939
 C401 C 0.75003 0.11895 0.61885
 N402 N 0.77248 0.13571 0.62233
 N403 N 0.77249 0.15532 0.64179
 C404 C 0.75013 0.15877 0.65862
 N405 N 0.72772 0.14195 0.65521
 N406 N 0.72763 0.12246 0.63562
 C407 C 0.74999 0.09739 0.59732
 N408 N 0.72614 0.08382 0.59065
 N409 N 0.72609 0.06435 0.57104
 C410 C 0.74992 0.05760 0.55751
 N411 N 0.77378 0.07110 0.56425
 N412 N 0.77379 0.09071 0.58372
 C413 C 0.25023 -0.11900 0.61927
 N414 N 0.22781 -0.13579 0.62280
 N415 N 0.22785 -0.15538 0.64228
 C416 C 0.25024 -0.15878 0.65908
 N417 N 0.27263 -0.14193 0.65562
 N418 N 0.27267 -0.12247 0.63601
 C419 C 0.25022 -0.09748 0.59771
 N420 N 0.27403 -0.08388 0.59098
 N421 N 0.27403 -0.06445 0.57133
 C422 C 0.25017 -0.05776 0.55783
 N423 N 0.22634 -0.07128 0.56463
 N424 N 0.22638 -0.09086 0.58414
 C425 C 0.74960 -0.11906 0.38054
 N426 N 0.77201 -0.13586 0.37702
 N427 N 0.77197 -0.15544 0.35753
 C428 C 0.74961 -0.15880 0.34070
 N429 N 0.72723 -0.14194 0.34415
 N430 N 0.72718 -0.12250 0.36378
 C431 C 0.74962 -0.09755 0.40213
 N432 N 0.72582 -0.08395 0.40886
 N433 N 0.72583 -0.06454 0.42853
 C434 C 0.74969 -0.05788 0.44204
 N435 N 0.77352 -0.07141 0.43523
 N436 N 0.77346 -0.09096 0.41571
 C437 C 0.61962 0.74945 -0.11866
 N438 N 0.63647 0.72711 -0.12227
 N439 N 0.65607 0.72724 -0.14179
 C440 C 0.65938 0.74965 -0.15853
 N441 N 0.64246 0.77194 -0.15500
 N442 N 0.62300 0.77188 -0.13535
 C443 C 0.59809 0.74939 -0.09708
 N444 N 0.58448 0.77316 -0.09034
 N445 N 0.56503 0.77316 -0.07069
 C446 C 0.55832 0.74934 -0.05721
 N447 N 0.57184 0.72554 -0.06403
 N448 N 0.59145 0.72559 -0.08354
 C449 C 0.38082 0.25061 -0.11894
 N450 N 0.36398 0.27296 -0.12256
 N451 N 0.34439 0.27282 -0.14208
 C452 C 0.34109 0.25041 -0.15880
 N453 N 0.35799 0.22811 -0.15525
 N454 N 0.37744 0.22817 -0.13561
 C455 C 0.40234 0.25069 -0.09740
 N456 N 0.41597 0.22693 -0.09070
 N457 N 0.43547 0.22694 -0.07111
 C458 C 0.44219 0.25076 -0.05765
 N459 N 0.42864 0.27455 -0.06442
 N460 N 0.40900 0.27450 -0.08388
 C461 C 0.38112 0.74925 0.11927
 N462 N 0.37770 0.77170 0.13592
 N463 N 0.35821 0.77176 0.15552
 C464 C 0.34130 0.74947 0.15905
 N465 N 0.34462 0.72705 0.14233
 N466 N 0.36426 0.72690 0.12285
 C467 C 0.40271 0.74919 0.09777
 N468 N 0.40941 0.72538 0.08425
 N469 N 0.42910 0.72535 0.06483
 C470 C 0.44264 0.74915 0.05808
 N471 N 0.43587 0.77297 0.07153
 N472 N 0.41633 0.77296 0.09109
 C473 C 0.61917 0.25066 0.11888
 N474 N 0.63601 0.27301 0.12250
 N475 N 0.65559 0.27288 0.14203
 C476 C 0.65889 0.25046 0.15876
 N477 N 0.64199 0.22816 0.15519
 N478 N 0.62255 0.22822 0.13554
 C479 C 0.59764 0.25072 0.09734
 N480 N 0.58402 0.22695 0.09064
 N481 N 0.56453 0.22695 0.07104
 C482 C 0.55781 0.25077 0.05757
 N483 N 0.57134 0.27456 0.06434
 N484 N 0.59098 0.27452 0.08380
 C485 C -0.11960 0.61958 0.75074
 N486 N -0.12211 0.63721 0.72895
 N487 N -0.14156 0.65692 0.72892
 C488 C -0.15943 0.65958 0.75055
 N489 N -0.15702 0.64181 0.77227
 N490 N -0.13737 0.62228 0.77243
 C491 C -0.09801 0.59797 0.75080
 N492 N -0.09145 0.58427 0.77448
 N493 N -0.07175 0.56480 0.77454
 C494 C -0.05804 0.55816 0.75086
 N495 N -0.06469 0.57177 0.72716
 N496 N -0.08423 0.59140 0.72715
 C497 C -0.11932 0.38111 0.24927
 N498 N -0.13616 0.37753 0.22700
 N499 N -0.15581 0.35802 0.22716
 C500 C -0.15917 0.34130 0.24953
 N501 N -0.14228 0.34483 0.27176
 N502 N -0.12277 0.36446 0.27168
 C503 C -0.09779 0.40265 0.24920
 N504 N -0.08421 0.40939 0.27290
 N505 N -0.06474 0.42908 0.27290
 C506 C -0.05804 0.44257 0.24916
 N507 N -0.07151 0.43574 0.22542
 N508 N -0.09112 0.41619 0.22546
 C509 C 0.11917 0.38120 0.75068
 N510 N 0.12262 0.36453 0.72829
 N511 N 0.14211 0.34487 0.72822
 C512 C 0.15899 0.34132 0.75046
 N513 N 0.15563 0.35806 0.77282
 N514 N 0.13600 0.37759 0.77297
 C515 C 0.09761 0.40276 0.75076
 N516 N 0.09092 0.41630 0.77450
 N517 N 0.07126 0.43580 0.77455
 C518 C 0.05772 0.44260 0.75083
 N519 N 0.06448 0.42914 0.72708
 N520 N 0.08400 0.40950 0.72707
 C521 C 0.11915 0.61900 0.24931
 N522 N 0.12257 0.63568 0.27170
 N523 N 0.14209 0.65530 0.27178
 C524 C 0.15902 0.65880 0.24956
 N525 N 0.15567 0.64206 0.22720
 N526 N 0.13601 0.62256 0.22704
 C527 C 0.09756 0.59751 0.24923
 N528 N 0.09086 0.58397 0.22551
 N529 N 0.07111 0.56457 0.22545
 C530 C 0.05750 0.55789 0.24916
 N531 N 0.06429 0.57134 0.27291
 N532 N 0.08390 0.59088 0.27292
 C533 C 0.74997 -0.11910 0.61896
 N534 N 0.77241 -0.13586 0.62245
 N535 N 0.77241 -0.15545 0.64193
 C536 C 0.75006 -0.15885 0.65877
 N537 N 0.72766 -0.14202 0.65536
 N538 N 0.72757 -0.12257 0.63575
 C539 C 0.74992 -0.09759 0.59740
 N540 N 0.72609 -0.08402 0.59072
 N541 N 0.72604 -0.06460 0.57107
 C542 C 0.74987 -0.05791 0.55752
 N543 N 0.77372 -0.07141 0.56427
 N544 N 0.77373 -0.09097 0.58378
 C545 C 0.25007 -0.11900 0.38114
 N546 N 0.22764 -0.13577 0.37761
 N547 N 0.22770 -0.15537 0.35813
 C548 C 0.25010 -0.15875 0.34136
 N549 N 0.27249 -0.14192 0.34482
 N550 N 0.27251 -0.12246 0.36442
 C551 C 0.25006 -0.09749 0.40267
 N552 N 0.27388 -0.08390 0.40935
 N553 N 0.27390 -0.06445 0.42896
 C554 C 0.25005 -0.05775 0.44246
 N555 N 0.22621 -0.07126 0.43571
 N556 N 0.22623 -0.09086 0.41624
 C557 C 0.74989 0.11887 0.38093
 N558 N 0.77233 0.13564 0.37742
 N559 N 0.77229 0.15524 0.35795
 C560 C 0.74989 0.15863 0.34116
 N561 N 0.72750 0.14181 0.34461
 N562 N 0.72746 0.12235 0.36421
 C563 C 0.74989 0.09735 0.40245
 N564 N 0.72606 0.08378 0.40914
 N565 N 0.72603 0.06431 0.42874
 C566 C 0.74988 0.05757 0.44222
 N567 N 0.77373 0.07107 0.43546
 N568 N 0.77372 0.09068 0.41600
 C569 C 0.25004 0.11897 0.61901
 N570 N 0.22761 0.13574 0.62254
 N571 N 0.22767 0.15534 0.64201
 C572 C 0.25007 0.15872 0.65879
 N573 N 0.27245 0.14189 0.65534
 N574 N 0.27248 0.12243 0.63573
 C575 C 0.25003 0.09746 0.59748
 N576 N 0.27386 0.08389 0.59079
 N577 N 0.27388 0.06444 0.57118
 C578 C 0.25003 0.05771 0.55770
 N579 N 0.22618 0.07120 0.56446
 N580 N 0.22620 0.09080 0.58393
   
