data_POSCAR
  _audit_creation_date              2014-09-24
  _audit_creation_method            'ToBaCCo'
  _symmetry_space_group_name_H-M    'P1'
  _symmetry_Int_Tables_number       1
  _symmetry_cell_setting            triclinic
  loop_
  _symmetry_equiv_pos_as_xyz
 x,y,z
_cell_length_a 27.4898
_cell_length_b 26.8466
_cell_length_c 70.1678
_cell_angle_alpha 85.289200
_cell_angle_beta 91.341700
_cell_angle_gamma 120.407100
loop_
  _atom_site_label
  _atom_site_type_symbol
  _atom_site_fract_x
  _atom_site_fract_y
  _atom_site_fract_z
C1 C -0.05576 0.05862 0.53272
 H2 H -0.03502 0.03692 0.53946
 C3 C -0.06459 0.09556 0.54308
 H4 H -0.05146 0.10118 0.55780
 C5 C -0.09572 0.08008 0.50523
 H6 H -0.10524 0.07617 0.49021
 C7 C -0.10713 0.11604 0.51532
 H8 H -0.12671 0.13853 0.50816
 N9 N -0.07121 0.05146 0.51412
 C10 C -0.08387 -0.08485 0.52890
 H11 H -0.12503 -0.09172 0.52503
 C12 C -0.07907 -0.11990 0.54368
 H13 H -0.11691 -0.15394 0.55111
 C14 C 0.01541 -0.03079 0.52419
 H15 H 0.05209 0.00501 0.51684
 C16 C 0.02220 -0.06493 0.53899
 H17 H 0.06441 -0.05469 0.54282
 Zn18 Zn -0.05084 0.00501 0.50097
 N19 N -0.03710 -0.04125 0.51954
 C20 C 0.04317 0.03222 0.47727
 N21 N 0.01449 0.05438 0.48536
 C22 C 0.03000 0.11107 0.48161
 C23 C 0.07411 0.14716 0.46868
 C24 C 0.08786 0.06681 0.46438
 C25 C -0.15958 -0.04834 0.48309
 C26 C -0.19966 -0.08549 0.47065
 C27 C -0.13804 -0.12197 0.46417
 C28 C -0.09900 -0.08362 0.47650
 N29 N -0.10953 -0.04676 0.48534
 H30 H 0.03129 -0.01250 0.48071
 H31 H 0.00730 0.12833 0.48825
 H32 H 0.08363 0.19134 0.46590
 H33 H 0.10928 0.04765 0.45791
 H34 H -0.16885 -0.02104 0.49086
 H35 H -0.23866 -0.08500 0.46876
 H36 H -0.12656 -0.14880 0.45704
 H37 H -0.06000 -0.08333 0.47899
 C38 C -0.02566 -0.11013 0.54899
 C39 C -0.09050 0.12472 0.53434
 C40 C -0.18921 -0.12286 0.46084
 C41 C 0.10331 0.12489 0.45952
 C42 C 1.13202 0.04130 0.14271
 H43 H 1.14010 0.08491 0.14355
 C44 C 1.16756 0.03178 0.13165
 H45 H 1.20233 0.06872 0.12394
 C46 C 1.07375 -0.05951 0.15084
 H47 H 1.03641 -0.09488 0.15804
 C48 C 1.10834 -0.07105 0.13995
 H49 H 1.09744 -0.11554 0.13890
 N50 N 1.08570 -0.00406 0.15174
 C51 C 0.95541 0.04356 0.15034
 H52 H 0.94646 0.04318 0.16530
 C53 C 0.92333 0.05320 0.13633
 H54 H 0.89067 0.06145 0.14063
 C55 C 1.00795 0.03214 0.12655
 H56 H 1.03995 0.02266 0.12265
 C57 C 0.97775 0.04260 0.11215
 H58 H 0.98730 0.04155 0.09734
 Zn59 Zn 1.03640 0.01310 0.16421
 N60 N 0.99637 0.03250 0.14528
 C61 C 1.07116 0.12020 0.18072
 N62 N 1.08110 0.07592 0.17925
 C63 C 1.12363 0.07409 0.18894
 C64 C 1.15715 0.11675 0.20109
 C65 C 1.10349 0.16377 0.19283
 C66 C 0.92833 -0.07756 0.17808
 C67 C 0.89042 -0.11931 0.19178
 C68 C 0.96970 -0.11044 0.20996
 C69 C 1.00594 -0.06850 0.19601
 N70 N 0.98492 -0.05155 0.18074
 H71 H 1.03774 0.12154 0.17276
 H72 H 1.13146 0.03904 0.18730
 H73 H 1.18920 0.11208 0.20882
 H74 H 1.09408 0.19803 0.19403
 H75 H 0.91217 -0.06515 0.16556
 H76 H 0.84596 -0.13734 0.18927
 H77 H 0.98774 -0.12174 0.22228
 H78 H 1.05096 -0.04833 0.19770
 C79 C 0.93415 0.05209 0.11695
 C80 C 1.15560 -0.02519 0.13000
 C81 C 0.91098 -0.13525 0.20837
 C82 C 1.14706 0.16246 0.20338
 C83 C 0.04827 0.93949 0.86408
 H84 H 0.00880 0.89895 0.86509
 C85 C 0.09140 0.94694 0.87650
 H86 H 0.08342 0.91246 0.88733
 C87 C 0.10597 1.03337 0.84881
 H88 H 0.11192 1.06678 0.83788
 C89 C 0.15021 1.04281 0.86105
 H90 H 0.18958 1.08378 0.85955
 N91 N 0.05585 0.98255 0.85067
 C92 C -0.08459 0.99688 0.84881
 H93 H -0.06555 1.03390 0.83849
 C94 C -0.12564 0.99141 0.86155
 H95 H -0.13575 1.02547 0.86050
 C96 C -0.09373 0.90866 0.86204
 H97 H -0.08184 0.87603 0.86201
 C98 C -0.13531 0.90105 0.87494
 H99 H -0.15400 0.86269 0.88490
 Zn100 Zn -0.00560 0.96896 0.83450
 N101 N -0.06780 0.95702 0.84973
 C102 C -0.07797 0.87446 0.81341
 N103 N -0.02681 0.90172 0.82175
 C104 C 0.01159 0.88482 0.81964
 C105 C -0.00020 0.83964 0.80839
 C106 C -0.09157 0.82911 0.80197
 C107 C 0.03299 1.08663 0.82101
 C108 C 0.04511 1.13211 0.80716
 C109 C 0.02545 1.06661 0.78267
 C110 C 0.01315 1.02239 0.79698
 N111 N 0.01615 1.03265 0.81575
 H112 H -0.10747 0.88929 0.81514
 H113 H 0.05249 0.90797 0.82606
 H114 H 0.03261 0.82947 0.80661
 H115 H -0.13204 0.80908 0.79506
 H116 H 0.03588 1.09415 0.83601
 H117 H 0.05714 1.17436 0.81174
 H118 H 0.02038 1.05545 0.76804
 H119 H 0.00026 0.97951 0.79298
 C120 C -0.15087 0.94352 0.87535
 C121 C 0.14328 0.99924 0.87506
 C122 C 0.04115 1.12259 0.78763
 C123 C -0.05220 0.81153 0.79901
 C124 C 0.38570 -0.01207 0.00135
 C125 C 0.40424 -0.02194 -0.01562
 C126 C 0.45453 -0.02336 -0.01574
 C127 C 0.48975 -0.00910 0.00034
 C128 C 0.47117 0.00364 0.01691
 C129 C 0.41824 -0.00079 0.01782
 C130 C 0.54547 -0.00711 -0.00015
 C131 C 0.57172 -0.01155 0.01695
 C132 C 0.62542 -0.00547 0.01668
 C133 C 0.65099 -0.00107 -0.00091
 C134 C 0.62445 -0.00019 -0.01815
 C135 C 0.57342 -0.00027 -0.01767
 H136 H 0.34589 -0.01306 0.00170
 H137 H 0.46589 -0.03492 -0.02861
 H138 H 0.49713 0.01665 0.02939
 H139 H 0.55137 -0.01892 0.03071
 H140 H 0.69160 0.00169 -0.00115
 H141 H 0.55590 0.00468 -0.03115
 C142 C 0.01799 0.64063 0.67486
 C143 C 0.00212 0.59866 0.69039
 C144 C -0.00078 0.54602 0.68778
 C145 C 0.01239 0.53488 0.66990
 C146 C 0.02785 0.57764 0.65450
 C147 C 0.02895 0.62967 0.65669
 C148 C 0.00868 0.47834 0.66724
 C149 C -0.00595 0.45411 0.64946
 C150 C -0.01100 0.40043 0.64706
 C151 C -0.00156 0.37022 0.66258
 C152 C 0.01458 0.39409 0.68032
 C153 C 0.01939 0.44789 0.68252
 H154 H 0.02322 0.68241 0.67708
 H155 H -0.01447 0.51342 0.69973
 H156 H 0.03886 0.57069 0.64065
 H157 H -0.01495 0.47597 0.63745
 H158 H -0.00618 0.32849 0.66065
 H159 H 0.03270 0.46638 0.69614
 C160 C 0.62258 0.64642 0.33266
 C161 C 0.59796 0.62645 0.31508
 C162 C 0.54461 0.57629 0.31498
 C163 C 0.51791 0.54243 0.33211
 C164 C 0.54544 0.56177 0.34950
 C165 C 0.59611 0.61474 0.34992
 C166 C 0.46184 0.48739 0.33183
 C167 C 0.42515 0.46555 0.34801
 C168 C 0.37382 0.41296 0.34812
 C169 C 0.35622 0.38453 0.33123
 C170 C 0.39081 0.40638 0.31472
 C171 C 0.44431 0.45603 0.31539
 H172 H 0.66250 0.68650 0.33297
 H173 H 0.52465 0.56380 0.30136
 H174 H 0.52763 0.53636 0.36291
 H175 H 0.43622 0.48876 0.36077
 H176 H 0.31569 0.34518 0.33094
 H177 H 0.47173 0.47000 0.30289
 C178 C -0.09951 0.16446 0.54496
 C179 C -0.05075 0.20742 0.55749
 C180 C -0.05384 0.24172 0.57452
 C181 C -0.00495 0.29115 0.57991
 C182 C -0.00591 0.31840 0.59589
 C183 C -0.05564 0.29581 0.60699
 C184 C -0.10476 0.24672 0.60143
 C185 C -0.10410 0.22040 0.58510
 C186 C -0.05523 0.31949 0.62528
 C187 C -0.02204 0.37833 0.62791
 H188 H -0.00175 0.21982 0.55631
 H189 H 0.03423 0.30800 0.57193
 H190 H 0.03289 0.35546 0.60007
 H191 H -0.14336 0.22831 0.60990
 H192 H -0.14204 0.18195 0.58119
 H193 H -0.08082 0.28963 0.63711
 H194 H -0.07490 0.18815 0.55221
 H195 H -0.00279 0.40918 0.61559
 C196 C 0.87612 0.82752 0.22376
 C197 C 0.81743 0.80310 0.22506
 C198 C 0.78427 0.77257 0.24291
 C199 C 0.72601 0.73392 0.24186
 C200 C 0.69318 0.70573 0.25849
 C201 C 0.71808 0.71625 0.27658
 C202 C 0.77624 0.75514 0.27759
 C203 C 0.80893 0.78334 0.26102
 C204 C 0.68604 0.68705 0.29471
 C205 C 0.62720 0.65694 0.29665
 H206 H 0.79410 0.80600 0.21285
 H207 H 0.70588 0.72520 0.22811
 H208 H 0.64878 0.67538 0.25696
 H209 H 0.79651 0.76431 0.29132
 H210 H 0.85316 0.81442 0.26259
 H211 H 0.71068 0.68926 0.30720
 H212 H 0.89671 0.81871 0.23581
 H213 H 0.60147 0.65231 0.28430
 C214 C 0.18939 0.01062 -0.11147
 C215 C 0.19470 -0.03347 -0.10140
 C216 C 0.23569 -0.02293 -0.08596
 C217 C 0.25007 -0.06531 -0.08057
 C218 C 0.28565 -0.05858 -0.06518
 C219 C 0.30726 -0.00927 -0.05480
 C220 C 0.29284 0.03304 -0.06021
 C221 C 0.25755 0.02645 -0.07561
 C222 C 0.34176 -0.00189 -0.03760
 C223 C 0.37133 -0.03098 -0.03330
 H224 H 0.16820 -0.07768 -0.10506
 H225 H 0.23307 -0.10417 -0.08812
 H226 H 0.29455 -0.09287 -0.06114
 H227 H 0.30830 0.07105 -0.05228
 H228 H 0.24606 0.05918 -0.07888
 H229 H 0.34575 0.02992 -0.02818
 H230 H 0.22068 0.05539 -0.10976
 H231 H 0.37423 -0.05712 -0.04367
 C232 C -0.02235 0.85412 0.56563
 C233 C 0.02575 0.85163 0.57090
 C234 C 0.02617 0.81700 0.58840
 C235 C 0.06146 0.79323 0.58919
 C236 C 0.06088 0.75870 0.60539
 C237 C 0.02505 0.74771 0.62115
 C238 C -0.00839 0.77356 0.62058
 C239 C -0.00782 0.80786 0.60446
 C240 C 0.02080 0.71010 0.63849
 C241 C 0.04082 0.67131 0.63973
 H242 H 0.06278 0.87253 0.56160
 H243 H 0.08886 0.80063 0.57713
 H244 H 0.08863 0.74115 0.60544
 H245 H -0.03561 0.76679 0.63263
 H246 H -0.03378 0.82750 0.60472
 H247 H -0.00378 0.70973 0.65037
 H248 H -0.06084 0.82703 0.57399
 H249 H 0.06060 0.66693 0.62734
 C250 C 0.17693 0.20517 0.21624
 C251 C 0.22322 0.21086 0.22677
 C252 C 0.24788 0.24964 0.24248
 C253 C 0.30251 0.26510 0.24845
 C254 C 0.32572 0.29801 0.26414
 C255 C 0.29449 0.31603 0.27423
 C256 C 0.23991 0.30061 0.26824
 C257 C 0.21675 0.26779 0.25256
 C258 C 0.31559 0.34760 0.29168
 C259 C 0.37231 0.37725 0.29673
 H260 H 0.24341 0.18693 0.22347
 H261 H 0.32704 0.25086 0.24113
 H262 H 0.36726 0.30750 0.26859
 H263 H 0.21464 0.31323 0.27594
 H264 H 0.17383 0.25517 0.24887
 H265 H 0.28493 0.34904 0.30068
 H266 H 0.16299 0.23566 0.21812
 H267 H 0.40446 0.38285 0.28676
 C268 C 0.81271 -0.06255 -0.11074
 C269 C 0.79506 -0.02286 -0.10784
 C270 C 0.76380 -0.02603 -0.09037
 C271 C 0.73533 0.00514 -0.09066
 C272 C 0.70822 0.00609 -0.07416
 C273 C 0.70912 -0.02427 -0.05694
 C274 C 0.73770 -0.05529 -0.05669
 C275 C 0.76495 -0.05600 -0.07312
 C276 C 0.68282 -0.02372 -0.03878
 C277 C 0.64955 0.00146 -0.03685
 H278 H 0.80425 0.01249 -0.11840
 H279 H 0.73450 0.02936 -0.10368
 H280 H 0.68765 0.03140 -0.07505
 H281 H 0.73976 -0.07849 -0.04360
 H282 H 0.78816 -0.07869 -0.07195
 H283 H 0.68889 -0.04616 -0.02625
 H284 H 0.79683 -0.10052 -0.10069
 H285 H 0.63795 0.01912 -0.04934
 C286 C 0.18803 -0.03861 0.11681
 C287 C 0.24023 0.00305 0.10850
 C288 C 0.26662 -0.00681 0.09213
 C289 C 0.32329 0.03338 0.08723
 C290 C 0.34848 0.02850 0.07094
 C291 C 0.31727 -0.01696 0.05917
 C292 C 0.26075 -0.05730 0.06415
 C293 C 0.23558 -0.05236 0.08039
 C294 C 0.34059 -0.02247 0.04115
 C295 C 0.39794 0.00700 0.03609
 H296 H 0.26280 0.04542 0.11393
 H297 H 0.34793 0.06940 0.09585
 H298 H 0.39169 0.06137 0.06742
 H299 H 0.23553 -0.09236 0.05523
 H300 H 0.19137 -0.08325 0.08320
 H301 H 0.31088 -0.05320 0.03168
 H302 H 0.16904 -0.08301 0.11323
 H303 H 0.42909 0.03252 0.04625
 C304 C 0.77113 0.84236 0.44763
 C305 C 0.77357 0.79915 0.43849
 C306 C 0.73754 0.77070 0.42224
 C307 C 0.72735 0.71582 0.41831
 C308 C 0.69745 0.68980 0.40214
 C309 C 0.67768 0.71863 0.38946
 C310 C 0.68782 0.77346 0.39340
 C311 C 0.71722 0.79922 0.40965
 C312 C 0.65004 0.69491 0.37139
 C313 C 0.62147 0.63595 0.36850
 H314 H 0.80183 0.78418 0.44347
 H315 H 0.74337 0.69340 0.42763
 H316 H 0.69177 0.64820 0.39928
 H317 H 0.67366 0.79686 0.38371
 H318 H 0.72579 0.84231 0.41188
 H319 H 0.65047 0.72516 0.36009
 H320 H 0.73624 0.84938 0.44433
 H321 H 0.61388 0.60440 0.38040
 C322 C 0.05050 0.16826 0.77398
 C323 C 0.05323 0.16611 0.75417
 C324 C 0.05406 0.21051 0.73997
 C325 C 0.07512 0.21571 0.72146
 C326 C 0.07225 0.25351 0.70718
 C327 C 0.04786 0.28673 0.71101
 C328 C 0.02702 0.28186 0.72964
 C329 C 0.03019 0.24421 0.74397
 C330 C 0.04194 0.32260 0.69491
 C331 C 0.02523 0.36323 0.69692
 H332 H 0.05633 0.13156 0.74852
 H333 H 0.09317 0.18981 0.71795
 H334 H 0.08827 0.25597 0.69296
 H335 H 0.00648 0.30529 0.73316
 H336 H 0.01182 0.23994 0.75790
 H337 H 0.05191 0.31687 0.68072
 H338 H 0.05629 0.20780 0.77915
 H339 H 0.02169 0.37478 0.71101
 C340 C 0.90102 0.06009 0.10139
 C341 C 0.84382 0.04178 0.10338
 C342 C 0.80943 0.04115 0.08675
 C343 C 0.75214 -0.00162 0.08667
 C344 C 0.71966 -0.00592 0.07055
 C345 C 0.74386 0.03330 0.05429
 C346 C 0.80071 0.07717 0.05467
 C347 C 0.83311 0.08132 0.07073
 C348 C 0.71261 0.02896 0.03641
 C349 C 0.65397 -0.00393 0.03498
 H350 H 0.82228 0.02096 0.11695
 H351 H 0.73294 -0.03298 0.09887
 H352 H 0.67632 -0.04092 0.07079
 H353 H 0.82035 0.10820 0.04241
 H354 H 0.87668 0.11597 0.07052
 H355 H 0.73720 0.05514 0.02386
 H356 H 0.92066 0.07417 0.08728
 H357 H 0.62790 -0.02490 0.04772
 C358 C 0.14546 0.15702 0.44527
 C359 C 0.16330 0.21419 0.43816
 C360 C 0.20132 0.24325 0.42116
 C361 C 0.22851 0.30385 0.41801
 C362 C 0.26251 0.33269 0.40168
 C363 C 0.27001 0.30127 0.38808
 C364 C 0.24249 0.24067 0.39120
 C365 C 0.20838 0.21190 0.40745
 C366 C 0.30436 0.32891 0.37025
 C367 C 0.33939 0.38863 0.36603
 H368 H 0.14938 0.23951 0.44500
 H369 H 0.22309 0.32902 0.42818
 H370 H 0.28179 0.37924 0.39975
 H371 H 0.24682 0.21523 0.38086
 H372 H 0.18659 0.16510 0.40881
 H373 H 0.30357 0.30003 0.36019
 H374 H 0.16453 0.13517 0.43909
 H375 H 0.34565 0.41829 0.37661
 C376 C -0.06478 0.76982 0.78586
 C377 C -0.02977 0.74804 0.78169
 C378 C -0.03603 0.71644 0.76458
 C379 C -0.00706 0.68606 0.76373
 C380 C -0.00640 0.66135 0.74702
 C381 C -0.03485 0.66658 0.73074
 C382 C -0.06479 0.69590 0.73173
 C383 C -0.06539 0.72066 0.74841
 C384 C -0.03033 0.64697 0.71207
 C385 C -0.00970 0.60981 0.70958
 H386 H 0.00473 0.75499 0.79093
 H387 H 0.01655 0.68284 0.77588
 H388 H 0.01833 0.64040 0.74678
 H389 H -0.08650 0.70121 0.71934
 H390 H -0.08681 0.74514 0.74818
 H391 H -0.04357 0.66323 0.69958
 H392 H -0.10359 0.75477 0.77809
 H393 H -0.00331 0.58691 0.72189
   
