data_POSCAR
  _audit_creation_date              2014-09-24
  _audit_creation_method            'ToBaCCo'
  _symmetry_space_group_name_H-M    'P1'
  _symmetry_Int_Tables_number       1
  _symmetry_cell_setting            triclinic
  loop_
  _symmetry_equiv_pos_as_xyz
 x,y,z
_cell_length_a 32.9027
_cell_length_b 33.0340
_cell_length_c 91.1932
_cell_angle_alpha 86.547200
_cell_angle_beta 93.293400
_cell_angle_gamma 119.449300
loop_
  _atom_site_label
  _atom_site_type_symbol
  _atom_site_fract_x
  _atom_site_fract_y
  _atom_site_fract_z
C1 C 0.01562 0.10453 0.51847
 H2 H 0.05004 0.10822 0.51792
 C3 C 0.00812 0.13173 0.52789
 H4 H 0.03718 0.15669 0.53447
 C5 C -0.06381 0.06774 0.51035
 H6 H -0.09168 0.04272 0.50349
 C7 C -0.07288 0.09437 0.51964
 H8 H -0.10799 0.08912 0.51999
 N9 N -0.02027 0.07270 0.51016
 C10 C 0.01404 -0.03694 0.50422
 H11 H 0.01361 -0.03761 0.49237
 C12 C 0.02130 -0.06934 0.51290
 H13 H 0.02706 -0.09455 0.50764
 C14 C 0.00626 -0.00373 0.52547
 H15 H -0.00077 0.02102 0.53038
 C16 C 0.01356 -0.03525 0.53453
 H17 H 0.01202 -0.03425 0.54633
 Zn18 Zn -0.00597 0.03632 0.49843
 N19 N 0.00693 -0.00485 0.51061
 C20 C 0.08530 0.07304 0.48714
 N21 N 0.04657 0.07782 0.48740
 C22 C 0.04377 0.11285 0.47963
 C23 C 0.07997 0.14362 0.47065
 C24 C 0.12240 0.10310 0.47827
 C25 C -0.09625 -0.03577 0.49123
 C26 C -0.13272 -0.06595 0.48197
 C27 C -0.08738 -0.02178 0.46112
 C28 C -0.05183 0.00711 0.47079
 N29 N -0.05672 -0.00025 0.48554
 H30 H 0.08721 0.04548 0.49358
 H31 H 0.01286 0.11627 0.48022
 H32 H 0.07683 0.17104 0.46446
 H33 H 0.15228 0.09785 0.47781
 H34 H -0.09921 -0.04106 0.50303
 H35 H -0.16379 -0.09253 0.48719
 H36 H -0.07977 -0.01536 0.44958
 H37 H -0.01964 0.03456 0.46641
 C38 C 0.02111 -0.06870 0.52828
 C39 C -0.03675 0.12639 0.52873
 C40 C -0.12904 -0.06001 0.46646
 C41 C 0.11965 0.13853 0.46969
 C42 C 1.11173 0.02369 0.15013
 H43 H 1.11315 0.05690 0.15094
 C44 C 1.14031 0.01912 0.14043
 H45 H 1.16414 0.04925 0.13392
 C46 C 1.07875 -0.05581 0.15771
 H47 H 1.05454 -0.08492 0.16443
 C48 C 1.10682 -0.06195 0.14811
 H49 H 1.10350 -0.09605 0.14741
 N50 N 1.08096 -0.01370 0.15826
 C51 C 0.96458 0.01174 0.16337
 H52 H 0.96363 0.01250 0.17518
 C53 C 0.93044 0.01523 0.15437
 H54 H 0.90323 0.01867 0.15934
 C55 C 0.99976 0.00383 0.14257
 H56 H 1.02606 -0.00165 0.13796
 C57 C 0.96640 0.00706 0.13322
 H58 H 0.96823 0.00510 0.12148
 Zn59 Zn 1.04104 -0.00367 0.16984
 N60 N 0.99834 0.00615 0.15736
 C61 C 1.07260 0.08637 0.18113
 N62 N 1.07927 0.04885 0.18117
 C63 C 1.11442 0.04744 0.18936
 C64 C 1.14346 0.08388 0.19842
 C65 C 1.10095 0.12373 0.19005
 C66 C 0.97289 -0.09628 0.17623
 C67 C 0.94343 -0.13450 0.18512
 C68 C 0.98184 -0.08926 0.20648
 C69 C 1.01035 -0.05194 0.19720
 N70 N 1.00552 -0.05603 0.18236
 H71 H 1.04504 0.08722 0.17433
 H72 H 1.11941 0.01750 0.18899
 H73 H 1.17110 0.08191 0.20490
 H74 H 1.09437 0.15275 0.19020
 H75 H 0.96919 -0.09836 0.16439
 H76 H 0.91752 -0.16620 0.18006
 H77 H 0.98550 -0.08480 0.21824
 H78 H 1.03544 -0.01938 0.20190
 C79 C 0.93079 0.01225 0.13908
 C80 C 1.13742 -0.02434 0.13910
 C81 C 0.94757 -0.13113 0.20048
 C82 C 1.13654 0.12244 0.19901
 C83 C 0.03631 0.95083 0.85123
 H84 H 0.00636 0.91624 0.85107
 C85 C 0.07638 0.95884 0.85950
 H86 H 0.07672 0.93021 0.86584
 C87 C 0.07135 1.03028 0.84345
 H88 H 0.06940 1.05793 0.83708
 C89 C 0.11218 1.03990 0.85163
 H90 H 0.14136 1.07502 0.85147
 N91 N 0.03415 0.98646 0.84364
 C92 C -0.11335 0.94746 0.84168
 H93 H -0.12015 0.94805 0.82994
 C94 C -0.14793 0.94023 0.85137
 H95 H -0.18054 0.93624 0.84667
 C96 C -0.06056 0.95629 0.86154
 H97 H -0.02629 0.96323 0.86552
 C98 C -0.09394 0.94916 0.87161
 H99 H -0.08453 0.94865 0.88315
 Zn100 Zn -0.02293 0.97140 0.83336
 N101 N -0.07057 0.95560 0.84687
 C102 C -0.07853 0.88115 0.82132
 N103 N -0.03680 0.92125 0.82132
 C104 C -0.00230 0.92785 0.81236
 C105 C -0.00970 0.89433 0.80241
 C106 C -0.08743 0.84647 0.81152
 C107 C -0.00965 1.06220 0.82785
 C108 C -0.00859 1.09930 0.81929
 C109 C -0.02597 1.05364 0.79777
 C110 C -0.02649 1.01765 0.80669
 N111 N -0.01820 1.02249 0.82144
 H112 H -0.10524 0.87634 0.82870
 H113 H 0.03076 0.95983 0.81274
 H114 H 0.01813 0.90053 0.79527
 H115 H -0.12126 0.81531 0.81132
 H116 H -0.00424 1.06480 0.83964
 H117 H -0.00231 1.13045 0.82456
 H118 H -0.03240 1.04908 0.78604
 H119 H -0.03439 0.98555 0.80178
 C120 C -0.13850 0.94190 0.86672
 C121 C 0.11487 1.00395 0.85990
 C122 C -0.01724 1.09503 0.80404
 C123 C -0.05299 0.85332 0.80172
 C124 C 0.40499 -0.00354 -0.00132
 C125 C 0.43046 0.00541 -0.01405
 C126 C 0.47148 0.00212 -0.01326
 C127 C 0.48632 -0.01181 -0.00004
 C128 C 0.45941 -0.02162 0.01252
 C129 C 0.41949 -0.01641 0.01205
 C130 C 0.52990 -0.01562 0.00068
 C131 C 0.55695 -0.00760 0.01386
 C132 C 0.59726 -0.01212 0.01470
 C133 C 0.61208 -0.02232 0.00201
 C134 C 0.58671 -0.02906 -0.01135
 C135 C 0.54504 -0.02698 -0.01184
 H136 H 0.37298 -0.00164 -0.00187
 H137 H 0.49212 0.01137 -0.02296
 H138 H 0.46954 -0.03290 0.02277
 H139 H 0.54676 0.00192 0.02359
 H140 H 0.64376 -0.02483 0.00252
 H141 H 0.52490 -0.03372 -0.02208
 C142 C -0.02986 0.60643 0.66344
 C143 C -0.04488 0.57849 0.67632
 C144 C -0.05037 0.53353 0.67665
 C145 C -0.03860 0.51713 0.66454
 C146 C -0.02260 0.54642 0.65183
 C147 C -0.01896 0.59065 0.65111
 C148 C -0.04215 0.47009 0.66526
 C149 C -0.05104 0.44479 0.65242
 C150 C -0.05248 0.40153 0.65297
 C151 C -0.04776 0.38213 0.66662
 C152 C -0.03997 0.40598 0.67959
 C153 C -0.03600 0.45033 0.67878
 H154 H -0.02759 0.64033 0.66291
 H155 H -0.06325 0.51174 0.68649
 H156 H -0.01180 0.53559 0.64252
 H157 H -0.05617 0.45884 0.64189
 H158 H -0.04974 0.34835 0.66715
 H159 H -0.02823 0.46914 0.68879
 C160 C 0.63531 0.61934 0.33405
 C161 C 0.62002 0.59174 0.32166
 C162 C 0.57612 0.55136 0.32169
 C163 C 0.54693 0.53900 0.33378
 C164 C 0.56281 0.56773 0.34599
 C165 C 0.60721 0.60744 0.34631
 C166 C 0.50027 0.49603 0.33370
 C167 C 0.48197 0.46999 0.34683
 C168 C 0.43807 0.42964 0.34686
 C169 C 0.41266 0.41471 0.33355
 C170 C 0.43032 0.43970 0.32030
 C171 C 0.47383 0.48054 0.32049
 H172 H 0.66877 0.65101 0.33400
 H173 H 0.56527 0.52915 0.31237
 H174 H 0.54083 0.55918 0.35534
 H175 H 0.50222 0.48030 0.35705
 H176 H 0.37898 0.38332 0.33349
 H177 H 0.48657 0.50057 0.31032
 C178 C -0.03209 0.18586 0.56352
 C179 C -0.06039 0.20562 0.55954
 C180 C -0.08182 0.19891 0.54550
 C181 C -0.07459 0.17277 0.53545
 C182 C -0.04567 0.15328 0.53934
 C183 C -0.02479 0.15989 0.55353
 C184 C -0.06636 0.23319 0.56995
 C185 C -0.06930 0.25605 0.57922
 C186 C -0.07032 0.28237 0.59069
 C187 C -0.06911 0.30428 0.60096
 C188 C -0.06518 0.32955 0.61377
 C189 C -0.09317 0.35007 0.61520
 C190 C -0.08905 0.37385 0.62790
 C191 C -0.05701 0.37711 0.63932
 C192 C -0.02884 0.35672 0.63766
 C193 C -0.03296 0.33313 0.62501
 H194 H -0.01548 0.19067 0.57437
 H195 H -0.10374 0.21414 0.54229
 H196 H -0.09085 0.16856 0.52457
 H197 H -0.00303 0.14466 0.55695
 H198 H -0.11828 0.34745 0.60656
 H199 H -0.11138 0.38897 0.62892
 H200 H -0.00327 0.35935 0.64613
 H201 H -0.01098 0.31757 0.62400
 C202 C 0.89990 0.78613 0.23359
 C203 C 0.85199 0.76287 0.23008
 C204 C 0.83562 0.77210 0.21649
 C205 C 0.86691 0.80541 0.20660
 C206 C 0.91497 0.83011 0.21024
 C207 C 0.93121 0.81948 0.22374
 C208 C 0.81956 0.73239 0.24091
 C209 C 0.79285 0.70860 0.25033
 C210 C 0.76219 0.68280 0.26172
 C211 C 0.73658 0.66254 0.27174
 C212 C 0.70679 0.64056 0.28403
 C213 C 0.65831 0.62102 0.28216
 C214 C 0.62985 0.60372 0.29436
 C215 C 0.64963 0.60603 0.30859
 C216 C 0.69826 0.62450 0.31030
 C217 C 0.72661 0.64168 0.29810
 H218 H 0.91295 0.77935 0.24409
 H219 H 0.79857 0.75455 0.21371
 H220 H 0.85328 0.81321 0.19638
 H221 H 0.96806 0.83750 0.22677
 H222 H 0.64263 0.62028 0.27134
 H223 H 0.59259 0.59016 0.29272
 H224 H 0.71442 0.62618 0.32110
 H225 H 0.76410 0.65681 0.29968
 C226 C 0.21003 -0.01177 -0.11955
 C227 C 0.23063 0.02712 -0.11076
 C228 C 0.21526 0.05990 -0.11220
 C229 C 0.17859 0.05320 -0.12210
 C230 C 0.15667 0.01343 -0.13065
 C231 C 0.17335 -0.01858 -0.12944
 C232 C 0.26490 0.03136 -0.09952
 C233 C 0.29200 0.03343 -0.08973
 C234 C 0.32179 0.03413 -0.07786
 C235 C 0.34548 0.03328 -0.06739
 C236 C 0.37151 0.03049 -0.05450
 C237 C 0.37283 0.05303 -0.04183
 C238 C 0.39353 0.04626 -0.02879
 C239 C 0.41308 0.01667 -0.02824
 C240 C 0.41308 -0.00453 -0.04117
 C241 C 0.39229 0.00226 -0.05421
 H242 H 0.22156 -0.03743 -0.11851
 H243 H 0.23071 0.08995 -0.10537
 H244 H 0.16620 0.07817 -0.12265
 H245 H 0.15761 -0.04920 -0.13601
 H246 H 0.35676 0.07487 -0.04192
 H247 H 0.39355 0.06352 -0.01906
 H248 H 0.42741 -0.02787 -0.04105
 H249 H 0.39116 -0.01564 -0.06392
 C250 C 0.05587 0.87637 0.56075
 C251 C 0.03181 0.82936 0.55731
 C252 C 0.00642 0.81594 0.54396
 C253 C 0.00413 0.84929 0.53426
 C254 C 0.02702 0.89644 0.53785
 C255 C 0.05356 0.90969 0.55109
 C256 C 0.03049 0.79489 0.56800
 C257 C 0.02843 0.76676 0.57742
 C258 C 0.02489 0.73479 0.58894
 C259 C 0.02088 0.70838 0.59918
 C260 C 0.01487 0.67802 0.61185
 C261 C -0.01432 0.62990 0.61098
 C262 C -0.02398 0.60114 0.62369
 C263 C -0.00478 0.62028 0.63742
 C264 C 0.02575 0.66847 0.63809
 C265 C 0.03543 0.69710 0.62539
 H266 H 0.07555 0.88715 0.57106
 H267 H -0.01263 0.77960 0.54124
 H268 H -0.01697 0.83797 0.52422
 H269 H 0.07206 0.94580 0.55407
 H270 H -0.03068 0.61480 0.60058
 H271 H -0.04794 0.56423 0.62286
 H272 H 0.04152 0.68409 0.64848
 H273 H 0.05801 0.73430 0.62620
 C274 C 0.20967 0.24273 0.21452
 C275 C 0.22138 0.23160 0.22861
 C276 C 0.20512 0.18502 0.23302
 C277 C 0.17748 0.14967 0.22340
 C278 C 0.16566 0.16036 0.20918
 C279 C 0.18189 0.20731 0.20485
 C280 C 0.25013 0.26747 0.23868
 C281 C 0.27405 0.29585 0.24760
 C282 C 0.30173 0.32703 0.25859
 C283 C 0.32495 0.35179 0.26843
 C284 C 0.35199 0.37892 0.28071
 C285 C 0.32925 0.38155 0.29282
 C286 C 0.35491 0.40297 0.30551
 C287 C 0.40372 0.42192 0.30628
 C288 C 0.42649 0.42075 0.29385
 C289 C 0.40072 0.39922 0.28116
 H290 H 0.22213 0.27870 0.21099
 H291 H 0.21380 0.17599 0.24392
 H292 H 0.16489 0.11388 0.22715
 H293 H 0.17371 0.21664 0.19393
 H294 H 0.29155 0.36586 0.29261
 H295 H 0.33651 0.40392 0.31484
 H296 H 0.46396 0.43465 0.29416
 H297 H 0.41865 0.39706 0.27188
 C298 C 0.74758 -0.08694 -0.11684
 C299 C 0.76295 -0.06733 -0.10308
 C300 C 0.81048 -0.04539 -0.09926
 C301 C 0.84271 -0.04270 -0.10910
 C302 C 0.82822 -0.06203 -0.12315
 C303 C 0.77976 -0.08435 -0.12679
 C304 C 0.73074 -0.06847 -0.09281
 C305 C 0.70617 -0.06751 -0.08368
 C306 C 0.68034 -0.06421 -0.07243
 C307 C 0.66094 -0.05953 -0.06238
 C308 C 0.64114 -0.05171 -0.04990
 C309 C 0.67060 -0.01741 -0.04016
 C310 C 0.65268 -0.00997 -0.02773
 C311 C 0.60489 -0.03681 -0.02482
 C312 C 0.57525 -0.07085 -0.03477
 C313 C 0.59336 -0.07834 -0.04724
 H314 H 0.71071 -0.10428 -0.11989
 H315 H 0.82285 -0.02960 -0.08868
 H316 H 0.87915 -0.02329 -0.10576
 H317 H 0.76597 -0.10127 -0.13710
 H318 H 0.70759 0.00349 -0.04213
 H319 H 0.67621 0.01703 -0.02042
 H320 H 0.53837 -0.09223 -0.03275
 H321 H 0.57025 -0.10506 -0.05470
 C322 C 0.21304 -0.06251 0.12053
 C323 C 0.21766 -0.04044 0.10664
 C324 C 0.19568 -0.01381 0.10336
 C325 C 0.16951 -0.00886 0.11390
 C326 C 0.16493 -0.03045 0.12795
 C327 C 0.18670 -0.05765 0.13114
 C328 C 0.24536 -0.04403 0.09567
 C329 C 0.26833 -0.04505 0.08601
 C330 C 0.29487 -0.04395 0.07423
 C331 C 0.31720 -0.04107 0.06380
 C332 C 0.34339 -0.03529 0.05099
 C333 C 0.35288 0.00202 0.04106
 C334 C 0.37765 0.00804 0.02846
 C335 C 0.39332 -0.02326 0.02556
 C336 C 0.38392 -0.06058 0.03563
 C337 C 0.35899 -0.06659 0.04828
 H338 H 0.23000 -0.08314 0.12320
 H339 H 0.19888 0.00328 0.09263
 H340 H 0.15248 0.01157 0.11101
 H341 H 0.18402 -0.07443 0.14188
 H342 H 0.34109 0.02654 0.04307
 H343 H 0.38498 0.03752 0.02103
 H344 H 0.39520 -0.08546 0.03363
 H345 H 0.35172 -0.09568 0.05588
 C346 C 0.77179 0.83159 0.45184
 C347 C 0.77174 0.84421 0.43696
 C348 C 0.80250 0.88952 0.43212
 C349 C 0.83441 0.92175 0.44195
 C350 C 0.83691 0.90951 0.45705
 C351 C 0.80356 0.86373 0.46179
 C352 C 0.74265 0.81017 0.42641
 C353 C 0.72039 0.78231 0.41717
 C354 C 0.69677 0.75051 0.40594
 C355 C 0.67869 0.72406 0.39605
 C356 C 0.65964 0.69337 0.38393
 C357 C 0.68852 0.68158 0.37670
 C358 C 0.67126 0.65334 0.36456
 C359 C 0.62477 0.63646 0.35946
 C360 C 0.59572 0.64796 0.36690
 C361 C 0.61313 0.67636 0.37906
 H362 H 0.74825 0.79636 0.45570
 H363 H 0.80232 0.89989 0.42062
 H364 H 0.85597 0.95658 0.43750
 H365 H 0.80345 0.85067 0.47294
 H366 H 0.72455 0.69450 0.38038
 H367 H 0.69425 0.64452 0.35920
 H368 H 0.55991 0.63582 0.36314
 H369 H 0.59053 0.68544 0.38455
 C370 C -0.05254 0.15695 0.77401
 C371 C -0.01784 0.20326 0.77561
 C372 C 0.01621 0.21467 0.78693
 C373 C 0.01595 0.17964 0.79646
 C374 C -0.01820 0.13284 0.79465
 C375 C -0.05278 0.12201 0.78345
 C376 C -0.01650 0.23813 0.76509
 C377 C -0.01681 0.26517 0.75566
 C378 C -0.01886 0.29417 0.74397
 C379 C -0.02201 0.31658 0.73348
 C380 C -0.02746 0.34040 0.72042
 C381 C 0.00359 0.38766 0.71757
 C382 C -0.00082 0.40947 0.70440
 C383 C -0.03618 0.38407 0.69391
 C384 C -0.06763 0.33686 0.69702
 C385 C -0.06324 0.31524 0.71017
 H386 H -0.07909 0.14773 0.76530
 H387 H 0.04336 0.25041 0.78823
 H388 H 0.04316 0.18892 0.80493
 H389 H -0.07997 0.08641 0.78194
 H390 H 0.03156 0.40741 0.72541
 H391 H 0.02410 0.44577 0.70223
 H392 H -0.09560 0.31662 0.68926
 H393 H -0.08748 0.27866 0.71226
 C394 C 0.84065 -0.01685 0.10796
 C395 C 0.82508 0.01498 0.10976
 C396 C 0.84311 0.04534 0.12143
 C397 C 0.87708 0.04415 0.13117
 C398 C 0.89351 0.01277 0.12925
 C399 C 0.87452 -0.01802 0.11762
 C400 C 0.79163 0.01674 0.09923
 C401 C 0.76425 0.01650 0.08982
 C402 C 0.73306 0.01422 0.07820
 C403 C 0.70726 0.01060 0.06781
 C404 C 0.67761 0.00426 0.05494
 C405 C 0.66115 0.03544 0.05106
 C406 C 0.63430 0.02987 0.03807
 C407 C 0.62394 -0.00680 0.02881
 C408 C 0.64005 -0.03828 0.03296
 C409 C 0.66667 -0.03274 0.04591
 H410 H 0.82684 -0.04060 0.09899
 H411 H 0.83137 0.07021 0.12290
 H412 H 0.89126 0.06842 0.13998
 H413 H 0.88581 -0.04315 0.11601
 H414 H 0.66958 0.06433 0.05794
 H415 H 0.62264 0.05482 0.03508
 H416 H 0.63201 -0.06725 0.02617
 H417 H 0.67918 -0.05710 0.04881
 C418 C 0.23934 0.21403 0.45354
 C419 C 0.22719 0.22574 0.43960
 C420 C 0.18016 0.20921 0.43556
 C421 C 0.14535 0.18106 0.44538
 C422 C 0.15705 0.16900 0.45942
 C423 C 0.20447 0.18578 0.46340
 C424 C 0.26248 0.25424 0.42924
 C425 C 0.29047 0.27770 0.42009
 C426 C 0.32131 0.30460 0.40886
 C427 C 0.34593 0.32698 0.39884
 C428 C 0.37313 0.35289 0.38638
 C429 C 0.37223 0.32934 0.37401
 C430 C 0.39461 0.35429 0.36131
 C431 C 0.41813 0.40323 0.36079
 C432 C 0.42019 0.42664 0.37343
 C433 C 0.39766 0.40158 0.38614
 H434 H 0.27567 0.22668 0.45677
 H435 H 0.17036 0.21786 0.42477
 H436 H 0.10919 0.16808 0.44187
 H437 H 0.21458 0.17744 0.47418
 H438 H 0.35329 0.29167 0.37407
 H439 H 0.39301 0.33534 0.35181
 H440 H 0.43768 0.46428 0.37330
 H441 H 0.39832 0.42016 0.39562
 C442 C -0.05315 0.80230 0.76562
 C443 C -0.07540 0.75466 0.76927
 C444 C -0.09182 0.73885 0.78347
 C445 C -0.08536 0.77078 0.79404
 C446 C -0.06209 0.81883 0.79051
 C447 C -0.04656 0.83414 0.77613
 C448 C -0.07932 0.72287 0.75844
 C449 C -0.08028 0.69864 0.74891
 C450 C -0.07872 0.67314 0.73730
 C451 C -0.07510 0.65386 0.72704
 C452 C -0.06805 0.63394 0.71448
 C453 C -0.09940 0.58808 0.71072
 C454 C -0.09203 0.56972 0.69832
 C455 C -0.05329 0.59718 0.68954
 C456 C -0.02196 0.64308 0.69349
 C457 C -0.02934 0.66126 0.70585
 H458 H -0.04037 0.81493 0.75467
 H459 H -0.10896 0.70203 0.78642
 H460 H -0.09744 0.75804 0.80504
 H461 H -0.02928 0.87083 0.77301
 H462 H -0.12955 0.56665 0.71732
 H463 H -0.11692 0.53438 0.69548
 H464 H 0.00859 0.66482 0.68710
 H465 H -0.00477 0.69674 0.70867
   
