data_POSCAR
  _audit_creation_date              2014-09-24
  _audit_creation_method            'ToBaCCo'
  _symmetry_space_group_name_H-M    'P1'
  _symmetry_Int_Tables_number       1
  _symmetry_cell_setting            triclinic
  loop_
  _symmetry_equiv_pos_as_xyz
 x,y,z
_cell_length_a 49.9823
_cell_length_b 50.0579
_cell_length_c 50.0025
_cell_angle_alpha 90.004300
_cell_angle_beta 89.973800
_cell_angle_gamma 89.916700
loop_
  _atom_site_label
  _atom_site_type_symbol
  _atom_site_fract_x
  _atom_site_fract_y
  _atom_site_fract_z
C1 C 0.16243 0.16175 0.19581
 N2 N 0.18474 0.15088 0.18462
 C3 C 0.19602 0.16172 0.16236
 N4 N 0.18462 0.18379 0.15131
 C5 C 0.16233 0.19495 0.16215
 N6 N 0.15141 0.18382 0.18438
 C7 C -0.16298 0.83791 0.19702
 N8 N -0.18523 0.84869 0.18566
 C9 C -0.19642 0.83769 0.16346
 N10 N -0.18498 0.81553 0.15260
 C11 C -0.16273 0.80446 0.16361
 N12 N -0.15190 0.81576 0.18580
 C13 C -0.16354 0.16317 -0.19678
 N14 N -0.15273 0.18535 -0.18542
 C15 C -0.16378 0.19649 -0.16323
 N16 N -0.18596 0.18521 -0.15235
 C17 C -0.19714 0.16303 -0.16334
 N18 N -0.18576 0.15219 -0.18556
 C19 C 0.16368 0.83740 -0.19619
 N20 N 0.18588 0.84827 -0.18492
 C21 C 0.19715 0.83729 -0.16273
 N22 N 0.18583 0.81509 -0.15188
 C23 C 0.16364 0.80395 -0.16288
 N24 N 0.15271 0.81523 -0.18504
 C25 C 0.16244 1.16325 0.80293
 N26 N 0.18460 1.15232 0.81431
 C27 C 0.19575 1.16328 0.83650
 N28 N 0.18451 1.18549 0.84737
 C29 C 0.16234 1.19679 0.83636
 N30 N 0.15149 1.18548 0.81413
 C31 C 0.83890 0.83792 0.80386
 N32 N 0.81675 0.84888 0.81528
 C33 C 0.80561 0.83795 0.83750
 N34 N 0.81685 0.81575 0.84835
 C35 C 0.83898 0.80441 0.83731
 N36 N 0.84984 0.81567 0.81506
 C37 C 0.16205 0.83731 1.19645
 N38 N 0.18427 0.84826 1.18522
 C39 C 0.19559 0.83735 1.16305
 N40 N 0.18447 0.81518 1.15206
 C41 C 0.16227 0.80393 1.16294
 N42 N 0.15122 0.81511 1.18512
 C43 C 0.83503 1.16548 1.19867
 N44 N 0.81453 1.15296 1.18597
 C45 C 0.80491 1.16229 1.16234
 N46 N 0.81617 1.18435 1.15124
 C47 C 0.83652 1.19737 1.16371
 N48 N 0.84568 1.18782 1.18748
 N49 N 0.52831 1.04721 0.97119
 N50 N 0.54918 1.06309 0.96835
 N51 N 0.47196 1.02870 0.95275
 N52 N 0.45106 1.03147 0.93687
 N53 N 0.47197 1.04727 0.97129
 N54 N 0.45107 1.06318 0.96852
 N55 N 0.52830 1.02865 0.95264
 N56 N 0.54916 1.03140 0.93669
 C57 C 0.56198 1.05304 0.94669
 C58 C 0.43823 1.05313 0.94690
 N59 N 0.47203 0.95268 0.97137
 N60 N 0.45116 0.93679 0.96864
 N61 N 0.52833 0.97116 0.95271
 N62 N 0.54929 0.96844 0.93687
 N63 N 0.52836 0.95264 0.97130
 N64 N 0.54934 0.93683 0.96861
 N65 N 0.47198 0.97120 0.95280
 N66 N 0.45108 0.96841 0.93692
 Mn67 Mn 0.50014 0.99993 0.95238
 C68 C 0.43830 0.94679 0.94700
 C69 C 0.56218 0.94687 0.94698
 N70 N 0.47205 1.04733 1.02885
 N71 N 0.45110 1.06318 1.03160
 N72 N 0.52841 1.02871 1.04733
 N73 N 0.54959 1.03112 1.06289
 N74 N 0.52842 1.04723 1.02874
 N75 N 0.54962 1.06274 1.03117
 N76 N 0.47207 1.02879 1.04742
 N77 N 0.45114 1.03154 1.06330
 Mn78 Mn 0.50019 1.04761 1.00002
 C79 C 0.43828 1.05315 1.05324
 C80 C 0.56259 1.05252 1.05264
 N81 N 0.52843 0.95268 1.02885
 N82 N 0.54933 0.93678 1.03164
 N83 N 0.47207 0.97130 1.04746
 N84 N 0.45117 0.96858 1.06337
 N85 N 0.47209 0.95274 1.02892
 N86 N 0.45119 0.93689 1.03171
 N87 N 0.52841 0.97124 1.04740
 N88 N 0.54929 0.96846 1.06331
 Mn89 Mn 0.50023 0.95234 1.00011
 Mn90 Mn 0.50023 1.00002 1.04774
 Cl91 Cl 0.50020 0.99997 1.00006
 C92 C 0.56214 0.94682 1.05328
 C93 C 0.43836 0.94696 1.05334
 N94 N 0.02872 0.47151 0.04660
 N95 N 0.03136 0.45053 0.06236
 N96 N 0.04754 0.52773 0.02820
 N97 N 0.06348 0.54856 0.03091
 N98 N 0.02906 0.52775 0.04686
 N99 N 0.03191 0.54859 0.06276
 N100 N 0.04724 0.47145 0.02799
 N101 N 0.06298 0.45041 0.03057
 C102 C 0.05287 0.43757 0.05218
 C103 C 0.05353 0.56136 0.05263
 N104 N 0.02864 0.52802 -0.04787
 N105 N 0.03145 0.54893 -0.06371
 N106 N 0.04694 0.47164 -0.02952
 N107 N 0.06276 0.45071 -0.03242
 N108 N 0.02825 0.47175 -0.04795
 N109 N 0.03087 0.45090 -0.06392
 N110 N 0.04727 0.52787 -0.02937
 N111 N 0.06325 0.54865 -0.03213
 Mn112 Mn 0.04759 0.49968 -0.00068
 C113 C 0.05319 0.56158 -0.05370
 C114 C 0.05255 0.43798 -0.05402
 N115 N -0.02849 0.52825 0.04716
 N116 N -0.03100 0.54907 0.06317
 N117 N -0.04778 0.47244 0.02869
 N118 N -0.06412 0.45197 0.03175
 N119 N -0.02875 0.47187 0.04678
 N120 N -0.03137 0.45076 0.06238
 N121 N -0.04712 0.52857 0.02867
 N122 N -0.06282 0.54959 0.03161
 Mn123 Mn 0.00013 0.49983 0.04719
 C124 C -0.05257 0.56217 0.05328
 C125 C -0.05361 0.43866 0.05285
 N126 N -0.02937 0.47228 -0.04761
 N127 N -0.03233 0.45142 -0.06348
 N128 N -0.04739 0.52870 -0.02890
 N129 N -0.06311 0.54974 -0.03159
 N130 N -0.02891 0.52851 -0.04757
 N131 N -0.03156 0.54940 -0.06344
 N132 N -0.04789 0.47244 -0.02897
 N133 N -0.06394 0.45170 -0.03167
 Mn134 Mn -0.00035 0.50013 -0.04810
 Mn135 Mn -0.04789 0.50055 -0.00014
 Cl136 Cl -0.00013 0.50005 -0.00043
 C137 C -0.05404 0.43880 -0.05335
 C138 C -0.05304 0.56244 -0.05329
 N139 N 0.95260 0.02953 0.52828
 N140 N 0.93675 0.03233 0.54921
 N141 N 0.97092 0.04811 0.47193
 N142 N 0.96768 0.06444 0.45146
 N143 N 0.95235 0.02960 0.47197
 N144 N 0.93598 0.03281 0.45151
 N145 N 0.97119 0.04803 0.52822
 N146 N 0.96848 0.06392 0.54912
 C147 C 0.94685 0.05393 0.56201
 C148 C 0.94578 0.05467 0.43890
 N149 N 1.04707 0.02936 0.47151
 N150 N 1.06289 0.03207 0.45055
 N151 N 1.02877 0.04792 0.52792
 N152 N 1.03160 0.06376 0.54882
 N153 N 1.04733 0.02934 0.52782
 N154 N 1.06329 0.03204 0.54867
 N155 N 1.02852 0.04795 0.47159
 N156 N 1.03121 0.06380 0.45067
 Mn157 Mn 0.99985 0.04834 0.49991
 C158 C 1.05281 0.05370 0.43776
 C159 C 1.05329 0.05367 0.56155
 N160 N 0.95233 -0.02791 0.47191
 N161 N 0.93637 -0.03062 0.45107
 N162 N 0.97114 -0.04654 0.52813
 N163 N 0.96847 -0.06241 0.54903
 N164 N 0.95257 -0.02797 0.52823
 N165 N 0.93677 -0.03070 0.54921
 N166 N 0.97089 -0.04650 0.47182
 N167 N 0.96804 -0.06235 0.45093
 Mn168 Mn 0.95212 0.00081 0.50009
 C169 C 0.94635 -0.05225 0.43819
 C170 C 0.94689 -0.05235 0.56197
 N171 N 1.04729 -0.02815 0.52778
 N172 N 1.06326 -0.03092 0.54861
 N173 N 1.02845 -0.04663 0.47156
 N174 N 1.03111 -0.06254 0.45068
 N175 N 1.04704 -0.02813 0.47146
 N176 N 1.06285 -0.03096 0.45049
 N177 N 1.02871 -0.04665 0.52788
 N178 N 1.03155 -0.06251 0.54877
 Mn179 Mn 1.04753 0.00060 0.49964
 Mn180 Mn 0.99980 -0.04692 0.49985
 Cl181 Cl 0.99982 0.00071 0.49987
 C182 C 1.05325 -0.05250 0.56150
 C183 C 1.05272 -0.05257 0.43774
 C184 C 1.12870 0.12864 0.26628
 C185 C 1.11712 0.15114 0.25413
 C186 C 1.12811 0.16196 0.23084
 C187 C 1.15109 0.15056 0.21905
 C188 C 1.16251 0.12785 0.23123
 C189 C 1.15144 0.11706 0.25451
 C190 C 1.11721 0.11747 0.29129
 C191 C 1.11540 0.08970 0.29504
 C192 C 1.10472 0.07923 0.31865
 C193 C 1.09561 0.09630 0.33906
 C194 C 1.09739 0.12406 0.33528
 C195 C 1.10806 0.13452 0.31168
 C196 C 1.08446 0.08521 0.36426
 C197 C 1.06201 0.09705 0.37642
 C198 C 1.05170 0.08679 0.40029
 C199 C 1.06364 0.06451 0.41250
 C200 C 1.08599 0.05259 0.40033
 C201 C 1.09629 0.06283 0.37646
 H202 H 1.09934 0.16029 0.26251
 H203 H 1.11852 0.17934 0.22219
 H204 H 1.18018 0.11839 0.22295
 H205 H 1.16100 0.09988 0.26359
 H206 H 1.12191 0.07605 0.27953
 H207 H 1.10324 0.05776 0.32078
 H208 H 1.09096 0.13773 0.35080
 H209 H 1.10959 0.15599 0.30958
 H210 H 1.05221 0.11408 0.36732
 H211 H 1.03435 0.09629 0.40915
 H212 H 1.09560 0.03538 0.40931
 H213 H 1.11380 0.05346 0.36776
 C214 C 0.87032 -0.12808 0.26725
 C215 C 0.88201 -0.15072 0.25543
 C216 C 0.87114 -0.16187 0.23224
 C217 C 0.84823 -0.15065 0.22019
 C218 C 0.83670 -0.12780 0.23203
 C219 C 0.84760 -0.11671 0.25524
 C220 C 0.88163 -0.11652 0.29215
 C221 C 0.86466 -0.10746 0.31266
 C222 C 0.87526 -0.09680 0.33620
 C223 C 0.90309 -0.09496 0.33978
 C224 C 0.92007 -0.10395 0.31924
 C225 C 0.90946 -0.11460 0.29569
 C226 C 0.91433 -0.08385 0.36492
 C227 C 0.93684 -0.09567 0.37696
 C228 C 0.94725 -0.08540 0.40077
 C229 C 0.93537 -0.06309 0.41302
 C230 C 0.91297 -0.05117 0.40096
 C231 C 0.90255 -0.06145 0.37717
 H232 H 0.89934 -0.16014 0.26440
 H233 H 0.88071 -0.17944 0.22393
 H234 H 0.81917 -0.11837 0.22348
 H235 H 0.83836 -0.09903 0.26366
 H236 H 0.84314 -0.10906 0.31073
 H237 H 0.86167 -0.09045 0.35183
 H238 H 0.94158 -0.10241 0.32122
 H239 H 0.92305 -0.12103 0.28008
 H240 H 0.94617 -0.11314 0.36820
 H241 H 0.96454 -0.09498 0.40963
 H242 H 0.90351 -0.03385 0.40989
 H243 H 0.88543 -0.05168 0.36818
 C244 C 0.87057 0.12982 0.73299
 C245 C 0.84787 0.11822 0.74478
 C246 C 0.83668 0.12910 0.76798
 C247 C 0.84792 0.15194 0.78005
 C248 C 0.87083 0.16337 0.76823
 C249 C 0.88196 0.15245 0.74503
 C250 C 0.88219 0.11851 0.70809
 C251 C 0.89132 0.13544 0.68762
 C252 C 0.90206 0.12484 0.66409
 C253 C 0.90391 0.09706 0.66048
 C254 C 0.89484 0.08011 0.68097
 C255 C 0.88410 0.09072 0.70451
 C256 C 0.91510 0.08582 0.63535
 C257 C 0.90329 0.06341 0.62323
 C258 C 0.91362 0.05304 0.59941
 C259 C 0.93598 0.06485 0.58722
 C260 C 0.94791 0.08715 0.59936
 C261 C 0.93757 0.09754 0.62316
 H262 H 0.83844 0.10096 0.73578
 H263 H 0.81907 0.11962 0.77626
 H264 H 0.88028 0.18084 0.77681
 H265 H 0.89968 0.16162 0.73664
 H266 H 0.88971 0.15693 0.68958
 H267 H 0.90847 0.13841 0.64850
 H268 H 0.89638 0.05863 0.67896
 H269 H 0.87762 0.07715 0.72008
 H270 H 0.88578 0.05413 0.63194
 H271 H 0.90403 0.03582 0.59049
 H272 H 0.96527 0.09656 0.59048
 H273 H 0.94734 0.11459 0.63221
 C274 C 1.12962 -0.12820 0.73244
 C275 C 1.11807 -0.15088 0.74427
 C276 C 1.12902 -0.16196 0.76748
 C277 C 1.15180 -0.15060 0.77942
 C278 C 1.16324 -0.12779 0.76766
 C279 C 1.15228 -0.11674 0.74445
 C280 C 1.11824 -0.11669 0.70753
 C281 C 1.13516 -0.10759 0.68702
 C282 C 1.12449 -0.09697 0.66348
 C283 C 1.09665 -0.09521 0.65990
 C284 C 1.07973 -0.10426 0.68043
 C285 C 1.09040 -0.11488 0.70399
 C286 C 1.08535 -0.08411 0.63477
 C287 C 1.06290 -0.09595 0.62270
 C288 C 1.05246 -0.08568 0.59890
 C289 C 1.06425 -0.06335 0.58667
 C290 C 1.08658 -0.05140 0.59876
 C291 C 1.09703 -0.06168 0.62255
 H292 H 1.10080 -0.16037 0.73532
 H293 H 1.11971 -0.17956 0.77593
 H294 H 1.18072 -0.11844 0.77635
 H295 H 1.16142 -0.09903 0.73602
 H296 H 1.15668 -0.10912 0.68896
 H297 H 1.13805 -0.09058 0.64785
 H298 H 1.05820 -0.10279 0.67845
 H299 H 1.07685 -0.12135 0.71959
 H300 H 1.05364 -0.11344 0.63146
 H301 H 1.03521 -0.09528 0.59002
 H302 H 1.09597 -0.03406 0.58986
 H303 H 1.11410 -0.05188 0.63155
 C304 C 0.26664 1.12844 1.12891
 C305 C 0.25479 1.11693 1.15161
 C306 C 0.23146 1.12778 1.16259
 C307 C 0.21931 1.15048 1.15111
 C308 C 0.23118 1.16181 1.12818
 C309 C 0.25452 1.15094 1.11727
 C310 C 0.29170 1.11720 1.11752
 C311 C 0.31211 1.13421 1.10839
 C312 C 0.33575 1.12369 1.09779
 C313 C 0.33954 1.09592 1.09606
 C314 C 0.31912 1.07890 1.10516
 C315 C 0.29547 1.08942 1.11578
 C316 C 0.36475 1.08478 1.08492
 C317 C 0.37700 1.06243 1.09679
 C318 C 0.40089 1.05215 1.08648
 C319 C 0.41302 1.06400 1.06411
 C320 C 0.40075 1.08623 1.05213
 C321 C 0.37687 1.09652 1.06244
 H322 H 0.26384 1.09976 1.16122
 H323 H 0.22312 1.11837 1.18022
 H324 H 0.22255 1.17918 1.11855
 H325 H 0.26296 1.16003 1.09953
 H326 H 0.31000 1.15569 1.10988
 H327 H 0.35127 1.13732 1.09136
 H328 H 0.32128 1.05742 1.10373
 H329 H 0.27996 1.07581 1.12227
 H330 H 0.36833 1.05314 1.11431
 H331 H 0.40990 1.03498 1.09611
 H332 H 0.40958 1.09566 1.03475
 H333 H 0.36773 1.11352 1.05262
 C334 C 0.26739 0.87070 0.87113
 C335 C 0.25542 0.84806 0.88258
 C336 C 0.23221 0.83712 0.87154
 C337 C 0.22033 0.84854 0.84866
 C338 C 0.23233 0.87138 0.83735
 C339 C 0.25553 0.88228 0.84846
 C340 C 0.29230 0.88205 0.88265
 C341 C 0.29581 0.90984 0.88449
 C342 C 0.31936 0.92048 0.89514
 C343 C 0.33992 0.90357 0.90419
 C344 C 0.33637 0.87577 0.90240
 C345 C 0.31284 0.86514 0.89175
 C346 C 0.36503 0.91483 0.91532
 C347 C 0.37724 0.90313 0.93779
 C348 C 0.40103 0.91354 0.94810
 C349 C 0.41312 0.93585 0.93614
 C350 C 0.40090 0.94766 0.91378
 C351 C 0.37710 0.93726 0.90348
 H352 H 0.26387 0.83890 0.90029
 H353 H 0.22369 0.81964 0.88103
 H354 H 0.22399 0.88086 0.81976
 H355 H 0.26447 0.89955 0.83898
 H356 H 0.28019 0.92338 0.87802
 H357 H 0.32132 0.94197 0.89663
 H358 H 0.35202 0.86222 0.90879
 H359 H 0.31093 0.84365 0.89020
 H360 H 0.36824 0.88607 0.94759
 H361 H 0.40992 0.90413 0.96546
 H362 H 0.40978 0.96489 0.90417
 H363 H 0.36836 0.94653 0.88597
 C364 C 0.73317 0.87107 1.12971
 C365 C 0.74506 0.88266 1.15234
 C366 C 0.76832 0.87178 1.16339
 C367 C 0.78035 0.84891 1.15208
 C368 C 0.76844 0.83747 1.12924
 C369 C 0.74518 0.84842 1.11823
 C370 C 0.70820 0.88244 1.11828
 C371 C 0.70467 0.88417 1.09044
 C372 C 0.68110 0.89477 1.07974
 C373 C 0.66053 0.90387 1.09663
 C374 C 0.66407 0.90214 1.12446
 C375 C 0.68762 0.89155 1.13516
 C376 C 0.63542 0.91504 1.08531
 C377 C 0.62324 0.93754 1.09699
 C378 C 0.59946 0.94788 1.08654
 C379 C 0.58733 0.93593 1.06423
 C380 C 0.59953 0.91355 1.05244
 C381 C 0.62334 0.90321 1.06287
 H382 H 0.73650 0.90036 1.16141
 H383 H 0.77677 0.88138 1.18085
 H384 H 0.77690 0.81989 1.11985
 H385 H 0.73631 0.83884 1.10097
 H386 H 0.72031 0.87769 1.07692
 H387 H 0.67914 0.89620 1.05822
 H388 H 0.64842 0.90857 1.13799
 H389 H 0.68954 0.89007 1.15667
 H390 H 0.63227 0.94733 1.11405
 H391 H 0.59058 0.96526 1.09594
 H392 H 0.59063 0.90394 1.03520
 H393 H 0.63207 0.88569 1.05361
 C394 C 0.73262 1.12929 0.87027
 C395 C 0.74456 1.11782 0.84757
 C396 C 0.76777 1.12882 0.83654
 C397 C 0.77969 1.15165 0.84796
 C398 C 0.76772 1.16294 0.87087
 C399 C 0.74452 1.15191 0.88184
 C400 C 0.70771 1.11787 0.88172
 C401 C 0.68715 1.13474 0.89088
 C402 C 0.66366 1.12406 0.90158
 C403 C 0.66017 1.09626 0.90337
 C404 C 0.68072 1.07939 0.89421
 C405 C 0.70423 1.09007 0.88351
 C406 C 0.63512 1.08497 0.91465
 C407 C 0.62301 1.06253 0.90287
 C408 C 0.59926 1.05213 0.91330
 C409 C 0.58713 1.06395 0.93571
 C410 C 0.59928 1.08625 0.94761
 C411 C 0.62301 1.09667 0.93718
 H412 H 0.73569 1.10056 0.83801
 H413 H 0.77618 1.11944 0.81892
 H414 H 0.77618 1.18040 0.88046
 H415 H 0.73602 1.16097 0.89958
 H416 H 0.68903 1.15623 0.88936
 H417 H 0.64801 1.13758 0.90805
 H418 H 0.67879 1.05789 0.89568
 H419 H 0.71986 1.07656 0.87698
 H420 H 0.63169 1.05326 0.88532
 H421 H 0.59033 1.03490 0.90373
 H422 H 0.59045 1.09566 0.96502
 H423 H 0.63206 1.11372 0.94694
 C424 C 0.12796 0.26617 0.12785
 C425 C 0.11631 0.25414 0.15040
 C426 C 0.12734 0.23096 0.16141
 C427 C 0.15031 0.21925 0.15013
 C428 C 0.16185 0.23119 0.12744
 C429 C 0.15079 0.25437 0.11642
 C430 C 0.11653 0.29111 0.11649
 C431 C 0.11494 0.29478 0.08866
 C432 C 0.10438 0.31836 0.07802
 C433 C 0.09517 0.33880 0.09498
 C434 C 0.09672 0.33511 0.12279
 C435 C 0.10728 0.31154 0.13342
 C436 C 0.08412 0.36396 0.08374
 C437 C 0.06155 0.37611 0.09535
 C438 C 0.05137 0.39999 0.08505
 C439 C 0.06356 0.41224 0.06293
 C440 C 0.08599 0.40007 0.05116
 C441 C 0.09617 0.37616 0.06146
 H442 H 0.09849 0.26254 0.15943
 H443 H 0.11785 0.22227 0.17882
 H444 H 0.17958 0.22277 0.11825
 H445 H 0.16043 0.26335 0.09924
 H446 H 0.12154 0.27924 0.07509
 H447 H 0.10308 0.32045 0.05651
 H448 H 0.09021 0.35066 0.13638
 H449 H 0.10865 0.30951 0.15494
 H450 H 0.05158 0.36699 0.11227
 H451 H 0.03394 0.40884 0.09440
 H452 H 0.09577 0.40908 0.03407
 H453 H 0.11375 0.36746 0.05226
 C454 C -0.13005 0.26789 -0.12885
 C455 C -0.11835 0.25604 -0.15150
 C456 C -0.12920 0.23282 -0.16257
 C457 C -0.15200 0.22089 -0.15124
 C458 C -0.16358 0.23267 -0.12846
 C459 C -0.15274 0.25590 -0.11741
 C460 C -0.11878 0.29281 -0.11734
 C461 C -0.13577 0.31332 -0.10834
 C462 C -0.12520 0.33688 -0.09775
 C463 C -0.09738 0.34047 -0.09591
 C464 C -0.08037 0.31993 -0.10483
 C465 C -0.09095 0.29636 -0.11543
 C466 C -0.08616 0.36562 -0.08488
 C467 C -0.06365 0.37759 -0.09671
 C468 C -0.05323 0.40137 -0.08647
 C469 C -0.06509 0.41368 -0.06419
 C470 C -0.08752 0.40173 -0.05227
 C471 C -0.09796 0.37795 -0.06251
 H472 H -0.10106 0.26499 -0.16097
 H473 H -0.11978 0.22435 -0.18014
 H474 H -0.18108 0.22399 -0.11913
 H475 H -0.16198 0.26435 -0.09974
 H476 H -0.15729 0.31136 -0.10995
 H477 H -0.13882 0.35250 -0.09145
 H478 H -0.05886 0.32192 -0.10329
 H479 H -0.07734 0.28076 -0.12181
 H480 H -0.05431 0.36877 -0.11416
 H481 H -0.03591 0.41016 -0.09607
 H482 H -0.09698 0.41071 -0.03497
 H483 H -0.11508 0.36903 -0.05273
 C484 C 0.12951 0.73251 -0.12892
 C485 C 0.15216 0.74441 -0.11733
 C486 C 0.16313 0.76764 -0.12824
 C487 C 0.15172 0.77953 -0.15103
 C488 C 0.12895 0.76770 -0.16252
 C489 C 0.11798 0.74447 -0.15158
 C490 C 0.11812 0.70757 -0.11757
 C491 C 0.09028 0.70404 -0.11580
 C492 C 0.07961 0.68049 -0.10527
 C493 C 0.09654 0.65992 -0.09628
 C494 C 0.12438 0.66347 -0.09802
 C495 C 0.13504 0.68701 -0.10854
 C496 C 0.08525 0.63480 -0.08522
 C497 C 0.09697 0.62253 -0.06280
 C498 C 0.08653 0.59875 -0.05256
 C499 C 0.06417 0.58674 -0.06452
 C500 C 0.05234 0.59902 -0.08683
 C501 C 0.06277 0.62281 -0.09708
 H502 H 0.16128 0.73587 -0.09964
 H503 H 0.18060 0.77624 -0.11879
 H504 H 0.11966 0.77626 -0.18010
 H505 H 0.10072 0.73560 -0.16116
 H506 H 0.07673 0.71967 -0.12221
 H507 H 0.05809 0.67852 -0.10381
 H508 H 0.13794 0.64782 -0.09168
 H509 H 0.15657 0.68894 -0.11005
 H510 H 0.11406 0.63148 -0.05298
 H511 H 0.09596 0.58981 -0.03523
 H512 H 0.03506 0.59020 -0.09645
 H513 H 0.05348 0.63161 -0.11455
 C514 C -0.12793 0.73323 0.12968
 C515 C -0.11652 0.74528 0.15234
 C516 C -0.12771 0.76845 0.16325
 C517 C -0.15061 0.78010 0.15177
 C518 C -0.16193 0.76810 0.12901
 C519 C -0.15071 0.74495 0.11809
 C520 C -0.11627 0.70837 0.11833
 C521 C -0.11445 0.70481 0.09050
 C522 C -0.10378 0.68128 0.07985
 C523 C -0.09469 0.66077 0.09677
 C524 C -0.09639 0.66439 0.12460
 C525 C -0.10706 0.68792 0.13525
 C526 C -0.08369 0.63560 0.08547
 C527 C -0.06124 0.62326 0.09709
 C528 C -0.05110 0.59941 0.08661
 C529 C -0.06322 0.58740 0.06433
 C530 C -0.08557 0.59976 0.05261
 C531 C -0.09570 0.62360 0.06307
 H532 H -0.09875 0.73694 0.16150
 H533 H -0.11839 0.77718 0.18073
 H534 H -0.17959 0.77648 0.11967
 H535 H -0.16016 0.73595 0.10083
 H536 H -0.12099 0.72037 0.07695
 H537 H -0.10234 0.67927 0.05833
 H538 H -0.08995 0.64880 0.13816
 H539 H -0.10858 0.68988 0.15676
 H540 H -0.05133 0.63220 0.11413
 H541 H -0.03374 0.59040 0.09595
 H542 H -0.09531 0.59094 0.03541
 H543 H -0.11321 0.63244 0.05387
 C544 C 1.12911 0.12944 0.73262
 C545 C 1.11751 0.15214 0.74440
 C546 C 1.12838 0.16323 0.76763
 C547 C 1.15120 0.15188 0.77973
 C548 C 1.16262 0.12896 0.76792
 C549 C 1.15172 0.11794 0.74469
 C550 C 1.11782 0.11793 0.70768
 C551 C 1.13481 0.10878 0.68723
 C552 C 1.12423 0.09812 0.66368
 C553 C 1.09641 0.09637 0.66002
 C554 C 1.07941 0.10547 0.68050
 C555 C 1.08999 0.11613 0.70406
 C556 C 1.08520 0.08526 0.63487
 C557 C 1.06277 0.09713 0.62275
 C558 C 1.05240 0.08685 0.59893
 C559 C 1.06424 0.06450 0.58674
 C560 C 1.08656 0.05252 0.59888
 C561 C 1.09695 0.06280 0.62269
 H562 H 1.10026 0.16165 0.73539
 H563 H 1.11890 0.18086 0.77592
 H564 H 1.18008 0.11943 0.77652
 H565 H 1.16088 0.10020 0.73629
 H566 H 1.15632 0.11030 0.68923
 H567 H 1.13785 0.09169 0.64810
 H568 H 1.05789 0.10401 0.67846
 H569 H 1.07638 0.12264 0.71962
 H570 H 1.05347 0.11464 0.63146
 H571 H 1.03516 0.09649 0.59001
 H572 H 1.09599 0.03516 0.59001
 H573 H 1.11401 0.05299 0.63174
 C574 C 0.87205 -0.12837 0.73341
 C575 C 0.84950 -0.11683 0.74557
 C576 C 0.83867 -0.12782 0.76885
 C577 C 0.85010 -0.15074 0.78063
 C578 C 0.87287 -0.16212 0.76845
 C579 C 0.88367 -0.15107 0.74516
 C580 C 0.88323 -0.11690 0.70840
 C581 C 0.91104 -0.11510 0.70462
 C582 C 0.92151 -0.10442 0.68101
 C583 C 0.90441 -0.09530 0.66064
 C584 C 0.87660 -0.09708 0.66444
 C585 C 0.86614 -0.10776 0.68803
 C586 C 0.91548 -0.08411 0.63546
 C587 C 0.90364 -0.06163 0.62342
 C588 C 0.91387 -0.05129 0.59956
 C589 C 0.93613 -0.06322 0.58723
 C590 C 0.94807 -0.08559 0.59929
 C591 C 0.93786 -0.09593 0.62316
 H592 H 0.84033 -0.09909 0.73720
 H593 H 0.82125 -0.11825 0.77751
 H594 H 0.88236 -0.17975 0.77672
 H595 H 0.90089 -0.16060 0.73608
 H596 H 0.92472 -0.12161 0.72010
 H597 H 0.94302 -0.10294 0.67885
 H598 H 0.86291 -0.09064 0.64894
 H599 H 0.84464 -0.10928 0.69015
 H600 H 0.88663 -0.05185 0.63261
 H601 H 0.90437 -0.03392 0.59079
 H602 H 0.96526 -0.09519 0.59022
 H603 H 0.94722 -0.11344 0.63177
 C604 C 1.12809 -0.12909 0.26664
 C605 C 1.11664 -0.15174 0.25468
 C606 C 1.12771 -0.16274 0.23149
 C607 C 1.15061 -0.15138 0.21960
 C608 C 1.16191 -0.12854 0.23160
 C609 C 1.15079 -0.11757 0.25478
 C610 C 1.11657 -0.11767 0.29154
 C611 C 1.11476 -0.08987 0.29505
 C612 C 1.10418 -0.07916 0.31861
 C613 C 1.09516 -0.09602 0.33920
 C614 C 1.09690 -0.12382 0.33565
 C615 C 1.10748 -0.13452 0.31210
 C616 C 1.08411 -0.08468 0.36435
 C617 C 1.06167 -0.09631 0.37664
 C618 C 1.05145 -0.08584 0.40046
 C619 C 1.06348 -0.06355 0.41251
 C620 C 1.08582 -0.05181 0.40021
 C621 C 1.09603 -0.06227 0.37636
 H622 H 1.09892 -0.16085 0.26314
 H623 H 1.11823 -0.18022 0.22297
 H624 H 1.17953 -0.11910 0.22326
 H625 H 1.16027 -0.10030 0.26370
 H626 H 1.12121 -0.07637 0.27941
 H627 H 1.10272 -0.05766 0.32058
 H628 H 1.09053 -0.13733 0.35131
 H629 H 1.10901 -0.15602 0.31019
 H630 H 1.05181 -0.11334 0.36768
 H631 H 1.03410 -0.09519 0.40943
 H632 H 1.09549 -0.03460 0.40905
 H633 H 1.11353 -0.05306 0.36755
 C634 C 0.86670 0.13399 0.27082
 C635 C 0.84497 0.12157 0.25814
 C636 C 0.83439 0.13203 0.23448
 C637 C 0.84526 0.15528 0.22287
 C638 C 0.86688 0.16784 0.23588
 C639 C 0.87746 0.15729 0.25950
 C640 C 0.87829 0.12251 0.29563
 C641 C 0.90616 0.12152 0.29924
 C642 C 0.91711 0.11048 0.32246
 C643 C 0.90044 0.10021 0.34264
 C644 C 0.87257 0.10125 0.33904
 C645 C 0.86162 0.11225 0.31579
 C646 C 0.91210 0.08848 0.36732
 C647 C 0.90101 0.06535 0.37878
 C648 C 0.91195 0.05435 0.40204
 C649 C 0.93421 0.06625 0.41431
 C650 C 0.94538 0.08929 0.40286
 C651 C 0.93442 0.10031 0.37963
 H652 H 0.83644 0.10342 0.26623
 H653 H 0.81779 0.12164 0.22525
 H654 H 0.87584 0.18581 0.22782
 H655 H 0.89398 0.16752 0.26903
 H656 H 0.91953 0.12887 0.28388
 H657 H 0.93867 0.10959 0.32442
 H658 H 0.85918 0.09391 0.35439
 H659 H 0.84007 0.11308 0.31376
 H660 H 0.88406 0.05553 0.36957
 H661 H 0.90303 0.03648 0.41035
 H662 H 0.96253 0.09890 0.41192
 H663 H 0.94322 0.11832 0.37150
 C664 C 0.12865 0.26713 -0.13019
 C665 C 0.11717 0.25522 -0.15288
 C666 C 0.12816 0.23199 -0.16385
 C667 C 0.15098 0.21999 -0.15239
 C668 C 0.16229 0.23192 -0.12949
 C669 C 0.15126 0.25516 -0.11858
 C670 C 0.11724 0.29209 -0.11882
 C671 C 0.13415 0.31257 -0.10973
 C672 C 0.12348 0.33611 -0.09912
 C673 C 0.09565 0.33972 -0.09734
 C674 C 0.07872 0.31925 -0.10644
 C675 C 0.08940 0.29570 -0.11706
 C676 C 0.08437 0.36479 -0.08608
 C677 C 0.06188 0.37696 -0.09782
 C678 C 0.05151 0.40073 -0.08739
 C679 C 0.06340 0.41280 -0.06502
 C680 C 0.08575 0.40059 -0.05316
 C681 C 0.09613 0.37684 -0.06359
 H682 H 0.09991 0.26415 -0.16247
 H683 H 0.11877 0.22360 -0.18146
 H684 H 0.17974 0.22341 -0.11988
 H685 H 0.16033 0.26365 -0.10086
 H686 H 0.15568 0.31059 -0.11123
 H687 H 0.13705 0.35168 -0.09270
 H688 H 0.05720 0.32127 -0.10498
 H689 H 0.07585 0.28013 -0.12354
 H690 H 0.05256 0.36832 -0.11534
 H691 H 0.03425 0.40971 -0.09692
 H692 H 0.09522 0.40937 -0.03578
 H693 H 0.11321 0.36775 -0.05385
 C694 C -0.12992 0.26753 0.12963
 C695 C -0.14719 0.25108 0.11469
 C696 C -0.15854 0.22822 0.12601
 C697 C -0.15224 0.22051 0.15234
 C698 C -0.13450 0.23662 0.16710
 C699 C -0.12392 0.25998 0.15609
 C700 C -0.11839 0.29246 0.11781
 C701 C -0.09356 0.30243 0.12652
 C702 C -0.08318 0.32614 0.11606
 C703 C -0.09683 0.34023 0.09586
 C704 C -0.12137 0.32992 0.08671
 C705 C -0.13218 0.30670 0.09781
 C706 C -0.08565 0.36555 0.08457
 C707 C -0.10269 0.38557 0.07432
 C708 C -0.09222 0.40911 0.06356
 C709 C -0.06458 0.41363 0.06366
 C710 C -0.04746 0.39408 0.07412
 C711 C -0.05781 0.37011 0.08403
 H712 H -0.15183 0.25558 0.09406
 H713 H -0.17183 0.21629 0.11377
 H714 H -0.12927 0.23166 0.18753
 H715 H -0.11137 0.27228 0.16867
 H716 H -0.08187 0.29195 0.14139
 H717 H -0.06453 0.33346 0.12417
 H718 H -0.13236 0.33963 0.07082
 H719 H -0.15156 0.30020 0.09078
 H720 H -0.12420 0.38339 0.07492
 H721 H -0.10578 0.42410 0.05577
 H722 H -0.02599 0.39708 0.07409
 H723 H -0.04384 0.35512 0.09093
 C724 C -0.12774 0.73392 -0.12920
 C725 C -0.15025 0.74607 -0.11757
 C726 C -0.16111 0.76936 -0.12848
 C727 C -0.14975 0.78118 -0.15142
 C728 C -0.12701 0.76903 -0.16289
 C729 C -0.11617 0.74572 -0.15191
 C730 C -0.11655 0.70888 -0.11782
 C731 C -0.08874 0.70505 -0.11605
 C732 C -0.07828 0.68143 -0.10539
 C733 C -0.09540 0.66112 -0.09625
 C734 C -0.12320 0.66496 -0.09802
 C735 C -0.13365 0.68857 -0.10868
 C736 C -0.08434 0.63594 -0.08505
 C737 C -0.09615 0.62396 -0.06253
 C738 C -0.08596 0.60010 -0.05218
 C739 C -0.06376 0.58771 -0.06415
 C740 C -0.05183 0.59971 -0.08656
 C741 C -0.06201 0.62359 -0.09690
 H742 H -0.15937 0.73767 -0.09982
 H743 H -0.17851 0.77799 -0.11885
 H744 H -0.11757 0.77733 -0.18053
 H745 H -0.09898 0.73666 -0.16151
 H746 H -0.07506 0.72049 -0.12256
 H747 H -0.05678 0.67922 -0.10393
 H748 H -0.13690 0.64951 -0.09157
 H749 H -0.15515 0.69073 -0.11018
 H750 H -0.11313 0.63319 -0.05272
 H751 H -0.09545 0.59137 -0.03478
 H752 H -0.03468 0.59060 -0.09619
 H753 H -0.05267 0.63216 -0.11445
 C754 C 0.12869 0.73246 0.12855
 C755 C 0.11704 0.74420 0.15128
 C756 C 0.12783 0.76745 0.16237
 C757 C 0.15052 0.77951 0.15096
 C758 C 0.16204 0.76784 0.12809
 C759 C 0.15126 0.74459 0.11704
 C760 C 0.11751 0.70751 0.11703
 C761 C 0.13460 0.68714 0.10786
 C762 C 0.12412 0.66358 0.09718
 C763 C 0.09632 0.65983 0.09542
 C764 C 0.07922 0.68022 0.10453
 C765 C 0.08970 0.70379 0.11522
 C766 C 0.08522 0.63467 0.08429
 C767 C 0.06286 0.62247 0.09618
 C768 C 0.05258 0.59865 0.08589
 C769 C 0.06443 0.58653 0.06349
 C770 C 0.08669 0.59873 0.05150
 C771 C 0.09699 0.62254 0.06180
 H772 H 0.09983 0.73515 0.16081
 H773 H 0.11846 0.77584 0.18001
 H774 H 0.17946 0.77662 0.11870
 H775 H 0.16046 0.73624 0.09930
 H776 H 0.15610 0.68922 0.10938
 H777 H 0.13781 0.64808 0.09073
 H778 H 0.05772 0.67809 0.10307
 H779 H 0.07603 0.71927 0.12174
 H780 H 0.05355 0.63114 0.11372
 H781 H 0.03538 0.58969 0.09553
 H782 H 0.09613 0.58990 0.03411
 H783 H 0.11400 0.63164 0.05198
 C784 C 0.26718 1.12906 0.87073
 C785 C 0.25517 1.11746 0.84814
 C786 C 0.23194 1.12846 0.83714
 C787 C 0.22015 1.15134 0.84848
 C788 C 0.23207 1.16283 0.87120
 C789 C 0.25530 1.15180 0.88220
 C790 C 0.29213 1.11761 0.88212
 C791 C 0.29572 1.11593 0.90995
 C792 C 0.31929 1.10529 0.92061
 C793 C 0.33980 1.09610 0.90369
 C794 C 0.33618 1.09777 0.87586
 C795 C 0.31263 1.10840 0.86521
 C796 C 0.36492 1.08492 0.91497
 C797 C 0.37705 1.06240 0.90330
 C798 C 0.40085 1.05206 0.91371
 C799 C 0.41303 1.06402 0.93598
 C800 C 0.40088 1.08643 0.94776
 C801 C 0.37706 1.09678 0.93737
 H802 H 0.26363 1.09971 0.83907
 H803 H 0.22327 1.11900 0.81971
 H804 H 0.22359 1.18048 0.88043
 H805 H 0.26425 1.16139 0.89942
 H806 H 0.28014 1.12249 0.92350
 H807 H 0.32131 1.10390 0.94213
 H808 H 0.35179 1.09128 0.86230
 H809 H 0.31066 1.10984 0.84369
 H810 H 0.36798 1.05259 0.88627
 H811 H 0.40969 1.03465 0.90432
 H812 H 0.40983 1.09606 0.96497
 H813 H 0.36838 1.11432 0.94661
 C814 C 0.26715 0.87135 1.12906
 C815 C 0.25517 0.84879 1.11744
 C816 C 0.23189 0.83787 1.12836
 C817 C 0.22003 0.84925 1.15119
 C818 C 0.23193 0.87195 1.16271
 C819 C 0.25521 0.88288 1.15176
 C820 C 0.29215 0.88266 1.11770
 C821 C 0.29575 0.91044 1.11593
 C822 C 0.31935 0.92103 1.10533
 C823 C 0.33987 0.90406 1.09627
 C824 C 0.33625 0.87628 1.09803
 C825 C 0.31267 0.86570 1.10862
 C826 C 0.36501 0.91525 1.08511
 C827 C 0.37717 0.90351 1.06263
 C828 C 0.40099 0.91384 1.05229
 C829 C 0.41315 0.93611 1.06424
 C830 C 0.40098 0.94797 1.08661
 C831 C 0.37715 0.93764 1.09694
 H832 H 0.26368 0.83968 1.09972
 H833 H 0.22325 0.82045 1.11889
 H834 H 0.22339 0.88122 1.18032
 H835 H 0.26414 0.90008 1.16136
 H836 H 0.28015 0.92402 1.12239
 H837 H 0.32138 0.94251 1.10387
 H838 H 0.35187 0.86269 1.09164
 H839 H 0.31069 0.84422 1.11013
 H840 H 0.36811 0.88648 1.05283
 H841 H 0.40985 0.90440 1.03492
 H842 H 0.40992 0.96517 1.09620
 H843 H 0.36844 0.94694 1.11445
 C844 C 0.73559 1.12577 1.12649
 C845 C 0.74730 1.11474 1.14954
 C846 C 0.77007 1.12628 1.16086
 C847 C 0.78170 1.14914 1.14939
 C848 C 0.77033 1.15982 1.12598
 C849 C 0.74753 1.14826 1.11468
 C850 C 0.71060 1.11428 1.11529
 C851 C 0.70690 1.11221 1.08749
 C852 C 0.68312 1.10185 1.07706
 C853 C 0.66253 1.09333 1.09420
 C854 C 0.66627 1.09532 1.12197
 C855 C 0.69001 1.10568 1.13239
 C856 C 0.63711 1.08260 1.08322
 C857 C 0.62461 1.06052 1.09525
 C858 C 0.60043 1.05073 1.08527
 C859 C 0.58822 1.06284 1.06308
 C860 C 0.60075 1.08478 1.05089
 C861 C 0.62497 1.09456 1.06085
 H862 H 0.73883 1.09715 1.15886
 H863 H 0.77836 1.11741 1.17879
 H864 H 0.77872 1.17742 1.11663
 H865 H 0.73884 1.15739 1.09707
 H866 H 0.72253 1.11833 1.07380
 H867 H 0.68098 1.10021 1.05558
 H868 H 0.65061 1.08935 1.13568
 H869 H 0.69203 1.10748 1.15388
 H870 H 0.63366 1.05063 1.11226
 H871 H 0.59130 1.03366 1.09495
 H872 H 0.59180 1.09448 1.03372
 H873 H 0.63395 1.11178 1.05133
 C874 C 0.73408 0.87183 0.87184
 C875 C 0.74588 0.88339 0.84911
 C876 C 0.76917 0.87253 0.83807
 C877 C 0.78121 0.84984 0.84951
 C878 C 0.76951 0.83843 0.87240
 C879 C 0.74622 0.84929 0.88341
 C880 C 0.70904 0.88305 0.88326
 C881 C 0.68863 0.86602 0.89233
 C882 C 0.66496 0.87651 0.90288
 C883 C 0.66114 0.90428 0.90459
 C884 C 0.68157 0.92132 0.89556
 C885 C 0.70525 0.91082 0.88502
 C886 C 0.63588 0.91539 0.91562
 C887 C 0.62362 0.93769 0.90366
 C888 C 0.59967 0.94793 0.91386
 C889 C 0.58750 0.93608 0.93621
 C890 C 0.59977 0.91390 0.94828
 C891 C 0.62371 0.90365 0.93808
 H892 H 0.73682 0.90058 0.83955
 H893 H 0.77758 0.88181 0.82042
 H894 H 0.77828 0.82102 0.88181
 H895 H 0.73782 0.84016 0.90116
 H896 H 0.69076 0.84454 0.89084
 H897 H 0.64942 0.86287 0.90925
 H898 H 0.67938 0.94280 0.89700
 H899 H 0.72077 0.92445 0.87856
 H900 H 0.63234 0.94697 0.88616
 H901 H 0.59065 0.96506 0.90417
 H902 H 0.59091 0.90448 0.96564
 H903 H 0.63286 0.88670 0.94796
   
