data_POSCAR
  _audit_creation_date              2014-09-24
  _audit_creation_method            'ToBaCCo'
  _symmetry_space_group_name_H-M    'P1'
  _symmetry_Int_Tables_number       1
  _symmetry_cell_setting            triclinic
  loop_
  _symmetry_equiv_pos_as_xyz
 x,y,z
_cell_length_a 17.1229
_cell_length_b 16.4591
_cell_length_c 34.3977
_cell_angle_alpha 95.589500
_cell_angle_beta 88.708300
_cell_angle_gamma 124.566200
loop_
  _atom_site_label
  _atom_site_type_symbol
  _atom_site_fract_x
  _atom_site_fract_y
  _atom_site_fract_z
C1 C -0.09720 -0.16009 0.48519
 C2 C -0.02033 -0.08230 0.50895
 C3 C 0.02099 -0.10396 0.53725
 C4 C -0.01271 -0.20249 0.54230
 C5 C -0.09196 -0.27948 0.51916
 C6 C -0.13340 -0.25992 0.48960
 C7 C 0.02791 0.02217 0.50062
 C8 C 0.04236 0.09574 0.53000
 C9 C 0.10425 0.19655 0.52430
 C10 C 0.15133 0.22320 0.48908
 C11 C 0.13781 0.15085 0.45945
 C12 C 0.07397 0.05024 0.46523
 H13 H -0.12498 -0.14157 0.46224
 H14 H 0.08103 -0.04241 0.55463
 H15 H 0.00967 0.07470 0.55790
 H16 H 0.06350 -0.00705 0.44320
 H17 H -0.11952 -0.35504 0.52353
 H18 H 0.20123 0.30105 0.48553
 C19 C 1.03992 0.01891 0.11954
 C20 C 1.00322 0.06329 0.14288
 C21 C 1.06495 0.15719 0.16278
 C22 C 1.16345 0.20632 0.16013
 C23 C 1.19993 0.16160 0.13632
 C24 C 1.13870 0.06620 0.11637
 C25 C 0.90397 0.00080 0.15429
 C26 C 0.88411 -0.05797 0.18472
 C27 C 0.79065 -0.12640 0.19462
 C28 C 0.71627 -0.13439 0.17413
 C29 C 0.73460 -0.07713 0.14293
 C30 C 0.82940 -0.00837 0.13336
 H31 H 0.98971 -0.05445 0.10514
 H32 H 1.03619 0.18767 0.18299
 H33 H 0.94218 -0.05156 0.20015
 H34 H 0.84511 0.03448 0.10882
 H35 H 1.27609 0.19901 0.13554
 H36 H 0.64382 -0.18807 0.18156
 C37 C 0.11440 1.05915 0.85930
 C38 C 0.02631 1.01271 0.83940
 C39 C -0.01411 0.91982 0.81814
 C40 C 0.03333 0.87305 0.81642
 C41 C 0.11950 0.91791 0.83781
 C42 C 0.16077 1.01090 0.85979
 C43 C -0.02583 1.05942 0.84235
 C44 C 0.01386 1.15246 0.82950
 C45 C -0.03540 1.19729 0.83266
 C46 C -0.12273 1.15138 0.85113
 C47 C -0.16323 1.05744 0.86462
 C48 C -0.11469 1.01134 0.85895
 H49 H 0.14246 1.12970 0.87634
 H50 H -0.08107 0.88592 0.80210
 H51 H 0.08202 1.18865 0.81590
 H52 H -0.14204 0.94057 0.86976
 H53 H 0.15485 0.88035 0.83671
 H54 H -0.15954 1.18757 0.85395
 O55 O 0.36366 -0.05258 -0.04934
 O56 O 0.45480 -0.12433 0.02644
 O57 O 0.32106 -0.09627 0.02103
 O58 O 0.48757 -0.09551 -0.04663
 O59 O 0.59382 0.06432 -0.03011
 O60 O 0.42559 0.06171 0.04143
 O61 O 0.56485 0.03358 0.04454
 O62 O 0.46783 0.10576 -0.02909
 Cu63 Cu 0.39673 -0.10779 -0.01399
 Cu64 Cu 0.52456 0.08207 0.00903
 C65 C 0.39838 0.03859 -0.05136
 C66 C 0.52613 -0.05764 0.04810
 C67 C 0.34274 -0.01802 0.04190
 C68 C 0.56803 -0.01648 -0.05053
 O69 O -0.01984 0.39879 0.71140
 O70 O -0.00609 0.54449 0.63236
 O71 O 0.01020 0.39180 0.63464
 O72 O -0.05483 0.52865 0.70358
 O73 O 0.09709 0.64073 0.71967
 O74 O 0.16122 0.50574 0.65023
 O75 O 0.14359 0.65896 0.65087
 O76 O 0.13066 0.51552 0.72769
 Cu77 Cu -0.03228 0.45293 0.66813
 Cu78 Cu 0.14894 0.58782 0.68712
 C79 C 0.05268 0.43635 0.73433
 C80 C 0.07034 0.63002 0.63016
 C81 C 0.09710 0.42603 0.63055
 C82 C 0.01010 0.60786 0.72325
 O83 O 0.57601 0.63094 0.30853
 O84 O 0.39360 0.43370 0.36571
 O85 O 0.57383 0.58132 0.37887
 O86 O 0.39973 0.48851 0.29631
 O87 O 0.44606 0.39428 0.27122
 O88 O 0.60660 0.47363 0.35682
 O89 O 0.43027 0.33241 0.33904
 O90 O 0.62328 0.53453 0.28799
 Cu91 Cu 0.48175 0.54372 0.34009
 Cu92 Cu 0.53112 0.42408 0.31146
 C93 C 0.63053 0.61573 0.28850
 C94 C 0.37946 0.34865 0.36128
 C95 C 0.61873 0.54176 0.38208
 C96 C 0.39463 0.42684 0.26942
 N97 N 0.21622 0.41521 0.59247
 N98 N 0.21807 0.35552 0.56452
 C99 C 0.12881 0.27554 0.55608
 C100 C 0.06696 0.28475 0.57984
 C101 C 0.12566 0.37520 0.60227
 H102 H -0.00963 0.23508 0.57966
 H103 H 0.27608 0.48336 0.60390
 H104 H 0.27973 0.37003 0.55132
 N105 N 0.78067 0.69925 0.25307
 N106 N 0.82331 0.76804 0.22860
 C107 C 0.77121 0.80461 0.22377
 C108 C 0.69264 0.75798 0.24675
 C109 C 0.70146 0.69170 0.26469
 H110 H 0.63460 0.76678 0.24850
 H111 H 0.80427 0.65650 0.26072
 H112 H 0.88437 0.78549 0.21403
 N113 N 0.36819 0.15544 -0.07634
 N114 N 0.29877 0.14676 -0.10039
 C115 C 0.24409 0.05197 -0.11692
 C116 C 0.27817 -0.00044 -0.10406
 C117 C 0.35385 0.06586 -0.07837
 H118 H 0.24667 -0.07923 -0.10937
 H119 H 0.41630 0.21834 -0.05764
 H120 H 0.29213 0.20487 -0.10387
 N121 N 0.14760 0.79625 0.60726
 N122 N 0.12305 0.84430 0.58432
 C123 C 0.03489 0.77658 0.56847
 C124 C 0.00207 0.68442 0.58128
 C125 C 0.07427 0.70034 0.60547
 H126 H -0.06662 0.61510 0.57535
 H127 H 0.21074 0.83112 0.62404
 H128 H 0.16904 0.91887 0.57969
 N129 N 0.26768 0.41845 0.23131
 N130 N 0.20716 0.36095 0.20180
 C131 C 0.22710 0.29583 0.18719
 C132 C 0.30421 0.31337 0.20817
 C133 C 0.32679 0.39057 0.23617
 H134 H 0.33341 0.26958 0.20601
 H135 H 0.26534 0.47248 0.24884
 H136 H 0.15082 0.36382 0.19307
 N137 N 0.61952 -0.10930 -0.09038
 N138 N 0.69483 -0.08913 -0.11359
 C139 C 0.75069 0.00968 -0.11597
 C140 C 0.71209 0.05431 -0.09429
 C141 C 0.63127 -0.02273 -0.07829
 H142 H 0.74133 0.13263 -0.08909
 H143 H 0.56618 -0.17958 -0.08274
 H144 H 0.70232 -0.14360 -0.12736
 N145 N 0.17973 -0.10605 0.06530
 N146 N 0.12158 -0.08262 0.08446
 C147 C 0.17454 0.01585 0.09589
 C148 C 0.26780 0.05642 0.08434
 C149 C 0.26728 -0.02218 0.06498
 H150 H 0.32716 0.13353 0.08749
 H151 H 0.15656 -0.17645 0.05206
 H152 H 0.05059 -0.13560 0.08962
 N153 N 0.70618 0.51379 0.42910
 N154 N 0.77393 0.56824 0.45953
 C155 C 0.79460 0.66124 0.46366
 C156 C 0.73855 0.66639 0.43635
 C157 C 0.68504 0.57312 0.41550
 H158 H 0.73774 0.72978 0.43135
 H159 H 0.67878 0.44029 0.41869
 H160 H 0.80652 0.54080 0.47351
 N161 N 0.12045 0.43047 0.79609
 N162 N 0.09557 0.36958 0.82326
 C163 C 0.00569 0.29075 0.81528
 C164 C -0.02819 0.30141 0.78121
 C165 C 0.04744 0.39079 0.76983
 H166 H -0.09486 0.24803 0.76530
 H167 H 0.18765 0.49629 0.79492
 H168 H 0.14125 0.37948 0.84569
 N169 N 0.51560 -0.18038 0.08839
 N170 N 0.56972 -0.18544 0.11337
 C171 C 0.65400 -0.09649 0.11866
 C172 C 0.65289 -0.03158 0.09598
 C173 C 0.56359 -0.08809 0.07732
 H174 H 0.70944 0.04478 0.09275
 H175 H 0.44734 -0.23992 0.07874
 H176 H 0.54971 -0.25027 0.12535
 N177 N 0.27849 0.17324 0.37644
 N178 N 0.21406 0.12074 0.40177
 C179 C 0.19713 0.18050 0.42447
 C180 C 0.25332 0.27542 0.41247
 C181 C 0.30408 0.26748 0.38227
 H182 H 0.25981 0.34209 0.42481
 H183 H 0.30607 0.14513 0.35622
 H184 H 0.18608 0.04636 0.40426
 N185 N -0.10220 0.64247 0.75488
 N186 N -0.09611 0.71291 0.77952
 C187 C -0.00423 0.77974 0.79104
 C188 C 0.05015 0.75049 0.77296
 C189 C -0.01434 0.66381 0.75025
 H190 H 0.12655 0.78908 0.77460
 H191 H -0.16517 0.58224 0.74102
 H192 H -0.15406 0.71481 0.78796
   
