data_POSCAR
  _audit_creation_date              2014-09-24
  _audit_creation_method            'ToBaCCo'
  _symmetry_space_group_name_H-M    'P1'
  _symmetry_Int_Tables_number       1
  _symmetry_cell_setting            triclinic
  loop_
  _symmetry_equiv_pos_as_xyz
 x,y,z
_cell_length_a 28.6977
_cell_length_b 28.8088
_cell_length_c 28.7820
_cell_angle_alpha 90.538600
_cell_angle_beta 90.528100
_cell_angle_gamma 90.364800
loop_
  _atom_site_label
  _atom_site_type_symbol
  _atom_site_fract_x
  _atom_site_fract_y
  _atom_site_fract_z
C1 C 0.70988 0.69304 0.93281
 H2 H 0.74465 0.69404 0.91866
 C3 C 0.67453 0.71873 0.91201
 H4 H 0.68248 0.73967 0.88200
 C5 C 0.65700 0.66300 0.98782
 H6 H 0.65026 0.64092 1.01719
 C7 C 0.62050 0.68808 0.96799
 H8 H 0.58632 0.68529 0.98319
 N9 N 0.70058 0.66553 0.96977
 C10 C 0.83004 0.64470 1.04513
 H11 H 0.82453 0.60899 1.05486
 C12 C 0.86936 0.66825 1.06145
 H13 H 0.89393 0.64976 1.08311
 C14 C 0.80331 0.71217 1.00710
 H15 H 0.77730 0.72946 0.98642
 C16 C 0.84239 0.73724 1.02277
 H17 H 0.84613 0.77351 1.01384
 Zn18 Zn 0.74887 0.62850 0.99491
 N19 N 0.79846 0.66637 1.01758
 C20 C 0.81040 0.56154 0.95840
 N21 N 0.77278 0.58821 0.94807
 C22 C 0.75454 0.58870 0.90426
 C23 C 0.77613 0.56440 0.86827
 C24 C 0.83294 0.53654 0.92354
 C25 C 0.72174 0.61582 1.08690
 C26 C 0.70454 0.59235 1.12538
 C27 C 0.69476 0.52386 1.07700
 C28 C 0.71308 0.54855 1.03970
 N29 N 0.72571 0.59378 1.04523
 H30 H 0.82384 0.56043 0.99345
 H31 H 0.72379 0.60873 0.89674
 H32 H 0.76180 0.56641 0.83340
 H33 H 0.86374 0.51677 0.93220
 H34 H 0.73161 0.65202 1.09012
 H35 H 0.70107 0.61210 1.15720
 H36 H 0.68446 0.48795 1.07144
 H37 H 0.71655 0.53181 1.00613
 C38 C 0.87632 0.71507 1.04972
 C39 C 0.62897 0.71581 0.92891
 C40 C 0.69004 0.54547 1.12086
 C41 C 0.81657 0.53879 0.87761
 C42 C 0.71325 0.29218 0.52929
 H43 H 0.74644 0.27514 0.52524
 C44 C 0.67521 0.26762 0.54703
 H45 H 0.67921 0.23157 0.55660
 C46 C 0.66770 0.36031 0.52355
 H47 H 0.66517 0.39656 0.51442
 C48 C 0.62878 0.33701 0.54032
 H49 H 0.59643 0.35572 0.54436
 N50 N 0.70859 0.33756 0.51754
 C51 C 0.85181 0.34857 0.48185
 H52 H 0.85880 0.37884 0.50332
 C53 C 0.88905 0.32411 0.46275
 H54 H 0.92403 0.33603 0.47054
 C55 C 0.79742 0.29895 0.44349
 H56 H 0.76161 0.28997 0.43534
 C57 C 0.83351 0.27338 0.42390
 H58 H 0.82502 0.24461 0.40078
 Zn59 Zn 0.75707 0.37349 0.49166
 N60 N 0.80706 0.33592 0.47164
 C61 C 0.79540 0.38856 0.57689
 N62 N 0.77849 0.41306 0.54037
 C63 C 0.77738 0.46028 0.54158
 C64 C 0.79551 0.48452 0.58020
 C65 C 0.81339 0.41119 0.61606
 C66 C 0.69967 0.37615 0.41510
 C67 C 0.67849 0.39154 0.37451
 C68 C 0.72504 0.46147 0.37956
 C69 C 0.74580 0.44440 0.42033
 N70 N 0.73187 0.40286 0.43793
 H71 H 0.79564 0.35104 0.57512
 H72 H 0.76247 0.47929 0.51306
 H73 H 0.79524 0.52211 0.58061
 H74 H 0.82818 0.39060 0.64370
 H75 H 0.69052 0.34232 0.42823
 H76 H 0.65274 0.36951 0.35735
 H77 H 0.73671 0.49446 0.36619
 H78 H 0.77350 0.46397 0.43713
 C79 C 0.88006 0.28634 0.43257
 C80 C 0.63225 0.28990 0.55205
 C81 C 0.69047 0.43485 0.35639
 C82 C 0.81368 0.45987 0.61808
 C83 C 0.21355 -0.18758 0.06135
 H84 H 0.24815 -0.18697 0.07657
 C85 C 0.17727 -0.21020 0.08400
 H86 H 0.18433 -0.22734 0.11664
 C87 C 0.16196 -0.16420 0.00133
 H88 H 0.15605 -0.14557 -0.03057
 C89 C 0.12464 -0.18640 0.02280
 H90 H 0.09056 -0.18411 0.00680
 N91 N 0.20514 -0.16454 0.02123
 C92 C 0.33378 -0.14270 -0.05332
 H93 H 0.33102 -0.10555 -0.05762
 C94 C 0.37169 -0.16611 -0.07153
 H95 H 0.39759 -0.14644 -0.09026
 C96 C 0.30288 -0.21265 -0.02322
 H97 H 0.27594 -0.23041 -0.00418
 C98 C 0.34049 -0.23769 -0.04109
 H99 H 0.34224 -0.27483 -0.03590
 Zn100 Zn 0.25334 -0.12815 -0.00389
 N101 N 0.30068 -0.16590 -0.02916
 C102 C 0.32682 -0.09525 0.05364
 N103 N 0.28019 -0.09164 0.04544
 C104 C 0.25267 -0.06707 0.07498
 C105 C 0.27194 -0.04537 0.11465
 C106 C 0.34743 -0.07380 0.09222
 C107 C 0.23285 -0.10913 -0.09676
 C108 C 0.21230 -0.08713 -0.13458
 C109 C 0.18127 -0.02984 -0.08170
 C110 C 0.20293 -0.05291 -0.04482
 N111 N 0.22817 -0.09185 -0.05294
 H112 H 0.34837 -0.11598 0.03130
 H113 H 0.21550 -0.06565 0.06871
 H114 H 0.24940 -0.02625 0.13775
 H115 H 0.38454 -0.07776 0.09812
 H116 H 0.25149 -0.14108 -0.10251
 H117 H 0.21711 -0.10307 -0.16823
 H118 H 0.16081 0.00077 -0.07408
 H119 H 0.19870 -0.04024 -0.00968
 C120 C 0.37573 -0.21427 -0.06515
 C121 C 0.13194 -0.20905 0.06531
 C122 C 0.18527 -0.04691 -0.12760
 C123 C 0.32002 -0.04918 0.12379
 C124 C 0.19721 0.19842 0.44840
 H125 H 0.22998 0.20179 0.43044
 C126 C 0.15735 0.22004 0.43072
 H127 H 0.16005 0.24086 0.39973
 C128 C 0.15324 0.16582 0.50939
 H129 H 0.15087 0.14337 0.53903
 C130 C 0.11292 0.18735 0.49341
 H131 H 0.08035 0.18157 0.51127
 N132 N 0.19436 0.17120 0.48669
 C133 C 0.33017 0.14953 0.55114
 H134 H 0.32334 0.11436 0.56190
 C135 C 0.37056 0.17176 0.56658
 H136 H 0.39442 0.15287 0.58868
 C137 C 0.30551 0.21713 0.51197
 H138 H 0.27986 0.23476 0.49101
 C139 C 0.34571 0.24104 0.52703
 H140 H 0.35070 0.27703 0.51760
 Zn141 Zn 0.24601 0.13518 0.50737
 N142 N 0.29873 0.17202 0.52402
 C143 C 0.30246 0.06594 0.46691
 N144 N 0.26424 0.09267 0.45956
 C145 C 0.24252 0.09291 0.41724
 C146 C 0.26109 0.06829 0.37961
 C147 C 0.32205 0.04079 0.43041
 C148 C 0.22197 0.13386 0.59957
 C149 C 0.20330 0.11732 0.64073
 C150 C 0.19904 0.04070 0.60592
 C151 C 0.21762 0.05890 0.56503
 N152 N 0.22771 0.10497 0.56246
 H153 H 0.31891 0.06520 0.50070
 H154 H 0.21145 0.11318 0.41208
 H155 H 0.24352 0.06959 0.34626
 H156 H 0.35347 0.02107 0.43673
 H157 H 0.23007 0.17041 0.59635
 H158 H 0.19736 0.14128 0.66928
 H159 H 0.18905 0.00444 0.60654
 H160 H 0.22214 0.03674 0.53488
 C161 C 0.37890 0.21819 0.55456
 C162 C 0.11435 0.21368 0.45295
 C163 C 0.19098 0.07043 0.64418
 C164 C 0.30234 0.04297 0.38574
 C165 C 0.19890 0.44905 0.21825
 H166 H 0.20602 0.44239 0.25441
 C167 C 0.22518 0.42660 0.18420
 H168 H 0.25284 0.40337 0.19459
 C169 C 0.15279 0.48496 0.16034
 H170 H 0.12337 0.50612 0.15085
 C171 C 0.17811 0.46335 0.12531
 H172 H 0.16842 0.46938 0.08944
 N173 N 0.16349 0.47774 0.20588
 C174 C 0.14540 0.57784 0.31101
 H175 H 0.12123 0.59669 0.28967
 C176 C 0.16588 0.60079 0.34871
 H177 H 0.15805 0.63706 0.35482
 C178 C 0.18254 0.50767 0.33137
 H179 H 0.18781 0.47106 0.32535
 C180 C 0.20356 0.52935 0.37005
 H181 H 0.22621 0.50936 0.39234
 Zn182 Zn 0.12266 0.50319 0.25110
 N183 N 0.15458 0.53227 0.30222
 C184 C 0.06388 0.46089 0.31557
 N185 N 0.08528 0.45489 0.27408
 C186 C 0.08403 0.41335 0.25124
 C187 C 0.06219 0.37506 0.27108
 C188 C 0.04180 0.42349 0.33677
 C189 C 0.11042 0.58377 0.20182
 C190 C 0.08724 0.62125 0.18267
 C191 C 0.01401 0.58533 0.20346
 C192 C 0.03879 0.54851 0.22285
 N193 N 0.08615 0.54884 0.22211
 H194 H 0.06574 0.49424 0.33309
 H195 H 0.10141 0.40942 0.21829
 H196 H 0.06373 0.34204 0.25307
 H197 H 0.02643 0.42834 0.37070
 H198 H 0.14810 0.58280 0.20150
 H199 H 0.10738 0.64837 0.16633
 H200 H -0.02372 0.58504 0.20415
 H201 H 0.02035 0.52012 0.23893
 C202 C 0.19516 0.57664 0.37886
 C203 C 0.21458 0.43329 0.13709
 C204 C 0.03844 0.62267 0.18407
 C205 C 0.04154 0.37970 0.31496
 C206 C -0.18874 0.06493 0.20788
 H207 H -0.18517 0.07966 0.24246
 C208 C -0.21062 0.09025 0.17286
 H209 H -0.22445 0.12418 0.18132
 C210 C -0.17169 0.00459 0.15443
 H211 H -0.15466 -0.02781 0.14667
 C212 C -0.19381 0.02840 0.11845
 H213 H -0.19391 0.01264 0.08426
 N214 N -0.16884 0.02343 0.19794
 C215 C -0.12468 -0.04272 0.32653
 H216 H -0.08820 -0.04271 0.31738
 C217 C -0.13874 -0.06324 0.36756
 H218 H -0.11279 -0.07901 0.38987
 C219 C -0.20254 -0.02276 0.30756
 H220 H -0.22708 -0.00750 0.28348
 C221 C -0.21832 -0.04308 0.34882
 H222 H -0.25526 -0.04359 0.35587
 Zn223 Zn -0.12752 -0.00178 0.24272
 N224 N -0.15634 -0.02332 0.29735
 C225 C -0.09464 0.06731 0.30157
 N226 N -0.08529 0.04633 0.26024
 C227 C -0.05172 0.06335 0.23175
 C228 C -0.02542 0.10254 0.24524
 C229 C -0.06999 0.10653 0.31592
 C230 C -0.12970 -0.09053 0.21019
 C231 C -0.11469 -0.13278 0.19237
 C232 C -0.03601 -0.10234 0.19189
 C233 C -0.05269 -0.06031 0.20983
 N234 N -0.09902 -0.05509 0.21773
 H235 H -0.12266 0.05479 0.32294
 H236 H -0.04600 0.04723 0.19823
 H237 H 0.00117 0.11590 0.22240
 H238 H -0.07878 0.12246 0.34890
 H239 H -0.16622 -0.08560 0.21767
 H240 H -0.13997 -0.16022 0.18582
 H241 H 0.00072 -0.10526 0.18455
 H242 H -0.02871 -0.03213 0.21730
 C243 C -0.18595 -0.06402 0.37916
 C244 C -0.21237 0.07280 0.12700
 C245 C -0.06746 -0.13916 0.18276
 C246 C -0.03508 0.12506 0.28749
 C247 C 0.30736 0.55643 0.71989
 H248 H 0.30391 0.56845 0.75543
 C249 C 0.28407 0.57926 0.68404
 H250 H 0.26219 0.60871 0.69218
 C251 C 0.34175 0.50464 0.66584
 H252 H 0.36491 0.47606 0.65881
 C253 C 0.31941 0.52664 0.62896
 H254 H 0.32533 0.51430 0.59389
 N255 N 0.33584 0.52015 0.71016
 C256 C 0.36063 0.44436 0.83783
 H257 H 0.39828 0.44392 0.83643
 C258 C 0.33782 0.42322 0.87449
 H259 H 0.35824 0.40583 0.90084
 C260 C 0.28858 0.46655 0.80397
 H261 H 0.26971 0.48337 0.77623
 C262 C 0.26418 0.44519 0.83996
 H263 H 0.22644 0.44574 0.83991
 Zn264 Zn 0.37267 0.49518 0.75820
 N265 N 0.33601 0.46637 0.80412
 C266 C 0.40119 0.55396 0.83206
 N267 N 0.40668 0.54508 0.78593
 C268 C 0.43257 0.57384 0.75900
 C269 C 0.45478 0.61284 0.77857
 C270 C 0.42283 0.59221 0.85296
 C271 C 0.39401 0.40511 0.73178
 C272 C 0.41828 0.36903 0.71075
 C273 C 0.47933 0.42354 0.69177
 C274 C 0.45397 0.45865 0.71364
 N275 N 0.41199 0.44889 0.73295
 H276 H 0.37902 0.53228 0.85280
 H277 H 0.43507 0.56722 0.72208
 H278 H 0.47558 0.63497 0.75666
 H279 H 0.41764 0.59883 0.88967
 H280 H 0.36000 0.39833 0.74612
 H281 H 0.40208 0.33508 0.70920
 H282 H 0.51224 0.43194 0.67562
 H283 H 0.46744 0.49369 0.71418
 C284 C 0.28900 0.42421 0.87627
 C285 C 0.29071 0.56501 0.63787
 C286 C 0.46156 0.37807 0.69014
 C287 C 0.44956 0.62245 0.82618
 C288 C 0.70690 0.94847 0.70987
 H289 H 0.71442 0.93714 0.74474
 C290 C 0.72974 0.92759 0.67241
 H291 H 0.75512 0.90074 0.67910
 C292 C 0.66265 0.99449 0.65832
 H293 H 0.63509 1.01905 0.65235
 C294 C 0.68478 0.97489 0.62005
 H295 H 0.67442 0.98651 0.58598
 N296 N 0.67355 0.98096 0.70227
 C297 C 0.65990 1.06929 0.81957
 H298 H 0.63640 1.09121 0.80052
 C299 C 0.67899 1.08616 0.86104
 H300 H 0.66960 1.12100 0.87098
 C301 C 0.69561 0.99650 0.83046
 H302 H 0.70034 0.96092 0.81948
 C303 C 0.71562 1.01201 0.87251
 H304 H 0.73672 0.98826 0.89256
 Zn305 Zn 0.63486 1.00334 0.75114
 N306 N 0.66863 1.02535 0.80460
 C307 C 0.56996 0.96195 0.80937
 N308 N 0.59620 0.95433 0.77106
 C309 C 0.59723 0.91195 0.74980
 C310 C 0.57222 0.87465 0.76804
 C311 C 0.54423 0.92579 0.82854
 C312 C 0.62241 1.09033 0.71106
 C313 C 0.59867 1.12767 0.69184
 C314 C 0.52612 1.08724 0.70542
 C315 C 0.55130 1.05065 0.72477
 N316 N 0.59862 1.05286 0.72721
 H317 H 0.57000 0.99593 0.82569
 H318 H 0.61799 0.90675 0.71909
 H319 H 0.57363 0.84128 0.75060
 H320 H 0.52416 0.93225 0.85962
 H321 H 0.66010 1.09085 0.71272
 H322 H 0.61862 1.15636 0.67816
 H323 H 0.48847 1.08490 0.70316
 H324 H 0.53309 1.02032 0.73719
 C325 C 0.70749 1.05750 0.88868
 C326 C 0.71811 0.93997 0.62666
 C327 C 0.54982 1.12645 0.68896
 C328 C 0.54603 0.88125 0.80854
 C329 C 0.05472 0.20674 -0.19590
 H330 H 0.06496 0.24168 -0.20496
 C331 C 0.07455 0.16885 -0.21903
 H332 H 0.09955 0.17483 -0.24635
 C333 C 0.01149 0.15621 -0.14789
 H334 H -0.01211 0.15128 -0.11930
 C335 C 0.03051 0.11752 -0.16987
 H336 H 0.02070 0.08324 -0.15812
 N337 N 0.02371 0.19982 -0.16105
 C338 C -0.03394 0.33907 -0.14084
 H339 H -0.03210 0.34113 -0.10351
 C340 C -0.05346 0.37574 -0.16526
 H341 H -0.06627 0.40532 -0.14589
 C342 C -0.02430 0.29587 -0.21039
 H343 H -0.01470 0.26396 -0.22771
 C344 C -0.04413 0.33176 -0.23629
 H345 H -0.04880 0.32748 -0.27348
 Zn346 Zn -0.00040 0.25006 -0.12518
 N347 N -0.01958 0.30012 -0.16340
 C348 C 0.03739 0.30183 -0.04732
 N349 N 0.04678 0.27103 -0.08217
 C350 C 0.09126 0.25699 -0.09000
 C351 C 0.12843 0.27607 -0.06460
 C352 C 0.07365 0.32176 -0.02090
 C353 C -0.08917 0.21567 -0.12706
 C354 C -0.13165 0.19830 -0.11186
 C355 C -0.10491 0.20899 -0.03259
 C356 C -0.06238 0.22578 -0.04959
 N357 N -0.05543 0.22868 -0.09615
 H358 H 0.00191 0.31181 -0.04042
 H359 H 0.09847 0.23214 -0.11717
 H360 H 0.16353 0.26538 -0.07281
 H361 H 0.06566 0.34729 0.00568
 H362 H -0.08267 0.21830 -0.16391
 H363 H -0.15742 0.18775 -0.13775
 H364 H -0.10867 0.20676 0.00461
 H365 H -0.03491 0.23590 -0.02558
 C366 C -0.05891 0.37233 -0.21368
 C367 C 0.06283 0.12359 -0.20588
 C368 C -0.14047 0.19442 -0.06405
 C369 C 0.11997 0.30996 -0.03037
 C370 C 0.45533 0.20661 0.22204
 H371 H 0.45882 0.24035 0.23853
 C372 C 0.43259 0.17038 0.24511
 H373 H 0.41867 0.17655 0.27945
 C374 C 0.46725 0.15787 0.15656
 H375 H 0.47994 0.15355 0.12152
 C376 C 0.44520 0.12079 0.17838
 H377 H 0.44078 0.08859 0.15921
 N378 N 0.47170 0.19983 0.17831
 C379 C 0.56517 0.30945 0.18188
 H380 H 0.59009 0.28448 0.16936
 C381 C 0.58123 0.35157 0.20043
 H382 H 0.61844 0.35717 0.20323
 C383 C 0.48686 0.33175 0.19347
 H384 H 0.45005 0.32424 0.18943
 C385 C 0.50150 0.37465 0.21215
 H386 H 0.47574 0.39968 0.22311
 Zn387 Zn 0.49922 0.24770 0.14216
 N388 N 0.51869 0.30051 0.17797
 C389 C 0.46329 0.30630 0.07218
 N390 N 0.45411 0.26824 0.09825
 C391 C 0.41114 0.24792 0.09747
 C392 C 0.37496 0.26679 0.07115
 C393 C 0.42806 0.32626 0.04520
 C394 C 0.57781 0.19237 0.13984
 C395 C 0.61714 0.17067 0.12207
 C396 C 0.60542 0.21157 0.05005
 C397 C 0.56546 0.23184 0.06892
 N398 N 0.55246 0.22182 0.11311
 H399 H 0.49743 0.32239 0.07391
 H400 H 0.40416 0.21792 0.11852
 H401 H 0.34114 0.25003 0.07153
 H402 H 0.43555 0.35740 0.02574
 H403 H 0.56715 0.18544 0.17505
 H404 H 0.63637 0.14658 0.14353
 H405 H 0.61496 0.21902 0.01457
 H406 H 0.54490 0.25531 0.04820
 C407 C 0.54923 0.38564 0.21443
 C408 C 0.42728 0.12674 0.22332
 C409 C 0.63146 0.18034 0.07686
 C410 C 0.38285 0.30739 0.04570
 C411 C 0.93613 0.70432 0.68338
 H412 H 0.92198 0.73902 0.68430
 C413 C 0.91538 0.66912 0.70908
 H414 H 0.88519 0.67695 0.73000
 C415 C 0.99180 0.65162 0.65367
 H416 H 1.02117 0.64479 0.63148
 C417 C 0.97218 0.61541 0.67881
 H418 H 0.98779 0.58144 0.67632
 N419 N 0.97341 0.69494 0.65616
 C420 C 1.04187 0.82714 0.63194
 H421 H 1.04172 0.82688 0.59435
 C422 C 1.06269 0.86391 0.65631
 H423 H 1.07904 0.89155 0.63700
 C424 C 1.02285 0.78973 0.70235
 H425 H 1.00796 0.76034 0.72006
 C426 C 1.04377 0.82568 0.72817
 H427 H 1.04451 0.82396 0.76575
 Zn428 Zn 0.99639 0.74265 0.61829
 N429 N 1.02195 0.79136 0.65512
 C430 C 0.93016 0.80880 0.59156
 N431 N 0.94494 0.76483 0.58299
 C432 C 0.91968 0.73540 0.55517
 C433 C 0.87797 0.75016 0.53447
 C434 C 0.88880 0.82479 0.57194
 C435 C 1.08604 0.71277 0.60615
 C436 C 1.12458 0.69294 0.58490
 C437 C 1.07987 0.68647 0.51359
 C438 C 1.04207 0.70704 0.53622
 N439 N 1.04573 0.71908 0.58193
 H440 H 0.94917 0.83107 0.61547
 H441 H 0.93106 0.69998 0.55031
 H442 H 0.85798 0.72621 0.51283
 H443 H 0.87734 0.85922 0.58148
 H444 H 1.08783 0.72212 0.64261
 H445 H 1.15544 0.68681 0.60575
 H446 H 1.07630 0.67590 0.47750
 H447 H 1.00969 0.71227 0.51761
 C448 C 1.06341 0.86363 0.70513
 C449 C 0.93272 0.62379 0.70623
 C450 C 1.12178 0.67923 0.53800
 C451 C 0.86201 0.79542 0.54272
 C452 C 0.55915 0.71267 0.30668
 H453 H 0.57212 0.74796 0.30532
 C454 C 0.58337 0.67702 0.28453
 H455 H 0.61481 0.68535 0.26570
 C456 C 0.50393 0.65869 0.33502
 H457 H 0.47352 0.65157 0.35573
 C458 C 0.52709 0.62190 0.31330
 H459 H 0.51403 0.58699 0.31792
 N460 N 0.52062 0.70291 0.33192
 C461 C 0.43887 0.82852 0.35571
 H462 H 0.43384 0.82410 0.39261
 C463 C 0.42024 0.86715 0.33372
 H464 H 0.40024 0.89143 0.35429
 C465 C 0.47243 0.80235 0.28541
 H466 H 0.49340 0.77731 0.26697
 C467 C 0.45402 0.84056 0.26173
 H468 H 0.46070 0.84422 0.22495
 Zn469 Zn 0.49452 0.75101 0.36867
 N470 N 0.46527 0.79756 0.33181
 C471 C 0.54780 0.82710 0.40104
 N472 N 0.54394 0.78010 0.40347
 C473 C 0.57682 0.75476 0.42630
 C474 C 0.61544 0.77688 0.44744
 C475 C 0.58500 0.85039 0.42207
 C476 C 0.40402 0.72441 0.39147
 C477 C 0.36849 0.70327 0.41648
 C478 C 0.42527 0.68194 0.47476
 C479 C 0.45983 0.70386 0.44864
 N480 N 0.44861 0.72467 0.40784
 H481 H 0.52279 0.84706 0.38182
 H482 H 0.57386 0.71732 0.42691
 H483 H 0.64165 0.75638 0.46493
 H484 H 0.58724 0.88782 0.41918
 H485 H 0.39607 0.73967 0.35819
 H486 H 0.33385 0.70272 0.40147
 H487 H 0.43482 0.66485 0.50680
 H488 H 0.49564 0.70343 0.46054
 C489 C 0.42822 0.87419 0.28602
 C490 C 0.56797 0.63083 0.28829
 C491 C 0.37883 0.68158 0.45888
 C492 C 0.61972 0.82545 0.44508
 Si493 Si 0.35933 -0.00007 0.25726
 Si494 Si 0.12410 0.99155 0.74809
 Si495 Si 0.63008 0.50620 0.24392
 Si496 Si 0.87361 0.49657 0.74818
 Si497 Si 0.25307 0.36842 0.00759
 Si498 Si 0.74926 0.13633 1.00445
 Si499 Si 0.25336 0.62087 0.50667
 Si500 Si 0.74816 0.87727 0.49611
 Si501 Si 0.00299 0.24779 0.36290
 Si502 Si 1.00301 0.74837 0.12093
 Si503 Si 0.50619 0.25216 0.62622
 Si504 Si 0.50184 0.75384 0.86491
 C505 C 0.41102 -0.08652 0.26275
 C506 C 0.38772 -0.05345 0.28540
 H507 H 0.41632 -0.08324 0.22566
 H508 H 0.37377 -0.02542 0.26821
 C509 C 0.91585 0.40834 0.75997
 C510 C 0.91482 0.45272 0.77390
 H511 H 0.89632 0.39757 0.72931
 H512 H 0.93623 0.46469 0.80274
 C513 C 0.08635 1.08408 0.77098
 C514 C 0.08343 1.03723 0.77780
 H515 H 0.06954 1.05520 0.78738
 H516 H 0.10624 1.01215 0.75896
 C517 C 0.59790 0.59360 0.26904
 C518 C 0.58567 0.54887 0.26332
 H519 H 0.63287 0.60401 0.25981
 H520 H 0.55141 0.53628 0.27224
 C521 C 0.56473 0.43236 0.23135
 C522 C 0.60550 0.45125 0.21897
 H523 H 0.54184 0.45181 0.25390
 H524 H 0.62856 0.43254 0.19619
 C525 C 0.08656 0.90111 0.73235
 C526 C 0.08877 0.94475 0.71727
 H527 H 0.10183 0.89252 0.76570
 H528 H 0.07140 0.95474 0.68543
 C529 C 0.90788 0.58645 0.73108
 C530 C 0.91162 0.54149 0.72018
 H531 H 0.88296 0.59671 0.75721
 H532 H 0.93433 0.52935 0.69301
 C533 C 0.39960 0.08980 0.24637
 C534 C 0.40207 0.04465 0.23494
 H535 H 0.37517 0.10060 0.27270
 H536 H 0.42731 0.03235 0.21015
 C537 C 0.26392 0.40216 -0.08509
 C538 C 0.28141 0.40228 -0.04191
 H539 H 0.23048 0.38589 -0.09223
 H540 H 0.31306 0.42134 -0.03358
 C541 C 0.80100 0.91026 0.42147
 C542 C 0.76061 0.91422 0.44374
 H543 H 0.82677 0.88661 0.43510
 H544 H 0.73381 0.93766 0.43197
 C545 C 0.76997 0.10167 1.09180
 C546 C 0.76588 0.09062 1.04647
 H547 H 0.75996 0.13648 1.10217
 H548 H 0.77553 0.05719 1.03256
 C549 C 0.26889 0.59164 0.59991
 C550 C 0.27994 0.58434 0.55556
 H551 H 0.24473 0.61896 0.60885
 H552 H 0.26570 0.60415 0.52949
 C553 C 0.21621 0.60257 0.41832
 C554 C 0.23018 0.58312 0.45786
 H555 H 0.21795 0.64006 0.41565
 H556 H 0.22680 0.54619 0.46357
 C557 C 0.72707 0.07218 0.93174
 C558 C 0.72313 0.11536 0.94905
 H559 H 0.74696 0.04736 0.95171
 H560 H 0.70560 0.14256 0.93057
 C561 C 0.73935 0.91387 0.58744
 C562 C 0.72615 0.91787 0.54288
 H563 H 0.76504 0.88791 0.59614
 H564 H 0.69960 0.94182 0.53196
 C565 C 0.24079 0.40759 0.10121
 C566 C 0.23008 0.41075 0.05623
 H567 H 0.26893 0.38507 0.11205
 H568 H 0.25351 0.39682 0.03372
 C569 C -0.08306 0.26213 0.40606
 C570 C -0.03743 0.27203 0.40841
 H571 H -0.09488 0.23687 0.38039
 H572 H -0.02324 0.29714 0.43280
 C573 C 0.41591 0.75991 0.91609
 C574 C 0.44994 0.78264 0.89478
 H575 H 0.41686 0.72242 0.91866
 H576 H 0.47726 0.76535 0.87975
 C577 C 1.09352 0.77131 0.09316
 C578 C 1.04926 0.76677 0.07878
 H579 H 1.10216 0.76145 0.12836
 H580 H 1.03794 0.77650 0.04438
 C581 C 0.59246 0.26414 0.57156
 C582 C 0.54926 0.28027 0.58094
 H583 H 0.56199 0.28138 0.55727
 H584 H 0.53700 0.27486 0.61644
 C585 C 0.42058 0.24335 0.57252
 C586 C 0.45391 0.22060 0.59522
 H587 H 0.42292 0.28070 0.56893
 H588 H 0.48089 0.23681 0.61117
 C589 C 0.91793 0.74108 0.06625
 C590 C 0.94943 0.71987 0.09241
 H591 H 0.92183 0.77765 0.05845
 H592 H 0.97760 0.73777 0.10612
 C593 C 0.59162 0.74045 0.90340
 C594 C 0.54638 0.73001 0.90680
 H595 H 0.60235 0.76535 0.87762
 H596 H 0.53400 0.70420 0.93074
 C597 C 0.07012 0.23163 0.43377
 C598 C 0.06189 0.23300 0.38818
 H599 H 0.04200 0.23899 0.45753
 H600 H 0.08834 0.22273 0.36366
 C601 C 0.52317 0.16364 0.66589
 C602 C 0.53851 0.20744 0.66290
 H603 H 0.48984 0.15431 0.65044
 H604 H 0.57049 0.21856 0.67988
 C605 C 1.01274 0.66100 0.16240
 C606 C 1.03031 0.70400 0.15990
 H607 H 0.97925 0.65288 0.14665
 H608 H 1.06230 0.71328 0.17790
 C609 C 0.94620 0.81646 0.16071
 C610 C 0.98994 0.80176 0.15661
 H611 H 0.91838 0.79492 0.14658
 H612 H 1.01909 0.82074 0.17155
 C613 C 0.48677 0.34209 0.66348
 C614 C 0.47920 0.29655 0.66823
 H615 H 0.51165 0.35362 0.63789
 H616 H 0.45594 0.28301 0.69418
 C617 C 0.47070 0.66330 0.84963
 C618 C 0.48292 0.70240 0.82826
 H619 H 0.47352 0.66214 0.88718
 H620 H 0.47814 0.70684 0.79128
 C621 C -0.00940 0.16769 0.30180
 C622 C -0.02664 0.19434 0.33541
 H623 H 0.02335 0.17663 0.28558
 H624 H -0.00863 0.22279 0.34819
 C625 C 0.02402 0.33946 0.34127
 C626 C 0.01486 0.29752 0.32295
 H627 H 0.02021 0.34438 0.37840
 H628 H 0.01790 0.29019 0.28624
 C629 C 0.52074 0.84310 0.83160
 C630 C 0.53114 0.79809 0.82685
 H631 H 0.49467 0.85311 0.85666
 H632 H 0.55849 0.78635 0.80410
 C633 C 0.66987 0.52131 0.15567
 C634 C 0.66667 0.53596 0.20000
 H635 H 0.65460 0.48790 0.14691
 H636 H 0.68441 0.56680 0.21242
 C637 C 0.16572 1.05532 0.68609
 C638 C 0.16390 1.01147 0.70028
 H639 H 0.14733 1.08161 0.70542
 H640 H 0.18351 0.98471 0.68274
 C641 C 0.16198 0.97487 0.83770
 C642 C 0.16235 0.96232 0.79257
 H643 H 0.14061 1.00439 0.84696
 H644 H 0.18312 0.93431 0.77912
 C645 C 0.66632 0.44929 0.31311
 C646 C 0.66652 0.49215 0.29567
 H647 H 0.64515 0.42300 0.29586
 H648 H 0.68570 0.52021 0.31228
 C649 C 0.83550 0.48524 0.65768
 C650 C 0.83853 0.46749 0.70038
 H651 H 0.84992 0.51936 0.65116
 H652 H 0.82171 0.43496 0.70869
 C653 C 0.34354 -0.02901 0.16542
 C654 C 0.32236 -0.01741 0.20500
 H655 H 0.38122 -0.02643 0.16441
 H656 H 0.28523 -0.02178 0.20932
 C657 C 0.32642 0.01884 0.34715
 C658 C 0.32102 0.02879 0.30203
 H659 H 0.35270 -0.00614 0.35690
 H660 H 0.29712 0.05519 0.29043
 C661 C 0.84340 0.51587 0.84043
 C662 C 0.83455 0.52291 0.79554
 H663 H 0.87311 0.49502 0.85048
 H664 H 0.85543 0.50879 0.77022
 C665 C 0.16053 0.65415 0.51534
 C666 C 0.20500 0.65904 0.52907
 H667 H 0.15180 0.63008 0.48747
 H668 H 0.21489 0.68427 0.55543
 C669 C 0.67128 0.15450 1.05779
 C670 C 0.70307 0.17319 1.02986
 H671 H 0.67501 0.11873 1.06839
 H672 H 0.70053 0.20896 1.01904
 C673 C 0.81821 0.17562 0.94878
 C674 C 0.80324 0.17010 0.99248
 H675 H 0.79523 0.16325 0.92119
 H676 H 0.82260 0.18254 1.02246
 C677 C 0.34309 0.65555 0.48533
 C678 C 0.29719 0.66032 0.47855
 H679 H 0.35515 0.63054 0.51054
 H680 H 0.28327 0.68573 0.45496
 C681 C 0.65952 0.85210 0.46469
 C682 C 0.69977 0.83378 0.47875
 H683 H 0.65612 0.88963 0.46524
 H684 H 0.72667 0.85492 0.49069
 C685 C 0.15856 0.33537 -0.00656
 C686 C 0.20279 0.32943 -0.01905
 H687 H 0.15016 0.36163 0.01920
 H688 H 0.22938 0.34860 -0.00630
 C689 C 0.34479 0.33197 0.02111
 C690 C 0.29999 0.32901 0.03347
 H691 H 0.35469 0.35640 -0.00538
 H692 H 0.28905 0.30684 0.06146
 C693 C 0.81655 0.81040 0.52279
 C694 C 0.80592 0.85514 0.51769
 H695 H 0.79142 0.78417 0.51190
 H696 H 0.83106 0.88215 0.52581
   
