data_POSCAR
  _audit_creation_date              2014-09-24
  _audit_creation_method            'ToBaCCo'
  _symmetry_space_group_name_H-M    'P1'
  _symmetry_Int_Tables_number       1
  _symmetry_cell_setting            triclinic
  loop_
  _symmetry_equiv_pos_as_xyz
 x,y,z
_cell_length_a 16.7801
_cell_length_b 16.7801
_cell_length_c 31.7261
_cell_angle_alpha 89.974700
_cell_angle_beta 89.904700
_cell_angle_gamma 90.000100
loop_
  _atom_site_label
  _atom_site_type_symbol
  _atom_site_fract_x
  _atom_site_fract_y
  _atom_site_fract_z
O1 O 0.10162 0.52791 1.03976
 O2 O 0.01405 0.39928 0.95804
 O3 O 0.10192 0.52703 0.95779
 O4 O 0.01391 0.40006 1.04028
 O5 O -0.09477 0.47442 1.03997
 O6 O -0.00678 0.60123 0.95732
 O7 O -0.09470 0.47354 0.95801
 O8 O -0.00704 0.60229 1.03966
 Cu9 Cu 0.06876 0.45604 0.99899
 Cu10 Cu -0.06168 0.54544 0.99872
 C11 C 0.06208 0.58685 1.05367
 C12 C -0.05515 0.41461 0.94410
 C13 C 0.06248 0.58562 0.94339
 C14 C -0.05530 0.41573 1.05420
 O15 O 0.47817 0.09649 0.54006
 O16 O 0.60517 0.00915 0.45733
 O17 O 0.47748 0.09705 0.45812
 O18 O 0.60603 0.00878 0.53967
 O19 O 0.53167 -0.09989 0.53967
 O20 O 0.40322 -0.01170 0.45802
 O21 O 0.53098 -0.09957 0.45769
 O22 O 0.40380 -0.01218 0.54027
 Cu23 Cu 0.54929 0.06372 0.49879
 Cu24 Cu 0.45989 -0.06672 0.49892
 C25 C 0.41944 0.05694 0.55425
 C26 C 0.58960 -0.06000 0.44332
 C27 C 0.41858 0.05761 0.44416
 C28 C 0.59056 -0.06044 0.55362
 C29 C 0.11610 0.11035 0.28239
 H30 H 0.09122 0.15216 0.26013
 C31 C 0.17851 0.13443 0.30851
 H32 H 0.20089 0.19455 0.30550
 C33 C 0.11535 -0.01774 0.31378
 H34 H 0.08998 -0.07691 0.31568
 C35 C 0.17776 0.00380 0.34050
 H36 H 0.20030 -0.03944 0.36285
 N37 N 0.08674 0.03496 0.28498
 C38 C -0.01540 -0.11173 0.18521
 H39 H -0.07464 -0.08653 0.18335
 C40 C 0.00654 -0.17376 0.15826
 H41 H -0.03647 -0.19621 0.13580
 C42 C 0.11251 -0.11231 0.21665
 H43 H 0.15412 -0.08747 0.23899
 C44 C 0.13699 -0.17433 0.19031
 H45 H 0.19719 -0.19647 0.19325
 Zn46 Zn 0.00255 0.00079 0.24963
 N47 N 0.03703 -0.08320 0.21413
 C48 C 0.02082 0.11380 0.18547
 N49 N -0.03175 0.08521 0.21441
 C50 C -0.10710 0.11464 0.21714
 C51 C -0.13129 0.17705 0.19098
 C52 C -0.00082 0.17618 0.15871
 C53 C -0.11121 -0.10906 0.28219
 C54 C -0.17371 -0.13337 0.30832
 C55 C -0.17276 -0.00319 0.34075
 C56 C -0.11029 0.01860 0.31400
 N57 N -0.08174 -0.03375 0.28498
 H58 H 0.07996 0.08837 0.18347
 H59 H -0.14881 0.08978 0.23950
 H60 H -0.19139 0.19946 0.19407
 H61 H 0.04230 0.19865 0.13622
 H62 H -0.08635 -0.15061 0.25978
 H63 H -0.19614 -0.19344 0.30518
 H64 H -0.19526 0.03979 0.36327
 H65 H -0.08481 0.07770 0.31606
 C66 C 0.08344 -0.20634 0.16078
 C67 C 0.21065 0.08057 0.33788
 C68 C -0.20582 -0.07984 0.33789
 C69 C -0.07758 0.20909 0.16143
 C70 C -0.10611 0.11199 0.78210
 H71 H -0.14761 0.08714 0.75971
 C72 C -0.13050 0.17443 0.80820
 H73 H -0.19055 0.19688 0.80502
 C74 C 0.02153 0.11114 0.81386
 H75 H 0.08065 0.08571 0.81592
 C76 C -0.00032 0.17358 0.84055
 H77 H 0.04262 0.19607 0.86304
 N78 N -0.03078 0.08256 0.78489
 C79 C 0.11715 -0.01983 0.68552
 H80 H 0.09178 -0.07899 0.68355
 C81 C 0.17963 0.00190 0.65877
 H82 H 0.20224 -0.04118 0.63633
 C83 C 0.11774 0.10806 0.71707
 H84 H 0.09274 0.14973 0.73938
 C85 C 0.18023 0.13233 0.69093
 H86 H 0.20255 0.19245 0.69397
 Zn87 Zn 0.00387 -0.00169 0.74963
 N88 N 0.08839 0.03268 0.71440
 C89 C -0.10837 0.01639 0.68516
 N90 N -0.08001 -0.03610 0.71414
 C91 C -0.10921 -0.11155 0.71672
 C92 C -0.17115 -0.13594 0.69035
 C93 C -0.17031 -0.00546 0.65820
 C94 C 0.11330 -0.11532 0.78247
 C95 C 0.13730 -0.17779 0.80863
 C96 C 0.00666 -0.17694 0.84069
 C97 C -0.01481 -0.11450 0.81392
 N98 N 0.03792 -0.08591 0.78506
 H99 H -0.08311 0.07561 0.68327
 H100 H -0.08452 -0.15319 0.73912
 H101 H -0.19338 -0.19612 0.69335
 H102 H -0.19261 0.03760 0.63569
 H103 H 0.15515 -0.09043 0.76019
 H104 H 0.19743 -0.20015 0.80565
 H105 H -0.03661 -0.19949 0.86307
 H106 H -0.07397 -0.08908 0.81582
 C107 C 0.21246 0.07868 0.66145
 C108 C -0.07702 0.20653 0.83773
 C109 C 0.08338 -0.20994 0.83803
 C110 C -0.20297 -0.08233 0.66076
 C111 C 0.09629 -0.36233 0.08665
 C112 C 0.17169 -0.37109 0.10310
 C113 C 0.17821 -0.31328 0.13307
 C114 C 0.10599 -0.27343 0.13275
 O115 O 0.05638 -0.30339 0.10448
 H116 H 0.21631 -0.41470 0.09443
 H117 H 0.22952 -0.30263 0.15284
 C118 C -0.08968 0.36536 0.08740
 C119 C -0.16499 0.37455 0.10402
 C120 C -0.17177 0.31675 0.13404
 C121 C -0.09979 0.27648 0.13354
 O122 O -0.05008 0.30618 0.10514
 H123 H -0.20941 0.41837 0.09543
 H124 H -0.22310 0.30633 0.15392
 C125 C 0.36898 0.09112 0.58746
 C126 C 0.37815 0.16632 0.60413
 C127 C 0.32026 0.17296 0.63413
 C128 C 0.27995 0.10100 0.63358
 O129 O 0.30972 0.05144 0.60517
 H130 H 0.42203 0.21077 0.59557
 H131 H 0.30981 0.22417 0.65404
 C132 C -0.35871 -0.09485 0.58659
 C133 C -0.36748 -0.17035 0.60299
 C134 C -0.30977 -0.17702 0.63298
 C135 C -0.26996 -0.10477 0.63270
 O136 O -0.29985 -0.05502 0.60445
 H137 H -0.41105 -0.21494 0.59429
 H138 H -0.29915 -0.22843 0.65272
 C139 C 0.09503 -0.36685 0.91178
 C140 C 0.16970 -0.37722 0.89439
 C141 C 0.17652 -0.31926 0.86448
 C142 C 0.10534 -0.27767 0.86575
 O143 O 0.05601 -0.30669 0.89454
 H144 H 0.21367 -0.42195 0.90235
 H145 H 0.22728 -0.30973 0.84407
 C146 C -0.08944 0.36361 0.91122
 C147 C -0.16481 0.37237 0.89474
 C148 C -0.17149 0.31417 0.86498
 C149 C -0.09939 0.27411 0.86547
 O150 O -0.04971 0.30431 0.89363
 H151 H -0.20933 0.41620 0.90325
 H152 H -0.22283 0.30337 0.84526
 C153 C -0.36281 -0.09228 0.41167
 C154 C -0.37312 -0.16679 0.39417
 C155 C -0.31511 -0.17331 0.36423
 C156 C -0.27356 -0.10211 0.36560
 O157 O -0.30265 -0.05307 0.39447
 H158 H -0.41784 -0.21086 0.40208
 H159 H -0.30552 -0.22388 0.34375
 C160 C 0.36765 0.09220 0.41134
 C161 C 0.37646 0.16772 0.39497
 C162 C 0.31831 0.17471 0.36523
 C163 C 0.27821 0.10263 0.36563
 O164 O 0.30835 0.05266 0.39370
 H165 H 0.42029 0.21214 0.40353
 H166 H 0.30757 0.22624 0.34560
   
