data_POSCAR
  _audit_creation_date              2014-09-24
  _audit_creation_method            'ToBaCCo'
  _symmetry_space_group_name_H-M    'P1'
  _symmetry_Int_Tables_number       1
  _symmetry_cell_setting            triclinic
  loop_
  _symmetry_equiv_pos_as_xyz
 x,y,z
_cell_length_a 59.3110
_cell_length_b 59.5640
_cell_length_c 28.4115
_cell_angle_alpha 90.045500
_cell_angle_beta 89.876400
_cell_angle_gamma 119.665400
loop_
  _atom_site_label
  _atom_site_type_symbol
  _atom_site_fract_x
  _atom_site_fract_y
  _atom_site_fract_z
C1 C 0.15030 0.41994 0.50777
 C2 C 0.16326 0.42334 0.46502
 C3 C 0.18637 0.42253 0.46315
 C4 C 0.19669 0.41761 0.50380
 C5 C 0.18305 0.41362 0.54690
 C6 C 0.16029 0.41542 0.54899
 C7 C 0.22269 0.41912 0.50150
 C8 C 0.23902 0.42736 0.54111
 C9 C 0.26411 0.43100 0.53864
 C10 C 0.27372 0.42718 0.49634
 C11 C 0.25811 0.41932 0.45620
 C12 C 0.23247 0.41466 0.45897
 H13 H 0.13286 0.42157 0.50917
 H14 H 0.19675 0.42690 0.43002
 H15 H 0.19023 0.40966 0.57902
 H16 H 0.23282 0.43200 0.57377
 H17 H 0.29355 0.43091 0.49440
 H18 H 0.22058 0.40808 0.42768
 C19 C 0.58471 -0.27211 0.50557
 C20 C 0.58149 -0.26252 0.46280
 C21 C 0.57996 -0.23989 0.46156
 C22 C 0.58242 -0.22584 0.50288
 C23 C 0.58630 -0.23546 0.54604
 C24 C 0.58676 -0.25886 0.54744
 C25 C 0.57860 -0.20275 0.50088
 C26 C 0.56857 -0.19618 0.54017
 C27 C 0.56303 -0.17599 0.53782
 C28 C 0.56664 -0.16243 0.49590
 C29 C 0.57624 -0.16870 0.45609
 C30 C 0.58287 -0.18828 0.45883
 H31 H 0.58481 -0.29029 0.50641
 H32 H 0.57569 -0.23401 0.42824
 H33 H 0.58844 -0.22525 0.57870
 H34 H 0.56413 -0.20716 0.57250
 H35 H 0.56152 -0.14731 0.49404
 H36 H 0.59088 -0.19232 0.42785
 C37 C 1.26462 0.85376 0.50420
 C38 C 1.25467 0.84100 0.46158
 C39 C 1.23140 0.81754 0.46059
 C40 C 1.21709 0.80670 0.50205
 C41 C 1.22709 0.82023 0.54498
 C42 C 1.25109 0.84328 0.54611
 C43 C 1.19329 0.78043 0.50057
 C44 C 1.18611 0.76430 0.54043
 C45 C 1.16513 0.73915 0.53882
 C46 C 1.15139 0.72925 0.49706
 C47 C 1.15831 0.74459 0.45667
 C48 C 1.17870 0.77029 0.45862
 H49 H 1.28327 0.87141 0.50500
 H50 H 1.22520 0.80737 0.42741
 H51 H 1.21675 0.81283 0.57777
 H52 H 1.19726 0.77077 0.57260
 H53 H 1.13566 0.70939 0.49564
 H54 H 1.18324 0.78195 0.42715
 C55 C 0.85478 0.59066 0.52736
 C56 C 0.84469 0.58711 0.48200
 C57 C 0.82256 0.58908 0.47332
 C58 C 0.81058 0.59555 0.50971
 C59 C 0.82137 0.59954 0.55551
 C60 C 0.84300 0.59650 0.56433
 C61 C 0.78615 0.59647 0.50012
 C62 C 0.76771 0.59085 0.53618
 C63 C 0.74415 0.59002 0.52676
 C64 C 0.73827 0.59398 0.48107
 C65 C 0.75596 0.59913 0.44461
 C66 C 0.78007 0.60112 0.45417
 H67 H 0.87146 0.58825 0.53410
 H68 H 0.81444 0.58470 0.43826
 H69 H 0.81299 0.60467 0.58457
 H70 H 0.77102 0.58612 0.57133
 H71 H 0.71952 0.59221 0.47350
 H72 H 0.79362 0.60574 0.42539
 C73 C 0.42953 0.27201 0.52198
 C74 C 0.43283 0.26394 0.47764
 C75 C 0.42815 0.23878 0.47105
 C76 C 0.41913 0.22079 0.50827
 C77 C 0.41551 0.22910 0.55298
 C78 C 0.42121 0.25477 0.55995
 C79 C 0.41493 0.19409 0.50049
 C80 C 0.41866 0.18052 0.53754
 C81 C 0.41671 0.15642 0.52951
 C82 C 0.41171 0.14585 0.48432
 C83 C 0.40829 0.15905 0.44698
 C84 C 0.40913 0.18267 0.45515
 H85 H 0.43379 0.29179 0.52698
 H86 H 0.43221 0.23363 0.43679
 H87 H 0.40847 0.21586 0.58246
 H88 H 0.42412 0.18900 0.57228
 H89 H 0.41139 0.12773 0.47779
 H90 H 0.40588 0.19222 0.42573
 C91 C 0.72498 0.15103 0.51819
 C92 C 0.73300 0.16311 0.47445
 C93 C 0.75728 0.18522 0.46954
 C94 C 0.77445 0.19521 0.50792
 C95 C 0.76624 0.18248 0.55191
 C96 C 0.74140 0.16083 0.55715
 C97 C 0.80002 0.21954 0.50227
 C98 C 0.81143 0.23644 0.54068
 C99 C 0.83442 0.25998 0.53489
 C100 C 0.84597 0.26736 0.49053
 C101 C 0.83486 0.25114 0.45183
 C102 C 0.81242 0.22707 0.45779
 H103 H 0.70582 0.13427 0.52207
 H104 H 0.76225 0.19486 0.43574
 H105 H 0.77883 0.18934 0.58230
 H106 H 0.80211 0.23190 0.57485
 H107 H 0.86324 0.28607 0.48579
 H108 H 0.80457 0.21464 0.42740
 O109 O 0.98771 0.53113 -0.05731
 O110 O 1.02326 0.52449 0.09277
 O111 O 0.95191 0.49861 0.04895
 O112 O 1.06593 0.54183 -0.03190
 O113 O 0.97663 0.49405 0.10126
 O114 O 1.03264 0.54401 -0.05655
 O115 O 1.03774 0.54753 0.02879
 O116 O 0.95057 0.49854 -0.03989
 C117 C 0.96377 0.52095 -0.05575
 C118 C 1.03374 0.54627 0.07232
 C119 C 0.95991 0.50042 0.09027
 C120 C 1.05629 0.55075 -0.06234
 O121 O 1.02134 0.49617 -0.08778
 O122 O 0.98416 0.45559 0.06715
 O123 O 0.95195 0.45522 -0.04024
 O124 O 1.05807 0.52024 0.04841
 O125 O 1.02817 0.48282 0.06007
 O126 O 0.97554 0.48424 -0.09287
 O127 O 1.03986 0.49313 -0.02532
 O128 O 0.94829 0.45353 0.04789
 Co129 Co 1.00386 0.51253 -0.06696
 Co130 Co 1.00289 0.49017 0.07446
 Co131 Co 0.95522 0.47858 0.00403
 Co132 Co 1.03728 0.51974 0.00046
 O133 O 0.99800 0.49861 0.00482
 C134 C 1.03444 0.48785 -0.06753
 C135 C 0.96026 0.44337 0.06553
 C136 C 0.95940 0.46129 -0.08172
 C137 C 1.05101 0.49921 0.06730
 O138 O 0.47119 0.45543 -0.05531
 O139 O 0.47587 0.49504 0.09271
 O140 O 0.52003 0.45998 0.04155
 O141 O 0.46233 0.52444 -0.02891
 O142 O 0.50009 0.47078 0.09576
 O143 O 0.45781 0.48823 -0.05551
 O144 O 0.45585 0.48888 0.02687
 O145 O 0.50676 0.45391 -0.04306
 C146 C 0.48303 0.44295 -0.05442
 C147 C 0.45506 0.48534 0.07007
 C148 C 0.50798 0.45606 0.08026
 C149 C 0.45197 0.50592 -0.05974
 O150 O 0.50522 0.52321 -0.08893
 O151 O 0.54340 0.51312 0.08527
 O152 O 0.54660 0.50441 -0.05747
 O153 O 0.48746 0.53624 0.05083
 O154 O 0.52242 0.53851 0.07382
 O155 O 0.51362 0.48677 -0.10048
 O156 O 0.51135 0.54514 -0.02539
 O157 O 0.55926 0.50669 0.02158
 Co158 Co 0.48876 0.48961 -0.06766
 Co159 Co 0.50966 0.50395 0.07926
 Co160 Co 0.53049 0.48250 -0.00889
 Co161 Co 0.48446 0.51633 -0.00012
 O162 O 0.50528 0.49800 0.00395
 C163 C 0.51536 0.54464 -0.06830
 C164 C 0.56213 0.51528 0.06215
 C165 C 0.53731 0.50062 -0.09697
 C166 C 0.50807 0.54803 0.07289
 O167 O 0.53961 0.00617 -0.05655
 O168 O 0.50014 -0.02788 0.09220
 O169 O 0.53592 0.05083 0.04079
 O170 O 0.46960 -0.07051 -0.02910
 O171 O 0.52560 0.02027 0.09466
 O172 O 0.50609 -0.03953 -0.05630
 O173 O 0.50574 -0.04206 0.02612
 O174 O 0.54160 0.04330 -0.04384
 C175 C 0.55237 0.03032 -0.05553
 C176 C 0.50951 -0.03928 0.06926
 C177 C 0.54029 0.04268 0.07901
 C178 C 0.48802 -0.06274 -0.06039
 O179 O 0.47142 -0.02626 -0.08897
 O180 O 0.48370 0.02271 0.08588
 O181 O 0.49095 0.03338 -0.05749
 O182 O 0.45840 -0.05646 0.05099
 O183 O 0.45710 -0.02342 0.07490
 O184 O 0.50843 0.01790 -0.10103
 O185 O 0.44953 -0.04159 -0.02516
 O186 O 0.48898 0.04394 0.02153
 Co187 Co 0.50524 -0.00979 -0.06828
 Co188 Co 0.49197 -0.00250 0.07922
 Co189 Co 0.51308 0.03900 -0.00931
 Co190 Co 0.47834 -0.04027 -0.00035
 O191 O 0.49728 -0.00139 0.00363
 C192 C 0.44996 -0.03709 -0.06802
 C193 C 0.48118 0.03896 0.06269
 C194 C 0.49481 0.02809 -0.09717
 C195 C 0.44700 -0.04719 0.07343
 C196 C 1.15449 0.42917 0.42540
 C197 C 1.14755 0.43477 0.38981
 C198 C 1.13998 0.44198 0.34717
 C199 C 1.11504 0.42651 0.32913
 C200 C 1.10752 0.43398 0.28823
 C201 C 1.12490 0.45703 0.26505
 C202 C 1.15007 0.47222 0.28305
 C203 C 1.15756 0.46470 0.32393
 C204 C 1.11620 0.46585 0.22389
 C205 C 1.12218 0.49178 0.22058
 C206 C 1.11155 0.49956 0.18468
 C207 C 1.09498 0.48156 0.15169
 C208 C 1.08978 0.45597 0.15352
 C209 C 1.10037 0.44814 0.18941
 C210 C 1.08091 0.48853 0.11959
 C211 C 1.06785 0.49378 0.09467
 H212 H 1.10133 0.40890 0.34699
 H213 H 1.08788 0.42213 0.27554
 H214 H 1.16388 0.48993 0.26563
 H215 H 1.17696 0.47672 0.33764
 H216 H 1.13405 0.50574 0.24700
 H217 H 1.11540 0.51934 0.18379
 H218 H 1.07681 0.44189 0.12822
 H219 H 1.09572 0.42813 0.19088
 C220 C 0.57789 0.72397 0.42241
 C221 C 0.57402 0.71232 0.38607
 C222 C 0.56852 0.69845 0.34259
 C223 C 0.54935 0.69757 0.31282
 C224 C 0.54273 0.68280 0.27178
 C225 C 0.55527 0.66877 0.26016
 C226 C 0.57501 0.67034 0.28969
 C227 C 0.58157 0.68510 0.33075
 C228 C 0.54658 0.65106 0.21940
 C229 C 0.56473 0.64883 0.19076
 C230 C 0.55637 0.62975 0.15616
 C231 C 0.52984 0.61282 0.14978
 C232 C 0.51162 0.61562 0.17666
 C233 C 0.51993 0.63470 0.21124
 C234 C 0.52152 0.59072 0.12003
 C235 C 0.51502 0.57146 0.09737
 H236 H 0.53921 0.70794 0.32175
 H237 H 0.52762 0.68208 0.24943
 H238 H 0.58470 0.65941 0.28195
 H239 H 0.59639 0.68564 0.35373
 H240 H 0.58535 0.66138 0.19602
 H241 H 0.57060 0.62757 0.13566
 H242 H 0.49105 0.60236 0.17229
 H243 H 0.50554 0.63576 0.23320
 C244 C 0.26838 -0.14971 0.42112
 C245 C 0.28023 -0.14234 0.38482
 C246 C 0.29438 -0.13432 0.34147
 C247 C 0.29531 -0.15270 0.31210
 C248 C 0.31036 -0.14487 0.27122
 C249 C 0.32459 -0.11854 0.25937
 C250 C 0.32296 -0.10028 0.28851
 C251 C 0.30793 -0.10816 0.32940
 C252 C 0.34259 -0.10984 0.21882
 C253 C 0.34512 -0.08956 0.18995
 C254 C 0.36451 -0.07913 0.15565
 C255 C 0.38144 -0.08892 0.14980
 C256 C 0.37833 -0.10985 0.17687
 C257 C 0.35895 -0.12033 0.21116
 C258 C 0.40382 -0.07551 0.12031
 C259 C 0.42330 -0.06313 0.09781
 H260 H 0.28478 -0.17303 0.32122
 H261 H 0.31112 -0.15932 0.24918
 H262 H 0.33404 -0.07984 0.28061
 H263 H 0.30734 -0.09382 0.35207
 H264 H 0.33257 -0.08134 0.19480
 H265 H 0.36692 -0.06279 0.13499
 H266 H 0.39157 -0.11734 0.17289
 H267 H 0.35765 -0.13572 0.23329
 C268 C 0.85649 0.58040 0.44447
 C269 C 0.86629 0.57464 0.41306
 C270 C 0.87783 0.56755 0.37567
 C271 C 0.87093 0.56843 0.32895
 C272 C 0.88170 0.56096 0.29261
 C273 C 0.89951 0.55251 0.30268
 C274 C 0.90648 0.55190 0.34975
 C275 C 0.89567 0.55937 0.38603
 C276 C 0.91043 0.54393 0.26433
 C277 C 0.93679 0.55080 0.26457
 C278 C 0.94692 0.54224 0.22884
 C279 C 0.93082 0.52671 0.19259
 C280 C 0.90462 0.51991 0.19188
 C281 C 0.89447 0.52847 0.22751
 C282 C 0.94110 0.51751 0.15640
 C283 C 0.94968 0.50970 0.12615
 H284 H 0.85717 0.57481 0.32063
 H285 H 0.87623 0.56193 0.25665
 H286 H 0.91990 0.54518 0.35858
 H287 H 0.90105 0.55855 0.42215
 H288 H 0.94960 0.56294 0.29217
 H289 H 0.96726 0.54767 0.22956
 H290 H 0.89201 0.50783 0.16398
 H291 H 0.87403 0.52261 0.22676
 C292 C 0.44118 0.28142 0.43838
 C293 C 0.44781 0.29543 0.40458
 C294 C 0.45530 0.31164 0.36359
 C295 C 0.43942 0.32115 0.34724
 C296 C 0.44640 0.33658 0.30697
 C297 C 0.46939 0.34268 0.28251
 C298 C 0.48521 0.33296 0.29916
 C299 C 0.47816 0.31749 0.33946
 C300 C 0.47717 0.35985 0.24080
 C301 C 0.50306 0.37957 0.23512
 C302 C 0.50993 0.39729 0.19826
 C303 C 0.49106 0.39542 0.16655
 C304 C 0.46544 0.37529 0.17086
 C305 C 0.45853 0.35756 0.20771
 C306 C 0.49733 0.41575 0.13316
 C307 C 0.50233 0.43371 0.10755
 H308 H 0.42168 0.31669 0.36569
 H309 H 0.43407 0.34414 0.29547
 H310 H 0.50290 0.33717 0.28082
 H311 H 0.49050 0.31007 0.35173
 H312 H 0.51777 0.38199 0.26032
 H313 H 0.52975 0.41300 0.19552
 H314 H 0.45067 0.37378 0.14666
 H315 H 0.43853 0.34234 0.21084
 C316 C 0.71621 0.15325 0.43431
 C317 C 0.70263 0.14536 0.39999
 C318 C 0.68678 0.13617 0.35862
 C319 C 0.68282 0.15328 0.33078
 C320 C 0.66737 0.14434 0.29053
 C321 C 0.65573 0.11815 0.27765
 C322 C 0.66000 0.10116 0.30571
 C323 C 0.67543 0.11013 0.34593
 C324 C 0.63836 0.10827 0.23623
 C325 C 0.63886 0.08961 0.20654
 C326 C 0.62080 0.07851 0.17025
 C327 C 0.60214 0.08600 0.16307
 C328 C 0.60207 0.10521 0.19132
 C329 C 0.62012 0.11636 0.22763
 C330 C 0.58135 0.07198 0.13047
 C331 C 0.56304 0.05915 0.10553
 H332 H 0.69165 0.17351 0.34024
 H333 H 0.66460 0.15790 0.26937
 H334 H 0.65094 0.08081 0.29712
 H335 H 0.67838 0.09674 0.36729
 H336 H 0.65292 0.08328 0.21194
 H337 H 0.62088 0.06351 0.14875
 H338 H 0.58749 0.11091 0.18639
 H339 H 0.61906 0.13045 0.25023
 C340 C 0.42161 0.14399 -0.43532
 C341 C 0.42641 0.13274 -0.40531
 C342 C 0.43280 0.11922 -0.37080
 C343 C 0.45528 0.13270 -0.34380
 C344 C 0.46240 0.11943 -0.31212
 C345 C 0.44712 0.09247 -0.30714
 C346 C 0.42437 0.07912 -0.33403
 C347 C 0.41730 0.09244 -0.36578
 C348 C 0.45495 0.07846 -0.27389
 C349 C 0.43645 0.05888 -0.24478
 C350 C 0.44417 0.04679 -0.21150
 C351 C 0.47040 0.05404 -0.20715
 C352 C 0.48883 0.07297 -0.23682
 C353 C 0.48117 0.08509 -0.27006
 C354 C 0.47873 0.04367 -0.16981
 C355 C 0.48601 0.03603 -0.13727
 H356 H 0.46742 0.15343 -0.34756
 H357 H 0.47979 0.13027 -0.29131
 H358 H 0.41237 0.05834 -0.33118
 H359 H 0.39995 0.08183 -0.38684
 H360 H 0.41617 0.05355 -0.24668
 H361 H 0.42979 0.03228 -0.18839
 H362 H 0.50919 0.07874 -0.23360
 H363 H 0.49577 0.09980 -0.29253
 C364 C 0.72609 0.58368 -0.43874
 C365 C 0.70957 0.57767 -0.40909
 C366 C 0.68933 0.56992 -0.37467
 C367 C 0.67553 0.58326 -0.37067
 C368 C 0.65508 0.57498 -0.33850
 C369 C 0.64819 0.55317 -0.31014
 C370 C 0.66234 0.54003 -0.31421
 C371 C 0.68277 0.54837 -0.34631
 C372 C 0.62645 0.54416 -0.27619
 C373 C 0.60909 0.51758 -0.27044
 C374 C 0.58951 0.50895 -0.23651
 C375 C 0.58699 0.52675 -0.20806
 C376 C 0.60371 0.55326 -0.21429
 C377 C 0.62332 0.56195 -0.24826
 C378 C 0.56853 0.51769 -0.17023
 C379 C 0.55381 0.50990 -0.13736
 H380 H 0.68039 0.59989 -0.39273
 H381 H 0.64438 0.58532 -0.33639
 H382 H 0.65773 0.52344 -0.29229
 H383 H 0.69334 0.53791 -0.34921
 H384 H 0.61079 0.50348 -0.29197
 H385 H 0.57667 0.48839 -0.23184
 H386 H 0.60200 0.56717 -0.19215
 H387 H 0.63655 0.58250 -0.25163
 C388 C 0.84488 0.27649 -0.42821
 C389 C 0.85436 0.29159 -0.39629
 C390 C 0.86591 0.31020 -0.35920
 C391 C 0.86181 0.33137 -0.35727
 C392 C 0.87374 0.35007 -0.32235
 C393 C 0.88997 0.34783 -0.28892
 C394 C 0.89379 0.32634 -0.29086
 C395 C 0.88184 0.30765 -0.32589
 C396 C 0.90298 0.36795 -0.25244
 C397 C 0.90443 0.36106 -0.20568
 C398 C 0.91636 0.38010 -0.17123
 C399 C 0.92700 0.40619 -0.18316
 C400 C 0.92584 0.41324 -0.22963
 C401 C 0.91391 0.39425 -0.26411
 C402 C 0.93871 0.42571 -0.14757
 C403 C 0.94829 0.44203 -0.11761
 H404 H 0.84950 0.33349 -0.38293
 H405 H 0.87016 0.36622 -0.32130
 H406 H 0.90640 0.32426 -0.26588
 H407 H 0.88523 0.29138 -0.32729
 H408 H 0.89594 0.34095 -0.19560
 H409 H 0.91709 0.37447 -0.13525
 H410 H 0.93409 0.43341 -0.23919
 H411 H 0.91340 0.40013 -0.29996
 C412 C 0.55303 -0.16967 -0.42142
 C413 C 0.54496 -0.16439 -0.38679
 C414 C 0.53584 -0.15776 -0.34523
 C415 C 0.50923 -0.16782 -0.33781
 C416 C 0.50053 -0.16048 -0.29810
 C417 C 0.51842 -0.14300 -0.26547
 C418 C 0.54509 -0.13340 -0.27287
 C419 C 0.55373 -0.14075 -0.31255
 C420 C 0.50956 -0.13343 -0.22545
 C421 C 0.52155 -0.12937 -0.18119
 C422 C 0.51528 -0.11748 -0.14511
 C423 C 0.49692 -0.10966 -0.15289
 C424 C 0.48415 -0.11456 -0.19615
 C425 C 0.49038 -0.12643 -0.23226
 C426 C 0.49304 -0.09434 -0.11844
 C427 C 0.49047 -0.08039 -0.09108
 H428 H 0.49526 -0.18109 -0.36293
 H429 H 0.47988 -0.16832 -0.29302
 H430 H 0.55932 -0.11957 -0.24878
 H431 H 0.57437 -0.13285 -0.31813
 H432 H 0.53617 -0.13486 -0.17486
 H433 H 0.52533 -0.11364 -0.11173
 H434 H 0.47008 -0.10832 -0.20256
 H435 H 0.48109 -0.12900 -0.26615
 C436 C 0.28031 0.43978 -0.42050
 C437 C 0.29354 0.44712 -0.38579
 C438 C 0.30912 0.45571 -0.34418
 C439 C 0.31131 0.43780 -0.31562
 C440 C 0.32694 0.44612 -0.27564
 C441 C 0.34055 0.47250 -0.26382
 C442 C 0.33792 0.49033 -0.29239
 C443 C 0.32225 0.48195 -0.33238
 C444 C 0.35851 0.48138 -0.22334
 C445 C 0.38332 0.50321 -0.22774
 C446 C 0.40139 0.50991 -0.19156
 C447 C 0.39483 0.49495 -0.15062
 C448 C 0.36987 0.47383 -0.14510
 C449 C 0.35175 0.46708 -0.18124
 C450 C 0.41448 0.49964 -0.11669
 C451 C 0.43141 0.50284 -0.08982
 H452 H 0.30120 0.41745 -0.32459
 H453 H 0.32895 0.43203 -0.25474
 H454 H 0.34804 0.51072 -0.28384
 H455 H 0.32053 0.49591 -0.35427
 H456 H 0.38915 0.51437 -0.25999
 H457 H 0.42078 0.52615 -0.19626
 H458 H 0.36469 0.46208 -0.11356
 H459 H 0.33267 0.45037 -0.17675
 C460 C 1.15868 0.72404 -0.42223
 C461 C 1.15305 0.71084 -0.38752
 C462 C 1.14613 0.69513 -0.34612
 C463 C 1.12571 0.69261 -0.31780
 C464 C 1.11828 0.67661 -0.27833
 C465 C 1.13123 0.66296 -0.26681
 C466 C 1.15202 0.66595 -0.29509
 C467 C 1.15944 0.68199 -0.33457
 C468 C 1.12201 0.64460 -0.22698
 C469 C 1.11950 0.61999 -0.23213
 C470 C 1.10824 0.60165 -0.19642
 C471 C 1.09950 0.60776 -0.15523
 C472 C 1.10276 0.63248 -0.14905
 C473 C 1.11401 0.65086 -0.18472
 C474 C 1.08525 0.58803 -0.12117
 C475 C 1.07240 0.57113 -0.09374
 H476 H 1.11529 0.70269 -0.32663
 H477 H 1.10192 0.67433 -0.25763
 H478 H 1.16244 0.65581 -0.28675
 H479 H 1.17534 0.68395 -0.35632
 H480 H 1.12520 0.61455 -0.26452
 H481 H 1.10558 0.58245 -0.20156
 H482 H 1.09596 0.63731 -0.11726
 H483 H 1.11603 0.66979 -0.17967
 C484 C 0.85234 0.59715 -0.38855
 C485 C 0.86096 0.59616 -0.35060
 C486 C 0.87201 0.59337 -0.30730
 C487 C 0.85592 0.57800 -0.27074
 C488 C 0.86654 0.57201 -0.23198
 C489 C 0.89343 0.58119 -0.22939
 C490 C 0.90951 0.59747 -0.26547
 C491 C 0.89886 0.60346 -0.30409
 C492 C 0.90448 0.57223 -0.19152
 C493 C 0.92917 0.58888 -0.17249
 C494 C 0.94063 0.57956 -0.14072
 C495 C 0.92756 0.55353 -0.12731
 C496 C 0.90266 0.53704 -0.14480
 C497 C 0.89118 0.54629 -0.17658
 C498 C 0.94043 0.54306 -0.09921
 C499 C 0.95114 0.53345 -0.07795
 H500 H 0.83509 0.56989 -0.27294
 H501 H 0.85364 0.55972 -0.20456
 H502 H 0.93021 0.60455 -0.26508
 H503 H 0.91151 0.61509 -0.33242
 H504 H 0.93981 0.60901 -0.18280
 H505 H 0.95996 0.59250 -0.12761
 H506 H 0.89244 0.51679 -0.13510
 H507 H 0.87237 0.53282 -0.19101
 C508 C 0.42004 0.26372 -0.39631
 C509 C 0.42018 0.27322 -0.35861
 C510 C 0.42168 0.28634 -0.31497
 C511 C 0.41223 0.30369 -0.31282
 C512 C 0.41642 0.31891 -0.27271
 C513 C 0.43023 0.31708 -0.23402
 C514 C 0.43890 0.29893 -0.23589
 C515 C 0.43471 0.28374 -0.27611
 C516 C 0.43716 0.33537 -0.19370
 C517 C 0.46208 0.34660 -0.17358
 C518 C 0.46976 0.36603 -0.13958
 C519 C 0.45266 0.37450 -0.12492
 C520 C 0.42749 0.36277 -0.14334
 C521 C 0.41975 0.34330 -0.17736
 C522 C 0.46208 0.39727 -0.09579
 C523 C 0.47103 0.41749 -0.07467
 H524 H 0.40238 0.30612 -0.34280
 H525 H 0.40984 0.33292 -0.27290
 H526 H 0.44932 0.29680 -0.20656
 H527 H 0.44224 0.27048 -0.27737
 H528 H 0.47613 0.34131 -0.18576
 H529 H 0.48941 0.37519 -0.12615
 H530 H 0.41413 0.36928 -0.13263
 H531 H 0.40034 0.33486 -0.19163
 C532 C 0.73173 0.14938 -0.39722
 C533 C 0.72206 0.13943 -0.36000
 C534 C 0.70884 0.12717 -0.31680
 C535 C 0.71209 0.14193 -0.27636
 C536 C 0.69696 0.13042 -0.23622
 C537 C 0.67825 0.10395 -0.23602
 C538 C 0.67574 0.08916 -0.27638
 C539 C 0.69088 0.10069 -0.31640
 C540 C 0.66007 0.09217 -0.19553
 C541 C 0.65157 0.06649 -0.18165
 C542 C 0.63213 0.05450 -0.14748
 C543 C 0.62102 0.06801 -0.12645
 C544 C 0.63010 0.09386 -0.13862
 C545 C 0.64949 0.10588 -0.17278
 C546 C 0.59820 0.05461 -0.09722
 C547 C 0.57791 0.04343 -0.07599
 H548 H 0.72583 0.16247 -0.27625
 H549 H 0.69962 0.14231 -0.20561
 H550 H 0.66127 0.06887 -0.27785
 H551 H 0.68797 0.08909 -0.34760
 H552 H 0.65952 0.05549 -0.19798
 H553 H 0.62514 0.03442 -0.13871
 H554 H 0.62143 0.10444 -0.12314
 H555 H 0.65525 0.12549 -0.18301
 C556 C 1.14886 0.41514 -0.40895
 C557 C 1.13829 0.41617 -0.37318
 C558 C 1.12524 0.41879 -0.33223
 C559 C 1.13862 0.42841 -0.28984
 C560 C 1.12668 0.43357 -0.25195
 C561 C 1.10117 0.42930 -0.25593
 C562 C 1.08767 0.41897 -0.29830
 C563 C 1.09963 0.41381 -0.33606
 C564 C 1.08918 0.43696 -0.21736
 C565 C 1.06245 0.42219 -0.20722
 C566 C 1.05093 0.43063 -0.17365
 C567 C 1.06592 0.45389 -0.14952
 C568 C 1.09260 0.46836 -0.15849
 C569 C 1.10415 0.45999 -0.19202
 C570 C 1.05386 0.46412 -0.11839
 C571 C 1.04450 0.47407 -0.09400
 H572 H 1.15848 0.43248 -0.28641
 H573 H 1.13754 0.44120 -0.21972
 H574 H 1.06821 0.41581 -0.30300
 H575 H 1.08912 0.40664 -0.36880
 H576 H 1.05040 0.40423 -0.22558
 H577 H 1.03024 0.41929 -0.16726
 H578 H 1.10440 0.48653 -0.14048
 H579 H 1.12464 0.47209 -0.19934
 C580 C 0.58685 0.72975 -0.41077
 C581 C 0.58577 0.71794 -0.37540
 C582 C 0.58324 0.70202 -0.33507
 C583 C 0.58563 0.67995 -0.34107
 C584 C 0.58083 0.66298 -0.30347
 C585 C 0.57347 0.66773 -0.25904
 C586 C 0.57173 0.69033 -0.25303
 C587 C 0.57653 0.70729 -0.29078
 C588 C 0.56626 0.64845 -0.22019
 C589 C 0.54505 0.64279 -0.19051
 C590 C 0.53687 0.62325 -0.15659
 C591 C 0.54973 0.60902 -0.15155
 C592 C 0.57125 0.61489 -0.18007
 C593 C 0.57951 0.63448 -0.21401
 C594 C 0.53939 0.58710 -0.11997
 C595 C 0.52932 0.56810 -0.09518
 H596 H 0.59055 0.67547 -0.37523
 H597 H 0.58195 0.64563 -0.30974
 H598 H 0.56644 0.69479 -0.21924
 H599 H 0.57449 0.72422 -0.28562
 H600 H 0.53410 0.65278 -0.19466
 H601 H 0.52001 0.61873 -0.13516
 H602 H 0.58131 0.60395 -0.17680
 H603 H 0.59610 0.63851 -0.23577
 C604 C 0.26343 -0.14478 -0.40985
 C605 C 0.27552 -0.13437 -0.37457
 C606 C 0.29162 -0.12157 -0.33417
 C607 C 0.31395 -0.09742 -0.33971
 C608 C 0.33107 -0.08587 -0.30208
 C609 C 0.32622 -0.09831 -0.25808
 C610 C 0.30337 -0.12232 -0.25250
 C611 C 0.28625 -0.13386 -0.29027
 C612 C 0.34563 -0.08694 -0.21925
 C613 C 0.35112 -0.10289 -0.19052
 C614 C 0.37075 -0.09218 -0.15660
 C615 C 0.38524 -0.06535 -0.15062
 C616 C 0.37955 -0.04931 -0.17818
 C617 C 0.35986 -0.06000 -0.21212
 C618 C 0.40727 -0.05444 -0.11914
 C619 C 0.42637 -0.04603 -0.09454
 H620 H 0.31851 -0.08778 -0.37358
 H621 H 0.34861 -0.06763 -0.30801
 H622 H 0.29882 -0.13231 -0.21903
 H623 H 0.26912 -0.15259 -0.28547
 H624 H 0.34092 -0.12363 -0.19543
 H625 H 0.37512 -0.10482 -0.13593
 H626 H 0.39068 -0.02852 -0.17417
 H627 H 0.35597 -0.04715 -0.23313
 C628 C 0.57722 -0.15613 0.41197
 C629 C 0.57652 -0.14549 0.37619
 C630 C 0.57420 -0.13265 0.33478
 C631 C 0.56446 -0.14631 0.29269
 C632 C 0.55963 -0.13458 0.25422
 C633 C 0.56439 -0.10898 0.25728
 C634 C 0.57484 -0.09522 0.29937
 C635 C 0.57964 -0.10698 0.33774
 C636 C 0.55718 -0.09712 0.21797
 C637 C 0.57256 -0.07068 0.20707
 C638 C 0.56453 -0.05915 0.17293
 C639 C 0.54109 -0.07385 0.14896
 C640 C 0.52603 -0.10030 0.15859
 C641 C 0.53400 -0.11186 0.19271
 C642 C 0.53124 -0.06148 0.11788
 C643 C 0.52197 -0.05125 0.09411
 H644 H 0.56004 -0.16623 0.28992
 H645 H 0.55189 -0.14565 0.22223
 H646 H 0.57837 -0.07566 0.30334
 H647 H 0.58691 -0.09626 0.37023
 H648 H 0.59065 -0.05882 0.22535
 H649 H 0.57632 -0.03864 0.16606
 H650 H 0.50771 -0.11187 0.14074
 H651 H 0.52147 -0.13213 0.20058
 C652 C 0.26959 0.41835 0.41181
 C653 C 0.28095 0.41902 0.37595
 C654 C 0.29620 0.42126 0.33459
 C655 C 0.31606 0.41507 0.33737
 C656 C 0.33280 0.41983 0.29917
 C657 C 0.33001 0.43096 0.25743
 C658 C 0.30952 0.43647 0.25450
 C659 C 0.29280 0.43171 0.29281
 C660 C 0.34931 0.43815 0.21841
 C661 C 0.35816 0.46159 0.19390
 C662 C 0.37784 0.46946 0.16007
 C663 C 0.38899 0.45405 0.14995
 C664 C 0.37985 0.43037 0.17318
 C665 C 0.36014 0.42244 0.20705
 C666 C 0.41127 0.46370 0.11902
 C667 C 0.43076 0.47289 0.09523
 H668 H 0.31912 0.40726 0.36962
 H669 H 0.34854 0.41571 0.30306
 H670 H 0.30659 0.44474 0.22277
 H671 H 0.27762 0.43673 0.29020
 H672 H 0.35062 0.47437 0.20216
 H673 H 0.38490 0.48796 0.14279
 H674 H 0.38838 0.41830 0.16592
 H675 H 0.35359 0.40415 0.22474
 C676 C 1.14556 0.73274 0.41289
 C677 C 1.13459 0.72089 0.37778
 C678 C 1.12128 0.70491 0.33759
 C679 C 1.09676 0.68309 0.34353
 C680 C 1.08487 0.66580 0.30629
 C681 C 1.09735 0.66999 0.26233
 C682 C 1.12170 0.69239 0.25629
 C683 C 1.13358 0.70965 0.29367
 C684 C 1.08566 0.65032 0.22408
 C685 C 1.10139 0.64411 0.19598
 C686 C 1.09034 0.62428 0.16258
 C687 C 1.06340 0.61031 0.15653
 C688 C 1.04758 0.61670 0.18350
 C689 C 1.05860 0.63657 0.21693
 C690 C 1.05209 0.58836 0.12507
 C691 C 1.04329 0.56945 0.10008
 H692 H 1.08713 0.67899 0.37745
 H693 H 1.06636 0.64861 0.31255
 H694 H 1.13173 0.69641 0.22282
 H695 H 1.15262 0.72637 0.28860
 H696 H 1.12221 0.65393 0.20095
 H697 H 1.10281 0.61940 0.14229
 H698 H 1.02669 0.60600 0.17934
 H699 H 1.04592 0.64103 0.23747
 C700 C 0.40705 0.14948 0.39986
 C701 C 0.40768 0.14093 0.36163
 C702 C 0.41014 0.13018 0.31770
 C703 C 0.39991 0.10346 0.31364
 C704 C 0.40567 0.09311 0.27423
 C705 C 0.42189 0.10938 0.23827
 C706 C 0.43119 0.13614 0.24174
 C707 C 0.42542 0.14645 0.28126
 C708 C 0.43076 0.09865 0.19964
 C709 C 0.45682 0.11186 0.18470
 C710 C 0.46602 0.10056 0.15238
 C711 C 0.44936 0.07592 0.13434
 C712 C 0.42318 0.06298 0.14764
 C713 C 0.41391 0.07426 0.17998
 C714 C 0.45977 0.06306 0.10604
 C715 C 0.46919 0.05214 0.08477
 H716 H 0.38836 0.09069 0.34187
 H717 H 0.39851 0.07251 0.27313
 H718 H 0.44345 0.14916 0.21444
 H719 H 0.43363 0.16719 0.28413
 H720 H 0.47043 0.13044 0.19962
 H721 H 0.48638 0.11067 0.14275
 H722 H 0.41011 0.04384 0.13410
 H723 H 0.39369 0.06371 0.19030
 C724 C 0.74766 0.59941 0.39703
 C725 C 0.73844 0.59789 0.35853
 C726 C 0.72510 0.59427 0.31439
 C727 C 0.70797 0.60386 0.30886
 C728 C 0.69174 0.59695 0.26953
 C729 C 0.69231 0.58022 0.23513
 C730 C 0.71040 0.57156 0.23999
 C731 C 0.72661 0.57848 0.27943
 C732 C 0.67264 0.57018 0.19678
 C733 C 0.66054 0.54393 0.18391
 C734 C 0.63995 0.53368 0.15192
 C735 C 0.63116 0.54946 0.13216
 C736 C 0.64365 0.57579 0.14339
 C737 C 0.66428 0.58611 0.17538
 C738 C 0.60778 0.53807 0.10433
 C739 C 0.58737 0.52795 0.08354
 H740 H 0.70634 0.61580 0.33596
 H741 H 0.67782 0.60366 0.26736
 H742 H 0.71157 0.55892 0.21389
 H743 H 0.73963 0.57075 0.28346
 H744 H 0.66615 0.53101 0.20021
 H745 H 0.63027 0.51321 0.14393
 H746 H 0.63694 0.58819 0.12853
 H747 H 0.67335 0.60644 0.18409
 C748 C 0.84538 0.26070 0.40563
 C749 C 0.85453 0.27057 0.36811
 C750 C 0.86580 0.28426 0.32484
 C751 C 0.89266 0.30063 0.32166
 C752 C 0.90346 0.31671 0.28250
 C753 C 0.88751 0.31675 0.24589
 C754 C 0.86060 0.29952 0.24861
 C755 C 0.84984 0.28345 0.28786
 C756 C 0.89871 0.33603 0.20706
 C757 C 0.88562 0.34883 0.19090
 C758 C 0.89721 0.36881 0.15790
 C759 C 0.92201 0.37629 0.14039
 C760 C 0.93488 0.36315 0.15507
 C761 C 0.92331 0.34313 0.18808
 C762 C 0.93514 0.39894 0.11103
 C763 C 0.94642 0.41876 0.08878
 H764 H 0.90519 0.30168 0.35028
 H765 H 0.92416 0.32996 0.28196
 H766 H 0.84782 0.29882 0.22080
 H767 H 0.82901 0.27098 0.29000
 H768 H 0.86688 0.34418 0.20526
 H769 H 0.88717 0.37900 0.14724
 H770 H 0.95414 0.36883 0.14197
 H771 H 0.93379 0.33350 0.19935
   
