data_POSCAR
  _audit_creation_date              2014-09-24
  _audit_creation_method            'ToBaCCo'
  _symmetry_space_group_name_H-M    'P1'
  _symmetry_Int_Tables_number       1
  _symmetry_cell_setting            triclinic
  loop_
  _symmetry_equiv_pos_as_xyz
 x,y,z
_cell_length_a 35.6650
_cell_length_b 35.4298
_cell_length_c 39.1504
_cell_angle_alpha 90.047100
_cell_angle_beta 89.975500
_cell_angle_gamma 119.821200
loop_
  _atom_site_label
  _atom_site_type_symbol
  _atom_site_fract_x
  _atom_site_fract_y
  _atom_site_fract_z
C1 C -0.00022 0.50561 1.34283
 C2 C 0.03865 0.52086 1.32518
 C3 C 0.03872 0.51913 1.28942
 C4 C 0.00004 0.50444 1.27048
 C5 C -0.03878 0.49040 1.28910
 C6 C -0.03897 0.48978 1.32490
 C7 C 0.00014 0.50349 1.23188
 C8 C -0.03870 0.47944 1.21310
 C9 C -0.03858 0.47962 1.17734
 C10 C 0.00034 0.50153 1.15958
 C11 C 0.03917 0.52443 1.17734
 C12 C 0.03908 0.52655 1.21306
 H13 H -0.00035 0.50584 1.37057
 H14 H 0.06923 0.52901 1.27697
 H15 H -0.06924 0.47986 1.27638
 H16 H -0.06943 0.46010 1.22561
 H17 H 0.00042 0.50081 1.13187
 H18 H 0.06973 0.54660 1.22549
 C19 C 0.49391 0.49408 1.33670
 C20 C 0.47028 0.50939 1.31891
 C21 C 0.47011 0.50920 1.28310
 C22 C 0.49569 0.49594 1.26448
 C23 C 0.52034 0.48172 1.28325
 C24 C 0.51846 0.47974 1.31902
 C25 C 0.49686 0.49717 1.22597
 C26 C 0.51078 0.47229 1.20707
 C27 C 0.51308 0.47449 1.17135
 C28 C 0.49924 0.49960 1.15373
 C29 C 0.48421 0.52351 1.17169
 C30 C 0.48413 0.52330 1.20747
 H31 H 0.49341 0.49358 1.36445
 H32 H 0.44982 0.51938 1.27024
 H33 H 0.54149 0.47249 1.27056
 H34 H 0.51980 0.45082 1.21960
 H35 H 0.50012 0.50050 1.12603
 H36 H 0.47422 0.54386 1.22037
 C37 C 0.50610 1.00043 1.34810
 C38 C 0.49022 0.96137 1.33017
 C39 C 0.49067 0.96147 1.29442
 C40 C 0.50466 1.00048 1.27589
 C41 C 0.51945 1.03950 1.29464
 C42 C 0.52129 1.03957 1.33039
 C43 C 0.50355 1.00044 1.23748
 C44 C 0.52945 1.03895 1.21865
 C45 C 0.52731 1.03901 1.18296
 C46 C 0.50128 1.00044 1.16537
 C47 C 0.47638 0.96187 1.18325
 C48 C 0.47650 0.96192 1.21900
 H49 H 0.50636 1.00026 1.37583
 H50 H 0.48000 0.93081 1.28155
 H51 H 0.52928 1.07008 1.28190
 H52 H 0.55157 1.06912 1.23120
 H53 H 0.50045 1.00043 1.13766
 H54 H 0.45522 0.93173 1.23187
 C55 C 1.00065 0.49440 0.65770
 C56 C 0.96190 0.47942 0.67543
 C57 C 0.96195 0.48132 0.71115
 C58 C 1.00069 0.49601 0.72994
 C59 C 1.03944 0.50984 0.71132
 C60 C 1.03948 0.51021 0.67552
 C61 C 1.00070 0.49715 0.76845
 C62 C 1.03926 0.52312 0.78702
 C63 C 1.03930 0.52320 0.82279
 C64 C 1.00066 0.49945 0.84067
 C65 C 0.96204 0.47454 0.82301
 C66 C 0.96213 0.47235 0.78730
 H67 H 1.00053 0.49395 0.62997
 H68 H 0.93152 0.47159 0.72371
 H69 H 1.06987 0.52035 0.72415
 H70 H 1.06957 0.54366 0.77425
 H71 H 1.00064 0.50029 0.86837
 H72 H 0.93186 0.45097 0.77479
 C73 C 0.50556 0.50547 0.66430
 C74 C 0.52978 0.49096 0.68210
 C75 C 0.53021 0.49140 0.71785
 C76 C 0.50420 0.50408 0.73650
 C77 C 0.47890 0.51748 0.71770
 C78 C 0.48064 0.51925 0.68199
 C79 C 0.50324 0.50308 0.77500
 C80 C 0.48727 0.52625 0.79383
 C81 C 0.48508 0.52408 0.82953
 C82 C 0.50117 0.50102 0.84726
 C83 C 0.51831 0.47900 0.82935
 C84 C 0.51818 0.47889 0.79360
 H85 H 0.50589 0.50579 0.63658
 H86 H 0.55104 0.48178 0.73048
 H87 H 0.45737 0.52632 0.73018
 H88 H 0.47658 0.54640 0.78134
 H89 H 0.50041 0.50025 0.87496
 H90 H 0.52965 0.45951 0.78088
 C91 C 0.49319 -0.00136 0.65196
 C92 C 0.50931 0.03774 0.66987
 C93 C 0.50901 0.03766 0.70565
 C94 C 0.49496 -0.00136 0.72431
 C95 C 0.47993 -0.04042 0.70543
 C96 C 0.47791 -0.04052 0.66966
 C97 C 0.49625 -0.00128 0.76292
 C98 C 0.47272 -0.04030 0.78188
 C99 C 0.47511 -0.04019 0.81764
 C100 C 0.49887 -0.00105 0.83518
 C101 C 0.52129 0.03791 0.81729
 C102 C 0.52110 0.03782 0.78152
 H103 H 0.49280 -0.00120 0.62424
 H104 H 0.51986 0.06844 0.71831
 H105 H 0.47001 -0.07109 0.71797
 H106 H 0.45212 -0.07103 0.76946
 H107 H 0.49989 -0.00082 0.86291
 H108 H 0.54073 0.06855 0.76884
 O109 O 0.39886 0.66498 0.97235
 O110 O 0.39564 0.73594 0.96132
 C111 C 0.37479 0.75543 0.95475
 O112 O 0.34162 0.74883 0.97161
 O113 O 0.27143 0.67491 0.96031
 C114 C 0.25166 0.63439 0.95427
 O115 O 0.25857 0.60775 0.97112
 O116 O 0.33256 0.61049 0.96118
 C117 C 0.37297 0.63117 0.95563
 O118 O 0.39624 0.67644 1.04001
 O119 O 0.39632 0.74934 1.02932
 C120 C 0.36890 0.75496 1.04604
 O121 O 0.32884 0.73455 1.03935
 O122 O 0.25683 0.66257 1.02791
 C123 C 0.25072 0.62949 1.04496
 O124 O 0.27138 0.60956 1.03919
 O125 O 0.34362 0.60886 1.02907
 C126 C 0.37695 0.63582 1.04569
 Cr127 Cr 0.39434 0.70550 1.00073
 Cr128 Cr 0.30096 0.70404 0.99981
 Cr129 Cr 0.30267 0.61159 1.00015
 O130 O 0.33267 0.67367 1.00026
 O131 O 0.60196 0.33595 0.97227
 O132 O 0.60524 0.26502 0.96117
 C133 C 0.62595 0.24536 0.95468
 O134 O 0.65910 0.25193 0.97156
 O135 O 0.72921 0.32585 0.96012
 C136 C 0.74919 0.36637 0.95418
 O137 O 0.74236 0.39309 0.97106
 O138 O 0.66832 0.39017 0.96088
 C139 C 0.62790 0.36962 0.95542
 O140 O 0.60466 0.32445 1.03991
 O141 O 0.60455 0.25153 1.02913
 C142 C 0.63203 0.24604 1.04588
 O143 O 0.67210 0.26664 1.03927
 O144 O 0.74407 0.33861 1.02770
 C145 C 0.75002 0.37165 1.04480
 O146 O 0.72918 0.39139 1.03907
 O147 O 0.65694 0.39208 1.02873
 C148 C 0.62370 0.36510 1.04543
 Cr149 Cr 0.60650 0.29541 1.00060
 Cr150 Cr 0.69986 0.29693 0.99968
 Cr151 Cr 0.69807 0.38928 0.99995
 O152 O 0.66813 0.32724 1.00010
 O153 O 0.67184 0.40501 0.53851
 O154 O 0.74375 0.40504 0.52666
 C155 C 0.74959 0.37793 0.54380
 O156 O 0.72846 0.33730 0.53822
 O157 O 0.65620 0.26429 0.52781
 C158 C 0.62305 0.25819 0.54459
 O159 O 0.60424 0.28000 0.53918
 O160 O 0.60417 0.35278 0.52832
 C161 C 0.63177 0.38571 0.54512
 O162 O 0.65840 0.40663 0.47087
 O163 O 0.72841 0.40273 0.45915
 C164 C 0.74859 0.38239 0.45331
 O165 O 0.74184 0.34890 0.47023
 O166 O 0.66773 0.27772 0.45999
 C167 C 0.62728 0.25759 0.45469
 O168 O 0.60134 0.26529 0.47156
 O169 O 0.60470 0.33956 0.46037
 C170 C 0.62521 0.37998 0.45401
 Cr171 Cr 0.69934 0.40244 0.49881
 Cr172 Cr 0.69744 0.30831 0.49907
 Cr173 Cr 0.60599 0.31062 0.49983
 O174 O 0.66757 0.34041 0.49926
 O175 O 0.34065 0.59244 0.52793
 O176 O 0.27044 0.59598 0.53952
 C177 C 0.25046 0.61645 0.54567
 O178 O 0.25727 0.65012 0.52898
 O179 O 0.33127 0.72134 0.53933
 C180 C 0.37172 0.74159 0.54462
 O181 O 0.39766 0.73391 0.52773
 O182 O 0.39404 0.65954 0.53893
 C183 C 0.37349 0.61909 0.54512
 O184 O 0.32766 0.59444 0.46023
 O185 O 0.25556 0.59416 0.47199
 C186 C 0.24952 0.62135 0.45516
 O187 O 0.27051 0.66193 0.46099
 O188 O 0.34285 0.73480 0.47147
 C189 C 0.37601 0.74087 0.45472
 O190 O 0.39490 0.71915 0.46016
 O191 O 0.39518 0.64648 0.47102
 C192 C 0.36782 0.61367 0.45398
 Cr193 Cr 0.29983 0.59667 0.49991
 Cr194 Cr 0.30160 0.69079 0.50017
 Cr195 Cr 0.39307 0.68855 0.49948
 O196 O 0.33148 0.65871 0.49982
 C197 C 0.41542 0.56146 0.37711
 C198 C 0.44360 0.60062 0.39346
 C199 C 0.42797 0.61807 0.41791
 C200 C 0.44927 0.52622 0.33692
 C201 C 0.35548 0.55766 0.40923
 C202 C 0.37126 0.54020 0.38479
 C203 C 0.43272 0.54193 0.35443
 C204 C 0.38380 0.59651 0.42645
 H205 H 0.47789 0.61723 0.38784
 H206 H 0.45066 0.64808 0.43053
 H207 H 0.32130 0.54024 0.41516
 H208 H 0.34919 0.50972 0.37244
 C209 C 0.43341 0.84858 0.38504
 C210 C 0.45322 0.82357 0.39082
 C211 C 0.43384 0.78753 0.41259
 C212 C 0.47144 0.92093 0.34864
 C213 C 0.37426 0.80088 0.42217
 C214 C 0.39366 0.83680 0.40039
 C215 C 0.45454 0.88755 0.36478
 C216 C 0.39444 0.77619 0.42897
 H217 H 0.48403 0.83245 0.37909
 H218 H 0.45029 0.76929 0.41728
 H219 H 0.34395 0.79309 0.43427
 H220 H 0.37806 0.85596 0.39610
 C221 C 0.14658 0.57070 0.38151
 C222 C 0.15825 0.54291 0.39773
 C223 C 0.19245 0.55959 0.42101
 C224 C 0.07633 0.53771 0.34311
 C225 C 0.20421 0.63227 0.41138
 C226 C 0.16991 0.61546 0.38809
 C227 C 0.10889 0.55285 0.36001
 C228 C 0.21546 0.60441 0.42852
 H229 H 0.14031 0.50820 0.39295
 H230 H 0.20028 0.53719 0.43362
 H231 H 0.22122 0.66689 0.41653
 H232 H 0.16098 0.63724 0.37578
 C233 C 0.57646 0.43085 0.37708
 C234 C 0.55515 0.38612 0.38373
 C235 C 0.57146 0.36934 0.40822
 C236 C 0.53983 0.46337 0.33707
 C237 C 0.63102 0.44199 0.41901
 C238 C 0.61464 0.45866 0.39451
 C239 C 0.55726 0.44857 0.35454
 C240 C 0.60927 0.39719 0.42652
 H241 H 0.52538 0.36434 0.37056
 H242 H 0.55395 0.33472 0.41329
 H243 H 0.66026 0.46435 0.43251
 H244 H 0.63124 0.49337 0.38974
 C245 C 0.57289 0.15014 0.38453
 C246 C 0.54632 0.16336 0.40061
 C247 C 0.56420 0.19919 0.42259
 C248 C 0.53839 0.07774 0.34805
 C249 C 0.63564 0.20949 0.41177
 C250 C 0.61763 0.17359 0.38980
 C251 C 0.55404 0.11110 0.36424
 C252 C 0.60903 0.22229 0.42887
 H253 H 0.51164 0.14538 0.39677
 H254 H 0.54275 0.20815 0.43525
 H255 H 0.67022 0.22648 0.41603
 H256 H 0.63849 0.16354 0.37752
 C257 C 0.85238 0.43564 0.38045
 C258 C 0.82835 0.45640 0.38644
 C259 C 0.79367 0.43839 0.40936
 C260 C 0.92310 0.47215 0.34256
 C261 C 0.80638 0.37823 0.41975
 C262 C 0.84097 0.39627 0.39681
 C263 C 0.89033 0.45576 0.35922
 C264 C 0.78271 0.39942 0.42671
 H265 H 0.83699 0.48696 0.37399
 H266 H 0.77617 0.45558 0.41409
 H267 H 0.79884 0.34820 0.43259
 H268 H 0.85945 0.37999 0.39243
 C269 C 0.56770 0.41670 1.11559
 C270 C 0.60781 0.44415 1.10049
 C271 C 0.62662 0.42715 1.07854
 C272 C 0.53113 0.45222 1.15259
 C273 C 0.56577 0.35474 1.08733
 C274 C 0.54695 0.37189 1.10929
 C275 C 0.54733 0.43518 1.13617
 C276 C 0.60556 0.38230 1.07127
 H277 H 0.62417 0.47889 1.10515
 H278 H 0.65727 0.44934 1.06671
 H279 H 0.54863 0.32010 1.08227
 H280 H 0.51586 0.35032 1.12079
 C281 C 0.85180 0.42211 1.11945
 C282 C 0.82920 0.44422 1.11269
 C283 C 0.79529 0.42737 1.08903
 C284 C 0.92157 0.45811 1.15840
 C285 C 0.80602 0.36579 1.07939
 C286 C 0.83980 0.38266 1.10304
 C287 C 0.88918 0.44128 1.14130
 C288 C 0.78374 0.38825 1.07171
 H289 H 0.83840 0.47494 1.12513
 H290 H 0.77883 0.44546 1.08374
 H291 H 0.79792 0.33552 1.06667
 H292 H 0.85719 0.36539 1.10796
 C293 C 0.58463 0.14730 1.12333
 C294 C 0.55668 0.15896 1.10756
 C295 C 0.57229 0.19169 1.08289
 C296 C 0.55025 0.07872 1.16384
 C297 C 0.64435 0.20211 1.09024
 C298 C 0.62857 0.16918 1.11489
 C299 C 0.56714 0.11074 1.14617
 C300 C 0.61621 0.21327 1.07358
 H301 H 0.52256 0.14204 1.11379
 H302 H 0.54978 0.19957 1.07073
 H303 H 0.67833 0.21809 1.08368
 H304 H 0.65042 0.16019 1.12682
 C305 C 0.43173 0.58350 1.11622
 C306 C 0.39113 0.55656 1.10169
 C307 C 0.37277 0.57386 1.07963
 C308 C 0.46710 0.54677 1.15313
 C309 C 0.43508 0.64565 1.08720
 C310 C 0.45346 0.62818 1.10927
 C311 C 0.45156 0.56448 1.13680
 C312 C 0.39478 0.61852 1.07168
 H313 H 0.37401 0.52193 1.10685
 H314 H 0.34168 0.55201 1.06826
 H315 H 0.45295 0.68013 1.08160
 H316 H 0.48496 0.64935 1.12032
 C317 C 0.14897 0.58005 1.11962
 C318 C 0.17072 0.55717 1.11248
 C319 C 0.20465 0.57365 1.08883
 C320 C 0.07910 0.54514 1.15848
 C321 C 0.19562 0.63639 1.07997
 C322 C 0.16184 0.61989 1.10361
 C323 C 0.11154 0.56139 1.14143
 C324 C 0.21704 0.61317 1.07190
 H325 H 0.16083 0.52614 1.12462
 H326 H 0.22044 0.55499 1.08323
 H327 H 0.20439 0.66699 1.06757
 H328 H 0.14512 0.63778 1.10882
 C329 C 0.41703 0.85345 1.12381
 C330 C 0.44449 0.84085 1.10841
 C331 C 0.42859 0.80821 1.08365
 C332 C 0.45256 0.92210 1.16430
 C333 C 0.35717 0.79970 1.09014
 C334 C 0.37325 0.83257 1.11490
 C335 C 0.43504 0.89004 1.14667
 C336 C 0.38487 0.78764 1.07385
 H337 H 0.47849 0.85699 1.11500
 H338 H 0.45076 0.79960 1.07179
 H339 H 0.32335 0.78450 1.08320
 H340 H 0.35180 0.84231 1.12653
 C341 C 0.58546 0.43813 0.62261
 C342 C 0.62946 0.45945 0.61444
 C343 C 0.64483 0.44191 0.58977
 C344 C 0.55214 0.47346 0.66308
 C345 C 0.57223 0.38131 0.58187
 C346 C 0.55701 0.39884 0.60656
 C347 C 0.56851 0.45775 0.64544
 C348 C 0.61623 0.40295 0.57283
 H349 H 0.65169 0.49003 0.62658
 H350 H 0.67890 0.45937 0.58345
 H351 H 0.54937 0.35121 0.56947
 H352 H 0.52283 0.38221 0.61258
 C353 C 0.56584 0.15043 0.61450
 C354 C 0.54600 0.17542 0.60870
 C355 C 0.56527 0.21142 0.58684
 C356 C 0.52807 0.07821 0.65128
 C357 C 0.62481 0.19808 0.57712
 C358 C 0.60552 0.16220 0.59899
 C359 C 0.54486 0.11152 0.63497
 C360 C 0.60462 0.22279 0.57036
 H361 H 0.51524 0.16658 0.62053
 H362 H 0.54879 0.22963 0.58219
 H363 H 0.65508 0.20585 0.56494
 H364 H 0.62118 0.14310 0.60326
 C365 C 0.85210 0.42876 0.61783
 C366 C 0.84087 0.45660 0.60112
 C367 C 0.80684 0.43989 0.57768
 C368 C 0.92207 0.46168 0.65653
 C369 C 0.79438 0.36710 0.58812
 C370 C 0.82851 0.38394 0.61156
 C371 C 0.88962 0.44658 0.63951
 C372 C 0.78356 0.39499 0.57051
 H373 H 0.85902 0.49136 0.60566
 H374 H 0.79934 0.46231 0.56470
 H375 H 0.77716 0.33242 0.58323
 H376 H 0.83710 0.36212 0.62424
 C377 C 0.42112 0.56821 0.62270
 C378 C 0.38341 0.54031 0.60480
 C379 C 0.36736 0.55698 0.58006
 C380 C 0.45768 0.53602 0.66293
 C381 C 0.42632 0.62976 0.59160
 C382 C 0.44229 0.61298 0.61633
 C383 C 0.44019 0.55058 0.64536
 C384 C 0.38901 0.60184 0.57280
 H385 H 0.36698 0.50556 0.60937
 H386 H 0.33849 0.53459 0.56617
 H387 H 0.44371 0.66443 0.58674
 H388 H 0.47172 0.63480 0.62989
 C389 C 0.42606 0.84903 0.61505
 C390 C 0.45265 0.83590 0.59884
 C391 C 0.43479 0.80014 0.57676
 C392 C 0.46063 0.92129 0.65191
 C393 C 0.36335 0.78970 0.58764
 C394 C 0.38132 0.82554 0.60972
 C395 C 0.44492 0.88799 0.63556
 C396 C 0.38997 0.77696 0.57046
 H397 H 0.48732 0.85388 0.60269
 H398 H 0.45628 0.79126 0.56404
 H399 H 0.32877 0.77268 0.58338
 H400 H 0.36042 0.83549 0.62206
 C401 C 0.14758 0.56365 0.61934
 C402 C 0.17110 0.54249 0.61279
 C403 C 0.20546 0.56030 0.58956
 C404 C 0.07729 0.52759 0.65773
 C405 C 0.19340 0.62102 0.57995
 C406 C 0.15914 0.60318 0.60319
 C407 C 0.10990 0.54376 0.64086
 C408 C 0.21658 0.59946 0.57245
 H409 H 0.16232 0.51178 0.62505
 H410 H 0.22260 0.54283 0.58441
 H411 H 0.20108 0.65121 0.56732
 H412 H 0.14103 0.61975 0.60800
 C413 C 0.42882 0.58034 0.88488
 C414 C 0.45446 0.62107 0.89995
 C415 C 0.43597 0.63816 0.92211
 C416 C 0.46548 0.54484 0.84816
 C417 C 0.36568 0.57425 0.91353
 C418 C 0.38432 0.55719 0.89135
 C419 C 0.44868 0.56131 0.86444
 C420 C 0.39146 0.61465 0.92962
 H421 H 0.48894 0.63922 0.89517
 H422 H 0.45678 0.66940 0.93394
 H423 H 0.33137 0.55531 0.91876
 H424 H 0.36419 0.52554 0.87987
 C425 C 0.14918 0.58240 0.88023
 C426 C 0.17133 0.62704 0.88725
 C427 C 0.20558 0.64431 0.91061
 C428 C 0.07914 0.54622 0.84158
 C429 C 0.19610 0.57235 0.91942
 C430 C 0.16200 0.55524 0.89605
 C431 C 0.11162 0.56365 0.85856
 C432 C 0.21792 0.61701 0.92738
 H433 H 0.16156 0.64834 0.87525
 H434 H 0.22164 0.67881 0.91615
 H435 H 0.20477 0.55041 0.93174
 H436 H 0.14498 0.52060 0.89088
 C437 C 0.42090 0.85347 0.87654
 C438 C 0.38218 0.84181 0.89357
 C439 C 0.36679 0.80934 0.91851
 C440 C 0.45513 0.92207 0.83585
 C441 C 0.42846 0.79932 0.90903
 C442 C 0.44380 0.83189 0.88408
 C443 C 0.43890 0.89000 0.85357
 C444 C 0.39006 0.78810 0.92690
 H445 H 0.36436 0.85852 0.88812
 H446 H 0.33703 0.80145 0.93162
 H447 H 0.44711 0.78360 0.91480
 H448 H 0.47403 0.84091 0.87124
 C449 C 0.57274 0.42095 0.88459
 C450 C 0.54666 0.38070 0.90019
 C451 C 0.56487 0.36339 0.92239
 C452 C 0.53708 0.45741 0.84790
 C453 C 0.63570 0.42610 0.91278
 C454 C 0.61736 0.44336 0.89057
 C455 C 0.55333 0.44039 0.86415
 C456 C 0.60953 0.38621 0.92940
 H457 H 0.51209 0.36312 0.89581
 H458 H 0.54375 0.33256 0.93465
 H459 H 0.67014 0.44452 0.91760
 H460 H 0.63782 0.47465 0.87868
 C461 C 0.85210 0.41749 0.88051
 C462 C 0.84015 0.44513 0.89672
 C463 C 0.80589 0.42835 0.91997
 C464 C 0.92221 0.45247 0.84191
 C465 C 0.79460 0.35584 0.91024
 C466 C 0.82897 0.37275 0.88701
 C467 C 0.88971 0.43569 0.85890
 C468 C 0.78309 0.38357 0.92741
 H469 H 0.85793 0.47984 0.89195
 H470 H 0.79789 0.45062 0.93263
 H471 H 0.77777 0.32122 0.91536
 H472 H 0.83805 0.35108 0.87469
 C473 C 0.57877 0.14673 0.87682
 C474 C 0.61713 0.15765 0.89414
 C475 C 0.63292 0.19033 0.91897
 C476 C 0.54337 0.07793 0.83630
 C477 C 0.57241 0.20199 0.90876
 C478 C 0.55667 0.16924 0.88393
 C479 C 0.56022 0.11005 0.85396
 C480 C 0.61042 0.21250 0.92694
 H481 H 0.63432 0.14021 0.88903
 H482 H 0.66235 0.19765 0.93234
 H483 H 0.55433 0.21843 0.91418
 H484 H 0.52674 0.16080 0.87085
   
