data_POSCAR
  _audit_creation_date              2014-09-24
  _audit_creation_method            'ToBaCCo'
  _symmetry_space_group_name_H-M    'P1'
  _symmetry_Int_Tables_number       1
  _symmetry_cell_setting            triclinic
  loop_
  _symmetry_equiv_pos_as_xyz
 x,y,z
_cell_length_a 24.2653
_cell_length_b 24.8914
_cell_length_c 25.7366
_cell_angle_alpha 91.434500
_cell_angle_beta 85.594100
_cell_angle_gamma 90.071500
loop_
  _atom_site_label
  _atom_site_type_symbol
  _atom_site_fract_x
  _atom_site_fract_y
  _atom_site_fract_z
Si1 Si 0.25557 0.25241 0.24902
 Si2 Si 0.75460 0.73866 0.23653
 Si3 Si 0.76028 0.23587 0.73353
 Si4 Si 0.25520 0.74812 0.74971
 C5 C 0.03662 0.11598 0.04393
 H6 H 0.00649 0.13474 0.02147
 C7 C 0.06714 0.14774 0.07693
 H8 H 0.06081 0.19082 0.07930
 C9 C 0.08058 0.03724 0.07013
 H10 H 0.08509 -0.00583 0.06829
 C11 C 0.11177 0.06741 0.10362
 H12 H 0.14064 0.04743 0.12679
 N13 N 0.04368 0.06167 0.04115
 C14 C 0.04867 -0.02254 -0.09875
 H15 H 0.02679 0.00924 -0.11602
 C16 C 0.08137 -0.05762 -0.13112
 H17 H 0.08535 -0.05186 -0.17282
 C18 C 0.06971 -0.07028 -0.02425
 H19 H 0.06346 -0.07631 0.01718
 C20 C 0.10277 -0.10626 -0.05519
 H21 H 0.12333 -0.13884 -0.03732
 Zn22 Zn -0.00070 0.01800 -0.00099
 N23 N 0.04444 -0.02855 -0.04611
 C24 C -0.02050 0.09657 -0.07510
 N25 N -0.04521 0.06152 -0.04082
 C26 C -0.10110 0.05534 -0.03632
 C27 C -0.13403 0.08252 -0.06922
 C28 C -0.05188 0.12428 -0.10903
 C29 C -0.04993 -0.01927 0.09505
 C30 C -0.07980 -0.05554 0.12674
 C31 C -0.10247 -0.10526 0.04929
 C32 C -0.07213 -0.06816 0.01910
 N33 N -0.04617 -0.02658 0.04232
 H34 H 0.02392 0.10147 -0.07737
 H35 H -0.12019 0.02827 -0.00816
 H36 H -0.17832 0.07618 -0.06633
 H37 H -0.03161 0.15043 -0.13757
 H38 H -0.02913 0.01419 0.11262
 H39 H -0.08194 -0.05010 0.16873
 H40 H -0.12216 -0.13884 0.03058
 H41 H -0.06818 -0.07305 -0.02291
 C42 C 0.10941 -0.09941 -0.10911
 C43 C 0.10459 0.12319 0.10769
 C44 C -0.10559 -0.09948 0.10368
 C45 C -0.10909 0.11597 -0.10721
 C46 C 0.09695 0.57114 0.53045
 H47 H 0.11669 0.54635 0.49943
 C48 C 0.12947 0.60128 0.56263
 H49 H 0.17410 0.59885 0.55680
 C50 C 0.01520 0.60447 0.57652
 H51 H -0.02946 0.60500 0.58181
 C52 C 0.04630 0.63515 0.60996
 H53 H 0.02568 0.65902 0.64140
 N54 N 0.04094 0.57167 0.53906
 C55 C 0.04596 0.48458 0.40041
 H56 H 0.01811 0.51160 0.38334
 C57 C 0.08163 0.45236 0.36786
 H58 H 0.08137 0.45524 0.32596
 C59 C 0.07931 0.44614 0.47530
 H60 H 0.07778 0.44377 0.51730
 C61 C 0.11538 0.41297 0.44418
 H62 H 0.14137 0.38468 0.46226
 Zn63 Zn -0.00155 0.52472 0.49904
 N64 N 0.04604 0.48158 0.45315
 C65 C -0.02528 0.60235 0.42675
 N66 N -0.04868 0.56651 0.46089
 C67 C -0.10444 0.55967 0.46672
 C68 C -0.13863 0.58671 0.43488
 C69 C -0.05791 0.62986 0.39376
 C70 C -0.04161 0.47836 0.59528
 C71 C -0.07056 0.44049 0.62588
 C72 C -0.10211 0.39934 0.54747
 C73 C -0.07270 0.43802 0.51838
 N74 N -0.04337 0.47663 0.54251
 H75 H 0.01908 0.60786 0.42372
 H76 H -0.12246 0.53239 0.49523
 H77 H -0.18283 0.57984 0.43869
 H78 H -0.03869 0.65651 0.36508
 H79 H -0.01702 0.50833 0.61378
 H80 H -0.06868 0.44193 0.66780
 H81 H -0.12488 0.36850 0.52782
 H82 H -0.07268 0.43703 0.47633
 C83 C 0.11731 0.41652 0.38978
 C84 C 0.10407 0.63223 0.60391
 C85 C -0.10059 0.40006 0.60177
 C86 C -0.11502 0.62071 0.39668
 C87 C 0.53972 0.10785 0.52357
 H88 H 0.51289 0.12583 0.49722
 C89 C 0.57501 0.14049 0.55117
 H90 H 0.57532 0.18353 0.54598
 C91 C 0.57266 0.03014 0.56269
 H92 H 0.57159 -0.01299 0.56697
 C93 C 0.60838 0.06112 0.59090
 H94 H 0.63463 0.04182 0.61709
 N95 N 0.53985 0.05358 0.52913
 C96 C 0.51830 -0.06270 0.40311
 H97 H 0.47504 -0.05677 0.39759
 C98 C 0.54962 -0.09803 0.36981
 H99 H 0.53027 -0.11978 0.33910
 C100 C 0.59696 -0.04053 0.44840
 H101 H 0.61583 -0.01773 0.47838
 C102 C 0.62965 -0.07575 0.41629
 H103 H 0.67306 -0.08023 0.42238
 Zn104 Zn 0.49551 0.00754 0.48934
 N105 N 0.54188 -0.03589 0.44247
 C106 C 0.47186 0.07432 0.40782
 N107 N 0.44867 0.04780 0.44958
 C108 C 0.39297 0.04757 0.46109
 C109 C 0.35813 0.07443 0.42957
 C110 C 0.43856 0.10158 0.37528
 C111 C 0.45022 -0.02964 0.58717
 C112 C 0.42136 -0.06502 0.62056
 C113 C 0.39412 -0.11541 0.54535
 C114 C 0.42390 -0.07937 0.51337
 N115 N 0.45210 -0.03799 0.53457
 H116 H 0.51624 0.07364 0.39949
 H117 H 0.37548 0.02627 0.49453
 H118 H 0.31384 0.07389 0.43888
 H119 H 0.45742 0.12260 0.34212
 H120 H 0.47104 0.00445 0.60348
 H121 H 0.42075 -0.05834 0.66235
 H122 H 0.37186 -0.14816 0.52801
 H123 H 0.42454 -0.08464 0.47162
 C124 C 0.60558 -0.10593 0.37740
 C125 C 0.61057 0.11679 0.58444
 C126 C 0.39386 -0.10908 0.59961
 C127 C 0.38096 0.10109 0.38568
 C128 C 0.58332 0.58629 -0.00127
 H129 H 0.58914 0.58364 -0.04335
 C130 C 0.61783 0.61918 0.02673
 H131 H 0.65029 0.64205 0.00623
 C132 C 0.53355 0.56043 0.07694
 H133 H 0.49942 0.53926 0.09642
 C134 C 0.56750 0.59209 0.10642
 H135 H 0.56037 0.59362 0.14850
 N136 N 0.54371 0.55592 0.02427
 C137 C 0.52519 0.42714 -0.09157
 H138 H 0.48081 0.42796 -0.09339
 C139 C 0.55704 0.39067 -0.12302
 H140 H 0.53718 0.36396 -0.14971
 C141 C 0.60513 0.46061 -0.05429
 H142 H 0.62361 0.48699 -0.02659
 C143 C 0.63847 0.42413 -0.08448
 H144 H 0.68254 0.42321 -0.08038
 Zn145 Zn 0.50228 0.50769 -0.01567
 N146 N 0.54957 0.46175 -0.05864
 C147 C 0.46227 0.54732 -0.10867
 N148 N 0.45777 0.54994 -0.05565
 C149 C 0.42241 0.58498 -0.02896
 C150 C 0.38889 0.61854 -0.05568
 C151 C 0.42874 0.57936 -0.13687
 C152 C 0.48202 0.43902 0.06776
 C153 C 0.45185 0.40503 0.10131
 C154 C 0.37442 0.41306 0.04847
 C155 C 0.40509 0.44982 0.01770
 N156 N 0.45788 0.46213 0.02798
 H157 H 0.49196 0.52069 -0.12928
 H158 H 0.42055 0.58695 0.01318
 H159 H 0.36110 0.64653 -0.03411
 H160 H 0.43200 0.57635 -0.17905
 H161 H 0.52467 0.44788 0.07409
 H162 H 0.47097 0.39028 0.13481
 H163 H 0.33294 0.40272 0.03902
 H164 H 0.38723 0.46750 -0.01511
 C165 C 0.61428 0.38830 -0.11896
 C166 C 0.61133 0.62042 0.08135
 C167 C 0.39789 0.38986 0.09094
 C168 C 0.39102 0.61491 -0.11025
 C169 C 0.23963 -0.16657 -0.17444
 C170 C 0.21508 -0.20492 -0.20825
 C171 C 0.15711 -0.20640 -0.20797
 C172 C 0.12385 -0.17189 -0.17593
 C173 C 0.14696 -0.13489 -0.14231
 C174 C 0.20505 -0.13171 -0.14127
 C175 C 0.29762 -0.16058 -0.17339
 C176 C 0.32053 -0.12292 -0.14040
 C177 C 0.28658 -0.08956 -0.10803
 C178 C 0.22944 -0.09345 -0.10859
 H179 H 0.32636 -0.18353 -0.19875
 H180 H 0.36499 -0.11920 -0.14045
 H181 H 0.30460 -0.06005 -0.08278
 H182 H 0.20473 -0.06580 -0.08351
 H183 H 0.13638 -0.23521 -0.23170
 H184 H 0.07936 -0.17459 -0.17686
 C185 C 0.24440 0.34108 0.32625
 C186 C 0.21772 0.30479 0.29269
 C187 C 0.16050 0.30931 0.28956
 C188 C 0.12921 0.34596 0.32083
 C189 C 0.15396 0.38050 0.35579
 C190 C 0.21222 0.37936 0.35781
 C191 C 0.30233 0.34072 0.32910
 C192 C 0.32787 0.37717 0.36148
 C193 C 0.29655 0.41499 0.39141
 C194 C 0.23934 0.41638 0.38958
 H195 H 0.32864 0.31240 0.30669
 H196 H 0.37230 0.37626 0.36311
 H197 H 0.31673 0.44357 0.41604
 H198 H 0.21681 0.44718 0.41272
 H199 H 0.13900 0.28433 0.26285
 H200 H 0.08487 0.34692 0.31813
 C201 C 0.66010 -0.23731 0.31145
 C202 C 0.70596 -0.21711 0.27987
 C203 C 0.71836 -0.16216 0.28343
 C204 C 0.68525 -0.12704 0.31484
 C205 C 0.63909 -0.14561 0.34492
 C206 C 0.62682 -0.20129 0.34451
 C207 C 0.64661 -0.29251 0.31159
 C208 C 0.60257 -0.31189 0.34370
 C209 C 0.57111 -0.27690 0.37674
 C210 C 0.58306 -0.22218 0.37745
 H211 H 0.66949 -0.32137 0.28697
 H212 H 0.59305 -0.35439 0.34317
 H213 H 0.53735 -0.29226 0.40208
 H214 H 0.55811 -0.19672 0.40454
 H215 H 0.75447 -0.14563 0.26250
 H216 H 0.69588 -0.08474 0.31579
 C217 C 0.67020 0.25781 -0.18620
 C218 C 0.71326 0.27918 -0.22048
 C219 C 0.72446 0.33440 -0.21738
 C220 C 0.69237 0.36871 -0.18408
 C221 C 0.64879 0.34901 -0.15128
 C222 C 0.63857 0.29291 -0.15073
 C223 C 0.65792 0.20233 -0.18574
 C224 C 0.61722 0.18173 -0.15062
 C225 C 0.58796 0.21574 -0.11488
 C226 C 0.59849 0.27074 -0.11465
 H227 H 0.67911 0.17415 -0.21249
 H228 H 0.60865 0.13904 -0.15089
 H229 H 0.55696 0.19942 -0.08713
 H230 H 0.57552 0.29542 -0.08539
 H231 H 0.75861 0.35185 -0.24042
 H232 H 0.70150 0.41133 -0.18418
 C233 C -0.20543 0.13531 -0.21675
 C234 C -0.20629 0.19259 -0.21798
 C235 C -0.17778 0.22202 -0.18126
 C236 C -0.14659 0.19663 -0.14601
 C237 C -0.14252 0.14071 -0.14607
 C238 C -0.17115 0.10948 -0.18213
 C239 C -0.23775 0.10258 -0.24800
 C240 C -0.23293 0.04679 -0.24897
 C241 C -0.19636 0.02207 -0.21821
 C242 C -0.16592 0.05290 -0.18481
 H243 H -0.26873 0.11874 -0.27037
 H244 H -0.25794 0.02261 -0.27362
 H245 H -0.19227 -0.02125 -0.21953
 H246 H -0.13818 0.03190 -0.16138
 H247 H -0.17828 0.26556 -0.18068
 H248 H -0.12505 0.22096 -0.11853
 C249 C -0.21300 0.63891 0.28836
 C250 C -0.21380 0.69614 0.28662
 C251 C -0.18600 0.72594 0.32358
 C252 C -0.15454 0.70090 0.35884
 C253 C -0.14967 0.64503 0.35860
 C254 C -0.17834 0.61344 0.32284
 C255 C -0.24572 0.60589 0.25776
 C256 C -0.24062 0.55013 0.25695
 C257 C -0.20342 0.52575 0.28730
 C258 C -0.17274 0.55688 0.32025
 H259 H -0.27712 0.62184 0.23569
 H260 H -0.26583 0.52572 0.23269
 H261 H -0.19907 0.48245 0.28605
 H262 H -0.14457 0.53612 0.34343
 H263 H -0.18677 0.76947 0.32396
 H264 H -0.13312 0.72547 0.38621
 C265 C 0.31611 0.15295 0.26532
 C266 C 0.28811 0.19913 0.28808
 C267 C 0.28541 0.20678 0.34238
 C268 C 0.31379 0.17328 0.37352
 C269 C 0.34516 0.13021 0.35164
 C270 C 0.34450 0.11816 0.29758
 C271 C 0.31877 0.14152 0.21112
 C272 C 0.34656 0.09627 0.18967
 C273 C 0.37252 0.06150 0.22148
 C274 C 0.37169 0.07220 0.27491
 H275 H 0.30064 0.16762 0.18443
 H276 H 0.34803 0.08819 0.14806
 H277 H 0.39370 0.02621 0.20462
 H278 H 0.39213 0.04394 0.29829
 H279 H 0.26241 0.23984 0.36130
 H280 H 0.31294 0.18232 0.41498
 C281 C 0.26417 0.67814 -0.16550
 C282 C 0.29143 0.71113 -0.20446
 C283 C 0.34939 0.71347 -0.20815
 C284 C 0.38035 0.68296 -0.17664
 C285 C 0.35489 0.64871 -0.13995
 C286 C 0.29638 0.64599 -0.13391
 C287 C 0.20587 0.67329 -0.15926
 C288 C 0.18028 0.63862 -0.12329
 C289 C 0.21182 0.60699 -0.09329
 C290 C 0.26921 0.61005 -0.09878
 H291 H 0.17910 0.69457 -0.18297
 H292 H 0.13566 0.63550 -0.11944
 H293 H 0.19172 0.57936 -0.06608
 H294 H 0.29178 0.58324 -0.07577
 H295 H 0.37181 0.73896 -0.23577
 H296 H 0.42502 0.68573 -0.18134
 C297 C -0.13652 -0.21763 0.19418
 C298 C -0.19553 -0.21721 0.19639
 C299 C -0.22181 -0.18083 0.16556
 C300 C -0.19208 -0.14317 0.13609
 C301 C -0.13472 -0.14028 0.13622
 C302 C -0.10622 -0.17769 0.16492
 C303 C -0.10622 -0.25730 0.21800
 C304 C -0.04870 -0.25583 0.21628
 C305 C -0.01965 -0.21566 0.18959
 C306 C -0.04788 -0.17730 0.16351
 H307 H -0.12543 -0.29148 0.23597
 H308 H -0.02650 -0.28667 0.23503
 H309 H 0.02505 -0.21497 0.18803
 H310 H -0.02346 -0.14792 0.14169
 H311 H -0.26642 -0.18058 0.16504
 H312 H -0.21417 -0.11543 0.11339
 C313 C -0.13117 0.27891 0.68903
 C314 C -0.19026 0.28031 0.69286
 C315 C -0.21674 0.31772 0.66331
 C316 C -0.18710 0.35578 0.63413
 C317 C -0.12956 0.35792 0.63304
 C318 C -0.10090 0.31901 0.65989
 C319 C -0.10082 0.23800 0.71102
 C320 C -0.04325 0.23826 0.70763
 C321 C -0.01417 0.27837 0.68092
 C322 C -0.04249 0.31797 0.65658
 H323 H -0.12010 0.20368 0.72863
 H324 H -0.02104 0.20644 0.72496
 H325 H 0.03057 0.27803 0.67791
 H326 H -0.01803 0.34705 0.63443
 H327 H -0.26143 0.31858 0.66379
 H328 H -0.20945 0.38456 0.61283
 C329 C 0.34092 -0.23686 0.66808
 C330 C 0.29865 -0.21402 0.70369
 C331 C 0.28782 -0.15866 0.70091
 C332 C 0.31944 -0.12587 0.66761
 C333 C 0.36275 -0.14681 0.63455
 C334 C 0.37415 -0.20264 0.63457
 C335 C 0.35149 -0.29266 0.66467
 C336 C 0.39453 -0.31393 0.63154
 C337 C 0.42830 -0.28022 0.60093
 C338 C 0.41848 -0.22510 0.60239
 H339 H 0.32716 -0.32049 0.68767
 H340 H 0.40204 -0.35683 0.63001
 H341 H 0.46219 -0.29687 0.57581
 H342 H 0.44617 -0.20039 0.57828
 H343 H 0.25403 -0.13954 0.72403
 H344 H 0.30941 -0.08346 0.66715
 C345 C 0.36212 0.28210 0.19195
 C346 C 0.30499 0.29293 0.20450
 C347 C 0.28055 0.33515 0.17943
 C348 C 0.31065 0.36537 0.14234
 C349 C 0.36560 0.35235 0.12614
 C350 C 0.39017 0.30747 0.14845
 C351 C 0.39317 0.24822 0.22157
 C352 C 0.44603 0.23122 0.20338
 C353 C 0.46958 0.24898 0.15595
 C354 C 0.44226 0.28724 0.12881
 H355 H 0.37870 0.23693 0.26007
 H356 H 0.46871 0.20414 0.22619
 H357 H 0.50999 0.23462 0.14112
 H358 H 0.46226 0.30089 0.09250
 H359 H 0.23747 0.34528 0.18884
 H360 H 0.29069 0.39953 0.12651
 C361 C 0.16300 0.17996 0.23205
 C362 C 0.20438 0.21487 0.20959
 C363 C 0.20958 0.22006 0.15527
 C364 C 0.17599 0.19117 0.12325
 C365 C 0.13622 0.15556 0.14421
 C366 C 0.12874 0.15020 0.19899
 C367 C 0.15426 0.17403 0.28655
 C368 C 0.11342 0.13987 0.30778
 C369 C 0.08000 0.11120 0.27547
 C370 C 0.08720 0.11639 0.22163
 H371 H 0.17778 0.19633 0.31362
 H372 H 0.10732 0.13605 0.34964
 H373 H 0.04802 0.08510 0.29224
 H374 H 0.05955 0.09411 0.19808
 H375 H 0.24095 0.24541 0.13669
 H376 H 0.18214 0.19552 0.08141
 C377 C 0.20981 0.65002 0.70555
 C378 C 0.21324 0.70771 0.70868
 C379 C 0.18110 0.73751 0.67631
 C380 C 0.14474 0.71283 0.64399
 C381 C 0.13849 0.65720 0.64292
 C382 C 0.16939 0.62547 0.67505
 C383 C 0.24590 0.61515 0.72933
 C384 C 0.23790 0.55972 0.72926
 C385 C 0.19487 0.53693 0.70399
 C386 C 0.16131 0.56922 0.67648
 H387 H 0.28241 0.62862 0.74611
 H388 H 0.26574 0.53426 0.74853
 H389 H 0.18850 0.49388 0.70437
 H390 H 0.12904 0.54964 0.65622
 H391 H 0.18368 0.78099 0.67598
 H392 H 0.12172 0.73740 0.61904
 C393 C 0.74254 0.16700 0.64210
 C394 C 0.71899 0.20219 0.68232
 C395 C 0.66227 0.21362 0.68391
 C396 C 0.62814 0.18736 0.65043
 C397 C 0.64971 0.14957 0.61330
 C398 C 0.70756 0.14080 0.60728
 C399 C 0.79971 0.15575 0.63649
 C400 C 0.82207 0.12115 0.59700
 C401 C 0.78807 0.09688 0.56223
 C402 C 0.73136 0.10648 0.56714
 H403 H 0.82771 0.17286 0.66262
 H404 H 0.86606 0.11318 0.59335
 H405 H 0.80571 0.07037 0.53137
 H406 H 0.70648 0.08722 0.53893
 H407 H 0.64334 0.24222 0.71204
 H408 H 0.58410 0.19524 0.65478
 C409 C 0.74075 0.66614 0.14697
 C410 C 0.71615 0.70411 0.18403
 C411 C 0.66034 0.71743 0.18173
 C412 C 0.62781 0.69108 0.14708
 C413 C 0.64992 0.65073 0.11295
 C414 C 0.70697 0.63805 0.11227
 C415 C 0.79752 0.65332 0.14522
 C416 C 0.82029 0.61338 0.11130
 C417 C 0.78701 0.58487 0.07877
 C418 C 0.73087 0.59666 0.07933
 H419 H 0.82476 0.67309 0.17051
 H420 H 0.86387 0.60396 0.11086
 H421 H 0.80473 0.55323 0.05313
 H422 H 0.70661 0.57256 0.05410
 H423 H 0.64096 0.74813 0.20731
 H424 H 0.58445 0.70163 0.14757
   
