data_POSCAR
  _audit_creation_date              2014-09-24
  _audit_creation_method            'ToBaCCo'
  _symmetry_space_group_name_H-M    'P1'
  _symmetry_Int_Tables_number       1
  _symmetry_cell_setting            triclinic
  loop_
  _symmetry_equiv_pos_as_xyz
 x,y,z
_cell_length_a 39.1343
_cell_length_b 39.0005
_cell_length_c 38.9722
_cell_angle_alpha 90.024000
_cell_angle_beta 90.000300
_cell_angle_gamma 90.021000
loop_
  _atom_site_label
  _atom_site_type_symbol
  _atom_site_fract_x
  _atom_site_fract_y
  _atom_site_fract_z
C1 C 0.20750 1.23471 0.18512
 C2 C 0.23287 1.20933 0.18571
 C3 C 0.23221 1.18408 0.21071
 C4 C 0.20617 1.18390 0.23542
 C5 C 0.18108 1.20899 0.23485
 C6 C 0.18175 1.23453 0.20955
 C7 C 0.20053 1.26097 0.16256
 N8 N 0.17137 1.27653 0.17292
 C9 C 0.15953 1.26069 0.20147
 C10 C 0.15796 1.20123 0.26034
 N11 N 0.16862 1.17224 0.27618
 C12 C 0.19791 1.16127 0.26126
 C13 C 0.25853 1.16170 0.20372
 N14 N 0.27494 1.17295 0.17528
 C15 C 0.25958 1.20191 0.16393
 H16 H 0.21499 1.26762 0.13980
 H17 H 0.13604 1.26708 0.21471
 H18 H 0.13466 1.21501 0.26624
 H19 H 0.21156 1.13808 0.26802
 H20 H 0.26468 1.13846 0.21760
 H21 H 0.26669 1.21587 0.14101
 C22 C 0.79020 0.76128 0.18605
 C23 C 0.76447 0.78629 0.18628
 C24 C 0.76376 0.81088 0.21196
 C25 C 0.78878 0.81074 0.23772
 C26 C 0.81422 0.78601 0.23750
 C27 C 0.81493 0.76114 0.21152
 C28 C 0.79864 0.73595 0.16291
 N29 N 0.82769 0.72064 0.17392
 C30 C 0.83803 0.73573 0.20346
 C31 C 0.83638 0.79360 0.26390
 N32 N 0.82480 0.82213 0.27994
 C33 C 0.79587 0.83298 0.26425
 C34 C 0.73769 0.83331 0.20430
 N35 N 0.72273 0.82275 0.17479
 C36 C 0.73881 0.79417 0.16343
 H37 H 0.78535 0.72991 0.13928
 H38 H 0.86118 0.72948 0.21735
 H39 H 0.85974 0.78012 0.27022
 H40 H 0.78176 0.85594 0.27089
 H41 H 0.73087 0.85624 0.21838
 H42 H 0.73303 0.78091 0.13971
 C43 C 0.78967 1.23852 -0.18600
 C44 C 0.76430 1.21313 -0.18548
 C45 C 0.76409 1.18765 -0.21026
 C46 C 0.78925 1.18724 -0.23588
 C47 C 0.81435 1.21234 -0.23641
 C48 C 0.81456 1.23813 -0.21132
 C49 C 0.79758 1.26481 -0.16376
 N50 N 0.82647 1.28018 -0.17517
 C51 C 0.83722 1.26419 -0.20407
 C52 C 0.83676 1.20413 -0.26241
 N53 N 0.82565 1.17487 -0.27747
 C54 C 0.79679 1.16417 -0.26155
 C55 C 0.73828 1.16511 -0.20196
 N56 N 0.72301 1.17649 -0.17294
 C57 C 0.73861 1.20568 -0.16250
 H58 H 0.78404 1.27151 -0.14046
 H59 H 0.86034 1.27032 -0.21807
 H60 H 0.85998 1.21770 -0.26907
 H61 H 0.78304 1.14078 -0.26742
 H62 H 0.73186 1.14160 -0.21527
 H63 H 0.73249 1.21970 -0.13931
 C64 C 0.21280 0.76426 -0.18771
 C65 C 0.23775 0.79007 -0.18746
 C66 C 0.23738 0.81542 -0.21237
 C67 C 0.21206 0.81525 -0.23783
 C68 C 0.18739 0.78974 -0.23808
 C69 C 0.18776 0.76410 -0.21288
 C70 C 0.20545 0.73797 -0.16529
 N71 N 0.17675 0.72206 -0.17645
 C72 C 0.16558 0.73771 -0.20537
 C73 C 0.16467 0.79744 -0.26397
 N74 N 0.17519 0.82680 -0.27923
 C75 C 0.20398 0.83806 -0.26355
 C76 C 0.26288 0.83840 -0.20437
 N77 N 0.27854 0.82745 -0.17540
 C78 C 0.26349 0.79807 -0.16471
 H79 H 0.21923 0.73163 -0.14204
 H80 H 0.14247 0.73113 -0.21919
 H81 H 0.14163 0.78346 -0.27041
 H82 H 0.21729 0.86165 -0.26961
 H83 H 0.26886 0.86192 -0.21786
 H84 H 0.27002 0.78428 -0.14151
 C85 C 0.55341 1.04796 -0.00775
 H86 H 0.55413 1.04749 0.01999
 C87 C 0.57688 1.06787 -0.02590
 H88 H 0.59529 1.08313 -0.01186
 C89 C 0.52852 1.02835 -0.05961
 H90 H 0.51016 1.01231 -0.07266
 C91 C 0.55154 1.04792 -0.07880
 H92 H 0.55058 1.04670 -0.10653
 N93 N 0.52978 1.02885 -0.02473
 C94 C 0.44882 1.01136 0.05009
 H95 H 0.44778 0.98364 0.04975
 C96 C 0.42567 1.02987 0.07006
 H97 H 0.40671 1.01615 0.08493
 C98 C 0.47380 1.06280 0.02965
 H99 H 0.49216 1.07557 0.01338
 C100 C 0.45110 1.08233 0.04922
 H101 H 0.45275 1.11003 0.04831
 Zn102 Zn 0.50077 1.00084 0.00215
 N103 N 0.47233 1.02797 0.03051
 C104 C 0.52848 0.97284 0.06370
 N105 N 0.52941 0.97231 0.02881
 C106 C 0.55257 0.95281 0.01163
 C107 C 0.57592 0.93260 0.02957
 C108 C 0.55141 0.95299 0.08269
 C109 C 0.44841 0.99143 -0.04550
 C110 C 0.42493 0.97345 -0.06558
 C111 C 0.44945 0.92042 -0.04514
 C112 C 0.47249 0.93943 -0.02542
 N113 N 0.47165 0.97429 -0.02608
 H114 H 0.51049 0.98917 0.07690
 H115 H 0.55303 0.95324 -0.01612
 H116 H 0.59398 0.91707 0.01537
 H117 H 0.55075 0.95427 0.11043
 H118 H 0.44802 1.01916 -0.04516
 H119 H 0.40683 0.98761 -0.08110
 H120 H 0.45008 0.89270 -0.04379
 H121 H 0.49053 0.92625 -0.00913
 C122 C 0.42649 1.06588 0.06965
 C123 C 0.57626 1.06790 -0.06193
 C124 C 0.42514 0.93744 -0.06545
 C125 C 0.57569 0.93267 0.06561
 C126 C -0.00775 0.55375 1.04499
 H127 H 0.01989 0.55422 1.04509
 C128 C -0.02601 0.57720 1.06487
 H129 H -0.01218 0.59536 1.08065
 C130 C -0.05920 0.52942 1.02411
 H131 H -0.07204 0.51126 1.00763
 C132 C -0.07850 0.55241 1.04361
 H133 H -0.10610 0.55166 1.04189
 N134 N -0.02447 0.53036 1.02531
 C135 C 0.04904 0.44795 1.00911
 H136 H 0.04916 0.44689 0.98137
 C137 C 0.06839 0.42456 1.02798
 H138 H 0.08323 0.40538 1.01452
 C139 C 0.02819 0.47337 1.06022
 H140 H 0.01204 0.49203 1.07271
 C141 C 0.04711 0.45043 1.08011
 H142 H 0.04584 0.45219 1.10781
 Zn143 Zn 0.00253 0.50102 0.99773
 N144 N 0.02961 0.47185 1.02538
 C145 C 0.06504 0.52757 0.97124
 N146 N 0.03035 0.52944 0.97001
 C147 C 0.01428 0.55319 0.95024
 C148 C 0.03319 0.57605 0.93029
 C149 C 0.08497 0.54999 0.95171
 C150 C -0.04549 0.44925 0.98666
 C151 C -0.06560 0.42634 0.96795
 C152 C -0.04369 0.45129 0.91565
 C153 C -0.02403 0.47377 0.93538
 N154 N -0.02541 0.47248 0.97023
 H155 H 0.07737 0.50901 0.98765
 H156 H -0.01333 0.55454 0.95029
 H157 H 0.01989 0.59512 0.91517
 H158 H 0.11253 0.54796 0.95282
 H159 H -0.04558 0.44834 1.01440
 H160 H -0.08098 0.40769 0.98154
 H161 H -0.04245 0.45287 0.88794
 H162 H -0.00737 0.49189 0.92277
 C163 C 0.06749 0.42552 1.06400
 C164 C -0.06190 0.57681 1.06426
 C165 C -0.06478 0.42710 0.93192
 C166 C 0.06905 0.57470 0.93093
 C167 C 1.04569 -0.01083 0.55213
 H168 H 1.04552 0.01691 0.55242
 C169 C 1.06595 -0.02878 0.57547
 H170 H 1.08177 -0.01461 0.59333
 C171 C 1.02499 -0.06284 0.52852
 H172 H 1.00838 -0.07602 0.51074
 C173 C 1.04487 -0.08183 0.55143
 H174 H 1.04334 -0.10955 0.55096
 N175 N 1.02585 -0.02798 0.52921
 C176 C 1.00647 0.04577 0.44747
 H177 H 0.97883 0.04561 0.44733
 C178 C 1.02429 0.06554 0.42357
 H179 H 1.01011 0.08099 0.40542
 C180 C 1.05840 0.02556 0.47132
 H181 H 1.07159 0.00934 0.48943
 C182 C 1.07724 0.04496 0.44787
 H183 H 1.10486 0.04344 0.44826
 Zn184 Zn 0.99730 -0.00135 0.50052
 N185 N 1.02365 0.02643 0.47080
 C186 C 0.97059 0.06078 0.52817
 N187 N 0.96986 0.02594 0.52970
 C188 C 0.95096 0.00930 0.55376
 C189 C 0.93150 0.02777 0.57740
 C190 C 0.95148 0.08028 0.55134
 C191 C 0.98610 -0.04964 0.44890
 C192 C 0.96738 -0.06996 0.42618
 C193 C 0.91540 -0.04880 0.45207
 C194 C 0.93513 -0.02890 0.47435
 N195 N 0.96983 -0.02979 0.47247
 H196 H 0.98647 0.07356 0.50946
 H197 H 0.95123 -0.01842 0.55469
 H198 H 0.91640 0.01400 0.59616
 H199 H 0.95288 0.10798 0.55015
 H200 H 1.01371 -0.04933 0.44754
 H201 H 0.98083 -0.08510 0.40721
 H202 H 0.88782 -0.04791 0.45407
 H203 H 0.92264 -0.01242 0.49274
 C204 C 1.06018 0.06518 0.42346
 C205 C 1.06557 -0.06479 0.57546
 C206 C 0.93151 -0.06960 0.42748
 C207 C 0.93173 0.06377 0.57650
 C208 C 0.12300 0.35034 1.12233
 C209 C 0.13789 0.36528 1.09331
 C210 C 0.12003 0.39000 1.07453
 C211 C 0.15549 0.30151 1.15625
 C212 C 0.07239 0.38518 1.11399
 C213 C 0.09029 0.36045 1.13270
 C214 C 0.14085 0.32398 1.14092
 C215 C 0.08698 0.40011 1.08456
 H216 H 0.16322 0.35765 1.08507
 H217 H 0.13212 0.40132 1.05226
 H218 H 0.04683 0.39204 1.12209
 H219 H 0.07845 0.34892 1.15503
 C220 C -0.11976 0.65053 1.12223
 C221 C -0.08974 0.66045 1.10544
 C222 C -0.07090 0.63648 1.08669
 C223 C -0.15506 0.69682 1.15690
 C224 C -0.11205 0.59242 1.10145
 C225 C -0.13087 0.61647 1.12023
 C226 C -0.13915 0.67547 1.14124
 C227 C -0.08183 0.60217 1.08446
 H228 H -0.08099 0.68678 1.10671
 H229 H -0.04805 0.64492 1.07349
 H230 H -0.12093 0.56614 1.10054
 H231 H -0.15405 0.60851 1.13318
 C232 C -0.12278 0.35324 0.87425
 C233 C -0.08982 0.36230 0.86368
 C234 C -0.07111 0.38663 0.88216
 C235 C -0.15683 0.30495 0.84104
 C236 C -0.11844 0.39317 0.92175
 C237 C -0.13711 0.36884 0.90321
 C238 C -0.14146 0.32719 0.85600
 C239 C -0.08513 0.40220 0.91155
 H240 H -0.07841 0.35024 0.84140
 H241 H -0.04538 0.39266 0.87392
 H242 H -0.13010 0.40500 0.94399
 H243 H -0.16261 0.36202 0.91160
 C244 C 0.12718 0.64861 0.87352
 C245 C 0.09810 0.63356 0.85902
 C246 C 0.07943 0.60918 0.87748
 C247 C 0.16051 0.69715 0.83997
 C248 C 0.11916 0.61453 0.92491
 C249 C 0.13777 0.63891 0.90641
 C250 C 0.14550 0.67478 0.85511
 C251 C 0.08962 0.59955 0.91075
 H252 H 0.08968 0.64087 0.83357
 H253 H 0.05707 0.59781 0.86571
 H254 H 0.12741 0.60802 0.95061
 H255 H 0.16014 0.65054 0.91794
 C256 C 1.11684 0.12201 0.34793
 C257 C 1.12841 0.12066 0.38189
 C258 C 1.10996 0.10231 0.40654
 C259 C 1.15161 0.15571 0.30051
 C260 C 1.06822 0.08670 0.36330
 C261 C 1.08671 0.10503 0.33872
 C262 C 1.13593 0.14050 0.32236
 C263 C 1.07964 0.08509 0.39750
 H264 H 1.15169 0.13376 0.38930
 H265 H 1.11920 0.10187 0.43272
 H266 H 1.04529 0.07330 0.35540
 H267 H 1.07760 0.10579 0.31248
 C268 C 1.12365 -0.12173 0.64977
 C269 C 1.12163 -0.13332 0.61583
 C270 C 1.10285 -0.11479 0.59157
 C271 C 1.15823 -0.15639 0.69661
 C272 C 1.08816 -0.07296 0.63516
 C273 C 1.10691 -0.09152 0.65935
 C274 C 1.14262 -0.14082 0.67497
 C275 C 1.08589 -0.08438 0.60098
 H276 H 1.13454 -0.15665 0.60814
 H277 H 1.10188 -0.12404 0.56539
 H278 H 1.07497 -0.04998 0.64336
 H279 H 1.10820 -0.08239 0.68558
 C280 C 0.87392 -0.12763 0.35357
 C281 C 0.90306 -0.14187 0.36873
 C282 C 0.92155 -0.12323 0.39312
 C283 C 0.84091 -0.16140 0.30493
 C284 C 0.88153 -0.07612 0.38757
 C285 C 0.86310 -0.09481 0.36318
 C286 C 0.85578 -0.14619 0.32735
 C287 C 0.91112 -0.09003 0.40265
 H288 H 0.91165 -0.16727 0.36148
 H289 H 0.94396 -0.13479 0.40457
 H290 H 0.87311 -0.05047 0.39399
 H291 H 0.84069 -0.08347 0.35146
 C292 C 0.87571 0.12223 0.65128
 C293 C 0.87657 0.13297 0.61703
 C294 C 0.89471 0.11397 0.59263
 C295 C 0.84214 0.15767 0.69830
 C296 C 0.91112 0.07337 0.63673
 C297 C 0.89301 0.09240 0.66105
 C298 C 0.85730 0.14175 0.67659
 C299 C 0.91219 0.08392 0.60222
 H300 H 0.86322 0.15600 0.60919
 H301 H 0.89475 0.12255 0.56621
 H302 H 0.92473 0.05068 0.64504
 H303 H 0.89262 0.08392 0.68752
 C304 C 0.35102 1.12290 0.12598
 C305 C 0.36110 1.13374 0.09330
 C306 C 0.38597 1.11549 0.07517
 C307 C 0.30168 1.15583 0.15860
 C308 C 0.39104 1.07558 0.12256
 C309 C 0.36616 1.09390 0.14065
 C310 C 0.32440 1.14094 0.14396
 C311 C 0.40109 1.08605 0.08951
 H312 H 0.34940 1.15605 0.08162
 H313 H 0.39277 1.12393 0.04960
 H314 H 0.40249 1.05328 0.13445
 H315 H 0.35855 1.08529 0.16595
 C316 C 0.65062 1.12515 -0.11954
 C317 C 0.66028 1.10777 -0.08969
 C318 C 0.63609 1.08928 -0.07091
 C319 C 0.69745 1.15905 -0.15479
 C320 C 0.59232 1.10553 -0.11180
 C321 C 0.61659 1.12404 -0.13055
 C322 C 0.67582 1.14378 -0.13891
 C323 C 0.60181 1.08792 -0.08175
 H324 H 0.68658 1.10834 -0.08102
 H325 H 0.64433 1.07558 -0.04822
 H326 H 0.56607 1.10527 -0.12059
 H327 H 0.60883 1.13745 -0.15361
 C328 C 0.35078 0.88029 -0.12323
 C329 C 0.38468 0.86896 -0.12171
 C330 C 0.40895 0.88757 -0.10304
 C331 C 0.30402 0.84538 -0.15760
 C332 C 0.36544 0.92896 -0.08745
 C333 C 0.34125 0.91033 -0.10609
 C334 C 0.32560 0.86109 -0.14208
 C335 C 0.39959 0.91780 -0.08567
 H336 H 0.39235 0.84577 -0.13494
 H337 H 0.43510 0.87852 -0.10247
 H338 H 0.35729 0.95181 -0.07394
 H339 H 0.31505 0.91925 -0.10698
 C340 C 0.65013 0.87481 0.12246
 C341 C 0.65961 0.89202 0.09244
 C342 C 0.63538 0.91071 0.07392
 C343 C 0.69708 0.84046 0.15706
 C344 C 0.59195 0.89503 0.11540
 C345 C 0.61626 0.87631 0.13389
 C346 C 0.67538 0.85594 0.14151
 C347 C 0.60126 0.91245 0.08518
 H348 H 0.68579 0.89116 0.08344
 H349 H 0.64350 0.92427 0.05110
 H350 H 0.56583 0.89558 0.12453
 H351 H 0.60864 0.86304 0.15708
   
