data_POSCAR
  _audit_creation_date              2014-09-24
  _audit_creation_method            'ToBaCCo'
  _symmetry_space_group_name_H-M    'P1'
  _symmetry_Int_Tables_number       1
  _symmetry_cell_setting            triclinic
  loop_
  _symmetry_equiv_pos_as_xyz
 x,y,z
_cell_length_a 40.3272
_cell_length_b 40.2261
_cell_length_c 40.5464
_cell_angle_alpha 90.001800
_cell_angle_beta 89.940300
_cell_angle_gamma 89.955500
loop_
  _atom_site_label
  _atom_site_type_symbol
  _atom_site_fract_x
  _atom_site_fract_y
  _atom_site_fract_z
N1 N 0.29261 0.38531 1.36427
 N2 N 0.29383 0.36116 1.38602
 C3 C 0.26826 0.36446 1.40718
 C4 C 0.24981 0.39226 1.39825
 C5 C 0.26629 0.40479 1.37080
 H6 H 0.26346 0.34768 1.42741
 H7 H 0.25970 0.42630 1.35627
 Cu8 Cu 0.32852 0.32753 1.38414
 Cu9 Cu 0.32482 0.38953 1.32868
 Cu10 Cu 0.38750 0.33054 1.32561
 N11 N 0.36412 0.29487 1.38242
 N12 N 0.38707 0.29620 1.35947
 C13 C 0.40828 0.27069 1.36356
 C14 C 0.39816 0.25209 1.39066
 C15 C 0.36994 0.26844 1.40195
 H16 H 0.42931 0.26610 1.34769
 H17 H 0.35452 0.26161 1.42265
 N18 N 0.38367 0.36719 1.29356
 N19 N 0.35974 0.38954 1.29459
 C20 C 0.36349 0.41068 1.26908
 C21 C 0.39117 0.40126 1.25110
 C22 C 0.40330 0.37358 1.26744
 H23 H 0.34726 0.43143 1.26398
 H24 H 0.42450 0.35873 1.26045
 H25 H 0.33707 0.33972 1.32581
 H26 H 0.36318 0.36619 1.35326
 N27 N 1.20423 0.61377 0.86606
 N28 N 1.20215 0.63698 0.88876
 C29 C 1.22763 0.63351 0.90994
 C30 C 1.24667 0.60658 0.90007
 C31 C 1.23096 0.59470 0.87208
 H32 H 1.23198 0.64939 0.93099
 H33 H 1.23870 0.57410 0.85678
 Cu34 Cu 1.16675 0.66991 0.88822
 Cu35 Cu 1.17270 0.61038 0.82997
 Cu36 Cu 1.11070 0.66989 0.82666
 N37 N 1.13244 0.70382 0.88499
 N38 N 1.11066 0.70375 0.86095
 C39 C 1.09035 0.73009 0.86438
 C40 C 1.09984 0.74793 0.89218
 C41 C 1.12675 0.73025 0.90455
 H42 H 1.07036 0.73579 0.84759
 H43 H 1.14147 0.73621 0.92598
 N44 N 1.11479 0.63366 0.79419
 N45 N 1.13849 0.61108 0.79537
 C46 C 1.13497 0.59017 0.76966
 C47 C 1.10768 0.60000 0.75137
 C48 C 1.09554 0.62768 0.76775
 H49 H 1.15103 0.56926 0.76469
 H50 H 1.07454 0.64272 0.76062
 H51 H 1.16119 0.66048 0.82909
 H52 H 1.13348 0.63289 0.85393
 N53 N 0.70621 -0.11617 0.13324
 N54 N 0.70512 -0.14046 0.11160
 C55 C 0.73069 -0.13715 0.09043
 C56 C 0.74877 -0.10923 0.09925
 C57 C 0.73238 -0.09659 0.12657
 H58 H 0.73574 -0.15378 0.07012
 H59 H 0.73928 -0.07511 0.14100
 Cu60 Cu 0.67060 -0.17419 0.11366
 Cu61 Cu 0.67424 -0.11211 0.16902
 Cu62 Cu 0.61195 -0.17137 0.17259
 N63 N 0.63508 -0.20688 0.11556
 N64 N 0.61228 -0.20564 0.13866
 C65 C 0.59110 -0.23115 0.13464
 C66 C 0.60107 -0.24966 0.10742
 C67 C 0.62917 -0.23325 0.09598
 H68 H 0.57019 -0.23581 0.15064
 H69 H 0.64445 -0.23998 0.07514
 N70 N 0.61589 -0.13475 0.20466
 N71 N 0.63963 -0.11224 0.20335
 C72 C 0.63598 -0.09108 0.22885
 C73 C 0.60858 -0.10066 0.24714
 C74 C 0.59649 -0.12846 0.23098
 H75 H 0.65210 -0.07022 0.23372
 H76 H 0.57547 -0.14341 0.23819
 H77 H 0.66230 -0.16201 0.17202
 H78 H 0.63585 -0.13569 0.14471
 N79 N -0.20519 1.11639 -0.36380
 N80 N -0.20371 1.14032 -0.38580
 C81 C -0.22915 1.13695 -0.40704
 C82 C -0.24759 1.10937 -0.39790
 C83 C -0.23152 1.09697 -0.37030
 H84 H -0.23385 1.15330 -0.42765
 H85 H -0.23869 1.07573 -0.35564
 Cu86 Cu -0.16888 1.17371 -0.38403
 Cu87 Cu -0.17326 1.11243 -0.32798
 Cu88 Cu -0.11062 1.17150 -0.32501
 N89 N -0.13358 1.20661 -0.38232
 N90 N -0.11088 1.20563 -0.35916
 C91 C -0.08991 1.23132 -0.36321
 C92 C -0.09995 1.24968 -0.39049
 C93 C -0.12785 1.23299 -0.40194
 H94 H -0.06913 1.23625 -0.34715
 H95 H -0.14314 1.23956 -0.42278
 N96 N -0.11468 1.13504 -0.29272
 N97 N -0.13860 1.11269 -0.29373
 C98 C -0.13495 1.09163 -0.26816
 C99 C -0.10737 1.10107 -0.25014
 C100 C -0.09517 1.12871 -0.26652
 H101 H -0.15116 1.07088 -0.26310
 H102 H -0.07396 1.14351 -0.25956
 H103 H -0.16103 1.16225 -0.32551
 H104 H -0.13457 1.13543 -0.35232
 N105 N 0.70649 0.61711 0.63634
 N106 N 0.70547 0.64114 0.61442
 C107 C 0.73105 0.63750 0.59333
 C108 C 0.74911 0.60966 0.60251
 C109 C 0.73266 0.59739 0.62995
 H110 H 0.73611 0.65387 0.57281
 H111 H 0.73947 0.57602 0.64461
 Cu112 Cu 0.67097 0.67497 0.61603
 Cu113 Cu 0.67428 0.61347 0.67197
 Cu114 Cu 0.61217 0.67310 0.67481
 N115 N 0.63566 0.70794 0.61751
 N116 N 0.61280 0.70712 0.64061
 C117 C 0.59178 0.73274 0.63625
 C118 C 0.60193 0.75070 0.60887
 C119 C 0.62991 0.73412 0.59764
 H120 H 0.57064 0.73781 0.65187
 H121 H 0.64525 0.74089 0.57685
 N122 N 0.61579 0.63667 0.70714
 N123 N 0.63944 0.61401 0.70609
 C124 C 0.63547 0.59294 0.73160
 C125 C 0.60797 0.60272 0.74965
 C126 C 0.59615 0.63057 0.73332
 H127 H 0.65142 0.57196 0.73662
 H128 H 0.57511 0.64565 0.74029
 H129 H 0.63598 0.63698 0.64738
 H130 H 0.66248 0.66343 0.67448
 N131 N 0.79233 0.38373 0.13733
 N132 N 0.79328 0.35961 0.11551
 C133 C 0.76797 0.36344 0.09420
 C134 C 0.75014 0.39152 0.10312
 C135 C 0.76645 0.40373 0.13064
 H136 H 0.76291 0.34700 0.07374
 H137 H 0.75959 0.42510 0.14530
 Cu138 Cu 0.82749 0.32556 0.11722
 Cu139 Cu 0.82369 0.38667 0.17374
 Cu140 Cu 0.87870 0.32092 0.18224
 N141 N 0.86205 0.29190 0.11976
 N142 N 0.88202 0.29022 0.14528
 C143 C 0.90279 0.26432 0.14136
 C144 C 0.89556 0.24883 0.11167
 C145 C 0.86953 0.26717 0.09865
 H146 H 0.92134 0.25705 0.15918
 H147 H 0.85680 0.26278 0.07564
 N148 N 0.87769 0.35917 0.21257
 N149 N 0.85716 0.38446 0.20905
 C150 C 0.86273 0.40655 0.23337
 C151 C 0.88808 0.39469 0.25320
 C152 C 0.89696 0.36457 0.23913
 H153 H 0.84929 0.42960 0.23638
 H154 H 0.91588 0.34762 0.24769
 H155 H 0.86219 0.35930 0.15286
 H156 H 0.82958 0.33640 0.17646
 N157 N 0.29380 0.11553 0.86189
 N158 N 0.29486 0.13947 0.88390
 C159 C 0.26921 0.13590 0.90492
 C160 C 0.25101 0.10823 0.89556
 C161 C 0.26749 0.09597 0.86810
 H162 H 0.26395 0.15248 0.92522
 H163 H 0.26094 0.07441 0.85362
 Cu164 Cu 0.32939 0.17320 0.88249
 Cu165 Cu 0.32623 0.11171 0.82648
 Cu166 Cu 0.38868 0.17085 0.82417
 N167 N 0.36490 0.20590 0.88123
 N168 N 0.38796 0.20487 0.85835
 C169 C 0.40904 0.23040 0.86281
 C170 C 0.39871 0.24851 0.89003
 C171 C 0.37057 0.23213 0.90107
 H172 H 0.43032 0.23532 0.84735
 H173 H 0.35504 0.23909 0.92167
 N174 N 0.38511 0.13447 0.79180
 N175 N 0.36129 0.11203 0.79260
 C176 C 0.36523 0.09106 0.76699
 C177 C 0.39292 0.10070 0.74917
 C178 C 0.40486 0.12832 0.76571
 H179 H 0.34913 0.07028 0.76171
 H180 H 0.42601 0.14328 0.75887
 H181 H 0.36442 0.13498 0.85144
 H182 H 0.33832 0.16163 0.82409
 N183 N 0.20793 0.88508 0.36423
 N184 N 0.20663 0.86137 0.38647
 C185 C 0.23205 0.86517 0.40768
 C186 C 0.25027 0.89280 0.39825
 C187 C 0.23411 0.90477 0.37053
 H188 H 0.23690 0.84907 0.42844
 H189 H 0.24117 0.92587 0.35560
 Cu190 Cu 0.17209 0.82763 0.38508
 Cu191 Cu 0.17608 0.88838 0.32829
 Cu192 Cu 0.11431 0.82852 0.32547
 N193 N 0.13731 0.79416 0.38319
 N194 N 0.11475 0.79474 0.35985
 C195 C 0.09401 0.76888 0.36394
 C196 C 0.10406 0.75093 0.39135
 C197 C 0.13169 0.76782 0.40291
 H198 H 0.07346 0.76334 0.34777
 H199 H 0.14661 0.76144 0.42410
 N200 N 0.11803 0.86470 0.29291
 N201 N 0.14156 0.88745 0.29391
 C202 C 0.13767 0.90829 0.26819
 C203 C 0.11034 0.89825 0.25009
 C204 C 0.09856 0.87051 0.26658
 H205 H 0.15353 0.92931 0.26307
 H206 H 0.07764 0.85529 0.25962
 H207 H 0.13757 0.86516 0.35267
 H208 H 0.16462 0.83839 0.32636
 Zn209 Zn -0.01877 1.00450 0.04047
 Zn210 Zn 0.04160 0.98025 0.00532
 Zn211 Zn -0.02521 0.97319 -0.02636
 Zn212 Zn 0.00598 1.04047 -0.01895
 O213 O 0.00086 0.99956 0.00008
 O214 O 0.00622 0.98906 0.07362
 O215 O 0.04497 0.94152 -0.01596
 O216 O -0.06250 0.95969 -0.00602
 O217 O 0.05116 0.97124 0.04752
 O218 O -0.05731 0.98283 0.04335
 O219 O -0.00429 0.93599 -0.03957
 O220 O -0.01528 1.04376 -0.05741
 O221 O 0.07481 1.00542 -0.01008
 O222 O -0.03832 0.99409 -0.06333
 O223 O 0.04836 1.05023 -0.02794
 O224 O -0.00972 1.07368 0.00605
 O225 O -0.02815 1.04692 0.05017
 C226 C 0.03468 0.97567 0.07379
 C227 C 0.02476 0.92542 -0.03373
 C228 C -0.07323 0.96519 0.02290
 C229 C -0.03274 1.02334 -0.07362
 C230 C 0.07483 1.03383 -0.02357
 C231 C -0.02357 1.07355 0.03412
 Zn232 Zn 0.48218 0.00758 0.45756
 Zn233 Zn 0.47558 -0.02437 0.52406
 Zn234 Zn 0.54243 -0.01737 0.49229
 Zn235 Zn 0.50715 0.04281 0.51729
 O236 O 0.50180 0.00212 0.49785
 O237 O 0.44353 -0.01383 0.45455
 O238 O 0.49640 -0.06165 0.53710
 O239 O 0.55177 -0.02635 0.45001
 O240 O 0.43831 -0.03761 0.50361
 O241 O 0.50699 -0.00783 0.42422
 O242 O 0.54571 -0.05615 0.51350
 O243 O 0.54961 0.05227 0.52619
 O244 O 0.46245 -0.00373 0.56118
 O245 O 0.57582 0.00758 0.50762
 O246 O 0.48591 0.04582 0.55585
 O247 O 0.49157 0.07634 0.49266
 O248 O 0.47305 0.05015 0.44827
 C249 C 0.42758 -0.03171 0.47480
 C250 C 0.52545 -0.07223 0.53127
 C251 C 0.53525 -0.02160 0.42385
 C252 C 0.57601 0.03585 0.52142
 C253 C 0.46824 0.02534 0.57181
 C254 C 0.47772 0.07658 0.46462
 Zn255 Zn 1.01947 0.50515 0.45981
 Zn256 Zn 1.02640 0.47360 0.52650
 Zn257 Zn 0.99491 0.54087 0.51951
 Zn258 Zn 0.95939 0.48070 0.49520
 O259 O 1.00009 0.50004 0.50030
 O260 O 1.05802 0.48356 0.45668
 O261 O 1.03959 0.49440 0.56350
 O262 O 1.01070 0.57413 0.49468
 O263 O 1.06363 0.46017 0.50588
 O264 O 1.02876 0.54761 0.45024
 O265 O 1.01611 0.54395 0.55803
 O266 O 0.92610 0.50596 0.51038
 O267 O 1.00559 0.43639 0.53980
 O268 O 0.95247 0.55074 0.52834
 O269 O 0.95612 0.44209 0.51667
 O270 O 0.94985 0.47140 0.45308
 O271 O 0.99444 0.48962 0.42672
 C272 C 1.07413 0.46582 0.47691
 C273 C 1.03378 0.52352 0.57404
 C274 C 1.02440 0.57414 0.46654
 C275 C 0.92601 0.53442 0.52379
 C276 C 0.97646 0.42593 0.53426
 C277 C 0.96617 0.47589 0.42673
 Zn278 Zn 0.47999 0.49460 0.95944
 Zn279 Zn 0.54014 0.51961 0.99414
 Zn280 Zn 0.47326 0.52678 1.02586
 Zn281 Zn 0.50494 0.45957 1.01935
 O282 O 0.49954 0.50018 0.99975
 O283 O 0.50472 0.51004 0.92607
 O284 O 0.54334 0.55843 1.01519
 O285 O 0.43593 0.53986 1.00534
 O286 O 0.54948 0.52852 0.95185
 O287 O 0.44123 0.51582 0.95640
 O288 O 0.49401 0.56416 1.03873
 O289 O 0.48361 0.45667 1.05787
 O290 O 0.57357 0.49472 1.00952
 O291 O 0.46015 0.50628 1.06307
 O292 O 0.54741 0.45016 1.02834
 O293 O 0.48959 0.42594 0.99473
 O294 O 0.47117 0.45199 0.95021
 C295 C 0.53298 0.52379 0.92569
 C296 C 0.52308 0.57465 1.03285
 C297 C 0.42521 0.53375 0.97657
 C298 C 0.46593 0.47721 1.07377
 C299 C 0.57380 0.46653 1.02345
 C300 C 0.47594 0.42560 0.96660
 C301 C 1.16166 0.42898 0.44223
 C302 C 1.17565 0.44529 0.41517
 C303 C 1.20482 0.43337 0.40081
 C304 C 1.22067 0.40468 0.41323
 C305 C 1.20637 0.38865 0.44081
 C306 C 1.17712 0.40071 0.45510
 C307 C 1.13104 0.44107 0.45603
 C308 C 1.10516 0.45195 0.46634
 H309 H 1.16386 0.46721 0.40498
 H310 H 1.21456 0.44681 0.37988
 H311 H 1.21738 0.36664 0.45146
 H312 H 1.16646 0.38783 0.47605
 C313 C 0.33689 0.56984 0.94328
 C314 C 0.32460 0.60105 0.95239
 C315 C 0.29507 0.61293 0.93863
 C316 C 0.27751 0.59374 0.91545
 C317 C 0.28996 0.56225 0.90674
 C318 C 0.31942 0.55043 0.92056
 C319 C 0.36787 0.55791 0.95633
 C320 C 0.39398 0.54727 0.96623
 H321 H 0.33800 0.61635 0.96987
 H322 H 0.28642 0.63735 0.94577
 H323 H 0.27701 0.54660 0.88932
 H324 H 0.32871 0.52622 0.91332
 C325 C -0.16134 0.92814 0.05576
 C326 C -0.17961 0.94788 0.07760
 C327 C -0.20899 0.93587 0.09144
 C328 C -0.22056 0.90382 0.08366
 C329 C -0.20221 0.88428 0.06131
 C330 C -0.17276 0.89637 0.04751
 C331 C -0.13041 0.94034 0.04281
 C332 C -0.10436 0.95128 0.03307
 H333 H -0.17100 0.97251 0.08417
 H334 H -0.22253 0.95180 0.10819
 H335 H -0.21017 0.85944 0.05489
 H336 H -0.15874 0.88081 0.03072
 C337 C 0.66316 0.07199 0.55750
 C338 C 0.68062 0.05255 0.58022
 C339 C 0.70973 0.06459 0.59454
 C340 C 0.72185 0.09634 0.58633
 C341 C 0.70424 0.11559 0.56321
 C342 C 0.67508 0.10349 0.54894
 C343 C 0.63263 0.05979 0.54372
 C344 C 0.60687 0.04913 0.53301
 H345 H 0.67162 0.02812 0.58704
 H346 H 0.72269 0.04890 0.61194
 H347 H 0.71260 0.14020 0.55643
 H348 H 0.66168 0.11881 0.53148
 C349 C 0.44145 0.16390 0.42842
 C350 C 0.45544 0.17968 0.40104
 C351 C 0.44136 0.20891 0.38867
 C352 C 0.41285 0.22292 0.40347
 C353 C 0.39926 0.20676 0.43129
 C354 C 0.41344 0.17758 0.44355
 C355 C 0.45529 0.13335 0.44076
 C356 C 0.46605 0.10754 0.45144
 H357 H 0.47715 0.16928 0.38911
 H358 H 0.45295 0.22016 0.36738
 H359 H 0.37757 0.21630 0.44377
 H360 H 0.40239 0.16554 0.46479
 C361 C 0.94235 0.33830 0.57165
 C362 C 0.91455 0.32428 0.55655
 C363 C 0.90073 0.29496 0.56884
 C364 C 0.91445 0.27899 0.59669
 C365 C 0.94274 0.29335 0.61149
 C366 C 0.95648 0.32273 0.59906
 C367 C 0.95574 0.36899 0.55918
 C368 C 0.96586 0.39490 0.54815
 H369 H 0.90338 0.33616 0.53530
 H370 H 0.87918 0.28521 0.55636
 H371 H 0.95441 0.28223 0.63279
 H372 H 0.97803 0.33340 0.61098
 C373 C 0.05851 0.83737 -0.07067
 C374 C 0.04524 0.82265 -0.09895
 C375 C 0.05868 0.79301 -0.11117
 C376 C 0.08579 0.77755 -0.09529
 C377 C 0.09866 0.79270 -0.06661
 C378 C 0.08514 0.82227 -0.05452
 C379 C 0.04538 0.86826 -0.05835
 C380 C 0.03537 0.89429 -0.04745
 H381 H 0.02462 0.83417 -0.11169
 H382 H 0.04773 0.78260 -0.13317
 H383 H 0.11929 0.78207 -0.05328
 H384 H 0.09563 0.83348 -0.03258
 C385 C 0.55775 0.66226 1.06964
 C386 C 0.54384 0.67795 1.09712
 C387 C 0.55793 0.70716 1.10951
 C388 C 0.58635 0.72121 1.09461
 C389 C 0.59984 0.70514 1.06669
 C390 C 0.58566 0.67598 1.05442
 C391 C 0.54407 0.63166 1.05732
 C392 C 0.53376 0.60575 1.04647
 H393 H 0.52223 0.66749 1.10914
 H394 H 0.54645 0.71834 1.13089
 H395 H 0.62147 0.71468 1.05414
 H396 H 0.59666 0.66399 1.03312
 C397 C 0.42907 0.44438 1.16160
 C398 C 0.44854 0.42226 1.17984
 C399 C 0.43635 0.40851 1.20908
 C400 C 0.40442 0.41669 1.22055
 C401 C 0.38517 0.43932 1.20221
 C402 C 0.39742 0.45302 1.17290
 C403 C 0.44136 0.45724 1.13079
 C404 C 0.45224 0.46698 1.10482
 H405 H 0.47309 0.41541 1.17132
 H406 H 0.45206 0.39153 1.22262
 H407 H 0.36042 0.44605 1.21008
 H408 H 0.38208 0.47003 1.15890
 C409 C 0.57125 -0.05701 0.33664
 C410 C 0.60247 -0.04788 0.32465
 C411 C 0.61455 -0.06182 0.29540
 C412 C 0.59553 -0.08517 0.27777
 C413 C 0.56402 -0.09391 0.28995
 C414 C 0.55202 -0.07992 0.31916
 C415 C 0.55909 -0.04355 0.36724
 C416 C 0.54848 -0.03306 0.39303
 H417 H 0.61761 -0.03022 0.33805
 H418 H 0.63896 -0.05462 0.28699
 H419 H 0.54849 -0.11147 0.27697
 H420 H 0.52778 -0.08714 0.32821
 C421 C -0.06955 1.05730 -0.16096
 C422 C -0.10105 1.04856 -0.17246
 C423 C -0.11329 1.06253 -0.20162
 C424 C -0.09417 1.08554 -0.21963
 C425 C -0.06240 1.09388 -0.20794
 C426 C -0.05023 1.07987 -0.17883
 C427 C -0.05725 1.04404 -0.13035
 C428 C -0.04640 1.03395 -0.10453
 H429 H -0.11629 1.03121 -0.15874
 H430 H -0.13791 1.05566 -0.20964
 H431 H -0.04679 1.11117 -0.22121
 H432 H -0.02580 1.08682 -0.17014
 C433 C 1.07036 0.55696 0.66166
 C434 C 1.05092 0.57938 0.67964
 C435 C 1.06294 0.59316 0.70891
 C436 C 1.09468 0.58473 0.72066
 C437 C 1.11393 0.56189 0.70254
 C438 C 1.10184 0.54815 0.67322
 C439 C 1.05818 0.54391 0.63093
 C440 C 1.04739 0.53397 0.60502
 H441 H 1.02651 0.58638 0.67092
 H442 H 1.04725 0.61033 0.72226
 H443 H 1.13854 0.55498 0.71062
 H444 H 1.11717 0.53093 0.65942
 C445 C 0.83870 0.57150 0.55890
 C446 C 0.82095 0.55233 0.58163
 C447 C 0.79170 0.56460 0.59557
 C448 C 0.77974 0.59633 0.58700
 C449 C 0.79763 0.61529 0.56383
 C450 C 0.82693 0.60294 0.54993
 C451 C 0.86934 0.55902 0.54550
 C452 C 0.89515 0.54808 0.53509
 H453 H 0.82983 0.52794 0.58874
 H454 H 0.77854 0.54911 0.61300
 H455 H 0.78939 0.63986 0.55675
 H456 H 0.84054 0.61805 0.53243
 C457 C 0.66108 0.42998 1.05897
 C458 C 0.67901 0.44933 1.08138
 C459 C 0.70811 0.43697 1.09550
 C460 C 0.71972 0.40498 1.08740
 C461 C 0.70168 0.38586 1.06452
 C462 C 0.67253 0.39829 1.05047
 C463 C 0.63051 0.44243 1.04547
 C464 C 0.60470 0.45321 1.03494
 H465 H 0.67037 0.47392 1.08814
 H466 H 0.72143 0.45257 1.11268
 H467 H 0.70966 0.36109 1.05781
 H468 H 0.65878 0.38304 1.03323
 C469 C 0.16153 1.07049 -0.06031
 C470 C 0.17250 1.05806 -0.09062
 C471 C 0.20162 1.07020 -0.10488
 C472 C 0.22028 1.09505 -0.08900
 C473 C 0.20908 1.10729 -0.05840
 C474 C 0.17990 1.09508 -0.04418
 C475 C 0.13121 1.05813 -0.04618
 C476 C 0.10557 1.04732 -0.03528
 H477 H 0.15843 1.03906 -0.10337
 H478 H 0.20916 1.06027 -0.12850
 H479 H 0.22279 1.12621 -0.04527
 H480 H 0.17163 1.10486 -0.02067
 C481 C 0.33971 -0.06889 0.44165
 C482 C 0.32170 -0.04963 0.41922
 C483 C 0.29248 -0.06194 0.40537
 C484 C 0.28080 -0.09381 0.41375
 C485 C 0.29889 -0.11284 0.43668
 C486 C 0.32818 -0.10046 0.45048
 C487 C 0.37050 -0.05647 0.45465
 C488 C 0.39649 -0.04551 0.46449
 H489 H 0.33039 -0.02514 0.41220
 H490 H 0.27911 -0.04639 0.38814
 H491 H 0.29086 -0.13752 0.44358
 H492 H 0.34201 -0.11565 0.46772
 C493 C 0.55909 -0.15984 0.56922
 C494 C 0.58271 -0.17758 0.55108
 C495 C 0.59642 -0.20679 0.56382
 C496 C 0.58672 -0.21870 0.59501
 C497 C 0.56265 -0.20082 0.61293
 C498 C 0.54899 -0.17157 0.60012
 C499 C 0.54604 -0.12916 0.55636
 C500 C 0.53605 -0.10327 0.54515
 H501 H 0.59073 -0.16871 0.52713
 H502 H 0.61456 -0.21994 0.54911
 H503 H 0.55467 -0.20903 0.63706
 H504 H 0.53081 -0.15795 0.61445
 C505 C 1.06097 0.66110 0.42985
 C506 C 1.09160 0.67225 0.44161
 C507 C 1.10554 0.70151 0.42925
 C508 C 1.08902 0.72009 0.40485
 C509 C 1.05810 0.70871 0.39332
 C510 C 1.04421 0.67941 0.40575
 C511 C 1.04710 0.63065 0.44237
 C512 C 1.03625 0.60494 0.45318
 H513 H 1.10483 0.65821 0.46025
 H514 H 1.12941 0.70922 0.43865
 H515 H 1.04447 0.72237 0.37480
 H516 H 1.02046 0.67102 0.39649
 C517 C -0.05997 1.16031 0.07155
 C518 C -0.04579 1.17587 0.09897
 C519 C -0.06003 1.20481 0.11188
 C520 C -0.08873 1.21858 0.09753
 C521 C -0.10255 1.20282 0.06975
 C522 C -0.08826 1.17392 0.05691
 C523 C -0.04608 1.12997 0.05874
 C524 C -0.03530 1.10432 0.04769
 H525 H -0.02386 1.16554 0.11049
 H526 H -0.04849 1.21626 0.13308
 H527 H -0.12465 1.21240 0.05805
 H528 H -0.09949 1.16204 0.03570
 C529 C 0.44142 0.33799 0.92955
 C530 C 0.45149 0.32623 0.89866
 C531 C 0.43786 0.29698 0.88588
 C532 C 0.41386 0.27911 0.90385
 C533 C 0.40417 0.29105 0.93505
 C534 C 0.41785 0.32026 0.94776
 C535 C 0.45452 0.36866 0.94232
 C536 C 0.46475 0.39455 0.95326
 H537 H 0.46964 0.33982 0.88430
 H538 H 0.44580 0.28876 0.86174
 H539 H 0.38607 0.27789 0.94978
 H540 H 0.40989 0.32914 0.97172
 C541 C 0.56948 0.55912 0.83868
 C542 C 0.60069 0.54967 0.82687
 C543 C 0.61314 0.56360 0.79778
 C544 C 0.59452 0.58729 0.78012
 C545 C 0.56302 0.59636 0.79212
 C546 C 0.55064 0.58238 0.82118
 C547 C 0.55701 0.54570 0.86916
 C548 C 0.54625 0.53522 0.89488
 H549 H 0.61554 0.53175 0.84028
 H550 H 0.63753 0.55612 0.78952
 H551 H 0.54778 0.61418 0.77913
 H552 H 0.52643 0.58987 0.83010
 C553 C 0.43121 0.05817 0.65957
 C554 C 0.45065 0.08004 0.67810
 C555 C 0.43834 0.09360 0.70739
 C556 C 0.40631 0.08549 0.71857
 C557 C 0.38708 0.06313 0.69994
 C558 C 0.39946 0.04962 0.67060
 C559 C 0.44364 0.04541 0.62878
 C560 C 0.45456 0.03566 0.60283
 H561 H 0.47528 0.08683 0.66979
 H562 H 0.45402 0.11037 0.72119
 H563 H 0.36226 0.05648 0.70759
 H564 H 0.38413 0.03281 0.65636
 C565 C 0.07185 0.94090 0.16068
 C566 C 0.05293 0.91804 0.17861
 C567 C 0.06533 0.90438 0.20778
 C568 C 0.09694 0.91336 0.21947
 C569 C 0.11566 0.93661 0.20137
 C570 C 0.10319 0.95024 0.17216
 C571 C 0.05923 0.95408 0.13018
 C572 C 0.04824 0.96438 0.10449
 H573 H 0.02862 0.91065 0.16995
 H574 H 0.05001 0.88688 0.22112
 H575 H 0.14014 0.94397 0.20941
 H576 H 0.11810 0.96784 0.15840
 C577 C 0.92854 0.43939 0.34076
 C578 C 0.94467 0.41249 0.32587
 C579 C 0.93166 0.39811 0.29731
 C580 C 0.90224 0.41043 0.28318
 C581 C 0.88635 0.43769 0.29824
 C582 C 0.89943 0.45203 0.32684
 C583 C 0.94153 0.45332 0.37077
 C584 C 0.95264 0.46415 0.39618
 H585 H 0.96723 0.40249 0.33646
 H586 H 0.94479 0.37740 0.28639
 H587 H 0.86358 0.44775 0.28833
 H588 H 0.88667 0.47278 0.33824
   
