data_POSCAR
  _audit_creation_date              2014-09-24
  _audit_creation_method            'ToBaCCo'
  _symmetry_space_group_name_H-M    'P1'
  _symmetry_Int_Tables_number       1
  _symmetry_cell_setting            triclinic
  loop_
  _symmetry_equiv_pos_as_xyz
 x,y,z
_cell_length_a 34.9594
_cell_length_b 34.5142
_cell_length_c 34.3648
_cell_angle_alpha 89.977000
_cell_angle_beta 89.998000
_cell_angle_gamma 89.909300
loop_
  _atom_site_label
  _atom_site_type_symbol
  _atom_site_fract_x
  _atom_site_fract_y
  _atom_site_fract_z
N1 N 0.18619 1.26597 0.15914
 N2 N 0.15911 1.26484 0.18573
 C3 C 0.13365 1.29335 0.17862
 C4 C 0.14572 1.31321 0.14606
 C5 C 0.17896 1.29522 0.13423
 H6 H 0.10780 1.29862 0.19510
 H7 H 0.19592 1.30212 0.10883
 Cu8 Cu 0.15892 1.22478 0.22556
 Cu9 Cu 0.22749 1.22799 0.15731
 Cu10 Cu 0.22733 1.15655 0.22848
 N11 N 0.15897 1.18481 0.26549
 N12 N 0.18598 1.15822 0.26650
 C13 C 0.17868 1.13326 0.29570
 C14 C 0.14548 1.14507 0.31379
 C15 C 0.13349 1.17766 0.29404
 H16 H 0.19561 1.10789 0.30252
 H17 H 0.10771 1.19417 0.29943
 N18 N 0.26669 1.15982 0.18750
 N19 N 0.26675 1.18702 0.16041
 C20 C 0.29590 1.18028 0.13564
 C21 C 0.31489 1.14749 0.14789
 C22 C 0.29579 1.13509 0.18064
 H23 H 0.30213 1.19711 0.10987
 H24 H 0.30191 1.10926 0.19734
 H25 H 0.19783 1.18340 0.18379
 H26 H 0.22731 1.21503 0.21594
 N27 N 0.81353 0.73419 0.15981
 N28 N 0.84045 0.73512 0.18654
 C29 C 0.86584 0.70655 0.17945
 C30 C 0.85395 0.68687 0.14675
 C31 C 0.82083 0.70503 0.13485
 H32 H 0.89158 0.70111 0.19604
 H33 H 0.80398 0.69826 0.10935
 Cu34 Cu 0.84076 0.77496 0.22658
 Cu35 Cu 0.77240 0.77229 0.15789
 Cu36 Cu 0.77247 0.84355 0.22907
 N37 N 0.84054 0.81503 0.26637
 N38 N 0.81364 0.84174 0.26723
 C39 C 0.82099 0.86675 0.29635
 C40 C 0.85411 0.85486 0.31454
 C41 C 0.86600 0.82217 0.29493
 H42 H 0.80418 0.89223 0.30303
 H43 H 0.89174 0.80561 0.30038
 N44 N 0.73327 0.84047 0.18797
 N45 N 0.73324 0.81333 0.16086
 C46 C 0.70420 0.82017 0.13599
 C47 C 0.68522 0.85296 0.14822
 C48 C 0.70424 0.86527 0.18104
 H49 H 0.69802 0.80339 0.11018
 H50 H 0.69810 0.89107 0.19777
 H51 H 0.80226 0.81662 0.18462
 H52 H 0.77243 0.78504 0.21658
 N53 N 0.81257 1.26614 -0.15989
 N54 N 0.83844 1.26632 -0.18770
 C55 C 0.86366 1.29499 -0.18078
 C56 C 0.85275 1.31360 -0.14709
 C57 C 0.82039 1.29469 -0.13442
 H58 H 0.88868 1.30117 -0.19820
 H59 H 0.80445 1.30052 -0.10809
 Cu60 Cu 0.83825 1.22780 -0.22903
 Cu61 Cu 0.77219 1.22754 -0.15750
 Cu62 Cu 0.77234 1.15655 -0.22864
 N63 N 0.83859 1.18658 -0.26765
 N64 N 0.81278 1.15887 -0.26741
 C65 C 0.82068 1.13344 -0.29603
 C66 C 0.85303 1.14609 -0.31505
 C67 C 0.86389 1.17967 -0.29643
 H68 H 0.80481 1.10718 -0.30180
 H69 H 0.88890 1.19702 -0.30263
 N70 N 0.73368 1.15901 -0.18704
 N71 N 0.73361 1.18611 -0.15991
 C72 C 0.70483 1.17906 -0.13481
 C73 C 0.68607 1.14616 -0.14692
 C74 C 0.70493 1.13402 -0.17992
 H75 H 0.69859 1.19588 -0.10903
 H76 H 0.69879 1.10831 -0.19675
 H77 H 0.80313 1.18469 -0.18563
 H78 H 0.77070 1.21512 -0.21629
 N79 N 0.18735 0.73398 -0.15918
 N80 N 0.16053 0.73475 -0.18603
 C81 C 0.13530 0.70611 -0.17897
 C82 C 0.14720 0.68654 -0.14615
 C83 C 0.18014 0.70485 -0.13416
 H84 H 0.10967 0.70054 -0.19565
 H85 H 0.19691 0.69821 -0.10856
 Cu86 Cu 0.16017 0.77454 -0.22615
 Cu87 Cu 0.22824 0.77222 -0.15716
 Cu88 Cu 0.22801 0.84335 -0.22852
 N89 N 0.16025 0.81453 -0.26607
 N90 N 0.18700 0.84133 -0.26686
 C91 C 0.17958 0.86632 -0.29602
 C92 C 0.14660 0.85432 -0.31432
 C93 C 0.13485 0.82159 -0.29473
 H94 H 0.19622 0.89189 -0.30262
 H95 H 0.10920 0.80497 -0.30021
 N96 N 0.26706 0.84049 -0.18724
 N97 N 0.26715 0.81340 -0.16006
 C98 C 0.29609 0.82033 -0.13513
 C99 C 0.31493 0.85315 -0.14738
 C100 C 0.29595 0.86536 -0.18029
 H101 H 0.30230 0.80358 -0.10929
 H102 H 0.30202 0.89112 -0.19710
 H103 H 0.19820 0.81641 -0.18412
 H104 H 0.22835 0.78489 -0.21586
 Si105 Si 0.50000 1.00004 0.00033
 Si106 Si 0.00049 0.49926 1.00017
 Si107 Si 1.00008 0.00006 0.50028
 C108 C 0.12668 0.34201 1.12720
 C109 C 0.10945 0.36704 1.11009
 C110 C 0.08881 0.39563 1.08949
 C111 C 0.07075 0.41933 1.07139
 C112 C 0.04907 0.44615 1.04955
 C113 C 0.03007 0.46813 1.03031
 C114 C -0.12599 0.65637 1.12691
 C115 C -0.10875 0.63134 1.10982
 C116 C -0.08806 0.60277 1.08928
 C117 C -0.06995 0.57909 1.07124
 C118 C -0.04820 0.55230 1.04946
 C119 C -0.02914 0.53035 1.03027
 C120 C -0.12690 0.34378 0.87284
 C121 C -0.10945 0.36854 0.89001
 C122 C -0.08856 0.39681 0.91067
 C123 C -0.07030 0.42024 0.92881
 C124 C -0.04840 0.44675 0.95070
 C125 C -0.02925 0.46847 0.96998
 C126 C 0.12724 0.65603 0.87372
 C127 C 0.11006 0.63100 0.89079
 C128 C 0.08939 0.60243 0.91128
 C129 C 0.07124 0.57877 0.92927
 C130 C 0.04942 0.55204 0.95098
 C131 C 0.03027 0.53017 0.97012
 C132 C 1.12646 0.12627 0.34266
 C133 C 1.10924 0.10923 0.36776
 C134 C 1.08860 0.08875 0.39644
 C135 C 1.07053 0.07077 0.42022
 C136 C 1.04881 0.04908 0.44711
 C137 C 1.02976 0.02998 0.46913
 C138 C 1.12740 -0.12677 0.65697
 C139 C 1.11000 -0.10963 0.63203
 C140 C 1.08913 -0.08904 0.60356
 C141 C 1.07086 -0.07097 0.57997
 C142 C 1.04895 -0.04919 0.55326
 C143 C 1.02978 -0.03001 0.53136
 C144 C 0.87322 -0.12627 0.34328
 C145 C 0.89054 -0.10917 0.36826
 C146 C 0.91130 -0.08866 0.39679
 C147 C 0.92947 -0.07066 0.42045
 C148 C 0.95128 -0.04897 0.44723
 C149 C 0.97039 -0.02987 0.46919
 C150 C 0.87245 0.12719 0.65640
 C151 C 0.89000 0.11002 0.63160
 C152 C 0.91098 0.08937 0.60327
 C153 C 0.92929 0.07123 0.57978
 C154 C 0.95122 0.04937 0.55318
 C155 C 0.97038 0.03014 0.53133
 C156 C 0.34527 1.12767 0.12796
 C157 C 0.37010 1.11052 0.11074
 C158 C 0.39833 1.08981 0.08998
 C159 C 0.42166 1.07158 0.07174
 C160 C 0.44798 1.04958 0.04976
 C161 C 0.46951 1.03024 0.03045
 C162 C 0.65572 1.12636 -0.12700
 C163 C 0.63084 1.10930 -0.10983
 C164 C 0.60246 1.08878 -0.08917
 C165 C 0.57897 1.07075 -0.07101
 C166 C 0.55243 1.04902 -0.04910
 C167 C 0.53071 1.02991 -0.02982
 C168 C 0.34518 0.87306 -0.12740
 C169 C 0.36993 0.89022 -0.11016
 C170 C 0.39812 0.91089 -0.08939
 C171 C 0.42145 0.92904 -0.07114
 C172 C 0.44781 0.95089 -0.04915
 C173 C 0.46940 0.97009 -0.02983
 C174 C 0.65487 0.87281 0.12825
 C175 C 0.63004 0.88995 0.11101
 C176 C 0.60178 0.91060 0.09023
 C177 C 0.57841 0.92876 0.07196
 C178 C 0.55204 0.95066 0.04994
 C179 C 0.53048 0.96993 0.03057
   
