data_POSCAR
  _audit_creation_date              2014-09-24
  _audit_creation_method            'ToBaCCo'
  _symmetry_space_group_name_H-M    'P1'
  _symmetry_Int_Tables_number       1
  _symmetry_cell_setting            triclinic
  loop_
  _symmetry_equiv_pos_as_xyz
 x,y,z
_cell_length_a 41.6598
_cell_length_b 42.5727
_cell_length_c 43.1212
_cell_angle_alpha 89.764600
_cell_angle_beta 89.128800
_cell_angle_gamma 89.176200
loop_
  _atom_site_label
  _atom_site_type_symbol
  _atom_site_fract_x
  _atom_site_fract_y
  _atom_site_fract_z
Si1 Si 0.24309 0.50240 0.99609
 Si2 Si 0.74988 0.49383 0.00543
 Si3 Si 0.00649 0.25240 0.49701
 Si4 Si 1.00241 0.75156 0.50463
 Si5 Si 0.50227 -0.00826 0.24424
 Si6 Si 0.50295 0.00648 0.75249
 C7 C 0.30748 0.01854 0.46611
 H8 H 0.30817 0.03684 0.48340
 C9 C 0.32921 0.01871 0.44117
 H10 H 0.34676 0.03718 0.43953
 C11 C 0.28420 -0.02821 0.44781
 H12 H 0.26685 -0.04664 0.45063
 C13 C 0.30558 -0.02902 0.42255
 H14 H 0.30403 -0.04782 0.40583
 N15 N 0.28520 -0.00438 0.46869
 C16 C 0.20644 0.03785 0.52253
 H17 H 0.20368 0.02049 0.54073
 C18 C 0.18589 0.06403 0.52166
 H19 H 0.16713 0.06648 0.53917
 C20 C 0.23352 0.05496 0.47693
 H21 H 0.25178 0.05117 0.45926
 C22 C 0.21346 0.08143 0.47514
 H23 H 0.21695 0.09803 0.45634
 Zn24 Zn 0.25646 -0.00246 0.50309
 N25 N 0.22992 0.03398 0.50057
 C26 C 0.27816 0.02221 0.56015
 N27 N 0.28156 -0.00151 0.53927
 C28 C 0.30452 -0.02423 0.54262
 C29 C 0.32535 -0.02358 0.56767
 C30 C 0.29827 0.02362 0.58568
 C31 C 0.20836 -0.04006 0.47974
 C32 C 0.18716 -0.06508 0.47869
 C33 C 0.20889 -0.08446 0.52687
 C34 C 0.22981 -0.05909 0.52693
 N35 N 0.22931 -0.03766 0.50345
 H36 H 0.26020 0.04039 0.55687
 H37 H 0.30707 -0.04252 0.52537
 H38 H 0.34405 -0.04139 0.56930
 H39 H 0.29493 0.04258 0.60212
 H40 H 0.20811 -0.02237 0.46165
 H41 H 0.17043 -0.06634 0.45978
 H42 H 0.20978 -0.10146 0.54559
 H43 H 0.24628 -0.05647 0.54583
 C44 C 0.18926 0.08626 0.49771
 C45 C 0.32827 -0.00517 0.41884
 C46 C 0.18724 -0.08772 0.50246
 C47 C 0.32253 0.00072 0.58956
 C48 C 0.70040 0.03054 0.53342
 H49 H 0.69805 0.04811 0.51537
 C50 C 0.67900 0.03062 0.55867
 H51 H 0.66008 0.04829 0.55967
 C52 C 0.72684 -0.01493 0.55281
 H53 H 0.74505 -0.03306 0.55017
 C54 C 0.70617 -0.01557 0.57857
 H55 H 0.70935 -0.03384 0.59582
 N56 N 0.72361 0.00789 0.53087
 C57 C 0.79629 0.04462 0.46734
 H58 H 0.79524 0.02724 0.44916
 C59 C 0.81922 0.06811 0.46570
 H60 H 0.83523 0.06900 0.44571
 C61 C 0.77688 0.06393 0.51565
 H62 H 0.76087 0.06164 0.53546
 C63 C 0.79974 0.08769 0.51511
 H64 H 0.80106 0.10344 0.53468
 Zn65 Zn 0.74925 0.00728 0.49431
 N66 N 0.77584 0.04283 0.49210
 C67 C 0.72110 0.02887 0.43803
 N68 N 0.72107 0.00615 0.46032
 C69 C 0.69985 -0.01779 0.45974
 C70 C 0.67818 -0.02014 0.43554
 C71 C 0.69975 0.02747 0.41340
 C72 C 0.80030 -0.02906 0.51592
 C73 C 0.82241 -0.05395 0.51694
 C74 C 0.79645 -0.07699 0.47295
 C75 C 0.77485 -0.05155 0.47272
 N76 N 0.77699 -0.02838 0.49420
 H77 H 0.73756 0.04816 0.43930
 H78 H 0.69986 -0.03513 0.47815
 H79 H 0.66140 -0.03932 0.43561
 H80 H 0.70048 0.04545 0.39558
 H81 H 0.80170 -0.01013 0.53249
 H82 H 0.84055 -0.05419 0.53465
 H83 H 0.79467 -0.09502 0.45546
 H84 H 0.75672 -0.05023 0.45512
 C85 C 0.82172 0.08965 0.49013
 C86 C 0.68154 0.00717 0.58159
 C87 C 0.82070 -0.07833 0.49522
 C88 C 0.67806 0.00259 0.41184
 C89 C 0.46960 0.20069 1.03889
 H90 H 0.45047 0.20318 1.02233
 C91 C 0.46812 0.17733 1.06164
 H92 H 0.44735 0.16237 1.06279
 C93 C 0.52007 0.21704 1.05702
 H94 H 0.54079 0.23183 1.05451
 C95 C 0.51968 0.19384 1.08001
 H96 H 0.54015 0.19124 1.09502
 N97 N 0.49520 0.22008 1.03708
 C98 C 0.45932 0.29743 0.97991
 H99 H 0.47837 0.29789 0.96258
 C100 C 0.43378 0.31887 0.97817
 H101 H 0.43348 0.33595 0.95949
 C102 C 0.43740 0.27526 1.02591
 H103 H 0.43918 0.25855 1.04475
 C104 C 0.41144 0.29643 1.02515
 H105 H 0.39309 0.29539 1.04317
 Zn106 Zn 0.49686 0.24874 1.00345
 N107 N 0.46051 0.27595 1.00327
 C108 C 0.47516 0.22552 0.94560
 N109 N 0.49886 0.22433 0.96696
 C110 C 0.52409 0.20392 0.96398
 C111 C 0.52641 0.18379 0.93858
 C112 C 0.47647 0.20571 0.91985
 C113 C 0.53629 0.29170 1.03224
 C114 C 0.56186 0.31216 1.03529
 C115 C 0.58044 0.29749 0.98395
 C116 C 0.55474 0.27687 0.98209
 N117 N 0.53335 0.27437 1.00608
 H118 H 0.45490 0.24136 0.94876
 H119 H 0.54225 0.20306 0.98164
 H120 H 0.54639 0.16730 0.93698
 H121 H 0.45745 0.20699 0.90304
 H122 H 0.51866 0.28956 1.05078
 H123 H 0.56396 0.32519 1.05665
 H124 H 0.59655 0.29985 0.96419
 H125 H 0.55144 0.26355 0.96113
 C126 C 0.40934 0.31853 1.00094
 C127 C 0.49356 0.17341 1.08240
 C128 C 0.58420 0.31564 1.01079
 C129 C 0.50230 0.18440 0.91617
 C130 C 0.47415 0.80004 -0.04208
 H131 H 0.45538 0.80057 -0.02446
 C132 C 0.47458 0.82285 -0.06547
 H133 H 0.45607 0.84095 -0.06559
 C134 C 0.52213 0.77685 -0.06208
 H135 H 0.54111 0.75944 -0.06030
 C136 C 0.52345 0.79911 -0.08588
 H137 H 0.54308 0.79797 -0.10260
 N138 N 0.49773 0.77767 -0.04077
 C139 C 0.45985 0.70145 0.01629
 H140 H 0.47866 0.69983 0.03327
 C141 C 0.43490 0.67996 0.01701
 H142 H 0.43440 0.66214 0.03500
 C143 C 0.43806 0.72654 -0.02798
 H144 H 0.43983 0.74426 -0.04589
 C145 C 0.41257 0.70551 -0.02808
 H146 H 0.39489 0.70731 -0.04616
 Zn147 Zn 0.49772 0.74980 -0.00642
 N148 N 0.46102 0.72413 -0.00596
 C149 C 0.47627 0.77278 0.05260
 N150 N 0.49903 0.77464 0.02974
 C151 C 0.52323 0.79561 0.03121
 C152 C 0.52543 0.81566 0.05655
 C153 C 0.47762 0.79235 0.07849
 C154 C 0.53586 0.70246 -0.03290
 C155 C 0.56053 0.68005 -0.03483
 C156 C 0.58053 0.69873 0.01394
 C157 C 0.55562 0.72107 0.01476
 N158 N 0.53384 0.72241 -0.00842
 H159 H 0.45691 0.75632 0.05075
 H160 H 0.54069 0.79692 0.01243
 H161 H 0.54454 0.83260 0.05685
 H162 H 0.45951 0.79029 0.09662
 H163 H 0.51796 0.70377 -0.05081
 H164 H 0.56170 0.66457 -0.05468
 H165 H 0.59689 0.69729 0.03317
 H166 H 0.55314 0.73661 0.03442
 C167 C 0.41096 0.68162 -0.00553
 C168 C 0.49969 0.82277 -0.08760
 C169 C 0.58300 0.67754 -0.01092
 C170 C 0.50244 0.81421 0.08069
 C171 C 1.03247 0.48280 0.20463
 H172 H 1.01461 0.46459 0.20504
 C173 C 1.05661 0.48255 0.18180
 H174 H 1.05710 0.46408 0.16460
 C175 C 1.05241 0.52986 0.22568
 H176 H 1.05034 0.54861 0.24242
 C177 C 1.07685 0.53061 0.20317
 H178 H 1.09376 0.54969 0.20323
 N179 N 1.03086 0.50615 0.22605
 C180 C 0.97381 0.46856 0.30290
 H181 H 0.95616 0.48733 0.30523
 C182 C 0.97313 0.44314 0.32338
 H183 H 0.95495 0.44261 0.34158
 C184 C 1.01972 0.44731 0.27703
 H185 H 1.03811 0.44926 0.25924
 C186 C 1.02003 0.42147 0.29716
 H187 H 1.03843 0.40345 0.29428
 Zn188 Zn 0.99578 0.50632 0.25452
 N189 N 0.99662 0.47005 0.28008
 C190 C 0.93569 0.48460 0.23385
 N191 N 0.95784 0.50761 0.23091
 C192 C 0.95494 0.53050 0.20900
 C193 C 0.92946 0.53027 0.18830
 C194 C 0.90968 0.48368 0.21390
 C195 C 1.02318 0.54153 0.30075
 C196 C 1.02522 0.56459 0.32343
 C197 C 0.97483 0.58663 0.30597
 C198 C 0.97383 0.56312 0.28343
 N199 N 0.99775 0.54110 0.28141
 H200 H 0.93858 0.46630 0.25101
 H201 H 0.97318 0.54825 0.20687
 H202 H 0.92846 0.54788 0.17015
 H203 H 0.89247 0.46502 0.21661
 H204 H 1.04165 0.52348 0.29883
 H205 H 1.04576 0.56446 0.33851
 H206 H 0.95512 0.60339 0.30790
 H207 H 0.95351 0.56194 0.26821
 C208 C 0.99645 0.41914 0.32066
 C209 C 1.07905 0.50684 0.18071
 C210 C 1.00058 0.58727 0.32665
 C211 C 0.90670 0.50625 0.19020
 C212 C -0.04429 0.47161 0.79315
 H213 H -0.02541 0.45388 0.79311
 C214 C -0.06926 0.47007 0.81494
 H215 H -0.06970 0.45076 0.83136
 C216 C -0.06605 0.51867 0.77209
 H217 H -0.06419 0.53797 0.75584
 C218 C -0.09158 0.51803 0.79354
 H219 H -0.10921 0.53696 0.79362
 N220 N -0.04296 0.49575 0.77249
 C221 C 0.02287 0.45933 0.70132
 H222 H 0.04186 0.47635 0.70242
 C223 C 0.02508 0.43473 0.68005
 H224 H 0.04626 0.43272 0.66531
 C225 C -0.02770 0.44156 0.71941
 H226 H -0.04857 0.44471 0.73430
 C227 C -0.02664 0.41678 0.69825
 H228 H -0.04690 0.40122 0.69714
 Zn229 Zn -0.00555 0.49740 0.74727
 N230 N -0.00312 0.46218 0.72060
 C231 C 0.05255 0.47475 0.77467
 N232 N 0.02957 0.49780 0.77471
 C233 C 0.02983 0.52146 0.79579
 C234 C 0.05442 0.52322 0.81728
 C235 C 0.07746 0.47542 0.79602
 C236 C -0.02812 0.53606 0.69936
 C237 C -0.02814 0.56139 0.67865
 C238 C 0.01767 0.58210 0.70499
 C239 C 0.01703 0.55621 0.72493
 N240 N -0.00572 0.53388 0.72190
 H241 H 0.05146 0.45562 0.75836
 H242 H 0.01080 0.53903 0.79585
 H243 H 0.05413 0.54221 0.83392
 H244 H 0.09570 0.45704 0.79558
 H245 H -0.04562 0.51770 0.69711
 H246 H -0.04561 0.56207 0.66034
 H247 H 0.03579 0.59971 0.70817
 H248 H 0.03510 0.55385 0.74249
 C249 C -0.00004 0.41314 0.67806
 C250 C -0.09305 0.49377 0.81570
 C251 C -0.00488 0.58483 0.68117
 C252 C 0.07867 0.50001 0.81756
 C253 C 0.09770 0.18889 0.49348
 C254 C 0.08859 0.20545 0.46663
 C255 C 0.06224 0.22605 0.46791
 C256 C 0.04547 0.23067 0.49590
 C257 C 0.05627 0.21516 0.52252
 N258 N 0.08160 0.19475 0.52063
 C259 C 0.12304 0.16405 0.49312
 N260 N 0.13519 0.15399 0.52064
 C261 C 0.15673 0.12981 0.52262
 C262 C 0.16708 0.11379 0.49581
 C263 C 0.15510 0.12389 0.46715
 C264 C 0.13310 0.14884 0.46569
 H265 H 0.05438 0.23738 0.44680
 H266 H 0.04369 0.21813 0.54449
 H267 H 0.16563 0.12306 0.54517
 H268 H 0.16191 0.11182 0.44595
 H269 H 0.10110 0.20233 0.44471
 H270 H 0.12338 0.15509 0.44337
 C271 C 0.67514 0.57556 -0.00374
 C272 C 0.66477 0.54447 -0.00067
 C273 C 0.68720 0.52025 0.00233
 C274 C 0.72002 0.52673 0.00302
 C275 C 0.72961 0.55805 0.00034
 N276 N 0.70720 0.58146 -0.00282
 C277 C 0.65177 0.60182 -0.00743
 N278 N 0.65935 0.63109 0.00250
 C279 C 0.63824 0.65575 0.00102
 C280 C 0.60734 0.65164 -0.01091
 C281 C 0.59948 0.62182 -0.02198
 C282 C 0.62159 0.59708 -0.02057
 H283 H 0.67851 0.49652 0.00379
 H284 H 0.75481 0.56384 0.00050
 H285 H 0.64557 0.67848 0.00926
 H286 H 0.57594 0.61729 -0.03111
 H287 H 0.63957 0.53870 -0.00025
 H288 H 0.61490 0.57453 -0.02972
 C289 C 0.91620 -0.17761 0.49763
 C290 C 0.91007 -0.20962 0.50282
 C291 C 0.93578 -0.23102 0.50455
 C292 C 0.96743 -0.22065 0.50147
 C293 C 0.97244 -0.18866 0.49571
 N294 N 0.94716 -0.16830 0.49420
 C295 C 0.89051 -0.15321 0.49672
 N296 N 0.89879 -0.12279 0.50134
 C297 C 0.87705 -0.09874 0.50095
 C298 C 0.84457 -0.10456 0.49546
 C299 C 0.83544 -0.13567 0.49016
 C300 C 0.85827 -0.16005 0.49077
 H301 H 0.93075 -0.25553 0.50840
 H302 H 0.99629 -0.17959 0.49225
 H303 H 0.88529 -0.07506 0.50456
 H304 H 0.81061 -0.14119 0.48588
 H305 H 0.88595 -0.21812 0.50620
 H306 H 0.85065 -0.18373 0.48619
 C307 C 0.30937 0.41340 0.99694
 C308 C 0.28758 0.41768 0.97264
 C309 C 0.26697 0.44383 0.97272
 C310 C 0.26765 0.46541 0.99709
 C311 C 0.28889 0.45979 1.02143
 N312 N 0.30900 0.43437 1.02072
 C313 C 0.33344 0.38739 0.99718
 N314 N 0.34715 0.37907 1.02455
 C315 C 0.37066 0.35668 1.02646
 C316 C 0.38225 0.34154 0.99959
 C317 C 0.36837 0.34961 0.97115
 C318 C 0.34408 0.37245 0.96981
 H319 H 0.25105 0.44733 0.95341
 H320 H 0.29018 0.47612 1.04053
 H321 H 0.38095 0.35146 1.04883
 H322 H 0.37643 0.33838 0.94988
 H323 H 0.28635 0.40124 0.95367
 H324 H 0.33467 0.37885 0.94740
 C325 C 0.92565 0.17770 0.49492
 C326 C 0.95805 0.16808 0.49410
 C327 C 0.98203 0.19045 0.49504
 C328 C 0.97409 0.22242 0.49736
 C329 C 0.94153 0.23114 0.49914
 N330 N 0.91842 0.20890 0.49781
 C331 C 0.89927 0.15477 0.49287
 N332 N 0.86939 0.16289 0.50366
 C333 C 0.84424 0.14284 0.50279
 C334 C 0.84839 0.11252 0.49040
 C335 C 0.87890 0.10394 0.47876
 C336 C 0.90416 0.12493 0.47968
 H337 H 1.00673 0.18243 0.49371
 H338 H 0.93449 0.25563 0.50112
 H339 H 0.82104 0.15068 0.51160
 H340 H 0.88348 0.08075 0.46933
 H341 H 0.96512 0.14359 0.49303
 H342 H 0.92708 0.11768 0.46981
 C343 C 0.31337 0.58689 -0.00647
 C344 C 0.28022 0.59265 -0.00279
 C345 C 0.25914 0.56742 -0.00221
 C346 C 0.27088 0.53654 -0.00498
 C347 C 0.30404 0.53182 -0.00893
 N348 N 0.32411 0.55669 -0.00938
 C349 C 0.33733 0.61231 -0.00647
 N350 N 0.36841 0.60456 -0.00030
 C351 C 0.39206 0.62617 0.00017
 C352 C 0.38513 0.65793 -0.00601
 C353 C 0.35335 0.66648 -0.01288
 C354 C 0.32941 0.64382 -0.01314
 H355 H 0.23375 0.57221 0.00043
 H356 H 0.31421 0.50854 -0.01189
 H357 H 0.41633 0.61839 0.00496
 H358 H 0.34695 0.69072 -0.01776
 H359 H 0.27054 0.61614 0.00024
 H360 H 0.30525 0.65101 -0.01898
 C361 C 0.09228 -0.18473 0.50209
 C362 C 0.08871 -0.20741 0.47881
 C363 C 0.06232 -0.22726 0.47987
 C364 C 0.03979 -0.22484 0.50418
 C365 C 0.04471 -0.20268 0.52747
 N366 N 0.07039 -0.18341 0.52584
 C367 C 0.11848 -0.16154 0.50139
 N368 N 0.12589 -0.14659 0.52816
 C369 C 0.14825 -0.12370 0.52922
 C370 C 0.16432 -0.11409 0.50203
 C371 C 0.15723 -0.12928 0.47419
 C372 C 0.13439 -0.15293 0.47373
 H373 H 0.05935 -0.24400 0.46138
 H374 H 0.02767 -0.20010 0.54652
 H375 H 0.15268 -0.11236 0.55113
 H376 H 0.16921 -0.12274 0.45270
 H377 H 0.10591 -0.20991 0.45992
 H378 H 0.12871 -0.16343 0.45175
 C379 C 0.68443 0.40731 1.01518
 C380 C 0.68820 0.42764 1.04036
 C381 C 0.70957 0.45236 1.03775
 C382 C 0.72711 0.45687 1.01022
 C383 C 0.72453 0.43481 0.98642
 N384 N 0.70324 0.41097 0.98932
 C385 C 0.65903 0.38347 1.01551
 N386 N 0.66366 0.35601 0.99991
 C387 C 0.64050 0.33386 0.99845
 C388 C 0.61032 0.33902 1.01281
 C389 C 0.60510 0.36745 1.02864
 C390 C 0.62931 0.38954 1.03015
 H391 H 0.71133 0.46880 1.05674
 H392 H 0.73829 0.43714 0.96511
 H393 H 0.64578 0.31224 0.98619
 H394 H 0.58202 0.37309 1.03921
 H395 H 0.67427 0.42493 1.06157
 H396 H 0.62434 0.41161 1.04177
 C397 C 0.49508 0.07288 1.17234
 C398 C 0.47211 0.04906 1.17304
 C399 C 0.47437 0.02519 1.19507
 C400 C 0.49918 0.02507 1.21655
 C401 C 0.52142 0.04940 1.21556
 N402 N 0.51880 0.07251 1.19379
 C403 C 0.49406 0.09830 1.14888
 N404 N 0.50637 0.12684 1.15577
 C405 C 0.50630 0.15113 1.13517
 C406 C 0.49344 0.14737 1.10548
 C407 C 0.48107 0.11796 1.09782
 C408 C 0.48133 0.09346 1.11934
 H409 H 0.45675 0.00671 1.19531
 H410 H 0.54101 0.04993 1.23169
 H411 H 0.51597 0.17342 1.14216
 H412 H 0.47180 0.11361 1.07494
 H413 H 0.45238 0.04894 1.15701
 H414 H 0.47236 0.07083 1.11254
 C415 C -0.00043 0.68407 0.58981
 C416 C 0.02398 0.70640 0.58748
 C417 C 0.02429 0.72754 0.56266
 C418 C 0.00017 0.72679 0.54040
 C419 C -0.02408 0.70450 0.54385
 N420 N -0.02383 0.68404 0.56813
 C421 C -0.00079 0.65981 0.61446
 N422 N -0.02935 0.64762 0.62395
 C423 C -0.03133 0.62425 0.64547
 C424 C -0.00334 0.61128 0.65848
 C425 C 0.02635 0.62347 0.64882
 C426 C 0.02773 0.64769 0.62699
 H427 H 0.04390 0.74375 0.56065
 H428 H -0.04243 0.70230 0.52661
 H429 H -0.05479 0.61593 0.65240
 H430 H 0.04866 0.61374 0.65743
 H431 H 0.04277 0.70748 0.60448
 H432 H 0.05096 0.65596 0.61927
 C433 C 0.50609 0.92320 -0.17755
 C434 C 0.53129 0.94481 -0.17889
 C435 C 0.53023 0.96943 -0.20026
 C436 C 0.50428 0.97264 -0.22025
 C437 C 0.47932 0.95104 -0.21799
 N438 N 0.48080 0.92720 -0.19694
 C439 C 0.50558 0.89693 -0.15489
 N440 N 0.47691 0.88398 -0.14687
 C441 C 0.47442 0.86022 -0.12581
 C442 C 0.50195 0.84799 -0.11143
 C443 C 0.53180 0.86064 -0.11978
 C444 C 0.53376 0.88489 -0.14152
 H445 H 0.54957 0.98617 -0.20102
 H446 H 0.45851 0.95322 -0.23254
 H447 H 0.45097 0.85084 -0.12048
 H448 H 0.55367 0.85216 -0.10914
 H449 H 0.55128 0.94338 -0.16323
 H450 H 0.55717 0.89374 -0.14780
 C451 C 0.99883 0.32037 0.41229
 C452 C 0.97437 0.29854 0.41779
 C453 C 0.97680 0.27764 0.44273
 C454 C 1.00336 0.27848 0.46221
 C455 C 1.02787 0.29964 0.45513
 N456 N 1.02500 0.31980 0.43080
 C457 C 0.99718 0.34419 0.38720
 N458 N 1.02488 0.35779 0.37718
 C459 C 1.02532 0.38101 0.35546
 C460 C 0.99654 0.39238 0.34283
 C461 C 0.96770 0.37861 0.35268
 C462 C 0.96788 0.35460 0.37480
 H463 H 0.95781 0.26103 0.44661
 H464 H 1.04945 0.30008 0.46865
 H465 H 1.04807 0.39122 0.34883
 H466 H 0.94496 0.38656 0.34340
 H467 H 0.95371 0.29728 0.40300
 H468 H 0.94520 0.34516 0.38263
 C469 C 0.50722 0.90655 0.17749
 C470 C 0.53223 0.92831 0.17768
 C471 C 0.53076 0.95336 0.19832
 C472 C 0.50481 0.95654 0.21906
 C473 C 0.48030 0.93441 0.21834
 N474 N 0.48194 0.91038 0.19762
 C475 C 0.50677 0.88099 0.15442
 N476 N 0.47810 0.87140 0.14338
 C477 C 0.47605 0.84951 0.12063
 C478 C 0.50405 0.83608 0.10739
 C479 C 0.53378 0.84484 0.11931
 C480 C 0.53524 0.86720 0.14275
 H481 H 0.54969 0.97055 0.19780
 H482 H 0.45954 0.93658 0.23358
 H483 H 0.45260 0.84354 0.11217
 H484 H 0.55594 0.83446 0.11047
 H485 H 0.55214 0.92675 0.16132
 H486 H 0.55843 0.87356 0.15158
 C487 C 0.00309 0.31755 0.58356
 C488 C -0.02026 0.29427 0.58071
 C489 C -0.01905 0.27414 0.55517
 C490 C 0.00518 0.27726 0.53253
 C491 C 0.02861 0.30001 0.53682
 N492 N 0.02678 0.31956 0.56160
 C493 C 0.00200 0.34103 0.60877
 N494 N 0.01520 0.36962 0.60338
 C495 C 0.01499 0.39271 0.62503
 C496 C 0.00100 0.38768 0.65445
 C497 C -0.01235 0.35813 0.66068
 C498 C -0.01195 0.33481 0.63795
 H499 H -0.03726 0.25648 0.55312
 H500 H 0.04833 0.30248 0.52054
 H501 H 0.02519 0.41515 0.61889
 H502 H -0.02277 0.35287 0.68322
 H503 H -0.03978 0.29217 0.59738
 H504 H -0.02195 0.31211 0.64345
 C505 C 0.50559 0.09195 0.81898
 C506 C 0.53028 0.08801 0.79666
 C507 C 0.52939 0.06278 0.77614
 C508 C 0.50382 0.04186 0.77749
 C509 C 0.47936 0.04684 0.79957
 N510 N 0.48081 0.07142 0.81947
 C511 C 0.50569 0.11729 0.84243
 N512 N 0.47760 0.12506 0.85723
 C513 C 0.47581 0.14689 0.88012
 C514 C 0.50358 0.16208 0.88981
 C515 C 0.53280 0.15458 0.87480
 C516 C 0.53400 0.13225 0.85120
 H517 H 0.54894 0.05950 0.75964
 H518 H 0.45934 0.03097 0.80131
 H519 H 0.45284 0.15160 0.89134
 H520 H 0.55478 0.16585 0.88144
 H521 H 0.55007 0.10410 0.79485
 H522 H 0.55704 0.12629 0.84080
 C523 C 1.00436 0.67817 0.42524
 C524 C 1.02684 0.67614 0.44916
 C525 C 1.02629 0.69861 0.47254
 C526 C 1.00366 0.72316 0.47209
 C527 C 0.98211 0.72498 0.44752
 N528 N 0.98300 0.70272 0.42493
 C529 C 1.00347 0.65431 0.40040
 N530 N 0.99204 0.66250 0.37201
 C531 C 0.99072 0.64167 0.34821
 C532 C 1.00130 0.61045 0.35231
 C533 C 1.01249 0.60144 0.38162
 C534 C 1.01358 0.62316 0.40561
 H535 H 1.04347 0.69675 0.49109
 H536 H 0.96450 0.74383 0.44632
 H537 H 0.98192 0.64965 0.32601
 H538 H 1.01993 0.57742 0.38619
 H539 H 1.04489 0.65764 0.44977
 H540 H 1.02165 0.61534 0.42812
 C541 C 1.17142 0.50886 0.07992
 C542 C 1.16957 0.53084 0.05562
 C543 C 1.19129 0.52880 0.03078
 C544 C 1.21509 0.50526 0.03015
 C545 C 1.21574 0.48330 0.05445
 N546 N 1.19416 0.48558 0.07837
 C547 C 1.14833 0.50945 0.10636
 N548 N 1.14146 0.48211 0.12139
 C549 C 1.11984 0.48074 0.14530
 C550 C 1.10372 0.50807 0.15553
 C551 C 1.11099 0.53662 0.14082
 C552 C 1.13323 0.53743 0.11634
 H553 H 1.18879 0.54512 0.01167
 H554 H 1.23296 0.46411 0.05441
 H555 H 1.11532 0.45832 0.15633
 H556 H 1.09902 0.55825 0.14784
 H557 H 1.15098 0.54883 0.05517
 H558 H 1.13862 0.55978 0.10559
 C559 C 0.58685 0.00345 0.68035
 C560 C 0.58376 -0.02132 0.70180
 C561 C 0.55897 -0.02036 0.72393
 C562 C 0.53753 0.00523 0.72483
 C563 C 0.54149 0.02956 0.70324
 N564 N 0.56582 0.02819 0.68193
 C565 C 0.61213 0.00340 0.65591
 N566 N 0.62257 0.03134 0.64441
 C567 C 0.64494 0.03316 0.62121
 C568 C 0.65795 0.00568 0.60780
 C569 C 0.64736 -0.02339 0.61926
 C570 C 0.62458 -0.02463 0.64326
 H571 H 0.55645 -0.03979 0.73997
 H572 H 0.52514 0.04955 0.70320
 H573 H 0.65257 0.05608 0.61340
 H574 H 0.65599 -0.04521 0.60915
 H575 H 0.60035 -0.04110 0.70172
 H576 H 0.61616 -0.04731 0.65101
 C577 C -0.18592 0.49540 0.91613
 C578 C -0.21946 0.49359 0.91339
 C579 C -0.23880 0.49325 0.94020
 C580 C -0.22483 0.49441 0.96949
 C581 C -0.19144 0.49668 0.97122
 N582 N -0.17314 0.49688 0.94494
 C583 C -0.16353 0.49486 0.88912
 N584 N -0.13226 0.48703 0.89422
 C585 C -0.10971 0.48629 0.87121
 C586 C -0.11798 0.49403 0.84067
 C587 C -0.15000 0.50254 0.83477
 C588 C -0.17288 0.50293 0.85888
 H589 H -0.26461 0.49181 0.93810
 H590 H -0.17966 0.49832 0.99327
 H591 H -0.08519 0.48023 0.87697
 H592 H -0.15737 0.50870 0.81153
 H593 H -0.23070 0.49179 0.89105
 H594 H -0.19726 0.51005 0.85383
 C595 C 0.41807 -0.00624 0.31590
 C596 C 0.41957 0.01715 0.29284
 C597 C 0.44413 0.01605 0.27053
 C598 C 0.46682 -0.00849 0.27083
 C599 C 0.46393 -0.03200 0.29343
 N600 N 0.43999 -0.03030 0.31518
 C601 C 0.39390 -0.00516 0.34144
 N602 N 0.38653 -0.03223 0.35672
 C603 C 0.36547 -0.03290 0.38111
 C604 C 0.35074 -0.00503 0.39181
 C605 C 0.35810 0.02315 0.37650
 C606 C 0.37962 0.02323 0.35143
 H607 H 0.44565 0.03479 0.25361
 H608 H 0.48117 -0.05124 0.29431
 H609 H 0.36080 -0.05510 0.39251
 H610 H 0.34714 0.04515 0.38386
 H611 H 0.40217 0.03621 0.29196
 H612 H 0.38547 0.04544 0.34068
 C613 C 0.17517 0.50360 0.91157
 C614 C 0.19985 0.52573 0.91287
 C615 C 0.22076 0.52523 0.93789
 C616 C 0.21711 0.50280 0.96143
 C617 C 0.19263 0.48080 0.95908
 N618 N 0.17259 0.48167 0.93452
 C619 C 0.15172 0.50342 0.88613
 N620 N 0.13702 0.47603 0.87914
 C621 C 0.11431 0.47423 0.85693
 C622 C 0.10464 0.50127 0.84065
 C623 C 0.11941 0.52977 0.84749
 C624 C 0.14296 0.53096 0.87011
 H625 H 0.23962 0.54238 0.93875
 H626 H 0.18928 0.46310 0.97688
 H627 H 0.10321 0.45186 0.85262
 H628 H 0.11268 0.55116 0.83539
 H629 H 0.20327 0.54302 0.89471
 H630 H 0.15339 0.55337 0.87552
 C631 C 0.58688 -0.00487 0.31302
 C632 C 0.58532 -0.02989 0.29194
 C633 C 0.56054 -0.03055 0.27059
 C634 C 0.53771 -0.00615 0.26976
 C635 C 0.54052 0.01884 0.29047
 N636 N 0.56468 0.01887 0.31134
 C637 C 0.61146 -0.00381 0.33747
 N638 N 0.61824 0.02431 0.35062
 C639 C 0.63964 0.02702 0.37393
 C640 C 0.65539 0.00026 0.38574
 C641 C 0.64870 -0.02897 0.37260
 C642 C 0.62679 -0.03114 0.34861
 H643 H 0.55900 -0.05051 0.25531
 H644 H 0.52311 0.03796 0.29057
 H645 H 0.64374 0.04998 0.38367
 H646 H 0.66045 -0.05020 0.38084
 H647 H 0.60286 -0.04885 0.29180
 H648 H 0.62150 -0.05413 0.33964
 C649 C 0.81593 0.49609 0.09126
 C650 C 0.81675 0.47022 0.07110
 C651 C 0.79656 0.46990 0.04571
 C652 C 0.77590 0.49533 0.03997
 C653 C 0.77554 0.52074 0.06048
 N654 N 0.79549 0.52059 0.08522
 C655 C 0.83772 0.49784 0.11804
 N656 N 0.84576 0.52649 0.12926
 C657 C 0.86693 0.52983 0.15273
 C658 C 0.88158 0.50327 0.16626
 C659 C 0.87287 0.47353 0.15557
 C660 C 0.85087 0.47071 0.13179
 H661 H 0.79743 0.44992 0.03022
 H662 H 0.75966 0.54068 0.05688
 H663 H 0.87241 0.55321 0.16062
 H664 H 0.88367 0.45234 0.16497
 H665 H 0.83329 0.45070 0.07423
 H666 H 0.84445 0.44743 0.12438
 C667 C 0.41620 0.00668 0.68625
 C668 C 0.42022 0.03236 0.70614
 C669 C 0.44566 0.03211 0.72685
 C670 C 0.46678 0.00630 0.72791
 C671 C 0.46167 -0.01911 0.70819
 N672 N 0.43680 -0.01835 0.68817
 C673 C 0.39075 0.00624 0.66272
 N674 N 0.37999 -0.02194 0.65267
 C675 C 0.35785 -0.02427 0.62998
 C676 C 0.34550 0.00287 0.61553
 C677 C 0.35632 0.03217 0.62559
 C678 C 0.37881 0.03396 0.64912
 H679 H 0.44906 0.05233 0.74147
 H680 H 0.47774 -0.03931 0.70832
 H681 H 0.34998 -0.04735 0.62331
 H682 H 0.34818 0.05372 0.61465
 H683 H 0.40400 0.05243 0.70579
 H684 H 0.38753 0.05677 0.65566
   
