data_POSCAR
  _audit_creation_date              2014-09-24
  _audit_creation_method            'ToBaCCo'
  _symmetry_space_group_name_H-M    'P1'
  _symmetry_Int_Tables_number       1
  _symmetry_cell_setting            triclinic
  loop_
  _symmetry_equiv_pos_as_xyz
 x,y,z
_cell_length_a 37.3632
_cell_length_b 37.3772
_cell_length_c 26.0418
_cell_angle_alpha 90.049800
_cell_angle_beta 89.973100
_cell_angle_gamma 120.067000
loop_
  _atom_site_label
  _atom_site_type_symbol
  _atom_site_fract_x
  _atom_site_fract_y
  _atom_site_fract_z
O1 O 0.01342 0.54196 -0.06372
 O2 O 0.04785 0.48956 0.02661
 O3 O 0.01310 0.47232 -0.06416
 O4 O 0.04838 0.55908 0.02680
 O5 O -0.01322 0.52842 0.06342
 O6 O -0.04859 0.44184 -0.02786
 O7 O -0.01385 0.45862 0.06297
 O8 O -0.04816 0.51125 -0.02706
 Cu9 Cu 0.03686 0.51878 -0.02230
 Cu10 Cu -0.03712 0.48194 0.02157
 C11 C -0.02342 0.53510 -0.06119
 C12 C 0.02306 0.46565 0.06067
 C13 C -0.02397 0.44261 -0.06216
 C14 C 0.02374 0.55825 0.06105
 O15 O 0.51057 0.55828 0.02606
 O16 O 0.45780 0.47106 -0.06392
 O17 O 0.44091 0.48927 0.02655
 O18 O 0.52768 0.54031 -0.06449
 O19 O 0.55801 0.50916 -0.02792
 O20 O 0.47139 0.45830 0.06332
 O21 O 0.48838 0.44022 -0.02710
 O22 O 0.54131 0.52752 0.06269
 Cu23 Cu 0.48120 0.51785 -0.02266
 Cu24 Cu 0.51784 0.48072 0.02147
 C25 C 0.53445 0.55747 0.06019
 C26 C 0.46455 0.44104 -0.06128
 C27 C 0.44165 0.46552 0.06089
 C28 C 0.55733 0.53293 -0.06233
 O29 O 0.44167 0.95247 0.02635
 O30 O 0.52855 0.98675 -0.06411
 O31 O 0.51062 0.95181 0.02638
 O32 O 0.45927 0.98719 -0.06440
 O33 O 0.49066 1.04885 -0.02807
 O34 O 0.54175 1.01339 0.06304
 O35 O 0.55962 1.04831 -0.02741
 O36 O 0.47262 1.01415 0.06275
 Cu37 Cu 0.48188 0.96338 -0.02264
 Cu38 Cu 0.51926 1.03734 0.02128
 C39 C 0.44264 0.97728 0.06045
 C40 C 0.55864 1.02355 -0.06159
 C41 C 0.53450 0.97642 0.06062
 C42 C 0.46674 1.02425 -0.06235
 O43 O 1.04832 0.55983 0.47293
 O44 O 1.01422 0.47285 0.56296
 O45 O 1.04895 0.49094 0.47213
 O46 O 1.01336 0.54191 0.56341
 O47 O 0.95176 0.51072 0.52681
 O48 O 0.98727 0.45952 0.43583
 O49 O 0.95253 0.44186 0.52659
 O50 O 0.98673 0.52872 0.43628
 Cu51 Cu 1.03738 0.51948 0.52156
 Cu52 Cu 0.96340 0.48206 0.47769
 C53 C 1.02354 0.55882 0.43879
 C54 C 0.97735 0.44285 0.56065
 C55 C 1.02436 0.46702 0.43784
 C56 C 0.97636 0.53460 0.56106
 O57 O 0.48869 0.44025 0.52697
 O58 O 0.54049 0.52716 0.43644
 O59 O 0.55786 0.50974 0.52707
 O60 O 0.47096 0.45757 0.43652
 O61 O 0.44023 0.48834 0.47326
 O62 O 0.52714 0.54058 0.56368
 O63 O 0.50950 0.55773 0.47304
 O64 O 0.45777 0.47083 0.56370
 Cu65 Cu 0.51760 0.48062 0.47803
 Cu66 Cu 0.48057 0.51744 0.52213
 C67 C 0.46486 0.44102 0.56122
 C68 C 0.53337 0.55695 0.43882
 C69 C 0.55701 0.53358 0.56126
 C70 C 0.44106 0.46453 0.43902
 O71 O 0.45874 -0.01394 0.56282
 O72 O 0.51142 -0.04816 0.47258
 O73 O 0.52862 -0.01319 0.56309
 O74 O 0.44198 -0.04860 0.47194
 O75 O 0.47244 0.01306 0.43571
 O76 O 0.55923 0.04839 0.52655
 O77 O 0.54211 0.01341 0.43600
 O78 O 0.48963 0.04774 0.52653
 Cu79 Cu 0.48211 -0.03713 0.52131
 Cu80 Cu 0.51890 0.03682 0.47752
 C81 C 0.46571 0.02293 0.56057
 C82 C 0.53525 -0.02341 0.43844
 C83 C 0.55844 0.02377 0.56075
 C84 C 0.44273 -0.02399 0.43770
 C85 C 0.14916 0.45156 0.20342
 C86 C 0.13158 0.45279 0.25052
 C87 C 0.14914 0.45149 0.29759
 C88 C 0.18564 0.44880 0.29763
 C89 C 0.20434 0.44828 0.25038
 C90 C 0.18571 0.44899 0.20321
 C91 C 0.20410 0.44698 0.15699
 C92 C 0.24127 0.44688 0.15691
 C93 C 0.26165 0.44874 0.20305
 C94 C 0.24238 0.44812 0.25029
 C95 C 0.20393 0.44648 0.34374
 C96 C 0.24104 0.44627 0.34366
 C97 C 0.26151 0.44839 0.29746
 C98 C 0.30049 0.45065 0.29727
 C99 C 0.31934 0.45197 0.25018
 C100 C 0.30067 0.45105 0.20311
 H101 H 0.18992 0.44527 0.12020
 H102 H 0.25365 0.44509 0.12007
 H103 H 0.18968 0.44455 0.38056
 H104 H 0.25332 0.44421 0.38043
 H105 H 0.10549 0.45788 0.25051
 H106 H 0.35045 0.45682 0.25020
 C107 C 0.54865 0.69805 0.29650
 C108 C 0.54753 0.67929 0.24940
 C109 C 0.54887 0.69814 0.20234
 C110 C 0.55138 0.73722 0.20221
 C111 C 0.55194 0.75649 0.24942
 C112 C 0.55128 0.73720 0.29663
 C113 C 0.55342 0.75770 0.34280
 C114 C 0.55365 0.79502 0.34280
 C115 C 0.55169 0.81345 0.29663
 C116 C 0.55209 0.79466 0.24942
 C117 C 0.55349 0.75768 0.15604
 C118 C 0.55356 0.79492 0.15604
 C119 C 0.55159 0.81338 0.20221
 C120 C 0.54926 0.85006 0.20235
 C121 C 0.54825 0.86775 0.24945
 C122 C 0.54946 0.85017 0.29651
 H123 H 0.55518 0.74529 0.37960
 H124 H 0.55558 0.80930 0.37961
 H125 H 0.55531 0.74527 0.11923
 H126 H 0.55543 0.80914 0.11924
 H127 H 0.54250 0.64813 0.24934
 H128 H 0.54339 0.89398 0.24951
 C129 C 0.14981 0.69990 0.29723
 C130 C 0.13227 0.68102 0.25015
 C131 C 0.15001 0.69970 0.20307
 C132 C 0.18672 0.73877 0.20299
 C133 C 0.20540 0.75808 0.25022
 C134 C 0.18654 0.73894 0.29740
 C135 C 0.20490 0.75944 0.34359
 C136 C 0.24225 0.79658 0.34365
 C137 C 0.26288 0.81487 0.29752
 C138 C 0.24363 0.79614 0.25028
 C139 C 0.20525 0.75917 0.15684
 C140 C 0.24255 0.79636 0.15690
 C141 C 0.26299 0.81478 0.20311
 C142 C 0.30216 0.85134 0.20329
 C143 C 0.32100 0.86893 0.25039
 C144 C 0.30213 0.85138 0.29747
 H145 H 0.19054 0.74715 0.38037
 H146 H 0.25458 0.81085 0.38047
 H147 H 0.19106 0.74676 0.12001
 H148 H 0.25502 0.81055 0.12011
 H149 H 0.10603 0.64988 0.25017
 H150 H 0.35222 0.89503 0.25035
 C151 C 0.69765 0.54816 0.70361
 C152 C 0.67886 0.54695 0.75072
 C153 C 0.69778 0.54840 0.79779
 C154 C 0.73701 0.55115 0.79781
 C155 C 0.75621 0.55163 0.75055
 C156 C 0.73681 0.55082 0.70339
 C157 C 0.75720 0.55282 0.65716
 C158 C 0.79451 0.55302 0.65707
 C159 C 0.81310 0.55126 0.70320
 C160 C 0.79445 0.55188 0.75045
 C161 C 0.75768 0.55356 0.84391
 C162 C 0.79503 0.55383 0.84382
 C163 C 0.81336 0.55168 0.79761
 C164 C 0.85010 0.54947 0.79741
 C165 C 0.86763 0.54817 0.75031
 C166 C 0.84985 0.54903 0.70325
 H167 H 0.74468 0.55445 0.62037
 H168 H 0.80867 0.55480 0.62022
 H169 H 0.74537 0.55550 0.88074
 H170 H 0.80942 0.55595 0.88058
 H171 H 0.64764 0.54178 0.75072
 H172 H 0.89389 0.54335 0.75031
 C173 C 0.45006 0.29998 0.70316
 C174 C 0.45101 0.31868 0.75024
 C175 C 0.44979 0.29992 0.79733
 C176 C 0.44760 0.26098 0.79750
 C177 C 0.44731 0.24182 0.75032
 C178 C 0.44784 0.26101 0.70308
 C179 C 0.44600 0.24060 0.65694
 C180 C 0.44623 0.20352 0.65700
 C181 C 0.44834 0.18522 0.70321
 C182 C 0.44759 0.20386 0.75038
 C183 C 0.44555 0.24058 0.84369
 C184 C 0.44585 0.20353 0.84375
 C185 C 0.44819 0.18523 0.79762
 C186 C 0.45099 0.14880 0.79756
 C187 C 0.45234 0.13126 0.75048
 C188 C 0.45104 0.14876 0.70339
 H189 H 0.44414 0.25292 0.62011
 H190 H 0.44453 0.18931 0.62020
 H191 H 0.44349 0.25289 0.88047
 H192 H 0.44398 0.18934 0.88057
 H193 H 0.45583 0.34976 0.75026
 H194 H 0.45753 0.10523 0.75044
 C195 C 0.69991 0.14984 0.79701
 C196 C 0.68107 0.13232 0.74990
 C197 C 0.69979 0.15007 0.70285
 C198 C 0.73886 0.18679 0.70281
 C199 C 0.75813 0.20544 0.75007
 C200 C 0.73895 0.18656 0.79723
 C201 C 0.75942 0.20489 0.84344
 C202 C 0.79657 0.24223 0.84355
 C203 C 0.81490 0.26289 0.79746
 C204 C 0.79620 0.24367 0.75019
 C205 C 0.75929 0.20535 0.65669
 C206 C 0.79649 0.24265 0.65681
 C207 C 0.81487 0.26305 0.70305
 C208 C 0.85143 0.30222 0.70329
 C209 C 0.86900 0.32102 0.75041
 C210 C 0.85142 0.30212 0.79746
 H211 H 0.74710 0.19051 0.88020
 H212 H 0.81081 0.25454 0.88039
 H213 H 0.74692 0.19117 0.61984
 H214 H 0.81071 0.25514 0.62003
 H215 H 0.64992 0.10608 0.74989
 H216 H 0.89509 0.35224 0.75042
 C217 C 0.03728 0.44700 0.09956
 C218 C 0.07696 0.45726 0.10360
 C219 C 0.09168 0.44386 0.14799
 C220 C 0.13214 0.45875 0.15541
 H221 H 0.09937 0.47815 0.07591
 H222 H 0.06946 0.42336 0.17610
 H223 H 0.01515 0.42675 0.12792
 H224 H 0.15373 0.47871 0.12644
 C225 C 0.55325 0.59054 0.09891
 C226 C 0.54322 0.62011 0.10266
 C227 C 0.55668 0.64838 0.14697
 C228 C 0.54183 0.67397 0.15427
 H229 H 0.52243 0.62161 0.07484
 H230 H 0.57709 0.64669 0.17519
 H231 H 0.57339 0.58867 0.12742
 H232 H 0.52194 0.67557 0.12520
 C233 C 0.40974 0.96310 0.09938
 C234 C 0.38021 0.92345 0.10342
 C235 C 0.35206 0.90878 0.14784
 C236 C 0.32640 0.86834 0.15526
 H237 H 0.37862 0.90103 0.07570
 H238 H 0.35384 0.93101 0.17598
 H239 H 0.41170 0.98525 0.12777
 H240 H 0.32472 0.84674 0.12627
 C241 C 0.96185 0.55303 0.60001
 C242 C 0.92218 0.54291 0.60370
 C243 C 0.90737 0.55649 0.64792
 C244 C 0.86691 0.54180 0.65520
 H245 H 0.89988 0.52213 0.57582
 H246 H 0.92957 0.57699 0.67606
 H247 H 0.98385 0.57320 0.62856
 H248 H 0.84534 0.52187 0.62617
 C249 C 0.44626 0.40802 0.60005
 C250 C 0.45625 0.37839 0.60369
 C251 C 0.44262 0.35001 0.64788
 C252 C 0.45725 0.32423 0.65512
 H253 H 0.47700 0.37685 0.57581
 H254 H 0.42217 0.35174 0.67605
 H255 H 0.42614 0.40988 0.62861
 H256 H 0.47715 0.32258 0.62606
 C257 C 0.59142 0.03821 0.59963
 C258 C 0.62113 0.07784 0.60331
 C259 C 0.64956 0.09260 0.64750
 C260 C 0.67548 0.13304 0.65479
 H261 H 0.62274 0.10015 0.57546
 H262 H 0.64776 0.07039 0.67562
 H263 H 0.58950 0.01621 0.62816
 H264 H 0.67721 0.15461 0.62578
 C265 C 0.44937 0.03789 0.90050
 C266 C 0.45812 0.07723 0.89733
 C267 C 0.44438 0.09162 0.85288
 C268 C 0.45833 0.13195 0.84569
 H269 H 0.47798 0.09974 0.92567
 H270 H 0.42442 0.06928 0.82451
 H271 H 0.42986 0.01601 0.87138
 H272 H 0.47780 0.15363 0.87492
 C273 C 0.58839 0.55022 0.90050
 C274 C 0.61905 0.54156 0.89749
 C275 C 0.64725 0.55519 0.85305
 C276 C 0.67360 0.54121 0.84594
 H277 H 0.62169 0.52182 0.92595
 H278 H 0.64490 0.57507 0.82460
 H279 H 0.58602 0.56959 0.87126
 H280 H 0.67578 0.52183 0.87524
 C281 C 0.96241 0.41160 0.90061
 C282 C 0.92306 0.38090 0.89740
 C283 C 0.90866 0.35277 0.85287
 C284 C 0.86831 0.32635 0.84563
 H285 H 0.90055 0.37819 0.92575
 H286 H 0.93101 0.35520 0.82450
 H287 H 0.98430 0.41405 0.87148
 H288 H 0.84663 0.32410 0.87486
 C289 C 0.55401 0.96235 0.39966
 C290 C 0.54408 0.92275 0.39606
 C291 C 0.55748 0.90787 0.35179
 C292 C 0.54255 0.86740 0.34457
 H293 H 0.52339 0.90047 0.42400
 H294 H 0.57791 0.92998 0.32354
 H295 H 0.57405 0.98435 0.37105
 H296 H 0.52264 0.84593 0.37368
 C297 C 0.40806 0.44590 0.40021
 C298 C 0.37843 0.45589 0.39670
 C299 C 0.35016 0.44257 0.35242
 C300 C 0.32460 0.45747 0.34532
 H301 H 0.37688 0.47654 0.42473
 H302 H 0.35185 0.42222 0.32406
 H303 H 0.40997 0.42589 0.37152
 H304 H 0.32303 0.47730 0.37454
 C305 C 0.03772 0.59185 0.40011
 C306 C 0.07729 0.62171 0.39663
 C307 C 0.09212 0.65003 0.35242
 C308 C 0.13259 0.67577 0.34528
 H309 H 0.09959 0.62344 0.42460
 H310 H 0.06999 0.64820 0.32413
 H311 H 0.01570 0.58977 0.37147
 H312 H 0.15408 0.67747 0.37443
 C313 C 0.96234 0.55388 0.90014
 C314 C 0.92275 0.54406 0.89671
 C315 C 0.90786 0.55748 0.85253
 C316 C 0.86737 0.54264 0.84544
 H317 H 0.90048 0.52343 0.92472
 H318 H 0.92996 0.57782 0.82421
 H319 H 0.98432 0.57387 0.87148
 H320 H 0.84592 0.52282 0.87463
 C321 C 0.44565 0.40789 0.90012
 C322 C 0.45544 0.37813 0.89669
 C323 C 0.44191 0.34972 0.85252
 C324 C 0.45673 0.32410 0.84536
 H325 H 0.47612 0.37657 0.92464
 H326 H 0.42150 0.35138 0.82426
 H327 H 0.42562 0.40980 0.87149
 H328 H 0.47663 0.32256 0.87448
 C329 C 0.59170 0.03774 0.89971
 C330 C 0.62159 0.07730 0.89630
 C331 C 0.64995 0.09214 0.85210
 C332 C 0.67572 0.13260 0.84503
 H333 H 0.62330 0.09958 0.92433
 H334 H 0.64814 0.07003 0.82377
 H335 H 0.58964 0.01575 0.87102
 H336 H 0.67740 0.15407 0.87423
 C337 C 0.03804 0.44969 0.40063
 C338 C 0.07742 0.45848 0.39744
 C339 C 0.09186 0.44478 0.35294
 C340 C 0.13222 0.45879 0.34574
 H341 H 0.09990 0.47834 0.42579
 H342 H 0.06954 0.42482 0.32457
 H343 H 0.01618 0.43018 0.37150
 H344 H 0.15388 0.47826 0.37498
 C345 C 0.55197 0.58989 0.39993
 C346 C 0.54198 0.61949 0.39610
 C347 C 0.55569 0.64781 0.35183
 C348 C 0.54126 0.67375 0.34453
 H349 H 0.52119 0.62108 0.42388
 H350 H 0.57607 0.64594 0.32369
 H351 H 0.57215 0.58799 0.37146
 H352 H 0.52144 0.67556 0.37357
 C353 C 0.41169 0.96238 0.40052
 C354 C 0.38100 0.92304 0.39730
 C355 C 0.35282 0.90863 0.35283
 C356 C 0.32639 0.86829 0.34559
 H357 H 0.37830 0.90054 0.42562
 H358 H 0.35524 0.93096 0.32450
 H359 H 0.41412 0.98425 0.37143
 H360 H 0.32417 0.84663 0.37479
 C361 C 0.55300 0.96197 0.09948
 C362 C 0.54302 0.92234 0.10303
 C363 C 0.55664 0.90757 0.14718
 C364 C 0.54207 0.86713 0.15433
 H365 H 0.52231 0.90005 0.07509
 H366 H 0.57704 0.92975 0.17540
 H367 H 0.57310 0.98396 0.12808
 H368 H 0.52224 0.84558 0.12522
 C369 C 0.40872 0.44714 0.09985
 C370 C 0.37915 0.45721 0.10355
 C371 C 0.35076 0.44365 0.14777
 C372 C 0.32498 0.45829 0.15507
 H373 H 0.37763 0.47794 0.07566
 H374 H 0.35247 0.42320 0.17591
 H375 H 0.41055 0.42704 0.12842
 H376 H 0.32334 0.47818 0.12605
 C377 C 0.03816 0.59122 0.09997
 C378 C 0.07779 0.62096 0.10361
 C379 C 0.09253 0.64940 0.14779
 C380 C 0.13297 0.67536 0.15504
 H381 H 0.10011 0.62260 0.07571
 H382 H 0.07031 0.64759 0.17595
 H383 H 0.01614 0.58927 0.12854
 H384 H 0.15456 0.67709 0.12599
 C385 C 0.44698 0.03709 0.59950
 C386 C 0.45711 0.07672 0.60354
 C387 C 0.44359 0.09136 0.64794
 C388 C 0.45833 0.13178 0.65536
 H389 H 0.47796 0.09914 0.57584
 H390 H 0.42314 0.06913 0.67606
 H391 H 0.42676 0.01495 0.62787
 H392 H 0.47825 0.15340 0.62638
 C393 C 0.58996 0.55224 0.60014
 C394 C 0.61948 0.54213 0.60397
 C395 C 0.64773 0.55565 0.64828
 C396 C 0.67336 0.54087 0.65562
 H397 H 0.62100 0.52131 0.57618
 H398 H 0.64604 0.57614 0.67643
 H399 H 0.58809 0.57242 0.62862
 H400 H 0.67497 0.52091 0.62662
 C401 C 0.96321 0.40994 0.59952
 C402 C 0.92356 0.38037 0.60353
 C403 C 0.90889 0.35220 0.64789
 C404 C 0.86844 0.32650 0.65530
 H405 H 0.90113 0.37875 0.57583
 H406 H 0.93113 0.35399 0.67600
 H407 H 0.98536 0.41192 0.62789
 H408 H 0.84684 0.32481 0.62633
   
