data_POSCAR
  _audit_creation_date              2014-09-24
  _audit_creation_method            'ToBaCCo'
  _symmetry_space_group_name_H-M    'P1'
  _symmetry_Int_Tables_number       1
  _symmetry_cell_setting            triclinic
  loop_
  _symmetry_equiv_pos_as_xyz
 x,y,z
_cell_length_a 25.2487
_cell_length_b 25.5770
_cell_length_c 24.8028
_cell_angle_alpha 89.615400
_cell_angle_beta 87.944100
_cell_angle_gamma 90.950200
loop_
  _atom_site_label
  _atom_site_type_symbol
  _atom_site_fract_x
  _atom_site_fract_y
  _atom_site_fract_z
C1 C 0.32542 0.40137 1.36706
 C2 C 0.36573 0.39862 1.32648
 C3 C 0.40128 0.35801 1.32720
 C4 C 0.39726 0.31980 1.36802
 C5 C 0.35716 0.32205 1.40720
 C6 C 0.32092 0.36294 1.40664
 C7 C 0.28414 0.43519 1.37636
 N8 N 0.25436 0.41769 1.41983
 C9 C 0.27678 0.37340 1.43860
 C10 C 0.36112 0.27853 1.43967
 N11 N 0.40291 0.25002 1.42146
 C12 C 0.42526 0.27511 1.37739
 C13 C 0.43351 0.36264 1.28157
 N14 N 0.41860 0.40479 1.25270
 C15 C 0.37717 0.42734 1.27992
 H16 H 0.27553 0.46929 1.35229
 H17 H 0.26266 0.35034 1.47305
 H18 H 0.33503 0.26804 1.47380
 H19 H 0.45839 0.26169 1.35268
 H20 H 0.46447 0.33602 1.26913
 H21 H 0.35540 0.46065 1.26612
 C22 C 1.19453 0.61824 0.86935
 C23 C 1.15882 0.61849 0.82742
 C24 C 1.11860 0.65479 0.82671
 C25 C 1.11466 0.69246 0.86816
 C26 C 1.15084 0.69222 0.90896
 C27 C 1.19061 0.65476 0.90978
 C28 C 1.23781 0.58814 0.87925
 N29 N 1.26050 0.60562 0.92503
 C30 C 1.23170 0.64650 0.94378
 C31 C 1.14072 0.73429 0.94146
 N32 N 1.09914 0.76064 0.92227
 C33 C 1.08255 0.73524 0.87740
 C34 C 1.09161 0.64599 0.77977
 N35 N 1.11514 0.60594 0.75251
 C36 C 1.15629 0.58932 0.78124
 H37 H 1.25161 0.55658 0.85393
 H38 H 1.24048 0.66914 0.97921
 H39 H 1.16295 0.74566 0.97619
 H40 H 1.05113 0.74771 0.85198
 H41 H 1.05876 0.66829 0.76554
 H42 H 1.18304 0.55860 0.76891
 C43 C 0.65942 -0.11147 0.12424
 C44 C 0.62055 -0.10940 0.16600
 C45 C 0.57675 -0.14248 0.16532
 C46 C 0.57109 -0.17792 0.12330
 C47 C 0.60944 -0.18016 0.08225
 C48 C 0.65390 -0.14644 0.08247
 C49 C 0.70824 -0.08743 0.11708
 N50 N 0.73277 -0.10677 0.07170
 C51 C 0.69955 -0.14282 0.05033
 C52 C 0.59758 -0.22315 0.05176
 N53 N 0.55322 -0.24734 0.07385
 C54 C 0.53641 -0.21916 0.11704
 C55 C 0.54881 -0.13669 0.21326
 N56 N 0.57422 -0.10063 0.24302
 C57 C 0.61830 -0.08359 0.21456
 H58 H 0.72424 -0.05853 0.14389
 H59 H 0.70859 -0.16590 0.01482
 H60 H 0.62180 -0.23684 0.01811
 H61 H 0.50372 -0.23023 0.14449
 H62 H 0.51351 -0.15849 0.22648
 H63 H 0.64801 -0.05666 0.22898
 C64 C -0.18263 1.10836 -0.35049
 C65 C -0.14484 1.11338 -0.31104
 C66 C -0.11182 1.15692 -0.31065
 C67 C -0.11602 1.19597 -0.34993
 C68 C -0.15217 1.19030 -0.39015
 C69 C -0.18612 1.14625 -0.39013
 C70 C -0.22315 1.07282 -0.35689
 N71 N -0.25156 1.08810 -0.39938
 C72 C -0.22880 1.13288 -0.42041
 C73 C -0.14721 1.23412 -0.42263
 N74 N -0.10992 1.26658 -0.40222
 C75 C -0.09070 1.24348 -0.35756
 C76 C -0.08070 1.15232 -0.26668
 N77 N -0.09400 1.10697 -0.24063
 C78 C -0.13354 1.08296 -0.26732
 H79 H -0.23263 1.03937 -0.33108
 H80 H -0.24347 1.15608 -0.45309
 H81 H -0.16971 1.24223 -0.45801
 H82 H -0.05958 1.25907 -0.33311
 H83 H -0.05099 1.18023 -0.25402
 H84 H -0.15354 1.04671 -0.25561
 C85 C 0.66903 0.59859 0.61856
 C86 C 0.62654 0.59758 0.65596
 C87 C 0.59047 0.63762 0.65749
 C88 C 0.59676 0.67959 0.62041
 C89 C 0.63859 0.67984 0.58241
 C90 C 0.67560 0.63930 0.58199
 C91 C 0.71266 0.56779 0.61388
 N92 N 0.74637 0.58862 0.57566
 C93 C 0.72411 0.63239 0.55535
 C94 C 0.63561 0.72524 0.55265
 N95 N 0.59389 0.75329 0.57191
 C96 C 0.56997 0.72575 0.61364
 C97 C 0.55610 0.62717 0.70119
 N98 N 0.57146 0.58245 0.72587
 C99 C 0.61433 0.56411 0.69806
 H100 H 0.72085 0.53418 0.63886
 H101 H 0.74300 0.65902 0.52625
 H102 H 0.66270 0.73759 0.51999
 H103 H 0.53528 0.73764 0.63701
 H104 H 0.52380 0.65141 0.71536
 H105 H 0.63588 0.52936 0.70819
 C106 C 0.81144 0.39082 0.14769
 C107 C 0.84889 0.39885 0.18795
 C108 C 0.88667 0.36129 0.19652
 C109 C 0.88814 0.31574 0.16552
 C110 C 0.85198 0.30831 0.12584
 C111 C 0.81283 0.34535 0.11764
 C112 C 0.76838 0.41866 0.13085
 N113 N 0.74339 0.39029 0.09246
 C114 C 0.77039 0.34547 0.08456
 C115 C 0.86324 0.26156 0.10138
 N116 N 0.90525 0.23998 0.12576
 C117 C 0.92007 0.27252 0.16574
 C118 C 0.91669 0.37774 0.23830
 N119 N 0.89808 0.42425 0.25655
 C120 C 0.85678 0.43766 0.22568
 H121 H 0.75505 0.45544 0.14733
 H122 H 0.75961 0.31479 0.05691
 H123 H 0.84137 0.24425 0.06907
 H124 H 0.95258 0.26586 0.19214
 H125 H 0.94960 0.35664 0.25400
 H126 H 0.83341 0.47245 0.23115
 C127 C 0.32416 0.09135 0.86688
 C128 C 0.37002 0.08962 0.83345
 C129 C 0.40826 0.12886 0.83593
 C130 C 0.40051 0.17099 0.87104
 C131 C 0.35410 0.17392 0.90235
 C132 C 0.31573 0.13359 0.90045
 C133 C 0.28067 0.05844 0.87295
 N134 N 0.24559 0.07979 0.90886
 C135 C 0.26659 0.12613 0.92566
 C136 C 0.35504 0.22157 0.92798
 N137 N 0.40115 0.24685 0.91370
 C138 C 0.42919 0.21638 0.87882
 C139 C 0.44568 0.11986 0.79545
 N140 N 0.43022 0.07706 0.76778
 C141 C 0.38431 0.05791 0.79094
 H142 H 0.27468 0.02181 0.85217
 H143 H 0.24849 0.15210 0.95494
 H144 H 0.32398 0.23731 0.95403
 H145 H 0.46643 0.22759 0.85862
 H146 H 0.47938 0.14485 0.78425
 H147 H 0.36157 0.02513 0.77606
 C148 C 0.20738 0.88230 0.34498
 C149 C 0.17125 0.89030 0.30414
 C150 C 0.12897 0.85569 0.29885
 C151 C 0.12295 0.81219 0.33313
 C152 C 0.15948 0.80376 0.37218
 C153 C 0.20200 0.83872 0.37806
 C154 C 0.25114 0.91000 0.36112
 N155 N 0.27275 0.88360 0.40268
 C156 C 0.24337 0.83953 0.41259
 C157 C 0.14435 0.75896 0.39937
 N158 N 0.09954 0.73942 0.37748
 C159 C 0.08604 0.77194 0.33700
 C160 C 0.10098 0.87208 0.25573
 N161 N 0.12564 0.91526 0.23416
 C162 C 0.16882 0.92670 0.26311
 H163 H 0.26666 0.94588 0.34283
 H164 H 0.25088 0.81079 0.44356
 H165 H 0.16441 0.74281 0.43330
 H166 H 0.05194 0.76659 0.31223
 H167 H 0.06646 0.85281 0.23974
 H168 H 0.19665 0.95856 0.25439
 Zn169 Zn -0.00138 1.06321 -0.02958
 Zn170 Zn -0.05512 0.95786 -0.03180
 Zn171 Zn 0.05318 0.97070 0.01273
 Zn172 Zn -0.04114 1.01502 0.07214
 O173 O -0.01114 1.00133 0.00585
 O174 O -0.03018 1.06264 -0.09337
 O175 O -0.02375 0.89795 -0.05211
 O176 O 0.10772 1.01048 -0.01410
 O177 O -0.07450 0.98721 -0.09369
 O178 O 0.06673 1.08156 -0.04067
 O179 O 0.05677 0.90845 -0.02070
 O180 O -0.00274 0.99161 0.12556
 O181 O -0.11592 0.94073 0.00573
 O182 O 0.06721 0.95848 0.08210
 O183 O -0.10398 0.98364 0.08173
 O184 O -0.05455 1.08303 0.08404
 O185 O -0.03192 1.11660 0.00402
 C186 C -0.06090 1.03046 -0.11581
 C187 C 0.02298 0.88174 -0.04621
 C188 C 0.10885 1.05649 -0.03383
 C189 C 0.04110 0.96826 0.12554
 C190 C -0.13198 0.95446 0.05266
 C191 C -0.05216 1.12120 0.05107
 Zn192 Zn 0.44112 0.03740 0.51053
 Zn193 Zn 0.54658 0.04563 0.45479
 Zn194 Zn 0.53535 -0.00621 0.56349
 Zn195 Zn 0.49268 -0.05892 0.46731
 O196 O 0.50399 0.00436 0.49912
 O197 O 0.44009 0.10175 0.48147
 O198 O 0.60625 0.06445 0.48527
 O199 O 0.49632 0.01773 0.61953
 O200 O 0.51679 0.10566 0.43580
 O201 O 0.42367 0.04445 0.58073
 O202 O 0.59916 0.02584 0.56555
 O203 O 0.51347 -0.11373 0.50693
 O204 O 0.56605 0.01437 0.39337
 O205 O 0.54488 -0.07435 0.57868
 O206 O 0.52721 -0.06344 0.40357
 O207 O 0.42451 -0.06965 0.45175
 O208 O 0.38777 0.00391 0.47991
 C209 C 0.47294 0.12572 0.44984
 C210 C 0.62454 0.05443 0.53095
 C211 C 0.45005 0.03648 0.62252
 C212 C 0.53451 -0.11562 0.55265
 C213 C 0.55569 -0.03095 0.37603
 C214 C 0.38497 -0.03975 0.45630
 Zn215 Zn 1.01385 0.43777 0.48619
 Zn216 Zn 1.07081 0.53139 0.52521
 Zn217 Zn 0.97544 0.54358 0.45554
 Zn218 Zn 0.96410 0.50511 0.57058
 O219 O 1.00591 0.50466 0.50916
 O220 O 1.08164 0.41840 0.47996
 O221 O 1.08589 0.58770 0.48635
 O222 O 0.96036 0.50539 0.39620
 O223 O 1.12448 0.48853 0.50859
 O224 O 0.98763 0.42749 0.42157
 O225 O 1.01747 0.59825 0.43377
 O226 O 0.90354 0.53772 0.56030
 O227 O 1.07590 0.55210 0.59453
 O228 O 0.91260 0.57007 0.47731
 O229 O 0.99393 0.53776 0.62613
 O230 O 0.94625 0.44055 0.59451
 O231 O 0.98084 0.39114 0.52964
 C232 C 1.12444 0.44286 0.48898
 C233 C 1.06271 0.61249 0.45002
 C234 C 0.96641 0.45686 0.38747
 C235 C 0.88572 0.56356 0.52115
 C236 C 1.04069 0.55495 0.63235
 C237 C 0.95459 0.39611 0.57375
 Zn238 Zn 0.47499 0.47336 0.92820
 Zn239 Zn 0.46219 0.53849 1.02731
 Zn240 Zn 0.51856 0.43540 1.03176
 Zn241 Zn 0.56953 0.52457 0.97330
 O242 O 0.50599 0.49298 0.99040
 O243 O 0.41123 0.50018 0.92156
 O244 O 0.44259 0.51401 1.09377
 O245 O 0.50015 0.37538 0.99946
 O246 O 0.40125 0.55045 0.99331
 O247 O 0.46555 0.40391 0.92388
 O248 O 0.48185 0.43706 1.09492
 O249 O 0.62424 0.49821 1.00800
 O250 O 0.49297 0.60224 1.03491
 O251 O 0.58682 0.42975 1.04989
 O252 O 0.56989 0.59091 0.99111
 O253 O 0.58564 0.52606 0.90265
 O254 O 0.51155 0.49541 0.86847
 C255 C 0.38437 0.53215 0.94947
 C256 C 0.45239 0.47109 1.11734
 C257 C 0.47748 0.36691 0.95540
 C258 C 0.62696 0.45909 1.03931
 C259 C 0.53759 0.61967 1.01655
 C260 C 0.55718 0.51670 0.86266
 C261 C 1.20949 0.44119 0.43910
 C262 C 1.17490 0.41801 0.47449
 H263 H 1.19953 0.47904 0.42256
 H264 H 1.17999 0.37808 0.48759
 C265 C 0.30512 0.58808 0.94836
 C266 C 0.33340 0.54830 0.92825
 H267 H 0.31894 0.60796 0.98384
 H268 H 0.32085 0.52777 0.89289
 C269 C -0.21799 0.90590 0.05039
 C270 C -0.18449 0.93828 0.07516
 H271 H -0.20533 0.88875 0.01229
 H272 H -0.19525 0.95453 0.11402
 C273 C 0.70281 0.06368 0.58635
 C274 C 0.67582 0.07824 0.54350
 H275 H 0.68756 0.03125 0.61106
 H276 H 0.69119 0.10842 0.51623
 C277 C 0.41692 0.20361 0.44381
 C278 C 0.46006 0.17726 0.42737
 H279 H 0.39203 0.18740 0.47656
 H280 H 0.48709 0.19319 0.39648
 C281 C 0.90617 0.31291 0.57492
 C282 C 0.93389 0.34904 0.60147
 H283 H 0.89493 0.32158 0.53403
 H284 H 0.94026 0.34515 0.64420
 C285 C 0.08156 0.80604 -0.05523
 C286 C 0.03832 0.83122 -0.07058
 H287 H 0.10365 0.82245 -0.02244
 H288 H 0.01321 0.81473 -0.10076
 C289 C 0.53179 0.70530 1.06110
 C290 C 0.55452 0.67401 1.02445
 H291 H 0.49722 0.69090 1.08424
 H292 H 0.58989 0.68644 1.00182
 C293 C 0.44164 0.41803 1.20032
 C294 C 0.42879 0.46054 1.17192
 H295 H 0.47083 0.39169 1.18317
 H296 H 0.40077 0.48814 1.18860
 C297 C 0.55751 -0.08734 0.29692
 C298 C 0.57629 -0.04532 0.32215
 H299 H 0.52672 -0.11140 0.31669
 H300 H 0.60496 -0.01931 0.30200
 C301 C -0.07088 1.09048 -0.19162
 C302 C -0.08240 1.04422 -0.16805
 H303 H -0.04354 1.11736 -0.17294
 H304 H -0.10894 1.01643 -0.18624
 C305 C 1.10313 0.58596 0.70016
 C306 C 1.05332 0.57905 0.68460
 H307 H 1.13554 0.57198 0.67459
 H308 H 1.02078 0.58917 0.71200
 C309 C 0.79880 0.56907 0.56646
 C310 C 0.83230 0.58584 0.52678
 H311 H 0.81135 0.53846 0.59342
 H312 H 0.82017 0.61451 0.49763
 C313 C 0.69766 0.40122 1.06730
 C314 C 0.67729 0.44913 1.06549
 H315 H 0.67805 0.37017 1.04555
 H316 H 0.69889 0.48237 1.08097
 C317 C 0.19845 1.05664 -0.07541
 C318 C 0.15982 1.08215 -0.04875
 H319 H 0.19080 1.01653 -0.08729
 H320 H 0.16346 1.12367 -0.04147
 C321 C 0.31673 -0.10296 0.42986
 C322 C 0.33556 -0.05385 0.43052
 H323 H 0.33557 -0.13241 0.45397
 H324 H 0.31367 -0.02240 0.41289
 C325 C 0.58007 -0.19952 0.55098
 C326 C 0.54680 -0.16674 0.57646
 H327 H 0.59896 -0.18659 0.51309
 H328 H 0.53168 -0.17516 0.61699
 C329 C 1.07016 0.69320 0.39438
 C330 C 1.09091 0.65857 0.42774
 H331 H 1.03061 0.68677 0.37990
 H332 H 1.13086 0.66426 0.44101
 C333 C -0.07094 1.19394 0.11335
 C334 C -0.07638 1.17111 0.06541
 H335 H -0.04435 1.17687 0.14174
 H336 H -0.09684 1.19085 0.03376
 C337 C 0.41472 0.29939 0.92823
 C338 C 0.46409 0.31291 0.94085
 H339 H 0.38358 0.32803 0.93116
 H340 H 0.49411 0.28333 0.94351
 C341 C 0.54848 0.56038 0.77500
 C342 C 0.57770 0.53281 0.80893
 H343 H 0.50801 0.56984 0.78670
 H344 H 0.61969 0.52829 0.80036
 C345 C 0.45489 0.06003 0.71821
 C346 C 0.42588 0.04944 0.67542
 H347 H 0.49778 0.06090 0.71412
 H348 H 0.38325 0.05365 0.67847
 C349 C 0.11082 0.94124 0.18592
 C350 C 0.05984 0.94965 0.17726
 H351 H 0.14128 0.95326 0.15630
 H352 H 0.03042 0.94131 0.20919
 C353 C 0.91667 0.45342 0.30208
 C354 C 0.94898 0.43191 0.33757
 H355 H 0.90210 0.49250 0.30901
 H356 H 0.96129 0.39199 0.33224
   
