data_POSCAR
  _audit_creation_date              2014-09-24
  _audit_creation_method            'ToBaCCo'
  _symmetry_space_group_name_H-M    'P1'
  _symmetry_Int_Tables_number       1
  _symmetry_cell_setting            triclinic
  loop_
  _symmetry_equiv_pos_as_xyz
 x,y,z
_cell_length_a 25.9104
_cell_length_b 24.8483
_cell_length_c 25.0393
_cell_angle_alpha 90.575000
_cell_angle_beta 89.954800
_cell_angle_gamma 89.708300
loop_
  _atom_site_label
  _atom_site_type_symbol
  _atom_site_fract_x
  _atom_site_fract_y
  _atom_site_fract_z
C1 C 0.44033 1.00765 -0.52470
 C2 C 0.44026 0.98847 -0.47159
 C3 C 0.48738 0.97732 -0.44639
 C4 C 0.53577 0.98732 -0.47043
 C5 C 0.53623 1.00973 -0.52287
 C6 C 0.48830 1.01968 -0.54823
 H7 H 0.48860 1.03130 -0.58980
 H8 H 0.48597 0.96528 -0.40491
 C9 C -0.55914 1.47409 -0.01201
 C10 C -0.56117 1.52763 -0.03159
 C11 C -0.51402 1.55385 -0.04180
 C12 C -0.46610 1.52922 -0.03278
 C13 C -0.46442 1.47538 -0.01567
 C14 C -0.51093 1.44885 -0.00530
 H15 H -0.50970 1.40694 0.00637
 H16 H -0.51420 1.59597 -0.05270
 C17 C 0.08311 0.52322 0.55527
 C18 C 0.06346 0.46965 0.55145
 C19 C 0.05425 0.44753 0.50040
 C20 C 0.06067 0.47723 0.45391
 C21 C 0.07949 0.53004 0.45758
 C22 C 0.09329 0.55112 0.50757
 H23 H 0.10475 0.59301 0.50936
 H24 H 0.04249 0.40586 0.49631
 O25 O -0.14486 0.99780 -0.07021
 O26 O 0.12155 0.99513 -0.06910
 O27 O -0.01311 1.06690 -0.13547
 O28 O -0.00761 0.92095 -0.13174
 O29 O -0.00818 0.85858 -0.06422
 O30 O -0.01595 1.13401 -0.07146
 O31 O 0.05843 0.99245 -0.13395
 O32 O -0.08054 0.99686 -0.13415
 Zr33 Zr -0.01143 0.99553 -0.09038
 O34 O 0.03624 0.94930 -0.04369
 O35 O -0.05985 1.04481 -0.04612
 C36 C -0.12853 0.99882 -0.11952
 C37 C 0.10627 0.99180 -0.11844
 C38 C -0.01470 1.11708 -0.12055
 C39 C -0.00652 0.87205 -0.11396
 H40 H 0.05578 1.06825 -0.06947
 O41 O 0.03415 1.04605 -0.04588
 H42 H -0.07940 0.92439 -0.06631
 O43 O -0.05797 0.94834 -0.04377
 O44 O 0.12156 1.00606 0.07554
 O45 O -0.14469 0.99607 0.07749
 O46 O 0.05410 1.13798 0.00047
 O47 O 0.05916 0.86184 0.00647
 O48 O -0.07857 0.86025 0.00882
 O49 O -0.08425 1.13552 -0.00110
 O50 O -0.01122 1.07672 0.13879
 O51 O -0.01044 0.93070 0.14271
 O52 O -0.01230 1.13921 0.07154
 O53 O -0.01212 0.86398 0.07822
 O54 O 0.11972 1.07492 0.00195
 O55 O -0.14666 1.06984 0.00157
 O56 O -0.14391 0.92341 0.00577
 O57 O 0.12239 0.92687 0.00339
 O58 O 0.05860 1.00719 0.14070
 O59 O -0.08035 0.99864 0.14131
 Zr60 Zr 0.07979 1.00029 0.00331
 Zr61 Zr -0.10365 0.99739 0.00359
 Zr62 Zr -0.01394 1.09249 0.00120
 Zr63 Zr -0.01038 0.90547 0.00582
 Zr64 Zr -0.01131 1.00216 0.09743
 O65 O -0.05796 0.95158 0.05325
 O66 O 0.03447 1.04997 0.05057
 C67 C 0.10639 1.00875 0.12499
 C68 C -0.12828 0.99556 0.12675
 C69 C 0.10241 1.12422 0.00047
 C70 C 0.10685 0.87715 0.00514
 C71 C -0.12682 0.87420 0.00831
 C72 C -0.13190 1.11969 -0.00044
 C73 C -0.01095 1.12578 0.12137
 C74 C -0.01165 0.88065 0.12733
 H75 H -0.08193 1.07117 0.07344
 O76 O -0.05968 1.04787 0.05082
 H77 H 0.05847 0.93127 0.07624
 O78 O 0.03612 0.95306 0.05278
 C79 C 0.35509 0.97264 0.44803
 C80 C 0.31253 0.97343 0.41369
 C81 C 0.30849 1.01212 0.37352
 C82 C 0.34672 1.05186 0.37013
 C83 C 0.38923 1.05124 0.40447
 C84 C 0.39471 1.01118 0.44373
 C85 C 0.26429 1.00956 0.33582
 C86 C 0.26690 1.02792 0.28561
 C87 C 0.22465 1.02256 0.24584
 C88 C 0.23710 1.02555 0.19139
 C89 C 0.19888 1.02087 0.15231
 C90 C 0.14693 1.01355 0.16671
 C91 C 0.13425 1.01132 0.22132
 C92 C 0.17261 1.01583 0.26047
 H93 H 0.35812 0.93973 0.47583
 H94 H 0.28353 0.94242 0.41731
 H95 H 0.34388 1.08379 0.34121
 H96 H 0.41740 1.08303 0.40074
 H97 H 0.23029 0.98819 0.34874
 H98 H 0.30285 1.04466 0.27148
 H99 H 0.27675 1.03117 0.17894
 H100 H 0.21014 1.02323 0.11075
 H101 H 0.09462 1.00613 0.23395
 H102 H 0.16111 1.01490 0.30196
 C103 C -0.41520 1.05917 0.40939
 C104 C -0.37690 1.06055 0.37026
 C105 C -0.34052 1.01887 0.36528
 C106 C -0.34137 0.97727 0.40331
 C107 C -0.37972 0.97608 0.44305
 C108 C -0.41861 1.01596 0.44536
 C109 C -0.30470 1.02023 0.31851
 C110 C -0.26877 0.98281 0.30682
 C111 C -0.23455 0.98601 0.25920
 C112 C -0.18469 0.96423 0.26245
 C113 C -0.15082 0.96708 0.21917
 C114 C -0.16624 0.99083 0.17090
 C115 C -0.21683 1.01094 0.16668
 C116 C -0.25063 1.00887 0.21055
 H117 H -0.44315 1.09174 0.41073
 H118 H -0.37689 1.09372 0.34250
 H119 H -0.31396 0.94443 0.40177
 H120 H -0.38109 0.94159 0.46908
 H121 H -0.30851 1.05423 0.29203
 H122 H -0.26192 0.94988 0.33376
 H123 H -0.17151 0.94577 0.29905
 H124 H -0.11231 0.95050 0.22353
 H125 H -0.22984 1.02923 0.12996
 H126 H -0.28938 1.02463 0.20609
 C127 C -0.41696 0.93809 -0.40121
 C128 C -0.37911 0.93641 -0.36167
 C129 C -0.34254 0.97750 -0.35664
 C130 C -0.34293 1.01896 -0.39484
 C131 C -0.38083 1.02046 -0.43499
 C132 C -0.41975 0.98103 -0.43760
 C133 C -0.30692 0.97571 -0.30974
 C134 C -0.26987 1.01178 -0.29893
 C135 C -0.23544 1.00819 -0.25150
 C136 C -0.18548 1.02910 -0.25531
 C137 C -0.15140 1.02615 -0.21226
 C138 C -0.16663 1.00309 -0.16363
 C139 C -0.21727 0.98372 -0.15890
 C140 C -0.25133 0.98595 -0.20254
 H141 H -0.44490 0.90581 -0.40270
 H142 H -0.37949 0.90339 -0.33374
 H143 H -0.31552 1.05150 -0.39316
 H144 H -0.38179 1.05484 -0.46118
 H145 H -0.31164 0.94238 -0.28265
 H146 H -0.26217 1.04379 -0.32664
 H147 H -0.17240 1.04706 -0.29215
 H148 H -0.11291 1.04224 -0.21708
 H149 H -0.23019 0.96603 -0.12190
 H150 H -0.29012 0.97088 -0.19760
 C151 C 0.35963 1.03251 -0.43564
 C152 C 0.31738 1.03350 -0.40085
 C153 C 0.30799 0.99019 -0.36670
 C154 C 0.34033 0.94458 -0.36988
 C155 C 0.38228 0.94337 -0.40507
 C156 C 0.39275 0.98757 -0.43789
 C157 C 0.26443 0.99398 -0.32833
 C158 C 0.26522 0.96997 -0.28055
 C159 C 0.22366 0.97639 -0.24012
 C160 C 0.23597 0.96974 -0.18602
 C161 C 0.19807 0.97528 -0.14655
 C162 C 0.14663 0.98690 -0.16036
 C163 C 0.13410 0.99274 -0.21468
 C164 C 0.17215 0.98761 -0.25414
 H165 H 0.36715 1.06742 -0.45993
 H166 H 0.29285 1.06893 -0.39944
 H167 H 0.33326 0.90975 -0.34538
 H168 H 0.40692 0.90804 -0.40641
 H169 H 0.23288 1.02084 -0.33814
 H170 H 0.29926 0.94757 -0.26881
 H171 H 0.27522 0.96059 -0.17416
 H172 H 0.20906 0.96992 -0.10522
 H173 H 0.09482 1.00130 -0.22681
 H174 H 0.16086 0.99148 -0.29551
 C175 C 0.38914 1.41208 0.04432
 C176 C 0.35204 1.37192 0.04932
 C177 C 0.31965 1.35861 0.00636
 C178 C 0.32404 1.38792 -0.04141
 C179 C 0.36126 1.42828 -0.04634
 C180 C 0.39482 1.43983 -0.00387
 C181 C 0.28472 1.31176 0.01203
 C182 C 0.24341 1.30311 -0.01897
 C183 C 0.20873 1.25632 -0.01258
 C184 C 0.15708 1.26188 -0.02801
 C185 C 0.12293 1.21904 -0.02325
 C186 C 0.13974 1.16901 -0.00368
 C187 C 0.19178 1.16285 0.01086
 C188 C 0.22600 1.20620 0.00665
 H189 H 0.41493 1.42014 0.07745
 H190 H 0.34962 1.35011 0.08648
 H191 H 0.30077 1.37824 -0.07597
 H192 H 0.36573 1.44842 -0.08421
 H193 H 0.29263 1.28430 0.04437
 H194 H 0.23238 1.33283 -0.04816
 H195 H 0.14294 1.29975 -0.04349
 H196 H 0.08329 1.22507 -0.03561
 H197 H 0.20592 1.12475 0.02571
 H198 H 0.26599 1.20005 0.01750
 C199 C 0.38811 0.59555 -0.07892
 C200 C 0.34814 0.63324 -0.07951
 C201 C 0.31161 0.63513 -0.03834
 C202 C 0.31332 0.59516 0.00119
 C203 C 0.35332 0.55694 0.00164
 C204 C 0.39266 0.55799 -0.03725
 C205 C 0.27413 0.68056 -0.03768
 C206 C 0.24860 0.69735 0.00601
 C207 C 0.21401 0.74492 0.00593
 C208 C 0.16949 0.74415 0.03761
 C209 C 0.13529 0.78768 0.03773
 C210 C 0.14563 0.83359 0.00724
 C211 C 0.19129 0.83557 -0.02280
 C212 C 0.22511 0.79133 -0.02382
 H213 H 0.41631 0.59655 -0.11087
 H214 H 0.34711 0.66259 -0.11122
 H215 H 0.28481 0.59389 0.03267
 H216 H 0.35541 0.52976 0.03505
 H217 H 0.26942 0.70287 -0.07435
 H218 H 0.25186 0.67549 0.04297
 H219 H 0.16053 0.70921 0.06138
 H220 H 0.10052 0.78541 0.06166
 H221 H 0.20001 0.87055 -0.04658
 H222 H 0.26000 0.79365 -0.04746
 C223 C -0.41081 0.59596 -0.07998
 C224 C -0.37280 0.63559 -0.07857
 C225 C -0.34269 0.64358 -0.03261
 C226 C -0.35023 0.60960 0.01143
 C227 C -0.38819 0.56987 0.00990
 C228 C -0.41953 0.56351 -0.03535
 C229 C -0.30698 0.69007 -0.03092
 C230 C -0.26826 0.69504 0.00420
 C231 C -0.23361 0.74220 0.00579
 C232 C -0.18298 0.73502 0.02397
 C233 C -0.14873 0.77810 0.02536
 C234 C -0.16460 0.82975 0.00947
 C235 C -0.21588 0.83747 -0.00707
 C236 C -0.25010 0.79406 -0.00902
 H237 H -0.43480 0.59192 -0.11518
 H238 H -0.36792 0.66116 -0.11298
 H239 H -0.32897 0.61508 0.04818
 H240 H -0.39506 0.54612 0.04522
 H241 H -0.31233 0.72084 -0.06077
 H242 H -0.25934 0.66235 0.03090
 H243 H -0.16956 0.69567 0.03622
 H244 H -0.10960 0.77076 0.03868
 H245 H -0.22930 0.87678 -0.01940
 H246 H -0.28944 0.80133 -0.02163
 C247 C -0.38014 1.44358 -0.05452
 C248 C -0.33747 1.40890 -0.05390
 C249 C -0.32988 1.37356 -0.01123
 C250 C -0.36387 1.37604 0.03257
 C251 C -0.40624 1.41100 0.03215
 C252 C -0.41546 1.44425 -0.01190
 C253 C -0.28688 1.33412 -0.01388
 C254 C -0.29006 1.28517 0.00802
 C255 C -0.24891 1.24368 0.00371
 C256 C -0.26220 1.18943 0.01015
 C257 C -0.22449 1.14905 0.00780
 C258 C -0.17239 1.16212 -0.00046
 C259 C -0.15907 1.21652 -0.00686
 C260 C -0.19683 1.25686 -0.00471
 H261 H -0.38666 1.46830 -0.08926
 H262 H -0.31151 1.40810 -0.08783
 H263 H -0.35804 1.35075 0.06701
 H264 H -0.43252 1.41131 0.06582
 H265 H -0.25380 1.34427 -0.03813
 H266 H -0.32557 1.27357 0.02753
 H267 H -0.30198 1.17822 0.01705
 H268 H -0.23615 1.10768 0.01326
 H269 H -0.11930 1.22816 -0.01298
 H270 H -0.18477 1.29826 -0.00835
 C271 C 0.08379 1.44794 0.36084
 C272 C 0.07419 1.41550 0.31602
 C273 C 0.02853 1.38551 0.31259
 C274 C -0.00939 1.39211 0.35230
 C275 C 0.00014 1.42450 0.39687
 C276 C 0.04749 1.45113 0.40238
 C277 C 0.02245 1.34558 0.26904
 C278 C -0.00149 1.29859 0.27694
 C279 C -0.00419 1.25528 0.23625
 C280 C -0.00983 1.20197 0.25317
 C281 C -0.01200 1.15975 0.21602
 C282 C -0.00919 1.17019 0.16107
 C283 C -0.00451 1.22380 0.14416
 C284 C -0.00213 1.26591 0.18131
 H285 H 0.12053 1.46826 0.36437
 H286 H 0.10359 1.41153 0.28544
 H287 H -0.04586 1.37120 0.34967
 H288 H -0.02878 1.42736 0.42806
 H289 H 0.04250 1.35279 0.23187
 H290 H -0.01651 1.28960 0.31623
 H291 H -0.01194 1.19288 0.29534
 H292 H -0.01589 1.11902 0.23042
 H293 H -0.00258 1.23341 0.10212
 H294 H 0.00061 1.30664 0.16676
 C295 C 0.08810 1.43545 -0.35984
 C296 C 0.07975 1.39974 -0.31786
 C297 C 0.03791 1.36413 -0.31927
 C298 C 0.00303 1.36665 -0.36199
 C299 C 0.01140 1.40182 -0.40386
 C300 C 0.05443 1.43634 -0.40401
 C301 C 0.03105 1.32503 -0.27580
 C302 C 0.00767 1.27755 -0.28368
 C303 C 0.00040 1.23750 -0.24123
 C304 C -0.00536 1.18318 -0.25573
 C305 C -0.01146 1.14398 -0.21672
 C306 C -0.01244 1.15855 -0.16236
 C307 C -0.00851 1.21327 -0.14804
 C308 C -0.00227 1.25235 -0.18702
 H309 H 0.12207 1.46062 -0.35867
 H310 H 0.10682 1.39889 -0.28493
 H311 H -0.03116 1.34184 -0.36311
 H312 H -0.01689 1.40289 -0.43568
 H313 H 0.04818 1.33451 -0.23746
 H314 H -0.00442 1.26596 -0.32354
 H315 H -0.00419 1.17091 -0.29736
 H316 H -0.01466 1.10226 -0.22915
 H317 H -0.00951 1.22605 -0.10657
 H318 H 0.00006 1.29406 -0.17448
 C319 C 0.12099 0.59342 -0.38761
 C320 C 0.11538 0.63132 -0.34654
 C321 C 0.07157 0.63119 -0.31374
 C322 C 0.03555 0.58941 -0.31988
 C323 C 0.04089 0.55171 -0.36118
 C324 C 0.08294 0.55404 -0.39682
 C325 C 0.06385 0.67677 -0.27599
 C326 C 0.01795 0.69012 -0.25493
 C327 C 0.01092 0.73801 -0.22059
 C328 C -0.02217 0.73484 -0.17654
 C329 C -0.02855 0.77901 -0.14241
 C330 C -0.00309 0.82755 -0.15277
 C331 C 0.02823 0.83163 -0.19822
 C332 C 0.03556 0.78695 -0.23176
 H333 H 0.15463 0.59582 -0.41319
 H334 H 0.14432 0.66235 -0.34197
 H335 H 0.00218 0.58634 -0.29422
 H336 H 0.00975 0.52349 -0.36734
 H337 H 0.09682 0.70213 -0.26749
 H338 H -0.01568 0.66551 -0.26184
 H339 H -0.04201 0.69767 -0.16777
 H340 H -0.05318 0.77519 -0.10766
 H341 H 0.04830 0.86872 -0.20676
 H342 H 0.06021 0.79073 -0.26645
 C343 C 0.11535 0.60119 0.39812
 C344 C 0.10726 0.64328 0.36242
 C345 C 0.05794 0.65301 0.34123
 C346 C 0.01701 0.61905 0.35568
 C347 C 0.02522 0.57692 0.39092
 C348 C 0.07421 0.56803 0.41292
 C349 C 0.04995 0.70051 0.30693
 C350 C 0.00952 0.70565 0.27406
 C351 C 0.00189 0.75256 0.23929
 C352 C -0.02445 0.74490 0.19105
 C353 C -0.03032 0.78723 0.15560
 C354 C -0.01070 0.83842 0.16809
 C355 C 0.01323 0.84705 0.21768
 C356 C 0.01966 0.80433 0.25306
 H357 H 0.15323 0.59546 0.41548
 H358 H 0.13932 0.66906 0.35227
 H359 H -0.02200 0.62608 0.34210
 H360 H -0.00743 0.55302 0.40333
 H361 H 0.07938 0.73131 0.30760
 H362 H -0.01731 0.67278 0.26911
 H363 H -0.03918 0.70560 0.18001
 H364 H -0.04945 0.77963 0.11786
 H365 H 0.02856 0.88620 0.22825
 H366 H 0.03859 0.81188 0.29088
   
