data_POSCAR
  _audit_creation_date              2014-09-24
  _audit_creation_method            'ToBaCCo'
  _symmetry_space_group_name_H-M    'P1'
  _symmetry_Int_Tables_number       1
  _symmetry_cell_setting            triclinic
  loop_
  _symmetry_equiv_pos_as_xyz
 x,y,z
_cell_length_a 43.2417
_cell_length_b 43.2402
_cell_length_c 27.6052
_cell_angle_alpha 89.184300
_cell_angle_beta 90.948700
_cell_angle_gamma 119.605200
loop_
  _atom_site_label
  _atom_site_type_symbol
  _atom_site_fract_x
  _atom_site_fract_y
  _atom_site_fract_z
O1 O -0.02530 0.52526 -0.02942
 O2 O 0.03643 0.49364 0.00816
 O3 O -0.02668 0.46469 -0.03252
 O4 O 0.03629 0.55353 0.01517
 O5 O 0.00943 0.53769 0.08586
 O6 O -0.05156 0.44842 0.03937
 O7 O 0.01106 0.47855 0.07987
 O8 O -0.05229 0.50820 0.04106
 Cu9 Cu 0.00782 0.51089 -0.01678
 Cu10 Cu -0.02342 0.49174 0.06870
 C11 C -0.04968 0.52160 -0.00097
 C12 C 0.03450 0.48097 0.05044
 C13 C -0.04989 0.44138 -0.00461
 C14 C 0.03354 0.56062 0.05890
 O15 O 0.46106 0.48459 0.02496
 O16 O 0.55061 0.51671 -0.02374
 O17 O 0.52237 0.54134 0.03699
 O18 O 0.49017 0.45931 -0.03363
 O19 O 0.47618 0.48362 -0.09486
 O20 O 0.50944 0.56632 -0.02451
 O21 O 0.53765 0.54140 -0.08557
 O22 O 0.44806 0.50919 -0.03700
 Cu23 Cu 0.50735 0.49803 0.00735
 Cu24 Cu 0.49172 0.52782 -0.06664
 C25 C 0.43936 0.49156 0.00232
 C26 C 0.55914 0.53395 -0.06350
 C27 C 0.52104 0.56769 0.01853
 C28 C 0.47785 0.45742 -0.07630
 O29 O 0.53670 1.01163 -0.05591
 O30 O 0.44630 0.95227 -0.01205
 O31 O 0.47682 1.01207 -0.05947
 O32 O 0.50671 0.95314 -0.00320
 O33 O 0.52060 0.98488 0.06368
 O34 O 0.48877 1.04176 0.00902
 O35 O 0.45955 0.98190 0.05672
 O36 O 0.54968 1.04339 0.01087
 Cu37 Cu 0.49052 0.97922 -0.03944
 Cu38 Cu 0.50614 1.01612 0.04182
 C39 C 0.55829 1.03809 -0.03081
 C40 C 0.43758 0.95666 0.02984
 C41 C 0.47753 1.03691 -0.03452
 C42 C 0.51809 0.95867 0.04034
 O43 O 0.94387 0.49864 0.46062
 O44 O 1.00283 0.46450 0.42299
 O45 O 0.94023 0.43678 0.46336
 O46 O 1.00515 0.52527 0.41739
 O47 O 1.03192 0.53915 0.48890
 O48 O 0.96704 0.44982 0.53495
 O49 O 1.02916 0.47757 0.49493
 O50 O 0.97039 0.51129 0.53240
 Cu51 Cu 0.97031 0.47992 0.43394
 Cu52 Cu 1.00234 0.49591 0.51995
 C53 C 0.94681 0.51027 0.50341
 C54 C 1.02627 0.46560 0.45247
 C55 C 0.94237 0.42822 0.50693
 C56 C 1.02989 0.54723 0.44492
 O57 O 0.52785 0.51000 0.40359
 O58 O 0.49807 0.42686 0.47251
 O59 O 0.46923 0.44973 0.40774
 O60 O 0.55664 0.48753 0.46969
 O61 O 0.53634 0.50628 0.52879
 O62 O 0.45027 0.47124 0.46502
 O63 O 0.47747 0.44676 0.52980
 O64 O 0.50986 0.53114 0.46256
 Cu65 Cu 0.51497 0.46654 0.43256
 Cu66 Cu 0.49156 0.49104 0.50225
 C67 C 0.52364 0.53460 0.42111
 C68 C 0.48294 0.42272 0.51303
 C69 C 0.44505 0.45455 0.42551
 C70 C 0.56093 0.50232 0.51058
 O71 O 0.45828 -0.02512 0.44897
 O72 O 0.55153 0.04076 0.47958
 O73 O 0.51996 -0.02045 0.43461
 O74 O 0.49019 0.03774 0.48714
 O75 O 0.48477 0.01217 0.55874
 O76 O 0.51401 -0.04717 0.50532
 O77 O 0.54509 0.01399 0.55040
 O78 O 0.45296 -0.05106 0.52024
 Cu79 Cu 0.50565 0.01078 0.45540
 Cu80 Cu 0.49872 -0.02067 0.54071
 C81 C 0.43980 -0.04926 0.47970
 C82 C 0.56382 0.03887 0.52100
 C83 C 0.52162 -0.04405 0.46048
 C84 C 0.48264 0.03518 0.53171
 C85 C 0.22269 0.44629 0.26662
 C86 C 0.22727 0.44699 0.21762
 C87 C 0.19981 0.44606 0.18344
 C88 C 0.26072 0.45178 0.19625
 C89 C 0.24810 0.44431 0.30190
 C90 C 0.19302 0.44993 0.28687
 C91 C 0.16417 0.41898 0.18670
 C92 C 0.13752 0.42174 0.16095
 C93 C 0.14616 0.45157 0.13117
 C94 C 0.18213 0.47696 0.12477
 C95 C 0.20875 0.47428 0.15074
 C96 C 0.25929 0.42998 0.15810
 C97 C 0.29062 0.43443 0.13768
 C98 C 0.32391 0.46079 0.15523
 C99 C 0.32532 0.48263 0.19320
 C100 C 0.29404 0.47870 0.21283
 C101 C 0.26202 0.46872 0.34006
 C102 C 0.28806 0.46919 0.37111
 C103 C 0.30092 0.44544 0.36456
 C104 C 0.28568 0.41973 0.32786
 C105 C 0.25935 0.41907 0.29701
 C106 C 0.18843 0.47885 0.27328
 C107 C 0.15881 0.48063 0.28862
 C108 C 0.13398 0.45434 0.31938
 C109 C 0.13930 0.42612 0.33473
 C110 C 0.16868 0.42398 0.31855
 H111 H 0.15685 0.39655 0.21091
 H112 H 0.11023 0.40087 0.16517
 H113 H 0.18953 0.49987 0.10146
 H114 H 0.23611 0.49531 0.14742
 H115 H 0.23390 0.40926 0.14449
 H116 H 0.28880 0.41689 0.10883
 H117 H 0.29586 0.49666 0.24108
 H118 H 0.25360 0.48826 0.34487
 H119 H 0.29903 0.48898 0.39943
 H120 H 0.29395 0.40014 0.32281
 H121 H 0.24823 0.39932 0.26869
 H122 H 0.20740 0.49961 0.24978
 H123 H 0.15535 0.50271 0.27661
 H124 H 0.12029 0.40519 0.35794
 H125 H 0.17189 0.40158 0.32957
 H126 H 0.35069 0.50324 0.20702
 C127 C 0.55723 0.77409 0.28017
 C128 C 0.55655 0.77553 0.23069
 C129 C 0.55546 0.74709 0.19970
 C130 C 0.55451 0.80469 0.20432
 C131 C 0.55743 0.80249 0.31042
 C132 C 0.55557 0.74326 0.30718
 C133 C 0.58130 0.73646 0.20364
 C134 C 0.57959 0.70985 0.17343
 C135 C 0.55249 0.69396 0.13819
 C136 C 0.52662 0.70463 0.13460
 C137 C 0.52826 0.73099 0.16479
 C138 C 0.57904 0.82363 0.16771
 C139 C 0.57653 0.85005 0.14110
 C140 C 0.54967 0.85822 0.15094
 C141 C 0.52466 0.83875 0.18701
 C142 C 0.52692 0.81205 0.21317
 C143 C 0.53089 0.79323 0.34520
 C144 C 0.52977 0.81933 0.37311
 C145 C 0.55548 0.85541 0.36718
 C146 C 0.58227 0.86461 0.33271
 C147 C 0.58349 0.83839 0.30494
 C148 C 0.52912 0.70818 0.29692
 C149 C 0.52694 0.67978 0.32436
 C150 C 0.55046 0.68605 0.36353
 C151 C 0.57619 0.72107 0.37463
 C152 C 0.57897 0.74938 0.34641
 H153 H 0.60274 0.74877 0.22998
 H154 H 0.59963 0.70187 0.17729
 H155 H 0.50455 0.69216 0.10928
 H156 H 0.50788 0.73855 0.16136
 H157 H 0.60012 0.81788 0.15973
 H158 H 0.59576 0.86434 0.11304
 H159 H 0.50689 0.79681 0.23991
 H160 H 0.51043 0.76573 0.34991
 H161 H 0.50805 0.81117 0.39810
 H162 H 0.60224 0.89219 0.32716
 H163 H 0.60451 0.84612 0.27881
 H164 H 0.50970 0.70279 0.26835
 H165 H 0.50609 0.65305 0.31603
 H166 H 0.59425 0.72647 0.40506
 H167 H 0.59918 0.77622 0.35556
 H168 H 0.50282 0.84346 0.19422
 C169 C 0.21523 0.77710 0.28386
 C170 C 0.21987 0.77828 0.23485
 C171 C 0.25372 0.80553 0.21239
 C172 C 0.19216 0.75173 0.20207
 C173 C 0.18692 0.74495 0.30875
 C174 C 0.24070 0.80707 0.31470
 C175 C 0.25332 0.82695 0.17399
 C176 C 0.28526 0.85379 0.15471
 C177 C 0.31810 0.85953 0.17361
 C178 C 0.31838 0.83762 0.21134
 C179 C 0.28654 0.81046 0.22991
 C180 C 0.15656 0.74363 0.20528
 C181 C 0.13031 0.71691 0.17661
 C182 C 0.13915 0.69815 0.14365
 C183 C 0.17505 0.70707 0.13947
 C184 C 0.20127 0.73378 0.16819
 C185 C 0.18151 0.71095 0.29794
 C186 C 0.15491 0.68080 0.32103
 C187 C 0.13352 0.68403 0.35618
 C188 C 0.14000 0.71809 0.36868
 C189 C 0.16636 0.74830 0.34500
 C190 C 0.25999 0.80106 0.35131
 C191 C 0.28889 0.82972 0.37388
 C192 C 0.29864 0.86495 0.36058
 C193 C 0.27777 0.87075 0.32618
 C194 C 0.24883 0.84209 0.30376
 H195 H 0.22830 0.82347 0.15981
 H196 H 0.28419 0.87062 0.12610
 H197 H 0.34333 0.84142 0.22629
 H198 H 0.28750 0.79362 0.25861
 H199 H 0.14902 0.75755 0.23067
 H200 H 0.10290 0.71050 0.18072
 H201 H 0.22856 0.73954 0.16525
 H202 H 0.19804 0.70772 0.27174
 H203 H 0.15152 0.65504 0.31192
 H204 H 0.12421 0.72125 0.39617
 H205 H 0.17050 0.77428 0.35464
 H206 H 0.25423 0.77425 0.36005
 H207 H 0.30461 0.82394 0.39940
 H208 H 0.28466 0.89755 0.31530
 H209 H 0.23398 0.84721 0.27587
 H210 H 0.18296 0.69267 0.11560
 C211 C 0.77971 0.56199 0.76915
 C212 C 0.77779 0.55559 0.72074
 C213 C 0.80369 0.54814 0.69628
 C214 C 0.74745 0.55214 0.69103
 C215 C 0.74969 0.56193 0.79405
 C216 C 0.80993 0.56567 0.79999
 C217 C 0.82170 0.56760 0.65497
 C218 C 0.84687 0.56125 0.63283
 C219 C 0.85429 0.53518 0.65168
 C220 C 0.83582 0.51539 0.69248
 C221 C 0.81033 0.52136 0.71409
 C222 C 0.74920 0.58186 0.66735
 C223 C 0.72075 0.57815 0.63824
 C224 C 0.68985 0.54490 0.63363
 C225 C 0.68822 0.51519 0.65752
 C226 C 0.71697 0.51876 0.68559
 C227 C 0.71981 0.52949 0.80630
 C228 C 0.69197 0.52894 0.83173
 C229 C 0.69358 0.56093 0.84537
 C230 C 0.72308 0.59342 0.83177
 C231 C 0.75122 0.59392 0.80671
 C232 C 0.80332 0.54384 0.84107
 C233 C 0.83139 0.54429 0.86743
 C234 C 0.86685 0.56692 0.85352
 C235 C 0.87345 0.58968 0.81348
 C236 C 0.84532 0.58936 0.78727
 H237 H 0.81693 0.58830 0.64053
 H238 H 0.86116 0.57743 0.60196
 H239 H 0.84103 0.49512 0.70755
 H240 H 0.79608 0.50539 0.74517
 H241 H 0.77266 0.60778 0.67112
 H242 H 0.72263 0.60131 0.61987
 H243 H 0.71546 0.49552 0.70321
 H244 H 0.71830 0.50459 0.79659
 H245 H 0.66908 0.50347 0.84030
 H246 H 0.72464 0.61835 0.84139
 H247 H 0.77416 0.61915 0.79728
 H248 H 0.77634 0.52517 0.85159
 H249 H 0.82496 0.52565 0.89718
 H250 H 0.90046 0.60730 0.80187
 H251 H 0.85112 0.60681 0.75613
 H252 H 0.66502 0.48909 0.65370
 C253 C 0.44865 0.22244 0.78358
 C254 C 0.45169 0.21886 0.73522
 C255 C 0.45274 0.24553 0.69988
 C256 C 0.45617 0.18931 0.71593
 C257 C 0.44416 0.19424 0.81872
 C258 C 0.45536 0.25677 0.80394
 C259 C 0.42596 0.25492 0.69914
 C260 C 0.42739 0.28044 0.66629
 C261 C 0.45528 0.29667 0.63307
 C262 C 0.48198 0.28698 0.63365
 C263 C 0.48052 0.26147 0.66655
 C264 C 0.43418 0.16800 0.67817
 C265 C 0.43829 0.14017 0.66011
 C266 C 0.46473 0.13337 0.67937
 C267 C 0.48672 0.15480 0.71701
 C268 C 0.48289 0.18283 0.73458
 C269 C 0.46889 0.20232 0.85666
 C270 C 0.46813 0.17527 0.88561
 C271 C 0.44220 0.13952 0.87764
 C272 C 0.41645 0.13170 0.84112
 C273 C 0.41720 0.15884 0.81218
 C274 C 0.49003 0.28588 0.80420
 C275 C 0.49771 0.31696 0.82865
 C276 C 0.47066 0.31986 0.85181
 C277 C 0.43565 0.29118 0.85009
 C278 C 0.42817 0.25958 0.82694
 H279 H 0.40396 0.24249 0.72405
 H280 H 0.40663 0.28755 0.66682
 H281 H 0.50457 0.29965 0.60984
 H282 H 0.50152 0.25469 0.66671
 H283 H 0.41350 0.17263 0.66314
 H284 H 0.42036 0.12371 0.63177
 H285 H 0.50079 0.19950 0.76285
 H286 H 0.49011 0.22935 0.86218
 H287 H 0.48911 0.18248 0.91232
 H288 H 0.39629 0.10443 0.83410
 H289 H 0.39765 0.15210 0.78337
 H290 H 0.51137 0.28391 0.78717
 H291 H 0.52490 0.33867 0.82997
 H292 H 0.41449 0.29266 0.86848
 H293 H 0.40138 0.23715 0.82750
 H294 H 0.50732 0.15019 0.73235
 C295 C 0.77292 0.22790 0.78763
 C296 C 0.77144 0.22369 0.73845
 C297 C 0.73940 0.19504 0.71372
 C298 C 0.80101 0.24930 0.70708
 C299 C 0.80043 0.26144 0.81048
 C300 C 0.74648 0.19998 0.82040
 C301 C 0.74302 0.17492 0.67699
 C302 C 0.71292 0.14792 0.65381
 C303 C 0.67875 0.14058 0.66730
 C304 C 0.67519 0.16105 0.70337
 C305 C 0.70521 0.18851 0.72560
 C306 C 0.83638 0.25827 0.71741
 C307 C 0.86434 0.28558 0.69172
 C308 C 0.85749 0.30383 0.65440
 C309 C 0.82193 0.29363 0.64252
 C310 C 0.79399 0.26652 0.66852
 C311 C 0.80596 0.29453 0.79334
 C312 C 0.83351 0.32604 0.81226
 C313 C 0.85513 0.32512 0.84998
 C314 C 0.84876 0.29203 0.86855
 C315 C 0.82158 0.26043 0.84890
 C316 C 0.72858 0.20892 0.85459
 C317 C 0.70211 0.18263 0.88345
 C318 C 0.69335 0.14675 0.87922
 C319 C 0.71204 0.13809 0.84586
 C320 C 0.73849 0.16441 0.81701
 H321 H 0.76913 0.17975 0.66681
 H322 H 0.71634 0.13217 0.62651
 H323 H 0.64908 0.15592 0.71410
 H324 H 0.70168 0.20453 0.75239
 H325 H 0.84238 0.24497 0.74656
 H326 H 0.89144 0.29293 0.70164
 H327 H 0.76694 0.26011 0.66003
 H328 H 0.78934 0.29594 0.76460
 H329 H 0.83784 0.35123 0.79763
 H330 H 0.86538 0.29053 0.89720
 H331 H 0.81763 0.23519 0.86278
 H332 H 0.73422 0.23617 0.85773
 H333 H 0.68787 0.19052 0.90759
 H334 H 0.70584 0.11074 0.84165
 H335 H 0.75232 0.15694 0.79139
 H336 H 0.81553 0.30757 0.61482
 C337 C 0.06034 0.46965 0.06519
 C338 C 0.05982 0.45587 0.10919
 C339 C 0.08634 0.44615 0.12730
 C340 C 0.11856 0.45783 0.10789
 H341 H 0.03877 0.45127 0.13397
 H342 H 0.07971 0.43108 0.16082
 H343 H 0.08020 0.47316 0.03908
 H344 H 0.12655 0.47557 0.07689
 C345 C 0.53207 0.59948 0.04858
 C346 C 0.52959 0.62762 0.03263
 C347 C 0.53524 0.65789 0.06321
 C348 C 0.55072 0.66524 0.10734
 H349 H 0.52028 0.62757 -0.00405
 H350 H 0.52587 0.67494 0.04773
 H351 H 0.54016 0.59832 0.08551
 H352 H 0.56303 0.65040 0.12141
 C353 C 0.40157 0.93164 0.04694
 C354 C 0.39337 0.92723 0.09389
 C355 C 0.35786 0.89979 0.10993
 C356 C 0.35248 0.88863 0.15600
 H357 H 0.41350 0.94270 0.12084
 H358 H 0.33659 0.88734 0.08334
 H359 H 0.38187 0.91477 0.02038
 H360 H 0.37481 0.89964 0.18122
 C361 C 0.92188 0.52174 0.51988
 C362 C 0.91785 0.52526 0.56702
 C363 C 0.89080 0.53352 0.58441
 C364 C 0.88204 0.52889 0.63124
 H365 H 0.93369 0.52033 0.59362
 H366 H 0.87712 0.54184 0.55868
 H367 H 0.90504 0.52511 0.49328
 H368 H 0.89456 0.51825 0.65546
 C369 C 0.47272 0.39046 0.54228
 C370 C 0.47983 0.36505 0.52832
 C371 C 0.47507 0.33477 0.55914
 C372 C 0.45674 0.32493 0.60058
 H373 H 0.49230 0.36764 0.49365
 H374 H 0.48760 0.32015 0.54636
 H375 H 0.46140 0.38926 0.57732
 H376 H 0.44166 0.33747 0.61137
 C377 C 0.59971 0.06654 0.53599
 C378 C 0.60890 0.07131 0.58293
 C379 C 0.64294 0.10082 0.60024
 C380 C 0.64626 0.11066 0.64659
 H381 H 0.58997 0.05416 0.60985
 H382 H 0.66446 0.11526 0.57505
 H383 H 0.61764 0.08468 0.50897
 H384 H 0.62337 0.09742 0.67004
 C385 C 0.46657 0.05938 0.94411
 C386 C 0.46708 0.08639 0.96832
 C387 C 0.46044 0.11373 0.94568
 C388 C 0.44349 0.10981 0.90318
 H389 H 0.47578 0.09090 1.00587
 H390 H 0.47046 0.13828 0.96552
 H391 H 0.45895 0.05529 0.90622
 H392 H 0.43046 0.08415 0.88568
 C393 C 0.59364 0.54421 0.91432
 C394 C 0.61470 0.53190 0.93155
 C395 C 0.64600 0.53557 0.90588
 C396 C 0.66433 0.56073 0.87264
 H397 H 0.60680 0.51503 0.96353
 H398 H 0.65430 0.51638 0.91552
 H399 H 0.59999 0.55934 0.88085
 H400 H 0.65869 0.58220 0.86613
 C401 C 0.92566 0.40775 0.97815
 C402 C 0.92271 0.39918 0.93130
 C403 C 0.89480 0.36411 0.91459
 C404 C 0.88461 0.35904 0.86811
 H405 H 0.93968 0.41862 0.90466
 H406 H 0.88117 0.34296 0.94093
 H407 H 0.90732 0.38836 1.00379
 H408 H 0.89667 0.38130 0.84299
 C409 C 0.53112 0.93306 0.43819
 C410 C 0.53176 0.90586 0.46136
 C411 C 0.53726 0.87880 0.43657
 C412 C 0.55361 0.88405 0.39379
 H413 H 0.52489 0.90107 0.49936
 H414 H 0.52746 0.85356 0.45521
 H415 H 0.53632 0.93684 0.39972
 H416 H 0.56652 0.91031 0.37750
 C417 C 0.41113 0.44153 0.39879
 C418 C 0.38550 0.44785 0.41370
 C419 C 0.35384 0.43878 0.38331
 C420 C 0.33051 0.44895 0.39622
 H421 H 0.38875 0.46159 0.44757
 H422 H 0.35114 0.42601 0.34884
 H423 H 0.40797 0.42810 0.36468
 H424 H 0.33509 0.46331 0.42988
 C425 C 0.05567 0.58025 0.42672
 C426 C 0.05677 0.58884 0.37954
 C427 C 0.08556 0.62146 0.35738
 C428 C 0.10493 0.65228 0.38074
 H429 H 0.03736 0.56983 0.35446
 H430 H 0.08963 0.62014 0.31903
 H431 H 0.07629 0.59838 0.45128
 H432 H 0.09858 0.65498 0.41767
 C433 C 0.92390 0.53181 0.98292
 C434 C 0.92527 0.54628 0.93927
 C435 C 0.89601 0.55174 0.92128
 C436 C 0.89714 0.56521 0.87691
 H437 H 0.94732 0.55251 0.91547
 H438 H 0.87305 0.54352 0.94401
 H439 H 0.90187 0.52572 1.00668
 H440 H 0.92122 0.57470 0.85601
 C441 C 0.46630 0.42660 0.89635
 C442 C 0.47250 0.40031 0.91012
 C443 C 0.46155 0.36879 0.87970
 C444 C 0.48015 0.35165 0.88112
 H445 H 0.48757 0.40271 0.94304
 H446 H 0.43910 0.36033 0.85500
 H447 H 0.45342 0.42483 0.86165
 H448 H 0.50433 0.36228 0.90284
 C449 C 0.59301 0.06319 0.94801
 C450 C 0.61618 0.09390 0.96928
 C451 C 0.64861 0.12220 0.94559
 C452 C 0.66337 0.11743 0.90595
 H453 H 0.60984 0.10020 1.00429
 H454 H 0.66043 0.14810 0.96223
 H455 H 0.59795 0.05704 0.91213
 H456 H 0.65333 0.09090 0.89192
 C457 C 0.05126 0.45390 0.43747
 C458 C 0.05860 0.45302 0.39093
 C459 C 0.08745 0.44634 0.37706
 C460 C 0.10255 0.45684 0.33369
 H461 H 0.04512 0.45998 0.36300
 H462 H 0.09803 0.43524 0.40365
 H463 H 0.06632 0.44906 0.46539
 H464 H 0.09328 0.47039 0.30909
 C465 C 0.53355 0.56665 0.39159
 C466 C 0.53428 0.59558 0.40930
 C467 C 0.53982 0.62521 0.37704
 C468 C 0.54717 0.65668 0.39490
 H469 H 0.52979 0.59706 0.44751
 H470 H 0.53760 0.62114 0.33818
 H471 H 0.53928 0.56594 0.35366
 H472 H 0.55184 0.66141 0.43349
 C473 C 0.40287 0.92372 0.46870
 C474 C 0.38554 0.92488 0.42890
 C475 C 0.34979 0.89527 0.41764
 C476 C 0.33221 0.89588 0.37771
 H477 H 0.39823 0.94700 0.40368
 H478 H 0.33842 0.87243 0.44172
 H479 H 0.38975 0.90166 0.49394
 H480 H 0.34349 0.91983 0.35558
 C481 C 0.52705 0.93350 0.06454
 C482 C 0.53150 0.93385 0.11279
 C483 C 0.53527 0.90644 0.14045
 C484 C 0.54745 0.88609 0.12192
 H485 H 0.52919 0.95343 0.13413
 H486 H 0.52862 0.90396 0.17847
 H487 H 0.52688 0.91274 0.04290
 H488 H 0.55753 0.89084 0.08534
 C489 C 0.40377 0.47969 0.02170
 C490 C 0.39642 0.47159 0.06848
 C491 C 0.36155 0.46302 0.08769
 C492 C 0.35754 0.46601 0.13496
 H493 H 0.41690 0.47331 0.09331
 H494 H 0.33963 0.45641 0.06263
 H495 H 0.38384 0.47996 -0.00239
 H496 H 0.38047 0.47543 0.15902
 C497 C 0.05883 0.59530 0.07981
 C498 C 0.08674 0.62020 0.05528
 C499 C 0.11487 0.65326 0.07768
 C500 C 0.11003 0.66770 0.11755
 H501 H 0.09101 0.61505 0.01840
 H502 H 0.14036 0.66593 0.05994
 H503 H 0.05531 0.59916 0.11752
 H504 H 0.08359 0.65686 0.13220
 C505 C 0.47168 0.05971 0.55133
 C506 C 0.47153 0.06549 0.59871
 C507 C 0.46313 0.09263 0.61582
 C508 C 0.46999 0.10413 0.66155
 H509 H 0.47916 0.05139 0.62474
 H510 H 0.45310 0.10467 0.58988
 H511 H 0.46543 0.07507 0.52560
 H512 H 0.48225 0.09339 0.68605
 C513 C 0.59433 0.51357 0.53789
 C514 C 0.59531 0.51566 0.58634
 C515 C 0.62610 0.52074 0.61610
 C516 C 0.65997 0.54135 0.60282
 H517 H 0.57125 0.50937 0.60562
 H518 H 0.62039 0.50801 0.65143
 H519 H 0.61719 0.51641 0.51854
 H520 H 0.66600 0.55717 0.56993
 C521 C 0.91505 0.39315 0.52485
 C522 C 0.91617 0.38123 0.56942
 C523 C 0.88633 0.34772 0.58770
 C524 C 0.88791 0.33513 0.63168
 H525 H 0.93863 0.39688 0.59324
 H526 H 0.86272 0.33378 0.56524
 H527 H 0.89270 0.37712 0.50106
 H528 H 0.91256 0.34856 0.65234
   
