data_POSCAR
  _audit_creation_date              2014-09-24
  _audit_creation_method            'ToBaCCo'
  _symmetry_space_group_name_H-M    'P1'
  _symmetry_Int_Tables_number       1
  _symmetry_cell_setting            triclinic
  loop_
  _symmetry_equiv_pos_as_xyz
 x,y,z
_cell_length_a 18.7596
_cell_length_b 20.8960
_cell_length_c 19.4655
_cell_angle_alpha 91.873200
_cell_angle_beta 89.903100
_cell_angle_gamma 90.873700
loop_
  _atom_site_label
  _atom_site_type_symbol
  _atom_site_fract_x
  _atom_site_fract_y
  _atom_site_fract_z
C1 C 1.24748 0.25717 0.25441
 C2 C 0.74545 -0.24388 0.24494
 C3 C 0.77251 0.24342 -0.25618
 C4 C 1.26415 -0.25934 -0.23749
 C5 C 0.22701 0.25086 0.74013
 C6 C 0.73883 0.75652 0.75199
 C7 C 0.75534 0.25314 0.25261
 C8 C 0.26096 0.74738 0.24543
 N9 N 1.15031 0.05573 0.06835
 N10 N 1.20187 0.09915 0.07505
 N11 N 1.09487 -0.07334 0.11883
 N12 N 1.12154 -0.10626 0.16939
 N13 N 1.13614 -0.07829 0.06447
 N14 N 1.19109 -0.11451 0.07695
 N15 N 1.10538 0.06066 0.11977
 N16 N 1.12411 0.10755 0.16293
 C17 C 1.18383 0.13108 0.13384
 C18 C 1.18020 -0.13369 0.14150
 N19 N 0.88898 -0.06099 0.09408
 N20 N 0.83897 -0.10133 0.11473
 N21 N 0.95482 0.07044 0.13799
 N22 N 0.94728 0.11103 0.19086
 N23 N 0.90031 0.07336 0.09597
 N24 N 0.85440 0.11625 0.11878
 N25 N 0.94441 -0.06239 0.13518
 N26 N 0.93421 -0.10269 0.18469
 Mn27 Mn 1.02491 -0.00103 0.12821
 C28 C 0.86918 -0.12704 0.17064
 C29 C 0.88521 0.13979 0.17720
 N30 N 1.11951 -0.07788 -0.08134
 N31 N 1.16475 -0.12202 -0.10235
 N32 N 1.08072 0.06110 -0.11927
 N33 N 1.09587 0.10643 -0.16327
 N34 N 1.13413 0.05507 -0.07648
 N35 N 1.18676 0.09496 -0.08985
 N36 N 1.06640 -0.07369 -0.12486
 N37 N 1.07439 -0.11496 -0.17710
 Mn38 Mn 1.13519 -0.01154 -0.00638
 C39 C 1.13517 -0.14523 -0.16131
 C40 C 1.16187 0.12721 -0.14292
 N41 N 0.88236 0.07342 -0.05151
 N42 N 0.83302 0.11685 -0.06067
 N43 N 0.91253 -0.06368 -0.10801
 N44 N 0.88626 -0.10463 -0.15511
 N45 N 0.87006 -0.06057 -0.05411
 N46 N 0.81386 -0.09858 -0.06312
 N47 N 0.92604 0.07058 -0.10451
 N48 N 0.90702 0.11148 -0.15133
 Mn49 Mn 0.88473 0.00620 0.02117
 Mn50 Mn 0.99639 -0.00131 -0.11515
 Cl51 Cl 1.00991 -0.00202 0.00665
 C52 C 0.84984 0.14063 -0.12252
 C53 C 0.82524 -0.12622 -0.12559
 N54 N 1.13601 0.56064 0.56466
 N55 N 1.19247 0.59782 0.57560
 N56 N 1.07375 0.42989 0.60387
 N57 N 1.09014 0.38436 0.64633
 N58 N 1.11608 0.42793 0.55010
 N59 N 1.16160 0.38081 0.55362
 N60 N 1.09183 0.56380 0.61706
 N61 N 1.11703 0.60412 0.66530
 C62 C 1.17936 0.62520 0.63775
 C63 C 1.14398 0.35373 0.61314
 N64 N 0.86820 0.45164 0.57418
 N65 N 0.81503 0.41110 0.58462
 N66 N 0.93825 0.57678 0.63208
 N67 N 0.92922 0.61443 0.68721
 N68 N 0.88658 0.58470 0.58777
 N69 N 0.84147 0.62799 0.61097
 N70 N 0.92052 0.44284 0.61755
 N71 N 0.90444 0.39531 0.65856
 Mn72 Mn 1.00619 0.50335 0.61865
 C73 C 0.83869 0.37595 0.63652
 C74 C 0.86949 0.64665 0.67223
 N75 N 1.10366 0.43820 0.40580
 N76 N 1.14586 0.39164 0.38531
 N77 N 1.07185 0.58045 0.37508
 N78 N 1.09296 0.62319 0.32996
 N79 N 1.12276 0.57109 0.41981
 N80 N 1.17900 0.60679 0.40711
 N81 N 1.05304 0.44676 0.36078
 N82 N 1.05980 0.40629 0.30757
 Mn83 Mn 1.11976 0.49938 0.48501
 C84 C 1.11716 0.37171 0.32477
 C85 C 1.15944 0.63983 0.35247
 N86 N 0.87486 0.59523 0.44218
 N87 N 0.82574 0.63896 0.43557
 N88 N 0.90139 0.45987 0.37594
 N89 N 0.88333 0.41303 0.33184
 N90 N 0.85669 0.46220 0.42798
 N91 N 0.80638 0.41794 0.42057
 N92 N 0.91774 0.59371 0.38862
 N93 N 0.89778 0.63591 0.34354
 Mn94 Mn 0.87122 0.52354 0.50800
 Mn95 Mn 0.98583 0.52045 0.37413
 Cl96 Cl 0.99569 0.51192 0.49659
 C97 C 0.84155 0.66459 0.37480
 C98 C 0.82409 0.38778 0.36094
 N99 N 0.61445 0.06753 0.57446
 N100 N 0.66383 0.11015 0.59537
 N101 N 0.56971 -0.07480 0.60552
 N102 N 0.59067 -0.11667 0.65071
 N103 N 0.61846 -0.06739 0.55740
 N104 N 0.67358 -0.10434 0.56901
 N105 N 0.56721 0.05906 0.62374
 N106 N 0.58292 0.09530 0.67853
 C107 C 0.64211 0.12774 0.65999
 C108 C 0.65478 -0.13563 0.62637
 N109 N 0.36175 -0.07425 0.56711
 N110 N 0.30836 -0.11361 0.58048
 N111 N 0.41407 0.05498 0.62978
 N112 N 0.40540 0.09669 0.68126
 N113 N 0.36279 0.05951 0.58437
 N114 N 0.31773 0.10478 0.60354
 N115 N 0.41363 -0.07941 0.61178
 N116 N 0.39632 -0.12298 0.65711
 Mn117 Mn 0.49116 -0.01046 0.61804
 C118 C 0.33123 -0.14461 0.63541
 C119 C 0.34586 0.12764 0.66367
 N120 N 0.60849 -0.05683 0.40775
 N121 N 0.65447 -0.10071 0.38617
 N122 N 0.55210 0.07941 0.37926
 N123 N 0.56390 0.11882 0.32900
 N124 N 0.60678 0.07879 0.42167
 N125 N 0.65772 0.11837 0.39981
 N126 N 0.55540 -0.05382 0.36392
 N127 N 0.56391 -0.09443 0.31148
 Mn128 Mn 0.61314 0.00587 0.49030
 C129 C 0.62487 -0.12395 0.32649
 C130 C 0.62866 0.14393 0.34286
 N131 N 0.35393 0.07015 0.43813
 N132 N 0.30266 0.11207 0.43195
 N133 N 0.40316 -0.05993 0.37236
 N134 N 0.40411 -0.11293 0.33350
 N135 N 0.35616 -0.06494 0.42204
 N136 N 0.32466 -0.12198 0.41875
 N137 N 0.40054 0.07511 0.38833
 N138 N 0.38288 0.12115 0.34701
 Mn139 Mn 0.35822 -0.00208 0.50279
 Mn140 Mn 0.47765 0.01020 0.37583
 Cl141 Cl 0.48569 0.00097 0.49699
 C142 C 0.32247 0.14428 0.37590
 C143 C 0.35352 -0.15021 0.36200
 N144 N 0.64245 0.56040 0.05195
 N145 N 0.69135 0.60639 0.05879
 N146 N 0.60064 0.42626 0.10574
 N147 N 0.61990 0.38435 0.15111
 N148 N 0.64360 0.42529 0.05231
 N149 N 0.69428 0.38279 0.06065
 N150 N 0.60010 0.56079 0.10574
 N151 N 0.61795 0.60715 0.15014
 C152 C 0.67417 0.63547 0.11971
 C153 C 0.67753 0.35694 0.12186
 N154 N 0.39374 0.42312 0.09071
 N155 N 0.34770 0.38017 0.11280
 N156 N 0.45065 0.55934 0.12964
 N157 N 0.44689 0.60507 0.17778
 N158 N 0.39333 0.55785 0.09107
 N159 N 0.34844 0.60267 0.11214
 N160 N 0.45117 0.42496 0.12912
 N161 N 0.44642 0.38312 0.17818
 Mn162 Mn 0.52578 0.49280 0.11783
 C163 C 0.38221 0.35523 0.16649
 C164 C 0.38348 0.63200 0.16563
 N165 N 0.61955 0.42044 -0.09600
 N166 N 0.66791 0.37980 -0.11964
 N167 N 0.56104 0.55315 -0.13524
 N168 N 0.56451 0.59645 -0.18315
 N169 N 0.61804 0.55664 -0.09589
 N170 N 0.66150 0.60326 -0.11583
 N171 N 0.56281 0.41840 -0.13585
 N172 N 0.57188 0.37720 -0.18815
 Mn173 Mn 0.63191 0.49070 -0.02211
 C174 C 0.63677 0.35237 -0.17631
 C175 C 0.62657 0.62806 -0.16978
 N176 N 0.36809 0.55168 -0.05480
 N177 N 0.31735 0.59429 -0.05953
 N178 N 0.40871 0.41607 -0.11030
 N179 N 0.38100 0.37627 -0.15774
 N180 N 0.36755 0.41817 -0.05537
 N181 N 0.31097 0.38040 -0.06436
 N182 N 0.40916 0.55108 -0.10960
 N183 N 0.38803 0.59413 -0.15294
 Mn184 Mn 0.38017 0.48769 0.01803
 Mn185 Mn 0.48534 0.48448 -0.12334
 Cl186 Cl 0.50595 0.48868 -0.00280
 C187 C 0.33141 0.62079 -0.12034
 C188 C 0.32103 0.35350 -0.12750
 N189 N 1.20193 0.21219 0.21631
 N190 N 1.22687 0.17943 0.16596
 N191 N 1.21177 0.70230 0.72290
 N192 N 1.23013 0.66581 0.67279
 N193 N 0.73025 0.20724 0.69148
 N194 N 0.68200 0.16726 0.70853
 N195 N 0.69638 0.71290 0.20777
 N196 N 0.71753 0.68322 0.15343
 N197 N 0.78009 -0.20212 0.19649
 N198 N 0.83460 -0.16974 0.21516
 N199 N 0.81979 0.28908 0.71015
 N200 N 0.79517 0.32837 0.66798
 N201 N 0.31014 -0.22159 0.71832
 N202 N 0.28533 -0.18539 0.67345
 N203 N 0.28417 0.29845 0.20666
 N204 N 0.34995 0.31238 0.21262
 N205 N 0.81681 0.19841 -0.21951
 N206 N 0.80654 0.18561 -0.15666
 N207 N 0.79879 0.71742 0.27833
 N208 N 0.79374 0.70587 0.34183
 N209 N 0.29824 0.22078 0.29362
 N210 N 0.27646 0.18709 0.34285
 N211 N 0.30950 0.69799 -0.20050
 N212 N 0.28657 0.66634 -0.15033
 N213 N 1.22710 -0.21638 -0.18938
 N214 N 1.16973 -0.18951 -0.20684
 N215 N 1.20489 0.29693 0.30070
 N216 N 1.15192 0.32779 0.27913
 N217 N 0.70779 -0.20431 0.29645
 N218 N 0.65804 -0.16770 0.27895
 N219 N 0.72683 0.27912 -0.20706
 N220 N 0.67363 0.31182 -0.22517
 N221 N 1.18042 0.21186 -0.21772
 N222 N 1.20610 0.17033 -0.17922
 N223 N 1.20072 0.71946 0.27369
 N224 N 1.21135 0.67545 0.31605
 N225 N 0.71996 0.21687 0.30690
 N226 N 0.66534 0.18199 0.29354
 N227 N 0.70497 0.71478 -0.19739
 N228 N 0.65610 0.67452 -0.21520
 N229 N 0.78995 -0.19956 -0.21381
 N230 N 0.77501 -0.16939 -0.15807
 N231 N 0.80470 0.29975 0.28409
 N232 N 0.78140 0.33787 0.33074
 N233 N 0.30560 -0.23404 0.29638
 N234 N 0.34448 -0.21656 0.34447
 N235 N 0.28151 0.28536 -0.21862
 N236 N 0.26729 0.31590 -0.16282
 N237 N 1.24479 -0.20064 0.21159
 N238 N 1.23931 -0.14975 0.18235
 N239 N 1.18310 0.29738 0.70681
 N240 N 1.18645 0.30628 0.64276
 N241 N 0.68534 -0.20626 0.71583
 N242 N 0.70293 -0.17542 0.66259
 N243 N 0.70359 0.28830 0.21265
 N244 N 0.72333 0.31537 0.15772
 N245 N 0.79344 0.20934 0.20649
 N246 N 0.85142 0.18370 0.22369
 N247 N 0.77745 0.71640 0.70244
 N248 N 0.83385 0.68805 0.71995
 N249 N 0.26220 0.20877 0.68935
 N250 N 0.31255 0.17337 0.70847
 N251 N 0.29253 0.70322 0.20029
 N252 N 0.35408 0.68037 0.21023
   
