data_POSCAR
  _audit_creation_date              2014-09-24
  _audit_creation_method            'ToBaCCo'
  _symmetry_space_group_name_H-M    'P1'
  _symmetry_Int_Tables_number       1
  _symmetry_cell_setting            triclinic
  loop_
  _symmetry_equiv_pos_as_xyz
 x,y,z
_cell_length_a 21.1351
_cell_length_b 21.2125
_cell_length_c 23.6879
_cell_angle_alpha 89.995400
_cell_angle_beta 90.200700
_cell_angle_gamma 120.128200
loop_
  _atom_site_label
  _atom_site_type_symbol
  _atom_site_fract_x
  _atom_site_fract_y
  _atom_site_fract_z
O1 O 0.35017 0.55703 0.29604
 O2 O 0.23017 0.56013 0.31434
 C3 C 0.19619 0.59388 0.32472
 O4 O 0.20524 0.64840 0.29588
 O5 O 0.32864 0.76832 0.31457
 C6 C 0.39665 0.80231 0.32521
 O7 O 0.44231 0.79317 0.29662
 O8 O 0.43898 0.67032 0.31488
 C9 C 0.40501 0.60253 0.32506
 O10 O 0.32863 0.56054 0.18387
 O11 O 0.20511 0.55676 0.20218
 C12 C 0.19556 0.60185 0.17305
 O13 O 0.22996 0.66967 0.18372
 O14 O 0.34988 0.79290 0.20248
 C15 C 0.40486 0.80240 0.17390
 O16 O 0.43896 0.76875 0.18442
 O17 O 0.44231 0.64922 0.20269
 C18 C 0.39665 0.59454 0.17370
 Cr19 Cr 0.28047 0.56250 0.24911
 Cr20 Cr 0.28037 0.71788 0.24917
 Cr21 Cr 0.43675 0.71842 0.24964
 O22 O 0.33256 0.66629 0.24935
 O23 O 0.55982 0.33017 0.68540
 O24 O 0.55672 0.20723 0.70225
 C25 C 0.60251 0.19729 0.67482
 O26 O 0.67029 0.23000 0.68570
 O27 O 0.79384 0.35019 0.70275
 C28 C 0.80380 0.40578 0.67520
 O29 O 0.77121 0.44068 0.68591
 O30 O 0.65080 0.44346 0.70248
 C31 C 0.59490 0.39770 0.67478
 O32 O 0.55686 0.34967 0.79785
 O33 O 0.55994 0.22981 0.81471
 C34 C 0.59506 0.19739 0.82551
 O35 O 0.65094 0.20757 0.79812
 O36 O 0.77144 0.33081 0.81519
 C37 C 0.80411 0.39834 0.82600
 O38 O 0.79401 0.44389 0.79844
 O39 O 0.67047 0.44051 0.81498
 C40 C 0.60270 0.40543 0.82551
 Cr41 Cr 0.56244 0.28128 0.75006
 Cr42 Cr 0.71958 0.28168 0.75044
 Cr43 Cr 0.71958 0.43804 0.75045
 O44 O 0.66720 0.33367 0.75033
 C45 C 0.52548 -0.05556 0.43022
 C46 C 0.47691 -0.04360 0.46216
 C47 C 0.40212 -0.08190 0.44938
 C48 C 0.37591 -0.13199 0.40482
 C49 C 0.42430 -0.14442 0.37236
 C50 C 0.49945 -0.10560 0.38564
 C51 C 0.50386 0.00800 0.50800
 C52 C 0.52652 0.05128 0.54634
 C53 C 0.55307 0.10204 0.59118
 C54 C 0.57570 0.14548 0.62941
 H55 H 0.58349 -0.02621 0.43977
 H56 H 0.36404 -0.07306 0.47386
 H57 H 0.31777 -0.16095 0.39585
 H58 H 0.53822 -0.11386 0.36165
 C59 C 1.08116 0.48413 0.44933
 C60 C 1.04300 0.52043 0.46192
 C61 C 1.05468 0.58055 0.42963
 C62 C 1.10436 0.60438 0.38493
 C63 C 1.14310 0.56829 0.37187
 C64 C 1.13089 0.50783 0.40465
 C65 C 0.99185 0.49601 0.50795
 C66 C 0.94894 0.47556 0.54644
 C67 C 0.89858 0.45150 0.59143
 C68 C 0.85541 0.43078 0.62976
 H69 H 1.07253 0.43752 0.47408
 H70 H 1.02543 0.60906 0.43903
 H71 H 1.11247 0.65114 0.36069
 H72 H 1.15980 0.47885 0.39586
 C73 C 0.51561 0.59707 0.44966
 C74 C 0.47911 0.52251 0.46196
 C75 C 0.41852 0.47410 0.42954
 C76 C 0.39445 0.50005 0.38496
 C77 C 0.43076 0.57496 0.37217
 C78 C 0.49166 0.62320 0.40510
 C79 C 0.50380 0.49566 0.50783
 C80 C 0.52447 0.47310 0.54620
 C81 C 0.54876 0.44670 0.59106
 C82 C 0.56968 0.42424 0.62933
 H83 H 0.56257 0.63503 0.47452
 H84 H 0.38985 0.41627 0.43872
 H85 H 0.34736 0.46141 0.36060
 H86 H 0.52083 0.68115 0.39651
 C87 C 0.41825 -0.05588 1.06933
 C88 C 0.47907 -0.04344 1.03748
 C89 C 0.51573 -0.08128 1.05018
 C90 C 0.49172 -0.13140 1.09457
 C91 C 0.43061 -0.14431 1.12693
 C92 C 0.39412 -0.10594 1.11374
 C93 C 0.50384 0.00817 0.99181
 C94 C 0.52458 0.05146 0.95360
 C95 C 0.54894 0.10221 0.90892
 C96 C 0.56987 0.14563 0.87080
 H97 H 0.38945 -0.02689 1.05984
 H98 H 0.56287 -0.07207 1.02576
 H99 H 0.52103 -0.16000 1.10348
 H100 H 0.34686 -0.11459 1.13767
 C101 C 1.08398 0.59823 1.05180
 C102 C 1.04539 0.52373 1.03939
 C103 C 1.05705 0.47543 1.07182
 C104 C 1.10713 0.50134 1.11656
 C105 C 1.14677 0.57655 1.12983
 C106 C 1.13417 0.62455 1.09648
 C107 C 0.99373 0.49679 0.99338
 C108 C 0.95040 0.47417 0.95489
 C109 C 0.89958 0.44767 0.90990
 C110 C 0.85606 0.42509 0.87154
 H111 H 1.07532 0.63611 1.02689
 H112 H 1.02740 0.41758 1.06253
 H113 H 1.11457 0.46204 1.14057
 H114 H 1.16298 0.68269 1.10462
 C115 C 0.40221 0.48442 1.04945
 C116 C 0.47704 0.52084 1.03726
 C117 C 0.52559 0.58127 1.06960
 C118 C 0.49951 0.60525 1.11400
 C119 C 0.42433 0.56899 1.12670
 C120 C 0.37595 0.50827 1.09384
 C121 C 0.50405 0.49620 0.99163
 C122 C 0.52675 0.47557 0.95346
 C123 C 0.55334 0.45135 0.90883
 C124 C 0.57597 0.43051 0.87076
 H125 H 0.36414 0.43757 1.02466
 H126 H 0.58363 0.60988 1.06050
 H127 H 0.53827 0.65221 1.13832
 H128 H 0.31779 0.47915 1.10236
   
