data_POSCAR
  _audit_creation_date              2014-09-24
  _audit_creation_method            'ToBaCCo'
  _symmetry_space_group_name_H-M    'P1'
  _symmetry_Int_Tables_number       1
  _symmetry_cell_setting            triclinic
  loop_
  _symmetry_equiv_pos_as_xyz
 x,y,z
_cell_length_a 62.2390
_cell_length_b 40.0937
_cell_length_c 25.4843
_cell_angle_alpha 89.960500
_cell_angle_beta 89.975300
_cell_angle_gamma 90.032000
loop_
  _atom_site_label
  _atom_site_type_symbol
  _atom_site_fract_x
  _atom_site_fract_y
  _atom_site_fract_z
O1 O 0.75921 0.20966 0.55000
 O2 O 0.72329 0.24272 0.44770
 O3 O 0.75939 0.20960 0.44811
 O4 O 0.72313 0.24281 0.54961
 O5 O 0.74119 0.29015 0.54961
 O6 O 0.77743 0.25690 0.44811
 O7 O 0.74135 0.29007 0.44770
 O8 O 0.77727 0.25700 0.55001
 Cu9 Cu 0.73945 0.22146 0.49885
 Cu10 Cu 0.76112 0.27827 0.49885
 C11 C 0.77450 0.22756 0.56724
 C12 C 0.72605 0.27216 0.43048
 C13 C 0.77477 0.22741 0.43095
 C14 C 0.72585 0.27227 0.56671
 O15 O 0.25937 0.70964 0.55229
 O16 O 0.22315 0.74296 0.45080
 O17 O 0.25918 0.70969 0.45040
 O18 O 0.22331 0.74288 0.55271
 O19 O 0.24144 0.79017 0.55255
 O20 O 0.27731 0.75697 0.45023
 O21 O 0.24127 0.79024 0.45064
 O22 O 0.27747 0.75688 0.55213
 Cu23 Cu 0.23944 0.72156 0.50157
 Cu24 Cu 0.26119 0.77830 0.50138
 C25 C 0.27478 0.72740 0.56937
 C26 C 0.22590 0.77242 0.43362
 C27 C 0.27450 0.72754 0.43308
 C28 C 0.22612 0.77232 0.56985
 O29 O 0.25904 0.29029 -0.55329
 O30 O 0.22288 0.25716 -0.45141
 O31 O 0.25896 0.29035 -0.45139
 O32 O 0.22294 0.25709 -0.55332
 O33 O 0.24097 0.20982 -0.55317
 O34 O 0.27701 0.24303 -0.45125
 O35 O 0.24093 0.20984 -0.45126
 O36 O 0.27707 0.24302 -0.55315
 Cu37 Cu 0.23915 0.27845 -0.50238
 Cu38 Cu 0.26080 0.22170 -0.50221
 C39 C 0.27441 0.27248 -0.57044
 C40 C 0.22560 0.22772 -0.43416
 C41 C 0.27426 0.27248 -0.43414
 C42 C 0.22562 0.22761 -0.57046
 O43 O -0.24131 0.79020 -0.54941
 O44 O -0.27738 0.75680 -0.44755
 O45 O -0.24132 0.79008 -0.44750
 O46 O -0.27737 0.75692 -0.54945
 O47 O -0.25928 0.70964 -0.54953
 O48 O -0.22323 0.74280 -0.44757
 O49 O -0.25930 0.70956 -0.44763
 O50 O -0.22322 0.74292 -0.54948
 Cu51 Cu -0.26115 0.77823 -0.49846
 Cu52 Cu -0.23945 0.72150 -0.49856
 C53 C -0.22598 0.77238 -0.56660
 C54 C -0.27468 0.72732 -0.43037
 C55 C -0.22599 0.77222 -0.43037
 C56 C -0.27461 0.72750 -0.56666
 N57 N -0.02251 0.96452 0.09394
 N58 N -0.03852 0.96003 0.12712
 N59 N 0.02269 0.94123 0.05770
 N60 N 0.03870 0.92019 0.06535
 N61 N 0.02268 0.96453 0.09385
 N62 N 0.03867 0.96001 0.12706
 N63 N -0.02254 0.94122 0.05777
 N64 N -0.03859 0.92022 0.06540
 C65 C -0.04846 0.93232 0.10880
 C66 C 0.04857 0.93228 0.10876
 N67 N 0.02265 0.96427 -0.09176
 N68 N 0.03868 0.95972 -0.12486
 N69 N -0.02256 0.94105 -0.05531
 N70 N -0.03860 0.92002 -0.06273
 N71 N -0.02253 0.96425 -0.09167
 N72 N -0.03855 0.95966 -0.12479
 N73 N 0.02267 0.94107 -0.05538
 N74 N 0.03873 0.92009 -0.06277
 Mn75 Mn 0.00007 0.94072 0.00120
 C76 C 0.04861 0.93209 -0.10626
 C77 C -0.04847 0.93200 -0.10622
 N78 N 0.02270 1.03631 0.09351
 N79 N 0.03874 1.04087 0.12655
 N80 N -0.02251 1.05950 0.05724
 N81 N -0.03854 1.08053 0.06473
 N82 N -0.02249 1.03630 0.09361
 N83 N -0.03849 1.04088 0.12679
 N84 N 0.02272 1.05950 0.05713
 N85 N 0.03879 1.08050 0.06447
 Mn86 Mn 0.00010 1.00042 0.09432
 C87 C 0.04868 1.06851 0.10793
 C88 C -0.04840 1.06854 0.10826
 N89 N -0.02252 1.03603 -0.09200
 N90 N -0.03853 1.04052 -0.12516
 N91 N 0.02270 1.05935 -0.05596
 N92 N 0.03872 1.08040 -0.06371
 N93 N 0.02267 1.03604 -0.09210
 N94 N 0.03864 1.04058 -0.12539
 N95 N -0.02253 1.05933 -0.05585
 N96 N -0.03856 1.08034 -0.06346
 Mn97 Mn 0.00007 1.00015 -0.09248
 Mn98 Mn 0.00010 1.05984 0.00064
 Cl99 Cl 0.00008 1.00028 0.00092
 C100 C -0.04844 1.06823 -0.10684
 C101 C 0.04856 1.06831 -0.10716
 N102 N 0.52256 0.55902 -0.05692
 N103 N 0.53863 0.58003 -0.06433
 N104 N 0.47736 0.53585 -0.09332
 N105 N 0.46137 0.54046 -0.12649
 N106 N 0.47733 0.55904 -0.05698
 N107 N 0.46131 0.58008 -0.06448
 N108 N 0.52254 0.53584 -0.09326
 N109 N 0.53858 0.54041 -0.12634
 C110 C 0.54852 0.56804 -0.10779
 C111 C 0.45145 0.56811 -0.10799
 N112 N 0.47728 0.44076 -0.05734
 N113 N 0.46123 0.41976 -0.06497
 N114 N 0.52251 0.46406 -0.09349
 N115 N 0.53851 0.45954 -0.12670
 N116 N 0.52251 0.44075 -0.05731
 N117 N 0.53852 0.41971 -0.06494
 N118 N 0.47733 0.46407 -0.09354
 N119 N 0.46133 0.45959 -0.12673
 Mn120 Mn 0.49993 0.49996 -0.09399
 C121 C 0.45139 0.43188 -0.10839
 C122 C 0.54840 0.43181 -0.10837
 N123 N 0.47730 0.55884 0.05610
 N124 N 0.46127 0.57987 0.06370
 N125 N 0.52248 0.53553 0.09235
 N126 N 0.53845 0.54005 0.12562
 N127 N 0.52252 0.55884 0.05616
 N128 N 0.53854 0.57988 0.06386
 N129 N 0.47729 0.53553 0.09230
 N130 N 0.46128 0.54004 0.12547
 Mn131 Mn 0.49993 0.55936 -0.00041
 C132 C 0.45138 0.56776 0.10712
 C133 C 0.54837 0.56779 0.10732
 N134 N 0.52247 0.44056 0.05577
 N135 N 0.53853 0.41958 0.06317
 N136 N 0.47726 0.46376 0.09208
 N137 N 0.46124 0.45916 0.12522
 N138 N 0.47724 0.44057 0.05574
 N139 N 0.46119 0.41953 0.06321
 N140 N 0.52244 0.46375 0.09211
 N141 N 0.53847 0.45919 0.12519
 Mn142 Mn 0.49987 0.44024 -0.00078
 Mn143 Mn 0.49987 0.49964 0.09281
 Cl144 Cl 0.49990 0.49980 -0.00060
 C145 C 0.54841 0.43157 0.10663
 C146 C 0.45131 0.43150 0.10670
 C147 C 0.32116 0.28033 0.33896
 C148 C 0.31887 0.31328 0.32179
 C149 C 0.30136 0.33225 0.33880
 C150 C 0.28638 0.31858 0.37361
 C151 C 0.28874 0.28563 0.39220
 C152 C 0.30623 0.26655 0.37377
 C153 C 0.33505 0.32813 0.28881
 C154 C 0.34888 0.34085 0.26240
 C155 C 0.36540 0.35606 0.23291
 C156 C 0.37976 0.36932 0.20894
 C157 C 0.39721 0.38545 0.18184
 C158 C 0.40586 0.41503 0.20189
 C159 C 0.42334 0.43021 0.17705
 C160 C 0.43240 0.41594 0.13180
 C161 C 0.42346 0.38644 0.11146
 C162 C 0.40596 0.37126 0.13643
 H163 H 0.33470 0.26545 0.32611
 H164 H 0.29946 0.35782 0.32583
 H165 H 0.27317 0.33411 0.38660
 H166 H 0.30865 0.24112 0.38688
 H167 H 0.39923 0.42620 0.23705
 H168 H 0.42986 0.45295 0.19353
 H169 H 0.43011 0.37493 0.07662
 H170 H 0.39941 0.34834 0.12062
 C171 C -0.17851 0.78115 0.34109
 C172 C -0.18084 0.81414 0.32407
 C173 C -0.19838 0.83306 0.34118
 C174 C -0.21335 0.81926 0.37590
 C175 C -0.21092 0.78631 0.39406
 C176 C -0.19346 0.76728 0.37580
 C177 C -0.16468 0.82909 0.29116
 C178 C -0.15086 0.84187 0.26479
 C179 C -0.13436 0.85712 0.23531
 C180 C -0.12000 0.87037 0.21133
 C181 C -0.10257 0.88647 0.18416
 C182 C -0.09391 0.91608 0.20408
 C183 C -0.07643 0.93120 0.17917
 C184 C -0.06737 0.91683 0.13398
 C185 C -0.07632 0.88731 0.11378
 C186 C -0.09382 0.87219 0.13881
 H187 H -0.16495 0.76632 0.32822
 H188 H -0.20029 0.85866 0.32839
 H189 H -0.22660 0.83457 0.38919
 H190 H -0.19112 0.74187 0.38902
 H191 H -0.10053 0.92731 0.23919
 H192 H -0.06990 0.95397 0.19554
 H193 H -0.06968 0.87573 0.07899
 H194 H -0.10038 0.84924 0.12310
 C195 C 0.67796 0.71891 0.34096
 C196 C 0.68031 0.68597 0.32378
 C197 C 0.69785 0.66703 0.34084
 C198 C 0.71279 0.68075 0.37564
 C199 C 0.71035 0.71365 0.39395
 C200 C 0.69288 0.73270 0.37576
 C201 C 0.66419 0.67111 0.29073
 C202 C 0.65041 0.65838 0.26423
 C203 C 0.63396 0.64316 0.23458
 C204 C 0.61966 0.62991 0.21045
 C205 C 0.60228 0.61379 0.18313
 C206 C 0.59358 0.62809 0.13773
 C207 C 0.57615 0.61293 0.11254
 C208 C 0.56723 0.58333 0.13264
 C209 C 0.57624 0.56895 0.17787
 C210 C 0.59365 0.58411 0.20294
 H211 H 0.66440 0.73377 0.32814
 H212 H 0.69978 0.64146 0.32792
 H213 H 0.72604 0.66541 0.38887
 H214 H 0.69053 0.75808 0.38909
 H215 H 0.60012 0.65109 0.12211
 H216 H 0.56954 0.62452 0.07772
 H217 H 0.56973 0.54613 0.19417
 H218 H 0.60024 0.57285 0.23808
 C219 C 0.17896 1.21967 0.33881
 C220 C 0.18126 1.18671 0.32184
 C221 C 0.19877 1.16775 0.33898
 C222 C 0.21372 1.18146 0.37376
 C223 C 0.21134 1.21443 0.39217
 C224 C 0.19387 1.23350 0.37359
 C225 C 0.16510 1.17181 0.28896
 C226 C 0.15126 1.15906 0.26266
 C227 C 0.13474 1.14382 0.23330
 C228 C 0.12036 1.13056 0.20947
 C229 C 0.10289 1.11444 0.18254
 C230 C 0.09422 1.08489 0.20275
 C231 C 0.07671 1.06975 0.17808
 C232 C 0.06763 1.08403 0.13285
 C233 C 0.07658 1.11350 0.11235
 C234 C 0.09411 1.12864 0.13714
 H235 H 0.16543 1.23454 0.32586
 H236 H 0.20067 1.14216 0.32615
 H237 H 0.22691 1.16594 0.38686
 H238 H 0.19144 1.25894 0.38657
 H239 H 0.10087 1.07372 0.23790
 H240 H 0.07018 1.04703 0.19467
 H241 H 0.06991 1.12501 0.07753
 H242 H 0.10067 1.15154 0.12122
 C243 C 0.67829 0.28082 -0.34121
 C244 C 0.68059 0.31380 -0.32413
 C245 C 0.69813 0.33278 -0.34118
 C246 C 0.71313 0.31907 -0.37585
 C247 C 0.71074 0.28613 -0.39405
 C248 C 0.69326 0.26704 -0.37588
 C249 C 0.66443 0.32864 -0.29119
 C250 C 0.65061 0.34136 -0.26478
 C251 C 0.63412 0.35655 -0.23522
 C252 C 0.61979 0.36977 -0.21117
 C253 C 0.60239 0.38586 -0.18394
 C254 C 0.59363 0.37156 -0.13858
 C255 C 0.57617 0.38669 -0.11348
 C256 C 0.56728 0.41628 -0.13362
 C257 C 0.57634 0.43067 -0.17881
 C258 C 0.59377 0.41553 -0.20380
 H259 H 0.66473 0.26594 -0.32839
 H260 H 0.70003 0.35837 -0.32834
 H261 H 0.72638 0.33443 -0.38907
 H262 H 0.69095 0.24164 -0.38913
 H263 H 0.60015 0.34857 -0.12292
 H264 H 0.56952 0.37510 -0.07868
 H265 H 0.56985 0.45348 -0.19515
 H266 H 0.60041 0.42680 -0.23891
 C267 C 0.19864 0.83288 -0.33774
 C268 C 0.18110 0.81394 -0.32054
 C269 C 0.17876 0.78095 -0.33751
 C270 C 0.19367 0.76712 -0.37229
 C271 C 0.21112 0.78619 -0.39067
 C272 C 0.21357 0.81912 -0.37252
 C273 C 0.16496 0.82885 -0.28764
 C274 C 0.15113 0.84162 -0.26131
 C275 C 0.13462 0.85685 -0.23192
 C276 C 0.12025 0.87011 -0.20805
 C277 C 0.10279 0.88621 -0.18105
 C278 C 0.09413 0.91575 -0.20124
 C279 C 0.07663 0.93088 -0.17651
 C280 C 0.06755 0.91659 -0.13125
 C281 C 0.07650 0.88713 -0.11078
 C282 C 0.09402 0.87201 -0.13563
 H283 H 0.20056 0.85848 -0.32498
 H284 H 0.16521 0.76610 -0.32458
 H285 H 0.19132 0.74172 -0.38549
 H286 H 0.22681 0.83446 -0.38590
 H287 H 0.10077 0.92692 -0.23641
 H288 H 0.07010 0.95359 -0.19309
 H289 H 0.06984 0.87562 -0.07592
 H290 H 0.10058 0.84912 -0.11972
 C291 C 0.32157 0.71940 -0.34028
 C292 C 0.31923 0.68646 -0.32314
 C293 C 0.30168 0.66752 -0.34010
 C294 C 0.28671 0.68124 -0.37484
 C295 C 0.28912 0.71420 -0.39339
 C296 C 0.30664 0.73323 -0.37502
 C297 C 0.33538 0.67157 -0.29020
 C298 C 0.34919 0.65883 -0.26381
 C299 C 0.36568 0.64359 -0.23432
 C300 C 0.38002 0.63033 -0.21034
 C301 C 0.39744 0.61419 -0.18322
 C302 C 0.40608 0.58461 -0.20326
 C303 C 0.42352 0.56942 -0.17839
 C304 C 0.43257 0.58369 -0.13312
 C305 C 0.42364 0.61319 -0.11280
 C306 C 0.40618 0.62837 -0.13779
 H307 H 0.33513 0.73426 -0.32747
 H308 H 0.29975 0.64195 -0.32715
 H309 H 0.27347 0.66574 -0.38779
 H310 H 0.30909 0.75866 -0.38811
 H311 H 0.39946 0.57344 -0.23843
 H312 H 0.43004 0.54668 -0.19486
 H313 H 0.43028 0.62469 -0.07794
 H314 H 0.39963 0.65130 -0.12199
 C315 C -0.17819 1.21912 -0.34000
 C316 C -0.18053 1.18616 -0.32283
 C317 C -0.19804 1.16716 -0.33998
 C318 C -0.21295 1.18085 -0.37490
 C319 C -0.21051 1.21376 -0.39322
 C320 C -0.19308 1.23287 -0.37492
 C321 C -0.16443 1.17133 -0.28973
 C322 C -0.15064 1.15862 -0.26321
 C323 C -0.13418 1.14343 -0.23358
 C324 C -0.11986 1.13019 -0.20950
 C325 C -0.10246 1.11411 -0.18227
 C326 C -0.09384 1.08445 -0.20211
 C327 C -0.07640 1.06933 -0.17716
 C328 C -0.06733 1.08373 -0.13202
 C329 C -0.07624 1.11330 -0.11190
 C330 C -0.09371 1.12842 -0.13696
 H331 H -0.16466 1.23402 -0.32710
 H332 H -0.19996 1.14158 -0.32707
 H333 H -0.22617 1.16547 -0.38822
 H334 H -0.19073 1.25826 -0.38825
 H335 H -0.10048 1.07319 -0.23718
 H336 H -0.06990 1.04653 -0.19347
 H337 H -0.06959 1.12490 -0.07715
 H338 H -0.10024 1.15140 -0.12133
 C339 C 0.69850 0.66741 -0.33966
 C340 C 0.68099 0.68633 -0.32251
 C341 C 0.67866 0.71929 -0.33956
 C342 C 0.69355 0.73314 -0.37442
 C343 C 0.71103 0.71410 -0.39299
 C344 C 0.71344 0.68114 -0.37451
 C345 C 0.66484 0.67142 -0.28952
 C346 C 0.65103 0.65865 -0.26312
 C347 C 0.63452 0.64341 -0.23365
 C348 C 0.62015 0.63014 -0.20972
 C349 C 0.60270 0.61401 -0.18267
 C350 C 0.59393 0.62820 -0.13728
 C351 C 0.57641 0.61305 -0.11240
 C352 C 0.56746 0.58357 -0.13279
 C353 C 0.57655 0.56929 -0.17801
 C354 C 0.59404 0.58444 -0.20277
 H355 H 0.70042 0.64182 -0.32677
 H356 H 0.66512 0.73414 -0.32661
 H357 H 0.69110 0.75858 -0.38744
 H358 H 0.72664 0.66564 -0.38761
 H359 H 0.60049 0.65111 -0.12144
 H360 H 0.56974 0.62456 -0.07758
 H361 H 0.57002 0.54656 -0.19453
 H362 H 0.60069 0.57327 -0.23791
 C363 C 0.19800 1.16733 -0.34146
 C364 C 0.18049 1.18632 -0.32439
 C365 C 0.17817 1.21926 -0.34165
 C366 C 0.19309 1.23301 -0.37654
 C367 C 0.21054 1.21390 -0.39473
 C368 C 0.21295 1.18101 -0.37635
 C369 C 0.16437 1.17151 -0.29121
 C370 C 0.15059 1.15883 -0.26460
 C371 C 0.13414 1.14365 -0.23482
 C372 C 0.11984 1.13042 -0.21060
 C373 C 0.10247 1.11432 -0.18319
 C374 C 0.09376 1.12864 -0.13783
 C375 C 0.07633 1.11348 -0.11256
 C376 C 0.06741 1.08386 -0.13255
 C377 C 0.07643 1.06946 -0.17775
 C378 C 0.09384 1.08462 -0.20289
 H379 H 0.19991 1.14176 -0.32848
 H380 H 0.16463 1.23416 -0.32881
 H381 H 0.19077 1.25839 -0.38992
 H382 H 0.22618 1.16563 -0.38959
 H383 H 0.10029 1.15165 -0.12229
 H384 H 0.06971 1.12508 -0.07778
 H385 H 0.06993 1.04663 -0.19396
 H386 H 0.10044 1.07335 -0.23800
 C387 C 0.32160 0.28102 -0.34150
 C388 C 0.31928 0.31399 -0.32445
 C389 C 0.30178 0.33297 -0.34167
 C390 C 0.28686 0.31925 -0.37652
 C391 C 0.28928 0.28633 -0.39471
 C392 C 0.30670 0.26724 -0.37635
 C393 C 0.33539 0.32884 -0.29138
 C394 C 0.34917 0.34156 -0.26487
 C395 C 0.36563 0.35675 -0.23524
 C396 C 0.37996 0.36997 -0.21116
 C397 C 0.39736 0.38605 -0.18390
 C398 C 0.40601 0.41570 -0.20376
 C399 C 0.42346 0.43081 -0.17879
 C400 C 0.43249 0.41640 -0.13361
 C401 C 0.42355 0.38683 -0.11346
 C402 C 0.40608 0.37172 -0.13855
 H403 H 0.33512 0.26614 -0.32855
 H404 H 0.29987 0.35856 -0.32885
 H405 H 0.27364 0.33462 -0.38988
 H406 H 0.30903 0.24184 -0.38959
 H407 H 0.39940 0.42698 -0.23888
 H408 H 0.42999 0.45361 -0.19513
 H409 H 0.43017 0.37522 -0.07867
 H410 H 0.39952 0.34874 -0.12290
 C411 C -0.17853 0.78079 -0.33808
 C412 C -0.18084 0.81375 -0.32097
 C413 C -0.19838 0.83271 -0.33801
 C414 C -0.21335 0.81898 -0.37274
 C415 C -0.21093 0.78607 -0.39100
 C416 C -0.19348 0.76699 -0.37281
 C417 C -0.16468 0.82862 -0.28805
 C418 C -0.15085 0.84135 -0.26169
 C419 C -0.13435 0.85657 -0.23223
 C420 C -0.11999 0.86983 -0.20830
 C421 C -0.10256 0.88596 -0.18123
 C422 C -0.09391 0.91555 -0.20133
 C423 C -0.07644 0.93072 -0.17653
 C424 C -0.06738 0.91643 -0.13127
 C425 C -0.07632 0.88693 -0.11089
 C426 C -0.09381 0.87175 -0.13581
 H427 H -0.16498 0.76592 -0.32527
 H428 H -0.20029 0.85829 -0.32515
 H429 H -0.22659 0.83433 -0.38598
 H430 H -0.19114 0.74161 -0.38610
 H431 H -0.10053 0.92673 -0.23649
 H432 H -0.06992 0.95347 -0.19305
 H433 H -0.06967 0.87541 -0.07604
 H434 H -0.10036 0.84882 -0.11997
 C435 C 0.30187 0.66703 0.34040
 C436 C 0.31940 0.68597 0.32315
 C437 C 0.32179 0.71893 0.34023
 C438 C 0.30692 0.73274 0.37514
 C439 C 0.28947 0.71368 0.39354
 C440 C 0.28698 0.68077 0.37531
 C441 C 0.33549 0.67108 0.29005
 C442 C 0.34926 0.65833 0.26354
 C443 C 0.36570 0.64309 0.23391
 C444 C 0.38000 0.62983 0.20983
 C445 C 0.39739 0.61371 0.18258
 C446 C 0.40615 0.62801 0.13723
 C447 C 0.42361 0.61286 0.11215
 C448 C 0.43250 0.58328 0.13232
 C449 C 0.42342 0.56889 0.17750
 C450 C 0.40599 0.58404 0.20246
 H451 H 0.29991 0.64145 0.32756
 H452 H 0.33534 0.73378 0.32726
 H453 H 0.30930 0.75812 0.38841
 H454 H 0.27374 0.66544 0.38871
 H455 H 0.39964 0.65100 0.12156
 H456 H 0.43027 0.62446 0.07736
 H457 H 0.42991 0.54608 0.19385
 H458 H 0.39935 0.57278 0.23757
 C459 C -0.19825 1.16762 0.34048
 C460 C -0.18073 1.18661 0.32342
 C461 C -0.17844 1.21956 0.34048
 C462 C -0.19338 1.23334 0.37523
 C463 C -0.21087 1.21425 0.39370
 C464 C -0.21324 1.18128 0.37523
 C465 C -0.16456 1.17177 0.29047
 C466 C -0.15074 1.15907 0.26407
 C467 C -0.13423 1.14388 0.23457
 C468 C -0.11988 1.13065 0.21059
 C469 C -0.10245 1.11454 0.18347
 C470 C -0.09371 1.12875 0.13802
 C471 C -0.07623 1.11359 0.11304
 C472 C -0.06730 1.08409 0.13339
 C473 C -0.07635 1.06980 0.17868
 C474 C -0.09381 1.08496 0.20354
 H475 H -0.20015 1.14204 0.32759
 H476 H -0.16490 1.23446 0.32760
 H477 H -0.19096 1.25878 0.38825
 H478 H -0.22645 1.16574 0.38825
 H479 H -0.10026 1.15168 0.12220
 H480 H -0.06959 1.12511 0.07817
 H481 H -0.06983 1.04705 0.19517
 H482 H -0.10043 1.07376 0.23873
 C483 C 0.69849 0.33262 0.33796
 C484 C 0.68098 0.31362 0.32086
 C485 C 0.67868 0.28063 0.33793
 C486 C 0.69361 0.26685 0.37272
 C487 C 0.71104 0.28598 0.39099
 C488 C 0.71344 0.31891 0.37275
 C489 C 0.66481 0.32848 0.28795
 C490 C 0.65098 0.34120 0.26162
 C491 C 0.63445 0.35640 0.23223
 C492 C 0.62007 0.36963 0.20836
 C493 C 0.60260 0.38571 0.18138
 C494 C 0.59393 0.41524 0.20153
 C495 C 0.57642 0.43036 0.17682
 C496 C 0.56735 0.41607 0.13161
 C497 C 0.57630 0.38662 0.11117
 C498 C 0.59383 0.37151 0.13601
 H499 H 0.70038 0.35822 0.32513
 H500 H 0.66514 0.26573 0.32507
 H501 H 0.69128 0.24145 0.38599
 H502 H 0.72666 0.33430 0.38606
 H503 H 0.60057 0.42642 0.23667
 H504 H 0.56989 0.45307 0.19337
 H505 H 0.56964 0.37510 0.07636
 H506 H 0.60040 0.34862 0.12013
 C507 C 0.17835 0.78111 0.34165
 C508 C 0.18069 0.81408 0.32451
 C509 C 0.19826 0.83301 0.34146
 C510 C 0.21324 0.81925 0.37612
 C511 C 0.21081 0.78632 0.39439
 C512 C 0.19331 0.76728 0.37631
 C513 C 0.16454 0.82898 0.29158
 C514 C 0.15073 0.84172 0.26517
 C515 C 0.13426 0.85695 0.23563
 C516 C 0.11993 0.87020 0.21158
 C517 C 0.10254 0.88631 0.18434
 C518 C 0.09392 0.91596 0.20418
 C519 C 0.07649 0.93112 0.17919
 C520 C 0.06744 0.91675 0.13401
 C521 C 0.07635 0.88717 0.11389
 C522 C 0.09380 0.87202 0.13899
 H523 H 0.16477 0.76627 0.32891
 H524 H 0.20019 0.85860 0.32856
 H525 H 0.22652 0.83458 0.38927
 H526 H 0.19096 0.74188 0.38962
 H527 H 0.10054 0.92721 0.23928
 H528 H 0.07000 0.95392 0.19550
 H529 H 0.06971 0.87559 0.07910
 H530 H 0.10032 0.84904 0.12335
   
