data_POSCAR
  _audit_creation_date              2014-09-24
  _audit_creation_method            'ToBaCCo'
  _symmetry_space_group_name_H-M    'P1'
  _symmetry_Int_Tables_number       1
  _symmetry_cell_setting            triclinic
  loop_
  _symmetry_equiv_pos_as_xyz
 x,y,z
_cell_length_a 49.3402
_cell_length_b 48.9696
_cell_length_c 22.2849
_cell_angle_alpha 90.059000
_cell_angle_beta 89.770300
_cell_angle_gamma 121.402000
loop_
  _atom_site_label
  _atom_site_type_symbol
  _atom_site_fract_x
  _atom_site_fract_y
  _atom_site_fract_z
C1 C 0.15544 0.45823 0.51452
 C2 C 0.17354 0.46408 0.46248
 C3 C 0.19932 0.45959 0.46222
 C4 C 0.20660 0.44759 0.51325
 C5 C 0.18715 0.44069 0.56501
 C6 C 0.16246 0.44700 0.56620
 C7 C 0.23502 0.44376 0.51327
 C8 C 0.24869 0.44265 0.56802
 C9 C 0.27550 0.44000 0.56900
 C10 C 0.29030 0.43998 0.51562
 C11 C 0.27802 0.44202 0.46068
 C12 C 0.25001 0.44291 0.45924
 H13 H 0.13607 0.46269 0.51495
 H14 H 0.21373 0.46610 0.42207
 H15 H 0.19095 0.43065 0.60494
 H16 H 0.23954 0.44489 0.61063
 H17 H 0.31196 0.43938 0.51694
 H18 H 0.24062 0.44337 0.41582
 C19 C 0.57357 -0.28345 0.48620
 C20 C 0.57341 -0.26938 0.43190
 C21 C 0.56753 -0.24439 0.43096
 C22 C 0.56312 -0.23185 0.48463
 C23 C 0.56426 -0.24593 0.53959
 C24 C 0.56841 -0.27224 0.54009
 C25 C 0.55542 -0.20582 0.48247
 C26 C 0.54026 -0.20085 0.53146
 C27 C 0.53233 -0.17733 0.52923
 C28 C 0.53788 -0.15932 0.47722
 C29 C 0.55217 -0.16412 0.42750
 C30 C 0.56180 -0.18647 0.43062
 H31 H 0.57655 -0.30392 0.48631
 H32 H 0.56522 -0.23589 0.38768
 H33 H 0.56140 -0.23717 0.58222
 H34 H 0.53399 -0.21528 0.57159
 H35 H 0.53091 -0.14167 0.47534
 H36 H 0.57402 -0.18849 0.39214
 C37 C 1.28323 0.86255 0.50058
 C38 C 1.27118 0.84593 0.44680
 C39 C 1.24113 0.81807 0.44543
 C40 C 1.22223 0.80671 0.49759
 C41 C 1.23449 0.82423 0.55153
 C42 C 1.26515 0.85157 0.55321
 C43 C 1.19140 0.77526 0.49646
 C44 C 1.18096 0.75573 0.54799
 C45 C 1.15369 0.72517 0.54642
 C46 C 1.13676 0.71327 0.49308
 C47 C 1.14684 0.73195 0.44106
 C48 C 1.17359 0.76309 0.44295
 H49 H 1.30708 0.88345 0.50197
 H50 H 1.23325 0.80466 0.40396
 H51 H 1.22076 0.81642 0.59265
 H52 H 1.19462 0.76353 0.58902
 H53 H 1.11630 0.68906 0.49148
 H54 H 1.18071 0.77728 0.40231
 C55 C 0.85310 0.55994 0.52963
 C56 C 0.84084 0.56037 0.47358
 C57 C 0.81357 0.56248 0.46985
 C58 C 0.79718 0.56230 0.52251
 C59 C 0.80972 0.56088 0.57847
 C60 C 0.83775 0.56049 0.58186
 C61 C 0.76645 0.56180 0.51967
 C62 C 0.75486 0.57053 0.56994
 C63 C 0.72475 0.56698 0.56897
 C64 C 0.70672 0.55674 0.51654
 C65 C 0.71818 0.54912 0.46589
 C66 C 0.74740 0.55093 0.46770
 H67 H 0.87417 0.55833 0.53264
 H68 H 0.80529 0.56383 0.42577
 H69 H 0.79752 0.55908 0.62001
 H70 H 0.76871 0.57967 0.61047
 H71 H 0.68347 0.55409 0.51540
 H72 H 0.75452 0.54304 0.42867
 C73 C 0.44113 0.29553 0.49342
 C74 C 0.43242 0.27803 0.44012
 C75 C 0.42988 0.24818 0.43824
 C76 C 0.43822 0.23636 0.48849
 C77 C 0.44750 0.25482 0.54152
 C78 C 0.44824 0.28378 0.54425
 C79 C 0.43904 0.20611 0.48449
 C80 C 0.43844 0.18905 0.53646
 C81 C 0.44156 0.16217 0.53165
 C82 C 0.44344 0.15099 0.47505
 C83 C 0.44337 0.16705 0.42354
 C84 C 0.44200 0.19472 0.42812
 H85 H 0.44302 0.31862 0.49487
 H86 H 0.42192 0.23482 0.39685
 H87 H 0.45502 0.24745 0.58059
 H88 H 0.43591 0.19649 0.58075
 H89 H 0.44569 0.13015 0.47100
 H90 H 0.44414 0.20749 0.38716
 C91 C 0.71183 0.13337 0.50508
 C92 C 0.72245 0.15092 0.45181
 C93 C 0.75163 0.18005 0.45065
 C94 C 0.77088 0.19145 0.50251
 C95 C 0.75988 0.17305 0.55545
 C96 C 0.73031 0.14455 0.55689
 C97 C 0.80187 0.22265 0.50184
 C98 C 0.81345 0.24195 0.55389
 C99 C 0.84232 0.27145 0.55237
 C100 C 0.85938 0.28226 0.49859
 C101 C 0.84800 0.26367 0.44673
 C102 C 0.81983 0.23383 0.44851
 H103 H 0.68878 0.11139 0.50662
 H104 H 0.75875 0.19396 0.40965
 H105 H 0.77396 0.18088 0.59597
 H106 H 0.79983 0.23457 0.59520
 H107 H 0.88115 0.30553 0.49662
 H108 H 0.81189 0.21968 0.40788
 O109 O 0.97994 0.53101 -0.06722
 O110 O 1.02930 0.53372 0.12167
 O111 O 0.94031 0.49133 0.07153
 O112 O 1.07904 0.55639 -0.04151
 O113 O 0.97337 0.49166 0.13777
 O114 O 1.03548 0.55261 -0.06985
 O115 O 1.04411 0.56057 0.03764
 O116 O 0.93669 0.48815 -0.04126
 C117 C 0.95067 0.51561 -0.06326
 C118 C 1.04012 0.55984 0.09339
 C119 C 0.95105 0.49605 0.12380
 C120 C 1.06458 0.56375 -0.08037
 O121 O 1.02575 0.49492 -0.10561
 O122 O 0.98699 0.44759 0.09679
 O123 O 0.94327 0.43837 -0.03861
 O124 O 1.07353 0.53295 0.06375
 O125 O 1.03975 0.48572 0.08337
 O126 O 0.96858 0.47386 -0.10906
 O127 O 1.05156 0.49637 -0.02718
 O128 O 0.94103 0.43893 0.07393
 Co129 Co 1.00218 0.51170 -0.07944
 Co130 Co 1.00688 0.49047 0.10244
 Co131 Co 0.94587 0.46732 0.01586
 Co132 Co 1.04592 0.52750 0.00368
 O133 O 0.99816 0.49712 0.01321
 C134 C 1.04408 0.48815 -0.08025
 C135 C 0.95793 0.42959 0.09588
 C136 C 0.95042 0.44521 -0.09258
 C137 C 1.06703 0.50847 0.09124
 O138 O 0.48265 0.44914 -0.07415
 O139 O 0.48160 0.51123 0.12537
 O140 O 0.49271 0.44493 0.03553
 O141 O 0.44808 0.51039 -0.05519
 O142 O 0.49525 0.46999 0.11641
 O143 O 0.45016 0.46960 -0.08288
 O144 O 0.44757 0.50532 0.05662
 O145 O 0.52780 0.45799 -0.05687
 C146 C 0.50263 0.44172 -0.08393
 C147 C 0.45373 0.50287 0.10985
 C148 C 0.48518 0.44418 0.08906
 C149 C 0.43551 0.48361 -0.07913
 O150 O 0.49882 0.52742 -0.12145
 O151 O 0.55503 0.51554 0.08106
 O152 O 0.56180 0.51590 -0.02729
 O153 O 0.50148 0.56040 0.06113
 O154 O 0.54062 0.55471 0.08308
 O155 O 0.53513 0.50734 -0.11024
 O156 O 0.50376 0.56167 -0.05207
 O157 O 0.55234 0.47279 0.04815
 Co158 Co 0.49269 0.48955 -0.08963
 Co159 Co 0.51665 0.51196 0.09300
 Co160 Co 0.52653 0.48151 0.00585
 Co161 Co 0.47773 0.53150 0.00273
 O162 O 0.50145 0.50383 0.00053
 C163 C 0.50647 0.55540 -0.10550
 C164 C 0.56240 0.49465 0.08884
 C165 C 0.56137 0.52039 -0.08263
 C166 C 0.52878 0.57155 0.08149
 O167 O 0.54522 0.00667 -0.09565
 O168 O 0.49706 -0.03056 0.10008
 O169 O 0.55733 0.05511 0.03698
 O170 O 0.45827 -0.08590 -0.05486
 O171 O 0.52211 0.02792 0.10751
 O172 O 0.50241 -0.04713 -0.09006
 O173 O 0.50275 -0.05198 0.01870
 O174 O 0.55584 0.05426 -0.07643
 C175 C 0.56431 0.03585 -0.09551
 C176 C 0.50773 -0.04602 0.07373
 C177 C 0.55047 0.04710 0.09091
 C178 C 0.47964 -0.07562 -0.09643
 O179 O 0.46149 -0.02904 -0.12721
 O180 O 0.46718 0.02211 0.06848
 O181 O 0.50433 0.05738 -0.07246
 O182 O 0.44611 -0.07225 0.04916
 O183 O 0.44203 -0.03267 0.06292
 O184 O 0.50631 0.02585 -0.13933
 O185 O 0.43599 -0.04982 -0.04522
 O186 O 0.51012 0.06396 0.03896
 Co187 Co 0.50313 -0.01009 -0.10470
 Co188 Co 0.48317 -0.00337 0.07725
 Co189 Co 0.52854 0.05212 -0.01807
 Co190 Co 0.47060 -0.04907 -0.01506
 O191 O 0.49682 -0.00028 -0.01285
 C192 C 0.43575 -0.04345 -0.09912
 C193 C 0.48370 0.05143 0.06379
 C194 C 0.50039 0.04718 -0.12494
 C195 C 0.43200 -0.06096 0.07481
 C196 C 1.14750 0.48930 0.31326
 N197 N 1.13829 0.46961 0.26498
 N198 N 1.12566 0.47525 0.21741
 C199 C 1.12198 0.50082 0.21666
 N200 N 1.13136 0.52061 0.26481
 N201 N 1.14399 0.51496 0.31239
 C202 C 1.15806 0.48138 0.36651
 C203 C 1.16576 0.47372 0.41162
 C204 C 1.10470 0.50453 0.16925
 C205 C 1.08840 0.50675 0.13196
 C206 C 0.57588 0.68960 0.27923
 N207 N 0.59053 0.67268 0.27651
 N208 N 0.58545 0.65336 0.23028
 C209 C 0.56568 0.65047 0.18536
 N210 N 0.55134 0.66770 0.18775
 N211 N 0.55642 0.68703 0.23396
 C212 C 0.57695 0.70592 0.33314
 C213 C 0.57599 0.71803 0.37941
 C214 C 0.55507 0.62494 0.14323
 C215 C 0.54401 0.60144 0.11236
 C216 C 0.32509 -0.12613 0.29915
 N217 N 0.32330 -0.10652 0.25859
 N218 N 0.34252 -0.09615 0.21098
 C219 C 0.36392 -0.10524 0.20241
 N220 N 0.36562 -0.12494 0.24287
 N221 N 0.34641 -0.13532 0.29048
 C222 C 0.30556 -0.13604 0.35174
 C223 C 0.28941 -0.14434 0.39637
 C224 C 0.38664 -0.09153 0.15477
 C225 C 0.40681 -0.07846 0.11685
 C226 C 0.88249 0.54304 0.33185
 N227 N 0.86466 0.51966 0.29167
 N228 N 0.87846 0.51090 0.25074
 C229 C 0.91053 0.52510 0.24887
 N230 N 0.92837 0.54853 0.28897
 N231 N 0.91456 0.55728 0.32990
 C232 C 0.86751 0.55067 0.37904
 C233 C 0.85514 0.55590 0.42075
 C234 C 0.92530 0.51506 0.20553
 C235 C 0.93732 0.50640 0.16875
 C236 C 0.43149 0.32465 0.28915
 N237 N 0.42183 0.34598 0.29190
 N238 N 0.42798 0.36630 0.24678
 C239 C 0.44393 0.36592 0.19735
 N240 N 0.45338 0.34442 0.19440
 N241 N 0.44722 0.32409 0.23952
 C242 C 0.42921 0.30623 0.34126
 C243 C 0.42946 0.29244 0.38599
 C244 C 0.45549 0.39143 0.15411
 C245 C 0.46766 0.41461 0.12170
 C246 C 0.66311 0.11466 0.30745
 N247 N 0.65177 0.08392 0.29065
 N248 N 0.63036 0.07063 0.24695
 C249 C 0.61957 0.08765 0.21870
 N250 N 0.63094 0.11840 0.23544
 N251 N 0.65235 0.13169 0.27914
 C252 C 0.68498 0.12840 0.35668
 C253 C 0.70257 0.13920 0.39925
 C254 C 0.59561 0.07301 0.17303
 C255 C 0.57517 0.06096 0.13527
 C256 C 0.45653 0.11910 -0.33076
 N257 N 0.44224 0.08675 -0.33050
 N258 N 0.45038 0.07220 -0.29017
 C259 C 0.47323 0.08956 -0.24905
 N260 N 0.48747 0.12189 -0.24924
 N261 N 0.47933 0.13644 -0.28956
 C262 C 0.44966 0.13490 -0.37741
 C263 C 0.44511 0.14793 -0.41880
 C264 C 0.48258 0.07400 -0.20629
 C265 C 0.49068 0.06143 -0.16981
 C266 C 0.67968 0.57009 -0.28382
 N267 N 0.65876 0.58009 -0.28793
 N268 N 0.63847 0.57462 -0.24327
 C269 C 0.63844 0.55900 -0.19299
 N270 N 0.65953 0.54922 -0.18869
 N271 N 0.67983 0.55470 -0.23335
 C272 C 0.69800 0.57151 -0.33540
 C273 C 0.71151 0.57049 -0.37988
 C274 C 0.61313 0.54830 -0.14983
 C275 C 0.59030 0.53692 -0.11690
 C276 C 0.87904 0.33052 -0.30663
 N277 N 0.86425 0.34480 -0.28238
 N278 N 0.87829 0.36675 -0.23943
 C279 C 0.90761 0.37521 -0.21948
 N280 N 0.92238 0.36091 -0.24367
 N281 N 0.90834 0.33895 -0.28661
 C282 C 0.86476 0.30822 -0.35540
 C283 C 0.85365 0.29041 -0.39784
 C284 C 0.92310 0.39962 -0.17443
 C285 C 0.93583 0.42035 -0.13698
 C286 C 0.49994 -0.15437 -0.32281
 N287 N 0.47906 -0.14441 -0.32790
 N288 N 0.47256 -0.13200 -0.28079
 C289 C 0.48672 -0.12923 -0.22724
 N290 N 0.50745 -0.13937 -0.22206
 N291 N 0.51395 -0.15179 -0.26916
 C292 C 0.50976 -0.16415 -0.37484
 C293 C 0.51938 -0.17085 -0.41870
 C294 C 0.48280 -0.11226 -0.17907
 C295 C 0.48077 -0.09634 -0.14026
 C296 C 0.31838 0.44247 -0.27434
 N297 N 0.33023 0.42325 -0.26611
 N298 N 0.34952 0.42824 -0.22032
 C299 C 0.35741 0.45251 -0.18132
 N300 N 0.34527 0.47151 -0.18919
 N301 N 0.32597 0.46652 -0.23498
 C302 C 0.30176 0.44024 -0.32817
 C303 C 0.28928 0.43963 -0.37473
 C304 C 0.38274 0.46168 -0.13997
 C305 C 0.40600 0.47098 -0.10965
 C306 C 1.12729 0.66937 -0.30838
 N307 N 1.13025 0.64336 -0.30768
 N308 N 1.12015 0.62375 -0.26054
 C309 C 1.10695 0.62969 -0.21269
 N310 N 1.10408 0.65576 -0.21333
 N311 N 1.11418 0.67537 -0.26047
 C312 C 1.13685 0.68960 -0.36006
 C313 C 1.14469 0.70635 -0.40390
 C314 C 1.09370 0.60725 -0.16441
 C315 C 1.08118 0.58772 -0.12516
 C316 C 0.87398 0.55402 -0.25907
 N317 N 0.85746 0.52738 -0.22485
 N318 N 0.87131 0.52233 -0.17859
 C319 C 0.90203 0.54384 -0.16504
 N320 N 0.91845 0.57064 -0.19891
 N321 N 0.90460 0.57570 -0.24517
 C322 C 0.86064 0.55715 -0.31354
 C323 C 0.85001 0.55896 -0.36079
 C324 C 0.91850 0.53547 -0.12346
 C325 C 0.93297 0.52707 -0.09320
 C326 C 0.47180 0.33570 -0.30549
 N327 N 0.44927 0.32947 -0.26363
 N328 N 0.45610 0.34868 -0.21644
 C329 C 0.48570 0.37463 -0.20964
 N330 N 0.50828 0.38078 -0.25137
 N331 N 0.50144 0.36158 -0.29857
 C332 C 0.46376 0.31656 -0.35859
 C333 C 0.45664 0.30100 -0.40399
 C334 C 0.49212 0.39712 -0.16258
 C335 C 0.49712 0.41698 -0.12526
 C336 C 0.68647 0.10030 -0.28758
 N337 N 0.66588 0.06822 -0.28643
 N338 N 0.64503 0.05476 -0.24166
 C339 C 0.64415 0.07296 -0.19670
 N340 N 0.66501 0.10500 -0.19747
 N341 N 0.68586 0.11845 -0.24222
 C342 C 0.70430 0.11535 -0.34089
 C343 C 0.71720 0.12842 -0.38713
 C344 C 0.61782 0.05953 -0.15596
 C345 C 0.59407 0.04857 -0.12595
 C346 C 1.11606 0.44527 -0.28422
 N347 N 1.08405 0.43158 -0.28477
 N348 N 1.06919 0.43627 -0.23944
 C349 C 1.08583 0.45474 -0.19197
 N350 N 1.11782 0.46826 -0.19126
 N351 N 1.13268 0.46357 -0.23658
 C352 C 1.13249 0.44378 -0.33658
 C353 C 1.14646 0.44435 -0.38173
 C354 C 1.07049 0.46386 -0.14803
 C355 C 1.05807 0.47366 -0.11462
 C356 C 0.55276 0.67196 -0.31636
 N357 N 0.56821 0.65583 -0.31192
 N358 N 0.56008 0.63355 -0.26970
 C359 C 0.53611 0.62654 -0.23070
 N360 N 0.52070 0.64272 -0.23505
 N361 N 0.52884 0.66500 -0.27727
 C362 C 0.55968 0.69394 -0.36524
 C363 C 0.56442 0.71083 -0.40843
 C364 C 0.52635 0.60154 -0.18665
 C365 C 0.51758 0.58044 -0.14979
 C366 C 0.31400 -0.10554 -0.29345
 N367 N 0.33559 -0.07363 -0.29374
 N368 N 0.35684 -0.06024 -0.24979
 C369 C 0.35720 -0.07830 -0.20402
 N370 N 0.33547 -0.11018 -0.20351
 N371 N 0.31422 -0.12357 -0.24747
 C372 C 0.29441 -0.12063 -0.34525
 C373 C 0.27989 -0.13334 -0.39059
 C374 C 0.38327 -0.06493 -0.16237
 C375 C 0.40653 -0.05452 -0.13104
 C376 C 0.55299 -0.11669 0.27616
 N377 N 0.53519 -0.13348 0.22822
 N378 N 0.52978 -0.11872 0.18377
 C379 C 0.54201 -0.08668 0.18574
 N380 N 0.55997 -0.06986 0.23351
 N381 N 0.56538 -0.08462 0.27796
 C382 C 0.55509 -0.13318 0.32776
 C383 C 0.55491 -0.14721 0.37252
 C384 C 0.53234 -0.07161 0.14244
 C385 C 0.52226 -0.05953 0.10907
 C386 C 0.33628 0.45788 0.31711
 N387 N 0.35184 0.44182 0.31341
 N388 N 0.37459 0.44995 0.27243
 C389 C 0.38267 0.47455 0.23401
 N390 N 0.36707 0.49056 0.23763
 N391 N 0.34432 0.48243 0.27861
 C392 C 0.31369 0.45089 0.36469
 C393 C 0.29627 0.44611 0.40691
 C394 C 0.40789 0.48404 0.19085
 C395 C 0.42899 0.49244 0.15434
 C396 C 1.10283 0.68260 0.28879
 N397 N 1.12019 0.68256 0.24145
 N398 N 1.10652 0.66087 0.19796
 C399 C 1.07504 0.63850 0.20034
 N400 N 1.05764 0.63868 0.24746
 N401 N 1.07130 0.66037 0.29095
 C402 C 1.11837 0.70259 0.34005
 C403 C 1.13143 0.71729 0.38508
 C404 C 1.06150 0.61216 0.15875
 C405 C 1.05108 0.58885 0.12692
 C406 C 0.45139 0.13245 0.26299
 N407 N 0.42793 0.10317 0.24461
 N408 N 0.43246 0.08908 0.19777
 C409 C 0.46053 0.10394 0.16779
 N410 N 0.48388 0.13336 0.18583
 N411 N 0.47935 0.14746 0.23267
 C412 C 0.44813 0.14550 0.31800
 C413 C 0.44585 0.15564 0.36569
 C414 C 0.46749 0.08646 0.12552
 C415 C 0.47437 0.07082 0.09461
 C416 C 0.66404 0.52228 0.31509
 N417 N 0.67395 0.54178 0.26643
 N418 N 0.65487 0.53496 0.21943
 C419 C 0.62534 0.50843 0.21970
 N420 N 0.61548 0.48885 0.26827
 N421 N 0.63456 0.49567 0.31527
 C422 C 0.68352 0.53099 0.36745
 C423 C 0.69950 0.53894 0.41210
 C424 C 0.60380 0.50272 0.17176
 C425 C 0.58517 0.49866 0.13297
 C426 C 0.89070 0.30762 0.29025
 N427 N 0.87251 0.30959 0.24706
 N428 N 0.88592 0.33034 0.20202
 C429 C 0.91793 0.34971 0.19880
 N430 N 0.93613 0.34747 0.24161
 N431 N 0.92273 0.32674 0.28667
 C432 C 0.87616 0.28984 0.34390
 C433 C 0.86358 0.27693 0.39042
 C434 C 0.93188 0.37597 0.15759
 C435 C 0.94369 0.39972 0.12706
   
