data_POSCAR
  _audit_creation_date              2014-09-24
  _audit_creation_method            'ToBaCCo'
  _symmetry_space_group_name_H-M    'P1'
  _symmetry_Int_Tables_number       1
  _symmetry_cell_setting            triclinic
  loop_
  _symmetry_equiv_pos_as_xyz
 x,y,z
_cell_length_a 35.9059
_cell_length_b 37.1102
_cell_length_c 39.4259
_cell_angle_alpha 90.110900
_cell_angle_beta 90.391300
_cell_angle_gamma 90.242300
loop_
  _atom_site_label
  _atom_site_type_symbol
  _atom_site_fract_x
  _atom_site_fract_y
  _atom_site_fract_z
C1 C 0.61170 0.61501 0.65548
 C2 C 0.58514 0.64260 0.65679
 C3 C 0.58638 0.67116 0.63359
 C4 C 0.61410 0.67208 0.60870
 C5 C 0.64075 0.64464 0.60696
 C6 C 0.63955 0.61593 0.63042
 C7 C 0.61068 0.58644 0.67867
 C8 C 0.63657 0.55801 0.67681
 C9 C 0.66468 0.55964 0.65203
 C10 C 0.66619 0.58817 0.62881
 C11 C 0.69397 0.58941 0.60398
 C12 C 0.69530 0.61799 0.58075
 C13 C 0.66853 0.64536 0.58215
 H14 H 0.56352 0.64202 0.67585
 H15 H 0.61473 0.69414 0.59071
 H16 H 0.58883 0.58572 0.69752
 H17 H 0.68606 0.53911 0.65135
 H18 H 0.71452 0.56814 0.60251
 H19 H 0.66959 0.66727 0.56402
 C20 C 0.88947 0.37912 0.15750
 C21 C 0.91527 0.35090 0.15683
 C22 C 0.91449 0.32497 0.13064
 C23 C 0.88527 0.32623 0.10656
 C24 C 0.85908 0.35416 0.10709
 C25 C 0.86149 0.38105 0.13234
 C26 C 0.89166 0.40583 0.18261
 C27 C 0.86735 0.43538 0.18202
 C28 C 0.83922 0.43704 0.15712
 C29 C 0.83602 0.40997 0.13234
 C30 C 0.80809 0.41150 0.10733
 C31 C 0.80517 0.38434 0.08258
 C32 C 0.83090 0.35599 0.08238
 H33 H 0.93610 0.34914 0.17681
 H34 H 0.88390 0.30645 0.08631
 H35 H 0.91286 0.40417 0.20227
 H36 H 0.82015 0.45961 0.15690
 H37 H 0.78857 0.43371 0.10701
 H38 H 0.82882 0.33536 0.06293
 C39 C 0.39072 0.11215 -0.15367
 C40 C 0.41805 0.13930 -0.15474
 C41 C 0.41698 0.16825 -0.13183
 C42 C 0.38913 0.16955 -0.10710
 C43 C 0.36158 0.14276 -0.10583
 C44 C 0.36216 0.11406 -0.12934
 C45 C 0.39150 0.08318 -0.17653
 C46 C 0.36453 0.05546 -0.17510
 C47 C 0.33540 0.05844 -0.15143
 C48 C 0.33413 0.08735 -0.12853
 C49 C 0.30517 0.09008 -0.10492
 C50 C 0.30435 0.11877 -0.08159
 C51 C 0.33328 0.14440 -0.08164
 H52 H 0.43988 0.13828 -0.17358
 H53 H 0.38870 0.19181 -0.08924
 H54 H 0.41397 0.08158 -0.19470
 H55 H 0.31317 0.03857 -0.15130
 H56 H 0.28324 0.06991 -0.10460
 H57 H 0.33347 0.16590 -0.06297
 C58 C 0.11213 0.88491 0.34210
 C59 C 0.08539 0.85740 0.33915
 C60 C 0.08447 0.82865 0.36250
 C61 C 0.11030 0.82861 0.38962
 C62 C 0.13697 0.85609 0.39306
 C63 C 0.13775 0.88451 0.36937
 C64 C 0.11404 0.91256 0.31793
 C65 C 0.14089 0.94008 0.32094
 C66 C 0.16496 0.94056 0.34919
 C67 C 0.16419 0.91253 0.37294
 C68 C 0.18992 0.91169 0.39981
 C69 C 0.19003 0.88281 0.42274
 C70 C 0.16308 0.85547 0.41969
 H71 H 0.06597 0.85779 0.31796
 H72 H 0.10898 0.80767 0.40873
 H73 H 0.09502 0.91246 0.29645
 H74 H 0.18492 0.96236 0.35215
 H75 H 0.21047 0.93301 0.40256
 H76 H 0.16303 0.83341 0.43769
 N77 N 0.06425 0.17416 0.10940
 N78 N 0.06126 0.16892 0.14226
 C79 C 0.03362 0.18967 0.15432
 C80 C 0.01852 0.20864 0.12749
 C81 C 0.03862 0.19835 0.09944
 H82 H 0.02643 0.19237 0.18079
 H83 H 0.03650 0.20967 0.07425
 Cu84 Cu 0.09585 0.13830 0.16693
 Cu85 Cu 0.10525 0.15471 0.08315
 Cu86 Cu 0.16213 0.09361 0.12379
 N87 N 0.12224 0.09755 0.18648
 N88 N 0.14722 0.07962 0.16916
 C89 C 0.15936 0.05172 0.18783
 C90 C 0.14181 0.05263 0.21899
 C91 C 0.11800 0.08186 0.21699
 H92 H 0.17868 0.03157 0.17894
 H93 H 0.09850 0.09059 0.23608
 N94 N 0.17183 0.11111 0.07768
 N95 N 0.14877 0.13263 0.06136
 C96 C 0.16284 0.13984 0.03053
 C97 C 0.19713 0.12316 0.02780
 C98 C 0.20153 0.10462 0.05797
 H99 H 0.14949 0.15664 0.01171
 H100 H 0.22516 0.08837 0.06532
 H101 H 0.10797 0.10913 0.11311
 H102 H 0.14217 0.14627 0.12272
 N103 N 0.42106 0.80980 0.61749
 N104 N 0.42836 0.81883 0.64911
 C105 C 0.45825 0.80030 0.66008
 C106 C 0.47043 0.77872 0.63379
 C107 C 0.44592 0.78505 0.60732
 H108 H 0.47016 0.80219 0.68530
 H109 H 0.44650 0.77284 0.58240
 Cu110 Cu 0.39822 0.85385 0.67302
 Cu111 Cu 0.38071 0.83165 0.59162
 Cu112 Cu 0.33569 0.90331 0.62954
 N113 N 0.37691 0.89740 0.69194
 N114 N 0.35291 0.91694 0.67472
 C115 C 0.34356 0.94593 0.69334
 C116 C 0.36232 0.94413 0.72401
 C117 C 0.38357 0.91321 0.72214
 H118 H 0.32470 0.96689 0.68520
 H119 H 0.40304 0.90347 0.74103
 N120 N 0.32232 0.88513 0.58406
 N121 N 0.33927 0.85756 0.56976
 C122 C 0.32383 0.85142 0.53907
 C123 C 0.29625 0.87665 0.53359
 C124 C 0.29565 0.89725 0.56281
 H125 H 0.33173 0.82996 0.52201
 H126 H 0.27711 0.91942 0.56807
 H127 H 0.38610 0.87987 0.61762
 H128 H 0.34782 0.84890 0.63142
 N129 N 0.91837 0.69342 0.38220
 N130 N 0.92496 0.68303 0.35091
 C131 C 0.95336 0.70258 0.33838
 C132 C 0.96486 0.72658 0.36313
 C133 C 0.94217 0.72017 0.39060
 H134 H 0.96547 0.69891 0.31357
 H135 H 0.94385 0.73305 0.41519
 Cu136 Cu 0.89755 0.64356 0.33007
 Cu137 Cu 0.88142 0.66957 0.41044
 Cu138 Cu 0.84401 0.59022 0.37861
 N139 N 0.88208 0.59601 0.31504
 N140 N 0.86207 0.57474 0.33440
 C141 C 0.85677 0.54306 0.31833
 C142 C 0.87483 0.54442 0.28742
 C143 C 0.88997 0.57875 0.28595
 H144 H 0.84113 0.52057 0.32840
 H145 H 0.90550 0.59036 0.26523
 N146 N 0.82941 0.61082 0.42269
 N147 N 0.84371 0.64110 0.43481
 C148 C 0.82793 0.64840 0.46492
 C149 C 0.80278 0.62127 0.47222
 C150 C 0.80404 0.59816 0.44473
 H151 H 0.83361 0.67209 0.48013
 H152 H 0.78738 0.57411 0.44104
 H153 H 0.89150 0.62060 0.38726
 H154 H 0.84898 0.64552 0.37287
 N155 N 0.57715 0.31353 -0.11398
 N156 N 0.56890 0.32353 -0.14511
 C157 C 0.54035 0.30325 -0.15679
 C158 C 0.53005 0.27956 -0.13148
 C159 C 0.55429 0.28644 -0.10486
 H160 H 0.52762 0.30571 -0.18161
 H161 H 0.55456 0.27332 -0.08039
 Cu162 Cu 0.59538 0.36334 -0.16605
 Cu163 Cu 0.61557 0.33766 -0.08689
 Cu164 Cu 0.66047 0.41070 -0.12412
 N165 N 0.61979 0.40432 -0.18708
 N166 N 0.64489 0.42319 -0.17020
 C167 C 0.65612 0.45105 -0.18948
 C168 C 0.63744 0.44920 -0.22022
 C169 C 0.61428 0.41950 -0.21769
 H170 H 0.67600 0.47145 -0.18164
 H171 H 0.59415 0.41045 -0.23641
 N172 N 0.67212 0.39352 -0.07786
 N173 N 0.65513 0.36570 -0.06382
 C174 C 0.66982 0.36013 -0.03277
 C175 C 0.69702 0.38587 -0.02679
 C176 C 0.69809 0.40627 -0.05606
 H177 H 0.66217 0.33833 -0.01602
 H178 H 0.71688 0.42842 -0.06116
 H179 H 0.61064 0.38728 -0.11014
 H180 H 0.64734 0.35662 -0.12658
 C181 C -0.04475 0.23346 0.12261
 C182 C -0.06988 0.26192 0.12239
 C183 C -0.05817 0.29757 0.12898
 C184 C -0.01930 0.30429 0.13416
 C185 C 0.00600 0.27497 0.13515
 C186 C -0.00705 0.23947 0.12936
 C187 C 0.04405 0.28223 0.14084
 N188 N 0.05617 0.31672 0.14367
 N189 N 0.03291 0.34438 0.14084
 C190 C -0.00414 0.33942 0.13575
 H191 H -0.05489 0.20640 0.11762
 H192 H -0.09906 0.25560 0.11834
 H193 H 0.06435 0.26087 0.14262
 H194 H -0.02101 0.36310 0.13199
 C195 C 0.49385 0.71720 0.62409
 C196 C 0.52158 0.69110 0.62456
 C197 C 0.55792 0.69979 0.63479
 C198 C 0.56646 0.73551 0.64500
 C199 C 0.53824 0.76219 0.64446
 C200 C 0.50151 0.75270 0.63422
 C201 C 0.54818 0.79771 0.65337
 N202 N 0.58357 0.80543 0.66328
 N203 N 0.60975 0.78016 0.66469
 C204 C 0.60243 0.74550 0.65591
 H205 H 0.46599 0.70950 0.61611
 H206 H 0.51473 0.66389 0.61658
 H207 H 0.52843 0.81953 0.65218
 H208 H 0.62477 0.72612 0.65756
 C209 C 0.99033 0.78761 0.35509
 C210 C 1.01959 0.81228 0.35384
 C211 C 1.05665 0.80157 0.35991
 C212 C 1.06402 0.76415 0.36486
 C213 C 1.03397 0.73919 0.36638
 C214 C 0.99700 0.75129 0.36178
 C215 C 1.04196 0.70261 0.37211
 N216 N 1.07780 0.69156 0.37445
 N217 N 1.10610 0.71454 0.37124
 C218 C 1.10050 0.75025 0.36619
 H219 H 0.96211 0.79705 0.35120
 H220 H 1.01275 0.84039 0.35000
 H221 H 1.02009 0.68266 0.37442
 H222 H 1.12467 0.76716 0.36243
 C223 C 0.50878 0.21681 -0.12376
 C224 C 0.48179 0.18975 -0.12451
 C225 C 0.44497 0.19751 -0.13366
 C226 C 0.43523 0.23320 -0.14272
 C227 C 0.46262 0.26087 -0.14166
 C228 C 0.49984 0.25236 -0.13243
 C229 C 0.45138 0.29634 -0.14895
 N230 N 0.41562 0.30308 -0.15813
 N231 N 0.39026 0.27689 -0.16027
 C232 C 0.39882 0.24222 -0.15290
 H233 H 0.53703 0.20988 -0.11655
 H234 H 0.48954 0.16259 -0.11740
 H235 H 0.47036 0.31888 -0.14705
 H236 H 0.37709 0.22208 -0.15515
 C237 C 0.11119 0.01553 0.26296
 C238 C 0.11078 -0.01204 0.28683
 C239 C 0.14322 -0.03120 0.29478
 C240 C 0.17701 -0.02185 0.27837
 C241 C 0.17786 0.00767 0.25549
 C242 C 0.14422 0.02549 0.24660
 C243 C 0.21266 0.01864 0.24281
 N244 N 0.24366 -0.00068 0.25005
 N245 N 0.24232 -0.03003 0.26935
 C246 C 0.21010 -0.04136 0.28361
 H247 H 0.08517 0.02870 0.25675
 H248 H 0.08474 -0.01860 0.29915
 H249 H 0.21582 0.04272 0.22780
 H250 H 0.21076 -0.06563 0.29867
 C251 C 0.63268 0.51204 -0.23978
 C252 C 0.63094 0.53829 -0.26485
 C253 C 0.63550 0.52952 -0.29933
 C254 C 0.64025 0.49253 -0.30834
 C255 C 0.64266 0.46590 -0.28253
 C256 C 0.63839 0.47586 -0.24806
 C257 C 0.64941 0.43000 -0.29217
 N258 N 0.65080 0.42099 -0.32546
 N259 N 0.64586 0.44542 -0.34971
 C260 C 0.64027 0.48067 -0.34235
 H261 H 0.62912 0.52007 -0.21357
 H262 H 0.62752 0.56604 -0.25689
 H263 H 0.65368 0.40897 -0.27366
 H264 H 0.63509 0.49880 -0.36322
 C265 C 0.37004 1.00711 0.74265
 C266 C 0.37196 1.03397 0.76724
 C267 C 0.36560 1.02631 0.80168
 C268 C 0.35907 0.98973 0.81125
 C269 C 0.35651 0.96248 0.78592
 C270 C 0.36239 0.97138 0.75143
 C271 C 0.34792 0.92708 0.79606
 N272 N 0.34492 0.91906 0.82944
 N273 N 0.34996 0.94400 0.85334
 C274 C 0.35727 0.97884 0.84546
 H275 H 0.37480 1.01431 0.71641
 H276 H 0.37681 1.06137 0.75885
 H277 H 0.34348 0.90567 0.77786
 H278 H 0.36237 0.99741 0.86611
 C279 C 0.84215 0.49728 0.25412
 C280 C 0.84002 0.47171 0.22828
 C281 C 0.87092 0.46427 0.20798
 C282 C 0.90473 0.48331 0.21388
 C283 C 0.90740 0.50825 0.24118
 C284 C 0.87536 0.51608 0.26081
 C285 C 0.94246 0.52376 0.24829
 N286 N 0.97178 0.51697 0.22780
 N287 N 0.96858 0.49549 0.20087
 C288 C 0.93611 0.47853 0.19315
 H289 H 0.81739 0.50273 0.26877
 H290 H 0.81401 0.45738 0.22424
 H291 H 0.94721 0.54063 0.27022
 H292 H 0.93517 0.46168 0.17078
 C293 C 0.24235 0.09213 -0.00900
 C294 C 0.26751 0.09072 -0.03565
 C295 C 0.27434 0.12102 -0.05583
 C296 C 0.25459 0.15333 -0.04919
 C297 C 0.23076 0.15549 -0.02064
 C298 C 0.22370 0.12413 -0.00095
 C299 C 0.21592 0.18944 -0.01235
 N300 N 0.22143 0.21798 -0.03316
 N301 N 0.24118 0.21508 -0.06146
 C302 C 0.25784 0.18377 -0.07023
 H303 H 0.23756 0.06788 0.00560
 H304 H 0.28231 0.06580 -0.04014
 H305 H 0.20081 0.19404 0.01076
 H306 H 0.27331 0.18298 -0.09364
 C307 C 0.73909 0.61399 0.49446
 C308 C 0.71309 0.61390 0.52049
 C309 C 0.72427 0.61884 0.55426
 C310 C 0.76253 0.62394 0.56197
 C311 C 0.78911 0.62378 0.53547
 C312 C 0.77706 0.61936 0.50135
 C313 C 0.82701 0.62729 0.54428
 N314 N 0.83719 0.63209 0.57717
 N315 N 0.81213 0.63343 0.60187
 C316 C 0.77519 0.62956 0.59542
 H317 H 0.72936 0.61053 0.46857
 H318 H 0.68393 0.60986 0.51425
 H319 H 0.84871 0.62578 0.52551
 H320 H 0.75613 0.63097 0.61649
 C321 C 0.76105 0.39096 -0.00399
 C322 C 0.78713 0.38991 0.02226
 C323 C 0.77589 0.38601 0.05600
 C324 C 0.73739 0.38357 0.06344
 C325 C 0.71074 0.38519 0.03671
 C326 C 0.72287 0.38796 0.00260
 C327 C 0.67274 0.38458 0.04523
 N328 N 0.66241 0.38082 0.07805
 N329 N 0.68743 0.37782 0.10294
 C330 C 0.72451 0.37899 0.09678
 H331 H 0.77091 0.39314 -0.02982
 H332 H 0.81646 0.39191 0.01618
 H333 H 0.65112 0.38758 0.02629
 H334 H 0.74348 0.37624 0.11801
 C335 C 0.23252 0.88223 0.51027
 C336 C 0.20684 0.88298 0.48366
 C337 C 0.21860 0.88107 0.44994
 C338 C 0.25717 0.87824 0.44290
 C339 C 0.28342 0.87817 0.46999
 C340 C 0.27078 0.87939 0.50401
 C341 C 0.32154 0.87770 0.46189
 N342 N 0.33231 0.87543 0.42906
 N343 N 0.30762 0.87384 0.40376
 C344 C 0.27048 0.87510 0.40953
 H345 H 0.22233 0.88325 0.53606
 H346 H 0.17747 0.88521 0.48942
 H347 H 0.34296 0.87967 0.48115
 H348 H 0.25180 0.87350 0.38796
   
