data_POSCAR
  _audit_creation_date              2014-09-24
  _audit_creation_method            'ToBaCCo'
  _symmetry_space_group_name_H-M    'P1'
  _symmetry_Int_Tables_number       1
  _symmetry_cell_setting            triclinic
  loop_
  _symmetry_equiv_pos_as_xyz
 x,y,z
_cell_length_a 57.8116
_cell_length_b 57.8186
_cell_length_c 57.8811
_cell_angle_alpha 89.996300
_cell_angle_beta 90.001100
_cell_angle_gamma 90.033800
loop_
  _atom_site_label
  _atom_site_type_symbol
  _atom_site_fract_x
  _atom_site_fract_y
  _atom_site_fract_z
N1 N 0.17031 0.22478 0.23088
 N2 N 0.17682 0.20658 0.24289
 C3 C 0.16216 0.20364 0.26076
 C4 C 0.14575 0.22090 0.25975
 C5 C 0.15132 0.23402 0.24068
 H6 H 0.16327 0.19004 0.27354
 H7 H 0.14225 0.24914 0.23443
 Cu8 Cu 0.20375 0.18857 0.23380
 Cu9 Cu 0.18698 0.23528 0.20359
 Cu10 Cu 0.23538 0.20369 0.18750
 N11 N 0.23105 0.17110 0.22478
 N12 N 0.24330 0.17709 0.20657
 C13 C 0.26102 0.16220 0.20403
 C14 C 0.25972 0.14614 0.22157
 C15 C 0.24060 0.15216 0.23446
 H16 H 0.27384 0.16295 0.19044
 H17 H 0.23416 0.14336 0.24964
 N18 N 0.22459 0.23114 0.17042
 N19 N 0.20613 0.24315 0.17654
 C20 C 0.20336 0.26086 0.16166
 C21 C 0.22086 0.25983 0.14557
 C22 C 0.23402 0.24090 0.15149
 H23 H 0.18972 0.27362 0.16246
 H24 H 0.24934 0.23480 0.14269
 H25 H 0.20032 0.20339 0.19448
 H26 H 0.21878 0.22213 0.21319
 N27 N 0.67069 0.72522 0.73115
 N28 N 0.67708 0.70690 0.74303
 C29 C 0.66236 0.70389 0.76084
 C30 C 0.64605 0.72123 0.75992
 C31 C 0.65172 0.73448 0.74097
 H32 H 0.66339 0.69020 0.77353
 H33 H 0.64275 0.74969 0.73482
 Cu34 Cu 0.70408 0.68894 0.73403
 Cu35 Cu 0.68743 0.73577 0.70393
 Cu36 Cu 0.73560 0.70399 0.68759
 N37 N 0.73113 0.67125 0.72470
 N38 N 0.74337 0.67727 0.70650
 C39 C 0.76106 0.66236 0.70390
 C40 C 0.75974 0.64627 0.72139
 C41 C 0.74065 0.65227 0.73431
 H42 H 0.77392 0.66317 0.69035
 H43 H 0.73426 0.64348 0.74952
 N44 N 0.72495 0.73157 0.67069
 N45 N 0.70661 0.74368 0.67692
 C46 C 0.70388 0.76144 0.66209
 C47 C 0.72130 0.76033 0.64592
 C48 C 0.73437 0.74131 0.65174
 H49 H 0.69029 0.77426 0.66295
 H50 H 0.74960 0.73511 0.64284
 H51 H 0.70060 0.70382 0.69476
 H52 H 0.71924 0.72245 0.71340
 N53 N 0.32905 0.77547 0.73086
 N54 N 0.32259 0.79370 0.74283
 C55 C 0.33734 0.79670 0.76062
 C56 C 0.35374 0.77944 0.75960
 C57 C 0.34808 0.76625 0.74060
 H58 H 0.33623 0.81029 0.77341
 H59 H 0.35706 0.75105 0.73442
 Cu60 Cu 0.29534 0.81141 0.73407
 Cu61 Cu 0.31217 0.76484 0.70374
 Cu62 Cu 0.26378 0.79644 0.68766
 N63 N 0.26837 0.82925 0.72473
 N64 N 0.25607 0.82322 0.70656
 C65 C 0.23840 0.83817 0.70395
 C66 C 0.23983 0.85430 0.72140
 C67 C 0.25893 0.84829 0.73432
 H68 H 0.22552 0.83734 0.69042
 H69 H 0.26539 0.85709 0.74950
 N70 N 0.27440 0.76883 0.67073
 N71 N 0.29285 0.75682 0.67685
 C72 C 0.29559 0.73907 0.66201
 C73 C 0.27806 0.74007 0.64594
 C74 C 0.26492 0.75903 0.65184
 H75 H 0.30927 0.72635 0.66277
 H76 H 0.24964 0.76517 0.64299
 H77 H 0.29879 0.79676 0.69473
 H78 H 0.28031 0.77791 0.71331
 N79 N 0.82987 0.27475 0.23157
 N80 N 0.82355 0.29316 0.24335
 C81 C 0.83830 0.29624 0.26114
 C82 C 0.85453 0.27882 0.26027
 C83 C 0.84881 0.26546 0.24141
 H84 H 0.83730 0.30999 0.27376
 H85 H 0.85770 0.25016 0.23535
 Cu86 Cu 0.79649 0.31101 0.23435
 Cu87 Cu 0.81309 0.26413 0.20437
 Cu88 Cu 0.76510 0.29612 0.18784
 N89 N 0.76965 0.32896 0.22488
 N90 N 0.75742 0.32296 0.20667
 C91 C 0.73978 0.33792 0.20403
 C92 C 0.74112 0.35403 0.22150
 C93 C 0.76018 0.34798 0.23446
 H94 H 0.72690 0.33710 0.19050
 H95 H 0.76654 0.35672 0.24971
 N96 N 0.77564 0.26841 0.17104
 N97 N 0.79389 0.25620 0.17737
 C98 C 0.79659 0.23842 0.16256
 C99 C 0.77925 0.23961 0.14631
 C100 C 0.76626 0.25871 0.15205
 H101 H 0.81013 0.22556 0.16348
 H102 H 0.75114 0.26501 0.14304
 H103 H 0.80008 0.29609 0.19514
 H104 H 0.78128 0.27754 0.21369
 N105 N 0.82943 0.72524 0.26897
 N106 N 0.82305 0.70690 0.25711
 C107 C 0.83777 0.70391 0.23930
 C108 C 0.85407 0.72128 0.24021
 C109 C 0.84839 0.73453 0.25915
 H110 H 0.83674 0.69022 0.22662
 H111 H 0.85734 0.74978 0.26526
 Cu112 Cu 0.79608 0.68889 0.26612
 Cu113 Cu 0.81264 0.73581 0.29615
 Cu114 Cu 0.76450 0.70394 0.31249
 N115 N 0.76905 0.67114 0.27545
 N116 N 0.75679 0.67714 0.29363
 C117 C 0.73913 0.66218 0.29626
 C118 C 0.74049 0.64605 0.27880
 C119 C 0.75957 0.65211 0.26587
 H120 H 0.72625 0.66297 0.30979
 H121 H 0.76598 0.64333 0.25066
 N122 N 0.77507 0.73159 0.32933
 N123 N 0.79342 0.74373 0.32311
 C124 C 0.79612 0.76152 0.33791
 C125 C 0.77868 0.76040 0.35406
 C126 C 0.76563 0.74134 0.34826
 H127 H 0.80971 0.77435 0.33706
 H128 H 0.75042 0.73511 0.35718
 H129 H 0.79952 0.70386 0.30536
 H130 H 0.78088 0.72241 0.28667
 N131 N 0.32962 0.22523 -0.23163
 N132 N 0.32299 0.20714 -0.24375
 C133 C 0.33769 0.20415 -0.26160
 C134 C 0.35426 0.22127 -0.26041
 C135 C 0.34875 0.23437 -0.24129
 H136 H 0.33646 0.19064 -0.27446
 H137 H 0.35793 0.24938 -0.23492
 Cu138 Cu 0.29576 0.18941 -0.23489
 Cu139 Cu 0.31289 0.23571 -0.20433
 Cu140 Cu 0.26441 0.20406 -0.18829
 N141 N 0.26868 0.17161 -0.22571
 N142 N 0.25652 0.17747 -0.20741
 C143 C 0.23890 0.16245 -0.20478
 C144 C 0.24016 0.14646 -0.22238
 C145 C 0.25916 0.15264 -0.23538
 H146 H 0.22617 0.16307 -0.19111
 H147 H 0.26552 0.14395 -0.25065
 N148 N 0.27521 0.23152 -0.17120
 N149 N 0.29368 0.24355 -0.17728
 C150 C 0.29645 0.26123 -0.16236
 C151 C 0.27894 0.26016 -0.14628
 C152 C 0.26577 0.24123 -0.15225
 H153 H 0.31011 0.27399 -0.16311
 H154 H 0.25045 0.23509 -0.14345
 H155 H 0.29940 0.20381 -0.19544
 H156 H 0.28093 0.22280 -0.21383
 N157 N 0.67050 0.27454 -0.23148
 N158 N 0.67717 0.29258 -0.24365
 C159 C 0.66252 0.29551 -0.26154
 C160 C 0.64596 0.27839 -0.26034
 C161 C 0.65140 0.26536 -0.24117
 H162 H 0.66373 0.30903 -0.27440
 H163 H 0.64219 0.25039 -0.23474
 Cu164 Cu 0.70421 0.31046 -0.23454
 Cu165 Cu 0.68707 0.26422 -0.20400
 Cu166 Cu 0.73529 0.29615 -0.18772
 N167 N 0.73123 0.32834 -0.22542
 N168 N 0.74322 0.32267 -0.20694
 C169 C 0.76077 0.33774 -0.20427
 C170 C 0.75963 0.35359 -0.22199
 C171 C 0.74078 0.34726 -0.23514
 H172 H 0.77338 0.33725 -0.19047
 H173 H 0.73453 0.35585 -0.25052
 N174 N 0.72447 0.26873 -0.17059
 N175 N 0.70613 0.25657 -0.17678
 C176 C 0.70340 0.23886 -0.16188
 C177 C 0.72083 0.24006 -0.14570
 C178 C 0.73388 0.25908 -0.15159
 H179 H 0.68988 0.22596 -0.16274
 H180 H 0.74915 0.26529 -0.14276
 H181 H 0.70033 0.29621 -0.19508
 H182 H 0.71904 0.27725 -0.21325
 N183 N 0.17075 0.77520 0.26896
 N184 N 0.17718 0.79352 0.25709
 C185 C 0.16248 0.79653 0.23926
 C186 C 0.14615 0.77918 0.24016
 C187 C 0.15179 0.76593 0.25912
 H188 H 0.16355 0.81021 0.22657
 H189 H 0.14280 0.75071 0.26524
 Cu190 Cu 0.20418 0.81148 0.26613
 Cu191 Cu 0.18747 0.76463 0.29620
 Cu192 Cu 0.23565 0.79644 0.31258
 N193 N 0.23125 0.82920 0.27547
 N194 N 0.24348 0.82319 0.29369
 C195 C 0.26117 0.83812 0.29632
 C196 C 0.25985 0.85421 0.27882
 C197 C 0.24077 0.84820 0.26586
 H198 H 0.27402 0.83731 0.30989
 H199 H 0.23439 0.85697 0.25063
 N200 N 0.22496 0.76883 0.32947
 N201 N 0.20661 0.75671 0.32323
 C202 C 0.20385 0.73894 0.33805
 C203 C 0.22126 0.74006 0.35425
 C204 C 0.23435 0.75909 0.34844
 H205 H 0.19026 0.72612 0.33717
 H206 H 0.24957 0.76529 0.35736
 H207 H 0.20064 0.79657 0.30538
 H208 H 0.21928 0.77795 0.28676
 N209 N 0.47493 0.41970 0.48106
 N210 N 0.45634 0.42582 0.49268
 C211 C 0.45331 0.41106 0.51046
 C212 C 0.47091 0.39500 0.50980
 C213 C 0.48434 0.40088 0.49102
 H214 H 0.43949 0.41195 0.52302
 H215 H 0.49982 0.39219 0.48514
 Cu216 Cu 0.43844 0.45279 0.48353
 Cu217 Cu 0.48567 0.43670 0.45399
 Cu218 Cu 0.45371 0.48486 0.43769
 N219 N 0.42055 0.47980 0.47443
 N220 N 0.42675 0.49233 0.45649
 C221 C 0.41189 0.51008 0.45404
 C222 C 0.39563 0.50852 0.47136
 C223 C 0.40149 0.48920 0.48403
 H224 H 0.41289 0.52319 0.44074
 H225 H 0.39260 0.48263 0.49910
 N226 N 0.48151 0.47445 0.42093
 N227 N 0.49368 0.45613 0.42713
 C228 C 0.51148 0.45351 0.41232
 C229 C 0.51033 0.47097 0.39619
 C230 C 0.49125 0.48395 0.40201
 H231 H 0.52431 0.43994 0.41313
 H232 H 0.48496 0.49913 0.39309
 H233 H 0.47209 0.46837 0.46347
 H234 H 0.45384 0.44980 0.44444
 N235 N -0.02491 -0.07949 0.98082
 N236 N -0.04322 -0.07312 0.99273
 C237 C -0.04619 -0.08783 1.01055
 C238 C -0.02884 -0.10414 1.00960
 C239 C -0.01562 -0.09845 0.99063
 H240 H -0.05984 -0.08680 1.02328
 H241 H -0.00039 -0.10740 0.98447
 Cu242 Cu -0.06118 -0.04611 0.98383
 Cu243 Cu -0.01442 -0.06270 0.95359
 Cu244 Cu -0.04627 -0.01452 0.93740
 N245 N -0.07890 -0.01904 0.97461
 N246 N -0.07295 -0.00677 0.95641
 C247 C -0.08787 0.01092 0.95389
 C248 C -0.10391 0.00956 0.97143
 C249 C -0.09785 -0.00955 0.98430
 H250 H -0.08712 0.02380 0.94036
 H251 H -0.10659 -0.01597 0.99953
 N252 N -0.01872 -0.02514 0.92039
 N253 N -0.00658 -0.04348 0.92657
 C254 C 0.01113 -0.04621 0.91168
 C255 C 0.00996 -0.02879 0.89551
 C256 C -0.00905 -0.01573 0.90140
 H257 H 0.02395 -0.05979 0.91250
 H258 H -0.01530 -0.00051 0.89251
 H259 H -0.02773 -0.03092 0.96312
 H260 H -0.04640 -0.04955 0.94451
 N261 N 1.02544 0.57994 0.98065
 N262 N 1.04388 0.57366 0.99241
 C263 C 1.04693 0.58840 1.01019
 C264 C 1.02947 0.60460 1.00940
 C265 C 1.01612 0.59883 0.99055
 H266 H 1.06069 0.58743 1.02281
 H267 H 1.00073 0.60763 0.98459
 Cu268 Cu 1.06181 0.54669 0.98335
 Cu269 Cu 1.01473 0.56303 0.95356
 Cu270 Cu 1.04642 0.51464 0.93748
 N271 N 1.07942 0.51949 0.97435
 N272 N 1.07323 0.50700 0.95637
 C273 C 1.08807 0.48923 0.95394
 C274 C 1.10431 0.49077 0.97128
 C275 C 1.09845 0.51008 0.98395
 H276 H 1.08710 0.47614 0.94063
 H277 H 1.10739 0.51669 0.99899
 N278 N 1.01876 0.52521 0.92060
 N279 N 1.00672 0.54364 0.92671
 C280 C 0.98898 0.54636 0.91184
 C281 C 0.99004 0.52884 0.89577
 C282 C 1.00901 0.51573 0.90169
 H283 H 0.97624 0.56002 0.91259
 H284 H 1.01519 0.50046 0.89284
 H285 H 1.02807 0.53131 0.96317
 H286 H 1.04653 0.54971 0.94419
 N287 N 0.52457 0.07948 0.48132
 N288 N 0.54301 0.07322 0.49307
 C289 C 0.54597 0.08788 0.51094
 C290 C 0.52847 0.10404 0.51021
 C291 C 0.51518 0.09831 0.49129
 H292 H 0.55977 0.08695 0.52352
 H293 H 0.49987 0.10720 0.48523
 Cu294 Cu 0.56134 0.04658 0.48377
 Cu295 Cu 0.51412 0.06276 0.45400
 Cu296 Cu 0.54623 0.01488 0.43747
 N297 N 0.57897 0.01944 0.47457
 N298 N 0.57297 0.00717 0.45638
 C299 C 0.58788 -0.01052 0.45383
 C300 C 0.60395 -0.00918 0.47134
 C301 C 0.59793 0.00993 0.48423
 H302 H 0.58709 -0.02341 0.44031
 H303 H 0.60669 0.01633 0.49945
 N304 N 0.51860 0.02542 0.42057
 N305 N 0.50634 0.04364 0.42687
 C306 C 0.48855 0.04627 0.41205
 C307 C 0.48980 0.02892 0.39581
 C308 C 0.50893 0.01599 0.40158
 H309 H 0.47561 0.05974 0.41298
 H310 H 0.51526 0.00085 0.39263
 H311 H 0.52783 0.03109 0.46340
 H312 H 0.54613 0.04989 0.44459
 N313 N -0.02492 0.07967 0.51888
 N314 N -0.04334 0.07338 0.50709
 C315 C -0.04632 0.08807 0.48926
 C316 C -0.02886 0.10428 0.49006
 C317 C -0.01557 0.09856 0.50897
 H318 H -0.06009 0.08711 0.47665
 H319 H -0.00027 0.10747 0.51504
 Cu320 Cu -0.06160 0.04665 0.51628
 Cu321 Cu -0.01443 0.06291 0.54612
 Cu322 Cu -0.04636 0.01479 0.56241
 N323 N -0.07916 0.01943 0.52537
 N324 N -0.07310 0.00707 0.54347
 C325 C -0.08801 -0.01065 0.54599
 C326 C -0.10414 -0.00922 0.52855
 C327 C -0.09816 0.00996 0.51574
 H328 H -0.08718 -0.02359 0.55946
 H329 H -0.10699 0.01645 0.50060
 N330 N -0.01876 0.02537 0.57935
 N331 N -0.00659 0.04370 0.57315
 C332 C 0.01116 0.04639 0.58802
 C333 C 0.00998 0.02895 0.60417
 C334 C -0.00907 0.01592 0.59830
 H335 H 0.02402 0.05995 0.58718
 H336 H -0.01532 0.00069 0.60718
 H337 H -0.02800 0.03125 0.53654
 H338 H -0.04638 0.04985 0.55546
 N339 N 0.47496 0.57981 0.01926
 N340 N 0.45636 0.57368 0.00764
 C341 C 0.45333 0.58842 -0.01014
 C342 C 0.47094 0.60448 -0.00949
 C343 C 0.48437 0.59863 0.00928
 H344 H 0.43949 0.58753 -0.02268
 H345 H 0.49984 0.60735 0.01517
 Cu346 Cu 0.43845 0.54672 0.01684
 Cu347 Cu 0.48569 0.56286 0.04634
 Cu348 Cu 0.45370 0.51470 0.06267
 N349 N 0.42055 0.51972 0.02593
 N350 N 0.42675 0.50720 0.04388
 C351 C 0.41189 0.48942 0.04631
 C352 C 0.39564 0.49099 0.02898
 C353 C 0.40150 0.51031 0.01632
 H354 H 0.41287 0.47631 0.05959
 H355 H 0.39262 0.51688 0.00124
 N356 N 0.48151 0.52514 0.07943
 N357 N 0.49368 0.54347 0.07322
 C358 C 0.51149 0.54611 0.08802
 C359 C 0.51034 0.52865 0.10416
 C360 C 0.49125 0.51566 0.09834
 H361 H 0.52433 0.55969 0.08719
 H362 H 0.48497 0.50047 0.10727
 H363 H 0.47210 0.53119 0.03688
 H364 H 0.45387 0.54976 0.05591
 N365 N 0.52514 -0.07982 0.01938
 N366 N 0.54374 -0.07369 0.00777
 C367 C 0.54677 -0.08842 -0.01002
 C368 C 0.52916 -0.10449 -0.00937
 C369 C 0.51573 -0.09864 0.00940
 H370 H 0.56060 -0.08752 -0.02257
 H371 H 0.50024 -0.10734 0.01527
 Cu372 Cu 0.56165 -0.04673 0.01697
 Cu373 Cu 0.51440 -0.06287 0.04646
 Cu374 Cu 0.54639 -0.01472 0.06282
 N375 N 0.57956 -0.01973 0.02608
 N376 N 0.57336 -0.00722 0.04403
 C377 C 0.58822 0.01055 0.04647
 C378 C 0.60448 0.00900 0.02914
 C379 C 0.59860 -0.01032 0.01647
 H380 H 0.58724 0.02366 0.05976
 H381 H 0.60748 -0.01687 0.00138
 N382 N 0.51857 -0.02516 0.07957
 N383 N 0.50640 -0.04348 0.07334
 C384 C 0.48859 -0.04614 0.08814
 C385 C 0.48973 -0.02870 0.10429
 C386 C 0.50882 -0.01570 0.09849
 H387 H 0.47576 -0.05973 0.08730
 H388 H 0.51511 -0.00052 0.10744
 H389 H 0.52801 -0.03119 0.03702
 H390 H 0.54623 -0.04977 0.05604
 N391 N 1.02499 0.42030 0.51900
 N392 N 1.04355 0.42646 0.50735
 C393 C 1.04656 0.41173 0.48955
 C394 C 1.02897 0.39564 0.49025
 C395 C 1.01557 0.40147 0.50905
 H396 H 1.06036 0.41265 0.47698
 H397 H 1.00011 0.39274 0.51495
 Cu398 Cu 1.06145 0.45343 0.51649
 Cu399 Cu 1.01428 0.43721 0.54610
 Cu400 Cu 1.04626 0.48540 0.56238
 N401 N 1.07935 0.48043 0.52559
 N402 N 1.07318 0.49294 0.54355
 C403 C 1.08806 0.51069 0.54599
 C404 C 1.10429 0.50913 0.52865
 C405 C 1.09840 0.48983 0.51597
 H406 H 1.08710 0.52378 0.55931
 H407 H 1.10727 0.48327 0.50089
 N408 N 1.01850 0.47493 0.57918
 N409 N 1.00632 0.45659 0.57298
 C410 C 0.98855 0.45392 0.58782
 C411 C 0.98972 0.47137 0.60396
 C412 C 1.00878 0.48439 0.59812
 H413 H 0.97573 0.44032 0.58702
 H414 H 1.01507 0.49957 0.60704
 H415 H 1.02781 0.46889 0.53661
 H416 H 1.04611 0.45033 0.55558
 C417 C 0.37423 -0.00056 0.25020
 C418 C 0.12556 -0.00047 0.74973
 C419 C 0.62546 0.49975 0.25015
 C420 C 0.87468 0.50005 0.74999
 C421 C 0.25005 0.37517 -0.00020
 C422 C 0.75011 0.12482 0.00011
 C423 C 0.25024 0.62463 0.49998
 C424 C 0.74983 0.87548 0.49997
 C425 C -0.00045 0.25015 0.37458
 C426 C 0.00010 0.75009 0.12504
 C427 C 0.50016 0.24978 0.62605
 C428 C 0.49973 0.75011 0.87475
 C429 C 0.09161 0.23155 0.30357
 N430 N 0.09184 0.22292 0.32536
 N431 N 0.07403 0.22656 0.33953
 C432 C 0.05547 0.23896 0.33232
 N433 N 0.05525 0.24759 0.31054
 N434 N 0.07305 0.24394 0.29638
 C435 C 0.11075 0.22766 0.28828
 C436 C 0.12675 0.22451 0.27531
 C437 C 0.03620 0.24280 0.34745
 C438 C 0.01978 0.24609 0.35988
 C439 C 0.59184 0.73181 0.80369
 N440 N 0.59331 0.72596 0.82634
 N441 N 0.57546 0.72955 0.84049
 C442 C 0.55563 0.73910 0.83240
 N443 N 0.55417 0.74494 0.80975
 N444 N 0.57200 0.74136 0.79562
 C445 C 0.61101 0.72796 0.78843
 C446 C 0.62703 0.72483 0.77548
 C447 C 0.53635 0.74289 0.84753
 C448 C 0.51994 0.74613 0.85999
 C449 C 0.40752 0.76866 0.80388
 N450 N 0.41978 0.78675 0.81241
 N451 N 0.43753 0.78314 0.82665
 C452 C 0.44355 0.76132 0.83281
 N453 N 0.43129 0.74322 0.82428
 N454 N 0.41354 0.74684 0.81004
 C455 C 0.38855 0.77253 0.78836
 C456 C 0.37266 0.77573 0.77526
 C457 C 0.46294 0.75741 0.84778
 C458 C 0.47943 0.75411 0.86012
 C459 C -0.09265 0.26844 0.30368
 N460 N -0.08208 0.28655 0.31419
 N461 N -0.06429 0.28301 0.32841
 C462 C -0.05658 0.26125 0.33256
 N463 N -0.06716 0.24315 0.32205
 N464 N -0.08494 0.24669 0.30783
 C465 C -0.11164 0.27225 0.28818
 C466 C -0.12756 0.27538 0.27509
 C467 C -0.03718 0.25745 0.34754
 C468 C -0.02070 0.25419 0.35990
 C469 C -0.09207 0.73183 0.19600
 N470 N -0.07982 0.71368 0.18761
 N471 N -0.06205 0.71721 0.17337
 C472 C -0.05601 0.73899 0.16708
 N473 N -0.06827 0.75714 0.17547
 N474 N -0.08604 0.75361 0.18971
 C475 C -0.11107 0.72805 0.21150
 C476 C -0.12699 0.72493 0.22457
 C477 C -0.03663 0.74282 0.15210
 C478 C -0.02016 0.74608 0.13972
 C479 C 0.40756 0.23140 0.69661
 N480 N 0.41369 0.25317 0.69038
 N481 N 0.43157 0.25669 0.67628
 C482 C 0.44388 0.23854 0.66796
 N483 N 0.43776 0.21676 0.67419
 N484 N 0.41987 0.21324 0.68830
 C485 C 0.38840 0.22765 0.71196
 C486 C 0.37234 0.22460 0.72491
 C487 C 0.46336 0.24237 0.65305
 C488 C 0.47987 0.24568 0.64072
 C489 C 0.59269 0.26815 0.69668
 N490 N 0.58505 0.24638 0.69241
 N491 N 0.56717 0.24283 0.67831
 C492 C 0.55639 0.26094 0.66802
 N493 N 0.56403 0.28272 0.67229
 N494 N 0.58191 0.28627 0.68640
 C495 C 0.61184 0.27195 0.71202
 C496 C 0.62789 0.27503 0.72497
 C497 C 0.53693 0.25711 0.65310
 C498 C 0.52043 0.25382 0.64076
 C499 C 0.09222 0.76846 0.19606
 N500 N 0.08600 0.78485 0.18048
 N501 N 0.06822 0.78124 0.16626
 C502 C 0.05614 0.76115 0.16719
 N503 N 0.06236 0.74477 0.18277
 N504 N 0.08014 0.74837 0.19698
 C505 C 0.11125 0.77237 0.21148
 C506 C 0.12720 0.77554 0.22453
 C507 C 0.03679 0.75737 0.15215
 C508 C 0.02034 0.75412 0.13974
 C509 C 0.30310 0.09163 0.23237
 N510 N 0.29471 0.06972 0.23266
 N511 N 0.30886 0.05186 0.23609
 C512 C 0.33183 0.05536 0.23933
 N513 N 0.34023 0.07727 0.23904
 N514 N 0.32608 0.09513 0.23560
 C515 C 0.28785 0.11085 0.22864
 C516 C 0.27501 0.12696 0.22545
 C517 C 0.34700 0.03609 0.24308
 C518 C 0.35949 0.01968 0.24626
 C519 C 0.80342 0.59204 0.73216
 N520 N 0.79598 0.57007 0.72873
 N521 N 0.81022 0.55228 0.73213
 C522 C 0.83233 0.55593 0.73905
 N523 N 0.83979 0.57791 0.74248
 N524 N 0.82554 0.59571 0.73908
 C525 C 0.78807 0.61116 0.72847
 C526 C 0.77513 0.62719 0.72530
 C527 C 0.84754 0.53672 0.74285
 C528 C 0.86001 0.52032 0.74606
 C529 C 0.80313 0.40808 0.76745
 N530 N 0.79484 0.43002 0.76720
 N531 N 0.80910 0.44784 0.76389
 C532 C 0.83206 0.44426 0.76075
 N533 N 0.84036 0.42233 0.76100
 N534 N 0.82610 0.40450 0.76431
 C535 C 0.78779 0.38891 0.77106
 C536 C 0.77491 0.37281 0.77416
 C537 C 0.84733 0.46347 0.75708
 C538 C 0.85988 0.47984 0.75392
 C539 C 0.30278 -0.09258 0.26803
 N540 N 0.29514 -0.07317 0.25732
 N541 N 0.30940 -0.05539 0.25383
 C542 C 0.33173 -0.05648 0.26093
 N543 N 0.33938 -0.07589 0.27164
 N544 N 0.32512 -0.09367 0.27513
 C545 C 0.28739 -0.11169 0.27185
 C546 C 0.27444 -0.12771 0.27510
 C547 C 0.34698 -0.03723 0.25727
 C548 C 0.35949 -0.02083 0.25412
 C549 C 0.19695 -0.09249 0.73214
 N550 N 0.20520 -0.07206 0.74020
 N551 N 0.19095 -0.05428 0.74362
 C552 C 0.16802 -0.05638 0.73910
 N553 N 0.15977 -0.07681 0.73104
 N554 N 0.17402 -0.09460 0.72761
 C555 C 0.21233 -0.11159 0.72836
 C556 C 0.22527 -0.12762 0.72512
 C557 C 0.15277 -0.03715 0.74272
 C558 C 0.14027 -0.02075 0.74584
 C559 C 0.69722 0.40804 0.23259
 N560 N 0.70539 0.42849 0.24067
 N561 N 0.69108 0.44621 0.24411
 C562 C 0.66816 0.44403 0.23958
 N563 N 0.65998 0.42358 0.23150
 N564 N 0.67430 0.40585 0.22806
 C565 C 0.71267 0.38902 0.22876
 C566 C 0.72567 0.37306 0.22549
 C567 C 0.65284 0.46320 0.24320
 C568 C 0.64027 0.47955 0.24629
 C569 C 0.69665 0.59193 0.26788
 N570 N 0.69560 0.58146 0.24694
 N571 N 0.68131 0.56370 0.24347
 C572 C 0.66762 0.55590 0.26083
 N573 N 0.66866 0.56636 0.28178
 N574 N 0.68295 0.58412 0.28524
 C575 C 0.71211 0.61096 0.27165
 C576 C 0.72509 0.62696 0.27487
 C577 C 0.65254 0.53653 0.25718
 C578 C 0.64013 0.52006 0.25405
 C579 C 0.19681 0.09181 0.76708
 N580 N 0.20512 0.07142 0.75901
 N581 N 0.19095 0.05354 0.75568
 C582 C 0.16804 0.05550 0.76031
 N583 N 0.15972 0.07588 0.76839
 N584 N 0.17389 0.09377 0.77172
 C585 C 0.21208 0.11105 0.77070
 C586 C 0.22491 0.12721 0.77380
 C587 C 0.15284 0.03620 0.75672
 C588 C 0.14034 0.01978 0.75361
 C589 C 0.23193 0.30384 0.09167
 N590 N 0.22123 0.32470 0.09083
 N591 N 0.22483 0.33895 0.07309
 C592 C 0.23926 0.33278 0.05567
 N593 N 0.24996 0.31193 0.05652
 N594 N 0.24636 0.29768 0.07426
 C595 C 0.22799 0.28843 0.11069
 C596 C 0.22471 0.27540 0.12662
 C597 C 0.24297 0.34795 0.03642
 C598 C 0.24614 0.36042 0.02002
 C599 C 0.73217 0.80428 0.59198
 N600 N 0.74917 0.79991 0.57645
 N601 N 0.75267 0.81415 0.55869
 C602 C 0.73928 0.83321 0.55594
 N603 N 0.72227 0.83759 0.57148
 N604 N 0.71878 0.82334 0.58924
 C605 C 0.72833 0.78886 0.61100
 C606 C 0.72511 0.77585 0.62695
 C607 C 0.74288 0.84833 0.53664
 C608 C 0.74597 0.86077 0.52021
 C609 C 0.76808 0.80430 0.40808
 N610 N 0.75371 0.82271 0.40589
 N611 N 0.75022 0.83695 0.42366
 C612 C 0.76101 0.83321 0.44412
 N613 N 0.77537 0.81481 0.44631
 N614 N 0.77887 0.80057 0.42855
 C615 C 0.77177 0.78889 0.38902
 C616 C 0.77491 0.77590 0.37306
 C617 C 0.75707 0.84833 0.46336
 C618 C 0.75378 0.86077 0.47975
 C619 C 0.26822 0.30405 -0.09221
 N620 N 0.25233 0.32123 -0.09371
 N621 N 0.24883 0.33548 -0.07594
 C622 C 0.26115 0.33297 -0.05616
 N623 N 0.27703 0.31578 -0.05466
 N624 N 0.28052 0.30154 -0.07242
 C625 C 0.27194 0.28864 -0.11129
 C626 C 0.27512 0.27565 -0.12726
 C627 C 0.25723 0.34807 -0.03689
 C628 C 0.25398 0.36050 -0.02047
 C629 C 0.73212 0.19605 -0.09186
 N630 N 0.72053 0.17569 -0.09042
 N631 N 0.72413 0.16145 -0.07267
 C632 C 0.73944 0.16713 -0.05585
 N633 N 0.75104 0.18748 -0.05730
 N634 N 0.74744 0.20171 -0.07504
 C635 C 0.72812 0.21148 -0.11085
 C636 C 0.72477 0.22450 -0.12676
 C637 C 0.74311 0.15200 -0.03655
 C638 C 0.74623 0.13955 -0.02013
 C639 C 0.23215 0.69610 0.40822
 N640 N 0.24646 0.70231 0.42572
 N641 N 0.25005 0.68803 0.44343
 C642 C 0.23946 0.66711 0.44417
 N643 N 0.22514 0.66090 0.42668
 N644 N 0.22155 0.67518 0.40896
 C645 C 0.22826 0.71152 0.38919
 C646 C 0.22505 0.72452 0.37323
 C647 C 0.24319 0.65189 0.46339
 C648 C 0.24636 0.63939 0.47976
 C649 C 0.26775 0.69605 0.59190
 N650 N 0.27851 0.69989 0.57143
 N651 N 0.27521 0.68557 0.55369
 C652 C 0.26108 0.66697 0.55589
 N653 N 0.25032 0.66312 0.57636
 N654 N 0.25362 0.67745 0.59410
 C655 C 0.27128 0.71152 0.61096
 C656 C 0.27433 0.72455 0.62693
 C657 C 0.25732 0.65178 0.53665
 C658 C 0.25415 0.63932 0.52025
 C659 C 0.76863 0.19582 0.09215
 N660 N 0.77924 0.19971 0.07162
 N661 N 0.77569 0.18552 0.05382
 C662 C 0.76144 0.16701 0.05603
 N663 N 0.75084 0.16311 0.07657
 N664 N 0.75439 0.17730 0.09437
 C665 C 0.77237 0.21118 0.11126
 C666 C 0.77551 0.22414 0.12726
 C667 C 0.75745 0.15193 0.03676
 C668 C 0.75412 0.13952 0.02035
 C669 C 0.48185 0.34153 0.55446
 N670 N 0.46582 0.33596 0.57065
 N671 N 0.46941 0.31832 0.58505
 C672 C 0.48916 0.30574 0.58370
 N673 N 0.50519 0.31131 0.56752
 N674 N 0.50159 0.32894 0.55312
 C675 C 0.47792 0.36039 0.53881
 C676 C 0.47468 0.37619 0.52560
 C677 C 0.49290 0.28647 0.59889
 C678 C 0.49612 0.27005 0.61136
 C679 C -0.01828 0.84209 0.05390
 N680 N 0.00332 0.83724 0.06167
 N681 N 0.00686 0.81951 0.07595
 C682 C -0.01109 0.80611 0.08291
 N683 N -0.03269 0.81095 0.07515
 N684 N -0.03623 0.82868 0.06087
 C685 C -0.02205 0.86105 0.03836
 C686 C -0.02517 0.87694 0.02525
 C687 C -0.00721 0.78676 0.09793
 C688 C -0.00392 0.77032 0.11033
 C689 C 0.01851 0.65806 0.05397
 N690 N 0.03577 0.66587 0.06780
 N691 N 0.03214 0.68358 0.08209
 C692 C 0.01115 0.69399 0.08299
 N693 N -0.00611 0.68617 0.06917
 N694 N -0.00249 0.66847 0.05489
 C695 C 0.02246 0.63918 0.03838
 C696 C 0.02571 0.62339 0.02518
 C697 C 0.00735 0.71336 0.09801
 C698 C 0.00411 0.72982 0.11037
 C699 C 0.51822 0.15807 0.55435
 N700 N 0.50887 0.17806 0.54645
 N701 N 0.50542 0.19579 0.56075
 C702 C 0.51120 0.19407 0.58339
 N703 N 0.52057 0.17408 0.59130
 N704 N 0.52403 0.15634 0.57700
 C705 C 0.52189 0.13898 0.53891
 C706 C 0.52490 0.12301 0.52585
 C707 C 0.50746 0.21323 0.59871
 C708 C 0.50422 0.22958 0.61127
 C709 C -0.01870 0.15816 0.44578
 N710 N -0.03428 0.17565 0.44463
 N711 N -0.03084 0.19340 0.43034
 C712 C -0.01174 0.19417 0.41675
 N713 N 0.00383 0.17667 0.41790
 N714 N 0.00040 0.15893 0.43219
 C715 C -0.02229 0.13916 0.46132
 C716 C -0.02529 0.12323 0.47442
 C717 C -0.00784 0.21349 0.40170
 C718 C -0.00452 0.22992 0.38929
 C719 C 0.48179 0.65817 0.94614
 N720 N 0.49684 0.67524 0.95186
 N721 N 0.50039 0.69296 0.93757
 C722 C 0.48901 0.69415 0.91712
 N723 N 0.47396 0.67708 0.91138
 N724 N 0.47041 0.65935 0.92568
 C725 C 0.47788 0.63919 0.96164
 C726 C 0.47467 0.62333 0.97477
 C727 C 0.49265 0.71342 0.90193
 C728 C 0.49580 0.72984 0.88946
 C729 C 0.51815 0.84194 0.94615
 N730 N 0.53185 0.83890 0.92736
 N731 N 0.52822 0.82120 0.91305
 C732 C 0.51077 0.80604 0.91708
 N733 N 0.49707 0.80909 0.93585
 N734 N 0.50070 0.82678 0.95017
 C735 C 0.52214 0.86087 0.96169
 C736 C 0.52539 0.87670 0.97486
 C737 C 0.50702 0.78677 0.90191
 C738 C 0.50378 0.77035 0.88946
 C739 C 0.01794 0.34207 0.44582
 N740 N 0.03164 0.33900 0.42705
 N741 N 0.02801 0.32128 0.41276
 C742 C 0.01056 0.30613 0.41681
 N743 N -0.00314 0.30921 0.43558
 N744 N 0.00049 0.32692 0.44986
 C745 C 0.02193 0.36100 0.46134
 C746 C 0.02520 0.37683 0.47449
 C747 C 0.00682 0.28683 0.40169
 C748 C 0.00359 0.27040 0.38926
 C749 C 0.34171 0.55256 0.48238
 N750 N 0.32002 0.54654 0.47577
 N751 N 0.30238 0.56098 0.47912
 C752 C 0.30589 0.58188 0.48916
 N753 N 0.32757 0.58791 0.49577
 N754 N 0.34522 0.57347 0.49242
 C755 C 0.36070 0.53703 0.47866
 C756 C 0.37663 0.52399 0.47541
 C757 C 0.28680 0.59727 0.49292
 C758 C 0.27047 0.60986 0.49608
 C759 C 0.84189 0.05324 -0.01763
 N760 N 0.82025 0.04707 -0.02423
 N761 N 0.80250 0.06136 -0.02085
 C762 C 0.80586 0.08228 -0.01078
 N763 N 0.82750 0.08846 -0.00417
 N764 N 0.84526 0.07416 -0.00755
 C765 C 0.86099 0.03786 -0.02135
 C766 C 0.87700 0.02493 -0.02458
 C767 C 0.78668 0.09753 -0.00701
 C768 C 0.77032 0.11006 -0.00382
 C769 C 0.65846 0.05298 0.01793
 N770 N 0.68044 0.04596 0.02209
 N771 N 0.69813 0.06034 0.01866
 C772 C 0.69437 0.08218 0.01100
 N773 N 0.67239 0.08921 0.00683
 N774 N 0.65469 0.07482 0.01026
 C775 C 0.63943 0.03750 0.02174
 C776 C 0.62348 0.02447 0.02505
 C777 C 0.71349 0.09755 0.00722
 C778 C 0.72985 0.11011 0.00403
 C779 C 0.15836 0.55298 0.51743
 N780 N 0.15512 0.57621 0.51770
 N781 N 0.17288 0.59053 0.51429
 C782 C 0.19441 0.58203 0.51051
 N783 N 0.19764 0.55880 0.51023
 N784 N 0.17989 0.54449 0.51364
 C785 C 0.13930 0.53755 0.52126
 C786 C 0.12333 0.52457 0.52458
 C787 C 0.21359 0.59735 0.50690
 C788 C 0.22997 0.60990 0.50382
 C789 C 0.15832 0.44690 -0.01758
 N790 N 0.18001 0.45534 -0.01466
 N791 N 0.19774 0.44101 -0.01129
 C792 C 0.19431 0.41781 -0.01073
 N793 N 0.17261 0.40936 -0.01363
 N794 N 0.15488 0.42370 -0.01701
 C795 C 0.13928 0.46234 -0.02137
 C796 C 0.12333 0.47534 -0.02466
 C797 C 0.21345 0.40247 -0.00713
 C798 C 0.22981 0.38991 -0.00405
 C799 C 0.65806 0.94705 0.48230
 N800 N 0.67974 0.95552 0.48520
 N801 N 0.69748 0.94122 0.48862
 C802 C 0.69407 0.91802 0.48922
 N803 N 0.67239 0.90953 0.48632
 N804 N 0.65465 0.92384 0.48290
 C805 C 0.63900 0.96245 0.47854
 C806 C 0.62301 0.97542 0.47531
 C807 C 0.71322 0.90271 0.49291
 C808 C 0.72958 0.89018 0.49606
 C809 C 0.84172 0.94701 0.51760
 N810 N 0.83587 0.93119 0.53390
 N811 N 0.81814 0.91686 0.53043
 C812 C 0.80575 0.91791 0.51056
 N813 N 0.81160 0.93373 0.49428
 N814 N 0.82932 0.94806 0.49774
 C815 C 0.86075 0.96246 0.52137
 C816 C 0.87676 0.97542 0.52459
 C817 C 0.78647 0.90274 0.50695
 C818 C 0.77006 0.89024 0.50384
 C819 C 0.34166 0.44702 0.01777
 N820 N 0.32000 0.45303 0.02445
 N821 N 0.30232 0.43865 0.02099
 C822 C 0.30576 0.41782 0.01078
 N823 N 0.32742 0.41181 0.00410
 N824 N 0.34511 0.42620 0.00755
 C825 C 0.36069 0.46250 0.02158
 C826 C 0.37663 0.47552 0.02489
 C827 C 0.28664 0.40248 0.00695
 C828 C 0.27029 0.38992 0.00373
 C829 C 0.55423 0.48174 0.34212
 N830 N 0.56189 0.46364 0.32934
 N831 N 0.57616 0.46713 0.31160
 C832 C 0.58323 0.48882 0.30612
 N833 N 0.57556 0.50692 0.31890
 N834 N 0.56129 0.50343 0.33664
 C835 C 0.53879 0.47799 0.36117
 C836 C 0.52580 0.47480 0.37715
 C837 C 0.59829 0.49260 0.28680
 C838 C 0.61073 0.49581 0.27037
 C839 C 0.05403 -0.01815 0.84155
 N840 N 0.05986 0.00362 0.83503
 N841 N 0.07423 0.00704 0.81735
 C842 C 0.08322 -0.01120 0.80568
 N843 N 0.07738 -0.03296 0.81219
 N844 N 0.06301 -0.03639 0.82987
 C845 C 0.03849 -0.02185 0.86053
 C846 C 0.02546 -0.02499 0.87648
 C847 C 0.09836 -0.00749 0.78639
 C848 C 0.11083 -0.00435 0.76997
 C849 C 0.05407 0.01790 0.65802
 N850 N 0.06461 0.03597 0.66863
 N851 N 0.07896 0.03236 0.68629
 C852 C 0.08323 0.01057 0.69384
 N853 N 0.07268 -0.00750 0.68324
 N854 N 0.05833 -0.00389 0.66558
 C855 C 0.03856 0.02179 0.63906
 C856 C 0.02551 0.02507 0.62315
 C857 C 0.09836 0.00671 0.71311
 C858 C 0.11083 0.00347 0.72950
 C859 C 0.55431 0.51779 0.15813
 N860 N 0.56478 0.53590 0.16874
 N861 N 0.57905 0.53236 0.18647
 C862 C 0.58331 0.51060 0.19410
 N863 N 0.57284 0.49248 0.18349
 N864 N 0.55857 0.49603 0.16576
 C865 C 0.53885 0.52161 0.13912
 C866 C 0.52585 0.52482 0.12316
 C867 C 0.59836 0.50680 0.21344
 C868 C 0.61077 0.50361 0.22988
 C869 C 0.44571 -0.01822 0.15833
 N870 N 0.43499 0.00245 0.16115
 N871 N 0.42065 0.00582 0.17886
 C872 C 0.41657 -0.01138 0.19426
 N873 N 0.42730 -0.03205 0.19145
 N874 N 0.44164 -0.03542 0.17374
 C875 C 0.46121 -0.02184 0.13930
 C876 C 0.47423 -0.02494 0.12333
 C877 C 0.40143 -0.00765 0.21355
 C878 C 0.38896 -0.00448 0.22996
 C879 C 0.94586 0.48203 0.65803
 N880 N 0.93940 0.46413 0.67174
 N881 N 0.92512 0.46760 0.68947
 C882 C 0.91685 0.48907 0.69402
 N883 N 0.92331 0.50697 0.68032
 N884 N 0.93759 0.50350 0.66258
 C885 C 0.96129 0.47831 0.63899
 C886 C 0.97427 0.47515 0.62300
 C887 C 0.90179 0.49286 0.71333
 C888 C 0.88937 0.49608 0.72976
 C889 C 0.94610 0.51803 0.84179
 N890 N 0.94683 0.49790 0.82979
 N891 N 0.93252 0.49437 0.81209
 C892 C 0.91703 0.51084 0.80587
 N893 N 0.91631 0.53098 0.81787
 N894 N 0.93062 0.53451 0.83557
 C895 C 0.96156 0.52185 0.86079
 C896 C 0.97456 0.52504 0.87675
 C897 C 0.90189 0.50713 0.78661
 C898 C 0.88941 0.50396 0.77021
 C899 C 0.44573 0.01790 0.34191
 N900 N 0.44495 0.03306 0.32405
 N901 N 0.43062 0.02949 0.30637
 C902 C 0.41661 0.01067 0.30603
 N903 N 0.41740 -0.00450 0.32388
 N904 N 0.43173 -0.00093 0.34157
 C905 C 0.46122 0.02174 0.36091
 C906 C 0.47425 0.02501 0.37684
 C907 C 0.40144 0.00670 0.28681
 C908 C 0.38896 0.00341 0.27043
   
