data_POSCAR
  _audit_creation_date              2014-09-24
  _audit_creation_method            'ToBaCCo'
  _symmetry_space_group_name_H-M    'P1'
  _symmetry_Int_Tables_number       1
  _symmetry_cell_setting            triclinic
  loop_
  _symmetry_equiv_pos_as_xyz
 x,y,z
_cell_length_a 38.0846
_cell_length_b 49.4126
_cell_length_c 35.0873
_cell_angle_alpha 90.088400
_cell_angle_beta 90.000000
_cell_angle_gamma 90.083700
loop_
  _atom_site_label
  _atom_site_type_symbol
  _atom_site_fract_x
  _atom_site_fract_y
  _atom_site_fract_z
O1 O 0.29422 0.22303 0.25241
 O2 O 0.24606 0.27686 0.20226
 O3 O 0.29418 0.27570 0.25495
 O4 O 0.24609 0.22418 0.19971
 O5 O 0.20484 0.22311 0.24404
 O6 O 0.25293 0.27464 0.29929
 O7 O 0.20480 0.27579 0.24659
 O8 O 0.25296 0.22196 0.29675
 Cu9 Cu 0.27430 0.25005 0.22286
 Cu10 Cu 0.22472 0.24877 0.27614
 C11 C 0.28172 0.21342 0.28306
 C12 C 0.21731 0.28541 0.21595
 C13 C 0.28167 0.28387 0.28644
 C14 C 0.21734 0.21494 0.21255
 O15 O 0.74679 0.22521 0.29889
 O16 O 0.79487 0.27666 0.24372
 O17 O 0.74675 0.27788 0.29642
 O18 O 0.79492 0.22398 0.24619
 O19 O 0.75367 0.22285 0.20185
 O20 O 0.70550 0.27675 0.25208
 O21 O 0.75363 0.27553 0.19938
 O22 O 0.70554 0.22408 0.25455
 Cu23 Cu 0.77500 0.25105 0.27578
 Cu24 Cu 0.72542 0.24968 0.22249
 C25 C 0.71804 0.21596 0.28602
 C26 C 0.78237 0.28478 0.21225
 C27 C 0.71799 0.28641 0.28274
 C28 C 0.78242 0.21432 0.21554
 O29 O 0.74719 0.77569 0.70074
 O30 O 0.79516 0.72427 0.75589
 O31 O 0.74705 0.72302 0.70318
 O32 O 0.79533 0.77695 0.75344
 O33 O 0.75409 0.77803 0.79777
 O34 O 0.70579 0.72410 0.74752
 O35 O 0.75391 0.72535 0.80023
 O36 O 0.70594 0.77677 0.74509
 Cu37 Cu 0.77535 0.74987 0.72384
 Cu38 Cu 0.72577 0.75118 0.77713
 C39 C 0.71846 0.78490 0.71361
 C40 C 0.78263 0.71613 0.78735
 C41 C 0.71827 0.71446 0.71686
 C42 C 0.78286 0.78659 0.78410
 O43 O 0.29444 0.77683 0.74791
 O44 O 0.24627 0.72292 0.79813
 O45 O 0.29441 0.72415 0.74544
 O46 O 0.24629 0.77560 0.80060
 O47 O 0.20505 0.77654 0.75625
 O48 O 0.25317 0.72509 0.70109
 O49 O 0.20503 0.72385 0.75378
 O50 O 0.25319 0.77777 0.70356
 Cu51 Cu 0.27451 0.74978 0.77750
 Cu52 Cu 0.22495 0.75091 0.72420
 C53 C 0.28194 0.78639 0.71725
 C54 C 0.21753 0.71429 0.78444
 C55 C 0.28191 0.71593 0.71397
 C56 C 0.21754 0.78476 0.78773
 C57 C 0.98276 -0.00019 -0.00040
 C58 C 1.01857 -0.00020 -0.00032
 C59 C 1.03906 0.02158 0.01872
 C60 C 1.03904 -0.02199 -0.01925
 C61 C 0.96228 -0.02015 -0.02305
 C62 C 0.96229 0.01978 0.02215
 C63 C 1.03351 0.04894 0.00959
 C64 C 1.05240 0.06925 0.02838
 C65 C 1.07724 0.06240 0.05615
 C66 C 1.08340 0.03516 0.06476
 C67 C 1.06451 0.01485 0.04604
 C68 C 1.06467 -0.01526 -0.04642
 C69 C 1.08356 -0.03558 -0.06503
 C70 C 1.07723 -0.06281 -0.05647
 C71 C 1.05221 -0.06966 -0.02886
 C72 C 1.03332 -0.04934 -0.01018
 C73 C 0.93663 -0.03610 -0.00508
 C74 C 0.91769 -0.05534 -0.02589
 C75 C 0.92399 -0.05868 -0.06492
 C76 C 0.94903 -0.04247 -0.08319
 C77 C 0.96797 -0.02320 -0.06241
 C78 C 0.96783 0.02280 0.06154
 C79 C 0.94893 0.04211 0.08224
 C80 C 0.92407 0.05835 0.06385
 C81 C 0.91792 0.05504 0.02479
 C82 C 0.93682 0.03578 0.00406
 H83 H 1.01448 0.05452 -0.01192
 H84 H 1.04754 0.09026 0.02137
 H85 H 1.10262 0.02965 0.08614
 H86 H 1.06931 -0.00612 0.05330
 H87 H 1.06960 0.00571 -0.05363
 H88 H 1.10292 -0.03007 -0.08629
 H89 H 1.01415 -0.05493 0.01122
 H90 H 0.93171 -0.03394 0.02517
 H91 H 0.89831 -0.06773 -0.01150
 H92 H 0.95399 -0.04481 -0.11342
 H93 H 0.98715 -0.01073 -0.07694
 H94 H 0.98687 0.01031 0.07616
 H95 H 0.95377 0.04442 0.11249
 H96 H 0.89868 0.06746 0.01031
 H97 H 0.93202 0.03363 -0.02622
 H98 H 1.04723 -0.09067 -0.02189
 C99 C 0.48174 0.50012 0.50008
 C100 C 0.51755 0.50017 0.50002
 C101 C 0.53805 0.52012 0.52267
 C102 C 0.53801 0.48029 0.47729
 C103 C 0.46125 0.47833 0.48108
 C104 C 0.46128 0.52185 0.51915
 C105 C 0.56357 0.53617 0.50468
 C106 C 0.58250 0.55541 0.52550
 C107 C 0.57631 0.55864 0.56457
 C108 C 0.55140 0.54234 0.58286
 C109 C 0.53247 0.52306 0.56207
 C110 C 0.53231 0.47732 0.43791
 C111 C 0.55121 0.45811 0.41705
 C112 C 0.57623 0.44190 0.43525
 C113 C 0.58253 0.44516 0.47430
 C114 C 0.56363 0.46433 0.49518
 C115 C 0.46693 0.45096 0.49008
 C116 C 0.44803 0.43065 0.47133
 C117 C 0.42303 0.43749 0.44373
 C118 C 0.41673 0.46473 0.43525
 C119 C 0.43563 0.48505 0.45393
 C120 C 0.43577 0.51505 0.54642
 C121 C 0.41689 0.53532 0.56516
 C122 C 0.42312 0.56258 0.55662
 C123 C 0.44802 0.56949 0.52892
 C124 C 0.46689 0.54922 0.51011
 H125 H 0.56840 0.53409 0.47439
 H126 H 0.60178 0.56787 0.51109
 H127 H 0.54653 0.54459 0.61312
 H128 H 0.51338 0.51052 0.57661
 H129 H 0.51315 0.48980 0.42343
 H130 H 0.54625 0.45583 0.38681
 H131 H 0.56855 0.46643 0.52545
 H132 H 0.48610 0.44538 0.51146
 H133 H 0.45299 0.40964 0.47824
 H134 H 0.39738 0.47024 0.41400
 H135 H 0.43072 0.50602 0.44677
 H136 H 0.43092 0.49407 0.55361
 H137 H 0.39763 0.52976 0.58649
 H138 H 0.45292 0.59051 0.52197
 H139 H 0.48597 0.55486 0.48864
 H140 H 0.60189 0.43277 0.48863
 C141 C 0.01723 0.49975 0.00030
 C142 C -0.01858 0.49977 0.00032
 C143 C -0.03911 0.47800 0.01923
 C144 C -0.03899 0.52156 -0.01856
 C145 C 0.03775 0.51969 -0.02225
 C146 C 0.03767 0.47979 0.02283
 C147 C -0.03354 0.45064 0.01003
 C148 C -0.05246 0.43034 0.02871
 C149 C -0.07737 0.43720 0.05643
 C150 C -0.08356 0.46444 0.06510
 C151 C -0.06464 0.48474 0.04649
 C152 C -0.06455 0.51486 -0.04584
 C153 C -0.08334 0.53520 -0.06445
 C154 C -0.07699 0.56243 -0.05575
 C155 C -0.05206 0.56925 -0.02801
 C156 C -0.03327 0.54892 -0.00934
 C157 C 0.06334 0.53568 -0.00419
 C158 C 0.08226 0.55493 -0.02491
 C159 C 0.07600 0.55824 -0.06394
 C160 C 0.05103 0.54199 -0.08230
 C161 C 0.03211 0.52270 -0.06162
 C162 C 0.03204 0.47678 0.06221
 C163 C 0.05091 0.45749 0.08288
 C164 C 0.07582 0.44125 0.06450
 C165 C 0.08206 0.44455 0.02546
 C166 C 0.06319 0.46380 0.00476
 H167 H -0.01445 0.44504 -0.01144
 H168 H -0.04758 0.40932 0.02165
 H169 H -0.10284 0.46997 0.08644
 H170 H -0.06946 0.50572 0.05380
 H171 H -0.06949 0.49390 -0.05317
 H172 H -0.10263 0.52970 -0.08581
 H173 H -0.01415 0.55448 0.01215
 H174 H 0.06821 0.53355 0.02607
 H175 H 0.10158 0.56737 -0.01045
 H176 H 0.04611 0.54430 -0.11253
 H177 H 0.01297 0.51020 -0.07622
 H178 H 0.01295 0.48927 0.07682
 H179 H 0.04599 0.45518 0.11311
 H180 H 0.10133 0.43213 0.01099
 H181 H 0.06806 0.46593 -0.02550
 H182 H -0.04706 0.59025 -0.02094
 C183 C 0.51825 1.00016 0.49996
 C184 C 0.48244 1.00012 0.50001
 C185 C 0.46199 0.98024 0.52274
 C186 C 0.46194 1.01995 0.47733
 C187 C 0.53870 1.02190 0.48088
 C188 C 0.53876 0.97848 0.51899
 C189 C 0.43639 0.96417 0.50485
 C190 C 0.41748 0.94501 0.52574
 C191 C 0.42377 0.94186 0.56479
 C192 C 0.44877 0.95818 0.58299
 C193 C 0.46767 0.97739 0.56213
 C194 C 0.46752 1.02281 0.43793
 C195 C 0.44858 1.04198 0.41712
 C196 C 0.42364 1.05825 0.43539
 C197 C 0.41745 1.05510 0.47446
 C198 C 0.43639 1.03598 0.49530
 C199 C 0.53307 1.04929 0.48990
 C200 C 0.55193 1.06955 0.47110
 C201 C 0.57685 1.06264 0.44341
 C202 C 0.58310 1.03538 0.43490
 C203 C 0.56423 1.01511 0.45364
 C204 C 0.56436 0.98535 0.54614
 C205 C 0.58329 0.96513 0.56484
 C206 C 0.57703 0.93785 0.55637
 C207 C 0.55203 0.93087 0.52877
 C208 C 0.53311 0.95108 0.51001
 H209 H 0.43147 0.96618 0.47458
 H210 H 0.39814 0.93253 0.51140
 H211 H 0.45372 0.95600 0.61323
 H212 H 0.48682 0.98995 0.57660
 H213 H 0.48663 1.01028 0.42341
 H214 H 0.45346 1.04417 0.38686
 H215 H 0.43155 1.03396 0.52559
 H216 H 0.51397 1.05492 0.51135
 H217 H 0.54701 1.09058 0.47803
 H218 H 0.60238 1.02981 0.41358
 H219 H 0.56910 0.99412 0.44646
 H220 H 0.56925 1.00635 0.55329
 H221 H 0.60263 0.97075 0.58608
 H222 H 0.54710 0.90982 0.52188
 H223 H 0.51395 0.94539 0.48863
 H224 H 0.39815 1.06755 0.48885
 C225 C 1.16482 0.15819 0.15275
 C226 C 1.18232 0.15063 0.11479
 C227 C 1.16455 0.13130 0.09480
 C228 C 1.13102 0.12144 0.11474
 C229 C 1.10946 0.14714 0.12215
 C230 C 1.12723 0.16646 0.14214
 C231 C 1.16085 0.13134 0.17427
 C232 C 1.14309 0.11202 0.15429
 C233 C 1.18394 0.17894 0.17436
 C234 C 1.19966 0.19591 0.19227
 C235 C 1.11189 0.10057 0.09338
 C236 C 1.09612 0.08326 0.07619
 H237 H 1.20653 0.15966 0.10451
 H238 H 1.17353 0.12378 0.06740
 H239 H 1.08261 0.14992 0.11254
 H240 H 1.11560 0.18580 0.14965
 H241 H 1.17110 0.12780 0.20270
 H242 H 1.13813 0.09194 0.16561
 C243 C 0.66438 0.65471 0.66009
 C244 C 0.64413 0.63535 0.68632
 C245 C 0.62625 0.61564 0.66720
 C246 C 0.63037 0.61723 0.62374
 C247 C 0.67014 0.61668 0.61670
 C248 C 0.68802 0.63638 0.63581
 C249 C 0.63678 0.66573 0.63229
 C250 C 0.61891 0.64603 0.61318
 C251 C 0.68363 0.67597 0.68056
 C252 C 0.69945 0.69351 0.69721
 C253 C 0.61112 0.59610 0.60303
 C254 C 0.59527 0.57891 0.58569
 H255 H 0.64387 0.63697 0.71718
 H256 H 0.61067 0.60038 0.68169
 H257 H 0.68312 0.60209 0.59834
 H258 H 0.71632 0.63867 0.63382
 H259 H 0.63172 0.68713 0.62799
 H260 H 0.59853 0.65056 0.59252
 C261 C -0.16507 0.34148 0.15261
 C262 C -0.13800 0.32987 0.12461
 C263 C -0.12020 0.34918 0.10470
 C264 C -0.13124 0.37820 0.11474
 C265 C -0.12647 0.38039 0.15808
 C266 C -0.14426 0.36109 0.17798
 C267 C -0.18889 0.35958 0.12828
 C268 C -0.17110 0.37889 0.10838
 C269 C -0.18422 0.32074 0.17414
 C270 C -0.19994 0.30379 0.19200
 C271 C -0.11207 0.39905 0.09347
 C272 C -0.09628 0.41635 0.07636
 H273 H -0.13323 0.30838 0.12076
 H274 H -0.10019 0.34424 0.08379
 H275 H -0.11052 0.39576 0.17193
 H276 H -0.14354 0.35992 0.20887
 H277 H -0.21723 0.35743 0.12681
 H278 H -0.18420 0.39327 0.08985
 C279 C 0.33577 0.84605 0.66047
 C280 C 0.37254 0.83730 0.64748
 C281 C 0.39041 0.85696 0.62836
 C282 C 0.36976 0.88344 0.62410
 C283 C 0.35960 0.89153 0.66489
 C284 C 0.34173 0.87186 0.68402
 C285 C 0.31724 0.85558 0.62405
 C286 C 0.33511 0.87524 0.60493
 C287 C 0.31654 0.82483 0.68095
 C288 C 0.30073 0.80731 0.69760
 C289 C 0.38900 0.90452 0.60336
 C290 C 0.40483 0.92166 0.58598
 H291 H 0.38357 0.81742 0.65283
 H292 H 0.41675 0.85391 0.61734
 H293 H 0.36589 0.91098 0.67762
 H294 H 0.33270 0.87447 0.71314
 H295 H 0.29227 0.84761 0.61415
 H296 H 0.32544 0.88410 0.57865
 C297 C -0.16408 0.65830 -0.15191
 C298 C -0.17076 0.65934 -0.10878
 C299 C -0.15309 0.64000 -0.08888
 C300 C -0.13047 0.62152 -0.11406
 C301 C -0.10636 0.64078 -0.13630
 C302 C -0.12403 0.66011 -0.15620
 C303 C -0.17353 0.62929 -0.16382
 C304 C -0.15586 0.60996 -0.14392
 C305 C -0.18310 0.67906 -0.17343
 C306 C -0.19874 0.69603 -0.19127
 C307 C -0.11144 0.60064 -0.09280
 C308 C -0.09577 0.58331 -0.07569
 H309 H -0.18786 0.67398 -0.09508
 H310 H -0.15504 0.63807 -0.05813
 H311 H -0.07791 0.63936 -0.13639
 H312 H -0.11072 0.67526 -0.17333
 H313 H -0.19244 0.62435 -0.18593
 H314 H -0.15964 0.58847 -0.14900
 C315 C 0.33557 1.15388 0.33981
 C316 C 0.31187 1.13532 0.36366
 C317 C 0.32974 1.11570 0.38278
 C318 C 0.36957 1.11656 0.37617
 C319 C 0.38069 1.14542 0.38711
 C320 C 0.36282 1.16503 0.36800
 C321 C 0.35621 1.13473 0.31361
 C322 C 0.37410 1.11511 0.33274
 C323 C 0.31632 1.17505 0.31934
 C324 C 0.30052 1.19254 0.30269
 C325 C 0.38882 1.09553 0.39689
 C326 C 0.40467 1.07842 0.41425
 H327 H 0.28353 1.13739 0.36538
 H328 H 0.31673 1.10097 0.40087
 H329 H 0.40084 1.15004 0.40803
 H330 H 0.36766 1.18646 0.37255
 H331 H 0.35674 1.13644 0.28277
 H332 H 0.38994 1.10000 0.31828
 C333 C 1.16494 -0.15856 -0.15263
 C334 C 1.18237 -0.15093 -0.11464
 C335 C 1.16456 -0.13162 -0.09473
 C336 C 1.13109 -0.12184 -0.11477
 C337 C 1.10953 -0.14758 -0.12220
 C338 C 1.12733 -0.16689 -0.14211
 C339 C 1.16105 -0.13173 -0.17420
 C340 C 1.14326 -0.11243 -0.15430
 C341 C 1.18410 -0.17928 -0.17416
 C342 C 1.19984 -0.19623 -0.19203
 C343 C 1.11192 -0.10098 -0.09350
 C344 C 1.09613 -0.08368 -0.07640
 H345 H 1.20654 -0.15991 -0.10428
 H346 H 1.17349 -0.12406 -0.06731
 H347 H 1.08265 -0.15040 -0.11265
 H348 H 1.11570 -0.18625 -0.14962
 H349 H 1.17137 -0.12820 -0.20261
 H350 H 1.13833 -0.09237 -0.16567
 C351 C 0.66418 0.34606 0.33955
 C352 C 0.63834 0.33499 0.36927
 C353 C 0.62049 0.35464 0.38840
 C354 C 0.63021 0.38346 0.37594
 C355 C 0.62411 0.38390 0.33270
 C356 C 0.64197 0.36423 0.31356
 C357 C 0.68806 0.36558 0.36169
 C358 C 0.67021 0.38525 0.38083
 C359 C 0.68341 0.32485 0.31905
 C360 C 0.69920 0.30733 0.30239
 C361 C 0.61099 0.40454 0.39668
 C362 C 0.59516 0.42169 0.41407
 H363 H 0.63441 0.31358 0.37480
 H364 H 0.60126 0.35007 0.41032
 H365 H 0.60725 0.39837 0.31838
 H366 H 0.64042 0.36186 0.28284
 H367 H 0.71650 0.36410 0.36228
 H368 H 0.68334 0.40061 0.39780
 C369 C 0.83580 -0.15477 -0.16026
 C370 C 0.81208 -0.13595 -0.13684
 C371 C 0.82999 -0.11624 -0.11778
 C372 C 0.86986 -0.11728 -0.12400
 C373 C 0.87475 -0.11618 -0.16740
 C374 C 0.85684 -0.13590 -0.18647
 C375 C 0.86272 -0.16579 -0.13169
 C376 C 0.88062 -0.14609 -0.11263
 C377 C 0.81652 -0.17603 -0.18069
 C378 C 0.80068 -0.19359 -0.19731
 C379 C 0.88914 -0.09614 -0.10334
 C380 C 0.90501 -0.07895 -0.08602
 H381 H 0.78372 -0.13792 -0.13537
 H382 H 0.81697 -0.10132 -0.09998
 H383 H 0.89085 -0.10124 -0.18187
 H384 H 0.85759 -0.13785 -0.21729
 H385 H 0.86732 -0.18719 -0.12686
 H386 H 0.90056 -0.15061 -0.09147
 C387 C 0.33527 0.34170 0.34733
 C388 C 0.31137 0.36045 0.37064
 C389 C 0.32917 0.37978 0.39058
 C390 C 0.36914 0.37845 0.38527
 C391 C 0.37490 0.38000 0.34203
 C392 C 0.35710 0.36068 0.32209
 C393 C 0.36145 0.33009 0.37627
 C394 C 0.37926 0.34942 0.39622
 C395 C 0.31611 0.32095 0.32576
 C396 C 0.30038 0.30398 0.30787
 C397 C 0.38832 0.39931 0.40658
 C398 C 0.40411 0.41663 0.42374
 H399 H 0.28295 0.35871 0.37141
 H400 H 0.31602 0.39458 0.40844
 H401 H 0.39151 0.39495 0.32827
 H402 H 0.35846 0.35909 0.29126
 H403 H 0.36563 0.30860 0.38071
 H404 H 0.39870 0.34449 0.41775
 C405 C 0.16382 0.65448 -0.15898
 C406 C 0.14670 0.66433 -0.12187
 C407 C 0.12889 0.64459 -0.10286
 C408 C 0.12993 0.61693 -0.12280
 C409 C 0.16911 0.61074 -0.12815
 C410 C 0.18693 0.63048 -0.14717
 C411 C 0.13373 0.64191 -0.18216
 C412 C 0.11590 0.62217 -0.16314
 C413 C 0.18301 0.67577 -0.17936
 C414 C 0.19877 0.69333 -0.19595
 C415 C 0.11074 0.59576 -0.10220
 C416 C 0.09493 0.57855 -0.08494
 H417 H 0.14841 0.68499 -0.11145
 H418 H 0.11534 0.64835 -0.07615
 H419 H 0.18174 0.59245 -0.11792
 H420 H 0.21483 0.62910 -0.15323
 H421 H 0.12701 0.64798 -0.21097
 H422 H 0.09392 0.61133 -0.17565
 C423 C 0.66448 1.15823 0.34690
 C424 C 0.65964 1.13160 0.32493
 C425 C 0.64186 1.11232 0.34488
 C426 C 0.63066 1.12155 0.38486
 C427 C 0.60946 1.14755 0.37841
 C428 C 0.62725 1.16683 0.35845
 C429 C 0.68249 1.15017 0.38433
 C430 C 0.66471 1.13088 0.40429
 C431 C 0.68362 1.17894 0.32532
 C432 C 0.69934 1.19588 0.30743
 C433 C 0.61151 1.10073 0.40619
 C434 C 0.59574 1.08345 0.42337
 H435 H 0.66932 1.12818 0.29622
 H436 H 0.63632 1.09239 0.33326
 H437 H 0.58284 1.15055 0.38863
 H438 H 0.61586 1.18636 0.35157
 H439 H 0.70704 1.15885 0.39429
 H440 H 0.67402 1.12304 0.43135
 C441 C 0.16359 0.34514 0.15944
 C442 C 0.18716 0.36302 0.13443
 C443 C 0.16934 0.38272 0.11544
 C444 C 0.12970 0.38263 0.12332
 C445 C 0.12639 0.38464 0.16683
 C446 C 0.14422 0.36493 0.18583
 C447 C 0.13528 0.33415 0.13238
 C448 C 0.11747 0.35385 0.11339
 C449 C 0.18278 0.32388 0.17980
 C450 C 0.19855 0.30634 0.19637
 C451 C 0.11051 0.40377 0.10273
 C452 C 0.09471 0.42096 0.08549
 H453 H 0.21537 0.36043 0.13187
 H454 H 0.18228 0.39702 0.09661
 H455 H 0.11138 0.40018 0.18143
 H456 H 0.14448 0.36358 0.21671
 H457 H 0.12971 0.31277 0.12848
 H458 H 0.09663 0.34935 0.09322
 C459 C 0.66487 0.84251 0.65276
 C460 C 0.68876 0.86122 0.62936
 C461 C 0.67094 0.88046 0.60942
 C462 C 0.63098 0.87909 0.61484
 C463 C 0.62532 0.88077 0.65809
 C464 C 0.64313 0.86155 0.67802
 C465 C 0.63861 0.83078 0.62391
 C466 C 0.62079 0.85002 0.60397
 C467 C 0.68405 0.82185 0.67432
 C468 C 0.69978 0.80495 0.69220
 C469 C 0.61178 0.89986 0.59353
 C470 C 0.59597 0.91709 0.57637
 H471 H 0.71717 0.85951 0.62851
 H472 H 0.68408 0.89522 0.59149
 H473 H 0.60876 0.89575 0.67186
 H474 H 0.64184 0.86006 0.70886
 H475 H 0.63439 0.80926 0.61953
 H476 H 0.60130 0.84499 0.58250
 C477 C 0.83618 0.15455 0.15892
 C478 C 0.85556 0.13479 0.18528
 C479 C 0.87341 0.11506 0.16625
 C480 C 0.87012 0.11703 0.12274
 C481 C 0.88234 0.14579 0.11288
 C482 C 0.86450 0.16552 0.13190
 C483 C 0.81263 0.13663 0.13386
 C484 C 0.83048 0.11691 0.11484
 C485 C 0.81698 0.17582 0.17931
 C486 C 0.80120 0.19338 0.19592
 C487 C 0.88933 0.09587 0.10213
 C488 C 0.90514 0.07866 0.08486
 H489 H 0.85528 0.13618 0.21617
 H490 H 0.88842 0.09955 0.18083
 H491 H 0.90318 0.15028 0.09274
 H492 H 0.87007 0.18689 0.12805
 H493 H 0.78443 0.13921 0.13129
 H494 H 0.81755 0.10259 0.09597
 C495 C 0.33548 0.65819 0.65312
 C496 C 0.36840 0.66898 0.63292
 C497 C 0.38619 0.64968 0.61296
 C498 C 0.36930 0.62150 0.61517
 C499 C 0.33135 0.62552 0.60159
 C500 C 0.31357 0.64481 0.62154
 C501 C 0.34854 0.63468 0.67787
 C502 C 0.36632 0.61540 0.65793
 C503 C 0.31634 0.67891 0.67469
 C504 C 0.30062 0.69585 0.69256
 C505 C 0.38845 0.60067 0.59384
 C506 C 0.40423 0.58339 0.57666
 H507 H 0.37698 0.68992 0.63417
 H508 H 0.41000 0.65410 0.59712
 H509 H 0.31950 0.61421 0.57835
 H510 H 0.28648 0.65003 0.61539
 H511 H 0.34421 0.63331 0.70839
 H512 H 0.37721 0.59750 0.67137
   
