data_POSCAR
  _audit_creation_date              2014-09-24
  _audit_creation_method            'ToBaCCo'
  _symmetry_space_group_name_H-M    'P1'
  _symmetry_Int_Tables_number       1
  _symmetry_cell_setting            triclinic
  loop_
  _symmetry_equiv_pos_as_xyz
 x,y,z
_cell_length_a 20.1121
_cell_length_b 20.6688
_cell_length_c 47.9988
_cell_angle_alpha 87.206700
_cell_angle_beta 91.115800
_cell_angle_gamma 120.082000
loop_
  _atom_site_label
  _atom_site_type_symbol
  _atom_site_fract_x
  _atom_site_fract_y
  _atom_site_fract_z
C1 C -0.02562 0.06644 0.55235
 H2 H -0.00849 0.02811 0.56127
 C3 C -0.02709 0.11857 0.56925
 H4 H -0.01309 0.11828 0.59115
 C5 C -0.05794 0.11787 0.51273
 H6 H -0.06644 0.11919 0.49043
 C7 C -0.06038 0.17108 0.52898
 H8 H -0.07141 0.21270 0.51891
 N9 N -0.04005 0.06742 0.52457
 C10 C 0.06985 -0.05643 0.52624
 H11 H 0.11930 -0.01511 0.51433
 C12 C 0.07515 -0.11044 0.54343
 H13 H 0.12974 -0.10862 0.54493
 C14 C -0.06108 -0.10821 0.53881
 H15 H -0.11413 -0.10703 0.53674
 C16 C -0.05833 -0.16259 0.55619
 H17 H -0.10962 -0.20316 0.56753
 Zn18 Zn -0.01555 0.01038 0.50166
 N19 N 0.00241 -0.05621 0.52447
 C20 C 0.13750 0.12696 0.49300
 N21 N 0.07054 0.08030 0.48011
 C22 C 0.06017 0.09040 0.45249
 C23 C 0.11780 0.15018 0.43682
 C24 C 0.19723 0.18707 0.47797
 C25 C -0.16630 -0.05903 0.47625
 C26 C -0.22265 -0.11204 0.45910
 C27 C -0.13119 -0.14845 0.44564
 C28 C -0.07728 -0.09513 0.46286
 N29 N -0.09537 -0.05182 0.47771
 H30 H 0.14349 0.11901 0.51515
 H31 H 0.00587 0.05412 0.44276
 H32 H 0.10809 0.15731 0.41491
 H33 H 0.24991 0.22448 0.48852
 H34 H -0.17970 -0.02486 0.48874
 H35 H -0.27855 -0.11669 0.45891
 H36 H -0.11450 -0.18219 0.43426
 H37 H -0.02060 -0.08869 0.46476
 C38 C 0.01003 -0.16469 0.55864
 C39 C -0.04349 0.17241 0.55762
 C40 C -0.20552 -0.15833 0.44345
 C41 C 0.18674 0.20040 0.44974
 C42 C 1.14816 0.06824 0.13006
 H43 H 1.14762 0.12000 0.13171
 C44 C 1.20010 0.06538 0.11215
 H45 H 1.23954 0.11530 0.09998
 C46 C 1.09674 -0.05964 0.14404
 H47 H 1.05606 -0.10802 0.15653
 C48 C 1.14818 -0.06500 0.12635
 H49 H 1.14512 -0.11850 0.12513
 N50 N 1.09758 0.00630 0.14537
 C51 C 0.91456 0.05601 0.15789
 H52 H 0.91795 0.06541 0.17997
 C53 C 0.85475 0.05484 0.14209
 H54 H 0.81308 0.06506 0.15194
 C55 C 0.96118 0.02588 0.11844
 H56 H 1.00078 0.01178 0.10943
 C57 C 0.90179 0.02287 0.10211
 H58 H 0.89814 0.00914 0.08043
 Zn59 Zn 1.03214 0.02094 0.16856
 N60 N 0.96579 0.04087 0.14593
 C61 C 1.09661 0.16540 0.19254
 N62 N 1.09790 0.10048 0.19120
 C63 C 1.15078 0.08965 0.20550
 C64 C 1.20461 0.14466 0.22233
 C65 C 1.14967 0.22222 0.20922
 C66 C 0.90955 -0.12452 0.17811
 C67 C 0.85127 -0.18408 0.19380
 C68 C 0.91455 -0.12218 0.23578
 C69 C 0.97084 -0.06331 0.21932
 N70 N 0.96718 -0.06525 0.19102
 H71 H 1.05497 0.17340 0.18061
 H72 H 1.15069 0.03757 0.20388
 H73 H 1.24406 0.13294 0.23409
 H74 H 1.14793 0.27359 0.21025
 H75 H 0.90693 -0.12380 0.15557
 H76 H 0.80441 -0.22982 0.18325
 H77 H 0.91710 -0.11807 0.25822
 H78 H 1.01531 -0.01471 0.22924
 C79 C 0.84646 0.03536 0.11414
 C80 C 1.20104 -0.00153 0.11017
 C81 C 0.85320 -0.18313 0.22298
 C82 C 1.20508 0.21253 0.22417
 C83 C 0.04576 0.91476 0.86864
 H84 H -0.00509 0.86289 0.86373
 C85 C 0.09948 0.91316 0.88702
 H86 H 0.08674 0.86007 0.89692
 C87 C 0.12365 1.04580 0.86077
 H88 H 0.13406 1.09705 0.84994
 C89 C 0.17914 1.04679 0.87909
 H90 H 0.23121 1.09931 0.88251
 N91 N 0.05803 0.98033 0.85611
 C92 C -0.14496 0.98700 0.83979
 H93 H -0.12423 1.02456 0.82158
 C94 C -0.20448 0.98347 0.85537
 H95 H -0.22790 1.01896 0.84890
 C96 C -0.13910 0.89666 0.87029
 H97 H -0.11245 0.86421 0.87655
 C98 C -0.19970 0.89035 0.88632
 H99 H -0.21732 0.85311 0.90468
 Zn100 Zn -0.01744 0.97081 0.82960
 N101 N -0.11129 0.94621 0.84797
 C102 C -0.09372 0.83011 0.80254
 N103 N -0.02753 0.89577 0.80618
 C104 C 0.03937 0.91081 0.79394
 C105 C 0.04201 0.85881 0.77732
 C106 C -0.09367 0.77608 0.78600
 C107 C 0.03020 1.12471 0.82024
 C108 C 0.03430 1.18557 0.80465
 C109 C 0.00372 1.11382 0.76335
 C110 C 0.00135 1.05485 0.77959
 N111 N 0.01268 1.06046 0.80762
 H112 H -0.14609 0.81938 0.81267
 H113 H 0.09104 0.96367 0.79722
 H114 H 0.09585 0.87366 0.76735
 H115 H -0.14657 0.72378 0.78328
 H116 H 0.03576 1.12695 0.84267
 H117 H 0.04556 1.23534 0.81509
 H118 H -0.00753 1.10744 0.74121
 H119 H -0.01455 1.00290 0.76998
 C120 C -0.23179 0.93608 0.87940
 C121 C 0.16791 0.97978 0.89222
 C122 C 0.01786 1.17922 0.77608
 C123 C -0.02488 0.78965 0.77353
 O124 O 0.48255 0.05824 0.02154
 O125 O 0.59889 0.04072 -0.03329
 O126 O 0.47524 0.05130 -0.03242
 O127 O 0.61636 0.06682 0.01994
 O128 O 0.55456 -0.05596 0.02732
 O129 O 0.41023 -0.07150 -0.02514
 O130 O 0.53534 -0.08181 -0.02550
 O131 O 0.42080 -0.06454 0.02879
 Cu132 Cu 0.54963 0.06636 -0.00677
 Cu133 Cu 0.47404 -0.08061 0.00202
 C134 C 0.43149 -0.00076 0.03443
 C135 C 0.58707 -0.02403 -0.03853
 C136 C 0.41828 -0.01196 -0.03752
 C137 C 0.61021 0.00874 0.03248
 O138 O -0.05969 0.39565 0.69019
 O139 O -0.06523 0.53187 0.63858
 O140 O -0.06988 0.40443 0.63624
 O141 O -0.07539 0.51406 0.69279
 O142 O 0.05118 0.58313 0.69189
 O143 O 0.05701 0.46658 0.63684
 O144 O 0.06164 0.59487 0.63776
 O145 O 0.06686 0.46483 0.69106
 Cu146 Cu -0.08008 0.45509 0.66459
 Cu147 Cu 0.07168 0.53380 0.66445
 C148 C 0.00523 0.40727 0.69925
 C149 C -0.00216 0.58637 0.62922
 C150 C -0.00607 0.41595 0.62701
 C151 C -0.01377 0.56824 0.70158
 O152 O 0.47992 0.43495 0.31070
 O153 O 0.59682 0.55898 0.36655
 O154 O 0.47458 0.42674 0.36491
 O155 O 0.61247 0.55903 0.31313
 O156 O 0.54766 0.61919 0.30893
 O157 O 0.40671 0.48389 0.36101
 O158 O 0.52970 0.61682 0.36278
 O159 O 0.41535 0.49540 0.30684
 Cu160 Cu 0.54742 0.48908 0.33917
 Cu161 Cu 0.46836 0.55972 0.33454
 C162 C 0.42715 0.44407 0.29940
 C163 C 0.58329 0.60953 0.37403
 C164 C 0.41693 0.43185 0.37166
 C165 C 0.60481 0.61223 0.30249
 C166 C -0.03679 0.23144 0.57568
 C167 C -0.07206 0.27114 0.57067
 C168 C -0.06806 0.32555 0.59039
 C169 C -0.00516 0.36856 0.60529
 H170 H -0.11108 0.25859 0.55329
 H171 H -0.11888 0.33048 0.59239
 H172 H -0.00440 0.23970 0.59478
 H173 H 0.04776 0.36829 0.60181
 C174 C 0.78839 0.75687 0.23952
 C175 C 0.79795 0.73415 0.26511
 C176 C 0.73433 0.67564 0.28226
 C177 C 0.66382 0.66740 0.28295
 H178 H 0.85530 0.75599 0.27346
 H179 H 0.74861 0.64249 0.29667
 H180 H 0.73204 0.72923 0.23003
 H181 H 0.65085 0.70467 0.27042
 C182 C 0.22812 -0.01808 -0.08879
 C183 C 0.23514 -0.07817 -0.08162
 C184 C 0.29470 -0.07630 -0.06248
 C185 C 0.36133 -0.01407 -0.05772
 H186 H 0.19491 -0.13233 -0.08934
 H187 H 0.28325 -0.12899 -0.05243
 H188 H 0.26830 0.03575 -0.08073
 H189 H 0.37507 0.03833 -0.06852
 C190 C 0.01002 0.77671 0.57771
 C191 C 0.06289 0.75541 0.57739
 C192 C 0.06106 0.69706 0.59697
 C193 C -0.00358 0.64084 0.60864
 H194 H 0.11126 0.78291 0.56320
 H195 H 0.11560 0.70013 0.60132
 H196 H -0.03683 0.74950 0.59262
 H197 H -0.05906 0.63410 0.60314
 C198 C 0.25986 0.27237 0.24231
 C199 C 0.32780 0.27983 0.25030
 C200 C 0.38111 0.33498 0.27011
 C201 C 0.37700 0.39424 0.27788
 H202 H 0.34544 0.24216 0.24288
 H203 H 0.42570 0.32532 0.27876
 H204 H 0.24239 0.31057 0.24927
 H205 H 0.33469 0.40658 0.26891
 C206 C 0.71370 -0.06017 -0.10382
 C207 C 0.67435 -0.11005 -0.08134
 C208 C 0.62908 -0.09957 -0.06231
 C209 C 0.63203 -0.03117 -0.05860
 H210 H 0.67504 -0.16196 -0.07878
 H211 H 0.59374 -0.14689 -0.04825
 H212 H 0.70043 -0.01636 -0.10912
 H213 H 0.67323 0.01903 -0.07016
 C214 C 0.25611 -0.00241 0.09032
 C215 C 0.27810 -0.05389 0.09132
 C216 C 0.33119 -0.05521 0.07078
 C217 C 0.38333 0.00509 0.05576
 H218 H 0.25449 -0.09925 0.10696
 H219 H 0.32747 -0.10880 0.06847
 H220 H 0.27952 0.04201 0.07425
 H221 H 0.39122 0.05996 0.05892
 C222 C 0.74374 0.78786 0.42679
 C223 C 0.66842 0.77197 0.42102
 C224 C 0.61783 0.71502 0.40376
 C225 C 0.62949 0.65819 0.39429
 H226 H 0.64790 0.80731 0.42847
 H227 H 0.56585 0.71542 0.39768
 H228 H 0.76418 0.75583 0.41640
 H229 H 0.67572 0.65067 0.40249
 C230 C 0.01318 0.23995 0.76018
 C231 C -0.03966 0.22552 0.74025
 C232 C -0.04730 0.28363 0.72367
 C233 C 0.01103 0.35340 0.71890
 H234 H -0.08171 0.16799 0.73629
 H235 H -0.10142 0.26591 0.71309
 H236 H 0.05028 0.29674 0.76640
 H237 H 0.06699 0.37016 0.72773
 C238 C 0.77938 0.02648 0.09795
 C239 C 0.74283 -0.02919 0.08033
 C240 C 0.67753 -0.03932 0.06276
 C241 C 0.66968 0.01805 0.05282
 H242 H 0.75994 -0.07102 0.07910
 H243 H 0.63917 -0.09504 0.05570
 H244 H 0.75770 0.06386 0.10166
 H245 H 0.71134 0.07463 0.05813
 C246 C 0.24818 0.26619 0.43413
 C247 C 0.23283 0.30338 0.41366
 C248 C 0.29238 0.36666 0.39650
 C249 C 0.36159 0.37497 0.39167
 H250 H 0.17381 0.28815 0.40938
 H251 H 0.27572 0.40335 0.38553
 H252 H 0.30694 0.28598 0.44054
 H253 H 0.37669 0.33538 0.40102
 C254 C -0.02516 0.73237 0.75594
 C255 C 0.03832 0.72853 0.75082
 C256 C 0.04193 0.67646 0.73161
 C257 C -0.01949 0.61475 0.72263
 H258 H 0.09233 0.76736 0.76019
 H259 H 0.09866 0.69048 0.72458
 H260 H -0.07954 0.69304 0.74694
 H261 H -0.07642 0.59809 0.73015
   
