data_POSCAR
  _audit_creation_date              2014-09-24
  _audit_creation_method            'ToBaCCo'
  _symmetry_space_group_name_H-M    'P1'
  _symmetry_Int_Tables_number       1
  _symmetry_cell_setting            triclinic
  loop_
  _symmetry_equiv_pos_as_xyz
 x,y,z
_cell_length_a 34.0559
_cell_length_b 35.9029
_cell_length_c 38.4603
_cell_angle_alpha 88.337000
_cell_angle_beta 91.573100
_cell_angle_gamma 88.964100
loop_
  _atom_site_label
  _atom_site_type_symbol
  _atom_site_fract_x
  _atom_site_fract_y
  _atom_site_fract_z
C1 C 0.34459 0.41021 1.36973
 N2 N 0.35599 0.42952 1.34095
 C3 C 0.38533 0.41622 1.32141
 N4 N 0.40384 0.38363 1.33114
 C5 C 0.39316 0.36414 1.35999
 N6 N 0.36313 0.37733 1.37916
 C7 C 1.15212 0.62610 0.87239
 N8 N 1.13486 0.65555 0.88776
 C9 C 1.10153 0.67177 0.87355
 N10 N 1.08533 0.65811 0.84406
 C11 C 1.10223 0.62869 0.82856
 N12 N 1.13574 0.61286 0.84265
 C13 C 0.66481 -0.15022 0.13326
 N14 N 0.64620 -0.18060 0.12109
 C15 C 0.61085 -0.19065 0.13362
 N16 N 0.59453 -0.17032 0.15885
 C17 C 0.61291 -0.14009 0.17149
 N18 N 0.64811 -0.12996 0.15857
 C19 C -0.15293 1.11189 -0.35935
 N20 N -0.14255 1.10413 -0.32555
 C21 C -0.11780 1.12683 -0.30810
 N22 N -0.10365 1.15758 -0.32457
 C23 C -0.11332 1.16508 -0.35863
 N24 N -0.13785 1.14216 -0.37576
 C25 C 0.64942 0.62782 0.63305
 N26 N 0.63547 0.66031 0.61791
 C27 C 0.60294 0.67743 0.63045
 N28 N 0.58450 0.66171 0.65800
 C29 C 0.59822 0.62919 0.67300
 N30 N 0.63076 0.61257 0.66051
 C31 C 0.82140 0.34005 0.15928
 N32 N 0.84991 0.31927 0.14494
 C33 C 0.88486 0.31253 0.16191
 N34 N 0.89106 0.32651 0.19392
 C35 C 0.86258 0.34728 0.20875
 N36 N 0.82771 0.35403 0.19141
 C37 C 0.31866 0.12179 0.83284
 N38 N 0.32868 0.10866 0.80151
 C39 C 0.35702 0.12506 0.78276
 N40 N 0.37516 0.15552 0.79519
 C41 C 0.36525 0.16929 0.82642
 N42 N 0.33700 0.15228 0.84533
 C43 C 0.15196 0.89745 0.39478
 N44 N 0.13804 0.90535 0.36186
 C45 C 0.11064 0.88334 0.34693
 N46 N 0.09798 0.85287 0.36474
 C47 C 0.11194 0.84474 0.39756
 N48 N 0.13861 0.86727 0.41252
 Zn49 Zn -0.00352 0.96079 0.04247
 Zn50 Zn -0.04045 1.02499 0.00194
 Zn51 Zn 0.03746 1.03386 0.03851
 Zn52 Zn 0.03089 0.98733 -0.02440
 O53 O 0.00610 1.00173 0.01466
 O54 O -0.05501 0.95475 0.05024
 O55 O -0.04267 1.07184 0.01558
 O56 O 0.05139 1.01655 0.08136
 O57 O -0.08209 1.00292 0.02069
 O58 O 0.02009 0.96307 0.08447
 O59 O 0.01403 1.07822 0.04417
 O60 O 0.07730 1.00954 -0.02992
 O61 O -0.04945 1.02747 -0.04424
 O62 O 0.08209 1.04405 0.01672
 O63 O 0.00295 0.99815 -0.06358
 O64 O 0.04003 0.93825 -0.02453
 O65 O 0.01427 0.91825 0.02473
 C66 C -0.08506 0.97414 0.04031
 C67 C -0.01908 1.09116 0.03319
 C68 C 0.04233 0.98704 0.09797
 C69 C 0.09558 1.03294 -0.01167
 C70 C -0.02957 1.01531 -0.06907
 C71 C 0.03189 0.91206 -0.00321
 Zn72 Zn 0.50262 -0.02551 0.44992
 Zn73 Zn 0.53975 0.04947 0.45001
 Zn74 Zn 0.46536 0.03589 0.48845
 Zn75 Zn 0.53964 0.00089 0.51540
 O76 O 0.51198 0.01532 0.47583
 O77 O 0.52477 -0.02268 0.40854
 O78 O 0.51367 0.09396 0.44385
 O79 O 0.42365 0.01246 0.47119
 O80 O 0.55135 0.03312 0.40725
 O81 O 0.45147 -0.03168 0.44065
 O82 O 0.45956 0.08261 0.47278
 O83 O 0.51689 0.01492 0.55459
 O84 O 0.58668 0.05879 0.47039
 O85 O 0.46006 0.03857 0.53454
 O86 O 0.58704 0.02082 0.51692
 O87 O 0.54716 -0.04859 0.51970
 O88 O 0.52074 -0.06823 0.47046
 C89 C 0.54409 0.00237 0.39304
 C90 C 0.48040 0.10433 0.45486
 C91 C 0.42118 -0.01453 0.45074
 C92 C 0.48383 0.03030 0.55967
 C93 C 0.60366 0.04473 0.49766
 C94 C 0.53838 -0.07474 0.49954
 Zn95 Zn 1.00560 0.45171 0.49418
 Zn96 Zn 1.04601 0.52228 0.51241
 Zn97 Zn 0.96701 0.52538 0.47699
 Zn98 Zn 0.97510 0.49863 0.55081
 O99 O 0.99850 0.49944 0.50863
 O100 O 1.05631 0.44049 0.48709
 O101 O 1.04761 0.56512 0.48718
 O102 O 0.95475 0.49918 0.43976
 O103 O 1.08580 0.49344 0.49852
 O104 O 0.98057 0.44343 0.45346
 O105 O 0.98918 0.56637 0.46050
 O106 O 0.92818 0.52232 0.54976
 O107 O 1.05836 0.53430 0.55618
 O108 O 0.92170 0.54105 0.49453
 O109 O 1.00452 0.51934 0.58399
 O110 O 0.96671 0.45235 0.56697
 O111 O 0.98900 0.41749 0.52495
 C112 C 1.08703 0.45991 0.48888
 C113 C 1.02220 0.58077 0.46657
 C114 C 0.96143 0.46549 0.43260
 C115 C 0.90863 0.53874 0.52504
 C116 C 1.03890 0.53240 0.58380
 C117 C 0.97361 0.42071 0.55444
 Zn118 Zn 0.47603 0.47407 0.94609
 Zn119 Zn 0.54926 0.50158 0.97966
 Zn120 Zn 0.47269 0.51386 1.01423
 Zn121 Zn 0.50848 0.43691 1.01062
 O122 O 0.50142 0.48174 0.98770
 O123 O 0.50341 0.48977 0.90938
 O124 O 0.55383 0.54709 0.99627
 O125 O 0.42677 0.52772 0.99282
 O126 O 0.55950 0.50633 0.93449
 O127 O 0.42989 0.49831 0.94299
 O128 O 0.49824 0.55655 1.02347
 O129 O 0.48491 0.43594 1.05104
 O130 O 0.58890 0.47550 1.00033
 O131 O 0.46041 0.49311 1.05588
 O132 O 0.55877 0.42646 1.02228
 O133 O 0.48965 0.39830 0.98726
 O134 O 0.46534 0.42577 0.93895
 C135 C 0.53806 0.50200 0.90750
 C136 C 0.53189 0.56732 1.01428
 C137 C 0.41194 0.51950 0.96340
 C138 C 0.46687 0.46021 1.06807
 C139 C 0.58961 0.44512 1.01793
 C140 C 0.47209 0.39664 0.95786
 C141 C 1.31337 0.42434 0.38835
 C142 C 1.29530 0.40468 0.41516
 C143 C 1.26035 0.42028 0.43165
 N144 N 1.23457 0.39744 0.44754
 N145 N 1.20187 0.41131 0.46091
 C146 C 1.19398 0.44858 0.45916
 N147 N 1.22012 0.47143 0.44387
 N148 N 1.25258 0.45754 0.43023
 C149 C 1.15750 0.46447 0.47264
 C150 C 1.12469 0.44295 0.47913
 H151 H 1.30480 0.37644 0.42223
 H152 H 1.15547 0.49444 0.47500
 H153 H 1.30128 0.45141 0.38008
 H154 H 1.12584 0.41329 0.47475
 C155 C 0.18691 0.61057 0.88685
 C156 C 0.20702 0.58124 0.87170
 C157 C 0.24491 0.56638 0.88573
 N158 N 0.26409 0.53945 0.86851
 N159 N 0.29880 0.52608 0.88034
 C160 C 0.31562 0.53909 0.90985
 N161 N 0.29641 0.56598 0.92722
 N162 N 0.26168 0.57941 0.91535
 C163 C 0.35424 0.52420 0.92194
 C164 C 0.37299 0.53494 0.95267
 H165 H 0.19531 0.56923 0.84815
 H166 H 0.36836 0.50388 0.90590
 H167 H 0.19901 0.62242 0.91034
 H168 H 0.35879 0.55466 0.96926
 C169 C -0.29657 0.85935 0.11949
 C170 C -0.28052 0.89464 0.12224
 C171 C -0.24197 0.90357 0.10785
 N172 N -0.23226 0.93962 0.10162
 N173 N -0.19750 0.94803 0.08865
 C174 C -0.17095 0.92070 0.08172
 N175 N -0.18049 0.88469 0.08830
 N176 N -0.21540 0.87626 0.10093
 C177 C -0.13201 0.92962 0.06815
 C178 C -0.12435 0.96404 0.05226
 H179 H -0.29733 0.91670 0.13386
 H180 H -0.10910 0.90827 0.07005
 H181 H -0.28106 0.83829 0.10531
 H182 H -0.14807 0.98435 0.04816
 C183 C 0.81916 0.09026 0.62387
 C184 C 0.80506 0.09900 0.59008
 C185 C 0.76983 0.08191 0.57512
 N186 N 0.75415 0.09537 0.54436
 N187 N 0.72060 0.08213 0.53160
 C188 C 0.70154 0.05491 0.54920
 N189 N 0.71749 0.04111 0.57973
 N190 N 0.75097 0.05441 0.59252
 C191 C 0.66347 0.04132 0.53667
 C192 C 0.64341 0.05673 0.50741
 H193 H 0.81800 0.12138 0.57505
 H194 H 0.65006 0.01943 0.55198
 H195 H 0.80636 0.06749 0.63849
 H196 H 0.65664 0.07853 0.49187
 C197 C 0.41305 0.33071 0.36878
 C198 C 0.40382 0.30773 0.39715
 C199 C 0.42473 0.27194 0.40471
 N200 N 0.41215 0.24874 0.43033
 N201 N 0.43012 0.21595 0.43700
 C202 C 0.46147 0.20507 0.41838
 N203 N 0.47432 0.22842 0.39294
 N204 N 0.45625 0.26121 0.38619
 C205 C 0.48075 0.16828 0.42512
 C206 C 0.46438 0.14216 0.44765
 H207 H 0.38001 0.31548 0.41376
 H208 H 0.50712 0.16126 0.41142
 H209 H 0.43659 0.32211 0.35221
 H210 H 0.43730 0.14929 0.46025
 C211 C 0.90082 0.19612 0.62354
 C212 C 0.92261 0.22377 0.63937
 C213 C 0.93493 0.25673 0.61920
 N214 N 0.94408 0.28853 0.63555
 N215 N 0.95377 0.31893 0.61726
 C216 C 0.95496 0.31849 0.58198
 N217 N 0.94646 0.28652 0.56570
 N218 N 0.93644 0.25625 0.58395
 C219 C 0.96501 0.35184 0.56134
 C220 C 0.96381 0.38727 0.57508
 H221 H 0.92853 0.22254 0.66720
 H222 H 0.97190 0.34857 0.53425
 H223 H 0.89302 0.19942 0.59608
 H224 H 0.95471 0.39077 0.60158
 C225 C 0.08483 0.70350 -0.11255
 C226 C 0.09881 0.71929 -0.08202
 C227 C 0.08467 0.75618 -0.07185
 N228 N 0.08996 0.76732 -0.03866
 N229 N 0.07832 0.80129 -0.02973
 C230 C 0.06143 0.82543 -0.05382
 N231 N 0.05647 0.81438 -0.08702
 N232 N 0.06770 0.78034 -0.09585
 C233 C 0.04984 0.86343 -0.04499
 C234 C 0.04306 0.87360 -0.01101
 H235 H 0.12092 0.70486 -0.06562
 H236 H 0.04507 0.88375 -0.06614
 H237 H 0.06035 0.71699 -0.12682
 H238 H 0.04431 0.85273 0.00993
 C239 C 0.59111 0.77831 1.12133
 C240 C 0.60575 0.75584 1.09541
 C241 C 0.58511 0.72271 1.08309
 N242 N 0.60130 0.70190 1.05814
 N243 N 0.58355 0.67155 1.04696
 C244 C 0.54884 0.66076 1.06025
 N245 N 0.53251 0.68165 1.08514
 N246 N 0.55030 0.71206 1.09635
 C247 C 0.52965 0.62650 1.04859
 C248 C 0.54725 0.60358 1.02458
 H249 H 0.63350 0.76238 1.08378
 H250 H 0.50218 0.61853 1.05996
 H251 H 0.56323 0.77150 1.13262
 H252 H 0.57505 0.61162 1.01386
 C253 C 0.39496 0.43587 1.28870
 C254 C 0.42045 0.41993 1.26541
 C255 C 0.42586 0.43506 1.23003
 N256 N 0.44606 0.41440 1.20741
 N257 N 0.45036 0.42656 1.17480
 C258 C 0.43467 0.45992 1.16345
 N259 N 0.41476 0.48090 1.18619
 N260 N 0.41026 0.46860 1.21890
 C261 C 0.43978 0.47308 1.12723
 C262 C 0.45482 0.44886 1.10304
 H263 H 0.43516 0.39364 1.27235
 H264 H 0.43274 0.50181 1.11984
 H265 H 0.37953 0.46176 1.28170
 H266 H 0.46063 0.41999 1.11081
 C267 C 0.59464 -0.12012 0.20001
 C268 C 0.61160 -0.09018 0.21685
 C269 C 0.59376 -0.07451 0.24799
 N270 N 0.61007 -0.04506 0.26406
 N271 N 0.59482 -0.03197 0.29302
 C272 C 0.56271 -0.04795 0.30696
 N273 N 0.54642 -0.07721 0.29080
 N274 N 0.56155 -0.09018 0.26191
 C275 C 0.54638 -0.03597 0.33998
 C276 C 0.55882 -0.00491 0.35805
 H277 H 0.63895 -0.07893 0.20787
 H278 H 0.52379 -0.05322 0.35096
 H279 H 0.56702 -0.13073 0.20904
 H280 H 0.58000 0.01371 0.34679
 C281 C -0.10707 1.11896 -0.27129
 C282 C -0.11013 1.08343 -0.25617
 C283 C -0.09935 1.07540 -0.21942
 N284 N -0.08981 1.04003 -0.20855
 N285 N -0.07978 1.03237 -0.17535
 C286 C -0.07947 1.05975 -0.15172
 N287 N -0.08958 1.09504 -0.16249
 N288 N -0.09915 1.10278 -0.19578
 C289 C -0.06810 1.05176 -0.11508
 C290 C -0.04393 1.02138 -0.10517
 H291 H -0.11885 1.06044 -0.27210
 H292 H -0.07636 1.07176 -0.09589
 H293 H -0.09494 1.14124 -0.25618
 H294 H -0.03244 1.00349 -0.12486
 C295 C 1.08413 0.61485 0.79648
 C296 C 1.10483 0.59312 0.77353
 C297 C 1.08675 0.58140 0.74058
 N298 N 1.10966 0.56938 0.71471
 N299 N 1.09356 0.55932 0.68452
 C300 C 1.05395 0.56068 0.67923
 N301 N 1.03104 0.57228 0.70525
 N302 N 1.04714 0.58262 0.73532
 C303 C 1.03565 0.54933 0.64628
 C304 C 1.05712 0.54521 0.61628
 H305 H 1.13555 0.58628 0.77889
 H306 H 1.00426 0.54489 0.64547
 H307 H 1.05430 0.62393 0.78976
 H308 H 1.08805 0.55177 0.61648
 C309 C 0.68552 0.60934 0.62169
 C310 C 0.70706 0.62168 0.59347
 C311 C 0.74458 0.60326 0.58525
 N312 N 0.76298 0.61223 0.55537
 N313 N 0.79711 0.59582 0.54810
 C314 C 0.81415 0.56998 0.57054
 N315 N 0.79585 0.56120 0.60045
 N316 N 0.76170 0.57745 0.60763
 C317 C 0.85209 0.55192 0.56342
 C318 C 0.87016 0.55608 0.53154
 H319 H 0.69643 0.64513 0.57730
 H320 H 0.86596 0.53449 0.58387
 H321 H 0.69586 0.58504 0.63686
 H322 H 0.85570 0.57241 0.51063
 C323 C 0.78636 0.34627 1.14044
 C324 C 0.75780 0.37230 1.14914
 C325 C 0.72355 0.37915 1.12572
 N326 N 0.70996 0.41441 1.11901
 N327 N 0.68052 0.42096 1.09600
 C328 C 0.66343 0.39244 1.07914
 N329 N 0.67646 0.35711 1.08642
 N330 N 0.70630 0.35061 1.10902
 C331 C 0.63038 0.39949 1.05444
 C332 C 0.62660 0.43306 1.03556
 H333 H 0.76277 0.39061 1.17065
 H334 H 0.60832 0.37833 1.05167
 H335 H 0.78240 0.33162 1.11635
 H336 H 0.65044 0.45263 1.03630
 C337 C 0.28922 1.10366 -0.14909
 C338 C 0.27559 1.11416 -0.11681
 C339 C 0.24313 1.09414 -0.10024
 N340 N 0.22999 1.10450 -0.06886
 N341 N 0.20012 1.08695 -0.05425
 C342 C 0.18231 1.05837 -0.07048
 N343 N 0.19555 1.04798 -0.10175
 N344 N 0.22536 1.06547 -0.11630
 C345 C 0.14823 1.03946 -0.05570
 C346 C 0.13267 1.04862 -0.02384
 H347 H 0.28837 1.13753 -0.10371
 H348 H 0.13408 1.01853 -0.07116
 H349 H 0.27605 1.07995 -0.16139
 H350 H 0.14692 1.06928 -0.00814
 C351 C 0.18151 -0.08175 0.41004
 C352 C 0.20334 -0.05599 0.39135
 C353 C 0.23978 -0.04173 0.40662
 N354 N 0.27148 -0.03707 0.38650
 N355 N 0.30587 -0.02766 0.40066
 C356 C 0.30964 -0.02224 0.43538
 N357 N 0.27768 -0.02593 0.45537
 N358 N 0.24342 -0.03587 0.44129
 C359 C 0.34773 -0.01306 0.45125
 C360 C 0.38261 -0.02559 0.43720
 H361 H 0.19741 -0.05102 0.36377
 H362 H 0.34832 0.00233 0.47507
 H363 H 0.19044 -0.08881 0.43674
 H364 H 0.38163 -0.04387 0.41527
 C365 C 0.58899 -0.28832 0.61662
 C366 C 0.60427 -0.27082 0.58720
 C367 C 0.59109 -0.23303 0.57572
 N368 N 0.59613 -0.22089 0.54242
 N369 N 0.58487 -0.18646 0.53208
 C370 C 0.56860 -0.16279 0.55483
 N371 N 0.56396 -0.17482 0.58819
 N372 N 0.57479 -0.20935 0.59841
 C373 C 0.55714 -0.12433 0.54427
 C374 C 0.54926 -0.11348 0.50966
 H375 H 0.62584 -0.28511 0.57196
 H376 H 0.55331 -0.10431 0.56450
 H377 H 0.56502 -0.27473 0.62958
 H378 H 0.54965 -0.13413 0.48968
 C379 C 1.10132 0.81019 0.41605
 C380 C 1.07754 0.78376 0.40076
 C381 C 1.07266 0.74661 0.41683
 N382 N 1.04756 0.72246 0.40198
 N383 N 1.04362 0.68832 0.41571
 C384 C 1.06484 0.67696 0.44464
 N385 N 1.09010 0.70104 0.45941
 N386 N 1.09395 0.73526 0.44575
 C387 C 1.06024 0.63952 0.46027
 C388 C 1.03023 0.61654 0.44916
 H389 H 1.06331 0.78981 0.37565
 H390 H 1.07942 0.63071 0.48202
 H391 H 1.11484 0.80433 0.44149
 H392 H 1.00998 0.62623 0.42849
 C393 C -0.08650 1.29016 0.14724
 C394 C -0.09171 1.27665 0.11381
 C395 C -0.06760 1.24648 0.10029
 N396 N -0.07789 1.23228 0.06917
 N397 N -0.05940 1.20230 0.05777
 C398 C -0.02985 1.18539 0.07703
 N399 N -0.01883 1.20012 0.10783
 N400 N -0.03747 1.23012 0.11934
 C401 C -0.01241 1.15004 0.06619
 C402 C -0.03130 1.12923 0.04096
 H403 H -0.11666 1.28620 0.09764
 H404 H 0.01316 1.13863 0.08041
 H405 H -0.06041 1.28221 0.16265
 H406 H -0.05805 1.14004 0.02816
 C407 C 0.38402 0.20359 0.83824
 C408 C 0.38103 0.21648 0.87195
 C409 C 0.39842 0.25197 0.88243
 N410 N 0.40303 0.25956 0.91665
 N411 N 0.41816 0.29176 0.92641
 C412 C 0.42894 0.31777 0.90229
 N413 N 0.42403 0.31029 0.86807
 N414 N 0.40923 0.27796 0.85832
 C415 C 0.44464 0.35399 0.91267
 C416 C 0.45856 0.36004 0.94645
 H417 H 0.36617 0.19988 0.89135
 H418 H 0.44577 0.37623 0.89310
 H419 H 0.40114 0.21910 0.81963
 H420 H 0.45969 0.33707 0.96537
 C421 C 0.57841 0.61258 0.70309
 C422 C 0.59595 0.58348 0.72307
 C423 C 0.57808 0.56730 0.75422
 N424 N 0.60043 0.54575 0.77684
 N425 N 0.58515 0.53132 0.80561
 C426 C 0.54680 0.53761 0.81267
 N427 N 0.52423 0.55873 0.78979
 N428 N 0.53962 0.57345 0.76111
 C429 C 0.53009 0.52288 0.84501
 C430 C 0.55412 0.51209 0.87357
 H431 H 0.62492 0.57324 0.71673
 H432 H 0.49846 0.52344 0.84739
 H433 H 0.55043 0.62435 0.71041
 H434 H 0.58568 0.51460 0.87204
 C435 C 0.36650 0.11004 0.74876
 C436 C 0.40256 0.11528 0.73328
 C437 C 0.41143 0.09870 0.69971
 N438 N 0.44925 0.09426 0.69010
 N439 N 0.45749 0.07926 0.65978
 C440 C 0.42819 0.06840 0.63783
 N441 N 0.39040 0.07317 0.64730
 N442 N 0.38217 0.08781 0.67776
 C443 C 0.43669 0.05342 0.60355
 C444 C 0.47387 0.03999 0.59536
 H445 H 0.42540 0.13023 0.74683
 H446 H 0.41304 0.05331 0.58413
 H447 H 0.34512 0.09227 0.73652
 H448 H 0.49684 0.03782 0.61541
 C449 C 0.09523 0.89130 0.31136
 C450 C 0.10679 0.92199 0.29136
 C451 C 0.09144 0.92916 0.25561
 N452 N 0.10283 0.95973 0.23720
 N453 N 0.08921 0.96643 0.20476
 C454 C 0.06371 0.94277 0.18956
 N455 N 0.05235 0.91221 0.20796
 N456 N 0.06594 0.90553 0.24038
 C457 C 0.04836 0.94952 0.15379
 C458 C 0.05808 0.98077 0.13369
 H459 H 0.12766 0.94128 0.30208
 H460 H 0.02863 0.92921 0.14304
 H461 H 0.07415 0.87222 0.30063
 H462 H 0.07755 1.00130 0.14441
 C463 C 0.86901 0.36138 0.24383
 C464 C 0.90654 0.36968 0.25607
 C465 C 0.91397 0.38211 0.29153
 N466 N 0.94255 0.40704 0.29775
 N467 N 0.95017 0.41807 0.32994
 C468 C 0.93000 0.40400 0.35714
 N469 N 0.90183 0.37858 0.35104
 N470 N 0.89371 0.36803 0.31871
 C471 C 0.93896 0.41586 0.39258
 C472 C 0.94806 0.45274 0.39852
 H473 H 0.93092 0.36891 0.23857
 H474 H 0.93723 0.39594 0.41416
 H475 H 0.84387 0.36653 0.25979
 H476 H 0.94485 0.47326 0.37736
   
