data_POSCAR
  _audit_creation_date              2014-09-24
  _audit_creation_method            'ToBaCCo'
  _symmetry_space_group_name_H-M    'P1'
  _symmetry_Int_Tables_number       1
  _symmetry_cell_setting            triclinic
  loop_
  _symmetry_equiv_pos_as_xyz
 x,y,z
_cell_length_a 28.7094
_cell_length_b 28.6571
_cell_length_c 28.2618
_cell_angle_alpha 89.129300
_cell_angle_beta 89.818800
_cell_angle_gamma 89.634900
loop_
  _atom_site_label
  _atom_site_type_symbol
  _atom_site_fract_x
  _atom_site_fract_y
  _atom_site_fract_z
C1 C 0.17331 1.22156 0.16090
 C2 C 0.21515 1.20415 0.14183
 C3 C 0.23726 1.16522 0.16246
 C4 C 0.21884 1.14457 0.20356
 C5 C 0.17715 1.16135 0.22356
 C6 C 0.15576 1.20101 0.20283
 H7 H 0.22893 1.21870 0.10907
 H8 H 0.23678 1.11487 0.21944
 H9 H 0.12404 1.21491 0.21822
 C10 C 0.81943 0.75279 0.19470
 C11 C 0.78051 0.77375 0.17246
 C12 C 0.76445 0.81782 0.18631
 C13 C 0.78621 0.84061 0.22367
 C14 C 0.82480 0.82027 0.24615
 C15 C 0.84154 0.77686 0.23143
 H16 H 0.76463 0.75742 0.14220
 H17 H 0.77418 0.87491 0.23406
 H18 H 0.87190 0.76188 0.24876
 C19 C 0.82570 1.24429 -0.17829
 C20 C 0.84236 1.22915 -0.22246
 C21 C 0.82156 1.19163 -0.24550
 C22 C 0.78312 1.16948 -0.22455
 C23 C 0.76501 1.18520 -0.18159
 C24 C 0.78561 1.22306 -0.15906
 H25 H 0.87213 1.24613 -0.23877
 H26 H 0.76840 1.13887 -0.24073
 H27 H 0.77242 1.23347 -0.12479
 C28 C 0.17505 0.76822 -0.16225
 C29 C 0.15312 0.79295 -0.19946
 C30 C 0.17643 0.82875 -0.22391
 C31 C 0.22182 0.84047 -0.21098
 C32 C 0.24472 0.81568 -0.17458
 C33 C 0.22159 0.77876 -0.15133
 H34 H 0.11787 0.78427 -0.20965
 H35 H 0.23873 0.86983 -0.22831
 H36 H 0.23891 0.76035 -0.12250
 C37 C 0.57623 1.05980 -0.01775
 H38 H 0.57264 1.06051 0.02035
 C39 C 0.61071 1.08621 -0.04010
 H40 H 0.63349 1.10770 -0.01924
 C41 C 0.55229 1.02925 -0.09127
 H42 H 0.53039 1.00593 -0.11084
 C43 C 0.58655 1.05502 -0.11508
 H44 H 0.59059 1.05186 -0.15301
 N45 N 0.54808 1.03185 -0.04339
 C46 C 0.43423 1.00232 0.05453
 H47 H 0.43663 0.96463 0.05599
 C48 C 0.39801 1.02511 0.07792
 H49 H 0.37255 1.00499 0.09774
 C50 C 0.46303 1.07449 0.02487
 H51 H 0.48756 1.09343 0.00295
 C52 C 0.42729 1.09871 0.04779
 H53 H 0.42467 1.13628 0.04382
 Zn54 Zn 0.50815 0.99220 -0.00820
 N55 N 0.46555 1.02710 0.02832
 C56 C 0.54649 0.95719 0.07862
 N57 N 0.54740 0.95502 0.03054
 C58 C 0.58013 0.92933 0.00756
 C59 C 0.61439 0.90520 0.03295
 C60 C 0.58027 0.93355 0.10546
 C61 C 0.44301 0.97627 -0.07928
 C62 C 0.41079 0.95063 -0.10489
 C63 C 0.43864 0.88042 -0.06550
 C64 C 0.47076 0.90731 -0.04102
 N65 N 0.47199 0.95440 -0.04793
 H66 H 0.52075 0.97861 0.09608
 H67 H 0.58036 0.92883 -0.03071
 H68 H 0.64101 0.88578 0.01426
 H69 H 0.58029 0.93651 0.14362
 H70 H 0.44386 1.01387 -0.08309
 H71 H 0.38688 0.96846 -0.12870
 H72 H 0.43658 0.84323 -0.05849
 H73 H 0.49305 0.89081 -0.01489
 C74 C 0.39384 1.07372 0.07374
 C75 C 0.61679 1.08301 -0.08914
 C76 C 0.40804 0.90232 -0.09742
 C77 C 0.61523 0.90816 0.08236
 C78 C -0.02330 0.55153 1.08957
 H79 H 0.01167 0.54120 1.09946
 C80 C -0.04851 0.58173 1.11838
 H81 H -0.03315 0.59347 1.15103
 C82 C -0.08455 0.55111 1.03359
 H83 H -0.09769 0.54006 0.99977
 C84 C -0.11030 0.58266 1.06056
 H85 H -0.14318 0.59593 1.04716
 N86 N -0.04197 0.53609 1.04857
 C87 C 0.06734 0.43527 1.01499
 H88 H 0.07377 0.44619 0.97876
 C89 C 0.09197 0.39745 1.03436
 H90 H 0.11769 0.37947 1.01311
 C91 C 0.02341 0.44299 1.08567
 H92 H -0.00505 0.45901 1.10465
 C93 C 0.04753 0.40561 1.10655
 H94 H 0.03844 0.39399 1.14202
 Zn95 Zn -0.00452 0.50039 1.00740
 N96 N 0.03367 0.45706 1.04063
 C97 C 0.07562 0.55368 0.98712
 N98 N 0.03181 0.54353 0.97240
 C99 C 0.01109 0.56838 0.93681
 C100 C 0.03483 0.60462 0.91397
 C101 C 0.10013 0.59057 0.96611
 C102 C -0.07370 0.43599 0.99050
 C103 C -0.09730 0.40166 0.96581
 C104 C -0.05640 0.42569 0.89472
 C105 C -0.03320 0.45933 0.92088
 N106 N -0.04196 0.46356 0.96799
 H107 H 0.09077 0.53446 1.01654
 H108 H -0.02438 0.56075 0.92688
 H109 H 0.01797 0.62399 0.88555
 H110 H 0.13438 0.59928 0.97914
 H111 H -0.07912 0.43938 1.02819
 H112 H -0.12120 0.37875 0.98449
 H113 H -0.04828 0.42158 0.85756
 H114 H -0.00652 0.48020 0.90401
 C115 C 0.08126 0.38163 1.08022
 C116 C -0.09254 0.59794 1.10389
 C117 C -0.08769 0.39547 0.91769
 C118 C 0.07923 0.61717 0.92979
 C119 C 1.06554 -0.00521 0.57676
 H120 H 1.06701 0.03236 0.57273
 C121 C 1.08926 -0.02741 0.61383
 H122 H 1.10950 -0.00699 0.63819
 C123 C 1.03580 -0.07757 0.55107
 H124 H 1.01388 -0.09675 0.52731
 C125 C 1.05896 -0.10120 0.58778
 H126 H 1.05523 -0.13863 0.59188
 N127 N 1.03920 -0.03036 0.54657
 C128 C 1.01736 0.06425 0.42682
 H129 H 0.97971 0.06608 0.42754
 C130 C 1.04191 0.08590 0.39008
 H131 H 1.02319 0.10476 0.36253
 C132 C 1.08759 0.03487 0.46023
 H133 H 1.10501 0.01366 0.48678
 C134 C 1.11356 0.05594 0.42392
 H135 H 1.15103 0.05138 0.42282
 Zn136 Zn 1.00269 0.00403 0.50275
 N137 N 1.04032 0.03902 0.46066
 C138 C 0.96759 0.09061 0.53650
 N139 N 0.96377 0.04330 0.53874
 C140 C 0.93484 0.02198 0.57042
 C141 C 0.90831 0.04842 0.60170
 C142 C 0.94183 0.11840 0.56741
 C143 C 0.99153 -0.06447 0.43541
 C144 C 0.96853 -0.08973 0.40088
 C145 C 0.89567 -0.05599 0.42710
 C146 C 0.92008 -0.03133 0.46124
 N147 N 0.96722 -0.03561 0.46436
 H148 H 0.99174 0.10676 0.51197
 H149 H 0.93331 -0.01572 0.57207
 H150 H 0.88607 0.03115 0.62747
 H151 H 0.94584 0.15596 0.56639
 H152 H 1.02907 -0.06646 0.43808
 H153 H 0.98831 -0.11169 0.37717
 H154 H 0.85835 -0.05133 0.42379
 H155 H 0.90157 -0.00728 0.48369
 C156 C 1.09039 0.08095 0.38797
 C157 C 1.08515 -0.07579 0.62015
 C158 C 0.92024 -0.08459 0.39580
 C159 C 0.91215 0.09706 0.60052
 C160 C 0.15176 0.33756 1.10479
 C161 C 0.17430 0.29825 1.12339
 C162 C 0.14910 0.25861 1.13802
 C163 C 0.10011 0.25770 1.12952
 C164 C 0.07728 0.29793 1.11055
 C165 C 0.10335 0.33851 1.09941
 C166 C 0.02918 0.29546 1.10124
 N167 N 0.00581 0.25527 1.10971
 N168 N 0.02733 0.21714 1.12612
 C169 C 0.07355 0.21675 1.13569
 H170 H 0.17224 0.36797 1.09539
 H171 H 0.21163 0.29991 1.12863
 H172 H 0.01000 0.32461 1.08619
 H173 H 0.08913 0.18392 1.14651
 C174 C -0.09149 0.67360 1.14480
 C175 C -0.11253 0.71074 1.16770
 C176 C -0.16068 0.71130 1.17689
 C177 C -0.18714 0.67095 1.16594
 C178 C -0.16514 0.63235 1.14365
 C179 C -0.11717 0.63459 1.13141
 C180 C -0.19160 0.59197 1.13611
 N181 N -0.23696 0.59060 1.14942
 N182 N -0.25752 0.62650 1.17049
 C183 C -0.23416 0.66630 1.17963
 H184 H -0.05482 0.67619 1.13603
 H185 H -0.09122 0.74077 1.17534
 H186 H -0.17649 0.56098 1.12095
 H187 H -0.25230 0.69322 1.19882
 C188 C -0.15647 0.35323 0.88850
 C189 C -0.17760 0.31593 0.86625
 C190 C -0.15098 0.27957 0.84670
 C191 C -0.10164 0.27980 0.85315
 C192 C -0.08023 0.31811 0.87571
 C193 C -0.10801 0.35544 0.89261
 C194 C -0.03168 0.31665 0.88281
 N195 N -0.00652 0.27909 0.86900
 N196 N -0.02662 0.24251 0.84933
 C197 C -0.07314 0.24126 0.84156
 H198 H -0.17817 0.38102 0.90222
 H199 H -0.21517 0.31664 0.86256
 H200 H -0.01346 0.34439 0.90020
 H201 H -0.08731 0.20939 0.82796
 C202 C 0.14865 0.65257 0.89154
 C203 C 0.17228 0.68947 0.86993
 C204 C 0.15095 0.73341 0.86372
 C205 C 0.10601 0.74098 0.88395
 C206 C 0.08243 0.70350 0.90701
 C207 C 0.10335 0.65848 0.90908
 C208 C 0.03946 0.71295 0.92928
 N209 N 0.02128 0.75668 0.92803
 N210 N 0.04347 0.79187 0.90688
 C211 C 0.08526 0.78570 0.88540
 H212 H 0.16555 0.61870 0.89362
 H213 H 0.20671 0.68277 0.85561
 H214 H 0.02064 0.68647 0.94888
 H215 H 0.10242 0.81622 0.87123
 C216 C 1.12024 0.14759 0.34106
 C217 C 1.14023 0.16713 0.30057
 C218 C 1.15660 0.13908 0.26347
 C219 C 1.15074 0.08965 0.26745
 C220 C 1.13120 0.06989 0.30944
 C221 C 1.11586 0.09930 0.34624
 C222 C 1.12537 0.02118 0.31232
 N223 N 1.13686 -0.00574 0.27503
 N224 N 1.15308 0.01277 0.23485
 C225 C 1.15976 0.05934 0.22952
 H226 H 1.10786 0.17043 0.36867
 H227 H 1.14397 0.20472 0.29891
 H228 H 1.11108 0.00425 0.34350
 H229 H 1.17053 0.07199 0.19508
 C230 C 1.14306 -0.13159 0.65323
 C231 C 1.16561 -0.15401 0.69089
 C232 C 1.15261 -0.14506 0.73768
 C233 C 1.11647 -0.11256 0.74681
 C234 C 1.09312 -0.09015 0.70854
 C235 C 1.10703 -0.09949 0.66139
 C236 C 1.05604 -0.05956 0.71888
 N237 N 1.04451 -0.05097 0.76452
 N238 N 1.06740 -0.07097 0.80044
 C239 C 1.10300 -0.10136 0.79317
 H240 H 1.15401 -0.13909 0.61740
 H241 H 1.19321 -0.17884 0.68350
 H242 H 1.03589 -0.04261 0.69125
 H243 H 1.12064 -0.11619 0.82364
 C244 C 0.86394 -0.14254 0.36672
 C245 C 0.84122 -0.16582 0.33058
 C246 C 0.84977 -0.15411 0.28309
 C247 C 0.88174 -0.11824 0.27166
 C248 C 0.90456 -0.09428 0.30836
 C249 C 0.89593 -0.10712 0.35624
 C250 C 0.93489 -0.05770 0.29576
 N251 N 0.94261 -0.04705 0.24949
 N252 N 0.92198 -0.07033 0.21502
 C253 C 0.89188 -0.10554 0.22449
 H254 H 0.85692 -0.15256 0.40315
 H255 H 0.81680 -0.19322 0.33968
 H256 H 0.95228 -0.03724 0.32213
 H257 H 0.87629 -0.12334 0.19512
 C258 C 0.91236 0.13468 0.67812
 C259 C 0.89053 0.15766 0.71515
 C260 C 0.84376 0.17176 0.71177
 C261 C 0.81913 0.16395 0.66919
 C262 C 0.84134 0.14003 0.63165
 C263 C 0.88809 0.12495 0.63665
 C264 C 0.81592 0.13202 0.59018
 N265 N 0.77142 0.14777 0.58644
 N266 N 0.75079 0.17096 0.62130
 C267 C 0.77311 0.17972 0.66243
 H268 H 0.94818 0.12324 0.68231
 H269 H 0.90993 0.16315 0.74738
 H270 H 0.83113 0.11371 0.56066
 H271 H 0.75485 0.19936 0.68915
 C272 C 0.35961 1.12723 0.13270
 C273 C 0.32179 1.14908 0.15441
 C274 C 0.27647 1.14238 0.13782
 C275 C 0.26898 1.11328 0.09854
 C276 C 0.30740 1.09128 0.07633
 C277 C 0.35296 1.09790 0.09411
 C278 C 0.29886 1.06358 0.03660
 N279 N 0.25464 1.05758 0.02122
 N280 N 0.21845 1.07748 0.04272
 C281 C 0.22405 1.10504 0.08082
 H282 H 0.39428 1.13263 0.14655
 H283 H 0.32784 1.17118 0.18451
 H284 H 0.32685 1.04687 0.01743
 H285 H 0.19335 1.12020 0.09685
 C286 C 0.64593 1.14281 -0.14596
 C287 C 0.68164 1.16790 -0.16793
 C288 C 0.72829 1.15812 -0.15725
 C289 C 0.73935 1.12192 -0.12446
 C290 C 0.70311 1.09615 -0.10240
 C291 C 0.65599 1.10733 -0.11280
 C292 C 0.71544 1.05928 -0.07131
 N293 N 0.76095 1.04989 -0.06233
 N294 N 0.79494 1.07460 -0.08253
 C295 C 0.78575 1.11020 -0.11331
 H296 H 0.61010 1.15151 -0.15445
 H297 H 0.67288 1.19527 -0.19329
 H298 H 0.68949 1.03748 -0.05443
 H299 H 0.81478 1.12882 -0.12892
 C300 C 0.33171 0.86450 -0.08961
 C301 C 0.29245 0.84342 -0.10817
 C302 C 0.28999 0.83258 -0.15635
 C303 C 0.32914 0.84156 -0.18587
 C304 C 0.36884 0.86389 -0.16701
 C305 C 0.36960 0.87591 -0.11865
 C306 C 0.40675 0.87311 -0.19720
 N307 N 0.40515 0.86001 -0.24308
 N308 N 0.36831 0.83826 -0.26062
 C309 C 0.33038 0.82843 -0.23360
 H310 H 0.33188 0.87353 -0.05251
 H311 H 0.26298 0.83711 -0.08496
 H312 H 0.43776 0.89017 -0.18464
 H313 H 0.30190 0.80990 -0.24954
 C314 C 0.64540 0.84860 0.13908
 C315 C 0.68154 0.82627 0.16351
 C316 C 0.72744 0.84202 0.15898
 C317 C 0.73723 0.88084 0.12899
 C318 C 0.70045 0.90383 0.10456
 C319 C 0.65429 0.88706 0.10930
 C320 C 0.71116 0.94330 0.07638
 N321 N 0.75593 0.95754 0.07197
 N322 N 0.79064 0.93512 0.09386
 C323 C 0.78287 0.89727 0.12209
 H324 H 0.61027 0.83546 0.14297
 H325 H 0.67368 0.79658 0.18629
 H326 H 0.68444 0.96313 0.05803
 H327 H 0.81246 0.88027 0.13856
   
