data_POSCAR
  _audit_creation_date              2014-09-24
  _audit_creation_method            'ToBaCCo'
  _symmetry_space_group_name_H-M    'P1'
  _symmetry_Int_Tables_number       1
  _symmetry_cell_setting            triclinic
  loop_
  _symmetry_equiv_pos_as_xyz
 x,y,z
_cell_length_a 38.9312
_cell_length_b 39.7958
_cell_length_c 38.6361
_cell_angle_alpha 90.575700
_cell_angle_beta 90.657500
_cell_angle_gamma 90.935300
loop_
  _atom_site_label
  _atom_site_type_symbol
  _atom_site_fract_x
  _atom_site_fract_y
  _atom_site_fract_z
C1 C 0.19749 0.21924 0.26378
 C2 C 0.22431 0.19897 0.25199
 C3 C 0.24198 0.20690 0.22162
 C4 C 0.23290 0.23594 0.20338
 C5 C 0.20619 0.25646 0.21466
 C6 C 0.18849 0.24777 0.24487
 H7 H 0.23085 0.17641 0.26582
 H8 H 0.24643 0.24276 0.18016
 H9 H 0.16755 0.26299 0.25382
 C10 C 0.69127 0.69895 0.74081
 C11 C 0.68576 0.72865 0.72257
 C12 C 0.70247 0.73471 0.69109
 C13 C 0.72416 0.71005 0.67757
 C14 C 0.72955 0.67993 0.69537
 C15 C 0.71321 0.67477 0.72708
 H16 H 0.66869 0.74703 0.73339
 H17 H 0.73721 0.71467 0.65347
 H18 H 0.71707 0.65147 0.74070
 C19 C 0.32006 0.75027 0.71867
 C20 C 0.29886 0.73980 0.69072
 C21 C 0.27199 0.76012 0.67900
 C22 C 0.26669 0.79130 0.69528
 C23 C 0.28791 0.80259 0.72282
 C24 C 0.31451 0.78173 0.73425
 H25 H 0.30285 0.71578 0.67818
 H26 H 0.24644 0.80726 0.68588
 H27 H 0.33091 0.78955 0.75569
 C28 C 0.81573 0.24116 0.23385
 C29 C 0.79739 0.23044 0.20386
 C30 C 0.76877 0.24812 0.19181
 C31 C 0.75865 0.27714 0.20981
 C32 C 0.77634 0.28839 0.23966
 C33 C 0.80488 0.27029 0.25139
 H34 H 0.80491 0.20821 0.18975
 H35 H 0.73701 0.29132 0.20051
 H36 H 0.81885 0.27891 0.27422
 C37 C 0.81459 0.72098 0.28208
 C38 C 0.80408 0.69314 0.26185
 C39 C 0.77186 0.67747 0.26687
 C40 C 0.74995 0.69027 0.29238
 C41 C 0.75981 0.71860 0.31246
 C42 C 0.79219 0.73357 0.30712
 H43 H 0.82151 0.68327 0.24280
 H44 H 0.72525 0.67815 0.29636
 H45 H 0.79965 0.75557 0.32223
 C46 C 0.30789 0.23918 -0.21814
 C47 C 0.29635 0.21133 -0.23812
 C48 C 0.26870 0.19100 -0.22738
 C49 C 0.25297 0.19819 -0.19580
 C50 C 0.26409 0.22556 -0.17506
 C51 C 0.29127 0.24616 -0.18662
 H52 H 0.30898 0.20546 -0.26217
 H53 H 0.23163 0.18254 -0.18778
 H54 H 0.29966 0.26716 -0.17052
 C55 C 0.69018 0.30305 -0.24956
 C56 C 0.68081 0.27664 -0.22751
 C57 C 0.70086 0.26886 -0.19830
 C58 C 0.73088 0.28782 -0.19126
 C59 C 0.74084 0.31450 -0.21280
 C60 C 0.72042 0.32180 -0.24188
 H61 H 0.65788 0.26190 -0.23341
 H62 H 0.74605 0.28191 -0.16860
 H63 H 0.72820 0.34243 -0.25814
 C64 C 0.20793 0.82196 0.25694
 C65 C 0.20487 0.79013 0.27185
 C66 C 0.23093 0.77758 0.29326
 C67 C 0.26038 0.79742 0.30010
 C68 C 0.26455 0.82925 0.28459
 C69 C 0.23801 0.84114 0.26309
 H70 H 0.18174 0.77518 0.26722
 H71 H 0.28018 0.78730 0.31663
 H72 H 0.24084 0.86546 0.25116
 C73 C 0.46813 0.43744 0.46067
 C74 C 0.48441 0.45343 0.43290
 C75 C 0.47654 0.48664 0.42419
 C76 C 0.45177 0.50373 0.44353
 C77 C 0.43587 0.48829 0.47173
 C78 C 0.44434 0.45525 0.48028
 H79 H 0.50348 0.44019 0.41814
 H80 H 0.44506 0.52924 0.43730
 H81 H 0.43154 0.44291 0.50153
 C82 C -0.03998 -0.04840 0.98910
 C83 C -0.05800 -0.01906 0.98120
 C84 C -0.04450 0.00488 0.95817
 C85 C -0.01238 -0.00118 0.94301
 C86 C 0.00617 -0.03001 0.95116
 C87 C -0.00776 -0.05341 0.97424
 H88 H -0.08256 -0.01473 0.99310
 H89 H -0.00122 0.01648 0.92511
 H90 H 0.00606 -0.07611 0.97998
 C91 C 1.04104 0.58376 0.99681
 C92 C 1.01260 0.59187 0.97587
 C93 C 1.00365 0.57204 0.94679
 C94 C 1.02338 0.54391 0.93887
 C95 C 1.05205 0.53546 0.95904
 C96 C 1.06054 0.55531 0.98823
 H97 H 0.99768 0.61373 0.98219
 H98 H 1.01607 0.52839 0.91680
 H99 H 1.08256 0.54862 1.00382
 C100 C 0.52562 0.07904 0.48407
 C101 C 0.52037 0.07306 0.44856
 C102 C 0.54315 0.05325 0.42982
 C103 C 0.57052 0.03804 0.44728
 C104 C 0.57622 0.04352 0.48292
 C105 C 0.55396 0.06498 0.50095
 H106 H 0.49895 0.08453 0.43529
 H107 H 0.58734 0.02161 0.43310
 H108 H 0.55734 0.06975 0.52839
 C109 C -0.02281 0.04431 0.54609
 C110 C -0.04682 0.02882 0.52365
 C111 C -0.06042 -0.00347 0.53034
 C112 C -0.04910 -0.02037 0.56014
 C113 C -0.02360 -0.00585 0.58204
 C114 C -0.01095 0.02658 0.57490
 H115 H -0.05595 0.04291 0.50172
 H116 H -0.05918 -0.04527 0.56540
 H117 H 0.00838 0.03786 0.59185
 C118 C 0.47285 0.54815 0.03429
 C119 C 0.44359 0.53624 0.01641
 C120 C 0.42982 0.50414 0.02281
 C121 C 0.44576 0.48372 0.04745
 C122 C 0.47572 0.49497 0.06514
 C123 C 0.48888 0.52733 0.05849
 H124 H 0.43102 0.55245 -0.00198
 H125 H 0.43495 0.45903 0.05230
 H126 H 0.51198 0.53606 0.07182
 C127 C 0.52295 -0.07049 0.00505
 C128 C 0.55638 -0.06511 -0.00778
 C129 C 0.57702 -0.03806 0.00450
 C130 C 0.56409 -0.01661 0.03006
 C131 C 0.53112 -0.02161 0.04332
 C132 C 0.51085 -0.04857 0.03096
 H133 H 0.56601 -0.08162 -0.02771
 H134 H 0.58000 0.00394 0.03995
 H135 H 0.48558 -0.05198 0.04175
 C136 C 1.01671 0.42893 0.52340
 C137 C 1.01044 0.44414 0.55559
 C138 C 1.03095 0.47114 0.56772
 C139 C 1.05771 0.48334 0.54689
 C140 C 1.06451 0.46851 0.51449
 C141 C 1.04390 0.44097 0.50324
 H142 H 0.98998 0.43455 0.57164
 H143 H 1.07319 0.50460 0.55574
 H144 H 1.04829 0.42893 0.47854
 C145 C 0.43807 0.04770 0.18914
 H146 H 0.43561 0.06986 0.20531
 C147 C 0.45984 0.04847 0.16094
 H148 H 0.47364 0.07161 0.15576
 C149 C 0.42293 -0.00928 0.17757
 H150 H 0.40885 -0.03177 0.18465
 C151 C 0.44473 -0.00966 0.14894
 H152 H 0.44712 -0.03260 0.13391
 N153 N 0.42024 0.01922 0.19700
 C154 C 0.34606 0.07475 0.25705
 H155 H 0.34968 0.06725 0.28363
 C156 C 0.32539 0.10239 0.24935
 H157 H 0.31361 0.11630 0.27019
 C158 C 0.35648 0.06589 0.19746
 H159 H 0.36789 0.05133 0.17701
 C160 C 0.33628 0.09305 0.18870
 H161 H 0.33269 0.09879 0.16161
 Zn162 Zn 0.39524 0.02365 0.23840
 N163 N 0.36232 0.05804 0.23119
 C164 C 0.42875 0.05937 0.29648
 N165 N 0.42974 0.03477 0.27179
 C166 C 0.45716 0.01420 0.26921
 C167 C 0.48484 0.01749 0.29202
 C168 C 0.45579 0.06304 0.32058
 C169 C 0.34926 -0.03290 0.23160
 C170 C 0.33410 -0.06328 0.24212
 C171 C 0.36923 -0.06078 0.29400
 C172 C 0.38329 -0.03044 0.28280
 N173 N 0.37364 -0.01731 0.25185
 H174 H 0.40700 0.07574 0.29801
 H175 H 0.45721 -0.00540 0.24962
 H176 H 0.50591 0.00022 0.28978
 H177 H 0.45456 0.08214 0.34067
 H178 H 0.34172 -0.02182 0.20727
 H179 H 0.31486 -0.07555 0.22570
 H180 H 0.37739 -0.07049 0.31878
 H181 H 0.40192 -0.01743 0.29914
 C182 C 0.32134 0.11246 0.21480
 C183 C 0.46381 0.01944 0.14056
 C184 C 0.34448 -0.07776 0.27350
 C185 C 0.48424 0.04190 0.31832
 C186 C 0.08994 -0.04896 0.72556
 H187 H 0.09600 -0.06749 0.74489
 C188 C 0.06213 -0.05449 0.70285
 H189 H 0.04723 -0.07753 0.70487
 C190 C 0.10190 0.00382 0.70021
 H191 H 0.11703 0.02679 0.69960
 C192 C 0.07440 -0.00066 0.67704
 H193 H 0.06901 0.01890 0.65856
 N194 N 0.10936 -0.02033 0.72364
 C195 C 0.20948 -0.04067 0.76954
 H196 H 0.21189 -0.01853 0.78593
 C197 C 0.23564 -0.06413 0.76917
 H198 H 0.25815 -0.05946 0.78524
 C199 C 0.17665 -0.07316 0.72903
 H200 H 0.15362 -0.07655 0.71345
 C201 C 0.20226 -0.09736 0.72787
 H202 H 0.19854 -0.11934 0.71142
 Zn203 Zn 0.14582 -0.01361 0.75608
 N204 N 0.18038 -0.04591 0.75033
 C205 C 0.13942 -0.04207 0.82231
 N206 N 0.12732 -0.01785 0.80100
 C207 C 0.10049 0.00157 0.81039
 C208 C 0.08465 -0.00317 0.84233
 C209 C 0.12458 -0.04747 0.85446
 C210 C 0.18472 0.03337 0.72013
 C211 C 0.20434 0.06251 0.71501
 C212 C 0.18826 0.08190 0.77193
 C213 C 0.16882 0.05236 0.77591
 N214 N 0.16751 0.02880 0.75017
 H215 H 0.16004 -0.05798 0.81416
 H216 H 0.09097 0.02027 0.79273
 H217 H 0.06299 0.01216 0.84921
 H218 H 0.13435 -0.06741 0.87040
 H219 H 0.18380 0.01389 0.70039
 H220 H 0.21814 0.06508 0.69106
 H221 H 0.18941 0.10018 0.79288
 H222 H 0.15558 0.04791 0.79990
 C223 C 0.23194 -0.09331 0.74864
 C224 C 0.05408 -0.03011 0.67809
 C225 C 0.20660 0.08716 0.74129
 C226 C 0.09660 -0.02808 0.86476
 C227 C 0.58706 0.44514 0.20659
 H228 H 0.58849 0.42854 0.22855
 C229 C 0.56173 0.43977 0.18123
 H230 H 0.54400 0.41879 0.18395
 C231 C 0.60727 0.49397 0.17816
 H232 H 0.62432 0.51565 0.17772
 C233 C 0.58203 0.48973 0.15235
 H234 H 0.58032 0.50799 0.13183
 N235 N 0.60910 0.47190 0.20473
 C236 C 0.68661 0.44331 0.28128
 H237 H 0.68548 0.46440 0.29911
 C238 C 0.70968 0.41741 0.28745
 H239 H 0.72592 0.41894 0.31030
 C240 C 0.66733 0.41672 0.22934
 H241 H 0.65144 0.41691 0.20625
 C242 C 0.69004 0.39034 0.23447
 H243 H 0.69090 0.37025 0.21540
 Zn244 Zn 0.63739 0.47984 0.24419
 N245 N 0.66592 0.44248 0.25269
 C246 C 0.60367 0.46840 0.30921
 N247 N 0.60631 0.48763 0.28044
 C248 C 0.58461 0.51342 0.27460
 C249 C 0.55938 0.52130 0.29844
 C250 C 0.57847 0.47529 0.33376
 C251 C 0.68859 0.51959 0.21240
 C252 C 0.71111 0.54706 0.20893
 C253 C 0.68751 0.57139 0.26080
 C254 C 0.66546 0.54353 0.26324
 N255 N 0.66617 0.51842 0.23909
 H256 H 0.62068 0.44751 0.31292
 H257 H 0.58690 0.52784 0.25112
 H258 H 0.54234 0.54178 0.29281
 H259 H 0.57650 0.45976 0.35653
 H260 H 0.68911 0.49901 0.19391
 H261 H 0.72873 0.54720 0.18752
 H262 H 0.68658 0.59096 0.28044
 H263 H 0.64829 0.54177 0.28491
 C264 C 0.71174 0.39047 0.26374
 C265 C 0.55861 0.46257 0.15393
 C266 C 0.71080 0.57346 0.23345
 C267 C 0.55604 0.50216 0.32854
 C268 C 0.93970 0.52719 0.71948
 H269 H 0.93678 0.54888 0.73622
 C270 C 0.96713 0.52610 0.69670
 H271 H 0.98509 0.54712 0.69630
 C272 C 0.91844 0.47452 0.69869
 H273 H 0.89915 0.45473 0.69931
 C274 C 0.94535 0.47262 0.67506
 H275 H 0.94669 0.45114 0.65773
 N276 N 0.91600 0.50172 0.72008
 C277 C 0.81713 0.54532 0.74263
 H278 H 0.81104 0.53502 0.76768
 C279 C 0.79589 0.56932 0.72778
 H280 H 0.77333 0.57736 0.74155
 C281 C 0.85463 0.54829 0.69484
 H282 H 0.87781 0.54045 0.68224
 C283 C 0.83395 0.57201 0.67890
 H284 H 0.84182 0.58222 0.65434
 Zn285 Zn 0.87825 0.50854 0.74966
 N286 N 0.84651 0.53625 0.72661
 C287 C 0.88278 0.56009 0.80227
 N288 N 0.89579 0.53078 0.79002
 C289 C 0.92311 0.51629 0.80575
 C290 C 0.93774 0.53061 0.83557
 C291 C 0.89665 0.57532 0.83221
 C292 C 0.83785 0.44896 0.73842
 C293 C 0.82139 0.41890 0.74792
 C294 C 0.84357 0.42706 0.80604
 C295 C 0.85904 0.45705 0.79564
 N296 N 0.85649 0.46724 0.76220
 H297 H 0.86168 0.57181 0.78898
 H298 H 0.93337 0.49333 0.79514
 H299 H 0.95929 0.51834 0.84776
 H300 H 0.88576 0.59846 0.84159
 H301 H 0.83554 0.45786 0.71215
 H302 H 0.80662 0.40460 0.72877
 H303 H 0.84593 0.41974 0.83285
 H304 H 0.87287 0.47219 0.81459
 C305 C 0.80465 0.58350 0.69586
 C306 C 0.97004 0.49871 0.67384
 C307 C 0.82456 0.40746 0.78205
 C308 C 0.92440 0.56037 0.84935
 C309 C 0.18068 0.43309 0.00819
 H310 H 0.19649 0.44081 0.03017
 C311 C 0.15476 0.45407 -0.00384
 H312 H 0.15061 0.47791 0.00909
 C313 C 0.16759 0.39307 -0.03601
 H314 H 0.17292 0.36958 -0.04891
 C315 C 0.14163 0.41328 -0.04898
 H316 H 0.12695 0.40446 -0.07128
 N317 N 0.18647 0.40314 -0.00786
 C318 C 0.23786 0.33870 0.06708
 H319 H 0.26012 0.33107 0.05264
 C320 C 0.23170 0.32522 0.09976
 H321 H 0.24950 0.30734 0.11045
 C322 C 0.18706 0.37049 0.07021
 H323 H 0.16919 0.38745 0.05834
 C324 C 0.18010 0.35791 0.10302
 H325 H 0.15691 0.36558 0.11582
 Zn326 Zn 0.22361 0.37665 0.00757
 N327 N 0.21567 0.36096 0.05302
 C328 C 0.28665 0.40750 0.03198
 N329 N 0.26347 0.40414 0.00551
 C330 C 0.26766 0.42089 -0.02464
 C331 C 0.29641 0.44146 -0.02952
 C332 C 0.31594 0.42793 0.02819
 C333 C 0.20366 0.31465 -0.02260
 C334 C 0.20498 0.28772 -0.04601
 C335 C 0.25807 0.31082 -0.06799
 C336 C 0.25589 0.33712 -0.04398
 N337 N 0.22854 0.33902 -0.02246
 H338 H 0.28259 0.39426 0.05590
 H339 H 0.24867 0.41790 -0.04515
 H340 H 0.29899 0.45404 -0.05401
 H341 H 0.33428 0.43026 0.04940
 H342 H 0.18229 0.31663 -0.00508
 H343 H 0.18433 0.26921 -0.04626
 H344 H 0.27967 0.31013 -0.08539
 H345 H 0.27584 0.35626 -0.04309
 C346 C 0.20252 0.33486 0.11818
 C347 C 0.13512 0.44440 -0.03305
 C348 C 0.23227 0.28586 -0.06946
 C349 C 0.32115 0.44517 -0.00293
 C350 C 0.72944 0.05770 -0.03943
 H351 H 0.74772 0.06232 -0.05980
 C352 C 0.70827 0.02902 -0.04088
 H353 H 0.71048 0.01180 -0.06254
 C354 C 0.70360 0.07561 0.01268
 H355 H 0.70172 0.09384 0.03342
 C356 C 0.68176 0.04743 0.01210
 H357 H 0.66317 0.04435 0.03252
 N358 N 0.72618 0.08068 -0.01341
 C359 C 0.74942 0.17739 -0.06048
 H360 H 0.77114 0.18658 -0.04523
 C361 C 0.73648 0.19672 -0.08759
 H362 H 0.74846 0.22078 -0.09316
 C363 C 0.70709 0.13508 -0.07148
 H364 H 0.69532 0.11126 -0.06501
 C365 C 0.69319 0.15364 -0.09847
 H366 H 0.67135 0.14327 -0.11271
 Zn367 Zn 0.75261 0.12097 -0.01636
 N368 N 0.73496 0.14691 -0.05333
 C369 C 0.81517 0.11940 -0.05351
 N370 N 0.79848 0.10852 -0.02488
 C371 C 0.81292 0.08587 -0.00324
 C372 C 0.84528 0.07296 -0.01025
 C373 C 0.84774 0.10747 -0.06127
 C374 C 0.71833 0.16091 0.03118
 C375 C 0.71377 0.18129 0.06029
 C376 C 0.77322 0.17310 0.07603
 C377 C 0.77667 0.15282 0.04647
 N378 N 0.74931 0.14700 0.02486
 H379 H 0.80296 0.13661 -0.07099
 H380 H 0.79881 0.07714 0.01899
 H381 H 0.85614 0.05451 0.00695
 H382 H 0.86012 0.11596 -0.08460
 H383 H 0.69710 0.15620 0.01337
 H384 H 0.68870 0.19172 0.06452
 H385 H 0.79528 0.17754 0.09289
 H386 H 0.80124 0.14196 0.04073
 C387 C 0.70793 0.18488 -0.10690
 C388 C 0.68349 0.02402 -0.01524
 C389 C 0.74148 0.18780 0.08320
 C390 C 0.86302 0.08365 -0.03967
 C391 C 0.20965 0.56738 0.45717
 H392 H 0.23069 0.56783 0.43911
 C393 C 0.18562 0.54107 0.45582
 H394 H 0.18867 0.52141 0.43664
 C395 C 0.18134 0.59231 0.50466
 H396 H 0.18011 0.61202 0.52400
 C397 C 0.15672 0.56628 0.50434
 H398 H 0.13643 0.56646 0.52328
 N399 N 0.20688 0.59259 0.48092
 C400 C 0.26272 0.67457 0.42999
 H401 H 0.28323 0.68066 0.44823
 C402 C 0.25949 0.69284 0.39927
 H403 H 0.27773 0.71289 0.39385
 C404 C 0.21334 0.64175 0.41516
 H405 H 0.19459 0.62268 0.42172
 C406 C 0.20948 0.65891 0.38419
 H407 H 0.18781 0.65245 0.36751
 Zn408 Zn 0.24238 0.62572 0.47971
 N409 N 0.23985 0.64941 0.43723
 C410 C 0.30927 0.60123 0.46136
 N411 N 0.28329 0.60146 0.48459
 C412 C 0.28409 0.58201 0.51327
 C413 C 0.31194 0.56158 0.51997
 C414 C 0.33771 0.58077 0.46693
 C415 C 0.21063 0.67505 0.52138
 C416 C 0.20803 0.69723 0.54952
 C417 C 0.26531 0.68219 0.56753
 C418 C 0.26680 0.66041 0.53916
 N419 N 0.23945 0.65669 0.51713
 H420 H 0.30774 0.61647 0.43840
 H421 H 0.26273 0.58232 0.53094
 H422 H 0.31142 0.54608 0.54278
 H423 H 0.35816 0.58048 0.44816
 H424 H 0.18949 0.67215 0.50311
 H425 H 0.18464 0.71116 0.55255
 H426 H 0.28733 0.68447 0.58483
 H427 H 0.29001 0.64661 0.53480
 C428 C 0.23273 0.68480 0.37579
 C429 C 0.15854 0.54035 0.47950
 C430 C 0.23560 0.70077 0.57323
 C431 C 0.33925 0.56066 0.49663
 C432 C 0.71698 0.93327 0.51810
 H433 H 0.73870 0.92971 0.53531
 C434 C 0.69638 0.96117 0.52250
 H435 H 0.70291 0.97918 0.54278
 C436 C 0.68226 0.91345 0.47117
 H437 H 0.67673 0.89454 0.45152
 C438 C 0.66093 0.94134 0.47453
 H439 H 0.63894 0.94370 0.45736
 N440 N 0.70915 0.90962 0.49349
 C441 C 0.74750 0.82405 0.55006
 H442 H 0.76923 0.81583 0.53517
 C443 C 0.73922 0.80806 0.58110
 H444 H 0.75483 0.78758 0.59015
 C445 C 0.70020 0.86024 0.55621
 H446 H 0.68417 0.87977 0.54609
 C447 C 0.69125 0.84528 0.58725
 H448 H 0.66862 0.85389 0.60044
 Zn449 Zn 0.73782 0.87172 0.49623
 N450 N 0.72822 0.84996 0.53853
 C451 C 0.80557 0.88993 0.52217
 N452 N 0.78291 0.88993 0.49509
 C453 C 0.78971 0.90724 0.46579
 C454 C 0.81998 0.92591 0.46287
 C455 C 0.83624 0.90878 0.52051
 C456 C 0.69982 0.82551 0.45320
 C457 C 0.69560 0.80088 0.42720
 C458 C 0.75592 0.80687 0.41444
 C459 C 0.75899 0.83113 0.44060
 N460 N 0.73114 0.84026 0.45922
 H461 H 0.79923 0.87664 0.54557
 H462 H 0.77089 0.90729 0.44496
 H463 H 0.82396 0.93973 0.43932
 H464 H 0.85352 0.90956 0.54267
 H465 H 0.67819 0.83258 0.46886
 H466 H 0.67047 0.78954 0.42290
 H467 H 0.77859 0.80004 0.40016
 H468 H 0.78396 0.84205 0.44645
 C469 C 0.71097 0.81900 0.60025
 C470 C 0.66742 0.96507 0.50114
 C471 C 0.72402 0.79124 0.40746
 C472 C 0.84343 0.92765 0.49079
 C473 C 0.01114 0.20271 0.45961
 H474 H 0.02691 0.22535 0.46045
 C475 C 0.01260 0.18023 0.48693
 H476 H 0.02957 0.18608 0.50856
 C477 C -0.02914 0.16773 0.42938
 H478 H -0.04519 0.16296 0.40681
 C479 C -0.02835 0.14435 0.45620
 H480 H -0.04398 0.12165 0.45402
 N481 N -0.00901 0.19594 0.43134
 C482 C 0.04996 0.24360 0.34976
 H483 H 0.03338 0.26331 0.34074
 C484 C 0.08222 0.23919 0.33479
 H485 H 0.09038 0.25574 0.31428
 C486 C 0.05928 0.19761 0.38695
 H487 H 0.05015 0.18076 0.40662
 C488 C 0.09157 0.19246 0.37292
 H489 H 0.10652 0.17173 0.38235
 Zn490 Zn -0.00476 0.22787 0.39564
 N491 N 0.03929 0.22307 0.37561
 C492 C 0.01620 0.29388 0.41853
 N493 N -0.00930 0.27012 0.41779
 C494 C -0.03845 0.27401 0.43632
 C495 C -0.04284 0.30254 0.45689
 C496 C 0.01292 0.32287 0.43891
 C497 C -0.03981 0.19333 0.34108
 C498 C -0.06401 0.18900 0.31426
 C499 C -0.08603 0.24390 0.32771
 C500 C -0.06137 0.24723 0.35410
 N501 N -0.03904 0.22203 0.36052
 H502 H 0.03951 0.28992 0.40426
 H503 H -0.05800 0.25436 0.43577
 H504 H -0.06610 0.30450 0.47170
 H505 H 0.03373 0.34126 0.43975
 H506 H -0.02141 0.17388 0.34626
 H507 H -0.06412 0.16588 0.29933
 H508 H -0.10346 0.26435 0.32309
 H509 H -0.05990 0.27025 0.36910
 C510 C 0.10356 0.21344 0.34655
 C511 C -0.00696 0.15031 0.48529
 C512 C -0.08756 0.21459 0.30726
 C513 C -0.01672 0.32728 0.45880
 C514 C -0.00730 0.71647 0.09486
 H515 H -0.03361 0.72462 0.09265
 C516 C 0.00302 0.68739 0.07734
 H517 H -0.01557 0.67309 0.06191
 C518 C 0.04912 0.72551 0.11687
 H519 H 0.06746 0.74072 0.13139
 C520 C 0.06039 0.69659 0.10019
 H521 H 0.08720 0.69016 0.10243
 N522 N 0.01562 0.73459 0.11466
 C523 C -0.03375 0.78830 0.19865
 H524 H -0.01807 0.81094 0.19761
 C525 C -0.05769 0.78450 0.22490
 H526 H -0.06019 0.80452 0.24381
 C527 C -0.05013 0.73550 0.17420
 H528 H -0.04714 0.71653 0.15435
 C529 C -0.07488 0.73089 0.19983
 H530 H -0.09074 0.70828 0.19953
 Zn531 Zn 0.00172 0.77400 0.13882
 N532 N -0.03043 0.76407 0.17392
 C533 C -0.04989 0.81675 0.11376
 N534 N -0.01823 0.80437 0.10722
 C535 C 0.00013 0.81485 0.07949
 C536 C -0.01233 0.84036 0.05838
 C537 C -0.06345 0.84201 0.09316
 C538 C 0.05633 0.77765 0.18675
 C539 C 0.08624 0.79057 0.20248
 C540 C 0.08210 0.83954 0.16635
 C541 C 0.05237 0.82558 0.15117
 N542 N 0.04061 0.79474 0.16088
 H543 H -0.06432 0.80782 0.13563
 H544 H 0.02511 0.80437 0.07468
 H545 H 0.00318 0.84926 0.03716
 H546 H -0.08812 0.85222 0.09977
 H547 H 0.04609 0.75347 0.19448
 H548 H 0.09887 0.77613 0.22239
 H549 H 0.09135 0.86368 0.15747
 H550 H 0.03905 0.83935 0.13137
 C551 C -0.07881 0.75559 0.22561
 C552 C 0.03717 0.67689 0.08037
 C553 C 0.09978 0.82169 0.19199
 C554 C -0.04424 0.85469 0.06550
 C555 C 0.45567 0.21375 0.58686
 H556 H 0.43420 0.23066 0.58758
 C557 C 0.45362 0.18484 0.56635
 H558 H 0.43021 0.17988 0.55177
 C559 C 0.51297 0.20182 0.60332
 H560 H 0.53640 0.20925 0.61681
 C561 C 0.51215 0.17265 0.58272
 H562 H 0.53495 0.15752 0.58097
 N563 N 0.48504 0.22187 0.60457
 C564 C 0.44793 0.29883 0.67634
 H565 H 0.46410 0.32026 0.67016
 C566 C 0.42360 0.30144 0.70265
 H567 H 0.42100 0.32516 0.71620
 C568 C 0.43218 0.24179 0.66651
 H569 H 0.43607 0.21824 0.65317
 C570 C 0.40738 0.24339 0.69222
 H571 H 0.39226 0.22108 0.69792
 Zn572 Zn 0.48598 0.26559 0.62425
 N573 N 0.45165 0.26935 0.65874
 C574 C 0.45738 0.32106 0.58575
 N575 N 0.47860 0.29424 0.58621
 C576 C 0.49850 0.28663 0.55863
 C577 C 0.49829 0.30659 0.52933
 C578 C 0.45666 0.34209 0.55686
 C579 C 0.54337 0.25921 0.67028
 C580 C 0.57531 0.26870 0.68471
 C581 C 0.57802 0.31495 0.64484
 C582 C 0.54621 0.30469 0.63133
 N583 N 0.52963 0.27710 0.64385
 H584 H 0.44177 0.32666 0.60796
 H585 H 0.51545 0.26541 0.55985
 H586 H 0.51524 0.30031 0.50835
 H587 H 0.44030 0.36384 0.55699
 H588 H 0.52950 0.23764 0.68018
 H589 H 0.58593 0.25419 0.70572
 H590 H 0.59018 0.33716 0.63435
 H591 H 0.53467 0.31929 0.61104
 C592 C 0.40292 0.27338 0.71083
 C593 C 0.48238 0.16421 0.56339
 C594 C 0.59311 0.29689 0.67188
 C595 C 0.47751 0.33500 0.52829
 C596 C 0.51318 0.70367 0.94573
 H597 H 0.53005 0.72555 0.94594
 C598 C 0.51367 0.68178 0.97357
 H599 H 0.53096 0.68734 0.99502
 C600 C 0.47105 0.66998 0.91652
 H601 H 0.45465 0.66547 0.89416
 C602 C 0.47080 0.64723 0.94390
 H603 H 0.45408 0.62524 0.94229
 N604 N 0.49267 0.69714 0.91767
 C605 C 0.55302 0.73914 0.83423
 H606 H 0.53733 0.75936 0.82482
 C607 C 0.58421 0.73202 0.81827
 H608 H 0.59250 0.74704 0.79659
 C609 C 0.56081 0.69421 0.87316
 H610 H 0.55133 0.67873 0.89383
 C611 C 0.59206 0.68640 0.85820
 H612 H 0.60594 0.66513 0.86796
 Zn613 Zn 0.49852 0.72770 0.88103
 N614 N 0.54200 0.72025 0.86119
 C615 C 0.52222 0.79359 0.90236
 N616 N 0.49591 0.77067 0.90183
 C617 C 0.46667 0.77596 0.91976
 C618 C 0.46289 0.80514 0.93936
 C619 C 0.51959 0.82326 0.92188
 C620 C 0.46130 0.69311 0.82763
 C621 C 0.43683 0.68946 0.80092
 C622 C 0.41923 0.74642 0.81199
 C623 C 0.44396 0.74898 0.83830
 N624 N 0.46417 0.72245 0.84593
 H625 H 0.54558 0.78848 0.88854
 H626 H 0.44649 0.75693 0.91942
 H627 H 0.43949 0.80809 0.95373
 H628 H 0.54094 0.84105 0.92259
 H629 H 0.47818 0.67260 0.83365
 H630 H 0.43496 0.66586 0.78688
 H631 H 0.40347 0.76794 0.80650
 H632 H 0.44721 0.77247 0.85225
 C633 C 0.60410 0.70528 0.83024
 C634 C 0.49274 0.65274 0.97266
 C635 C 0.41534 0.71642 0.79285
 C636 C 0.48972 0.82917 0.94098
 C637 C 0.17785 0.21034 0.29507
 C638 C 0.18886 0.18893 0.32065
 C639 C 0.16278 0.18743 0.34375
 C640 C 0.13756 0.20800 0.33068
 O641 O 0.14685 0.22208 0.30127
 H642 H 0.21308 0.17611 0.32258
 H643 H 0.16256 0.17308 0.36736
 C644 C 0.67347 0.69325 0.77387
 C645 C 0.68423 0.67172 0.79943
 C646 C 0.66012 0.67371 0.82455
 C647 C 0.63625 0.69629 0.81251
 O648 O 0.64455 0.70833 0.78188
 H649 H 0.70701 0.65652 0.79995
 H650 H 0.66022 0.66016 0.84866
 C651 C 0.34794 0.72903 0.73267
 C652 C 0.35634 0.69713 0.72146
 C653 C 0.38295 0.68760 0.74239
 C654 C 0.38890 0.71434 0.76487
 O655 O 0.36771 0.73928 0.75888
 H656 H 0.34461 0.68233 0.70076
 H657 H 0.39621 0.66396 0.74116
 C658 C -0.15566 0.22357 0.24673
 C659 C -0.14248 0.19420 0.23310
 C660 C -0.11525 0.18649 0.25395
 C661 C -0.11353 0.21159 0.27886
 O662 O -0.13795 0.23396 0.27444
 H663 H -0.15124 0.17977 0.21077
 H664 H -0.09862 0.16520 0.25087
 C665 C -0.15126 0.73704 0.27656
 C666 C -0.13478 0.75886 0.29959
 C667 C -0.10515 0.76839 0.28388
 C668 C -0.10546 0.75170 0.25238
 O669 O -0.13328 0.73245 0.24802
 H670 H -0.14305 0.76688 0.32494
 H671 H -0.08564 0.78539 0.29438
 C672 C 0.33573 0.25895 0.76994
 C673 C 0.34868 0.28831 0.78506
 C674 C 0.37533 0.29832 0.76467
 C675 C 0.37700 0.27439 0.73867
 O676 O 0.35305 0.25070 0.74187
 H677 H 0.34006 0.30125 0.80802
 H678 H 0.39187 0.32012 0.76885
 C679 C 0.66897 0.31026 0.72172
 C680 C 0.67513 0.33475 0.69725
 C681 C 0.64780 0.33296 0.67497
 C682 C 0.62669 0.30761 0.68725
 O683 O 0.63962 0.29382 0.71543
 H684 H 0.69672 0.35201 0.69534
 H685 H 0.64410 0.34849 0.65248
 C686 C 0.17943 0.83437 0.23493
 C687 C 0.17743 0.86591 0.22043
 C688 C 0.14709 0.86586 0.20243
 C689 C 0.13266 0.83434 0.20724
 O690 O 0.15222 0.81539 0.22697
 H691 H 0.19559 0.88669 0.22258
 H692 H 0.13694 0.88652 0.18775
 C693 C 0.26900 0.18412 0.20873
 C694 C 0.28504 0.18698 0.17713
 C695 C 0.30670 0.16065 0.17528
 C696 C 0.30248 0.14331 0.20576
 O697 O 0.27972 0.15762 0.22618
 H698 H 0.28145 0.20561 0.15732
 H699 H 0.32378 0.15512 0.15417
 C700 C 0.75278 0.65383 0.68210
 C701 C 0.76601 0.65204 0.64912
 C702 C 0.78676 0.62474 0.64917
 C703 C 0.78465 0.61183 0.68216
 O704 O 0.76395 0.62936 0.70196
 H705 H 0.76130 0.66850 0.62754
 H706 H 0.80170 0.61567 0.62769
 C707 C 0.77180 0.33570 0.79515
 C708 C 0.79474 0.33072 0.82214
 C709 C 0.81784 0.35668 0.82063
 C710 C 0.80758 0.37573 0.79283
 O711 O 0.77982 0.36294 0.77723
 H712 H 0.79485 0.31083 0.84098
 H713 H 0.83963 0.36104 0.83781
 C714 C 0.29442 -0.15072 0.28971
 C715 C 0.32191 -0.15799 0.31127
 C716 C 0.34442 -0.13164 0.30819
 C717 C 0.32933 -0.11014 0.28491
 O718 O 0.29916 -0.12170 0.27367
 H719 H 0.32551 -0.17958 0.32759
 H720 H 0.36907 -0.12879 0.32117
 C721 C 0.28198 -0.16586 0.73833
 C722 C 0.30166 -0.15065 0.76435
 C723 C 0.28609 -0.12101 0.77143
 C724 C 0.25797 -0.12005 0.74937
 O725 O 0.25557 -0.14714 0.72934
 H726 H 0.32460 -0.15959 0.77703
 H727 H 0.29427 -0.10278 0.79088
 C728 C 0.76458 0.31913 0.25802
 C729 C 0.77692 0.33111 0.28956
 C730 C 0.75883 0.35943 0.29632
 C731 C 0.73661 0.36288 0.26848
 O732 O 0.74011 0.33840 0.24536
 H733 H 0.79653 0.32061 0.30607
 H734 H 0.76171 0.37539 0.31900
 C735 C 0.76116 0.64735 0.24619
 C736 C 0.77559 0.63729 0.21535
 C737 C 0.75857 0.60837 0.20594
 C738 C 0.73489 0.60270 0.23169
 O739 O 0.73640 0.62646 0.25598
 H740 H 0.79592 0.64953 0.20109
 H741 H 0.76318 0.59341 0.18301
 C742 C 0.25588 0.16202 0.75141
 C743 C 0.26409 0.15556 0.71732
 C744 C 0.24655 0.12676 0.70850
 C745 C 0.22879 0.11759 0.73781
 O746 O 0.23440 0.13906 0.76371
 H747 H 0.28053 0.17008 0.70054
 H748 H 0.24683 0.11427 0.68354
 C749 C 0.19672 0.28620 0.19388
 C750 C 0.17291 0.31003 0.20295
 C751 C 0.17193 0.33184 0.17599
 C752 C 0.19521 0.31987 0.15234
 O753 O 0.21031 0.29234 0.16328
 H754 H 0.15793 0.31165 0.22627
 H755 H 0.15615 0.35388 0.17412
 C756 C 0.69775 0.76657 0.67215
 C757 C 0.67862 0.79343 0.68345
 C758 C 0.68118 0.81682 0.65819
 C759 C 0.70167 0.80273 0.63318
 O760 O 0.71189 0.77235 0.64171
 H761 H 0.66450 0.79615 0.70720
 H762 H 0.66965 0.84136 0.65837
 C763 C 0.73720 0.73331 0.33920
 C764 C 0.70335 0.72444 0.34532
 C765 C 0.69324 0.74500 0.37177
 C766 C 0.72163 0.76495 0.37994
 O767 O 0.74810 0.75779 0.36019
 H768 H 0.68766 0.70553 0.33214
 H769 H 0.66820 0.74513 0.38358
 C770 C 0.24730 0.23306 -0.14153
 C771 C 0.22345 0.21259 -0.12535
 C772 C 0.21463 0.22939 -0.09599
 C773 C 0.23372 0.25890 -0.09610
 O774 O 0.25363 0.26106 -0.12359
 H775 H 0.21359 0.18820 -0.13351
 H776 H 0.19661 0.22079 -0.07677
 C777 C 0.69085 0.24098 -0.17500
 C778 C 0.65983 0.22356 -0.17617
 C779 C 0.66187 0.20025 -0.15077
 C780 C 0.69395 0.20499 -0.13573
 O781 O 0.71144 0.22980 -0.15027
 H782 H 0.63796 0.22731 -0.19310
 H783 H 0.64200 0.18230 -0.14394
 C784 C 0.22718 0.74357 0.30809
 C785 C 0.20960 0.71736 0.29185
 C786 C 0.21028 0.69157 0.31458
 C787 C 0.22815 0.70377 0.34327
 O788 O 0.23884 0.73530 0.33920
 H789 H 0.19755 0.71711 0.26647
 H790 H 0.19880 0.66687 0.31064
 C791 C 0.25007 0.74900 0.64927
 C792 C 0.21788 0.76112 0.64138
 C793 C 0.20767 0.74464 0.61184
 C794 C 0.23433 0.72359 0.60374
 O795 O 0.25993 0.72617 0.62654
 H796 H 0.20332 0.77959 0.65544
 H797 H 0.18366 0.74791 0.59804
 C798 C 0.74957 0.23608 0.16047
 C799 C 0.71677 0.24563 0.15136
 C800 C 0.70912 0.22883 0.12136
 C801 C 0.73773 0.21001 0.11407
 O802 O 0.76226 0.21439 0.13788
 H803 H 0.70000 0.26251 0.16498
 H804 H 0.68541 0.23053 0.10671
 C805 C 0.47562 0.40224 0.46962
 C806 C 0.49067 0.37914 0.44791
 C807 C 0.49280 0.35045 0.46660
 C808 C 0.47892 0.35803 0.49846
 O809 O 0.46826 0.38937 0.50017
 H810 H 0.49885 0.38250 0.42149
 H811 H 0.50321 0.32688 0.45777
 C812 C -0.05411 0.92589 0.01283
 C813 C -0.08739 0.92435 0.02486
 C814 C -0.08864 0.89708 0.04590
 C815 C -0.05607 0.88382 0.04522
 O816 O -0.03526 0.90121 0.02506
 H817 H -0.10845 0.94081 0.01902
 H818 H -0.11081 0.88812 0.05990
 C819 C 0.05027 0.60574 0.02693
 C820 C 0.07878 0.60228 0.04817
 C821 C 0.07767 0.62830 0.07123
 C822 C 0.04859 0.64592 0.06257
 O823 O 0.03190 0.63217 0.03582
 H824 H 0.09840 0.58341 0.04712
 H825 H 0.09592 0.63353 0.09198
 C826 C 0.50139 0.09990 0.50356
 C827 C 0.46658 0.10089 0.49686
 C828 C 0.45426 0.12410 0.51940
 C829 C 0.48254 0.13586 0.53818
 O830 O 0.51113 0.12085 0.52874
 H831 H 0.45195 0.08651 0.47770
 H832 H 0.42782 0.13172 0.52121
 C833 C -0.01081 0.07908 0.53891
 C834 C 0.00908 0.09920 0.56082
 C835 C 0.01318 0.12888 0.54399
 C836 C -0.00453 0.12487 0.51295
 O837 O -0.01911 0.09474 0.51000
 H838 H 0.01919 0.09341 0.58620
 H839 H 0.02729 0.15070 0.55362
 C840 C 0.48642 0.58218 1.02675
 C841 C 0.50929 0.60053 1.04726
 C842 C 0.51454 0.62996 1.03024
 C843 C 0.49449 0.62747 1.00050
 O844 O 0.47739 0.59855 0.99855
 H845 H 0.52066 0.59362 1.07180
 H846 H 0.53120 0.65048 1.03875
 C847 C 0.50229 0.90279 0.99188
 C848 C 0.46835 0.89638 1.00040
 C849 C 0.45879 0.86842 0.98204
 C850 C 0.48742 0.85939 0.96356
 O851 O 0.51370 0.88032 0.96937
 H852 H 0.45190 0.91016 1.01761
 H853 H 0.43375 0.85632 0.98247
 C854 C -0.00455 0.40012 0.51062
 C855 C -0.03713 0.39192 0.52182
 C856 C -0.04666 0.36379 0.50353
 C857 C -0.01918 0.35674 0.48242
 O858 O 0.00624 0.37891 0.48666
 H859 H -0.05237 0.40491 0.54081
 H860 H -0.07078 0.35021 0.50577
 C861 C 0.40959 0.50637 0.49142
 C862 C 0.40219 0.50093 0.52575
 C863 C 0.37542 0.52133 0.53284
 C864 C 0.36826 0.53768 0.50223
 O865 O 0.38926 0.52882 0.47719
 H866 H 0.41471 0.48408 0.54351
 H867 H 0.36267 0.52362 0.55745
 C868 C 0.93665 0.03396 -0.04924
 C869 C 0.94612 0.05927 -0.07177
 C870 C 0.91997 0.08162 -0.07115
 C871 C 0.89641 0.06860 -0.04828
 O872 O 0.90653 0.03987 -0.03498
 H873 H 0.96901 0.06157 -0.08718
 H874 H 0.91854 0.10469 -0.08561
 C875 C 0.61170 -0.03058 -0.00928
 C876 C 0.62887 -0.04888 -0.03406
 C877 C 0.65884 -0.03143 -0.03949
 C878 C 0.65780 -0.00380 -0.01760
 O879 O 0.62936 -0.00345 0.00065
 H880 H 0.62066 -0.07189 -0.04703
 H881 H 0.67875 -0.03808 -0.05748
 C882 C 0.09137 0.48154 0.49415
 C883 C 0.10135 0.46926 0.46219
 C884 C 0.12791 0.48950 0.45230
 C885 C 0.13247 0.51278 0.47876
 O886 O 0.11032 0.50799 0.50402
 H887 H 0.09090 0.44823 0.44738
 H888 H 0.14184 0.48748 0.42834
 C889 C 0.07310 0.50602 -0.05049
 C890 C 0.07163 0.48962 -0.08222
 C891 C 0.09448 0.46431 -0.07993
 C892 C 0.10851 0.46691 -0.04703
 O893 O 0.09577 0.49239 -0.02922
 H894 H 0.05631 0.49547 -0.10481
 H895 H 0.10051 0.44659 -0.10028
 C896 C 0.60327 1.02681 0.49961
 C897 C 0.61400 1.03172 0.53360
 C898 C 0.64007 1.00983 0.53855
 C899 C 0.64342 0.99291 0.50742
 O900 O 0.62119 1.00319 0.48387
 H901 H 0.60434 1.04900 0.55278
 H902 H 0.65421 1.00614 0.56244
 C903 C 0.91469 0.98172 0.50799
 C904 C 0.90727 0.99250 0.47483
 C905 C 0.88084 0.97267 0.46329
 C906 C 0.87347 0.95112 0.49014
 O907 O 0.89436 0.95630 0.51711
 H908 H 0.91958 1.01226 0.46023
 H909 H 0.86818 0.97470 0.43839
 C910 C 0.39862 0.49223 0.00393
 C911 C 0.38857 0.50339 -0.02827
 C912 C 0.35837 0.48710 -0.03553
 C913 C 0.35200 0.46703 -0.00721
 O914 O 0.37658 0.47005 0.01668
 H915 H 0.40167 0.52121 -0.04469
 H916 H 0.34297 0.49006 -0.05871
 C917 C 0.49460 0.50283 0.39499
 C918 C 0.48799 0.53437 0.38208
 C919 C 0.51024 0.53864 0.35550
 C920 C 0.52890 0.50944 0.35397
 O921 O 0.51948 0.48782 0.37796
 H922 H 0.46924 0.55229 0.39062
 H923 H 0.51251 0.56065 0.33945
 C924 C 0.03962 -0.03593 0.93459
 C925 C 0.06515 -0.05597 0.94774
 C926 C 0.09053 -0.05523 0.92380
 C927 C 0.07866 -0.03483 0.89765
 O928 O 0.04789 -0.02291 0.90437
 H929 H 0.06541 -0.06947 0.97190
 H930 H 0.11465 -0.06823 0.92546
 C931 C -0.00871 -0.02402 0.61189
 C932 C -0.01955 -0.05479 0.62435
 C933 C 0.00232 -0.06161 0.65121
 C934 C 0.02497 -0.03453 0.65322
 O935 O 0.01817 -0.01188 0.62945
 H936 H -0.04070 -0.07055 0.61518
 H937 H 0.00163 -0.08379 0.66714
 C938 C 0.49392 0.47367 0.09053
 C939 C 0.48542 0.44087 0.09870
 C940 C 0.50880 0.43178 0.12329
 C941 C 0.52998 0.45963 0.12839
 O942 O 0.52100 0.48489 0.10846
 H943 H 0.46477 0.42522 0.08824
 H944 H 0.51006 0.40766 0.13584
 C945 C 0.51763 0.00124 0.07013
 C946 C 0.52893 0.03387 0.07584
 C947 C 0.51005 0.04545 0.10267
 C948 C 0.48842 0.01904 0.11154
 O949 O 0.49297 -0.00774 0.09164
 H950 H 0.54840 0.04783 0.06200
 H951 H 0.51234 0.07022 0.11424
 C952 C 1.02367 0.48646 0.60198
 C953 C 1.04442 0.50966 0.61943
 C954 C 1.02746 0.51714 0.64909
 C955 C 0.99758 0.49797 0.64775
 O956 O 0.99539 0.47924 0.61932
 H957 H 1.06904 0.51996 0.61185
 H958 H 1.03611 0.53445 0.66924
 C959 C 0.97432 0.57989 0.92361
 C960 C 0.95216 0.60651 0.92666
 C961 C 0.92992 0.60327 0.89909
 C962 C 0.94018 0.57493 0.88129
 O963 O 0.96693 0.56096 0.89621
 H964 H 0.95203 0.62602 0.94634
 H965 H 0.90887 0.61968 0.89299
 C966 C 0.53758 0.04797 0.39223
 C967 C 0.56209 0.03689 0.36940
 C968 C 0.54566 0.03414 0.33823
 C969 C 0.51235 0.04386 0.34421
 O970 O 0.50748 0.05255 0.37686
 H971 H 0.58874 0.03134 0.37464
 H972 H 0.55664 0.02575 0.31410
   
