data_POSCAR
  _audit_creation_date              2014-09-24
  _audit_creation_method            'ToBaCCo'
  _symmetry_space_group_name_H-M    'P1'
  _symmetry_Int_Tables_number       1
  _symmetry_cell_setting            triclinic
  loop_
  _symmetry_equiv_pos_as_xyz
 x,y,z
_cell_length_a 32.0163
_cell_length_b 32.2787
_cell_length_c 32.1647
_cell_angle_alpha 89.990400
_cell_angle_beta 90.047400
_cell_angle_gamma 89.989300
loop_
  _atom_site_label
  _atom_site_type_symbol
  _atom_site_fract_x
  _atom_site_fract_y
  _atom_site_fract_z
C1 C 0.31765 0.36818 1.37068
 C2 C 0.33455 0.38663 1.33466
 C3 C 0.36953 0.36976 1.31468
 C4 C 0.38835 0.33399 1.33096
 C5 C 0.37253 0.31441 1.36683
 C6 C 0.33749 0.33240 1.38648
 H7 H 0.31915 0.41272 1.32014
 H8 H 0.41447 0.32082 1.31430
 H9 H 0.32743 0.32018 1.41606
 C10 C 1.18407 0.63197 0.87421
 C11 C 1.16410 0.66780 0.88977
 C12 C 1.12900 0.68488 0.86991
 C13 C 1.11316 0.66571 0.83415
 C14 C 1.13214 0.63007 0.81790
 C15 C 1.16723 0.61337 0.83810
 H16 H 1.17448 0.68186 0.91848
 H17 H 1.08626 0.67889 0.81856
 H18 H 1.18279 0.58738 0.82362
 C19 C 0.68177 -0.13424 0.12785
 C20 C 0.66173 -0.17014 0.11243
 C21 C 0.62652 -0.18694 0.13229
 C22 C 0.61084 -0.16761 0.16802
 C23 C 0.62996 -0.13203 0.18416
 C24 C 0.66506 -0.11553 0.16393
 H25 H 0.67278 -0.18503 0.08442
 H26 H 0.58324 -0.18000 0.18300
 H27 H 0.68072 -0.08955 0.17834
 C28 C -0.18412 1.13386 -0.37206
 C29 C -0.16779 1.11510 -0.33578
 C30 C -0.13266 1.13135 -0.31535
 C31 C -0.11311 1.16669 -0.33148
 C32 C -0.12840 1.18606 -0.36738
 C33 C -0.16366 1.16952 -0.38745
 H34 H -0.18377 1.08930 -0.32140
 H35 H -0.08546 1.17885 -0.31636
 H36 H -0.17440 1.18443 -0.41558
 C37 C 0.68550 0.63431 0.62826
 C38 C 0.66587 0.66988 0.61245
 C39 C 0.62970 0.68657 0.63139
 C40 C 0.61346 0.66584 0.66659
 C41 C 0.63278 0.63019 0.68272
 C42 C 0.66859 0.61461 0.66322
 H43 H 0.67887 0.68392 0.58484
 H44 H 0.58733 0.67868 0.68353
 H45 H 0.68314 0.58667 0.67503
 C46 C 0.81828 0.36741 0.12925
 C47 C 0.83447 0.38693 0.16467
 C48 C 0.87008 0.37144 0.18466
 C49 C 0.88988 0.33602 0.16861
 C50 C 0.87448 0.31559 0.13285
 C51 C 0.83845 0.33213 0.11348
 H52 H 0.81958 0.41469 0.17645
 H53 H 0.91782 0.32511 0.18399
 H54 H 0.82401 0.31624 0.08760
 C55 C 0.31341 0.13079 0.87151
 C56 C 0.33007 0.11180 0.83551
 C57 C 0.36510 0.12830 0.81508
 C58 C 0.38422 0.16402 0.83099
 C59 C 0.36858 0.18351 0.86663
 C60 C 0.33357 0.16665 0.88673
 H61 H 0.31445 0.08567 0.82134
 H62 H 0.41108 0.17703 0.81525
 H63 H 0.32342 0.18097 0.91538
 C64 C 0.18335 0.86873 0.37309
 C65 C 0.16273 0.83309 0.38833
 C66 C 0.12745 0.81674 0.36818
 C67 C 0.11223 0.83630 0.33238
 C68 C 0.13189 0.87165 0.31637
 C69 C 0.16705 0.88776 0.33691
 H70 H 0.17339 0.81802 0.41641
 H71 H 0.08458 0.82422 0.31718
 H72 H 0.18307 0.91361 0.32268
 Zn73 Zn -0.01018 0.94933 0.02560
 Zn74 Zn -0.05309 1.02489 -0.00645
 Zn75 Zn 0.03134 1.03232 0.03343
 Zn76 Zn 0.02204 0.99191 -0.05009
 O77 O -0.00241 0.99968 0.00069
 O78 O -0.06392 0.93842 0.03644
 O79 O -0.05623 1.07349 0.01995
 O80 O 0.04740 1.00666 0.08047
 O81 O -0.09585 0.99458 0.01270
 O82 O 0.01632 0.94557 0.07430
 O83 O 0.00614 1.07956 0.04936
 O84 O 0.07125 1.01750 -0.05417
 O85 O -0.06446 1.03613 -0.05979
 O86 O 0.07865 1.04753 0.00739
 O87 O -0.00875 1.01144 -0.09228
 O88 O 0.03261 0.93860 -0.06126
 O89 O 0.00897 0.90692 -0.00487
 C90 C -0.09681 0.95934 0.03005
 C91 C -0.03023 1.09336 0.04195
 C92 C 0.03928 0.97069 0.09415
 C93 C 0.09190 1.03954 -0.02890
 C94 C -0.04387 1.02955 -0.09276
 C95 C 0.02640 0.90599 -0.04021
 Zn96 Zn 0.47519 0.00761 0.44922
 Zn97 Zn 0.46699 -0.03253 0.53301
 Zn98 Zn 0.55098 -0.02447 0.49246
 Zn99 Zn 0.50777 0.05080 0.52450
 O100 O 0.50016 0.00029 0.49986
 O101 O 0.42599 -0.01815 0.44574
 O102 O 0.49283 -0.07944 0.54915
 O103 O 0.56199 -0.03593 0.43912
 O104 O 0.41960 -0.04829 0.50737
 O105 O 0.50563 -0.01218 0.40696
 O106 O 0.55477 -0.07281 0.51907
 O107 O 0.56147 0.06196 0.53542
 O108 O 0.45096 -0.00668 0.57992
 O109 O 0.59365 0.00615 0.51131
 O110 O 0.48121 0.05475 0.57313
 O111 O 0.48867 0.09296 0.49362
 O112 O 0.46465 0.06085 0.43761
 C113 C 0.40582 -0.04037 0.47123
 C114 C 0.52928 -0.09283 0.54148
 C115 C 0.54094 -0.02990 0.40630
 C116 C 0.59446 0.04128 0.52885
 C117 C 0.45864 0.02952 0.59325
 C118 C 0.47118 0.09363 0.45827
 Zn119 Zn 1.01059 0.45015 0.47581
 Zn120 Zn 1.05300 0.52579 0.50830
 Zn121 Zn 0.96902 0.53302 0.46739
 Zn122 Zn 0.97742 0.49278 0.55109
 O123 O 1.00245 0.50050 0.50059
 O124 O 1.06442 0.43963 0.46505
 O125 O 1.05621 0.57450 0.48223
 O126 O 0.95349 0.50724 0.42024
 O127 O 1.09596 0.49589 0.48900
 O128 O 0.98450 0.44617 0.42694
 O129 O 0.99438 0.58018 0.45164
 O130 O 0.92835 0.51876 0.55467
 O131 O 1.06403 0.53663 0.56180
 O132 O 0.92156 0.54858 0.49293
 O133 O 1.00791 0.51206 0.59365
 O134 O 0.96665 0.43946 0.56210
 O135 O 0.99148 0.40770 0.50626
 C136 C 1.09714 0.46081 0.47138
 C137 C 1.03050 0.59418 0.45971
 C138 C 0.96181 0.47124 0.40673
 C139 C 0.90806 0.54093 0.52919
 C140 C 1.04312 0.52998 0.59456
 C141 C 0.97346 0.40680 0.54131
 Zn142 Zn 0.55173 0.52267 0.99006
 Zn143 Zn 0.50894 0.44707 1.02202
 Zn144 Zn 0.46796 0.53010 1.03127
 Zn145 Zn 0.47568 0.49059 0.94720
 O146 O 0.50102 0.49767 0.99770
 O147 O 0.59462 0.49224 1.00893
 O148 O 0.48290 0.44278 1.07089
 O149 O 0.49364 0.57704 1.04722
 O150 O 0.56271 0.43609 1.03262
 O151 O 0.55537 0.57112 1.01658
 O152 O 0.45251 0.50406 1.07828
 O153 O 0.42650 0.51648 0.94413
 O154 O 0.48955 0.40504 0.99121
 O155 O 0.42034 0.54586 1.00612
 O156 O 0.46484 0.43742 0.93562
 O157 O 0.50591 0.51037 0.90476
 O158 O 0.56247 0.53406 0.93661
 C159 C 0.59558 0.45702 1.02633
 C160 C 0.46051 0.46785 1.09139
 C161 C 0.52985 0.59084 1.03923
 C162 C 0.40642 0.53837 0.96996
 C163 C 0.47152 0.40455 0.95613
 C164 C 0.54124 0.52804 0.90389
 C165 C 1.20756 0.41637 0.42682
 C166 C 1.23397 0.44250 0.40432
 C167 C 1.27037 0.42690 0.38614
 C168 C 1.28126 0.38457 0.39009
 C169 C 1.25420 0.35883 0.41346
 C170 C 1.21784 0.37461 0.43148
 C171 C 1.16910 0.43204 0.44376
 C172 C 1.13645 0.44509 0.45701
 H173 H 1.22637 0.47501 0.40069
 H174 H 1.29039 0.44866 0.37016
 H175 H 1.25957 0.32588 0.41637
 H176 H 1.19730 0.35397 0.44844
 C177 C 0.29489 0.58416 0.92950
 C178 C 0.26831 0.55800 0.90722
 C179 C 0.23161 0.57347 0.88951
 C180 C 0.22057 0.61574 0.89363
 C181 C 0.24763 0.64148 0.91705
 C182 C 0.28434 0.62582 0.93461
 C183 C 0.33386 0.56855 0.94543
 C184 C 0.36684 0.55508 0.95745
 H185 H 0.27608 0.52556 0.90328
 H186 H 0.21155 0.55164 0.87365
 H187 H 0.24205 0.67436 0.92024
 H188 H 0.30497 0.64649 0.95145
 C189 C -0.20761 0.91382 0.07262
 C190 C -0.21791 0.87208 0.06770
 C191 C -0.25455 0.85629 0.08523
 C192 C -0.28177 0.88201 0.10843
 C193 C -0.27099 0.92437 0.11234
 C194 C -0.23436 0.93995 0.09467
 C195 C -0.16887 0.92962 0.05641
 C196 C -0.13611 0.94306 0.04381
 H197 H -0.19716 0.85145 0.05098
 H198 H -0.25993 0.82337 0.08219
 H199 H -0.29122 0.94619 0.12798
 H200 H -0.22683 0.97247 0.09839
 C201 C 0.70522 0.08656 0.57196
 C202 C 0.71590 0.12821 0.56700
 C203 C 0.75256 0.14374 0.58478
 C204 C 0.77941 0.11787 0.60830
 C205 C 0.76823 0.07561 0.61225
 C206 C 0.73160 0.06028 0.59433
 C207 C 0.66647 0.07100 0.55549
 C208 C 0.63372 0.05764 0.54273
 H209 H 0.69544 0.14896 0.55004
 H210 H 0.75825 0.17660 0.58167
 H211 H 0.78817 0.05367 0.62813
 H212 H 0.72377 0.02784 0.59809
 C213 C 0.42631 0.20288 0.41300
 C214 C 0.45076 0.23073 0.39039
 C215 C 0.43331 0.26751 0.37524
 C216 C 0.39081 0.27733 0.38253
 C217 C 0.36678 0.24859 0.40561
 C218 C 0.38437 0.21193 0.42058
 C219 C 0.44378 0.16477 0.42839
 C220 C 0.45706 0.13246 0.44176
 H221 H 0.48343 0.22413 0.38461
 H222 H 0.45391 0.28869 0.35921
 H223 H 0.33372 0.25311 0.41082
 H224 H 0.36502 0.19035 0.43774
 C225 C 0.92898 0.29724 0.58622
 C226 C 0.91692 0.26593 0.55861
 C227 C 0.89860 0.22957 0.57363
 C228 C 0.89207 0.22411 0.61653
 C229 C 0.90470 0.25560 0.64406
 C230 C 0.92298 0.29192 0.62897
 C231 C 0.94596 0.33547 0.57061
 C232 C 0.95917 0.36786 0.55739
 H233 H 0.92137 0.26976 0.52544
 H234 H 0.88970 0.20566 0.55174
 H235 H 0.89962 0.25251 0.67720
 H236 H 0.93194 0.31608 0.65060
 C237 C 0.07306 0.79706 -0.08434
 C238 C 0.04768 0.76443 -0.09788
 C239 C 0.06576 0.72780 -0.11262
 C240 C 0.10949 0.72339 -0.11390
 C241 C 0.13466 0.75637 -0.10013
 C242 C 0.11654 0.79291 -0.08546
 C243 C 0.05488 0.83493 -0.06921
 C244 C 0.04103 0.86715 -0.05621
 H245 H 0.01397 0.76729 -0.09703
 H246 H 0.04559 0.70279 -0.12261
 H247 H 0.16839 0.75415 -0.10130
 H248 H 0.13648 0.81801 -0.07515
 C249 C 0.57094 0.70107 1.08565
 C250 C 0.57651 0.70654 1.12845
 C251 C 0.59412 0.74316 1.14364
 C252 C 0.60651 0.77479 1.11615
 C253 C 0.60032 0.76919 1.07321
 C254 C 0.58267 0.73255 1.05810
 C255 C 0.55495 0.66249 1.06985
 C256 C 0.54274 0.62989 1.05619
 H257 H 0.56781 0.68226 1.15003
 H258 H 0.59894 0.74637 1.17681
 H259 H 0.60903 0.79319 1.05135
 H260 H 0.57856 0.72860 1.02489
 C261 C 0.41464 0.42368 1.20097
 C262 C 0.40371 0.44921 1.23441
 C263 C 0.38904 0.43174 1.27146
 C264 C 0.38528 0.38848 1.27551
 C265 C 0.39624 0.36315 1.24164
 C266 C 0.41082 0.38065 1.20469
 C267 C 0.43019 0.44116 1.16283
 C268 C 0.44371 0.45429 1.13043
 H269 H 0.40664 0.48256 1.23190
 H270 H 0.38111 0.45198 1.29712
 H271 H 0.39300 0.32981 1.24353
 H272 H 0.41910 0.36060 1.17897
 C273 C 0.58500 -0.07682 0.29720
 C274 C 0.58740 -0.11993 0.29349
 C275 C 0.60186 -0.13786 0.25670
 C276 C 0.61413 -0.11285 0.22304
 C277 C 0.61161 -0.06950 0.22703
 C278 C 0.59709 -0.05161 0.26391
 C279 C 0.56992 -0.05877 0.33522
 C280 C 0.55693 -0.04486 0.36748
 H281 H 0.57820 -0.13972 0.31911
 H282 H 0.60403 -0.17129 0.25480
 H283 H 0.62046 -0.04948 0.20150
 H284 H 0.59522 -0.01819 0.26642
 C285 C -0.08837 1.07618 -0.20191
 C286 C -0.10063 1.05094 -0.23513
 C287 C -0.11501 1.06881 -0.27211
 C288 C -0.11720 1.11217 -0.27628
 C289 C -0.10483 1.13720 -0.24266
 C290 C -0.09052 1.11930 -0.20577
 C291 C -0.07324 1.05818 -0.16385
 C292 C -0.06012 1.04435 -0.13157
 H293 H -0.09897 1.01752 -0.23251
 H294 H -0.12396 1.04877 -0.29760
 H295 H -0.10675 1.17063 -0.24469
 H296 H -0.08118 1.13911 -0.18021
 C297 C 1.08724 0.57578 0.70425
 C298 C 1.09001 0.61885 0.70820
 C299 C 1.10447 0.63648 0.74516
 C300 C 1.11636 0.61121 0.77879
 C301 C 1.11353 0.56790 0.77454
 C302 C 1.09900 0.55031 0.73749
 C303 C 1.07213 0.55807 0.66603
 C304 C 1.05912 0.54448 0.63359
 H305 H 1.08109 0.63885 0.68262
 H306 H 1.10693 0.66987 0.74721
 H307 H 1.12212 0.54769 0.80003
 H308 H 1.09688 0.51692 0.73480
 C309 C 0.79849 0.58782 0.57318
 C310 C 0.79458 0.59024 0.61643
 C311 C 0.75784 0.60531 0.63423
 C312 C 0.72438 0.61820 0.60899
 C313 C 0.72858 0.61578 0.56549
 C314 C 0.76545 0.60062 0.54771
 C315 C 0.83649 0.57184 0.55547
 C316 C 0.86890 0.55800 0.54242
 H317 H 0.82000 0.58050 0.63644
 H318 H 0.75578 0.60736 0.66777
 H319 H 0.70319 0.62508 0.54528
 H320 H 0.76811 0.59875 0.51419
 C321 C 0.70522 0.41255 1.07289
 C322 C 0.70891 0.41070 1.11620
 C323 C 0.74565 0.39608 1.13446
 C324 C 0.77933 0.38307 1.10961
 C325 C 0.77534 0.38492 1.06606
 C326 C 0.73849 0.39962 1.04783
 C327 C 0.66718 0.42785 1.05462
 C328 C 0.63476 0.44098 1.04081
 H329 H 0.68330 0.42050 1.13589
 H330 H 0.74750 0.39442 1.16803
 H331 H 0.80088 0.37546 1.04616
 H332 H 0.73599 0.40100 1.01427
 C333 C 0.20295 1.08410 -0.07175
 C334 C 0.22908 1.05759 -0.09412
 C335 C 0.26561 1.07270 -0.11242
 C336 C 0.27693 1.11493 -0.10879
 C337 C 0.25022 1.14106 -0.08543
 C338 C 0.21370 1.12576 -0.06727
 C339 C 0.16421 1.06887 -0.05500
 C340 C 0.13137 1.05579 -0.04224
 H341 H 0.22112 1.02515 -0.09760
 H342 H 0.28536 1.05062 -0.12831
 H343 H 0.25593 1.17395 -0.08269
 H344 H 0.19339 1.14671 -0.05042
 C345 C 0.29434 -0.08516 0.42951
 C346 C 0.28333 -0.12674 0.43418
 C347 C 0.24659 -0.14188 0.41621
 C348 C 0.21997 -0.11566 0.39281
 C349 C 0.23150 -0.07349 0.38909
 C350 C 0.26822 -0.05855 0.40720
 C351 C 0.33330 -0.07004 0.44593
 C352 C 0.36627 -0.05687 0.45834
 H353 H 0.30361 -0.14776 0.45102
 H354 H 0.24069 -0.17472 0.41909
 H355 H 0.21179 -0.05132 0.37324
 H356 H 0.27634 -0.02616 0.40358
 C357 C 0.57408 -0.20207 0.58684
 C358 C 0.61635 -0.20998 0.57979
 C359 C 0.63460 -0.24655 0.59419
 C360 C 0.61091 -0.27638 0.61619
 C361 C 0.56804 -0.26773 0.62293
 C362 C 0.54993 -0.23102 0.60835
 C363 C 0.55599 -0.16405 0.57184
 C364 C 0.54268 -0.13173 0.55848
 H365 H 0.63546 -0.18756 0.56346
 H366 H 0.66783 -0.25008 0.58944
 H367 H 0.54770 -0.28978 0.63809
 H368 H 0.51701 -0.22536 0.61368
 C369 C 1.07108 0.70485 0.41400
 C370 C 1.08271 0.73620 0.44175
 C371 C 1.10053 0.77286 0.42690
 C372 C 1.10701 0.77859 0.38403
 C373 C 1.09465 0.74713 0.35633
 C374 C 1.07686 0.71049 0.37126
 C375 C 1.05517 0.66615 0.42955
 C376 C 1.04311 0.63342 0.44300
 H377 H 1.07844 0.73211 0.47492
 H378 H 1.10922 0.79673 0.44891
 H379 H 1.09970 0.75044 0.32321
 H380 H 1.06826 0.68630 0.34953
 C381 C -0.07052 1.20447 0.08709
 C382 C -0.06571 1.21546 0.12880
 C383 C -0.08314 1.25227 0.14383
 C384 C -0.10617 1.27895 0.11738
 C385 C -0.10994 1.26746 0.07506
 C386 C -0.09236 1.23070 0.06024
 C387 C -0.05466 1.16553 0.07199
 C388 C -0.04270 1.13267 0.05870
 H389 H -0.04918 1.19514 0.15000
 H390 H -0.08020 1.25822 0.17677
 H391 H -0.12542 1.28721 0.05269
 H392 H -0.09604 1.22263 0.02774
 C393 C 0.42468 0.29591 0.91155
 C394 C 0.45002 0.26316 0.89823
 C395 C 0.43188 0.22647 0.88370
 C396 C 0.38815 0.22213 0.88242
 C397 C 0.36303 0.25525 0.89590
 C398 C 0.38119 0.29184 0.91036
 C399 C 0.44290 0.33374 0.92671
 C400 C 0.45680 0.36587 0.93985
 H401 H 0.48373 0.26595 0.89916
 H402 H 0.45202 0.20135 0.87391
 H403 H 0.32929 0.25307 0.89471
 H404 H 0.36129 0.31703 0.92052
 C405 C 0.58588 0.57343 0.79428
 C406 C 0.62892 0.57800 0.78841
 C407 C 0.64416 0.59617 0.75202
 C408 C 0.61649 0.61008 0.72097
 C409 C 0.57327 0.60513 0.72705
 C410 C 0.55809 0.58691 0.76349
 C411 C 0.57026 0.55627 0.83252
 C412 C 0.55714 0.54278 0.86493
 H413 H 0.65070 0.56796 0.81217
 H414 H 0.67756 0.60011 0.74854
 H415 H 0.55125 0.61515 0.70353
 H416 H 0.52470 0.58360 0.76777
 C417 C 0.41091 0.07359 0.70204
 C418 C 0.40753 0.11665 0.70565
 C419 C 0.39256 0.13437 0.74232
 C420 C 0.38075 0.10922 0.77605
 C421 C 0.38396 0.06590 0.77209
 C422 C 0.39903 0.04821 0.73529
 C423 C 0.42711 0.05597 0.66424
 C424 C 0.44121 0.04290 0.63206
 H425 H 0.41653 0.13659 0.68007
 H426 H 0.38979 0.16775 0.74414
 H427 H 0.37540 0.04579 0.79765
 H428 H 0.40162 0.01483 0.73287
 C429 C 0.08672 0.92663 0.20314
 C430 C 0.08931 0.88353 0.20697
 C431 C 0.10408 0.86574 0.24371
 C432 C 0.11649 0.89084 0.27727
 C433 C 0.11407 0.93419 0.27308
 C434 C 0.09920 0.95196 0.23622
 C435 C 0.07069 0.94433 0.16528
 C436 C 0.05667 0.95740 0.13304
 H437 H 0.07983 0.86363 0.18153
 H438 H 0.10621 0.83232 0.24573
 H439 H 0.12308 0.95427 0.29852
 H440 H 0.09722 0.98537 0.23361
 C441 C 0.91621 0.42872 0.29632
 C442 C 0.94414 0.41609 0.26534
 C443 C 0.92922 0.39781 0.22882
 C444 C 0.88610 0.39189 0.22285
 C445 C 0.85825 0.40511 0.25399
 C446 C 0.87325 0.42335 0.29048
 C447 C 0.93176 0.44535 0.33486
 C448 C 0.94516 0.45801 0.36751
 H449 H 0.97748 0.42001 0.26959
 H450 H 0.95137 0.38844 0.20519
 H451 H 0.82493 0.40050 0.25052
 H452 H 0.85137 0.43271 0.31438
   
