data_POSCAR
  _audit_creation_date              2014-09-24
  _audit_creation_method            'ToBaCCo'
  _symmetry_space_group_name_H-M    'P1'
  _symmetry_Int_Tables_number       1
  _symmetry_cell_setting            triclinic
  loop_
  _symmetry_equiv_pos_as_xyz
 x,y,z
_cell_length_a 22.1359
_cell_length_b 22.1359
_cell_length_c 41.7028
_cell_angle_alpha 89.892100
_cell_angle_beta 90.107600
_cell_angle_gamma 90.000000
loop_
  _atom_site_label
  _atom_site_type_symbol
  _atom_site_fract_x
  _atom_site_fract_y
  _atom_site_fract_z
O1 O -0.05022 0.44215 1.03060
 O2 O -0.05003 0.55995 0.96816
 O3 O -0.05024 0.44228 0.96820
 O4 O -0.05008 0.55980 1.03056
 O5 O 0.04955 0.55967 1.03066
 O6 O 0.04939 0.44215 0.96829
 O7 O 0.04950 0.55982 0.96825
 O8 O 0.04941 0.44202 1.03070
 Cu9 Cu -0.06011 0.50106 0.99937
 Cu10 Cu 0.05944 0.50090 0.99948
 C11 C -0.00043 0.42184 1.04133
 C12 C -0.00024 0.58027 0.95747
 C13 C -0.00045 0.42200 0.95759
 C14 C -0.00023 0.57992 1.04128
 O15 O 0.44198 -0.05000 0.46937
 O16 O 0.55978 -0.05012 0.53182
 O17 O 0.44210 -0.05002 0.53178
 O18 O 0.55963 -0.05015 0.46941
 O19 O 0.55975 0.04948 0.46932
 O20 O 0.44224 0.04961 0.53169
 O21 O 0.55991 0.04941 0.53173
 O22 O 0.44211 0.04963 0.46928
 Cu23 Cu 0.50086 -0.06005 0.50061
 Cu24 Cu 0.50102 0.05950 0.50050
 C25 C 0.42180 -0.00016 0.45864
 C26 C 0.58023 -0.00038 0.54251
 C27 C 0.42196 -0.00018 0.54239
 C28 C 0.57988 -0.00036 0.45869
 C29 C 0.00006 0.00009 0.24999
 C30 C -0.00019 -0.00015 0.74999
 C31 C -0.00003 -0.28163 0.11333
 C32 C 0.05463 -0.30448 0.10171
 C33 C 0.05463 -0.34966 0.07832
 C34 C -0.00017 -0.37259 0.06625
 C35 C -0.05489 -0.34942 0.07817
 C36 C -0.05476 -0.30423 0.10155
 C37 C 0.00004 -0.23471 0.13716
 C38 C 0.00012 -0.19520 0.15702
 C39 C 0.00022 -0.14782 0.18060
 C40 C 0.05310 -0.13419 0.19743
 C41 C 0.05357 -0.08759 0.22000
 C42 C 0.00042 -0.05461 0.22692
 C43 C -0.05180 -0.06756 0.20860
 C44 C -0.05211 -0.11416 0.18608
 H45 H 0.09725 -0.28727 0.11066
 H46 H 0.09752 -0.36651 0.06967
 H47 H -0.09783 -0.36607 0.06939
 H48 H -0.09733 -0.28683 0.11038
 H49 H 0.09434 -0.15899 0.19276
 H50 H 0.09620 -0.07679 0.23128
 H51 H -0.09262 -0.04131 0.21181
 H52 H -0.09305 -0.12349 0.17269
 C53 C -0.00056 0.28289 0.11339
 C54 C 0.05415 0.30560 0.10171
 C55 C 0.05426 0.35096 0.07834
 C56 C -0.00048 0.37420 0.06631
 C57 C -0.05526 0.35117 0.07829
 C58 C -0.05524 0.30581 0.10167
 C59 C -0.00060 0.23576 0.13720
 C60 C -0.00060 0.19608 0.15704
 C61 C -0.00057 0.14850 0.18059
 C62 C 0.05178 0.11477 0.18606
 C63 C 0.05162 0.06799 0.20858
 C64 C -0.00047 0.05494 0.22691
 C65 C -0.05366 0.08798 0.21999
 C66 C -0.05334 0.13475 0.19743
 H67 H 0.09673 0.28813 0.11061
 H68 H 0.09719 0.36768 0.06964
 H69 H -0.09816 0.36806 0.06955
 H70 H -0.09785 0.28851 0.11053
 H71 H 0.09262 0.12419 0.17267
 H72 H 0.09245 0.04172 0.21178
 H73 H -0.09621 0.07711 0.23127
 H74 H -0.09461 0.15961 0.19276
 C75 C 0.28293 -0.00000 0.61413
 C76 C 0.30565 -0.05472 0.60251
 C77 C 0.35107 -0.05485 0.57926
 C78 C 0.37434 -0.00012 0.56729
 C79 C 0.35132 0.05467 0.57921
 C80 C 0.30590 0.05466 0.60247
 C81 C 0.23570 0.00006 0.63779
 C82 C 0.19595 0.00012 0.65751
 C83 C 0.14827 0.00020 0.68092
 C84 C 0.11446 -0.05209 0.68633
 C85 C 0.06765 -0.05183 0.70873
 C86 C 0.05463 0.00031 0.72700
 C87 C 0.08773 0.05345 0.72012
 C88 C 0.13455 0.05302 0.69768
 H89 H 0.28815 -0.09730 0.61137
 H90 H 0.36778 -0.09779 0.57060
 H91 H 0.36823 0.09757 0.57051
 H92 H 0.28860 0.09728 0.61128
 H93 H 0.12387 -0.09298 0.67299
 H94 H 0.04132 -0.09263 0.71190
 H95 H 0.07690 0.09604 0.73135
 H96 H 0.15946 0.09425 0.69305
 C97 C -0.28292 -0.00056 0.61333
 C98 C -0.30568 0.05412 0.60160
 C99 C -0.35108 0.05431 0.57825
 C100 C -0.37450 -0.00045 0.56621
 C101 C -0.35123 -0.05526 0.57836
 C102 C -0.30583 -0.05519 0.60171
 C103 C -0.23575 -0.00062 0.63712
 C104 C -0.19604 -0.00066 0.65694
 C105 C -0.14843 -0.00069 0.68048
 C106 C -0.11464 0.05162 0.68585
 C107 C -0.06789 0.05142 0.70839
 C108 C -0.05494 -0.00067 0.72684
 C109 C -0.08803 -0.05383 0.72002
 C110 C -0.13476 -0.05346 0.69744
 H111 H -0.28822 0.09669 0.61044
 H112 H -0.36761 0.09745 0.56962
 H113 H -0.36787 -0.09836 0.56982
 H114 H -0.28848 -0.09781 0.61064
 H115 H -0.12400 0.09248 0.67238
 H116 H -0.04158 0.09222 0.71152
 H117 H -0.07723 -0.09639 0.73139
 H118 H -0.15967 -0.09470 0.69285
 C119 C -0.00006 -0.28288 0.88664
 C120 C -0.05475 -0.30563 0.89827
 C121 C -0.05493 -0.35103 0.92162
 C122 C -0.00018 -0.37445 0.93377
 C123 C 0.05463 -0.35120 0.92172
 C124 C 0.05457 -0.30580 0.89837
 C125 C 0.00001 -0.23571 0.86286
 C126 C 0.00007 -0.19600 0.84303
 C127 C 0.00015 -0.14840 0.81949
 C128 C -0.05215 -0.11461 0.81398
 C129 C -0.05188 -0.06786 0.79144
 C130 C 0.00026 -0.05490 0.77313
 C131 C 0.05340 -0.08798 0.78011
 C132 C 0.05297 -0.13472 0.80269
 H133 H -0.09732 -0.28816 0.88935
 H134 H -0.09808 -0.36755 0.93016
 H135 H 0.09773 -0.36784 0.93034
 H136 H 0.09718 -0.28845 0.88952
 H137 H -0.09304 -0.12398 0.82733
 H138 H -0.09268 -0.04155 0.78819
 H139 H 0.09599 -0.07718 0.76886
 H140 H 0.09420 -0.15962 0.80739
 C141 C -0.00062 0.28297 0.88585
 C142 C -0.05529 0.30593 0.89740
 C143 C -0.05530 0.35135 0.92066
 C144 C -0.00051 0.37438 0.93269
 C145 C 0.05422 0.35112 0.92082
 C146 C 0.05410 0.30570 0.89757
 C147 C -0.00068 0.23574 0.86219
 C148 C -0.00071 0.19599 0.84247
 C149 C -0.00074 0.14831 0.81906
 C150 C -0.05351 0.13459 0.80215
 C151 C -0.05387 0.08778 0.77970
 C152 C -0.00071 0.05467 0.77298
 C153 C 0.05137 0.06767 0.79140
 C154 C 0.05157 0.11449 0.81380
 H155 H -0.09791 0.28862 0.88850
 H156 H -0.09819 0.36825 0.92928
 H157 H 0.09716 0.36784 0.92957
 H158 H 0.09668 0.28821 0.88879
 H159 H -0.09475 0.15951 0.80666
 H160 H -0.09643 0.07695 0.76836
 H161 H 0.09217 0.04135 0.78834
 H162 H 0.09242 0.12389 0.82725
 C163 C -0.28166 -0.00048 0.38665
 C164 C -0.30428 0.05423 0.39833
 C165 C -0.34947 0.05434 0.42171
 C166 C -0.37263 -0.00040 0.43373
 C167 C -0.34968 -0.05519 0.42175
 C168 C -0.30449 -0.05516 0.39837
 C169 C -0.23473 -0.00052 0.36282
 C170 C -0.19522 -0.00052 0.34297
 C171 C -0.14782 -0.00050 0.31940
 C172 C -0.11415 0.05186 0.31391
 C173 C -0.06755 0.05168 0.29138
 C174 C -0.05463 -0.00041 0.27306
 C175 C -0.08762 -0.05360 0.27999
 C176 C -0.13421 -0.05327 0.30257
 H177 H -0.28689 0.09682 0.38942
 H178 H -0.36613 0.09727 0.43041
 H179 H -0.36652 -0.09809 0.43049
 H180 H -0.28727 -0.09777 0.38950
 H181 H -0.12347 0.09271 0.32729
 H182 H -0.04130 0.09251 0.28817
 H183 H -0.07683 -0.09616 0.26872
 H184 H -0.15902 -0.09454 0.30725
 C185 C 0.28286 0.00005 0.38658
 C186 C 0.30555 -0.05468 0.39836
 C187 C 0.35091 -0.05482 0.42174
 C188 C 0.37416 -0.00009 0.43366
 C189 C 0.35115 0.05471 0.42159
 C190 C 0.30580 0.05471 0.39821
 C191 C 0.23574 0.00012 0.36277
 C192 C 0.19607 0.00019 0.34292
 C193 C 0.14849 0.00029 0.31937
 C194 C 0.11478 -0.05204 0.31390
 C195 C 0.06800 -0.05174 0.29139
 C196 C 0.05492 0.00047 0.27306
 C197 C 0.08796 0.05362 0.27996
 C198 C 0.13473 0.05316 0.30252
 H199 H 0.28808 -0.09725 0.38953
 H200 H 0.36762 -0.09776 0.43052
 H201 H 0.36805 0.09760 0.43025
 H202 H 0.28851 0.09733 0.38926
 H203 H 0.12421 -0.09296 0.32729
 H204 H 0.04173 -0.09255 0.28819
 H205 H 0.07707 0.09625 0.26868
 H206 H 0.15957 0.09441 0.30719
   
