data_POSCAR
  _audit_creation_date              2014-09-24
  _audit_creation_method            'ToBaCCo'
  _symmetry_space_group_name_H-M    'P1'
  _symmetry_Int_Tables_number       1
  _symmetry_cell_setting            triclinic
  loop_
  _symmetry_equiv_pos_as_xyz
 x,y,z
_cell_length_a 18.5601
_cell_length_b 15.7706
_cell_length_c 15.8024
_cell_angle_alpha 89.779900
_cell_angle_beta 90.269700
_cell_angle_gamma 89.743000
loop_
  _atom_site_label
  _atom_site_type_symbol
  _atom_site_fract_x
  _atom_site_fract_y
  _atom_site_fract_z
O1 O 0.09992 0.14583 0.16044
 O2 O 0.17970 0.07065 0.07909
 C3 C 0.16477 0.12434 0.13841
 O4 O -0.10036 -0.15607 0.14929
 O5 O -0.18000 -0.07348 0.07370
 C6 C -0.16522 -0.13315 0.12758
 O7 O 0.10171 -0.14922 0.15692
 O8 O 0.18054 -0.07270 0.07592
 C9 C 0.16658 -0.12777 0.13471
 O10 O -0.10105 0.15532 0.15148
 O11 O -0.18031 0.07484 0.07465
 C12 C -0.16580 0.13337 0.12942
 Zr13 Zr -0.00061 0.10682 0.11063
 O14 O -0.00762 0.10935 0.24425
 O15 O 0.00265 0.24054 0.10236
 Zr16 Zr 0.00032 -0.10750 0.10936
 O17 O -0.00733 -0.10788 0.24303
 O18 O 0.00864 -0.24143 0.10829
 O19 O 0.06427 -0.00060 0.12693
 O20 O -0.06278 -0.00044 0.12543
 O21 O -0.10170 0.15839 -0.14192
 O22 O -0.18091 0.07439 -0.06886
 C23 C -0.16642 0.13495 -0.12166
 O24 O 0.10005 -0.14444 -0.15307
 O25 O 0.17976 -0.06946 -0.07127
 C26 C 0.16488 -0.12298 -0.13079
 O27 O -0.10184 -0.15196 -0.14483
 O28 O -0.18139 -0.07173 -0.06779
 C29 C -0.16671 -0.12996 -0.12287
 O30 O 0.09959 0.15069 -0.15001
 O31 O 0.17951 0.07298 -0.06975
 C32 C 0.16452 0.12842 -0.12812
 Zr33 Zr -0.00076 0.10888 -0.10251
 O34 O -0.00911 0.10922 -0.23622
 O35 O 0.00548 0.24283 -0.10121
 Zr36 Zr -0.00049 -0.10503 -0.10399
 O37 O -0.00908 -0.10461 -0.23762
 O38 O 0.00812 -0.23899 -0.10343
 Zr39 Zr 0.10753 0.00069 0.00375
 Zr40 Zr -0.10802 0.00088 0.00312
 O41 O -0.06332 0.00223 -0.11904
 O42 O 0.06377 0.00201 -0.11972
 O43 O -0.06527 0.12433 0.00401
 O44 O 0.06279 -0.12177 0.00260
 O45 O 0.06236 0.12325 0.00451
 O46 O -0.06447 -0.12289 0.00245
 H47 H -0.09506 -0.00071 0.17520
 H48 H 0.09535 -0.17173 0.00202
 H49 H -0.09583 0.00278 -0.16896
 H50 H 0.09478 0.17300 0.00505
 H51 H -0.03133 -0.26313 0.07301
 H52 H -0.03345 -0.26151 -0.07166
 H53 H 0.02945 -0.06762 -0.25968
 H54 H 0.03228 0.07667 -0.25852
 H55 H -0.02808 0.26313 -0.05714
 H56 H 0.00294 0.26151 0.16140
 H57 H 0.02807 0.06812 0.26650
 H58 H 0.03436 -0.07611 0.26553
 O59 O 0.59816 0.65147 0.65560
 O60 O 0.67764 0.57509 0.57500
 C61 C 0.66298 0.62976 0.63357
 O62 O 0.39787 0.34916 0.65098
 O63 O 0.31803 0.43032 0.57402
 C64 C 0.33294 0.37156 0.62910
 O65 O 0.59912 0.35735 0.65934
 O66 O 0.67807 0.43210 0.57667
 C67 C 0.66373 0.37859 0.63660
 O68 O 0.39725 0.65997 0.64623
 O69 O 0.31802 0.57792 0.57114
 C70 C 0.33256 0.63749 0.62472
 Zr71 Zr 0.49773 0.61036 0.60720
 O72 O 0.49446 0.60223 0.74067
 O73 O 0.50443 0.74428 0.60953
 Zr74 Zr 0.49841 0.39657 0.60947
 O75 O 0.49209 0.39774 0.74314
 O76 O 0.50701 0.26262 0.60939
 O77 O 0.56259 0.50368 0.62470
 O78 O 0.43518 0.50371 0.62356
 O79 O 0.39506 0.65620 0.35225
 O80 O 0.31647 0.57544 0.42972
 C81 C 0.33033 0.63397 0.37434
 O82 O 0.59856 0.35414 0.34782
 O83 O 0.67787 0.43103 0.42823
 C84 C 0.66332 0.37612 0.36985
 O85 O 0.39674 0.34695 0.35668
 O86 O 0.31699 0.42879 0.43171
 C87 C 0.33186 0.36932 0.37810
 O88 O 0.59840 0.64846 0.34557
 O89 O 0.67830 0.57253 0.42786
 C90 C 0.66337 0.62657 0.36836
 Zr91 Zr 0.49700 0.60937 0.39351
 O92 O 0.48880 0.60965 0.25986
 O93 O 0.50450 0.74332 0.39347
 Zr94 Zr 0.49793 0.39507 0.39588
 O95 O 0.48928 0.39388 0.26226
 O96 O 0.50671 0.26116 0.39801
 Zr97 Zr 0.60544 0.50295 0.50150
 Zr98 Zr 0.39034 0.50268 0.50107
 O99 O 0.43488 0.50200 0.37887
 O100 O 0.56169 0.50214 0.37805
 O101 O 0.43295 0.62642 0.50003
 O102 O 0.56107 0.38037 0.50298
 O103 O 0.56002 0.62546 0.50029
 O104 O 0.43386 0.37896 0.50271
 H105 H 0.40281 0.50429 0.67324
 H106 H 0.59387 0.33062 0.50361
 H107 H 0.40219 0.50152 0.32912
 H108 H 0.59228 0.67536 0.49996
 H109 H 0.46556 0.24029 0.57697
 H110 H 0.46634 0.23915 0.43217
 H111 H 0.52862 0.42934 0.23966
 H112 H 0.52843 0.57390 0.23801
 H113 H 0.46227 0.76572 0.42428
 H114 H 0.46868 0.76640 0.56836
 H115 H 0.49428 0.66141 0.76154
 H116 H 0.52497 0.44261 0.76338
 C117 C 0.22598 0.16397 0.18223
 C118 C 0.21705 0.22317 0.24161
 C119 C 0.27949 0.26392 0.28171
 C120 C 0.27059 0.32542 0.33873
 H121 H 0.16332 0.24292 0.25992
 H122 H 0.33321 0.24413 0.26340
 H123 H 0.27994 0.14507 0.16395
 H124 H 0.21665 0.34492 0.35644
 C125 C 0.77303 0.82393 0.16669
 C126 C 0.78075 0.76326 0.22523
 C127 C 0.71731 0.72408 0.26458
 C128 C 0.72507 0.66560 0.32529
 H129 H 0.83412 0.74309 0.24527
 H130 H 0.66395 0.74417 0.24449
 H131 H 0.71939 0.84385 0.14746
 H132 H 0.77873 0.64632 0.34511
 C133 C 0.77195 0.17859 0.83852
 C134 C 0.78021 0.24004 0.78102
 C135 C 0.71726 0.28034 0.74064
 C136 C 0.72545 0.33910 0.68039
 H137 H 0.83371 0.26005 0.76253
 H138 H 0.66378 0.26066 0.75955
 H139 H 0.71821 0.15874 0.85620
 H140 H 0.77917 0.35793 0.66152
 C141 C 0.22614 0.83779 0.82521
 C142 C 0.21731 0.78059 0.76388
 C143 C 0.27984 0.74069 0.72317
 C144 C 0.27113 0.68103 0.66420
 H145 H 0.16362 0.76199 0.74424
 H146 H 0.33351 0.75940 0.74280
 H147 H 0.28007 0.85575 0.84458
 H148 H 0.21726 0.66234 0.64538
 C149 C 0.22587 0.16892 0.82898
 C150 C 0.21732 0.22825 0.76893
 C151 C 0.28007 0.26838 0.72864
 C152 C 0.27155 0.32887 0.66974
 H153 H 0.16366 0.24803 0.74965
 H154 H 0.33372 0.24860 0.74793
 H155 H 0.27977 0.14976 0.84793
 H156 H 0.21766 0.34831 0.65103
 C157 C 0.77163 0.82740 0.83672
 C158 C 0.77967 0.76784 0.77741
 C159 C 0.71656 0.72811 0.73715
 C160 C 0.72462 0.66983 0.67659
 H161 H 0.83316 0.74865 0.75766
 H162 H 0.66306 0.74734 0.75683
 H163 H 0.71788 0.84631 0.85581
 H164 H 0.77838 0.65119 0.65729
 C165 C 0.22324 0.83544 0.17343
 C166 C 0.21678 0.77395 0.23703
 C167 C 0.27772 0.73690 0.27416
 C168 C 0.27120 0.67416 0.33632
 H169 H 0.16383 0.75390 0.25765
 H170 H 0.33076 0.75674 0.25373
 H171 H 0.27692 0.85405 0.15390
 H172 H 0.21772 0.65479 0.35572
 C173 C 0.77245 0.17640 0.16923
 C174 C 0.78035 0.23678 0.22773
 C175 C 0.71714 0.27688 0.26736
 C176 C 0.72505 0.33595 0.32718
 H177 H 0.83380 0.25637 0.24728
 H178 H 0.66369 0.25718 0.24792
 H179 H 0.71874 0.15717 0.15028
 H180 H 0.77876 0.35500 0.34632
   
