data_POSCAR
  _audit_creation_date              2014-09-24
  _audit_creation_method            'ToBaCCo'
  _symmetry_space_group_name_H-M    'P1'
  _symmetry_Int_Tables_number       1
  _symmetry_cell_setting            triclinic
  loop_
  _symmetry_equiv_pos_as_xyz
 x,y,z
_cell_length_a 26.7634
_cell_length_b 26.6914
_cell_length_c 26.7722
_cell_angle_alpha 90.037300
_cell_angle_beta 90.086300
_cell_angle_gamma 90.021300
loop_
  _atom_site_label
  _atom_site_type_symbol
  _atom_site_fract_x
  _atom_site_fract_y
  _atom_site_fract_z
O1 O 0.44519 1.05769 -0.54137
 O2 O 0.54506 1.05038 -0.44639
 O3 O 0.54215 1.05583 -0.54446
 O4 O 0.44711 1.05388 -0.44553
 O5 O 0.44402 0.97133 -0.44987
 O6 O 0.54241 0.97318 -0.54616
 O7 O 0.54062 0.96799 -0.44839
 O8 O 0.44511 0.97515 -0.54668
 Cu9 Cu 0.49558 1.06276 -0.49391
 Cu10 Cu 0.49312 0.96365 -0.49821
 C11 C 0.42805 1.01745 -0.56013
 C12 C 0.55921 1.00784 -0.43025
 C13 C 0.55826 1.01494 -0.56254
 C14 C 0.42851 1.01242 -0.43160
 O15 O -0.55247 1.44564 -0.05835
 O16 O -0.46030 1.54780 -0.05690
 O17 O -0.45432 1.44999 -0.05394
 O18 O -0.55600 1.54297 -0.05998
 O19 O -0.56118 1.54200 0.02217
 O20 O -0.45575 1.45388 0.02836
 O21 O -0.46439 1.55042 0.02541
 O22 O -0.55303 1.44461 0.02392
 Cu23 Cu -0.50537 1.49595 -0.06557
 Cu24 Cu -0.50899 1.49765 0.03320
 C25 C -0.56885 1.42764 -0.01759
 C26 C -0.44734 1.56724 -0.01557
 C27 C -0.43689 1.43695 -0.01170
 C28 C -0.57596 1.55863 -0.01983
 O29 O -0.00717 0.44855 0.45470
 O30 O -0.00990 0.54439 0.55370
 O31 O -0.01167 0.54593 0.45650
 O32 O -0.00656 0.44709 0.55183
 O33 O 0.07578 0.45151 0.55229
 O34 O 0.07071 0.55020 0.45615
 O35 O 0.07231 0.54892 0.55193
 O36 O 0.07516 0.45258 0.45346
 Cu37 Cu -0.01704 0.49600 0.50423
 Cu38 Cu 0.08184 0.50064 0.50331
 C39 C 0.03447 0.43450 0.43683
 C40 C 0.03070 0.56360 0.56944
 C41 C 0.02854 0.56537 0.44045
 C42 C 0.03537 0.43287 0.56888
 O43 O -0.13394 1.00256 -0.06560
 O44 O 0.12281 0.98788 -0.06364
 O45 O -0.00346 1.06287 -0.12590
 O46 O -0.00567 0.92727 -0.12485
 O47 O -0.01057 0.86697 -0.06328
 O48 O -0.00017 1.12483 -0.06584
 O49 O 0.06251 0.99140 -0.12517
 O50 O -0.07234 1.00162 -0.12586
 Zr51 Zr -0.00518 0.99559 -0.08484
 O52 O 0.03770 0.94837 -0.04174
 O53 O -0.04863 1.04324 -0.04283
 C54 C -0.11861 1.00415 -0.11156
 C55 C 0.10848 0.98800 -0.10996
 C56 C -0.00149 1.10939 -0.11189
 C57 C -0.00796 0.88115 -0.10955
 H58 H 0.06416 1.05933 -0.06323
 O59 O 0.04155 1.03922 -0.04204
 H60 H -0.07494 0.93213 -0.06359
 O61 O -0.05274 0.95268 -0.04227
 O62 O 0.12245 0.99175 0.07083
 O63 O -0.13466 1.00080 0.06989
 O64 O 0.06762 1.12223 0.00389
 O65 O 0.05546 0.86440 0.00381
 O66 O -0.07894 0.87085 0.00668
 O67 O -0.06803 1.12824 -0.00104
 O68 O -0.00329 1.06487 0.13099
 O69 O -0.00933 0.92985 0.13216
 O70 O 0.00148 1.12579 0.07006
 O71 O -0.01378 0.86857 0.07155
 O72 O 0.12557 1.05818 0.00623
 O73 O -0.13107 1.06919 -0.00240
 O74 O -0.13752 0.93412 0.00385
 O75 O 0.11931 0.92249 0.00193
 O76 O 0.06172 0.99755 0.13162
 O77 O -0.07368 0.99655 0.13078
 Zr78 Zr 0.08192 0.99230 0.00345
 Zr79 Zr -0.09367 1.00002 0.00229
 Zr80 Zr -0.00191 1.08472 0.00236
 Zr81 Zr -0.00984 0.90848 0.00374
 Zr82 Zr -0.00604 0.99715 0.09072
 O83 O -0.05330 0.95340 0.04838
 O84 O 0.04134 1.04022 0.04813
 C85 C 0.10788 0.99483 0.11690
 C86 C -0.11986 0.99783 0.11605
 C87 C 0.11301 1.10517 0.00610
 C88 C 0.10228 0.87690 0.00256
 C89 C -0.12451 0.88734 0.00653
 C90 C -0.11466 1.11488 -0.00400
 C91 C 0.00012 1.11105 0.11631
 C92 C -0.01275 0.88352 0.11768
 H93 H -0.07009 1.06637 0.06820
 O94 O -0.04927 1.04400 0.04738
 H95 H 0.05743 0.92753 0.07029
 O96 O 0.03708 0.94957 0.04868
 C97 C 0.35668 1.06213 0.39886
 C98 C 0.31721 1.06327 0.36457
 C99 C 0.30858 1.02253 0.33279
 C100 C 0.33963 0.98019 0.33598
 C101 C 0.37850 0.97864 0.37079
 C102 C 0.38751 1.01965 0.40247
 N103 N 0.26818 1.02474 0.29774
 N104 N 0.26492 0.99367 0.26184
 C105 C 0.22467 0.99436 0.22666
 C106 C 0.23003 0.96771 0.18206
 C107 C 0.19201 0.96804 0.14638
 C108 C 0.14736 0.99421 0.15533
 C109 C 0.14145 1.02010 0.20065
 C110 C 0.18010 1.02063 0.23595
 H111 H 0.36257 1.09411 0.42309
 H112 H 0.29348 1.09606 0.36252
 H113 H 0.33354 0.94811 0.31196
 H114 H 0.40168 0.94544 0.37273
 H115 H 0.26411 0.94715 0.17468
 H116 H 0.19734 0.94743 0.11193
 H117 H 0.10742 1.04067 0.20829
 H118 H 0.17510 1.04118 0.27045
 C119 C -0.40013 1.05904 0.36639
 C120 C -0.36618 1.05995 0.32678
 C121 C -0.33560 1.01857 0.31721
 C122 C -0.33987 0.97567 0.34737
 C123 C -0.37455 0.97433 0.38640
 C124 C -0.40481 1.01614 0.39647
 N125 N -0.30059 1.02105 0.27686
 N126 N -0.26478 0.98998 0.27285
 C127 C -0.22975 0.99191 0.23252
 C128 C -0.18452 0.96619 0.23734
 C129 C -0.14880 0.96838 0.19947
 C130 C -0.15830 0.99545 0.15545
 C131 C -0.20427 1.02025 0.14999
 C132 C -0.23960 1.01898 0.18853
 H133 H -0.42326 1.09166 0.37302
 H134 H -0.36331 1.09316 0.30376
 H135 H -0.31678 0.94311 0.34049
 H136 H -0.37739 0.94079 0.40897
 H137 H -0.17663 0.94504 0.27095
 H138 H -0.11385 0.94849 0.20439
 H139 H -0.21242 1.04139 0.11644
 H140 H -0.27455 1.03885 0.18389
 C141 C -0.39374 0.95789 -0.36985
 C142 C -0.35914 0.95448 -0.33091
 C143 C -0.33381 0.99706 -0.31415
 C144 C -0.34412 1.04368 -0.33620
 C145 C -0.37975 1.04749 -0.37435
 C146 C -0.40488 1.00453 -0.39198
 N147 N -0.29803 0.99193 -0.27467
 N148 N -0.26403 1.02438 -0.26706
 C149 C -0.22865 1.01930 -0.22722
 C150 C -0.18310 1.04476 -0.23041
 C151 C -0.14711 1.03928 -0.19297
 C152 C -0.15677 1.00937 -0.15096
 C153 C -0.20305 0.98487 -0.14703
 C154 C -0.23854 0.98925 -0.18524
 H155 H -0.41232 0.92391 -0.38197
 H156 H -0.35155 0.91837 -0.31411
 H157 H -0.32512 1.07718 -0.32350
 H158 H -0.38718 1.08405 -0.39027
 H159 H -0.17514 1.06817 -0.26244
 H160 H -0.11196 1.05894 -0.19649
 H161 H -0.21131 0.96164 -0.11492
 H162 H -0.27375 0.96957 -0.18186
 C163 C 0.35715 1.05446 -0.38867
 C164 C 0.31766 1.05391 -0.35461
 C165 C 0.30899 1.01169 -0.32496
 C166 C 0.33985 0.96943 -0.33023
 C167 C 0.37871 0.96951 -0.36510
 C168 C 0.38788 1.01217 -0.39441
 N169 N 0.26867 1.01265 -0.28993
 N170 N 0.26578 0.98142 -0.25418
 C171 C 0.22524 0.98217 -0.21942
 C172 C 0.23130 0.95869 -0.17315
 C173 C 0.19329 0.96063 -0.13753
 C174 C 0.14795 0.98491 -0.14826
 C175 C 0.14133 1.00722 -0.19533
 C176 C 0.17992 1.00636 -0.23049
 H177 H 0.36313 1.08766 -0.41112
 H178 H 0.29404 1.08663 -0.35092
 H179 H 0.33360 0.93625 -0.30786
 H180 H 0.40185 0.93644 -0.36883
 H181 H 0.26602 0.93984 -0.16428
 H182 H 0.19934 0.94307 -0.10161
 H183 H 0.10683 1.02637 -0.20446
 H184 H 0.17435 1.02444 -0.26625
 C185 C 0.37256 1.37471 -0.06396
 C186 C 0.33483 1.33852 -0.06469
 C187 C 0.31965 1.31516 -0.02055
 C188 C 0.34238 1.32869 0.02480
 C189 C 0.37928 1.36583 0.02589
 C190 C 0.39495 1.38943 -0.01854
 N191 N 0.28022 1.27894 -0.02259
 N192 N 0.27319 1.24710 0.01207
 C193 C 0.23260 1.21216 0.01031
 C194 C 0.23559 1.16798 0.03829
 C195 C 0.19686 1.13284 0.03656
 C196 C 0.15383 1.14221 0.00795
 C197 C 0.15033 1.18709 -0.01919
 C198 C 0.18968 1.22155 -0.01853
 H199 H 0.38328 1.39193 -0.09898
 H200 H 0.31746 1.32846 -0.09986
 H201 H 0.33090 1.31131 0.05946
 H202 H 0.39552 1.37591 0.06160
 H203 H 0.26836 1.16046 0.06084
 H204 H 0.20020 1.09863 0.05809
 H205 H 0.11755 1.19503 -0.04163
 H206 H 0.18641 1.25571 -0.04007
 C207 C 0.37374 0.61854 -0.06735
 C208 C 0.33781 0.65649 -0.06884
 C209 C 0.31247 0.67065 -0.02547
 C210 C 0.32370 0.64671 0.01984
 C211 C 0.36050 0.60962 0.02176
 C212 C 0.38611 0.59497 -0.02185
 N213 N 0.27649 0.71021 -0.02804
 N214 N 0.24322 0.71595 0.00538
 C215 C 0.20840 0.75657 0.00386
 C216 C 0.16350 0.75240 0.03019
 C217 C 0.12867 0.79135 0.02921
 C218 C 0.13899 0.83575 0.00301
 C219 C 0.18456 0.84035 -0.02252
 C220 C 0.21879 0.80078 -0.02266
 H221 H 0.39260 0.60859 -0.10173
 H222 H 0.32951 0.67481 -0.10397
 H223 H 0.30476 0.65739 0.05393
 H224 H 0.36875 0.59245 0.05749
 H225 H 0.15527 0.71862 0.05100
 H226 H 0.09398 0.78710 0.04959
 H227 H 0.19334 0.87421 -0.04289
 H228 H 0.25358 0.80495 -0.04282
 C229 C -0.40737 0.64050 -0.05778
 C230 C -0.37429 0.68103 -0.05760
 C231 C -0.34487 0.69100 -0.01554
 C232 C -0.34977 0.66066 0.02708
 C233 C -0.38361 0.62075 0.02734
 C234 C -0.41232 0.60997 -0.01530
 N235 N -0.30965 0.73134 -0.01730
 N236 N -0.27405 0.73456 0.01407
 C237 C -0.23822 0.77431 0.01282
 C238 C -0.19301 0.76791 0.03817
 C239 C -0.15614 0.80477 0.03599
 C240 C -0.16444 0.84938 0.00947
 C241 C -0.21047 0.85655 -0.01480
 C242 C -0.24698 0.81896 -0.01364
 H243 H -0.42938 0.63327 -0.09100
 H244 H -0.37089 0.70418 -0.09063
 H245 H -0.32758 0.66786 0.06016
 H246 H -0.38671 0.59782 0.06055
 H247 H -0.18594 0.73373 0.05877
 H248 H -0.12114 0.79848 0.05522
 H249 H -0.21767 0.89058 -0.03561
 H250 H -0.28191 0.82475 -0.03325
 C251 C -0.36394 1.40068 0.03420
 C252 C -0.32343 1.36779 0.03718
 C253 C -0.31294 1.33502 -0.00220
 C254 C -0.34285 1.33632 -0.04543
 C255 C -0.38282 1.36994 -0.04888
 C256 C -0.39408 1.40207 -0.00886
 N257 N -0.27246 1.30027 0.00297
 N258 N -0.26788 1.26270 -0.02593
 C259 C -0.22797 1.22733 -0.02099
 C260 C -0.23255 1.18091 -0.04474
 C261 C -0.19559 1.14449 -0.03904
 C262 C -0.15269 1.15437 -0.01033
 C263 C -0.14724 1.20157 0.01229
 C264 C -0.18495 1.23768 0.00750
 H265 H -0.37148 1.42531 0.06545
 H266 H -0.30064 1.36720 0.07064
 H267 H -0.33527 1.31149 -0.07649
 H268 H -0.40540 1.37023 -0.08249
 H269 H -0.26539 1.17259 -0.06693
 H270 H -0.20041 1.10860 -0.05737
 H271 H -0.11449 1.21002 0.03457
 H272 H -0.18053 1.27353 0.02591
 C273 C 0.07709 1.39282 0.36451
 C274 C 0.07699 1.35853 0.32491
 C275 C 0.03571 1.32732 0.31681
 C276 C -0.00592 1.33118 0.34854
 C277 C -0.00624 1.36603 0.38751
 C278 C 0.03532 1.39710 0.39602
 N279 N 0.03669 1.29219 0.27628
 N280 N 0.00526 1.25649 0.27355
 C281 C 0.00463 1.22116 0.23328
 C282 C -0.02230 1.17671 0.23930
 C283 C -0.02349 1.14096 0.20127
 C284 C 0.00138 1.14961 0.15589
 C285 C 0.02762 1.19476 0.14934
 C286 C 0.02970 1.23014 0.18802
 H287 H 0.10950 1.41653 0.36997
 H288 H 0.10927 1.35600 0.30071
 H289 H -0.03840 1.30765 0.34291
 H290 H -0.03892 1.36846 0.41120
 H291 H -0.04197 1.16952 0.27388
 H292 H -0.04435 1.10668 0.20717
 H293 H 0.04721 1.20223 0.11476
 H294 H 0.05045 1.26451 0.18247
 C295 C 0.07734 1.39208 -0.35793
 C296 C 0.07694 1.35776 -0.31840
 C297 C 0.03660 1.32494 -0.31220
 C298 C -0.00369 1.32704 -0.34586
 C299 C -0.00381 1.36195 -0.38467
 C300 C 0.03670 1.39479 -0.39114
 N301 N 0.03687 1.29022 -0.27140
 N302 N 0.00757 1.25267 -0.27080
 C303 C 0.00585 1.21788 -0.23020
 C304 C -0.01566 1.17089 -0.23838
 C305 C -0.01775 1.13568 -0.19997
 C306 C 0.00030 1.14743 -0.15203
 C307 C 0.02112 1.19509 -0.14354
 C308 C 0.02437 1.22994 -0.18253
 H309 H 0.10885 1.41724 -0.36184
 H310 H 0.10818 1.35658 -0.29267
 H311 H -0.03543 1.30225 -0.34169
 H312 H -0.03560 1.36320 -0.40973
 H313 H -0.03014 1.16126 -0.27494
 H314 H -0.03363 1.09924 -0.20784
 H315 H 0.03568 1.20507 -0.10710
 H316 H 0.04083 1.26630 -0.17537
 C317 C 0.07381 0.62701 -0.38054
 C318 C 0.07261 0.66572 -0.34542
 C319 C 0.02782 0.67884 -0.32209
 C320 C -0.01628 0.65328 -0.33478
 C321 C -0.01547 0.61533 -0.37081
 C322 C 0.02968 0.60147 -0.39409
 N323 N 0.02799 0.71848 -0.28607
 N324 N -0.00715 0.72387 -0.25458
 C325 C -0.00737 0.76409 -0.21923
 C326 C -0.03656 0.75966 -0.17617
 C327 C -0.03651 0.79768 -0.14028
 C328 C -0.00829 0.84142 -0.14775
 C329 C 0.02001 0.84645 -0.19159
 C330 C 0.02096 0.80778 -0.22685
 H331 H 0.10930 0.61778 -0.39763
 H332 H 0.10681 0.68526 -0.33596
 H333 H -0.05143 0.66311 -0.31739
 H334 H -0.05024 0.59669 -0.38008
 H335 H -0.05869 0.72626 -0.17002
 H336 H -0.05891 0.79315 -0.10692
 H337 H 0.04217 0.87980 -0.19802
 H338 H 0.04346 0.81211 -0.26014
 C339 C 0.06597 0.64057 0.39934
 C340 C 0.06318 0.68029 0.36547
 C341 C 0.02130 0.68585 0.33466
 C342 C -0.01840 0.65160 0.33858
 C343 C -0.01612 0.61247 0.37316
 C344 C 0.02622 0.60642 0.40364
 N345 N 0.01997 0.72634 0.29968
 N346 N -0.01073 0.72689 0.26336
 C347 C -0.01249 0.76733 0.22839
 C348 C -0.03488 0.75931 0.18189
 C349 C -0.03513 0.79717 0.14596
 C350 C -0.01423 0.84432 0.15656
 C351 C 0.00691 0.85284 0.20392
 C352 C 0.00827 0.81444 0.23943
 H353 H 0.09885 0.63700 0.42269
 H354 H 0.09394 0.70652 0.36282
 H355 H -0.05128 0.65535 0.31529
 H356 H -0.04726 0.58667 0.37574
 H357 H -0.05104 0.72317 0.17304
 H358 H -0.05149 0.78946 0.10980
 H359 H 0.02356 0.88870 0.21302
 H360 H 0.02546 0.82150 0.27538
   
