data_POSCAR
  _audit_creation_date              2014-09-24
  _audit_creation_method            'ToBaCCo'
  _symmetry_space_group_name_H-M    'P1'
  _symmetry_Int_Tables_number       1
  _symmetry_cell_setting            triclinic
  loop_
  _symmetry_equiv_pos_as_xyz
 x,y,z
_cell_length_a 30.6147
_cell_length_b 30.7432
_cell_length_c 30.5930
_cell_angle_alpha 98.439000
_cell_angle_beta 81.876100
_cell_angle_gamma 104.883200
loop_
  _atom_site_label
  _atom_site_type_symbol
  _atom_site_fract_x
  _atom_site_fract_y
  _atom_site_fract_z
O1 O 0.52010 0.51902 0.08252
 O2 O 0.40649 0.49290 0.04546
 O3 O 0.45764 0.44505 0.06706
 O4 O 0.46978 0.56619 0.05928
 O5 O 0.49861 0.55700 -0.01086
 O6 O 0.48798 0.43592 -0.00256
 O7 O 0.43558 0.48277 -0.02444
 O8 O 0.54975 0.51069 0.01256
 Cu9 Cu 0.46043 0.50656 0.07056
 Cu10 Cu 0.49591 0.49559 -0.01339
 C11 C 0.55432 0.51948 0.05380
 C12 C 0.40154 0.48378 0.00434
 C13 C 0.47117 0.41997 0.03385
 C14 C 0.48618 0.58221 0.02286
 O15 O -0.03916 0.55015 0.53208
 O16 O -0.00094 0.44468 0.51926
 O17 O -0.01434 0.50384 0.58577
 O18 O -0.02318 0.49104 0.46512
 O19 O 0.04828 0.52960 0.45424
 O20 O 0.05690 0.54280 0.57417
 O21 O 0.07053 0.48309 0.50787
 O22 O 0.03218 0.58869 0.52074
 Cu23 Cu -0.02669 0.49373 0.52674
 Cu24 Cu 0.05907 0.54013 0.51322
 C25 C -0.01002 0.58744 0.52825
 C26 C 0.04117 0.44587 0.51153
 C27 C 0.02323 0.52491 0.60028
 C28 C 0.01133 0.50786 0.43916
 O29 O 0.51650 0.03641 0.54302
 O30 O 0.53416 0.05986 0.42668
 O31 O 0.46386 0.04275 0.48532
 O32 O 0.58665 0.05044 0.48310
 O33 O 0.57484 -0.02272 0.46016
 O34 O 0.45196 -0.03084 0.46438
 O35 O 0.52077 -0.01352 0.40422
 O36 O 0.50516 -0.03692 0.52109
 Cu37 Cu 0.52659 0.05467 0.48677
 Cu38 Cu 0.51227 -0.03334 0.46021
 C39 C 0.50777 -0.00412 0.55203
 C40 C 0.52955 0.02729 0.39571
 C41 C 0.43703 0.00457 0.47513
 C42 C 0.60164 0.01512 0.47127
 C43 C 0.50489 -0.09938 -0.12317
 C44 C 0.49371 -0.05986 -0.13097
 C45 C 0.49063 -0.02579 -0.09548
 C46 C 0.50025 -0.02975 -0.05263
 C47 C 0.51207 -0.06972 -0.04613
 C48 C 0.51269 -0.10519 -0.08069
 C49 C 0.49801 0.00739 -0.01491
 C50 C 0.49143 -0.00222 0.02959
 C51 C 0.49250 0.03225 0.06515
 C52 C 0.49549 0.07655 0.05653
 C53 C 0.49930 0.08690 0.01271
 C54 C 0.50260 0.05270 -0.02268
 H55 H 0.50800 -0.12587 -0.15004
 H56 H 0.48029 0.00359 -0.10177
 H57 H 0.52214 -0.07313 -0.01464
 H58 H 0.48602 -0.03654 0.03726
 H59 H 0.49495 0.10298 0.08393
 H60 H 0.50857 0.06193 -0.05615
 C61 C -0.11774 0.48898 1.11466
 C62 C -0.12005 0.50175 1.07297
 C63 C -0.08449 0.49926 1.03922
 C64 C -0.04755 0.48243 1.04559
 C65 C -0.04592 0.46981 1.08773
 C66 C -0.08020 0.47434 1.12266
 C67 C -0.01072 0.47896 1.00846
 C68 C 0.03420 0.48371 1.01737
 C69 C 0.06914 0.48125 0.98283
 C70 C 0.05964 0.47710 0.93859
 C71 C 0.01531 0.47361 0.92889
 C72 C -0.01983 0.47245 0.96374
 H73 H -0.14477 0.49039 1.14128
 H74 H -0.08582 0.51089 1.00783
 H75 H -0.01863 0.45557 1.09329
 H76 H 0.04245 0.48972 1.05133
 H77 H 0.08650 0.47685 0.91165
 H78 H -0.05417 0.46753 0.95561
 C79 C -0.07386 -0.08939 0.48646
 C80 C -0.03103 -0.09057 0.49714
 C81 C 0.00398 -0.05096 0.49760
 C82 C -0.00224 -0.01062 0.48596
 C83 C -0.04543 -0.01022 0.47501
 C84 C -0.08173 -0.04911 0.47642
 C85 C 0.03613 0.03097 0.48638
 C86 C 0.02719 0.07414 0.49693
 C87 C 0.06254 0.11346 0.49766
 C88 C 0.10774 0.10951 0.49043
 C89 C 0.11789 0.06698 0.48085
 C90 C 0.08192 0.02788 0.47749
 H91 H -0.10140 -0.11954 0.48581
 H92 H 0.03630 -0.05174 0.50757
 H93 H -0.05053 0.01994 0.46437
 H94 H -0.00747 0.07750 0.50489
 H95 H 0.13543 0.13944 0.49336
 H96 H 0.08947 -0.00479 0.46746
 C97 C -0.40049 0.52939 1.06897
 C98 C -0.36157 0.53063 1.03911
 C99 C -0.31734 0.53314 1.05376
 N100 N -0.28155 0.52954 1.02307
 N101 N -0.24204 0.52836 1.03562
 C102 C -0.23685 0.53080 1.07935
 N103 N -0.27246 0.53509 1.11011
 N104 N -0.31203 0.53621 1.09754
 C105 C -0.19470 0.52564 1.09334
 C106 C -0.15973 0.51564 1.06217
 H107 H -0.36403 0.52671 1.00370
 H108 H -0.19268 0.52751 1.12856
 H109 H -0.39812 0.53373 1.10441
 H110 H -0.16229 0.51640 1.02733
 C111 C 0.35858 0.47562 0.99028
 C112 C 0.32040 0.47922 1.02011
 C113 C 0.27590 0.47573 1.00550
 N114 N 0.24183 0.48558 1.03562
 N115 N 0.20155 0.48389 1.02294
 C116 C 0.19382 0.47221 0.97966
 N117 N 0.22780 0.46202 0.94955
 N118 N 0.26820 0.46388 0.96221
 C119 C 0.14951 0.47035 0.96531
 C120 C 0.11516 0.48430 0.99466
 H121 H 0.32349 0.48726 1.05541
 H122 H 0.14410 0.45692 0.93131
 H123 H 0.35535 0.46817 0.95498
 H124 H 0.12154 0.49614 1.02885
 C125 C -0.02499 -0.37296 0.53161
 C126 C 0.00507 -0.33088 0.52706
 C127 C -0.01047 -0.28980 0.52557
 N128 N 0.02064 -0.25020 0.52013
 N129 N 0.00746 -0.21292 0.51681
 C130 C -0.03735 -0.21379 0.51876
 N131 N -0.06855 -0.25337 0.52445
 N132 N -0.05535 -0.29073 0.52779
 C133 C -0.05200 -0.17306 0.51334
 C134 C -0.02025 -0.13236 0.50656
 H135 H 0.04142 -0.32798 0.52278
 H136 H -0.08800 -0.17582 0.51421
 H137 H -0.06127 -0.37542 0.53672
 H138 H 0.01529 -0.13097 0.50782
 C139 C 0.05646 0.40380 0.50678
 C140 C 0.02631 0.36280 0.51525
 C141 C 0.04090 0.32034 0.51049
 N142 N 0.01071 0.28196 0.52191
 N143 N 0.02321 0.24300 0.51732
 C144 C 0.06637 0.24103 0.50104
 N145 N 0.09658 0.27942 0.48962
 N146 N 0.08410 0.31841 0.49431
 C147 C 0.08041 0.19813 0.49471
 C148 C 0.05084 0.15795 0.50678
 H149 H -0.00918 0.36170 0.52606
 H150 H 0.11421 0.19837 0.47855
 H151 H 0.09221 0.40532 0.49713
 H152 H 0.01650 0.15859 0.52104
 C153 C 0.50131 -0.01195 -0.40353
 C154 C 0.49078 -0.05537 -0.39034
 C155 C 0.48585 -0.06290 -0.34329
 N156 N 0.47516 -0.10576 -0.33209
 N157 N 0.47186 -0.11314 -0.28977
 C158 C 0.47910 -0.07795 -0.25708
 N159 N 0.48959 -0.03503 -0.26825
 N160 N 0.49284 -0.02765 -0.31056
 C161 C 0.47774 -0.08686 -0.21090
 C162 C 0.48746 -0.05209 -0.17617
 H163 H 0.48651 -0.08480 -0.41507
 H164 H 0.47008 -0.12190 -0.20473
 H165 H 0.50476 0.01714 -0.37840
 H166 H 0.49160 -0.01742 -0.18252
 C167 C 0.53355 0.03776 0.34979
 C168 C 0.51895 0.00490 0.31496
 C169 C 0.51751 0.01696 0.27045
 N170 N 0.49849 -0.01513 0.23865
 N171 N 0.49597 -0.00431 0.19861
 C172 C 0.51236 0.03905 0.18893
 N173 N 0.53151 0.07106 0.22067
 N174 N 0.53395 0.06026 0.26069
 C175 C 0.51037 0.05179 0.14488
 C176 C 0.49073 0.02071 0.11084
 H177 H 0.50602 -0.03020 0.32100
 H178 H 0.52660 0.08636 0.13891
 H179 H 0.54513 0.07302 0.34398
 H180 H 0.47696 -0.01432 0.11684
 C181 C 0.49024 -0.36943 0.02027
 C182 C 0.50782 -0.34910 -0.01843
 C183 C 0.50977 -0.30123 -0.02157
 N184 N 0.52557 -0.28365 -0.06058
 N185 N 0.52634 -0.24081 -0.06435
 C186 C 0.51140 -0.21385 -0.02920
 N187 N 0.49590 -0.23134 0.00990
 N188 N 0.49510 -0.27420 0.01367
 C189 C 0.50991 -0.16708 -0.03334
 C190 C 0.52146 -0.14884 -0.07383
 H191 H 0.51969 -0.36908 -0.04773
 H192 H 0.49617 -0.14801 -0.00446
 H193 H 0.47841 -0.34947 0.04960
 H194 H 0.53273 -0.16958 -0.10285
 C195 C 0.46736 0.37208 0.03856
 C196 C 0.48552 0.34298 0.00575
 C197 C 0.48357 0.29586 0.01239
 N198 N 0.50406 0.26935 -0.01909
 N199 N 0.50307 0.22698 -0.01300
 C200 C 0.48146 0.20956 0.02483
 N201 N 0.46089 0.23603 0.05615
 N202 N 0.46193 0.27833 0.05010
 C203 C 0.48017 0.16315 0.03299
 C204 C 0.50077 0.13336 0.00317
 H205 H 0.50262 0.35531 -0.02512
 H206 H 0.46144 0.15209 0.06373
 H207 H 0.45095 0.35984 0.06969
 H208 H 0.51648 0.14352 -0.02894
 C209 C -0.34934 0.01861 0.47113
 C210 C -0.33049 -0.01893 0.46022
 C211 C -0.28198 -0.01617 0.46257
 N212 N -0.26612 -0.05426 0.45305
 N213 N -0.22268 -0.05265 0.45596
 C214 C -0.19334 -0.01285 0.46851
 N215 N -0.20915 0.02529 0.47782
 N216 N -0.25261 0.02368 0.47493
 C217 C -0.14542 -0.01066 0.47325
 C218 C -0.12816 -0.04933 0.46712
 H219 H -0.35218 -0.05181 0.45054
 H220 H -0.12418 0.02199 0.48421
 H221 H -0.32776 0.05150 0.48093
 H222 H -0.15093 -0.08192 0.45855
 C223 C 0.38801 0.00072 0.47535
 C224 C 0.36995 0.03862 0.47972
 C225 C 0.32115 0.03507 0.47856
 N226 N 0.30648 0.07307 0.47825
 N227 N 0.26252 0.07068 0.47747
 C228 C 0.23142 0.03019 0.47706
 N229 N 0.24607 -0.00785 0.47746
 N230 N 0.29011 -0.00549 0.47808
 C231 C 0.18244 0.02738 0.47758
 C232 C 0.16656 0.06558 0.47493
 H233 H 0.39246 0.07218 0.48308
 H234 H 0.15888 -0.00493 0.48194
 H235 H 0.36583 -0.03287 0.47041
 H236 H 0.19145 0.09739 0.47131
 C237 C 0.00938 0.50250 1.39089
 C238 C -0.03005 0.48067 1.37117
 C239 C -0.03141 0.47694 1.32281
 N240 N -0.07156 0.46044 1.30532
 N241 N -0.07340 0.45831 1.26177
 C242 C -0.03510 0.47240 1.23407
 N243 N 0.00511 0.48838 1.25151
 N244 N 0.00693 0.49064 1.29505
 C245 C -0.03678 0.47284 1.18629
 C246 C -0.07780 0.46454 1.16806
 H247 H -0.06101 0.46711 1.39172
 H248 H -0.00497 0.48420 1.16605
 H249 H 0.04006 0.51677 1.37030
 H250 H -0.10936 0.45627 1.18956
 C251 C 0.02908 0.52806 0.64757
 C252 C -0.00300 0.50354 0.67758
 C253 C 0.00665 0.50211 0.72310
 N254 N -0.02469 0.47687 0.75123
 N255 N -0.01566 0.47439 0.79205
 C256 C 0.02514 0.49697 0.80614
 N257 N 0.05639 0.52220 0.77804
 N258 N 0.04736 0.52471 0.73731
 C259 C 0.03612 0.49484 0.85093
 C260 C 0.00489 0.47206 0.88279
 H261 H -0.03504 0.48328 0.66692
 H262 H 0.06941 0.51370 0.85950
 H263 H 0.06122 0.54799 0.65830
 H264 H -0.02946 0.45623 0.87496
   
