data_POSCAR
  _audit_creation_date              2014-09-24
  _audit_creation_method            'ToBaCCo'
  _symmetry_space_group_name_H-M    'P1'
  _symmetry_Int_Tables_number       1
  _symmetry_cell_setting            triclinic
  loop_
  _symmetry_equiv_pos_as_xyz
 x,y,z
_cell_length_a 36.1442
_cell_length_b 36.0905
_cell_length_c 36.0621
_cell_angle_alpha 90.039000
_cell_angle_beta 89.953300
_cell_angle_gamma 89.956000
loop_
  _atom_site_label
  _atom_site_type_symbol
  _atom_site_fract_x
  _atom_site_fract_y
  _atom_site_fract_z
O1 O 0.87573 0.17594 0.77844
 O2 O 0.91711 0.12739 0.76844
 O3 O 0.77954 0.12323 0.82368
 O4 O 0.76582 0.08693 0.87214
 O5 O 0.82430 0.22108 0.87610
 O6 O 0.87578 0.23144 0.91640
 O7 O 0.87704 0.02790 0.92474
 O8 O 0.83411 0.01864 0.87804
 O9 O 0.97134 0.07356 0.87626
 O10 O 0.98309 0.12620 0.83436
 O11 O 0.92660 0.12319 0.97065
 O12 O 0.87382 0.16441 0.98276
 O13 O 0.87714 0.07248 0.96958
 O14 O 0.83438 0.12545 0.98171
 O15 O 0.97122 0.12366 0.92609
 O16 O 0.98193 0.16643 0.87278
 O17 O 0.92695 0.02889 0.87709
 O18 O 0.87844 0.02299 0.82845
 O19 O 0.87641 0.22043 0.82345
 O20 O 0.91683 0.23124 0.87541
 O21 O 0.77973 0.17651 0.87578
 O22 O 0.77149 0.12379 0.91873
 O23 O 0.82403 0.12473 0.77892
 O24 O 0.87547 0.07992 0.77189
 Zr25 Zr 0.87423 0.12601 0.80849
 O26 O 0.90920 0.09171 0.84016
 Zr27 Zr 0.80920 0.12616 0.87384
 O28 O 0.84116 0.09111 0.90777
 Zr29 Zr 0.87429 0.19110 0.87390
 O30 O 0.90883 0.15928 0.90849
 Zr31 Zr 0.87688 0.05860 0.87532
 O32 O 0.84139 0.09019 0.84092
 Zr33 Zr 0.94173 0.12390 0.87590
 O34 O 0.90995 0.15868 0.84109
 Zr35 Zr 0.87650 0.12333 0.94092
 O36 O 0.84160 0.15877 0.90973
 O37 O 0.83991 0.16046 0.83951
 O38 O 0.91133 0.08901 0.91029
 C39 C 0.87689 0.20980 0.78944
 C40 C 0.79022 0.12315 0.78969
 C41 C 0.79043 0.21040 0.87685
 C42 C 0.87724 0.03859 0.95871
 C43 C 0.96078 0.03960 0.87696
 C44 C 0.96047 0.12335 0.95997
 H45 H 0.92444 0.07627 0.82339
 H46 H 0.92396 0.17608 0.92392
 H47 H 0.82405 0.17631 0.82375
 H48 H 0.82460 0.07532 0.92279
 H49 H 0.81712 0.02398 0.85718
 H50 H 0.77563 0.06370 0.88279
 H51 H 0.97734 0.18387 0.89345
 H52 H 0.93627 0.22262 0.85808
 H53 H 0.88363 -0.00249 0.83731
 H54 H 0.86810 0.08831 0.74675
 H55 H 0.89273 0.18336 0.97703
 H56 H 0.85913 0.22248 0.93627
 H57 H 0.93697 0.14323 0.77870
 H58 H 0.97754 0.10677 0.81583
 H59 H 0.77868 0.14359 0.93632
 H60 H 0.81693 0.10494 0.97677
 O61 O 0.82400 0.72114 0.37476
 O62 O 0.87246 0.73117 0.41620
 O63 O 0.87686 0.67538 0.27858
 O64 O 0.91307 0.62682 0.26502
 O65 O 0.77905 0.62339 0.32356
 O66 O 0.76855 0.58336 0.37535
 O67 O 0.97182 0.57473 0.37675
 O68 O 0.98106 0.62103 0.33333
 O69 O 0.92609 0.62409 0.47087
 O70 O 0.87326 0.66590 0.48238
 O71 O 0.87668 0.52934 0.42674
 O72 O 0.83554 0.51691 0.37395
 O73 O 0.92732 0.52999 0.37705
 O74 O 0.87441 0.51771 0.33435
 O75 O 0.87623 0.57413 0.47117
 O76 O 0.83346 0.62723 0.48173
 O77 O 0.97075 0.62291 0.42633
 O78 O 0.97669 0.67097 0.37733
 O79 O 0.77956 0.67625 0.37571
 O80 O 0.76864 0.62444 0.41631
 O81 O 0.82366 0.62344 0.27893
 O82 O 0.87614 0.58036 0.27089
 O83 O 0.87519 0.72031 0.32297
 O84 O 0.91981 0.72757 0.37437
 Zr85 Zr 0.87382 0.69101 0.37336
 O86 O 0.90805 0.65951 0.40848
 Zr87 Zr 0.87381 0.62539 0.30849
 O88 O 0.90874 0.59157 0.34067
 Zr89 Zr 0.80883 0.62576 0.37370
 O90 O 0.84057 0.59135 0.40852
 Zr91 Zr 0.94115 0.62416 0.37623
 O92 O 0.90964 0.65842 0.34056
 Zr93 Zr 0.87585 0.62405 0.44129
 O94 O 0.84112 0.65868 0.40929
 Zr95 Zr 0.87653 0.55870 0.37632
 O96 O 0.84120 0.58974 0.34116
 O97 O 0.83949 0.65990 0.33910
 O98 O 0.91075 0.58947 0.41102
 C99 C 0.79019 0.71023 0.37607
 C100 C 0.87690 0.70937 0.28916
 C101 C 0.78981 0.62248 0.28962
 C102 C 0.96117 0.54080 0.37711
 C103 C 0.95997 0.62342 0.46020
 C104 C 0.87656 0.54023 0.46062
 H105 H 0.92344 0.67637 0.42362
 H106 H 0.82380 0.57603 0.42378
 H107 H 0.82369 0.67562 0.32314
 H108 H 0.92452 0.57643 0.32414
 H109 H 0.97575 0.64175 0.31614
 H110 H 0.93616 0.61589 0.27480
 H111 H 0.81595 0.60670 0.47709
 H112 H 0.77727 0.64171 0.43580
 H113 H 1.00215 0.66213 0.38251
 H114 H 0.91141 0.75268 0.36696
 H115 H 0.81657 0.52281 0.39284
 H116 H 0.77758 0.56340 0.35881
 H117 H 0.85637 0.72118 0.43603
 H118 H 0.89276 0.68430 0.47683
 H119 H 0.85642 0.56282 0.27827
 H120 H 0.89488 0.52251 0.31679
 O121 O 0.37466 0.17503 0.27890
 O122 O 0.41618 0.12619 0.26924
 O123 O 0.27868 0.12238 0.32474
 O124 O 0.26533 0.08614 0.37342
 O125 O 0.32349 0.22052 0.37641
 O126 O 0.37505 0.23130 0.41650
 O127 O 0.37646 0.02795 0.42665
 O128 O 0.33331 0.01833 0.38011
 O129 O 0.47055 0.07329 0.37674
 O130 O 0.48208 0.12567 0.33466
 O131 O 0.42643 0.12347 0.47123
 O132 O 0.37339 0.16516 0.48306
 O133 O 0.37667 0.07290 0.47107
 O134 O 0.33439 0.12582 0.48303
 O135 O 0.47077 0.12362 0.42640
 O136 O 0.48117 0.16606 0.37290
 O137 O 0.42617 0.02858 0.37837
 O138 O 0.37742 0.02211 0.33031
 O139 O 0.37546 0.21977 0.32364
 O140 O 0.41599 0.23091 0.37539
 O141 O 0.27898 0.17588 0.37647
 O142 O 0.27075 0.12378 0.41975
 O143 O 0.32304 0.12369 0.27984
 O144 O 0.37438 0.07889 0.27294
 Zr145 Zr 0.37329 0.12519 0.30929
 O146 O 0.40825 0.09108 0.34117
 Zr147 Zr 0.30848 0.12563 0.37485
 O148 O 0.34056 0.09099 0.40909
 Zr149 Zr 0.37351 0.19068 0.37426
 O150 O 0.40823 0.15917 0.40895
 Zr151 Zr 0.37612 0.05821 0.37682
 O152 O 0.34062 0.08951 0.34213
 Zr153 Zr 0.44096 0.12357 0.37645
 O154 O 0.40908 0.15812 0.34151
 Zr155 Zr 0.37608 0.12346 0.44183
 O156 O 0.34099 0.15853 0.41041
 O157 O 0.33905 0.15978 0.34019
 O158 O 0.41079 0.08891 0.41132
 C159 C 0.37586 0.20898 0.28968
 C160 C 0.28927 0.12213 0.29071
 C161 C 0.28965 0.20977 0.37728
 C162 C 0.37669 0.03888 0.46058
 C163 C 0.45995 0.03937 0.37772
 C164 C 0.46025 0.12354 0.46033
 H165 H 0.42339 0.07551 0.32444
 H166 H 0.42344 0.17608 0.42416
 H167 H 0.32314 0.17550 0.32435
 H168 H 0.32405 0.07535 0.42434
 H169 H 0.31623 0.02351 0.35929
 H170 H 0.27493 0.06331 0.38510
 H171 H 0.47665 0.18366 0.39345
 H172 H 0.43542 0.22218 0.35809
 H173 H 0.38255 -0.00330 0.33940
 H174 H 0.36708 0.08717 0.24775
 H175 H 0.39281 0.18364 0.47751
 H176 H 0.35853 0.22240 0.43650
 H177 H 0.43581 0.14258 0.27907
 H178 H 0.47635 0.10623 0.31619
 H179 H 0.27824 0.14347 0.43733
 H180 H 0.31647 0.10577 0.47791
 O181 O 0.12479 0.32386 0.27862
 O182 O 0.08331 0.37267 0.26897
 O183 O 0.22096 0.37637 0.32390
 O184 O 0.23481 0.41252 0.37240
 O185 O 0.17588 0.27858 0.37620
 O186 O 0.12423 0.26825 0.41639
 O187 O 0.12389 0.47167 0.42569
 O188 O 0.16705 0.48085 0.37897
 O189 O 0.02956 0.42664 0.37658
 O190 O 0.01756 0.37404 0.33478
 O191 O 0.07390 0.37656 0.47103
 O192 O 0.12659 0.33488 0.48283
 O193 O 0.12364 0.42693 0.47030
 O194 O 0.16602 0.37383 0.48214
 O195 O 0.02934 0.37649 0.42650
 O196 O 0.01839 0.33389 0.37319
 O197 O 0.07418 0.47111 0.37768
 O198 O 0.12280 0.47696 0.32932
 O199 O 0.12392 0.27933 0.32352
 O200 O 0.08329 0.26867 0.37536
 O201 O 0.22058 0.32302 0.37585
 O202 O 0.22912 0.37542 0.41889
 O203 O 0.17648 0.37509 0.27919
 O204 O 0.12522 0.41991 0.27228
 Zr205 Zr 0.12632 0.37382 0.30883
 O206 O 0.09161 0.40827 0.34071
 Zr207 Zr 0.19133 0.37340 0.37411
 O208 O 0.15955 0.40842 0.40830
 Zr209 Zr 0.12599 0.30865 0.37402
 O210 O 0.09156 0.34054 0.40875
 Zr211 Zr 0.12404 0.44117 0.37602
 O212 O 0.15928 0.40949 0.34135
 Zr213 Zr 0.05887 0.37614 0.37631
 O214 O 0.09046 0.34124 0.34135
 Zr215 Zr 0.12403 0.37624 0.44131
 O216 O 0.15880 0.34079 0.40991
 O217 O 0.16051 0.33923 0.33971
 O218 O 0.08938 0.41081 0.41085
 C219 C 0.12355 0.28997 0.28952
 C220 C 0.21027 0.37658 0.28994
 C221 C 0.20976 0.28919 0.37693
 C222 C 0.12366 0.46087 0.45963
 C223 C 0.04034 0.46051 0.37731
 C224 C 0.04006 0.37664 0.46036
 H225 H 0.07648 0.42381 0.32398
 H226 H 0.07634 0.32377 0.42412
 H227 H 0.17634 0.32337 0.32388
 H228 H 0.17618 0.42408 0.42339
 H229 H 0.18403 0.47551 0.35807
 H230 H 0.22525 0.43561 0.38363
 H231 H 0.02300 0.31629 0.39368
 H232 H 0.06389 0.27744 0.35810
 H233 H 0.11786 0.50247 0.33831
 H234 H 0.13243 0.41147 0.24709
 H235 H 0.10731 0.31627 0.47727
 H236 H 0.14088 0.27710 0.43629
 H237 H 0.06364 0.35646 0.27901
 H238 H 0.02336 0.39329 0.31616
 H239 H 0.22173 0.35575 0.43651
 H240 H 0.18371 0.39412 0.47716
 O241 O 0.62480 0.82361 0.27821
 O242 O 0.58327 0.87217 0.26841
 O243 O 0.72085 0.87640 0.32345
 O244 O 0.73434 0.91295 0.37187
 O245 O 0.67619 0.77860 0.37570
 O246 O 0.62482 0.76798 0.41601
 O247 O 0.62314 0.97155 0.42495
 O248 O 0.66613 0.98087 0.37822
 O249 O 0.52899 0.92566 0.37632
 O250 O 0.51724 0.87310 0.33452
 O251 O 0.57367 0.87624 0.47069
 O252 O 0.62656 0.83493 0.48259
 O253 O 0.62311 0.92694 0.46970
 O254 O 0.66591 0.87399 0.48165
 O255 O 0.52910 0.87569 0.42617
 O256 O 0.51861 0.83274 0.37277
 O257 O 0.57331 0.97043 0.37728
 O258 O 0.62179 0.97656 0.32869
 O259 O 0.62416 0.77909 0.32313
 O260 O 0.58365 0.76824 0.37516
 O261 O 0.72066 0.82327 0.37541
 O262 O 0.72891 0.87582 0.41844
 O263 O 0.67639 0.87487 0.27873
 O264 O 0.62486 0.91967 0.27190
 Zr265 Zr 0.62616 0.87354 0.30838
 O266 O 0.59115 0.90771 0.34024
 Zr267 Zr 0.69114 0.87352 0.37365
 O268 O 0.65913 0.90841 0.40778
 Zr269 Zr 0.62616 0.80841 0.37366
 O270 O 0.59157 0.84010 0.40843
 Zr271 Zr 0.62340 0.94087 0.37544
 O272 O 0.65892 0.90942 0.34084
 Zr273 Zr 0.55865 0.87542 0.37594
 O274 O 0.59047 0.84077 0.34094
 Zr275 Zr 0.62381 0.87610 0.44090
 O276 O 0.65878 0.84080 0.40951
 O277 O 0.66050 0.83916 0.33931
 O278 O 0.58896 0.91036 0.41036
 C279 C 0.62371 0.78973 0.28913
 C280 C 0.71020 0.87643 0.28947
 C281 C 0.71002 0.78938 0.37638
 C282 C 0.62295 0.96085 0.45891
 C283 C 0.53955 0.95959 0.37708
 C284 C 0.53979 0.87608 0.46005
 H285 H 0.57589 0.92314 0.32352
 H286 H 0.57647 0.82327 0.42384
 H287 H 0.67639 0.82335 0.32348
 H288 H 0.67566 0.92422 0.42283
 H289 H 0.68312 0.97559 0.35731
 H290 H 0.72462 0.93600 0.38304
 H291 H 0.52308 0.81544 0.39356
 H292 H 0.56426 0.77679 0.35778
 H293 H 0.61661 1.00204 0.33764
 H294 H 0.63228 0.91132 0.24674
 H295 H 0.60755 0.81607 0.47695
 H296 H 0.64129 0.77705 0.43596
 H297 H 0.56351 0.85613 0.27857
 H298 H 0.52293 0.89234 0.31585
 H299 H 0.72164 0.85609 0.43606
 H300 H 0.68336 0.89450 0.47671
 O301 O 0.62519 0.67533 0.22094
 O302 O 0.58372 0.62682 0.23081
 O303 O 0.72121 0.62229 0.17537
 O304 O 0.73470 0.58588 0.12685
 O305 O 0.67663 0.72031 0.12331
 O306 O 0.62515 0.73101 0.08313
 O307 O 0.62326 0.52746 0.07410
 O308 O 0.66634 0.51798 0.12063
 O309 O 0.52924 0.57347 0.12323
 O310 O 0.51770 0.62615 0.16507
 O311 O 0.57385 0.62306 0.02866
 O312 O 0.62677 0.66406 0.01656
 O313 O 0.62322 0.57209 0.02942
 O314 O 0.66605 0.62491 0.01737
 O315 O 0.52936 0.62359 0.07333
 O316 O 0.51887 0.66635 0.12672
 O317 O 0.57354 0.52861 0.12215
 O318 O 0.62225 0.52240 0.17042
 O319 O 0.62453 0.71987 0.17604
 O320 O 0.58412 0.73090 0.12411
 O321 O 0.72107 0.67554 0.12340
 O322 O 0.72914 0.62295 0.08032
 O323 O 0.67680 0.62395 0.22021
 O324 O 0.62534 0.57929 0.22721
 Zr325 Zr 0.62657 0.62542 0.19072
 O326 O 0.59151 0.59129 0.15900
 Zr327 Zr 0.69148 0.62535 0.12526
 O328 O 0.65938 0.59050 0.09124
 Zr329 Zr 0.62656 0.69058 0.12550
 O330 O 0.59188 0.65895 0.09087
 Zr331 Zr 0.62366 0.55809 0.12366
 O332 O 0.65926 0.58949 0.15813
 Zr333 Zr 0.55897 0.62367 0.12344
 O334 O 0.59088 0.65828 0.15830
 Zr335 Zr 0.62404 0.62290 0.05826
 O336 O 0.65908 0.65814 0.08952
 O337 O 0.66091 0.65976 0.15974
 O338 O 0.58918 0.58868 0.08886
 C339 C 0.62404 0.70921 0.21004
 C340 C 0.71058 0.62225 0.20937
 C341 C 0.71046 0.70947 0.12245
 C342 C 0.62305 0.53815 0.04013
 C343 C 0.53976 0.53950 0.12253
 C344 C 0.54001 0.62334 0.03943
 H345 H 0.57629 0.57590 0.17578
 H346 H 0.57677 0.67583 0.07553
 H347 H 0.67683 0.67553 0.17552
 H348 H 0.67587 0.57467 0.07613
 H349 H 0.68343 0.52322 0.14143
 H350 H 0.72492 0.56281 0.11581
 H351 H 0.52347 0.68380 0.10609
 H352 H 0.56467 0.72235 0.14145
 H353 H 0.61701 0.49694 0.16151
 H354 H 0.63273 0.58763 0.25237
 H355 H 0.60792 0.68307 0.02238
 H356 H 0.64170 0.72197 0.06319
 H357 H 0.56397 0.64293 0.22075
 H358 H 0.52332 0.60679 0.18364
 H359 H 0.72188 0.64272 0.06274
 H360 H 0.68350 0.60436 0.02224
 O361 O 0.37465 0.82512 0.72159
 O362 O 0.41629 0.87376 0.73117
 O363 O 0.27863 0.87802 0.67630
 O364 O 0.26520 0.91448 0.62781
 O365 O 0.32321 0.77993 0.62411
 O366 O 0.37468 0.76908 0.58390
 O367 O 0.37646 0.97252 0.57415
 O368 O 0.33341 0.98220 0.62083
 O369 O 0.47055 0.92675 0.62351
 O370 O 0.48221 0.87426 0.66518
 O371 O 0.42584 0.87684 0.52897
 O372 O 0.37273 0.83548 0.51738
 O373 O 0.37633 0.92765 0.52961
 O374 O 0.33372 0.87491 0.51785
 O375 O 0.47040 0.87653 0.57351
 O376 O 0.48089 0.83385 0.62699
 O377 O 0.42626 0.97161 0.62233
 O378 O 0.37755 0.97807 0.67053
 O379 O 0.37524 0.78045 0.67675
 O380 O 0.41574 0.76936 0.62483
 O381 O 0.27875 0.82468 0.62433
 O382 O 0.27049 0.87706 0.58130
 O383 O 0.32311 0.87658 0.72099
 O384 O 0.37459 0.92126 0.72768
 Zr385 Zr 0.37331 0.87501 0.69128
 O386 O 0.40828 0.90903 0.65929
 Zr387 Zr 0.30831 0.87489 0.62604
 O388 O 0.34035 0.90955 0.59175
 Zr389 Zr 0.37327 0.80965 0.62618
 O390 O 0.40790 0.84114 0.59135
 Zr391 Zr 0.37612 0.94214 0.62391
 O392 O 0.34062 0.91086 0.65867
 Zr393 Zr 0.44083 0.87656 0.62372
 O394 O 0.40899 0.84207 0.65880
 Zr395 Zr 0.37568 0.87703 0.55873
 O396 O 0.34067 0.84197 0.59025
 O397 O 0.33894 0.84058 0.66047
 O398 O 0.41058 0.91140 0.58912
 C399 C 0.37573 0.79118 0.71074
 C400 C 0.28930 0.87819 0.71029
 C401 C 0.28938 0.79076 0.62336
 C402 C 0.37655 0.96164 0.54020
 C403 C 0.46003 0.96072 0.62279
 C404 C 0.45971 0.87666 0.53962
 H405 H 0.42351 0.92450 0.67600
 H406 H 0.42300 0.82421 0.57600
 H407 H 0.32304 0.82485 0.67632
 H408 H 0.32384 0.92530 0.57664
 H409 H 0.31634 0.97705 0.64170
 H410 H 0.27484 0.93736 0.61628
 H411 H 0.47636 0.81642 0.60631
 H412 H 0.43518 0.77799 0.64212
 H413 H 0.38271 1.00350 0.66151
 H414 H 0.36731 0.91298 0.75289
 H415 H 0.39204 0.81684 0.52285
 H416 H 0.35815 0.77806 0.56396
 H417 H 0.43588 0.85737 0.72118
 H418 H 0.47638 0.89341 0.68394
 H419 H 0.27783 0.85736 0.56364
 H420 H 0.31603 0.89520 0.52296
 O421 O 0.87560 0.32416 0.72156
 O422 O 0.91701 0.37272 0.73137
 O423 O 0.77939 0.37694 0.67645
 O424 O 0.76555 0.41312 0.62799
 O425 O 0.82420 0.27899 0.62399
 O426 O 0.87571 0.26851 0.58367
 O427 O 0.87659 0.47203 0.57504
 O428 O 0.83372 0.48138 0.62184
 O429 O 0.97102 0.42640 0.62361
 O430 O 0.98285 0.37373 0.66539
 O431 O 0.92631 0.37678 0.52922
 O432 O 0.87364 0.33546 0.51724
 O433 O 0.87667 0.42738 0.53028
 O434 O 0.83410 0.37435 0.51833
 O435 O 0.97094 0.37636 0.57369
 O436 O 0.98178 0.33358 0.62692
 O437 O 0.92656 0.47110 0.62272
 O438 O 0.87803 0.47709 0.67135
 O439 O 0.87632 0.27963 0.67659
 O440 O 0.91674 0.26875 0.62457
 O441 O 0.77960 0.32359 0.62440
 O442 O 0.77124 0.37623 0.58144
 O443 O 0.82391 0.37544 0.72112
 O444 O 0.87528 0.42017 0.72804
 Zr445 Zr 0.87407 0.37406 0.69145
 O446 O 0.90893 0.40834 0.65967
 Zr447 Zr 0.80900 0.37390 0.62624
 O448 O 0.84087 0.40888 0.59219
 Zr449 Zr 0.87416 0.30891 0.62612
 O450 O 0.90864 0.34068 0.59142
 Zr451 Zr 0.87655 0.44142 0.62453
 O452 O 0.84115 0.40987 0.65906
 Zr453 Zr 0.94149 0.37609 0.62391
 O454 O 0.90979 0.34134 0.65883
 Zr455 Zr 0.87623 0.37659 0.55902
 O456 O 0.84140 0.34121 0.59033
 O457 O 0.83976 0.33960 0.66054
 O458 O 0.91103 0.41095 0.58954
 C459 C 0.87680 0.29029 0.71059
 C460 C 0.79011 0.37706 0.71040
 C461 C 0.79033 0.28971 0.62329
 C462 C 0.87671 0.46128 0.54109
 C463 C 0.96038 0.46034 0.62293
 C464 C 0.96018 0.37666 0.53984
 H465 H 0.92414 0.42378 0.67641
 H466 H 0.92379 0.32387 0.57598
 H467 H 0.82392 0.32378 0.67635
 H468 H 0.82426 0.42464 0.57719
 H469 H 0.81673 0.47606 0.64273
 H470 H 0.77531 0.43634 0.61726
 H471 H 0.97718 0.31612 0.60628
 H472 H 0.93620 0.27740 0.64182
 H473 H 0.88317 0.50257 0.66246
 H474 H 0.86798 0.41179 0.75320
 H475 H 0.89264 0.31656 0.52292
 H476 H 0.85909 0.27748 0.56379
 H477 H 0.93679 0.35669 0.72117
 H478 H 0.97724 0.39311 0.68397
 H479 H 0.77844 0.35640 0.56386
 H480 H 0.81659 0.39483 0.52328
 O481 O 0.77880 0.87466 0.17515
 O482 O 0.76913 0.91600 0.12638
 O483 O 0.82439 0.77821 0.12254
 O484 O 0.87278 0.76454 0.08626
 O485 O 0.87615 0.82328 0.22050
 O486 O 0.91616 0.87492 0.23115
 O487 O 0.92570 0.87575 0.02741
 O488 O 0.87926 0.83246 0.01813
 O489 O 0.87659 0.97006 0.07279
 O490 O 0.83490 0.98206 0.12546
 O491 O 0.97094 0.92561 0.12274
 O492 O 0.98286 0.87297 0.16421
 O493 O 0.97019 0.87593 0.07216
 O494 O 0.98194 0.83321 0.12541
 O495 O 0.92645 0.97025 0.12288
 O496 O 0.87318 0.98108 0.16569
 O497 O 0.87774 0.92544 0.02816
 O498 O 0.82961 0.87675 0.02213
 O499 O 0.82349 0.87553 0.21982
 O500 O 0.87532 0.91605 0.23069
 O501 O 0.87608 0.77859 0.17588
 O502 O 0.91917 0.77022 0.12350
 O503 O 0.77966 0.82271 0.12391
 O504 O 0.77277 0.87414 0.07902
 Zr505 Zr 0.80909 0.87304 0.12525
 O506 O 0.84089 0.90791 0.09097
 Zr507 Zr 0.87437 0.80800 0.12558
 O508 O 0.90845 0.83988 0.09063
 Zr509 Zr 0.87401 0.87334 0.19057
 O510 O 0.90872 0.90785 0.15880
 Zr511 Zr 0.87618 0.87548 0.05797
 O512 O 0.84164 0.84009 0.08950
 Zr513 Zr 0.87637 0.94066 0.12324
 O514 O 0.84143 0.90895 0.15798
 Zr515 Zr 0.94130 0.87542 0.12296
 O516 O 0.90996 0.84057 0.15834
 O517 O 0.83991 0.83879 0.15982
 O518 O 0.91087 0.91015 0.08846
 C519 C 0.78957 0.87598 0.20909
 C520 C 0.79048 0.78887 0.12237
 C521 C 0.87699 0.78936 0.20976
 C522 C 0.95957 0.87600 0.03818
 C523 C 0.87733 0.95930 0.03887
 C524 C 0.96027 0.95953 0.12268
 H525 H 0.82419 0.92309 0.07545
 H526 H 0.92402 0.92307 0.17562
 H527 H 0.82410 0.82294 0.17565
 H528 H 0.92355 0.82327 0.07491
 H529 H 0.85843 0.81544 0.02340
 H530 H 0.88409 0.77412 0.06322
 H531 H 0.89378 0.97657 0.18317
 H532 H 0.85813 0.93553 0.22193
 H533 H 0.83858 0.88171 -0.00338
 H534 H 0.74766 0.86673 0.08735
 H535 H 0.97701 0.89194 0.18313
 H536 H 0.93612 0.85839 0.22217
 H537 H 0.77916 0.93583 0.14244
 H538 H 0.81633 0.97629 0.10617
 H539 H 0.93667 0.77759 0.14327
 H540 H 0.97730 0.81580 0.10475
 O541 O 0.37495 0.32348 0.22146
 O542 O 0.41649 0.37222 0.23126
 O543 O 0.27906 0.37629 0.17575
 O544 O 0.26547 0.41234 0.12711
 O545 O 0.32419 0.27819 0.12381
 O546 O 0.37588 0.26772 0.08364
 O547 O 0.37657 0.47117 0.07435
 O548 O 0.33342 0.48054 0.12105
 O549 O 0.47082 0.42576 0.12384
 O550 O 0.48238 0.37321 0.16589
 O551 O 0.42684 0.37601 0.02933
 O552 O 0.37425 0.33433 0.01716
 O553 O 0.37693 0.42637 0.02974
 O554 O 0.33469 0.37323 0.01775
 O555 O 0.47116 0.37569 0.07412
 O556 O 0.48174 0.33303 0.12737
 O557 O 0.42633 0.47042 0.12237
 O558 O 0.37756 0.47657 0.17071
 O559 O 0.37596 0.27888 0.17656
 O560 O 0.41677 0.26806 0.12480
 O561 O 0.27956 0.32276 0.12396
 O562 O 0.27132 0.37512 0.08071
 O563 O 0.32335 0.37487 0.22065
 O564 O 0.37461 0.41954 0.22781
 Zr565 Zr 0.37363 0.37342 0.19124
 O566 O 0.40853 0.40774 0.15952
 Zr567 Zr 0.30890 0.37310 0.12567
 O568 O 0.34089 0.40800 0.09163
 Zr569 Zr 0.37412 0.30815 0.12604
 O570 O 0.40875 0.33990 0.09147
 Zr571 Zr 0.37634 0.44070 0.12404
 O572 O 0.34088 0.40915 0.15854
 Zr573 Zr 0.44135 0.37543 0.12409
 O574 O 0.40955 0.34066 0.15889
 Zr575 Zr 0.37651 0.37569 0.05876
 O576 O 0.34153 0.34036 0.09000
 O577 O 0.33952 0.33890 0.16021
 O578 O 0.41108 0.41016 0.08938
 C579 C 0.37620 0.28955 0.21057
 C580 C 0.28961 0.37648 0.20976
 C581 C 0.29032 0.28889 0.12303
 C582 C 0.37685 0.46034 0.04039
 C583 C 0.46015 0.45968 0.12288
 C584 C 0.46063 0.37599 0.04021
 H585 H 0.42362 0.42327 0.17629
 H586 H 0.42404 0.32309 0.07617
 H587 H 0.32361 0.32312 0.17600
 H588 H 0.32434 0.42368 0.07648
 H589 H 0.31635 0.47522 0.14187
 H590 H 0.27516 0.43543 0.11606
 H591 H 0.47721 0.31545 0.10682
 H592 H 0.43609 0.27674 0.14219
 H593 H 0.38269 0.50202 0.16172
 H594 H 0.36731 0.41114 0.25297
 H595 H 0.39345 0.31565 0.02287
 H596 H 0.35934 0.27666 0.06368
 H597 H 0.43615 0.35587 0.22134
 H598 H 0.47667 0.39267 0.18435
 H599 H 0.27869 0.35529 0.06321
 H600 H 0.31693 0.39350 0.02271
 O601 O 0.37461 0.67660 0.77883
 O602 O 0.41620 0.62796 0.76892
 O603 O 0.27865 0.62359 0.82431
 O604 O 0.26516 0.58724 0.87278
 O605 O 0.32326 0.72159 0.87650
 O606 O 0.37479 0.73210 0.91677
 O607 O 0.37650 0.52862 0.92562
 O608 O 0.33345 0.51920 0.87895
 O609 O 0.47062 0.57438 0.87629
 O610 O 0.48210 0.62710 0.83456
 O611 O 0.42602 0.62389 0.97101
 O612 O 0.37321 0.66531 0.98312
 O613 O 0.37644 0.57332 0.97033
 O614 O 0.33382 0.62628 0.98233
 O615 O 0.47051 0.62432 0.92634
 O616 O 0.48106 0.66721 0.87312
 O617 O 0.42632 0.52960 0.87749
 O618 O 0.37760 0.52346 0.82922
 O619 O 0.37531 0.72112 0.82380
 O620 O 0.41581 0.73197 0.87569
 O621 O 0.27881 0.67690 0.87627
 O622 O 0.27072 0.62436 0.91936
 O623 O 0.32305 0.62519 0.77946
 O624 O 0.37452 0.58052 0.77234
 Zr625 Zr 0.37330 0.62661 0.80895
 O626 O 0.40831 0.59235 0.84065
 Zr627 Zr 0.30839 0.62664 0.87442
 O628 O 0.34046 0.59173 0.90841
 Zr629 Zr 0.37334 0.69175 0.87428
 O630 O 0.40802 0.66002 0.90885
 Zr631 Zr 0.37618 0.55919 0.87600
 O632 O 0.34063 0.59071 0.84153
 Zr633 Zr 0.44090 0.62464 0.87624
 O634 O 0.40901 0.65937 0.84144
 Zr635 Zr 0.37583 0.62406 0.94143
 O636 O 0.34079 0.65937 0.91021
 O637 O 0.33897 0.66099 0.84000
 O638 O 0.41067 0.58975 0.91080
 C639 C 0.37574 0.71050 0.78978
 C640 C 0.28927 0.62353 0.79030
 C641 C 0.28942 0.71082 0.87726
 C642 C 0.37662 0.53937 0.95960
 C643 C 0.46011 0.54041 0.87704
 C644 C 0.45986 0.62398 0.96024
 H645 H 0.42351 0.57692 0.82385
 H646 H 0.42317 0.67684 0.92422
 H647 H 0.32305 0.67679 0.82423
 H648 H 0.32395 0.57595 0.92351
 H649 H 0.31637 0.52450 0.85815
 H650 H 0.27491 0.56418 0.88384
 H651 H 0.47648 0.68463 0.89381
 H652 H 0.43527 0.72332 0.85839
 H653 H 0.38281 0.49799 0.83813
 H654 H 0.36720 0.58893 0.74719
 H655 H 0.39227 0.68412 0.97743
 H656 H 0.35820 0.72310 0.93666
 H657 H 0.43585 0.64421 0.77895
 H658 H 0.47645 0.60778 0.81595
 H659 H 0.27794 0.64418 0.93690
 H660 H 0.31625 0.60588 0.97736
 O661 O 0.12439 0.67676 0.72146
 O662 O 0.08293 0.62806 0.73119
 O663 O 0.22062 0.62400 0.67614
 O664 O 0.23450 0.58795 0.62754
 O665 O 0.17559 0.72201 0.62398
 O666 O 0.12409 0.73239 0.58369
 O667 O 0.12357 0.52897 0.57439
 O668 O 0.16654 0.51963 0.62114
 O669 O 0.02909 0.57430 0.62354
 O670 O 0.01713 0.62690 0.66529
 O671 O 0.07369 0.62402 0.52903
 O672 O 0.12632 0.66574 0.51722
 O673 O 0.12351 0.57371 0.52979
 O674 O 0.16586 0.62680 0.51797
 O675 O 0.02906 0.62424 0.57357
 O676 O 0.01816 0.66711 0.62690
 O677 O 0.07364 0.52969 0.62235
 O678 O 0.12222 0.52369 0.67076
 O679 O 0.12353 0.72130 0.67657
 O680 O 0.08301 0.73204 0.62470
 O681 O 0.22028 0.67749 0.62430
 O682 O 0.22881 0.62502 0.58112
 O683 O 0.17610 0.62539 0.72088
 O684 O 0.12473 0.58068 0.72777
 Zr685 Zr 0.12593 0.62680 0.69126
 O686 O 0.09118 0.59247 0.65938
 Zr687 Zr 0.19100 0.62712 0.62596
 O688 O 0.15922 0.59215 0.59180
 Zr689 Zr 0.12570 0.69199 0.62607
 O690 O 0.09129 0.66019 0.59132
 Zr691 Zr 0.12360 0.55947 0.62407
 O692 O 0.15888 0.59106 0.65870
 Zr693 Zr 0.05852 0.62467 0.62377
 O694 O 0.09012 0.65946 0.65875
 Zr695 Zr 0.12378 0.62441 0.55877
 O696 O 0.15854 0.65979 0.59017
 O697 O 0.16016 0.66133 0.66038
 O698 O 0.08905 0.58993 0.58923
 C699 C 0.12313 0.71066 0.71057
 C700 C 0.20991 0.62380 0.71012
 C701 C 0.20948 0.71135 0.62329
 C702 C 0.12348 0.53978 0.54045
 C703 C 0.03980 0.54038 0.62274
 C704 C 0.03982 0.62396 0.53970
 H705 H 0.07600 0.57696 0.67611
 H706 H 0.07609 0.67697 0.57595
 H707 H 0.17598 0.67714 0.67622
 H708 H 0.17586 0.57645 0.57672
 H709 H 0.18351 0.52495 0.64202
 H710 H 0.22484 0.56479 0.61657
 H711 H 0.02263 0.68451 0.60619
 H712 H 0.06357 0.72330 0.64196
 H713 H 0.11718 0.49821 0.66178
 H714 H 0.13198 0.58907 0.75295
 H715 H 0.10702 0.68437 0.52279
 H716 H 0.14074 0.72346 0.56378
 H717 H 0.06323 0.64423 0.72113
 H718 H 0.02293 0.60770 0.68396
 H719 H 0.22154 0.64484 0.56361
 H720 H 0.18355 0.60649 0.52297
 O721 O 0.12474 0.17535 0.22143
 O722 O 0.08308 0.12677 0.23101
 O723 O 0.22088 0.12230 0.17633
 O724 O 0.23458 0.08591 0.12784
 O725 O 0.17649 0.22037 0.12399
 O726 O 0.12507 0.23107 0.08369
 O727 O 0.12330 0.02770 0.07417
 O728 O 0.16639 0.01811 0.12085
 O729 O 0.02922 0.07343 0.12332
 O730 O 0.01746 0.12608 0.16507
 O731 O 0.07419 0.12320 0.02888
 O732 O 0.12730 0.16461 0.01733
 O733 O 0.12354 0.07248 0.02963
 O734 O 0.16630 0.12513 0.01784
 O735 O 0.02950 0.12350 0.07336
 O736 O 0.01871 0.16629 0.12670
 O737 O 0.07357 0.02861 0.12227
 O738 O 0.12215 0.02231 0.17056
 O739 O 0.12427 0.21993 0.17656
 O740 O 0.08398 0.23095 0.12463
 O741 O 0.22096 0.17563 0.12433
 O742 O 0.22934 0.12315 0.08132
 O743 O 0.17626 0.12385 0.22096
 O744 O 0.12478 0.07926 0.22765
 Zr745 Zr 0.12619 0.12541 0.19119
 O746 O 0.09134 0.09127 0.15922
 Zr747 Zr 0.19140 0.12542 0.12604
 O748 O 0.15948 0.09067 0.09174
 Zr749 Zr 0.12642 0.19064 0.12604
 O750 O 0.09189 0.15905 0.09123
 Zr751 Zr 0.12365 0.05815 0.12391
 O752 O 0.15902 0.08951 0.15867
 Zr753 Zr 0.05889 0.12367 0.12360
 O754 O 0.09061 0.15828 0.15864
 Zr755 Zr 0.12425 0.12313 0.05870
 O756 O 0.15916 0.15827 0.09019
 O757 O 0.16066 0.15979 0.16040
 O758 O 0.08928 0.08881 0.08907
 C759 C 0.12368 0.20926 0.21055
 C760 C 0.21009 0.12217 0.21029
 C761 C 0.21032 0.20954 0.12328
 C762 C 0.12322 0.03852 0.04022
 C763 C 0.03978 0.03946 0.12262
 C764 C 0.04030 0.12330 0.03950
 H765 H 0.07608 0.07583 0.17592
 H766 H 0.07681 0.17594 0.07585
 H767 H 0.17652 0.17554 0.17627
 H768 H 0.17603 0.07488 0.07665
 H769 H 0.18339 0.02328 0.14174
 H770 H 0.22496 0.06296 0.11643
 H771 H 0.02336 0.18374 0.10608
 H772 H 0.06443 0.22228 0.14178
 H773 H 0.11704 -0.00314 0.16155
 H774 H 0.13196 0.08761 0.25287
 H775 H 0.10791 0.18321 0.02271
 H776 H 0.14173 0.22210 0.06381
 H777 H 0.06350 0.14310 0.22096
 H778 H 0.02311 0.10681 0.18371
 H779 H 0.22204 0.14282 0.06365
 H780 H 0.18393 0.10479 0.02294
 O781 O 0.72176 0.37590 0.82467
 O782 O 0.73139 0.41721 0.87344
 O783 O 0.67652 0.27936 0.87697
 O784 O 0.62817 0.26568 0.91333
 O785 O 0.62461 0.32442 0.77915
 O786 O 0.58439 0.37608 0.76866
 O787 O 0.57493 0.37654 0.97223
 O788 O 0.62154 0.33355 0.98153
 O789 O 0.62366 0.47120 0.92722
 O790 O 0.66533 0.48332 0.87457
 O791 O 0.52946 0.42659 0.87701
 O792 O 0.51788 0.37391 0.83533
 O793 O 0.53045 0.37671 0.92742
 O794 O 0.51872 0.33428 0.87415
 O795 O 0.57378 0.47132 0.87698
 O796 O 0.62715 0.48227 0.83429
 O797 O 0.62264 0.42651 0.97173
 O798 O 0.67100 0.37796 0.97760
 O799 O 0.67708 0.37671 0.77999
 O800 O 0.62527 0.41715 0.76907
 O801 O 0.62485 0.27970 0.82368
 O802 O 0.58178 0.27123 0.87604
 O803 O 0.72111 0.32393 0.87577
 O804 O 0.72779 0.37540 0.92080
 Zr805 Zr 0.69151 0.37424 0.87454
 O806 O 0.65960 0.40910 0.90884
 Zr807 Zr 0.62646 0.30910 0.87404
 O808 O 0.59229 0.34096 0.90897
 Zr809 Zr 0.62659 0.37448 0.80918
 O810 O 0.59181 0.40898 0.84098
 Zr811 Zr 0.62444 0.37658 0.94176
 O812 O 0.65907 0.34122 0.91020
 Zr813 Zr 0.62400 0.44182 0.87667
 O814 O 0.65904 0.41012 0.84188
 Zr815 Zr 0.55933 0.37646 0.87669
 O816 O 0.59076 0.34162 0.84131
 O817 O 0.66081 0.33997 0.83987
 O818 O 0.58960 0.41122 0.91134
 C819 C 0.71096 0.37717 0.79074
 C820 C 0.71041 0.29005 0.87718
 C821 C 0.62389 0.29048 0.78981
 C822 C 0.54110 0.37664 0.96137
 C823 C 0.62295 0.46041 0.96114
 C824 C 0.53998 0.46054 0.87711
 H825 H 0.67625 0.42429 0.92440
 H826 H 0.57647 0.42419 0.82417
 H827 H 0.67665 0.32414 0.82402
 H828 H 0.57724 0.32429 0.92464
 H829 H 0.64243 0.31658 0.97622
 H830 H 0.61680 0.27525 0.93636
 H831 H 0.60659 0.47774 0.81678
 H832 H 0.64227 0.43672 0.77796
 H833 H 0.66201 0.38289 1.00313
 H834 H 0.75291 0.36798 0.91249
 H835 H 0.52357 0.39305 0.81656
 H836 H 0.56456 0.35938 0.77751
 H837 H 0.72124 0.43710 0.85753
 H838 H 0.68393 0.47754 0.89382
 H839 H 0.56427 0.27856 0.85626
 H840 H 0.52361 0.31664 0.89456
 O841 O 0.12435 0.82517 0.77892
 O842 O 0.08292 0.87396 0.76927
 O843 O 0.22035 0.87771 0.82472
 O844 O 0.23368 0.91390 0.87348
 O845 O 0.17537 0.77957 0.87638
 O846 O 0.12367 0.76898 0.91650
 O847 O 0.12257 0.97227 0.92674
 O848 O 0.16561 0.98190 0.88018
 O849 O 0.02833 0.92712 0.87685
 O850 O 0.01683 0.87464 0.83479
 O851 O 0.07239 0.87678 0.97135
 O852 O 0.12538 0.83507 0.98302
 O853 O 0.12231 0.92731 0.97112
 O854 O 0.16438 0.87439 0.98305
 O855 O 0.02806 0.87671 0.92660
 O856 O 0.01765 0.83431 0.87300
 O857 O 0.07275 0.97176 0.87844
 O858 O 0.12162 0.97804 0.83037
 O859 O 0.12345 0.78044 0.82362
 O860 O 0.08287 0.76932 0.87529
 O861 O 0.21993 0.82415 0.87644
 O862 O 0.22811 0.87637 0.91976
 O863 O 0.17604 0.87648 0.77984
 O864 O 0.12469 0.92130 0.77306
 Zr865 Zr 0.12573 0.87500 0.80934
 O866 O 0.09070 0.90915 0.84125
 Zr867 Zr 0.19046 0.87447 0.87484
 O868 O 0.15833 0.90918 0.90909
 Zr869 Zr 0.12536 0.80952 0.87425
 O870 O 0.09059 0.84110 0.90896
 Zr871 Zr 0.12280 0.94202 0.87688
 O872 O 0.15838 0.91065 0.84220
 Zr873 Zr 0.05790 0.87675 0.87656
 O874 O 0.08985 0.84215 0.84159
 Zr875 Zr 0.12275 0.87677 0.94185
 O876 O 0.15788 0.84165 0.91041
 O877 O 0.15990 0.84036 0.84018
 O878 O 0.08809 0.91139 0.91144
 C879 C 0.12311 0.79123 0.78967
 C880 C 0.20981 0.87801 0.79068
 C881 C 0.20924 0.79026 0.87727
 C882 C 0.12239 0.96131 0.96063
 C883 C 0.03893 0.96105 0.87777
 C884 C 0.03857 0.87673 0.96053
 H885 H 0.07560 0.92472 0.82453
 H886 H 0.07536 0.82421 0.92417
 H887 H 0.17583 0.82462 0.82432
 H888 H 0.17485 0.92481 0.92432
 H889 H 0.18275 0.97667 0.85937
 H890 H 0.22401 0.93681 0.88498
 H891 H 0.02216 0.81669 0.89350
 H892 H 0.06342 0.77813 0.85812
 H893 H 0.11649 1.00348 0.83945
 H894 H 0.13203 0.91303 0.74785
 H895 H 0.10594 0.81661 0.97747
 H896 H 0.14028 0.77781 0.93644
 H897 H 0.06321 0.85770 0.77916
 H898 H 0.02261 0.89403 0.81631
 H899 H 0.22066 0.85662 0.93728
 H900 H 0.18243 0.89431 0.97783
 O901 O 0.72168 0.12454 0.67552
 O902 O 0.73117 0.08311 0.62671
 O903 O 0.67645 0.22110 0.62321
 O904 O 0.62813 0.23494 0.58697
 O905 O 0.62455 0.17629 0.72117
 O906 O 0.58433 0.12473 0.73180
 O907 O 0.57470 0.12395 0.52818
 O908 O 0.62130 0.16703 0.51878
 O909 O 0.62355 0.02942 0.57323
 O910 O 0.66518 0.01730 0.62588
 O911 O 0.52933 0.07431 0.62344
 O912 O 0.51772 0.12696 0.66515
 O913 O 0.53025 0.12402 0.57308
 O914 O 0.51871 0.16671 0.62638
 O915 O 0.57363 0.02948 0.62336
 O916 O 0.62684 0.01837 0.66611
 O917 O 0.62251 0.07405 0.52867
 O918 O 0.67081 0.12258 0.52263
 O919 O 0.67702 0.12387 0.72029
 O920 O 0.62512 0.08352 0.73129
 O921 O 0.62479 0.22096 0.67659
 O922 O 0.58171 0.22948 0.62430
 O923 O 0.72101 0.17643 0.62439
 O924 O 0.72768 0.12499 0.57939
 Zr925 Zr 0.69138 0.12622 0.62570
 O926 O 0.65944 0.09145 0.59145
 Zr927 Zr 0.62636 0.19152 0.62626
 O928 O 0.59215 0.15975 0.59137
 Zr929 Zr 0.62650 0.12620 0.69118
 O930 O 0.59167 0.09178 0.65944
 Zr931 Zr 0.62427 0.12402 0.55857
 O932 O 0.65894 0.15929 0.59007
 Zr933 Zr 0.62385 0.05884 0.62373
 O934 O 0.65891 0.09045 0.65846
 Zr935 Zr 0.55920 0.12436 0.62375
 O936 O 0.59067 0.15911 0.65908
 O937 O 0.66071 0.16059 0.66039
 O938 O 0.58945 0.08950 0.58910
 C939 C 0.71091 0.12332 0.70949
 C940 C 0.71033 0.21032 0.62297
 C941 C 0.62384 0.21022 0.71048
 C942 C 0.54087 0.12389 0.53909
 C943 C 0.62284 0.04017 0.53931
 C944 C 0.53985 0.04035 0.62324
 H945 H 0.67608 0.07622 0.57587
 H946 H 0.57631 0.07661 0.67627
 H947 H 0.67657 0.17639 0.67620
 H948 H 0.57711 0.17642 0.57571
 H949 H 0.64219 0.18398 0.52402
 H950 H 0.61674 0.22541 0.56396
 H951 H 0.60627 0.02298 0.68363
 H952 H 0.64212 0.06392 0.72238
 H953 H 0.66181 0.11765 0.49712
 H954 H 0.75282 0.13228 0.58768
 H955 H 0.52344 0.10785 0.68394
 H956 H 0.56446 0.14140 0.72293
 H957 H 0.72109 0.06333 0.64281
 H958 H 0.68376 0.02299 0.60656
 H959 H 0.56421 0.22222 0.64414
 H960 H 0.52345 0.18416 0.60579
 C961 C 0.37641 0.76287 0.73866
 C962 C 0.37641 0.73888 0.76193
 C963 C 0.37665 0.23725 0.26173
 C964 C 0.37676 0.26121 0.23845
 C965 C 0.62312 0.76142 0.26125
 C966 C 0.62323 0.73750 0.23793
 C967 C 0.12286 0.26161 0.26167
 C968 C 0.12290 0.23761 0.23842
 C969 C 0.12240 0.73900 0.73843
 C970 C 0.12240 0.76297 0.76172
 C971 C 0.87762 0.23810 0.76165
 C972 C 0.87759 0.26202 0.73840
 C973 C 0.76220 0.37792 0.73863
 C974 C 0.73886 0.37795 0.76249
 C975 C 0.26126 0.62277 0.76214
 C976 C 0.23787 0.62286 0.73833
 C977 C 0.26127 0.12125 0.26252
 C978 C 0.23796 0.12127 0.23861
 C979 C 0.76225 0.12240 0.76151
 C980 C 0.73886 0.12246 0.73769
 C981 C 0.73821 0.87707 0.26123
 C982 C 0.76161 0.87691 0.23737
 C983 C 0.76198 0.73810 0.37692
 C984 C 0.73818 0.76146 0.37703
 C985 C 0.76222 0.26171 0.62237
 C986 C 0.73848 0.23828 0.62225
 C987 C 0.73866 0.73739 0.12160
 C988 C 0.76241 0.76082 0.12157
 C989 C 0.26223 0.26088 0.12233
 C990 C 0.23849 0.23746 0.12242
 C991 C 0.26120 0.73879 0.87805
 C992 C 0.23740 0.76223 0.87804
 C993 C 0.26152 0.23771 0.37795
 C994 C 0.23779 0.26115 0.37784
 C995 C 0.51184 0.62349 1.01151
 C996 C 0.48803 0.62370 0.98816
 C997 C 0.48857 0.12360 0.48811
 C998 C 0.51256 0.12371 0.51129
 C999 C 0.51165 0.87632 0.48811
 C1000 C 0.48787 0.87651 0.51157
 C1001 C 1.01196 0.37677 0.48836
 C1002 C 0.98824 0.37678 0.51181
 C1003 C -0.01368 0.87632 1.01173
 C1004 C 0.01025 0.87656 0.98842
 C1005 C -0.01145 0.12326 -0.01202
 C1006 C 0.01226 0.12325 0.01144
 C1007 C 0.12280 1.01219 1.01331
 C1008 C 0.12251 0.98904 0.98917
 C1009 C 0.12350 0.48872 0.48801
 C1010 C 0.12344 0.51192 0.51207
 C1011 C 0.37693 0.48821 1.01199
 C1012 C 0.37686 0.51145 0.98795
 C1013 C 0.87673 0.51245 0.48896
 C1014 C 0.87678 0.48919 0.51288
 C1015 C 0.87749 1.01060 -0.01316
 C1016 C 0.87754 0.98722 0.01066
 C1017 C 0.62266 -0.01115 0.48714
 C1018 C 0.62261 0.01223 0.51102
 C1019 C 0.48799 1.01130 0.37783
 C1020 C 0.51149 0.98763 0.37763
 C1021 C -0.01175 -0.01232 0.12246
 C1022 C 0.01171 0.01140 0.12241
 C1023 C 0.51166 0.51148 0.12235
 C1024 C 0.48816 0.48780 0.12247
 C1025 C -0.01161 0.48847 0.62254
 C1026 C 0.01184 0.51221 0.62248
 C1027 C 0.48827 0.51233 0.87726
 C1028 C 0.51185 0.48865 0.87726
 C1029 C 0.62276 0.51167 1.01339
 C1030 C 0.62270 0.48832 0.98947
 C1031 C 0.37681 1.01260 0.48757
 C1032 C 0.37677 0.98945 0.51171
 C1033 C -0.01196 0.62342 0.48823
 C1034 C 0.01175 0.62361 0.51168
 C1035 C 0.48892 0.37630 1.01243
 C1036 C 0.51286 0.37652 0.98921
 C1037 C 0.48816 -0.01128 0.62271
 C1038 C 0.51173 0.01234 0.62289
 C1039 C -0.01086 0.51264 0.37744
 C1040 C 0.01248 0.48879 0.37752
 C1041 C -0.01265 1.01297 0.87751
 C1042 C 0.01086 0.98923 0.87780
 C1043 C 0.76192 0.62154 0.26138
 C1044 C 0.73856 0.62146 0.23754
 C1045 C 0.26130 0.87901 0.73859
 C1046 C 0.23789 0.87895 0.76247
 C1047 C 0.23820 0.37740 0.26172
 C1048 C 0.26158 0.37737 0.23789
 C1049 C 0.87776 0.73742 0.26111
 C1050 C 0.87778 0.76121 0.23771
 C1051 C 0.62313 0.26230 0.76182
 C1052 C 0.62312 0.23842 0.73845
 C1053 C 0.76228 0.23847 0.87777
 C1054 C 0.73856 0.26198 0.87788
 C1055 C 0.26123 0.76284 0.62256
 C1056 C 0.23752 0.73939 0.62254
   
