data_POSCAR
  _audit_creation_date              2014-09-24
  _audit_creation_method            'ToBaCCo'
  _symmetry_space_group_name_H-M    'P1'
  _symmetry_Int_Tables_number       1
  _symmetry_cell_setting            triclinic
  loop_
  _symmetry_equiv_pos_as_xyz
 x,y,z
_cell_length_a 24.3686
_cell_length_b 24.2356
_cell_length_c 24.2345
_cell_angle_alpha 90.009100
_cell_angle_beta 89.894800
_cell_angle_gamma 89.902100
loop_
  _atom_site_label
  _atom_site_type_symbol
  _atom_site_fract_x
  _atom_site_fract_y
  _atom_site_fract_z
C1 C 0.18253 1.25429 0.18248
 C2 C 0.15809 1.23169 0.22977
 C3 C 0.18071 1.18457 0.25451
 C4 C 0.22799 1.16026 0.23206
 C5 C 0.25245 1.18281 0.18484
 C6 C 0.22981 1.22987 0.16015
 H7 H 0.12072 1.24975 0.24631
 H8 H 0.24482 1.12300 0.25026
 H9 H 0.24805 1.24640 0.12278
 C10 C 0.81926 0.74386 0.18269
 C11 C 0.77181 0.76672 0.15931
 C12 C 0.74772 0.81375 0.18279
 C13 C 0.77093 0.83778 0.22986
 C14 C 0.81833 0.81498 0.25330
 C15 C 0.84239 0.76796 0.22981
 H16 H 0.75457 0.74904 0.12204
 H17 H 0.75313 0.87501 0.24718
 H18 H 0.87989 0.75124 0.24722
 C19 C 0.81737 1.25396 -0.18181
 C20 C 0.84039 1.23025 -0.22931
 C21 C 0.81653 1.18317 -0.25282
 C22 C 0.76946 1.16004 -0.22891
 C23 C 0.74643 1.18370 -0.18146
 C24 C 0.77029 1.23071 -0.15803
 H25 H 0.87762 1.24739 -0.24697
 H26 H 0.75169 1.12280 -0.24613
 H27 H 0.75316 1.24810 -0.12048
 C28 C 0.18263 0.74764 -0.18627
 C29 C 0.15921 0.77194 -0.23313
 C30 C 0.18266 0.81948 -0.25612
 C31 C 0.22976 0.84248 -0.23232
 C32 C 0.25319 0.81821 -0.18546
 C33 C 0.22968 0.77072 -0.16253
 H34 H 0.12197 0.75480 -0.25057
 H35 H 0.24723 0.88006 -0.24914
 H36 H 0.24697 0.75277 -0.12542
 C37 C 0.58354 1.07507 -0.01364
 H38 H 0.58379 1.07470 0.03100
 C39 C 0.62216 1.10635 -0.04243
 H40 H 0.65219 1.13036 -0.01995
 C41 C 0.54560 1.04237 -0.09758
 H42 H 0.51663 1.01631 -0.11887
 C43 C 0.58362 1.07305 -0.12800
 H44 H 0.58352 1.07091 -0.17265
 N45 N 0.54629 1.04394 -0.04142
 C46 C 0.41631 1.01387 0.07856
 H47 H 0.41605 0.96923 0.07842
 C48 C 0.37758 1.04283 0.10971
 H49 H 0.34747 1.02048 0.13385
 C50 C 0.45426 1.09763 0.04530
 H51 H 0.48323 1.11877 0.01901
 C52 C 0.41614 1.12821 0.07583
 H53 H 0.41618 1.17284 0.07335
 Zn54 Zn 0.49985 0.99847 0.00146
 N55 N 0.45357 1.04148 0.04716
 C56 C 0.54569 0.95440 0.10028
 N57 N 0.54616 0.95268 0.04412
 C58 C 0.58328 0.92132 0.01614
 C59 C 0.62206 0.89005 0.04471
 C60 C 0.58389 0.92373 0.13049
 C61 C 0.41628 0.98402 -0.07524
 C62 C 0.37764 0.95557 -0.10669
 C63 C 0.41584 0.86966 -0.07356
 C64 C 0.45389 0.89974 -0.04270
 N65 N 0.45337 0.95591 -0.04412
 H66 H 0.51681 0.98064 0.12171
 H67 H 0.58337 0.92158 -0.02850
 H68 H 0.65205 0.86593 0.02206
 H69 H 0.58402 0.92607 0.17513
 H70 H 0.41616 1.02865 -0.07475
 H71 H 0.34775 0.97832 -0.13071
 H72 H 0.41580 0.82501 -0.07156
 H73 H 0.48276 0.87821 -0.01665
 C74 C 0.37724 1.10049 0.10798
 C75 C 0.62243 1.10503 -0.10010
 C76 C 0.37719 0.89791 -0.10554
 C77 C 0.62263 0.89161 0.10237
 C78 C -0.01428 0.58335 1.07506
 H79 H 0.03011 0.58373 1.07480
 C80 C -0.04315 0.62210 1.10635
 H81 H -0.02098 0.65236 1.13048
 C82 C -0.09752 0.54494 1.04212
 H83 H -0.11849 0.51573 1.01597
 C84 C -0.12800 0.58308 1.07281
 H85 H -0.17240 0.58283 1.07058
 N86 N -0.04167 0.54580 1.04382
 C87 C 0.07802 0.41523 1.01423
 H88 H 0.07811 0.41482 0.96959
 C89 C 0.10897 0.37649 1.04335
 H90 H 0.13319 0.34622 1.02113
 C91 C 0.04442 0.45358 1.09783
 H92 H 0.01810 0.48271 1.11885
 C93 C 0.07475 0.41546 1.12856
 H94 H 0.07208 0.41566 1.17319
 Zn95 Zn 0.00131 0.49910 0.99849
 N96 N 0.04656 0.45271 1.04168
 C97 C 0.09981 0.54517 0.95474
 N98 N 0.04396 0.54566 0.95288
 C99 C 0.01630 0.58292 0.92144
 C100 C 0.04486 0.62183 0.89020
 C101 C 0.13000 0.58348 0.92411
 C102 C -0.07481 0.41494 0.98360
 C103 C -0.10595 0.37612 0.95496
 C104 C -0.07255 0.41458 0.86925
 C105 C -0.04201 0.45281 0.89953
 N106 N -0.04371 0.45227 0.95569
 H107 H 0.12099 0.51617 0.98104
 H108 H -0.02810 0.58303 0.92159
 H109 H 0.02246 0.65191 0.86599
 H110 H 0.17439 0.58358 0.92652
 H111 H -0.07457 0.41481 1.02825
 H112 H -0.12998 0.34607 0.97755
 H113 H -0.07035 0.41459 0.82460
 H114 H -0.01599 0.48186 0.87815
 C115 C 0.10699 0.37636 1.10100
 C116 C -0.10050 0.62218 1.10493
 C117 C -0.10453 0.37573 0.89729
 C118 C 0.10220 0.62236 0.89187
 C119 C 1.07527 -0.01310 0.58412
 H120 H 1.07497 0.03154 0.58457
 C121 C 1.10651 -0.04209 0.62268
 H122 H 1.13055 -0.01977 0.65288
 C123 C 1.04250 -0.09684 0.54572
 H124 H 1.01644 -0.11796 0.51659
 C125 C 1.07313 -0.12745 0.58367
 H126 H 1.07095 -0.17209 0.58336
 N127 N 1.04413 -0.04068 0.54666
 C128 C 1.01409 0.07952 0.41637
 H129 H 0.96969 0.07949 0.41618
 C130 C 1.04285 0.11066 0.37750
 H131 H 1.02061 0.13491 0.34734
 C132 C 1.09742 0.04599 0.45428
 H133 H 1.11847 0.01962 0.48330
 C134 C 1.12779 0.07651 0.41603
 H135 H 1.17218 0.07394 0.41600
 Zn136 Zn 0.99885 0.00243 0.50023
 N137 N 1.04158 0.04800 0.45369
 C138 C 0.95524 0.10139 0.54662
 N139 N 0.95351 0.04523 0.54705
 C140 C 0.92239 0.01737 0.58442
 C141 C 0.89136 0.04605 0.62349
 C142 C 0.92481 0.13170 0.58510
 C143 C 0.98406 -0.07417 0.41603
 C144 C 0.95559 -0.10564 0.37733
 C145 C 0.87033 -0.07238 0.41624
 C146 C 0.90043 -0.04150 0.45435
 N147 N 0.95629 -0.04299 0.45353
 H148 H 0.98129 0.12272 0.51753
 H149 H 0.92263 -0.02727 0.58447
 H150 H 0.86739 0.02350 0.65365
 H151 H 0.92712 0.17634 0.58524
 H152 H 1.02846 -0.07375 0.41568
 H153 H 0.97807 -0.12976 0.34714
 H154 H 0.82591 -0.07037 0.41648
 H155 H 0.87915 -0.01541 0.48354
 C156 C 1.10019 0.10880 0.37708
 C157 C 1.10514 -0.09975 0.62268
 C158 C 0.89824 -0.10447 0.37722
 C159 C 0.89290 0.10371 0.62408
 C160 C 0.15800 0.29723 1.15588
 C161 C 0.13531 0.33404 1.13138
 C162 C -0.15471 0.70103 1.15726
 C163 C -0.13060 0.66434 1.13389
 C164 C -0.15695 0.29681 0.84369
 C165 C -0.13348 0.33354 0.86746
 C166 C 0.15570 0.70187 0.84011
 C167 C 0.13194 0.66486 0.86319
 C168 C 1.15441 0.16001 0.29762
 C169 C 1.13021 0.13725 0.33458
 C170 C 1.15732 -0.15428 0.70122
 C171 C 1.13403 -0.13000 0.66467
 C172 C 0.84495 -0.15759 0.29858
 C173 C 0.86856 -0.13380 0.33518
 C174 C 0.84146 0.15745 0.70386
 C175 C 0.86440 0.13358 0.66673
 C176 C 0.29801 1.15502 0.15907
 C177 C 0.33487 1.13069 0.13638
 C178 C 0.70114 1.15712 -0.15417
 C179 C 0.66451 1.13388 -0.13012
 C180 C 0.29850 0.84474 -0.15830
 C181 C 0.33513 0.86829 -0.13470
 C182 C 0.70201 0.83999 0.15587
 C183 C 0.66506 0.86298 0.13212
   
