data_POSCAR
  _audit_creation_date              2014-09-24
  _audit_creation_method            'ToBaCCo'
  _symmetry_space_group_name_H-M    'P1'
  _symmetry_Int_Tables_number       1
  _symmetry_cell_setting            triclinic
  loop_
  _symmetry_equiv_pos_as_xyz
 x,y,z
_cell_length_a 21.9103
_cell_length_b 18.9658
_cell_length_c 15.6049
_cell_angle_alpha 89.961300
_cell_angle_beta 90.081100
_cell_angle_gamma 89.978000
loop_
  _atom_site_label
  _atom_site_type_symbol
  _atom_site_fract_x
  _atom_site_fract_y
  _atom_site_fract_z
C1 C 1.25478 0.25452 0.25211
 C2 C 0.74195 -0.25454 0.25262
 C3 C 0.74407 0.25584 -0.25557
 C4 C 1.25617 -0.25337 -0.25027
 C5 C 0.25494 0.25445 0.74772
 C6 C 0.74247 0.74502 0.74669
 C7 C 0.74406 0.25503 0.25552
 C8 C 0.25578 0.74577 0.24948
 O9 O 1.08292 0.12614 0.15599
 O10 O 1.15289 0.06240 0.07809
 C11 C 1.13842 0.11042 0.13486
 O12 O 0.91453 -0.13306 0.14708
 O13 O 0.84456 -0.06609 0.07277
 C14 C 0.85895 -0.11639 0.12661
 O15 O 1.08296 -0.12974 0.15420
 O16 O 1.15295 -0.06534 0.07702
 C17 C 1.13866 -0.11414 0.13315
 O18 O 0.91546 0.13160 0.14900
 O19 O 0.84509 0.06588 0.07414
 C20 C 0.85981 0.11566 0.12853
 Zr21 Zr 0.99895 0.08616 0.11017
 O22 O 0.99371 0.07413 0.24503
 O23 O 1.00049 0.19701 0.12455
 Zr24 Zr 0.99883 -0.08890 0.10837
 O25 O 0.99786 -0.07602 0.24283
 O26 O 0.99805 -0.20006 0.12022
 O27 O 1.05513 -0.00164 0.12571
 O28 O 0.94392 -0.00136 0.12445
 O29 O 0.91522 0.13146 -0.14856
 O30 O 0.84508 0.06645 -0.07262
 C31 C 0.85965 0.11599 -0.12751
 O32 O 1.08271 -0.12651 -0.15512
 O33 O 1.15279 -0.06334 -0.07642
 C34 C 1.13829 -0.11088 -0.13369
 O35 O 0.91443 -0.13042 -0.14954
 O36 O 0.84459 -0.06571 -0.07254
 C37 C 0.85890 -0.11490 -0.12790
 O38 O 1.08262 0.12749 -0.15335
 O39 O 1.15271 0.06332 -0.07577
 C40 C 1.13818 0.11157 -0.13247
 Zr41 Zr 0.99887 0.08812 -0.10630
 O42 O 0.99277 0.08280 -0.24169
 O43 O 1.00391 0.19963 -0.10786
 Zr44 Zr 0.99863 -0.08766 -0.10788
 O45 O 0.99242 -0.08075 -0.24316
 O46 O 1.00312 -0.19913 -0.11173
 Zr47 Zr 1.09259 -0.00071 0.00086
 Zr48 Zr 0.90537 -0.00012 0.00075
 O49 O 0.94424 0.00045 -0.12247
 O50 O 1.05468 0.00021 -0.12378
 O51 O 0.94443 0.10163 0.00195
 O52 O 1.05205 -0.10146 0.00005
 O53 O 1.05218 0.10017 0.00200
 O54 O 0.94415 -0.10213 0.00005
 H55 H 0.91569 -0.00155 0.17402
 H56 H 1.07844 -0.14382 -0.00068
 H57 H 0.91630 0.00070 -0.17245
 H58 H 1.07853 0.14256 0.00194
 H59 H 1.01424 -0.21975 0.06627
 H60 H 0.97407 -0.21731 -0.06852
 H61 H 1.03098 -0.06023 -0.26467
 H62 H 1.03107 0.06179 -0.26345
 H63 H 0.97290 0.21766 -0.06734
 H64 H 1.00981 0.21728 0.06777
 H65 H 1.03342 0.05569 0.26551
 H66 H 0.99587 -0.12417 0.26731
 O67 O 1.08449 0.62904 0.65114
 O68 O 1.15389 0.56662 0.57066
 C69 C 1.13928 0.61445 0.62679
 O70 O 0.91839 0.36808 0.64110
 O71 O 0.84831 0.43569 0.56828
 C72 C 0.86339 0.38399 0.61905
 O73 O 1.08413 0.37517 0.65061
 O74 O 1.15359 0.43756 0.57012
 C75 C 1.13889 0.38942 0.62612
 O76 O 0.91790 0.63634 0.64145
 O77 O 0.84803 0.56822 0.56909
 C78 C 0.86290 0.61988 0.61979
 Zr79 Zr 1.00085 0.58908 0.60810
 O80 O 0.99459 0.57728 0.74283
 O81 O 1.00561 0.69968 0.62374
 Zr82 Zr 1.00106 0.41518 0.60652
 O83 O 0.99849 0.42809 0.74093
 O84 O 1.00545 0.30420 0.61882
 O85 O 1.05736 0.50204 0.62369
 O86 O 0.94578 0.50191 0.62295
 O87 O 0.91735 0.63990 0.36157
 O88 O 0.84766 0.56908 0.43022
 C89 C 0.86235 0.62222 0.38175
 O90 O 1.08383 0.37582 0.34648
 O91 O 1.15362 0.43881 0.42568
 C92 C 1.13870 0.39042 0.37035
 O93 O 0.91809 0.36688 0.35916
 O94 O 0.84803 0.43618 0.42921
 C95 C 0.86305 0.38365 0.37989
 O96 O 1.08408 0.63216 0.34861
 O97 O 1.15382 0.56777 0.42638
 C98 C 1.13915 0.61687 0.37161
 Zr99 Zr 1.00035 0.59048 0.39017
 O100 O 0.99277 0.57836 0.25564
 O101 O 1.00413 0.70068 0.37080
 Zr102 Zr 1.00046 0.41674 0.38868
 O103 O 0.99279 0.43087 0.25442
 O104 O 1.00441 0.30683 0.36712
 Zr105 Zr 1.09319 0.50289 0.49817
 Zr106 Zr 0.90839 0.50262 0.49881
 O107 O 0.94497 0.50362 0.37419
 O108 O 1.05688 0.50373 0.37256
 O109 O 0.94745 0.60426 0.49950
 O110 O 1.05275 0.40213 0.49744
 O111 O 1.05255 0.60369 0.49915
 O112 O 0.94767 0.40124 0.49777
 H113 H 0.91692 0.50158 0.67183
 H114 H 1.07736 0.35833 0.49760
 H115 H 0.91532 0.50381 0.32613
 H116 H 1.07717 0.64745 0.49967
 H117 H 0.98814 0.28418 0.56560
 H118 H 1.00454 0.28414 0.42413
 H119 H 1.03431 0.43930 0.23168
 H120 H 1.03431 0.57017 0.23283
 H121 H 1.00209 0.72257 0.42815
 H122 H 0.98999 0.72086 0.57014
 H123 H 1.03488 0.56115 0.76395
 H124 H 0.99706 0.37990 0.76535
 O125 O 0.38455 -0.09219 0.34714
 O126 O 0.43636 -0.17631 0.42516
 C127 C 0.39386 -0.15607 0.37068
 O128 O 0.61542 0.09137 0.35668
 O129 O 0.55994 0.17578 0.42849
 C130 C 0.60463 0.15534 0.37826
 O131 O 0.60556 -0.09399 0.34159
 O132 O 0.55670 -0.17725 0.42427
 C133 C 0.59741 -0.15745 0.36743
 O134 O 0.38149 0.09360 0.35666
 O135 O 0.43743 0.17687 0.42997
 C136 C 0.39275 0.15720 0.37923
 Zr137 Zr 0.42283 0.00037 0.39210
 O138 O 0.43068 0.00799 0.25702
 O139 O 0.32649 -0.00373 0.38329
 Zr140 Zr 0.57068 -0.00062 0.38896
 O141 O 0.55489 0.00445 0.25551
 O142 O 0.66593 -0.00487 0.36732
 O143 O 0.49632 -0.06659 0.37354
 O144 O 0.49707 0.06522 0.37530
 O145 O 0.38060 0.09181 0.63996
 O146 O 0.43809 0.17615 0.57116
 C147 C 0.39276 0.15592 0.62040
 O148 O 0.60997 -0.09451 0.65023
 O149 O 0.55783 -0.17761 0.57122
 C150 C 0.60013 -0.15803 0.62612
 O151 O 0.61650 0.09116 0.64117
 O152 O 0.56081 0.17556 0.56929
 C153 C 0.60565 0.15512 0.61948
 O154 O 0.38909 -0.09429 0.65309
 O155 O 0.43886 -0.17773 0.57193
 C156 C 0.39789 -0.15788 0.62819
 Zr157 Zr 0.42550 -0.00030 0.60898
 O158 O 0.43961 0.00859 0.74294
 O159 O 0.33048 -0.00433 0.63227
 Zr160 Zr 0.57334 -0.00109 0.60583
 O161 O 0.56494 0.00691 0.74080
 O162 O 0.66952 -0.00727 0.61619
 Zr163 Zr 0.49763 -0.10976 0.49847
 Zr164 Zr 0.49864 0.10851 0.49936
 O165 O 0.49977 0.06453 0.62307
 O166 O 0.49929 -0.06728 0.62392
 O167 O 0.41150 0.06167 0.50089
 O168 O 0.58409 -0.06120 0.49691
 O169 O 0.41158 -0.06009 0.50055
 O170 O 0.58531 0.06056 0.49743
 H171 H 0.49704 0.09880 0.32656
 H172 H 0.62251 -0.08866 0.49613
 H173 H 0.50027 0.09818 0.67168
 H174 H 0.37290 -0.08702 0.50099
 H175 H 0.68582 -0.00856 0.42396
 H176 H 0.68673 0.01297 0.56307
 H177 H 0.55440 -0.04026 0.76360
 H178 H 0.44425 -0.03954 0.76665
 H179 H 0.31010 -0.00734 0.57587
 H180 H 0.31004 0.01722 0.43647
 H181 H 0.44350 -0.03863 0.23483
 H182 H 0.59562 0.00768 0.22833
 O183 O 0.58511 0.62421 0.15025
 O184 O 0.65343 0.55986 0.07040
 C185 C 0.63965 0.60819 0.12526
 O186 O 0.41560 0.36312 0.13596
 O187 O 0.34630 0.43521 0.06873
 C188 C 0.36078 0.38157 0.11560
 O189 O 0.58344 0.37199 0.14987
 O190 O 0.65189 0.43719 0.07176
 C191 C 0.63799 0.38827 0.12585
 O192 O 0.41601 0.63576 0.13802
 O193 O 0.34644 0.56484 0.06964
 C194 C 0.36098 0.61806 0.11734
 Zr195 Zr 0.49938 0.58628 0.11067
 O196 O 0.49199 0.57377 0.24512
 O197 O 0.50450 0.69607 0.13241
 Zr198 Zr 0.49899 0.41206 0.10940
 O199 O 0.49151 0.42343 0.24399
 O200 O 0.50341 0.30195 0.12920
 O201 O 0.55526 0.49892 0.12675
 O202 O 0.44413 0.49925 0.12577
 O203 O 0.41526 0.63600 -0.13441
 O204 O 0.34607 0.56462 -0.06616
 C205 C 0.36047 0.61793 -0.11351
 O206 O 0.58301 0.37318 -0.15008
 O207 O 0.65161 0.43749 -0.07105
 C208 C 0.63762 0.38909 -0.12583
 O209 O 0.41530 0.36490 -0.13675
 O210 O 0.34616 0.43561 -0.06734
 C211 C 0.36054 0.38277 -0.11559
 O212 O 0.58340 0.62705 -0.14804
 O213 O 0.65187 0.56148 -0.07008
 C214 C 0.63798 0.61056 -0.12402
 Zr215 Zr 0.49889 0.58738 -0.10738
 O216 O 0.49105 0.57664 -0.24204
 O217 O 0.50355 0.69764 -0.12580
 Zr218 Zr 0.49882 0.41304 -0.10871
 O219 O 0.49110 0.42565 -0.24317
 O220 O 0.50320 0.30296 -0.12863
 Zr221 Zr 0.59068 0.49943 0.00082
 Zr222 Zr 0.40739 0.49992 0.00116
 O223 O 0.44380 0.50040 -0.12354
 O224 O 0.55489 0.50020 -0.12493
 O225 O 0.44646 0.60154 0.00183
 O226 O 0.55067 0.39838 0.00023
 O227 O 0.55089 0.60074 0.00162
 O228 O 0.44618 0.39811 0.00028
 H229 H 0.41456 0.49916 0.17381
 H230 H 0.57533 0.35460 -0.00007
 H231 H 0.41418 0.50073 -0.17165
 H232 H 0.57560 0.64445 0.00176
 H233 H 0.49802 0.27990 0.07231
 H234 H 0.49572 0.28074 -0.07230
 H235 H 0.53241 0.43579 -0.26563
 H236 H 0.53230 0.56650 -0.26470
 H237 H 0.49596 0.71929 -0.06920
 H238 H 0.49947 0.71887 0.07586
 H239 H 0.53356 0.56498 0.26765
 H240 H 0.53289 0.43313 0.26659
 C241 C 1.21857 0.19707 0.21044
 C242 C 1.18524 0.15418 0.17526
 C243 C 1.21781 0.70028 0.69835
 C244 C 1.18482 0.65916 0.66254
 C245 C 0.69387 0.22721 0.69200
 C246 C 0.65090 0.20151 0.65453
 C247 C 0.71609 0.69487 0.19423
 C248 C 0.68584 0.65215 0.15783
 C249 C 0.77764 -0.19955 0.20556
 C250 C 0.81157 -0.15884 0.16780
 C251 C 0.78402 0.29945 0.69165
 C252 C 0.81775 0.33918 0.65475
 C253 C 0.30776 -0.22741 0.69840
 C254 C 0.35190 -0.20339 0.66235
 C255 C 0.28340 0.29848 0.18868
 C256 C 0.31467 0.33797 0.14888
 C257 C 0.77960 0.20058 -0.20795
 C258 C 0.81278 0.15918 -0.16947
 C259 C 0.78169 0.70441 0.30842
 C260 C 0.81612 0.66618 0.34628
 C261 C 0.30497 0.22857 0.30619
 C262 C 0.34794 0.20388 0.34437
 C263 C 0.28339 0.70155 -0.18663
 C264 C 0.31429 0.66161 -0.14675
 C265 C 1.21944 -0.19629 -0.20898
 C266 C 1.18542 -0.15402 -0.17414
 C267 C 1.21620 0.30219 0.30121
 C268 C 1.18371 0.34455 0.33567
 C269 C 0.68930 -0.22695 0.30075
 C270 C 0.64434 -0.20265 0.33469
 C271 C 0.71523 0.30436 -0.19704
 C272 C 0.68389 0.34570 -0.15986
 C273 C 1.21845 0.19754 -0.20956
 C274 C 1.18504 0.15505 -0.17358
 C275 C 1.21867 0.70223 0.29872
 C276 C 1.18508 0.66162 0.33524
 C277 C 0.69358 0.22676 0.30733
 C278 C 0.65025 0.20146 0.34410
 C279 C 0.71535 0.69579 -0.19419
 C280 C 0.68438 0.65404 -0.15723
 C281 C 0.77796 -0.19919 -0.20675
 C282 C 0.81162 -0.15785 -0.16916
 C283 C 0.78378 0.29862 0.30842
 C284 C 0.81744 0.33854 0.34500
 C285 C 0.30366 -0.22699 0.29917
 C286 C 0.34748 -0.20182 0.33601
 C287 C 0.28345 0.29927 -0.18935
 C288 C 0.31446 0.33914 -0.14946
 C289 C 1.22045 -0.20089 0.20844
 C290 C 1.18616 -0.15834 0.17322
 C291 C 1.21648 0.30168 0.69719
 C292 C 1.18405 0.34375 0.66162
 C293 C 0.69063 -0.22795 0.69602
 C294 C 0.64626 -0.20382 0.66013
 C295 C 0.71560 0.30346 0.19661
 C296 C 0.68432 0.34484 0.15943
 C297 C 0.77966 0.19985 0.20844
 C298 C 0.81297 0.15867 0.17023
 C299 C 0.78255 0.70262 0.69294
 C300 C 0.81686 0.66387 0.65571
 C301 C 0.30527 0.22758 0.69441
 C302 C 0.34809 0.20250 0.65620
 C303 C 0.28333 0.70239 0.19044
 C304 C 0.31468 0.66223 0.15084
   
