data_POSCAR
  _audit_creation_date              2014-09-24
  _audit_creation_method            'ToBaCCo'
  _symmetry_space_group_name_H-M    'P1'
  _symmetry_Int_Tables_number       1
  _symmetry_cell_setting            triclinic
  loop_
  _symmetry_equiv_pos_as_xyz
 x,y,z
_cell_length_a 17.3801
_cell_length_b 17.2215
_cell_length_c 13.8533
_cell_angle_alpha 90.065700
_cell_angle_beta 90.010700
_cell_angle_gamma 89.206100
loop_
  _atom_site_label
  _atom_site_type_symbol
  _atom_site_fract_x
  _atom_site_fract_y
  _atom_site_fract_z
C1 C 1.18825 0.20395 0.16020
 C2 C 1.23384 0.27230 0.12360
 C3 C 1.26901 0.31450 0.19227
 C4 C 1.25400 0.27882 0.29751
 C5 C 1.24449 0.15321 0.21977
 C6 C 1.27597 0.18946 0.29623
 C7 C 1.13223 0.23318 0.23347
 C8 C 1.16441 0.27243 0.30431
 H9 H 1.24897 0.27834 0.04876
 H10 H 1.28048 0.31172 0.35763
 H11 H 1.25716 0.09292 0.20554
 H12 H 1.07003 0.23207 0.22418
 C13 C 0.72726 -0.30839 0.19229
 C14 C 0.80579 -0.28570 0.15199
 C15 C 0.84400 -0.23354 0.20885
 C16 C 0.80238 -0.21384 0.30652
 C17 C 0.74388 -0.33976 0.29146
 C18 C 0.78789 -0.29399 0.34909
 C19 C 0.68666 -0.22908 0.21415
 C20 C 0.72104 -0.18139 0.28105
 H21 H 0.82440 -0.30013 0.08018
 H22 H 0.83524 -0.17549 0.35560
 H23 H 0.73370 -0.40052 0.30591
 H24 H 0.62952 -0.21665 0.18697
 C25 C 0.72634 0.19186 -0.30626
 C26 C 0.80157 0.21341 -0.34492
 C27 C 0.84141 0.26991 -0.28563
 C28 C 0.80080 0.28719 -0.19255
 C29 C 0.74125 0.16254 -0.21109
 C30 C 0.78929 0.20997 -0.15140
 C31 C 0.68739 0.26729 -0.28714
 C32 C 0.72234 0.31773 -0.21618
 H33 H 0.82160 0.19637 -0.41538
 H34 H 0.83273 0.32594 -0.14286
 H35 H 0.72796 0.10278 -0.19387
 H36 H 0.63354 0.28330 -0.32123
 C37 C 1.18920 -0.29616 -0.34094
 C38 C 1.23498 -0.22755 -0.37679
 C39 C 1.26948 -0.18553 -0.30734
 C40 C 1.25471 -0.22171 -0.20300
 C41 C 1.24541 -0.34703 -0.28180
 C42 C 1.27683 -0.31084 -0.20529
 C43 C 1.13329 -0.26743 -0.26725
 C44 C 1.16547 -0.22800 -0.19675
 H45 H 1.25174 -0.22178 -0.45106
 H46 H 1.28107 -0.18916 -0.14250
 H47 H 1.25792 -0.40731 -0.29590
 H48 H 1.07105 -0.26823 -0.27638
 C49 C 0.17610 0.21825 0.81658
 C50 C 0.20403 0.28982 0.85985
 C51 C 0.26453 0.32502 0.80485
 C52 C 0.27387 0.28557 0.70726
 C53 C 0.14294 0.23990 0.72198
 C54 C 0.19150 0.27669 0.66428
 C55 C 0.24820 0.16778 0.79128
 C56 C 0.29280 0.19824 0.72299
 H57 H 0.18215 0.31321 0.92679
 H58 H 0.31446 0.31475 0.65761
 H59 H 0.08071 0.23931 0.71004
 H60 H 0.25848 0.10955 0.81703
 C61 C 0.71690 0.68878 0.80225
 C62 C 0.78385 0.71296 0.85688
 C63 C 0.82794 0.77094 0.80775
 C64 C 0.80052 0.78811 0.70796
 C65 C 0.67751 0.76207 0.77813
 C66 C 0.71879 0.81542 0.71624
 C67 C 0.74305 0.66238 0.70953
 C68 C 0.80079 0.71013 0.66611
 H69 H 0.78864 0.70307 0.93314
 H70 H 0.83736 0.82885 0.66704
 H71 H 0.62091 0.77587 0.80576
 H72 H 0.73127 0.60433 0.68375
 C73 C 0.71645 0.18739 0.29869
 C74 C 0.78451 0.21162 0.35931
 C75 C 0.82783 0.26636 0.31636
 C76 C 0.80233 0.28929 0.21227
 C77 C 0.67547 0.26466 0.27336
 C78 C 0.71676 0.31732 0.21971
 C79 C 0.74601 0.16270 0.20085
 C80 C 0.80168 0.20974 0.16429
 H81 H 0.78751 0.19969 0.43537
 H82 H 0.84059 0.33107 0.17548
 H83 H 0.61501 0.27237 0.28811
 H84 H 0.73743 0.10424 0.17566
 C85 C 0.17048 0.71516 0.31288
 C86 C 0.20272 0.78893 0.36008
 C87 C 0.26045 0.82262 0.30801
 C88 C 0.26969 0.78170 0.20379
 C89 C 0.13763 0.73966 0.21936
 C90 C 0.18707 0.77522 0.16179
 C91 C 0.24148 0.66385 0.28618
 C92 C 0.28711 0.69385 0.21853
 H93 H 0.18354 0.81011 0.42923
 H94 H 0.31076 0.81050 0.15447
 H95 H 0.07538 0.74144 0.20793
 H96 H 0.25182 0.60621 0.31320
 O97 O 1.16687 -0.09967 0.12606
 O98 O 1.08703 -0.19003 0.05749
 C99 C 1.14772 -0.16889 0.10626
 O100 O 0.87847 0.10056 0.18669
 O101 O 0.92209 0.19126 0.07958
 C102 C 0.87417 0.16766 0.14479
 O103 O 0.89171 -0.10941 0.20035
 O104 O 0.94056 -0.19728 0.09081
 C105 C 0.89856 -0.17861 0.16606
 O106 O 1.17069 0.09739 0.06426
 O107 O 1.07587 0.18818 0.06189
 C108 C 1.14450 0.16396 0.08687
 Zr109 Zr 1.10767 -0.00005 0.09214
 O110 O 1.11695 0.02036 0.24243
 O111 O 1.22956 -0.00980 0.09562
 Zr112 Zr 0.92489 -0.00451 0.13980
 O113 O 0.96174 0.00447 0.28517
 O114 O 0.81046 -0.01512 0.18838
 O115 O 1.02159 -0.07507 0.13399
 O116 O 1.01638 0.06983 0.13395
 O117 O 1.12030 0.10118 -0.17744
 O118 O 1.06260 0.19428 -0.08333
 C119 C 1.11536 0.17048 -0.14313
 O120 O 0.85026 -0.10501 -0.16122
 O121 O 0.92225 -0.19575 -0.07844
 C122 C 0.86907 -0.17531 -0.14077
 O123 O 0.82097 0.09810 -0.07503
 O124 O 0.91045 0.19180 -0.07234
 C125 C 0.84210 0.16754 -0.09528
 O126 O 1.11827 -0.10491 -0.19502
 O127 O 1.06605 -0.19440 -0.09153
 C128 C 1.11367 -0.17302 -0.15811
 Zr129 Zr 1.06868 -0.00186 -0.14733
 O130 O 1.02641 0.00100 -0.29015
 O131 O 1.17943 -0.00650 -0.21037
 Zr132 Zr 0.88599 -0.00214 -0.10100
 O133 O 0.86614 0.02815 -0.24733
 O134 O 0.76600 -0.02127 -0.10146
 Zr135 Zr 0.99966 -0.12023 -0.00440
 Zr136 Zr 0.99345 0.11637 -0.00429
 O137 O 0.97372 0.07001 -0.14301
 O138 O 0.97692 -0.07395 -0.14260
 O139 O 1.10090 0.06333 -0.03144
 O140 O 0.89124 -0.07045 0.02129
 O141 O 1.10461 -0.06525 -0.02987
 O142 O 0.88789 0.06156 0.02410
 H143 H 1.02203 0.10793 0.18706
 H144 H 0.84612 -0.10447 0.02825
 H145 H 0.96715 0.10867 -0.19553
 H146 H 1.15606 -0.08958 -0.03852
 H147 H 0.77810 -0.01946 0.12996
 H148 H 0.74943 -0.02389 -0.03324
 H149 H 0.88216 -0.01671 -0.28763
 H150 H 1.06417 0.03115 -0.32766
 H151 H 1.21663 -0.01192 -0.15626
 H152 H 1.24842 -0.01435 0.02806
 H153 H 1.16372 -0.00776 0.26470
 H154 H 0.98591 -0.04579 0.30354
 O155 O 1.16958 0.40156 0.62797
 O156 O 1.08844 0.31022 0.56405
 C157 C 1.15030 0.33209 0.60998
 O158 O 0.87105 0.59891 0.68396
 O159 O 0.92110 0.69228 0.58599
 C160 C 0.86962 0.66819 0.64691
 O161 O 0.89489 0.38957 0.71214
 O162 O 0.93695 0.30223 0.59812
 C163 C 0.89639 0.32083 0.67510
 O164 O 1.17058 0.59777 0.56231
 O165 O 1.07556 0.68812 0.56331
 C166 C 1.14487 0.66432 0.58585
 Zr167 Zr 1.10863 0.50039 0.59528
 O168 O 1.12221 0.52324 0.74438
 O169 O 1.23045 0.49019 0.59698
 Zr170 Zr 0.92660 0.49486 0.64908
 O171 O 0.96630 0.50884 0.79250
 O172 O 0.81439 0.48437 0.70565
 O173 O 1.02377 0.42476 0.64084
 O174 O 1.01748 0.56988 0.64005
 O175 O 1.11013 0.59983 0.31519
 O176 O 1.06038 0.69141 0.41860
 C177 C 1.10908 0.66793 0.35328
 O178 O 0.84084 0.39039 0.36383
 O179 O 0.92717 0.30153 0.42698
 C180 C 0.86797 0.32135 0.37419
 O181 O 0.81901 0.59614 0.43665
 O182 O 0.90979 0.68869 0.43188
 C183 C 0.84104 0.66431 0.41251
 O184 O 1.11422 0.39426 0.30749
 O185 O 1.06686 0.30491 0.41494
 C186 C 1.11216 0.32643 0.34549
 Zr187 Zr 1.06468 0.49646 0.35724
 O188 O 1.01913 0.49564 0.21599
 O189 O 1.17608 0.49140 0.29639
 Zr190 Zr 0.88297 0.49522 0.41005
 O191 O 0.86308 0.51944 0.26213
 O192 O 0.76237 0.48023 0.41146
 Zr193 Zr 0.99956 0.37856 0.50349
 Zr194 Zr 0.99193 0.61528 0.50183
 O195 O 0.96937 0.56747 0.36438
 O196 O 0.97346 0.42399 0.36570
 O197 O 1.09912 0.56306 0.47099
 O198 O 0.89137 0.42791 0.53245
 O199 O 1.10339 0.43432 0.47428
 O200 O 0.88753 0.55960 0.53370
 H201 H 1.02321 0.60889 0.69206
 H202 H 0.84549 0.39516 0.54080
 H203 H 0.96131 0.60481 0.31068
 H204 H 1.15474 0.41024 0.46417
 H205 H 0.77984 0.47763 0.64951
 H206 H 0.74710 0.47487 0.47999
 H207 H 0.87265 0.47063 0.22606
 H208 H 1.06282 0.50730 0.17275
 H209 H 1.21263 0.48784 0.35132
 H210 H 1.24879 0.48619 0.52912
 H211 H 1.13002 0.47222 0.77602
 H212 H 0.98738 0.45797 0.81379
 O213 O 0.60557 0.14475 0.67143
 O214 O 0.69677 0.08027 0.58145
 C215 C 0.67561 0.13597 0.64342
 O216 O 0.39779 -0.13906 0.68428
 O217 O 0.30683 -0.07078 0.59586
 C218 C 0.32727 -0.12558 0.65893
 O219 O 0.60122 -0.13083 0.68781
 O220 O 0.69533 -0.07905 0.59286
 C221 C 0.67242 -0.12704 0.66259
 O222 O 0.41263 0.16278 0.67005
 O223 O 0.31539 0.08964 0.60439
 C224 C 0.34182 0.14718 0.65996
 Zr225 Zr 0.50411 0.09670 0.62430
 O226 O 0.50082 0.07815 0.77556
 O227 O 0.50555 0.21862 0.64360
 Zr228 Zr 0.49944 -0.09285 0.62499
 O229 O 0.50355 -0.10141 0.77761
 O230 O 0.49936 -0.21465 0.60457
 O231 O 0.57442 0.00006 0.64212
 O232 O 0.43124 0.00493 0.64476
 O233 O 0.40066 0.15793 0.34102
 O234 O 0.30801 0.08758 0.41989
 C235 C 0.33025 0.14384 0.36022
 O236 O 0.59664 -0.13743 0.32295
 O237 O 0.69260 -0.07661 0.40733
 C238 C 0.66877 -0.12669 0.34112
 O239 O 0.39069 -0.13934 0.33181
 O240 O 0.30205 -0.06958 0.42227
 C241 C 0.32025 -0.12394 0.35672
 O242 O 0.59514 0.13633 0.31989
 O243 O 0.68949 0.07511 0.40968
 C244 C 0.66530 0.12702 0.34537
 Zr245 Zr 0.49751 0.09571 0.38402
 O246 O 0.48471 0.08408 0.23241
 O247 O 0.50528 0.21833 0.37965
 Zr248 Zr 0.49518 -0.09444 0.38575
 O249 O 0.49674 -0.09985 0.23279
 O250 O 0.49375 -0.21637 0.40427
 Zr251 Zr 0.62152 -0.00114 0.50138
 Zr252 Zr 0.37786 0.00658 0.50868
 O253 O 0.42565 0.00317 0.36950
 O254 O 0.56795 -0.00124 0.36397
 O255 O 0.43172 0.11478 0.50654
 O256 O 0.56698 -0.10998 0.50360
 O257 O 0.56847 0.10965 0.50127
 O258 O 0.42663 -0.10647 0.50750
 H259 H 0.39707 0.00653 0.70199
 H260 H 0.59998 -0.15737 0.50311
 H261 H 0.38936 0.00511 0.31441
 H262 H 0.59843 0.15800 0.49814
 H263 H 0.50659 -0.23837 0.66910
 H264 H 0.49702 -0.23962 0.33887
 H265 H 0.45638 -0.06450 0.20716
 H266 H 0.52881 0.05302 0.20753
 H267 H 0.47867 0.23999 0.43696
 H268 H 0.52368 0.24241 0.58304
 H269 H 0.55347 0.06456 0.79780
 H270 H 0.46907 -0.06124 0.80563
 O271 O 0.60416 0.64437 0.16726
 O272 O 0.69557 0.57809 0.07860
 C273 C 0.67412 0.63351 0.14015
 O274 O 0.39796 0.36047 0.18083
 O275 O 0.30685 0.42808 0.09228
 C276 C 0.32726 0.37386 0.15625
 O277 O 0.60021 0.38066 0.19270
 O278 O 0.69377 0.42231 0.08972
 C279 C 0.67035 0.37923 0.16344
 O280 O 0.40933 0.65519 0.17539
 O281 O 0.31357 0.58730 0.09809
 C282 C 0.33862 0.64252 0.15822
 Zr283 Zr 0.50275 0.59698 0.11887
 O284 O 0.50109 0.58632 0.27136
 O285 O 0.50703 0.71995 0.11918
 Zr286 Zr 0.49922 0.40670 0.12021
 O287 O 0.49524 0.39209 0.27180
 O288 O 0.50449 0.28500 0.09964
 O289 O 0.57303 0.50047 0.13719
 O290 O 0.43113 0.50413 0.13936
 O291 O 0.40090 0.66085 -0.15522
 O292 O 0.30801 0.58502 -0.08544
 C293 C 0.33042 0.64370 -0.14101
 O294 O 0.59927 0.36174 -0.18180
 O295 O 0.69414 0.42151 -0.09470
 C296 C 0.67155 0.37096 -0.16145
 O297 O 0.39183 0.36226 -0.17727
 O298 O 0.30319 0.42649 -0.08089
 C299 C 0.32141 0.37474 -0.14946
 O300 O 0.59670 0.63924 -0.17912
 O301 O 0.69096 0.57760 -0.09034
 C302 C 0.66717 0.63131 -0.15283
 Zr303 Zr 0.49750 0.59459 -0.12130
 O304 O 0.48555 0.57773 -0.27220
 O305 O 0.49809 0.71628 -0.14195
 Zr306 Zr 0.49648 0.40460 -0.11961
 O307 O 0.49931 0.39742 -0.27236
 O308 O 0.49448 0.28290 -0.09974
 Zr309 Zr 0.62127 0.49867 -0.00300
 Zr310 Zr 0.37787 0.50478 0.00346
 O311 O 0.42597 0.50182 -0.13598
 O312 O 0.56899 0.49830 -0.14126
 O313 O 0.43079 0.61354 0.00106
 O314 O 0.56758 0.38928 -0.00063
 O315 O 0.56754 0.60928 -0.00340
 O316 O 0.42728 0.39199 0.00211
 H317 H 0.39801 0.50520 0.19758
 H318 H 0.60136 0.34245 -0.00027
 H319 H 0.38952 0.50386 -0.19093
 H320 H 0.59684 0.65807 -0.00460
 H321 H 0.51103 0.26187 0.16459
 H322 H 0.49762 0.25938 -0.16494
 H323 H 0.46197 0.43556 -0.29895
 H324 H 0.53523 0.55768 -0.29768
 H325 H 0.51823 0.74052 -0.08262
 H326 H 0.47403 0.73975 0.06617
 H327 H 0.55134 0.56457 0.29268
 H328 H 0.48604 0.44385 0.30067
   
