data_POSCAR
  _audit_creation_date              2014-09-24
  _audit_creation_method            'ToBaCCo'
  _symmetry_space_group_name_H-M    'P1'
  _symmetry_Int_Tables_number       1
  _symmetry_cell_setting            triclinic
  loop_
  _symmetry_equiv_pos_as_xyz
 x,y,z
_cell_length_a 33.3626
_cell_length_b 42.9420
_cell_length_c 23.7004
_cell_angle_alpha 89.937200
_cell_angle_beta 90.192200
_cell_angle_gamma 90.102900
loop_
  _atom_site_label
  _atom_site_type_symbol
  _atom_site_fract_x
  _atom_site_fract_y
  _atom_site_fract_z
C1 C 0.18757 0.25460 0.12665
 C2 C 0.19446 0.22670 0.15617
 C3 C 0.21818 0.22767 0.20540
 C4 C 0.23730 0.25537 0.22318
 C5 C 0.22949 0.28294 0.19256
 C6 C 0.20350 0.28291 0.14584
 C7 C 0.26462 0.25533 0.27389
 C8 C 0.27246 0.28283 0.30464
 C9 C 0.29832 0.28271 0.35150
 C10 C 0.31408 0.25435 0.37069
 C11 C 0.30715 0.22651 0.34102
 C12 C 0.28360 0.22759 0.29164
 H13 H 0.16795 0.25466 0.09014
 H14 H 0.22145 0.20664 0.23002
 H15 H 0.24341 0.30469 0.20446
 H16 H 0.25865 0.30460 0.29276
 H17 H 0.33357 0.25434 0.40732
 H18 H 0.28031 0.20662 0.26694
 C19 C 0.81222 0.24720 0.12921
 C20 C 0.79683 0.27544 0.14906
 C21 C 0.77072 0.27524 0.19536
 C22 C 0.76240 0.24751 0.22535
 C23 C 0.78044 0.21969 0.20628
 C24 C 0.80421 0.21918 0.15745
 C25 C 0.73583 0.24770 0.27671
 C26 C 0.71704 0.22014 0.29593
 C27 C 0.69363 0.21977 0.34537
 C28 C 0.68687 0.24804 0.37368
 C29 C 0.70275 0.27607 0.35331
 C30 C 0.72846 0.27552 0.30666
 H31 H 0.83218 0.24722 0.09326
 H32 H 0.75719 0.29704 0.20736
 H33 H 0.77656 0.19821 0.22934
 H34 H 0.72020 0.19881 0.27234
 H35 H 0.66743 0.24860 0.41018
 H36 H 0.74248 0.29714 0.29438
 C37 C 0.68983 0.74982 0.62733
 C38 C 0.70616 0.72189 0.64737
 C39 C 0.73182 0.72259 0.69429
 C40 C 0.73854 0.75032 0.72492
 C41 C 0.72000 0.77788 0.70537
 C42 C 0.69660 0.77797 0.65587
 C43 C 0.76385 0.75012 0.77760
 C44 C 0.78308 0.77741 0.79720
 C45 C 0.80621 0.77731 0.84720
 C46 C 0.81179 0.74891 0.87588
 C47 C 0.79499 0.72122 0.85545
 C48 C 0.76967 0.72229 0.80825
 H49 H 0.67010 0.74941 0.59094
 H50 H 0.74622 0.70112 0.70658
 H51 H 0.72321 0.79936 0.72868
 H52 H 0.78050 0.79877 0.77336
 H53 H 0.83102 0.74793 0.91275
 H54 H 0.75482 0.70101 0.79578
 C55 C 0.30992 0.74984 0.62517
 C56 C 0.29336 0.77787 0.64421
 C57 C 0.26759 0.77744 0.69086
 C58 C 0.26066 0.74981 0.72171
 C59 C 0.27954 0.72223 0.70329
 C60 C 0.30325 0.72189 0.65437
 C61 C 0.23474 0.74995 0.77352
 C62 C 0.21532 0.72257 0.79217
 C63 C 0.19216 0.72226 0.84185
 C64 C 0.18674 0.75038 0.87126
 C65 C 0.20358 0.77826 0.85163
 C66 C 0.22873 0.77761 0.80442
 H67 H 0.32975 0.75005 0.58909
 H68 H 0.25320 0.79896 0.70270
 H69 H 0.27635 0.70090 0.72710
 H70 H 0.21786 0.70141 0.76782
 H71 H 0.16762 0.75102 0.90808
 H72 H 0.24347 0.79900 0.79228
 O73 O 0.96879 -0.02212 -0.05834
 O74 O 1.04325 0.03708 -0.01821
 O75 O 1.04683 -0.02036 -0.05472
 O76 O 0.96625 0.03476 -0.01888
 O77 O 0.96587 0.01676 0.06850
 O78 O 1.04641 -0.03810 0.03282
 O79 O 1.04344 0.01937 0.06938
 O80 O 0.96895 -0.04024 0.02894
 Cu81 Cu 1.00631 0.00900 -0.04640
 Cu82 Cu 1.00612 -0.01237 0.05867
 C83 C 0.95659 -0.04152 -0.02178
 C84 C 1.05531 0.03880 0.03253
 C85 C 1.05995 -0.03888 -0.01712
 C86 C 0.95304 0.03560 0.03131
 O87 O 0.54419 0.46136 0.53049
 O88 O 0.46912 0.52018 0.56903
 O89 O 0.46651 0.46281 0.53182
 O90 O 0.54694 0.51922 0.56436
 O91 O 0.54519 0.53597 0.47620
 O92 O 0.46493 0.47994 0.44391
 O93 O 0.46798 0.53719 0.48102
 O94 O 0.54316 0.47815 0.44235
 Cu95 Cu 0.50681 0.48921 0.55776
 Cu96 Cu 0.50513 0.50937 0.45195
 C97 C 0.55625 0.45958 0.47989
 C98 C 0.45625 0.53901 0.53186
 C99 C 0.45229 0.46166 0.48206
 C100 C 0.55929 0.53749 0.52590
 O101 O -0.04482 0.53500 0.02444
 O102 O 0.03635 0.47976 0.05562
 O103 O 0.03222 0.53712 0.01857
 O104 O -0.04188 0.47721 0.05810
 O105 O -0.04333 0.46060 -0.03007
 O106 O 0.03110 0.52005 -0.06934
 O107 O 0.03432 0.46266 -0.03222
 O108 O -0.04672 0.51851 -0.06382
 Cu109 Cu -0.00428 0.50880 0.04811
 Cu110 Cu -0.00631 0.48878 -0.05771
 C111 C -0.05912 0.53654 -0.02515
 C112 C 0.04888 0.46160 0.01735
 C113 C 0.04374 0.53907 -0.03235
 C114 C -0.05508 0.45863 0.02068
 O115 O 0.45589 1.03683 0.51799
 O116 O 0.53047 0.97833 0.56004
 O117 O 0.53276 1.03538 0.52069
 O118 O 0.45247 0.97935 0.55426
 O119 O 0.45442 0.96169 0.46680
 O120 O 0.53475 1.01748 0.43337
 O121 O 0.53197 0.96047 0.47270
 O122 O 0.45718 1.01933 0.43037
 Cu123 Cu 0.49275 1.00909 0.54713
 Cu124 Cu 0.49475 0.98791 0.44206
 C125 C 0.44458 1.03857 0.46692
 C126 C 0.54359 0.95921 0.52376
 C127 C 0.54669 1.03645 0.47090
 C128 C 0.44012 0.96075 0.51632
 C129 C 1.14320 0.14447 0.10112
 N130 N 1.14025 0.17083 0.06985
 N131 N 1.15679 0.19730 0.08767
 C132 C 1.17719 0.19854 0.13739
 N133 N 1.18038 0.17193 0.16834
 N134 N 1.16354 0.14548 0.15076
 C135 C 1.12322 0.11581 0.08231
 N136 N 1.11783 0.09149 0.11821
 N137 N 1.09715 0.06644 0.10197
 C138 C 1.08151 0.06471 0.04908
 N139 N 1.08747 0.08883 0.01300
 N140 N 1.10786 0.11393 0.02934
 C141 C 0.65983 0.63788 0.58507
 N142 N 0.67852 0.63890 0.63597
 N143 N 0.69494 0.66529 0.65450
 C144 C 0.69313 0.69174 0.62304
 N145 N 0.67501 0.69050 0.57166
 N146 N 0.65881 0.66406 0.55296
 C147 C 0.63748 0.61000 0.56764
 N148 N 0.62049 0.60847 0.51561
 N149 N 0.59674 0.58471 0.50171
 C150 C 0.58887 0.56170 0.53943
 N151 N 0.60626 0.56300 0.59125
 N152 N 0.63022 0.58669 0.60504
 C153 C -0.15397 0.35827 0.08597
 N154 N -0.15456 0.33211 0.05388
 N155 N -0.17158 0.30609 0.07297
 C156 C -0.18898 0.30526 0.12471
 N157 N -0.18913 0.33169 0.15622
 N158 N -0.17187 0.35766 0.13730
 C159 C -0.13126 0.38577 0.06753
 N160 N -0.12279 0.40912 0.10432
 N161 N -0.09917 0.43272 0.08910
 C162 C -0.08332 0.43389 0.03645
 N163 N -0.09226 0.41077 -0.00057
 N164 N -0.11567 0.38709 0.01476
 C165 C 0.33921 0.86130 0.57885
 N166 N 0.33999 0.83482 0.54766
 N167 N 0.32391 0.80858 0.56737
 C168 C 0.30618 0.80782 0.61888
 N169 N 0.30458 0.83456 0.64941
 N170 N 0.32088 0.86077 0.62987
 C171 C 0.36155 0.88897 0.56034
 N172 N 0.36894 0.91269 0.59680
 N173 N 0.39299 0.93615 0.58219
 C174 C 0.41034 0.93680 0.53047
 N175 N 0.40234 0.91339 0.49365
 N176 N 0.37849 0.88986 0.50838
 C177 C -0.16006 0.63668 -0.08289
 N178 N -0.15910 0.66265 -0.05030
 N179 N -0.17496 0.68924 -0.06876
 C180 C -0.19268 0.69085 -0.12038
 N181 N -0.19449 0.66460 -0.15230
 N182 N -0.17840 0.63806 -0.13401
 C183 C -0.13781 0.60874 -0.06579
 N184 N -0.13036 0.58572 -0.10358
 N185 N -0.10629 0.56209 -0.09013
 C186 C -0.08896 0.56056 -0.03829
 N187 N -0.09703 0.58326 -0.00018
 N188 N -0.12090 0.60697 -0.01373
 C189 C 0.35757 1.14414 0.39653
 N190 N 0.36042 1.17044 0.42792
 N191 N 0.34417 1.19695 0.40993
 C192 C 0.32417 1.19831 0.35990
 N193 N 0.32108 1.17177 0.32881
 N194 N 0.33765 1.14527 0.34656
 C195 C 0.37721 1.11545 0.41567
 N196 N 0.38318 1.09128 0.37975
 N197 N 0.40364 1.06623 0.39641
 C198 C 0.41847 1.06437 0.44975
 N199 N 0.41191 1.08832 0.48583
 N200 N 0.39174 1.11341 0.46907
 C201 C 1.15988 -0.13802 -0.08221
 N202 N 1.15966 -0.16439 -0.05058
 N203 N 1.17512 -0.19072 -0.07059
 C204 C 1.19167 -0.19168 -0.12285
 N205 N 1.19277 -0.16505 -0.15385
 N206 N 1.17707 -0.13875 -0.13401
 C207 C 1.13801 -0.11032 -0.06320
 N208 N 1.12977 -0.08677 -0.09972
 N209 N 1.10595 -0.06337 -0.08450
 C210 C 1.08967 -0.06262 -0.03209
 N211 N 1.09854 -0.08585 0.00475
 N212 N 1.12216 -0.10932 -0.01057
 C213 C 0.65519 0.35940 0.41577
 N214 N 0.65583 0.33340 0.44836
 N215 N 0.67243 0.30723 0.42950
 C216 C 0.68935 0.30609 0.37748
 N217 N 0.68951 0.33238 0.34546
 N218 N 0.67266 0.35850 0.36417
 C219 C 0.63268 0.38697 0.43393
 N220 N 0.62412 0.41017 0.39682
 N221 N 0.60048 0.43374 0.41177
 C222 C 0.58469 0.43500 0.46444
 N223 N 0.59376 0.41205 0.50177
 N224 N 0.61719 0.38842 0.48673
 C225 C 0.86188 -0.14304 -0.09377
 N226 N 0.86292 -0.16982 -0.06350
 N227 N 0.84478 -0.19537 -0.08254
 C228 C 0.82464 -0.19528 -0.13254
 N229 N 0.82327 -0.16822 -0.16244
 N230 N 0.84170 -0.14266 -0.14361
 C231 C 0.88391 -0.11550 -0.07384
 N232 N 0.89046 -0.09087 -0.10859
 N233 N 0.91284 -0.06690 -0.09153
 C234 C 0.92919 -0.06658 -0.03896
 N235 N 0.92215 -0.09100 -0.00397
 N236 N 0.90001 -0.11505 -0.02115
 C237 C 0.34742 0.36471 0.41830
 N238 N 0.34684 0.33814 0.44933
 N239 N 0.32961 0.31243 0.42917
 C240 C 0.31204 0.31230 0.37736
 N241 N 0.31174 0.33917 0.34700
 N242 N 0.32918 0.36484 0.36701
 C243 C 0.37109 0.39166 0.43723
 N244 N 0.37921 0.41539 0.40112
 N245 N 0.40422 0.43818 0.41604
 C246 C 0.42193 0.43815 0.46770
 N247 N 0.41327 0.41471 0.50421
 N248 N 0.38842 0.39183 0.48916
 C249 C 0.13680 0.64193 -0.10180
 N250 N 0.13570 0.66841 -0.07076
 N251 N 0.15368 0.69421 -0.08895
 C252 C 0.17373 0.69466 -0.13882
 N253 N 0.17513 0.66791 -0.16951
 N254 N 0.15686 0.64212 -0.15154
 C255 C 0.11513 0.61408 -0.08269
 N256 N 0.10842 0.58984 -0.11826
 N257 N 0.08645 0.56553 -0.10182
 C258 C 0.07069 0.56448 -0.04908
 N259 N 0.07788 0.58851 -0.01330
 N260 N 0.09960 0.61290 -0.02986
 C261 C 0.64128 1.13868 0.40373
 N262 N 0.63884 1.16542 0.43385
 N263 N 0.65589 1.19147 0.41505
 C264 C 0.67626 1.19192 0.36544
 N265 N 0.67905 1.16491 0.33573
 N266 N 0.66171 1.13887 0.35430
 C267 C 0.62009 1.11064 0.42297
 N268 N 0.61441 1.08609 0.38775
 N269 N 0.59215 1.06185 0.40373
 C270 C 0.57511 1.06116 0.45569
 N271 N 0.58142 1.08545 0.49123
 N272 N 0.60344 1.10976 0.47512
 C273 C 0.15434 0.36501 0.07979
 N274 N 0.15485 0.33855 0.04857
 N275 N 0.17212 0.31282 0.06847
 C276 C 0.18980 0.31257 0.12022
 N277 N 0.19017 0.33933 0.15076
 N278 N 0.17270 0.36503 0.13100
 C279 C 0.13058 0.39193 0.06117
 N280 N 0.12251 0.41552 0.09748
 N281 N 0.09735 0.43822 0.08287
 C282 C 0.07946 0.43826 0.03133
 N283 N 0.08808 0.41498 -0.00537
 N284 N 0.11307 0.39218 0.00936
 C285 C 0.64000 0.85903 0.59676
 N286 N 0.64452 0.83393 0.56269
 N287 N 0.66290 0.80843 0.58139
 C288 C 0.67761 0.80697 0.63486
 N289 N 0.67350 0.83228 0.66873
 N290 N 0.65492 0.85779 0.65010
 C291 C 0.61747 0.88630 0.57690
 N292 N 0.60767 0.90961 0.61294
 N293 N 0.58491 0.93327 0.59564
 C294 C 0.57130 0.93455 0.54161
 N295 N 0.58153 0.91145 0.50541
 N296 N 0.60415 0.88775 0.52276
 C297 C 0.85713 0.13656 0.09954
 N298 N 0.85427 0.16185 0.06545
 N299 N 0.83711 0.18790 0.08374
 C300 C 0.82206 0.18972 0.13683
 N301 N 0.82453 0.16423 0.17070
 N302 N 0.84188 0.13818 0.15249
 C303 C 0.87869 0.10873 0.08044
 N304 N 0.88740 0.08531 0.11699
 N305 N 0.90994 0.06136 0.10076
 C306 C 0.92435 0.05987 0.04730
 N307 N 0.91505 0.08303 0.01053
 N308 N 0.89266 0.10701 0.02681
 C309 C 0.36034 0.64036 0.59930
 N310 N 0.35630 0.66521 0.56439
 N311 N 0.33782 0.69090 0.58180
 C312 C 0.32255 0.69278 0.63475
 N313 N 0.32624 0.66772 0.66947
 N314 N 0.34490 0.64204 0.65215
 C315 C 0.38281 0.61282 0.58090
 N316 N 0.39216 0.58980 0.61796
 N317 N 0.41478 0.56585 0.60198
 C318 C 0.42868 0.56397 0.54830
 N319 N 0.41891 0.58679 0.51109
 N320 N 0.39643 0.61079 0.52712
   
