data_POSCAR
  _audit_creation_date              2014-09-24
  _audit_creation_method            'ToBaCCo'
  _symmetry_space_group_name_H-M    'P1'
  _symmetry_Int_Tables_number       1
  _symmetry_cell_setting            triclinic
  loop_
  _symmetry_equiv_pos_as_xyz
 x,y,z
_cell_length_a 54.1808
_cell_length_b 54.3255
_cell_length_c 55.7698
_cell_angle_alpha 89.866600
_cell_angle_beta 89.855000
_cell_angle_gamma 89.780300
loop_
  _atom_site_label
  _atom_site_type_symbol
  _atom_site_fract_x
  _atom_site_fract_y
  _atom_site_fract_z
N1 N 0.31410 0.38287 1.35545
 N2 N 0.32053 0.37076 1.37488
 C3 C 0.30320 0.37413 1.39190
 C4 C 0.28458 0.38899 1.38257
 C5 C 0.29231 0.39414 1.35931
 H6 H 0.30377 0.36554 1.40939
 H7 H 0.28299 0.40536 1.34610
 Cu8 Cu 0.34986 0.35007 1.37569
 Cu9 Cu 0.33455 0.38336 1.32669
 Cu10 Cu 0.38091 0.33980 1.32425
 N11 N 0.37218 0.32220 1.37207
 N12 N 0.38371 0.31791 1.35177
 C13 C 0.39690 0.29700 1.35380
 C14 C 0.39357 0.28749 1.37674
 C15 C 0.37774 0.30421 1.38782
 H16 H 0.40805 0.28944 1.33951
 H17 H 0.37017 0.30319 1.40574
 N18 N 0.37510 0.36384 1.29842
 N19 N 0.35752 0.38066 1.29936
 C20 C 0.35871 0.39474 1.27947
 C21 C 0.37796 0.38629 1.26526
 C22 C 0.38790 0.36667 1.27791
 H23 H 0.34647 0.41000 1.27563
 H24 H 0.40367 0.35561 1.27285
 H25 H 0.34436 0.34717 1.33275
 H26 H 0.36756 0.37122 1.34126
 N27 N 1.19085 0.62713 0.85793
 N28 N 1.18894 0.64327 0.87534
 C29 C 1.20832 0.64051 0.89025
 C30 C 1.22319 0.62164 0.88165
 C31 C 1.21141 0.61361 0.86110
 H32 H 1.21157 0.65164 0.90595
 H33 H 1.21723 0.59891 0.84933
 Cu34 Cu 1.16158 0.66658 0.87622
 Cu35 Cu 1.16674 0.62480 0.83230
 Cu36 Cu 1.11736 0.66557 0.83391
 N37 N 1.13404 0.68967 0.87669
 N38 N 1.11681 0.68922 0.86017
 C39 C 1.10061 0.70760 0.86427
 C40 C 1.10808 0.72048 0.88450
 C41 C 1.12940 0.70835 0.89186
 H42 H 1.08488 0.71146 0.85299
 H43 H 1.14107 0.71294 0.90684
 N44 N 1.12138 0.64029 0.80881
 N45 N 1.14049 0.62517 0.80801
 C46 C 1.13855 0.61076 0.78852
 C47 C 1.11716 0.61698 0.77646
 C48 C 1.10668 0.63573 0.78987
 H49 H 1.15163 0.59658 0.78356
 H50 H 1.08984 0.64563 0.78585
 H51 H 1.15516 0.66122 0.83330
 H52 H 1.13720 0.63874 0.85168
 N53 N 0.68660 -0.12741 0.13988
 N54 N 0.68273 -0.14107 0.12087
 C55 C 0.70199 -0.13872 0.10571
 C56 C 0.71890 -0.12271 0.11583
 C57 C 0.70839 -0.11593 0.13753
 H58 H 0.70362 -0.14813 0.08872
 H59 H 0.71582 -0.10327 0.15054
 Cu60 Cu 0.65290 -0.16053 0.11783
 Cu61 Cu 0.66286 -0.12495 0.16599
 Cu62 Cu 0.61277 -0.16421 0.16408
 N63 N 0.62787 -0.18598 0.11949
 N64 N 0.61205 -0.18723 0.13732
 C65 C 0.59729 -0.20682 0.13409
 C66 C 0.60428 -0.21871 0.11306
 C67 C 0.62382 -0.20474 0.10434
 H68 H 0.58296 -0.21219 0.14653
 H69 H 0.63468 -0.20800 0.08839
 N70 N 0.61733 -0.13957 0.18963
 N71 N 0.63679 -0.12508 0.19061
 C72 C 0.63516 -0.11095 0.21034
 C73 C 0.61360 -0.11671 0.22238
 C74 C 0.60270 -0.13490 0.20868
 H75 H 0.64852 -0.09721 0.21542
 H76 H 0.58561 -0.14432 0.21254
 H77 H 0.65053 -0.16073 0.16130
 H78 H 0.63138 -0.13560 0.14769
 N79 N -0.19064 1.12033 -0.35368
 N80 N -0.18721 1.13612 -0.37125
 C81 C -0.20553 1.13378 -0.38732
 C82 C -0.22122 1.11536 -0.37952
 C83 C -0.21113 1.10718 -0.35812
 H84 H -0.20722 1.14458 -0.40355
 H85 H -0.21851 1.09316 -0.34636
 Cu86 Cu -0.15911 1.15816 -0.37180
 Cu87 Cu -0.16901 1.11900 -0.32580
 Cu88 Cu -0.12487 1.16478 -0.32216
 N89 N -0.13661 1.18559 -0.36808
 N90 N -0.12370 1.18845 -0.34842
 C91 C -0.10989 1.20889 -0.35048
 C92 C -0.11421 1.21946 -0.37282
 C93 C -0.13139 1.20399 -0.38344
 H94 H -0.09731 1.21516 -0.33682
 H95 H -0.13976 1.20594 -0.40090
 N96 N -0.12882 1.13899 -0.29756
 N97 N -0.14532 1.12128 -0.29907
 C98 C -0.14304 1.10637 -0.27984
 C99 C -0.12420 1.11516 -0.26547
 C100 C -0.11564 1.13586 -0.27736
 H101 H -0.15442 1.09044 -0.27644
 H102 H -0.10063 1.14760 -0.27192
 H103 H -0.16155 1.15612 -0.32837
 H104 H -0.13781 1.13453 -0.34082
 N105 N 0.68580 0.62005 0.63139
 N106 N 0.68615 0.63833 0.61594
 C107 C 0.70520 0.63502 0.60067
 C108 C 0.71753 0.61353 0.60696
 C109 C 0.70452 0.60454 0.62652
 H110 H 0.71019 0.64772 0.58654
 H111 H 0.70863 0.58823 0.63690
 Cu112 Cu 0.66232 0.66517 0.61826
 Cu113 Cu 0.66262 0.61865 0.65805
 Cu114 Cu 0.62063 0.66667 0.66309
 N115 N 0.63763 0.69121 0.62047
 N116 N 0.62148 0.69173 0.63808
 C117 C 0.60666 0.71148 0.63535
 C118 C 0.61390 0.72413 0.61492
 C119 C 0.63364 0.71065 0.60596
 H120 H 0.59184 0.71632 0.64748
 H121 H 0.64419 0.71456 0.58995
 N122 N 0.62262 0.63944 0.68643
 N123 N 0.63789 0.62063 0.68391
 C124 C 0.63460 0.60492 0.70234
 C125 C 0.61660 0.61441 0.71732
 C126 C 0.60943 0.63632 0.70672
 H127 H 0.64510 0.58821 0.70516
 H128 H 0.59556 0.64899 0.71331
 H129 H 0.63495 0.63906 0.64183
 H130 H 0.65731 0.65625 0.66088
 N131 N 0.80904 0.37752 0.14897
 N132 N 0.80675 0.35664 0.13735
 C133 C 0.78698 0.35799 0.12287
 C134 C 0.77626 0.38100 0.12545
 C135 C 0.79080 0.39293 0.14219
 H136 H 0.78120 0.34343 0.11097
 H137 H 0.78822 0.41134 0.14909
 Cu138 Cu 0.82999 0.32972 0.14137
 Cu139 Cu 0.83530 0.38280 0.17220
 Cu140 Cu 0.88248 0.33985 0.17183
 N141 N 0.85857 0.30839 0.13794
 N142 N 0.87941 0.31293 0.14905
 C143 C 0.89603 0.29543 0.14325
 C144 C 0.88491 0.27893 0.12782
 C145 C 0.86111 0.28775 0.12486
 H146 H 0.91455 0.29430 0.15037
 H147 H 0.84674 0.27984 0.11393
 N148 N 0.88182 0.36820 0.19377
 N149 N 0.86368 0.38445 0.19420
 C150 C 0.86742 0.40018 0.21247
 C151 C 0.88894 0.39344 0.22423
 C152 C 0.89757 0.37312 0.21172
 H153 H 0.85480 0.41475 0.21747
 H154 H 0.91367 0.36213 0.21583
 H155 H 0.85897 0.36179 0.15160
 H156 H 0.84533 0.34656 0.17881
 N157 N 0.30846 0.12125 0.85733
 N158 N 0.31003 0.13866 0.87358
 C159 C 0.29159 0.13591 0.88958
 C160 C 0.27780 0.11559 0.88313
 C161 C 0.28912 0.10669 0.86259
 H162 H 0.28840 0.14780 0.90479
 H163 H 0.28327 0.09123 0.85186
 Cu164 Cu 0.33564 0.16362 0.87225
 Cu165 Cu 0.33068 0.11966 0.82984
 Cu166 Cu 0.37461 0.16561 0.82530
 N167 N 0.36043 0.18927 0.86917
 N168 N 0.37525 0.19022 0.85052
 C169 C 0.39009 0.20991 0.85256
 C170 C 0.38438 0.22194 0.87371
 C171 C 0.36546 0.20828 0.88381
 H172 H 0.40424 0.21489 0.83976
 H173 H 0.35584 0.21215 0.90040
 N174 N 0.37129 0.13912 0.80157
 N175 N 0.35481 0.12140 0.80333
 C176 C 0.35733 0.10624 0.78435
 C177 C 0.37629 0.11490 0.76992
 C178 C 0.38468 0.13575 0.78150
 H179 H 0.34596 0.09030 0.78108
 H180 H 0.39961 0.14754 0.77584
 H181 H 0.36000 0.13728 0.84576
 H182 H 0.33748 0.15699 0.82907
 N183 N 0.18379 0.88134 0.36766
 N184 N 0.18393 0.86354 0.38364
 C185 C 0.20290 0.86705 0.39882
 C186 C 0.21538 0.88818 0.39196
 C187 C 0.20257 0.89675 0.37211
 H188 H 0.20773 0.85470 0.41330
 H189 H 0.20683 0.91271 0.36131
 Cu190 Cu 0.16007 0.83688 0.38230
 Cu191 Cu 0.16064 0.88225 0.34108
 Cu192 Cu 0.11993 0.83351 0.33636
 N193 N 0.13694 0.80973 0.37932
 N194 N 0.12136 0.80849 0.36135
 C195 C 0.10756 0.78808 0.36373
 C196 C 0.11491 0.77573 0.38429
 C197 C 0.13365 0.79006 0.39368
 H198 H 0.09336 0.78257 0.35129
 H199 H 0.14395 0.78658 0.40991
 N200 N 0.12120 0.86071 0.31296
 N201 N 0.13600 0.87977 0.31534
 C202 C 0.13224 0.89541 0.29692
 C203 C 0.11441 0.88559 0.28210
 C204 C 0.10785 0.86356 0.29279
 H205 H 0.14226 0.91232 0.29402
 H206 H 0.09425 0.85067 0.28636
 H207 H 0.13293 0.86193 0.35721
 H208 H 0.15634 0.84444 0.33935
 Zn209 Zn 0.00461 1.03079 -0.00661
 Zn210 Zn -0.01988 0.98158 -0.01249
 Zn211 Zn 0.03006 0.98535 0.01015
 Zn212 Zn -0.01395 1.00407 0.03620
 O213 O 0.00016 1.00041 0.00674
 O214 O -0.01163 1.03399 -0.03423
 O215 O -0.00486 0.95382 -0.02283
 O216 O 0.05510 1.00328 -0.00139
 O217 O -0.02992 0.99796 -0.03888
 O218 O 0.03626 1.03725 -0.01346
 O219 O 0.03159 0.95686 -0.00537
 O220 O 0.00493 0.99274 0.06011
 O221 O -0.04747 0.97156 0.00280
 O222 O 0.03745 0.97822 0.04068
 O223 O -0.04240 0.98802 0.03868
 O224 O -0.02095 1.03536 0.04334
 O225 O -0.00627 1.05550 0.01197
 C226 C -0.02539 1.01969 -0.04616
 C227 C 0.01655 0.94526 -0.01852
 C228 C 0.05577 1.02452 -0.01090
 C229 C 0.02580 0.98207 0.06009
 C230 C -0.05487 0.97515 0.02416
 C231 C -0.01702 1.05536 0.03222
 Zn232 Zn 0.53065 -0.00930 0.49128
 Zn233 Zn 0.48106 -0.01434 0.51483
 Zn234 Zn 0.50506 0.03515 0.50992
 Zn235 Zn 0.48605 0.00987 0.46663
 O236 O 0.50064 0.00529 0.49572
 O237 O 0.53273 -0.03816 0.50618
 O238 O 0.47145 0.00095 0.54198
 O239 O 0.53673 0.04163 0.51652
 O240 O 0.49645 -0.04238 0.52397
 O241 O 0.55572 0.00846 0.50274
 O242 O 0.48912 0.03736 0.53779
 O243 O 0.48026 0.04160 0.45974
 O244 O 0.45302 -0.02350 0.50001
 O245 O 0.49400 0.06035 0.49216
 O246 O 0.45692 -0.00503 0.46482
 O247 O 0.50388 -0.00213 0.44224
 O248 O 0.53747 -0.01567 0.46044
 C249 C 0.51800 -0.05041 0.51923
 C250 C 0.47576 0.02253 0.54966
 C251 C 0.55633 0.02924 0.51308
 C252 C 0.48402 0.06113 0.47161
 C253 C 0.44475 -0.01841 0.47926
 C254 C 0.52493 -0.01241 0.44150
 Zn255 Zn 1.00760 0.46458 0.49018
 Zn256 Zn 1.03427 0.50824 0.50890
 Zn257 Zn 0.98485 0.51468 0.48528
 Zn258 Zn 0.98906 0.49058 0.53347
 O259 O 1.00391 0.49457 0.50439
 O260 O 1.03910 0.45724 0.48358
 O261 O 1.03727 0.53691 0.49359
 O262 O 0.97545 0.49988 0.45790
 O263 O 1.05908 0.48931 0.49813
 O264 O 0.99208 0.46290 0.46215
 O265 O 1.00089 0.54221 0.47634
 O266 O 0.96008 0.50600 0.53509
 O267 O 1.04080 0.51489 0.53967
 O268 O 0.95673 0.52448 0.49987
 O269 O 1.00679 0.50243 0.55784
 O270 O 0.98283 0.45908 0.54052
 O271 O 0.99586 0.43971 0.50803
 C272 C 1.05907 0.46867 0.48750
 C273 C 1.02266 0.54956 0.48070
 C274 C 0.97949 0.47827 0.45010
 C275 C 0.94818 0.51954 0.52057
 C276 C 1.02800 0.51220 0.55857
 C277 C 0.98604 0.43937 0.52872
 Zn278 Zn 0.49060 0.49432 0.96308
 Zn279 Zn 0.53400 0.51324 0.98968
 Zn280 Zn 0.48351 0.51762 1.01143
 Zn281 Zn 0.50800 0.46830 1.00663
 O282 O 0.50398 0.49844 0.99275
 O283 O 0.50984 0.50563 0.93945
 O284 O 0.53523 0.54188 1.00504
 O285 O 0.45625 0.52738 0.99556
 O286 O 0.54195 0.52017 0.95919
 O287 O 0.46193 0.51018 0.96004
 O288 O 0.49825 0.54544 1.02156
 O289 O 0.49138 0.46567 1.03404
 O290 O 0.55881 0.49510 1.00168
 O291 O 0.47290 0.50181 1.03799
 O292 O 0.53944 0.46157 1.01389
 O293 O 0.49725 0.44345 0.98845
 O294 O 0.48428 0.46287 0.95599
 C295 C 0.53063 0.51629 0.93967
 C296 C 0.51979 0.55376 1.01768
 C297 C 0.44915 0.52330 0.97423
 C298 C 0.47736 0.48017 1.04561
 C299 C 0.55911 0.47395 1.01143
 C300 C 0.48752 0.44313 0.96778
 C301 C 1.21780 0.41109 0.41634
 C302 C 1.23674 0.40006 0.42975
 C303 C 1.25870 0.39261 0.41864
 C304 C 1.26250 0.39656 0.39389
 C305 C 1.24354 0.40811 0.38068
 C306 C 1.22140 0.41498 0.39172
 C307 C 1.19431 0.41840 0.42785
 N308 N 1.17315 0.41942 0.41489
 N309 N 1.15195 0.42615 0.42511
 C310 C 1.15107 0.43234 0.44867
 N311 N 1.17224 0.43139 0.46166
 N312 N 1.19342 0.42441 0.45148
 C313 C 1.12759 0.44047 0.45969
 C314 C 1.12752 0.45659 0.47936
 C315 C 1.10524 0.46557 0.48865
 C316 C 1.08262 0.45813 0.47880
 C317 C 1.08271 0.44136 0.45967
 C318 C 1.10497 0.43282 0.45005
 H319 H 1.23442 0.39682 0.44879
 H320 H 1.27271 0.38410 0.42969
 H321 H 1.24533 0.41144 0.36164
 H322 H 1.20714 0.42358 0.38096
 H323 H 1.14470 0.46284 0.48709
 H324 H 1.10569 0.47844 0.50344
 H325 H 1.06557 0.43539 0.45165
 H326 H 1.10448 0.42029 0.43499
 C327 C 0.29135 0.59362 0.91102
 C328 C 0.27599 0.60902 0.92479
 C329 C 0.25391 0.61824 0.91529
 C330 C 0.24668 0.61220 0.89182
 C331 C 0.26214 0.59691 0.87807
 C332 C 0.28416 0.58776 0.88753
 C333 C 0.31471 0.58357 0.92090
 N334 N 0.32936 0.56889 0.90723
 N335 N 0.35030 0.55967 0.91591
 C336 C 0.35754 0.56467 0.93866
 N337 N 0.34290 0.57937 0.95239
 N338 N 0.32192 0.58863 0.94368
 C339 C 0.38091 0.55421 0.94809
 C340 C 0.38871 0.55897 0.97166
 C341 C 0.41084 0.54894 0.98028
 C342 C 0.42561 0.53396 0.96549
 C343 C 0.41775 0.52923 0.94197
 C344 C 0.39572 0.53920 0.93339
 H345 H 0.28096 0.61392 0.94295
 H346 H 0.24243 0.62985 0.92646
 H347 H 0.25744 0.59207 0.85986
 H348 H 0.29553 0.57603 0.87634
 H349 H 0.37775 0.57045 0.98347
 H350 H 0.41639 0.55295 0.99850
 H351 H 0.42864 0.51778 0.93006
 H352 H 0.39034 0.53511 0.91515
 C353 C -0.21215 0.90341 0.08665
 C354 C -0.22911 0.89109 0.07193
 C355 C -0.25140 0.88234 0.08138
 C356 C -0.25722 0.88578 0.10574
 C357 C -0.24007 0.89779 0.12046
 C358 C -0.21787 0.90648 0.11106
 C359 C -0.18876 0.91338 0.07681
 N360 N -0.17309 0.92593 0.09122
 N361 N -0.15223 0.93529 0.08258
 C362 C -0.14605 0.93255 0.05914
 N363 N -0.16167 0.91993 0.04466
 N364 N -0.18261 0.91055 0.05332
 C365 C -0.12282 0.94333 0.04978
 C366 C -0.11540 0.93993 0.02581
 C367 C -0.09336 0.95024 0.01733
 C368 C -0.07835 0.96420 0.03265
 C369 C -0.08586 0.96761 0.05655
 C370 C -0.10775 0.95731 0.06499
 H371 H -0.22529 0.88839 0.05305
 H372 H -0.26418 0.87327 0.06948
 H373 H -0.24366 0.90049 0.13936
 H374 H -0.20523 0.91574 0.12301
 H375 H -0.12658 0.92926 0.01360
 H376 H -0.08807 0.94728 -0.00118
 H377 H -0.07478 0.97822 0.06888
 H378 H -0.11283 0.96038 0.08354
 C379 C 0.71269 0.08989 0.58592
 C380 C 0.72135 0.11389 0.58187
 C381 C 0.74290 0.12209 0.59297
 C382 C 0.75604 0.10661 0.60864
 C383 C 0.74728 0.08269 0.61287
 C384 C 0.72594 0.07434 0.60148
 C385 C 0.68994 0.08114 0.57405
 N386 N 0.68502 0.05670 0.57253
 N387 N 0.66450 0.04882 0.56196
 C388 C 0.64798 0.06504 0.55261
 N389 N 0.65288 0.08949 0.55415
 N390 N 0.67348 0.09737 0.56458
 C391 C 0.62489 0.05624 0.54140
 C392 C 0.60467 0.07221 0.53834
 C393 C 0.58248 0.06355 0.52885
 C394 C 0.58017 0.03882 0.52187
 C395 C 0.60061 0.02302 0.52435
 C396 C 0.62266 0.03159 0.53417
 H397 H 0.71160 0.12630 0.56995
 H398 H 0.74907 0.14070 0.58951
 H399 H 0.75709 0.07027 0.62473
 H400 H 0.71969 0.05578 0.60504
 H401 H 0.60579 0.09129 0.54378
 H402 H 0.56707 0.07618 0.52711
 H403 H 0.59939 0.00385 0.51922
 H404 H 0.63795 0.01885 0.53616
 C405 C 0.42314 0.22111 0.40538
 C406 C 0.40968 0.23734 0.42002
 C407 C 0.39990 0.25918 0.41063
 C408 C 0.40359 0.26556 0.38636
 C409 C 0.41745 0.24931 0.37188
 C410 C 0.42692 0.22735 0.38123
 C411 C 0.43300 0.19767 0.41515
 N412 N 0.44067 0.17944 0.40022
 N413 N 0.44923 0.15824 0.40896
 C414 C 0.45062 0.15441 0.43299
 N415 N 0.44305 0.17269 0.44792
 N416 N 0.43436 0.19385 0.43919
 C417 C 0.45983 0.13070 0.44270
 C418 C 0.46655 0.12859 0.46695
 C419 C 0.47482 0.10610 0.47622
 C420 C 0.47626 0.08516 0.46152
 C421 C 0.46966 0.08730 0.43725
 C422 C 0.46169 0.10986 0.42791
 H423 H 0.40640 0.23304 0.43872
 H424 H 0.38961 0.27099 0.42263
 H425 H 0.42084 0.25313 0.35314
 H426 H 0.43731 0.21530 0.36948
 H427 H 0.46545 0.14432 0.47879
 H428 H 0.47972 0.10504 0.49501
 H429 H 0.47063 0.07151 0.42546
 H430 H 0.45660 0.11085 0.40917
 C431 C 0.91841 0.28386 0.59774
 C432 C 0.92289 0.27704 0.62163
 C433 C 0.91229 0.25579 0.63129
 C434 C 0.89660 0.24089 0.61741
 C435 C 0.89206 0.24796 0.59346
 C436 C 0.90296 0.26904 0.58375
 C437 C 0.92961 0.30642 0.58755
 N438 N 0.93031 0.31015 0.56346
 N439 N 0.94014 0.33057 0.55431
 C440 C 0.94957 0.34817 0.56888
 N441 N 0.94888 0.34444 0.59296
 N442 N 0.93918 0.32396 0.60210
 C443 C 0.95984 0.37120 0.55875
 C444 C 0.96321 0.39194 0.57338
 C445 C 0.97191 0.41400 0.56366
 C446 C 0.97777 0.41572 0.53915
 C447 C 0.97494 0.39483 0.52461
 C448 C 0.96591 0.37285 0.53427
 H449 H 0.93476 0.28806 0.63289
 H450 H 0.91633 0.25141 0.64979
 H451 H 0.88032 0.23721 0.58190
 H452 H 0.89904 0.27385 0.56529
 H453 H 0.95866 0.39129 0.59229
 H454 H 0.97397 0.42975 0.57534
 H455 H 0.97925 0.39560 0.50565
 H456 H 0.96365 0.35717 0.52255
 C457 C 0.07643 0.78516 -0.08533
 C458 C 0.06558 0.77395 -0.10535
 C459 C 0.07577 0.75249 -0.11517
 C460 C 0.09715 0.74165 -0.10522
 C461 C 0.10760 0.75279 -0.08485
 C462 C 0.09743 0.77418 -0.07512
 C463 C 0.06643 0.80843 -0.07530
 N464 N 0.07840 0.81996 -0.05720
 N465 N 0.06998 0.84112 -0.04839
 C466 C 0.04918 0.85173 -0.05725
 N467 N 0.03706 0.84017 -0.07529
 N468 N 0.04554 0.81896 -0.08416
 C469 C 0.04036 0.87559 -0.04751
 C470 C 0.01767 0.88593 -0.05463
 C471 C 0.00973 0.90854 -0.04523
 C472 C 0.02443 0.92129 -0.02868
 C473 C 0.04708 0.91091 -0.02165
 C474 C 0.05490 0.88837 -0.03088
 H475 H 0.04934 0.78190 -0.11364
 H476 H 0.06686 0.74471 -0.13071
 H477 H 0.12384 0.74532 -0.07626
 H478 H 0.10623 0.78220 -0.05960
 H479 H 0.00601 0.87653 -0.06739
 H480 H -0.00782 0.91607 -0.05100
 H481 H 0.05886 0.92016 -0.00889
 H482 H 0.07250 0.88106 -0.02500
 C483 C 0.57559 0.71508 1.08386
 C484 C 0.59530 0.72734 1.07270
 C485 C 0.60452 0.74922 1.08214
 C486 C 0.59441 0.75952 1.10318
 C487 C 0.57439 0.74729 1.11416
 C488 C 0.56511 0.72541 1.10459
 C489 C 0.56646 0.69146 1.07403
 N490 N 0.54603 0.68037 1.08317
 N491 N 0.53821 0.65896 1.07441
 C492 C 0.55054 0.64772 1.05620
 N493 N 0.57091 0.65885 1.04708
 N494 N 0.57867 0.68024 1.05577
 C495 C 0.54232 0.62370 1.04654
 C496 C 0.55730 0.61091 1.03012
 C497 C 0.54993 0.58827 1.02094
 C498 C 0.52729 0.57780 1.02779
 C499 C 0.51219 0.59056 1.04415
 C500 C 0.51968 0.61325 1.05351
 H501 H 0.60377 0.72000 1.05662
 H502 H 0.61979 0.75773 1.07283
 H503 H 0.56578 0.75438 1.13023
 H504 H 0.54987 0.71646 1.11364
 H505 H 0.57488 0.61832 1.02439
 H506 H 0.56201 0.57900 1.00833
 H507 H 0.49465 0.58297 1.04979
 H508 H 0.50769 0.62264 1.06610
 C509 C 0.40454 0.41548 1.19804
 C510 C 0.38856 0.42949 1.21254
 C511 C 0.37966 0.41997 1.23424
 C512 C 0.38663 0.39627 1.24194
 C513 C 0.40235 0.38221 1.22727
 C514 C 0.41116 0.39167 1.20562
 C515 C 0.41459 0.42553 1.17528
 N516 N 0.42978 0.41159 1.16144
 N517 N 0.43922 0.42049 1.14118
 C518 C 0.43393 0.44376 1.13382
 N519 N 0.41868 0.45775 1.14762
 N520 N 0.40920 0.44882 1.16794
 C521 C 0.44482 0.45346 1.11128
 C522 C 0.43980 0.47755 1.10328
 C523 C 0.45035 0.48640 1.08197
 C524 C 0.46610 0.47132 1.06828
 C525 C 0.47106 0.44728 1.07635
 C526 C 0.46058 0.43849 1.09752
 H527 H 0.38305 0.44789 1.20724
 H528 H 0.36768 0.43137 1.24513
 H529 H 0.40785 0.36378 1.23239
 H530 H 0.42333 0.38027 1.19489
 H531 H 0.42775 0.48958 1.11346
 H532 H 0.44615 0.50500 1.07623
 H533 H 0.48309 0.43512 1.06627
 H534 H 0.46489 0.41985 1.10307
 C535 C 0.58705 -0.08422 0.28800
 C536 C 0.61228 -0.08371 0.28215
 C537 C 0.62084 -0.09423 0.26085
 C538 C 0.60442 -0.10575 0.24501
 C539 C 0.57922 -0.10652 0.25095
 C540 C 0.57060 -0.09574 0.27215
 C541 C 0.57802 -0.07281 0.31049
 N542 N 0.55353 -0.06879 0.31412
 N543 N 0.54546 -0.05849 0.33434
 C544 C 0.56151 -0.05187 0.35183
 N545 N 0.58598 -0.05592 0.34822
 N546 N 0.59407 -0.06611 0.32796
 C547 C 0.55247 -0.04083 0.37451
 C548 C 0.56807 -0.03904 0.39453
 C549 C 0.55925 -0.02952 0.41620
 C550 C 0.53471 -0.02130 0.41825
 C551 C 0.51927 -0.02257 0.39807
 C552 C 0.52801 -0.03234 0.37649
 H553 H 0.62546 -0.07499 0.29393
 H554 H 0.64040 -0.09354 0.25695
 H555 H 0.56608 -0.11511 0.23905
 H556 H 0.55106 -0.09653 0.27615
 H557 H 0.58701 -0.04543 0.39362
 H558 H 0.57161 -0.02875 0.43140
 H559 H 0.50025 -0.01646 0.39907
 H560 H 0.51555 -0.03332 0.36138
 C561 C -0.09661 1.08521 -0.19893
 C562 C -0.09053 1.10923 -0.20620
 C563 C -0.09959 1.11889 -0.22766
 C564 C -0.11500 1.10483 -0.24248
 C565 C -0.12130 1.08087 -0.23514
 C566 C -0.11218 1.07115 -0.21362
 C567 C -0.08655 1.07505 -0.17623
 N568 N -0.09182 1.05174 -0.16898
 N569 N -0.08250 1.04275 -0.14863
 C570 C -0.06751 1.05669 -0.13471
 N571 N -0.06230 1.07997 -0.14198
 N572 N -0.07159 1.08894 -0.16227
 C573 C -0.05689 1.04690 -0.11209
 C574 C -0.04140 1.06176 -0.09810
 C575 C -0.03125 1.05283 -0.07682
 C576 C -0.03628 1.02879 -0.06889
 C577 C -0.05176 1.01385 -0.08283
 C578 C -0.06196 1.02281 -0.10421
 H579 H -0.07868 1.12066 -0.19533
 H580 H -0.09456 1.13751 -0.23247
 H581 H -0.13301 1.06944 -0.24613
 H582 H -0.11725 1.05259 -0.20857
 H583 H -0.03706 1.08039 -0.10355
 H584 H -0.01942 1.06487 -0.06656
 H585 H -0.05600 0.99524 -0.07721
 H586 H -0.07381 1.01087 -0.11455
 C587 C 1.09027 0.58438 0.71127
 C588 C 1.11546 0.58325 0.71713
 C589 C 1.12412 0.59382 0.73828
 C590 C 1.10786 0.60599 0.75397
 C591 C 1.08271 0.60738 0.74803
 C592 C 1.07398 0.59656 0.72697
 C593 C 1.08115 0.57292 0.68892
 N594 N 1.05661 0.56956 0.68529
 N595 N 1.04847 0.55921 0.66519
 C596 C 1.06451 0.55187 0.64783
 N597 N 1.08903 0.55526 0.65146
 N598 N 1.09718 0.56550 0.67160
 C599 C 1.05544 0.54079 0.62528
 C600 C 1.07120 0.53825 0.60537
 C601 C 1.06239 0.52866 0.58380
 C602 C 1.03770 0.52115 0.58174
 C603 C 1.02209 0.52317 0.60181
 C604 C 1.03082 0.53300 0.62330
 H605 H 1.12852 0.57402 0.70545
 H606 H 1.14365 0.59265 0.74217
 H607 H 1.06969 0.61650 0.75982
 H608 H 1.05447 0.59783 0.72295
 H609 H 1.09026 0.54408 0.60628
 H610 H 1.07490 0.52730 0.56867
 H611 H 1.00295 0.51761 0.60079
 H612 H 1.01823 0.53457 0.63833
 C613 C 0.78534 0.58446 0.57737
 C614 C 0.77260 0.60352 0.56555
 C615 C 0.75047 0.61283 0.57496
 C616 C 0.74057 0.60327 0.59638
 C617 C 0.75322 0.58400 0.60796
 C618 C 0.77527 0.57475 0.59861
 C619 C 0.80918 0.57487 0.56806
 N620 N 0.82184 0.55752 0.58058
 N621 N 0.84342 0.54903 0.57267
 C622 C 0.85334 0.55747 0.55186
 N623 N 0.84066 0.57479 0.53923
 N624 N 0.81903 0.58334 0.54718
 C625 C 0.87758 0.54799 0.54347
 C626 C 0.88753 0.55506 0.52118
 C627 C 0.91046 0.54587 0.51359
 C628 C 0.92391 0.52953 0.52820
 C629 C 0.91392 0.52256 0.55046
 C630 C 0.89109 0.53162 0.55797
 H631 H 0.77980 0.61139 0.54912
 H632 H 0.74121 0.62753 0.56541
 H633 H 0.74641 0.57616 0.62452
 H634 H 0.78451 0.56005 0.60821
 H635 H 0.87760 0.56763 0.50956
 H636 H 0.91766 0.55159 0.49633
 H637 H 0.92373 0.50999 0.56218
 H638 H 0.88408 0.52578 0.57526
 C639 C 0.71221 0.40889 1.08847
 C640 C 0.72915 0.42514 1.09899
 C641 C 0.74985 0.41612 1.11115
 C642 C 0.75419 0.39066 1.11286
 C643 C 0.73730 0.37443 1.10229
 C644 C 0.71651 0.38343 1.09032
 C645 C 0.69010 0.41835 1.07579
 N646 N 0.67179 0.40283 1.06909
 N647 N 0.65175 0.41130 1.05798
 C648 C 0.64920 0.43566 1.05298
 N649 N 0.66757 0.45118 1.05956
 N650 N 0.68758 0.44271 1.07076
 C651 C 0.62659 0.44514 1.04118
 C652 C 0.62533 0.46956 1.03286
 C653 C 0.60363 0.47875 1.02262
 C654 C 0.58263 0.46378 1.02067
 C655 C 0.58402 0.43924 1.02862
 C656 C 0.60577 0.43000 1.03865
 H657 H 0.72637 0.44486 1.09795
 H658 H 0.76259 0.42913 1.11893
 H659 H 0.73993 0.35471 1.10346
 H660 H 0.70385 0.37038 1.08245
 H661 H 0.64107 0.48168 1.03442
 H662 H 0.60315 0.49774 1.01671
 H663 H 0.56819 0.42721 1.02731
 H664 H 0.60609 0.41110 1.04486
 C665 C 0.21231 1.08807 -0.08221
 C666 C 0.22695 1.07250 -0.09653
 C667 C 0.24816 1.08145 -0.10787
 C668 C 0.25536 1.10606 -0.10487
 C669 C 0.24086 1.12156 -0.09039
 C670 C 0.21950 1.11271 -0.07930
 C671 C 0.18957 1.07877 -0.07056
 N672 N 0.17242 1.09463 -0.06166
 N673 N 0.15180 1.08630 -0.05149
 C674 C 0.14753 1.06175 -0.04964
 N675 N 0.16474 1.04588 -0.05841
 N676 N 0.18530 1.05422 -0.06871
 C677 C 0.12438 1.05248 -0.03875
 C678 C 0.12222 1.02764 -0.03201
 C679 C 0.10012 1.01871 -0.02242
 C680 C 0.07960 1.03436 -0.01965
 C681 C 0.08183 1.05926 -0.02615
 C682 C 0.10403 1.06826 -0.03545
 H683 H 0.22189 1.05344 -0.09919
 H684 H 0.25904 1.06901 -0.11878
 H685 H 0.24577 1.14067 -0.08788
 H686 H 0.20866 1.12518 -0.06836
 H687 H 0.13759 1.01503 -0.03419
 H688 H 0.09897 0.99941 -0.01765
 H689 H 0.06637 1.07179 -0.02417
 H690 H 0.10507 1.08749 -0.04049
 C691 C 0.28280 -0.08261 0.42142
 C692 C 0.27328 -0.07362 0.39966
 C693 C 0.25136 -0.08291 0.39031
 C694 C 0.23832 -0.10151 0.40242
 C695 C 0.24768 -0.11035 0.42433
 C696 C 0.26966 -0.10100 0.43373
 C697 C 0.30646 -0.07299 0.43082
 N698 N 0.31583 -0.08101 0.45206
 N699 N 0.33730 -0.07247 0.46014
 C700 C 0.35030 -0.05560 0.44731
 N701 N 0.34087 -0.04759 0.42614
 N702 N 0.31944 -0.05609 0.41809
 C703 C 0.37437 -0.04618 0.45588
 C704 C 0.38813 -0.03002 0.44142
 C705 C 0.41087 -0.02113 0.44909
 C706 C 0.42051 -0.02807 0.47149
 C707 C 0.40679 -0.04416 0.48608
 C708 C 0.38396 -0.05317 0.47833
 H709 H 0.28285 -0.05945 0.38966
 H710 H 0.24495 -0.07566 0.37336
 H711 H 0.23809 -0.12451 0.43430
 H712 H 0.27643 -0.10832 0.45056
 H713 H 0.38140 -0.02424 0.42402
 H714 H 0.42089 -0.00874 0.43739
 H715 H 0.41371 -0.04986 0.50343
 H716 H 0.37383 -0.06557 0.48993
 C717 C 0.58259 -0.20905 0.58577
 C718 C 0.60545 -0.21804 0.57752
 C719 C 0.61552 -0.23968 0.58694
 C720 C 0.60303 -0.25293 0.60488
 C721 C 0.58014 -0.24398 0.61313
 C722 C 0.57003 -0.22231 0.60367
 C723 C 0.57218 -0.18591 0.57579
 N724 N 0.54991 -0.17710 0.58321
 N725 N 0.54083 -0.15616 0.57426
 C726 C 0.55364 -0.14317 0.55754
 N727 N 0.57584 -0.15205 0.55014
 N728 N 0.58490 -0.17293 0.55904
 C729 C 0.54396 -0.11967 0.54767
 C730 C 0.55829 -0.10605 0.53138
 C731 C 0.54971 -0.08374 0.52219
 C732 C 0.52649 -0.07439 0.52896
 C733 C 0.51197 -0.08804 0.54510
 C734 C 0.52064 -0.11045 0.55440
 H735 H 0.61570 -0.20832 0.56379
 H736 H 0.63326 -0.24579 0.58025
 H737 H 0.56987 -0.25374 0.62679
 H738 H 0.55238 -0.21594 0.61043
 H739 H 0.57632 -0.11251 0.52575
 H740 H 0.56139 -0.07378 0.50976
 H741 H 0.49401 -0.08134 0.55067
 H742 H 0.50911 -0.12050 0.56689
 C743 C 1.08591 0.70794 0.41311
 C744 C 1.10855 0.71733 0.42118
 C745 C 1.11791 0.73928 0.41185
 C746 C 1.10492 0.75239 0.39414
 C747 C 1.08230 0.74299 0.38601
 C748 C 1.07288 0.72104 0.39541
 C749 C 1.07608 0.68461 0.42310
 N750 N 1.05370 0.67588 0.41627
 N751 N 1.04500 0.65488 0.42530
 C752 C 1.05833 0.64171 0.44150
 N753 N 1.08068 0.65047 0.44830
 N754 N 1.08936 0.67145 0.43932
 C755 C 1.04889 0.61824 0.45153
 C756 C 1.06361 0.60422 0.46719
 C757 C 1.05501 0.58203 0.47661
 C758 C 1.03143 0.57327 0.47068
 C759 C 1.01661 0.58729 0.45510
 C760 C 1.02526 0.60953 0.44560
 H761 H 1.11912 0.70773 0.43477
 H762 H 1.13548 0.74577 0.41841
 H763 H 1.07166 0.75265 0.37254
 H764 H 1.05538 0.71437 0.38877
 H765 H 1.08190 0.61030 0.47217
 H766 H 1.06693 0.57173 0.48857
 H767 H 0.99836 0.58105 0.45018
 H768 H 1.01343 0.61989 0.43361
 C769 C -0.08386 1.21238 0.09887
 C770 C -0.06860 1.23237 0.10462
 C771 C -0.07872 1.25398 0.11413
 C772 C -0.10432 1.25618 0.11763
 C773 C -0.11958 1.23634 0.11155
 C774 C -0.10944 1.21459 0.10247
 C775 C -0.07324 1.18924 0.08937
 N776 N -0.08596 1.16783 0.09113
 N777 N -0.07651 1.14693 0.08264
 C778 C -0.05400 1.14659 0.07187
 N779 N -0.04128 1.16802 0.07003
 N780 N -0.05066 1.18891 0.07870
 C781 C -0.04377 1.12334 0.06223
 C782 C -0.02544 1.12356 0.04435
 C783 C -0.01661 1.10149 0.03462
 C784 C -0.02562 1.07878 0.04290
 C785 C -0.04355 1.07858 0.06115
 C786 C -0.05266 1.10061 0.07056
 H787 H -0.04881 1.23117 0.10211
 H788 H -0.06653 1.26905 0.11852
 H789 H -0.13935 1.23741 0.11423
 H790 H -0.12169 1.19955 0.09811
 H791 H -0.01829 1.14081 0.03753
 H792 H -0.00275 1.10220 0.02061
 H793 H -0.05092 1.06138 0.06785
 H794 H -0.06668 1.09983 0.08442
 C795 C 0.41826 0.28743 0.90172
 C796 C 0.40584 0.27103 0.91706
 C797 C 0.39471 0.24985 0.90796
 C798 C 0.39599 0.24446 0.88336
 C799 C 0.40853 0.26077 0.86805
 C800 C 0.41942 0.28208 0.87710
 C801 C 0.42976 0.31006 0.91130
 N802 N 0.43716 0.32837 0.89632
 N803 N 0.44717 0.34887 0.90494
 C804 C 0.45033 0.35188 0.92891
 N805 N 0.44306 0.33351 0.94388
 N806 N 0.43295 0.31306 0.93526
 C807 C 0.46094 0.37491 0.93855
 C808 C 0.46847 0.37631 0.96262
 C809 C 0.47766 0.39829 0.97195
 C810 C 0.47928 0.41945 0.95749
 C811 C 0.47207 0.41798 0.93335
 C812 C 0.46313 0.39592 0.92395
 H813 H 0.40454 0.27463 0.93611
 H814 H 0.38537 0.23757 0.92026
 H815 H 0.40968 0.25727 0.84898
 H816 H 0.42886 0.29430 0.86479
 H817 H 0.46715 0.36043 0.97432
 H818 H 0.48302 0.39883 0.99063
 H819 H 0.47316 0.43395 0.92173
 H820 H 0.45748 0.39549 0.90535
 C821 C 0.59200 0.58357 0.78427
 C822 C 0.60027 0.56819 0.76567
 C823 C 0.60832 0.57824 0.74394
 C824 C 0.60779 0.60381 0.74021
 C825 C 0.59916 0.61917 0.75866
 C826 C 0.59158 0.60916 0.78057
 C827 C 0.58390 0.57296 0.80742
 N828 N 0.58423 0.58667 0.82774
 N829 N 0.57690 0.57713 0.84859
 C830 C 0.56876 0.55355 0.84992
 N831 N 0.56838 0.53985 0.82958
 N832 N 0.57592 0.54933 0.80877
 C833 C 0.55996 0.54322 0.87293
 C834 C 0.54319 0.52355 0.87323
 C835 C 0.53385 0.51463 0.89494
 C836 C 0.54148 0.52485 0.91680
 C837 C 0.55879 0.54404 0.91655
 C838 C 0.56775 0.55330 0.89481
 H839 H 0.60086 0.54841 0.76803
 H840 H 0.61473 0.56597 0.72996
 H841 H 0.59872 0.63895 0.75633
 H842 H 0.58518 0.62145 0.79455
 H843 H 0.53680 0.51547 0.85665
 H844 H 0.52058 0.49977 0.89461
 H845 H 0.56491 0.55233 0.93313
 H846 H 0.58077 0.56837 0.89513
 C847 C 0.40422 0.08510 0.70346
 C848 C 0.38883 0.07086 0.71831
 C849 C 0.37957 0.08051 0.73983
 C850 C 0.38558 0.10457 0.74697
 C851 C 0.40079 0.11879 0.73198
 C852 C 0.40997 0.10921 0.71056
 C853 C 0.41446 0.07513 0.68076
 N854 N 0.42940 0.08923 0.66686
 N855 N 0.43884 0.08053 0.64654
 C856 C 0.43380 0.05731 0.63914
 N857 N 0.41883 0.04312 0.65300
 N858 N 0.40935 0.05185 0.67340
 C859 C 0.44452 0.04793 0.61640
 C860 C 0.43947 0.02402 0.60813
 C861 C 0.44965 0.01559 0.58651
 C862 C 0.46508 0.03090 0.57275
 C863 C 0.47015 0.05472 0.58113
 C864 C 0.46003 0.06311 0.60262
 H865 H 0.38401 0.05222 0.71339
 H866 H 0.36800 0.06898 0.75096
 H867 H 0.40557 0.13749 0.73660
 H868 H 0.42166 0.12080 0.69957
 H869 H 0.42761 0.01185 0.61831
 H870 H 0.44538 -0.00286 0.58054
 H871 H 0.48195 0.06703 0.57103
 H872 H 0.46438 0.08160 0.60837
 C873 C 0.08838 0.91585 0.21545
 C874 C 0.08867 0.89026 0.21920
 C875 C 0.09674 0.88045 0.24102
 C876 C 0.10515 0.89600 0.25931
 C877 C 0.10498 0.92156 0.25553
 C878 C 0.09643 0.93141 0.23390
 C879 C 0.07981 0.92622 0.19237
 N880 N 0.07118 0.94969 0.19102
 N881 N 0.06329 0.95895 0.17025
 C882 C 0.06394 0.94519 0.14996
 N883 N 0.07270 0.92177 0.15129
 N884 N 0.08039 0.91244 0.17209
 C885 C 0.05492 0.95532 0.12694
 C886 C 0.06306 0.94533 0.10508
 C887 C 0.05408 0.95448 0.08333
 C888 C 0.03641 0.97347 0.08303
 C889 C 0.02837 0.98356 0.10488
 C890 C 0.03773 0.97474 0.12662
 H891 H 0.08246 0.87783 0.20534
 H892 H 0.09685 0.86066 0.24338
 H893 H 0.11120 0.93398 0.26940
 H894 H 0.09647 0.95120 0.23149
 H895 H 0.07642 0.93045 0.10478
 H896 H 0.06054 0.94630 0.06676
 H897 H 0.01481 0.99826 0.10517
 H898 H 0.03106 0.98274 0.14319
 C899 C 0.91754 0.42268 0.29047
 C900 C 0.92697 0.40071 0.28078
 C901 C 0.91797 0.39151 0.25919
 C902 C 0.89922 0.40398 0.24665
 C903 C 0.89002 0.42619 0.25613
 C904 C 0.89910 0.43545 0.27778
 C905 C 0.92668 0.43174 0.31389
 N906 N 0.91869 0.45347 0.32321
 N907 N 0.92676 0.46118 0.34448
 C908 C 0.94309 0.44745 0.35732
 N909 N 0.95106 0.42578 0.34794
 N910 N 0.94305 0.41811 0.32672
 C911 C 0.95204 0.45561 0.38112
 C912 C 0.96714 0.43996 0.39487
 C913 C 0.97580 0.44735 0.41723
 C914 C 0.96971 0.47064 0.42647
 C915 C 0.95457 0.48636 0.41281
 C916 C 0.94577 0.47889 0.39037
 H917 H 0.94123 0.39039 0.28999
 H918 H 0.92552 0.37434 0.25267
 H919 H 0.87574 0.43645 0.24692
 H920 H 0.89146 0.45247 0.28469
 H921 H 0.97231 0.42188 0.38840
 H922 H 0.98745 0.43476 0.42722
 H923 H 0.94953 0.50442 0.41943
 H924 H 0.93418 0.49141 0.38024
   
