data_POSCAR
  _audit_creation_date              2014-09-24
  _audit_creation_method            'ToBaCCo'
  _symmetry_space_group_name_H-M    'P1'
  _symmetry_Int_Tables_number       1
  _symmetry_cell_setting            triclinic
  loop_
  _symmetry_equiv_pos_as_xyz
 x,y,z
_cell_length_a 21.8719
_cell_length_b 21.5330
_cell_length_c 23.9250
_cell_angle_alpha 93.517000
_cell_angle_beta 91.994700
_cell_angle_gamma 97.288500
loop_
  _atom_site_label
  _atom_site_type_symbol
  _atom_site_fract_x
  _atom_site_fract_y
  _atom_site_fract_z
O1 O 0.48688 0.06733 0.08951
 O2 O 0.41270 -0.08655 -0.10400
 O3 O 0.57865 0.04467 -0.08319
 O4 O 0.41507 0.05439 0.00060
 O5 O 0.52133 -0.03793 -0.13649
 O6 O 0.41455 0.05437 0.00176
 O7 O 0.35883 -0.04807 -0.03521
 O8 O 0.53967 0.09824 0.01880
 C9 C 0.52026 0.11003 0.06660
 C10 C 0.36283 -0.06960 -0.08540
 C11 C 0.55899 0.01182 -0.13419
 C12 C 0.38250 0.09288 0.02468
 O13 O 0.37369 -0.00597 0.08951
 O14 O 0.57610 -0.10713 -0.07172
 O15 O 0.59039 0.01469 0.07570
 O16 O 0.40944 -0.12541 0.02359
 O17 O 0.46955 -0.16202 -0.04523
 O18 O 0.50051 -0.03884 0.10262
 O19 O 0.36517 -0.01149 0.08557
 O20 O 0.62839 -0.02875 -0.01568
 Co21 Co 0.44729 -0.00433 0.04881
 Co22 Co 0.49453 -0.09272 -0.08238
 Co23 Co 0.57945 0.03138 0.00175
 Co24 Co 0.41594 -0.03149 0.02183
 O25 O 0.49923 -0.02747 -0.01204
 C26 C 0.38192 0.02439 0.13323
 C27 C 0.62531 -0.08085 -0.04493
 C28 C 0.56149 -0.01539 0.11234
 C29 C 0.43140 -0.17238 -0.00813
 O30 O -0.16766 0.43115 -0.00669
 O31 O -0.00809 0.50128 0.11750
 O32 O -0.00873 0.35106 0.09455
 O33 O -0.11578 0.56835 -0.02784
 O34 O 0.06896 0.42409 0.12395
 O35 O -0.11672 0.56557 -0.02608
 O36 O -0.07148 0.53755 0.06453
 O37 O -0.12118 0.38183 0.05988
 C38 C -0.16967 0.39816 0.03658
 C39 C -0.02842 0.55423 0.10579
 C40 C 0.03814 0.37086 0.12884
 C41 C -0.10041 0.61299 -0.05669
 O42 O -0.04438 0.50833 -0.09488
 O43 O 0.07839 0.39686 0.02433
 O44 O -0.10760 0.32563 -0.03578
 O45 O 0.01020 0.56913 0.00373
 O46 O 0.07323 0.51757 0.05868
 O47 O -0.11400 0.39826 -0.09605
 O48 O -0.03713 0.50937 -0.09306
 O49 O 0.00802 0.31675 -0.00560
 Co50 Co -0.10509 0.47058 -0.04898
 Co51 Co 0.02494 0.44059 0.06621
 Co52 Co -0.05642 0.35282 0.02596
 Co53 Co -0.06241 0.51035 -0.01364
 O54 O -0.02695 0.44030 -0.00403
 C55 C -0.06649 0.51845 -0.14063
 C56 C 0.06433 0.34209 -0.00037
 C57 C -0.12131 0.34168 -0.08408
 C58 C 0.06340 0.56406 0.02899
 O59 O -0.08106 -0.15464 0.45839
 O60 O 0.09523 0.01906 0.58154
 O61 O 0.05329 -0.03076 0.41109
 O62 O -0.05014 -0.13599 0.57089
 O63 O 0.10542 0.02350 0.48041
 O64 O -0.05520 -0.13561 0.56853
 O65 O 0.04393 -0.06591 0.59571
 O66 O -0.05223 -0.08896 0.39193
 C67 C -0.07137 -0.14348 0.40742
 C68 C 0.09034 -0.02886 0.60668
 C69 C 0.10359 -0.00538 0.43314
 C70 C -0.08478 -0.17103 0.60155
 O71 O -0.12352 -0.03661 0.57185
 O72 O 0.00781 0.07424 0.46343
 O73 O -0.10462 0.00994 0.41529
 O74 O -0.01633 0.04533 0.58935
 O75 O -0.01153 0.05518 0.58253
 O76 O -0.15277 -0.06745 0.46043
 O77 O -0.12042 -0.03878 0.57375
 O78 O 0.00523 0.07196 0.45791
 Co79 Co -0.09861 -0.09625 0.51343
 Co80 Co 0.04442 0.04018 0.52642
 Co81 Co -0.02386 -0.01093 0.42397
 Co82 Co -0.03304 -0.04568 0.58237
 O83 O -0.02040 -0.03677 0.50504
 C84 C -0.15501 -0.05543 0.61294
 C85 C 0.02038 0.12981 0.44832
 C86 C -0.15330 -0.02569 0.42480
 C87 C 0.00645 0.08112 0.63128
 C88 C -0.37120 0.24097 0.14302
 C89 C -0.38939 0.28723 0.10825
 C90 C -0.45125 0.28319 0.07997
 C91 C -0.48502 0.22419 0.07160
 C92 C -0.46156 0.17310 0.09358
 C93 C -0.40978 0.18320 0.13121
 O94 O -0.34834 0.29089 0.11379
 C95 C -0.28848 0.31207 0.13012
 C96 C -0.34127 0.32850 0.10048
 C97 C -0.33935 0.38100 0.06291
 C98 C -0.28261 0.40498 0.04402
 C99 C -0.22975 0.38100 0.06262
 C100 C -0.23380 0.33985 0.10660
 H101 H -0.46532 0.32150 0.05770
 H102 H -0.52545 0.21713 0.04332
 H103 H -0.39811 0.14380 0.15354
 H104 H -0.38094 0.39518 0.04479
 H105 H -0.28031 0.43984 0.01313
 H106 H -0.19124 0.32990 0.12654
 C107 C 0.31036 0.70417 0.03130
 C108 C 0.29511 0.67611 -0.02142
 C109 C 0.33296 0.68475 -0.06646
 C110 C 0.38667 0.72765 -0.05797
 C111 C 0.39937 0.76329 -0.00600
 C112 C 0.36351 0.74750 0.04051
 O113 O 0.26592 0.69268 0.06728
 C114 C 0.22115 0.65792 0.03618
 C115 C 0.23656 0.64742 -0.01858
 C116 C 0.19520 0.61700 -0.05973
 C117 C 0.13602 0.59466 -0.04339
 C118 C 0.11901 0.60341 0.01298
 C119 C 0.16266 0.63469 0.05367
 H120 H 0.31934 0.66274 -0.10765
 H121 H 0.41347 0.73900 -0.09402
 H122 H 0.37202 0.77385 0.08069
 H123 H 0.20839 0.61003 -0.10265
 H124 H 0.10467 0.56659 -0.07385
 H125 H 0.15207 0.63935 0.09744
 C126 C 0.28527 0.21870 0.00342
 C127 C 0.25211 0.19606 -0.04511
 C128 C 0.26709 0.14467 -0.07789
 C129 C 0.31665 0.11448 -0.05864
 C130 C 0.34840 0.13503 -0.00661
 C131 C 0.33341 0.18874 0.02365
 O132 O 0.26220 0.26518 0.03068
 C133 C 0.21287 0.27209 -0.00078
 C134 C 0.20378 0.23049 -0.04730
 C135 C 0.15044 0.22490 -0.08191
 C136 C 0.10480 0.26312 -0.06752
 C137 C 0.11411 0.30687 -0.02014
 C138 C 0.16965 0.31213 0.01271
 H139 H 0.24001 0.12686 -0.11548
 H140 H 0.32690 0.07258 -0.08176
 H141 H 0.35546 0.20356 0.06453
 H142 H 0.14287 0.19048 -0.11722
 H143 H 0.06178 0.25788 -0.09240
 H144 H 0.17716 0.34340 0.05007
 C145 C -0.27039 0.80115 -0.07325
 C146 C -0.22182 0.82486 -0.03708
 C147 C -0.22024 0.88100 -0.00500
 C148 C -0.27156 0.91336 -0.00935
 C149 C -0.32386 0.88949 -0.04525
 C150 C -0.32217 0.83266 -0.07854
 O151 O -0.26434 0.74467 -0.09667
 C152 C -0.21116 0.73219 -0.07415
 C153 C -0.18359 0.77984 -0.03737
 C154 C -0.12988 0.77545 -0.00585
 C155 C -0.10249 0.72031 -0.01388
 C156 C -0.13029 0.67011 -0.05076
 C157 C -0.18534 0.67613 -0.08181
 H158 H -0.18170 0.89810 0.02397
 H159 H -0.27126 0.95536 0.01784
 H160 H -0.36058 0.81196 -0.10637
 H161 H -0.10988 0.81294 0.02419
 H162 H -0.05955 0.71659 0.00838
 H163 H -0.20768 0.63892 -0.11076
 C164 C -0.04565 -0.34671 0.24059
 C165 C -0.07564 -0.30132 0.21766
 C166 C -0.08513 -0.29771 0.16054
 C167 C -0.06479 -0.34405 0.12527
 C168 C -0.03750 -0.39418 0.14694
 C169 C -0.02661 -0.39532 0.20578
 O170 O -0.03716 -0.33732 0.29613
 C171 C -0.06290 -0.28526 0.30798
 C172 C -0.08810 -0.26269 0.26106
 C173 C -0.11609 -0.20848 0.26200
 C174 C -0.11615 -0.17421 0.31318
 C175 C -0.08582 -0.19252 0.36163
 C176 C -0.06081 -0.25031 0.35993
 H177 H -0.10721 -0.26052 0.14338
 H178 H -0.07213 -0.34254 0.08059
 H179 H -0.00607 -0.43315 0.22373
 H180 H -0.13501 -0.19156 0.22429
 H181 H -0.13605 -0.13059 0.31451
 H182 H -0.03629 -0.26467 0.39608
 C183 C -0.11332 0.24708 0.78041
 C184 C -0.12062 0.18828 0.80061
 C185 C -0.13987 0.17678 0.85404
 C186 C -0.14928 0.22837 0.88934
 C187 C -0.13596 0.29039 0.87193
 C188 C -0.12107 0.29962 0.81554
 O189 O -0.08931 0.24778 0.73010
 C190 C -0.08031 0.18839 0.71903
 C191 C -0.09753 0.15068 0.76158
 C192 C -0.08112 0.09092 0.76472
 C193 C -0.04753 0.06799 0.72121
 C194 C -0.03389 0.10328 0.67408
 C195 C -0.04963 0.16505 0.67355
 H196 H -0.14391 0.12994 0.86902
 H197 H -0.16088 0.22007 0.93210
 H198 H -0.10858 0.34627 0.80168
 H199 H -0.09103 0.06410 0.80088
 H200 H -0.03079 0.02381 0.72627
 H201 H -0.03520 0.19503 0.64051
 C202 C 0.03360 0.29079 0.26266
 C203 C 0.06162 0.23895 0.24720
 C204 C 0.08730 0.23066 0.19538
 C205 C 0.08206 0.27681 0.15729
 C206 C 0.05329 0.33038 0.17247
 C207 C 0.02951 0.33804 0.22606
 O208 O 0.00954 0.28814 0.31268
 C209 C 0.02251 0.23345 0.32912
 C210 C 0.05462 0.20172 0.29075
 C211 C 0.07414 0.14428 0.30020
 C212 C 0.06091 0.11938 0.35177
 C213 C 0.02504 0.14944 0.39084
 C214 C 0.00685 0.20807 0.37963
 H215 H 0.10845 0.18917 0.18395
 H216 H 0.09823 0.26991 0.11535
 H217 H 0.00551 0.37762 0.23759
 H218 H 0.10050 0.12053 0.27005
 H219 H 0.08012 0.07769 0.36163
 H220 H -0.01709 0.23412 0.41014
 C221 C -0.05807 -0.37974 0.73923
 C222 C -0.01338 -0.33155 0.75841
 C223 C 0.02092 -0.33327 0.80838
 C224 C 0.00818 -0.38637 0.83971
 C225 C -0.03822 -0.43624 0.82076
 C226 C -0.07039 -0.43318 0.76906
 O227 O -0.09038 -0.36672 0.69453
 C228 C -0.06554 -0.30921 0.68489
 C229 C -0.01768 -0.28549 0.72218
 C230 C 0.01344 -0.22504 0.71990
 C231 C -0.00591 -0.18782 0.67785
 C232 C -0.05683 -0.21100 0.64050
 C233 C -0.08654 -0.27256 0.64418
 H234 H 0.05328 -0.29331 0.82439
 H235 H 0.03060 -0.38598 0.88061
 H236 H -0.10802 -0.46905 0.75484
 H237 H 0.05073 -0.20691 0.74969
 H238 H 0.01714 -0.14056 0.67615
 H239 H -0.12589 -0.29102 0.61666
 C240 C 0.26291 -0.08137 0.78585
 C241 C 0.21533 -0.05308 0.80746
 C242 C 0.21076 -0.03710 0.86384
 C243 C 0.25876 -0.04809 0.90007
 C244 C 0.31254 -0.07142 0.87946
 C245 C 0.31297 -0.09110 0.82120
 O246 O 0.25719 -0.09206 0.73020
 C247 C 0.20541 -0.06862 0.71691
 C248 C 0.17940 -0.04313 0.76308
 C249 C 0.12992 -0.00931 0.75987
 C250 C 0.10444 -0.00323 0.70690
 C251 C 0.12646 -0.03264 0.65866
 C252 C 0.17829 -0.06568 0.66307
 H253 H 0.17200 -0.01559 0.87942
 H254 H 0.25507 -0.03445 0.94399
 H255 H 0.35207 -0.11014 0.80329
 H256 H 0.11270 0.01324 0.79671
 H257 H 0.06707 0.02436 0.70354
 H258 H 0.19640 -0.08746 0.62630
 C259 C -0.31946 -0.00179 0.23356
 C260 C -0.35331 -0.03304 0.27304
 C261 C -0.41372 -0.06103 0.26217
 C262 C -0.44071 -0.05596 0.20882
 C263 C -0.40731 -0.02343 0.16725
 C264 C -0.34538 0.00382 0.18007
 O265 O -0.26199 0.01915 0.25157
 C266 C -0.25947 0.00060 0.30345
 C267 C -0.31412 -0.03145 0.31875
 C268 C -0.32038 -0.05855 0.37000
 C269 C -0.26775 -0.05380 0.40629
 C270 C -0.21059 -0.02161 0.39117
 C271 C -0.20707 0.00706 0.33938
 H272 H -0.43918 -0.08602 0.29361
 H273 H -0.48786 -0.07724 0.20021
 H274 H -0.31834 0.02876 0.14944
 H275 H -0.36358 -0.08460 0.38072
 H276 H -0.27109 -0.07730 0.44510
 H277 H -0.16373 0.03003 0.32576
 C278 C 0.25910 -0.00646 0.23957
 C279 C 0.27663 0.04624 0.27469
 C280 C 0.32125 0.09441 0.26217
 C281 C 0.35199 0.08659 0.21274
 C282 C 0.33766 0.03170 0.17690
 C283 C 0.28941 -0.01538 0.18940
 O284 O 0.21477 -0.04573 0.26034
 C285 C 0.20520 -0.01719 0.30979
 C286 C 0.24291 0.03860 0.32048
 C287 C 0.24366 0.07530 0.37024
 C288 C 0.20192 0.05517 0.41023
 C289 C 0.15877 0.00043 0.39918
 C290 C 0.16137 -0.03730 0.34853
 H291 H 0.33287 0.13606 0.28993
 H292 H 0.38883 0.12236 0.20306
 H293 H 0.27859 -0.05847 0.16309
 H294 H 0.27453 0.11866 0.37760
 H295 H 0.19993 0.08523 0.44785
 H296 H 0.12851 -0.07889 0.33842
 C297 C -0.31724 0.04674 0.76679
 C298 C -0.34923 0.03658 0.71567
 C299 C -0.41362 0.02687 0.71144
 C300 C -0.44558 0.02466 0.76163
 C301 C -0.41276 0.03316 0.81425
 C302 C -0.34807 0.04825 0.81649
 O303 O -0.25802 0.04078 0.76382
 C304 C -0.25205 0.02628 0.70999
 C305 C -0.30594 0.02446 0.67799
 C306 C -0.31070 0.00299 0.62147
 C307 C -0.25849 -0.01866 0.59788
 C308 C -0.20464 -0.02091 0.63181
 C309 C -0.20127 0.00259 0.68800
 H310 H -0.43820 0.01569 0.67131
 H311 H -0.49524 0.01244 0.75967
 H312 H -0.32153 0.05148 0.85594
 H313 H -0.35362 0.00055 0.59706
 H314 H -0.26115 -0.03748 0.55473
 H315 H -0.16197 -0.00237 0.71524
   
