data_POSCAR
  _audit_creation_date              2014-09-24
  _audit_creation_method            'ToBaCCo'
  _symmetry_space_group_name_H-M    'P1'
  _symmetry_Int_Tables_number       1
  _symmetry_cell_setting            triclinic
  loop_
  _symmetry_equiv_pos_as_xyz
 x,y,z
_cell_length_a 52.3331
_cell_length_b 46.6892
_cell_length_c 29.1400
_cell_angle_alpha 89.994100
_cell_angle_beta 89.964400
_cell_angle_gamma 90.037200
loop_
  _atom_site_label
  _atom_site_type_symbol
  _atom_site_fract_x
  _atom_site_fract_y
  _atom_site_fract_z
C1 C 0.69362 0.29301 0.49860
 C2 C 0.70062 0.28045 0.54070
 C3 C 0.72095 0.26060 0.54056
 C4 C 0.73505 0.25460 0.50030
 C5 C 0.72806 0.26868 0.45936
 C6 C 0.70685 0.28694 0.45799
 C7 C 0.75644 0.23312 0.50077
 C8 C 0.76340 0.21825 0.46041
 C9 C 0.78329 0.19785 0.46011
 C10 C 0.79513 0.19125 0.50222
 C11 C 0.78815 0.20509 0.54298
 C12 C 0.76958 0.22667 0.54174
 H13 H 0.67865 0.30894 0.49710
 H14 H 0.72489 0.24869 0.57150
 H15 H 0.73867 0.26524 0.42802
 H16 H 0.75243 0.22142 0.42949
 H17 H 0.81093 0.17636 0.50363
 H18 H 0.76523 0.23792 0.57318
 C19 C 0.19457 0.79390 0.50371
 C20 C 0.20693 0.78874 0.54588
 C21 C 0.22818 0.77005 0.54586
 C22 C 0.23557 0.75497 0.50591
 C23 C 0.22191 0.75997 0.46500
 C24 C 0.20199 0.77991 0.46340
 C25 C 0.25706 0.73365 0.50697
 C26 C 0.27076 0.72698 0.46667
 C27 C 0.28939 0.70548 0.46648
 C28 C 0.29584 0.69189 0.50770
 C29 C 0.28343 0.69870 0.54923
 C30 C 0.26355 0.71912 0.54789
 H31 H 0.17986 0.81010 0.50127
 H32 H 0.23845 0.76636 0.57734
 H33 H 0.22626 0.74814 0.43409
 H34 H 0.26678 0.73803 0.43488
 H35 H 0.31167 0.67702 0.50715
 H36 H 0.25223 0.72254 0.57837
 C37 C 0.29227 0.31296 -0.50210
 C38 C 0.28110 0.30405 -0.54337
 C39 C 0.26440 0.28051 -0.54308
 C40 C 0.25994 0.26464 -0.50258
 C41 C 0.27217 0.27360 -0.46181
 C42 C 0.28764 0.29817 -0.46108
 C43 C 0.24274 0.23887 -0.50307
 C44 C 0.22977 0.22989 -0.46300
 C45 C 0.21428 0.20508 -0.46263
 C46 C 0.21056 0.19056 -0.50452
 C47 C 0.22253 0.19955 -0.54503
 C48 C 0.23914 0.22304 -0.54373
 H49 H 0.30539 0.33092 -0.50208
 H50 H 0.25481 0.27496 -0.57469
 H51 H 0.26975 0.26171 -0.43030
 H52 H 0.23240 0.24182 -0.43172
 H53 H 0.19694 0.17317 -0.50669
 H54 H 0.24931 0.22864 -0.57477
 C55 C -0.20942 0.81627 -0.50556
 C56 C -0.21996 0.80707 -0.54756
 C57 C -0.23622 0.78295 -0.54687
 C58 C -0.24031 0.76685 -0.50649
 C59 C -0.22850 0.77614 -0.46564
 C60 C -0.21381 0.80125 -0.46468
 C61 C -0.25689 0.74055 -0.50724
 C62 C -0.26924 0.73068 -0.46710
 C63 C -0.28431 0.70578 -0.46768
 C64 C -0.28837 0.69154 -0.50936
 C65 C -0.27700 0.70128 -0.55000
 C66 C -0.26068 0.72511 -0.54837
 H67 H -0.19626 0.83412 -0.50446
 H68 H -0.24653 0.77741 -0.57768
 H69 H -0.23067 0.76413 -0.43418
 H70 H -0.26724 0.74212 -0.43508
 H71 H -0.30124 0.67335 -0.51038
 H72 H -0.25088 0.73123 -0.57953
 N73 N 0.02746 0.97117 -0.07854
 N74 N 0.04598 0.96675 -0.10840
 N75 N -0.02684 0.95265 -0.04749
 N76 N -0.04457 0.93357 -0.05785
 N77 N -0.02625 0.97314 -0.07831
 N78 N -0.04359 0.96860 -0.11034
 N79 N 0.02685 0.95060 -0.04783
 N80 N 0.04494 0.93156 -0.05608
 C81 C 0.05682 0.94203 -0.09390
 C82 C -0.05508 0.94400 -0.09691
 N83 N -0.02582 0.97102 0.08382
 N84 N -0.04466 0.96758 0.11333
 N85 N 0.02695 0.94902 0.05107
 N86 N 0.04339 0.92828 0.05983
 N87 N 0.02784 0.96866 0.08326
 N88 N 0.04492 0.96184 0.11469
 N89 N -0.02675 0.95139 0.05163
 N90 N -0.04626 0.93391 0.05856
 Mn91 Mn 0.00002 0.95058 0.00183
 C92 C -0.05733 0.94442 0.09716
 C93 C 0.05469 0.93674 0.09939
 N94 N -0.02434 1.03479 -0.07594
 N95 N -0.04174 1.04113 -0.10701
 N96 N 0.02997 1.05250 -0.04440
 N97 N 0.04764 1.07187 -0.05380
 N98 N 0.02931 1.03278 -0.07650
 N99 N 0.04653 1.03813 -0.10841
 N100 N -0.02365 1.05447 -0.04378
 N101 N -0.04053 1.07483 -0.05230
 Mn102 Mn 0.00154 1.00296 -0.07773
 C103 C -0.05188 1.06602 -0.09167
 C104 C 0.05803 1.06240 -0.09363
 N105 N 0.02991 1.03027 0.08529
 N106 N 0.04873 1.03332 0.11495
 N107 N -0.02341 1.05293 0.05538
 N108 N -0.04177 1.07168 0.06360
 N109 N -0.02378 1.03238 0.08609
 N110 N -0.04239 1.03646 0.11585
 N111 N 0.03039 1.05089 0.05466
 N112 N 0.04958 1.06858 0.06276
 Mn113 Mn 0.00208 1.00060 0.08505
 Mn114 Mn 0.00332 1.05305 0.00553
 Cl115 Cl 0.00174 1.00180 0.00364
 C116 C 0.06094 1.05723 0.10040
 C117 C -0.05352 1.06100 0.10142
 N118 N 0.53034 0.53288 0.08170
 N119 N 0.54922 0.53659 0.11100
 N120 N 0.47714 0.55488 0.05080
 N121 N 0.46032 0.57521 0.05983
 N122 N 0.47669 0.53515 0.08289
 N123 N 0.45953 0.54143 0.11443
 N124 N 0.53086 0.55265 0.04967
 N125 N 0.55013 0.57046 0.05650
 C126 C 0.56151 0.56002 0.09484
 C127 C 0.44928 0.56634 0.09947
 N128 N 0.47574 0.53290 -0.07909
 N129 N 0.45690 0.53710 -0.10830
 N130 N 0.53014 0.55149 -0.04943
 N131 N 0.54773 0.57063 -0.06026
 N132 N 0.52942 0.53095 -0.08018
 N133 N 0.54652 0.53556 -0.11264
 N134 N 0.47643 0.55344 -0.04834
 N135 N 0.45808 0.57227 -0.05600
 Mn136 Mn 0.50365 0.55346 0.00066
 C137 C 0.44597 0.56168 -0.09349
 C138 C 0.55801 0.56022 -0.09954
 N139 N 0.47460 0.47365 0.08490
 N140 N 0.45613 0.47056 0.11528
 N141 N 0.52746 0.45093 0.05309
 N142 N 0.54555 0.43182 0.06087
 N143 N 0.52831 0.47143 0.08385
 N144 N 0.54699 0.46690 0.11330
 N145 N 0.47369 0.45317 0.05409
 N146 N 0.45456 0.43550 0.06282
 Mn147 Mn 0.50249 0.50328 0.08377
 C148 C 0.44368 0.44675 0.10102
 C149 C 0.55768 0.44218 0.09846
 N150 N 0.52750 0.46919 -0.07800
 N151 N 0.54437 0.46242 -0.10986
 N152 N 0.47328 0.45170 -0.04502
 N153 N 0.45551 0.43238 -0.05402
 N154 N 0.47384 0.47137 -0.07720
 N155 N 0.45642 0.46605 -0.10875
 N156 N 0.52688 0.44952 -0.04580
 N157 N 0.54330 0.42883 -0.05498
 Mn158 Mn 0.50165 0.50112 -0.07903
 Mn159 Mn 0.50030 0.45100 0.00415
 Cl160 Cl 0.50202 0.50222 0.00235
 C161 C 0.55430 0.43734 -0.09482
 C162 C 0.44493 0.44184 -0.09366
 C163 C 0.30439 0.31517 0.33474
 C164 C 0.30831 0.34482 0.33397
 C165 C 0.30121 0.36142 0.37188
 C166 C 0.29119 0.34834 0.41110
 C167 C 0.28821 0.31841 0.41296
 C168 C 0.29432 0.30203 0.37393
 C169 C 0.32188 0.35789 0.29642
 C170 C 0.33440 0.36899 0.26657
 C171 C 0.35026 0.38221 0.23357
 C172 C 0.36471 0.39376 0.20716
 C173 C 0.38296 0.40791 0.17791
 C174 C 0.39258 0.43470 0.19071
 C175 C 0.41194 0.44760 0.16498
 C176 C 0.42198 0.43384 0.12604
 C177 C 0.41177 0.40726 0.11262
 C178 C 0.39240 0.39432 0.13854
 H179 H 0.31001 0.30208 0.30575
 H180 H 0.30423 0.38439 0.37172
 H181 H 0.28637 0.36153 0.44042
 H182 H 0.29252 0.27892 0.37453
 H183 H 0.38550 0.44535 0.22121
 H184 H 0.41936 0.46812 0.17607
 H185 H 0.41916 0.39619 0.08277
 H186 H 0.38518 0.37350 0.12845
 C187 C -0.20319 0.81815 0.32857
 C188 C -0.19410 0.84628 0.32935
 C189 C -0.19573 0.86226 0.36974
 C190 C -0.20528 0.84983 0.40982
 C191 C -0.21333 0.82090 0.41055
 C192 C -0.21289 0.80560 0.36857
 C193 C -0.18091 0.85806 0.29031
 C194 C -0.16854 0.86827 0.25947
 C195 C -0.15268 0.88073 0.22573
 C196 C -0.13810 0.89189 0.19915
 C197 C -0.11957 0.90592 0.17037
 C198 C -0.11022 0.93278 0.18338
 C199 C -0.09039 0.94555 0.15872
 C200 C -0.07961 0.93161 0.12061
 C201 C -0.08958 0.90501 0.10677
 C202 C -0.10943 0.89217 0.13170
 H203 H -0.20183 0.80549 0.29750
 H204 H -0.18895 0.88419 0.37063
 H205 H -0.20641 0.86322 0.44003
 H206 H -0.21820 0.78324 0.36683
 H207 H -0.11782 0.94356 0.21335
 H208 H -0.08319 0.96612 0.17006
 H209 H -0.08161 0.89382 0.07754
 H210 H -0.11642 0.87127 0.12149
 C211 C 0.70414 0.64516 0.36228
 C212 C 0.69713 0.66234 0.32499
 C213 C 0.70072 0.69201 0.32718
 C214 C 0.71037 0.70458 0.36715
 C215 C 0.71638 0.68759 0.40556
 C216 C 0.71374 0.65767 0.40229
 C217 C 0.68383 0.64979 0.28672
 C218 C 0.67148 0.63900 0.25638
 C219 C 0.65573 0.62597 0.22308
 C220 C 0.64130 0.61438 0.19672
 C221 C 0.62301 0.59990 0.16803
 C222 C 0.61270 0.61338 0.12927
 C223 C 0.59311 0.60008 0.10435
 C224 C 0.58356 0.57329 0.11826
 C225 C 0.59453 0.55964 0.15647
 C226 C 0.61409 0.57287 0.18114
 H227 H 0.70135 0.62218 0.36104
 H228 H 0.69515 0.70554 0.29868
 H229 H 0.71191 0.72769 0.36883
 H230 H 0.71848 0.64404 0.43111
 H231 H 0.61936 0.63439 0.11898
 H232 H 0.58500 0.61106 0.07505
 H233 H 0.58764 0.53895 0.16789
 H234 H 0.62184 0.56230 0.21117
 C235 C 0.20382 1.14244 0.36889
 C236 C 0.19694 1.15917 0.33101
 C237 C 0.20070 1.18885 0.33220
 C238 C 0.21034 1.20188 0.37181
 C239 C 0.21614 1.18536 0.41083
 C240 C 0.21340 1.15542 0.40852
 C241 C 0.18355 1.14621 0.29321
 C242 C 0.17109 1.13514 0.26327
 C243 C 0.15523 1.12191 0.23035
 C244 C 0.14071 1.11033 0.20414
 C245 C 0.12234 1.09612 0.17529
 C246 C 0.11239 1.10981 0.13643
 C247 C 0.09281 1.09685 0.11111
 C248 C 0.08289 1.07015 0.12465
 C249 C 0.09345 1.05628 0.16302
 C250 C 0.11302 1.06920 0.18815
 H251 H 0.20090 1.11947 0.36842
 H252 H 0.19524 1.20204 0.30323
 H253 H 0.21198 1.22500 0.37275
 H254 H 0.21797 1.14215 0.43787
 H255 H 0.11937 1.13073 0.12632
 H256 H 0.08502 1.10799 0.08168
 H257 H 0.08625 1.03567 0.17418
 H258 H 0.12047 1.05848 0.21828
 C259 C 0.68895 0.29823 -0.33547
 C260 C 0.66422 0.30945 -0.33753
 C261 C 0.65087 0.30899 -0.37896
 C262 C 0.66245 0.29848 -0.41866
 C263 C 0.68788 0.28824 -0.41799
 C264 C 0.70063 0.28750 -0.37515
 C265 C 0.65292 0.32330 -0.29835
 C266 C 0.64281 0.33614 -0.26738
 C267 C 0.63023 0.35235 -0.23333
 C268 C 0.61884 0.36702 -0.20613
 C269 C 0.60444 0.38532 -0.17595
 C270 C 0.59825 0.41309 -0.19017
 C271 C 0.58250 0.43032 -0.16307
 C272 C 0.57269 0.41996 -0.12134
 C273 C 0.57957 0.39233 -0.10659
 C274 C 0.59531 0.37507 -0.13385
 H275 H 0.69953 0.29862 -0.30353
 H276 H 0.63157 0.31733 -0.38084
 H277 H 0.65109 0.29815 -0.44965
 H278 H 0.72027 0.28051 -0.37238
 H279 H 0.60514 0.42121 -0.22274
 H280 H 0.57757 0.45152 -0.17526
 H281 H 0.57227 0.38381 -0.07459
 H282 H 0.59991 0.35357 -0.12259
 C283 C 0.20456 0.82050 -0.33540
 C284 C 0.17880 0.82822 -0.33252
 C285 C 0.16249 0.82260 -0.36926
 C286 C 0.17176 0.80960 -0.40894
 C287 C 0.19781 0.80185 -0.41314
 C288 C 0.21400 0.80732 -0.37519
 C289 C 0.16863 0.84243 -0.29268
 C290 C 0.15845 0.85472 -0.26124
 C291 C 0.14482 0.86952 -0.22684
 C292 C 0.13190 0.88249 -0.19963
 C293 C 0.11515 0.89837 -0.16985
 C294 C 0.10768 0.92606 -0.18236
 C295 C 0.08918 0.94055 -0.15681
 C296 C 0.07786 0.92749 -0.11837
 C297 C 0.08603 0.90003 -0.10507
 C298 C 0.10453 0.88550 -0.13083
 H299 H 0.21742 0.82495 -0.30717
 H300 H 0.14243 0.82822 -0.36723
 H301 H 0.15800 0.80473 -0.43549
 H302 H 0.23423 0.80273 -0.37648
 H303 H 0.11564 0.93615 -0.21266
 H304 H 0.08333 0.96171 -0.16777
 H305 H 0.07763 0.88949 -0.07559
 H306 H 0.11003 0.86399 -0.12103
 C307 C 0.31322 0.64709 -0.36824
 C308 C 0.31174 0.66237 -0.32717
 C309 C 0.29910 0.68873 -0.32611
 C310 C 0.28875 0.70024 -0.36642
 C311 C 0.29126 0.68574 -0.40887
 C312 C 0.30309 0.65851 -0.40854
 C313 C 0.32490 0.65159 -0.28740
 C314 C 0.33722 0.64177 -0.25619
 C315 C 0.35295 0.62934 -0.22228
 C316 C 0.36732 0.61789 -0.19568
 C317 C 0.38545 0.60321 -0.16695
 C318 C 0.39672 0.61692 -0.12928
 C319 C 0.41603 0.60317 -0.10433
 C320 C 0.42435 0.57567 -0.11714
 C321 C 0.41248 0.56186 -0.15430
 C322 C 0.39319 0.57554 -0.17899
 H323 H 0.32271 0.62648 -0.36936
 H324 H 0.29796 0.70084 -0.29446
 H325 H 0.28038 0.72138 -0.36441
 H326 H 0.30437 0.64555 -0.43922
 H327 H 0.39098 0.63842 -0.11982
 H328 H 0.42486 0.61429 -0.07583
 H329 H 0.41841 0.54064 -0.16487
 H330 H 0.38471 0.56477 -0.20820
 C331 C -0.18478 1.15804 -0.36324
 C332 C -0.17536 1.17827 -0.33218
 C333 C -0.17860 1.20755 -0.34102
 C334 C -0.19092 1.21650 -0.38125
 C335 C -0.19989 1.19621 -0.41311
 C336 C -0.19695 1.16690 -0.40334
 C337 C -0.16128 1.16846 -0.29279
 C338 C -0.14907 1.15851 -0.26158
 C339 C -0.13429 1.14503 -0.22733
 C340 C -0.12126 1.13212 -0.20023
 C341 C -0.10520 1.11523 -0.17067
 C342 C -0.09508 1.12665 -0.13011
 C343 C -0.07817 1.11039 -0.10347
 C344 C -0.07116 1.08263 -0.11737
 C345 C -0.08188 1.07117 -0.15757
 C346 C -0.09877 1.08737 -0.18398
 H347 H -0.18238 1.13534 -0.35679
 H348 H -0.17125 1.22340 -0.31729
 H349 H -0.19280 1.23920 -0.38806
 H350 H -0.20402 1.15081 -0.42692
 H351 H -0.09989 1.14823 -0.11954
 H352 H -0.07017 1.11974 -0.07265
 H353 H -0.07690 1.04983 -0.16908
 H354 H -0.10646 1.07832 -0.21532
 C355 C 0.69229 0.65369 -0.37727
 C356 C 0.67977 0.67194 -0.34657
 C357 C 0.67967 0.70153 -0.35453
 C358 C 0.69176 0.71276 -0.39348
 C359 C 0.70393 0.69445 -0.42500
 C360 C 0.70430 0.66483 -0.41615
 C361 C 0.66600 0.65986 -0.30840
 C362 C 0.65411 0.64871 -0.27779
 C363 C 0.63971 0.63461 -0.24359
 C364 C 0.62695 0.62181 -0.21589
 C365 C 0.61111 0.60576 -0.18470
 C366 C 0.60283 0.61789 -0.14334
 C367 C 0.58604 0.60276 -0.11480
 C368 C 0.57731 0.57539 -0.12751
 C369 C 0.58621 0.56314 -0.16856
 C370 C 0.60298 0.57825 -0.19695
 H371 H 0.69247 0.63077 -0.37148
 H372 H 0.66989 0.71584 -0.33112
 H373 H 0.69098 0.73562 -0.39963
 H374 H 0.71382 0.65026 -0.43948
 H375 H 0.60896 0.63920 -0.13358
 H376 H 0.57948 0.61271 -0.08337
 H377 H 0.57984 0.54209 -0.17920
 H378 H 0.60924 0.56867 -0.22890
 C379 C 0.18487 1.15517 -0.37680
 C380 C 0.17858 1.17385 -0.34120
 C381 C 0.18446 1.20296 -0.34511
 C382 C 0.19643 1.21339 -0.38475
 C383 C 0.20257 1.19485 -0.42163
 C384 C 0.19671 1.16543 -0.41642
 C385 C 0.16532 1.16286 -0.30164
 C386 C 0.15374 1.15232 -0.27009
 C387 C 0.13962 1.13858 -0.23517
 C388 C 0.12703 1.12577 -0.20724
 C389 C 0.11131 1.10934 -0.17637
 C390 C 0.10245 1.12115 -0.13515
 C391 C 0.08565 1.10556 -0.10724
 C392 C 0.07746 1.07808 -0.12053
 C393 C 0.08699 1.06616 -0.16137
 C394 C 0.10379 1.08170 -0.18906
 H395 H 0.18059 1.13252 -0.37400
 H396 H 0.17944 1.21768 -0.31783
 H397 H 0.19960 1.23623 -0.38690
 H398 H 0.20197 1.14982 -0.44216
 H399 H 0.10811 1.14257 -0.12505
 H400 H 0.07857 1.11526 -0.07596
 H401 H 0.08109 1.04503 -0.17243
 H402 H 0.11049 1.07236 -0.22091
 C403 C 0.32262 0.30016 -0.34681
 C404 C 0.32275 0.32961 -0.33769
 C405 C 0.31072 0.34850 -0.36801
 C406 C 0.29899 0.33813 -0.40767
 C407 C 0.29914 0.30867 -0.41767
 C408 C 0.31079 0.28970 -0.38654
 C409 C 0.33635 0.34097 -0.29882
 C410 C 0.34816 0.35173 -0.26778
 C411 C 0.36251 0.36563 -0.23336
 C412 C 0.37527 0.37850 -0.20579
 C413 C 0.39116 0.39495 -0.17528
 C414 C 0.39868 0.42255 -0.18821
 C415 C 0.41563 0.43809 -0.16087
 C416 C 0.42533 0.42620 -0.12015
 C417 C 0.41715 0.39876 -0.10661
 C418 C 0.40018 0.38317 -0.13416
 H419 H 0.33203 0.28536 -0.32370
 H420 H 0.31074 0.37133 -0.36135
 H421 H 0.28985 0.35319 -0.43068
 H422 H 0.31138 0.26693 -0.39356
 H423 H 0.39184 0.43186 -0.21998
 H424 H 0.42153 0.45919 -0.17211
 H425 H 0.42434 0.38909 -0.07542
 H426 H 0.39453 0.36179 -0.12389
 C427 C -0.17801 0.80405 -0.35129
 C428 C -0.17861 0.83347 -0.34190
 C429 C -0.19159 0.85199 -0.37151
 C430 C -0.20347 0.84133 -0.41083
 C431 C -0.20251 0.81193 -0.42120
 C432 C -0.18998 0.79329 -0.39067
 C433 C -0.16471 0.84519 -0.30362
 C434 C -0.15266 0.85612 -0.27302
 C435 C -0.13804 0.87004 -0.23897
 C436 C -0.12508 0.88273 -0.21148
 C437 C -0.10897 0.89870 -0.18067
 C438 C -0.10088 0.92620 -0.19307
 C439 C -0.08384 0.94123 -0.16512
 C440 C -0.07464 0.92891 -0.12435
 C441 C -0.08335 0.90156 -0.11146
 C442 C -0.10039 0.88650 -0.13957
 H443 H -0.16787 0.78954 -0.32873
 H444 H -0.19215 0.87479 -0.36464
 H445 H -0.21326 0.85612 -0.43342
 H446 H -0.18876 0.77060 -0.39801
 H447 H -0.10736 0.93583 -0.22483
 H448 H -0.07751 0.96227 -0.17589
 H449 H -0.07656 0.89155 -0.08024
 H450 H -0.10649 0.86520 -0.12968
 C451 C 0.32340 0.70748 0.35108
 C452 C 0.32686 0.67818 0.34273
 C453 C 0.31753 0.65806 0.37410
 C454 C 0.30514 0.66706 0.41393
 C455 C 0.30190 0.69640 0.42312
 C456 C 0.31089 0.71657 0.39104
 C457 C 0.34091 0.66827 0.30334
 C458 C 0.35304 0.65832 0.27201
 C459 C 0.36767 0.64489 0.23749
 C460 C 0.38057 0.63206 0.21007
 C461 C 0.39646 0.61528 0.18004
 C462 C 0.40296 0.58736 0.19297
 C463 C 0.41967 0.57126 0.16605
 C464 C 0.43015 0.58286 0.12572
 C465 C 0.42307 0.61067 0.11221
 C466 C 0.40633 0.62685 0.13937
 H467 H 0.33068 0.72324 0.32711
 H468 H 0.32010 0.63535 0.36801
 H469 H 0.29807 0.65105 0.43765
 H470 H 0.30878 0.73930 0.39740
 H471 H 0.39545 0.57821 0.22438
 H472 H 0.42471 0.54988 0.17725
 H473 H 0.43089 0.62013 0.08131
 H474 H 0.40146 0.64846 0.12909
 C475 C -0.19989 1.18731 0.33602
 C476 C -0.18722 1.16099 0.33770
 C477 C -0.18594 1.14596 0.37904
 C478 C -0.19639 1.15757 0.41898
 C479 C -0.20835 1.18474 0.41865
 C480 C -0.21053 1.19901 0.37593
 C481 C -0.17393 1.15000 0.29819
 C482 C -0.16161 1.14014 0.26701
 C483 C -0.14595 1.12779 0.23290
 C484 C -0.13167 1.11647 0.20597
 C485 C -0.11367 1.10199 0.17671
 C486 C -0.10581 1.07428 0.18821
 C487 C -0.08664 1.06077 0.16293
 C488 C -0.07502 1.07481 0.12569
 C489 C -0.08347 1.10236 0.11342
 C490 C -0.10266 1.11593 0.13897
 H491 H -0.20086 1.19924 0.30417
 H492 H -0.17641 1.12539 0.38065
 H493 H -0.19530 1.14478 0.44986
 H494 H -0.21892 1.22012 0.37340
 H495 H -0.11410 1.06333 0.21745
 H496 H -0.08062 1.03951 0.17307
 H497 H -0.07483 1.11364 0.08489
 H498 H -0.10850 1.13745 0.12992
 C499 C 0.70576 0.32521 0.34279
 C500 C 0.67948 0.32547 0.33358
 C501 C 0.66251 0.31226 0.36402
 C502 C 0.67158 0.29934 0.40393
 C503 C 0.69784 0.29946 0.41411
 C504 C 0.71494 0.31214 0.38283
 C505 C 0.66931 0.34050 0.29455
 C506 C 0.65917 0.35333 0.26364
 C507 C 0.64561 0.36861 0.22973
 C508 C 0.63276 0.38189 0.20282
 C509 C 0.61608 0.39800 0.17331
 C510 C 0.60522 0.38527 0.13441
 C511 C 0.58672 0.39999 0.10897
 C512 C 0.57879 0.42750 0.12247
 C513 C 0.59037 0.44043 0.16074
 C514 C 0.60887 0.42575 0.18598
 H515 H 0.71905 0.33552 0.31954
 H516 H 0.64214 0.31234 0.35726
 H517 H 0.65804 0.28937 0.42707
 H518 H 0.73523 0.31265 0.38999
 H519 H 0.61052 0.36372 0.12449
 H520 H 0.57811 0.38954 0.07962
 H521 H 0.58471 0.46163 0.17184
 H522 H 0.61701 0.43573 0.21619
 C523 C 0.19237 0.80333 0.34004
 C524 C 0.16597 0.80812 0.33920
 C525 C 0.15113 0.80142 0.37770
 C526 C 0.16272 0.79102 0.41750
 C527 C 0.18935 0.78723 0.41936
 C528 C 0.20401 0.79282 0.37986
 C529 C 0.15425 0.82225 0.30069
 C530 C 0.14390 0.83522 0.27016
 C531 C 0.13111 0.85152 0.23648
 C532 C 0.11960 0.86623 0.20953
 C533 C 0.10510 0.88456 0.17958
 C534 C 0.09562 0.87427 0.13779
 C535 C 0.07979 0.89158 0.11079
 C536 C 0.07319 0.91930 0.12552
 C537 C 0.08337 0.92970 0.16691
 C538 C 0.09920 0.91242 0.19374
 H539 H 0.20406 0.80862 0.31053
 H540 H 0.13069 0.80510 0.37746
 H541 H 0.15094 0.78658 0.44724
 H542 H 0.22458 0.79035 0.38048
 H543 H 0.10000 0.85270 0.12658
 H544 H 0.07221 0.88303 0.07905
 H545 H 0.07866 0.95098 0.17906
 H546 H 0.10638 0.92058 0.22607
   
