data_POSCAR
  _audit_creation_date              2014-09-24
  _audit_creation_method            'ToBaCCo'
  _symmetry_space_group_name_H-M    'P1'
  _symmetry_Int_Tables_number       1
  _symmetry_cell_setting            triclinic
  loop_
  _symmetry_equiv_pos_as_xyz
 x,y,z
_cell_length_a 42.4225
_cell_length_b 47.5830
_cell_length_c 29.1415
_cell_angle_alpha 89.893500
_cell_angle_beta 90.089300
_cell_angle_gamma 119.495500
loop_
  _atom_site_label
  _atom_site_type_symbol
  _atom_site_fract_x
  _atom_site_fract_y
  _atom_site_fract_z
C1 C 0.45053 0.91289 0.49563
 C2 C 0.45040 0.92721 0.53776
 C3 C 0.46099 0.96034 0.53836
 C4 C 0.47460 0.97971 0.49861
 C5 C 0.47374 0.96430 0.45689
 C6 C 0.46095 0.93101 0.45512
 C7 C 0.49209 1.01594 0.50118
 C8 C 0.49646 1.03466 0.46152
 C9 C 0.51832 1.06856 0.46203
 C10 C 0.53308 1.08394 0.50406
 C11 C 0.52639 1.06612 0.54464
 C12 C 0.50696 1.03233 0.54280
 H13 H 0.44147 0.88728 0.49381
 H14 H 0.45948 0.97110 0.57030
 H15 H 0.48422 0.97795 0.42559
 H16 H 0.48384 1.02291 0.42967
 H17 H 0.54890 1.11004 0.50572
 H18 H 0.50483 1.01921 0.57398
 C19 C 0.09667 0.55036 0.49438
 C20 C 0.07924 0.54813 0.53634
 C21 C 0.04117 0.53359 0.53679
 C22 C 0.02034 0.51870 0.49720
 C23 C 0.03885 0.52190 0.45562
 C24 C 0.07677 0.53845 0.45381
 C25 C -0.02019 0.49807 0.49993
 C26 C -0.04215 0.49115 0.46042
 C27 C -0.07931 0.46794 0.46141
 C28 C -0.09504 0.45347 0.50364
 C29 C -0.07440 0.46181 0.54387
 C30 C -0.03711 0.48331 0.54168
 H31 H 0.12597 0.56245 0.49278
 H32 H 0.02779 0.53307 0.56855
 H33 H 0.02420 0.51071 0.42449
 H34 H -0.03027 0.50324 0.42845
 H35 H -0.12374 0.43631 0.50577
 H36 H -0.02151 0.48733 0.57273
 C37 C 0.49129 0.57045 0.50004
 C38 C 0.49703 0.55888 0.54191
 C39 C 0.50181 0.53160 0.54131
 C40 C 0.49772 0.51410 0.50058
 C41 C 0.48913 0.52502 0.45992
 C42 C 0.48706 0.55358 0.45902
 C43 C 0.50215 0.48457 0.50042
 C44 C 0.51093 0.47398 0.45965
 C45 C 0.51379 0.44581 0.45872
 C46 C 0.51033 0.42909 0.49974
 C47 C 0.50406 0.44027 0.54136
 C48 C 0.49838 0.46698 0.54104
 H49 H 0.48828 0.59178 0.49951
 H50 H 0.50910 0.52436 0.57290
 H51 H 0.48391 0.51141 0.42853
 H52 H 0.51573 0.48753 0.42821
 H53 H 0.51433 0.40829 0.49952
 H54 H 0.49109 0.47378 0.57295
 O55 O 0.41508 0.68418 -0.04465
 O56 O 0.40422 0.73282 -0.05522
 C57 C 0.38300 0.74377 -0.06381
 O58 O 0.35471 0.73653 -0.04044
 O59 O 0.29948 0.67910 -0.05393
 C60 C 0.28833 0.65011 -0.06564
 O61 O 0.29774 0.63163 -0.04556
 O62 O 0.36227 0.63981 -0.05785
 C63 C 0.39527 0.65855 -0.06702
 O64 O 0.41215 0.68986 0.04762
 O65 O 0.40507 0.74063 0.03693
 C66 C 0.38054 0.74215 0.05988
 O67 O 0.34713 0.72536 0.05084
 O68 O 0.29040 0.66885 0.03721
 C69 C 0.28885 0.64458 0.05762
 O70 O 0.30801 0.63206 0.04648
 O71 O 0.37162 0.63832 0.03344
 C72 C 0.39773 0.65997 0.05646
 Cr73 Cr 0.40711 0.71081 -0.00383
 Cr74 Cr 0.32423 0.70171 -0.00165
 Cr75 Cr 0.33563 0.63730 -0.00578
 O76 O 0.35562 0.68323 -0.00382
 O77 O 0.59195 0.30855 -0.05416
 O78 O 0.59729 0.25723 -0.03839
 C79 C 0.62238 0.25477 -0.05862
 O80 O 0.65547 0.27114 -0.04764
 O81 O 0.71243 0.32709 -0.03588
 C82 C 0.71502 0.35041 -0.06003
 O83 O 0.69632 0.36405 -0.05292
 O84 O 0.63315 0.36017 -0.04270
 C85 C 0.60656 0.33815 -0.06457
 O86 O 0.58830 0.31738 0.03758
 O87 O 0.59564 0.26708 0.05256
 C88 C 0.61614 0.25610 0.06454
 O89 O 0.64566 0.26326 0.04433
 O90 O 0.70047 0.32031 0.05605
 C91 C 0.71339 0.35014 0.06372
 O92 O 0.70660 0.36842 0.03870
 O93 O 0.64212 0.36155 0.04873
 C94 C 0.60903 0.34356 0.05861
 Cr95 Cr 0.59537 0.28869 -0.00060
 Cr96 Cr 0.67734 0.29622 0.00406
 Cr97 Cr 0.66865 0.36166 -0.00197
 O98 O 0.64706 0.31547 0.00050
 C99 C 0.42664 0.87424 -0.34235
 N100 N 0.43103 0.90448 -0.34202
 N101 N 0.43831 0.92153 -0.38076
 C102 C 0.44107 0.90888 -0.42144
 N103 N 0.43605 0.87837 -0.42151
 N104 N 0.42921 0.86149 -0.38280
 C105 C 0.42050 0.85582 -0.29970
 N106 N 0.42744 0.83089 -0.29811
 N107 N 0.42245 0.81422 -0.25951
 C108 C 0.40995 0.82163 -0.22118
 N109 N 0.40277 0.84646 -0.22276
 N110 N 0.40820 0.86343 -0.26129
 C111 C 0.40404 0.80268 -0.17912
 N112 N 0.38167 0.80235 -0.14559
 N113 N 0.37522 0.78389 -0.10845
 C114 C 0.39132 0.76546 -0.10330
 N115 N 0.41400 0.76613 -0.13659
 N116 N 0.42010 0.78427 -0.17391
 C117 C 0.13836 0.57841 -0.34356
 N118 N 0.10290 0.57032 -0.34408
 N119 N 0.08381 0.56073 -0.38287
 C120 C 0.09954 0.55935 -0.42285
 N121 N 0.13523 0.56798 -0.42212
 N122 N 0.15418 0.57709 -0.38327
 C123 C 0.15926 0.58789 -0.30076
 N124 N 0.18864 0.58391 -0.29586
 N125 N 0.20779 0.59247 -0.25711
 C126 C 0.19852 0.60571 -0.22209
 N127 N 0.16923 0.60986 -0.22705
 N128 N 0.14974 0.60085 -0.26557
 C129 C 0.22050 0.61618 -0.18018
 N130 N 0.22147 0.64010 -0.15387
 N131 N 0.24283 0.65069 -0.11706
 C132 C 0.26352 0.63739 -0.10483
 N133 N 0.26218 0.61317 -0.13080
 N134 N 0.24123 0.60291 -0.16800
 C135 C 0.48597 0.59665 -0.33571
 N136 N 0.48891 0.56954 -0.33626
 N137 N 0.49398 0.55813 -0.37561
 C138 C 0.49577 0.57305 -0.41616
 N139 N 0.49335 0.60053 -0.41528
 N140 N 0.48875 0.61219 -0.37585
 C141 C 0.47669 0.60727 -0.29308
 N142 N 0.48243 0.63785 -0.28868
 N143 N 0.47163 0.64666 -0.25109
 C144 C 0.45420 0.62505 -0.21694
 N145 N 0.44854 0.59452 -0.22134
 N146 N 0.45979 0.58585 -0.25859
 C147 C 0.43987 0.63389 -0.17707
 N148 N 0.41120 0.61079 -0.15353
 N149 N 0.39704 0.61871 -0.11845
 C150 C 0.41137 0.64996 -0.10521
 N151 N 0.44031 0.67307 -0.12843
 N152 N 0.45414 0.66520 -0.16399
 C153 C 0.55945 0.11586 -0.33050
 N154 N 0.52961 0.08616 -0.33255
 N155 N 0.51972 0.06994 -0.37200
 C156 C 0.53910 0.08295 -0.41094
 N157 N 0.56904 0.11261 -0.40875
 N158 N 0.57914 0.12868 -0.36922
 C159 C 0.56939 0.13457 -0.28777
 N160 N 0.60255 0.16111 -0.28317
 N161 N 0.61111 0.17899 -0.24528
 C162 C 0.58671 0.17123 -0.21081
 N163 N 0.55354 0.14466 -0.21535
 N164 N 0.54509 0.12657 -0.25309
 C165 C 0.59584 0.19191 -0.17009
 N166 N 0.56958 0.18963 -0.14120
 N167 N 0.57793 0.20948 -0.10541
 C168 C 0.61288 0.23210 -0.09704
 N169 N 0.63912 0.23413 -0.12570
 N170 N 0.63074 0.21451 -0.16168
 C171 C 0.87243 0.42628 -0.33081
 N172 N 0.86214 0.40716 -0.36860
 N173 N 0.87942 0.41823 -0.40834
 C174 C 0.90794 0.44867 -0.41157
 N175 N 0.91856 0.46759 -0.37354
 N176 N 0.90098 0.45667 -0.33397
 C177 C 0.85174 0.41495 -0.28800
 N178 N 0.85244 0.43647 -0.25693
 N179 N 0.83203 0.42633 -0.21930
 C180 C 0.81055 0.39430 -0.21108
 N181 N 0.81022 0.37276 -0.24184
 N182 N 0.83026 0.38291 -0.27980
 C183 C 0.78690 0.38323 -0.17068
 N184 N 0.77390 0.35277 -0.15430
 N185 N 0.75154 0.34250 -0.11843
 C186 C 0.74097 0.36217 -0.09811
 N187 N 0.75390 0.39258 -0.11457
 N188 N 0.77665 0.40300 -0.15001
 C189 C 0.51932 0.40338 -0.33489
 N190 N 0.51108 0.38560 -0.37393
 N191 N 0.50504 0.39678 -0.41302
 C192 C 0.50668 0.42603 -0.41449
 N193 N 0.51430 0.44347 -0.37514
 N194 N 0.52058 0.43242 -0.33616
 C195 C 0.52926 0.39257 -0.29278
 N196 N 0.54553 0.41349 -0.25761
 N197 N 0.55667 0.40447 -0.22048
 C198 C 0.55174 0.37412 -0.21702
 N199 N 0.53510 0.35306 -0.25197
 N200 N 0.52422 0.36216 -0.28928
 C201 C 0.56528 0.36464 -0.17682
 N202 N 0.55555 0.33322 -0.16946
 N203 N 0.56847 0.32477 -0.13347
 C204 C 0.59185 0.34745 -0.10377
 N205 N 0.60163 0.37888 -0.11118
 N206 N 0.58848 0.38730 -0.14696
 C207 C 0.85998 0.43814 0.34243
 N208 N 0.89407 0.46377 0.34176
 N209 N 0.91362 0.47366 0.38020
 C210 C 0.89975 0.45856 0.42092
 N211 N 0.86537 0.43321 0.42134
 N212 N 0.84600 0.42311 0.38293
 C213 C 0.83882 0.42590 0.30007
 N214 N 0.81017 0.39549 0.29882
 N215 N 0.79111 0.38382 0.26044
 C216 C 0.79972 0.40223 0.22197
 N217 N 0.82824 0.43277 0.22321
 N218 N 0.84762 0.44434 0.26153
 C219 C 0.77832 0.38902 0.17999
 N220 N 0.77899 0.40872 0.14576
 N221 N 0.75850 0.39643 0.10843
 C222 C 0.73702 0.36399 0.10382
 N223 N 0.73668 0.34435 0.13786
 N224 N 0.75680 0.35664 0.17533
 C225 C 0.54425 0.12164 0.34209
 N226 N 0.56133 0.13542 0.38196
 N227 N 0.55234 0.11842 0.42074
 C228 C 0.52628 0.08678 0.42124
 N229 N 0.50923 0.07307 0.38110
 N230 N 0.51783 0.09022 0.34237
 C231 C 0.55482 0.14043 0.29940
 N232 N 0.53110 0.13267 0.26404
 N233 N 0.54077 0.15024 0.22567
 C234 C 0.57468 0.17581 0.22104
 N235 N 0.59848 0.18333 0.25623
 N236 N 0.58864 0.16609 0.29483
 C237 C 0.58528 0.19558 0.17927
 N238 N 0.62070 0.21317 0.16722
 N239 N 0.63049 0.23193 0.13004
 C240 C 0.60523 0.23412 0.10398
 N241 N 0.56982 0.21659 0.11610
 N242 N 0.55999 0.19746 0.15289
 C243 C 0.53486 0.41361 0.33457
 N244 N 0.51842 0.39265 0.36971
 N245 N 0.51189 0.40289 0.40924
 C246 C 0.52136 0.43442 0.41504
 N247 N 0.53765 0.45527 0.37972
 N248 N 0.54444 0.44511 0.34036
 C249 C 0.54306 0.40272 0.29136
 N250 N 0.56614 0.42463 0.26065
 N251 N 0.57465 0.41499 0.22204
 C252 C 0.56009 0.38309 0.21244
 N253 N 0.53669 0.36112 0.24291
 N254 N 0.52841 0.37077 0.28178
 C255 C 0.57118 0.37280 0.17092
 N256 N 0.55277 0.34172 0.15612
 N257 N 0.56412 0.33243 0.11947
 C258 C 0.59444 0.35386 0.09665
 N259 N 0.61269 0.38490 0.11143
 N260 N 0.60117 0.39423 0.14769
 C261 C 0.13304 0.55939 0.32916
 N262 N 0.14768 0.55483 0.36797
 N263 N 0.12950 0.54751 0.40741
 C264 C 0.09580 0.54409 0.40943
 N265 N 0.08094 0.54815 0.37039
 N266 N 0.09929 0.55581 0.33102
 C267 C 0.15421 0.56963 0.28657
 N268 N 0.14463 0.58297 0.25180
 N269 N 0.16505 0.59393 0.21423
 C270 C 0.19560 0.59168 0.20994
 N271 N 0.20493 0.57802 0.24449
 N272 N 0.18472 0.56736 0.28222
 C273 C 0.21887 0.60465 0.16936
 N274 N 0.24520 0.59698 0.16112
 N275 N 0.26712 0.60942 0.12514
 C276 C 0.26377 0.63024 0.09632
 N277 N 0.23745 0.63796 0.10455
 N278 N 0.21529 0.62527 0.14034
 C279 C 0.44703 0.88230 0.33079
 N280 N 0.45947 0.87398 0.36845
 N281 N 0.46451 0.88982 0.40783
 C282 C 0.45780 0.91488 0.41082
 N283 N 0.44590 0.92351 0.37292
 N284 N 0.44040 0.90739 0.33370
 C285 C 0.43915 0.86342 0.28840
 N286 N 0.41495 0.86310 0.25758
 N287 N 0.40628 0.84461 0.22026
 C288 C 0.42185 0.82610 0.21216
 N289 N 0.44639 0.82672 0.24271
 N290 N 0.45468 0.84487 0.28033
 C291 C 0.41155 0.80500 0.17181
 N292 N 0.43368 0.79419 0.15578
 N293 N 0.42398 0.77451 0.11970
 C294 C 0.39158 0.76455 0.09877
 N295 N 0.36937 0.77526 0.11492
 N296 N 0.37929 0.79530 0.15062
 C297 C 0.46642 0.58699 0.33524
 N298 N 0.45988 0.55615 0.33910
 N299 N 0.46651 0.54560 0.37832
 C300 C 0.47971 0.56537 0.41535
 N301 N 0.48619 0.59624 0.41139
 N302 N 0.47973 0.60686 0.37209
 C303 C 0.45864 0.59844 0.29215
 N304 N 0.46846 0.63004 0.28649
 N305 N 0.46071 0.64023 0.24768
 C306 C 0.44273 0.61917 0.21321
 N307 N 0.43299 0.58759 0.21886
 N308 N 0.44090 0.57743 0.25755
 C309 C 0.43269 0.63003 0.17126
 N310 N 0.40984 0.60818 0.14032
 N311 N 0.39926 0.61781 0.10331
 C312 C 0.41135 0.64966 0.09568
 N313 N 0.43453 0.67156 0.12637
 N314 N 0.44495 0.66191 0.16355
   
