data_POSCAR
  _audit_creation_date              2014-09-24
  _audit_creation_method            'ToBaCCo'
  _symmetry_space_group_name_H-M    'P1'
  _symmetry_Int_Tables_number       1
  _symmetry_cell_setting            triclinic
  loop_
  _symmetry_equiv_pos_as_xyz
 x,y,z
_cell_length_a 32.4123
_cell_length_b 28.5548
_cell_length_c 33.9156
_cell_angle_alpha 91.070600
_cell_angle_beta 88.502800
_cell_angle_gamma 91.919700
loop_
  _atom_site_label
  _atom_site_type_symbol
  _atom_site_fract_x
  _atom_site_fract_y
  _atom_site_fract_z
C1 C 1.27038 0.25328 0.26459
 C2 C 0.73984 -0.26087 0.25425
 C3 C 0.77054 0.22955 -0.24425
 C4 C 1.24641 -0.26165 -0.24267
 C5 C 0.22164 0.25206 0.74205
 C6 C 0.76621 0.76014 0.74040
 C7 C 0.73644 0.26520 0.24876
 C8 C 0.25809 0.75509 0.24127
 O9 O 1.07398 0.06247 0.05877
 O10 O 0.93115 -0.06399 0.03977
 O11 O 0.94564 0.08150 0.04631
 O12 O 1.06000 -0.08278 0.04117
 O13 O 0.92844 0.01317 0.06386
 O14 O 1.07357 -0.01855 0.07070
 O15 O 0.98809 -0.08487 0.06296
 O16 O 1.01270 0.08020 0.07668
 C17 C 1.04978 0.07883 0.08446
 C18 C 0.95007 -0.08315 0.06642
 C19 C 0.92757 0.05547 0.07057
 C20 C 1.07614 -0.06147 0.06935
 O21 O 1.08921 -0.03514 -0.00839
 O22 O 0.92692 0.04462 -0.01285
 O23 O 1.04772 0.10064 0.00592
 O24 O 0.96767 -0.09370 -0.01380
 O25 O 0.94290 -0.03203 -0.03573
 O26 O 1.07655 0.04333 -0.02152
 O27 O 1.03698 -0.07129 -0.03326
 O28 O 0.98327 0.08269 -0.02534
 Co29 Co 1.07144 0.01207 0.02442
 Co30 Co 0.93913 -0.00834 0.01433
 Co31 Co 0.99803 0.07791 0.02535
 Co32 Co 1.01231 -0.07434 0.01497
 O33 O 1.00523 0.00184 0.01979
 C34 C 1.07360 -0.05805 -0.03626
 C35 C 0.94821 0.07038 -0.03548
 C36 C 1.06812 0.08495 -0.02245
 C37 C 0.94918 -0.07419 -0.04028
 O38 O 1.07047 0.54027 0.53831
 O39 O 0.94443 0.47838 0.55500
 O40 O 0.96637 0.60829 0.50466
 O41 O 1.01408 0.40158 0.50991
 O42 O 0.95402 0.56000 0.54995
 O43 O 1.04502 0.45430 0.54628
 O44 O 0.94154 0.41796 0.51716
 O45 O 1.04204 0.59721 0.50659
 C46 C 1.06526 0.58302 0.53291
 C47 C 0.93765 0.43586 0.55108
 C48 C 0.95839 0.60097 0.54015
 C49 C 1.03198 0.41316 0.54134
 O50 O 1.06723 0.43956 0.47089
 O51 O 0.91545 0.55687 0.47747
 O52 O 1.04292 0.56774 0.43268
 O53 O 0.94428 0.45216 0.44141
 O54 O 0.90268 0.47405 0.48674
 O55 O 1.08508 0.52384 0.46382
 O56 O 1.01492 0.43127 0.43416
 O57 O 0.96490 0.56653 0.43381
 Co58 Co 1.05981 0.49047 0.50387
 Co59 Co 0.93445 0.51641 0.51506
 Co60 Co 1.00280 0.57701 0.47144
 Co61 Co 0.97973 0.43229 0.47702
 O62 O 0.99487 0.50430 0.49146
 C63 C 1.05279 0.42993 0.43777
 C64 C 0.92748 0.56594 0.44255
 C65 C 1.07759 0.55041 0.43588
 C66 C 0.90852 0.46028 0.45208
 O67 O 0.58035 0.04831 0.54326
 O68 O 0.43900 -0.02891 0.56591
 O69 O 0.45434 0.05872 0.56615
 O70 O 0.53889 -0.09437 0.51867
 O71 O 0.40440 0.03836 0.53248
 O72 O 0.57514 -0.03853 0.54659
 O73 O 0.46791 -0.09097 0.54358
 O74 O 0.52420 0.07316 0.57030
 C75 C 0.56191 0.06808 0.57127
 C76 C 0.44955 -0.06972 0.57110
 C77 C 0.41741 0.06314 0.55997
 C78 C 0.56449 -0.08073 0.54407
 O79 O 0.57417 -0.04322 0.46872
 O80 O 0.43398 0.01339 0.46635
 O81 O 0.53191 0.09755 0.49407
 O82 O 0.44369 -0.06949 0.46926
 O83 O 0.39341 -0.04581 0.50690
 O84 O 0.57274 0.04489 0.46750
 O85 O 0.51395 -0.06374 0.44813
 O86 O 0.45639 0.08229 0.48636
 Co87 Co 0.56848 0.00236 0.50705
 Co88 Co 0.43864 -0.00870 0.51580
 Co89 Co 0.49197 0.07186 0.52768
 Co90 Co 0.49180 -0.07251 0.49676
 O91 O 0.50082 0.00072 0.51280
 C92 C 0.55174 -0.06035 0.44227
 C93 C 0.43828 0.05640 0.46083
 C94 C 0.55963 0.08582 0.46920
 C95 C 0.40613 -0.07504 0.48017
 O96 O 0.57143 0.50932 0.03353
 O97 O 0.42612 0.47141 0.03125
 O98 O 0.48710 0.57159 0.03642
 O99 O 0.51074 0.40846 0.03238
 O100 O 0.42808 0.55085 0.01452
 O101 O 0.57138 0.43071 0.01326
 O102 O 0.44214 0.40510 0.00785
 O103 O 0.55797 0.57601 0.01266
 C104 C 0.57303 0.55187 0.03853
 C105 C 0.42396 0.42864 0.03393
 C106 C 0.44925 0.56899 0.04158
 C107 C 0.54799 0.41164 0.03871
 O108 O 0.57008 0.45847 -0.06419
 O109 O 0.43625 0.52390 -0.06392
 O110 O 0.53043 0.56969 -0.06226
 O111 O 0.47491 0.41310 -0.06665
 O112 O 0.41955 0.44535 -0.04697
 O113 O 0.58478 0.53746 -0.04377
 O114 O 0.54122 0.39627 -0.04222
 O115 O 0.46269 0.58564 -0.03849
 Co116 Co 0.56746 0.48476 -0.01537
 Co117 Co 0.43449 0.49725 -0.01629
 Co118 Co 0.50870 0.56725 -0.01308
 Co119 Co 0.49310 0.41439 -0.01702
 O120 O 0.50095 0.49089 -0.01545
 C121 C 0.56412 0.41577 -0.06755
 C122 C 0.44399 0.56619 -0.06624
 C123 C 0.56711 0.56165 -0.06839
 C124 C 0.43866 0.42173 -0.07258
 C125 C 1.24362 0.21530 0.24457
 C126 C 1.20260 0.22139 0.23404
 C127 C 1.17830 0.18757 0.20927
 C128 C 1.13549 0.19290 0.20669
 C129 C 1.11181 0.16397 0.18153
 C130 C 1.13061 0.12896 0.15826
 C131 C 1.17324 0.12314 0.16143
 C132 C 1.19686 0.15206 0.18640
 C133 C 1.10826 0.09985 0.12841
 C134 C 1.06619 0.10181 0.12037
 H135 H 1.18759 0.25305 0.24359
 H136 H 1.12036 0.22011 0.22377
 H137 H 1.07920 0.17006 0.17994
 H138 H 1.18870 0.09678 0.14363
 H139 H 1.22974 0.14714 0.18639
 H140 H 1.12687 0.07704 0.10985
 H141 H 1.25872 0.18351 0.23557
 H142 H 1.04554 0.12209 0.13887
 C143 C 1.23065 0.70562 0.72145
 C144 C 1.20488 0.72361 0.69368
 C145 C 1.18412 0.69411 0.66357
 C146 C 1.14708 0.70900 0.64826
 C147 C 1.12515 0.68057 0.62160
 C148 C 1.14030 0.63690 0.60948
 C149 C 1.17788 0.62264 0.62404
 C150 C 1.19982 0.65107 0.65056
 C151 C 1.11728 0.60430 0.58326
 C152 C 1.08653 0.61774 0.55823
 H153 H 1.19688 0.76009 0.69660
 H154 H 1.13446 0.74210 0.65786
 H155 H 1.09590 0.69239 0.61165
 H156 H 1.19027 0.58924 0.61495
 H157 H 1.22895 0.63912 0.66069
 H158 H 1.12603 0.56798 0.58272
 H159 H 1.23713 0.66870 0.72127
 H160 H 1.07909 0.65418 0.55568
 C161 C 0.75259 0.19420 0.72642
 C162 C 0.72007 0.16289 0.73616
 C163 C 0.69705 0.13654 0.70543
 C164 C 0.65442 0.12837 0.71082
 C165 C 0.63104 0.10819 0.68050
 C166 C 0.65007 0.09561 0.64424
 C167 C 0.69310 0.10102 0.63985
 C168 C 0.71643 0.12138 0.67010
 C169 C 0.62618 0.07690 0.61052
 C170 C 0.58467 0.08623 0.60549
 H171 H 0.70780 0.16285 0.76619
 H172 H 0.63895 0.13905 0.73807
 H173 H 0.59817 0.10270 0.68560
 H174 H 0.70860 0.09060 0.61255
 H175 H 0.74951 0.12559 0.66560
 H176 H 0.64248 0.05726 0.58770
 H177 H 0.76258 0.19663 0.69576
 H178 H 0.56818 0.10756 0.62692
 C179 C 0.70746 0.71749 0.22732
 C180 C 0.71710 0.68372 0.19859
 C181 C 0.68809 0.66781 0.16776
 C182 C 0.69364 0.62411 0.14931
 C183 C 0.66729 0.60812 0.11970
 C184 C 0.63484 0.63573 0.10774
 C185 C 0.63016 0.68019 0.12514
 C186 C 0.65641 0.69611 0.15500
 C187 C 0.60637 0.61902 0.07667
 C188 C 0.59650 0.57154 0.07163
 H189 H 0.74733 0.66859 0.19865
 H190 H 0.71839 0.60218 0.15792
 H191 H 0.67289 0.57443 0.10579
 H192 H 0.60594 0.70245 0.11585
 H193 H 0.65227 0.73087 0.16736
 H194 H 0.59252 0.64432 0.05810
 H195 H 0.67653 0.73070 0.22892
 H196 H 0.60784 0.54678 0.09223
 C197 C 0.77465 -0.23970 0.22879
 C198 C 0.76722 -0.20331 0.20320
 C199 C 0.79883 -0.17938 0.17785
 C200 C 0.84147 -0.18621 0.18069
 C201 C 0.86985 -0.16195 0.15612
 C202 C 0.85607 -0.13025 0.12848
 C203 C 0.81358 -0.12334 0.12604
 C204 C 0.78535 -0.14754 0.15041
 C205 C 0.88405 -0.10421 0.10095
 C206 C 0.92695 -0.10747 0.09821
 H207 H 0.73580 -0.19167 0.20174
 H208 H 0.85333 -0.20972 0.20191
 H209 H 0.90227 -0.16830 0.15906
 H210 H 0.80204 -0.09917 0.10501
 H211 H 0.75275 -0.14137 0.14770
 H212 H 0.86948 -0.08159 0.08049
 H213 H 0.80493 -0.25435 0.22967
 H214 H 0.94362 -0.12831 0.11832
 C215 C 0.80446 0.25806 0.73438
 C216 C 0.79523 0.28978 0.70524
 C217 C 0.82607 0.30892 0.67647
 C218 C 0.82062 0.35370 0.66170
 C219 C 0.84723 0.37169 0.63229
 C220 C 0.87947 0.34484 0.61641
 C221 C 0.88457 0.29962 0.63061
 C222 C 0.85838 0.28193 0.66079
 C223 C 0.90669 0.36363 0.58429
 C224 C 0.91963 0.41058 0.58503
 H225 H 0.76362 0.30034 0.70277
 H226 H 0.79550 0.37473 0.67282
 H227 H 0.84187 0.40623 0.62122
 H228 H 0.90888 0.27813 0.61844
 H229 H 0.86252 0.24667 0.67081
 H230 H 0.91584 0.34088 0.55992
 H231 H 0.83635 0.24893 0.73762
 H232 H 0.91328 0.43133 0.61146
 C233 C 0.27882 -0.22301 0.73946
 C234 C 0.29890 -0.22734 0.70280
 C235 C 0.32706 -0.19056 0.68663
 C236 C 0.35773 -0.20364 0.65921
 C237 C 0.38344 -0.16981 0.64131
 C238 C 0.37892 -0.12191 0.65046
 C239 C 0.34816 -0.10877 0.67793
 C240 C 0.32249 -0.14279 0.69604
 C241 C 0.40241 -0.08524 0.62838
 C242 C 0.43861 -0.09468 0.60722
 H243 H 0.29551 -0.25977 0.68599
 H244 H 0.36137 -0.24018 0.65109
 H245 H 0.40546 -0.18148 0.61907
 H246 H 0.34340 -0.07209 0.68470
 H247 H 0.29822 -0.13143 0.71616
 H248 H 0.38805 -0.05193 0.62460
 H249 H 0.28582 -0.19271 0.75802
 H250 H 0.45463 -0.12656 0.61234
 C251 C 0.29213 0.28553 0.23464
 C252 C 0.28486 0.28504 0.19415
 C253 C 0.31449 0.30676 0.16550
 C254 C 0.29987 0.32877 0.13225
 C255 C 0.32758 0.34760 0.10395
 C256 C 0.37037 0.34333 0.10782
 C257 C 0.38497 0.32025 0.14053
 C258 C 0.35732 0.30266 0.16945
 C259 C 0.39987 0.36251 0.07782
 C260 C 0.39583 0.40751 0.06376
 H261 H 0.25736 0.26777 0.18273
 H262 H 0.26699 0.33157 0.12830
 H263 H 0.31558 0.36467 0.07861
 H264 H 0.41782 0.31637 0.14392
 H265 H 0.36934 0.28472 0.19431
 H266 H 0.42667 0.34274 0.06911
 H267 H 0.31714 0.30821 0.24523
 H268 H 0.37190 0.42917 0.07648
 C269 C 0.78798 0.20404 -0.20980
 C270 C 0.81921 0.17163 -0.21440
 C271 C 0.83669 0.14778 -0.18055
 C272 C 0.87822 0.13539 -0.18237
 C273 C 0.89593 0.11414 -0.15034
 C274 C 0.87215 0.10431 -0.11600
 C275 C 0.83016 0.11485 -0.11489
 C276 C 0.81261 0.13663 -0.14671
 C277 C 0.88999 0.08276 -0.08117
 C278 C 0.93133 0.08958 -0.07139
 H279 H 0.83293 0.16578 -0.24348
 H280 H 0.89719 0.14287 -0.20842
 H281 H 0.92804 0.10504 -0.15275
 H282 H 0.81103 0.10686 -0.08906
 H283 H 0.78011 0.14420 -0.14489
 H284 H 0.86929 0.06384 -0.06102
 H285 H 0.77622 0.21195 -0.18031
 H286 H 0.95175 0.11141 -0.08955
 C287 C 0.75631 0.70280 0.28135
 C288 C 0.78636 0.71547 0.30871
 C289 C 0.80355 0.68307 0.33695
 C290 C 0.84339 0.69314 0.35041
 C291 C 0.86106 0.66418 0.37740
 C292 C 0.83904 0.62469 0.39199
 C293 C 0.79854 0.61533 0.37977
 C294 C 0.78097 0.64409 0.35205
 C295 C 0.85893 0.59373 0.41973
 C296 C 0.89984 0.58228 0.41261
 H297 H 0.79929 0.75098 0.30817
 H298 H 0.86112 0.72336 0.33970
 H299 H 0.89200 0.67287 0.38713
 H300 H 0.78091 0.58540 0.39110
 H301 H 0.74966 0.63626 0.34306
 H302 H 0.84239 0.58216 0.44613
 H303 H 0.74420 0.66702 0.27987
 H304 H 0.91409 0.59121 0.38433
 C305 C 0.30433 0.22987 0.28650
 C306 C 0.29596 0.19534 0.31454
 C307 C 0.32780 0.17670 0.33999
 C308 C 0.32077 0.13241 0.35644
 C309 C 0.34901 0.11444 0.38213
 C310 C 0.38489 0.14065 0.39220
 C311 C 0.39170 0.18524 0.37619
 C312 C 0.36357 0.20310 0.35016
 C313 C 0.41383 0.12333 0.42127
 C314 C 0.41904 0.07563 0.42624
 H315 H 0.26462 0.18127 0.31788
 H316 H 0.29311 0.11179 0.34967
 H317 H 0.34191 0.08064 0.39500
 H318 H 0.41873 0.20639 0.38404
 H319 H 0.36936 0.23807 0.33916
 H320 H 0.43025 0.14851 0.43989
 H321 H 0.33608 0.24194 0.28171
 H322 H 0.40505 0.05069 0.40573
 C323 C 0.27323 0.70457 -0.21687
 C324 C 0.31174 0.68826 -0.22882
 C325 C 0.33435 0.65712 -0.20367
 C326 C 0.37693 0.66471 -0.19918
 C327 C 0.39824 0.63754 -0.17314
 C328 C 0.37725 0.60177 -0.15203
 C329 C 0.33516 0.59263 -0.15817
 C330 C 0.31372 0.62037 -0.18353
 C331 C 0.39825 0.57377 -0.12319
 C332 C 0.42795 0.59334 -0.09831
 H333 H 0.32698 0.70113 -0.25538
 H334 H 0.39339 0.69254 -0.21491
 H335 H 0.43099 0.64443 -0.16958
 H336 H 0.31860 0.56484 -0.14246
 H337 H 0.28104 0.61314 -0.18734
 H338 H 0.38660 0.53826 -0.11827
 H339 H 0.25939 0.69271 -0.18924
 H340 H 0.43721 0.63001 -0.10043
 C341 C 1.20654 -0.23673 -0.21603
 C342 C 1.21497 -0.20891 -0.18329
 C343 C 1.18242 -0.18521 -0.16041
 C344 C 1.19385 -0.15794 -0.12756
 C345 C 1.16424 -0.13442 -0.10521
 C346 C 1.12247 -0.13727 -0.11559
 C347 C 1.11080 -0.16527 -0.14808
 C348 C 1.14057 -0.18893 -0.17054
 C349 C 1.09064 -0.11339 -0.09159
 C350 C 1.10032 -0.07374 -0.06880
 H351 H 1.24679 -0.20384 -0.17454
 H352 H 1.22582 -0.15504 -0.11900
 H353 H 1.17424 -0.11495 -0.07933
 H354 H 1.07871 -0.16856 -0.15619
 H355 H 1.13081 -0.20997 -0.19572
 H356 H 1.05959 -0.12872 -0.09027
 H357 H 1.22579 -0.24876 -0.22892
 H358 H 1.13052 -0.05664 -0.07166
 C359 C 1.24552 0.28090 0.29518
 C360 C 1.22503 0.32200 0.28761
 C361 C 1.19949 0.34558 0.31844
 C362 C 1.16471 0.36990 0.30767
 C363 C 1.13907 0.39047 0.33654
 C364 C 1.14808 0.38745 0.37679
 C365 C 1.18389 0.36498 0.38733
 C366 C 1.20927 0.34414 0.35856
 C367 C 1.12133 0.40748 0.40849
 C368 C 1.07903 0.41319 0.40469
 H369 H 1.22512 0.33501 0.25781
 H370 H 1.15695 0.37221 0.27691
 H371 H 1.11252 0.40895 0.32721
 H372 H 1.19192 0.36285 0.41804
 H373 H 1.23666 0.32716 0.36784
 H374 H 1.13488 0.41479 0.43692
 H375 H 1.24050 0.26542 0.32389
 H376 H 1.06424 0.40367 0.37732
 C377 C 0.72102 -0.22242 0.27957
 C378 C 0.68668 -0.23079 0.30431
 C379 C 0.66786 -0.19346 0.32861
 C380 C 0.62563 -0.19733 0.33826
 C381 C 0.60684 -0.16292 0.36154
 C382 C 0.63015 -0.12403 0.37581
 C383 C 0.67252 -0.12052 0.36658
 C384 C 0.69128 -0.15484 0.34314
 C385 C 0.61209 -0.08925 0.40335
 C386 C 0.56982 -0.08240 0.40687
 H387 H 0.67174 -0.26532 0.30399
 H388 H 0.60716 -0.22714 0.32783
 H389 H 0.57444 -0.16789 0.36927
 H390 H 0.69126 -0.09145 0.37798
 H391 H 0.72423 -0.15159 0.33742
 H392 H 0.63266 -0.07062 0.42338
 H393 H 0.73493 -0.18743 0.27854
 H394 H 0.54899 -0.09790 0.38549
 C395 C 0.73649 0.26114 -0.22882
 C396 C 0.74411 0.29861 -0.20263
 C397 C 0.71100 0.32625 -0.18337
 C398 C 0.67052 0.30779 -0.17738
 C399 C 0.64079 0.33389 -0.15685
 C400 C 0.65096 0.37890 -0.14172
 C401 C 0.69110 0.39755 -0.14845
 C402 C 0.72086 0.37136 -0.16869
 C403 C 0.62117 0.40713 -0.11826
 C404 C 0.58764 0.38774 -0.09671
 H405 H 0.77588 0.30805 -0.19600
 H406 H 0.66188 0.27277 -0.18748
 H407 H 0.61001 0.31860 -0.15294
 H408 H 0.69978 0.43214 -0.13719
 H409 H 0.75181 0.38633 -0.17271
 H410 H 0.62841 0.44426 -0.11450
 H411 H 0.70512 0.25365 -0.23781
 H412 H 0.58110 0.35035 -0.09783
 C413 C 1.20355 0.22249 -0.22455
 C414 C 1.16151 0.21631 -0.21501
 C415 C 1.14665 0.18506 -0.18310
 C416 C 1.11026 0.19553 -0.16204
 C417 C 1.09628 0.16756 -0.13077
 C418 C 1.11842 0.12831 -0.12027
 C419 C 1.15371 0.11658 -0.14255
 C420 C 1.16782 0.14471 -0.17365
 C421 C 1.10507 0.09848 -0.08692
 C422 C 1.08248 0.11546 -0.05455
 H423 H 1.13888 0.23629 -0.22973
 H424 H 1.09296 0.22583 -0.16941
 H425 H 1.06797 0.17651 -0.11525
 H426 H 1.17071 0.08591 -0.13555
 H427 H 1.19502 0.13446 -0.19041
 H428 H 1.11487 0.06255 -0.08703
 H429 H 1.22538 0.20410 -0.20740
 H430 H 1.07469 0.15199 -0.05255
 C431 C 1.22714 0.72387 0.25907
 C432 C 1.23497 0.69016 0.28722
 C433 C 1.20113 0.66396 0.30835
 C434 C 1.20906 0.62134 0.32624
 C435 C 1.17794 0.59728 0.34798
 C436 C 1.13837 0.61587 0.35254
 C437 C 1.13045 0.65813 0.33422
 C438 C 1.16143 0.68214 0.31275
 C439 C 1.10473 0.59371 0.37683
 C440 C 1.11083 0.56210 0.40690
 H441 H 1.26656 0.68382 0.29474
 H442 H 1.23941 0.60667 0.32341
 H443 H 1.18506 0.56432 0.36096
 H444 H 1.10037 0.67342 0.33746
 H445 H 1.15431 0.71567 0.30075
 H446 H 1.07401 0.60677 0.37361
 H447 H 1.19606 0.72403 0.24787
 H448 H 1.14116 0.54899 0.41178
 C449 C 0.71071 0.22968 0.27232
 C450 C 0.68637 0.24234 0.30513
 C451 C 0.66501 0.20782 0.33133
 C452 C 0.63287 0.22275 0.35650
 C453 C 0.61308 0.19180 0.38289
 C454 C 0.62541 0.14508 0.38492
 C455 C 0.65758 0.13022 0.35966
 C456 C 0.67731 0.16115 0.33329
 C457 C 0.60631 0.11075 0.41284
 C458 C 0.57627 0.12127 0.44164
 H459 H 0.68302 0.27920 0.31202
 H460 H 0.62303 0.25861 0.35579
 H461 H 0.58839 0.20506 0.40142
 H462 H 0.66794 0.09458 0.36069
 H463 H 0.70279 0.14847 0.31537
 H464 H 0.61712 0.07524 0.41108
 H465 H 0.71077 0.19330 0.26278
 H466 H 0.56469 0.15617 0.44494
 C467 C 0.74393 0.72189 -0.23528
 C468 C 0.70933 0.72992 -0.21078
 C469 C 0.68982 0.69390 -0.18448
 C470 C 0.64789 0.69717 -0.17390
 C471 C 0.62851 0.66487 -0.14834
 C472 C 0.65074 0.62839 -0.13240
 C473 C 0.69293 0.62564 -0.14239
 C474 C 0.71229 0.65784 -0.16826
 C475 C 0.63132 0.59489 -0.10364
 C476 C 0.58877 0.58551 -0.10151
 H477 H 0.69510 0.76365 -0.21178
 H478 H 0.63001 0.72501 -0.18538
 H479 H 0.59639 0.66960 -0.14036
 H480 H 0.71104 0.59861 -0.12996
 H481 H 0.74501 0.65510 -0.17456
 H482 H 0.65084 0.57829 -0.08294
 H483 H 0.75755 0.68785 -0.23449
 H484 H 0.56937 0.60000 -0.12339
 C485 C 0.79346 -0.20749 -0.23424
 C486 C 0.80181 -0.21420 -0.19447
 C487 C 0.82777 -0.18114 -0.17064
 C488 C 0.84543 -0.19758 -0.13644
 C489 C 0.86948 -0.16767 -0.11262
 C490 C 0.87637 -0.12029 -0.12237
 C491 C 0.85797 -0.10347 -0.15608
 C492 C 0.83403 -0.13353 -0.18011
 C493 C 0.90051 -0.08750 -0.09663
 C494 C 0.93115 -0.10290 -0.07231
 H495 H 0.79035 -0.24585 -0.18028
 H496 H 0.84049 -0.23379 -0.12801
 H497 H 0.88166 -0.18164 -0.08604
 H498 H 0.86211 -0.06695 -0.16383
 H499 H 0.81981 -0.11899 -0.20542
 H500 H 0.89339 -0.05068 -0.09622
 H501 H 0.80783 -0.17751 -0.24883
 H502 H 0.94014 -0.13904 -0.07443
 C503 C 0.76607 0.29165 0.27586
 C504 C 0.75757 0.33410 0.29509
 C505 C 0.78894 0.36056 0.31803
 C506 C 0.77630 0.39079 0.34873
 C507 C 0.80553 0.41536 0.37144
 C508 C 0.84800 0.41024 0.36345
 C509 C 0.86043 0.38165 0.33155
 C510 C 0.83130 0.35708 0.30904
 C511 C 0.88048 0.43252 0.38795
 C512 C 0.87372 0.44956 0.42627
 H513 H 0.72695 0.34799 0.29400
 H514 H 0.74375 0.39479 0.35557
 H515 H 0.79457 0.43809 0.39500
 H516 H 0.89291 0.37761 0.32440
 H517 H 0.84215 0.33569 0.28447
 H518 H 0.91206 0.43096 0.37679
 H519 H 0.79488 0.27542 0.28197
 H520 H 0.84289 0.45166 0.43894
 C521 C 0.28811 -0.22730 0.26939
 C522 C 0.27652 -0.20917 0.30677
 C523 C 0.30571 -0.18840 0.33577
 C524 C 0.28994 -0.16060 0.36686
 C525 C 0.31604 -0.14034 0.39509
 C526 C 0.35874 -0.14790 0.39315
 C527 C 0.37447 -0.17610 0.36224
 C528 C 0.34832 -0.19635 0.33395
 C529 C 0.38805 -0.12542 0.42135
 C530 C 0.37627 -0.10282 0.45662
 H531 H 0.24392 -0.20905 0.31476
 H532 H 0.25722 -0.15399 0.36906
 H533 H 0.30250 -0.11813 0.41771
 H534 H 0.40720 -0.18255 0.35996
 H535 H 0.36163 -0.21854 0.31115
 H536 H 0.42066 -0.12578 0.41342
 H537 H 0.31992 -0.22202 0.25945
 H538 H 0.34435 -0.10330 0.46662
 C539 C 0.25217 0.28769 -0.24026
 C540 C 0.28616 0.27510 -0.21878
 C541 C 0.30971 0.30879 -0.19344
 C542 C 0.34978 0.29814 -0.18282
 C543 C 0.37186 0.32744 -0.15680
 C544 C 0.35419 0.36819 -0.14066
 C545 C 0.31396 0.37864 -0.15105
 C546 C 0.29193 0.34938 -0.17717
 C547 C 0.37561 0.39848 -0.11100
 C548 C 0.41823 0.39892 -0.10638
 H549 H 0.29497 0.23882 -0.21953
 H550 H 0.36387 0.26664 -0.19427
 H551 H 0.40213 0.31698 -0.14852
 H552 H 0.29930 0.40922 -0.13848
 H553 H 0.26051 0.35792 -0.18332
 H554 H 0.35709 0.42045 -0.09162
 H555 H 0.24580 0.32458 -0.24207
 H556 H 0.43755 0.37962 -0.12697
 C557 C 1.23711 -0.20442 0.22733
 C558 C 1.24885 -0.17881 0.19372
 C559 C 1.22050 -0.14595 0.17624
 C560 C 1.21556 -0.14749 0.13532
 C561 C 1.18577 -0.12077 0.11815
 C562 C 1.16094 -0.09121 0.14152
 C563 C 1.16763 -0.08733 0.18216
 C564 C 1.19686 -0.11499 0.19954
 C565 C 1.12798 -0.06493 0.12345
 C566 C 1.10279 -0.08673 0.09543
 H567 H 1.27592 -0.18844 0.17640
 H568 H 1.23367 -0.17078 0.11678
 H569 H 1.18196 -0.12342 0.08654
 H570 H 1.14928 -0.06416 0.20057
 H571 H 1.20079 -0.11241 0.23112
 H572 H 1.12368 -0.02865 0.13203
 H573 H 1.21005 -0.19294 0.24394
 H574 H 1.10551 -0.12399 0.08974
 C575 C 1.18843 0.27929 0.72243
 C576 C 1.17055 0.26717 0.68642
 C577 C 1.14155 0.29784 0.66697
 C578 C 1.11522 0.27870 0.63823
 C579 C 1.08922 0.30737 0.61775
 C580 C 1.08935 0.35600 0.62555
 C581 C 1.11531 0.37485 0.65469
 C582 C 1.14129 0.34633 0.67496
 C583 C 1.06588 0.38916 0.60243
 C584 C 1.04267 0.37711 0.56941
 H585 H 1.17768 0.23414 0.67204
 H586 H 1.11511 0.24151 0.63130
 H587 H 1.06991 0.29119 0.59552
 H588 H 1.11651 0.41221 0.66100
 H589 H 1.16210 0.36292 0.69578
 H590 H 1.07048 0.42610 0.60959
 H591 H 1.17675 0.30909 0.73893
 H592 H 1.03559 0.34093 0.56162
 C593 C 0.73504 -0.20973 0.72077
 C594 C 0.71253 -0.22444 0.68785
 C595 C 0.68604 -0.19289 0.66589
 C596 C 0.65710 -0.21241 0.63964
 C597 C 0.63306 -0.18368 0.61701
 C598 C 0.63765 -0.13450 0.62001
 C599 C 0.66659 -0.11511 0.64630
 C600 C 0.69058 -0.14376 0.66882
 C601 C 0.61429 -0.10192 0.59585
 C602 C 0.58425 -0.11538 0.56857
 H603 H 0.71520 -0.26028 0.67729
 H604 H 0.65324 -0.25010 0.63645
 H605 H 0.61149 -0.20042 0.59707
 H606 H 0.67118 -0.07744 0.64906
 H607 H 0.71338 -0.12701 0.68755
 H608 H 0.62179 -0.06481 0.59936
 H609 H 0.72899 -0.17587 0.73418
 H610 H 0.57510 -0.15179 0.56430
 C611 C 0.70928 0.29842 0.22759
 C612 C 0.67740 0.28218 0.20353
 C613 C 0.65843 0.31175 0.17408
 C614 C 0.61921 0.29870 0.16041
 C615 C 0.60144 0.32389 0.13069
 C616 C 0.62271 0.36279 0.11396
 C617 C 0.66206 0.37565 0.12745
 C618 C 0.67982 0.35048 0.15718
 C619 C 0.60584 0.38901 0.08114
 C620 C 0.56392 0.38867 0.07317
 H621 H 0.66699 0.24581 0.20534
 H622 H 0.60246 0.26853 0.17245
 H623 H 0.57166 0.31175 0.12026
 H624 H 0.67933 0.40498 0.11461
 H625 H 0.71080 0.36063 0.16572
 H626 H 0.62712 0.40979 0.06289
 H627 H 0.71910 0.33492 0.22607
 H628 H 0.54168 0.37101 0.09256
 C629 C 0.76232 0.24030 0.21743
 C630 C 0.78922 0.20499 0.22640
 C631 C 0.81746 0.18411 0.19665
 C632 C 0.83022 0.13822 0.20158
 C633 C 0.85672 0.11744 0.17373
 C634 C 0.87112 0.14250 0.14048
 C635 C 0.85950 0.18899 0.13641
 C636 C 0.83296 0.20966 0.16416
 C637 C 0.89846 0.12195 0.10965
 C638 C 0.90254 0.07391 0.10359
 H639 H 0.78886 0.19157 0.25609
 H640 H 0.81933 0.11826 0.22687
 H641 H 0.86606 0.08211 0.17874
 H642 H 0.87079 0.20935 0.11149
 H643 H 0.82524 0.24583 0.16033
 H644 H 0.91414 0.14569 0.08921
 H645 H 0.76112 0.25163 0.18718
 H646 H 0.88584 0.04893 0.12210
 C647 C 0.79412 0.73716 0.70929
 C648 C 0.81691 0.76246 0.68060
 C649 C 0.84505 0.73989 0.65123
 C650 C 0.86462 0.69810 0.65936
 C651 C 0.89012 0.67681 0.63093
 C652 C 0.89727 0.69707 0.59369
 C653 C 0.87827 0.73929 0.58584
 C654 C 0.85282 0.76074 0.61447
 C655 C 0.92132 0.67296 0.56176
 C656 C 0.94893 0.63794 0.56930
 H657 H 0.81254 0.79978 0.67859
 H658 H 0.86042 0.68162 0.68771
 H659 H 0.90300 0.64370 0.63808
 H660 H 0.88285 0.75549 0.55737
 H661 H 0.83841 0.79318 0.60755
 H662 H 0.91432 0.68001 0.53141
 H663 H 0.79635 0.69942 0.70918
 H664 H 0.95713 0.63138 0.59935
 C665 C 0.24321 0.21917 0.71311
 C666 C 0.26808 0.23465 0.68145
 C667 C 0.28755 0.20145 0.65318
 C668 C 0.32664 0.21288 0.63679
 C669 C 0.34698 0.18082 0.61216
 C670 C 0.32828 0.13692 0.60298
 C671 C 0.28812 0.12664 0.61734
 C672 C 0.26798 0.15846 0.64248
 C673 C 0.35059 0.10143 0.57916
 C674 C 0.39267 0.09578 0.58376
 H675 H 0.27551 0.27176 0.67895
 H676 H 0.34194 0.24615 0.64396
 H677 H 0.37741 0.19036 0.60038
 H678 H 0.27282 0.09341 0.61005
 H679 H 0.23716 0.14935 0.65346
 H680 H 0.33346 0.07775 0.55981
 H681 H 0.23774 0.18177 0.71643
 H682 H 0.40879 0.11686 0.60574
 C683 C 0.27657 0.72914 0.20847
 C684 C 0.31102 0.70072 0.21093
 C685 C 0.32961 0.67415 0.17695
 C686 C 0.36617 0.65030 0.18276
 C687 C 0.38539 0.62554 0.15174
 C688 C 0.36839 0.62396 0.11400
 C689 C 0.33151 0.64690 0.10826
 C690 C 0.31244 0.67195 0.13913
 C691 C 0.38780 0.59836 0.08022
 C692 C 0.43016 0.59119 0.07681
 H693 H 0.32576 0.69840 0.23909
 H694 H 0.38007 0.65090 0.21148
 H695 H 0.41317 0.60717 0.15762
 H696 H 0.31762 0.64600 0.07953
 H697 H 0.28438 0.68921 0.13268
 H698 H 0.36850 0.58784 0.05577
 H699 H 0.25986 0.72809 0.18130
 H700 H 0.45051 0.60468 0.09945
   
