data_POSCAR
  _audit_creation_date              2014-09-24
  _audit_creation_method            'ToBaCCo'
  _symmetry_space_group_name_H-M    'P1'
  _symmetry_Int_Tables_number       1
  _symmetry_cell_setting            triclinic
  loop_
  _symmetry_equiv_pos_as_xyz
 x,y,z
_cell_length_a 29.3465
_cell_length_b 29.0644
_cell_length_c 20.6454
_cell_angle_alpha 89.869300
_cell_angle_beta 90.053400
_cell_angle_gamma 90.024700
loop_
  _atom_site_label
  _atom_site_type_symbol
  _atom_site_fract_x
  _atom_site_fract_y
  _atom_site_fract_z
C1 C 1.29169 0.20011 0.26794
 C2 C 1.25339 0.22517 0.24777
 C3 C 1.21610 0.20178 0.22069
 C4 C 1.21729 0.15382 0.21336
 C5 C 1.25576 0.12898 0.23403
 C6 C 1.29300 0.15230 0.26148
 C7 C 1.25329 0.27581 0.25432
 C8 C 1.29133 0.30103 0.23368
 C9 C 1.29239 0.34888 0.23963
 C10 C 1.25512 0.37208 0.26713
 C11 C 1.21690 0.34706 0.28835
 C12 C 1.21599 0.29905 0.28146
 H13 H 1.32014 0.21793 0.29030
 H14 H 1.18650 0.22093 0.20449
 H15 H 1.31977 0.28331 0.21124
 H16 H 1.18656 0.27976 0.29795
 H17 H 1.25633 0.09181 0.22966
 H18 H 1.25548 0.40928 0.27110
 C19 C 0.78614 -0.29941 0.28151
 C20 C 0.74874 -0.27621 0.25439
 C21 C 0.71058 -0.30143 0.23437
 C22 C 0.70946 -0.34919 0.24098
 C23 C 0.74677 -0.37243 0.26837
 C24 C 0.78519 -0.34743 0.28896
 C25 C 0.74859 -0.22561 0.24731
 C26 C 0.78588 -0.20219 0.22026
 C27 C 0.78458 -0.15426 0.21249
 C28 C 0.74600 -0.12949 0.23259
 C29 C 0.70880 -0.15287 0.25992
 C30 C 0.71021 -0.20060 0.26695
 H31 H 0.81564 -0.28001 0.29754
 H32 H 0.68201 -0.28387 0.21189
 H33 H 0.81557 -0.22130 0.20445
 H34 H 0.68172 -0.21829 0.28936
 H35 H 0.74614 -0.40962 0.27265
 H36 H 0.74525 -0.09233 0.22795
 C37 C 0.78644 0.20305 -0.21947
 C38 C 0.74912 0.22603 -0.24721
 C39 C 0.71091 0.20066 -0.26674
 C40 C 0.70971 0.15298 -0.25898
 C41 C 0.74692 0.13003 -0.23096
 C42 C 0.78532 0.15516 -0.21092
 C43 C 0.74907 0.27653 -0.25533
 C44 C 0.78632 0.29959 -0.28304
 C45 C 0.78513 0.34750 -0.29168
 C46 C 0.74664 0.37255 -0.27166
 C47 C 0.70947 0.34945 -0.24368
 C48 C 0.71082 0.30179 -0.23591
 H49 H 0.81602 0.22244 -0.20380
 H50 H 0.68241 0.21801 -0.28968
 H51 H 0.81589 0.28015 -0.29859
 H52 H 0.68237 0.28433 -0.21301
 H53 H 0.74632 0.09290 -0.22578
 H54 H 0.74585 0.40968 -0.27681
 C55 C 1.29040 -0.30120 -0.23375
 C56 C 1.25209 -0.27595 -0.25316
 C57 C 1.21477 -0.29898 -0.28063
 C58 C 1.21598 -0.34682 -0.28904
 C59 C 1.25449 -0.37191 -0.26921
 C60 C 1.29175 -0.34887 -0.24144
 C61 C 1.25209 -0.22548 -0.24536
 C62 C 1.29045 -0.20024 -0.26458
 C63 C 1.29178 -0.15261 -0.25701
 C64 C 1.25454 -0.12952 -0.22965
 C65 C 1.21597 -0.15452 -0.21001
 C66 C 1.21472 -0.20240 -0.21823
 H67 H 1.31886 -0.28367 -0.21094
 H68 H 1.18512 -0.27965 -0.29623
 H69 H 1.31899 -0.21765 -0.28717
 H70 H 1.18500 -0.22168 -0.20278
 H71 H 1.25505 -0.40903 -0.27438
 H72 H 1.25523 -0.09239 -0.22472
 C73 C 0.20358 0.28934 0.73358
 C74 C 0.22782 0.24983 0.75194
 C75 C 0.20400 0.20998 0.77010
 C76 C 0.15633 0.20959 0.77026
 C77 C 0.13222 0.24922 0.75146
 C78 C 0.15597 0.28909 0.73296
 C79 C 0.27804 0.25017 0.75184
 C80 C 0.30195 0.28617 0.78150
 C81 C 0.34964 0.28659 0.78147
 C82 C 0.37377 0.25099 0.75084
 C83 C 0.34982 0.21504 0.72076
 C84 C 0.30220 0.21461 0.72173
 H85 H 0.22181 0.31989 0.71807
 H86 H 0.22268 0.17969 0.78568
 H87 H 0.28332 0.31361 0.80523
 H88 H 0.28387 0.18685 0.69824
 H89 H 0.09525 0.24911 0.75121
 H90 H 0.41072 0.25121 0.75033
 C91 C 0.69691 0.78601 0.72031
 C92 C 0.72088 0.75023 0.75050
 C93 C 0.69680 0.71436 0.78032
 C94 C 0.64911 0.71426 0.78044
 C95 C 0.62513 0.75007 0.74975
 C96 C 0.64925 0.78595 0.71943
 C97 C 0.77110 0.75025 0.75061
 C98 C 0.79515 0.78992 0.76873
 C99 C 0.84278 0.79004 0.76884
 C100 C 0.86668 0.75040 0.75013
 C101 C 0.84273 0.71069 0.73167
 C102 C 0.79511 0.71066 0.73229
 H103 H 0.71551 0.81363 0.69673
 H104 H 0.71531 0.68676 0.80411
 H105 H 0.77678 0.82031 0.78428
 H106 H 0.77671 0.68024 0.71681
 H107 H 0.58815 0.75002 0.74945
 H108 H 0.90363 0.75045 0.74991
 C109 C 0.69807 0.28533 0.21804
 C110 C 0.72213 0.24987 0.24877
 C111 C 0.69818 0.21435 0.27954
 C112 C 0.65057 0.21435 0.28002
 C113 C 0.62647 0.24977 0.24887
 C114 C 0.65046 0.28524 0.21766
 C115 C 0.77227 0.24997 0.24888
 C116 C 0.79618 0.28984 0.26632
 C117 C 0.84377 0.28995 0.26689
 C118 C 0.86779 0.25015 0.24934
 C119 C 0.84395 0.21026 0.23156
 C120 C 0.79635 0.21020 0.23166
 H121 H 0.71644 0.31278 0.19378
 H122 H 0.71664 0.18696 0.30383
 H123 H 0.77772 0.32037 0.28115
 H124 H 0.77803 0.17959 0.21670
 H125 H 0.58953 0.24974 0.24893
 H126 H 0.90474 0.25022 0.24954
 C127 C 0.20301 0.78952 0.23193
 C128 C 0.22693 0.74982 0.25028
 C129 C 0.20288 0.71020 0.26863
 C130 C 0.15523 0.71022 0.26909
 C131 C 0.13135 0.74997 0.25030
 C132 C 0.15536 0.78965 0.23150
 C133 C 0.27709 0.74976 0.25033
 C134 C 0.30114 0.78518 0.28101
 C135 C 0.34877 0.78513 0.28151
 C136 C 0.37277 0.74973 0.25034
 C137 C 0.34868 0.71434 0.21917
 C138 C 0.30105 0.71432 0.21966
 H139 H 0.22159 0.81987 0.21636
 H140 H 0.22137 0.67979 0.28420
 H141 H 0.28274 0.81256 0.30518
 H142 H 0.28257 0.68696 0.19546
 H143 H 0.09437 0.75003 0.25031
 H144 H 0.40971 0.74973 0.25031
 N145 N 0.95413 0.08136 0.07028
 N146 N 0.92841 0.11682 0.08518
 N147 N 1.05011 0.04814 0.11596
 N148 N 1.08478 0.05391 0.15602
 N149 N 1.05000 0.08018 0.07086
 N150 N 1.08470 0.10857 0.07900
 N151 N 0.95446 0.05100 0.11751
 N152 N 0.92903 0.06566 0.16631
 C153 C 0.91230 0.10624 0.14425
 C154 C 1.10599 0.09164 0.13213
 N155 N 1.04781 -0.08197 0.06980
 N156 N 1.07310 -0.11782 0.08477
 N157 N 0.95208 -0.04886 0.11593
 N158 N 0.91742 -0.05467 0.15593
 N159 N 0.95196 -0.08059 0.07064
 N160 N 0.91712 -0.10884 0.07856
 N161 N 1.04771 -0.05186 0.11718
 N162 N 1.07281 -0.06713 0.16612
 Mn163 Mn 1.00110 -0.00039 0.11735
 C164 C 1.08917 -0.10779 0.14404
 C165 C 0.89600 -0.09214 0.13179
 N166 N 1.04869 0.08137 -0.06823
 N167 N 1.07432 0.11696 -0.08326
 N168 N 0.95234 0.04935 -0.11405
 N169 N 0.91761 0.05549 -0.15387
 N170 N 0.95278 0.08111 -0.06880
 N171 N 0.91823 0.10973 -0.07660
 N172 N 1.04798 0.05133 -0.11571
 N173 N 1.07302 0.06645 -0.16479
 Mn174 Mn 1.00140 0.08121 0.00104
 C175 C 1.08999 0.10689 -0.14267
 C176 C 0.89672 0.09321 -0.12971
 N177 N 0.95280 -0.08094 -0.06844
 N178 N 0.92696 -0.11635 -0.08350
 N179 N 1.04904 -0.04873 -0.11433
 N180 N 1.08375 -0.05466 -0.15412
 N181 N 1.04863 -0.08076 -0.06924
 N182 N 1.08317 -0.10932 -0.07708
 N183 N 0.95341 -0.05064 -0.11577
 N184 N 0.92808 -0.06536 -0.16477
 Mn185 Mn 1.00030 -0.08126 0.00068
 Mn186 Mn 1.00070 0.00033 -0.11566
 Cl187 Cl 1.00089 -0.00003 0.00084
 C188 C 0.91107 -0.10586 -0.14276
 C189 C 1.10462 -0.09251 -0.13007
 N190 N 0.95134 0.54930 0.38390
 N191 N 0.91654 0.55492 0.34401
 N192 N 1.04714 0.58223 0.43054
 N193 N 1.07255 0.61801 0.41566
 N194 N 1.04700 0.55209 0.38320
 N195 N 1.07222 0.56727 0.33437
 N196 N 0.95123 0.58107 0.42915
 N197 N 0.91625 0.60915 0.42127
 C198 C 0.89505 0.59232 0.36810
 C199 C 1.08868 0.60790 0.35649
 N200 N 1.04800 0.54897 0.61470
 N201 N 1.08286 0.55451 0.65441
 N202 N 0.95195 0.58153 0.56830
 N203 N 0.92636 0.61708 0.58337
 N204 N 0.95237 0.55120 0.61559
 N205 N 0.92717 0.56602 0.66456
 N206 N 1.04783 0.58102 0.56962
 N207 N 1.08271 0.60921 0.57742
 Mn208 Mn 0.99953 0.58167 0.49941
 C209 C 1.10410 0.59215 0.63038
 C210 C 0.91041 0.60663 0.64259
 N211 N 1.04912 0.45210 0.38453
 N212 N 1.08397 0.44642 0.34487
 N213 N 0.95294 0.41909 0.42959
 N214 N 0.92727 0.38361 0.41441
 N215 N 0.95347 0.44944 0.38234
 N216 N 0.92826 0.43474 0.33326
 N217 N 1.04885 0.42005 0.42962
 N218 N 1.08364 0.39174 0.42185
 Mn219 Mn 1.00025 0.50073 0.38280
 C220 C 1.10514 0.40872 0.36894
 C221 C 0.91141 0.39416 0.35515
 N222 N 0.95086 0.45127 0.61388
 N223 N 0.91591 0.44543 0.65331
 N224 N 1.04718 0.41888 0.56879
 N225 N 1.07264 0.38323 0.58413
 N226 N 1.04650 0.44899 0.61616
 N227 N 1.07139 0.43391 0.66545
 N228 N 0.95124 0.41945 0.56869
 N229 N 0.91640 0.39111 0.57617
 Mn230 Mn 0.99944 0.50011 0.61576
 Mn231 Mn 1.00005 0.41915 0.49916
 Cl232 Cl 0.99983 0.50041 0.49929
 C233 C 0.89480 0.40786 0.62902
 C234 C 1.08823 0.39338 0.64362
 N235 N 0.58148 0.04725 0.57018
 N236 N 0.61764 0.07134 0.58678
 N237 N 0.54817 -0.04932 0.61596
 N238 N 0.55311 -0.08436 0.65603
 N239 N 0.57990 -0.04961 0.57103
 N240 N 0.60738 -0.08515 0.57941
 N241 N 0.55136 0.04691 0.61724
 N242 N 0.56687 0.07062 0.66739
 C243 C 0.60772 0.08642 0.64662
 C244 C 0.59001 -0.10637 0.63245
 N245 N 0.41940 -0.04756 0.57110
 N246 N 0.38340 -0.07173 0.58815
 N247 N 0.45276 0.04919 0.61567
 N248 N 0.44778 0.08418 0.65558
 N249 N 0.42076 0.04925 0.57102
 N250 N 0.39307 0.08459 0.57942
 N251 N 0.44969 -0.04699 0.61801
 N252 N 0.43448 -0.07060 0.66851
 Mn253 Mn 0.50049 -0.00004 0.61720
 C254 C 0.39362 -0.08659 0.64810
 C255 C 0.41060 0.10593 0.63216
 N256 N 0.58074 -0.04821 0.43148
 N257 N 0.61671 -0.07243 0.41463
 N258 N 0.54787 0.04864 0.38606
 N259 N 0.55287 0.08368 0.34605
 N260 N 0.57987 0.04859 0.43070
 N261 N 0.60760 0.08392 0.42220
 N262 N 0.55051 -0.04751 0.38447
 N263 N 0.56580 -0.07108 0.33410
 Mn264 Mn 0.58076 -0.00050 0.50084
 C265 C 0.60659 -0.08721 0.35469
 C266 C 0.59008 0.10533 0.36940
 N267 N 0.41916 0.04765 0.43154
 N268 N 0.38315 0.07197 0.41485
 N269 N 0.45191 -0.04921 0.38668
 N270 N 0.44669 -0.08420 0.34684
 N271 N 0.42016 -0.04921 0.43158
 N272 N 0.39236 -0.08453 0.42341
 N273 N 0.44920 0.04702 0.38438
 N274 N 0.43375 0.07074 0.33405
 Mn275 Mn 0.41960 0.00002 0.50132
 Mn276 Mn 0.49987 -0.00026 0.38491
 Cl277 Cl 0.50018 -0.00018 0.50106
 C278 C 0.39304 0.08688 0.35482
 C279 C 0.40960 -0.10590 0.37053
 N280 N 0.58036 0.54802 0.06769
 N281 N 0.61664 0.57174 0.08486
 N282 N 0.54742 0.45107 0.11266
 N283 N 0.55252 0.41594 0.15249
 N284 N 0.57928 0.45122 0.06789
 N285 N 0.60701 0.41587 0.07612
 N286 N 0.55028 0.54720 0.11482
 N287 N 0.56599 0.57016 0.16554
 C288 C 0.60689 0.58608 0.14511
 C289 C 0.58963 0.39434 0.12889
 N290 N 0.41855 0.45228 0.06778
 N291 N 0.38235 0.42836 0.08482
 N292 N 0.45164 0.54904 0.11288
 N293 N 0.44652 0.58390 0.15296
 N294 N 0.41973 0.54914 0.06811
 N295 N 0.39193 0.58439 0.07662
 N296 N 0.44874 0.45284 0.11483
 N297 N 0.43319 0.42947 0.16542
 Mn298 Mn 0.49952 0.50003 0.11425
 C299 C 0.39226 0.41361 0.14495
 C300 C 0.40933 0.60562 0.12955
 N301 N 0.58052 0.45296 -0.07161
 N302 N 0.61683 0.42930 -0.08866
 N303 N 0.54716 0.54971 -0.11675
 N304 N 0.55221 0.58476 -0.15680
 N305 N 0.57903 0.54981 -0.07191
 N306 N 0.60670 0.58522 -0.08032
 N307 N 0.55034 0.45349 -0.11867
 N308 N 0.56598 0.43039 -0.16926
 Mn309 Mn 0.58004 0.50051 -0.00198
 C310 C 0.60698 0.41471 -0.14878
 C311 C 0.58931 0.60658 -0.13328
 N312 N 0.41845 0.54779 -0.07143
 N313 N 0.38224 0.57169 -0.08835
 N314 N 0.45161 0.45112 -0.11659
 N315 N 0.44647 0.41614 -0.15653
 N316 N 0.41977 0.45098 -0.07177
 N317 N 0.39207 0.41562 -0.08007
 N318 N 0.44853 0.54731 -0.11855
 N319 N 0.43292 0.57070 -0.16905
 Mn320 Mn 0.41888 0.50006 -0.00184
 Mn321 Mn 0.49940 0.50040 -0.11812
 Cl322 Cl 0.49946 0.50024 -0.00192
 C323 C 0.39206 0.58648 -0.14844
 C324 C 0.40937 0.39434 -0.13295
 C325 C 1.17867 0.13055 0.18495
 C326 C 1.14574 0.11230 0.16093
 C327 C 1.17723 0.63029 0.68256
 C328 C 1.14410 0.61242 0.65872
 C329 C 0.67182 0.12820 0.71386
 C330 C 0.64108 0.10910 0.68603
 C331 C 0.67145 0.62640 0.21335
 C332 C 0.64052 0.60789 0.18511
 C333 C 0.82321 -0.13095 0.18425
 C334 C 0.85619 -0.11273 0.16039
 C335 C 0.82175 0.36925 0.68120
 C336 C 0.85481 0.38729 0.65725
 C337 C 0.32974 -0.12799 0.71593
 C338 C 0.36046 -0.10905 0.68794
 C339 C 0.32807 0.37222 0.21292
 C340 C 0.35882 0.39120 0.18476
 C341 C 0.82400 0.13221 -0.18220
 C342 C 0.85697 0.11405 -0.15817
 C343 C 0.82190 0.63070 0.31572
 C344 C 0.85502 0.61266 0.33958
 C345 C 0.32889 0.12898 0.28766
 C346 C 0.35969 0.10975 0.31538
 C347 C 0.32765 0.62773 -0.21573
 C348 C 0.35857 0.60878 -0.18807
 C349 C 1.17729 -0.13144 -0.18198
 C350 C 1.14434 -0.11322 -0.15835
 C351 C 1.17816 0.37015 0.31667
 C352 C 1.14509 0.38821 0.34052
 C353 C 0.67072 -0.12849 0.28711
 C354 C 0.63990 -0.10965 0.31501
 C355 C 0.67144 0.37400 -0.21653
 C356 C 0.64053 0.39269 -0.18857
 C357 C 1.13389 0.17212 -0.20590
 C358 C 1.11427 0.14045 -0.18033
 C359 C 1.13264 0.67298 0.29321
 C360 C 1.11298 0.64143 0.31893
 C361 C 0.62739 0.17724 0.31221
 C362 C 0.60995 0.14489 0.33901
 C363 C 0.62694 0.67880 -0.18987
 C364 C 0.60926 0.64630 -0.16352
 C365 C 0.86668 -0.17047 -0.20621
 C366 C 0.88649 -0.13907 -0.18048
 C367 C 0.86746 0.32953 0.29158
 C368 C 0.88708 0.36098 0.31732
 C369 C 0.37205 -0.17779 0.31364
 C370 C 0.38956 -0.14546 0.34035
 C371 C 0.37171 0.32213 -0.18909
 C372 C 0.38938 0.35465 -0.16297
 C373 C 1.13288 -0.17302 0.20740
 C374 C 1.11333 -0.14141 0.18167
 C375 C 1.13204 0.32848 0.70763
 C376 C 1.11241 0.35994 0.68160
 C377 C 0.62724 -0.17865 0.68937
 C378 C 0.60976 -0.14615 0.66278
 C379 C 0.62715 0.32236 0.18567
 C380 C 0.60961 0.35474 0.15905
 C381 C 0.86785 0.17074 0.20720
 C382 C 0.88768 0.13935 0.18175
 C383 C 0.86650 0.67129 0.70636
 C384 C 0.88611 0.63991 0.68040
 C385 C 0.37318 0.17788 0.68898
 C386 C 0.39070 0.14551 0.66243
 C387 C 0.37189 0.67731 0.18691
 C388 C 0.38936 0.64506 0.16003
   
