data_POSCAR
  _audit_creation_date              2014-09-24
  _audit_creation_method            'ToBaCCo'
  _symmetry_space_group_name_H-M    'P1'
  _symmetry_Int_Tables_number       1
  _symmetry_cell_setting            triclinic
  loop_
  _symmetry_equiv_pos_as_xyz
 x,y,z
_cell_length_a 16.0268
_cell_length_b 16.5100
_cell_length_c 16.0681
_cell_angle_alpha 91.143200
_cell_angle_beta 90.713300
_cell_angle_gamma 90.657900
loop_
  _atom_site_label
  _atom_site_type_symbol
  _atom_site_fract_x
  _atom_site_fract_y
  _atom_site_fract_z
O1 O 0.55820 0.17088 0.12489
 O2 O 0.44894 -0.05592 -0.18535
 O3 O 0.61747 0.06993 -0.12410
 O4 O 0.34481 0.09375 -0.00849
 O5 O 0.60253 -0.05334 -0.16424
 O6 O 0.46329 0.15948 -0.00010
 O7 O 0.33827 -0.02638 -0.10935
 O8 O 0.61256 0.15048 0.00321
 C9 C 0.61378 0.19147 0.07100
 C10 C 0.37247 -0.03956 -0.18002
 C11 C 0.61888 0.01802 -0.18119
 C12 C 0.38734 0.15727 -0.01929
 O13 O 0.41299 0.10671 0.13684
 O14 O 0.58670 -0.15598 -0.04104
 O15 O 0.65693 0.01923 0.09327
 O16 O 0.36541 -0.12140 0.02364
 O17 O 0.43432 -0.16552 -0.08031
 O18 O 0.53910 0.01854 0.15414
 O19 O 0.37309 -0.01351 0.11895
 O20 O 0.67643 -0.05699 -0.03518
 Co21 Co 0.50411 0.08641 0.07361
 Co22 Co 0.51739 -0.09794 -0.10705
 Co23 Co 0.62810 0.04107 -0.01514
 Co24 Co 0.36753 -0.01436 0.00476
 O25 O 0.49940 -0.00282 -0.01282
 C26 C 0.37119 0.04930 0.16255
 C27 C 0.65999 -0.13163 -0.03269
 C28 C 0.61495 0.00372 0.15636
 C29 C 0.37663 -0.17377 -0.03050
 O30 O -0.15974 0.46680 0.02238
 O31 O 0.10140 0.56267 0.16163
 O32 O 0.00319 0.33450 0.11220
 O33 O -0.12313 0.60671 0.02499
 O34 O 0.10918 0.41318 0.15332
 O35 O -0.17568 0.56685 -0.09404
 O36 O -0.02512 0.60359 0.14207
 O37 O -0.11068 0.34708 0.00785
 C38 C -0.16783 0.39254 0.03159
 C39 C 0.03704 0.59678 0.18812
 C40 C 0.05575 0.35749 0.16636
 C41 C -0.16845 0.62475 -0.03723
 O42 O -0.02940 0.54112 -0.14550
 O43 O 0.18751 0.43265 0.00426
 O44 O 0.00794 0.35909 -0.10932
 O45 O 0.09604 0.66035 0.04775
 O46 O 0.17086 0.56482 0.00653
 O47 O -0.11089 0.41396 -0.12695
 O48 O 0.00090 0.64960 -0.07484
 O49 O 0.11228 0.32596 -0.00244
 Co50 Co -0.08939 0.50428 -0.05860
 Co51 Co 0.13092 0.49330 0.07680
 Co52 Co 0.00344 0.35574 0.00225
 Co53 Co -0.01030 0.61784 0.03324
 O54 O 0.01416 0.48762 0.01359
 C55 C -0.00883 0.61442 -0.14411
 C56 C 0.17969 0.36095 -0.01406
 C57 C -0.05781 0.36256 -0.14959
 C58 C 0.15830 0.63706 0.00960
 O59 O 0.00042 -0.17573 0.45784
 O60 O 0.13507 0.05988 0.59176
 O61 O 0.11067 -0.02082 0.35315
 O62 O -0.03438 -0.09295 0.71147
 O63 O 0.13934 0.08207 0.43948
 O64 O -0.02051 -0.15592 0.59384
 O65 O 0.09269 -0.05922 0.62907
 O66 O -0.01252 -0.12147 0.33969
 C67 C 0.00864 -0.18020 0.38241
 C68 C 0.14957 -0.00750 0.62462
 C69 C 0.16036 0.03343 0.38075
 C70 C -0.03425 -0.16212 0.67036
 O71 O -0.17142 -0.07783 0.56034
 O72 O -0.01015 0.15893 0.45322
 O73 O -0.11435 0.00174 0.34381
 O74 O 0.01593 0.06623 0.69098
 O75 O -0.01861 0.13749 0.59068
 O76 O -0.14914 -0.10512 0.41396
 O77 O -0.11633 0.01721 0.63334
 O78 O 0.00984 0.09675 0.33871
 Co79 Co -0.07985 -0.11835 0.50610
 Co80 Co 0.05648 0.10033 0.51830
 Co81 Co -0.00311 -0.01115 0.35900
 Co82 Co -0.01390 -0.02371 0.62499
 O83 O -0.00974 -0.00767 0.49734
 C84 C -0.17940 -0.01892 0.60920
 C85 C 0.00045 0.16141 0.37801
 C86 C -0.16712 -0.05100 0.36214
 C87 C -0.01117 0.13226 0.66651
 C88 C -0.33853 0.26795 0.07948
 C89 C -0.36199 0.33450 0.12660
 C90 C -0.30175 0.39226 0.11385
 C91 C -0.24558 0.35578 0.06124
 O92 O -0.26793 0.28066 0.04006
 H93 H -0.41702 0.34053 0.16448
 H94 H -0.29843 0.45293 0.14055
 C95 C 0.32403 0.76378 -0.04050
 C96 C 0.32825 0.70950 -0.10685
 C97 C 0.26045 0.66103 -0.09994
 C98 C 0.21987 0.68852 -0.02982
 O99 O 0.25817 0.75116 0.00694
 H100 H 0.37482 0.70614 -0.15503
 H101 H 0.24459 0.60858 -0.13875
 C102 C 0.34500 0.23014 -0.04475
 C103 C 0.38476 0.29942 -0.07050
 C104 C 0.32469 0.35697 -0.06976
 C105 C 0.25325 0.31810 -0.04321
 O106 O 0.26530 0.24100 -0.02863
 H107 H 0.45053 0.30808 -0.08254
 H108 H 0.33330 0.42096 -0.08090
 C109 C -0.27048 0.81207 -0.03860
 C110 C -0.19302 0.83810 -0.06310
 C111 C -0.14728 0.77052 -0.07019
 C112 C -0.19921 0.70745 -0.04869
 O113 O -0.27525 0.73233 -0.02991
 H114 H -0.17268 0.89933 -0.07585
 H115 H -0.08250 0.76941 -0.08611
 C116 C 0.04133 -0.35720 0.26594
 C117 C 0.09096 -0.37623 0.33315
 C118 C 0.08512 -0.31147 0.38644
 C119 C 0.03466 -0.25722 0.34598
 O120 O 0.00760 -0.28485 0.27310
 H121 H 0.12801 -0.42991 0.34139
 H122 H 0.11500 -0.30388 0.44692
 C123 C -0.07395 0.29812 0.78840
 C124 C -0.14903 0.28286 0.74858
 C125 C -0.13629 0.21401 0.70237
 C126 C -0.05493 0.19158 0.71886
 O127 O -0.01672 0.24308 0.77054
 H128 H -0.20567 0.31772 0.75251
 H129 H -0.18008 0.18503 0.65910
 C130 C 0.04937 0.32150 0.24802
 C131 C 0.06119 0.36302 0.32241
 C132 C 0.03861 0.30945 0.38177
 C133 C 0.01565 0.23927 0.33869
 O134 O 0.02179 0.24659 0.25750
 H135 H 0.08163 0.42520 0.33190
 H136 H 0.04115 0.31946 0.44851
 C137 C -0.00791 -0.34266 0.78567
 C138 C -0.02084 -0.37683 0.70756
 C139 C -0.03153 -0.31332 0.65632
 C140 C -0.02595 -0.24417 0.70619
 O141 O -0.00954 -0.26166 0.78492
 H142 H -0.02509 -0.44053 0.69042
 H143 H -0.04327 -0.31726 0.58993
 C144 C 0.32855 -0.03567 0.74816
 C145 C 0.36277 -0.05048 0.67045
 C146 C 0.29984 -0.04101 0.61429
 C147 C 0.23149 -0.02276 0.66127
 O148 O 0.24794 -0.01930 0.74259
 H149 H 0.42589 -0.06793 0.65625
 H150 H 0.30287 -0.04778 0.54724
 C151 C -0.34360 -0.02726 0.23168
 C152 C -0.38278 -0.06940 0.29362
 C153 C -0.32129 -0.08604 0.35045
 C154 C -0.24950 -0.05144 0.31972
 O155 O -0.26288 -0.01596 0.24757
 H156 H -0.44810 -0.08630 0.29662
 H157 H -0.32817 -0.11809 0.40811
 C158 C 0.33039 0.05472 0.24475
 C159 C 0.35810 0.10681 0.30760
 C160 C 0.30093 0.10091 0.36919
 C161 C 0.24169 0.04591 0.33981
 O162 O 0.25951 0.01732 0.26404
 H163 H 0.41238 0.14639 0.30741
 H164 H 0.30015 0.13577 0.42695
 C165 C -0.34651 0.03344 0.73659
 C166 C -0.39223 0.01940 0.66418
 C167 C -0.33565 0.00078 0.60395
 C168 C -0.25950 0.00522 0.64413
 O169 O -0.26585 0.02473 0.72405
 H170 H -0.45929 0.01586 0.65793
 H171 H -0.34853 -0.01778 0.54007
   
