data_POSCAR
  _audit_creation_date              2014-09-24
  _audit_creation_method            'ToBaCCo'
  _symmetry_space_group_name_H-M    'P1'
  _symmetry_Int_Tables_number       1
  _symmetry_cell_setting            triclinic
  loop_
  _symmetry_equiv_pos_as_xyz
 x,y,z
_cell_length_a 21.9466
_cell_length_b 37.7477
_cell_length_c 29.2805
_cell_angle_alpha 90.000000
_cell_angle_beta 90.097400
_cell_angle_gamma 90.000000
loop_
  _atom_site_label
  _atom_site_type_symbol
  _atom_site_fract_x
  _atom_site_fract_y
  _atom_site_fract_z
B1 B -0.05280 -0.03039 0.01582
 B2 B 0.02069 -0.02850 0.03201
 B3 B 0.00290 -0.03929 -0.02226
 B4 B -0.05878 -0.01547 -0.03819
 B5 B -0.07804 0.01088 0.00658
 B6 B -0.02824 0.00254 0.05022
 B7 B 0.03719 0.02921 -0.02112
 B8 B -0.03645 0.02726 -0.03704
 B9 B -0.01840 0.03803 0.01706
 B10 B 0.04323 0.01419 0.03293
 B11 B 0.06248 -0.01212 -0.01177
 B12 B 0.01262 -0.00374 -0.05547
 B13 B 0.51788 0.48154 0.54368
 B14 B 0.44579 0.48303 0.52432
 B15 B 0.48102 0.52057 0.54099
 B16 B 0.55523 0.51806 0.52596
 B17 B 0.56573 0.47861 0.49909
 B18 B 0.49757 0.45691 0.49805
 B19 B 0.48438 0.51788 0.44908
 B20 B 0.55660 0.51614 0.46855
 B21 B 0.52139 0.47882 0.45164
 B22 B 0.44707 0.48118 0.46679
 B23 B 0.43656 0.52062 0.49377
 B24 B 0.50485 0.54236 0.49463
 B25 B 0.54433 0.03239 0.51820
 B26 B 0.47167 0.02860 0.53523
 B27 B 0.48718 0.03839 0.48011
 B28 B 0.55045 0.01610 0.46462
 B29 B 0.57318 -0.00812 0.51047
 B30 B 0.52394 -0.00040 0.55434
 B31 B 0.45964 -0.03112 0.48541
 B32 B 0.53247 -0.02701 0.46790
 B33 B 0.51695 -0.03707 0.52272
 B34 B 0.45353 -0.01477 0.53863
 B35 B 0.43061 0.00971 0.49304
 B36 B 0.47958 0.00152 0.44889
 B37 B -0.01362 0.51862 0.04721
 B38 B 0.05977 0.51626 0.03097
 B39 B 0.02177 0.47900 0.04481
 B40 B -0.05100 0.48306 0.02650
 B41 B -0.05777 0.52323 0.00066
 B42 B 0.01129 0.54385 0.00354
 B43 B 0.02541 0.48385 -0.04710
 B44 B -0.04791 0.48627 -0.03078
 B45 B -0.01002 0.52350 -0.04465
 B46 B 0.06285 0.51945 -0.02646
 B47 B 0.06967 0.47926 -0.00048
 B48 B 0.00056 0.45866 -0.00341
 B49 B 0.03719 0.47079 0.47888
 B50 B -0.03645 0.47273 0.46296
 B51 B -0.01840 0.46197 0.51706
 B52 B 0.04323 0.48581 0.53293
 B53 B 0.06248 0.51211 0.48823
 B54 B 0.01262 0.50373 0.44453
 B55 B -0.05280 0.53039 0.51582
 B56 B 0.02069 0.52849 0.53201
 B57 B 0.00290 0.53929 0.47774
 B58 B -0.05878 0.51546 0.46181
 B59 B -0.07804 0.48912 0.50658
 B60 B -0.02824 0.49746 0.55022
 B61 B 0.48438 -0.01788 -0.05092
 B62 B 0.55660 -0.01614 -0.03145
 B63 B 0.52139 0.02118 -0.04836
 B64 B 0.44707 0.01881 -0.03321
 B65 B 0.43656 -0.02062 -0.00623
 B66 B 0.50485 -0.04236 -0.00537
 B67 B 0.51788 0.01845 0.04368
 B68 B 0.44579 0.01696 0.02432
 B69 B 0.48102 -0.02058 0.04099
 B70 B 0.55523 -0.01807 0.02596
 B71 B 0.56573 0.02138 -0.00091
 B72 B 0.49757 0.04309 -0.00195
 B73 B 0.45964 0.53112 -0.01459
 B74 B 0.53247 0.52701 -0.03210
 B75 B 0.51695 0.53706 0.02272
 B76 B 0.45353 0.51477 0.03863
 B77 B 0.43061 0.49029 -0.00696
 B78 B 0.47958 0.49848 -0.05111
 B79 B 0.54433 0.46761 0.01820
 B80 B 0.47167 0.47140 0.03523
 B81 B 0.48718 0.46161 -0.01989
 B82 B 0.55045 0.48389 -0.03538
 B83 B 0.57318 0.50812 0.01047
 B84 B 0.52394 0.50040 0.05434
 B85 B 0.02541 0.01615 0.45290
 B86 B -0.04791 0.01372 0.46922
 B87 B -0.01002 -0.02350 0.45535
 B88 B 0.06285 -0.01946 0.47354
 B89 B 0.06967 0.02074 0.49952
 B90 B 0.00056 0.04134 0.49659
 B91 B -0.01362 -0.01862 0.54721
 B92 B 0.05977 -0.01627 0.53097
 B93 B 0.02177 0.02099 0.54481
 B94 B -0.05100 0.01693 0.52650
 B95 B -0.05777 -0.02324 0.50066
 B96 B 0.01129 -0.04386 0.50354
 B97 B 0.76879 0.27799 0.26909
 B98 B 0.69507 0.26860 0.27938
 B99 B 0.71875 0.27609 0.22557
 B100 B 0.78905 0.25918 0.21960
 B101 B 0.80891 0.23989 0.27021
 B102 B 0.75063 0.24630 0.30770
 B103 B 0.70862 0.20566 0.23716
 B104 B 0.78221 0.21522 0.22704
 B105 B 0.75837 0.20730 0.28068
 B106 B 0.68779 0.22471 0.28726
 B107 B 0.66812 0.24324 0.23631
 B108 B 0.72702 0.23728 0.19892
 B109 B 0.74660 0.78871 0.78240
 B110 B 0.71262 0.78233 0.73147
 B111 B 0.78774 0.79154 0.73427
 B112 B 0.81792 0.77100 0.78051
 B113 B 0.76000 0.74915 0.80647
 B114 B 0.69431 0.75620 0.77621
 B115 B 0.77434 0.72163 0.72019
 B116 B 0.80856 0.72709 0.77109
 B117 B 0.73369 0.71851 0.76934
 B118 B 0.70372 0.73858 0.72302
 B119 B 0.76159 0.76116 0.69678
 B120 B 0.82706 0.75392 0.72711
 B121 B 0.26892 0.21777 0.73304
 B122 B 0.19420 0.22684 0.72956
 B123 B 0.22668 0.22207 0.78130
 B124 B 0.29772 0.23853 0.77921
 B125 B 0.30924 0.25511 0.72559
 B126 B 0.24444 0.24782 0.69437
 B127 B 0.21539 0.29188 0.76478
 B128 B 0.29013 0.28218 0.76909
 B129 B 0.25789 0.28787 0.71736
 B130 B 0.18615 0.27070 0.71859
 B131 B 0.17495 0.25467 0.77228
 B132 B 0.23962 0.26197 0.80357
 B133 B 0.22345 0.78295 0.23246
 B134 B 0.29846 0.77603 0.22638
 B135 B 0.27032 0.78301 0.27869
 B136 B 0.20073 0.76444 0.28172
 B137 B 0.18646 0.74402 0.23064
 B138 B 0.24796 0.75142 0.19608
 B139 B 0.28687 0.71290 0.26908
 B140 B 0.21152 0.72080 0.27603
 B141 B 0.24047 0.71245 0.22365
 B142 B 0.31008 0.73193 0.21952
 B143 B 0.32434 0.75160 0.27066
 B144 B 0.26361 0.74453 0.30552
 B145 B 0.27032 0.71698 0.77869
 B146 B 0.29846 0.72396 0.72638
 B147 B 0.22345 0.71704 0.73246
 B148 B 0.20073 0.73556 0.78172
 B149 B 0.26361 0.75546 0.80552
 B150 B 0.32434 0.74840 0.77066
 B151 B 0.24047 0.78755 0.72365
 B152 B 0.21152 0.77920 0.77603
 B153 B 0.28687 0.78710 0.76908
 B154 B 0.31008 0.76806 0.71952
 B155 B 0.24796 0.74858 0.69608
 B156 B 0.18646 0.75598 0.73064
 B157 B 0.21539 0.20811 0.26478
 B158 B 0.29013 0.21782 0.26909
 B159 B 0.25789 0.21212 0.21736
 B160 B 0.18615 0.22929 0.21859
 B161 B 0.17495 0.24533 0.27228
 B162 B 0.23962 0.23803 0.30357
 B163 B 0.26892 0.28223 0.23304
 B164 B 0.19420 0.27316 0.22956
 B165 B 0.22668 0.27792 0.28130
 B166 B 0.29772 0.26146 0.27921
 B167 B 0.30924 0.24489 0.22559
 B168 B 0.24444 0.25218 0.19437
 B169 B 0.78774 0.70846 0.23427
 B170 B 0.71262 0.71766 0.23147
 B171 B 0.74660 0.71129 0.28240
 B172 B 0.81792 0.72899 0.28051
 B173 B 0.82706 0.74608 0.22711
 B174 B 0.76159 0.73883 0.19678
 B175 B 0.73369 0.78148 0.26934
 B176 B 0.80856 0.77290 0.27109
 B177 B 0.77434 0.77836 0.22019
 B178 B 0.70372 0.76142 0.22302
 B179 B 0.69431 0.74379 0.27621
 B180 B 0.76000 0.75084 0.30647
 B181 B 0.71875 0.22391 0.72557
 B182 B 0.69507 0.23139 0.77938
 B183 B 0.76879 0.22201 0.76909
 B184 B 0.78905 0.24082 0.71960
 B185 B 0.72702 0.26271 0.69892
 B186 B 0.66812 0.25676 0.73631
 B187 B 0.75837 0.29270 0.78068
 B188 B 0.78221 0.28477 0.72704
 B189 B 0.70862 0.29433 0.73716
 B190 B 0.68779 0.27529 0.78726
 B191 B 0.75063 0.25369 0.80770
 B192 B 0.80891 0.26010 0.77021
 C193 C 0.09968 0.41837 0.84191
 C194 C 0.12412 0.45218 0.84990
 C195 C 0.09723 0.47473 0.88221
 C196 C 0.04682 0.46320 0.90793
 C197 C 0.02187 0.42958 0.89818
 C198 C 0.04711 0.40788 0.86495
 C199 C 0.13487 0.39082 0.81838
 C200 C 0.11767 0.37844 0.77511
 C201 C 0.14417 0.34762 0.75729
 C202 C 0.18747 0.32844 0.78287
 C203 C 0.20333 0.34099 0.82662
 C204 C 0.17833 0.37214 0.84368
 H205 H 0.11838 0.50008 0.88913
 H206 H -0.01533 0.41880 0.91795
 H207 H 0.12889 0.33821 0.72436
 H208 H 0.23498 0.32667 0.84816
 H209 H 0.02865 0.38152 0.86001
 H210 H 0.08235 0.39190 0.75593
 H211 H 0.16570 0.46027 0.83299
 H212 H 0.19047 0.38069 0.87784
 C213 C 0.41106 0.58725 0.34210
 C214 C 0.46468 0.59639 0.36482
 C215 C 0.49041 0.57322 0.39625
 C216 C 0.46470 0.53953 0.40440
 C217 C 0.41345 0.52936 0.37852
 C218 C 0.38620 0.55332 0.34811
 C219 C 0.37588 0.61577 0.32044
 C220 C 0.32999 0.63230 0.34579
 C221 C 0.30294 0.66336 0.32999
 C222 C 0.31995 0.67810 0.28780
 C223 C 0.36590 0.66112 0.26222
 C224 C 0.39407 0.63040 0.27869
 H225 H 0.52791 0.58315 0.41649
 H226 H 0.39162 0.50403 0.38425
 H227 H 0.26947 0.67597 0.35143
 H228 H 0.38057 0.67162 0.22965
 H229 H 0.34399 0.54618 0.33125
 H230 H 0.31698 0.62196 0.37889
 H231 H 0.48356 0.62279 0.36135
 H232 H 0.43072 0.61842 0.25937
 C233 C 0.90793 0.91609 0.65618
 C234 C 0.96107 0.90532 0.63411
 C235 C 0.98812 0.92711 0.60179
 C236 C 0.96415 0.96094 0.59199
 C237 C 0.91323 0.97273 0.61695
 C238 C 0.88469 0.95016 0.64836
 C239 C 0.87182 0.88895 0.67960
 C240 C 0.82682 0.87111 0.65474
 C241 C 0.80044 0.84039 0.67209
 C242 C 0.81672 0.82757 0.71559
 C243 C 0.86174 0.84589 0.74055
 C244 C 0.88933 0.87622 0.72255
 H245 H 1.02575 0.91623 0.58256
 H246 H 0.89288 0.99829 0.61001
 H247 H 0.76759 0.82656 0.65102
 H248 H 0.87760 0.83617 0.77317
 H249 H 0.84288 0.95853 0.66473
 H250 H 0.81442 0.87996 0.62076
 H251 H 0.97875 0.87879 0.63912
 H252 H 0.92576 0.88901 0.74134
 C253 C 0.58461 0.08275 0.15827
 C254 C 0.60582 0.04793 0.15314
 C255 C 0.58107 0.02599 0.11919
 C256 C 0.53617 0.03913 0.08926
 C257 C 0.51364 0.07366 0.09645
 C258 C 0.53669 0.09485 0.13108
 C259 C 0.62116 0.10953 0.18195
 C260 C 0.66254 0.12893 0.15578
 C261 C 0.68956 0.15919 0.17344
 C262 C 0.67789 0.17014 0.21855
 C263 C 0.63640 0.15036 0.24495
 C264 C 0.60794 0.12028 0.22664
 H265 H 0.59999 -0.00023 0.11449
 H266 H 0.48028 0.08538 0.07381
 H267 H 0.71938 0.17413 0.15121
 H268 H 0.62411 0.15874 0.27899
 H269 H 0.52094 0.12198 0.13392
 H270 H 0.67159 0.12156 0.12066
 H271 H 0.64402 0.03859 0.17328
 H272 H 0.57419 0.10622 0.24659
 C273 C 0.83472 0.08070 0.38465
 C274 C 0.82617 0.07989 0.43207
 C275 C 0.85831 0.05561 0.45892
 C276 C 0.89953 0.03161 0.43877
 C277 C 0.90149 0.02963 0.39074
 C278 C 0.87008 0.05425 0.36402
 C279 C 0.81420 0.11169 0.35781
 C280 C 0.75430 0.12433 0.36100
 C281 C 0.73659 0.15465 0.33689
 C282 C 0.77849 0.17304 0.30921
 C283 C 0.83916 0.16106 0.30794
 C284 C 0.85650 0.13043 0.33127
 H285 H 0.85444 0.05780 0.49565
 H286 H 0.93245 0.01175 0.37366
 H287 H 0.69017 0.16376 0.34052
 H288 H 0.87339 0.17509 0.28846
 H289 H 0.87664 0.05412 0.32736
 H290 H 0.72125 0.11071 0.38209
 H291 H 0.79870 0.09991 0.44872
 H292 H 0.90353 0.12182 0.32946
 C293 C 0.32866 0.41191 0.60470
 C294 C 0.35974 0.43974 0.62631
 C295 C 0.39056 0.46531 0.60063
 C296 C 0.39264 0.46312 0.55258
 C297 C 0.35611 0.43720 0.53108
 C298 C 0.32433 0.41192 0.55691
 C299 C 0.30942 0.38051 0.63165
 C300 C 0.24899 0.36827 0.63161
 C301 C 0.23235 0.33876 0.65816
 C302 C 0.27596 0.32074 0.68491
 C303 C 0.33706 0.33202 0.68231
 C304 C 0.35325 0.36185 0.65688
 H305 H 0.41818 0.48432 0.61891
 H306 H 0.35583 0.43453 0.49428
 H307 H 0.18541 0.33010 0.65753
 H308 H 0.37266 0.31827 0.70079
 H309 H 0.30048 0.39074 0.53947
 H310 H 0.21461 0.38184 0.61161
 H311 H 0.36352 0.44033 0.66319
 H312 H 0.40048 0.37021 0.65650
 C313 C 0.67906 0.91498 0.89045
 C314 C 0.68300 0.91551 0.93821
 C315 C 0.64918 0.94020 0.96334
 C316 C 0.61094 0.96483 0.94105
 C317 C 0.61360 0.96684 0.89306
 C318 C 0.64670 0.94191 0.86808
 C319 C 0.69794 0.88316 0.86463
 C320 C 0.65332 0.86381 0.84121
 C321 C 0.66875 0.83338 0.81699
 C322 C 0.72978 0.82213 0.81387
 C323 C 0.77421 0.84075 0.83909
 C324 C 0.75837 0.87099 0.86442
 H325 H 0.64928 0.93788 1.00017
 H326 H 0.58480 0.98496 0.87431
 H327 H 0.63256 0.81917 0.79977
 H328 H 0.82110 0.83201 0.83949
 H329 H 0.64317 0.94196 0.83117
 H330 H 0.60607 0.87213 0.84206
 H331 H 0.70780 0.89495 0.95614
 H332 H 0.79323 0.88510 0.88331
 C333 C 0.17639 0.58462 0.11503
 C334 C 0.14130 0.55800 0.13591
 C335 C 0.11018 0.53296 0.10945
 C336 C 0.11221 0.53446 0.06141
 C337 C 0.15334 0.55834 0.04104
 C338 C 0.18507 0.58302 0.06752
 C339 C 0.19755 0.61603 0.14167
 C340 C 0.19465 0.65009 0.12231
 C341 C 0.20877 0.68014 0.14811
 C342 C 0.22599 0.67726 0.19431
 C343 C 0.22939 0.64303 0.21345
 C344 C 0.21566 0.61291 0.18752
 H345 H 0.07933 0.51509 0.12667
 H346 H 0.15776 0.55997 0.00430
 H347 H 0.20484 0.70573 0.13171
 H348 H 0.24009 0.63917 0.24902
 H349 H 0.21374 0.60221 0.05042
 H350 H 0.17931 0.65378 0.08748
 H351 H 0.13350 0.55822 0.17240
 H352 H 0.21840 0.58717 0.20369
 C353 C 0.42100 0.89492 0.13323
 C354 C 0.48338 0.90159 0.12806
 C355 C 0.50305 0.93097 0.10278
 C356 C 0.46056 0.95379 0.08156
 C357 C 0.39814 0.94745 0.08848
 C358 C 0.37872 0.91856 0.11409
 C359 C 0.39828 0.86435 0.15976
 C360 C 0.35414 0.87071 0.19283
 C361 C 0.32452 0.84287 0.21384
 C362 C 0.33833 0.80721 0.20337
 C363 C 0.38491 0.80067 0.17147
 C364 C 0.41482 0.82913 0.14978
 H365 H 0.55152 0.93455 0.09788
 H366 H 0.36383 0.96362 0.07198
 H367 H 0.28876 0.85007 0.23722
 H368 H 0.39697 0.77377 0.16238
 H369 H 0.33023 0.91393 0.11764
 H370 H 0.34077 0.89756 0.20133
 H371 H 0.51672 0.88396 0.14318
 H372 H 0.44883 0.82367 0.12397
 C373 C 0.58053 0.39274 0.36242
 C374 C 0.62353 0.41591 0.38159
 C375 C 0.60484 0.44592 0.40544
 C376 C 0.54251 0.45373 0.41057
 C377 C 0.49981 0.43252 0.38712
 C378 C 0.51868 0.40224 0.36330
 C379 C 0.60075 0.35786 0.34460
 C380 C 0.57867 0.34437 0.30309
 C381 C 0.60429 0.31370 0.28425
 C382 C 0.65306 0.29636 0.30616
 C383 C 0.66988 0.30769 0.35018
 C384 C 0.64440 0.33822 0.36894
 H385 H 0.63933 0.46142 0.42277
 H386 H 0.45143 0.43760 0.39006
 H387 H 0.58770 0.30468 0.25159
 H388 H 0.70606 0.29469 0.36893
 H389 H 0.48459 0.38505 0.34831
 H390 H 0.54386 0.35845 0.28413
 H391 H 0.67174 0.40985 0.38012
 H392 H 0.66057 0.34723 0.40192
 C393 C 0.93699 0.60875 0.86025
 C394 C 0.99886 0.60239 0.86906
 C395 C 1.01659 0.57316 0.89567
 C396 C 0.97263 0.55013 0.91464
 C397 C 0.91086 0.55648 0.90460
 C398 C 0.89344 0.58509 0.87756
 C399 C 0.91595 0.63940 0.83274
 C400 C 0.87502 0.63310 0.79719
 C401 C 0.84417 0.66089 0.77659
 C402 C 0.85361 0.69643 0.79003
 C403 C 0.89790 0.70301 0.82390
 C404 C 0.92890 0.67467 0.84512
 H405 H 1.06453 0.56970 0.90317
 H406 H 0.87525 0.54040 0.91952
 H407 H 0.80907 0.65346 0.75279
 H408 H 0.90635 0.72977 0.83559
 H409 H 0.84531 0.58955 0.87151
 H410 H 0.86398 0.60622 0.78714
 H411 H 1.03327 0.62014 0.85571
 H412 H 0.96015 0.68015 0.87288
 C413 C 0.07076 0.10732 0.63938
 C414 C 0.00934 0.10044 0.62973
 C415 C -0.00704 0.07077 0.60354
 C416 C 0.03784 0.04780 0.58564
 C417 C 0.09917 0.05452 0.59669
 C418 C 0.11527 0.08361 0.62351
 C419 C 0.08998 0.13845 0.66672
 C420 C 0.07850 0.17350 0.65263
 C421 C 0.10789 0.20217 0.67441
 C422 C 0.14903 0.19616 0.71062
 C423 C 0.15655 0.16086 0.72573
 C424 C 0.12745 0.13273 0.70444
 H425 H -0.05473 0.06699 0.59543
 H426 H 0.13537 0.03838 0.58271
 H427 H 0.10105 0.22869 0.66128
 H428 H 0.18966 0.15368 0.75105
 H429 H 0.16306 0.08841 0.63052
 H430 H 0.04985 0.17851 0.62319
 H431 H -0.02578 0.11814 0.64210
 H432 H 0.13740 0.10600 0.71577
 C433 C 0.15101 0.39009 0.41012
 C434 C 0.12603 0.38294 0.45323
 C435 C 0.09396 0.40916 0.47693
 C436 C 0.08392 0.44261 0.45715
 C437 C 0.11332 0.45030 0.41543
 C438 C 0.14657 0.42438 0.39230
 C439 C 0.17343 0.36096 0.38092
 C440 C 0.13400 0.33301 0.37045
 C441 C 0.15109 0.30705 0.33922
 C442 C 0.20874 0.30793 0.31792
 C443 C 0.24914 0.33541 0.32989
 C444 C 0.23121 0.36207 0.36044
 H445 H 0.07441 0.40232 0.50940
 H446 H 0.10885 0.47597 0.39935
 H447 H 0.11816 0.28657 0.33163
 H448 H 0.29405 0.33676 0.31510
 H449 H 0.16551 0.43048 0.35908
 H450 H 0.08886 0.33193 0.38532
 H451 H 0.12942 0.35662 0.46777
 H452 H 0.26225 0.38359 0.36803
 C453 C 0.35217 0.61271 0.91503
 C454 C 0.40337 0.62248 0.94094
 C455 C 0.43468 0.59737 0.96681
 C456 C 0.41561 0.56182 0.96716
 C457 C 0.36055 0.55304 0.94485
 C458 C 0.32913 0.57828 0.91905
 C459 C 0.32913 0.63680 0.87915
 C460 C 0.26666 0.64355 0.87322
 C461 C 0.24693 0.66759 0.83975
 C462 C 0.28937 0.68473 0.81126
 C463 C 0.35161 0.67638 0.81637
 C464 C 0.37105 0.65278 0.84967
 H465 H 0.47682 0.60541 0.98273
 H466 H 0.34370 0.52610 0.94448
 H467 H 0.19884 0.67361 0.83738
 H468 H 0.38607 0.68870 0.79527
 H469 H 0.28961 0.57017 0.89946
 H470 H 0.23347 0.63117 0.89541
 H471 H 0.42154 0.64911 0.93874
 H472 H 0.41933 0.64719 0.85262
 C473 C 0.64762 0.11402 0.59264
 C474 C 0.65707 0.07808 0.60193
 C475 C 0.62832 0.05232 0.57554
 C476 C 0.58874 0.06183 0.53945
 C477 C 0.58498 0.09771 0.52727
 C478 C 0.61379 0.12356 0.55373
 C479 C 0.66675 0.14117 0.62620
 C480 C 0.62636 0.16849 0.63756
 C481 C 0.64218 0.19363 0.67012
 C482 C 0.69852 0.19192 0.69318
 C483 C 0.73917 0.16452 0.68165
 C484 C 0.72322 0.13920 0.64879
 H485 H 0.63441 0.02493 0.58552
 H486 H 0.55721 0.10638 0.49916
 H487 H 0.61007 0.21481 0.67640
 H488 H 0.78403 0.16314 0.69689
 H489 H 0.60732 0.15118 0.54495
 H490 H 0.58202 0.17035 0.62144
 H491 H 0.68323 0.06986 0.63148
 H492 H 0.75548 0.11852 0.64038
 C493 C 0.83697 0.88933 0.08679
 C494 C 0.83793 0.92426 0.10252
 C495 C 0.86935 0.95016 0.07816
 C496 C 0.90036 0.94165 0.03739
 C497 C 0.89269 0.90750 0.01911
 C498 C 0.86259 0.88128 0.04420
 C499 C 0.81908 0.86084 0.11828
 C500 C 0.75923 0.85773 0.13443
 C501 C 0.74459 0.83169 0.16669
 C502 C 0.79001 0.80918 0.18444
 C503 C 0.85012 0.81299 0.16817
 C504 C 0.86425 0.83828 0.13529
 H505 H 0.87176 0.97644 0.09280
 H506 H 0.91343 0.90011 -0.01280
 H507 H 0.69777 0.82913 0.17733
 H508 H 0.88684 0.79657 0.18083
 H509 H 0.86184 0.85435 0.03146
 H510 H 0.72394 0.87527 0.12182
 H511 H 0.81823 0.93093 0.13532
 H512 H 0.91098 0.84087 0.12385
 C513 C 0.88713 0.10328 0.86293
 C514 C 0.92508 0.11483 0.89862
 C515 C 0.94938 0.09085 0.92971
 C516 C 0.93570 0.05460 0.92684
 C517 C 0.89785 0.04292 0.89093
 C518 C 0.87384 0.06700 0.85932
 C519 C 0.86013 0.12968 0.83125
 C520 C 0.79962 0.12659 0.81595
 C521 C 0.77175 0.15460 0.79263
 C522 C 0.80288 0.18677 0.78592
 C523 C 0.86525 0.18817 0.79718
 C524 C 0.89350 0.15994 0.81916
 H525 H 0.97792 0.10121 0.95652
 H526 H 0.88665 0.01517 0.88698
 H527 H 0.72513 0.15136 0.78157
 H528 H 0.89242 0.21152 0.79065
 H529 H 0.84523 0.05717 0.83197
 H530 H 0.77277 0.10335 0.82389
 H531 H 0.93511 0.14267 0.90332
 H532 H 0.94113 0.16246 0.82834
 C533 C 0.09415 0.60310 0.63515
 C534 C 0.10578 0.56678 0.63910
 C535 C 0.08241 0.54314 0.60662
 C536 C 0.04715 0.55548 0.56949
 C537 C 0.03386 0.59188 0.56723
 C538 C 0.05726 0.61536 0.59945
 C539 C 0.12870 0.62903 0.66234
 C540 C 0.17155 0.64981 0.63963
 C541 C 0.20204 0.67662 0.66245
 C542 C 0.19074 0.68363 0.70905
 C543 C 0.14859 0.66207 0.73229
 C544 C 0.11789 0.63473 0.70905
 H545 H 0.09302 0.51529 0.61034
 H546 H 0.00705 0.60274 0.53978
 H547 H 0.23434 0.69201 0.64289
 H548 H 0.13833 0.66678 0.76789
 H549 H 0.04850 0.64345 0.59554
 H550 H 0.18076 0.64558 0.60367
 H551 H 0.13509 0.55695 0.66607
 H552 H 0.08457 0.61883 0.72701
 C553 C 0.62279 0.90158 0.36885
 C554 C 0.65688 0.92071 0.40130
 C555 C 0.62821 0.94281 0.43270
 C556 C 0.56466 0.94720 0.43198
 C557 C 0.53143 0.93098 0.39648
 C558 C 0.55977 0.90769 0.36611
 C559 C 0.65254 0.87356 0.34089
 C560 C 0.63157 0.86424 0.29694
 C561 C 0.65768 0.83568 0.27324
 C562 C 0.70627 0.81651 0.29248
 C563 C 0.72701 0.82636 0.33627
 C564 C 0.70063 0.85412 0.35995
 H565 H 0.65636 0.95659 0.45731
 H566 H 0.48330 0.93591 0.39210
 H567 H 0.63848 0.82807 0.24069
 H568 H 0.76305 0.81204 0.35346
 H569 H 0.53184 0.89386 0.34138
 H570 H 0.59448 0.87859 0.28107
 H571 H 0.70598 0.91829 0.40300
 H572 H 0.71681 0.85929 0.39424
 C573 C 0.39267 0.39700 0.13564
 C574 C 0.41728 0.38437 0.09472
 C575 C 0.44249 0.40769 0.06319
 C576 C 0.44312 0.44434 0.07147
 C577 C 0.41987 0.45676 0.11348
 C578 C 0.39486 0.43325 0.14531
 C579 C 0.35808 0.37246 0.16462
 C580 C 0.30538 0.35729 0.14652
 C581 C 0.27608 0.33011 0.16948
 C582 C 0.29776 0.31765 0.21195
 C583 C 0.35030 0.33361 0.23058
 C584 C 0.37999 0.36110 0.20721
 H585 H 0.46077 0.39657 0.03234
 H586 H 0.42036 0.48471 0.12176
 H587 H 0.23779 0.31790 0.15241
 H588 H 0.37020 0.32381 0.26196
 H589 H 0.37541 0.44343 0.17665
 H590 H 0.28837 0.36550 0.11340
 H591 H 0.41570 0.35635 0.08674
 H592 H 0.42155 0.37222 0.22116
 C593 C 0.57451 0.62375 0.11227
 C594 C 0.51245 0.61554 0.10878
 C595 C 0.49274 0.59013 0.07720
 C596 C 0.53486 0.57293 0.04836
 C597 C 0.59617 0.58381 0.04964
 C598 C 0.61579 0.60867 0.08152
 C599 C 0.59804 0.64636 0.14921
 C600 C 0.58557 0.68265 0.14976
 C601 C 0.61840 0.70504 0.17877
 C602 C 0.66423 0.69143 0.20785
 C603 C 0.67136 0.65444 0.21039
 C604 C 0.63930 0.63221 0.18088
 H605 H 0.44511 0.58267 0.07709
 H606 H 0.63017 0.57149 0.02826
 H607 H 0.61004 0.73321 0.17617
 H608 H 0.70505 0.64260 0.23260
 H609 H 0.66381 0.61521 0.08340
 H610 H 0.55348 0.69393 0.12566
 H611 H 0.47994 0.62731 0.13208
 H612 H 0.64896 0.60406 0.18113
 C613 C 0.06395 0.87084 0.89446
 C614 C 0.09687 0.88130 0.93332
 C615 C 0.07490 0.90776 0.96180
 C616 C 0.01889 0.92437 0.95265
 C617 C -0.01529 0.91286 0.91454
 C618 C 0.00711 0.88637 0.88568
 C619 C 0.09164 0.84506 0.86269
 C620 C 0.09258 0.85086 0.81523
 C621 C 0.12842 0.82937 0.78685
 C622 C 0.16543 0.80270 0.80575
 C623 C 0.15913 0.79517 0.85276
 C624 C 0.12298 0.81601 0.88065
 H625 H 0.10391 0.91658 0.98947
 H626 H -0.05810 0.92537 0.90572
 H627 H 0.12745 0.83402 0.75050
 H628 H 0.18342 0.77360 0.86891
 H629 H -0.01926 0.87859 0.85603
 H630 H 0.06759 0.87275 0.80035
 H631 H 0.14148 0.87031 0.94045
 H632 H 0.12121 0.81010 0.91683
 C633 C 0.42795 0.12292 0.38715
 C634 C 0.48943 0.11324 0.38842
 C635 C 0.50970 0.08835 0.42038
 C636 C 0.46899 0.07334 0.45230
 C637 C 0.40802 0.08500 0.45221
 C638 C 0.38773 0.10936 0.41982
 C639 C 0.40412 0.14590 0.35081
 C640 C 0.36397 0.13196 0.31824
 C641 C 0.33222 0.15448 0.28888
 C642 C 0.33842 0.19149 0.29261
 C643 C 0.38313 0.20492 0.32276
 C644 C 0.41568 0.18228 0.35156
 H645 H 0.55680 0.07993 0.41886
 H646 H 0.37504 0.07410 0.47580
 H647 H 0.29941 0.14279 0.26581
 H648 H 0.39082 0.23309 0.32629
 H649 H 0.34010 0.11691 0.41937
 H650 H 0.35502 0.10375 0.31708
 H651 H 0.52100 0.12368 0.36340
 H652 H 0.44699 0.19336 0.37638
 C653 C 0.92313 0.37437 0.60372
 C654 C 0.98124 0.38869 0.60978
 C655 C 1.00273 0.41425 0.57943
 C656 C 0.96640 0.42568 0.54242
 C657 C 0.90940 0.40940 0.53542
 C658 C 0.88811 0.38391 0.56577
 C659 C 0.89576 0.35233 0.63912
 C660 C 0.85756 0.36790 0.67163
 C661 C 0.82401 0.34673 0.70136
 C662 C 0.82745 0.30958 0.69858
 C663 C 0.86894 0.29440 0.66734
 C664 C 0.90259 0.31564 0.63778
 H665 H 1.04635 0.42642 0.58662
 H666 H 0.87919 0.41800 0.50837
 H667 H 0.79317 0.35961 0.72482
 H668 H 0.87416 0.26603 0.66415
 H669 H 0.84284 0.37303 0.56109
 H670 H 0.85196 0.39641 0.67275
 H671 H 1.00848 0.38149 0.63924
 H672 H 0.93207 0.30341 0.61267
 C673 C 0.90793 0.58391 0.15618
 C674 C 0.88469 0.54983 0.14836
 C675 C 0.91323 0.52727 0.11695
 C676 C 0.96415 0.53905 0.09199
 C677 C 0.98812 0.57289 0.10179
 C678 C 0.96107 0.59468 0.13411
 C679 C 0.87182 0.61105 0.17960
 C680 C 0.88933 0.62378 0.22255
 C681 C 0.86174 0.65410 0.24055
 C682 C 0.81672 0.67242 0.21559
 C683 C 0.80044 0.65960 0.17209
 C684 C 0.82682 0.62889 0.15474
 H685 H 0.89288 0.50170 0.11001
 H686 H 1.02575 0.58377 0.08256
 H687 H 0.87760 0.66383 0.27317
 H688 H 0.76759 0.67343 0.15102
 H689 H 0.97875 0.62121 0.13912
 H690 H 0.92576 0.61099 0.24134
 H691 H 0.84288 0.54147 0.16473
 H692 H 0.81442 0.62004 0.12076
 C693 C 0.58461 0.41725 0.65827
 C694 C 0.60582 0.45207 0.65314
 C695 C 0.58107 0.47400 0.61919
 C696 C 0.53617 0.46086 0.58926
 C697 C 0.51364 0.42634 0.59645
 C698 C 0.53669 0.40515 0.63108
 C699 C 0.62116 0.39047 0.68195
 C700 C 0.66254 0.37106 0.65578
 C701 C 0.68956 0.34080 0.67344
 C702 C 0.67789 0.32986 0.71855
 C703 C 0.63640 0.34963 0.74495
 C704 C 0.60794 0.37972 0.72664
 H705 H 0.59999 0.50023 0.61449
 H706 H 0.48028 0.41461 0.57381
 H707 H 0.71938 0.32587 0.65121
 H708 H 0.62411 0.34125 0.77899
 H709 H 0.52094 0.37802 0.63392
 H710 H 0.67159 0.37843 0.62066
 H711 H 0.64402 0.46140 0.67328
 H712 H 0.57419 0.39378 0.74659
 C713 C 0.09967 0.08162 0.34191
 C714 C 0.04711 0.09211 0.36495
 C715 C 0.02187 0.07041 0.39818
 C716 C 0.04682 0.03679 0.40793
 C717 C 0.09723 0.02526 0.38221
 C718 C 0.12412 0.04782 0.34990
 C719 C 0.13487 0.10918 0.31838
 C720 C 0.17833 0.12786 0.34368
 C721 C 0.20333 0.15900 0.32662
 C722 C 0.18747 0.17155 0.28287
 C723 C 0.14417 0.15237 0.25729
 C724 C 0.11767 0.12156 0.27511
 H725 H -0.01533 0.08119 0.41795
 H726 H 0.11838 -0.00009 0.38913
 H727 H 0.23498 0.17333 0.34816
 H728 H 0.12889 0.16178 0.22436
 H729 H 0.16570 0.03972 0.33299
 H730 H 0.19047 0.11930 0.37784
 H731 H 0.02865 0.11848 0.36001
 H732 H 0.08235 0.10809 0.25593
 C733 C 0.41106 0.91275 0.84210
 C734 C 0.38620 0.94667 0.84811
 C735 C 0.41345 0.97064 0.87852
 C736 C 0.46470 0.96046 0.90440
 C737 C 0.49041 0.92677 0.89625
 C738 C 0.46468 0.90360 0.86482
 C739 C 0.37588 0.88423 0.82044
 C740 C 0.39407 0.86959 0.77869
 C741 C 0.36590 0.83887 0.76222
 C742 C 0.31995 0.82190 0.78780
 C743 C 0.30294 0.83664 0.82999
 C744 C 0.32999 0.86769 0.84579
 H745 H 0.39162 0.99597 0.88425
 H746 H 0.52791 0.91685 0.91649
 H747 H 0.38057 0.82838 0.72965
 H748 H 0.26947 0.82402 0.85143
 H749 H 0.48356 0.87721 0.86135
 H750 H 0.43072 0.88157 0.75937
 H751 H 0.34399 0.95382 0.83125
 H752 H 0.31698 0.87804 0.87889
 C753 C 0.17639 0.91537 0.61503
 C754 C 0.14130 0.94200 0.63591
 C755 C 0.11018 0.96703 0.60945
 C756 C 0.11221 0.96553 0.56141
 C757 C 0.15334 0.94166 0.54104
 C758 C 0.18507 0.91697 0.56752
 C759 C 0.19755 0.88396 0.64167
 C760 C 0.19465 0.84990 0.62231
 C761 C 0.20877 0.81985 0.64811
 C762 C 0.22599 0.82274 0.69431
 C763 C 0.22939 0.85697 0.71345
 C764 C 0.21566 0.88708 0.68752
 H765 H 0.07933 0.98491 0.62667
 H766 H 0.15776 0.94002 0.50430
 H767 H 0.20484 0.79427 0.63171
 H768 H 0.24009 0.86082 0.74902
 H769 H 0.21374 0.89778 0.55042
 H770 H 0.17931 0.84621 0.58748
 H771 H 0.13350 0.94177 0.67240
 H772 H 0.21840 0.91282 0.70369
 C773 C 0.67906 0.58502 0.39045
 C774 C 0.64670 0.55808 0.36808
 C775 C 0.61360 0.53315 0.39306
 C776 C 0.61094 0.53516 0.44105
 C777 C 0.64918 0.55980 0.46334
 C778 C 0.68300 0.58448 0.43821
 C779 C 0.69794 0.61683 0.36463
 C780 C 0.75837 0.62900 0.36442
 C781 C 0.77421 0.65924 0.33909
 C782 C 0.72978 0.67786 0.31387
 C783 C 0.66875 0.66662 0.31699
 C784 C 0.65332 0.63619 0.34121
 H785 H 0.58480 0.51504 0.37431
 H786 H 0.64928 0.56212 0.50017
 H787 H 0.82110 0.66799 0.33949
 H788 H 0.63256 0.68083 0.29977
 H789 H 0.70780 0.60505 0.45614
 H790 H 0.79323 0.61490 0.38331
 H791 H 0.64317 0.55804 0.33117
 H792 H 0.60607 0.62787 0.34206
 C793 C 0.32866 0.08809 0.10470
 C794 C 0.32433 0.08807 0.05691
 C795 C 0.35611 0.06279 0.03108
 C796 C 0.39264 0.03687 0.05258
 C797 C 0.39056 0.03468 0.10063
 C798 C 0.35974 0.06026 0.12631
 C799 C 0.30942 0.11949 0.13165
 C800 C 0.35325 0.13815 0.15688
 C801 C 0.33706 0.16797 0.18231
 C802 C 0.27596 0.17926 0.18491
 C803 C 0.23235 0.16123 0.15816
 C804 C 0.24899 0.13172 0.13161
 H805 H 0.35583 0.06547 -0.00572
 H806 H 0.41818 0.01568 0.11891
 H807 H 0.37266 0.18172 0.20079
 H808 H 0.18541 0.16989 0.15753
 H809 H 0.36352 0.05966 0.16319
 H810 H 0.40048 0.12979 0.15650
 H811 H 0.30048 0.10925 0.03947
 H812 H 0.21461 0.11816 0.11161
 C813 C 0.83472 0.41929 0.88465
 C814 C 0.87008 0.44575 0.86402
 C815 C 0.90149 0.47037 0.89074
 C816 C 0.89953 0.46838 0.93877
 C817 C 0.85831 0.44438 0.95892
 C818 C 0.82617 0.42011 0.93207
 C819 C 0.81420 0.38830 0.85781
 C820 C 0.85650 0.36956 0.83127
 C821 C 0.83916 0.33894 0.80794
 C822 C 0.77849 0.32696 0.80921
 C823 C 0.73659 0.34535 0.83689
 C824 C 0.75430 0.37567 0.86100
 H825 H 0.93245 0.48825 0.87366
 H826 H 0.85444 0.44219 0.99565
 H827 H 0.87339 0.32491 0.78846
 H828 H 0.69017 0.33624 0.84052
 H829 H 0.79870 0.40008 0.94872
 H830 H 0.90353 0.37818 0.82946
 H831 H 0.87664 0.44587 0.82736
 H832 H 0.72125 0.38929 0.88209
 C833 C 0.58053 0.10726 0.86242
 C834 C 0.51868 0.09775 0.86330
 C835 C 0.49981 0.06747 0.88712
 C836 C 0.54251 0.04626 0.91057
 C837 C 0.60484 0.05408 0.90544
 C838 C 0.62353 0.08408 0.88159
 C839 C 0.60075 0.14213 0.84460
 C840 C 0.64440 0.16178 0.86894
 C841 C 0.66988 0.19230 0.85018
 C842 C 0.65306 0.20364 0.80616
 C843 C 0.60429 0.18630 0.78425
 C844 C 0.57867 0.15562 0.80309
 H845 H 0.45143 0.06239 0.89006
 H846 H 0.63933 0.03858 0.92277
 H847 H 0.70606 0.20530 0.86893
 H848 H 0.58770 0.19532 0.75159
 H849 H 0.67174 0.09015 0.88012
 H850 H 0.66057 0.15276 0.90192
 H851 H 0.48459 0.11495 0.84831
 H852 H 0.54386 0.14154 0.78413
 C853 C 0.42100 0.60508 0.63323
 C854 C 0.37872 0.58143 0.61409
 C855 C 0.39814 0.55255 0.58848
 C856 C 0.46056 0.54621 0.58156
 C857 C 0.50305 0.56903 0.60278
 C858 C 0.48338 0.59841 0.62806
 C859 C 0.39828 0.63564 0.65976
 C860 C 0.41482 0.67087 0.64978
 C861 C 0.38491 0.69933 0.67147
 C862 C 0.33833 0.69278 0.70337
 C863 C 0.32452 0.65713 0.71384
 C864 C 0.35414 0.62928 0.69283
 H865 H 0.36383 0.53638 0.57198
 H866 H 0.55152 0.56544 0.59788
 H867 H 0.39697 0.72622 0.66238
 H868 H 0.28876 0.64993 0.73722
 H869 H 0.51672 0.61604 0.64318
 H870 H 0.44883 0.67632 0.62397
 H871 H 0.33023 0.58606 0.61764
 H872 H 0.34077 0.60244 0.70133
 C873 C 0.07076 0.39268 0.13938
 C874 C 0.00934 0.39956 0.12973
 C875 C -0.00704 0.42923 0.10354
 C876 C 0.03784 0.45220 0.08564
 C877 C 0.09917 0.44548 0.09669
 C878 C 0.11527 0.41638 0.12351
 C879 C 0.08998 0.36155 0.16672
 C880 C 0.07850 0.32649 0.15263
 C881 C 0.10789 0.29782 0.17441
 C882 C 0.14903 0.30384 0.21062
 C883 C 0.15655 0.33913 0.22573
 C884 C 0.12745 0.36727 0.20444
 H885 H -0.05473 0.43300 0.09543
 H886 H 0.13537 0.46162 0.08271
 H887 H 0.10105 0.27131 0.16128
 H888 H 0.18966 0.34631 0.25105
 H889 H 0.16306 0.41159 0.13052
 H890 H 0.04985 0.32148 0.12319
 H891 H -0.02578 0.38185 0.14210
 H892 H 0.13740 0.39399 0.21577
 C893 C 0.93699 0.89125 0.36025
 C894 C 0.99886 0.89761 0.36906
 C895 C 1.01659 0.92684 0.39567
 C896 C 0.97263 0.94987 0.41464
 C897 C 0.91086 0.94352 0.40460
 C898 C 0.89344 0.91490 0.37756
 C899 C 0.91595 0.86059 0.33274
 C900 C 0.92890 0.82532 0.34511
 C901 C 0.89790 0.79699 0.32390
 C902 C 0.85361 0.80357 0.29003
 C903 C 0.84417 0.83911 0.27659
 C904 C 0.87502 0.86690 0.29719
 H905 H 1.06453 0.93030 0.40317
 H906 H 0.87525 0.95959 0.41952
 H907 H 0.90635 0.77023 0.33559
 H908 H 0.80907 0.84654 0.25279
 H909 H 0.84531 0.91044 0.37151
 H910 H 0.96015 0.81984 0.37288
 H911 H 1.03327 0.87986 0.35571
 H912 H 0.86398 0.89378 0.28714
 C913 C 0.83697 0.61066 0.58679
 C914 C 0.86259 0.61871 0.54420
 C915 C 0.89269 0.59250 0.51911
 C916 C 0.90036 0.55834 0.53739
 C917 C 0.86935 0.54983 0.57816
 C918 C 0.83793 0.57574 0.60252
 C919 C 0.81908 0.63916 0.61828
 C920 C 0.86425 0.66171 0.63529
 C921 C 0.85012 0.68700 0.66817
 C922 C 0.79001 0.69081 0.68444
 C923 C 0.74459 0.66830 0.66669
 C924 C 0.75923 0.64226 0.63443
 H925 H 0.91343 0.59989 0.48720
 H926 H 0.87176 0.52355 0.59280
 H927 H 0.88684 0.70343 0.68083
 H928 H 0.69777 0.67087 0.67733
 H929 H 0.81823 0.56906 0.63532
 H930 H 0.91098 0.65913 0.62385
 H931 H 0.86184 0.64565 0.53146
 H932 H 0.72394 0.62473 0.62182
 C933 C 0.64762 0.38598 0.09264
 C934 C 0.65707 0.42191 0.10193
 C935 C 0.62832 0.44768 0.07554
 C936 C 0.58874 0.43817 0.03945
 C937 C 0.58498 0.40229 0.02727
 C938 C 0.61379 0.37644 0.05373
 C939 C 0.66675 0.35882 0.12620
 C940 C 0.62636 0.33150 0.13756
 C941 C 0.64218 0.30636 0.17012
 C942 C 0.69852 0.30807 0.19318
 C943 C 0.73917 0.33547 0.18165
 C944 C 0.72322 0.36079 0.14879
 H945 H 0.63441 0.47506 0.08552
 H946 H 0.55721 0.39361 -0.00084
 H947 H 0.61007 0.28519 0.17640
 H948 H 0.78403 0.33686 0.19689
 H949 H 0.60732 0.34882 0.04495
 H950 H 0.58202 0.32965 0.12144
 H951 H 0.68323 0.43014 0.13148
 H952 H 0.75548 0.38148 0.14038
 C953 C 0.35217 0.88728 0.41503
 C954 C 0.32913 0.92171 0.41905
 C955 C 0.36055 0.94695 0.44485
 C956 C 0.41561 0.93818 0.46716
 C957 C 0.43468 0.90263 0.46681
 C958 C 0.40337 0.87752 0.44094
 C959 C 0.32913 0.86320 0.37915
 C960 C 0.37105 0.84721 0.34967
 C961 C 0.35161 0.82362 0.31637
 C962 C 0.28937 0.81526 0.31126
 C963 C 0.24693 0.83240 0.33975
 C964 C 0.26666 0.85644 0.37322
 H965 H 0.34370 0.97389 0.44448
 H966 H 0.47682 0.89458 0.48273
 H967 H 0.38607 0.81130 0.29527
 H968 H 0.19884 0.82639 0.33738
 H969 H 0.42154 0.85089 0.43874
 H970 H 0.41933 0.85280 0.35262
 H971 H 0.28961 0.92982 0.39946
 H972 H 0.23347 0.86882 0.39541
 C973 C 0.15101 0.10990 0.91012
 C974 C 0.14657 0.07562 0.89230
 C975 C 0.11332 0.04970 0.91543
 C976 C 0.08392 0.05739 0.95715
 C977 C 0.09396 0.09083 0.97693
 C978 C 0.12603 0.11705 0.95323
 C979 C 0.17343 0.13903 0.88092
 C980 C 0.23121 0.13792 0.86044
 C981 C 0.24914 0.16459 0.82989
 C982 C 0.20874 0.19207 0.81792
 C983 C 0.15109 0.19294 0.83922
 C984 C 0.13400 0.16699 0.87045
 H985 H 0.10885 0.02402 0.89935
 H986 H 0.07441 0.09767 1.00940
 H987 H 0.29405 0.16323 0.81510
 H988 H 0.11816 0.21342 0.83163
 H989 H 0.12942 0.14337 0.96777
 H990 H 0.26225 0.11640 0.86803
 H991 H 0.16551 0.06951 0.85908
 H992 H 0.08886 0.16806 0.88532
 C993 C 0.09415 0.89689 0.13515
 C994 C 0.10578 0.93322 0.13910
 C995 C 0.08241 0.95686 0.10662
 C996 C 0.04715 0.94451 0.06949
 C997 C 0.03386 0.90812 0.06723
 C998 C 0.05726 0.88463 0.09945
 C999 C 0.12870 0.87096 0.16234
 C1000 C 0.17155 0.85019 0.13963
 C1001 C 0.20204 0.82338 0.16245
 C1002 C 0.19074 0.81637 0.20905
 C1003 C 0.14859 0.83793 0.23229
 C1004 C 0.11789 0.86527 0.20905
 H1005 H 0.09302 0.98470 0.11034
 H1006 H 0.00705 0.89726 0.03978
 H1007 H 0.23434 0.80799 0.14289
 H1008 H 0.13833 0.83322 0.26789
 H1009 H 0.04850 0.85654 0.09554
 H1010 H 0.18076 0.85441 0.10367
 H1011 H 0.13509 0.94305 0.16607
 H1012 H 0.08457 0.88117 0.22701
 C1013 C 0.88713 0.39671 0.36293
 C1014 C 0.87384 0.43300 0.35932
 C1015 C 0.89785 0.45707 0.39093
 C1016 C 0.93570 0.44539 0.42684
 C1017 C 0.94938 0.40914 0.42971
 C1018 C 0.92508 0.38517 0.39862
 C1019 C 0.86013 0.37031 0.33125
 C1020 C 0.89350 0.34006 0.31916
 C1021 C 0.86525 0.31183 0.29718
 C1022 C 0.80288 0.31322 0.28592
 C1023 C 0.77175 0.34539 0.29263
 C1024 C 0.79962 0.37340 0.31595
 H1025 H 0.88665 0.48482 0.38698
 H1026 H 0.97792 0.39879 0.45652
 H1027 H 0.89242 0.28848 0.29065
 H1028 H 0.72513 0.34864 0.28157
 H1029 H 0.93511 0.35733 0.40332
 H1030 H 0.94113 0.33753 0.32834
 H1031 H 0.84523 0.44283 0.33197
 H1032 H 0.77277 0.39665 0.32389
 C1033 C 0.39267 0.10300 0.63564
 C1034 C 0.39486 0.06674 0.64531
 C1035 C 0.41987 0.04323 0.61348
 C1036 C 0.44312 0.05565 0.57147
 C1037 C 0.44249 0.09231 0.56319
 C1038 C 0.41728 0.11563 0.59472
 C1039 C 0.35808 0.12753 0.66462
 C1040 C 0.37999 0.13889 0.70721
 C1041 C 0.35030 0.16639 0.73058
 C1042 C 0.29776 0.18234 0.71195
 C1043 C 0.27608 0.16988 0.66948
 C1044 C 0.30538 0.14270 0.64652
 H1045 H 0.42036 0.01529 0.62176
 H1046 H 0.46077 0.10343 0.53234
 H1047 H 0.37020 0.17619 0.76196
 H1048 H 0.23779 0.18210 0.65241
 H1049 H 0.41570 0.14365 0.58674
 H1050 H 0.42155 0.12778 0.72116
 H1051 H 0.37541 0.05656 0.67665
 H1052 H 0.28837 0.13450 0.61340
 C1053 C 0.62279 0.59841 0.86885
 C1054 C 0.55977 0.59231 0.86611
 C1055 C 0.53143 0.56902 0.89648
 C1056 C 0.56466 0.55279 0.93198
 C1057 C 0.62821 0.55719 0.93270
 C1058 C 0.65688 0.57929 0.90130
 C1059 C 0.65254 0.62643 0.84089
 C1060 C 0.70063 0.64587 0.85995
 C1061 C 0.72701 0.67363 0.83627
 C1062 C 0.70627 0.68348 0.79248
 C1063 C 0.65768 0.66431 0.77324
 C1064 C 0.63157 0.63576 0.79694
 H1065 H 0.48330 0.56409 0.89210
 H1066 H 0.65636 0.54340 0.95731
 H1067 H 0.76305 0.68795 0.85346
 H1068 H 0.63848 0.67193 0.74069
 H1069 H 0.70598 0.58171 0.90300
 H1070 H 0.71681 0.64071 0.89424
 H1071 H 0.53184 0.60613 0.84138
 H1072 H 0.59448 0.62141 0.78107
 C1073 C 0.42795 0.37707 0.88715
 C1074 C 0.38773 0.39064 0.91982
 C1075 C 0.40802 0.41499 0.95221
 C1076 C 0.46899 0.42665 0.95230
 C1077 C 0.50970 0.41165 0.92038
 C1078 C 0.48943 0.38675 0.88842
 C1079 C 0.40412 0.35410 0.85081
 C1080 C 0.41568 0.31771 0.85156
 C1081 C 0.38313 0.29507 0.82276
 C1082 C 0.33842 0.30851 0.79261
 C1083 C 0.33222 0.34552 0.78888
 C1084 C 0.36397 0.36804 0.81824
 H1085 H 0.37504 0.42589 0.97580
 H1086 H 0.55680 0.42006 0.91886
 H1087 H 0.39082 0.26690 0.82629
 H1088 H 0.29941 0.35720 0.76581
 H1089 H 0.52100 0.37631 0.86340
 H1090 H 0.44699 0.30663 0.87638
 H1091 H 0.34010 0.38308 0.91937
 H1092 H 0.35502 0.39625 0.81708
 C1093 C 0.92313 0.12563 0.10372
 C1094 C 0.88811 0.11608 0.06577
 C1095 C 0.90940 0.09060 0.03542
 C1096 C 0.96640 0.07432 0.04242
 C1097 C 1.00273 0.08574 0.07943
 C1098 C 0.98124 0.11130 0.10978
 C1099 C 0.89576 0.14767 0.13912
 C1100 C 0.90259 0.18436 0.13778
 C1101 C 0.86894 0.20560 0.16734
 C1102 C 0.82745 0.19042 0.19858
 C1103 C 0.82401 0.15327 0.20136
 C1104 C 0.85756 0.13209 0.17163
 H1105 H 0.87919 0.08199 0.00837
 H1106 H 1.04635 0.07358 0.08662
 H1107 H 0.87416 0.23397 0.16415
 H1108 H 0.79317 0.14038 0.22482
 H1109 H 1.00848 0.11850 0.13924
 H1110 H 0.93207 0.19658 0.11267
 H1111 H 0.84284 0.12697 0.06109
 H1112 H 0.85196 0.10359 0.17275
 C1113 C 0.57451 0.87625 0.61227
 C1114 C 0.51245 0.88446 0.60878
 C1115 C 0.49274 0.90987 0.57720
 C1116 C 0.53486 0.92706 0.54836
 C1117 C 0.59617 0.91619 0.54964
 C1118 C 0.61579 0.89132 0.58152
 C1119 C 0.59804 0.85364 0.64921
 C1120 C 0.58557 0.81734 0.64976
 C1121 C 0.61840 0.79495 0.67877
 C1122 C 0.66423 0.80856 0.70785
 C1123 C 0.67136 0.84555 0.71039
 C1124 C 0.63930 0.86779 0.68088
 H1125 H 0.44511 0.91732 0.57709
 H1126 H 0.63017 0.92850 0.52826
 H1127 H 0.61004 0.76679 0.67617
 H1128 H 0.70505 0.85739 0.73260
 H1129 H 0.66381 0.88479 0.58340
 H1130 H 0.55348 0.80606 0.62566
 H1131 H 0.47994 0.87269 0.63208
 H1132 H 0.64896 0.89593 0.68113
 C1133 C 0.06395 0.62916 0.39446
 C1134 C 0.00711 0.61362 0.38568
 C1135 C -0.01529 0.58713 0.41454
 C1136 C 0.01889 0.57562 0.45265
 C1137 C 0.07490 0.59223 0.46180
 C1138 C 0.09687 0.61869 0.43332
 C1139 C 0.09164 0.65494 0.36269
 C1140 C 0.12298 0.68398 0.38065
 C1141 C 0.15913 0.70482 0.35276
 C1142 C 0.16543 0.69729 0.30575
 C1143 C 0.12842 0.67062 0.28685
 C1144 C 0.09258 0.64914 0.31523
 H1145 H -0.05810 0.57462 0.40572
 H1146 H 0.10391 0.58342 0.48947
 H1147 H 0.18342 0.72639 0.36891
 H1148 H 0.12745 0.66597 0.25050
 H1149 H 0.14148 0.62968 0.44045
 H1150 H 0.12121 0.68990 0.41683
 H1151 H -0.01926 0.62141 0.35603
 H1152 H 0.06759 0.62725 0.30035
   
