data_POSCAR
  _audit_creation_date              2014-09-24
  _audit_creation_method            'ToBaCCo'
  _symmetry_space_group_name_H-M    'P1'
  _symmetry_Int_Tables_number       1
  _symmetry_cell_setting            triclinic
  loop_
  _symmetry_equiv_pos_as_xyz
 x,y,z
_cell_length_a 43.3652
_cell_length_b 30.8224
_cell_length_c 19.7823
_cell_angle_alpha 89.940200
_cell_angle_beta 89.959600
_cell_angle_gamma 90.049400
loop_
  _atom_site_label
  _atom_site_type_symbol
  _atom_site_fract_x
  _atom_site_fract_y
  _atom_site_fract_z
O1 O 0.71062 0.24212 0.43581
 O2 O 0.76155 0.19765 0.56763
 O3 O 0.71035 0.24232 0.56709
 O4 O 0.76180 0.19755 0.43637
 O5 O 0.78869 0.25855 0.43631
 O6 O 0.73725 0.30331 0.56704
 O7 O 0.78844 0.25864 0.56757
 O8 O 0.73751 0.30313 0.43576
 Cu9 Cu 0.73337 0.21376 0.50175
 Cu10 Cu 0.76568 0.28706 0.50169
 C11 C 0.71532 0.28026 0.41391
 C12 C 0.78376 0.22049 0.58940
 C13 C 0.71495 0.28052 0.58871
 C14 C 0.78408 0.22037 0.41466
 O15 O 0.26254 0.69669 0.56729
 O16 O 0.21119 0.74169 0.43660
 O17 O 0.26225 0.69684 0.43601
 O18 O 0.21145 0.74161 0.56785
 O19 O 0.23850 0.80247 0.56758
 O20 O 0.28930 0.75770 0.43574
 O21 O 0.23823 0.80255 0.43632
 O22 O 0.28958 0.75754 0.56701
 Cu23 Cu 0.23413 0.71306 0.50199
 Cu24 Cu 0.26663 0.78620 0.50166
 C25 C 0.28490 0.71937 0.58879
 C26 C 0.21590 0.77984 0.41479
 C27 C 0.28449 0.71959 0.41400
 C28 C 0.21623 0.77975 0.58952
 O29 O 0.26228 0.30268 -0.56884
 O30 O 0.21098 0.25803 -0.43751
 O31 O 0.26216 0.30269 -0.43756
 O32 O 0.21107 0.25789 -0.56878
 O33 O 0.23795 0.19696 -0.56855
 O34 O 0.28904 0.24174 -0.43733
 O35 O 0.23785 0.19708 -0.43727
 O36 O 0.28916 0.24174 -0.56860
 Cu37 Cu 0.23391 0.28647 -0.50324
 Cu38 Cu 0.26621 0.21323 -0.50295
 C39 C 0.28456 0.27991 -0.59045
 C40 C 0.21562 0.21990 -0.41557
 C41 C 0.28436 0.27989 -0.41565
 C42 C 0.21571 0.21970 -0.59036
 O43 O -0.21057 0.74231 -0.43577
 O44 O -0.26169 0.69760 -0.56708
 O45 O -0.21055 0.74255 -0.56705
 O46 O -0.26169 0.69748 -0.43582
 O47 O -0.28866 0.75835 -0.43570
 O48 O -0.23753 0.80340 -0.56692
 O49 O -0.28867 0.75845 -0.56696
 O50 O -0.23754 0.80318 -0.43565
 Cu51 Cu -0.23340 0.71385 -0.50148
 Cu52 Cu -0.26582 0.78698 -0.50132
 C53 C -0.21529 0.78041 -0.41391
 C54 C -0.28398 0.72032 -0.58873
 C55 C -0.21524 0.78073 -0.58870
 C56 C -0.28395 0.72018 -0.41400
 N57 N 0.03265 1.07735 -0.07190
 N58 N 0.05469 1.10598 -0.08385
 N59 N -0.03226 1.04713 -0.11832
 N60 N -0.05435 1.05416 -0.16283
 N61 N -0.03224 1.07743 -0.07166
 N62 N -0.05434 1.10596 -0.08316
 N63 N 0.03256 1.04703 -0.11852
 N64 N 0.05450 1.05413 -0.16343
 C65 C 0.06819 1.09071 -0.14071
 C66 C -0.06799 1.09068 -0.13981
 N67 N -0.03245 0.92340 -0.07141
 N68 N -0.05449 0.89476 -0.08314
 N69 N 0.03244 0.95360 -0.11828
 N70 N 0.05452 0.94654 -0.16286
 N71 N 0.03244 0.92332 -0.07149
 N72 N 0.05454 0.89478 -0.08297
 N73 N -0.03238 0.95369 -0.11816
 N74 N -0.05434 0.94657 -0.16294
 Mn75 Mn 0.00009 1.00036 -0.11899
 C76 C -0.06801 0.90999 -0.14000
 C77 C 0.06816 0.91003 -0.13975
 N78 N -0.03221 1.07747 0.07415
 N79 N -0.05425 1.10608 0.08582
 N80 N 0.03262 1.04709 0.12072
 N81 N 0.05471 1.05411 0.16523
 N82 N 0.03268 1.07736 0.07393
 N83 N 0.05484 1.10586 0.08533
 N84 N -0.03221 1.04718 0.12091
 N85 N -0.05421 1.05428 0.16565
 Mn86 Mn 0.00022 1.07790 0.00113
 C87 C -0.06783 1.09085 0.14268
 C88 C 0.06844 1.09059 0.14207
 N89 N 0.03247 0.92333 0.07432
 N90 N 0.05448 0.89469 0.08604
 N91 N -0.03234 0.95373 0.12108
 N92 N -0.05440 0.94672 0.16576
 N93 N -0.03242 0.92344 0.07441
 N94 N -0.05457 0.89494 0.08606
 N95 N 0.03248 0.95364 0.12095
 N96 N 0.05448 0.94652 0.16565
 Mn97 Mn 0.00001 0.92287 0.00146
 Mn98 Mn 0.00014 1.00041 0.12159
 Cl99 Cl 0.00011 1.00039 0.00130
 C100 C 0.06808 0.90993 0.14278
 C101 C -0.06813 0.91022 0.14282
 N102 N 0.53229 0.45307 -0.12056
 N103 N 0.55430 0.44601 -0.16529
 N104 N 0.46741 0.42268 -0.07392
 N105 N 0.44534 0.39408 -0.08560
 N106 N 0.46747 0.45301 -0.12062
 N107 N 0.44547 0.44594 -0.16533
 N108 N 0.53229 0.42274 -0.07386
 N109 N 0.55435 0.39416 -0.08555
 C110 C 0.56794 0.40944 -0.14235
 C111 C 0.43180 0.40938 -0.14239
 N112 N 0.46732 0.45283 0.11863
 N113 N 0.44529 0.44568 0.16333
 N114 N 0.53221 0.42266 0.07198
 N115 N 0.55429 0.39412 0.08363
 N116 N 0.53214 0.45293 0.11867
 N117 N 0.55415 0.44588 0.16336
 N118 N 0.46731 0.42257 0.07192
 N119 N 0.44525 0.39393 0.08359
 Mn120 Mn 0.49980 0.42216 -0.00097
 C121 C 0.43165 0.40912 0.14038
 C122 C 0.56784 0.40938 0.14041
 N123 N 0.46745 0.54644 -0.12064
 N124 N 0.44547 0.55355 -0.16539
 N125 N 0.53228 0.57678 -0.07384
 N126 N 0.55439 0.60535 -0.08538
 N127 N 0.53227 0.54651 -0.12054
 N128 N 0.55436 0.55360 -0.16512
 N129 N 0.46739 0.57670 -0.07393
 N130 N 0.44533 0.60528 -0.08564
 Mn131 Mn 0.49987 0.49976 -0.12126
 C132 C 0.43180 0.59007 -0.14246
 C133 C 0.56802 0.59012 -0.14210
 N134 N 0.53215 0.54637 0.11868
 N135 N 0.55416 0.55346 0.16338
 N136 N 0.46732 0.57660 0.07190
 N137 N 0.44526 0.60517 0.08356
 N138 N 0.46733 0.54628 0.11860
 N139 N 0.44531 0.55332 0.16331
 N140 N 0.53221 0.57670 0.07197
 N141 N 0.55428 0.60529 0.08362
 Mn142 Mn 0.49974 0.49960 0.11932
 Mn143 Mn 0.49980 0.57719 -0.00098
 Cl144 Cl 0.49980 0.49968 -0.00097
 C145 C 0.56783 0.59003 0.14042
 C146 C 0.43167 0.58986 0.14035
 C147 C 0.30441 0.29721 0.36376
 C148 C 0.32259 0.31310 0.32479
 C149 C 0.34453 0.33233 0.28129
 C150 C 0.36378 0.34923 0.24601
 C151 C 0.38690 0.36958 0.20690
 C152 C 0.40709 0.38739 0.17545
 C153 C -0.19545 0.79818 0.36556
 C154 C -0.17730 0.81418 0.32665
 C155 C -0.15538 0.83351 0.28327
 C156 C -0.13613 0.85048 0.24812
 C157 C -0.11298 0.87085 0.20917
 C158 C -0.09275 0.88863 0.17782
 C159 C 0.69510 0.70200 0.36290
 C160 C 0.67692 0.68605 0.32412
 C161 C 0.65497 0.66677 0.28083
 C162 C 0.63572 0.64983 0.24572
 C163 C 0.61259 0.62948 0.20678
 C164 C 0.59240 0.61169 0.17542
 C165 C 0.19591 1.20234 0.36395
 C166 C 0.17775 1.18641 0.32511
 C167 C 0.15580 1.16715 0.28184
 C168 C 0.13652 1.15024 0.24680
 C169 C 0.11335 1.12992 0.20802
 C170 C 0.09309 1.11217 0.17684
 C171 C 0.69508 0.29783 -0.36564
 C172 C 0.67690 0.31371 -0.32675
 C173 C 0.65497 0.33289 -0.28330
 C174 C 0.63574 0.34976 -0.24804
 C175 C 0.61265 0.37004 -0.20893
 C176 C 0.59248 0.38780 -0.17745
 C177 C 0.19542 0.79808 -0.36194
 C178 C 0.17730 0.81405 -0.32305
 C179 C 0.15539 0.83334 -0.27972
 C180 C 0.13614 0.85029 -0.24464
 C181 C 0.11300 0.87064 -0.20581
 C182 C 0.09278 0.88842 -0.17458
 C183 C 0.30473 0.70197 -0.36559
 C184 C 0.32290 0.68602 -0.32673
 C185 C 0.34481 0.66676 -0.28333
 C186 C 0.36403 0.64985 -0.24810
 C187 C 0.38711 0.62951 -0.20903
 C188 C 0.40727 0.61173 -0.17756
 C189 C -0.19538 1.20227 -0.36205
 C190 C -0.17723 1.18639 -0.32314
 C191 C -0.15529 1.16719 -0.27979
 C192 C -0.13602 1.15031 -0.24469
 C193 C -0.11286 1.13002 -0.20584
 C194 C -0.09262 1.11228 -0.17462
 C195 C 0.69521 0.70184 -0.36543
 C196 C 0.67709 0.68591 -0.32641
 C197 C 0.65520 0.66670 -0.28285
 C198 C 0.63596 0.64982 -0.24754
 C199 C 0.61284 0.62953 -0.20845
 C200 C 0.59263 0.61177 -0.17704
 C201 C 0.19478 1.20176 -0.36679
 C202 C 0.17669 1.18601 -0.32749
 C203 C 0.15488 1.16699 -0.28348
 C204 C 0.13574 1.15026 -0.24772
 C205 C 0.11275 1.13009 -0.20804
 C206 C 0.09266 1.11239 -0.17615
 C207 C 0.30514 0.29810 -0.36697
 C208 C 0.32320 0.31392 -0.32780
 C209 C 0.34500 0.33301 -0.28401
 C210 C 0.36414 0.34979 -0.24848
 C211 C 0.38716 0.37001 -0.20913
 C212 C 0.40729 0.38773 -0.17752
 C213 C -0.19449 0.79861 -0.36520
 C214 C -0.17643 0.81441 -0.32599
 C215 C -0.15465 0.83350 -0.28211
 C216 C -0.13553 0.85029 -0.24648
 C217 C -0.11255 0.87052 -0.20698
 C218 C -0.09247 0.88827 -0.17525
 C219 C 0.30519 0.70135 0.36516
 C220 C 0.32320 0.68550 0.32590
 C221 C 0.34495 0.66635 0.28204
 C222 C 0.36406 0.64952 0.24648
 C223 C 0.38705 0.62926 0.20711
 C224 C 0.40717 0.61152 0.17550
 C225 C -0.19498 1.20214 0.36626
 C226 C -0.17679 1.18632 0.32734
 C227 C -0.15486 1.16721 0.28382
 C228 C -0.13563 1.15043 0.24848
 C229 C -0.11254 1.13022 0.20928
 C230 C -0.09237 1.11250 0.17776
 C231 C 0.69456 0.29838 0.36508
 C232 C 0.67651 0.31413 0.32583
 C233 C 0.65471 0.33316 0.28199
 C234 C 0.63555 0.34991 0.24644
 C235 C 0.61251 0.37008 0.20709
 C236 C 0.59237 0.38777 0.17551
 C237 C 0.19499 0.79817 0.36640
 C238 C 0.17684 0.81408 0.32749
 C239 C 0.15496 0.83328 0.28397
 C240 C 0.13576 0.85015 0.24864
 C241 C 0.11271 0.87045 0.20944
 C242 C 0.09258 0.88823 0.17790
   
