data_POSCAR
  _audit_creation_date              2014-09-24
  _audit_creation_method            'ToBaCCo'
  _symmetry_space_group_name_H-M    'P1'
  _symmetry_Int_Tables_number       1
  _symmetry_cell_setting            triclinic
  loop_
  _symmetry_equiv_pos_as_xyz
 x,y,z
_cell_length_a 41.8984
_cell_length_b 41.2256
_cell_length_c 41.6028
_cell_angle_alpha 89.130500
_cell_angle_beta 89.503600
_cell_angle_gamma 90.050500
loop_
  _atom_site_label
  _atom_site_type_symbol
  _atom_site_fract_x
  _atom_site_fract_y
  _atom_site_fract_z
Si1 Si 0.74651 0.61846 1.00721
 Si2 Si 0.76204 0.36262 0.49828
 Si3 Si 0.24853 -0.12296 -0.01764
 Si4 Si 0.26512 0.12254 0.48944
 Si5 Si 0.11758 0.50490 0.25875
 Si6 Si -0.12769 -0.01211 0.25292
 Si7 Si 0.37698 0.49968 0.75369
 Si8 Si 0.64301 1.00484 0.76299
 Si9 Si 0.00390 0.26645 -0.12271
 Si10 Si 0.49592 0.24001 0.11952
 Si11 Si 1.00020 0.75697 0.63321
 Si12 Si 0.50062 0.74330 0.37604
 C13 C 0.41159 -0.05306 0.27190
 H14 H 0.41647 -0.03017 0.28324
 C15 C 0.42620 -0.08144 0.28317
 H16 H 0.44234 -0.08013 0.30330
 C17 C 0.38338 -0.08267 0.23287
 H18 H 0.36622 -0.08321 0.21367
 C19 C 0.39743 -0.11157 0.24335
 H20 H 0.39141 -0.13384 0.23137
 N21 N 0.39040 -0.05422 0.24738
 C22 C 0.38154 0.04454 0.21053
 H23 H 0.35587 0.04666 0.21260
 C24 C 0.39944 0.07046 0.19843
 H25 H 0.38734 0.09253 0.19110
 C26 C 0.42825 0.01282 0.21729
 H27 H 0.43922 -0.00981 0.22456
 C28 C 0.44714 0.03811 0.20469
 H29 H 0.47273 0.03494 0.20276
 Zn30 Zn 0.36812 -0.01596 0.23587
 N31 N 0.39609 0.01667 0.22017
 C32 C 0.35610 0.02759 0.28575
 N33 N 0.34643 -0.00095 0.27309
 C34 C 0.32338 -0.01926 0.28787
 C35 C 0.30843 -0.00844 0.31601
 C36 C 0.34202 0.03917 0.31372
 C37 C 0.35474 -0.03086 0.17332
 C38 C 0.33694 -0.03844 0.14637
 C39 C 0.28879 -0.03227 0.17807
 C40 C 0.30762 -0.02439 0.20448
 N41 N 0.34000 -0.02463 0.20178
 H42 H 0.37528 0.04127 0.27462
 H43 H 0.31683 -0.04243 0.27798
 H44 H 0.29045 -0.02354 0.32758
 H45 H 0.35018 0.06205 0.32312
 H46 H 0.38053 -0.03048 0.17179
 H47 H 0.34931 -0.04421 0.12421
 H48 H 0.26307 -0.03239 0.18069
 H49 H 0.29633 -0.01849 0.22708
 C50 C 0.43264 0.06744 0.19530
 C51 C 0.41862 -0.11134 0.26935
 C52 C 0.30356 -0.03990 0.14865
 C53 C 0.31776 0.02125 0.32926
 C54 C 0.07449 1.05700 0.77271
 H55 H 0.06615 1.03417 0.78282
 C56 C 0.06215 1.08626 0.78423
 H57 H 0.04413 1.08578 0.80305
 C58 C 0.10987 1.08564 0.73775
 H59 H 0.12920 1.08551 0.72043
 C60 C 0.09865 1.11528 0.74894
 H61 H 0.10907 1.13759 0.73961
 N62 N 0.09820 1.05722 0.75012
 C63 C 0.10944 0.95798 0.71503
 H64 H 0.13522 0.95745 0.71611
 C65 C 0.09291 0.93099 0.70426
 H66 H 0.10624 0.90984 0.69685
 C67 C 0.06107 0.98653 0.72327
 H68 H 0.04885 1.00827 0.73072
 C69 C 0.04349 0.96003 0.71220
 H70 H 0.01772 0.96154 0.71163
 Zn71 Zn 0.12030 1.01840 0.73979
 N72 N 0.09346 0.98482 0.72482
 C73 C 0.13490 0.97380 0.78978
 N74 N 0.14152 1.00384 0.77752
 C75 C 0.16235 1.02391 0.79239
 C76 C 0.17830 1.01350 0.82014
 C77 C 0.15039 0.96238 0.81719
 C78 C 0.13686 1.03493 0.67708
 C79 C 0.15639 1.04335 0.65096
 C80 C 0.20246 1.03533 0.68470
 C81 C 0.18199 1.02671 0.71016
 N82 N 0.14981 1.02742 0.70609
 H83 H 0.11746 0.95854 0.77852
 H84 H 0.16680 1.04794 0.78251
 H85 H 0.19537 1.02953 0.83111
 H86 H 0.14482 0.93828 0.82634
 H87 H 0.11119 1.03497 0.67447
 H88 H 0.14552 1.05009 0.62831
 H89 H 0.22798 1.03497 0.68845
 H90 H 0.19185 1.01991 0.73319
 C91 C 0.05951 0.93168 0.70270
 C92 C 0.07505 1.11581 0.77301
 C93 C 0.18962 1.04433 0.65474
 C94 C 0.17251 0.98219 0.83272
 C95 C 0.57558 0.51199 0.30273
 H96 H 0.57253 0.48734 0.31152
 C97 C 0.56125 0.53768 0.31905
 H98 H 0.54659 0.53231 0.33999
 C99 C 0.59844 0.54865 0.26464
 H100 H 0.61358 0.55310 0.24392
 C101 C 0.58462 0.57491 0.28011
 H102 H 0.58919 0.59916 0.27078
 N103 N 0.59382 0.51792 0.27609
 C104 C 0.60351 0.42783 0.22395
 H105 H 0.62921 0.42862 0.22129
 C106 C 0.58642 0.40235 0.21100
 H107 H 0.59914 0.38361 0.19819
 C108 C 0.55590 0.45180 0.24363
 H109 H 0.54427 0.47128 0.25628
 C110 C 0.53766 0.42689 0.23039
 H111 H 0.51195 0.42710 0.23324
 Zn112 Zn 0.61599 0.48372 0.25595
 N113 N 0.58825 0.45155 0.24037
 C114 C 0.63744 0.43310 0.29562
 N115 N 0.64387 0.46426 0.28648
 C116 C 0.66748 0.48139 0.30082
 C117 C 0.68607 0.46682 0.32495
 C118 C 0.65548 0.41764 0.31914
 C119 C 0.61625 0.50858 0.19518
 C120 C 0.62705 0.52320 0.16683
 C121 C 0.68081 0.52076 0.18727
 C122 C 0.66889 0.50579 0.21543
 N123 N 0.63696 0.50072 0.21899
 H124 H 0.61761 0.42024 0.28547
 H125 H 0.67152 0.50648 0.29394
 H126 H 0.70468 0.48068 0.33632
 H127 H 0.64925 0.39308 0.32632
 H128 H 0.59102 0.50396 0.19854
 H129 H 0.60989 0.52888 0.14830
 H130 H 0.70615 0.52556 0.18498
 H131 H 0.68497 0.49900 0.23455
 C132 C 0.55311 0.40167 0.21405
 C133 C 0.56610 0.56977 0.30797
 C134 C 0.65959 0.53038 0.16287
 C135 C 0.68029 0.43437 0.33407
 C136 C 0.90513 0.47446 0.78451
 H137 H 0.90624 0.49684 0.79769
 C138 C 0.92305 0.44765 0.79478
 H139 H 0.93830 0.44989 0.81551
 C140 C 0.88255 0.44370 0.74283
 H141 H 0.86596 0.44164 0.72328
 C142 C 0.90011 0.41646 0.75213
 H143 H 0.89647 0.39404 0.73949
 N144 N 0.88506 0.47199 0.75910
 C145 C 0.86102 0.56702 0.71845
 H146 H 0.83717 0.56064 0.71112
 C147 C 0.87356 0.59704 0.70926
 H148 H 0.85908 0.61309 0.69466
 C149 C 0.90919 0.55253 0.74424
 H150 H 0.92309 0.53505 0.75767
 C151 C 0.92279 0.58254 0.73549
 H152 H 0.94707 0.58785 0.74240
 Zn153 Zn 0.85675 0.50653 0.74756
 N154 N 0.87857 0.54558 0.73601
 C155 C 0.80763 0.54044 0.77893
 N156 N 0.82863 0.51552 0.78241
 C157 C 0.83128 0.49920 0.81094
 C158 C 0.81395 0.50919 0.83787
 C159 C 0.78977 0.55115 0.80515
 C160 C 0.85057 0.49248 0.68322
 C161 C 0.83652 0.48096 0.65545
 C162 C 0.78705 0.47369 0.68504
 C163 C 0.80218 0.48535 0.71245
 N164 N 0.83354 0.49389 0.71109
 H165 H 0.80550 0.55286 0.75605
 H166 H 0.84752 0.47902 0.81323
 H167 H 0.81724 0.49661 0.86064
 H168 H 0.77466 0.57219 0.80198
 H169 H 0.87547 0.49946 0.68290
 H170 H 0.85081 0.47930 0.63372
 H171 H 0.76251 0.46563 0.68690
 H172 H 0.78922 0.48654 0.73499
 C173 C 0.90468 0.60548 0.71821
 C174 C 0.92051 0.41805 0.77864
 C175 C 0.80451 0.47088 0.65618
 C176 C 0.79334 0.53592 0.83536
 C177 C 0.29255 0.42776 -0.01708
 H178 H 0.30012 0.43185 0.00732
 C179 C 0.30941 0.44195 -0.04283
 H180 H 0.32946 0.45759 -0.03785
 C181 C 0.25751 0.40189 -0.05300
 H182 H 0.23809 0.38529 -0.05709
 C183 C 0.27352 0.41569 -0.07938
 H184 H 0.26580 0.40987 -0.10339
 N185 N 0.26718 0.40807 -0.02256
 C186 C 0.21757 0.39833 0.06981
 H187 H 0.21581 0.37214 0.07014
 C188 C 0.20623 0.41584 0.09584
 H189 H 0.19532 0.40298 0.11602
 C190 C 0.23406 0.44670 0.04293
 H191 H 0.24508 0.45850 0.02228
 C192 C 0.22234 0.46534 0.06834
 H193 H 0.22451 0.49150 0.06714
 Zn194 Zn 0.24818 0.38557 0.01281
 N195 N 0.23181 0.41377 0.04440
 C196 C 0.29008 0.36626 0.06181
 N197 N 0.28033 0.35941 0.03157
 C198 C 0.29494 0.33598 0.01406
 C199 C 0.32001 0.31789 0.02729
 C200 C 0.31466 0.34867 0.07598
 C201 C 0.18949 0.37756 -0.01572
 C202 C 0.16298 0.36157 -0.02776
 C203 C 0.18446 0.31092 -0.00752
 C204 C 0.21111 0.32787 0.00349
 N205 N 0.21326 0.36055 -0.00122
 H206 H 0.27948 0.38598 0.07485
 H207 H 0.28731 0.33159 -0.01027
 H208 H 0.33149 0.29932 0.01315
 H209 H 0.32233 0.35509 0.09984
 H210 H 0.19154 0.40362 -0.01851
 H211 H 0.14460 0.37543 -0.03992
 H212 H 0.18311 0.28486 -0.00410
 H213 H 0.22997 0.31495 0.01577
 C214 C 0.20857 0.44974 0.09538
 C215 C 0.30022 0.43553 -0.07455
 C216 C 0.16029 0.32788 -0.02378
 C217 C 0.32985 0.32399 0.05879
 C218 C 0.79077 0.09265 1.04655
 H219 H 0.80315 0.08763 1.02425
 C220 C 0.79962 0.07654 1.07495
 H221 H 0.81881 0.05898 1.07420
 C222 C 0.75204 0.12303 1.07493
 H223 H 0.73425 0.14194 1.07520
 C224 C 0.76003 0.10751 1.10373
 H225 H 0.74725 0.11395 1.12542
 N226 N 0.76759 0.11568 1.04712
 C227 C 0.74693 0.13723 0.94679
 H228 H 0.75280 0.16273 0.94815
 C229 C 0.73573 0.12476 0.91822
 H230 H 0.73390 0.14083 0.89750
 C231 C 0.74238 0.08577 0.97263
 H232 H 0.74440 0.07102 0.99424
 C233 C 0.73053 0.07224 0.94433
 H234 H 0.72349 0.04696 0.94427
 Zn235 Zn 0.76011 0.14180 1.01015
 N236 N 0.74968 0.11793 0.97334
 C237 C 0.81779 0.15299 0.97837
 N238 N 0.79801 0.16568 1.00103
 C239 C 0.80598 0.19324 1.01671
 C240 C 0.83335 0.21073 1.00757
 C241 C 0.84569 0.16913 0.96915
 C242 C 0.69674 0.14999 1.02308
 C243 C 0.66812 0.16493 1.03131
 C244 C 0.69448 0.21691 1.02637
 C245 C 0.72272 0.20086 1.01796
 N246 N 0.72360 0.16787 1.01774
 H247 H 0.81181 0.13032 0.96718
 H248 H 0.79100 0.20189 1.03604
 H249 H 0.83892 0.23322 1.01941
 H250 H 0.86060 0.15907 0.95040
 H251 H 0.69792 0.12381 1.02202
 H252 H 0.64748 0.14995 1.03678
 H253 H 0.69435 0.24314 1.02699
 H254 H 0.74376 0.21485 1.01192
 C255 C 0.72615 0.09218 0.91697
 C256 C 0.78474 0.08454 1.10421
 C257 C 0.66690 0.19876 1.03405
 C258 C 0.85327 0.19881 0.98313
 C259 C 0.29045 0.58260 0.53391
 H260 H 0.30293 0.58565 0.51126
 C261 C 0.30402 0.56339 0.55808
 H262 H 0.32660 0.55161 0.55332
 C263 C 0.24814 0.59752 0.56872
 H264 H 0.22695 0.61160 0.57330
 C265 C 0.26097 0.57870 0.59363
 H266 H 0.24912 0.57819 0.61687
 N267 N 0.26295 0.59920 0.53949
 C268 C 0.20576 0.61487 0.45681
 H269 H 0.19150 0.63371 0.46750
 C270 C 0.19505 0.60018 0.42891
 H271 H 0.17239 0.60768 0.41894
 C272 C 0.25307 0.58362 0.45575
 H273 H 0.27588 0.57748 0.46591
 C274 C 0.24327 0.56826 0.42774
 H275 H 0.25848 0.54988 0.41747
 Zn276 Zn 0.24848 0.62867 0.50705
 N277 N 0.23423 0.60630 0.46991
 C278 C 0.28666 0.66458 0.46365
 N279 N 0.28333 0.65534 0.49496
 C280 C 0.30591 0.66260 0.51701
 C281 C 0.33396 0.67861 0.50754
 C282 C 0.31414 0.68081 0.45318
 C283 C 0.18688 0.63924 0.53194
 C284 C 0.16138 0.65691 0.54440
 C285 C 0.19321 0.70561 0.53912
 C286 C 0.21816 0.68695 0.52665
 N287 N 0.21465 0.65434 0.52355
 H288 H 0.26834 0.65857 0.44659
 H289 H 0.30270 0.65482 0.54178
 H290 H 0.35216 0.68251 0.52532
 H291 H 0.31650 0.68730 0.42796
 H292 H 0.18463 0.61331 0.52902
 H293 H 0.13967 0.64423 0.55127
 H294 H 0.19647 0.73154 0.54101
 H295 H 0.24033 0.69852 0.51951
 C296 C 0.21389 0.57660 0.41382
 C297 C 0.28937 0.56144 0.58855
 C298 C 0.16439 0.69052 0.54850
 C299 C 0.33864 0.68749 0.47504
 C300 C 0.78142 0.91830 0.47960
 H301 H 0.78784 0.92311 0.50409
 C302 C 0.79643 0.93568 0.45466
 H303 H 0.81368 0.95420 0.46048
 C304 C 0.75223 0.88767 0.44217
 H305 H 0.73595 0.86812 0.43716
 C306 C 0.76648 0.90463 0.41652
 H307 H 0.76068 0.89808 0.39215
 N308 N 0.76008 0.89443 0.47306
 C309 C 0.69505 0.88905 0.54906
 H310 H 0.67993 0.87295 0.53590
 C311 C 0.68200 0.90568 0.57488
 H312 H 0.65702 0.90207 0.58072
 C313 C 0.74620 0.91061 0.55957
 H314 H 0.77149 0.91132 0.55444
 C315 C 0.73409 0.92766 0.58583
 H316 H 0.75005 0.94221 0.60004
 Zn317 Zn 0.74378 0.86735 0.50703
 N318 N 0.72652 0.89224 0.54132
 C319 C 0.77254 0.82667 0.55279
 N320 N 0.77764 0.84263 0.52440
 C321 C 0.80718 0.84406 0.51064
 C322 C 0.83339 0.83050 0.52640
 C323 C 0.79807 0.81275 0.56938
 C324 C 0.68580 0.85557 0.47687
 C325 C 0.66028 0.83778 0.46513
 C326 C 0.68793 0.78847 0.48003
 C327 C 0.71285 0.80732 0.49205
 N328 N 0.71123 0.84028 0.49042
 H329 H 0.74878 0.82590 0.56318
 H330 H 0.81071 0.85672 0.48795
 H331 H 0.85688 0.83299 0.51559
 H332 H 0.79339 0.80049 0.59211
 H333 H 0.68524 0.88179 0.47558
 H334 H 0.64025 0.85051 0.45456
 H335 H 0.68940 0.76228 0.48174
 H336 H 0.73336 0.79566 0.50275
 C337 C 0.70146 0.92566 0.59345
 C338 C 0.78954 0.92838 0.42259
 C339 C 0.66113 0.80380 0.46653
 C340 C 0.82922 0.81554 0.55670
 C341 C -0.01856 0.28024 0.40847
 H342 H 0.00519 0.29053 0.40877
 C343 C -0.04367 0.29621 0.42378
 H344 H -0.03880 0.31835 0.43651
 C345 C -0.05386 0.23961 0.39035
 H346 H -0.05797 0.21811 0.37646
 C347 C -0.07964 0.25465 0.40562
 H348 H -0.10332 0.24441 0.40348
 N349 N -0.02412 0.25287 0.39155
 C350 C 0.06709 0.20366 0.37581
 H351 H 0.06461 0.19811 0.35064
 C352 C 0.09391 0.19282 0.39243
 H353 H 0.11212 0.17927 0.37978
 C354 C 0.04577 0.22682 0.42310
 H355 H 0.02697 0.24004 0.43501
 C356 C 0.07199 0.21589 0.44083
 H357 H 0.07323 0.22116 0.46620
 Zn358 Zn 0.00960 0.23651 0.36554
 N359 N 0.04406 0.22105 0.39102
 C360 C 0.05383 0.26997 0.32473
 N361 N 0.02401 0.27085 0.33787
 C362 C 0.00473 0.29701 0.33314
 C363 C 0.01585 0.32427 0.31611
 C364 C 0.06587 0.29662 0.30747
 C365 C -0.01234 0.17339 0.35674
 C366 C -0.02539 0.14741 0.34025
 C367 C -0.02372 0.17997 0.29146
 C368 C -0.01057 0.20534 0.30892
 N369 N -0.00570 0.20176 0.34104
 H370 H 0.06887 0.24910 0.32844
 H371 H -0.01915 0.29710 0.34315
 H372 H 0.00043 0.34518 0.31340
 H373 H 0.09027 0.29575 0.29881
 H374 H -0.00807 0.17124 0.38230
 H375 H -0.03125 0.12532 0.35342
 H376 H -0.02747 0.18337 0.26593
 H377 H -0.00483 0.22809 0.29694
 C378 C 0.09665 0.19894 0.42534
 C379 C -0.07485 0.28388 0.42171
 C380 C -0.03187 0.15068 0.30728
 C381 C 0.04700 0.32452 0.30341
 C382 C 1.02819 0.78872 0.06193
 H383 H 1.00457 0.79929 0.06134
 C384 C 1.05258 0.80190 0.04274
 H385 H 1.04737 0.82286 0.02774
 C386 C 1.06385 0.75018 0.08439
 H387 H 1.06839 0.73062 0.10128
 C388 C 1.08892 0.76258 0.06565
 H389 H 1.11246 0.75203 0.06807
 N390 N 1.03422 0.76342 0.08229
 C391 C 0.94255 0.71906 0.10619
 H392 H 0.94404 0.71935 0.13214
 C393 C 0.91603 0.70540 0.09160
 H394 H 0.89718 0.69512 0.10654
 C395 C 0.96577 0.73166 0.05537
 H396 H 0.98532 0.74176 0.04139
 C397 C 0.93974 0.71796 0.03972
 H398 H 0.93931 0.71825 0.01372
 Zn399 Zn 1.00122 0.74983 0.11062
 N400 N 0.96651 0.73222 0.08804
 C401 C 0.95686 0.79530 0.13483
 N402 N 0.98810 0.78649 0.13402
 C403 C 1.01074 0.80405 0.14932
 C404 C 1.00215 0.83140 0.16685
 C405 C 0.94720 0.82214 0.15236
 C406 C 1.02397 0.68814 0.12598
 C407 C 1.03497 0.66286 0.14555
 C408 C 1.02835 0.69730 0.19162
 C409 C 1.01742 0.72193 0.17113
 N410 N 1.01599 0.71712 0.13891
 H411 H 0.93929 0.78166 0.12189
 H412 H 1.03548 0.79666 0.14798
 H413 H 1.02039 0.84479 0.17929
 H414 H 0.92218 0.82871 0.15279
 H415 H 1.02202 0.68483 0.10032
 H416 H 1.04180 0.64017 0.13467
 H417 H 1.02906 0.70161 0.21719
 H418 H 1.01002 0.74481 0.18105
 C419 C 0.91441 0.70461 0.05795
 C420 C 1.08357 0.78896 0.04464
 C421 C 1.03773 0.66740 0.17880
 C422 C 0.96994 0.84058 0.16861
 C423 C 0.53926 0.26644 0.57065
 H424 H 0.51814 0.25765 0.55883
 C425 C 0.56514 0.27787 0.55221
 H426 H 0.56369 0.27743 0.52626
 C427 C 0.56702 0.27706 0.61872
 H428 H 0.56759 0.27659 0.64472
 C429 C 0.59349 0.28833 0.60128
 H430 H 0.61421 0.29682 0.61408
 N431 N 0.54067 0.26613 0.60332
 C432 C 0.47959 0.20455 0.58766
 H433 H 0.50307 0.19380 0.58934
 C434 C 0.45530 0.18827 0.57179
 H435 H 0.46067 0.16535 0.56064
 C436 C 0.44435 0.24746 0.60050
 H437 H 0.44014 0.27040 0.61200
 C438 C 0.41930 0.23198 0.58482
 H439 H 0.39591 0.24312 0.58460
 Zn440 Zn 0.50614 0.24945 0.62885
 N441 N 0.47355 0.23313 0.60233
 C442 C 0.46326 0.27661 0.67424
 N443 N 0.48916 0.28302 0.65521
 C444 C 0.50179 0.31344 0.65340
 C445 C 0.48853 0.33860 0.67124
 C446 C 0.44918 0.30105 0.69237
 C447 C 0.55137 0.20290 0.64977
 C448 C 0.56242 0.17549 0.66618
 C449 C 0.51065 0.16960 0.69138
 C450 C 0.50054 0.19723 0.67437
 N451 N 0.52097 0.21358 0.65426
 H452 H 0.45248 0.25286 0.67432
 H453 H 0.52173 0.31860 0.63757
 H454 H 0.49890 0.36262 0.66917
 H455 H 0.42786 0.29532 0.70616
 H456 H 0.56701 0.21490 0.63267
 H457 H 0.58664 0.16748 0.66174
 H458 H 0.49398 0.15752 0.70753
 H459 H 0.47611 0.20501 0.67676
 C460 C 0.42436 0.20144 0.57117
 C461 C 0.59278 0.28898 0.56756
 C462 C 0.54201 0.15822 0.68724
 C463 C 0.46181 0.33265 0.69109
 C464 C 0.47751 0.79341 0.91886
 H465 H 0.50155 0.80269 0.92073
 C466 C 0.45249 0.80916 0.93467
 H467 H 0.45788 0.82970 0.94956
 C468 C 0.44123 0.75650 0.89585
 H469 H 0.43658 0.73671 0.87987
 C470 C 0.41561 0.77139 0.91128
 H471 H 0.39168 0.76255 0.90707
 N472 N 0.47143 0.76804 0.89926
 C473 C 0.55440 0.70875 0.87958
 H474 H 0.54800 0.70287 0.85524
 C475 C 0.57881 0.69159 0.89460
 H476 H 0.59110 0.67266 0.88165
 C477 C 0.54624 0.74050 0.92594
 H478 H 0.53322 0.75923 0.93825
 C479 C 0.57119 0.72433 0.94169
 H480 H 0.57727 0.73077 0.96603
 Zn481 Zn 0.50417 0.75159 0.87202
 N482 N 0.53828 0.73237 0.89541
 C483 C 0.54785 0.78084 0.82877
 N484 N 0.52051 0.78588 0.84578
 C485 C 0.50600 0.81541 0.84561
 C486 C 0.51983 0.84169 0.82911
 C487 C 0.56240 0.80639 0.81178
 C488 C 0.47932 0.69034 0.86193
 C489 C 0.46648 0.66451 0.84518
 C490 C 0.46866 0.69734 0.79657
 C491 C 0.48183 0.72258 0.81429
 N492 N 0.48663 0.71866 0.84641
 H493 H 0.55894 0.75718 0.82919
 H494 H 0.48391 0.81885 0.85865
 H495 H 0.50831 0.86517 0.82987
 H496 H 0.58490 0.80203 0.79965
 H497 H 0.48346 0.68793 0.88749
 H498 H 0.46058 0.64229 0.85815
 H499 H 0.46514 0.70077 0.77101
 H500 H 0.48805 0.74529 0.80248
 C501 C 0.58730 0.69916 0.92609
 C502 C 0.42088 0.79878 0.93013
 C503 C 0.46070 0.66785 0.81214
 C504 C 0.54860 0.83747 0.81219
 C505 C 0.45349 -0.19717 0.31418
 C506 C 0.47133 -0.16837 0.31438
 N507 N 0.49913 -0.16744 0.33088
 C508 C 0.50951 -0.19382 0.34780
 C509 C 0.49107 -0.22229 0.34858
 N510 N 0.46364 -0.22334 0.33139
 N511 N 0.42546 -0.19799 0.29818
 C512 C 0.41420 -0.17120 0.28259
 C513 C 0.43161 -0.14193 0.28326
 N514 N 0.45994 -0.14147 0.29917
 H515 H 0.53153 -0.19223 0.36104
 H516 H 0.39126 -0.17258 0.27100
 C517 C 0.96507 0.33282 0.81534
 C518 C 0.95691 0.35852 0.83559
 N519 N 0.96261 0.35588 0.86757
 C520 C 0.97608 0.32865 0.88025
 C521 C 0.98405 0.30281 0.86014
 N522 N 0.97850 0.30550 0.82802
 N523 N 0.95960 0.33571 0.78333
 C524 C 0.94596 0.36294 0.77067
 C525 C 0.93716 0.38861 0.79096
 N526 N 0.94321 0.38564 0.82300
 H527 H 0.98070 0.32725 0.90579
 H528 H 0.94228 0.36450 0.74500
 C529 C 0.05134 1.20218 0.82160
 C530 C 0.02721 1.18109 0.81145
 N531 N -0.00375 1.18800 0.81853
 C532 C -0.01157 1.21466 0.83586
 C533 C 0.01269 1.23486 0.84727
 N534 N 0.04360 1.22821 0.83965
 N535 N 0.08226 1.19552 0.81443
 C536 C 0.09026 1.16854 0.79784
 C537 C 0.06633 1.14670 0.78851
 N538 N 0.03523 1.15362 0.79556
 H539 H -0.03632 1.21919 0.84194
 H540 H 0.11519 1.16359 0.79299
 C541 C 0.53124 0.65261 0.35637
 C542 C 0.53765 0.65367 0.32325
 N543 N 0.53330 0.68180 0.30643
 C544 C 0.52274 0.70898 0.32131
 C545 C 0.51639 0.70792 0.35446
 N546 N 0.52079 0.67971 0.37121
 N547 N 0.53564 0.62452 0.37316
 C548 C 0.54621 0.59733 0.35835
 C549 C 0.55280 0.59819 0.32507
 N550 N 0.54832 0.62660 0.30848
 H551 H 0.51927 0.73106 0.30739
 H552 H 0.55019 0.57567 0.37272
 C553 C 0.50773 0.32507 0.16593
 C554 C 0.53556 0.31967 0.18374
 N555 N 0.54959 0.29001 0.18364
 C556 C 0.53736 0.26558 0.16597
 C557 C 0.51036 0.27132 0.14706
 N558 N 0.49590 0.30086 0.14773
 N559 N 0.49379 0.35481 0.16612
 C560 C 0.50680 0.37961 0.18285
 C561 C 0.53545 0.37462 0.19958
 N562 N 0.54888 0.34454 0.19976
 H563 H 0.54916 0.24224 0.16589
 H564 H 0.49570 0.40329 0.18182
 C565 C 0.01403 0.84857 0.66522
 C566 C 0.04152 0.84565 0.68403
 N567 N 0.05482 0.81597 0.68895
 C568 C 0.04213 0.78907 0.67544
 C569 C 0.01527 0.79208 0.65576
 N570 N 0.00166 0.82179 0.65129
 N571 N 0.00087 0.87830 0.66022
 C572 C 0.01416 0.90536 0.67288
 C573 C 0.04229 0.90271 0.69103
 N574 N 0.05507 0.87268 0.69620
 H575 H 0.05342 0.76574 0.67928
 H576 H 0.00352 0.92875 0.66777
 C577 C 0.94312 0.69457 0.68326
 C578 C 0.96318 0.66813 0.69001
 N579 N 0.99479 0.67039 0.68276
 C580 C 1.00704 0.69757 0.66830
 C581 C 0.98667 0.72342 0.66021
 N582 N 0.95521 0.72135 0.66823
 N583 N 0.91155 0.69242 0.69031
 C584 C 0.89886 0.66467 0.70297
 C585 C 0.91848 0.63734 0.70818
 N586 N 0.95043 0.64012 0.70212
 H587 H 1.03215 0.69842 0.66203
 H588 H 0.87360 0.66399 0.70849
 C589 C 0.48056 0.14803 0.15312
 C590 C 0.45560 0.15220 0.17539
 N591 N 0.44509 0.18247 0.18207
 C592 C 0.45794 0.20885 0.16692
 C593 C 0.48194 0.20473 0.14363
 N594 N 0.49305 0.17439 0.13750
 N595 N 0.49091 0.11760 0.14653
 C596 C 0.47705 0.09111 0.16082
 C597 C 0.45121 0.09522 0.18222
 N598 N 0.44142 0.12584 0.18908
 H599 H 0.44894 0.23274 0.17245
 H600 H 0.48523 0.06714 0.15449
 C601 C 0.35257 0.46897 -0.15630
 C602 C 0.31951 0.46400 -0.15785
 N603 N 0.30415 0.46950 -0.18604
 C604 C 0.32040 0.47986 -0.21275
 C605 C 0.35350 0.48476 -0.21122
 N606 N 0.36878 0.47908 -0.18298
 N607 N 0.36794 0.46362 -0.12815
 C608 C 0.35175 0.45349 -0.10136
 C609 C 0.31855 0.44829 -0.10271
 N610 N 0.30336 0.45364 -0.13119
 H611 H 0.30761 0.48407 -0.23489
 H612 H 0.36493 0.44876 -0.07955
 C613 C 0.84302 0.96564 0.34347
 C614 C 0.81032 0.95920 0.34043
 N615 N 0.79622 0.96333 0.31134
 C616 C 0.81349 0.97327 0.28508
 C617 C 0.84636 0.97885 0.28803
 N618 N 0.86027 0.97493 0.31722
 N619 N 0.85727 0.96145 0.37236
 C620 C 0.84038 0.95076 0.39845
 C621 C 0.80770 0.94344 0.39550
 N622 N 0.79350 0.94795 0.36636
 H623 H 0.80189 0.97585 0.26205
 H624 H 0.85274 0.94680 0.42088
 C625 C 0.82102 0.04406 1.19092
 C626 C 0.82276 0.02701 1.16200
 N627 N 0.83763 -0.00217 1.16135
 C628 C 0.85126 -0.01491 1.18822
 C629 C 0.85020 0.00241 1.21706
 N630 N 0.83486 0.03147 1.21776
 N631 N 0.80665 0.07351 1.19135
 C632 C 0.79405 0.08679 1.16417
 C633 C 0.79605 0.06996 1.13493
 N634 N 0.81045 0.04034 1.13480
 H635 H 0.86336 -0.03796 1.18667
 H636 H 0.78365 0.11073 1.16534
 C637 C 0.33700 0.51538 0.66626
 C638 C 0.31651 0.54172 0.67142
 N639 N 0.31330 0.55388 0.70143
 C640 C 0.33004 0.54112 0.72647
 C641 C 0.35106 0.51525 0.72118
 N642 N 0.35386 0.50281 0.69120
 N643 N 0.34046 0.50345 0.63622
 C644 C 0.32478 0.51703 0.61090
 C645 C 0.30485 0.54408 0.61573
 N646 N 0.30100 0.55542 0.64614
 H647 H 0.32747 0.55147 0.75010
 H648 H 0.32797 0.50681 0.58731
 C649 C 0.17880 0.53423 0.32848
 C650 C 0.15812 0.54763 0.35142
 N651 N 0.12624 0.54777 0.34622
 C652 C 0.11400 0.53504 0.31908
 C653 C 0.13451 0.52160 0.29602
 N654 N 0.16659 0.52153 0.30118
 N655 N 0.21073 0.53451 0.33379
 C656 C 0.22291 0.54754 0.36099
 C657 C 0.20219 0.56108 0.38409
 N658 N 0.17023 0.56068 0.37840
 H659 H 0.08852 0.53598 0.31537
 H660 H 0.24850 0.54792 0.36400
 C661 C 0.67919 0.05911 0.83382
 C662 C 0.69840 0.03779 0.85174
 N663 N 0.70155 0.00652 0.84214
 C664 C 0.68626 -0.00425 0.81547
 C665 C 0.66715 0.01728 0.79766
 N666 N 0.66409 0.04837 0.80745
 N667 N 0.67529 0.09008 0.84335
 C668 C 0.69001 0.10103 0.86994
 C669 C 0.70984 0.08013 0.88796
 N670 N 0.71329 0.04870 0.87850
 H671 H 0.68866 -0.02932 0.80850
 H672 H 0.68570 0.12575 0.87715
 C673 C 0.66087 0.97188 0.67419
 C674 C 0.69294 0.96222 0.67450
 N675 N 0.71042 0.96655 0.70154
 C676 C 0.69707 0.97981 0.72833
 C677 C 0.66477 0.98871 0.72803
 N678 N 0.64761 0.98465 0.70087
 N679 N 0.64325 0.96794 0.64740
 C680 C 0.65602 0.95409 0.62089
 C681 C 0.68787 0.94319 0.62123
 N682 N 0.70574 0.94801 0.64805
 H683 H 0.71132 0.98287 0.74962
 H684 H 0.64133 0.95164 0.59982
 C685 C 0.16462 0.49640 0.17388
 C686 C 0.18393 0.46905 0.17881
 N687 N 0.18608 0.45557 0.20872
 C688 C 0.16892 0.46762 0.23376
 C689 C 0.14801 0.49364 0.22839
 N690 N 0.14682 0.50779 0.19865
 N691 N 0.16226 0.50972 0.14395
 C692 C 0.17777 0.49644 0.11847
 C693 C 0.19578 0.46799 0.12298
 N694 N 0.19866 0.45526 0.15327
 H695 H 0.17026 0.45589 0.25716
 H696 H 0.17465 0.50700 0.09473
 C697 C -0.15442 0.33675 0.45631
 C698 C -0.15404 0.30277 0.45854
 N699 N -0.17940 0.28693 0.47210
 C700 C -0.20496 0.30362 0.48378
 C701 C -0.20513 0.33763 0.48175
 N702 N -0.17994 0.35328 0.46770
 N703 N -0.12908 0.35276 0.44324
 C704 C -0.10315 0.33638 0.43237
 C705 C -0.10247 0.30226 0.43448
 N706 N -0.12823 0.28626 0.44736
 H707 H -0.22474 0.29051 0.49468
 H708 H -0.08358 0.34990 0.42157
 C709 C 0.33951 0.85181 0.96007
 C710 C 0.33808 0.81806 0.95669
 N711 N 0.30986 0.80239 0.96146
 C712 C 0.28296 0.81902 0.96941
 C713 C 0.28432 0.85284 0.97245
 N714 N 0.31263 0.86841 0.96766
 N715 N 0.36762 0.86752 0.95516
 C716 C 0.39445 0.85106 0.94674
 C717 C 0.39313 0.81719 0.94274
 N718 N 0.36475 0.80163 0.94791
 H719 H 0.26074 0.80600 0.97287
 H720 H 0.41614 0.86459 0.94204
 C721 C 1.16167 0.83580 -0.00208
 C722 C 1.16604 0.81715 0.02601
 N723 N 1.19540 0.81541 0.03950
 C724 C 1.22054 0.83190 0.02635
 C725 C 1.21603 0.85116 -0.00132
 N726 N 1.18669 0.85249 -0.01503
 N727 N 1.13229 0.83767 -0.01542
 C728 C 1.10685 0.82219 -0.00162
 C729 C 1.11086 0.80422 0.02716
 N730 N 1.14065 0.80194 0.03993
 H731 H 1.24364 0.83055 0.03774
 H732 H 1.08385 0.82401 -0.01308
 C733 C 0.67311 0.32756 0.51715
 C734 C 0.67685 0.31010 0.54607
 N735 N 0.70642 0.30672 0.55883
 C736 C 0.73240 0.32047 0.54419
 C737 C 0.72855 0.33871 0.51576
 N738 N 0.69895 0.34170 0.50282
 N739 N 0.64353 0.33117 0.50454
 C740 C 0.61740 0.31831 0.51964
 C741 C 0.62085 0.30135 0.54906
 N742 N 0.65072 0.29766 0.56141
 H743 H 0.75562 0.31808 0.55516
 H744 H 0.59412 0.32231 0.50928
 C745 C 0.34639 0.14844 0.53416
 C746 C 0.34665 0.18243 0.53245
 N747 N 0.32171 0.19829 0.51862
 C748 C 0.29668 0.18160 0.50620
 C749 C 0.29669 0.14757 0.50768
 N750 N 0.32151 0.13189 0.52184
 N751 N 0.37119 0.13242 0.54776
 C752 C 0.39651 0.14880 0.55959
 C753 C 0.39724 0.18296 0.55775
 N754 N 0.37195 0.19894 0.54439
 H755 H 0.27728 0.19471 0.49499
 H756 H 0.41551 0.13518 0.57088
 C757 C 0.83410 0.65909 0.01686
 C758 C 0.83138 0.67601 0.04576
 N759 N 0.80291 0.67674 0.06157
 C760 C 0.77707 0.66093 0.04995
 C761 C 0.77995 0.64341 0.02145
 N762 N 0.80840 0.64300 0.00545
 N763 N 0.86264 0.65818 0.00123
 C764 C 0.88872 0.67326 0.01329
 C765 C 0.88628 0.68978 0.04261
 N766 N 0.85745 0.69071 0.05799
 H767 H 0.75473 0.66142 0.06318
 H768 H 0.91127 0.67141 0.00061
 C769 C 0.66201 0.64501 0.96832
 C770 C 0.66192 0.67902 0.96981
 N771 N 0.68710 0.69447 0.98318
 C772 C 0.71242 0.67745 0.99492
 C773 C 0.71249 0.64346 0.99328
 N774 N 0.68713 0.62810 0.98016
 N775 N 0.63740 0.62945 0.95425
 C776 C 0.61280 0.64636 0.94119
 C777 C 0.61267 0.68044 0.94229
 N778 N 0.63721 0.69600 0.95690
 H779 H 0.73229 0.69037 1.00512
 H780 H 0.59357 0.63335 0.92987
 C781 C 0.17754 0.16140 0.47362
 C782 C 0.18045 0.17530 0.44275
 N783 N 0.20931 0.17543 0.42760
 C784 C 0.23530 0.16174 0.44172
 C785 C 0.23214 0.14676 0.47208
 N786 N 0.20332 0.14715 0.48741
 N787 N 0.14872 0.16127 0.48878
 C788 C 0.12251 0.17414 0.47434
 C789 C 0.12506 0.18723 0.44298
 N790 N 0.15418 0.18754 0.42805
 H791 H 0.25790 0.16154 0.42893
 H792 H 0.09974 0.17308 0.48678
 C793 C 0.57896 0.07301 0.73218
 C794 C 0.59906 0.09790 0.72063
 N795 N 0.63114 0.09454 0.72258
 C796 C 0.64415 0.06726 0.73549
 C797 C 0.62423 0.04222 0.74700
 N798 N 0.59194 0.04555 0.74514
 N799 N 0.54684 0.07651 0.72959
 C800 C 0.53395 0.10369 0.71590
 C801 C 0.55414 0.12867 0.70408
 N802 N 0.58625 0.12482 0.70696
 H803 H 0.66987 0.06504 0.73655
 H804 H 0.50833 0.10517 0.71358
 C805 C 1.07903 0.59174 0.23444
 C806 C 1.06132 0.58493 0.20689
 N807 N 1.05896 0.55386 0.19678
 C808 C 1.07399 0.52932 0.21276
 C809 C 1.09240 0.53628 0.23979
 N810 N 1.09432 0.56734 0.25013
 N811 N 1.08190 0.62284 0.24418
 C812 C 1.06809 0.64760 0.22746
 C813 C 1.05080 0.64103 0.19938
 N814 N 1.04783 0.60964 0.18998
 H815 H 1.07238 0.50482 0.20392
 H816 H 1.07170 0.67216 0.23543
 C817 C 0.93584 0.92347 0.21682
 C818 C 0.91801 0.89464 0.21637
 N819 N 0.88831 0.89379 0.22955
 C820 C 0.87531 0.92070 0.24268
 C821 C 0.89265 0.94984 0.24230
 N822 N 0.92263 0.95059 0.22945
 N823 N 0.96536 0.92425 0.20308
 C824 C 0.97767 0.89763 0.18851
 C825 C 0.95936 0.86904 0.18708
 N826 N 0.93002 0.86837 0.20136
 H827 H 0.85118 0.91965 0.25212
 H828 H 1.00091 0.89926 0.17706
 C829 C 0.41498 0.41077 0.73730
 C830 C 0.43508 0.41625 0.71063
 N831 N 0.43860 0.44681 0.69847
 C832 C 0.42254 0.47211 0.71157
 C833 C 0.40183 0.46653 0.73773
 N834 N 0.39868 0.43597 0.75018
 N835 N 0.41152 0.38023 0.74943
 C836 C 0.42681 0.35474 0.73576
 C837 C 0.44626 0.35988 0.70831
 N838 N 0.45009 0.39080 0.69678
 H839 H 0.42539 0.49621 0.70124
 H840 H 0.42374 0.33086 0.74641
 C841 C 0.41468 0.58917 0.76734
 C842 C 0.43644 0.58390 0.79230
 N843 N 0.44145 0.55331 0.80369
 C844 C 0.42519 0.52775 0.79160
 C845 C 0.40260 0.53311 0.76744
 N846 N 0.39810 0.56371 0.75559
 N847 N 0.40953 0.61982 0.75618
 C848 C 0.42487 0.64556 0.76915
 C849 C 0.44605 0.64050 0.79484
 N850 N 0.45135 0.60957 0.80555
 H851 H 0.42934 0.50362 0.80129
 H852 H 0.41954 0.66974 0.76030
 C853 C -0.08262 0.07419 0.26366
 C854 C -0.06154 0.06798 0.28903
 N855 N -0.05898 0.03742 0.30134
 C856 C -0.07705 0.01285 0.28980
 C857 C -0.09890 0.01924 0.26515
 N858 N -0.10096 0.04975 0.25241
 N859 N -0.08556 0.10486 0.25177
 C860 C -0.06866 0.12976 0.26435
 C861 C -0.04806 0.12386 0.29041
 N862 N -0.04501 0.09287 0.30188
 H863 H -0.07502 -0.01120 0.30036
 H864 H -0.07242 0.15401 0.25491
 C865 C 0.08875 0.41113 0.26638
 C866 C 0.06291 0.41215 0.28797
 N867 N 0.05251 0.44123 0.29883
 C868 C 0.06728 0.46931 0.28957
 C869 C 0.09391 0.46817 0.26894
 N870 N 0.10369 0.43907 0.25749
 N871 N 0.09920 0.38212 0.25553
 C872 C 0.08548 0.35392 0.26590
 C873 C 0.06035 0.35464 0.28863
 N874 N 0.04943 0.38400 0.29865
 H875 H 0.05857 0.49211 0.29861
 H876 H 0.09435 0.33127 0.25661
 C877 C 0.59874 0.91798 0.77219
 C878 C 0.57819 0.92178 0.79863
 N879 N 0.57590 0.95122 0.81279
 C880 C 0.59364 0.97690 0.80193
 C881 C 0.61473 0.97281 0.77596
 N882 N 0.61659 0.94345 0.76161
 N883 N 0.60140 0.88859 0.75821
 C884 C 0.58487 0.86252 0.76985
 C885 C 0.56493 0.86583 0.79703
 N886 N 0.56183 0.89569 0.81045
 H887 H 0.59196 0.99995 0.81393
 H888 H 0.58743 0.83949 0.75800
 C889 C 0.69175 0.58145 0.07945
 C890 C 0.71191 0.55940 0.09537
 N891 N 0.74200 0.55470 0.08394
 C892 C 0.75281 0.57114 0.05736
 C893 C 0.73256 0.59311 0.04148
 N894 N 0.70251 0.59776 0.05300
 N895 N 0.66198 0.58680 0.09109
 C896 C 0.65119 0.57089 0.11782
 C897 C 0.67102 0.54829 0.13377
 N898 N 0.70115 0.54336 0.12214
 H899 H 0.77705 0.56748 0.04912
 H900 H 0.62753 0.57641 0.12675
 C901 C 0.24377 1.08429 0.57736
 C902 C 0.21700 1.06482 0.57163
 N903 N 0.20693 1.06077 0.54099
 C904 C 0.22206 1.07590 0.51587
 C905 C 0.24799 1.09646 0.52174
 N906 N 0.25843 1.09991 0.55237
 N907 N 0.25364 1.08864 0.60797
 C908 C 0.23766 1.07480 0.63325
 C909 C 0.21009 1.05617 0.62778
 N910 N 0.20066 1.05154 0.59688
 H911 H 0.21317 1.07296 0.49174
 H912 H 0.24561 1.07961 0.65738
 C913 C 0.21740 0.94306 0.91575
 C914 C 0.20823 0.92324 0.89029
 N915 N 0.21260 0.89071 0.89249
 C916 C 0.22545 0.87696 0.91924
 C917 C 0.23404 0.89654 0.94503
 N918 N 0.23000 0.92928 0.94273
 N919 N 0.21275 0.97562 0.91334
 C920 C 0.19914 0.98922 0.88673
 C921 C 0.18936 0.96928 0.86140
 N922 N 0.19438 0.93673 0.86402
 H923 H 0.22837 0.85088 0.92059
 H924 H 0.19515 1.01513 0.88589
 C925 C 0.72658 0.38593 0.41095
 C926 C 0.72122 0.41951 0.41206
 N927 N 0.72913 0.43591 0.43897
 C928 C 0.74188 0.42015 0.46488
 C929 C 0.74650 0.38646 0.46391
 N930 N 0.73887 0.37025 0.43686
 N931 N 0.71890 0.36939 0.38422
 C932 C 0.70534 0.38471 0.35869
 C933 C 0.69865 0.41815 0.36001
 N934 N 0.70726 0.43487 0.38665
 H935 H 0.74784 0.43368 0.48607
 H936 H 0.69949 0.37076 0.33772
 C937 C 0.76802 0.42272 0.57488
 C938 C 0.80062 0.42220 0.58215
 N939 N 0.82107 0.40493 0.56375
 C940 C 0.81042 0.38791 0.53834
 C941 C 0.77780 0.38828 0.53082
 N942 N 0.75727 0.40575 0.54935
 N943 N 0.74762 0.43952 0.59398
 C944 C 0.75837 0.45561 0.62016
 C945 C 0.79112 0.45491 0.62759
 N946 N 0.81129 0.43825 0.60808
 H947 H 0.82736 0.37387 0.52474
 H948 H 0.74157 0.46893 0.63476
 C949 C 0.25716 -0.08046 0.06887
 C950 C 0.28352 -0.05984 0.06449
 N951 N 0.29645 -0.05567 0.03466
 C952 C 0.28479 -0.07204 0.00914
 C953 C 0.25963 -0.09408 0.01389
 N954 N 0.24604 -0.09733 0.04358
 N955 N 0.24461 -0.08511 0.09877
 C956 C 0.25771 -0.07067 0.12471
 C957 C 0.28514 -0.05121 0.12070
 N958 N 0.29704 -0.04603 0.09044
 H959 H 0.29599 -0.06897 -0.01424
 H960 H 0.24784 -0.07590 0.14833
 C961 C 0.27784 0.06194 0.41373
 C962 C 0.30948 0.06816 0.40427
 N963 N 0.32749 0.08901 0.42125
 C964 C 0.31524 0.10428 0.44721
 C965 C 0.28341 0.09861 0.45663
 N966 N 0.26538 0.07744 0.43963
 N967 N 0.25986 0.04139 0.39614
 C968 C 0.27204 0.02703 0.36938
 C969 C 0.30365 0.03382 0.35949
 N970 N 0.32145 0.05417 0.37755
 H971 H 0.33012 0.12135 0.45961
 H972 H 0.25683 0.01143 0.35552
 C973 C 0.75425 0.57959 0.91843
 C974 C 0.78206 0.56077 0.92022
 N975 N 0.79791 0.55831 0.94849
 C976 C 0.78737 0.57415 0.97499
 C977 C 0.75997 0.59360 0.97301
 N978 N 0.74396 0.59569 0.94475
 N979 N 0.73849 0.58221 0.89017
 C980 C 0.74966 0.56743 0.86333
 C981 C 0.77824 0.54947 0.86463
 N982 N 0.79342 0.54631 0.89338
 H983 H 0.80078 0.57232 0.99702
 H984 H 0.73639 0.56994 0.84126
 C985 C 0.08723 0.73993 0.59288
 C986 C 0.08205 0.71202 0.57478
 N987 N 0.05217 0.69948 0.57285
 C988 C 0.02726 0.71336 0.58864
 C989 C 0.03252 0.74083 0.60737
 N990 N 0.06242 0.75362 0.60891
 N991 N 0.11723 0.75206 0.59525
 C992 C 0.14240 0.73741 0.58056
 C993 C 0.13747 0.70900 0.56280
 N994 N 0.10717 0.69721 0.56039
 H995 H 0.00377 0.70254 0.58733
 H996 H 0.16604 0.74728 0.58377
 C997 C 0.58350 0.23658 1.07765
 C998 C 0.58189 0.20935 1.05796
 N999 N 0.55380 0.19316 1.05519
 C1000 C 0.52737 0.20264 1.07181
 C1001 C 0.52936 0.22906 1.09253
 N1002 N 0.55732 0.24565 1.09463
 N1003 N 0.61163 0.25250 1.08079
 C1004 C 0.63850 0.24207 1.06559
 C1005 C 0.63738 0.21400 1.04673
 N1006 N 0.60881 0.19857 1.04326
 H1007 H 0.50537 0.18911 1.06966
 H1008 H 0.66071 0.25468 1.06963
 C1009 C 0.92855 0.24993 0.93722
 C1010 C 0.93220 0.21719 0.94614
 N1011 N 0.95899 0.20103 0.93715
 C1012 C 0.98194 0.21593 0.91890
 C1013 C 0.97743 0.24808 0.90841
 N1014 N 0.95094 0.26444 0.91812
 N1015 N 0.90179 0.26609 0.94622
 C1016 C 0.87810 0.25078 0.96312
 C1017 C 0.88087 0.21751 0.97053
 N1018 N 0.90813 0.20163 0.96206
 H1019 H 1.00270 0.20233 0.91135
 H1020 H 0.85659 0.26399 0.96907
 C1021 C 0.42725 0.72327 0.43851
 C1022 C 0.40488 0.70845 0.41856
 N1023 N 0.41160 0.70464 0.38693
 C1024 C 0.43981 0.71497 0.37426
 C1025 C 0.46239 0.72964 0.39408
 N1026 N 0.45567 0.73353 0.42589
 N1027 N 0.42010 0.72712 0.47013
 C1028 C 0.39176 0.71652 0.48275
 C1029 C 0.36943 0.70110 0.46284
 N1030 N 0.37682 0.69777 0.43114
 H1031 H 0.44463 0.71158 0.34893
 H1032 H 0.38683 0.72042 0.50793
 C1033 C 0.58450 0.75531 0.42215
 C1034 C 0.57910 0.78301 0.44059
 N1035 N 0.54936 0.79602 0.44206
 C1036 C 0.52490 0.78304 0.42522
 C1037 C 0.53066 0.75638 0.40546
 N1038 N 0.56028 0.74286 0.40472
 N1039 N 0.61432 0.74253 0.42044
 C1040 C 0.63918 0.75656 0.43584
 C1041 C 0.63418 0.78518 0.45319
 N1042 N 0.60403 0.79745 0.45531
 H1043 H 0.50163 0.79441 0.42595
 H1044 H 0.66282 0.74633 0.43324
 C1045 C 0.07851 0.28384 -0.06312
 C1046 C 0.09678 0.30641 -0.08099
 N1047 N 0.08768 0.31513 -0.11110
 C1048 C 0.06085 0.30258 -0.12409
 C1049 C 0.04191 0.28090 -0.10594
 N1050 N 0.05121 0.27180 -0.07583
 N1051 N 0.08815 0.27481 -0.03319
 C1052 C 0.11502 0.28763 -0.02020
 C1053 C 0.13268 0.31106 -0.03769
 N1054 N 0.12305 0.31971 -0.06777
 H1055 H 0.05398 0.31006 -0.14810
 H1056 H 0.12193 0.28042 0.00387
 C1057 C 0.40851 0.27688 0.10197
 C1058 C 0.40837 0.28310 0.06872
 N1059 N 0.43452 0.27548 0.05078
 C1060 C 0.46085 0.26212 0.06470
 C1061 C 0.46101 0.25642 0.09804
 N1062 N 0.43475 0.26387 0.11576
 N1063 N 0.38263 0.28442 0.12008
 C1064 C 0.35667 0.29856 0.10659
 C1065 C 0.35663 0.30585 0.07342
 N1066 N 0.38248 0.29749 0.05517
 H1067 H 0.48146 0.25647 0.05000
 H1068 H 0.33634 0.30419 0.12171
 C1069 C 0.91132 0.78705 0.60910
 C1070 C 0.91171 0.78764 0.57540
 N1071 N 0.93890 0.77959 0.55939
 C1072 C 0.96568 0.77077 0.57562
 C1073 C 0.96524 0.77005 0.60937
 N1074 N 0.93803 0.77839 0.62526
 N1075 N 0.88425 0.79512 0.62516
 C1076 C 0.85740 0.80376 0.60908
 C1077 C 0.85750 0.80443 0.57517
 N1078 N 0.88495 0.79644 0.55926
 H1079 H 0.98699 0.76443 0.56229
 H1080 H 0.83659 0.81086 0.62278
   
