data_POSCAR
  _audit_creation_date              2014-09-24
  _audit_creation_method            'ToBaCCo'
  _symmetry_space_group_name_H-M    'P1'
  _symmetry_Int_Tables_number       1
  _symmetry_cell_setting            triclinic
  loop_
  _symmetry_equiv_pos_as_xyz
 x,y,z
_cell_length_a 26.7506
_cell_length_b 27.2816
_cell_length_c 33.2605
_cell_angle_alpha 90.532600
_cell_angle_beta 89.245700
_cell_angle_gamma 87.578700
loop_
  _atom_site_label
  _atom_site_type_symbol
  _atom_site_fract_x
  _atom_site_fract_y
  _atom_site_fract_z
C1 C 1.17441 0.28255 0.30761
 H2 H 1.16331 0.24541 0.31270
 C3 C 1.15781 0.32013 0.33381
 H4 H 1.13367 0.31133 0.35883
 C5 C 1.22238 0.33783 0.27036
 H6 H 1.24904 0.34437 0.24660
 C7 C 1.20697 0.37651 0.29607
 H8 H 1.22085 0.41261 0.29086
 N9 N 1.20616 0.29185 0.27665
 C10 C 1.19729 0.16451 0.19684
 H11 H 1.23573 0.15047 0.19637
 C12 C 1.16305 0.14586 0.16989
 H13 H 1.17575 0.11704 0.14919
 C14 C 1.13576 0.22204 0.22227
 H15 H 1.12563 0.25308 0.24146
 C16 C 1.10030 0.20431 0.19611
 H17 H 1.06303 0.22123 0.19684
 Zn18 Zn 1.23388 0.23646 0.24802
 N19 N 1.18348 0.20278 0.22155
 C20 C 1.26632 0.15111 0.29660
 N21 N 1.26937 0.19937 0.28705
 C22 C 1.29959 0.22909 0.30756
 C23 C 1.32663 0.21180 0.34001
 C24 C 1.29388 0.13167 0.32904
 C25 C 1.26497 0.28992 0.18035
 C26 C 1.30029 0.31011 0.15469
 C27 C 1.36427 0.25793 0.18501
 C28 C 1.32797 0.23910 0.21010
 N29 N 1.27981 0.25681 0.20860
 H30 H 1.24204 0.12806 0.27972
 H31 H 1.30219 0.26699 0.29882
 H32 H 1.35057 0.23710 0.35481
 H33 H 1.29013 0.09362 0.33704
 H34 H 1.22612 0.30252 0.17921
 H35 H 1.28840 0.33851 0.13398
 H36 H 1.40254 0.24393 0.18745
 H37 H 1.33869 0.21117 0.23149
 C38 C 1.11420 0.16701 0.16830
 C39 C 1.17482 0.36771 0.32863
 C40 C 1.35096 0.29529 0.15799
 C41 C 1.32312 0.16287 0.35227
 C42 C 0.69388 -0.21361 0.29937
 H43 H 0.68241 -0.25103 0.30189
 C44 C 0.67158 -0.17696 0.32394
 H45 H 0.64268 -0.18667 0.34511
 C46 C 0.74528 -0.15598 0.26823
 H47 H 0.77460 -0.14802 0.24697
 C48 C 0.72392 -0.11812 0.29220
 H49 H 0.73735 -0.08150 0.28901
 N50 N 0.72946 -0.20251 0.27178
 C51 C 0.71875 -0.31658 0.17983
 H52 H 0.75682 -0.33163 0.17857
 C53 C 0.68249 -0.33596 0.15509
 H54 H 0.69293 -0.36636 0.13516
 C55 C 0.65909 -0.25881 0.20769
 H56 H 0.65020 -0.22810 0.22757
 C57 C 0.62175 -0.27702 0.18358
 H58 H 0.58460 -0.25986 0.18546
 Zn59 Zn 0.75660 -0.25471 0.23928
 N60 N 0.70630 -0.27930 0.20601
 C61 C 0.76278 -0.34962 0.27429
 N62 N 0.78155 -0.30404 0.27435
 C63 C 0.81620 -0.29118 0.30159
 C64 C 0.83357 -0.32481 0.33010
 C65 C 0.77902 -0.38440 0.30236
 C66 C 0.79339 -0.19826 0.17746
 C67 C 0.82862 -0.17906 0.15140
 C68 C 0.89259 -0.23075 0.18223
 C69 C 0.85606 -0.24881 0.20792
 N70 N 0.80764 -0.23197 0.20534
 H71 H 0.73443 -0.35890 0.25305
 H72 H 0.82975 -0.25437 0.30154
 H73 H 0.86051 -0.31325 0.35183
 H74 H 0.76355 -0.42039 0.30162
 H75 H 0.75446 -0.18611 0.17568
 H76 H 0.81618 -0.15246 0.12937
 H77 H 0.93100 -0.24419 0.18509
 H78 H 0.86649 -0.27627 0.22979
 C79 C 0.63305 -0.31648 0.15716
 C80 C 0.68636 -0.12836 0.32040
 C81 C 0.87903 -0.19525 0.15359
 C82 C 0.81461 -0.37208 0.33101
 C83 C 0.69571 0.28205 -0.19171
 H84 H 0.68517 0.24429 -0.19400
 C85 C 0.67641 0.31185 -0.16046
 H86 H 0.65069 0.29677 -0.13894
 C87 C 0.74498 0.34623 -0.21552
 H88 H 0.77258 0.35900 -0.23653
 C89 C 0.72705 0.37715 -0.18441
 H90 H 0.74036 0.41398 -0.18226
 N91 N 0.72952 0.29951 -0.21826
 C92 C 0.73419 0.19948 -0.32079
 H93 H 0.77438 0.19484 -0.32431
 C94 C 0.70301 0.17180 -0.34433
 H95 H 0.71916 0.14573 -0.36612
 C96 C 0.66411 0.23605 -0.28574
 H97 H 0.64921 0.26038 -0.26233
 C98 C 0.63147 0.20896 -0.30871
 H99 H 0.59157 0.21205 -0.30267
 Zn100 Zn 0.76066 0.25429 -0.25458
 N101 N 0.71449 0.22922 -0.29107
 C102 C 0.77304 0.15549 -0.22995
 N103 N 0.78722 0.20210 -0.22311
 C104 C 0.81734 0.21278 -0.19187
 C105 C 0.83545 0.17560 -0.16666
 C106 C 0.79019 0.11730 -0.20552
 C107 C 0.79783 0.31524 -0.31412
 C108 C 0.83392 0.33699 -0.33797
 C109 C 0.89813 0.29507 -0.29928
 C110 C 0.86078 0.27333 -0.27684
 N111 N 0.81175 0.28403 -0.28431
 H112 H 0.74760 0.14776 -0.25385
 H113 H 0.82700 0.25034 -0.18639
 H114 H 0.85986 0.18488 -0.14231
 H115 H 0.77764 0.08077 -0.21135
 H116 H 0.75850 0.32291 -0.31956
 H117 H 0.82135 0.36179 -0.36126
 H118 H 0.93659 0.28500 -0.29257
 H119 H 0.87122 0.24767 -0.25362
 C120 C 0.65130 0.17552 -0.33745
 C121 C 0.69297 0.35968 -0.15605
 C122 C 0.88518 0.32734 -0.33066
 C123 C 0.82191 0.12704 -0.17342
 C124 C 1.20452 -0.21789 -0.19510
 H125 H 1.19412 -0.25550 -0.19142
 C126 C 1.18292 -0.18105 -0.17027
 H127 H 1.15573 -0.19079 -0.14767
 C128 C 1.25182 -0.15984 -0.22983
 H129 H 1.27913 -0.15168 -0.25272
 C130 C 1.23103 -0.12182 -0.20574
 H131 H 1.24290 -0.08488 -0.21049
 N132 N 1.23733 -0.20662 -0.22485
 C133 C 1.21763 -0.31754 -0.31773
 H134 H 1.25573 -0.33175 -0.32196
 C135 C 1.17953 -0.33549 -0.34135
 H136 H 1.18863 -0.36400 -0.36341
 C137 C 1.15981 -0.26295 -0.28382
 H138 H 1.15229 -0.23386 -0.26210
 C139 C 1.12058 -0.28000 -0.30660
 H140 H 1.08336 -0.26371 -0.30188
 Zn141 Zn 1.26112 -0.25842 -0.25945
 N142 N 1.20716 -0.28225 -0.28935
 C143 C 1.26890 -0.35359 -0.22591
 N144 N 1.28942 -0.30883 -0.22666
 C145 C 1.32696 -0.29780 -0.20136
 C146 C 1.34458 -0.33216 -0.17334
 C147 C 1.28536 -0.38895 -0.19844
 C148 C 1.29037 -0.20072 -0.32329
 C149 C 1.32163 -0.18237 -0.35294
 C150 C 1.38837 -0.23706 -0.32987
 C151 C 1.35591 -0.25392 -0.30016
 N152 N 1.30797 -0.23537 -0.29734
 H153 H 1.23854 -0.36154 -0.24568
 H154 H 1.34212 -0.26167 -0.20208
 H155 H 1.37338 -0.32193 -0.15273
 H156 H 1.26801 -0.42405 -0.19837
 H157 H 1.25176 -0.18738 -0.32093
 H158 H 1.30665 -0.15495 -0.37333
 H159 H 1.42644 -0.25208 -0.33163
 H160 H 1.36889 -0.28213 -0.27973
 C161 C 1.13017 -0.31679 -0.33579
 C162 C 1.19547 -0.13208 -0.17590
 C163 C 1.37128 -0.20070 -0.35664
 C164 C 1.32299 -0.37818 -0.17107
 C165 C 0.28727 0.15962 0.74099
 H166 H 0.28105 0.15620 0.77294
 C167 C 0.31265 0.12159 0.71979
 H168 H 0.32518 0.08897 0.73569
 C169 C 0.28016 0.20682 0.68177
 H170 H 0.26905 0.24069 0.66722
 C171 C 0.30492 0.16947 0.65934
 H172 H 0.31231 0.17524 0.62771
 N173 N 0.27207 0.20147 0.72193
 C174 C 0.20259 0.20400 0.81872
 H175 H 0.24149 0.19972 0.82697
 C176 C 0.16599 0.18298 0.84253
 H177 H 0.17812 0.16236 0.86846
 C178 C 0.14105 0.23666 0.77498
 H179 H 0.13115 0.25798 0.74893
 C180 C 0.10318 0.21600 0.79770
 H181 H 0.06509 0.22258 0.78815
 Zn182 Zn 0.24251 0.25395 0.75320
 N183 N 0.18980 0.22957 0.78526
 C184 C 0.18548 0.29458 0.68925
 N185 N 0.21816 0.30508 0.71884
 C186 C 0.23452 0.35128 0.72368
 C187 C 0.21728 0.38917 0.69878
 C188 C 0.16743 0.33133 0.66357
 C189 C 0.34036 0.26207 0.78336
 C190 C 0.37661 0.27760 0.80991
 C191 C 0.31252 0.32679 0.84509
 C192 C 0.27736 0.30992 0.81809
 N193 N 0.29172 0.27802 0.78804
 H194 H 0.17364 0.25742 0.68537
 H195 H 0.26119 0.35894 0.74675
 H196 H 0.23125 0.42545 0.70313
 H197 H 0.14105 0.32211 0.64060
 H198 H 0.35119 0.23712 0.75907
 H199 H 0.41505 0.26442 0.80559
 H200 H 0.30014 0.35158 0.86914
 H201 H 0.23841 0.32185 0.82128
 C202 C 0.11517 0.18799 0.83194
 C203 C 0.32224 0.12651 0.67853
 C204 C 0.36284 0.31017 0.84141
 C205 C 0.18315 0.37949 0.66830
 C206 C 0.74273 0.66088 0.71984
 H207 H 0.71408 0.65123 0.74112
 C208 C 0.76266 0.62504 0.69338
 H209 H 0.74920 0.58828 0.69518
 C210 C 0.79236 0.72085 0.69006
 H211 H 0.80369 0.75843 0.68897
 C212 C 0.81339 0.68603 0.66290
 H213 H 0.84126 0.69707 0.64132
 N214 N 0.75924 0.70735 0.71893
 C215 C 0.64598 0.73460 0.80559
 H216 H 0.62673 0.76548 0.79155
 C217 C 0.61977 0.70413 0.83170
 H218 H 0.58017 0.71142 0.83735
 C219 C 0.72074 0.68645 0.81454
 H220 H 0.76015 0.67987 0.80782
 C221 C 0.69580 0.65391 0.83844
 H222 H 0.71693 0.62281 0.85056
 Zn223 Zn 0.73494 0.75482 0.75785
 N224 N 0.69515 0.72390 0.79656
 C225 C 0.66328 0.78756 0.70352
 N226 N 0.69855 0.80311 0.72921
 C227 C 0.71305 0.85021 0.72915
 C228 C 0.69407 0.88304 0.70078
 C229 C 0.64374 0.81908 0.67425
 C230 C 0.83719 0.76577 0.77768
 C231 C 0.87672 0.78479 0.79897
 C232 C 0.81691 0.83519 0.83759
 C233 C 0.77849 0.81532 0.81542
 N234 N 0.78920 0.78176 0.78571
 H235 H 0.65300 0.74964 0.70395
 H236 H 0.74156 0.86172 0.74943
 H237 H 0.70729 0.91994 0.70077
 H238 H 0.61815 0.80501 0.65249
 H239 H 0.84510 0.73756 0.75530
 H240 H 0.91445 0.77102 0.79224
 H241 H 0.80752 0.86231 0.86072
 H242 H 0.73995 0.82667 0.82186
 C243 C 0.64427 0.66138 0.84621
 C244 C 0.79948 0.63704 0.66513
 C245 C 0.86687 0.82007 0.82932
 C246 C 0.66081 0.86694 0.67159
 C247 C 0.76762 0.15046 0.22651
 H248 H 0.73878 0.14240 0.24819
 C249 C 0.78408 0.11432 0.19878
 H250 H 0.76772 0.07879 0.19995
 C251 C 0.82407 0.20631 0.19931
 H252 H 0.83902 0.24255 0.19946
 C253 C 0.84159 0.17127 0.17098
 H254 H 0.86998 0.18124 0.14948
 N255 N 0.78678 0.19584 0.22563
 C256 C 0.71979 0.21563 0.33519
 H257 H 0.75499 0.22560 0.34772
 C258 C 0.68301 0.19721 0.36040
 H259 H 0.69043 0.19324 0.39214
 C260 C 0.66673 0.20972 0.27901
 H261 H 0.66081 0.21468 0.24716
 C262 C 0.62870 0.19186 0.30321
 H263 H 0.59372 0.18268 0.28963
 Zn264 Zn 0.75990 0.24658 0.26015
 N265 N 0.71125 0.22109 0.29521
 C266 C 0.70197 0.33406 0.24858
 N267 N 0.72666 0.29591 0.22922
 C268 C 0.72508 0.29107 0.18852
 C269 C 0.69893 0.32595 0.16563
 C270 C 0.67587 0.37020 0.22676
 C271 C 0.84332 0.24082 0.31038
 C272 C 0.87960 0.25796 0.33621
 C273 C 0.85326 0.34094 0.31951
 C274 C 0.81781 0.32219 0.29367
 N275 N 0.81246 0.27290 0.29049
 H276 H 0.70242 0.33628 0.28106
 H277 H 0.74351 0.25985 0.17363
 H278 H 0.69862 0.32152 0.13326
 H279 H 0.65647 0.40025 0.24271
 H280 H 0.83859 0.20179 0.30712
 H281 H 0.90235 0.23167 0.35284
 H282 H 0.85613 0.38028 0.32233
 H283 H 0.79397 0.34723 0.27693
 C284 C 0.63670 0.18531 0.34445
 C285 C 0.82077 0.12478 0.16986
 C286 C 0.88419 0.30868 0.34168
 C287 C 0.67411 0.36630 0.18471
 C288 C 0.27045 0.71963 0.17482
 H289 H 0.25353 0.75198 0.16128
 C290 C 0.29308 0.68306 0.15013
 H291 H 0.29319 0.68764 0.11783
 C292 C 0.28961 0.67347 0.23302
 H293 H 0.28834 0.67020 0.26541
 C294 C 0.31202 0.63583 0.20948
 H295 H 0.32812 0.60377 0.22416
 N296 N 0.26947 0.71440 0.21551
 C297 C 0.20267 0.72608 0.32258
 H298 H 0.23842 0.73608 0.33412
 C299 C 0.16869 0.70388 0.34808
 H300 H 0.17816 0.69793 0.37927
 C301 C 0.14758 0.71950 0.26779
 H302 H 0.14038 0.72392 0.23610
 C303 C 0.11168 0.69879 0.29267
 H304 H 0.07646 0.68825 0.28020
 Zn305 Zn 0.24009 0.76367 0.25011
 N306 N 0.19136 0.73433 0.28337
 C307 C 0.16391 0.82730 0.21475
 N308 N 0.21358 0.81578 0.21870
 C309 C 0.24869 0.84086 0.19846
 C310 C 0.23448 0.87700 0.17111
 C311 C 0.14797 0.86273 0.18710
 C312 C 0.27604 0.82465 0.31109
 C313 C 0.31223 0.84785 0.33350
 C314 C 0.37618 0.80269 0.29482
 C315 C 0.33882 0.77972 0.27386
 N316 N 0.28988 0.79100 0.28220
 H317 H 0.13650 0.80846 0.23212
 H318 H 0.28795 0.83132 0.20247
 H319 H 0.26312 0.89479 0.15401
 H320 H 0.10830 0.87034 0.18312
 H321 H 0.23675 0.83371 0.31653
 H322 H 0.29988 0.87463 0.35608
 H323 H 0.41452 0.79208 0.28727
 H324 H 0.34909 0.75366 0.25020
 C325 C 0.12227 0.69082 0.33329
 C326 C 0.31390 0.64035 0.16745
 C327 C 0.36339 0.83760 0.32519
 C328 C 0.18356 0.88728 0.16436
 O329 O 1.06727 0.05444 0.03858
 O330 O 0.93776 -0.06167 0.04277
 O331 O 0.94062 0.06332 0.04336
 O332 O 1.06357 -0.06931 0.03801
 O333 O 0.89043 0.01015 0.02349
 O334 O 1.11192 -0.01676 0.01447
 O335 O 0.99257 -0.11206 0.01771
 O336 O 1.01073 0.10507 0.01899
 C337 C 1.04088 0.09168 0.04538
 C338 C 0.96298 -0.10029 0.04578
 C339 C 0.90302 0.03996 0.04984
 C340 C 1.10050 -0.04442 0.04243
 O341 O 1.08635 0.00776 -0.06239
 O342 O 0.90971 -0.01438 -0.05544
 O343 O 0.98332 0.08416 -0.05791
 O344 O 1.01347 -0.09001 -0.06054
 O345 O 0.94036 -0.09284 -0.03551
 O346 O 1.05838 0.08691 -0.03862
 O347 O 1.09373 -0.06493 -0.04064
 O348 O 0.90492 0.05835 -0.03278
 Co349 Co 1.07330 0.02965 -0.01174
 Co350 Co 0.92721 -0.03612 -0.00642
 Co351 Co 0.96374 0.07010 -0.00732
 Co352 Co 1.03693 -0.07626 -0.01116
 O353 O 1.00026 -0.00313 -0.00912
 C354 C 1.10077 -0.03523 -0.06818
 C355 C 0.89716 0.02892 -0.06063
 C356 C 1.02634 0.09657 -0.06464
 C357 C 0.96956 -0.10094 -0.06457
 O358 O 1.06043 0.59636 0.52752
 O359 O 0.94187 0.41968 0.53544
 O360 O 0.90582 0.57062 0.52908
 O361 O 1.09625 0.44571 0.52822
 O362 O 0.91232 0.49913 0.55307
 O363 O 1.08995 0.51845 0.54994
 O364 O 1.01717 0.42297 0.55477
 O365 O 0.98601 0.59622 0.55058
 C366 C 1.03006 0.60618 0.55555
 C367 C 0.97385 0.41177 0.56200
 C368 C 0.89736 0.54210 0.55717
 C369 C 1.10366 0.47559 0.55572
 O370 O 1.11045 0.49116 0.47081
 O371 O 0.89057 0.51823 0.47431
 O372 O 1.01034 0.61439 0.47234
 O373 O 0.99040 0.39568 0.47989
 O374 O 0.93640 0.44490 0.45508
 O375 O 1.06539 0.56247 0.44999
 O376 O 1.05982 0.43710 0.45302
 O377 O 0.93925 0.57161 0.45173
 Co378 Co 1.07410 0.53865 0.49989
 Co379 Co 0.92798 0.47388 0.50411
 Co380 Co 0.96437 0.58023 0.50111
 Co381 Co 1.03703 0.43329 0.50379
 O382 O 1.00083 0.50657 0.50213
 C383 C 1.09723 0.46032 0.44544
 C384 C 0.90183 0.54741 0.44723
 C385 C 1.04028 0.60074 0.44501
 C386 C 0.96111 0.40588 0.45217
 O387 O 0.57904 0.03449 0.54969
 O388 O 0.42866 -0.05878 0.53864
 O389 O 0.46366 0.06199 0.56422
 O390 O 0.55330 -0.08500 0.53399
 O391 O 0.40127 0.02285 0.54089
 O392 O 0.60905 -0.03605 0.51686
 O393 O 0.47414 -0.10846 0.50415
 O394 O 0.53873 0.09994 0.53836
 C395 C 0.56565 0.07557 0.56136
 C396 C 0.44798 -0.10018 0.53465
 C397 C 0.42265 0.04315 0.56990
 C398 C 0.59254 -0.06486 0.54214
 O399 O 0.58766 0.00629 0.44362
 O400 O 0.40794 0.02581 0.45553
 O401 O 0.49810 0.09940 0.46446
 O402 O 0.50244 -0.07322 0.43446
 O403 O 0.42605 -0.06186 0.45528
 O404 O 0.57475 0.08257 0.47596
 O405 O 0.58623 -0.06900 0.45722
 O406 O 0.41886 0.08294 0.49626
 Co407 Co 0.58013 0.02026 0.49672
 Co408 Co 0.42391 -0.01601 0.49729
 Co409 Co 0.48249 0.07795 0.51393
 Co410 Co 0.52675 -0.07535 0.48429
 O411 O 0.50319 0.00160 0.49783
 C412 C 0.59732 -0.03649 0.43315
 C413 C 0.40327 0.07012 0.46318
 C414 C 0.54223 0.10234 0.45413
 C415 C 0.45712 -0.07571 0.42817
 O416 O 0.56715 0.57598 0.02746
 O417 O 0.42307 0.40686 0.03178
 O418 O 0.41318 0.56426 0.03011
 O419 O 0.57574 0.42221 0.04862
 O420 O 0.40369 0.49140 0.05265
 O421 O 0.57867 0.49863 0.06356
 O422 O 0.49318 0.40669 0.05965
 O423 O 0.49334 0.58299 0.04833
 C424 C 0.53707 0.59232 0.05329
 C425 C 0.44951 0.39535 0.06093
 C426 C 0.39804 0.53639 0.05741
 C427 C 0.58499 0.45527 0.07366
 O428 O 0.61149 0.45749 -0.00618
 O429 O 0.38891 0.51524 -0.02380
 O430 O 0.52444 0.58723 -0.03342
 O431 O 0.48035 0.38356 -0.02082
 O432 O 0.42769 0.43696 -0.04452
 O433 O 0.57622 0.52591 -0.04120
 O434 O 0.55961 0.41404 -0.03465
 O435 O 0.44675 0.55479 -0.05004
 Co436 Co 0.57462 0.51203 0.01063
 Co437 Co 0.41963 0.46527 0.00429
 Co438 Co 0.47214 0.56494 -0.00061
 Co439 Co 0.52462 0.41411 0.01242
 O440 O 0.49759 0.48908 0.00662
 C441 C 0.60162 0.43048 -0.03486
 C442 C 0.40484 0.53840 -0.05296
 C443 C 0.55714 0.56400 -0.05465
 C444 C 0.45071 0.39688 -0.04797
 N445 N 1.01942 0.16088 0.09257
 N446 N 1.03818 0.18024 0.12535
 C447 C 1.07947 0.15331 0.13592
 C448 C 1.08673 0.11483 0.10858
 C449 C 1.04822 0.12135 0.08157
 H450 H 1.11670 0.08694 0.10729
 H451 H 0.98804 0.17524 0.07765
 H452 H 1.02363 0.21247 0.13894
 N453 N 1.01385 0.64766 0.62170
 N454 N 1.04013 0.66785 0.65035
 C455 C 1.08901 0.66491 0.63956
 C456 C 1.09384 0.64188 0.60225
 C457 C 1.04537 0.63174 0.59206
 H458 H 1.12767 0.63355 0.58488
 H459 H 0.97506 0.64460 0.62272
 H460 H 1.02457 0.68240 0.67706
 N461 N 0.59791 0.06541 0.63006
 N462 N 0.61982 0.09225 0.65728
 C463 C 0.61987 0.13889 0.64450
 C464 C 0.59679 0.14220 0.60752
 C465 C 0.58367 0.09456 0.59948
 H466 H 0.59463 0.17336 0.58763
 H467 H 0.59494 0.02742 0.63163
 H468 H 0.63712 0.07823 0.68296
 N469 N 0.51886 0.64394 0.11386
 N470 N 0.54386 0.66788 0.14118
 C471 C 0.59324 0.66270 0.13247
 C472 C 0.59976 0.63404 0.09787
 C473 C 0.55164 0.62314 0.08713
 H474 H 0.63436 0.62244 0.08272
 H475 H 0.47998 0.64152 0.11393
 H476 H 0.52700 0.68629 0.16580
 N477 N 0.98209 -0.17506 0.08602
 N478 N 0.96001 -0.20016 0.11451
 C479 C 0.91674 -0.17613 0.12543
 C480 C 0.91165 -0.13342 0.10323
 C481 C 0.95358 -0.13444 0.07850
 H482 H 0.88080 -0.10644 0.10350
 H483 H 1.01535 -0.18643 0.07125
 H484 H 0.97357 -0.23417 0.12477
 N485 N 0.99642 0.37344 0.62475
 N486 N 0.97154 0.34877 0.65501
 C487 C 0.92244 0.34891 0.64576
 C488 C 0.91539 0.37333 0.60945
 C489 C 0.96234 0.38755 0.59732
 H490 H 0.88098 0.37924 0.59312
 H491 H 1.03486 0.37881 0.62387
 H492 H 0.98906 0.33484 0.68057
 N493 N 0.46226 -0.18296 0.56465
 N494 N 0.44268 -0.20913 0.59371
 C495 C 0.40441 -0.18265 0.61115
 C496 C 0.39987 -0.13740 0.59250
 C497 C 0.43711 -0.13922 0.56320
 H498 H 0.37304 -0.10747 0.59898
 H499 H 0.49224 -0.19503 0.54616
 H500 H 0.45473 -0.24494 0.60058
 N501 N 0.46343 0.34902 0.12334
 N502 N 0.43809 0.32215 0.14847
 C503 C 0.39049 0.32047 0.13583
 C504 C 0.38533 0.34788 0.10095
 C505 C 0.43265 0.36509 0.09416
 H506 H 0.35223 0.35433 0.08308
 H507 H 0.50124 0.35628 0.12638
 H508 H 0.45332 0.30650 0.17434
 N509 N 0.86058 0.01305 -0.12740
 N510 N 0.84123 0.03874 -0.15728
 C511 C 0.84018 0.08680 -0.14710
 C512 C 0.85969 0.09170 -0.10886
 C513 C 0.87203 0.04412 -0.09759
 H514 H 0.86492 0.12497 -0.09175
 H515 H 0.86658 -0.02504 -0.12788
 H516 H 0.83031 0.02324 -0.18442
 N517 N 0.82747 0.53256 0.40498
 N518 N 0.80459 0.55365 0.37423
 C519 C 0.83062 0.59252 0.36245
 C520 C 0.87217 0.59574 0.38669
 C521 C 0.86855 0.55737 0.41328
 H522 H 0.90040 0.62295 0.38610
 H523 H 0.81443 0.50239 0.42045
 H524 H 0.77078 0.54235 0.36274
 N525 N 0.38165 0.15350 0.44781
 N526 N 0.36052 0.17989 0.41651
 C527 C 0.34689 0.14776 0.38795
 C528 C 0.35928 0.09990 0.40069
 C529 C 0.38160 0.10553 0.43810
 H530 H 0.35401 0.06585 0.38465
 H531 H 0.39558 0.16939 0.47382
 H532 H 0.35389 0.21785 0.41764
 N533 N 0.32931 0.52905 -0.09465
 N534 N 0.30796 0.55063 -0.12580
 C535 C 0.33726 0.58644 -0.13900
 C536 C 0.37955 0.58708 -0.11513
 C537 C 0.37276 0.55031 -0.08735
 H538 H 0.41002 0.61187 -0.11658
 H539 H 0.31366 0.50096 -0.07818
 H540 H 0.27287 0.54197 -0.13649
 N541 N 1.14265 -0.01897 -0.13375
 N542 N 1.16796 -0.04433 -0.16193
 C543 C 1.17110 -0.09200 -0.15128
 C544 C 1.14661 -0.09696 -0.11459
 C545 C 1.12929 -0.04989 -0.10461
 H546 H 1.14200 -0.12996 -0.09738
 H547 H 1.13460 0.01881 -0.13469
 H548 H 1.18178 -0.02900 -0.18826
 N549 N 1.16857 0.47051 0.39745
 N550 N 1.18868 0.44626 0.36619
 C551 C 1.16117 0.40696 0.35833
 C552 C 1.12157 0.40675 0.38552
 C553 C 1.12789 0.44723 0.40985
 H554 H 1.09306 0.37996 0.38840
 H555 H 1.18326 0.50165 0.41051
 H556 H 1.22184 0.45556 0.35182
 N557 N 0.64037 -0.01619 0.36876
 N558 N 0.66407 -0.04042 0.33908
 C559 C 0.66326 -0.08901 0.34644
 C560 C 0.63783 -0.09573 0.38240
 C561 C 0.62419 -0.04885 0.39551
 H562 H 0.63092 -0.12977 0.39753
 H563 H 0.63563 0.02198 0.37058
 H564 H 0.67993 -0.02362 0.31419
 N565 N 0.68164 0.44209 -0.07138
 N566 N 0.70512 0.42453 -0.10393
 C567 C 0.67722 0.38996 -0.12072
 C568 C 0.63389 0.38557 -0.09788
 C569 C 0.63835 0.41920 -0.06695
 H570 H 0.60347 0.36141 -0.10290
 H571 H 0.69508 0.46945 -0.05272
 H572 H 0.74019 0.43541 -0.11365
 N573 N 1.00388 0.13799 -0.12623
 N574 N 1.02882 0.16441 -0.15543
 C575 C 1.07761 0.16542 -0.14526
 C576 C 1.08426 0.13987 -0.10938
 C577 C 1.03759 0.12360 -0.09863
 H578 H 1.11834 0.13365 -0.09271
 H579 H 0.96575 0.13114 -0.12639
 H580 H 1.01141 0.17897 -0.18079
 N581 N 1.01519 0.66247 0.39341
 N582 N 1.03653 0.68513 0.36311
 C583 C 1.08502 0.66973 0.36047
 C584 C 1.09478 0.63517 0.38991
 C585 C 1.04951 0.63167 0.41006
 H586 H 1.13014 0.61642 0.39654
 H587 H 0.97793 0.66838 0.40260
 H588 H 1.01857 0.71195 0.34560
 N589 N 0.52267 0.15051 0.39277
 N590 N 0.54745 0.17180 0.36358
 C591 C 0.59692 0.16645 0.37068
 C592 C 0.60381 0.14047 0.40598
 C593 C 0.55583 0.13106 0.41889
 H594 H 0.63871 0.12904 0.41986
 H595 H 0.48373 0.14899 0.39441
 H596 H 0.53045 0.18999 0.33954
 N597 N 0.60753 0.54893 -0.11318
 N598 N 0.63369 0.57633 -0.14041
 C599 C 0.61881 0.62372 -0.13517
 C600 C 0.58114 0.62758 -0.10532
 C601 C 0.57750 0.57979 -0.09092
 H602 H 0.56498 0.66097 -0.09185
 H603 H 0.61419 0.51133 -0.10902
 H604 H 0.66106 0.56167 -0.16030
 N605 N 0.98350 -0.13907 -0.13230
 N606 N 0.95654 -0.15974 -0.16028
 C607 C 0.90841 -0.15972 -0.14751
 C608 C 0.90481 -0.13803 -0.10962
 C609 C 0.95321 -0.12570 -0.10113
 H610 H 0.87186 -0.13219 -0.09067
 H611 H 1.02193 -0.13409 -0.13474
 H612 H 0.97111 -0.17277 -0.18781
 N613 N 0.97975 0.32787 0.41462
 N614 N 0.95973 0.30220 0.38554
 C615 C 0.91935 0.32768 0.37159
 C616 C 0.91387 0.37188 0.39264
 C617 C 0.95263 0.37020 0.41986
 H618 H 0.88422 0.39991 0.39028
 H619 H 1.01087 0.31598 0.43110
 H620 H 0.97344 0.26758 0.37597
 N621 N 0.47587 -0.11514 0.36449
 N622 N 0.44988 -0.14063 0.33566
 C623 C 0.40094 -0.13861 0.34643
 C624 C 0.39489 -0.11106 0.38204
 C625 C 0.44268 -0.09806 0.39257
 H626 H 0.36096 -0.10401 0.39959
 H627 H 0.51469 -0.11222 0.36451
 H628 H 0.46693 -0.15712 0.31031
 N629 N 0.46531 0.32173 -0.09047
 N630 N 0.44227 0.29904 -0.11975
 C631 C 0.40045 0.32567 -0.12923
 C632 C 0.39723 0.36747 -0.10513
 C633 C 0.43892 0.36340 -0.08098
 H634 H 0.36800 0.39614 -0.10430
 H635 H 0.49803 0.30833 -0.07684
 H636 H 0.45431 0.26504 -0.13183
 N637 N 1.17388 -0.02579 0.08424
 N638 N 1.19560 -0.04337 0.11684
 C639 C 1.16800 -0.07953 0.13161
 C640 C 1.12679 -0.08496 0.10747
 C641 C 1.13235 -0.05067 0.07760
 H642 H 1.09860 -0.11217 0.10968
 H643 H 1.18806 0.00186 0.06642
 H644 H 1.22922 -0.03124 0.12810
 N645 N 1.14290 0.49279 0.62151
 N646 N 1.16372 0.46764 0.65113
 C647 C 1.16408 0.41935 0.64177
 C648 C 1.14261 0.41379 0.60427
 C649 C 1.12983 0.46118 0.59258
 H650 H 1.13653 0.38016 0.58789
 H651 H 1.13725 0.53092 0.62149
 H652 H 1.17616 0.48360 0.67762
 N653 N 0.65969 -0.04809 0.58987
 N654 N 0.67677 -0.06468 0.62436
 C655 C 0.64874 -0.10196 0.63643
 C656 C 0.61182 -0.10912 0.60806
 C657 C 0.62048 -0.07430 0.57906
 H658 H 0.58344 -0.13623 0.60793
 H659 H 0.67507 -0.01941 0.57394
 H660 H 0.70833 -0.05145 0.63823
 N661 N 0.61575 0.47490 0.14223
 N662 N 0.63890 0.45134 0.17167
 C663 C 0.64657 0.40381 0.16076
 C664 C 0.62688 0.39686 0.12289
 C665 C 0.60791 0.44274 0.11225
 H666 H 0.62702 0.36340 0.10515
 H667 H 0.60615 0.51242 0.14259
 H668 H 0.65043 0.46809 0.19813
 N669 N 0.83019 0.02737 0.09561
 N670 N 0.80873 0.04949 0.12731
 C671 C 0.83563 0.08832 0.13786
 C672 C 0.87632 0.09045 0.11165
 C673 C 0.87122 0.05143 0.08531
 H674 H 0.90487 0.11736 0.11075
 H675 H 0.81620 -0.00301 0.08085
 H676 H 0.77520 0.03884 0.14027
 N677 N 0.85214 0.52544 0.62075
 N678 N 0.82622 0.55007 0.64889
 C679 C 0.82404 0.59811 0.63941
 C680 C 0.84997 0.60414 0.60337
 C681 C 0.86698 0.55705 0.59263
 H682 H 0.85594 0.63777 0.58734
 H683 H 0.85981 0.48757 0.62112
 H684 H 0.81159 0.53396 0.67458
 N685 N 0.41801 0.03975 0.64416
 N686 N 0.39130 0.06215 0.67311
 C687 C 0.35356 0.08894 0.65643
 C688 C 0.35579 0.08211 0.61504
 C689 C 0.39717 0.05087 0.60864
 H690 H 0.33376 0.10100 0.59244
 H691 H 0.45159 0.01968 0.64856
 H692 H 0.40133 0.06196 0.70334
 N693 N 0.35832 0.52539 0.12410
 N694 N 0.33688 0.55232 0.15315
 C695 C 0.33581 0.59976 0.14214
 C696 C 0.35774 0.60308 0.10407
 C697 C 0.37159 0.55491 0.09389
 H698 H 0.36346 0.63570 0.08662
 H699 H 0.36393 0.48729 0.12522
 H700 H 0.32263 0.53796 0.17972
   
