data_POSCAR
  _audit_creation_date              2014-09-24
  _audit_creation_method            'ToBaCCo'
  _symmetry_space_group_name_H-M    'P1'
  _symmetry_Int_Tables_number       1
  _symmetry_cell_setting            triclinic
  loop_
  _symmetry_equiv_pos_as_xyz
 x,y,z
_cell_length_a 75.8987
_cell_length_b 75.2525
_cell_length_c 20.3000
_cell_angle_alpha 89.414900
_cell_angle_beta 90.162900
_cell_angle_gamma 120.067500
loop_
  _atom_site_label
  _atom_site_type_symbol
  _atom_site_fract_x
  _atom_site_fract_y
  _atom_site_fract_z
C1 C 0.26057 0.50866 0.53316
 C2 C 0.26019 0.50838 0.46608
 C3 C 0.24180 0.50506 0.43026
 C4 C 0.27732 0.51015 0.42597
 C5 C 0.27664 0.50748 0.57194
 C6 C 0.24410 0.50933 0.57010
 C7 C 0.22487 0.48534 0.42682
 C8 C 0.20721 0.48203 0.39478
 C9 C 0.20572 0.49855 0.36649
 C10 C 0.22311 0.51846 0.37098
 C11 C 0.24095 0.52155 0.40153
 C12 C 0.27383 0.49504 0.37961
 C13 C 0.28999 0.49598 0.34407
 C14 C 0.30999 0.51223 0.35343
 C15 C 0.31334 0.52771 0.39849
 C16 C 0.29716 0.52667 0.43441
 C17 C 0.28597 0.52069 0.62529
 C18 C 0.30134 0.51990 0.66114
 C19 C 0.30772 0.50597 0.64391
 C20 C 0.29803 0.49240 0.59177
 C21 C 0.28242 0.49291 0.55687
 C22 C 0.24178 0.52665 0.56515
 C23 C 0.22509 0.52655 0.59425
 C24 C 0.21043 0.50913 0.62900
 C25 C 0.21323 0.49207 0.63576
 C26 C 0.22999 0.49221 0.60669
 H27 H 0.22528 0.47248 0.44969
 H28 H 0.19441 0.46654 0.39654
 H29 H 0.22361 0.53173 0.34806
 H30 H 0.25405 0.53689 0.40356
 H31 H 0.25866 0.48212 0.37240
 H32 H 0.28689 0.48365 0.31058
 H33 H 0.30011 0.53866 0.46921
 H34 H 0.28160 0.53187 0.63845
 H35 H 0.30861 0.53049 0.70125
 H36 H 0.30246 0.48128 0.57842
 H37 H 0.27491 0.48197 0.51782
 H38 H 0.25270 0.54007 0.53756
 H39 H 0.22357 0.54006 0.58919
 H40 H 0.20212 0.47835 0.66159
 H41 H 0.23155 0.47871 0.61066
 H42 H 0.32848 0.54065 0.40598
 C43 C 0.47271 -0.25894 0.52425
 C44 C 0.47004 -0.26032 0.45761
 C45 C 0.47276 -0.27546 0.41954
 C46 C 0.46660 -0.24536 0.41981
 C47 C 0.47537 -0.24073 0.56068
 C48 C 0.47412 -0.27518 0.56207
 C49 C 0.49158 -0.27476 0.42035
 C50 C 0.49403 -0.28950 0.38713
 C51 C 0.47768 -0.30527 0.35276
 C52 C 0.45893 -0.30573 0.35097
 C53 C 0.45656 -0.29078 0.38361
 C54 C 0.48047 -0.23320 0.37067
 C55 C 0.47931 -0.21688 0.34201
 C56 C 0.46401 -0.21260 0.36114
 C57 C 0.44939 -0.22562 0.40764
 C58 C 0.45067 -0.24185 0.43669
 C59 C 0.46304 -0.24313 0.61534
 C60 C 0.46425 -0.22590 0.64547
 C61 C 0.47768 -0.20613 0.62085
 C62 C 0.49066 -0.20371 0.56829
 C63 C 0.48979 -0.22084 0.53929
 C64 C 0.45878 -0.29577 0.55715
 C65 C 0.46114 -0.31129 0.58650
 C66 C 0.47896 -0.30669 0.62212
 C67 C 0.49382 -0.28571 0.62949
 C68 C 0.49138 -0.27023 0.59993
 H69 H 0.50428 -0.26290 0.44748
 H70 H 0.50857 -0.28891 0.38971
 H71 H 0.44615 -0.31767 0.32438
 H72 H 0.44197 -0.29143 0.38234
 H73 H 0.49293 -0.23558 0.35724
 H74 H 0.49101 -0.20704 0.30718
 H75 H 0.43968 -0.25125 0.47408
 H76 H 0.45202 -0.25834 0.63311
 H77 H 0.45420 -0.22801 0.68628
 H78 H 0.50134 -0.18854 0.54937
 H79 H 0.49994 -0.21860 0.49870
 H80 H 0.44507 -0.29985 0.52942
 H81 H 0.44866 -0.32687 0.58191
 H82 H 0.50808 -0.28102 0.65439
 H83 H 0.50344 -0.25439 0.60408
 H84 H 0.43719 -0.22301 0.42254
 C85 C 1.25574 0.73817 0.52982
 C86 C 1.25472 0.73860 0.46307
 C87 C 1.26889 0.75713 0.42488
 C88 C 1.23822 0.72127 0.42678
 C89 C 1.23902 0.72153 0.56847
 C90 C 1.27268 0.75507 0.56618
 C91 C 1.26619 0.77420 0.42361
 C92 C 1.27989 0.79203 0.38950
 C93 C 1.29699 0.79342 0.35699
 C94 C 1.29945 0.77600 0.35870
 C95 C 1.28539 0.75799 0.39150
 C96 C 1.22337 0.72380 0.39374
 C97 C 1.20660 0.70694 0.36548
 C98 C 1.20447 0.68728 0.36940
 C99 C 1.21982 0.68500 0.40050
 C100 C 1.23654 0.70185 0.42888
 C101 C 1.24119 0.70558 0.59559
 C102 C 1.22459 0.68873 0.62574
 C103 C 1.20550 0.68769 0.63077
 C104 C 1.20386 0.70433 0.60500
 C105 C 1.22036 0.72090 0.57384
 C106 C 1.29270 0.75944 0.55652
 C107 C 1.30889 0.77644 0.58633
 C108 C 1.30552 0.78964 0.62691
 C109 C 1.28508 0.78449 0.63813
 C110 C 1.26893 0.76742 0.60823
 H111 H 1.25355 0.77375 0.44977
 H112 H 1.27751 0.80504 0.39191
 H113 H 1.31184 0.77588 0.33285
 H114 H 1.28757 0.74482 0.39188
 H115 H 1.22436 0.73866 0.39207
 H116 H 1.19494 0.70917 0.34263
 H117 H 1.24800 0.69970 0.45370
 H118 H 1.25559 0.70592 0.59175
 H119 H 1.22703 0.67684 0.64652
 H120 H 1.18953 0.70418 0.60506
 H121 H 1.21843 0.73305 0.55230
 H122 H 1.29581 0.74974 0.52531
 H123 H 1.32398 0.77875 0.57834
 H124 H 1.28132 0.79416 0.66679
 H125 H 1.25352 0.76432 0.61590
 H126 H 1.21881 0.67014 0.40332
 C127 C 0.74856 0.48635 0.54002
 C128 C 0.74948 0.48815 0.47303
 C129 C 0.76734 0.49102 0.43432
 C130 C 0.73283 0.48862 0.43603
 C131 C 0.73245 0.48778 0.57655
 C132 C 0.76420 0.48471 0.57960
 C133 C 0.78723 0.50588 0.45215
 C134 C 0.80391 0.50799 0.41664
 C135 C 0.80099 0.49574 0.36141
 C136 C 0.78109 0.48154 0.34173
 C137 C 0.76440 0.47917 0.37799
 C138 C 0.73653 0.50657 0.40277
 C139 C 0.72046 0.50789 0.37410
 C140 C 0.70043 0.49119 0.37785
 C141 C 0.69695 0.47293 0.40901
 C142 C 0.71303 0.47165 0.43770
 C143 C 0.71596 0.47023 0.60409
 C144 C 0.69985 0.47138 0.63305
 C145 C 0.70016 0.49030 0.63661
 C146 C 0.71727 0.50796 0.61021
 C147 C 0.73308 0.50664 0.58020
 C148 C 0.77010 0.47029 0.56443
 C149 C 0.78590 0.46996 0.59907
 C150 C 0.79613 0.48391 0.65068
 C151 C 0.78939 0.49778 0.66699
 C152 C 0.77370 0.49811 0.63207
 H153 H 0.78987 0.51575 0.49388
 H154 H 0.81913 0.51927 0.43207
 H155 H 0.77848 0.47191 0.29935
 H156 H 0.74918 0.46783 0.36280
 H157 H 0.75173 0.51982 0.40130
 H158 H 0.72361 0.52223 0.35109
 H159 H 0.70998 0.45758 0.46257
 H160 H 0.71532 0.45555 0.60165
 H161 H 0.68752 0.45747 0.65429
 H162 H 0.71812 0.52274 0.60909
 H163 H 0.74568 0.52030 0.55847
 H164 H 0.76259 0.45941 0.52520
 H165 H 0.78955 0.45829 0.58603
 H166 H 0.79690 0.50935 0.70422
 H167 H 0.76950 0.50946 0.64457
 H168 H 0.68177 0.45969 0.41166
 C169 C 0.50851 0.26070 0.53792
 C170 C 0.50813 0.25927 0.47114
 C171 C 0.50871 0.27565 0.42862
 C172 C 0.50639 0.24103 0.43803
 C173 C 0.50760 0.24426 0.58110
 C174 C 0.50911 0.27851 0.57025
 C175 C 0.49157 0.27171 0.39148
 C176 C 0.49127 0.28751 0.35563
 C177 C 0.50822 0.30751 0.35596
 C178 C 0.52567 0.31118 0.39143
 C179 C 0.52591 0.29537 0.42738
 C180 C 0.48882 0.22172 0.44552
 C181 C 0.48781 0.20439 0.41707
 C182 C 0.50443 0.20611 0.38131
 C183 C 0.52187 0.22553 0.37309
 C184 C 0.52275 0.24290 0.40071
 C185 C 0.52227 0.23825 0.57610
 C186 C 0.52018 0.22139 0.61207
 C187 C 0.50334 0.21005 0.65458
 C188 C 0.48930 0.21706 0.66178
 C189 C 0.49144 0.23391 0.62548
 C190 C 0.52740 0.29406 0.59620
 C191 C 0.52844 0.31161 0.62287
 C192 C 0.51100 0.31377 0.62580
 C193 C 0.49253 0.29765 0.60070
 C194 C 0.49169 0.28036 0.57270
 H195 H 0.47816 0.25655 0.39207
 H196 H 0.47753 0.28421 0.32946
 H197 H 0.53910 0.32630 0.39165
 H198 H 0.53938 0.29857 0.45510
 H199 H 0.47604 0.22007 0.47406
 H200 H 0.47424 0.18956 0.42429
 H201 H 0.53640 0.25772 0.39448
 H202 H 0.53521 0.24646 0.54344
 H203 H 0.53213 0.21766 0.60709
 H204 H 0.47582 0.20890 0.69208
 H205 H 0.47993 0.23833 0.62999
 H206 H 0.54098 0.29276 0.59471
 H207 H 0.54284 0.32306 0.64329
 H208 H 0.47883 0.29869 0.59943
 H209 H 0.47749 0.26850 0.55213
 H210 H 0.53479 0.22726 0.34519
 C211 C 0.74661 0.25045 0.53749
 C212 C 0.74390 0.25049 0.47085
 C213 C 0.72649 0.23300 0.43712
 C214 C 0.75868 0.26799 0.42947
 C215 C 0.76619 0.26549 0.56898
 C216 C 0.73016 0.23529 0.58117
 C217 C 0.72133 0.21265 0.45181
 C218 C 0.70398 0.19623 0.42461
 C219 C 0.69192 0.19984 0.38018
 C220 C 0.69769 0.22010 0.36219
 C221 C 0.71482 0.23658 0.39074
 C222 C 0.77011 0.26495 0.38143
 C223 C 0.78680 0.28181 0.35174
 C224 C 0.79204 0.30198 0.36864
 C225 C 0.77945 0.30483 0.41288
 C226 C 0.76297 0.28800 0.44315
 C227 C 0.76631 0.27648 0.62452
 C228 C 0.78473 0.29161 0.65124
 C229 C 0.80350 0.29647 0.62192
 C230 C 0.80317 0.28468 0.56785
 C231 C 0.78482 0.26909 0.54302
 C232 C 0.71051 0.23265 0.57805
 C233 C 0.69457 0.21693 0.61399
 C234 C 0.69802 0.20365 0.65416
 C235 C 0.71794 0.20700 0.65973
 C236 C 0.73388 0.22275 0.62376
 H237 H 0.73052 0.20946 0.48545
 H238 H 0.69994 0.18068 0.43816
 H239 H 0.68858 0.22313 0.32765
 H240 H 0.71864 0.25212 0.37799
 H241 H 0.76700 0.24960 0.37039
 H242 H 0.79620 0.27899 0.31835
 H243 H 0.75410 0.29057 0.47954
 H244 H 0.75212 0.27378 0.64600
 H245 H 0.78406 0.30032 0.69229
 H246 H 0.81713 0.28698 0.54570
 H247 H 0.78518 0.26003 0.50253
 H248 H 0.70743 0.24245 0.54640
 H249 H 0.67949 0.21502 0.60980
 H250 H 0.72106 0.19695 0.68989
 H251 H 0.74896 0.22460 0.62695
 H252 H 0.78269 0.32011 0.42563
 N253 N 0.98326 0.44869 -0.06261
 N254 N 0.96738 0.42998 -0.06636
 N255 N 1.02597 0.48426 -0.10734
 N256 N 1.04245 0.49108 -0.14429
 N257 N 1.02611 0.47246 -0.05949
 N258 N 1.04269 0.47100 -0.06243
 N259 N 0.98324 0.46020 -0.11161
 N260 N 0.96746 0.44957 -0.15040
 C261 C 0.95779 0.43072 -0.12175
 C262 C 1.05273 0.48262 -0.11566
 N263 N 1.02111 0.53300 -0.07216
 N264 N 1.03596 0.55215 -0.07964
 N265 N 0.98020 0.49678 -0.11878
 N266 N 0.96466 0.48938 -0.15989
 N267 N 0.97844 0.50845 -0.07468
 N268 N 0.96168 0.50929 -0.08453
 N269 N 1.02304 0.52102 -0.11459
 N270 N 1.03935 0.53171 -0.15182
 Mn271 Mn 1.00318 0.49060 -0.11399
 C272 C 1.04720 0.55115 -0.12956
 C273 C 0.95324 0.49736 -0.13803
 N274 N 1.02496 0.47336 0.08167
 N275 N 1.04159 0.47222 0.09085
 N276 N 0.98121 0.46180 0.12276
 N277 N 0.96448 0.45177 0.15852
 N278 N 0.98218 0.44963 0.07887
 N279 N 0.96614 0.43103 0.08352
 N280 N 1.02408 0.48594 0.12410
 N281 N 1.04015 0.49381 0.16299
 Mn282 Mn 1.00410 0.46079 0.00962
 C283 C 1.05088 0.48501 0.14189
 C284 C 0.95531 0.43252 0.13383
 N285 N 0.97735 0.50952 0.06746
 N286 N 0.96151 0.51211 0.07591
 N287 N 1.02115 0.52257 0.11673
 N288 N 1.03731 0.53343 0.15378
 N289 N 1.02018 0.53399 0.06910
 N290 N 1.03571 0.55291 0.07242
 N291 N 0.97853 0.49847 0.11585
 N292 N 0.96367 0.49332 0.15856
 Mn293 Mn 0.99918 0.52142 -0.00265
 Mn294 Mn 1.00128 0.49221 0.12065
 Cl295 Cl 1.00193 0.49126 0.00338
 C296 C 0.95308 0.50180 0.13296
 C297 C 1.04619 0.55239 0.12580
 N298 N 0.49419 0.47454 0.08076
 N299 N 0.49135 0.45590 0.09046
 N300 N 0.48652 0.50962 0.12137
 N301 N 0.47745 0.51639 0.16078
 N302 N 0.47374 0.49725 0.07711
 N303 N 0.45559 0.49533 0.08516
 N304 N 0.50706 0.48731 0.12410
 N305 N 0.51320 0.47773 0.16464
 C306 C 0.50326 0.45812 0.14323
 C307 C 0.45816 0.50737 0.13774
 N308 N 0.53651 0.55909 0.06769
 N309 N 0.53791 0.57731 0.06911
 N310 N 0.54552 0.52513 0.11817
 N311 N 0.55520 0.51847 0.15618
 N312 N 0.55754 0.53707 0.07099
 N313 N 0.57567 0.53880 0.07551
 N314 N 0.52458 0.54725 0.11522
 N315 N 0.51744 0.55701 0.14979
 Mn316 Mn 0.51597 0.51732 0.12049
 C317 C 0.52601 0.57579 0.12096
 C318 C 0.57406 0.52724 0.12914
 N319 N 0.47287 0.49549 -0.06500
 N320 N 0.45443 0.49275 -0.07417
 N321 N 0.50573 0.48430 -0.10742
 N322 N 0.51031 0.47322 -0.14635
 N323 N 0.49311 0.47276 -0.06077
 N324 N 0.48864 0.45351 -0.06688
 N325 N 0.48509 0.50660 -0.11311
 N326 N 0.47530 0.51162 -0.15641
 Mn327 Mn 0.48320 0.48480 0.00811
 C328 C 0.45621 0.50293 -0.13151
 C329 C 0.49953 0.45403 -0.12031
 N330 N 0.55675 0.53545 -0.07010
 N331 N 0.57515 0.53801 -0.07693
 N332 N 0.52329 0.54448 -0.11835
 N333 N 0.51607 0.55366 -0.15656
 N334 N 0.53571 0.55730 -0.07417
 N335 N 0.53734 0.57550 -0.08137
 N336 N 0.54419 0.52221 -0.11305
 N337 N 0.55371 0.51527 -0.15002
 Mn338 Mn 0.54683 0.54747 -0.00142
 Mn339 Mn 0.51463 0.51437 -0.11386
 Cl340 Cl 0.51514 0.51597 0.00327
 C341 C 0.57306 0.52537 -0.12699
 C342 C 0.52513 0.57307 -0.13327
 N343 N 0.45103 -0.02025 0.07404
 N344 N 0.43317 -0.03709 0.08217
 N345 N 0.48517 0.02385 0.11039
 N346 N 0.49094 0.04000 0.14832
 N347 N 0.47220 0.02292 0.06571
 N348 N 0.46868 0.03830 0.07228
 N349 N 0.46400 -0.01939 0.11866
 N350 N 0.45537 -0.03564 0.15784
 C351 C 0.43610 -0.04646 0.13498
 C352 C 0.48051 0.04886 0.12393
 N353 N 0.53485 0.02347 0.06186
 N354 N 0.55327 0.03973 0.06457
 N355 N 0.50194 -0.01923 0.11680
 N356 N 0.49445 -0.03599 0.15389
 N357 N 0.51365 -0.01977 0.07030
 N358 N 0.51437 -0.03689 0.07448
 N359 N 0.52323 0.02403 0.10862
 N360 N 0.53349 0.04059 0.14483
 Mn361 Mn 0.49361 0.00236 0.11449
 C362 C 0.55223 0.05022 0.11675
 C363 C 0.50252 -0.04677 0.12725
 N364 N 0.47073 0.02091 -0.07628
 N365 N 0.46912 0.03749 -0.08473
 N366 N 0.46111 -0.02313 -0.11375
 N367 N 0.45112 -0.03992 -0.14899
 N368 N 0.44932 -0.02247 -0.06780
 N369 N 0.43096 -0.03886 -0.07058
 N370 N 0.48228 0.01990 -0.12245
 N371 N 0.48872 0.03561 -0.16348
 Mn372 Mn 0.46057 0.00029 -0.00109
 C373 C 0.48033 0.04642 -0.13980
 C374 C 0.43229 -0.04957 -0.12171
 N375 N 0.51186 -0.02211 -0.07070
 N376 N 0.51390 -0.03851 -0.07360
 N377 N 0.52030 0.02026 -0.12446
 N378 N 0.52946 0.03587 -0.16614
 N379 N 0.53308 0.02114 -0.07919
 N380 N 0.55124 0.03739 -0.08862
 N381 N 0.49909 -0.02288 -0.11583
 N382 N 0.49219 -0.03973 -0.15089
 Mn383 Mn 0.52359 0.00071 -0.00440
 Mn384 Mn 0.49067 -0.00148 -0.11989
 Cl385 Cl 0.49210 0.00048 -0.00269
 C386 C 0.50161 -0.04931 -0.12413
 C387 C 0.54879 0.04639 -0.14324
 C388 C 1.15628 0.47279 0.27917
 C389 C 1.15133 0.48850 0.27418
 C390 C 1.16492 0.50766 0.30274
 C391 C 1.18321 0.51112 0.33165
 C392 C 1.18818 0.49537 0.33648
 C393 C 1.17410 0.47609 0.30996
 C394 C 1.16003 0.52324 0.30343
 C395 C 1.14167 0.52004 0.27790
 C396 C 1.12770 0.50125 0.24844
 C397 C 1.13313 0.48566 0.24339
 C398 C 1.12041 0.46792 0.20671
 C399 C 1.10258 0.46511 0.17814
 C400 C 1.09636 0.47950 0.18654
 C401 C 1.10862 0.49764 0.22274
 C402 C 1.10100 0.51117 0.23288
 C403 C 1.08222 0.50694 0.20705
 C404 C 1.07059 0.48933 0.16967
 C405 C 1.07780 0.47573 0.15929
 H406 H 1.14644 0.45752 0.26104
 H407 H 1.19275 0.52584 0.35449
 H408 H 1.17708 0.46347 0.30931
 H409 H 1.17037 0.53800 0.32497
 H410 H 1.13912 0.53287 0.28027
 H411 H 1.12415 0.45612 0.19742
 H412 H 1.09337 0.45131 0.14998
 H413 H 1.10889 0.52485 0.26201
 H414 H 1.07686 0.51761 0.21604
 H415 H 1.06870 0.46190 0.13111
 C416 C 0.46888 0.64236 0.30650
 C417 C 0.48661 0.64722 0.26965
 C418 C 0.50052 0.66826 0.25632
 C419 C 0.49731 0.68361 0.28241
 C420 C 0.48013 0.67848 0.32103
 C421 C 0.46577 0.65778 0.33165
 C422 C 0.51774 0.67393 0.21782
 C423 C 0.52167 0.65921 0.19242
 C424 C 0.50868 0.63809 0.20576
 C425 C 0.49106 0.63203 0.24608
 C426 C 0.47884 0.61107 0.26325
 C427 C 0.48365 0.59653 0.24219
 C428 C 0.50053 0.60213 0.20207
 C429 C 0.51305 0.62287 0.18178
 C430 C 0.52941 0.62742 0.13832
 C431 C 0.53349 0.61213 0.11817
 C432 C 0.52155 0.59192 0.14087
 C433 C 0.50499 0.58700 0.18235
 H434 H 0.45708 0.62683 0.31679
 H435 H 0.50828 0.69965 0.27295
 H436 H 0.45233 0.65347 0.36116
 H437 H 0.52839 0.68998 0.20735
 H438 H 0.53547 0.66501 0.16404
 H439 H 0.46570 0.60538 0.29478
 H440 H 0.47400 0.58067 0.25759
 H441 H 0.53922 0.64255 0.11826
 H442 H 0.54618 0.61620 0.08517
 H443 H 0.49538 0.57126 0.19901
 C444 C 0.31964 -0.15642 0.26560
 C445 C 0.34045 -0.15055 0.26186
 C446 C 0.34651 -0.16376 0.29146
 C447 C 0.33208 -0.18245 0.32076
 C448 C 0.31137 -0.18814 0.32458
 C449 C 0.30551 -0.17468 0.29674
 C450 C 0.36704 -0.15812 0.29282
 C451 C 0.38183 -0.13931 0.26731
 C452 C 0.37659 -0.12557 0.23744
 C453 C 0.35550 -0.13178 0.23144
 C454 C 0.35015 -0.11919 0.19447
 C455 C 0.36490 -0.10077 0.16653
 C456 C 0.38554 -0.09382 0.17593
 C457 C 0.39172 -0.10594 0.21243
 C458 C 0.41282 -0.09763 0.22377
 C459 C 0.42704 -0.07833 0.19893
 C460 C 0.42082 -0.06676 0.16132
 C461 C 0.40005 -0.07465 0.14955
 H462 H 0.31380 -0.14697 0.24644
 H463 H 0.33737 -0.19192 0.34414
 H464 H 0.28974 -0.17847 0.29671
 H465 H 0.37179 -0.16821 0.31495
 H466 H 0.39729 -0.13621 0.27019
 H467 H 0.33457 -0.12345 0.18465
 H468 H 0.36006 -0.09168 0.13820
 H469 H 0.41882 -0.10537 0.25319
 H470 H 0.44303 -0.07249 0.20891
 H471 H 0.39515 -0.06563 0.12114
 C472 C 0.83693 0.50087 0.22385
 C473 C 0.85283 0.50019 0.25846
 C474 C 0.85087 0.49751 0.32787
 C475 C 0.83415 0.49645 0.36083
 C476 C 0.81871 0.49734 0.32584
 C477 C 0.82012 0.49934 0.25718
 C478 C 0.86552 0.49577 0.36425
 C479 C 0.88197 0.49616 0.33330
 C480 C 0.88468 0.49878 0.26438
 C481 C 0.87039 0.50175 0.22669
 C482 C 0.87436 0.50657 0.15895
 C483 C 0.89149 0.50807 0.12877
 C484 C 0.90500 0.50420 0.16419
 C485 C 0.90152 0.49900 0.23215
 C486 C 0.91489 0.49388 0.26487
 C487 C 0.93136 0.49467 0.23208
 C488 C 0.93524 0.50070 0.16584
 C489 C 0.92196 0.50540 0.13195
 H490 H 0.83678 0.50212 0.17096
 H491 H 0.83288 0.49446 0.41395
 H492 H 0.80822 0.49990 0.22921
 H493 H 0.86417 0.49388 0.41736
 H494 H 0.89268 0.49497 0.36532
 H495 H 0.86477 0.50988 0.12807
 H496 H 0.89404 0.51208 0.07684
 H497 H 0.91281 0.48872 0.31542
 H498 H 0.94123 0.49067 0.25912
 H499 H 0.92465 0.50967 0.08023
 C500 C 0.49621 0.33738 0.22938
 C501 C 0.50416 0.35690 0.25891
 C502 C 0.51428 0.35996 0.32014
 C503 C 0.51570 0.34393 0.35089
 C504 C 0.50737 0.32460 0.32161
 C505 C 0.49779 0.32158 0.26037
 C506 C 0.52281 0.37893 0.35096
 C507 C 0.52162 0.39512 0.32251
 C508 C 0.51156 0.39294 0.26192
 C509 C 0.50240 0.37342 0.23007
 C510 C 0.49148 0.37096 0.17117
 C511 C 0.48958 0.38694 0.14413
 C512 C 0.49868 0.40611 0.17391
 C513 C 0.51005 0.40954 0.23270
 C514 C 0.51949 0.42952 0.25961
 C515 C 0.51725 0.44510 0.23026
 C516 C 0.50559 0.44144 0.17323
 C517 C 0.49641 0.42192 0.14506
 H518 H 0.48878 0.33378 0.18216
 H519 H 0.52296 0.34642 0.39866
 H520 H 0.49156 0.30692 0.23595
 H521 H 0.53052 0.38132 0.39786
 H522 H 0.52847 0.40910 0.35027
 H523 H 0.48383 0.35668 0.14501
 H524 H 0.48089 0.38424 0.09917
 H525 H 0.52890 0.43377 0.30291
 H526 H 0.52471 0.46014 0.25262
 H527 H 0.48755 0.41902 0.10039
 C528 C 0.64030 0.15191 0.37337
 C529 C 0.63752 0.14785 0.30498
 C530 C 0.65332 0.16144 0.26172
 C531 C 0.67069 0.17879 0.28623
 C532 C 0.67313 0.18240 0.35397
 C533 C 0.65792 0.16882 0.39723
 C534 C 0.65190 0.15745 0.19442
 C535 C 0.63549 0.13981 0.16913
 C536 C 0.61945 0.12572 0.21014
 C537 C 0.61993 0.13045 0.27844
 C538 C 0.60272 0.11778 0.31771
 C539 C 0.58602 0.10052 0.29205
 C540 C 0.58600 0.09482 0.22692
 C541 C 0.60280 0.10717 0.18509
 C542 C 0.60246 0.10007 0.12046
 C543 C 0.58606 0.08163 0.09860
 C544 C 0.56937 0.06983 0.13982
 C545 C 0.56934 0.07662 0.20370
 H546 H 0.62951 0.14193 0.40990
 H547 H 0.68269 0.18915 0.25286
 H548 H 0.65971 0.17133 0.44990
 H549 H 0.66382 0.16787 0.16101
 H550 H 0.63557 0.13789 0.11663
 H551 H 0.60147 0.12111 0.36842
 H552 H 0.57312 0.09128 0.32404
 H553 H 0.61490 0.10806 0.08626
 H554 H 0.58645 0.07661 0.04906
 H555 H 0.55656 0.06740 0.23615
 C556 C 0.48512 0.16634 -0.22403
 C557 C 0.49262 0.15417 -0.25122
 C558 C 0.50438 0.16151 -0.30962
 C559 C 0.50811 0.17999 -0.33949
 C560 C 0.50027 0.19185 -0.31291
 C561 C 0.48882 0.18466 -0.25430
 C562 C 0.51221 0.15027 -0.33893
 C563 C 0.50860 0.13177 -0.31195
 C564 C 0.49685 0.12357 -0.25410
 C565 C 0.48877 0.13498 -0.22299
 C566 C 0.47701 0.12674 -0.16512
 C567 C 0.47318 0.10803 -0.13864
 C568 C 0.48086 0.09670 -0.16844
 C569 C 0.49285 0.10430 -0.22652
 C570 C 0.50030 0.09220 -0.25462
 C571 C 0.49604 0.07353 -0.22630
 C572 C 0.48419 0.06611 -0.16912
 C573 C 0.47661 0.07777 -0.14034
 H574 H 0.47634 0.16223 -0.17922
 H575 H 0.51629 0.18437 -0.38583
 H576 H 0.48309 0.19344 -0.22977
 H577 H 0.52124 0.15583 -0.38363
 H578 H 0.51528 0.12425 -0.33826
 H579 H 0.47041 0.13434 -0.13885
 H580 H 0.46405 0.10235 -0.09421
 H581 H 0.50953 0.09660 -0.29845
 H582 H 0.50215 0.06486 -0.24954
 H583 H 0.46749 0.07218 -0.09584
 C584 C 0.64735 0.47666 -0.31286
 C585 C 0.65046 0.49514 -0.28478
 C586 C 0.67076 0.51155 -0.27983
 C587 C 0.68697 0.50982 -0.30553
 C588 C 0.68372 0.49161 -0.33537
 C589 C 0.66364 0.47493 -0.33714
 C590 C 0.67491 0.52974 -0.24926
 C591 C 0.65936 0.53204 -0.22286
 C592 C 0.63881 0.51630 -0.22729
 C593 C 0.63421 0.49785 -0.26093
 C594 C 0.61355 0.48301 -0.27109
 C595 C 0.59794 0.48595 -0.24854
 C596 C 0.60219 0.50347 -0.21328
 C597 C 0.62268 0.51866 -0.20067
 C598 C 0.62615 0.53550 -0.16111
 C599 C 0.61001 0.53745 -0.13731
 C600 C 0.58988 0.52286 -0.15233
 C601 C 0.58604 0.50584 -0.19022
 H602 H 0.63252 0.46314 -0.31632
 H603 H 0.70230 0.52261 -0.29969
 H604 H 0.66013 0.46063 -0.36023
 H605 H 0.69042 0.54238 -0.24548
 H606 H 0.66395 0.54671 -0.20109
 H607 H 0.60891 0.46914 -0.29828
 H608 H 0.58232 0.47427 -0.25837
 H609 H 0.64114 0.54722 -0.14632
 H610 H 0.61334 0.55058 -0.10723
 H611 H 0.57044 0.49425 -0.20083
 C612 C 0.85662 0.34098 -0.37633
 C613 C 0.85960 0.34633 -0.30906
 C614 C 0.84366 0.33402 -0.26449
 C615 C 0.82501 0.31798 -0.28757
 C616 C 0.82214 0.31286 -0.35477
 C617 C 0.83839 0.32448 -0.39841
 C618 C 0.84649 0.33761 -0.19695
 C619 C 0.86502 0.35282 -0.17241
 C620 C 0.88124 0.36569 -0.21494
 C621 C 0.87803 0.36315 -0.28446
 C622 C 0.89310 0.37780 -0.32704
 C623 C 0.91099 0.39402 -0.30263
 C624 C 0.91494 0.39585 -0.23520
 C625 C 0.90038 0.38140 -0.19038
 C626 C 0.90579 0.38308 -0.12296
 C627 C 0.92459 0.39884 -0.10116
 C628 C 0.93838 0.41359 -0.14539
 C629 C 0.93347 0.41205 -0.21232
 H630 H 0.86831 0.34892 -0.41301
 H631 H 0.81315 0.30879 -0.25220
 H632 H 0.83686 0.32146 -0.45077
 H633 H 0.83435 0.32830 -0.16248
 H634 H 0.86595 0.35464 -0.11970
 H635 H 0.89116 0.37757 -0.37969
 H636 H 0.92200 0.40509 -0.33710
 H637 H 0.89606 0.37214 -0.08617
 H638 H 0.92821 0.39969 -0.04923
 H639 H 0.94431 0.42327 -0.24688
 C640 C 0.47455 -0.15780 -0.36994
 C641 C 0.47941 -0.15201 -0.30326
 C642 C 0.48375 -0.16464 -0.26183
 C643 C 0.48241 -0.18271 -0.28607
 C644 C 0.47773 -0.18799 -0.35222
 C645 C 0.47389 -0.17542 -0.39387
 C646 C 0.48979 -0.15896 -0.19687
 C647 C 0.49245 -0.14058 -0.17260
 C648 C 0.48851 -0.12739 -0.21200
 C649 C 0.48076 -0.13380 -0.27705
 C650 C 0.47440 -0.12193 -0.31345
 C651 C 0.47651 -0.10386 -0.28866
 C652 C 0.48551 -0.09658 -0.22750
 C653 C 0.49184 -0.10809 -0.18838
 C654 C 0.50175 -0.09949 -0.12805
 C655 C 0.50498 -0.08042 -0.10757
 C656 C 0.49827 -0.06942 -0.14594
 C657 C 0.48841 -0.07767 -0.20561
 H658 H 0.47189 -0.14867 -0.40550
 H659 H 0.48571 -0.19231 -0.25414
 H660 H 0.47043 -0.17924 -0.44539
 H661 H 0.49296 -0.16863 -0.16477
 H662 H 0.49719 -0.13734 -0.12196
 H663 H 0.46723 -0.12649 -0.36095
 H664 H 0.47137 -0.09527 -0.31834
 H665 H 0.50771 -0.10680 -0.09641
 H666 H 0.51274 -0.07428 -0.06139
 H667 H 0.48333 -0.06915 -0.23590
 C668 C 0.34051 0.50366 -0.21904
 C669 C 0.35698 0.50437 -0.25414
 C670 C 0.35717 0.50657 -0.32368
 C671 C 0.34101 0.50690 -0.35628
 C672 C 0.32469 0.50576 -0.32081
 C673 C 0.32472 0.50446 -0.25203
 C674 C 0.37347 0.50843 -0.36054
 C675 C 0.38986 0.50846 -0.33004
 C676 C 0.39038 0.50609 -0.26109
 C677 C 0.37331 0.50319 -0.22280
 C678 C 0.37291 0.49868 -0.15490
 C679 C 0.38871 0.49728 -0.12523
 C680 C 0.40584 0.50096 -0.16134
 C681 C 0.40718 0.50596 -0.22941
 C682 C 0.42545 0.51088 -0.26279
 C683 C 0.44126 0.51005 -0.23050
 C684 C 0.43943 0.50415 -0.16417
 C685 C 0.42171 0.49971 -0.12966
 H686 H 0.33954 0.50286 -0.16606
 H687 H 0.34123 0.50834 -0.40955
 H688 H 0.31231 0.50376 -0.22373
 H689 H 0.37364 0.51002 -0.41373
 H690 H 0.40165 0.50970 -0.36242
 H691 H 0.36021 0.49548 -0.12352
 H692 H 0.38758 0.49346 -0.07319
 H693 H 0.42823 0.51587 -0.31352
 H694 H 0.45495 0.51388 -0.25796
 H695 H 0.42038 0.49556 -0.07785
 C696 C 1.16874 0.63339 -0.31837
 C697 C 1.15273 0.63511 -0.28944
 C698 C 1.15538 0.65505 -0.28399
 C699 C 1.17276 0.67222 -0.31002
 C700 C 1.18835 0.67033 -0.34071
 C701 C 1.18617 0.65063 -0.34301
 C702 C 1.14067 0.65787 -0.25261
 C703 C 1.12333 0.64133 -0.22595
 C704 C 1.11974 0.62108 -0.23090
 C705 C 1.13432 0.61783 -0.26525
 C706 C 1.12975 0.59742 -0.27575
 C707 C 1.11173 0.58078 -0.25284
 C708 C 1.09777 0.58373 -0.21697
 C709 C 1.10178 0.60392 -0.20408
 C710 C 1.08771 0.60607 -0.16410
 C711 C 1.07018 0.58892 -0.14005
 C712 C 1.06593 0.56907 -0.15522
 C713 C 1.07981 0.56655 -0.19360
 H714 H 1.16837 0.61895 -0.32231
 H715 H 1.17435 0.68724 -0.30381
 H716 H 1.19746 0.64811 -0.36682
 H717 H 1.14258 0.67309 -0.24840
 H718 H 1.11267 0.64491 -0.20348
 H719 H 1.13958 0.59375 -0.30342
 H720 H 1.10876 0.56540 -0.26290
 H721 H 1.08998 0.62076 -0.14920
 H722 H 1.05983 0.59126 -0.10962
 H723 H 1.07681 0.55120 -0.20440
 C724 C 0.83540 0.49401 -0.22019
 C725 C 0.84830 0.48817 -0.25164
 C726 C 0.84258 0.47952 -0.31516
 C727 C 0.82522 0.47773 -0.34650
 C728 C 0.81294 0.48445 -0.31597
 C729 C 0.81824 0.49223 -0.25168
 C730 C 0.85442 0.47298 -0.34789
 C731 C 0.87192 0.47491 -0.31927
 C732 C 0.87855 0.48379 -0.25660
 C733 C 0.86664 0.49073 -0.22248
 C734 C 0.87373 0.50044 -0.16111
 C735 C 0.89177 0.50336 -0.13399
 C736 C 0.90345 0.49657 -0.16626
 C737 C 0.89692 0.48638 -0.22748
 C738 C 0.90917 0.47930 -0.25690
 C739 C 0.92727 0.48273 -0.22754
 C740 C 0.93384 0.49333 -0.16813
 C741 C 0.92176 0.50006 -0.13751
 H742 H 0.83795 0.49985 -0.17080
 H743 H 0.82212 0.47208 -0.39644
 H744 H 0.80881 0.49649 -0.22383
 H745 H 0.85015 0.46633 -0.39652
 H746 H 0.88017 0.46963 -0.34850
 H747 H 0.86590 0.50643 -0.13299
 H748 H 0.89667 0.51110 -0.08711
 H749 H 0.90521 0.47095 -0.30238
 H750 H 0.93624 0.47717 -0.25185
 H751 H 0.92659 0.50805 -0.09100
 C752 C 0.53090 0.36842 -0.32511
 C753 C 0.51378 0.36759 -0.29458
 C754 C 0.49587 0.34815 -0.28898
 C755 C 0.49497 0.33062 -0.31612
 C756 C 0.51200 0.33160 -0.34722
 C757 C 0.53004 0.35080 -0.35029
 C758 C 0.47892 0.34618 -0.25581
 C759 C 0.47940 0.36304 -0.22688
 C760 C 0.49679 0.38280 -0.23153
 C761 C 0.51391 0.38528 -0.26853
 C762 C 0.53034 0.40537 -0.27952
 C763 C 0.53023 0.42241 -0.25429
 C764 C 0.51411 0.42013 -0.21531
 C765 C 0.49740 0.40026 -0.20186
 C766 C 0.48213 0.39867 -0.15833
 C767 C 0.48308 0.41613 -0.13158
 C768 C 0.49910 0.43573 -0.14768
 C769 C 0.51463 0.43765 -0.18942
 H770 H 0.54536 0.38242 -0.32934
 H771 H 0.48111 0.31597 -0.30978
 H772 H 0.54350 0.35260 -0.37473
 H773 H 0.46513 0.33136 -0.25159
 H774 H 0.46557 0.36017 -0.20290
 H775 H 0.54331 0.40852 -0.30942
 H776 H 0.54304 0.43755 -0.26485
 H777 H 0.46947 0.38415 -0.14267
 H778 H 0.47106 0.41426 -0.09861
 H779 H 0.52732 0.45280 -0.20091
 C780 C 0.66698 0.16269 -0.21799
 C781 C 0.64829 0.15035 -0.25101
 C782 C 0.64615 0.15661 -0.31523
 C783 C 0.66227 0.17406 -0.34524
 C784 C 0.68078 0.18580 -0.31236
 C785 C 0.68288 0.18003 -0.24836
 C786 C 0.62803 0.14534 -0.34975
 C787 C 0.61183 0.12786 -0.32220
 C788 C 0.61316 0.12073 -0.25878
 C789 C 0.63178 0.13203 -0.22286
 C790 C 0.63340 0.12443 -0.16059
 C791 C 0.61754 0.10643 -0.13435
 C792 C 0.59930 0.09535 -0.16841
 C793 C 0.59663 0.10245 -0.23058
 C794 C 0.57748 0.09086 -0.26179
 C795 C 0.56201 0.07282 -0.23317
 C796 C 0.56504 0.06566 -0.17279
 C797 C 0.58368 0.07709 -0.14043
 H798 H 0.66986 0.15949 -0.16858
 H799 H 0.66053 0.17823 -0.39515
 H800 H 0.69690 0.18905 -0.22138
 H801 H 0.62634 0.15006 -0.39891
 H802 H 0.59855 0.12004 -0.35279
 H803 H 0.64694 0.13184 -0.13096
 H804 H 0.61961 0.10110 -0.08666
 H805 H 0.57381 0.09531 -0.30809
 H806 H 0.54763 0.06437 -0.25875
 H807 H 0.58605 0.07181 -0.09310
 C808 C 1.16419 0.51567 -0.35614
 C809 C 1.15586 0.50638 -0.29431
 C810 C 1.16612 0.49810 -0.25798
 C811 C 1.18400 0.49935 -0.28256
 C812 C 1.19196 0.50852 -0.34392
 C813 C 1.18187 0.51666 -0.38027
 C814 C 1.15845 0.48845 -0.19743
 C815 C 1.14047 0.48628 -0.17251
 C816 C 1.12942 0.49391 -0.20703
 C817 C 1.13758 0.50471 -0.26793
 C818 C 1.12722 0.51351 -0.30023
 C819 C 1.10919 0.51127 -0.27535
 C820 C 1.10057 0.50001 -0.21776
 C821 C 1.11051 0.49115 -0.18261
 C822 C 1.10086 0.47959 -0.12500
 C823 C 1.08227 0.47702 -0.10362
 C824 C 1.07259 0.48582 -0.13856
 C825 C 1.08190 0.49744 -0.19540
 H826 H 1.15723 0.52193 -0.38793
 H827 H 1.19176 0.49316 -0.25368
 H828 H 1.18742 0.52345 -0.42849
 H829 H 1.16634 0.48226 -0.16916
 H830 H 1.13577 0.47865 -0.12537
 H831 H 1.13275 0.52248 -0.34487
 H832 H 1.10178 0.51827 -0.30204
 H833 H 1.10702 0.47199 -0.09571
 H834 H 1.07540 0.46795 -0.05950
 H835 H 1.07450 0.50431 -0.22281
 C836 C 0.47608 0.64233 -0.35746
 C837 C 0.48939 0.64571 -0.30411
 C838 C 0.49886 0.66536 -0.27482
 C839 C 0.49514 0.68080 -0.29840
 C840 C 0.48206 0.67740 -0.35214
 C841 C 0.47253 0.65777 -0.38071
 C842 C 0.51212 0.66962 -0.22201
 C843 C 0.51655 0.65497 -0.19810
 C844 C 0.50778 0.63523 -0.22598
 C845 C 0.49373 0.63041 -0.27929
 C846 C 0.48451 0.61046 -0.30592
 C847 C 0.48899 0.59583 -0.28220
 C848 C 0.50288 0.60037 -0.23120
 C849 C 0.51253 0.62011 -0.20223
 C850 C 0.52660 0.62386 -0.15080
 C851 C 0.53069 0.60863 -0.12914
 C852 C 0.52102 0.58920 -0.15782
 C853 C 0.50714 0.58518 -0.20895
 H854 H 0.46838 0.62804 -0.38350
 H855 H 0.50213 0.69530 -0.27286
 H856 H 0.46296 0.65432 -0.42371
 H857 H 0.51933 0.68458 -0.19904
 H858 H 0.52694 0.65969 -0.15726
 H859 H 0.47359 0.60552 -0.34530
 H860 H 0.48151 0.58074 -0.30430
 H861 H 0.53483 0.63837 -0.12618
 H862 H 0.54149 0.61214 -0.08947
 H863 H 0.49954 0.57014 -0.23139
 C864 C 0.35758 -0.16453 -0.35168
 C865 C 0.35530 -0.15517 -0.29481
 C866 C 0.33595 -0.16483 -0.26390
 C867 C 0.31978 -0.18312 -0.28895
 C868 C 0.32211 -0.19229 -0.34603
 C869 C 0.34141 -0.18259 -0.37648
 C870 C 0.33271 -0.15618 -0.20810
 C871 C 0.34809 -0.13781 -0.18305
 C872 C 0.36758 -0.12734 -0.21251
 C873 C 0.37140 -0.13645 -0.26831
 C874 C 0.39120 -0.12657 -0.29562
 C875 C 0.40655 -0.10814 -0.27096
 C876 C 0.40288 -0.09869 -0.21837
 C877 C 0.38341 -0.10809 -0.18805
 C878 C 0.38061 -0.09761 -0.13501
 C879 C 0.39646 -0.07873 -0.11352
 C880 C 0.41556 -0.06961 -0.14399
 C881 C 0.41868 -0.07975 -0.19618
 H882 H 0.37152 -0.15806 -0.37956
 H883 H 0.30552 -0.19038 -0.26211
 H884 H 0.34409 -0.18820 -0.42201
 H885 H 0.31799 -0.16358 -0.18382
 H886 H 0.34418 -0.13229 -0.13997
 H887 H 0.39549 -0.13273 -0.33611
 H888 H 0.42148 -0.10113 -0.29380
 H889 H 0.36635 -0.10340 -0.10940
 H890 H 0.39367 -0.07119 -0.07300
 H891 H 0.43346 -0.07284 -0.22001
 C892 C 0.46158 -0.16345 0.35561
 C893 C 0.46847 -0.15592 0.29102
 C894 C 0.47296 -0.16808 0.24900
 C895 C 0.47040 -0.18698 0.27094
 C896 C 0.46420 -0.19389 0.33569
 C897 C 0.45963 -0.18202 0.37745
 C898 C 0.48047 -0.16114 0.18570
 C899 C 0.48473 -0.14184 0.16413
 C900 C 0.48121 -0.12882 0.20478
 C901 C 0.47178 -0.13647 0.26759
 C902 C 0.46599 -0.12443 0.30464
 C903 C 0.47019 -0.10514 0.28270
 C904 C 0.48082 -0.09681 0.22406
 C905 C 0.48666 -0.10844 0.18447
 C906 C 0.49827 -0.09893 0.12708
 C907 C 0.50349 -0.07894 0.10945
 C908 C 0.49726 -0.06774 0.14787
 C909 C 0.48584 -0.07679 0.20506
 H910 H 0.45842 -0.15495 0.39148
 H911 H 0.47372 -0.19612 0.23774
 H912 H 0.45524 -0.18668 0.42820
 H913 H 0.48360 -0.17052 0.15295
 H914 H 0.49050 -0.13768 0.11457
 H915 H 0.45779 -0.12968 0.35053
 H916 H 0.46542 -0.09646 0.31275
 H917 H 0.50407 -0.10628 0.09560
 H918 H 0.51244 -0.07224 0.06522
 H919 H 0.48108 -0.06816 0.23535
 C920 C 0.34083 0.50497 0.22044
 C921 C 0.35949 0.51074 0.25261
 C922 C 0.36192 0.51837 0.31761
 C923 C 0.34590 0.51904 0.34968
 C924 C 0.32727 0.51258 0.31789
 C925 C 0.32507 0.50588 0.25264
 C926 C 0.38023 0.52504 0.35083
 C927 C 0.39632 0.52437 0.32116
 C928 C 0.39462 0.51654 0.25706
 C929 C 0.37574 0.50916 0.22279
 C930 C 0.37352 0.49990 0.16082
 C931 C 0.38912 0.49783 0.13328
 C932 C 0.40772 0.50529 0.16542
 C933 C 0.41097 0.51525 0.22693
 C934 C 0.43051 0.52352 0.25566
 C935 C 0.44571 0.52109 0.22606
 C936 C 0.44207 0.51039 0.16699
 C937 C 0.42311 0.50274 0.13642
 H938 H 0.33793 0.49986 0.17017
 H939 H 0.34782 0.52414 0.40029
 H940 H 0.31108 0.50137 0.22608
 H941 H 0.38216 0.53085 0.40057
 H942 H 0.40974 0.52955 0.35093
 H943 H 0.35962 0.49346 0.13291
 H944 H 0.38657 0.49027 0.08614
 H945 H 0.43469 0.53216 0.30058
 H946 H 0.46039 0.52751 0.25005
 H947 H 0.42030 0.49480 0.08993
 C948 C 1.15897 0.63356 0.35604
 C949 C 1.14966 0.63457 0.29660
 C950 C 1.15903 0.65347 0.26127
 C951 C 1.17703 0.67039 0.28440
 C952 C 1.18596 0.66911 0.34343
 C953 C 1.17674 0.65054 0.37883
 C954 C 1.15035 0.65552 0.20322
 C955 C 1.13225 0.63938 0.17985
 C956 C 1.12211 0.62029 0.21338
 C957 C 1.13127 0.61765 0.27170
 C958 C 1.12181 0.59817 0.30293
 C959 C 1.10376 0.58200 0.27939
 C960 C 1.09424 0.58454 0.22426
 C961 C 1.10318 0.60368 0.19036
 C962 C 1.09261 0.60541 0.13522
 C963 C 1.07417 0.58880 0.11471
 C964 C 1.06558 0.56996 0.14824
 C965 C 1.07572 0.56793 0.20294
 H966 H 1.15272 0.62007 0.38707
 H967 H 1.18412 0.68463 0.25626
 H968 H 1.18303 0.64922 0.42537
 H969 H 1.15753 0.66989 0.17576
 H970 H 1.12671 0.64237 0.13464
 H971 H 1.12808 0.59476 0.34557
 H972 H 1.09708 0.56733 0.30508
 H973 H 1.09797 0.61940 0.10715
 H974 H 1.06660 0.59077 0.07228
 H975 H 1.06918 0.55337 0.22924
 C976 C 0.51914 0.16642 0.33842
 C977 C 0.50223 0.15199 0.30129
 C978 C 0.48626 0.15624 0.28952
 C979 C 0.48696 0.17372 0.31633
 C980 C 0.50371 0.18765 0.35346
 C981 C 0.51982 0.18394 0.36372
 C982 C 0.46968 0.14308 0.25087
 C983 C 0.46865 0.12589 0.22250
 C984 C 0.48405 0.12085 0.23288
 C985 C 0.50074 0.13370 0.27491
 C986 C 0.51512 0.12761 0.29020
 C987 C 0.51351 0.10981 0.26458
 C988 C 0.49782 0.09760 0.22145
 C989 C 0.48308 0.10312 0.20383
 C990 C 0.46811 0.09074 0.15717
 C991 C 0.46750 0.07334 0.13112
 C992 C 0.48163 0.06759 0.15073
 C993 C 0.49683 0.07984 0.19573
 H994 H 0.53227 0.16485 0.34787
 H995 H 0.47459 0.17672 0.30731
 H996 H 0.53296 0.19457 0.39217
 H997 H 0.45739 0.14620 0.24197
 H998 H 0.45521 0.11650 0.19393
 H999 H 0.52762 0.13601 0.32348
 H1000 H 0.52479 0.10565 0.27837
 H1001 H 0.45686 0.09423 0.13876
 H1002 H 0.45576 0.06427 0.09572
 H1003 H 0.50806 0.07568 0.21031
 C1004 C 0.64880 0.48732 0.36379
 C1005 C 0.65047 0.49797 0.30405
 C1006 C 0.66907 0.50616 0.26867
 C1007 C 0.68506 0.50356 0.29219
 C1008 C 0.68316 0.49309 0.35155
 C1009 C 0.66487 0.48499 0.38690
 C1010 C 0.67174 0.51705 0.21017
 C1011 C 0.65655 0.52048 0.18629
 C1012 C 0.63783 0.51294 0.21986
 C1013 C 0.63452 0.50103 0.27880
 C1014 C 0.61537 0.49251 0.31029
 C1015 C 0.60015 0.49589 0.28622
 C1016 C 0.60336 0.50802 0.23027
 C1017 C 0.62224 0.51681 0.19625
 C1018 C 0.62475 0.52930 0.14035
 C1019 C 0.60914 0.53265 0.11916
 C1020 C 0.59052 0.52376 0.15268
 C1021 C 0.58772 0.51143 0.20823
 H1022 H 0.63548 0.48094 0.39473
 H1023 H 0.69907 0.50973 0.26407
 H1024 H 0.66312 0.47719 0.43364
 H1025 H 0.68586 0.52321 0.18268
 H1026 H 0.65998 0.52901 0.14069
 H1027 H 0.61149 0.48290 0.35360
 H1028 H 0.58570 0.48900 0.31212
 H1029 H 0.63862 0.53695 0.11211
 H1030 H 0.61171 0.54229 0.07612
 H1031 H 0.57335 0.50450 0.23457
 C1032 C 0.84161 0.35287 0.36467
 C1033 C 0.84925 0.35334 0.30076
 C1034 C 0.83750 0.33638 0.25927
 C1035 C 0.81861 0.32010 0.28056
 C1036 C 0.81129 0.31987 0.34409
 C1037 C 0.82307 0.33640 0.38581
 C1038 C 0.84475 0.33558 0.19700
 C1039 C 0.86376 0.35091 0.17559
 C1040 C 0.87614 0.36805 0.21518
 C1041 C 0.86833 0.36977 0.27738
 C1042 C 0.87969 0.38796 0.31366
 C1043 C 0.89839 0.40363 0.29123
 C1044 C 0.90677 0.40164 0.23271
 C1045 C 0.89595 0.38371 0.19421
 C1046 C 0.90563 0.38207 0.13692
 C1047 C 0.92494 0.39779 0.11818
 C1048 C 0.93519 0.41571 0.15533
 C1049 C 0.92602 0.41752 0.21261
 H1050 H 0.84992 0.36462 0.40052
 H1051 H 0.80968 0.30748 0.24759
 H1052 H 0.81825 0.33639 0.43597
 H1053 H 0.83577 0.32275 0.16478
 H1054 H 0.86814 0.34911 0.12678
 H1055 H 0.87431 0.39083 0.35911
 H1056 H 0.90649 0.41737 0.32057
 H1057 H 0.89893 0.36868 0.10624
 H1058 H 0.93181 0.39593 0.07406
 H1059 H 0.93397 0.43126 0.24208
   
