data_POSCAR
  _audit_creation_date              2014-09-24
  _audit_creation_method            'ToBaCCo'
  _symmetry_space_group_name_H-M    'P1'
  _symmetry_Int_Tables_number       1
  _symmetry_cell_setting            triclinic
  loop_
  _symmetry_equiv_pos_as_xyz
 x,y,z
_cell_length_a 29.3224
_cell_length_b 29.0895
_cell_length_c 29.3624
_cell_angle_alpha 89.894800
_cell_angle_beta 89.982200
_cell_angle_gamma 90.035900
loop_
  _atom_site_label
  _atom_site_type_symbol
  _atom_site_fract_x
  _atom_site_fract_y
  _atom_site_fract_z
N1 N 0.57139 0.69980 0.60593
 N2 N 0.55381 0.68073 0.64258
 C3 C 0.51693 0.70493 0.65550
 C4 C 0.51068 0.74077 0.62513
 C5 C 0.54605 0.73654 0.59412
 H6 H 0.49571 0.69708 0.68462
 H7 H 0.55312 0.75853 0.56528
 Cu8 Cu 0.58006 0.62553 0.66926
 Cu9 Cu 0.62600 0.67573 0.57651
 Cu10 Cu 0.67436 0.57837 0.62477
 N11 N 0.60780 0.57117 0.69624
 N12 N 0.64506 0.55332 0.67882
 C13 C 0.65745 0.51655 0.70368
 C14 C 0.62606 0.51053 0.73842
 C15 C 0.59501 0.54608 0.73274
 H16 H 0.68699 0.49536 0.69694
 H17 H 0.56556 0.55347 0.75356
 N18 N 0.69914 0.60858 0.57010
 N19 N 0.68129 0.64601 0.55196
 C20 C 0.70651 0.65852 0.51556
 C21 C 0.74182 0.62732 0.51058
 C22 C 0.73582 0.59610 0.54557
 H23 H 0.69940 0.68787 0.49414
 H24 H 0.75706 0.56655 0.55255
 H25 H 0.61682 0.60847 0.59672
 H26 H 0.65277 0.64552 0.63418
 N27 N 0.92885 0.30367 0.10547
 N28 N 0.94617 0.32140 0.14276
 C29 C 0.98259 0.29626 0.15565
 C30 C 0.98831 0.26079 0.12461
 C31 C 0.95368 0.26691 0.09314
 H32 H 1.00332 0.30356 0.18515
 H33 H 0.94701 0.24582 0.06358
 Cu34 Cu 0.91920 0.37573 0.17042
 Cu35 Cu 0.87498 0.32885 0.07599
 Cu36 Cu 0.82673 0.42614 0.12416
 N37 N 0.89255 0.43091 0.19655
 N38 N 0.85600 0.45006 0.17886
 C39 C 0.84423 0.48681 0.20411
 C40 C 0.87517 0.49095 0.23953
 C41 C 0.90545 0.45507 0.23340
 H42 H 0.81551 0.50889 0.19690
 H43 H 0.93452 0.44718 0.25466
 N44 N 0.80233 0.39657 0.06881
 N45 N 0.82047 0.35917 0.05102
 C46 C 0.79604 0.34676 0.01429
 C47 C 0.76111 0.37798 0.00819
 C48 C 0.76601 0.40912 0.04350
 H49 H 0.80302 0.31722 -0.00688
 H50 H 0.74458 0.43843 0.05055
 H51 H 0.88452 0.39595 0.09769
 H52 H 0.84669 0.35885 0.13337
 N53 N 0.42894 0.20036 -0.10555
 N54 N 0.44657 0.18122 -0.14206
 C55 C 0.48350 0.20540 -0.15504
 C56 C 0.48973 0.24129 -0.12486
 C57 C 0.45430 0.23713 -0.09389
 H58 H 0.50474 0.19753 -0.18411
 H59 H 0.44716 0.25920 -0.06522
 Cu60 Cu 0.42027 0.12603 -0.16859
 Cu61 Cu 0.37417 0.17641 -0.07618
 Cu62 Cu 0.32559 0.07919 -0.12420
 N63 N 0.39231 0.07179 -0.19545
 N64 N 0.35492 0.05407 -0.17808
 C65 C 0.34241 0.01738 -0.20288
 C66 C 0.37378 0.01137 -0.23750
 C67 C 0.40502 0.04667 -0.23185
 H68 H 0.31280 -0.00376 -0.19619
 H69 H 0.43458 0.05374 -0.25267
 N70 N 0.30079 0.10944 -0.06971
 N71 N 0.31873 0.14682 -0.05165
 C72 C 0.29348 0.15935 -0.01533
 C73 C 0.25805 0.12821 -0.01034
 C74 C 0.26402 0.09701 -0.04522
 H75 H 0.30064 0.18866 0.00603
 H76 H 0.24272 0.06749 -0.05214
 H77 H 0.38319 0.10913 -0.09610
 H78 H 0.34753 0.14627 -0.13384
 N79 N 0.07123 0.80287 0.39432
 N80 N 0.05372 0.82087 0.35717
 C81 C 0.01724 0.79579 0.34438
 C82 C 0.01166 0.76007 0.37531
 C83 C 0.04645 0.76600 0.40663
 H84 H -0.00366 0.80330 0.31502
 H85 H 0.05324 0.74471 0.43610
 Cu86 Cu 0.08054 0.87545 0.32961
 Cu87 Cu 0.12523 0.82791 0.42365
 Cu88 Cu 0.17321 0.92565 0.37563
 N89 N 0.10707 0.93087 0.30356
 N90 N 0.14369 0.94993 0.32116
 C91 C 0.15541 0.98683 0.29596
 C92 C 0.12436 0.99118 0.26066
 C93 C 0.09406 0.95525 0.26681
 H94 H 0.18421 1.00884 0.30309
 H95 H 0.06494 0.94745 0.24560
 N96 N 0.19787 0.89571 0.43076
 N97 N 0.17984 0.85813 0.44848
 C98 C 0.20440 0.84556 0.48512
 C99 C 0.23928 0.87686 0.49121
 C100 C 0.23422 0.90821 0.45601
 H101 H 0.19748 0.81590 0.50627
 H102 H 0.25553 0.93769 0.44902
 H103 H 0.11555 0.89514 0.40227
 H104 H 0.15323 0.85839 0.36627
 N105 N 0.11467 0.11891 0.11679
 N106 N 0.36623 0.86771 0.63463
 N107 N 0.88508 0.61821 0.38335
 N108 N 0.63399 0.36863 -0.13505
 C109 C 0.02213 0.22533 0.12342
 C110 C 0.00125 0.17709 0.11922
 C111 C 0.03251 0.14295 0.11515
 C112 C 0.08242 0.15909 0.11771
 C113 C 0.08528 0.19536 0.07878
 C114 C 0.05391 0.22967 0.08213
 C115 C 0.05461 0.22234 0.16459
 C116 C 0.08631 0.18835 0.16122
 H117 H -0.03517 0.17036 0.11822
 H118 H 0.02270 0.10730 0.11033
 H119 H 0.10975 0.19636 0.05135
 H120 H 0.05245 0.25786 0.05786
 H121 H 0.05391 0.24530 0.19360
 H122 H 0.11242 0.18318 0.18690
 C123 C 0.47307 0.77606 0.62705
 C124 C 0.47687 0.80752 0.66867
 C125 C 0.44240 0.83864 0.67237
 C126 C 0.40653 0.83576 0.63339
 C127 C 0.43560 0.84063 0.58991
 C128 C 0.46978 0.80920 0.58627
 C129 C 0.42560 0.75423 0.63108
 C130 C 0.39125 0.78518 0.63546
 H131 H 0.50478 0.80595 0.69291
 H132 H 0.44294 0.86291 0.70011
 H133 H 0.43019 0.86720 0.56450
 H134 H 0.49281 0.80903 0.55740
 H135 H 0.41960 0.71741 0.63186
 H136 H 0.35603 0.77471 0.64029
 C137 C 0.97779 0.72462 0.37656
 C138 C 0.99860 0.67636 0.38076
 C139 C 0.96728 0.64222 0.38489
 C140 C 0.91740 0.65838 0.38237
 C141 C 0.91465 0.69454 0.42128
 C142 C 0.94607 0.72884 0.41788
 C143 C 0.94527 0.72177 0.33542
 C144 C 0.91351 0.68778 0.33885
 H145 H 1.03501 0.66960 0.38172
 H146 H 0.97704 0.60654 0.38973
 H147 H 0.89020 0.69546 0.44874
 H148 H 0.94761 0.75695 0.44213
 H149 H 0.94599 0.74480 0.30638
 H150 H 0.88737 0.68269 0.31319
 C151 C 0.52731 0.27668 -0.12696
 C152 C 0.53064 0.30979 -0.08629
 C153 C 0.56476 0.34132 -0.09010
 C154 C 0.59374 0.33657 -0.13363
 C155 C 0.60909 0.28603 -0.13560
 C156 C 0.57479 0.25498 -0.13105
 C157 C 0.52336 0.30815 -0.16866
 C158 C 0.55777 0.33937 -0.17253
 H159 H 0.50769 0.30952 -0.05735
 H160 H 0.57020 0.36787 -0.06477
 H161 H 0.64431 0.27565 -0.14048
 H162 H 0.58085 0.21818 -0.13173
 H163 H 0.49538 0.30654 -0.19283
 H164 H 0.55711 0.36368 -0.20033
 C165 C 0.12237 0.02667 0.22320
 C166 C 0.08072 0.05818 0.22719
 C167 C 0.07698 0.08950 0.19287
 C168 C 0.11594 0.08674 0.15694
 C169 C 0.15953 0.09137 0.18588
 C170 C 0.16322 0.05975 0.21991
 C171 C 0.11823 0.00511 0.17575
 C172 C 0.11380 0.03624 0.14154
 H173 H 0.05649 0.05651 0.25512
 H174 H 0.04922 0.11382 0.19354
 H175 H 0.18499 0.11792 0.18048
 H176 H 0.19219 0.05940 0.24283
 H177 H 0.11742 -0.03168 0.16965
 H178 H 0.10889 0.02597 0.10635
 C179 C 0.62730 0.47506 -0.22772
 C180 C 0.66868 0.47935 -0.19606
 C181 C 0.67205 0.44503 -0.16465
 C182 C 0.63306 0.40882 -0.16735
 C183 C 0.58950 0.43814 -0.16347
 C184 C 0.58610 0.47214 -0.19521
 C185 C 0.63147 0.42682 -0.24846
 C186 C 0.63557 0.39268 -0.21716
 H187 H 0.69299 0.50750 -0.19763
 H188 H 0.69954 0.44599 -0.14025
 H189 H 0.56381 0.43302 -0.13734
 H190 H 0.55705 0.49513 -0.19592
 H191 H 0.63244 0.42008 -0.28481
 H192 H 0.64039 0.35702 -0.22687
 C193 C 0.37247 0.97402 0.72697
 C194 C 0.33118 0.97824 0.69527
 C195 C 0.32794 0.94397 0.66393
 C196 C 0.36701 0.90786 0.66683
 C197 C 0.41053 0.93736 0.66300
 C198 C 0.41372 0.97134 0.69467
 C199 C 0.36827 0.92585 0.74787
 C200 C 0.36438 0.89168 0.71669
 H201 H 0.30685 1.00631 0.69684
 H202 H 0.30049 0.94485 0.63948
 H203 H 0.43628 0.93241 0.63692
 H204 H 0.44252 0.99468 0.69550
 H205 H 0.36705 0.91925 0.78426
 H206 H 0.35952 0.85602 0.72650
 C207 C 0.87718 0.52631 0.27698
 C208 C 0.88131 0.50459 0.32444
 C209 C 0.88579 0.53562 0.35864
 C210 C 0.88373 0.58616 0.34321
 C211 C 0.92267 0.58903 0.30726
 C212 C 0.91887 0.55783 0.27296
 C213 C 0.83637 0.55938 0.28027
 C214 C 0.84012 0.59089 0.31429
 H215 H 0.88207 0.46778 0.33056
 H216 H 0.89070 0.52523 0.39383
 H217 H 0.95046 0.61336 0.30655
 H218 H 0.94308 0.55625 0.24502
 H219 H 0.80740 0.55909 0.25737
 H220 H 0.81469 0.61741 0.31970
 C221 C 0.22077 0.12653 0.02502
 C222 C 0.17317 0.12185 0.00388
 C223 C 0.13910 0.11747 0.03488
 C224 C 0.15475 0.12020 0.08482
 C225 C 0.19096 0.08121 0.08793
 C226 C 0.22515 0.08489 0.05675
 C227 C 0.21745 0.16801 0.05727
 C228 C 0.18353 0.16439 0.08878
 H229 H 0.16688 0.12068 -0.03254
 H230 H 0.10384 0.11223 0.02488
 H231 H 0.19202 0.05358 0.11247
 H232 H 0.25330 0.06070 0.05538
 H233 H 0.24029 0.19732 0.05647
 H234 H 0.17812 0.19027 0.11479
 C235 C 0.77907 0.62566 0.47519
 C236 C 0.77458 0.58411 0.44351
 C237 C 0.80874 0.58048 0.41230
 C238 C 0.84503 0.61944 0.41534
 C239 C 0.81633 0.66365 0.41136
 C240 C 0.78245 0.66723 0.44289
 C241 C 0.82668 0.62089 0.49630
 C242 C 0.86071 0.61656 0.46527
 H243 H 0.74639 0.55993 0.44493
 H244 H 0.80762 0.55291 0.38779
 H245 H 0.82177 0.68960 0.38531
 H246 H 0.75968 0.69655 0.44367
 H247 H 0.83300 0.61961 0.53271
 H248 H 0.89597 0.61125 0.47525
 C249 C 0.72575 0.37629 -0.02906
 C250 C 0.74699 0.37154 -0.07656
 C251 C 0.71598 0.36715 -0.11060
 C252 C 0.66596 0.36995 -0.09501
 C253 C 0.66281 0.33099 -0.05872
 C254 C 0.69399 0.33469 -0.02457
 C255 C 0.69344 0.41780 -0.03254
 C256 C 0.66194 0.41417 -0.06642
 H257 H 0.78346 0.37033 -0.08282
 H258 H 0.72605 0.36186 -0.14578
 H259 H 0.63826 0.30337 -0.05759
 H260 H 0.69533 0.31051 0.00362
 H261 H 0.69422 0.44713 -0.00984
 H262 H 0.63590 0.44007 -0.07193
 C263 C 0.27461 0.87519 0.52849
 C264 C 0.30684 0.91680 0.53192
 C265 C 0.33830 0.91322 0.56585
 C266 C 0.33433 0.86895 0.59453
 C267 C 0.28429 0.86597 0.61006
 C268 C 0.25332 0.87031 0.57598
 C269 C 0.30646 0.83370 0.52414
 C270 C 0.33761 0.83006 0.55834
 H271 H 0.30606 0.94615 0.50915
 H272 H 0.36430 0.93919 0.57132
 H273 H 0.27419 0.86059 0.64525
 H274 H 0.21685 0.86897 0.58219
 H275 H 0.30520 0.80956 0.49600
 H276 H 0.36222 0.80253 0.55731
   
