data_POSCAR
  _audit_creation_date              2014-09-24
  _audit_creation_method            'ToBaCCo'
  _symmetry_space_group_name_H-M    'P1'
  _symmetry_Int_Tables_number       1
  _symmetry_cell_setting            triclinic
  loop_
  _symmetry_equiv_pos_as_xyz
 x,y,z
_cell_length_a 52.4806
_cell_length_b 51.4914
_cell_length_c 50.8090
_cell_angle_alpha 90.816900
_cell_angle_beta 90.697300
_cell_angle_gamma 90.064700
loop_
  _atom_site_label
  _atom_site_type_symbol
  _atom_site_fract_x
  _atom_site_fract_y
  _atom_site_fract_z
N1 N 0.59297 0.66056 0.61541
 N2 N 0.58512 0.65059 0.63757
 C3 C 0.56449 0.66381 0.64581
 C4 C 0.55905 0.68299 0.62777
 C5 C 0.57749 0.68026 0.60868
 H6 H 0.55432 0.65996 0.66371
 H7 H 0.58013 0.69244 0.59177
 Cu8 Cu 0.60316 0.62186 0.65382
 Cu9 Cu 0.62413 0.64913 0.59835
 Cu10 Cu 0.65872 0.60074 0.62934
 N11 N 0.62162 0.59315 0.66965
 N12 N 0.64388 0.58584 0.66067
 C13 C 0.65262 0.56589 0.67498
 C14 C 0.63473 0.55999 0.69393
 C15 C 0.61528 0.57787 0.68985
 H16 H 0.67023 0.55582 0.67101
 H17 H 0.59778 0.57969 0.70069
 N18 N 0.67023 0.61791 0.59718
 N19 N 0.65635 0.63519 0.58452
 C20 C 0.66843 0.64176 0.56233
 C21 C 0.69110 0.62817 0.56114
 C22 C 0.69165 0.61330 0.58356
 H23 H 0.66149 0.65568 0.54823
 H24 H 0.70628 0.59958 0.58908
 H25 H 0.62440 0.61164 0.61255
 H26 H 0.64172 0.63693 0.63251
 N27 N 0.90974 0.33743 0.11022
 N28 N 0.92063 0.35061 0.12962
 C29 C 0.94277 0.33907 0.13620
 C30 C 0.94579 0.31710 0.12037
 C31 C 0.92428 0.31675 0.10414
 H32 H 0.95526 0.34570 0.15196
 H33 H 0.91966 0.30284 0.08869
 Cu34 Cu 0.90403 0.38068 0.14540
 Cu35 Cu 0.87786 0.34845 0.09381
 Cu36 Cu 0.84858 0.40282 0.12085
 N37 N 0.88708 0.41070 0.16083
 N38 N 0.86586 0.41982 0.15053
 C39 C 0.85861 0.44100 0.16433
 C40 C 0.87601 0.44513 0.18460
 C41 C 0.89379 0.42551 0.18187
 H42 H 0.84164 0.45224 0.16031
 H43 H 0.91049 0.42253 0.19412
 N44 N 0.83409 0.38294 0.09081
 N45 N 0.84557 0.36270 0.08001
 C46 C 0.83139 0.35399 0.05943
 C47 C 0.80981 0.36923 0.05748
 C48 C 0.81210 0.38732 0.07770
 H49 H 0.83612 0.33751 0.04700
 H50 H 0.79886 0.40279 0.08220
 H51 H 0.88100 0.38727 0.10409
 H52 H 0.86321 0.36611 0.12710
 N53 N 0.39469 0.17287 -0.11773
 N54 N 0.40889 0.15723 -0.13202
 C55 C 0.43039 0.16975 -0.13856
 C56 C 0.42951 0.19465 -0.12796
 C57 C 0.40654 0.19595 -0.11492
 H58 H 0.44542 0.16144 -0.15035
 H59 H 0.39937 0.21222 -0.10355
 Cu60 Cu 0.39799 0.12213 -0.14122
 Cu61 Cu 0.36301 0.16142 -0.10202
 Cu62 Cu 0.33924 0.10248 -0.12416
 N63 N 0.38147 0.09236 -0.15818
 N64 N 0.35837 0.08512 -0.15179
 C65 C 0.35112 0.06500 -0.16731
 C66 C 0.37076 0.05920 -0.18435
 C67 C 0.38980 0.07694 -0.17791
 H68 H 0.33286 0.05535 -0.16630
 H69 H 0.40800 0.07903 -0.18741
 N70 N 0.32281 0.12321 -0.09637
 N71 N 0.33147 0.14609 -0.08838
 C72 C 0.31644 0.15525 -0.06905
 C73 C 0.29753 0.13713 -0.06453
 C74 C 0.30218 0.11709 -0.08225
 H75 H 0.31959 0.17327 -0.05833
 H76 H 0.29143 0.09928 -0.08457
 H77 H 0.36883 0.12176 -0.10433
 H78 H 0.35507 0.13782 -0.13426
 N79 N 0.09605 0.83190 0.38361
 N80 N 0.08306 0.84557 0.36645
 C81 C 0.06103 0.83324 0.36066
 C82 C 0.06020 0.81032 0.37472
 C83 C 0.08297 0.81014 0.38896
 H84 H 0.04681 0.84040 0.34704
 H85 H 0.08913 0.79595 0.40313
 Cu86 Cu 0.09628 0.87810 0.35328
 Cu87 Cu 0.12747 0.84476 0.39999
 Cu88 Cu 0.14866 0.90538 0.38051
 N89 N 0.10940 0.91106 0.34115
 N90 N 0.12919 0.92224 0.35269
 C91 C 0.13424 0.94472 0.34056
 C92 C 0.11690 0.94756 0.32008
 C93 C 0.10143 0.92585 0.32102
 H94 H 0.15006 0.95745 0.34544
 H95 H 0.08570 0.92115 0.30786
 N96 N 0.16591 0.88497 0.40800
 N97 N 0.15853 0.86142 0.41450
 C98 C 0.17468 0.85221 0.43293
 C99 C 0.19303 0.87089 0.43841
 C100 C 0.18684 0.89140 0.42225
 H101 H 0.17290 0.83353 0.44217
 H102 H 0.19710 0.90952 0.42073
 H103 H 0.11894 0.88357 0.39513
 H104 H 0.13904 0.86791 0.36933
 C105 C 0.10011 0.14236 0.12516
 N106 N 0.09923 0.12280 0.14277
 C107 C 0.11678 0.10345 0.14215
 N108 N 0.13511 0.10361 0.12352
 C109 C 0.13635 0.12319 0.10592
 N110 N 0.11884 0.14260 0.10694
 C111 C 0.40010 0.85579 0.62102
 N112 N 0.40133 0.87378 0.64085
 C113 C 0.38404 0.89337 0.64218
 N114 N 0.36540 0.89481 0.62346
 C115 C 0.36391 0.87698 0.60354
 N116 N 0.38134 0.85753 0.60246
 C117 C 0.90104 0.63998 0.38311
 N118 N 0.88300 0.64181 0.40199
 C119 C 0.86352 0.62442 0.40258
 N120 N 0.86215 0.60515 0.38406
 C121 C 0.88005 0.60322 0.36504
 N122 N 0.89946 0.62067 0.36469
 C123 C 0.60747 0.34718 -0.13011
 N124 N 0.62814 0.34545 -0.11386
 C125 C 0.64754 0.36281 -0.11540
 N126 N 0.64622 0.38196 -0.13345
 C127 C 0.62554 0.38416 -0.14960
 N128 N 0.60616 0.36674 -0.14776
 C129 C -0.01141 0.30439 0.13526
 C130 C 0.00844 0.28631 0.13601
 C131 C 0.00576 0.26216 0.12341
 C132 C -0.01670 0.25651 0.10920
 C133 C -0.03626 0.27484 0.10769
 C134 C -0.03411 0.29897 0.12103
 N135 N 0.02601 0.24367 0.12521
 N136 N 0.02175 0.21940 0.12312
 C137 C 0.04182 0.20066 0.12409
 C138 C 0.03607 0.17520 0.13120
 C139 C 0.05520 0.15639 0.13218
 C140 C 0.08027 0.16262 0.12520
 C141 C 0.08598 0.18811 0.11771
 C142 C 0.06695 0.20712 0.11750
 H143 H -0.00857 0.32276 0.14547
 H144 H 0.02577 0.29094 0.14688
 H145 H -0.01902 0.23799 0.09909
 H146 H -0.05329 0.26960 0.09665
 H147 H 0.01675 0.17000 0.13620
 H148 H 0.05028 0.13681 0.13779
 H149 H 0.10518 0.19335 0.11225
 H150 H 0.07171 0.22667 0.11171
 C151 C 0.52879 0.71059 0.65375
 C152 C 0.51055 0.73032 0.65528
 C153 C 0.50193 0.74264 0.63250
 C154 C 0.51184 0.73505 0.60799
 C155 C 0.53033 0.71558 0.60647
 C156 C 0.53901 0.70316 0.62933
 N157 N 0.48351 0.76304 0.63479
 N158 N 0.47247 0.77266 0.61473
 C159 C 0.45446 0.79344 0.61687
 C160 C 0.43993 0.80003 0.59471
 C161 C 0.42216 0.82018 0.59608
 C162 C 0.41893 0.83442 0.61963
 C163 C 0.43378 0.82793 0.64181
 C164 C 0.45128 0.80750 0.64050
 H165 H 0.53526 0.70160 0.67175
 H166 H 0.50312 0.73605 0.67429
 H167 H 0.50552 0.74435 0.59009
 H168 H 0.53770 0.71016 0.58736
 H169 H 0.44228 0.78940 0.57636
 H170 H 0.41113 0.82477 0.57860
 H171 H 0.43169 0.83847 0.66026
 H172 H 0.46243 0.80284 0.65787
 C173 C 1.01630 0.79731 0.36376
 C174 C 0.99645 0.77926 0.36477
 C175 C 1.00032 0.75509 0.37629
 C176 C 1.02422 0.74924 0.38733
 C177 C 1.04393 0.76752 0.38704
 C178 C 1.04035 0.79184 0.37510
 N179 N 0.97963 0.73700 0.37689
 N180 N 0.98331 0.71272 0.37926
 C181 C 0.96253 0.69479 0.38057
 C182 C 0.96648 0.66881 0.37331
 C183 C 0.94638 0.65100 0.37386
 C184 C 0.92222 0.65880 0.38254
 C185 C 0.91844 0.68474 0.39045
 C186 C 0.93836 0.70271 0.38916
 H187 H 1.01237 0.81574 0.35465
 H188 H 0.97803 0.78402 0.35631
 H189 H 1.02754 0.73067 0.39650
 H190 H 1.06204 0.76222 0.39580
 H191 H 0.98506 0.66248 0.36678
 H192 H 0.94980 0.63106 0.36784
 H193 H 0.89996 0.69121 0.39716
 H194 H 0.93500 0.72267 0.39510
 C195 C 0.44243 0.24148 -0.12762
 C196 C 0.46112 0.26082 -0.12855
 C197 C 0.48686 0.25415 -0.13060
 C198 C 0.49373 0.22781 -0.13236
 C199 C 0.47502 0.20847 -0.13196
 C200 C 0.44921 0.21512 -0.12933
 N201 N 0.50563 0.27436 -0.13086
 N202 N 0.52916 0.26968 -0.12688
 C203 C 0.54822 0.28958 -0.12752
 C204 C 0.57259 0.28420 -0.11764
 C205 C 0.59172 0.30307 -0.11807
 C206 C 0.58689 0.32757 -0.12893
 C207 C 0.56241 0.33289 -0.13903
 C208 C 0.54314 0.31412 -0.13814
 H209 H 0.42266 0.24717 -0.12581
 H210 H 0.45557 0.28105 -0.12730
 H211 H 0.51351 0.22219 -0.13414
 H212 H 0.48081 0.18832 -0.13316
 H213 H 0.57674 0.26533 -0.10949
 H214 H 0.61042 0.29831 -0.11031
 H215 H 0.55811 0.35160 -0.14747
 H216 H 0.52444 0.31866 -0.14603
 C217 C 0.12365 -0.00625 0.30725
 C218 C 0.12309 0.01334 0.28847
 C219 C 0.11581 0.00767 0.26243
 C220 C 0.10842 -0.01776 0.25544
 C221 C 0.10835 -0.03721 0.27434
 C222 C 0.11619 -0.03167 0.30036
 N223 N 0.11595 0.02798 0.24349
 N224 N 0.11671 0.02314 0.21887
 C225 C 0.11626 0.04339 0.19987
 C226 C 0.12523 0.03820 0.17451
 C227 C 0.12555 0.05777 0.15571
 C228 C 0.11618 0.08265 0.16184
 C229 C 0.10661 0.08764 0.18712
 C230 C 0.10691 0.06825 0.20610
 H231 H 0.12961 -0.00147 0.32722
 H232 H 0.12872 0.03290 0.29411
 H233 H 0.10253 -0.02252 0.23545
 H234 H 0.10266 -0.05669 0.26848
 H235 H 0.13238 0.01908 0.16946
 H236 H 0.13290 0.05338 0.13632
 H237 H 0.09937 0.10668 0.19237
 H238 H 0.09968 0.07260 0.22553
 C239 C 0.65809 0.52489 -0.28426
 C240 C 0.65899 0.50465 -0.26625
 C241 C 0.63761 0.49843 -0.25151
 C242 C 0.61527 0.51311 -0.25451
 C243 C 0.61441 0.53370 -0.27217
 C244 C 0.63575 0.53978 -0.28759
 N245 N 0.63917 0.47727 -0.23359
 N246 N 0.61955 0.46750 -0.22306
 C247 C 0.62145 0.44658 -0.20484
 C248 C 0.59930 0.43350 -0.19755
 C249 C 0.60059 0.41296 -0.17986
 C250 C 0.62411 0.40548 -0.16881
 C251 C 0.64630 0.41880 -0.17604
 C252 C 0.64502 0.43905 -0.19401
 H253 H 0.67514 0.52887 -0.29522
 H254 H 0.67638 0.49357 -0.26397
 H255 H 0.59853 0.50875 -0.24314
 H256 H 0.59676 0.54437 -0.27394
 H257 H 0.58101 0.43916 -0.20572
 H258 H 0.58314 0.40318 -0.17458
 H259 H 0.66472 0.41346 -0.16794
 H260 H 0.66241 0.44894 -0.19925
 C261 C 0.34768 1.02982 0.78374
 C262 C 0.34758 1.01104 0.76365
 C263 C 0.37046 1.00091 0.75418
 C264 C 0.39368 1.01000 0.76490
 C265 C 0.39383 1.02909 0.78480
 C266 C 0.37081 1.03911 0.79450
 N267 N 0.36947 0.98172 0.73352
 N268 N 0.38899 0.96912 0.72602
 C269 C 0.38746 0.95029 0.70500
 C270 C 0.40836 0.93416 0.70008
 C271 C 0.40727 0.91549 0.67981
 C272 C 0.38529 0.91293 0.66384
 C273 C 0.36442 0.92935 0.66872
 C274 C 0.36543 0.94775 0.68917
 H275 H 0.32963 1.03734 0.79052
 H276 H 0.32958 1.00427 0.75544
 H277 H 0.41163 1.00251 0.75780
 H278 H 0.41194 1.03577 0.79280
 H279 H 0.42546 0.93596 0.71211
 H280 H 0.42371 0.90323 0.67650
 H281 H 0.34718 0.92787 0.65686
 H282 H 0.34904 0.96006 0.69248
 C283 C 0.86643 0.49071 0.19876
 C284 C 0.86651 0.51050 0.21789
 C285 C 0.87496 0.50557 0.24355
 C286 C 0.88386 0.48067 0.24986
 C287 C 0.88447 0.46106 0.23056
 C288 C 0.87560 0.46588 0.20490
 N289 N 0.87493 0.52622 0.26269
 N290 N 0.87475 0.52187 0.28728
 C291 C 0.87582 0.54256 0.30636
 C292 C 0.86703 0.53823 0.33182
 C293 C 0.86794 0.55811 0.35085
 C294 C 0.87844 0.58239 0.34485
 C295 C 0.88760 0.58658 0.31939
 C296 C 0.88603 0.56693 0.30019
 H297 H 0.85969 0.49493 0.17906
 H298 H 0.85974 0.52966 0.21278
 H299 H 0.89071 0.47653 0.26954
 H300 H 0.89152 0.44204 0.23578
 H301 H 0.85923 0.51948 0.33683
 H302 H 0.86091 0.55436 0.37039
 H303 H 0.89572 0.60516 0.31426
 H304 H 0.89315 0.57060 0.28068
 C305 C 0.26956 0.16221 -0.03360
 C306 C 0.25083 0.16313 -0.01425
 C307 C 0.24010 0.14019 -0.00491
 C308 C 0.24805 0.11620 -0.01544
 C309 C 0.26652 0.11526 -0.03500
 C310 C 0.27757 0.13825 -0.04420
 N311 N 0.22120 0.14170 0.01517
 N312 N 0.21335 0.12155 0.02683
 C313 C 0.19422 0.12262 0.04667
 C314 C 0.18907 0.10022 0.06091
 C315 C 0.17045 0.10045 0.08033
 C316 C 0.15638 0.12312 0.08561
 C317 C 0.16152 0.14561 0.07117
 C318 C 0.18038 0.14541 0.05195
 H319 H 0.27755 0.18025 -0.04043
 H320 H 0.24480 0.18174 -0.00635
 H321 H 0.23998 0.09819 -0.00861
 H322 H 0.27242 0.09649 -0.04256
 H323 H 0.19958 0.08253 0.05696
 H324 H 0.16689 0.08277 0.09098
 H325 H 0.15107 0.16340 0.07481
 H326 H 0.18398 0.16296 0.04110
 C327 C 0.70306 0.63369 0.51401
 C328 C 0.72121 0.63350 0.49409
 C329 C 0.74694 0.62918 0.50008
 C330 C 0.75436 0.62471 0.52629
 C331 C 0.73616 0.62430 0.54613
 C332 C 0.71035 0.62886 0.54018
 N333 N 0.76505 0.62877 0.47923
 N334 N 0.78886 0.63111 0.48366
 C335 C 0.80708 0.62971 0.46295
 C336 C 0.83172 0.63927 0.46757
 C337 C 0.84999 0.63795 0.44781
 C338 C 0.84404 0.62638 0.42328
 C339 C 0.81936 0.61651 0.41877
 C340 C 0.80094 0.61839 0.43835
 H341 H 0.68326 0.63703 0.50886
 H342 H 0.71525 0.63684 0.47394
 H343 H 0.77413 0.62113 0.53135
 H344 H 0.74229 0.62066 0.56616
 H345 H 0.83670 0.64792 0.48650
 H346 H 0.86890 0.64556 0.45188
 H347 H 0.81424 0.60756 0.40002
 H348 H 0.78206 0.61067 0.43443
 C349 C 0.76380 0.37339 0.04512
 C350 C 0.74389 0.37135 0.02669
 C351 C 0.74872 0.36347 0.00077
 C352 C 0.77369 0.35691 -0.00645
 C353 C 0.79353 0.35829 0.01216
 C354 C 0.78879 0.36684 0.03802
 N355 N 0.72801 0.36242 -0.01779
 N356 N 0.73152 0.36264 -0.04252
 C357 C 0.71060 0.36143 -0.06086
 C358 C 0.71396 0.37053 -0.08640
 C359 C 0.69348 0.37092 -0.10425
 C360 C 0.66948 0.36146 -0.09699
 C361 C 0.66638 0.35149 -0.07163
 C362 C 0.68670 0.35174 -0.05359
 H363 H 0.75962 0.37980 0.06499
 H364 H 0.72471 0.37636 0.03249
 H365 H 0.77780 0.35059 -0.02636
 H366 H 0.81266 0.35323 0.00620
 H367 H 0.73232 0.37797 -0.09225
 H368 H 0.69640 0.37857 -0.12373
 H369 H 0.64806 0.34416 -0.06550
 H370 H 0.68375 0.34441 -0.03400
 C371 C 0.22378 0.84514 0.46565
 C372 C 0.24388 0.84372 0.48389
 C373 C 0.25468 0.86638 0.49469
 C374 C 0.24537 0.89065 0.48675
 C375 C 0.22549 0.89212 0.46826
 C376 C 0.21439 0.86937 0.45763
 N377 N 0.27497 0.86421 0.51364
 N378 N 0.28335 0.88376 0.52670
 C379 C 0.30374 0.88167 0.54555
 C380 C 0.30943 0.90299 0.56194
 C381 C 0.32893 0.90149 0.58083
 C382 C 0.34336 0.87864 0.58339
 C383 C 0.33782 0.85734 0.56662
 C384 C 0.31808 0.85878 0.54796
 H385 H 0.21582 0.82727 0.45764
 H386 H 0.25094 0.82490 0.48979
 H387 H 0.25347 0.90846 0.49477
 H388 H 0.21857 0.91106 0.46264
 H389 H 0.29854 0.92075 0.56022
 H390 H 0.33278 0.91828 0.59333
 H391 H 0.34852 0.83945 0.56812
 H392 H 0.31411 0.84206 0.53541
   
