data_POSCAR
  _audit_creation_date              2014-09-24
  _audit_creation_method            'ToBaCCo'
  _symmetry_space_group_name_H-M    'P1'
  _symmetry_Int_Tables_number       1
  _symmetry_cell_setting            triclinic
  loop_
  _symmetry_equiv_pos_as_xyz
 x,y,z
_cell_length_a 43.3015
_cell_length_b 43.9179
_cell_length_c 46.1952
_cell_angle_alpha 89.957000
_cell_angle_beta 89.988400
_cell_angle_gamma 89.775400
loop_
  _atom_site_label
  _atom_site_type_symbol
  _atom_site_fract_x
  _atom_site_fract_y
  _atom_site_fract_z
C1 C 0.30650 0.30661 -0.01471
 C2 C 0.30711 0.30525 0.01470
 C3 C 0.28724 0.32529 0.03275
 C4 C 0.33009 0.28627 0.03023
 C5 C 0.32752 0.28787 -0.03295
 C6 C 0.28710 0.32936 -0.02995
 C7 C 0.30100 0.34543 0.05238
 C8 C 0.28289 0.36524 0.06882
 C9 C 0.25053 0.36519 0.06623
 C10 C 0.23671 0.34472 0.04677
 C11 C 0.25492 0.32487 0.03023
 C12 C 0.36157 0.29358 0.02909
 C13 C 0.38303 0.27662 0.04498
 C14 C 0.37336 0.25184 0.06190
 C15 C 0.34189 0.24426 0.06264
 C16 C 0.32034 0.26164 0.04720
 C17 C 0.32891 0.25616 -0.03015
 C18 C 0.34960 0.23903 -0.04683
 C19 C 0.36946 0.25306 -0.06734
 C20 C 0.36702 0.28517 -0.07020
 C21 C 0.34648 0.30209 -0.05335
 C22 C 0.26235 0.31985 -0.04722
 C23 C 0.24479 0.34123 -0.06257
 C24 C 0.25232 0.37228 -0.06138
 C25 C 0.27713 0.38172 -0.04403
 C26 C 0.29426 0.36043 -0.02826
 H27 H 0.32589 0.34629 0.05451
 H28 H 0.29433 0.38108 0.08317
 H29 H 0.21184 0.34386 0.04453
 H30 H 0.24384 0.30920 0.01546
 H31 H 0.36938 0.31273 0.01627
 H32 H 0.40721 0.28278 0.04407
 H33 H 0.29607 0.25589 0.04841
 H34 H 0.31378 0.24456 -0.01512
 H35 H 0.34853 0.21462 -0.04423
 H36 H 0.38212 0.29814 -0.08408
 H37 H 0.34605 0.32663 -0.05573
 H38 H 0.25671 0.29591 -0.04883
 H39 H 0.22589 0.33349 -0.07600
 H40 H 0.28324 0.40557 -0.04278
 H41 H 0.31350 0.36804 -0.01518
 H42 H 0.33394 0.22539 0.07574
 C43 C 0.69350 0.69285 -0.01392
 C44 C 0.69368 0.69477 0.01550
 C45 C 0.71419 0.67563 0.03382
 C46 C 0.67074 0.71385 0.03097
 C47 C 0.67208 0.71180 -0.03151
 C48 C 0.71297 0.67066 -0.03008
 C49 C 0.70101 0.65674 0.05492
 C50 C 0.71944 0.63728 0.07140
 C51 C 0.75162 0.63645 0.06743
 C52 C 0.76495 0.65581 0.04664
 C53 C 0.74639 0.67535 0.03005
 C54 C 0.63939 0.70592 0.03069
 C55 C 0.61798 0.72290 0.04657
 C56 C 0.62756 0.74829 0.06266
 C57 C 0.65886 0.75653 0.06249
 C58 C 0.68039 0.73917 0.04702
 C59 C 0.67309 0.74371 -0.03042
 C60 C 0.65258 0.76114 -0.04702
 C61 C 0.63080 0.74693 -0.06508
 C62 C 0.63008 0.71494 -0.06618
 C63 C 0.65061 0.69758 -0.04967
 C64 C 0.73009 0.68055 -0.05412
 C65 C 0.74726 0.65983 -0.07051
 C66 C 0.74784 0.62888 -0.06298
 C67 C 0.73078 0.61890 -0.03897
 C68 C 0.71305 0.63952 -0.02296
 H69 H 0.67623 0.65639 0.05808
 H70 H 0.70832 0.62229 0.08678
 H71 H 0.78970 0.65595 0.04330
 H72 H 0.75705 0.69001 0.01409
 H73 H 0.63167 0.68626 0.01857
 H74 H 0.59393 0.71623 0.04635
 H75 H 0.70455 0.74541 0.04755
 H76 H 0.68985 0.75508 -0.01685
 H77 H 0.65402 0.78572 -0.04600
 H78 H 0.61328 0.70326 -0.07946
 H79 H 0.64946 0.67297 -0.05073
 H80 H 0.73005 0.70436 -0.06025
 H81 H 0.76024 0.66795 -0.08899
 H82 H 0.73052 0.59502 -0.03312
 H83 H 0.69910 0.63109 -0.00527
 H84 H 0.66673 0.77590 0.07493
 C85 C 0.69016 0.31347 1.01538
 C86 C 0.68858 0.31321 0.98596
 C87 C 0.70763 0.33434 0.96847
 C88 C 0.66697 0.29324 0.96972
 C89 C 0.67131 0.29294 1.03371
 C90 C 0.70909 0.33635 1.03071
 C91 C 0.69315 0.35639 0.95119
 C92 C 0.71074 0.37652 0.93467
 C93 C 0.74319 0.37477 0.93488
 C94 C 0.75762 0.35240 0.95207
 C95 C 0.73997 0.33232 0.96868
 C96 C 0.63535 0.29215 0.97662
 C97 C 0.61537 0.27356 0.96084
 C98 C 0.62642 0.25657 0.93727
 C99 C 0.65781 0.25821 0.92990
 C100 C 0.67792 0.27627 0.94606
 C101 C 0.67262 0.26117 1.03041
 C102 C 0.65334 0.24237 1.04687
 C103 C 0.63262 0.25505 1.06705
 C104 C 0.63189 0.28684 1.07060
 C105 C 0.65112 0.30552 1.05424
 C106 C 0.73726 0.32794 1.04322
 C107 C 0.75488 0.34937 1.05822
 C108 C 0.74413 0.37956 1.06192
 C109 C 0.71558 0.38762 1.04915
 C110 C 0.69852 0.36635 1.03346
 H111 H 0.66820 0.35823 0.95080
 H112 H 0.69892 0.39375 0.92203
 H113 H 0.78252 0.35014 0.95236
 H114 H 0.75148 0.31506 0.98153
 H115 H 0.62606 0.30591 0.99401
 H116 H 0.59112 0.27304 0.96655
 H117 H 0.70210 0.27702 0.94011
 H118 H 0.68831 0.25101 1.01488
 H119 H 0.65473 0.21796 1.04391
 H120 H 0.61584 0.29741 1.08553
 H121 H 0.64953 0.32995 1.05703
 H122 H 0.74558 0.30473 1.04138
 H123 H 0.77611 0.34160 1.06817
 H124 H 0.70670 0.41064 1.05032
 H125 H 0.67682 0.37317 1.02370
 H126 H 0.66678 0.24532 0.91175
 C127 C 0.30877 0.68784 1.01507
 C128 C 0.30958 0.68903 0.98570
 C129 C 0.29059 0.66839 0.96771
 C130 C 0.33189 0.70854 0.97020
 C131 C 0.32898 0.70729 1.03326
 C132 C 0.28987 0.66481 1.03021
 C133 C 0.30515 0.64710 0.94966
 C134 C 0.28767 0.62705 0.93300
 C135 C 0.25521 0.62806 0.93386
 C136 C 0.24067 0.64971 0.95177
 C137 C 0.25823 0.66974 0.96851
 C138 C 0.36360 0.70201 0.97137
 C139 C 0.38451 0.71968 0.95572
 C140 C 0.37404 0.74437 0.93900
 C141 C 0.34234 0.75117 0.93824
 C142 C 0.32135 0.73310 0.95346
 C143 C 0.32882 0.73907 1.03044
 C144 C 0.34893 0.75695 1.04688
 C145 C 0.36951 0.74352 1.06700
 C146 C 0.36887 0.71147 1.06995
 C147 C 0.34892 0.69375 1.05338
 C148 C 0.26191 0.67315 1.04318
 C149 C 0.24438 0.65154 1.05807
 C150 C 0.25503 0.62124 1.06120
 C151 C 0.28333 0.61325 1.04792
 C152 C 0.30028 0.63470 1.03233
 H153 H 0.33011 0.64564 0.94886
 H154 H 0.29961 0.61035 0.91984
 H155 H 0.21573 0.65138 0.95259
 H156 H 0.24661 0.68637 0.98201
 H157 H 0.37201 0.68296 0.98407
 H158 H 0.40888 0.71411 0.95661
 H159 H 0.29690 0.73827 0.95227
 H160 H 0.31305 0.75008 1.01551
 H161 H 0.34730 0.78137 1.04434
 H162 H 0.38479 0.69949 1.08397
 H163 H 0.34976 0.66923 1.05576
 H164 H 0.25372 0.69644 1.04180
 H165 H 0.22333 0.65922 1.06840
 H166 H 0.29209 0.59015 1.04864
 H167 H 0.32179 0.62794 1.02217
 H168 H 0.33380 0.76996 0.92528
 C169 C -0.01950 0.31561 0.31778
 C170 C 0.01206 0.31672 0.31734
 C171 C 0.03123 0.29717 0.33658
 C172 C 0.02920 0.33824 0.29830
 C173 C -0.03849 0.33393 0.29727
 C174 C -0.03680 0.29688 0.33930
 C175 C 0.05228 0.31079 0.35560
 C176 C 0.06941 0.29304 0.37489
 C177 C 0.06617 0.26118 0.37534
 C178 C 0.04561 0.24751 0.35569
 C179 C 0.02836 0.26534 0.33642
 C180 C 0.02194 0.36948 0.29775
 C181 C 0.03801 0.38924 0.27949
 C182 C 0.06233 0.37833 0.26223
 C183 C 0.07027 0.34735 0.26347
 C184 C 0.05376 0.32746 0.28124
 C185 C -0.03381 0.33223 0.26729
 C186 C -0.05062 0.35098 0.24849
 C187 C -0.07303 0.37166 0.25915
 C188 C -0.07830 0.37212 0.28937
 C189 C -0.06128 0.35355 0.30805
 C190 C -0.06179 0.27905 0.33019
 C191 C -0.07857 0.26171 0.35005
 C192 C -0.07031 0.26110 0.37960
 C193 C -0.04538 0.27942 0.38862
 C194 C -0.02946 0.29763 0.36889
 H195 H 0.05481 0.33531 0.35605
 H196 H 0.08465 0.30438 0.38997
 H197 H 0.04295 0.22301 0.35513
 H198 H 0.01257 0.25439 0.32158
 H199 H 0.00384 0.37857 0.31145
 H200 H 0.03186 0.41317 0.27921
 H201 H 0.06000 0.30356 0.28154
 H202 H -0.01689 0.31657 0.25845
 H203 H -0.04642 0.34841 0.22555
 H204 H -0.09428 0.38800 0.29919
 H205 H -0.06524 0.35522 0.33115
 H206 H -0.06816 0.27830 0.30753
 H207 H -0.09705 0.24766 0.34180
 H208 H -0.03896 0.28094 0.41121
 H209 H -0.01143 0.31242 0.37684
 H210 H 0.08897 0.33848 0.25034
 C211 C -0.01477 0.68789 0.68575
 C212 C 0.01660 0.68753 0.68596
 C213 C 0.03482 0.70644 0.66565
 C214 C 0.03404 0.66593 0.70434
 C215 C -0.03326 0.66805 0.70520
 C216 C -0.03182 0.70591 0.66389
 C217 C 0.05367 0.69234 0.64491
 C218 C 0.07022 0.70980 0.62502
 C219 C 0.06842 0.74178 0.62562
 C220 C 0.04982 0.75587 0.64674
 C221 C 0.03325 0.73834 0.66664
 C222 C 0.03328 0.63463 0.69845
 C223 C 0.04988 0.61426 0.71576
 C224 C 0.06703 0.62492 0.73944
 C225 C 0.06766 0.65627 0.74536
 C226 C 0.05158 0.67670 0.72766
 C227 C -0.02912 0.66865 0.73530
 C228 C -0.04562 0.64882 0.75321
 C229 C -0.06722 0.62809 0.74154
 C230 C -0.07164 0.62836 0.71120
 C231 C -0.05494 0.64801 0.69342
 C232 C -0.04527 0.73381 0.67136
 C233 C -0.06113 0.75095 0.65058
 C234 C -0.06482 0.73997 0.62204
 C235 C -0.05128 0.71159 0.61498
 C236 C -0.03465 0.69503 0.63557
 H237 H 0.05509 0.66774 0.64376
 H238 H 0.08395 0.69822 0.60879
 H239 H 0.04834 0.78044 0.64807
 H240 H 0.01921 0.74962 0.68283
 H241 H 0.01993 0.62606 0.68040
 H242 H 0.04904 0.59015 0.71093
 H243 H 0.05241 0.70084 0.73234
 H244 H -0.01310 0.68454 0.74496
 H245 H -0.04202 0.65073 0.77629
 H246 H -0.08682 0.61237 0.70062
 H247 H -0.05839 0.64687 0.67024
 H248 H -0.04331 0.74238 0.69326
 H249 H -0.07169 0.77211 0.65746
 H250 H -0.05234 0.70254 0.59323
 H251 H -0.02406 0.67358 0.62948
 H252 H 0.08092 0.66490 0.76343
 C253 C 1.02041 0.68578 0.31570
 C254 C 0.98905 0.68355 0.31654
 C255 C 0.97065 0.70209 0.33719
 C256 C 0.97164 0.66191 0.29798
 C257 C 1.03970 0.66809 0.29501
 C258 C 1.03699 0.70430 0.33740
 C259 C 0.95290 0.68766 0.35850
 C260 C 0.93587 0.70487 0.37834
 C261 C 0.93609 0.73688 0.37709
 C262 C 0.95361 0.75125 0.35541
 C263 C 0.97064 0.73399 0.33558
 C264 C 0.97987 0.63095 0.29653
 C265 C 0.96364 0.61110 0.27851
 C266 C 0.93827 0.62164 0.26239
 C267 C 0.92938 0.65232 0.26461
 C268 C 0.94598 0.67229 0.28218
 C269 C 1.03380 0.66865 0.26517
 C270 C 1.05049 0.64984 0.24634
 C271 C 1.07399 0.63022 0.25679
 C272 C 1.08055 0.63104 0.28677
 C273 C 1.06368 0.64966 0.30547
 C274 C 1.04911 0.73268 0.32981
 C275 C 1.06438 0.75035 0.35045
 C276 C 1.06884 0.73948 0.37897
 C277 C 1.05679 0.71058 0.38611
 C278 C 1.04072 0.69344 0.36566
 H279 H 0.95263 0.66305 0.36001
 H280 H 0.92294 0.69311 0.39497
 H281 H 0.95382 0.77582 0.35355
 H282 H 0.98372 0.74549 0.31888
 H283 H 0.99888 0.62215 0.30929
 H284 H 0.97056 0.58740 0.27750
 H285 H 0.93901 0.69598 0.28321
 H286 H 1.01590 0.68334 0.25649
 H287 H 1.04524 0.65143 0.22351
 H288 H 1.09740 0.61600 0.29652
 H289 H 1.06862 0.64868 0.32843
 H290 H 1.04650 0.74122 0.30794
 H291 H 1.07387 0.77190 0.34349
 H292 H 1.05853 0.70152 0.40784
 H293 H 1.03125 0.67158 0.37181
 H294 H 0.90987 0.66091 0.25237
 C295 C 1.01487 0.31633 0.68253
 C296 C 0.98334 0.31594 0.68160
 C297 C 0.96598 0.29770 0.65988
 C298 C 0.96444 0.33466 0.70174
 C299 C 1.03207 0.33718 0.70212
 C300 C 1.03391 0.29679 0.66319
 C301 C 0.97294 0.29940 0.63019
 C302 C 0.95671 0.28172 0.61023
 C303 C 0.93249 0.26294 0.61948
 C304 C 0.92474 0.26207 0.64895
 C305 C 0.94145 0.27917 0.66899
 C306 C 0.94336 0.35586 0.69046
 C307 C 0.92666 0.37493 0.70891
 C308 C 0.93047 0.37296 0.73909
 C309 C 0.95098 0.35104 0.75039
 C310 C 0.96773 0.33197 0.73187
 C311 C 1.05582 0.32561 0.71972
 C312 C 1.07233 0.34491 0.73806
 C313 C 1.06516 0.37607 0.73930
 C314 C 1.04170 0.38776 0.72146
 C315 C 1.02567 0.36858 0.70267
 C316 C 1.02982 0.26517 0.66210
 C317 C 1.04678 0.24746 0.64256
 C318 C 1.06871 0.26086 0.62378
 C319 C 1.07319 0.29267 0.62589
 C320 C 1.05610 0.31025 0.64532
 H321 H 0.99096 0.31436 0.62245
 H322 H 0.96271 0.28304 0.58750
 H323 H 0.90609 0.24773 0.65648
 H324 H 0.93541 0.27777 0.69171
 H325 H 0.94051 0.35826 0.66727
 H326 H 0.91139 0.39180 0.69948
 H327 H 0.98354 0.31537 0.74098
 H328 H 1.06141 0.30155 0.71940
 H329 H 1.09040 0.33546 0.75161
 H330 H 1.03620 0.41183 0.72170
 H331 H 1.00827 0.37827 0.68854
 H332 H 1.01329 0.25423 0.67627
 H333 H 1.04314 0.22313 0.64304
 H334 H 1.08867 0.30469 0.61157
 H335 H 1.05953 0.33467 0.64576
 H336 H 0.95404 0.34862 0.77354
 C337 C 0.31152 -0.01486 0.31429
 C338 C 0.31377 0.01609 0.31446
 C339 C 0.33564 0.03288 0.29544
 C340 C 0.29500 0.03463 0.33479
 C341 C 0.29261 -0.03100 0.33615
 C342 C 0.32961 -0.03428 0.29413
 C343 C 0.36707 0.02482 0.29402
 C344 C 0.38714 0.04058 0.27572
 C345 C 0.37641 0.06534 0.25927
 C346 C 0.34528 0.07407 0.26141
 C347 C 0.32506 0.05791 0.27925
 C348 C 0.30975 0.05323 0.35513
 C349 C 0.29243 0.06996 0.37510
 C350 C 0.25997 0.06862 0.37491
 C351 C 0.24525 0.05037 0.35409
 C352 C 0.26263 0.03358 0.33417
 C353 C 0.26641 -0.04732 0.32757
 C354 C 0.24899 -0.06323 0.34805
 C355 C 0.25805 -0.06364 0.37724
 C356 C 0.28441 -0.04740 0.38573
 C357 C 0.30145 -0.03102 0.36536
 C358 C 0.32892 -0.02949 0.26415
 C359 C 0.34789 -0.04664 0.24580
 C360 C 0.36781 -0.06944 0.25695
 C361 C 0.36722 -0.07472 0.28715
 C362 C 0.34842 -0.05744 0.30534
 H363 H 0.37607 0.00632 0.30708
 H364 H 0.41120 0.03380 0.27479
 H365 H 0.33652 0.09312 0.24893
 H366 H 0.30103 0.06478 0.28025
 H367 H 0.33472 0.05427 0.35593
 H368 H 0.30449 0.08345 0.39108
 H369 H 0.25086 0.01970 0.31828
 H370 H 0.25945 -0.04763 0.30505
 H371 H 0.22886 -0.07578 0.34104
 H372 H 0.29171 -0.04733 0.40816
 H373 H 0.32180 -0.01871 0.37223
 H374 H 0.31394 -0.01219 0.25497
 H375 H 0.34613 -0.04234 0.22282
 H376 H 0.38255 -0.09095 0.29738
 H377 H 0.34945 -0.06145 0.32846
 H378 H 0.22031 0.04926 0.35304
 C379 C 0.68571 -0.01783 0.68374
 C380 C 0.68548 0.01327 0.68461
 C381 C 0.66445 0.03068 0.70410
 C382 C 0.70539 0.03168 0.66518
 C383 C 0.70408 -0.03509 0.66188
 C384 C 0.66642 -0.03631 0.70373
 C385 C 0.63257 0.02477 0.70488
 C386 C 0.61327 0.04105 0.72359
 C387 C 0.62531 0.06428 0.74106
 C388 C 0.65692 0.07098 0.73957
 C389 C 0.67635 0.05421 0.72135
 C390 C 0.69168 0.05297 0.64652
 C391 C 0.70970 0.06965 0.62721
 C392 C 0.74194 0.06569 0.62638
 C393 C 0.75573 0.04474 0.64555
 C394 C 0.73760 0.02794 0.66485
 C395 C 0.72280 -0.05955 0.67079
 C396 C 0.73968 -0.07640 0.65053
 C397 C 0.73838 -0.06886 0.62104
 C398 C 0.71945 -0.04464 0.61202
 C399 C 0.70202 -0.02826 0.63219
 C400 C 0.66786 -0.03242 0.73382
 C401 C 0.64806 -0.04866 0.75205
 C402 C 0.62660 -0.06974 0.74070
 C403 C 0.62629 -0.07411 0.71037
 C404 C 0.64589 -0.05767 0.69227
 H405 H 0.62261 0.00753 0.69102
 H406 H 0.58884 0.03590 0.72406
 H407 H 0.66662 0.08888 0.75282
 H408 H 0.70076 0.05945 0.72085
 H409 H 0.66685 0.05612 0.64642
 H410 H 0.69826 0.08517 0.61245
 H411 H 0.74863 0.01190 0.67939
 H412 H 0.72445 -0.06551 0.69350
 H413 H 0.75412 -0.09504 0.65791
 H414 H 0.71775 -0.03879 0.58929
 H415 H 0.68683 -0.01032 0.62460
 H416 H 0.68413 -0.01655 0.74317
 H417 H 0.65047 -0.04516 0.77511
 H418 H 0.60979 -0.08896 0.70004
 H419 H 0.64432 -0.06093 0.66907
 H420 H 0.78052 0.04150 0.64576
 C421 C 0.31449 1.01637 0.68460
 C422 C 0.31253 0.98541 0.68504
 C423 C 0.33062 0.96630 0.70550
 C424 C 0.29390 0.96903 0.66323
 C425 C 0.29577 1.03468 0.66398
 C426 C 0.33609 1.03341 0.70359
 C427 C 0.35047 0.94376 0.69457
 C428 C 0.36917 0.92678 0.71319
 C429 C 0.36822 0.93172 0.74324
 C430 C 0.34764 0.95374 0.75426
 C431 C 0.32892 0.97081 0.73555
 C432 C 0.30282 0.96911 0.63404
 C433 C 0.28560 0.95313 0.61357
 C434 C 0.25900 0.93719 0.62195
 C435 C 0.24993 0.93741 0.65114
 C436 C 0.26751 0.95295 0.67172
 C437 C 0.26339 1.03351 0.66443
 C438 C 0.24607 1.05022 0.64438
 C439 C 0.26083 1.06851 0.62356
 C440 C 0.29328 1.06991 0.62351
 C441 C 0.31055 1.05327 0.64362
 C442 C 0.32523 1.05850 0.71950
 C443 C 0.34524 1.07492 0.73727
 C444 C 0.37640 1.06637 0.73961
 C445 C 0.38740 1.04157 0.72343
 C446 C 0.36754 1.02555 0.70519
 H447 H 0.35224 0.93996 0.67146
 H448 H 0.38507 0.91040 0.70390
 H449 H 0.34601 0.95777 0.77732
 H450 H 0.31342 0.98780 0.74444
 H451 H 0.32327 0.98131 0.62724
 H452 H 0.29291 0.95332 0.59114
 H453 H 0.26046 0.95265 0.69421
 H454 H 0.25157 1.01965 0.68033
 H455 H 0.22112 1.04905 0.64534
 H456 H 0.30540 1.08342 0.60755
 H457 H 0.33552 1.05442 0.64295
 H458 H 0.30117 1.06520 0.71833
 H459 H 0.33631 1.09402 0.74956
 H460 H 0.41150 1.03495 0.72454
 H461 H 0.37675 1.00704 0.69230
 H462 H 0.22963 0.92505 0.65806
 C463 C 0.68781 1.01381 0.31560
 C464 C 0.68555 0.98290 0.31542
 C465 C 0.66386 0.96636 0.29604
 C466 C 0.70412 0.96415 0.33570
 C467 C 0.70645 1.02960 0.33782
 C468 C 0.67004 1.03337 0.29535
 C469 C 0.63247 0.97451 0.29442
 C470 C 0.61251 0.95891 0.27591
 C471 C 0.62332 0.93423 0.25943
 C472 C 0.65444 0.92547 0.26171
 C473 C 0.67455 0.94146 0.27977
 C474 C 0.68929 0.94637 0.35666
 C475 C 0.70659 0.92933 0.37644
 C476 C 0.73906 0.92956 0.37541
 C477 C 0.75380 0.94698 0.35393
 C478 C 0.73647 0.96407 0.33422
 C479 C 0.73507 1.04215 0.33060
 C480 C 0.75253 1.05736 0.35151
 C481 C 0.74119 1.06129 0.37998
 C482 C 0.71217 1.04852 0.38683
 C483 C 0.69525 1.03258 0.36609
 C484 C 0.67228 1.02945 0.26526
 C485 C 0.65352 1.04649 0.24661
 C486 C 0.63235 1.06787 0.25775
 C487 C 0.63093 1.07232 0.28786
 C488 C 0.64969 1.05538 0.30642
 H489 H 0.62337 0.99287 0.30755
 H490 H 0.58847 0.96570 0.27490
 H491 H 0.66326 0.90647 0.24921
 H492 H 0.69855 0.93453 0.28090
 H493 H 0.66432 0.94619 0.35805
 H494 H 0.69453 0.91647 0.39291
 H495 H 0.74825 0.97725 0.31779
 H496 H 0.74390 1.04013 0.30874
 H497 H 0.77417 1.06733 0.34474
 H498 H 0.70280 1.04978 0.40851
 H499 H 0.67321 1.02277 0.37198
 H500 H 0.68816 1.01283 0.25630
 H501 H 0.65552 1.04289 0.22351
 H502 H 0.61457 1.08821 0.29720
 H503 H 0.64747 1.05868 0.32955
 H504 H 0.77874 0.94719 0.35222
 O505 O 0.83354 0.87431 0.52644
 O506 O 0.87761 0.83123 0.47176
 O507 O 0.83462 0.87302 0.47043
 O508 O 0.87659 0.83265 0.52832
 O509 O 0.84210 0.79578 0.52691
 O510 O 0.79841 0.83786 0.47147
 O511 O 0.84123 0.79623 0.47096
 O512 O 0.79899 0.83753 0.52799
 Cu513 Cu 0.85922 0.85636 0.49923
 Cu514 Cu 0.81655 0.81331 0.49940
 C515 C 0.80878 0.86320 0.53664
 C516 C 0.86685 0.80645 0.46184
 C517 C 0.80913 0.86253 0.46129
 C518 C 0.86674 0.80707 0.53714
 O519 O 0.12275 0.16714 0.47152
 O520 O 0.16583 0.12484 0.52756
 O521 O 0.12340 0.16714 0.52801
 O522 O 0.16542 0.12497 0.47122
 O523 O 0.20149 0.16030 0.47108
 O524 O 0.15947 0.20245 0.52744
 O525 O 0.20174 0.16032 0.52739
 O526 O 0.15909 0.20218 0.47103
 Cu527 Cu 0.14070 0.14249 0.49960
 Cu528 Cu 0.18403 0.18486 0.49921
 C529 C 0.13364 0.19186 0.46160
 C530 C 0.19116 0.13537 0.53708
 C531 C 0.13431 0.19204 0.53747
 C532 C 0.19070 0.13543 0.46148
 O533 O 0.16448 0.87767 0.47178
 O534 O 0.12276 0.83530 0.52840
 O535 O 0.16443 0.87802 0.52828
 O536 O 0.12329 0.83487 0.47185
 O537 O 0.15955 0.79940 0.47348
 O538 O 0.20187 0.84376 0.52781
 O539 O 0.16031 0.80123 0.52963
 O540 O 0.20113 0.84259 0.47197
 Cu541 Cu 0.14000 0.85994 0.50005
 Cu542 Cu 0.18437 0.81821 0.50070
 C543 C 0.19000 0.86739 0.46228
 C544 C 0.13447 0.81107 0.53881
 C545 C 0.19040 0.86842 0.53739
 C546 C 0.13431 0.80959 0.46329
 O547 O 0.87666 0.16526 0.52804
 O548 O 0.83545 0.12136 0.47222
 O549 O 0.87647 0.16494 0.47243
 O550 O 0.83557 0.12175 0.52901
 O551 O 0.79902 0.15688 0.52984
 O552 O 0.83785 0.19794 0.47082
 O553 O 0.79695 0.15442 0.47383
 O554 O 0.83958 0.19991 0.52729
 Cu555 Cu 0.85969 0.13973 0.50041
 Cu556 Cu 0.81460 0.18072 0.50034
 C557 C 0.86534 0.19032 0.53687
 C558 C 0.80897 0.13022 0.46379
 C559 C 0.86414 0.18886 0.46210
 C560 C 0.81048 0.13219 0.53940
 O561 O 0.46862 0.87937 0.83644
 O562 O 0.52957 0.83963 0.87760
 O563 O 0.52887 0.87920 0.83538
 O564 O 0.46943 0.83913 0.87814
 O565 O 0.47061 0.80127 0.84676
 O566 O 0.52770 0.84228 0.80307
 O567 O 0.53019 0.80300 0.84495
 O568 O 0.46760 0.84146 0.80518
 Cu569 Cu 0.49911 0.86312 0.86008
 Cu570 Cu 0.49893 0.81834 0.82173
 C571 C 0.45760 0.86715 0.81379
 C572 C 0.54035 0.81453 0.86828
 C573 C 0.53835 0.86756 0.81179
 C574 C 0.46034 0.81303 0.86994
 O575 O 0.47323 0.11918 0.16425
 O576 O 0.53230 0.16022 0.12201
 O577 O 0.53307 0.12000 0.16350
 O578 O 0.47192 0.15929 0.12215
 O579 O 0.47284 0.19715 0.15351
 O580 O 0.53181 0.15668 0.19609
 O581 O 0.53262 0.19651 0.15501
 O582 O 0.47163 0.15712 0.19551
 Cu583 Cu 0.50256 0.13598 0.13968
 Cu584 Cu 0.50201 0.18056 0.17827
 C585 C 0.46245 0.13113 0.18719
 C586 C 0.54287 0.18523 0.13159
 C587 C 0.54279 0.13160 0.18696
 C588 C 0.46236 0.18522 0.13050
 O589 O 0.53073 0.12087 0.83683
 O590 O 0.46940 0.16113 0.87696
 O591 O 0.47123 0.12086 0.83547
 O592 O 0.52949 0.16173 0.87848
 O593 O 0.53084 0.19802 0.84543
 O594 O 0.47123 0.15820 0.80345
 O595 O 0.47070 0.19831 0.84487
 O596 O 0.53125 0.15768 0.80427
 Cu597 Cu 0.50024 0.13751 0.86028
 Cu598 Cu 0.50108 0.18178 0.82130
 C599 C 0.54104 0.13213 0.81342
 C600 C 0.45961 0.18669 0.86781
 C601 C 0.46139 0.13253 0.81204
 C602 C 0.54011 0.18688 0.86927
 O603 O 0.46786 0.83808 0.12261
 O604 O 0.52634 0.87998 0.16477
 O605 O 0.52819 0.83994 0.12273
 O606 O 0.46643 0.87854 0.16377
 O607 O 0.46814 0.84199 0.19651
 O608 O 0.52786 0.80223 0.15432
 O609 O 0.52831 0.84214 0.19617
 O610 O 0.46821 0.80170 0.15557
 Cu611 Cu 0.49722 0.86283 0.14018
 Cu612 Cu 0.49831 0.81836 0.17892
 C613 C 0.45786 0.81276 0.13207
 C614 C 0.53726 0.86817 0.18774
 C615 C 0.53817 0.81421 0.13125
 C616 C 0.45686 0.86692 0.18729
 O617 O 0.87983 0.53054 0.83455
 O618 O 0.83917 0.47095 0.87593
 O619 O 0.87946 0.47111 0.83385
 O620 O 0.83982 0.52991 0.87703
 O621 O 0.80235 0.53171 0.84466
 O622 O 0.84106 0.47169 0.80249
 O623 O 0.80100 0.47251 0.84433
 O624 O 0.84207 0.53085 0.80253
 Cu625 Cu 0.86345 0.50055 0.85849
 Cu626 Cu 0.81783 0.50180 0.82032
 C627 C 0.86792 0.54076 0.81132
 C628 C 0.81295 0.46175 0.86729
 C629 C 0.86696 0.46122 0.81084
 C630 C 0.81427 0.54080 0.86823
 O631 O 0.15804 0.46737 0.12291
 O632 O 0.12129 0.53005 0.16379
 O633 O 0.16053 0.52688 0.12137
 O634 O 0.11812 0.47111 0.16566
 O635 O 0.15658 0.47003 0.19700
 O636 O 0.19954 0.52461 0.15209
 O637 O 0.16010 0.52917 0.19470
 O638 O 0.19584 0.46587 0.15489
 Cu639 Cu 0.13566 0.49885 0.14022
 Cu640 Cu 0.18183 0.49738 0.17782
 C641 C 0.18327 0.45591 0.13198
 C642 C 0.13450 0.54031 0.18630
 C643 C 0.18736 0.53513 0.12914
 C644 C 0.12999 0.46126 0.18903
 O645 O 0.87876 0.46975 0.16464
 O646 O 0.84278 0.53255 0.12332
 O647 O 0.88229 0.52861 0.16624
 O648 O 0.83951 0.47301 0.12212
 O649 O 0.80046 0.47573 0.15276
 O650 O 0.84377 0.53005 0.19752
 O651 O 0.80495 0.53455 0.15526
 O652 O 0.83992 0.47108 0.19552
 Cu653 Cu 0.86465 0.50088 0.14086
 Cu654 Cu 0.81840 0.50289 0.17837
 C655 C 0.86553 0.45981 0.18730
 C656 C 0.81775 0.54440 0.13240
 C657 C 0.87042 0.53863 0.18955
 C658 C 0.81259 0.46504 0.12987
 O659 O 0.16123 0.52907 0.87668
 O660 O 0.11960 0.47109 0.83450
 O661 O 0.15980 0.46967 0.87685
 O662 O 0.12129 0.53012 0.83460
 O663 O 0.15815 0.52708 0.80169
 O664 O 0.19890 0.47037 0.84620
 O665 O 0.15881 0.46814 0.80407
 O666 O 0.19816 0.52935 0.84379
 Cu667 Cu 0.13668 0.50003 0.85890
 Cu668 Cu 0.18234 0.49859 0.82078
 C669 C 0.18669 0.53940 0.86724
 C670 C 0.13210 0.45973 0.81206
 C671 C 0.18628 0.46018 0.86903
 C672 C 0.13287 0.53845 0.81060
 C673 C 0.20593 0.40181 0.07144
 C674 C 0.23159 0.38678 0.08361
 C675 C 0.23991 0.39348 0.11230
 C676 C 0.22377 0.41545 0.12808
 C677 C 0.19872 0.43114 0.11568
 C678 C 0.18960 0.42373 0.08735
 H679 H 0.19909 0.39736 0.04931
 H680 H 0.25910 0.38185 0.12255
 H681 H 0.23117 0.42035 0.14997
 H682 H 0.17042 0.43547 0.07719
 C683 C 0.79518 0.59850 0.07179
 C684 C 0.77074 0.61483 0.08463
 C685 C 0.76345 0.60910 0.11377
 C686 C 0.77920 0.58667 0.12932
 C687 C 0.80289 0.56961 0.11625
 C688 C 0.81118 0.57616 0.08750
 H689 H 0.80119 0.60219 0.04932
 H690 H 0.74526 0.62174 0.12452
 H691 H 0.77255 0.58248 0.15157
 H692 H 0.82934 0.56336 0.07686
 C693 C 0.75178 0.40496 0.88946
 C694 C 0.76179 0.39624 0.91721
 C695 C 0.78936 0.40860 0.92807
 C696 C 0.80627 0.42953 0.91171
 C697 C 0.79590 0.43863 0.88419
 C698 C 0.76857 0.42596 0.87319
 H699 H 0.73096 0.39543 0.88023
 H700 H 0.79751 0.40264 0.94950
 H701 H 0.82718 0.43897 0.92083
 H702 H 0.76007 0.43232 0.85198
 C703 C 0.24638 0.59817 0.88832
 C704 C 0.23678 0.60634 0.91634
 C705 C 0.20993 0.59299 0.92772
 C706 C 0.19337 0.57160 0.91162
 C707 C 0.20337 0.56300 0.88384
 C708 C 0.22993 0.57670 0.87230
 H709 H 0.26664 0.60843 0.87870
 H710 H 0.20212 0.59850 0.94936
 H711 H 0.17304 0.56140 0.92117
 H712 H 0.23813 0.57075 0.85088
 C713 C 0.07006 0.21748 0.41044
 C714 C 0.08382 0.24254 0.39660
 C715 C 0.11434 0.25023 0.40387
 C716 C 0.13049 0.23370 0.42485
 C717 C 0.11662 0.20890 0.43893
 C718 C 0.08632 0.20079 0.43132
 H719 H 0.04646 0.21120 0.40566
 H720 H 0.12584 0.26903 0.39326
 H721 H 0.15390 0.24036 0.43002
 H722 H 0.07496 0.18184 0.44183
 C723 C 0.11563 0.75162 0.59554
 C724 C 0.08569 0.76022 0.60407
 C725 C 0.07217 0.78616 0.59140
 C726 C 0.08809 0.80288 0.57043
 C727 C 0.11786 0.79398 0.56162
 C728 C 0.13151 0.76826 0.57454
 H729 H 0.12690 0.73206 0.60522
 H730 H 0.04898 0.79316 0.59724
 H731 H 0.07690 0.82254 0.56084
 H732 H 0.15449 0.76090 0.56839
 C733 C 0.88863 0.74568 0.40723
 C734 C 0.91812 0.75514 0.39836
 C735 C 0.93042 0.78197 0.41020
 C736 C 0.91370 0.79880 0.43062
 C737 C 0.88433 0.78914 0.43968
 C738 C 0.87195 0.76245 0.42766
 H739 H 0.87830 0.72539 0.39818
 H740 H 0.95323 0.78967 0.40409
 H741 H 0.92394 0.81920 0.43953
 H742 H 0.84933 0.75444 0.43405
 C743 C 0.88299 0.24643 0.59670
 C744 C 0.91528 0.24430 0.59840
 C745 C 0.93106 0.22419 0.57996
 C746 C 0.91475 0.20625 0.56026
 C747 C 0.88246 0.20864 0.55825
 C748 C 0.86673 0.22901 0.57654
 H749 H 0.87043 0.26190 0.61070
 H750 H 0.95597 0.22215 0.58107
 H751 H 0.92743 0.19085 0.54628
 H752 H 0.84183 0.23122 0.57545
 C753 C 0.39959 0.11412 0.24182
 C754 C 0.39777 0.08226 0.24018
 C755 C 0.41671 0.06663 0.22044
 C756 C 0.43718 0.08260 0.20266
 C757 C 0.43951 0.11443 0.20472
 C758 C 0.42049 0.13004 0.22446
 H759 H 0.38530 0.12661 0.25699
 H760 H 0.41554 0.04207 0.21870
 H761 H 0.45168 0.06997 0.18776
 H762 H 0.42177 0.15457 0.22647
 C763 C 0.58554 0.06659 0.78023
 C764 C 0.60476 0.08176 0.76051
 C765 C 0.60383 0.11368 0.75907
 C766 C 0.58333 0.13013 0.77652
 C767 C 0.56395 0.11498 0.79616
 C768 C 0.56554 0.08308 0.79814
 H769 H 0.58605 0.04198 0.78175
 H770 H 0.61840 0.12579 0.74392
 H771 H 0.58256 0.15471 0.77459
 H772 H 0.55070 0.07082 0.81295
 C773 C 0.40397 0.92915 0.78609
 C774 C 0.38944 0.91457 0.76271
 C775 C 0.39649 0.88383 0.75721
 C776 C 0.41823 0.86833 0.77407
 C777 C 0.43330 0.88312 0.79700
 C778 C 0.42560 0.91357 0.80310
 H779 H 0.39938 0.95291 0.79070
 H780 H 0.38530 0.87175 0.73971
 H781 H 0.42343 0.84479 0.76897
 H782 H 0.43685 0.92563 0.82058
 C783 C 0.58292 0.93287 0.22068
 C784 C 0.60200 0.91729 0.24036
 C785 C 0.60028 0.88543 0.24205
 C786 C 0.57936 0.86946 0.22481
 C787 C 0.56018 0.88500 0.20515
 C788 C 0.56241 0.91684 0.20301
 H789 H 0.58401 0.95744 0.21891
 H790 H 0.61466 0.87296 0.25718
 H791 H 0.57817 0.84492 0.22686
 H792 H 0.54781 0.92941 0.18815
 C793 C 0.40027 0.20704 0.92516
 C794 C 0.39031 0.23653 0.91655
 C795 C 0.40329 0.24833 0.89067
 C796 C 0.42531 0.23204 0.87488
 C797 C 0.43538 0.20330 0.88412
 C798 C 0.42244 0.19089 0.90929
 H799 H 0.39269 0.19661 0.94509
 H800 H 0.39580 0.26967 0.88134
 H801 H 0.43446 0.24209 0.85526
 H802 H 0.42984 0.16878 0.91711
 C803 C 0.60072 0.75595 0.88927
 C804 C 0.60871 0.76522 0.91740
 C805 C 0.59484 0.79160 0.92884
 C806 C 0.57304 0.80797 0.91272
 C807 C 0.56457 0.79824 0.88486
 C808 C 0.57885 0.77220 0.87323
 H809 H 0.61141 0.73609 0.87960
 H810 H 0.60023 0.79915 0.95056
 H811 H 0.56238 0.82789 0.92232
 H812 H 0.57302 0.76424 0.85174
 C813 C 0.40085 0.79006 0.07358
 C814 C 0.39044 0.76140 0.08352
 C815 C 0.40201 0.75082 0.11032
 C816 C 0.42349 0.76766 0.12603
 C817 C 0.43423 0.79569 0.11563
 C818 C 0.42249 0.80684 0.08936
 H819 H 0.39367 0.79916 0.05289
 H820 H 0.39393 0.72989 0.11999
 H821 H 0.43172 0.75857 0.14644
 H822 H 0.43038 0.82838 0.08071
 C823 C 0.60451 0.24278 0.11300
 C824 C 0.61127 0.23558 0.08405
 C825 C 0.59637 0.21059 0.07120
 C826 C 0.57457 0.19375 0.08677
 C827 C 0.56712 0.20169 0.11541
 C828 C 0.58261 0.22615 0.12844
 H829 H 0.61604 0.26146 0.12374
 H830 H 0.60083 0.20465 0.04884
 H831 H 0.56299 0.17501 0.07616
 H832 H 0.57769 0.23261 0.15059
 C833 C 0.21610 0.07308 0.58909
 C834 C 0.24253 0.08587 0.60183
 C835 C 0.25162 0.11525 0.59333
 C836 C 0.23490 0.13131 0.57239
 C837 C 0.20859 0.11845 0.55955
 C838 C 0.19928 0.08921 0.56824
 H839 H 0.20872 0.05034 0.59484
 H840 H 0.27156 0.12598 0.60304
 H841 H 0.24258 0.15387 0.56633
 H842 H 0.17918 0.07861 0.55868
 C843 C 0.79076 0.07890 0.40028
 C844 C 0.75814 0.07798 0.40091
 C845 C 0.74282 0.09451 0.42289
 C846 C 0.75938 0.11169 0.44299
 C847 C 0.79173 0.11216 0.44232
 C848 C 0.80730 0.09538 0.42100
 H849 H 0.80381 0.06595 0.38452
 H850 H 0.71788 0.09553 0.42396
 H851 H 0.74684 0.12448 0.45925
 H852 H 0.83230 0.09534 0.42012
 C853 C 0.75426 0.88183 0.59831
 C854 C 0.75661 0.91367 0.59965
 C855 C 0.77638 0.92878 0.58039
 C856 C 0.79373 0.91229 0.56021
 C857 C 0.79107 0.88046 0.55853
 C858 C 0.77108 0.86539 0.57769
 H859 H 0.73902 0.86977 0.61292
 H860 H 0.77861 0.95333 0.58118
 H861 H 0.80885 0.92449 0.54561
 H862 H 0.76868 0.84086 0.57690
 C863 C 0.25573 0.89754 0.41670
 C864 C 0.24045 0.91851 0.39873
 C865 C 0.20838 0.92232 0.40144
 C866 C 0.19191 0.90576 0.42217
 C867 C 0.20718 0.88464 0.44008
 C868 C 0.23920 0.88054 0.43699
 H869 H 0.28044 0.89413 0.41482
 H870 H 0.19619 0.93847 0.38783
 H871 H 0.16723 0.90931 0.42406
 H872 H 0.25157 0.86454 0.45061
 C873 C 0.11478 0.39705 0.75829
 C874 C 0.08238 0.39651 0.75885
 C875 C 0.06647 0.41605 0.77776
 C876 C 0.08271 0.43596 0.79572
 C877 C 0.11512 0.43712 0.79463
 C878 C 0.13101 0.41741 0.77581
 H879 H 0.12748 0.38225 0.74376
 H880 H 0.04147 0.41586 0.77862
 H881 H 0.06987 0.45102 0.80990
 H882 H 0.15598 0.41781 0.77458
 C883 C 0.07606 0.59875 0.21242
 C884 C 0.08985 0.60962 0.23815
 C885 C 0.11954 0.59837 0.24526
 C886 C 0.13415 0.57645 0.22814
 C887 C 0.11974 0.56501 0.20326
 C888 C 0.09075 0.57674 0.19535
 H889 H 0.05307 0.60570 0.20602
 H890 H 0.13218 0.60682 0.26375
 H891 H 0.15675 0.56828 0.23461
 H892 H 0.07899 0.56835 0.17628
 C893 C 0.92379 0.40138 0.21374
 C894 C 0.91083 0.39190 0.24035
 C895 C 0.88168 0.40405 0.24805
 C896 C 0.86676 0.42543 0.23051
 C897 C 0.88037 0.43547 0.20468
 C898 C 0.90883 0.42290 0.19629
 H899 H 0.94637 0.39372 0.20684
 H900 H 0.86968 0.39669 0.26734
 H901 H 0.84461 0.43435 0.23743
 H902 H 0.92000 0.43022 0.17651
 C903 C 0.92832 0.59750 0.78639
 C904 C 0.91629 0.60739 0.75949
 C905 C 0.88746 0.59553 0.75076
 C906 C 0.87179 0.57433 0.76775
 C907 C 0.88428 0.56413 0.79405
 C908 C 0.91260 0.57612 0.80330
 H909 H 0.95065 0.60493 0.79402
 H910 H 0.87614 0.60315 0.73119
 H911 H 0.84978 0.56586 0.76014
 H912 H 0.92290 0.56864 0.82346
 C913 C 0.78672 0.58694 0.93243
 C914 C 0.76550 0.60687 0.91936
 C915 C 0.76084 0.60540 0.88933
 C916 C 0.77672 0.58390 0.87268
 C917 C 0.79804 0.56397 0.88571
 C918 C 0.80313 0.56588 0.91570
 H919 H 0.79070 0.58782 0.95557
 H920 H 0.74443 0.62048 0.87888
 H921 H 0.77244 0.58294 0.84961
 H922 H 0.81931 0.55066 0.92628
 C923 C 0.25122 0.41426 0.90228
 C924 C 0.23516 0.39468 0.92092
 C925 C 0.20283 0.39654 0.92235
 C926 C 0.18682 0.41801 0.90564
 C927 C 0.20289 0.43743 0.88677
 C928 C 0.23522 0.43523 0.88515
 H929 H 0.27616 0.41304 0.90072
 H930 H 0.19004 0.38165 0.93667
 H931 H 0.16189 0.41921 0.90725
 H932 H 0.24820 0.45002 0.87090
 C933 C 0.25341 0.57604 0.09275
 C934 C 0.23813 0.59965 0.07760
 C935 C 0.20560 0.60127 0.07962
 C936 C 0.18909 0.57996 0.09589
 C937 C 0.20464 0.55709 0.11131
 C938 C 0.23690 0.55540 0.10972
 H939 H 0.27834 0.57419 0.09280
 H940 H 0.19256 0.61825 0.06777
 H941 H 0.16415 0.58164 0.09676
 H942 H 0.24940 0.53791 0.12147
 C943 C 0.74610 0.42436 0.09394
 C944 C 0.76121 0.40098 0.07835
 C945 C 0.79377 0.39942 0.07996
 C946 C 0.81046 0.42055 0.09624
 C947 C 0.79509 0.44321 0.11207
 C948 C 0.76280 0.44484 0.11089
 H949 H 0.72117 0.42615 0.09433
 H950 H 0.80669 0.38263 0.06777
 H951 H 0.83542 0.41892 0.09676
 H952 H 0.75042 0.46216 0.12295
 C953 C 0.90175 0.74169 0.57898
 C954 C 0.91821 0.75673 0.60112
 C955 C 0.91714 0.78889 0.60179
 C956 C 0.90079 0.80527 0.58078
 C957 C 0.88424 0.78999 0.55919
 C958 C 0.88466 0.75811 0.55862
 H959 H 0.90084 0.71710 0.57793
 H960 H 0.93001 0.80166 0.61773
 H961 H 0.90083 0.82992 0.58157
 H962 H 0.87201 0.74583 0.54213
 C963 C 0.88158 0.23685 0.39622
 C964 C 0.91343 0.24277 0.39968
 C965 C 0.92863 0.22994 0.42386
 C966 C 0.91269 0.21172 0.44358
 C967 C 0.88096 0.20672 0.44031
 C968 C 0.86547 0.21955 0.41663
 H969 H 0.86858 0.24676 0.37854
 H970 H 0.95319 0.23289 0.42710
 H971 H 0.92506 0.20201 0.46179
 H972 H 0.84090 0.21601 0.41383
 C973 C 0.07344 0.21550 0.59227
 C974 C 0.08536 0.24318 0.60314
 C975 C 0.11420 0.25299 0.59232
 C976 C 0.13000 0.23631 0.57126
 C977 C 0.11767 0.20921 0.56027
 C978 C 0.08934 0.19887 0.57115
 H979 H 0.05108 0.20710 0.59885
 H980 H 0.12546 0.27310 0.60060
 H981 H 0.15204 0.24471 0.56365
 H982 H 0.07914 0.17809 0.56302
 C983 C 0.10239 0.74264 0.42188
 C984 C 0.08507 0.75694 0.39977
 C985 C 0.08446 0.78910 0.39904
 C986 C 0.10008 0.80619 0.41991
 C987 C 0.11752 0.79167 0.44146
 C988 C 0.11874 0.75980 0.44213
 H989 H 0.10457 0.71812 0.42299
 H990 H 0.07086 0.80131 0.38315
 H991 H 0.09877 0.83081 0.41904
 H992 H 0.13211 0.74810 0.45858
 C993 C 0.59619 0.92637 0.78593
 C994 C 0.60568 0.91431 0.75895
 C995 C 0.59310 0.88606 0.75043
 C996 C 0.57160 0.87096 0.76769
 C997 C 0.56182 0.88346 0.79409
 C998 C 0.57451 0.91122 0.80313
 H999 H 0.60415 0.94830 0.79342
 H1000 H 0.60040 0.87475 0.73079
 H1001 H 0.56261 0.84937 0.76023
 H1002 H 0.56739 0.92150 0.82338
 C1003 C 0.39919 0.92651 0.21237
 C1004 C 0.38841 0.91406 0.23873
 C1005 C 0.39965 0.88501 0.24683
 C1006 C 0.42141 0.86966 0.22994
 C1007 C 0.43266 0.88267 0.20432
 C1008 C 0.42102 0.91106 0.19552
 H1009 H 0.39229 0.94897 0.20523
 H1010 H 0.39123 0.87339 0.26588
 H1011 H 0.42952 0.84754 0.23709
 H1012 H 0.42929 0.92174 0.17587
 C1013 C 0.59700 0.07018 0.21465
 C1014 C 0.61096 0.08478 0.23834
 C1015 C 0.60318 0.11527 0.24417
 C1016 C 0.58131 0.13052 0.22729
 C1017 C 0.56689 0.11574 0.20400
 C1018 C 0.57527 0.08554 0.19760
 H1019 H 0.60215 0.04659 0.20981
 H1020 H 0.61393 0.12735 0.26191
 H1021 H 0.57560 0.15390 0.23258
 H1022 H 0.56450 0.07352 0.17983
 C1023 C 0.41595 0.06795 0.77894
 C1024 C 0.39749 0.08343 0.75871
 C1025 C 0.39956 0.11524 0.75661
 C1026 C 0.42025 0.13127 0.77404
 C1027 C 0.43876 0.11580 0.79428
 C1028 C 0.43619 0.08402 0.79678
 H1029 H 0.41456 0.04342 0.78100
 H1030 H 0.38560 0.12759 0.74104
 H1031 H 0.42175 0.15576 0.77171
 H1032 H 0.45032 0.07152 0.81209
 C1033 C 0.58590 0.74996 0.09992
 C1034 C 0.60502 0.76545 0.08035
 C1035 C 0.60243 0.79721 0.07784
 C1036 C 0.58061 0.81318 0.09431
 C1037 C 0.56155 0.79768 0.11400
 C1038 C 0.56458 0.76595 0.11678
 H1039 H 0.58770 0.72548 0.10232
 H1040 H 0.61693 0.80955 0.06279
 H1041 H 0.57877 0.83764 0.09179
 H1042 H 0.55009 0.75339 0.13168
 C1043 C 0.41576 0.24999 0.09845
 C1044 C 0.39596 0.23457 0.07946
 C1045 C 0.39784 0.20272 0.07749
 C1046 C 0.41955 0.18658 0.09396
 C1047 C 0.43922 0.20200 0.11314
 C1048 C 0.43697 0.23384 0.11535
 H1049 H 0.41454 0.27454 0.10043
 H1050 H 0.38281 0.19042 0.06290
 H1051 H 0.42078 0.16204 0.09188
 H1052 H 0.45195 0.24633 0.12984
 C1053 C 0.58543 0.21678 0.93325
 C1054 C 0.60504 0.23791 0.91984
 C1055 C 0.60378 0.24155 0.88968
 C1056 C 0.58276 0.22482 0.87323
 C1057 C 0.56308 0.20368 0.88659
 C1058 C 0.56484 0.19955 0.91671
 H1059 H 0.58614 0.21356 0.95649
 H1060 H 0.61860 0.25785 0.87895
 H1061 H 0.58192 0.22840 0.85005
 H1062 H 0.54981 0.18352 0.92756
 C1063 C 0.41615 0.74728 0.90234
 C1064 C 0.39606 0.76221 0.92151
 C1065 C 0.39702 0.79408 0.92363
 C1066 C 0.41811 0.81075 0.90706
 C1067 C 0.43802 0.79579 0.88764
 C1068 C 0.43672 0.76392 0.88536
 H1069 H 0.41562 0.72272 0.90026
 H1070 H 0.38173 0.80600 0.93836
 H1071 H 0.41863 0.83530 0.90917
 H1072 H 0.45192 0.75180 0.87070
 C1073 C 0.78452 0.92436 0.40879
 C1074 C 0.75744 0.91203 0.39689
 C1075 C 0.74781 0.88303 0.40602
 C1076 C 0.76469 0.86689 0.42679
 C1077 C 0.79164 0.87932 0.43882
 C1078 C 0.80146 0.90817 0.42948
 H1079 H 0.79231 0.94682 0.40254
 H1080 H 0.72732 0.87270 0.39695
 H1081 H 0.75659 0.84465 0.43341
 H1082 H 0.82205 0.91844 0.43842
 C1083 C 0.25642 0.89893 0.58217
 C1084 C 0.24124 0.91973 0.60035
 C1085 C 0.20916 0.92362 0.59780
 C1086 C 0.19255 0.90717 0.57712
 C1087 C 0.20771 0.88611 0.55911
 C1088 C 0.23978 0.88207 0.56193
 H1089 H 0.28113 0.89545 0.58392
 H1090 H 0.19706 0.93967 0.61157
 H1091 H 0.16785 0.91066 0.57543
 H1092 H 0.25207 0.86610 0.54823
 C1093 C 0.21527 0.07320 0.40937
 C1094 C 0.24165 0.08601 0.39654
 C1095 C 0.25073 0.11541 0.40490
 C1096 C 0.23410 0.13145 0.42586
 C1097 C 0.20788 0.11855 0.43887
 C1098 C 0.19852 0.08932 0.43027
 H1099 H 0.20790 0.05044 0.40370
 H1100 H 0.27063 0.12614 0.39509
 H1101 H 0.24180 0.15401 0.43185
 H1102 H 0.17849 0.07871 0.43995
 C1103 C 0.75327 0.11352 0.59866
 C1104 C 0.76081 0.08313 0.60525
 C1105 C 0.78578 0.06935 0.59074
 C1106 C 0.80235 0.08540 0.56971
 C1107 C 0.79416 0.11550 0.56262
 C1108 C 0.76963 0.12944 0.57753
 H1109 H 0.73461 0.12504 0.60984
 H1110 H 0.79197 0.04587 0.59505
 H1111 H 0.82111 0.07403 0.55854
 H1112 H 0.76296 0.15271 0.57281
 C1113 C 0.88864 0.59894 0.24541
 C1114 C 0.92093 0.60061 0.24350
 C1115 C 0.93655 0.58206 0.22349
 C1116 C 0.92009 0.56227 0.20556
 C1117 C 0.88780 0.56026 0.20775
 C1118 C 0.87224 0.57874 0.22789
 H1119 H 0.87615 0.61293 0.26080
 H1120 H 0.96145 0.58314 0.22155
 H1121 H 0.93267 0.54819 0.19031
 H1122 H 0.84735 0.57771 0.22999
 C1123 C 0.88302 0.40282 0.75242
 C1124 C 0.91367 0.39429 0.75849
 C1125 C 0.92847 0.40720 0.78260
 C1126 C 0.91316 0.42857 0.79990
 C1127 C 0.88277 0.43759 0.79339
 C1128 C 0.86778 0.42427 0.76961
 H1129 H 0.87079 0.39292 0.73430
 H1130 H 0.95220 0.40142 0.78764
 H1131 H 0.92537 0.43847 0.81804
 H1132 H 0.84428 0.43054 0.76415
 C1133 C 0.10532 0.58277 0.74529
 C1134 C 0.08435 0.60331 0.75782
 C1135 C 0.07974 0.60283 0.78789
 C1136 C 0.09548 0.58169 0.80513
 C1137 C 0.11658 0.56118 0.79262
 C1138 C 0.12155 0.56210 0.76258
 H1139 H 0.10926 0.58290 0.72214
 H1140 H 0.06353 0.61843 0.79792
 H1141 H 0.09129 0.58148 0.82825
 H1142 H 0.13756 0.54643 0.75237
 C1143 C 0.11198 0.40042 0.24453
 C1144 C 0.07963 0.39930 0.24321
 C1145 C 0.06391 0.41836 0.22371
 C1146 C 0.08031 0.43813 0.20568
 C1147 C 0.11268 0.43962 0.20730
 C1148 C 0.12835 0.42063 0.22696
 H1149 H 0.12454 0.38600 0.25953
 H1150 H 0.03895 0.41772 0.22226
 H1151 H 0.06766 0.45262 0.19082
 H1152 H 0.15329 0.42127 0.22860
   
