data_POSCAR
  _audit_creation_date              2014-09-24
  _audit_creation_method            'ToBaCCo'
  _symmetry_space_group_name_H-M    'P1'
  _symmetry_Int_Tables_number       1
  _symmetry_cell_setting            triclinic
  loop_
  _symmetry_equiv_pos_as_xyz
 x,y,z
_cell_length_a 17.5459
_cell_length_b 17.5329
_cell_length_c 17.6379
_cell_angle_alpha 90.530900
_cell_angle_beta 93.075600
_cell_angle_gamma 91.116400
loop_
  _atom_site_label
  _atom_site_type_symbol
  _atom_site_fract_x
  _atom_site_fract_y
  _atom_site_fract_z
O1 O 0.59485 0.50598 0.07844
 O2 O 0.38701 0.50423 0.03565
 O3 O 0.49049 0.40492 0.07869
 O4 O 0.49573 0.60935 0.03578
 O5 O 0.51488 0.58174 -0.08410
 O6 O 0.50939 0.37730 -0.04147
 O7 O 0.40705 0.47356 -0.08321
 O8 O 0.61421 0.48147 -0.04223
 Cu9 Cu 0.48925 0.50980 0.06905
 Cu10 Cu 0.51244 0.47670 -0.07535
 C11 C 0.63941 0.49190 0.02588
 C12 C 0.36169 0.48593 -0.03097
 C13 C 0.50156 0.35675 0.02648
 C14 C 0.50804 0.63022 -0.03120
 O15 O -0.08959 0.58987 0.49527
 O16 O -0.04393 0.38704 0.50733
 O17 O -0.04323 0.50124 0.61264
 O18 O -0.07371 0.48644 0.40492
 O19 O 0.04929 0.51046 0.39331
 O20 O 0.07773 0.53309 0.59971
 O21 O 0.07908 0.41646 0.50841
 O22 O 0.03283 0.62119 0.49241
 Cu23 Cu -0.07364 0.48737 0.50983
 Cu24 Cu 0.07217 0.52233 0.49656
 C25 C -0.03703 0.63998 0.48985
 C26 C 0.02518 0.36701 0.51071
 C27 C 0.02209 0.52194 0.64121
 C28 C -0.01760 0.49921 0.36400
 O29 O 0.49711 0.03434 0.61731
 O30 O 0.50371 0.07341 0.41202
 O31 O 0.40039 0.07685 0.50655
 O32 O 0.60616 0.03984 0.52018
 O33 O 0.58116 -0.08353 0.50583
 O34 O 0.37577 -0.04391 0.47514
 O35 O 0.48903 -0.04977 0.38642
 O36 O 0.46177 -0.08438 0.58861
 Cu37 Cu 0.50522 0.06816 0.51729
 Cu38 Cu 0.47576 -0.07788 0.48622
 C39 C 0.47527 -0.03173 0.63754
 C40 C 0.49562 0.01862 0.36443
 C41 C 0.35349 0.02372 0.48584
 C42 C 0.62854 -0.02835 0.51752
 C43 C 0.48821 -0.02675 -0.07855
 C44 C 0.49873 -0.08374 -0.02251
 C45 C 0.49833 -0.06319 0.05472
 C46 C 0.49454 0.01342 0.07750
 C47 C 0.49811 0.07086 0.02158
 C48 C 0.49151 0.05005 -0.05565
 H49 H 0.48890 0.09401 -0.09835
 H50 H 0.50108 -0.10718 0.09742
 C51 C -0.01404 0.49519 1.07872
 C52 C -0.07450 0.49068 1.02206
 C53 C -0.05752 0.49737 0.94568
 C54 C 0.01818 0.50246 0.92474
 C55 C 0.07836 0.49129 0.98016
 C56 C 0.06168 0.49088 1.05719
 H57 H 0.10767 0.48864 1.10054
 H58 H -0.10340 0.50028 0.90228
 C59 C 0.06735 0.02290 0.48415
 C60 C 0.01510 0.07923 0.50496
 C61 C -0.06088 0.05715 0.51598
 C62 C -0.08560 -0.01951 0.50948
 C63 C -0.03352 -0.07575 0.48763
 C64 C 0.04225 -0.05344 0.47616
 H65 H 0.08200 -0.09584 0.45856
 H66 H -0.10056 0.09974 0.53340
 N67 N -0.17741 0.43896 1.10196
 N68 N -0.25224 0.44268 1.10473
 C69 C -0.27932 0.48297 1.04504
 C70 C -0.21948 0.50620 1.00224
 C71 C -0.15521 0.47860 1.04141
 H72 H -0.22248 0.53935 0.95077
 H73 H -0.14276 0.40856 1.14047
 H74 H -0.28424 0.41564 1.14530
 N75 N 0.17445 0.44355 0.89215
 N76 N 0.25341 0.44509 0.88801
 C77 C 0.28351 0.47762 0.95250
 C78 C 0.22520 0.49834 0.99856
 C79 C 0.15762 0.47775 0.95786
 H80 H 0.23122 0.52666 1.05340
 H81 H 0.13650 0.41816 0.85140
 H82 H 0.28271 0.42231 0.84329
 N83 N -0.12548 -0.18311 0.44916
 N84 N -0.12696 -0.26240 0.45409
 C85 C -0.05701 -0.28413 0.47931
 C86 C -0.01011 -0.22005 0.49219
 C87 C -0.05587 -0.15765 0.47539
 H88 H 0.04848 -0.21889 0.51484
 H89 H -0.17085 -0.15085 0.42744
 H90 H -0.17396 -0.29760 0.43826
 N91 N 0.10448 0.18470 0.55429
 N92 N 0.10788 0.26007 0.55348
 C93 C 0.04315 0.28576 0.51911
 C94 C -0.00362 0.22396 0.49690
 C95 C 0.03819 0.16059 0.51876
 H96 H -0.05935 0.22494 0.46753
 H97 H 0.14679 0.15077 0.57957
 H98 H 0.15319 0.29317 0.57762
 N99 N 0.43082 -0.10939 -0.18424
 N100 N 0.42947 -0.11143 -0.26320
 C101 C 0.46550 -0.04792 -0.28623
 C102 C 0.49119 -0.00454 -0.22310
 C103 C 0.47031 -0.04618 -0.16013
 H104 H 0.52377 0.04852 -0.22301
 H105 H 0.40422 -0.14997 -0.15111
 H106 H 0.40358 -0.15468 -0.29725
 N107 N 0.44224 0.09179 0.18168
 N108 N 0.44586 0.09484 0.25652
 C109 C 0.48708 0.03610 0.28324
 C110 C 0.51111 -0.00654 0.22255
 C111 C 0.48306 0.03219 0.15867
 H112 H 0.54485 -0.05755 0.22473
 H113 H 0.41092 0.12946 0.14737
 H114 H 0.41798 0.13499 0.28864
 N115 N 0.55443 -0.18555 -0.10210
 N116 N 0.55508 -0.26076 -0.10543
 C117 C 0.51634 -0.28849 -0.04761
 C118 C 0.48960 -0.22860 -0.00558
 C119 C 0.51381 -0.16403 -0.04296
 H120 H 0.45622 -0.23174 0.04418
 H121 H 0.58227 -0.14996 -0.13938
 H122 H 0.58306 -0.29224 -0.14571
 N123 N 0.55430 0.17750 0.10363
 N124 N 0.55215 0.25262 0.10644
 C125 C 0.50975 0.27666 0.04592
 C126 C 0.48340 0.21463 0.00260
 C127 C 0.51149 0.15235 0.04222
 H128 H 0.44826 0.21502 -0.04973
 H129 H 0.58593 0.14461 0.14254
 H130 H 0.58170 0.28672 0.14754
 N131 N -0.18623 -0.09958 0.56912
 N132 N -0.26156 -0.10327 0.56866
 C133 C -0.28978 -0.04364 0.52956
 C134 C -0.23000 0.00007 0.50393
 C135 C -0.16513 -0.03858 0.52851
 H136 H -0.23337 0.05071 0.46938
 H137 H -0.15022 -0.13886 0.59612
 H138 H -0.29284 -0.14558 0.59532
 N139 N 0.17270 0.10406 0.43382
 N140 N 0.24810 0.10494 0.43651
 C141 C 0.27282 0.04170 0.47195
 C142 C 0.21078 -0.00144 0.49296
 C143 C 0.14813 0.04115 0.46940
 H144 H 0.21129 -0.05438 0.52405
 H145 H 0.13914 0.14613 0.40814
 H146 H 0.28183 0.14785 0.41376
 N147 N -0.08591 0.55626 1.18041
 N148 N -0.08879 0.55407 1.25480
 C149 C -0.03285 0.50934 1.28263
 C150 C 0.00803 0.48160 1.22352
 C151 C -0.02928 0.51114 1.15909
 H152 H 0.05605 0.44376 1.22679
 H153 H -0.12227 0.58854 1.14521
 H154 H -0.12734 0.58441 1.28600
 N155 N 0.09058 0.57350 0.82903
 N156 N 0.09193 0.57787 0.75454
 C157 C 0.03465 0.53400 0.72314
 C158 C -0.00532 0.50016 0.77993
 C159 C 0.03327 0.52556 0.84642
 H160 H -0.05276 0.45980 0.77371
 H161 H 0.12899 0.60238 0.86699
 H162 H 0.13184 0.61007 0.72595
   
