data_POSCAR
  _audit_creation_date              2014-09-24
  _audit_creation_method            'ToBaCCo'
  _symmetry_space_group_name_H-M    'P1'
  _symmetry_Int_Tables_number       1
  _symmetry_cell_setting            triclinic
  loop_
  _symmetry_equiv_pos_as_xyz
 x,y,z
_cell_length_a 40.2417
_cell_length_b 39.4546
_cell_length_c 38.0923
_cell_angle_alpha 89.524200
_cell_angle_beta 90.170400
_cell_angle_gamma 89.875700
loop_
  _atom_site_label
  _atom_site_type_symbol
  _atom_site_fract_x
  _atom_site_fract_y
  _atom_site_fract_z
C1 C 0.38258 0.28655 -0.03543
 C2 C 0.39671 0.27697 -0.00294
 C3 C 0.38573 0.29015 0.02891
 C4 C 0.36048 0.31488 0.02909
 C5 C 0.34511 0.32480 -0.00297
 C6 C 0.35605 0.31066 -0.03530
 C7 C 0.33862 0.31940 -0.06616
 C8 C 0.31160 0.34142 -0.06554
 C9 C 0.30077 0.35633 -0.03411
 C10 C 0.31784 0.34792 -0.00242
 C11 C 0.34939 0.32891 0.06075
 C12 C 0.32333 0.35199 0.06121
 C13 C 0.30700 0.36161 0.03009
 C14 C 0.27945 0.38376 0.03083
 C15 C 0.26295 0.39155 -0.00052
 C16 C 0.27225 0.37773 -0.03297
 H17 H 0.34456 0.30831 -0.09119
 H18 H 0.29891 0.34564 -0.09020
 H19 H 0.36047 0.32187 0.08568
 H20 H 0.31556 0.36148 0.08646
 H21 H 0.41784 0.25996 -0.00190
 H22 H 0.24349 0.41052 0.00035
 C23 C 0.71559 0.61962 0.02691
 C24 C 0.73039 0.61039 -0.00473
 C25 C 0.71976 0.62328 -0.03744
 C26 C 0.69251 0.64622 -0.03827
 C27 C 0.67639 0.65510 -0.00640
 C28 C 0.68774 0.64139 0.02618
 C29 C 0.67160 0.65066 0.05728
 C30 C 0.64498 0.67315 0.05666
 C31 C 0.63369 0.68765 0.02495
 C32 C 0.64959 0.67869 -0.00694
 C33 C 0.68229 0.66230 -0.06966
 C34 C 0.65672 0.68608 -0.06998
 C35 C 0.63969 0.69436 -0.03911
 C36 C 0.61405 0.71902 -0.03905
 C37 C 0.59856 0.72716 -0.00745
 C38 C 0.60791 0.71204 0.02450
 H39 H 0.67967 0.64098 0.08256
 H40 H 0.63398 0.67970 0.08157
 H41 H 0.69470 0.65779 -0.09430
 H42 H 0.65092 0.69830 -0.09474
 H43 H 0.74962 0.59115 -0.00361
 H44 H 0.57863 0.74572 -0.00784
 C45 C 0.62363 0.27492 0.97011
 C46 C 0.61073 0.26177 1.00137
 C47 C 0.62213 0.27195 1.03463
 C48 C 0.64790 0.29670 1.03596
 C49 C 0.66030 0.31133 1.00418
 C50 C 0.64758 0.30085 0.97125
 C51 C 0.65993 0.31568 0.94027
 C52 C 0.68464 0.34027 0.94139
 C53 C 0.69851 0.35044 0.97348
 C54 C 0.68643 0.33556 1.00520
 C55 C 0.66313 0.30579 1.06788
 C56 C 0.68945 0.32859 1.06870
 C57 C 0.70132 0.34386 1.03780
 C58 C 0.72858 0.36628 1.03835
 C59 C 0.73950 0.38136 1.00723
 C60 C 0.72504 0.37403 0.97467
 H61 H 0.65078 0.30821 0.91475
 H62 H 0.69345 0.35040 0.91665
 H63 H 0.65594 0.29448 1.09261
 H64 H 0.70063 0.33388 1.09392
 H65 H 0.59021 0.24423 0.99907
 H66 H 0.75962 0.39954 1.00870
 C67 C 0.29793 0.60885 0.96236
 C68 C 0.28126 0.60078 0.99350
 C69 C 0.29304 0.61065 1.02675
 C70 C 0.32360 0.62871 1.02868
 C71 C 0.34040 0.63791 0.99721
 C72 C 0.32739 0.62810 0.96406
 C73 C 0.34384 0.63834 0.93332
 C74 C 0.37272 0.65742 0.93488
 C75 C 0.38655 0.66677 0.96728
 C76 C 0.37022 0.65725 0.99880
 C77 C 0.33748 0.63884 1.06098
 C78 C 0.36702 0.65697 1.06247
 C79 C 0.38338 0.66749 1.03178
 C80 C 0.41355 0.68629 1.03293
 C81 C 0.42995 0.69370 1.00147
 C82 C 0.41589 0.68615 0.96890
 H83 H 0.33429 0.63218 0.90758
 H84 H 0.38412 0.66463 0.91026
 H85 H 0.32591 0.63319 1.08584
 H86 H 0.37699 0.66227 1.08821
 H87 H 0.26002 0.58411 0.99173
 H88 H 0.45276 0.70837 1.00203
 C89 C 0.03821 0.29606 0.38366
 C90 C 0.01009 0.27944 0.39652
 C91 C -0.02212 0.28680 0.38448
 C92 C -0.02617 0.31085 0.35660
 C93 C 0.00208 0.32879 0.34389
 C94 C 0.03427 0.32153 0.35773
 C95 C 0.06195 0.33856 0.34389
 C96 C 0.05844 0.36165 0.31641
 C97 C 0.02708 0.36878 0.30179
 C98 C -0.00150 0.35263 0.31580
 C99 C -0.05656 0.31521 0.33865
 C100 C -0.06033 0.33931 0.31213
 C101 C -0.03337 0.35895 0.30061
 C102 C -0.03672 0.38235 0.27216
 C103 C -0.00781 0.39779 0.25908
 C104 C 0.02375 0.39057 0.27252
 H105 H 0.08680 0.33357 0.35355
 H106 H 0.08076 0.37339 0.30632
 H107 H -0.07759 0.29894 0.34326
 H108 H -0.08437 0.34086 0.29949
 H109 H 0.01349 0.26082 0.41739
 H110 H -0.00957 0.41699 0.23865
 C111 C 0.03043 0.62066 0.72472
 C112 C 0.00142 0.60226 0.73062
 C113 C -0.02985 0.61407 0.71988
 C114 C -0.03156 0.64418 0.69890
 C115 C -0.00178 0.66229 0.69105
 C116 C 0.02923 0.65048 0.70426
 C117 C 0.05826 0.66888 0.69698
 C118 C 0.05722 0.69793 0.67622
 C119 C 0.02709 0.70985 0.66207
 C120 C -0.00286 0.69218 0.66980
 C121 C -0.06132 0.65542 0.68335
 C122 C -0.06262 0.68518 0.66348
 C123 C -0.03374 0.70413 0.65618
 C124 C -0.03470 0.73482 0.63617
 C125 C -0.00443 0.75109 0.62839
 C126 C 0.02623 0.73914 0.64058
 H127 H 0.08219 0.66089 0.70714
 H128 H 0.08035 0.71117 0.67170
 H129 H -0.08396 0.64094 0.68538
 H130 H -0.08679 0.69263 0.65384
 H131 H 0.00325 0.57908 0.74612
 H132 H -0.00418 0.77190 0.60972
 C133 C 1.02019 0.62857 0.26824
 C134 C 0.98878 0.61512 0.26079
 C135 C 0.96033 0.62482 0.27935
 C136 C 0.96333 0.64853 0.30681
 C137 C 0.99500 0.66216 0.31517
 C138 C 1.02346 0.65220 0.29577
 C139 C 1.05440 0.66639 0.30420
 C140 C 1.05755 0.68945 0.33141
 C141 C 1.02979 0.69973 0.35116
 C142 C 0.99819 0.68573 0.34306
 C143 C 0.93541 0.65942 0.32576
 C144 C 0.93854 0.68232 0.35309
 C145 C 0.96971 0.69537 0.36260
 C146 C 0.97300 0.71845 0.39056
 C147 C 1.00463 0.73032 0.39962
 C148 C 1.03305 0.72213 0.37997
 H149 H 1.07663 0.65979 0.28987
 H150 H 1.08230 0.69849 0.33711
 H151 H 0.91067 0.65060 0.31955
 H152 H 0.91610 0.68967 0.36663
 H153 H 0.98670 0.59560 0.24106
 H154 H 1.00660 0.74811 0.42107
 C155 C 1.03263 0.27107 0.62017
 C156 C 1.00272 0.25803 0.60734
 C157 C 0.97192 0.27171 0.61662
 C158 C 0.97094 0.30043 0.63855
 C159 C 1.00111 0.31408 0.65196
 C160 C 1.03201 0.29933 0.64267
 C161 C 1.06139 0.31243 0.65707
 C162 C 1.06062 0.33919 0.68058
 C163 C 1.03041 0.35451 0.69039
 C164 C 1.00029 0.34186 0.67553
 C165 C 0.94062 0.31518 0.64830
 C166 C 0.93976 0.34248 0.67111
 C167 C 0.96917 0.35593 0.68526
 C168 C 0.96815 0.38230 0.70987
 C169 C 0.99777 0.39441 0.72427
 C170 C 1.02905 0.38054 0.71612
 H171 H 1.08536 0.30148 0.65104
 H172 H 1.08420 0.34696 0.69133
 H173 H 0.91717 0.30543 0.63880
 H174 H 0.91565 0.35254 0.67811
 H175 H 1.00345 0.23707 0.58911
 H176 H 0.99607 0.41595 0.74165
 C177 C 0.26638 -0.03857 0.38393
 C178 C 0.25427 -0.00669 0.39370
 C179 C 0.26799 0.02359 0.38136
 C180 C 0.29510 0.02256 0.35806
 C181 C 0.30686 -0.00922 0.34583
 C182 C 0.29224 -0.03999 0.35835
 C183 C 0.30168 -0.07048 0.34229
 C184 C 0.32629 -0.07132 0.31671
 C185 C 0.34213 -0.04154 0.30504
 C186 C 0.33196 -0.01001 0.31949
 C187 C 0.30949 0.05262 0.34525
 C188 C 0.33427 0.05181 0.31998
 C189 C 0.34545 0.02094 0.30629
 C190 C 0.36870 0.02029 0.27864
 C191 C 0.37876 -0.01091 0.26530
 C192 C 0.36553 -0.04193 0.27712
 H193 H 0.28894 -0.09397 0.34762
 H194 H 0.33152 -0.09566 0.30517
 H195 H 0.30116 0.07722 0.35399
 H196 H 0.34393 0.07577 0.31054
 H197 H 0.23432 -0.00514 0.41277
 H198 H 0.39816 -0.01080 0.24559
 C199 C 0.61657 -0.02785 0.71043
 C200 C 0.59544 0.00061 0.71099
 C201 C 0.60519 0.03189 0.69695
 C202 C 0.63592 0.03458 0.67918
 C203 C 0.65665 0.00558 0.67624
 C204 C 0.64712 -0.02562 0.69208
 C205 C 0.66758 -0.05429 0.68750
 C206 C 0.69680 -0.05235 0.66832
 C207 C 0.70684 -0.02174 0.65282
 C208 C 0.68700 0.00774 0.65733
 C209 C 0.64602 0.06519 0.66348
 C210 C 0.67608 0.06751 0.64560
 C211 C 0.69715 0.03920 0.64243
 C212 C 0.72775 0.04118 0.62421
 C213 C 0.74740 0.01186 0.62134
 C214 C 0.73661 -0.01962 0.63347
 H215 H 0.66087 -0.07896 0.69777
 H216 H 0.71162 -0.07514 0.66602
 H217 H 0.63053 0.08762 0.66451
 H218 H 0.68227 0.09171 0.63385
 H219 H 0.57239 -0.00038 0.72565
 H220 H 0.77134 0.01314 0.60843
 C221 C 0.28114 0.97210 0.63149
 C222 C 0.26796 1.00249 0.61841
 C223 C 0.27578 1.03428 0.63274
 C224 C 0.30014 1.03550 0.65995
 C225 C 0.31407 1.00468 0.67341
 C226 C 0.30433 0.97300 0.65927
 C227 C 0.31732 0.94293 0.67394
 C228 C 0.33959 0.94371 0.70184
 C229 C 0.34992 0.97459 0.71622
 C230 C 0.33705 1.00541 0.70189
 C231 C 0.30968 1.06624 0.67559
 C232 C 0.33256 1.06689 0.70305
 C233 C 0.34668 1.03688 0.71642
 C234 C 0.36943 1.03731 0.74476
 C235 C 0.38124 1.00686 0.75893
 C236 C 0.37198 0.97544 0.74524
 H237 H 0.30995 0.91829 0.66449
 H238 H 0.34813 0.91968 0.71240
 H239 H 0.29930 1.09029 0.66742
 H240 H 0.33847 1.09125 0.71429
 H241 H 0.25209 1.00123 0.59543
 H242 H 0.39924 1.00783 0.78015
 C243 C 0.61691 1.02006 0.26919
 C244 C 0.60475 0.98727 0.26334
 C245 C 0.61965 0.95823 0.27751
 C246 C 0.64686 0.96191 0.30069
 C247 C 0.65856 0.99494 0.30909
 C248 C 0.64331 1.02415 0.29369
 C249 C 0.65625 1.05629 0.30174
 C250 C 0.68290 1.05994 0.32461
 C251 C 0.69842 1.03164 0.34026
 C252 C 0.68645 0.99870 0.33188
 C253 C 0.66323 0.93348 0.31494
 C254 C 0.69078 0.93716 0.33672
 C255 C 0.70286 0.96943 0.34541
 C256 C 0.73155 0.97319 0.36642
 C257 C 0.74269 1.00573 0.37468
 C258 C 0.72683 1.03527 0.36221
 H259 H 0.64660 1.07931 0.29011
 H260 H 0.69188 1.08540 0.32861
 H261 H 0.65531 0.90802 0.30880
 H262 H 0.70282 0.91433 0.34628
 H263 H 0.58222 0.98412 0.24807
 H264 H 0.76298 1.00772 0.39329
 O265 O 0.84058 0.90709 0.53112
 O266 O 0.89311 0.86134 0.46925
 O267 O 0.84031 0.89881 0.46357
 O268 O 0.89108 0.86685 0.53675
 O269 O 0.85870 0.82189 0.54146
 O270 O 0.80718 0.85450 0.46824
 O271 O 0.86120 0.81603 0.47376
 O272 O 0.80753 0.86273 0.53650
 Cu273 Cu 0.86943 0.88797 0.49963
 Cu274 Cu 0.83022 0.83432 0.50528
 C275 C 0.81530 0.89299 0.54450
 C276 C 0.88675 0.83090 0.46140
 C277 C 0.81494 0.88236 0.45355
 C278 C 0.88382 0.83880 0.55131
 O279 O 0.17399 0.12268 0.53659
 O280 O 0.12353 0.16394 0.46900
 O281 O 0.17185 0.12103 0.46885
 O282 O 0.12745 0.16792 0.53664
 O283 O 0.16432 0.20917 0.53345
 O284 O 0.20882 0.16210 0.46445
 O285 O 0.15922 0.20628 0.46525
 O286 O 0.21188 0.16286 0.53291
 Cu287 Cu 0.14558 0.13985 0.50321
 Cu288 Cu 0.18981 0.18931 0.49863
 C289 C 0.20161 0.13505 0.54611
 C290 C 0.13225 0.19209 0.45581
 C291 C 0.19794 0.13335 0.45514
 C292 C 0.13805 0.19662 0.54648
 O293 O 0.16515 0.86859 0.46690
 O294 O 0.11873 0.83212 0.54096
 O295 O 0.15775 0.88351 0.53281
 O296 O 0.12388 0.81855 0.47495
 O297 O 0.16550 0.78427 0.48873
 O298 O 0.20070 0.85068 0.54569
 O299 O 0.16123 0.79881 0.55416
 O300 O 0.20809 0.83566 0.47941
 Cu301 Cu 0.13728 0.85406 0.50247
 Cu302 Cu 0.18842 0.81407 0.51790
 C303 C 0.19464 0.85889 0.46085
 C304 C 0.13183 0.80905 0.56002
 C305 C 0.18476 0.87831 0.54917
 C306 C 0.13808 0.78992 0.47307
 O307 O 0.88892 0.16771 0.52340
 O308 O 0.85561 0.12049 0.44914
 O309 O 0.89327 0.17248 0.45558
 O310 O 0.84977 0.11558 0.51575
 O311 O 0.80631 0.14992 0.51619
 O312 O 0.84988 0.20691 0.45409
 O313 O 0.81088 0.15309 0.44817
 O314 O 0.84609 0.20275 0.52194
 Cu315 Cu 0.87634 0.14084 0.48634
 Cu316 Cu 0.82383 0.18167 0.48496
 C317 C 0.87382 0.19359 0.53498
 C318 C 0.82736 0.12799 0.43652
 C319 C 0.87922 0.19934 0.44468
 C320 C 0.82048 0.12247 0.52555
 O321 O 0.47052 0.87732 0.83404
 O322 O 0.54386 0.82996 0.86456
 O323 O 0.53199 0.87481 0.81514
 O324 O 0.48233 0.83280 0.88316
 O325 O 0.47068 0.79135 0.84647
 O326 O 0.51935 0.83432 0.77771
 O327 O 0.53189 0.78836 0.82821
 O328 O 0.45815 0.83639 0.79706
 Cu329 Cu 0.50851 0.85782 0.85283
 Cu330 Cu 0.49405 0.80842 0.80850
 C331 C 0.45210 0.86532 0.81004
 C332 C 0.54958 0.80057 0.85276
 C333 C 0.53303 0.86246 0.78451
 C334 C 0.46872 0.80458 0.87669
 O335 O 0.51870 0.14348 0.11029
 O336 O 0.45512 0.10605 0.16698
 O337 O 0.45471 0.14671 0.11342
 O338 O 0.51921 0.10301 0.16379
 O339 O 0.52342 0.14603 0.20020
 O340 O 0.45904 0.19109 0.14811
 O341 O 0.45871 0.14927 0.20319
 O342 O 0.52371 0.18728 0.14565
 Cu343 Cu 0.48652 0.12048 0.13516
 Cu344 Cu 0.49146 0.17290 0.17794
 C345 C 0.53199 0.17159 0.11794
 C346 C 0.44614 0.12086 0.19486
 C347 C 0.44635 0.17656 0.12159
 C348 C 0.53226 0.11665 0.19054
 O349 O 0.54527 0.12513 0.82405
 O350 O 0.48216 0.15930 0.88299
 O351 O 0.48138 0.11703 0.83128
 O352 O 0.54478 0.16925 0.87350
 O353 O 0.53506 0.21079 0.83563
 O354 O 0.47011 0.15860 0.79388
 O355 O 0.47184 0.20171 0.84630
 O356 O 0.53422 0.16534 0.78497
 Cu357 Cu 0.51436 0.13848 0.85659
 Cu358 Cu 0.50178 0.18823 0.81124
 C359 C 0.55050 0.13913 0.79456
 C360 C 0.46678 0.18647 0.87540
 C361 C 0.46486 0.12884 0.80552
 C362 C 0.55060 0.19899 0.86210
 O363 O 0.44774 0.82411 0.12055
 O364 O 0.51143 0.88110 0.15594
 O365 O 0.50980 0.83626 0.10759
 O366 O 0.44834 0.87186 0.16659
 O367 O 0.46114 0.83459 0.20798
 O368 O 0.52356 0.79755 0.14734
 O369 O 0.52488 0.84338 0.19678
 O370 O 0.46140 0.78554 0.16046
 Cu371 Cu 0.47787 0.85714 0.13382
 Cu372 Cu 0.49388 0.81137 0.18237
 C373 C 0.44430 0.79478 0.13396
 C374 C 0.52918 0.87202 0.18201
 C375 C 0.52713 0.81100 0.11708
 C376 C 0.44419 0.85992 0.19724
 O377 O 0.90003 0.53253 0.84330
 O378 O 0.85742 0.47119 0.90019
 O379 O 0.90025 0.46740 0.85071
 O380 O 0.85897 0.53678 0.89549
 O381 O 0.81629 0.53407 0.85901
 O382 O 0.86020 0.46588 0.81093
 O383 O 0.81610 0.46770 0.86209
 O384 O 0.85787 0.53224 0.80604
 Cu385 Cu 0.88322 0.50237 0.87618
 Cu386 Cu 0.83337 0.49974 0.83063
 C387 C 0.88639 0.54292 0.81511
 C388 C 0.82978 0.45867 0.89085
 C389 C 0.88775 0.45499 0.82317
 C390 C 0.83057 0.54693 0.88559
 O391 O 0.14669 0.47410 0.10669
 O392 O 0.10589 0.54243 0.15474
 O393 O 0.14728 0.53954 0.10228
 O394 O 0.10694 0.47705 0.15919
 O395 O 0.14910 0.47858 0.19639
 O396 O 0.18997 0.54144 0.13879
 O397 O 0.14785 0.54437 0.19210
 O398 O 0.18970 0.47560 0.14285
 Cu399 Cu 0.12247 0.50830 0.12708
 Cu400 Cu 0.17350 0.51043 0.17125
 C401 C 0.17496 0.46317 0.11631
 C402 C 0.11933 0.55457 0.18205
 C403 C 0.17585 0.55051 0.11034
 C404 C 0.12096 0.46706 0.18734
 O405 O 0.80990 0.52674 0.12425
 O406 O 0.85879 0.46323 0.17228
 O407 O 0.80430 0.46220 0.13599
 O408 O 0.86426 0.52744 0.15992
 O409 O 0.83601 0.53779 0.20832
 O410 O 0.77436 0.47269 0.18315
 O411 O 0.83017 0.47296 0.22049
 O412 O 0.78044 0.53751 0.17169
 Cu413 Cu 0.83708 0.49371 0.14336
 Cu414 Cu 0.80230 0.50619 0.20084
 C415 C 0.78699 0.54310 0.13953
 C416 C 0.85341 0.45753 0.20462
 C417 C 0.77895 0.45655 0.15487
 C418 C 0.86063 0.54356 0.18827
 O419 O 0.16374 0.52749 0.87928
 O420 O 0.12085 0.46479 0.82622
 O421 O 0.16720 0.46224 0.87373
 O422 O 0.12172 0.53007 0.82840
 O423 O 0.16134 0.53367 0.78857
 O424 O 0.20689 0.46487 0.83394
 O425 O 0.15943 0.46786 0.78532
 O426 O 0.20442 0.53072 0.84059
 Cu427 Cu 0.13950 0.49567 0.85583
 Cu428 Cu 0.18711 0.49943 0.80812
 C429 C 0.19120 0.53981 0.86941
 C430 C 0.13190 0.45613 0.79648
 C431 C 0.19504 0.45229 0.86195
 C432 C 0.13363 0.54339 0.80069
 C433 C 0.26780 0.40067 0.06343
 C434 C 0.23530 0.40431 0.06984
 C435 C 0.22226 0.42772 0.09647
 C436 C 0.19006 0.43610 0.09537
 H437 H 0.21759 0.39184 0.05275
 H438 H 0.23906 0.44011 0.11455
 H439 H 0.28586 0.41228 0.08068
 H440 H 0.17414 0.42432 0.07595
 C441 C 0.72980 0.60492 0.05987
 C442 C 0.76288 0.60393 0.06449
 C443 C 0.78060 0.58215 0.09004
 C444 C 0.76766 0.56838 0.11920
 H445 H 0.77854 0.61661 0.04539
 H446 H 0.80623 0.57661 0.08347
 H447 H 0.71335 0.59250 0.07831
 H448 H 0.74298 0.57517 0.12793
 C449 C 0.73780 0.39215 0.94285
 C450 C 0.77021 0.39910 0.93910
 C451 C 0.78319 0.42218 0.91166
 C452 C 0.81445 0.43344 0.91444
 H453 H 0.78775 0.38887 0.95809
 H454 H 0.76706 0.43128 0.89078
 H455 H 0.72026 0.40146 0.92341
 H456 H 0.82956 0.42479 0.93640
 C457 C 0.28532 0.59429 0.92885
 C458 C 0.25278 0.59238 0.92192
 C459 C 0.23933 0.57186 0.89293
 C460 C 0.20692 0.56462 0.89273
 H461 H 0.23536 0.60423 0.93973
 H462 H 0.25592 0.56044 0.87402
 H463 H 0.30290 0.58314 0.91079
 H464 H 0.19125 0.57510 0.91310
 C465 C 0.07116 0.28585 0.39830
 C466 C 0.07915 0.25301 0.40149
 C467 C 0.10772 0.24060 0.42243
 C468 C 0.10971 0.20743 0.42967
 H469 H 0.06237 0.23436 0.39051
 H470 H 0.12479 0.25832 0.43440
 H471 H 0.08782 0.30509 0.40820
 H472 H 0.09121 0.19062 0.41857
 C473 C 0.05696 0.75555 0.62675
 C474 C 0.05876 0.78923 0.62166
 C475 C 0.08328 0.80632 0.59876
 C476 C 0.11215 0.79288 0.58818
 H477 H 0.03875 0.80509 0.63113
 H478 H 0.07601 0.83111 0.58892
 H479 H 0.07662 0.73920 0.61751
 H480 H 0.12100 0.76912 0.59909
 C481 C 0.94381 0.73182 0.41000
 C482 C 0.93954 0.76522 0.41387
 C483 C 0.91188 0.77989 0.43417
 C484 C 0.91034 0.81350 0.43817
 H485 H 0.95745 0.78237 0.40208
 H486 H 0.89407 0.76344 0.44706
 H487 H 0.92561 0.71433 0.42055
 H488 H 0.92905 0.82923 0.42571
 C489 C 0.94164 0.25546 0.60196
 C490 C 0.93859 0.22159 0.60278
 C491 C 0.91575 0.20172 0.58068
 C492 C 0.88973 0.21407 0.56258
 H493 H 0.95694 0.20689 0.61723
 H494 H 0.92245 0.17528 0.57768
 H495 H 0.92384 0.27117 0.58802
 H496 H 0.88123 0.23981 0.56633
 C497 C 0.38291 0.05140 0.26205
 C498 C 0.38297 0.05449 0.22692
 C499 C 0.40327 0.07830 0.20591
 C500 C 0.42174 0.10395 0.21813
 H501 H 0.36975 0.03566 0.21175
 H502 H 0.40431 0.07257 0.17816
 H503 H 0.39517 0.06982 0.27846
 H504 H 0.42029 0.11151 0.24531
 C505 C 0.58324 0.06125 0.70420
 C506 C 0.59308 0.08593 0.72571
 C507 C 0.56882 0.10920 0.74186
 C508 C 0.57624 0.12433 0.77213
 H509 H 0.61863 0.08623 0.73485
 H510 H 0.54369 0.11062 0.73158
 H511 H 0.55712 0.05905 0.69759
 H512 H 0.60048 0.12015 0.78389
 C513 C 0.38786 0.94435 0.76018
 C514 C 0.39307 0.94068 0.79484
 C515 C 0.41559 0.91517 0.81072
 C516 C 0.42458 0.88599 0.79564
 H517 H 0.38347 0.95969 0.81249
 H518 H 0.42615 0.92178 0.83594
 H519 H 0.39762 0.92587 0.74209
 H520 H 0.41296 0.87790 0.77147
 C521 C 0.60515 0.92484 0.26753
 C522 C 0.59480 0.91973 0.23448
 C523 C 0.57190 0.89233 0.22436
 C524 C 0.55490 0.89564 0.19421
 H525 H 0.60082 0.93856 0.21458
 H526 H 0.56731 0.87123 0.24207
 H527 H 0.60020 0.90605 0.28772
 H528 H 0.55907 0.91786 0.17785
 C529 C 0.39593 0.27297 0.93308
 C530 C 0.41142 0.24276 0.93184
 C531 C 0.42924 0.23042 0.90052
 C532 C 0.44386 0.19991 0.90199
 H533 H 0.41116 0.22613 0.95460
 H534 H 0.43216 0.24669 0.87770
 H535 H 0.39379 0.28717 0.90877
 H536 H 0.44072 0.18444 0.92542
 C537 C 0.60378 0.73951 0.92990
 C538 C 0.59109 0.72601 0.90056
 C539 C 0.57296 0.74634 0.87360
 C540 C 0.57554 0.78014 0.87022
 H541 H 0.59006 0.69869 0.89829
 H542 H 0.55451 0.73304 0.85823
 H543 H 0.60160 0.76646 0.93427
 H544 H 0.59398 0.79387 0.88510
 C545 C 0.42798 0.69981 0.06349
 C546 C 0.41095 0.71790 0.08703
 C547 C 0.42925 0.73867 0.11253
 C548 C 0.42110 0.77116 0.11716
 H549 H 0.38442 0.72182 0.08390
 H550 H 0.45251 0.72905 0.12313
 H551 H 0.45487 0.70220 0.06408
 H552 H 0.39982 0.78167 0.10332
 C553 C 0.60672 0.25841 0.06528
 C554 C 0.59154 0.22805 0.06591
 C555 C 0.57104 0.21583 0.09555
 C556 C 0.55651 0.18543 0.09306
 H557 H 0.59398 0.21121 0.04377
 H558 H 0.56637 0.23199 0.11787
 H559 H 0.60675 0.27286 0.08928
 H560 H 0.56157 0.17003 0.07022
 C561 C 0.25930 0.06350 0.61906
 C562 C 0.22800 0.06172 0.60659
 C563 C 0.20926 0.08874 0.58826
 C564 C 0.22226 0.11570 0.57158
 H565 H 0.21392 0.03862 0.61037
 H566 H 0.18304 0.08338 0.58497
 H567 H 0.27123 0.08797 0.61954
 H568 H 0.24837 0.12175 0.57408
 C569 C 0.73846 0.06728 0.37373
 C570 C 0.77042 0.07279 0.38209
 C571 C 0.78180 0.10305 0.40117
 C572 C 0.81403 0.10550 0.40937
 H573 H 0.78893 0.05374 0.37601
 H574 H 0.76386 0.12074 0.41173
 H575 H 0.72119 0.08814 0.37645
 H576 H 0.83121 0.08684 0.39908
 C577 C 0.75707 0.95080 0.62331
 C578 C 0.74480 0.92615 0.60296
 C579 C 0.76614 0.90294 0.58248
 C580 C 0.79528 0.91307 0.56908
 H581 H 0.71820 0.92426 0.59907
 H582 H 0.75589 0.87870 0.57495
 H583 H 0.78367 0.95285 0.62708
 H584 H 0.80426 0.93836 0.57445
 C585 C 0.25039 0.93356 0.40038
 C586 C 0.26424 0.90366 0.40946
 C587 C 0.24631 0.87855 0.43181
 C588 C 0.21300 0.87643 0.43268
 H589 H 0.29050 0.89936 0.40537
 H590 H 0.26106 0.86301 0.44953
 H591 H 0.22602 0.93872 0.41113
 H592 H 0.19818 0.89116 0.41433
 C593 C 0.05767 0.39299 0.73388
 C594 C 0.05594 0.40482 0.76688
 C595 C 0.08297 0.42069 0.78718
 C596 C 0.11133 0.43365 0.77430
 H597 H 0.03304 0.40212 0.78148
 H598 H 0.07701 0.42476 0.81454
 H599 H 0.08177 0.39190 0.72161
 H600 H 0.11794 0.43040 0.74703
 C601 C 0.04920 0.61543 0.24831
 C602 C 0.04750 0.61122 0.21343
 C603 C 0.07146 0.59182 0.19210
 C604 C 0.10081 0.57947 0.20324
 H605 H 0.02548 0.62000 0.19963
 H606 H 0.06302 0.58588 0.16583
 H607 H 0.07093 0.60741 0.26293
 H608 H 0.11055 0.58582 0.22883
 C609 C 0.93206 0.39158 0.25734
 C610 C 0.92904 0.40150 0.22357
 C611 C 0.89933 0.41681 0.20709
 C612 C 0.87578 0.43423 0.22414
 H613 H 0.94975 0.39819 0.20584
 H614 H 0.89983 0.41779 0.17866
 H615 H 0.90990 0.39031 0.27327
 H616 H 0.87511 0.43433 0.25254
 C617 C 0.94317 0.59456 0.73236
 C618 C 0.91409 0.60661 0.74426
 C619 C 0.89236 0.58461 0.76598
 C620 C 0.90524 0.56663 0.79282
 H621 H 0.90741 0.63307 0.74180
 H622 H 0.86586 0.58451 0.76100
 H623 H 0.94841 0.56814 0.73853
 H624 H 0.93139 0.56949 0.79910
 C625 C 0.73557 0.61156 0.93175
 C626 C 0.76759 0.60214 0.93170
 C627 C 0.78280 0.58260 0.90321
 C628 C 0.81446 0.57296 0.90689
 H629 H 0.78307 0.60760 0.95431
 H630 H 0.76771 0.57339 0.88172
 H631 H 0.72162 0.60960 0.90752
 H632 H 0.82875 0.58231 0.92898
 C633 C 0.25379 0.38712 0.93672
 C634 C 0.22128 0.39509 0.93834
 C635 C 0.20178 0.41196 0.91043
 C636 C 0.21473 0.42745 0.88222
 H637 H 0.20756 0.39010 0.96224
 H638 H 0.17561 0.41529 0.91611
 H639 H 0.26593 0.38802 0.91153
 H640 H 0.24075 0.42480 0.87579
 C641 C 0.27522 0.60042 0.05707
 C642 C 0.24233 0.59497 0.05695
 C643 C 0.22530 0.57948 0.08716
 C644 C 0.19289 0.57258 0.08501
 H645 H 0.22751 0.60131 0.03402
 H646 H 0.23970 0.57109 0.10972
 H647 H 0.28817 0.59651 0.08165
 H648 H 0.17901 0.58047 0.06188
 C649 C 0.74878 0.37316 0.06981
 C650 C 0.73785 0.39231 0.09611
 C651 C 0.76242 0.40902 0.11873
 C652 C 0.75395 0.43228 0.14236
 H653 H 0.71182 0.39930 0.09765
 H654 H 0.78854 0.40525 0.11284
 H655 H 0.77523 0.36828 0.06756
 H656 H 0.72818 0.43584 0.14963
 C657 C 0.93559 0.74828 0.62146
 C658 C 0.93206 0.78127 0.61333
 C659 C 0.90473 0.79400 0.59115
 C660 C 0.90592 0.82587 0.57904
 H661 H 0.95054 0.79945 0.62172
 H662 H 0.88567 0.77674 0.58213
 H663 H 0.91499 0.73175 0.61555
 H664 H 0.92584 0.84240 0.58750
 C665 C 0.95226 0.26792 0.40064
 C666 C 0.92062 0.27788 0.40534
 C667 C 0.89592 0.25555 0.42260
 C668 C 0.89838 0.22170 0.42163
 H669 H 0.91320 0.30375 0.39982
 H670 H 0.87613 0.26734 0.43737
 H671 H 0.95977 0.24452 0.41355
 H672 H 0.91772 0.20976 0.40635
 C673 C 0.06396 0.25509 0.60826
 C674 C 0.06710 0.22126 0.60800
 C675 C 0.09269 0.20238 0.58857
 C676 C 0.11871 0.21627 0.57200
 H677 H 0.04762 0.20599 0.61969
 H678 H 0.08805 0.17549 0.58579
 H679 H 0.08300 0.27137 0.59751
 H680 H 0.12488 0.24271 0.57523
 C681 C 0.06324 0.73857 0.38780
 C682 C 0.07280 0.74498 0.42073
 C683 C 0.10018 0.76825 0.42847
 C684 C 0.12067 0.76221 0.45541
 H685 H 0.05949 0.73398 0.44275
 H686 H 0.10075 0.79246 0.41483
 H687 H 0.07962 0.74611 0.36662
 H688 H 0.12130 0.73734 0.46770
 C689 C 0.60863 0.94345 0.73103
 C690 C 0.57756 0.93270 0.73608
 C691 C 0.57032 0.90630 0.76222
 C692 C 0.54765 0.88254 0.75593
 H693 H 0.55707 0.94339 0.72109
 H694 H 0.58218 0.90783 0.78776
 H695 H 0.62855 0.92903 0.74323
 H696 H 0.53745 0.87978 0.72974
 C697 C 0.37620 0.92789 0.26059
 C698 C 0.38339 0.92765 0.22617
 C699 C 0.39905 0.89981 0.20684
 C700 C 0.42051 0.87727 0.22063
 H701 H 0.37728 0.94958 0.21007
 H702 H 0.39691 0.90199 0.17854
 H703 H 0.37763 0.90435 0.27525
 H704 H 0.42351 0.87462 0.24877
 C705 C 0.60205 0.04749 0.25061
 C706 C 0.58907 0.04339 0.21832
 C707 C 0.56966 0.06860 0.19832
 C708 C 0.55706 0.09742 0.21108
 H709 H 0.59271 0.01969 0.20469
 H710 H 0.56309 0.06100 0.17192
 H711 H 0.60183 0.07248 0.26179
 H712 H 0.56312 0.10596 0.23722
 C713 C 0.38271 0.06848 0.76064
 C714 C 0.40139 0.09032 0.74227
 C715 C 0.42373 0.11481 0.75948
 C716 C 0.43970 0.10698 0.78941
 H717 H 0.40208 0.08888 0.71390
 H718 H 0.42972 0.13796 0.74542
 H719 H 0.38216 0.06992 0.78902
 H720 H 0.43572 0.08256 0.80188
 C721 C 0.59042 0.72261 0.05693
 C722 C 0.58404 0.75527 0.06296
 C723 C 0.56322 0.76648 0.09236
 C724 C 0.55140 0.79808 0.09187
 H725 H 0.59309 0.77427 0.04462
 H726 H 0.55579 0.74868 0.11268
 H727 H 0.58210 0.70347 0.07545
 H728 H 0.55778 0.81480 0.07016
 C729 C 0.40086 0.27657 0.06162
 C730 C 0.40105 0.24322 0.06770
 C731 C 0.41971 0.22777 0.09696
 C732 C 0.42252 0.19409 0.09860
 H733 H 0.38868 0.22667 0.04917
 H734 H 0.43344 0.24368 0.11495
 H735 H 0.41228 0.29376 0.08009
 H736 H 0.40957 0.17876 0.07943
 C737 C 0.61135 0.26016 0.93688
 C738 C 0.61249 0.22647 0.93271
 C739 C 0.59397 0.20714 0.90615
 C740 C 0.57446 0.22048 0.88102
 H741 H 0.62526 0.21129 0.95243
 H742 H 0.59448 0.17988 0.90984
 H743 H 0.59965 0.27667 0.91772
 H744 H 0.57406 0.24745 0.87580
 C745 C 0.43035 0.70226 0.93731
 C746 C 0.43328 0.73593 0.93572
 C747 C 0.44669 0.75330 0.90470
 C748 C 0.45172 0.78673 0.90528
 H749 H 0.42561 0.75104 0.95797
 H750 H 0.45384 0.73859 0.88201
 H751 H 0.43694 0.68686 0.91496
 H752 H 0.44577 0.80095 0.92869
 C753 C 0.74980 0.94400 0.38223
 C754 C 0.78315 0.94344 0.38214
 C755 C 0.80417 0.92237 0.40548
 C756 C 0.79355 0.89658 0.42558
 H757 H 0.79621 0.96265 0.36710
 H758 H 0.82982 0.93041 0.40766
 H759 H 0.73572 0.92516 0.39656
 H760 H 0.76862 0.88674 0.42289
 C761 C 0.27033 0.93992 0.61494
 C762 C 0.23855 0.93502 0.60605
 C763 C 0.22767 0.90544 0.58585
 C764 C 0.19713 0.90525 0.57204
 H765 H 0.22018 0.95410 0.61260
 H766 H 0.24488 0.88488 0.58085
 H767 H 0.28865 0.92063 0.60913
 H768 H 0.18073 0.92666 0.57640
 C769 C 0.25339 0.05573 0.39423
 C770 C 0.22034 0.06011 0.39424
 C771 C 0.20254 0.08597 0.41463
 C772 C 0.21642 0.11329 0.42924
 H773 H 0.20486 0.04110 0.38198
 H774 H 0.17647 0.08081 0.41926
 H775 H 0.26977 0.07405 0.40615
 H776 H 0.24184 0.12027 0.42358
 C777 C 0.74005 0.07314 0.60770
 C778 C 0.75712 0.07237 0.57766
 C779 C 0.77429 0.10193 0.56285
 C780 C 0.80273 0.09659 0.54581
 H781 H 0.76034 0.04854 0.56409
 H782 H 0.76402 0.12717 0.56560
 H783 H 0.73657 0.09707 0.62092
 H784 H 0.81323 0.07123 0.54556
 C785 C 0.92829 0.60796 0.27102
 C786 C 0.91932 0.60139 0.23798
 C787 C 0.89012 0.58045 0.22990
 C788 C 0.88608 0.56857 0.19747
 H789 H 0.93479 0.61013 0.21649
 H790 H 0.87344 0.57276 0.25079
 H791 H 0.91251 0.59964 0.29239
 H792 H 0.90387 0.57536 0.17728
 C793 C 0.93663 0.39749 0.72239
 C794 C 0.93097 0.39945 0.75683
 C795 C 0.90500 0.42122 0.77186
 C796 C 0.90660 0.42797 0.80609
 H797 H 0.94836 0.38714 0.77471
 H798 H 0.88741 0.43434 0.75494
 H799 H 0.91951 0.40881 0.70366
 H800 H 0.92570 0.41578 0.82196
 C801 C 0.06121 0.60814 0.74174
 C802 C 0.06142 0.60221 0.77643
 C803 C 0.08673 0.58244 0.79567
 C804 C 0.11428 0.56927 0.78157
 H805 H 0.03982 0.60951 0.79160
 H806 H 0.08056 0.57628 0.82265
 H807 H 0.08228 0.60216 0.72538
 H808 H 0.12181 0.57566 0.75513
 C809 C 0.05255 0.40633 0.25467
 C810 C 0.05504 0.40466 0.21966
 C811 C 0.07754 0.42539 0.19808
 C812 C 0.10377 0.44258 0.21015
 H813 H 0.03698 0.38982 0.20528
 H814 H 0.07092 0.42743 0.17055
 H815 H 0.06994 0.42083 0.27012
 H816 H 0.11223 0.43958 0.23698
   
