data_POSCAR
  _audit_creation_date              2014-09-24
  _audit_creation_method            'ToBaCCo'
  _symmetry_space_group_name_H-M    'P1'
  _symmetry_Int_Tables_number       1
  _symmetry_cell_setting            triclinic
  loop_
  _symmetry_equiv_pos_as_xyz
 x,y,z
_cell_length_a 28.4457
_cell_length_b 27.7949
_cell_length_c 43.9765
_cell_angle_alpha 87.509700
_cell_angle_beta 93.009600
_cell_angle_gamma 83.595300
loop_
  _atom_site_label
  _atom_site_type_symbol
  _atom_site_fract_x
  _atom_site_fract_y
  _atom_site_fract_z
C1 C -0.04265 0.40522 0.96985
 C2 C -0.04441 0.37972 0.99775
 C3 C -0.04405 0.40241 1.02572
 C4 C -0.04448 0.45386 1.02525
 C5 C -0.04313 0.48049 0.99694
 C6 C -0.04204 0.45594 0.96925
 C7 C -0.03861 0.48248 0.94171
 C8 C -0.03625 0.53206 0.94115
 C9 C -0.03734 0.55740 0.96810
 C10 C -0.04098 0.53162 0.99632
 C11 C -0.04327 0.47932 1.05222
 C12 C -0.04164 0.52915 1.05157
 C13 C -0.04092 0.55651 1.02392
 C14 C -0.03702 0.60730 1.02317
 C15 C -0.03271 0.63147 0.99483
 C16 C -0.03303 0.60753 0.96755
 H17 H -0.03657 0.46516 0.92020
 H18 H -0.03244 0.54999 0.91925
 H19 H -0.04215 0.46136 1.07452
 H20 H -0.03905 0.54519 1.07341
 H21 H -0.04819 0.34145 0.99723
 H22 H -0.03215 0.67039 0.99338
 C23 C 0.41433 -0.00831 0.53015
 C24 C 0.38839 -0.01043 0.50243
 C25 C 0.41005 -0.01031 0.47455
 C26 C 0.45958 -0.00814 0.47436
 C27 C 0.48652 -0.00580 0.50225
 C28 C 0.46369 -0.00562 0.53021
 C29 C 0.49051 -0.00102 0.55744
 C30 C 0.53877 0.00270 0.55738
 C31 C 0.56255 0.00121 0.53013
 C32 C 0.53627 -0.00305 0.50219
 C33 C 0.48296 -0.00854 0.44704
 C34 C 0.53147 -0.00591 0.44690
 C35 C 0.55934 -0.00372 0.47420
 C36 C 0.60904 -0.00030 0.47432
 C37 C 0.63391 0.00362 0.50246
 C38 C 0.61167 0.00497 0.53009
 H39 H 0.47434 0.00080 0.57914
 H40 H 0.55694 0.00739 0.57906
 H41 H 0.46409 -0.01091 0.42526
 H42 H 0.54610 -0.00470 0.42479
 H43 H 0.35048 -0.01179 0.50261
 H44 H 0.67210 0.00230 0.50347
 C45 C 0.07885 0.00875 0.27912
 H46 H 0.07409 0.03896 0.26253
 C47 C 0.11831 0.00345 0.29983
 H48 H 0.14312 0.03009 0.29869
 C49 C 0.05047 -0.06068 0.30153
 H50 H 0.02351 -0.08520 0.30218
 C51 C 0.08932 -0.06738 0.32260
 H52 H 0.09209 -0.09734 0.33944
 N53 N 0.04609 -0.02329 0.28024
 C54 C -0.04813 -0.07435 0.21008
 H55 H -0.07859 -0.04725 0.20976
 C56 C -0.04739 -0.11166 0.18971
 H57 H -0.07750 -0.11300 0.17379
 C58 C 0.02961 -0.10321 0.22962
 H59 H 0.06014 -0.09900 0.24450
 C60 C 0.03220 -0.14039 0.20925
 H61 H 0.06454 -0.16492 0.20893
 Zn62 Zn -0.00910 -0.01609 0.25372
 N63 N -0.01005 -0.07093 0.22961
 C64 C -0.04233 0.07773 0.22645
 N65 N -0.00898 0.03862 0.22658
 C66 C 0.02527 0.03611 0.20616
 C67 C 0.02723 0.07403 0.18463
 C68 C -0.04156 0.11680 0.20539
 C69 C -0.09561 -0.03881 0.27886
 C70 C -0.13210 -0.03253 0.29898
 C71 C -0.09681 0.03579 0.31863
 C72 C -0.06129 0.02826 0.29815
 N73 N -0.06137 -0.00834 0.27869
 H74 H -0.06996 0.07856 0.24242
 H75 H 0.05100 0.00431 0.20653
 H76 H 0.05487 0.07092 0.16853
 H77 H -0.06898 0.14686 0.20588
 H78 H -0.09433 -0.06857 0.26382
 H79 H -0.15826 -0.05783 0.29858
 H80 H -0.09563 0.06518 0.33397
 H81 H -0.03314 0.05141 0.29791
 C82 C -0.00651 -0.14489 0.18898
 C83 C 0.12396 -0.03523 0.32195
 C84 C -0.13296 0.00526 0.31944
 C85 C -0.00634 0.11527 0.18392
 C86 C 0.00571 0.10414 0.76886
 H87 H -0.00244 0.11389 0.74494
 C88 C 0.00123 0.14000 0.79024
 H89 H -0.00906 0.17721 0.78228
 C90 C 0.02868 0.04373 0.80805
 H91 H 0.03873 0.00633 0.81524
 C92 C 0.02487 0.07824 0.83007
 H93 H 0.03259 0.06678 0.85385
 N94 N 0.02027 0.05715 0.77796
 C95 C 0.11203 -0.02264 0.71928
 H96 H 0.10449 -0.05833 0.72684
 C97 C 0.14970 -0.01803 0.70060
 H98 H 0.17057 -0.05053 0.69415
 C99 C 0.09120 0.06241 0.71631
 H100 H 0.06773 0.09361 0.72180
 C101 C 0.12825 0.06863 0.69748
 H102 H 0.13309 0.10476 0.68888
 Zn103 Zn 0.02843 0.00949 0.74826
 N104 N 0.08348 0.01728 0.72663
 C105 C -0.01780 0.02331 0.68996
 N106 N -0.02500 0.01775 0.72015
 C107 C -0.06948 0.01863 0.73020
 C108 C -0.10893 0.02377 0.70943
 C109 C -0.05606 0.02948 0.66851
 C110 C 0.07435 -0.06720 0.78642
 C111 C 0.07791 -0.10976 0.80482
 C112 C 0.00146 -0.12535 0.78345
 C113 C -0.00056 -0.08238 0.76545
 N114 N 0.03477 -0.05339 0.76806
 H115 H 0.01772 0.02266 0.68233
 H116 H -0.07427 0.01494 0.75440
 H117 H -0.14366 0.02438 0.71832
 H118 H -0.04919 0.03365 0.64458
 H119 H 0.10231 -0.04385 0.78783
 H120 H 0.10902 -0.11879 0.82017
 H121 H -0.02824 -0.14621 0.78132
 H122 H -0.03125 -0.07153 0.75021
 C123 C 0.15787 0.02817 0.68923
 C124 C 0.01135 0.12707 0.82135
 C125 C 0.04054 -0.13886 0.80435
 C126 C -0.10244 0.02903 0.67792
 C127 C -0.03934 -0.36556 0.04970
 C128 C -0.01834 -0.32268 0.05275
 C129 C -0.02341 -0.29325 0.07961
 N130 N 0.00856 -0.26183 0.08593
 N131 N 0.00390 -0.23370 0.10957
 C132 C -0.03321 -0.23555 0.12762
 N133 N -0.06547 -0.26669 0.12117
 N134 N -0.06054 -0.29524 0.09767
 C135 C -0.03939 -0.20312 0.15305
 C136 C -0.00148 -0.18139 0.16559
 H137 H 0.00542 -0.31168 0.03600
 H138 H -0.07398 -0.19685 0.16225
 H139 H -0.05675 -0.37849 0.06919
 H140 H 0.03383 -0.19228 0.15838
 C141 C -0.04383 0.37333 0.05308
 C142 C -0.02489 0.32445 0.05547
 C143 C -0.02634 0.29266 0.08291
 N144 N -0.00142 0.24804 0.08430
 N145 N -0.00305 0.21766 0.10834
 C146 C -0.02987 0.23062 0.13193
 N147 N -0.05495 0.27530 0.13056
 N148 N -0.05317 0.30586 0.10650
 C149 C -0.03292 0.19638 0.15812
 C150 C -0.00379 0.15214 0.16129
 H151 H -0.00566 0.30871 0.03704
 H152 H -0.05840 0.20675 0.17468
 H153 H -0.05675 0.38881 0.07355
 H154 H 0.02302 0.14569 0.14484
 C155 C 0.38893 -0.00998 0.55870
 C156 C 0.34609 0.01859 0.56162
 C157 C 0.31814 0.01499 0.58863
 N158 N 0.27890 0.04675 0.59113
 N159 N 0.25201 0.04299 0.61481
 C160 C 0.26325 0.00719 0.63685
 N161 N 0.30254 -0.02459 0.63438
 N162 N 0.32958 -0.02071 0.61073
 C163 C 0.23237 0.00120 0.66226
 C164 C 0.19384 0.03529 0.66683
 H165 H 0.33236 0.04450 0.54330
 H166 H 0.23998 -0.03093 0.67725
 H167 H 0.40433 -0.03374 0.57766
 H168 H 0.18939 0.06895 0.65305
 C169 C -0.35859 0.00775 0.55870
 C170 C -0.32103 0.03601 0.56001
 C171 C -0.28758 0.03503 0.58671
 N172 N -0.24694 0.05576 0.58418
 N173 N -0.21512 0.05370 0.60763
 C174 C -0.22284 0.03106 0.63460
 N175 N -0.26388 0.01095 0.63732
 N176 N -0.29562 0.01272 0.61376
 C177 C -0.18694 0.02713 0.66024
 C178 C -0.13986 0.03395 0.65540
 H179 H -0.31452 0.05829 0.54019
 H180 H -0.19748 0.01534 0.68235
 H181 H -0.36530 -0.01388 0.57873
 H182 H -0.13111 0.04147 0.63208
 C183 C -0.03062 -0.36361 0.93862
 C184 C 0.00259 -0.33077 0.93529
 C185 C 0.00470 -0.30077 0.90713
 N186 N 0.03945 -0.27139 0.90466
 N187 N 0.04106 -0.24283 0.87970
 C188 C 0.00796 -0.24257 0.85626
 N189 N -0.02672 -0.27210 0.85869
 N190 N -0.02827 -0.30075 0.88363
 C191 C 0.00747 -0.20890 0.82941
 C192 C 0.04282 -0.17819 0.82589
 H193 H 0.02812 -0.32710 0.95398
 H194 H -0.02264 -0.20739 0.81326
 H195 H -0.05477 -0.36898 0.91952
 H196 H 0.07330 -0.18366 0.84204
 C197 C -0.04156 0.37740 0.94174
 C198 C -0.01316 0.33327 0.94097
 C199 C -0.01285 0.30248 0.91467
 N200 N 0.01396 0.25887 0.91677
 N201 N 0.01415 0.22960 0.89363
 C202 C -0.01244 0.24278 0.86744
 N203 N -0.03908 0.28662 0.86521
 N204 N -0.03936 0.31595 0.88844
 C205 C -0.01281 0.21000 0.84200
 C206 C 0.01004 0.16277 0.84538
 H207 H 0.00959 0.32016 0.96083
 H208 H -0.03252 0.22287 0.82098
 H209 H -0.06306 0.39162 0.92162
 H210 H 0.02706 0.15045 0.86740
 C211 C -0.36550 -0.00298 0.44742
 C212 C -0.32228 0.01603 0.44448
 C213 C -0.29366 0.00933 0.41777
 N214 N -0.25476 0.03305 0.41550
 N215 N -0.22718 0.02644 0.39217
 C216 C -0.23733 -0.00430 0.37020
 N217 N -0.27629 -0.02809 0.37244
 N218 N -0.30401 -0.02137 0.39579
 C219 C -0.20595 -0.01300 0.34488
 C220 C -0.16718 0.01324 0.34122
 H221 H -0.30916 0.03847 0.46178
 H222 H -0.21386 -0.04061 0.32948
 H223 H -0.37955 -0.01968 0.42774
 H224 H -0.16292 0.04198 0.35669
 C225 C 0.37958 -0.01010 0.44603
 C226 C 0.34187 -0.03808 0.44379
 C227 C 0.30743 -0.03386 0.41741
 N228 N 0.27030 -0.06051 0.41753
 N229 N 0.23758 -0.05584 0.39448
 C230 C 0.24075 -0.02430 0.37040
 N231 N 0.27807 0.00215 0.37017
 N232 N 0.31081 -0.00248 0.39327
 C233 C 0.20393 -0.01760 0.34527
 C234 C 0.16384 -0.04244 0.34543
 H235 H 0.33650 -0.06318 0.46249
 H236 H 0.20871 0.00780 0.32670
 H237 H 0.38604 0.01347 0.42683
 H238 H 0.16135 -0.06887 0.36396
   
