data_POSCAR
  _audit_creation_date              2014-09-24
  _audit_creation_method            'ToBaCCo'
  _symmetry_space_group_name_H-M    'P1'
  _symmetry_Int_Tables_number       1
  _symmetry_cell_setting            triclinic
  loop_
  _symmetry_equiv_pos_as_xyz
 x,y,z
_cell_length_a 40.4793
_cell_length_b 40.7803
_cell_length_c 8.8792
_cell_angle_alpha 90.000000
_cell_angle_beta 89.999800
_cell_angle_gamma 90.075600
loop_
  _atom_site_label
  _atom_site_type_symbol
  _atom_site_fract_x
  _atom_site_fract_y
  _atom_site_fract_z
C1 C 0.18139 0.21897 0.18102
 C2 C 0.16488 0.24884 0.16468
 C3 C 0.18150 0.27865 0.18119
 C4 C 0.21560 0.27896 0.21497
 C5 C 0.23270 0.24883 0.23188
 C6 C 0.21557 0.21866 0.21487
 C7 C 0.23306 0.18910 0.23218
 C8 C 0.26667 0.18915 0.26548
 C9 C 0.28415 0.21876 0.28284
 C10 C 0.26700 0.24888 0.26586
 C11 C 0.23303 0.30857 0.23227
 C12 C 0.26664 0.30862 0.26558
 C13 C 0.28409 0.27907 0.28284
 C14 C 0.31819 0.27885 0.31665
 C15 C 0.33482 0.24910 0.33312
 C16 C 0.31832 0.21918 0.31673
 H17 H 0.22086 0.16560 0.22006
 H18 H 0.27888 0.16569 0.27757
 H19 H 0.22081 0.33202 0.22018
 H20 H 0.27886 0.33210 0.27772
 H21 H 0.13865 0.24896 0.13869
 H22 H 0.36105 0.24930 0.35914
 C23 C 0.81929 0.28033 0.18031
 C24 C 0.83577 0.25044 0.16403
 C25 C 0.81910 0.22065 0.18044
 C26 C 0.78499 0.22038 0.21411
 C27 C 0.76794 0.25054 0.23098
 C28 C 0.78511 0.28069 0.21406
 C29 C 0.76764 0.31028 0.23134
 C30 C 0.73402 0.31026 0.26455
 C31 C 0.71657 0.28068 0.28175
 C32 C 0.73365 0.25054 0.26482
 C33 C 0.76750 0.19080 0.23134
 C34 C 0.73388 0.19080 0.26453
 C35 C 0.71649 0.22039 0.28173
 C36 C 0.68238 0.22071 0.31543
 C37 C 0.66585 0.25053 0.33181
 C38 C 0.68245 0.28035 0.31547
 H39 H 0.77987 0.33377 0.21930
 H40 H 0.72180 0.33371 0.27666
 H41 H 0.77969 0.16733 0.21927
 H42 H 0.72160 0.16735 0.27662
 H43 H 0.86200 0.25029 0.13812
 H44 H 0.63964 0.25052 0.35775
 C45 C 0.81897 0.78051 0.81889
 C46 C 0.83545 0.75062 0.83521
 C47 C 0.81878 0.72083 0.81881
 C48 C 0.78467 0.72056 0.78512
 C49 C 0.76762 0.75072 0.76824
 C50 C 0.78480 0.78088 0.78516
 C51 C 0.76732 0.81047 0.76787
 C52 C 0.73370 0.81045 0.73468
 C53 C 0.71625 0.78086 0.71748
 C54 C 0.73333 0.75072 0.73439
 C55 C 0.76718 0.69098 0.76789
 C56 C 0.73356 0.69099 0.73467
 C57 C 0.71617 0.72058 0.71747
 C58 C 0.68206 0.72089 0.68375
 C59 C 0.66553 0.75071 0.66740
 C60 C 0.68213 0.78053 0.68378
 H61 H 0.77955 0.83395 0.77991
 H62 H 0.72148 0.83390 0.72258
 H63 H 0.77937 0.66752 0.77996
 H64 H 0.72128 0.66753 0.72257
 H65 H 0.86167 0.75046 0.86112
 H66 H 0.63931 0.75070 0.64147
 C67 C 0.31723 0.77981 0.68444
 C68 C 0.33380 0.75001 0.66804
 C69 C 0.31724 0.72017 0.68450
 C70 C 0.28313 0.71980 0.71834
 C71 C 0.26600 0.74991 0.73530
 C72 C 0.28312 0.78008 0.71828
 C73 C 0.26571 0.80964 0.73550
 C74 C 0.23210 0.80961 0.76882
 C75 C 0.21459 0.78000 0.78621
 C76 C 0.23170 0.74986 0.76928
 C77 C 0.26574 0.69019 0.73561
 C78 C 0.23213 0.69011 0.76892
 C79 C 0.21460 0.71967 0.78626
 C80 C 0.18043 0.71993 0.82011
 C81 C 0.16386 0.74976 0.83652
 C82 C 0.18042 0.77964 0.82007
 H83 H 0.27796 0.83310 0.72333
 H84 H 0.21992 0.83309 0.78087
 H85 H 0.27799 0.66676 0.72348
 H86 H 0.21995 0.66660 0.78101
 H87 H 0.36001 0.75005 0.64203
 H88 H 0.13762 0.74972 0.86253
 O89 O 0.96831 -0.02601 -0.15362
 O90 O 1.03270 0.03641 -0.09039
 O91 O 1.03251 -0.02616 -0.15327
 O92 O 0.96852 0.03653 -0.09068
 O93 O 0.96842 0.02518 0.15285
 O94 O 1.03240 -0.03750 0.09026
 O95 O 1.03261 0.02506 0.15315
 O96 O 0.96823 -0.03736 0.08992
 Cu97 Cu 1.00053 0.00637 -0.14639
 Cu98 Cu 1.00041 -0.00733 0.14594
 C99 C 0.95756 -0.04238 -0.04242
 C100 C 1.04335 0.04145 0.04196
 C101 C 1.04309 -0.04259 -0.04198
 C102 C 0.95783 0.04160 0.04155
 O103 O 0.53196 0.46328 0.58972
 O104 O 0.46761 0.52552 0.65384
 O105 O 0.46778 0.46302 0.59001
 O106 O 0.53182 0.52576 0.65364
 O107 O 0.53174 0.53729 0.41029
 O108 O 0.46769 0.47456 0.34665
 O109 O 0.46755 0.53706 0.41049
 O110 O 0.53190 0.47482 0.34637
 Cu111 Cu 0.49980 0.49320 0.64619
 Cu112 Cu 0.49971 0.50713 0.35405
 C113 C 0.54264 0.45839 0.45732
 C114 C 0.45688 0.54196 0.54289
 C115 C 0.45709 0.45804 0.45768
 C116 C 0.54245 0.54226 0.54260
 O117 O 0.03234 0.52549 -0.15299
 O118 O -0.03188 0.46288 -0.09025
 O119 O -0.03185 0.52543 -0.15305
 O120 O 0.03229 0.46291 -0.09027
 O121 O 0.03230 0.47423 0.15330
 O122 O -0.03184 0.53675 0.09051
 O123 O -0.03189 0.47420 0.15332
 O124 O 0.03233 0.53681 0.09058
 Cu125 Cu 0.00023 0.49300 -0.14603
 Cu126 Cu 0.00023 0.50667 0.14633
 C127 C 0.04299 0.54190 -0.04170
 C128 C -0.04257 0.45781 0.04202
 C129 C -0.04251 0.54181 -0.04177
 C130 C 0.04295 0.45784 0.04202
 O131 O 0.53163 1.02596 0.34601
 O132 O 0.46742 0.96342 0.41013
 O133 O 0.46742 1.02591 0.34612
 O134 O 0.53161 0.96350 0.41007
 O135 O 0.53164 0.97507 0.65339
 O136 O 0.46745 1.03747 0.58945
 O137 O 0.46743 0.97498 0.65345
 O138 O 0.53164 1.03753 0.58934
 Cu139 Cu 0.49951 0.99350 0.35369
 Cu140 Cu 0.49953 1.00746 0.64580
 C141 C 0.54233 1.04245 0.45696
 C142 C 0.45674 0.95848 0.54252
 C143 C 0.45675 1.04238 0.45709
 C144 C 0.54232 0.95860 0.54242
 C145 C 1.16343 0.19080 0.16316
 C146 C 1.14689 0.16645 0.14670
 C147 C 1.12669 0.13856 0.12652
 C148 C 1.10870 0.11532 0.10846
 C149 C 1.08678 0.08881 0.08632
 C150 C 1.06735 0.06681 0.06655
 C151 C 0.66304 0.69115 0.66485
 C152 C 0.64639 0.66689 0.64825
 C153 C 0.62604 0.63912 0.62787
 C154 C 0.60794 0.61598 0.60962
 C155 C 0.58592 0.58956 0.58727
 C156 C 0.56643 0.56762 0.56734
 C157 C -0.16271 0.30848 0.16252
 C158 C -0.14614 0.33281 0.14612
 C159 C -0.12591 0.36068 0.12603
 C160 C -0.10790 0.38391 0.10807
 C161 C -0.08597 0.41042 0.08606
 C162 C -0.06654 0.43242 0.06642
 C163 C 0.33621 0.80957 0.66547
 C164 C 0.35283 0.83385 0.64880
 C165 C 0.37315 0.86164 0.62833
 C166 C 0.39123 0.88480 0.61000
 C167 C 0.41324 0.91122 0.58752
 C168 C 0.43273 0.93316 0.56745
 C169 C -0.16233 0.69105 -0.16244
 C170 C -0.14582 0.66674 -0.14602
 C171 C -0.12565 0.63888 -0.12589
 C172 C -0.10769 0.61566 -0.10789
 C173 C -0.08582 0.58916 -0.08585
 C174 C -0.06644 0.56717 -0.06619
 C175 C 0.33631 1.19107 0.33463
 C176 C 0.35290 1.16681 0.35121
 C177 C 0.37319 1.13905 0.37157
 C178 C 0.39126 1.11592 0.38982
 C179 C 0.41326 1.08955 0.41222
 C180 C 0.43275 1.06765 0.43222
 C181 C 1.16250 -0.19220 -0.16217
 C182 C 1.14603 -0.16785 -0.14580
 C183 C 1.12592 -0.13994 -0.12577
 C184 C 1.10803 -0.11666 -0.10786
 C185 C 1.08624 -0.09009 -0.08592
 C186 C 1.06693 -0.06803 -0.06634
 C187 C 0.66349 0.31007 0.33437
 C188 C 0.64686 0.33430 0.35101
 C189 C 0.62650 0.36201 0.37149
 C190 C 0.60837 0.38508 0.38983
 C191 C 0.58628 0.41138 0.41232
 C192 C 0.56673 0.43321 0.43239
 C193 C 0.83699 -0.19135 -0.16336
 C194 C 0.85359 -0.16704 -0.14696
 C195 C 0.87390 -0.13922 -0.12684
 C196 C 0.89197 -0.11605 -0.10882
 C197 C 0.91399 -0.08962 -0.08673
 C198 C 0.93350 -0.06768 -0.06698
 C199 C 0.33711 0.30866 0.33555
 C200 C 0.35365 0.33299 0.35213
 C201 C 0.37387 0.36086 0.37247
 C202 C 0.39186 0.38409 0.39067
 C203 C 0.41376 0.41060 0.41299
 C204 C 0.43316 0.43262 0.43292
 C205 C 0.16253 0.69172 -0.16209
 C206 C 0.14606 0.66732 -0.14571
 C207 C 0.12595 0.63936 -0.12566
 C208 C 0.10806 0.61604 -0.10773
 C209 C 0.08625 0.58943 -0.08575
 C210 C 0.06690 0.56735 -0.06612
 C211 C 0.66334 1.19098 0.33429
 C212 C 0.64666 1.16674 0.35089
 C213 C 0.62624 1.13902 0.37130
 C214 C 0.60807 1.11593 0.38959
 C215 C 0.58596 1.08959 0.41204
 C216 C 0.56640 1.06772 0.43207
 C217 C 0.16257 0.30841 0.16244
 C218 C 0.14606 0.33273 0.14605
 C219 C 0.12592 0.36061 0.12599
 C220 C 0.10800 0.38386 0.10806
 C221 C 0.08618 0.41041 0.08608
 C222 C 0.06684 0.43244 0.06645
 C223 C 0.66316 0.81025 0.66494
 C224 C 0.64652 0.83448 0.64835
 C225 C 0.62615 0.86218 0.62795
 C226 C 0.60801 0.88524 0.60968
 C227 C 0.58592 0.91155 0.58727
 C228 C 0.56638 0.93339 0.56726
 C229 C 0.83800 0.19087 0.16176
 C230 C 0.85453 0.16656 0.14540
 C231 C 0.87472 0.13872 0.12535
 C232 C 0.89268 0.11550 0.10743
 C233 C 0.91455 0.08900 0.08548
 C234 C 0.93393 0.06699 0.06589
 C235 C 0.33624 0.69046 0.66560
 C236 C 0.35286 0.66623 0.64899
 C237 C 0.37319 0.63850 0.62858
 C238 C 0.39128 0.61540 0.61030
 C239 C 0.41332 0.58905 0.58786
 C240 C 0.43283 0.56718 0.56781
   
