data_POSCAR
  _audit_creation_date              2014-09-24
  _audit_creation_method            'ToBaCCo'
  _symmetry_space_group_name_H-M    'P1'
  _symmetry_Int_Tables_number       1
  _symmetry_cell_setting            triclinic
  loop_
  _symmetry_equiv_pos_as_xyz
 x,y,z
_cell_length_a 56.4115
_cell_length_b 33.3213
_cell_length_c 18.5338
_cell_angle_alpha 89.982100
_cell_angle_beta 89.996500
_cell_angle_gamma 90.016400
loop_
  _atom_site_label
  _atom_site_type_symbol
  _atom_site_fract_x
  _atom_site_fract_y
  _atom_site_fract_z
C1 C 0.73237 0.27238 0.53967
 C2 C 0.73188 0.26981 0.46314
 C3 C 0.75075 0.25160 0.42645
 C4 C 0.77048 0.23558 0.46299
 C5 C 0.77055 0.23615 0.54019
 C6 C 0.75167 0.25512 0.57652
 H7 H 0.75184 0.25604 0.63495
 H8 H 0.75027 0.25133 0.36797
 C9 C 0.22994 0.76430 0.53772
 C10 C 0.22913 0.76196 0.46163
 C11 C 0.24761 0.74293 0.42461
 C12 C 0.26716 0.72679 0.46139
 C13 C 0.26809 0.72883 0.53822
 C14 C 0.24948 0.74846 0.57475
 H15 H 0.24930 0.74932 0.63322
 H16 H 0.24728 0.74225 0.36611
 C17 C 0.27013 0.26244 -0.53905
 C18 C 0.26889 0.26658 -0.46336
 C19 C 0.24900 0.25218 -0.42638
 C20 C 0.23037 0.23232 -0.46240
 C21 C 0.23133 0.22899 -0.53948
 C22 C 0.25166 0.24318 -0.57580
 H23 H 0.25246 0.24217 -0.63422
 H24 H 0.24905 0.25388 -0.36796
 C25 C -0.23084 0.76482 -0.53754
 C26 C -0.23204 0.76875 -0.46183
 C27 C -0.25170 0.75351 -0.42481
 C28 C -0.27046 0.73411 -0.46104
 C29 C -0.26982 0.73192 -0.53828
 C30 C -0.24961 0.74657 -0.57459
 H31 H -0.24877 0.74560 -0.63301
 H32 H -0.25168 0.75522 -0.36639
 N33 N -0.02539 0.93003 -0.07861
 N34 N -0.04372 0.90586 -0.08752
 N35 N 0.02473 0.95733 -0.12802
 N36 N 0.04282 0.95221 -0.17214
 N37 N 0.02457 0.92952 -0.07787
 N38 N 0.04259 0.90469 -0.08651
 N39 N -0.02510 0.95782 -0.12881
 N40 N -0.04318 0.95335 -0.17318
 C41 C -0.05465 0.92079 -0.14689
 C42 C 0.05382 0.91924 -0.14563
 N43 N 0.02506 1.07171 -0.07932
 N44 N 0.04351 1.09567 -0.08757
 N45 N -0.02484 1.04401 -0.12964
 N46 N -0.04323 1.04802 -0.17300
 N47 N -0.02492 1.07207 -0.07997
 N48 N -0.04339 1.09597 -0.08822
 N49 N 0.02503 1.04359 -0.12888
 N50 N 0.04344 1.04763 -0.17219
 Mn51 Mn -0.00003 1.00069 -0.12967
 C52 C 0.05480 1.08030 -0.14589
 C53 C -0.05462 1.08063 -0.14667
 N54 N 0.02433 0.92997 0.07753
 N55 N 0.04223 0.90503 0.08725
 N56 N -0.02552 0.95844 0.12670
 N57 N -0.04324 0.95304 0.17217
 N58 N -0.02554 0.93041 0.07692
 N59 N -0.04327 0.90520 0.08717
 N60 N 0.02436 0.95803 0.12724
 N61 N 0.04228 0.95294 0.17212
 Mn62 Mn -0.00051 0.92947 -0.00051
 C63 C 0.05328 0.91973 0.14653
 C64 C -0.05420 0.91973 0.14676
 N65 N -0.02508 1.07268 0.07539
 N66 N -0.04275 1.09811 0.08481
 N67 N 0.02465 1.04452 0.12629
 N68 N 0.04267 1.04952 0.17079
 N69 N 0.02478 1.07225 0.07595
 N70 N 0.04288 1.09684 0.08482
 N71 N -0.02525 1.04496 0.12575
 N72 N -0.04305 1.05079 0.17080
 Mn73 Mn -0.00005 1.07269 -0.00202
 Mn74 Mn -0.00044 1.00149 0.12739
 Cl75 Cl -0.00026 1.00108 -0.00114
 C76 C -0.05384 1.08405 0.14453
 C77 C 0.05390 1.08231 0.14426
 N78 N 0.47531 0.42865 -0.07960
 N79 N 0.45721 0.40398 -0.08833
 N80 N 0.52498 0.45739 -0.13003
 N81 N 0.54325 0.45350 -0.17386
 N82 N 0.52528 0.42937 -0.08024
 N83 N 0.54381 0.40563 -0.08890
 N84 N 0.47514 0.45668 -0.12936
 N85 N 0.45697 0.45188 -0.17327
 C86 C 0.44593 0.41886 -0.14711
 C87 C 0.55484 0.42104 -0.14771
 N88 N 0.52460 0.57146 -0.07967
 N89 N 0.54300 0.59556 -0.08769
 N90 N 0.47473 0.54292 -0.12905
 N91 N 0.45649 0.54729 -0.17285
 N92 N 0.47463 0.57082 -0.07909
 N93 N 0.45628 0.59497 -0.08758
 N94 N 0.52459 0.54358 -0.12967
 N95 N 0.54295 0.54792 -0.17304
 Mn96 Mn 0.49985 0.50015 -0.13035
 C97 C 0.55426 0.58053 -0.14636
 C98 C 0.44513 0.57991 -0.14642
 N99 N 0.52540 0.42906 0.07522
 N100 N 0.54320 0.40393 0.08505
 N101 N 0.47549 0.45625 0.12595
 N102 N 0.45763 0.45082 0.17091
 N103 N 0.47554 0.42840 0.07584
 N104 N 0.45771 0.40328 0.08537
 N105 N 0.52536 0.45689 0.12535
 N106 N 0.54313 0.45144 0.17064
 Mn107 Mn 0.50038 0.42835 -0.00222
 C108 C 0.55413 0.41830 0.14476
 C109 C 0.44667 0.41765 0.14495
 N110 N 0.47489 0.57066 0.07626
 N111 N 0.45673 0.59508 0.08551
 N112 N 0.52499 0.54342 0.12560
 N113 N 0.54293 0.54889 0.17024
 N114 N 0.52476 0.57137 0.07567
 N115 N 0.54254 0.59661 0.08498
 N116 N 0.47509 0.54272 0.12622
 N117 N 0.45705 0.54737 0.17080
 Mn118 Mn 0.49972 0.57159 -0.00172
 Mn119 Mn 0.50024 0.49982 0.12667
 Cl120 Cl 0.50005 0.49997 -0.00184
 C121 C 0.44575 0.58019 0.14476
 C122 C 0.55374 0.58221 0.14421
 C123 C 0.32798 0.31392 0.34208
 C124 C 0.32229 0.27329 0.33330
 C125 C 0.30322 0.25659 0.37116
 C126 C 0.28978 0.28035 0.41854
 C127 C 0.29530 0.32128 0.42591
 C128 C 0.31434 0.33790 0.38813
 C129 C 0.34805 0.33101 0.30527
 C130 C 0.36497 0.34586 0.27573
 C131 C 0.38527 0.36410 0.24193
 C132 C 0.39526 0.34706 0.17995
 C133 C 0.41521 0.36459 0.14801
 C134 C 0.42540 0.39935 0.17786
 C135 C 0.41516 0.41639 0.23984
 C136 C 0.39522 0.39884 0.27165
 H137 H 0.33273 0.25446 0.29778
 H138 H 0.29922 0.22500 0.36465
 H139 H 0.28494 0.34026 0.46133
 H140 H 0.31854 0.36939 0.39520
 H141 H 0.38769 0.32018 0.15649
 H142 H 0.42271 0.35087 0.10022
 H143 H 0.42260 0.44319 0.26392
 H144 H 0.38763 0.41228 0.31960
 C145 C -0.17149 0.81277 0.34608
 C146 C -0.16792 0.78309 0.39848
 C147 C -0.18727 0.76674 0.43536
 C148 C -0.21037 0.78018 0.42054
 C149 C -0.21388 0.80932 0.36682
 C150 C -0.19452 0.82561 0.32993
 C151 C -0.15152 0.83077 0.31021
 C152 C -0.13477 0.84622 0.28082
 C153 C -0.11474 0.86495 0.24646
 C154 C -0.10488 0.89986 0.27588
 C155 C -0.08524 0.91787 0.24317
 C156 C -0.07522 0.90112 0.18062
 C157 C -0.08531 0.86619 0.15112
 C158 C -0.10496 0.84822 0.18392
 H159 H -0.15018 0.77290 0.41133
 H160 H -0.18424 0.74401 0.47609
 H161 H -0.23155 0.82010 0.35473
 H162 H -0.19748 0.84856 0.28951
 H163 H -0.11233 0.91307 0.32425
 H164 H -0.07785 0.94478 0.26700
 H165 H -0.07797 0.85267 0.10292
 H166 H -0.11246 0.82122 0.16067
 C167 C 0.67177 0.68860 0.34028
 C168 C 0.66795 0.71373 0.39952
 C169 C 0.68716 0.72889 0.43848
 C170 C 0.71065 0.71862 0.41965
 C171 C 0.71422 0.69477 0.35761
 C172 C 0.69493 0.67963 0.31878
 C173 C 0.65191 0.67087 0.30339
 C174 C 0.63514 0.65552 0.27394
 C175 C 0.61499 0.63676 0.24029
 C176 C 0.60522 0.60194 0.27038
 C177 C 0.58536 0.58401 0.23884
 C178 C 0.57500 0.60076 0.17679
 C179 C 0.58500 0.63557 0.14655
 C180 C 0.60488 0.65347 0.17819
 H181 H 0.65008 0.72129 0.41612
 H182 H 0.68359 0.74880 0.48334
 H183 H 0.73189 0.68592 0.34119
 H184 H 0.69810 0.66022 0.27290
 H185 H 0.61290 0.58876 0.31845
 H186 H 0.57805 0.55718 0.26322
 H187 H 0.57741 0.64908 0.09868
 H188 H 0.61229 0.68042 0.15446
 C189 C 0.17307 1.18560 0.33869
 C190 C 0.16921 1.21126 0.39714
 C191 C 0.18839 1.22638 0.43625
 C192 C 0.21187 1.21554 0.41837
 C193 C 0.21550 1.19112 0.35710
 C194 C 0.19623 1.17601 0.31811
 C195 C 0.15319 1.16807 0.30167
 C196 C 0.13632 1.15302 0.27227
 C197 C 0.11598 1.13477 0.23886
 C198 C 0.10603 1.15164 0.17669
 C199 C 0.08588 1.13441 0.14551
 C200 C 0.07544 1.10011 0.17632
 C201 C 0.08566 1.08317 0.23842
 C202 C 0.10580 1.10044 0.26949
 H203 H 0.15135 1.21930 0.41299
 H204 H 0.18480 1.24675 0.48042
 H205 H 0.23316 1.18188 0.34140
 H206 H 0.19941 1.15618 0.27281
 H207 H 0.11375 1.17823 0.15259
 H208 H 0.07840 1.14804 0.09759
 H209 H 0.07803 1.05672 0.26320
 H210 H 0.11335 1.08716 0.31766
 C211 C 0.67654 0.32670 -0.34210
 C212 C 0.68694 0.29122 -0.31729
 C213 C 0.70568 0.27381 -0.35538
 C214 C 0.71416 0.29130 -0.41986
 C215 C 0.70405 0.32797 -0.44246
 C216 C 0.68532 0.34527 -0.40423
 C217 C 0.65640 0.34342 -0.30515
 C218 C 0.63924 0.35727 -0.27547
 C219 C 0.61845 0.37380 -0.24172
 C220 C 0.60846 0.35514 -0.18121
 C221 C 0.58779 0.37062 -0.15008
 C222 C 0.57689 0.40489 -0.17935
 C223 C 0.58717 0.42362 -0.23972
 C224 C 0.60781 0.40813 -0.27069
 H225 H 0.68026 0.27657 -0.26920
 H226 H 0.71268 0.24551 -0.33611
 H227 H 0.71087 0.34378 -0.48905
 H228 H 0.67760 0.37308 -0.42339
 H229 H 0.61654 0.32850 -0.15845
 H230 H 0.58027 0.35565 -0.10352
 H231 H 0.57920 0.45013 -0.26329
 H232 H 0.61537 0.42277 -0.31756
 C233 C 0.17215 0.81493 -0.34244
 C234 C 0.16807 0.78331 -0.39056
 C235 C 0.18692 0.76646 -0.42885
 C236 C 0.21005 0.78130 -0.41984
 C237 C 0.21411 0.81254 -0.37049
 C238 C 0.19522 0.82937 -0.33215
 C239 C 0.15254 0.83307 -0.30511
 C240 C 0.13587 0.84834 -0.27514
 C241 C 0.11570 0.86669 -0.24100
 C242 C 0.10583 0.90155 -0.27044
 C243 C 0.08578 0.91883 -0.23899
 C244 C 0.07533 0.90137 -0.17769
 C245 C 0.08548 0.86657 -0.14794
 C246 C 0.10555 0.84930 -0.17954
 H247 H 0.15029 0.77187 -0.39884
 H248 H 0.18347 0.74199 -0.46586
 H249 H 0.23183 0.82433 -0.36273
 H250 H 0.19856 0.85385 -0.29506
 H251 H 0.11353 0.91522 -0.31805
 H252 H 0.07837 0.94570 -0.26294
 H253 H 0.07781 0.85254 -0.10066
 H254 H 0.11305 0.82227 -0.15639
 C255 C 0.32432 0.67692 -0.34168
 C256 C 0.31487 0.65662 -0.40103
 C257 C 0.29608 0.67327 -0.43990
 C258 C 0.28657 0.71099 -0.42084
 C259 C 0.29574 0.73037 -0.35906
 C260 C 0.31457 0.71360 -0.32030
 C261 C 0.34438 0.66043 -0.30404
 C262 C 0.36145 0.64638 -0.27414
 C263 C 0.38208 0.62925 -0.24044
 C264 C 0.39245 0.59480 -0.26983
 C265 C 0.41290 0.57862 -0.23886
 C266 C 0.42326 0.59676 -0.17806
 C267 C 0.41262 0.63116 -0.14839
 C268 C 0.39214 0.64734 -0.17952
 H269 H 0.32205 0.62788 -0.41742
 H270 H 0.28869 0.65602 -0.48393
 H271 H 0.28917 0.75947 -0.34245
 H272 H 0.32176 0.72958 -0.27432
 H273 H 0.38482 0.58060 -0.31702
 H274 H 0.42067 0.55204 -0.26276
 H275 H 0.42020 0.64568 -0.10149
 H276 H 0.38426 0.67405 -0.15641
 C277 C -0.17586 1.17808 -0.33806
 C278 C -0.18565 1.15904 -0.39829
 C279 C -0.20374 1.17762 -0.43746
 C280 C -0.21211 1.21601 -0.41773
 C281 C -0.20278 1.23395 -0.35481
 C282 C -0.18468 1.21526 -0.31580
 C283 C -0.15604 1.16031 -0.30116
 C284 C -0.13904 1.14577 -0.27174
 C285 C -0.11835 1.12866 -0.23841
 C286 C -0.10795 1.09427 -0.26793
 C287 C -0.08727 1.07848 -0.23769
 C288 C -0.07673 1.09698 -0.17755
 C289 C -0.08741 1.13128 -0.14768
 C290 C -0.10811 1.14705 -0.17807
 H291 H -0.17910 1.13003 -0.41556
 H292 H -0.21119 1.16186 -0.48323
 H293 H -0.20851 1.26349 -0.33781
 H294 H -0.17720 1.23028 -0.26922
 H295 H -0.11570 1.07987 -0.31474
 H296 H -0.07947 1.05196 -0.26168
 H297 H -0.07969 1.14606 -0.10126
 H298 H -0.11599 1.17376 -0.15494
 C299 C 0.67539 0.67819 -0.33822
 C300 C 0.68519 0.65837 -0.39759
 C301 C 0.70341 0.67630 -0.43716
 C302 C 0.71192 0.71481 -0.41875
 C303 C 0.70255 0.73359 -0.35668
 C304 C 0.68431 0.71555 -0.31725
 C305 C 0.65552 0.66088 -0.30082
 C306 C 0.63851 0.64648 -0.27121
 C307 C 0.61784 0.62927 -0.23793
 C308 C 0.60752 0.59484 -0.26759
 C309 C 0.58689 0.57884 -0.23741
 C310 C 0.57631 0.59716 -0.17716
 C311 C 0.58691 0.63150 -0.14714
 C312 C 0.60756 0.64750 -0.17750
 H313 H 0.67858 0.62920 -0.41381
 H314 H 0.71090 0.65986 -0.48209
 H315 H 0.70841 0.76323 -0.34063
 H316 H 0.67682 0.73116 -0.27132
 H317 H 0.61531 0.58056 -0.31446
 H318 H 0.57916 0.55228 -0.26150
 H319 H 0.57915 0.64615 -0.10064
 H320 H 0.61539 0.67423 -0.15425
 C321 C 0.17595 1.17741 -0.33899
 C322 C 0.18587 1.15711 -0.39764
 C323 C 0.20417 1.17471 -0.43736
 C324 C 0.21265 1.21339 -0.41988
 C325 C 0.20315 1.23268 -0.35851
 C326 C 0.18482 1.21496 -0.31892
 C327 C 0.15604 1.16032 -0.30140
 C328 C 0.13902 1.14601 -0.27166
 C329 C 0.11835 1.12887 -0.23820
 C330 C 0.10799 1.09440 -0.26762
 C331 C 0.08739 1.07843 -0.23718
 C332 C 0.07685 1.09682 -0.17692
 C333 C 0.08749 1.13121 -0.14716
 C334 C 0.10812 1.14717 -0.17775
 H335 H 0.17932 1.12779 -0.41315
 H336 H 0.21176 1.15786 -0.48164
 H337 H 0.20899 1.26244 -0.34315
 H338 H 0.17724 1.23095 -0.27354
 H339 H 0.11573 1.08005 -0.31449
 H340 H 0.07962 1.05185 -0.26111
 H341 H 0.07978 1.14593 -0.10066
 H342 H 0.11596 1.17392 -0.15466
 C343 C 0.32684 0.31676 -0.34353
 C344 C 0.30395 0.33234 -0.33509
 C345 C 0.28500 0.31571 -0.37348
 C346 C 0.28883 0.28354 -0.42103
 C347 C 0.31177 0.26760 -0.42819
 C348 C 0.33068 0.28425 -0.38987
 C349 C 0.34654 0.33459 -0.30613
 C350 C 0.36331 0.34955 -0.27615
 C351 C 0.38362 0.36750 -0.24206
 C352 C 0.39383 0.34967 -0.18112
 C353 C 0.41405 0.36652 -0.14966
 C354 C 0.42429 0.40137 -0.17902
 C355 C 0.41378 0.41927 -0.23980
 C356 C 0.39358 0.40240 -0.27111
 H357 H 0.30081 0.35752 -0.29940
 H358 H 0.26743 0.32834 -0.36713
 H359 H 0.31502 0.24241 -0.46374
 H360 H 0.34831 0.27192 -0.39670
 H361 H 0.38627 0.32260 -0.15828
 H362 H 0.42176 0.35217 -0.10278
 H363 H 0.42124 0.44618 -0.26345
 H364 H 0.38583 0.41641 -0.31833
 C365 C -0.17500 0.82286 -0.34359
 C366 C -0.18214 0.78358 -0.32792
 C367 C -0.20100 0.76626 -0.36565
 C368 C -0.21281 0.78800 -0.41972
 C369 C -0.20588 0.82770 -0.43419
 C370 C -0.18699 0.84497 -0.39648
 C371 C -0.15496 0.84006 -0.30685
 C372 C -0.13795 0.85437 -0.27706
 C373 C -0.11740 0.87149 -0.24289
 C374 C -0.10753 0.85336 -0.18169
 C375 C -0.08714 0.86951 -0.14991
 C376 C -0.07641 0.90393 -0.17921
 C377 C -0.08656 0.92211 -0.24032
 C378 C -0.10692 0.90595 -0.27193
 H379 H -0.17296 0.76619 -0.28718
 H380 H -0.20607 0.73560 -0.35379
 H381 H -0.21493 0.84509 -0.47515
 H382 H -0.18161 0.87540 -0.40900
 H383 H -0.11549 0.82663 -0.15883
 H384 H -0.07972 0.85495 -0.10280
 H385 H -0.07871 0.94871 -0.26394
 H386 H -0.11439 0.92019 -0.31932
 C387 C 0.32598 0.68139 0.33934
 C388 C 0.32935 0.71292 0.38818
 C389 C 0.31012 0.72839 0.42665
 C390 C 0.28733 0.71216 0.41721
 C391 C 0.28393 0.68135 0.36652
 C392 C 0.30320 0.66592 0.32802
 C393 C 0.34603 0.66407 0.30285
 C394 C 0.36301 0.64932 0.27361
 C395 C 0.38347 0.63151 0.24010
 C396 C 0.39375 0.59713 0.27017
 C397 C 0.41396 0.58025 0.23887
 C398 C 0.42415 0.59763 0.17710
 C399 C 0.41362 0.63199 0.14687
 C400 C 0.39339 0.64883 0.17827
 H401 H 0.34690 0.72517 0.39723
 H402 H 0.31304 0.75252 0.46478
 H403 H 0.26648 0.66855 0.35834
 H404 H 0.30040 0.64153 0.29033
 H405 H 0.38621 0.58350 0.31806
 H406 H 0.42167 0.55374 0.26321
 H407 H 0.42107 0.64595 0.09921
 H408 H 0.38559 0.67546 0.15460
 C409 C -0.17098 1.19217 0.34232
 C410 C -0.16718 1.21634 0.40285
 C411 C -0.18642 1.23156 0.44163
 C412 C -0.20991 1.22227 0.42128
 C413 C -0.21343 1.19939 0.35805
 C414 C -0.19413 1.18421 0.31941
 C415 C -0.15115 1.17432 0.30546
 C416 C -0.13448 1.15879 0.27588
 C417 C -0.11447 1.13974 0.24196
 C418 C -0.10474 1.10496 0.27223
 C419 C -0.08507 1.08666 0.24025
 C420 C -0.07489 1.10299 0.17756
 C421 C -0.08486 1.13778 0.14716
 C422 C -0.10454 1.15605 0.17924
 H423 H -0.14932 1.22310 0.42059
 H424 H -0.18287 1.25071 0.48755
 H425 H -0.23111 1.19131 0.34045
 H426 H -0.19727 1.16554 0.27253
 H427 H -0.11229 1.09208 0.32076
 H428 H -0.07779 1.05986 0.26478
 H429 H -0.07740 1.15097 0.09881
 H430 H -0.11193 1.18295 0.15534
 C431 C 0.67223 0.31325 0.34254
 C432 C 0.69506 0.32738 0.32722
 C433 C 0.71454 0.31244 0.36526
 C434 C 0.71135 0.28346 0.41945
 C435 C 0.68849 0.26846 0.43300
 C436 C 0.66901 0.28346 0.39497
 C437 C 0.65206 0.33043 0.30643
 C438 C 0.63517 0.34543 0.27712
 C439 C 0.61498 0.36389 0.24320
 C440 C 0.60502 0.39859 0.27307
 C441 C 0.58527 0.41645 0.24079
 C442 C 0.57523 0.39977 0.17820
 C443 C 0.58541 0.36504 0.14826
 C444 C 0.60517 0.34721 0.18064
 H445 H 0.69774 0.35042 0.28679
 H446 H 0.73203 0.32432 0.35398
 H447 H 0.68572 0.24579 0.47405
 H448 H 0.65142 0.27229 0.40718
 H449 H 0.61248 0.41177 0.32144
 H450 H 0.57782 0.44321 0.26496
 H451 H 0.57806 0.35158 0.10001
 H452 H 0.61276 0.32038 0.15704
 C453 C 0.17191 0.81586 0.34354
 C454 C 0.17759 0.77540 0.33259
 C455 C 0.19648 0.75797 0.37016
 C456 C 0.20975 0.78082 0.41941
 C457 C 0.20427 0.82162 0.42895
 C458 C 0.18539 0.83897 0.39145
 C459 C 0.15196 0.83354 0.30702
 C460 C 0.13511 0.84861 0.27755
 C461 C 0.11484 0.86682 0.24360
 C462 C 0.10483 0.84956 0.18185
 C463 C 0.08484 0.86691 0.14988
 C464 C 0.07462 0.90170 0.17945
 C465 C 0.08489 0.91900 0.24117
 C466 C 0.10487 0.90162 0.27303
 H467 H 0.16728 0.75724 0.29563
 H468 H 0.20045 0.72650 0.36199
 H469 H 0.21449 0.83990 0.46590
 H470 H 0.18119 0.87032 0.40021
 H471 H 0.11240 0.82262 0.15865
 H472 H 0.07732 0.85299 0.10230
 H473 H 0.07743 0.94584 0.26503
 H474 H 0.11247 0.91523 0.32083
   
