data_POSCAR
  _audit_creation_date              2014-09-24
  _audit_creation_method            'ToBaCCo'
  _symmetry_space_group_name_H-M    'P1'
  _symmetry_Int_Tables_number       1
  _symmetry_cell_setting            triclinic
  loop_
  _symmetry_equiv_pos_as_xyz
 x,y,z
_cell_length_a 50.9266
_cell_length_b 45.4227
_cell_length_c 41.6574
_cell_angle_alpha 89.152900
_cell_angle_beta 92.148200
_cell_angle_gamma 91.135300
loop_
  _atom_site_label
  _atom_site_type_symbol
  _atom_site_fract_x
  _atom_site_fract_y
  _atom_site_fract_z
C1 C 0.59708 0.66730 0.61678
 C2 C 0.61942 0.67027 0.59830
 C3 C 0.63806 0.64803 0.59833
 C4 C 0.63500 0.62328 0.61863
 C5 C 0.61307 0.62021 0.63829
 C6 C 0.59397 0.64221 0.63654
 H7 H 0.62195 0.68967 0.58315
 H8 H 0.65000 0.60690 0.61905
 H9 H 0.57711 0.64039 0.65163
 C10 C 0.91814 0.34634 0.11400
 C11 C 0.91847 0.37040 0.13492
 C12 C 0.89820 0.39094 0.13344
 C13 C 0.87761 0.38769 0.11047
 C14 C 0.87688 0.36389 0.08936
 C15 C 0.89719 0.34348 0.09101
 H16 H 0.93467 0.37334 0.15228
 H17 H 0.86232 0.40396 0.10884
 H18 H 0.89664 0.32595 0.07371
 C19 C 0.40813 0.15728 -0.10910
 C20 C 0.40467 0.13639 -0.13342
 C21 C 0.38140 0.11925 -0.13610
 C22 C 0.36161 0.12330 -0.11413
 C23 C 0.36518 0.14353 -0.08907
 C24 C 0.38854 0.16031 -0.08660
 H25 H 0.41980 0.13429 -0.15078
 H26 H 0.34385 0.10981 -0.11587
 H27 H 0.39146 0.17564 -0.06704
 C28 C 0.08999 0.83217 0.37993
 C29 C 0.11344 0.82790 0.39820
 C30 C 0.13348 0.84951 0.39905
 C31 C 0.13082 0.87488 0.37960
 C32 C 0.10813 0.87897 0.35994
 C33 C 0.08757 0.85800 0.36089
 H34 H 0.11575 0.80815 0.41293
 H35 H 0.14646 0.89130 0.37968
 H36 H 0.07038 0.86146 0.34538
 N37 N 0.09042 0.16260 0.09927
 N38 N 0.07877 0.14295 0.11765
 C39 C 0.05459 0.15227 0.12397
 C40 C 0.05113 0.17936 0.10914
 C41 C 0.07421 0.18529 0.09360
 H42 H 0.04074 0.14052 0.13877
 H43 H 0.07873 0.20442 0.07892
 Cu44 Cu 0.09657 0.10772 0.13297
 Cu45 Cu 0.12525 0.15672 0.08313
 Cu46 Cu 0.16111 0.10103 0.11957
 N47 N 0.11849 0.08052 0.15780
 N48 N 0.14374 0.07836 0.15295
 C49 C 0.15399 0.05809 0.17344
 C50 C 0.13414 0.04698 0.19207
 C51 C 0.11181 0.06172 0.18156
 H52 H 0.17434 0.05164 0.17455
 H53 H 0.09222 0.05911 0.19044
 N54 N 0.17487 0.12631 0.08497
 N55 N 0.16084 0.14703 0.07040
 C56 C 0.17450 0.15863 0.04605
 C57 C 0.19834 0.14480 0.04554
 C58 C 0.19799 0.12443 0.07054
 H59 H 0.16745 0.17546 0.02942
 H60 H 0.21291 0.10851 0.07675
 H61 H 0.12843 0.11159 0.09092
 H62 H 0.13673 0.13613 0.12590
 N63 N 0.39793 0.82651 0.60811
 N64 N 0.41411 0.84064 0.62812
 C65 C 0.43618 0.82501 0.63268
 C66 C 0.43356 0.79972 0.61467
 C67 C 0.40904 0.80129 0.59952
 H68 H 0.45265 0.83123 0.64842
 H69 H 0.40008 0.78533 0.58328
 Cu70 Cu 0.40424 0.87732 0.64751
 Cu71 Cu 0.36404 0.84232 0.59390
 Cu72 Cu 0.34657 0.90830 0.62730
 N73 N 0.39391 0.91400 0.66659
 N74 N 0.37108 0.92570 0.65890
 C75 C 0.36825 0.95010 0.67626
 C76 C 0.39053 0.95389 0.69592
 C77 C 0.40643 0.93068 0.68909
 H78 H 0.35119 0.96391 0.67473
 H79 H 0.42546 0.92608 0.70020
 N80 N 0.32435 0.88743 0.59496
 N81 N 0.33072 0.86209 0.58252
 C82 C 0.31178 0.85392 0.56075
 C83 C 0.29274 0.87526 0.55949
 C84 C 0.30133 0.89608 0.58140
 H85 H 0.31220 0.83439 0.54629
 H86 H 0.29161 0.91633 0.58659
 H87 H 0.37394 0.88593 0.60181
 H88 H 0.35810 0.86529 0.63523
 N89 N 0.88880 0.67211 0.38669
 N90 N 0.90197 0.65908 0.36454
 C91 C 0.92335 0.67561 0.35784
 C92 C 0.92339 0.70048 0.37659
 C93 C 0.90113 0.69769 0.39441
 H94 H 0.93768 0.67003 0.34053
 H95 H 0.89479 0.71279 0.41227
 Cu96 Cu 0.89012 0.62185 0.34627
 Cu97 Cu 0.85779 0.65394 0.40535
 Cu98 Cu 0.84071 0.58390 0.37901
 N99 N 0.88399 0.58036 0.33747
 N100 N 0.86532 0.56517 0.35154
 C101 C 0.86506 0.53732 0.34091
 C102 C 0.88432 0.53513 0.31866
 C103 C 0.89605 0.56283 0.31707
 H104 H 0.85109 0.52030 0.34767
 H105 H 0.91190 0.56979 0.30197
 N106 N 0.82114 0.60438 0.41156
 N107 N 0.82721 0.63134 0.42112
 C108 C 0.80983 0.63942 0.44281
 C109 C 0.79209 0.61634 0.44706
 C110 C 0.79989 0.59454 0.42703
 H111 H 0.81020 0.66039 0.45477
 H112 H 0.79058 0.57311 0.42390
 H113 H 0.86995 0.61160 0.39727
 H114 H 0.84630 0.62828 0.36728
 N115 N 0.58908 0.34142 -0.09603
 N116 N 0.57740 0.35995 -0.11618
 C117 C 0.55253 0.35044 -0.12238
 C118 C 0.54862 0.32440 -0.10554
 C119 C 0.57218 0.31932 -0.08899
 H120 H 0.53855 0.36122 -0.13857
 H121 H 0.57670 0.30103 -0.07296
 Cu122 Cu 0.59603 0.39381 -0.13403
 Cu123 Cu 0.62520 0.34742 -0.08033
 Cu124 Cu 0.66184 0.39889 -0.12186
 N125 N 0.61780 0.41888 -0.16082
 N126 N 0.64353 0.41994 -0.15673
 C127 C 0.65362 0.43851 -0.17871
 C128 C 0.63317 0.44982 -0.19740
 C129 C 0.61063 0.43688 -0.18547
 H130 H 0.67430 0.44387 -0.18063
 H131 H 0.59059 0.44011 -0.19410
 N132 N 0.67649 0.37564 -0.08540
 N133 N 0.66217 0.35682 -0.06871
 C134 C 0.67678 0.34674 -0.04342
 C135 C 0.70152 0.35956 -0.04451
 C136 C 0.70072 0.37775 -0.07142
 H137 H 0.66983 0.33167 -0.02513
 H138 H 0.71618 0.39254 -0.07923
 H139 H 0.63058 0.39176 -0.09211
 H140 H 0.63479 0.36439 -0.12482
 C141 C -0.06085 0.32666 0.11617
 C142 C -0.06090 0.29912 0.10159
 C143 C -0.03756 0.28056 0.10311
 N144 N -0.04015 0.25112 0.09846
 N145 N -0.01908 0.23416 0.09919
 C146 C 0.00536 0.24609 0.10424
 N147 N 0.00797 0.27556 0.10855
 N148 N -0.01312 0.29248 0.10817
 C149 C 0.02883 0.22782 0.10423
 C150 C 0.02758 0.19751 0.10966
 H151 H -0.07860 0.28993 0.09028
 H152 H 0.04770 0.23869 0.10112
 H153 H -0.04375 0.33270 0.13114
 H154 H 0.00915 0.18699 0.11586
 C155 C 0.57786 0.69129 0.61606
 C156 C 0.55103 0.68626 0.61976
 C157 C 0.53229 0.71050 0.61975
 N158 N 0.50609 0.70466 0.61664
 N159 N 0.48890 0.72638 0.61703
 C160 C 0.49730 0.75474 0.62079
 N161 N 0.52349 0.76055 0.62412
 N162 N 0.54068 0.73885 0.62349
 C163 C 0.47863 0.77893 0.62208
 C164 C 0.45224 0.77557 0.61250
 H165 H 0.54337 0.66393 0.62174
 H166 H 0.48609 0.80018 0.63004
 H167 H 0.58491 0.71345 0.61082
 H168 H 0.44516 0.75496 0.60231
 C169 C 1.07010 0.81022 0.38087
 C170 C 1.04413 0.81406 0.36970
 C171 C 1.02458 0.78982 0.37012
 N172 N 0.99856 0.79579 0.36941
 N173 N 0.98063 0.77402 0.36929
 C174 C 0.98808 0.74548 0.36950
 N175 N 1.01409 0.73951 0.36986
 N176 N 1.03203 0.76127 0.37033
 C177 C 0.96855 0.72123 0.36857
 C178 C 0.94281 0.72486 0.37775
 H179 H 1.03719 0.83554 0.36230
 H180 H 0.97493 0.69967 0.36177
 H181 H 1.07484 0.78929 0.39233
 H182 H 0.93705 0.74565 0.38750
 C183 C 0.43248 0.17546 -0.10741
 C184 C 0.43249 0.20500 -0.09874
 C185 C 0.45651 0.22346 -0.09831
 N186 N 0.45476 0.25323 -0.09855
 N187 N 0.47637 0.27025 -0.09826
 C188 C 0.50054 0.25809 -0.09741
 N189 N 0.50230 0.22832 -0.09681
 N190 N 0.48069 0.21130 -0.09741
 C191 C 0.52458 0.27654 -0.09676
 C192 C 0.52442 0.30619 -0.10581
 H193 H 0.41411 0.21535 -0.09383
 H194 H 0.54303 0.26613 -0.09038
 H195 H 0.45038 0.16610 -0.11570
 H196 H 0.50633 0.31600 -0.11478
 C197 C 0.10528 -0.09513 0.33811
 C198 C 0.12671 -0.08022 0.32506
 C199 C 0.12360 -0.05580 0.30173
 N200 N 0.14510 -0.04377 0.28797
 N201 N 0.14268 -0.02198 0.26637
 C202 C 0.11865 -0.01138 0.25775
 N203 N 0.09714 -0.02330 0.27163
 N204 N 0.09956 -0.04513 0.29321
 C205 C 0.11563 0.01236 0.23354
 C206 C 0.13694 0.02399 0.21717
 H207 H 0.14649 -0.08740 0.33078
 H208 H 0.09607 0.02036 0.22810
 H209 H 0.08560 -0.08894 0.33028
 H210 H 0.15642 0.01561 0.22239
 C211 C 0.60961 0.59637 -0.34005
 C212 C 0.62818 0.57462 -0.33303
 C213 C 0.62405 0.55129 -0.30875
 N214 N 0.64432 0.53378 -0.29950
 N215 N 0.64127 0.51292 -0.27708
 C216 C 0.61779 0.50868 -0.26315
 N217 N 0.59742 0.52600 -0.27261
 N218 N 0.60050 0.54697 -0.29496
 C219 C 0.61439 0.48609 -0.23787
 C220 C 0.63576 0.47136 -0.22385
 H221 H 0.64705 0.57500 -0.34394
 H222 H 0.59485 0.48191 -0.22928
 H223 H 0.59163 0.59534 -0.32690
 H224 H 0.65540 0.47663 -0.23155
 C225 C 0.37688 1.09741 0.83817
 C226 C 0.39718 1.08289 0.82377
 C227 C 0.39200 1.06067 0.79884
 N228 N 0.41196 1.04431 0.78852
 N229 N 0.40750 1.02396 0.76614
 C230 C 0.38292 1.01931 0.75318
 N231 N 0.36301 1.03580 0.76335
 N232 N 0.36745 1.05606 0.78580
 C233 C 0.37752 0.99686 0.72859
 C234 C 0.39635 0.97694 0.71978
 H235 H 0.41738 1.08690 0.83175
 H236 H 0.35785 0.99554 0.71788
 H237 H 0.35673 1.09132 0.83165
 H238 H 0.41575 0.97760 0.73137
 C239 C 0.89857 0.41653 0.15487
 C240 C 0.90678 0.41455 0.18711
 C241 C 0.90570 0.43992 0.20848
 N242 N 0.90455 0.43564 0.24070
 N243 N 0.90291 0.45847 0.26021
 C244 C 0.90269 0.48643 0.24818
 N245 N 0.90428 0.49073 0.21602
 N246 N 0.90562 0.46789 0.19649
 C247 C 0.90034 0.51185 0.26922
 C248 C 0.88940 0.50919 0.29930
 H249 H 0.91240 0.39347 0.19742
 H250 H 0.90523 0.53348 0.25965
 H251 H 0.89009 0.43682 0.14573
 H252 H 0.88221 0.48791 0.30759
 C253 C 0.34549 0.14624 -0.06419
 C254 C 0.31858 0.14283 -0.07082
 C255 C 0.29939 0.14313 -0.04534
 N256 N 0.27349 0.14648 -0.05305
 N257 N 0.25581 0.14581 -0.03026
 C258 C 0.26337 0.14149 0.00104
 N259 N 0.28925 0.13797 0.00873
 N260 N 0.30696 0.13890 -0.01403
 C261 C 0.24396 0.13936 0.02626
 C262 C 0.21837 0.14913 0.02130
 H263 H 0.31130 0.14027 -0.09540
 H264 H 0.25010 0.13013 0.04939
 H265 H 0.35236 0.15200 -0.04012
 H266 H 0.21284 0.16057 -0.00085
 C267 C 0.66089 0.65146 0.57748
 C268 C 0.67341 0.62742 0.56480
 C269 C 0.69606 0.63063 0.54406
 N270 N 0.70570 0.60647 0.53022
 N271 N 0.72627 0.60878 0.51147
 C272 C 0.73804 0.63536 0.50591
 N273 N 0.72848 0.65955 0.51986
 N274 N 0.70784 0.65724 0.53857
 C275 C 0.76080 0.63813 0.48521
 C276 C 0.76960 0.61428 0.46820
 H277 H 0.66597 0.60532 0.56931
 H278 H 0.77044 0.65947 0.48295
 H279 H 0.66706 0.67353 0.57049
 H280 H 0.75934 0.59323 0.46982
 C281 C 0.85565 0.36075 0.06445
 C282 C 0.82970 0.36759 0.07017
 C283 C 0.80879 0.36569 0.04498
 N284 N 0.78323 0.36509 0.05308
 N285 N 0.76406 0.36420 0.03045
 C286 C 0.76976 0.36414 -0.00114
 N287 N 0.79532 0.36494 -0.00926
 N288 N 0.81450 0.36555 0.01339
 C289 C 0.74880 0.36453 -0.02636
 C290 C 0.72292 0.35661 -0.02007
 H291 H 0.82440 0.37378 0.09405
 H292 H 0.75394 0.37092 -0.05050
 H293 H 0.86033 0.35140 0.04162
 H294 H 0.71817 0.34776 0.00334
 C295 C 0.15707 0.84503 0.42030
 C296 C 0.17089 0.86848 0.43470
 C297 C 0.19394 0.86440 0.45652
 N298 N 0.20422 0.88777 0.47287
 N299 N 0.22515 0.88471 0.49266
 C300 C 0.23668 0.85815 0.49678
 N301 N 0.22649 0.83475 0.48029
 N302 N 0.20545 0.83779 0.46056
 C303 C 0.26001 0.85469 0.51839
 C304 C 0.26900 0.87735 0.53842
 H305 H 0.16404 0.89072 0.43096
 H306 H 0.27007 0.83392 0.51867
 H307 H 0.16258 0.82269 0.42649
 H308 H 0.25817 0.89761 0.53891
   
