data_POSCAR
  _audit_creation_date              2014-09-24
  _audit_creation_method            'ToBaCCo'
  _symmetry_space_group_name_H-M    'P1'
  _symmetry_Int_Tables_number       1
  _symmetry_cell_setting            triclinic
  loop_
  _symmetry_equiv_pos_as_xyz
 x,y,z
_cell_length_a 27.1161
_cell_length_b 27.1153
_cell_length_c 41.9347
_cell_angle_alpha 89.008500
_cell_angle_beta 91.479400
_cell_angle_gamma 90.003000
loop_
  _atom_site_label
  _atom_site_type_symbol
  _atom_site_fract_x
  _atom_site_fract_y
  _atom_site_fract_z
O1 O 0.02901 0.54259 1.03089
 O2 O 0.03010 0.44899 0.96930
 O3 O 0.02288 0.54493 0.96886
 O4 O 0.02893 0.44639 1.03134
 O5 O -0.05237 0.44405 1.03074
 O6 O -0.05826 0.54129 0.96940
 O7 O -0.05115 0.44540 0.96871
 O8 O -0.05225 0.54021 1.03142
 Cu9 Cu 0.03580 0.49602 1.00010
 Cu10 Cu -0.06158 0.49244 1.00006
 C11 C -0.01139 0.55771 1.04173
 C12 C -0.00991 0.43092 0.95843
 C13 C -0.01915 0.56013 0.95855
 C14 C -0.01113 0.42829 1.04158
 O15 O 0.45563 0.05350 0.53114
 O16 O 0.54870 0.05953 0.46975
 O17 O 0.45275 0.05242 0.46908
 O18 O 0.55184 0.05338 0.53175
 O19 O 0.55415 -0.02786 0.53069
 O20 O 0.45637 -0.02882 0.46914
 O21 O 0.55226 -0.02159 0.46870
 O22 O 0.45800 -0.02779 0.53120
 Cu23 Cu 0.50193 0.06277 0.50048
 Cu24 Cu 0.50548 -0.03458 0.49988
 C25 C 0.44060 0.01223 0.54172
 C26 C 0.56678 0.02045 0.45864
 C27 C 0.43756 0.01120 0.45854
 C28 C 0.57003 0.01250 0.54178
 C29 C -0.06385 -0.00082 0.26913
 C30 C -0.02360 0.00582 0.24933
 C31 C -0.02114 0.04745 0.22929
 C32 C -0.05890 0.08293 0.22883
 C33 C -0.09931 0.07591 0.24886
 C34 C -0.10213 0.03407 0.26909
 C35 C 0.01601 -0.03106 0.24949
 C36 C 0.01232 -0.07156 0.22937
 C37 C 0.04990 -0.10719 0.22932
 C38 C 0.09142 -0.10147 0.24979
 C39 C 0.09548 -0.06079 0.27013
 C40 C 0.05734 -0.02572 0.26976
 H41 H -0.06480 -0.03289 0.28488
 H42 H 0.00987 0.05158 0.21368
 H43 H -0.01957 -0.07472 0.21344
 H44 H 0.05923 0.00543 0.28559
 H45 H -0.12863 0.10302 0.24866
 H46 H 0.12060 -0.12872 0.24991
 C47 C 0.00201 -0.05786 0.76911
 C48 C -0.00477 -0.01623 0.74934
 C49 C -0.04663 -0.01229 0.72929
 C50 C -0.08221 -0.04993 0.72878
 C51 C -0.07504 -0.09174 0.74875
 C52 C -0.03298 -0.09606 0.76902
 C53 C 0.03212 0.02337 0.74961
 C54 C 0.07239 0.02116 0.72953
 C55 C 0.10793 0.05884 0.72952
 C56 C 0.10235 0.09893 0.75003
 C57 C 0.06188 0.10151 0.77033
 C58 C 0.02690 0.06330 0.76991
 H59 H 0.03424 -0.05995 0.78489
 H60 H -0.05090 0.01982 0.71372
 H61 H 0.07542 -0.00962 0.71355
 H62 H -0.00409 0.06405 0.78570
 H63 H -0.10224 -0.12098 0.74852
 H64 H 0.12952 0.12818 0.75019
 C65 C 0.03533 -0.38333 0.07623
 C66 C 0.03730 -0.34611 0.09875
 C67 C -0.00620 -0.32838 0.11194
 C68 C -0.05159 -0.34879 0.10240
 C69 C -0.05366 -0.38611 0.07969
 C70 C -0.01014 -0.40364 0.06628
 N71 N -0.00497 -0.28939 0.13462
 N72 N 0.03530 -0.26819 0.14256
 C73 C 0.03801 -0.22890 0.16491
 C74 C 0.08350 -0.20591 0.17057
 C75 C 0.08753 -0.16668 0.19164
 C76 C 0.04594 -0.14984 0.20759
 C77 C 0.00033 -0.17348 0.20213
 C78 C -0.00366 -0.21261 0.18092
 H79 H 0.06959 -0.39593 0.06644
 H80 H 0.07289 -0.33109 0.10573
 H81 H -0.08541 -0.33547 0.11239
 H82 H -0.08922 -0.40101 0.07254
 H83 H 0.11584 -0.21810 0.15829
 H84 H 0.12299 -0.14888 0.19492
 H85 H -0.03223 -0.16190 0.21440
 H86 H -0.03918 -0.23002 0.17704
 C87 C 0.03402 0.37005 0.07961
 C88 C 0.03366 0.33147 0.10229
 C89 C -0.01100 0.31040 0.11164
 C90 C -0.05549 0.32874 0.09828
 C91 C -0.05522 0.36721 0.07580
 C92 C -0.01050 0.38822 0.06605
 N93 N -0.01054 0.27020 0.13432
 N94 N -0.05022 0.24842 0.14201
 C95 C -0.05138 0.20795 0.16436
 C96 C -0.09643 0.18446 0.16965
 C97 C -0.09902 0.14414 0.19073
 C98 C -0.05640 0.12669 0.20708
 C99 C -0.01122 0.15082 0.20198
 C100 C -0.00867 0.19104 0.18075
 H101 H 0.06904 0.38547 0.07262
 H102 H 0.06823 0.31770 0.11241
 H103 H -0.09055 0.31324 0.10511
 H104 H -0.09021 0.38025 0.06589
 H105 H -0.12956 0.19713 0.15708
 H106 H -0.13421 0.12601 0.19371
 H107 H 0.02214 0.13877 0.21455
 H108 H 0.02655 0.20882 0.17715
 C109 C 0.38490 -0.03305 0.57944
 C110 C 0.34787 -0.03278 0.60215
 C111 C 0.32751 0.01183 0.61187
 C112 C 0.34500 0.05637 0.59886
 C113 C 0.38194 0.05619 0.57635
 C114 C 0.40221 0.01152 0.56622
 N115 N 0.28884 0.01127 0.63456
 N116 N 0.26767 0.05090 0.64264
 C117 C 0.22870 0.05188 0.66501
 C118 C 0.21276 0.00902 0.68094
 C119 C 0.17394 0.01139 0.70219
 C120 C 0.15027 0.05654 0.70777
 C121 C 0.16676 0.09931 0.69189
 C122 C 0.20569 0.09690 0.67078
 H123 H 0.39979 -0.06803 0.57216
 H124 H 0.33473 -0.06739 0.61200
 H125 H 0.33002 0.09140 0.60597
 H126 H 0.39436 0.09122 0.56670
 H127 H 0.23020 -0.02617 0.67698
 H128 H 0.16263 -0.02209 0.71440
 H129 H 0.14893 0.13450 0.69525
 H130 H 0.21761 0.13016 0.65856
 C131 C -0.37123 0.05461 0.58005
 C132 C -0.33237 0.05245 0.60273
 C133 C -0.31127 0.00704 0.61190
 C134 C -0.32987 -0.03639 0.59836
 C135 C -0.36862 -0.03433 0.57588
 C136 C -0.38965 0.01117 0.56630
 N137 N -0.27075 0.00571 0.63456
 N138 N -0.24896 -0.03459 0.64211
 C139 C -0.20817 -0.03747 0.66442
 C140 C -0.18472 -0.08296 0.66960
 C141 C -0.14409 -0.08717 0.69064
 C142 C -0.12629 -0.04577 0.70706
 C143 C -0.15036 -0.00016 0.70209
 C144 C -0.19090 0.00401 0.68090
 H145 H -0.38665 0.09019 0.57320
 H146 H -0.31839 0.08622 0.61299
 H147 H -0.31436 -0.07200 0.60504
 H148 H -0.38186 -0.06854 0.56581
 H149 H -0.19766 -0.11515 0.65696
 H150 H -0.12602 -0.12262 0.69353
 H151 H -0.13804 0.03226 0.71473
 H152 H -0.20863 0.03953 0.67740
 C153 C -0.06983 -0.38480 0.92473
 C154 C -0.07430 -0.34632 0.90237
 C155 C -0.03243 -0.32410 0.88987
 C156 C 0.01456 -0.34105 0.89988
 C157 C 0.01925 -0.37960 0.92246
 C158 C -0.02298 -0.40190 0.93533
 N159 N -0.03909 -0.28388 0.86763
 N160 N -0.00345 -0.26250 0.85390
 C161 C -0.01171 -0.22169 0.83223
 C162 C 0.02828 -0.20114 0.81632
 C163 C 0.02138 -0.16072 0.79551
 C164 C -0.02580 -0.13994 0.79038
 C165 C -0.06593 -0.16088 0.80630
 C166 C -0.05901 -0.20139 0.82697
 H167 H -0.10336 -0.40076 0.93388
 H168 H -0.11067 -0.33351 0.89484
 H169 H 0.04751 -0.32426 0.89051
 H170 H 0.05592 -0.39164 0.92991
 H171 H 0.06488 -0.21648 0.82009
 H172 H 0.05295 -0.14592 0.78328
 H173 H -0.10257 -0.14533 0.80330
 H174 H -0.09056 -0.21641 0.83911
 C175 C -0.05080 0.37181 0.92034
 C176 C -0.04771 0.33473 0.89760
 C177 C -0.00167 0.31759 0.88816
 C178 C 0.04141 0.33837 0.90148
 C179 C 0.03841 0.37538 0.92403
 C180 C -0.00768 0.39241 0.93387
 N181 N 0.00070 0.27883 0.86541
 N182 N 0.04182 0.26053 0.85759
 C183 C 0.04576 0.22160 0.83517
 C184 C 0.09238 0.20190 0.82964
 C185 C 0.09774 0.16318 0.80845
 C186 C 0.05637 0.14357 0.79224
 C187 C 0.00957 0.16388 0.79758
 C188 C 0.00426 0.20250 0.81891
 H189 H -0.08683 0.38417 0.92740
 H190 H -0.08123 0.31904 0.88750
 H191 H 0.07748 0.32593 0.89459
 H192 H 0.07240 0.39038 0.93392
 H193 H 0.12462 0.21628 0.84211
 H194 H 0.13416 0.14796 0.80527
 H195 H -0.02293 0.15012 0.78511
 H196 H -0.03215 0.21735 0.82268
 C197 C -0.38044 0.07116 0.42508
 C198 C -0.34347 0.07565 0.40273
 C199 C -0.32209 0.03379 0.38999
 C200 C -0.33837 -0.01319 0.39973
 C201 C -0.37541 -0.01790 0.42230
 C202 C -0.39683 0.02431 0.43542
 N203 N -0.28338 0.04046 0.36776
 N204 N -0.26288 0.00480 0.35389
 C205 C -0.22353 0.01301 0.33224
 C206 C -0.20394 -0.02706 0.31624
 C207 C -0.16492 -0.02023 0.29546
 C208 C -0.14458 0.02697 0.29044
 C209 C -0.16456 0.06718 0.30644
 C210 C -0.20369 0.06032 0.32709
 H211 H -0.39578 0.10468 0.43444
 H212 H -0.33117 0.11202 0.39539
 H213 H -0.32223 -0.04614 0.39018
 H214 H -0.38695 -0.05457 0.42955
 H215 H -0.21894 -0.06366 0.31993
 H216 H -0.15085 -0.05185 0.28316
 H217 H -0.14931 0.10383 0.30350
 H218 H -0.21799 0.09192 0.33929
 C219 C 0.37593 0.05213 0.42067
 C220 C 0.33732 0.04906 0.39792
 C221 C 0.31948 0.00303 0.38825
 C222 C 0.34110 -0.04006 0.40136
 C223 C 0.37962 -0.03708 0.42391
 C224 C 0.39739 0.00900 0.43398
 N225 N 0.27920 0.00065 0.36549
 N226 N 0.26029 -0.04047 0.35752
 C227 C 0.21987 -0.04446 0.33507
 C228 C 0.19969 -0.09107 0.32942
 C229 C 0.15957 -0.09649 0.30820
 C230 C 0.13900 -0.05520 0.29207
 C231 C 0.15979 -0.00841 0.29753
 C232 C 0.19982 -0.00303 0.31890
 H233 H 0.38882 0.08814 0.42791
 H234 H 0.32100 0.08257 0.38799
 H235 H 0.32815 -0.07612 0.39429
 H236 H 0.39524 -0.07106 0.43363
 H237 H 0.21479 -0.12325 0.34182
 H238 H 0.14404 -0.13290 0.30494
 H239 H 0.14530 0.02403 0.28513
 H240 H 0.21502 0.03336 0.32276
   
