data_POSCAR
  _audit_creation_date              2014-09-24
  _audit_creation_method            'ToBaCCo'
  _symmetry_space_group_name_H-M    'P1'
  _symmetry_Int_Tables_number       1
  _symmetry_cell_setting            triclinic
  loop_
  _symmetry_equiv_pos_as_xyz
 x,y,z
_cell_length_a 54.7376
_cell_length_b 47.6954
_cell_length_c 29.6698
_cell_angle_alpha 90.035900
_cell_angle_beta 90.019900
_cell_angle_gamma 90.032500
loop_
  _atom_site_label
  _atom_site_type_symbol
  _atom_site_fract_x
  _atom_site_fract_y
  _atom_site_fract_z
O1 O 0.23536 0.27734 0.20397
 O2 O 0.27839 0.22295 0.24203
 O3 O 0.23540 0.22272 0.20394
 O4 O 0.27836 0.27724 0.24232
 O5 O 0.26079 0.27721 0.30921
 O6 O 0.21771 0.22301 0.27064
 O7 O 0.26073 0.22265 0.30884
 O8 O 0.21781 0.27714 0.27089
 Cu9 Cu 0.25861 0.25008 0.21634
 Cu10 Cu 0.23755 0.25000 0.29663
 C11 C 0.21903 0.28631 0.23077
 C12 C 0.27707 0.21366 0.28207
 C13 C 0.21894 0.21374 0.23053
 C14 C 0.27710 0.28634 0.28251
 O15 O 0.73597 0.22334 0.29884
 O16 O 0.77960 0.27763 0.26271
 O17 O 0.73638 0.27792 0.30039
 O18 O 0.77907 0.22340 0.26133
 O19 O 0.76187 0.22431 0.19411
 O20 O 0.71896 0.27845 0.23334
 O21 O 0.76212 0.27894 0.19584
 O22 O 0.71871 0.22432 0.23165
 Cu23 Cu 0.75946 0.25052 0.28757
 Cu24 Cu 0.73874 0.25160 0.20696
 C25 C 0.71972 0.21473 0.27154
 C26 C 0.77855 0.28743 0.22292
 C27 C 0.72012 0.28721 0.27372
 C28 C 0.77793 0.21471 0.22090
 O29 O 0.76332 0.77819 0.80447
 O30 O 0.71949 0.72387 0.76900
 O31 O 0.76264 0.72359 0.80640
 O32 O 0.72004 0.77800 0.76715
 O33 O 0.73721 0.77701 0.69992
 O34 O 0.77996 0.72265 0.73939
 O35 O 0.73678 0.72243 0.70188
 O36 O 0.78049 0.77684 0.73725
 Cu37 Cu 0.73971 0.75105 0.79353
 Cu38 Cu 0.76030 0.74963 0.71285
 C39 C 0.77959 0.78658 0.77707
 C40 C 0.72047 0.71406 0.72922
 C41 C 0.77881 0.71394 0.77983
 C42 C 0.72109 0.78654 0.72666
 O43 O 0.27962 0.77828 0.76328
 O44 O 0.23679 0.72431 0.80362
 O45 O 0.27954 0.72401 0.76453
 O46 O 0.23686 0.77894 0.80221
 O47 O 0.21873 0.77786 0.73591
 O48 O 0.26161 0.72338 0.69794
 O49 O 0.21892 0.72364 0.73698
 O50 O 0.26155 0.77791 0.69683
 Cu51 Cu 0.25996 0.75146 0.79011
 Cu52 Cu 0.23844 0.75066 0.71023
 C53 C 0.27808 0.78714 0.72302
 C54 C 0.22041 0.71487 0.77731
 C55 C 0.27804 0.71451 0.72461
 C56 C 0.22023 0.78759 0.77572
 C57 C 0.97880 -0.04923 -0.05183
 C58 C 1.00124 -0.06085 -0.06430
 C59 C 1.02344 -0.04872 -0.05142
 C60 C 1.02333 -0.02408 -0.02472
 C61 C 1.00071 -0.01208 -0.01139
 C62 C 0.97837 -0.02467 -0.02501
 C63 C 0.95624 -0.01265 -0.01077
 C64 C 0.95596 0.01163 0.01516
 C65 C 0.97780 0.02439 0.02932
 C66 C 1.00042 0.01242 0.01600
 C67 C 1.04517 -0.01139 -0.01033
 C68 C 1.04488 0.01296 0.01548
 C69 C 1.02275 0.02504 0.02963
 C70 C 1.02227 0.04968 0.05637
 C71 C 0.99978 0.06133 0.06865
 C72 C 0.97765 0.04906 0.05583
 H73 H 0.93881 -0.02189 -0.01941
 H74 H 0.93833 0.02026 0.02393
 H75 H 1.06280 -0.02011 -0.01880
 H76 H 1.06230 0.02220 0.02408
 H77 H 1.00143 -0.07957 -0.08510
 H78 H 0.99948 0.08013 0.08925
 C79 C 0.47748 0.44993 0.45165
 C80 C 0.49978 0.43786 0.43942
 C81 C 0.52210 0.44984 0.45197
 C82 C 0.52226 0.47463 0.47833
 C83 C 0.49977 0.48700 0.49152
 C84 C 0.47731 0.47465 0.47807
 C85 C 0.45529 0.48708 0.49201
 C86 C 0.45525 0.51145 0.51772
 C87 C 0.47723 0.52396 0.53175
 C88 C 0.49973 0.51165 0.51852
 C89 C 0.54423 0.48712 0.49250
 C90 C 0.54419 0.51162 0.51799
 C91 C 0.52218 0.52409 0.53187
 C92 C 0.52194 0.54893 0.55809
 C93 C 0.49959 0.56089 0.57039
 C94 C 0.47733 0.54874 0.55802
 H95 H 0.43778 0.47809 0.48328
 H96 H 0.43772 0.52038 0.52636
 H97 H 0.56176 0.47811 0.48412
 H98 H 0.56170 0.52064 0.52659
 H99 H 0.49974 0.41899 0.41895
 H100 H 0.49950 0.57982 0.59069
 C101 C 0.02186 0.54830 -0.05443
 C102 C -0.00039 0.56041 -0.06687
 C103 C -0.02274 0.54844 -0.05461
 C104 C -0.02299 0.52368 -0.02824
 C105 C -0.00057 0.51130 -0.01478
 C106 C 0.02195 0.52354 -0.02812
 C107 C 0.04390 0.51099 -0.01416
 C108 C 0.04383 0.48667 0.01167
 C109 C 0.02180 0.47441 0.02598
 C110 C -0.00064 0.48677 0.01250
 C111 C -0.04502 0.51126 -0.01433
 C112 C -0.04511 0.48690 0.01142
 C113 C -0.02317 0.47453 0.02588
 C114 C -0.02308 0.44996 0.05271
 C115 C -0.00078 0.43804 0.06542
 C116 C 0.02156 0.44984 0.05275
 H117 H 0.06145 0.51982 -0.02296
 H118 H 0.06132 0.47761 0.02022
 H119 H -0.06253 0.52021 -0.02308
 H120 H -0.06266 0.47792 0.01976
 H121 H -0.00031 0.57934 -0.08716
 H122 H -0.00082 0.41937 0.08630
 C123 C 0.52229 1.04879 0.44441
 C124 C 0.49987 1.06076 0.43248
 C125 C 0.47768 1.04857 0.44504
 C126 C 0.47770 1.02374 0.47113
 C127 C 0.50025 1.01141 0.48396
 C128 C 0.52264 1.02388 0.47041
 C129 C 0.54471 1.01137 0.48390
 C130 C 0.54486 0.98681 0.50919
 C131 C 0.52295 0.97429 0.52356
 C132 C 0.50041 0.98669 0.51077
 C133 C 0.45579 1.01120 0.48537
 C134 C 0.45593 0.98677 0.51087
 C135 C 0.47801 0.97432 0.52444
 C136 C 0.47829 0.94956 0.55071
 C137 C 0.50063 0.93745 0.56254
 C138 C 0.52291 0.94945 0.54975
 H139 H 0.56218 1.02043 0.47515
 H140 H 0.56243 0.97779 0.51726
 H141 H 0.43821 1.02014 0.47706
 H142 H 0.43846 0.97775 0.51972
 H143 H 0.49969 1.07973 0.41233
 H144 H 0.50068 0.91856 0.58290
 C145 C 1.16483 0.15778 0.18253
 C146 C 1.16360 0.16843 0.22655
 C147 C 1.18190 0.18614 0.24292
 C148 C 1.20166 0.19408 0.21527
 C149 C 1.20309 0.18276 0.17144
 C150 C 1.18496 0.16464 0.15542
 C151 C 1.14451 0.14077 0.16423
 C152 C 1.14904 0.11529 0.14197
 C153 C 1.12968 0.09963 0.12413
 C154 C 1.10559 0.10954 0.12746
 C155 C 1.10111 0.13502 0.14965
 C156 C 1.12037 0.15038 0.16818
 C157 C 1.08506 0.09363 0.10750
 C158 C 1.06812 0.10726 0.07957
 C159 C 1.04817 0.09266 0.06196
 C160 C 1.04467 0.06422 0.07225
 C161 C 1.06155 0.05057 0.10035
 C162 C 1.08180 0.06507 0.11733
 H163 H 1.14833 0.16320 0.24817
 H164 H 1.18010 0.19422 0.27689
 H165 H 1.21803 0.18818 0.14914
 H166 H 1.18621 0.15675 0.12126
 H167 H 1.16752 0.10746 0.13867
 H168 H 1.13352 0.08006 0.10701
 H169 H 1.08266 0.14296 0.15286
 H170 H 1.11647 0.17007 0.18488
 H171 H 1.07034 0.12925 0.07141
 H172 H 1.03525 0.10364 0.04069
 H173 H 1.05886 0.02881 0.10955
 H174 H 1.09450 0.05424 0.13924
 C175 C 0.66478 0.65744 0.68254
 C176 C 0.66225 0.67136 0.72399
 C177 C 0.68071 0.68903 0.73982
 C178 C 0.70198 0.69342 0.71424
 C179 C 0.70476 0.67898 0.67324
 C180 C 0.68639 0.66101 0.65768
 C181 C 0.64442 0.64041 0.66432
 C182 C 0.64866 0.61373 0.64578
 C183 C 0.62932 0.59805 0.62795
 C184 C 0.60550 0.60901 0.62766
 C185 C 0.60130 0.63567 0.64621
 C186 C 0.62053 0.65114 0.66457
 C187 C 0.58498 0.59292 0.60791
 C188 C 0.56845 0.60613 0.57859
 C189 C 0.54842 0.59148 0.56144
 C190 C 0.54447 0.56338 0.57338
 C191 C 0.56100 0.55008 0.60259
 C192 C 0.58126 0.56465 0.61932
 H193 H 0.64585 0.66874 0.74397
 H194 H 0.67801 0.69986 0.77152
 H195 H 0.72096 0.68189 0.65283
 H196 H 0.68870 0.65064 0.62548
 H197 H 0.66692 0.60498 0.64537
 H198 H 0.63300 0.57758 0.61367
 H199 H 0.58307 0.64447 0.64675
 H200 H 0.61681 0.67175 0.67827
 H201 H 0.57102 0.62785 0.56905
 H202 H 0.53577 0.60216 0.53923
 H203 H 0.55796 0.52859 0.61295
 H204 H 0.59361 0.55412 0.64228
 C205 C -0.16685 0.34346 0.17726
 C206 C -0.16582 0.33233 0.22096
 C207 C -0.18428 0.31460 0.23661
 C208 C -0.20401 0.30714 0.20851
 C209 C -0.20526 0.31897 0.16503
 C210 C -0.18695 0.33708 0.14975
 C211 C -0.14634 0.36040 0.15957
 C212 C -0.15060 0.38600 0.13753
 C213 C -0.13107 0.40148 0.11996
 C214 C -0.10708 0.39128 0.12333
 C215 C -0.10286 0.36571 0.14540
 C216 C -0.12228 0.35052 0.16365
 C217 C -0.08639 0.40693 0.10344
 C218 C -0.06955 0.39305 0.07561
 C219 C -0.04945 0.40736 0.05810
 C220 C -0.04569 0.43578 0.06834
 C221 C -0.06249 0.44969 0.09627
 C222 C -0.08289 0.43547 0.11319
 H223 H -0.15056 0.33717 0.24290
 H224 H -0.18263 0.30612 0.27034
 H225 H -0.22016 0.31393 0.14241
 H226 H -0.18806 0.34534 0.11581
 H227 H -0.16901 0.39404 0.13412
 H228 H -0.13472 0.42112 0.10293
 H229 H -0.08448 0.35754 0.14866
 H230 H -0.11857 0.33073 0.18016
 H231 H -0.07196 0.37107 0.06749
 H232 H -0.03659 0.39618 0.03695
 H233 H -0.05961 0.47143 0.10544
 H234 H -0.09552 0.44649 0.13500
 C235 C 0.33243 0.84411 0.67175
 C236 C 0.33463 0.83268 0.71524
 C237 C 0.31665 0.81480 0.73229
 C238 C 0.29612 0.80776 0.70617
 C239 C 0.29363 0.81963 0.66308
 C240 C 0.31155 0.83768 0.64612
 C241 C 0.35235 0.86169 0.65264
 C242 C 0.35916 0.85889 0.60717
 C243 C 0.37876 0.87420 0.58975
 C244 C 0.39216 0.89257 0.61740
 C245 C 0.38506 0.89580 0.66264
 C246 C 0.36536 0.88059 0.68002
 C247 C 0.41388 0.90763 0.59946
 C248 C 0.41909 0.93530 0.61289
 C249 C 0.43991 0.94905 0.59684
 C250 C 0.45572 0.93553 0.56663
 C251 C 0.45064 0.90795 0.55324
 C252 C 0.42993 0.89413 0.56945
 H253 H 0.35062 0.83683 0.73564
 H254 H 0.31919 0.80590 0.76554
 H255 H 0.27795 0.81476 0.64222
 H256 H 0.30908 0.84650 0.61282
 H257 H 0.34974 0.84431 0.58524
 H258 H 0.38350 0.87153 0.55458
 H259 H 0.39510 0.90956 0.68500
 H260 H 0.36040 0.88354 0.71503
 H261 H 0.40702 0.94638 0.63564
 H262 H 0.44375 0.97022 0.60803
 H263 H 0.46283 0.89706 0.53042
 H264 H 0.42677 0.87265 0.55916
 C265 C -0.16817 0.65683 -0.17109
 C266 C -0.16710 0.66668 -0.21570
 C267 C -0.18495 0.68490 -0.23230
 C268 C -0.20422 0.69407 -0.20451
 C269 C -0.20558 0.68364 -0.16017
 C270 C -0.18786 0.66517 -0.14381
 C271 C -0.14829 0.63889 -0.15260
 C272 C -0.14033 0.64235 -0.10788
 C273 C -0.12087 0.62658 -0.09105
 C274 C -0.10866 0.60712 -0.11861
 C275 C -0.11688 0.60328 -0.16310
 C276 C -0.13651 0.61888 -0.17983
 C277 C -0.08699 0.59160 -0.10139
 C278 C -0.08256 0.56367 -0.11437
 C279 C -0.06180 0.54950 -0.09900
 C280 C -0.04531 0.56282 -0.06974
 C281 C -0.04964 0.59065 -0.05679
 C282 C -0.07022 0.60491 -0.07246
 H283 H -0.15204 0.66104 -0.23751
 H284 H -0.18318 0.69238 -0.26661
 H285 H -0.22022 0.68990 -0.13778
 H286 H -0.18957 0.65753 -0.10961
 H287 H -0.14871 0.65778 -0.08606
 H288 H -0.11533 0.62976 -0.05639
 H289 H -0.10778 0.58870 -0.18545
 H290 H -0.14237 0.61534 -0.21421
 H291 H -0.09517 0.55269 -0.13626
 H292 H -0.05853 0.52816 -0.10995
 H293 H -0.03692 0.60140 -0.03477
 H294 H -0.07270 0.62657 -0.06259
 C295 C 0.33137 1.15575 0.33061
 C296 C 0.33338 1.16766 0.28743
 C297 C 0.31543 1.18588 0.27126
 C298 C 0.29511 1.19277 0.29798
 C299 C 0.29280 1.18042 0.34076
 C300 C 0.31068 1.16206 0.35684
 C301 C 0.35127 1.13781 0.34882
 C302 C 0.35839 1.14009 0.39421
 C303 C 0.37800 1.12447 0.41080
 C304 C 0.39109 1.10628 0.38238
 C305 C 0.38366 1.10355 0.33722
 C306 C 0.36395 1.11909 0.32067
 C307 C 0.41288 1.09098 0.39940
 C308 C 0.41786 1.06340 0.38525
 C309 C 0.43879 1.04947 0.40034
 C310 C 0.45494 1.06271 0.43029
 C311 C 0.45007 1.09019 0.44444
 C312 C 0.42925 1.10419 0.42921
 H313 H 0.34922 1.16362 0.26660
 H314 H 0.31782 1.19513 0.23823
 H315 H 0.27727 1.18517 0.36206
 H316 H 0.30836 1.15288 0.38992
 H317 H 0.34922 1.15452 0.41672
 H318 H 0.38301 1.12676 0.44592
 H319 H 0.39346 1.08994 0.31430
 H320 H 0.35874 1.11654 0.28570
 H321 H 0.40554 1.05255 0.36262
 H322 H 0.44246 1.02838 0.38859
 H323 H 0.46252 1.10086 0.46708
 H324 H 0.42626 1.12559 0.44004
 C325 C 1.16642 -0.15599 -0.17678
 C326 C 1.18670 -0.16256 -0.14986
 C327 C 1.20474 -0.18081 -0.16574
 C328 C 1.20306 -0.19258 -0.20925
 C329 C 1.18315 -0.18490 -0.23676
 C330 C 1.16496 -0.16704 -0.22052
 C331 C 1.14615 -0.13894 -0.15848
 C332 C 1.12202 -0.14868 -0.16196
 C333 C 1.10281 -0.13334 -0.14335
 C334 C 1.10730 -0.10774 -0.12151
 C335 C 1.13137 -0.09768 -0.11867
 C336 C 1.15070 -0.11332 -0.13661
 C337 C 1.08680 -0.09189 -0.10140
 C338 C 1.08331 -0.06341 -0.11154
 C339 C 1.06293 -0.04910 -0.09476
 C340 C 1.04614 -0.06286 -0.06659
 C341 C 1.04995 -0.09118 -0.05583
 C342 C 1.07003 -0.10559 -0.07320
 H343 H 1.18813 -0.15436 -0.11591
 H344 H 1.21980 -0.18601 -0.14357
 H345 H 1.18117 -0.19331 -0.27049
 H346 H 1.14957 -0.16205 -0.24201
 H347 H 1.11809 -0.16848 -0.17833
 H348 H 1.08436 -0.14140 -0.14620
 H349 H 1.13524 -0.07801 -0.10184
 H350 H 1.16918 -0.10539 -0.13367
 H351 H 1.09589 -0.05254 -0.13364
 H352 H 1.06001 -0.02744 -0.10430
 H353 H 1.03711 -0.10224 -0.03449
 H354 H 1.07244 -0.12751 -0.06478
 C355 C 0.66489 0.34302 0.32431
 C356 C 0.68654 0.33875 0.34879
 C357 C 0.70478 0.32106 0.33200
 C358 C 0.70184 0.30765 0.29013
 C359 C 0.68054 0.31279 0.26498
 C360 C 0.66221 0.33015 0.28203
 C361 C 0.64463 0.35968 0.34367
 C362 C 0.62073 0.34896 0.34312
 C363 C 0.60155 0.36415 0.36215
 C364 C 0.60581 0.39053 0.38166
 C365 C 0.62965 0.40146 0.38180
 C366 C 0.64896 0.38603 0.36332
 C367 C 0.58530 0.40642 0.40176
 C368 C 0.58157 0.43477 0.39090
 C369 C 0.56125 0.44914 0.40777
 C370 C 0.54469 0.43556 0.43659
 C371 C 0.54866 0.40739 0.44800
 C372 C 0.56874 0.39293 0.43069
 H373 H 0.68896 0.34832 0.38160
 H374 H 0.72101 0.31754 0.35210
 H375 H 0.67771 0.30276 0.23264
 H376 H 0.64577 0.33333 0.26235
 H377 H 0.61696 0.32858 0.32854
 H378 H 0.58330 0.35539 0.36128
 H379 H 0.63337 0.42172 0.39682
 H380 H 0.66722 0.39475 0.36399
 H381 H 0.59393 0.44550 0.36824
 H382 H 0.55820 0.47069 0.39778
 H383 H 0.53598 0.39649 0.46989
 H384 H 0.57131 0.37114 0.43976
 C385 C 0.83555 -0.15711 -0.17636
 C386 C 0.81407 -0.16080 -0.15117
 C387 C 0.79560 -0.17865 -0.16668
 C388 C 0.79815 -0.19285 -0.20796
 C389 C 0.81929 -0.18832 -0.23385
 C390 C 0.83785 -0.17077 -0.21808
 C391 C 0.85604 -0.14022 -0.15824
 C392 C 0.87991 -0.15096 -0.15916
 C393 C 0.89927 -0.13563 -0.14094
 C394 C 0.89520 -0.10909 -0.12187
 C395 C 0.87138 -0.09811 -0.12147
 C396 C 0.85192 -0.11367 -0.13917
 C397 C 0.91584 -0.09314 -0.10224
 C398 C 0.91945 -0.06477 -0.11311
 C399 C 0.93973 -0.05027 -0.09630
 C400 C 0.95637 -0.06374 -0.06753
 C401 C 0.95257 -0.09197 -0.05622
 C402 C 0.93252 -0.10655 -0.07346
 H403 H 0.81194 -0.15063 -0.11876
 H404 H 0.77951 -0.18168 -0.14603
 H405 H 0.82181 -0.19895 -0.26577
 H406 H 0.85414 -0.16804 -0.23832
 H407 H 0.88354 -0.17149 -0.17328
 H408 H 0.91749 -0.14444 -0.14200
 H409 H 0.86780 -0.07774 -0.10677
 H410 H 0.83368 -0.10490 -0.13824
 H411 H 0.90698 -0.05409 -0.13565
 H412 H 0.94265 -0.02867 -0.10617
 H413 H 0.96531 -0.10278 -0.03436
 H414 H 0.93004 -0.12835 -0.06434
 C415 C 0.33157 0.34373 0.33229
 C416 C 0.31074 0.33749 0.35816
 C417 C 0.29279 0.31933 0.34164
 C418 C 0.29518 0.30712 0.29875
 C419 C 0.31563 0.31398 0.27234
 C420 C 0.33364 0.33200 0.28896
 C421 C 0.35153 0.36139 0.35106
 C422 C 0.36448 0.38017 0.32343
 C423 C 0.38416 0.39553 0.34060
 C424 C 0.39132 0.39254 0.38586
 C425 C 0.37801 0.37426 0.41373
 C426 C 0.35842 0.35882 0.39653
 C427 C 0.41303 0.40772 0.40360
 C428 C 0.42918 0.39435 0.43356
 C429 C 0.44989 0.40828 0.44958
 C430 C 0.45486 0.43585 0.43608
 C431 C 0.43893 0.44926 0.40596
 C432 C 0.41812 0.43540 0.39007
 H433 H 0.30835 0.34655 0.39133
 H434 H 0.27717 0.31461 0.36270
 H435 H 0.31807 0.30483 0.23923
 H436 H 0.34959 0.33602 0.26838
 H437 H 0.35946 0.38293 0.28841
 H438 H 0.39415 0.40922 0.31808
 H439 H 0.38281 0.37176 0.44891
 H440 H 0.34905 0.34432 0.41866
 H441 H 0.42611 0.37288 0.44393
 H442 H 0.46217 0.39748 0.47233
 H443 H 0.44269 0.47043 0.39469
 H444 H 0.40596 0.44638 0.36734
 C445 C 0.16676 0.65677 -0.17207
 C446 C 0.16442 0.66838 -0.21541
 C447 C 0.18213 0.68670 -0.23222
 C448 C 0.20254 0.69401 -0.20598
 C449 C 0.20516 0.68202 -0.16299
 C450 C 0.18752 0.66354 -0.14629
 C451 C 0.14715 0.63861 -0.15328
 C452 C 0.14028 0.64096 -0.10778
 C453 C 0.12094 0.62510 -0.09064
 C454 C 0.10787 0.60661 -0.11861
 C455 C 0.11506 0.60380 -0.16388
 C456 C 0.13450 0.61956 -0.18097
 C457 C 0.08630 0.59110 -0.10105
 C458 C 0.08142 0.56343 -0.11495
 C459 C 0.06064 0.54934 -0.09947
 C460 C 0.04454 0.56252 -0.06939
 C461 C 0.04934 0.59006 -0.05543
 C462 C 0.07000 0.60421 -0.07104
 H463 H 0.14850 0.66398 -0.23592
 H464 H 0.17950 0.69567 -0.26538
 H465 H 0.22076 0.68709 -0.14206
 H466 H 0.19010 0.65461 -0.11309
 H467 H 0.14942 0.65563 -0.08559
 H468 H 0.11612 0.62747 -0.05545
 H469 H 0.10527 0.58996 -0.18648
 H470 H 0.13953 0.61694 -0.21601
 H471 H 0.09369 0.55264 -0.13770
 H472 H 0.05701 0.52821 -0.11109
 H473 H 0.03692 0.60068 -0.03270
 H474 H 0.07290 0.62567 -0.06039
 C475 C 0.66436 1.15790 0.31873
 C476 C 0.66167 1.17174 0.27727
 C477 C 0.68002 1.18949 0.26128
 C478 C 0.70133 1.19403 0.28671
 C479 C 0.70426 1.17968 0.32774
 C480 C 0.68601 1.16163 0.34345
 C481 C 0.64412 1.14076 0.33712
 C482 C 0.64853 1.11412 0.35558
 C483 C 0.62930 1.09834 0.37357
 C484 C 0.60544 1.10918 0.37411
 C485 C 0.60108 1.13581 0.35564
 C486 C 0.62019 1.15137 0.33711
 C487 C 0.58505 1.09300 0.39406
 C488 C 0.56862 1.10613 0.42366
 C489 C 0.54869 1.09140 0.44100
 C490 C 0.54475 1.06331 0.42896
 C491 C 0.56118 1.05009 0.39946
 C492 C 0.58135 1.06473 0.38255
 H493 H 0.64523 1.16900 0.25741
 H494 H 0.67721 1.20025 0.22958
 H495 H 0.72050 1.18271 0.34802
 H496 H 0.68844 1.15132 0.37565
 H497 H 0.66681 1.10546 0.35580
 H498 H 0.63310 1.07789 0.38778
 H499 H 0.58281 1.14452 0.35530
 H500 H 0.61635 1.17196 0.32346
 H501 H 0.57118 1.12784 0.43327
 H502 H 0.53611 1.10202 0.46342
 H503 H 0.55814 1.02860 0.38901
 H504 H 0.59362 1.05427 0.35938
 C505 C 0.16389 0.34259 0.18123
 C506 C 0.18553 0.33842 0.15670
 C507 C 0.20374 0.32058 0.17317
 C508 C 0.20077 0.30689 0.21477
 C509 C 0.17948 0.31192 0.23999
 C510 C 0.16118 0.32945 0.22326
 C511 C 0.14366 0.35941 0.16212
 C512 C 0.11973 0.34881 0.16261
 C513 C 0.10060 0.36408 0.14357
 C514 C 0.10496 0.39044 0.12408
 C515 C 0.12883 0.40128 0.12407
 C516 C 0.14808 0.38577 0.14258
 C517 C 0.08453 0.40635 0.10375
 C518 C 0.08090 0.43477 0.11430
 C519 C 0.06066 0.44917 0.09716
 C520 C 0.04409 0.43555 0.06838
 C521 C 0.04797 0.40730 0.05725
 C522 C 0.06797 0.39282 0.07482
 H523 H 0.18798 0.34819 0.12407
 H524 H 0.21995 0.31716 0.15302
 H525 H 0.17663 0.30168 0.27214
 H526 H 0.14476 0.33255 0.24300
 H527 H 0.11589 0.32843 0.17708
 H528 H 0.08232 0.35539 0.14435
 H529 H 0.13263 0.42151 0.10908
 H530 H 0.16637 0.39442 0.14197
 H531 H 0.09327 0.44554 0.13695
 H532 H 0.05768 0.47079 0.10690
 H533 H 0.03529 0.39637 0.03538
 H534 H 0.07047 0.37098 0.06595
 C535 C 0.66590 0.84237 0.67604
 C536 C 0.68746 0.83792 0.65143
 C537 C 0.70570 0.82022 0.66822
 C538 C 0.70283 0.80699 0.71022
 C539 C 0.68161 0.81231 0.73549
 C540 C 0.66328 0.82967 0.71843
 C541 C 0.64563 0.85905 0.65672
 C542 C 0.62171 0.84841 0.65747
 C543 C 0.60252 0.86363 0.63855
 C544 C 0.60679 0.88997 0.61897
 C545 C 0.63066 0.90081 0.61860
 C546 C 0.64998 0.88535 0.63696
 C547 C 0.58625 0.90592 0.59906
 C548 C 0.58261 0.93427 0.61002
 C549 C 0.56224 0.94868 0.59343
 C550 C 0.54556 0.93514 0.56476
 C551 C 0.54945 0.90696 0.55322
 C552 C 0.56958 0.89247 0.57028
 H553 H 0.68983 0.84737 0.61853
 H554 H 0.72186 0.81656 0.64802
 H555 H 0.67883 0.80242 0.76793
 H556 H 0.64691 0.83300 0.73822
 H557 H 0.61793 0.82807 0.67214
 H558 H 0.58424 0.85494 0.63959
 H559 H 0.63439 0.92104 0.60353
 H560 H 0.66827 0.89401 0.63614
 H561 H 0.59507 0.94497 0.63259
 H562 H 0.55926 0.97024 0.60352
 H563 H 0.53668 0.89609 0.53146
 H564 H 0.57208 0.87067 0.56114
 C565 C 0.83177 0.15652 0.17141
 C566 C 0.81115 0.16322 0.14527
 C567 C 0.79343 0.18171 0.16162
 C568 C 0.79583 0.19377 0.20462
 C569 C 0.81609 0.18650 0.23125
 C570 C 0.83388 0.16817 0.21479
 C571 C 0.85151 0.13843 0.15293
 C572 C 0.86411 0.11949 0.18083
 C573 C 0.88369 0.10385 0.16404
 C574 C 0.89108 0.10666 0.11889
 C575 C 0.87805 0.12503 0.09070
 C576 C 0.85857 0.14077 0.10753
 C577 C 0.91281 0.09133 0.10167
 C578 C 0.92916 0.10456 0.07188
 C579 C 0.94996 0.09057 0.05654
 C580 C 0.95485 0.06309 0.07056
 C581 C 0.93873 0.04980 0.10046
 C582 C 0.91780 0.06372 0.11565
 H583 H 0.80873 0.15425 0.11204
 H584 H 0.77794 0.18675 0.14039
 H585 H 0.81854 0.19553 0.26444
 H586 H 0.84969 0.16383 0.23558
 H587 H 0.85893 0.11687 0.21579
 H588 H 0.89345 0.09010 0.18680
 H589 H 0.88301 0.12739 0.05559
 H590 H 0.84948 0.15536 0.08520
 H591 H 0.92618 0.12598 0.06119
 H592 H 0.96240 0.10128 0.03396
 H593 H 0.94242 0.02871 0.11212
 H594 H 0.90551 0.05285 0.13825
 C595 C 0.33200 0.65633 0.67559
 C596 C 0.31112 0.66247 0.64981
 C597 C 0.29335 0.68091 0.66609
 C598 C 0.29597 0.69350 0.70865
 C599 C 0.31648 0.68676 0.73499
 C600 C 0.33432 0.66845 0.71860
 C601 C 0.35178 0.63836 0.65702
 C602 C 0.36468 0.61971 0.68494
 C603 C 0.38422 0.60408 0.66794
 C604 C 0.39128 0.60667 0.62257
 C605 C 0.37800 0.62480 0.59441
 C606 C 0.35854 0.64050 0.61144
 C607 C 0.41290 0.59129 0.60502
 C608 C 0.42908 0.60443 0.57485
 C609 C 0.44976 0.59037 0.55913
 C610 C 0.45467 0.56289 0.57314
 C611 C 0.43869 0.54968 0.60340
 C612 C 0.41791 0.56369 0.61901
 H613 H 0.30855 0.65312 0.61688
 H614 H 0.27767 0.68553 0.64509
 H615 H 0.31910 0.69620 0.76784
 H616 H 0.35032 0.66451 0.73910
 H617 H 0.35975 0.61728 0.72006
 H618 H 0.39419 0.59051 0.69066
 H619 H 0.38272 0.62699 0.55915
 H620 H 0.34921 0.65488 0.58909
 H621 H 0.42607 0.62584 0.56412
 H622 H 0.46209 0.60101 0.53626
 H623 H 0.44241 0.52859 0.61504
 H624 H 0.40573 0.55289 0.64192
   
