data_POSCAR
  _audit_creation_date              2014-09-24
  _audit_creation_method            'ToBaCCo'
  _symmetry_space_group_name_H-M    'P1'
  _symmetry_Int_Tables_number       1
  _symmetry_cell_setting            triclinic
  loop_
  _symmetry_equiv_pos_as_xyz
 x,y,z
_cell_length_a 44.9686
_cell_length_b 44.8783
_cell_length_c 7.1145
_cell_angle_alpha 92.422000
_cell_angle_beta 90.096000
_cell_angle_gamma 89.978800
loop_
  _atom_site_label
  _atom_site_type_symbol
  _atom_site_fract_x
  _atom_site_fract_y
  _atom_site_fract_z
O1 O 0.21377 0.22353 0.52976
 O2 O 0.26772 0.28125 0.68680
 O3 O 0.21407 0.28150 0.54693
 O4 O 0.26736 0.22298 0.67087
 O5 O 0.28526 0.22323 0.38177
 O6 O 0.23212 0.28159 0.25813
 O7 O 0.28562 0.28107 0.39756
 O8 O 0.23184 0.22351 0.24096
 Cu9 Cu 0.23879 0.25231 0.63730
 Cu10 Cu 0.26066 0.25235 0.29113
 C11 C 0.21356 0.21389 0.35964
 C12 C 0.28592 0.29082 0.56730
 C13 C 0.21394 0.29131 0.38240
 C14 C 0.28546 0.21330 0.54592
 O15 O 0.76674 0.21743 -0.16971
 O16 O 0.71321 0.27548 -0.01279
 O17 O 0.76679 0.27572 -0.15199
 O18 O 0.71305 0.21755 -0.03061
 O19 O 0.73103 0.21716 0.25861
 O20 O 0.78463 0.27515 0.13762
 O21 O 0.73119 0.27520 0.27652
 O22 O 0.78462 0.21729 0.11989
 Cu23 Cu 0.73803 0.24655 -0.12003
 Cu24 Cu 0.75983 0.24613 0.22665
 C25 C 0.78489 0.20767 -0.05016
 C26 C 0.71302 0.28503 0.15746
 C27 C 0.78489 0.28521 -0.02614
 C28 C 0.71275 0.20771 0.13382
 O29 O 0.73222 0.78279 0.73546
 O30 O 0.78516 0.72463 0.86564
 O31 O 0.73173 0.72474 0.72518
 O32 O 0.78566 0.78250 0.87699
 O33 O 0.76760 0.78354 1.16596
 O34 O 0.71355 0.72565 1.01392
 O35 O 0.76711 0.72524 1.15456
 O36 O 0.71395 0.78359 1.02387
 Cu37 Cu 0.76065 0.75362 0.77249
 Cu38 Cu 0.73863 0.75461 1.11827
 C39 C 0.71392 0.79285 0.85789
 C40 C 0.78521 0.71514 1.03086
 C41 C 0.71338 0.71551 0.84488
 C42 C 0.78593 0.79268 1.04586
 O43 O 0.28448 0.77641 0.62420
 O44 O 0.23128 0.71822 0.74975
 O45 O 0.28473 0.71852 0.61026
 O46 O 0.23101 0.77632 0.76387
 O47 O 0.21288 0.77594 0.47479
 O48 O 0.26672 0.71799 0.32082
 O49 O 0.21312 0.71797 0.46077
 O50 O 0.26648 0.77628 0.33487
 Cu51 Cu 0.25983 0.74739 0.71548
 Cu52 Cu 0.23787 0.74702 0.36919
 C53 C 0.28463 0.78610 0.45947
 C54 C 0.21304 0.70837 0.62588
 C55 C 0.28495 0.70855 0.44095
 C56 C 0.21269 0.78580 0.64443
 C57 C 1.00197 0.07780 -0.06272
 C58 C 1.02815 0.06381 -0.00516
 C59 C 1.02807 0.03292 0.01911
 C60 C 1.00236 0.01579 -0.01863
 C61 C 0.97644 0.03030 -0.07813
 C62 C 0.97589 0.06130 -0.09661
 C63 C 1.00238 -0.01705 0.00628
 C64 C 0.97655 -0.03153 0.06675
 C65 C 0.97605 -0.06252 0.08569
 C66 C 1.00213 -0.07902 0.05175
 C67 C 1.02824 -0.06504 -0.00638
 C68 C 1.02808 -0.03418 -0.03159
 H69 H 1.00157 0.10183 -0.07258
 H70 H 1.04810 0.02235 0.06841
 H71 H 0.95655 0.01755 -0.11161
 H72 H 0.95670 -0.01876 0.10059
 H73 H 1.00178 -0.10304 0.06215
 H74 H 1.04806 -0.02363 -0.08121
 C75 C 0.50142 0.57840 0.44840
 C76 C 0.52757 0.56462 0.50812
 C77 C 0.52754 0.53383 0.53553
 C78 C 0.50190 0.51656 0.49829
 C79 C 0.47601 0.53083 0.43623
 C80 C 0.47541 0.56177 0.41477
 C81 C 0.50206 0.48379 0.52546
 C82 C 0.47628 0.46928 0.58653
 C83 C 0.47594 0.43833 0.60740
 C84 C 0.50209 0.42191 0.57416
 C85 C 0.52812 0.43590 0.51481
 C86 C 0.52783 0.46672 0.48822
 H87 H 0.50101 0.60239 0.43631
 H88 H 0.54755 0.52344 0.58651
 H89 H 0.45620 0.51794 0.40295
 H90 H 0.45634 0.48199 0.61885
 H91 H 0.50185 0.39792 0.58597
 H92 H 0.54773 0.47729 0.43760
 C93 C -0.00009 0.42084 0.02879
 C94 C -0.02613 0.43580 -0.02076
 C95 C -0.02579 0.46701 -0.02740
 C96 C 0.00015 0.48343 0.01766
 C97 C 0.02603 0.46789 0.06762
 C98 C 0.02608 0.43665 0.07270
 C99 C 0.00010 0.51667 0.01337
 C100 C 0.02578 0.53224 -0.03917
 C101 C 0.02576 0.56348 -0.04441
 C102 C -0.00038 0.57923 0.00127
 C103 C -0.02628 0.56424 0.05263
 C104 C -0.02578 0.53305 0.06031
 H105 H -0.00021 0.39674 0.03410
 H106 H -0.04573 0.47834 -0.07115
 H107 H 0.04604 0.48002 0.10735
 H108 H 0.04566 0.52011 -0.08120
 H109 H -0.00063 0.60330 -0.00473
 H110 H -0.04554 0.52168 0.10600
 C111 C 0.50034 0.92112 0.46199
 C112 C 0.47385 0.93638 0.42603
 C113 C 0.47394 0.96768 0.43177
 C114 C 0.49994 0.98389 0.47852
 C115 C 0.52611 0.96803 0.51837
 C116 C 0.52658 0.93671 0.50761
 C117 C 0.49976 1.01721 0.48514
 C118 C 0.52532 1.03329 0.43617
 C119 C 0.52522 1.06459 0.44050
 C120 C 0.49911 1.07996 0.49144
 C121 C 0.47331 1.06449 0.53934
 C122 C 0.47391 1.03320 0.53811
 H123 H 0.50030 0.89697 0.46158
 H124 H 0.45369 0.97927 0.39687
 H125 H 0.54625 0.97993 0.55762
 H126 H 0.54519 1.02158 0.38926
 H127 H 0.49880 1.10410 0.49205
 H128 H 0.45421 1.02147 0.58114
 C129 C 1.09673 0.09565 0.24083
 C130 C 1.10524 0.11763 0.11782
 C131 C 1.08904 0.12147 -0.04755
 C132 C 1.06418 0.10368 -0.08873
 C133 C 1.19178 0.19209 0.30088
 C134 C 1.07193 0.07774 0.19952
 C135 C 1.12984 0.13709 0.16447
 C136 C 1.14993 0.15393 0.20502
 C137 C 1.17282 0.17425 0.25512
 C138 C 1.05525 0.08178 0.03509
 H139 H 1.10901 0.09262 0.36977
 H140 H 1.09543 0.13842 -0.14374
 H141 H 1.05192 0.10699 -0.21742
 H142 H 1.06535 0.06123 0.29809
 C143 C 0.58866 0.62170 0.45519
 C144 C 0.60479 0.61865 0.62171
 C145 C 0.59611 0.59741 0.74945
 C146 C 0.57124 0.57943 0.71147
 C147 C 0.69161 0.69356 0.78888
 C148 C 0.56371 0.60389 0.41761
 C149 C 0.62947 0.63817 0.66434
 C150 C 0.64964 0.65511 0.70106
 C151 C 0.67261 0.67558 0.74650
 C152 C 0.55465 0.58270 0.54583
 H153 H 0.59519 0.63803 0.35518
 H154 H 0.60834 0.59502 0.87932
 H155 H 0.56455 0.56348 0.81332
 H156 H 0.55149 0.60661 0.28814
 C157 C -0.10645 0.41059 -0.00043
 C158 C -0.10529 0.38350 -0.10521
 C159 C -0.07867 0.37439 -0.19166
 C160 C -0.05310 0.39188 -0.16921
 C161 C -0.19349 0.30749 -0.06733
 C162 C -0.08091 0.42817 0.02171
 C163 C -0.13056 0.36382 -0.11007
 C164 C -0.15112 0.34664 -0.10593
 C165 C -0.17440 0.32580 -0.09056
 C166 C -0.05384 0.41871 -0.05971
 H167 H -0.12686 0.41770 0.06866
 H168 H -0.07749 0.35341 -0.27242
 H169 H -0.03262 0.38423 -0.23500
 H170 H -0.08202 0.44855 0.10858
 C171 C 0.41996 0.87582 0.25916
 C172 C 0.39418 0.88427 0.35770
 C173 C 0.39392 0.91076 0.46894
 C174 C 0.41955 0.92833 0.48549
 C175 C 0.30621 0.80829 0.41523
 C176 C 0.44564 0.89331 0.27591
 C177 C 0.36897 0.86449 0.35846
 C178 C 0.34846 0.84729 0.36743
 C179 C 0.32525 0.82652 0.38818
 C180 C 0.44585 0.91949 0.39188
 H181 H 0.42048 0.85528 0.17352
 H182 H 0.37421 0.91736 0.54761
 H183 H 0.41917 0.94816 0.57773
 H184 H 0.46549 0.88613 0.20083
 C185 C -0.07896 0.62602 0.21589
 C186 C -0.10563 0.61653 0.13130
 C187 C -0.10681 0.58899 0.03141
 C188 C -0.08123 0.57138 0.01193
 C189 C -0.19339 0.69283 0.07637
 C190 C -0.05335 0.60850 0.19627
 C191 C -0.13087 0.63628 0.13192
 C192 C -0.15135 0.65354 0.12388
 C193 C -0.17447 0.67446 0.10367
 C194 C -0.05408 0.58125 0.09104
 H195 H -0.07773 0.64737 0.29246
 H196 H -0.12725 0.58156 -0.03647
 H197 H -0.08237 0.55068 -0.07171
 H198 H -0.03284 0.61649 0.26038
 C199 C 0.42041 1.12499 0.71883
 C200 C 0.39386 1.11605 0.63044
 C201 C 0.39279 1.08919 0.52323
 C202 C 0.41842 1.07177 0.49971
 C203 C 0.30584 1.19221 0.58661
 C204 C 0.44607 1.10765 0.69508
 C205 C 0.36860 1.13577 0.63479
 C206 C 0.34806 1.15299 0.62956
 C207 C 0.32484 1.17386 0.61217
 C208 C 0.44547 1.08114 0.58230
 H209 H 0.42151 1.14580 0.80156
 H210 H 0.37242 1.08221 0.45273
 H211 H 0.41740 1.05166 0.41022
 H212 H 0.46654 1.11524 0.76179
 C213 C 1.09685 -0.09709 -0.24988
 C214 C 1.10546 -0.11884 -0.12517
 C215 C 1.08929 -0.12245 0.04020
 C216 C 1.06440 -0.10467 0.07992
 C217 C 1.19209 -0.19351 -0.30136
 C218 C 1.07201 -0.07917 -0.20996
 C219 C 1.13012 -0.13829 -0.16997
 C220 C 1.15025 -0.15516 -0.20879
 C221 C 1.17315 -0.17556 -0.25698
 C222 C 1.05538 -0.08299 -0.04542
 H223 H 1.10908 -0.09426 -0.37901
 H224 H 1.09576 -0.13922 0.13753
 H225 H 1.05218 -0.10782 0.20873
 H226 H 1.06535 -0.06284 -0.30959
 C227 C 0.58922 0.37854 0.56105
 C228 C 0.60524 0.38203 0.39499
 C229 C 0.59658 0.40375 0.27025
 C230 C 0.57178 0.42171 0.31054
 C231 C 0.69140 0.30699 0.21574
 C232 C 0.56438 0.39637 0.60117
 C233 C 0.62976 0.36246 0.34923
 C234 C 0.64977 0.34549 0.30956
 C235 C 0.67255 0.32499 0.26064
 C236 C 0.55527 0.41798 0.47565
 H237 H 0.59573 0.36179 0.65852
 H238 H 0.60871 0.40650 0.14068
 H239 H 0.56506 0.43797 0.21057
 H240 H 0.55224 0.39328 0.73032
 C241 C 0.89564 -0.08714 0.05359
 C242 C 0.89560 -0.11152 0.16988
 C243 C 0.92131 -0.11855 0.26998
 C244 C 0.94728 -0.10188 0.24891
 C245 C 0.80665 -0.18656 0.09694
 C246 C 0.92154 -0.07045 0.03242
 C247 C 0.87023 -0.13103 0.16988
 C248 C 0.84948 -0.14800 0.15843
 C249 C 0.82595 -0.16852 0.13157
 C250 C 0.94781 -0.07801 0.12691
 H251 H 0.87597 -0.08171 -0.02622
 H252 H 0.92157 -0.13749 0.35955
 H253 H 0.96712 -0.10802 0.32467
 H254 H 0.92138 -0.05250 -0.06469
 C255 C 0.39578 0.41294 0.57557
 C256 C 0.39594 0.38872 0.69318
 C257 C 0.42167 0.38211 0.79432
 C258 C 0.44747 0.39904 0.77295
 C259 C 0.30766 0.31286 0.62255
 C260 C 0.42150 0.42988 0.55410
 C261 C 0.37078 0.36894 0.69382
 C262 C 0.35021 0.35176 0.68299
 C263 C 0.32686 0.33102 0.65681
 C264 C 0.44781 0.42272 0.64953
 H265 H 0.37609 0.41804 0.49504
 H266 H 0.42209 0.36331 0.88496
 H267 H 0.46733 0.39321 0.84946
 H268 H 0.42121 0.44769 0.45597
 C269 C 0.07597 0.62047 -0.26124
 C270 C 0.10355 0.61358 -0.18279
 C271 C 0.10601 0.58945 -0.06518
 C272 C 0.08083 0.57263 -0.02337
 C273 C 0.19140 0.68644 -0.32662
 C274 C 0.05082 0.60376 -0.21947
 C275 C 0.12890 0.63209 -0.21876
 C276 C 0.14936 0.64849 -0.25034
 C277 C 0.17244 0.66860 -0.28993
 C278 C 0.05289 0.57990 -0.09819
 H279 H 0.07382 0.63903 -0.35292
 H280 H 0.12725 0.58394 -0.00350
 H281 H 0.08302 0.55452 0.07155
 H282 H 0.02970 0.60959 -0.28139
 C283 C 0.60542 1.09065 0.42653
 C284 C 0.60307 1.11529 0.31311
 C285 C 0.57551 1.12268 0.23612
 C286 C 0.55028 1.10588 0.27481
 C287 C 0.69196 1.18722 0.17713
 C288 C 0.58019 1.07372 0.46499
 C289 C 0.62858 1.13364 0.27924
 C290 C 0.64929 1.14982 0.24957
 C291 C 0.67271 1.16962 0.21222
 C292 C 0.55230 1.08139 0.39120
 H293 H 0.62663 1.08477 0.48715
 H294 H 0.57346 1.14165 0.14762
 H295 H 0.52918 1.11202 0.21387
 H296 H 0.58230 1.05511 0.55618
 C297 C 0.10624 0.41026 0.08078
 C298 C 0.10429 0.38648 0.20142
 C299 C 0.07711 0.37998 0.28599
 C300 C 0.05182 0.39672 0.24723
 C301 C 0.19233 0.31334 0.33621
 C302 C 0.08093 0.42715 0.04229
 C303 C 0.12972 0.36793 0.23461
 C304 C 0.15024 0.35147 0.26400
 C305 C 0.17336 0.33127 0.30118
 C306 C 0.05339 0.42026 0.12327
 H307 H 0.12717 0.41546 0.01451
 H308 H 0.07539 0.36172 0.38031
 H309 H 0.03098 0.39121 0.31363
 H310 H 0.08268 0.44503 -0.05468
 C311 C 0.58772 0.87859 0.47227
 C312 C 0.60516 0.88651 0.62957
 C313 C 0.59750 0.91150 0.74393
 C314 C 0.57225 0.92825 0.70249
 C315 C 0.69220 0.81454 0.80705
 C316 C 0.56245 0.89523 0.43095
 C317 C 0.63006 0.86810 0.67752
 C318 C 0.65029 0.85191 0.71773
 C319 C 0.67326 0.83211 0.76541
 C320 C 0.55427 0.92006 0.54673
 H321 H 0.59343 0.85930 0.38294
 H322 H 0.61075 0.91773 0.86674
 H323 H 0.56632 0.94710 0.79492
 H324 H 0.54925 0.88867 0.30865
 C325 C 0.89558 0.08615 -0.06211
 C326 C 0.89539 0.11040 -0.17950
 C327 C 0.92097 0.11726 -0.28096
 C328 C 0.94694 0.10054 -0.26032
 C329 C 0.80663 0.18567 -0.10596
 C330 C 0.92148 0.06941 -0.04139
 C331 C 0.87005 0.12998 -0.17935
 C332 C 0.84935 0.14701 -0.16790
 C333 C 0.82587 0.16760 -0.14094
 C334 C 0.94761 0.07680 -0.13736
 H335 H 0.87604 0.08088 0.01896
 H336 H 0.92112 0.13611 -0.37113
 H337 H 0.96668 0.10655 -0.33705
 H338 H 0.92147 0.05157 0.05660
 C339 C 0.39497 0.58650 0.43998
 C340 C 0.39509 0.61066 0.32193
 C341 C 0.42090 0.61742 0.22264
 C342 C 0.44681 0.60073 0.24641
 C343 C 0.30667 0.68643 0.38691
 C344 C 0.42081 0.56979 0.46393
 C345 C 0.36983 0.63031 0.31950
 C346 C 0.34922 0.64746 0.32893
 C347 C 0.32584 0.66822 0.35370
 C348 C 0.44719 0.57713 0.37044
 H349 H 0.37521 0.58127 0.51907
 H350 H 0.42129 0.63619 0.13173
 H351 H 0.46673 0.60669 0.17131
 H352 H 0.42055 0.55204 0.56246
   
