data_POSCAR
  _audit_creation_date              2014-09-24
  _audit_creation_method            'ToBaCCo'
  _symmetry_space_group_name_H-M    'P1'
  _symmetry_Int_Tables_number       1
  _symmetry_cell_setting            triclinic
  loop_
  _symmetry_equiv_pos_as_xyz
 x,y,z
_cell_length_a 11.4448
_cell_length_b 12.2006
_cell_length_c 28.5147
_cell_angle_alpha 87.047300
_cell_angle_beta 100.263200
_cell_angle_gamma 122.421700
loop_
  _atom_site_label
  _atom_site_type_symbol
  _atom_site_fract_x
  _atom_site_fract_y
  _atom_site_fract_z
Si1 Si 0.17248 0.09983 0.52891
 Si2 Si 1.01016 0.01065 0.16519
 Si3 Si -0.20563 0.87846 0.80660
 O4 O 0.51214 -0.07005 0.04557
 O5 O 0.23591 -0.11431 -0.05754
 O6 O 0.43137 -0.17497 -0.04302
 O7 O 0.27415 -0.08657 0.03438
 O8 O 0.39631 0.11823 0.01497
 O9 O 0.57496 0.02951 -0.05853
 O10 O 0.38297 0.08742 -0.07509
 O11 O 0.63836 0.13636 0.02925
 Cu12 Cu 0.35258 -0.13067 -0.00422
 Cu13 Cu 0.51273 0.11246 -0.02374
 C14 C 0.62054 0.04478 0.05580
 C15 C 0.26404 -0.01697 -0.08332
 C16 C 0.52837 -0.09144 -0.06407
 C17 C 0.30384 0.02878 0.03713
 O18 O -0.03686 0.59741 0.60960
 O19 O -0.21125 0.28262 0.66674
 O20 O -0.21867 0.49285 0.66783
 O21 O -0.04200 0.37865 0.60603
 O22 O 0.13809 0.46257 0.66607
 O23 O -0.03732 0.57622 0.72738
 O24 O -0.03063 0.36473 0.72654
 O25 O 0.14278 0.67686 0.66973
 Cu26 Cu -0.14512 0.43047 0.63138
 Cu27 Cu 0.07063 0.52823 0.70355
 C28 C 0.08262 0.69091 0.63013
 C29 C -0.14821 0.26975 0.70602
 C30 C -0.15725 0.55488 0.70805
 C31 C 0.07683 0.39884 0.62615
 O32 O 0.63407 0.65447 0.28815
 O33 O 0.47167 0.46665 0.39085
 O34 O 0.64781 0.71781 0.37791
 O35 O 0.41285 0.43276 0.29880
 O36 O 0.55997 0.36538 0.31498
 O37 O 0.80947 0.66806 0.39133
 O38 O 0.63570 0.41989 0.40486
 O39 O 0.77814 0.58396 0.30142
 Cu40 Cu 0.52920 0.57535 0.33819
 Cu41 Cu 0.71407 0.50705 0.35496
 C42 C 0.73058 0.64427 0.27628
 C43 C 0.52627 0.40797 0.41447
 C44 C 0.76741 0.74318 0.39834
 C45 C 0.44281 0.34892 0.29383
 N46 N 0.27235 0.37678 0.62116
 N47 N 0.30053 0.30428 0.59840
 C48 C 0.18347 0.22406 0.56685
 C49 C 0.08213 0.25056 0.57056
 N50 N 0.14220 0.34652 0.60493
 H51 H -0.02577 0.20163 0.55173
 N52 N 0.85562 0.66366 0.21292
 N53 N 0.92517 0.74994 0.18236
 C54 C 0.90075 0.84559 0.18472
 C55 C 0.81496 0.81578 0.21792
 N56 N 0.78888 0.70159 0.23461
 H57 H 0.78889 0.87860 0.23252
 N58 N 0.19350 0.07381 -0.15139
 N59 N 0.07844 0.05610 -0.17910
 C60 C -0.03070 -0.05126 -0.16506
 C61 C 0.02098 -0.10128 -0.12847
 N62 N 0.16152 -0.01995 -0.12103
 H63 H -0.03748 -0.18669 -0.10889
 N64 N 0.27909 0.91296 0.62601
 N65 N 0.30843 1.01815 0.60199
 C66 C 0.19317 0.98510 0.56889
 C67 C 0.09216 0.85619 0.57330
 N68 N 0.14989 0.81484 0.60929
 H69 H -0.01463 0.79944 0.55373
 N70 N 0.34632 0.12838 0.26307
 N71 N 0.23703 0.03961 0.23252
 C72 C 0.16038 0.09116 0.21453
 C73 C 0.22641 0.21485 0.23454
 N74 N 0.34202 0.23439 0.26445
 H75 H 0.19649 0.28534 0.22686
 N76 N 0.53407 -0.26121 -0.10241
 N77 N 0.59520 -0.27638 -0.13464
 C78 C 0.68550 -0.15651 -0.14781
 C79 C 0.67841 -0.06692 -0.12266
 N80 N 0.58218 -0.13654 -0.09480
 H81 H 0.73449 0.03762 -0.12548
 N82 N 0.21830 0.15917 0.06008
 N83 N 0.13864 0.15431 0.08957
 C84 C 0.09591 0.04351 0.11293
 C85 C 0.15417 -0.01841 0.09757
 N86 N 0.22937 0.05667 0.06466
 H87 H 0.14727 -0.10657 0.11031
 N88 N 0.80828 0.93020 0.44191
 N89 N 0.90397 1.02190 0.47474
 C90 C 1.01201 1.00419 0.48437
 C91 C 0.98032 0.89946 0.45639
 N92 N 0.85216 0.85591 0.43046
 H93 H 1.04266 0.85728 0.45585
 N94 N -0.33295 0.04163 0.71024
 N95 N -0.35159 -0.06072 0.73442
 C96 C -0.23264 -0.01999 0.76666
 C97 C -0.14129 0.11095 0.76205
 N98 N -0.20750 0.14552 0.72653
 H99 H -0.03634 0.17540 0.78188
 N100 N 0.82640 0.19181 0.11392
 N101 N 0.92705 0.19027 0.14465
 C102 C 0.88798 0.06500 0.14757
 C103 C 0.76114 -0.00988 0.11714
 N104 N 0.72632 0.07249 0.09687
 H105 H 0.70956 -0.11145 0.10604
 N106 N 0.51693 0.25927 0.47526
 N107 N 0.43219 0.17787 0.50371
 C108 C 0.32017 0.18958 0.49688
 C109 C 0.33868 0.28147 0.46361
 N110 N 0.46314 0.32257 0.45107
 H111 H 0.26783 0.31328 0.44946
 N112 N -0.35126 0.57828 0.71795
 N113 N -0.37141 0.65466 0.74241
 C114 C -0.24891 0.73334 0.77212
 C115 C -0.15347 0.70277 0.76512
 N116 N -0.22080 0.60599 0.73118
 H117 H -0.04253 0.75269 0.78050
   
