data_POSCAR
  _audit_creation_date              2014-09-24
  _audit_creation_method            'ToBaCCo'
  _symmetry_space_group_name_H-M    'P1'
  _symmetry_Int_Tables_number       1
  _symmetry_cell_setting            triclinic
  loop_
  _symmetry_equiv_pos_as_xyz
 x,y,z
_cell_length_a 52.4289
_cell_length_b 50.3978
_cell_length_c 39.0881
_cell_angle_alpha 90.149400
_cell_angle_beta 90.107300
_cell_angle_gamma 86.098700
loop_
  _atom_site_label
  _atom_site_type_symbol
  _atom_site_fract_x
  _atom_site_fract_y
  _atom_site_fract_z
C1 C 1.22832 0.23599 0.19601
 C2 C 1.24300 0.25784 0.17928
 C3 C 1.25763 0.27131 0.20145
 C4 C 1.25602 0.26169 0.23890
 C5 C 1.24921 0.21843 0.21415
 C6 C 1.26342 0.23158 0.23704
 C7 C 1.21314 0.25006 0.22486
 C8 C 1.22736 0.26325 0.24745
 H9 H 1.24272 0.26181 0.15216
 H10 H 1.26776 0.27247 0.25726
 H11 H 1.25135 0.19706 0.21077
 H12 H 1.19261 0.24932 0.22735
 C13 C 0.73315 -0.26812 0.20280
 C14 C 0.75296 -0.25464 0.18115
 C15 C 0.76828 -0.23898 0.19940
 C16 C 0.76227 -0.23799 0.23790
 C17 C 0.74882 -0.28270 0.23096
 C18 C 0.76444 -0.26727 0.24892
 C19 C 0.71850 -0.24494 0.22155
 C20 C 0.73365 -0.22921 0.23991
 H21 H 0.75449 -0.25722 0.15370
 H22 H 0.77476 -0.22527 0.25273
 H23 H 0.74814 -0.30386 0.23536
 H24 H 0.69803 -0.24107 0.22108
 C25 C 0.73645 0.22934 -0.29617
 C26 C 0.75541 0.24253 -0.31586
 C27 C 0.77061 0.25966 -0.29614
 C28 C 0.76363 0.26004 -0.25969
 C29 C 0.75060 0.21564 -0.26859
 C30 C 0.76640 0.23206 -0.24876
 C31 C 0.72135 0.25063 -0.27865
 C32 C 0.73610 0.26794 -0.25849
 H33 H 0.75647 0.24093 -0.34346
 H34 H 0.77539 0.27289 -0.24466
 H35 H 0.74727 0.19541 -0.26158
 H36 H 0.70101 0.25006 -0.27464
 C37 C 1.23074 -0.26583 -0.30688
 C38 C 1.24524 -0.24368 -0.32308
 C39 C 1.25925 -0.22994 -0.30045
 C40 C 1.25726 -0.23971 -0.26311
 C41 C 1.25169 -0.28308 -0.28836
 C42 C 1.26524 -0.26969 -0.26495
 C43 C 1.21490 -0.25220 -0.27834
 C44 C 1.22851 -0.23875 -0.25532
 H45 H 1.24525 -0.23982 -0.35026
 H46 H 1.26854 -0.22874 -0.24438
 H47 H 1.25455 -0.30436 -0.29205
 H48 H 1.19438 -0.25338 -0.27644
 C49 C 0.22812 0.23577 0.80526
 C50 C 0.24224 0.25623 0.82147
 C51 C 0.25810 0.27020 0.79861
 C52 C 0.25642 0.26083 0.76304
 C53 C 0.21317 0.25021 0.77637
 C54 C 0.22779 0.26305 0.75405
 C55 C 0.24854 0.21771 0.78703
 C56 C 0.26314 0.23054 0.76447
 H57 H 0.23886 0.26275 0.84738
 H58 H 0.26832 0.27070 0.74423
 H59 H 0.19259 0.25016 0.77378
 H60 H 0.24980 0.19627 0.78974
 C61 C 0.73404 0.73009 0.79610
 C62 C 0.75276 0.74338 0.81630
 C63 C 0.76824 0.76033 0.79695
 C64 C 0.76132 0.76103 0.76048
 C65 C 0.71894 0.75138 0.77873
 C66 C 0.73373 0.76878 0.75904
 C67 C 0.74842 0.71658 0.76845
 C68 C 0.76426 0.73319 0.74903
 H69 H 0.75620 0.73871 0.84301
 H70 H 0.77244 0.77492 0.74625
 H71 H 0.69862 0.75081 0.77442
 H72 H 0.74515 0.69637 0.76114
 C73 C 0.73408 0.23082 0.29603
 C74 C 0.75364 0.24456 0.31798
 C75 C 0.76891 0.26035 0.30000
 C76 C 0.76316 0.26111 0.26140
 C77 C 0.71937 0.25371 0.27690
 C78 C 0.73448 0.26959 0.25889
 C79 C 0.75003 0.21626 0.26808
 C80 C 0.76566 0.23176 0.25042
 H81 H 0.75504 0.24205 0.34544
 H82 H 0.77562 0.27387 0.24676
 H83 H 0.69884 0.25686 0.27607
 H84 H 0.74948 0.19509 0.26354
 C85 C 0.22906 0.73324 0.30619
 C86 C 0.24375 0.75520 0.32244
 C87 C 0.25830 0.76849 0.30024
 C88 C 0.25643 0.75864 0.26287
 C89 C 0.21365 0.74687 0.27712
 C90 C 0.22770 0.76013 0.25450
 C91 C 0.24954 0.71539 0.28743
 C92 C 0.26377 0.72852 0.26464
 H93 H 0.24248 0.75977 0.34949
 H94 H 0.26805 0.76932 0.24438
 H95 H 0.19321 0.74555 0.27428
 H96 H 0.25065 0.69394 0.28820
 O97 O 1.04568 -0.04133 0.06128
 O98 O 1.02514 -0.07105 0.02832
 C99 C 1.04142 -0.06535 0.05192
 O100 O 0.94978 0.03276 0.05913
 O101 O 0.97197 0.06235 0.02860
 C102 C 0.95448 0.05678 0.05035
 O103 O 0.95732 -0.04139 0.06235
 O104 O 0.98115 -0.07102 0.02868
 C105 C 0.96458 -0.06539 0.05272
 O106 O 1.04401 0.03251 0.05745
 O107 O 1.01743 0.06221 0.02766
 C108 C 1.03630 0.05653 0.04851
 Zr109 Zr 1.03107 -0.00439 0.04186
 O110 O 1.03230 -0.00208 0.09590
 O111 O 1.07134 -0.00576 0.03754
 Zr112 Zr 0.96719 -0.00432 0.04325
 O113 O 0.97102 -0.00301 0.09704
 O114 O 0.92716 -0.00691 0.04684
 O115 O 1.00071 -0.02835 0.04903
 O116 O 0.99767 0.01912 0.04898
 O117 O 1.04221 0.03277 -0.06049
 O118 O 1.01675 0.06231 -0.02882
 C119 C 1.03491 0.05672 -0.05071
 O120 O 0.95567 -0.04113 -0.06222
 O121 O 0.98057 -0.07094 -0.03021
 C122 C 0.96327 -0.06519 -0.05337
 O123 O 0.94856 0.03306 -0.05847
 O124 O 0.97135 0.06246 -0.02820
 C125 C 0.95343 0.05702 -0.04949
 O126 O 1.04399 -0.04106 -0.06474
 O127 O 1.02434 -0.07092 -0.03125
 C128 C 1.04006 -0.06511 -0.05535
 Zr129 Zr 1.03022 -0.00422 -0.04401
 O130 O 1.03324 -0.00357 -0.09796
 O131 O 1.07039 -0.00510 -0.03862
 Zr132 Zr 0.96612 -0.00410 -0.04326
 O133 O 0.96637 -0.00131 -0.09731
 O134 O 0.92602 -0.00695 -0.04382
 Zr135 Zr 1.00111 -0.04425 -0.00091
 Zr136 Zr 0.99593 0.03567 -0.00034
 O137 O 0.99658 0.01923 -0.04984
 O138 O 0.99960 -0.02800 -0.05064
 O139 O 1.03403 0.01946 -0.00103
 O140 O 0.96331 -0.02724 -0.00008
 O141 O 1.03683 -0.02771 -0.00134
 O142 O 0.95994 0.01940 0.00024
 H143 H 0.99721 0.03124 0.06901
 H144 H 0.94882 -0.03887 0.00017
 H145 H 0.99555 0.03154 -0.06960
 H146 H 1.05261 -0.03969 -0.00170
 H147 H 0.91919 0.00518 0.02940
 H148 H 0.91844 0.00688 -0.02820
 H149 H 0.97718 -0.01669 -0.10613
 H150 H 1.01627 0.00251 -0.10707
 H151 H 1.07742 -0.00590 -0.06214
 H152 H 1.07810 -0.00601 0.06124
 H153 H 1.01955 -0.01394 0.10471
 H154 H 0.95344 -0.00290 0.10634
 O155 O 1.04368 0.46216 0.56543
 O156 O 1.02377 0.43202 0.53236
 C157 C 1.03970 0.43804 0.55624
 O158 O 0.94752 0.53590 0.55888
 O159 O 0.97025 0.56521 0.52868
 C160 C 0.95234 0.55983 0.54989
 O161 O 0.95513 0.46184 0.56349
 O162 O 0.97981 0.43188 0.53133
 C163 C 0.96267 0.43773 0.55462
 O164 O 1.04172 0.53598 0.56053
 O165 O 1.01569 0.56524 0.52928
 C166 C 1.03415 0.55985 0.55085
 Zr167 Zr 1.02924 0.49885 0.54506
 O168 O 1.02937 0.50171 0.59908
 O169 O 1.06956 0.49767 0.54203
 Zr170 Zr 0.96537 0.49870 0.54417
 O171 O 0.96816 0.50058 0.59805
 O172 O 0.92530 0.49602 0.54638
 O173 O 0.99883 0.47484 0.55152
 O174 O 0.99565 0.52231 0.55062
 O175 O 1.04299 0.53494 0.44349
 O176 O 1.01629 0.56476 0.47296
 C177 C 1.03523 0.55899 0.45230
 O178 O 0.95606 0.46061 0.43912
 O179 O 0.98050 0.43127 0.47235
 C180 C 0.96361 0.43668 0.44860
 O181 O 0.94860 0.53483 0.44153
 O182 O 0.97081 0.56469 0.47186
 C183 C 0.95328 0.55892 0.45017
 O184 O 1.04485 0.46105 0.43999
 O185 O 1.02427 0.43145 0.47276
 C186 C 1.04060 0.43708 0.44931
 Zr187 Zr 1.03008 0.49810 0.45907
 O188 O 1.03151 0.50054 0.40506
 O189 O 1.07033 0.49686 0.46375
 Zr190 Zr 0.96611 0.49793 0.45762
 O191 O 0.96799 0.50063 0.40362
 O192 O 0.92610 0.49491 0.45490
 Zr193 Zr 1.00030 0.45839 0.50188
 Zr194 Zr 0.99487 0.53832 0.50099
 O195 O 0.99659 0.52136 0.45178
 O196 O 0.99976 0.47400 0.45184
 O197 O 1.03297 0.52219 0.50189
 O198 O 0.96246 0.47529 0.50109
 O199 O 1.03591 0.47515 0.50240
 O200 O 0.95895 0.52189 0.50053
 H201 H 0.99474 0.53465 0.57042
 H202 H 0.94799 0.46363 0.50103
 H203 H 0.99609 0.53337 0.43171
 H204 H 1.05178 0.46330 0.50280
 H205 H 0.91763 0.50802 0.52863
 H206 H 0.91811 0.50809 0.47108
 H207 H 0.97707 0.48411 0.39500
 H208 H 1.02054 0.48701 0.39584
 H209 H 1.07715 0.49645 0.44011
 H210 H 1.07589 0.49771 0.56594
 H211 H 1.01657 0.48978 0.60761
 H212 H 0.95041 0.50076 0.60676
 O213 O 0.53443 0.04514 0.56133
 O214 O 0.56287 0.01898 0.52925
 C215 C 0.55752 0.03721 0.55217
 O216 O 0.46328 -0.04475 0.56089
 O217 O 0.43457 -0.01859 0.52926
 C218 C 0.44014 -0.03696 0.55189
 O219 O 0.53445 -0.04705 0.56438
 O220 O 0.56291 -0.02655 0.53064
 C221 C 0.55756 -0.04261 0.55514
 O222 O 0.46338 0.05259 0.55773
 O223 O 0.43455 0.02913 0.52795
 C224 C 0.44021 0.04774 0.54928
 Zr225 Zr 0.49878 0.03447 0.54207
 O226 O 0.49681 0.03688 0.59606
 O227 O 0.49969 0.07613 0.53662
 Zr228 Zr 0.49881 -0.03207 0.54453
 O229 O 0.49754 -0.02763 0.59829
 O230 O 0.50130 -0.07406 0.54811
 O231 O 0.52179 -0.00030 0.55011
 O232 O 0.47625 0.00290 0.54952
 O233 O 0.46350 0.05014 0.43935
 O234 O 0.43466 0.02816 0.47085
 C235 C 0.44034 0.04575 0.44827
 O236 O 0.53451 -0.04954 0.43910
 O237 O 0.56288 -0.02717 0.47101
 C238 C 0.55758 -0.04428 0.44762
 O239 O 0.46331 -0.04688 0.44188
 O240 O 0.43458 -0.01910 0.47128
 C241 C 0.44015 -0.03847 0.44992
 O242 O 0.53465 0.04256 0.43674
 O243 O 0.56300 0.01759 0.47032
 C244 C 0.55772 0.03490 0.44637
 Zr245 Zr 0.49887 0.03263 0.45622
 O246 O 0.49650 0.03282 0.40215
 O247 O 0.49982 0.07445 0.45895
 Zr248 Zr 0.49882 -0.03401 0.45819
 O249 O 0.49597 -0.03476 0.40415
 O250 O 0.50169 -0.07611 0.45973
 Zr251 Zr 0.53718 -0.00255 0.50039
 Zr252 Zr 0.46026 0.00286 0.50014
 O253 O 0.47642 0.00080 0.45087
 O254 O 0.52179 -0.00245 0.45050
 O255 O 0.47589 0.04026 0.49891
 O256 O 0.52105 -0.03962 0.50158
 O257 O 0.52122 0.03682 0.49909
 O258 O 0.47596 -0.03679 0.50144
 H259 H 0.46465 0.00419 0.56954
 H260 H 0.53246 -0.05611 0.50205
 H261 H 0.46498 0.00135 0.43064
 H262 H 0.53260 0.05174 0.49866
 H263 H 0.48922 -0.08070 0.53118
 H264 H 0.48708 -0.08180 0.47320
 H265 H 0.51027 -0.02517 0.39489
 H266 H 0.51007 0.01994 0.39351
 H267 H 0.50029 0.08079 0.43499
 H268 H 0.50011 0.08349 0.56014
 H269 H 0.50778 0.02176 0.60515
 H270 H 0.49760 -0.04586 0.60778
 O271 O 0.53502 0.54217 0.06126
 O272 O 0.56339 0.51697 0.02794
 C273 C 0.55808 0.53449 0.05173
 O274 O 0.46398 0.45256 0.05770
 O275 O 0.43515 0.47991 0.02787
 C276 C 0.44080 0.46085 0.04954
 O277 O 0.53516 0.45025 0.06070
 O278 O 0.56347 0.47147 0.02753
 C279 C 0.55822 0.45499 0.05159
 O280 O 0.46397 0.54985 0.05800
 O281 O 0.43509 0.52717 0.02722
 C282 C 0.44079 0.54524 0.04931
 Zr283 Zr 0.49933 0.53213 0.04149
 O284 O 0.49750 0.53343 0.09554
 O285 O 0.50023 0.57388 0.03750
 Zr286 Zr 0.49942 0.46550 0.04142
 O287 O 0.49833 0.46849 0.09535
 O288 O 0.50200 0.42343 0.04306
 O289 O 0.52236 0.49719 0.04816
 O290 O 0.47689 0.50036 0.04778
 O291 O 0.46372 0.55002 -0.06042
 O292 O 0.43496 0.52721 -0.02987
 C293 C 0.44058 0.54533 -0.05177
 O294 O 0.53491 0.45031 -0.06442
 O295 O 0.56334 0.47209 -0.03186
 C296 C 0.55801 0.45532 -0.05566
 O297 O 0.46368 0.45294 -0.06153
 O298 O 0.43502 0.48005 -0.03106
 C299 C 0.44054 0.46115 -0.05308
 O300 O 0.53482 0.54278 -0.06350
 O301 O 0.56333 0.51705 -0.03106
 C302 C 0.55793 0.53499 -0.05424
 Zr303 Zr 0.49917 0.53228 -0.04427
 O304 O 0.49671 0.53386 -0.09830
 O305 O 0.50002 0.57403 -0.03980
 Zr306 Zr 0.49921 0.46559 -0.04495
 O307 O 0.49626 0.46644 -0.09899
 O308 O 0.50207 0.42348 -0.04545
 Zr309 Zr 0.53764 0.49612 -0.00164
 Zr310 Zr 0.46070 0.50139 -0.00152
 O311 O 0.47676 0.50053 -0.05086
 O312 O 0.52213 0.49736 -0.05146
 O313 O 0.47628 0.53886 -0.00133
 O314 O 0.52154 0.45901 -0.00183
 O315 O 0.52167 0.53550 -0.00137
 O316 O 0.47643 0.46175 -0.00176
 H317 H 0.46545 0.50127 0.06796
 H318 H 0.53294 0.44250 -0.00194
 H319 H 0.46527 0.50150 -0.07104
 H320 H 0.53304 0.55042 -0.00121
 H321 H 0.48930 0.41724 0.02666
 H322 H 0.48794 0.41743 -0.03137
 H323 H 0.51097 0.47561 -0.10785
 H324 H 0.50998 0.52088 -0.10745
 H325 H 0.50035 0.58097 -0.06349
 H326 H 0.50080 0.58072 0.06127
 H327 H 0.50804 0.51779 0.10405
 H328 H 0.49856 0.45002 0.10404
 C329 C 1.18306 0.21613 0.12396
 C330 C 1.17283 0.19393 0.13868
 C331 C 1.18159 0.18478 0.17054
 C332 C 1.20014 0.19796 0.18801
 C333 C 1.21066 0.22044 0.17378
 C334 C 1.20177 0.22942 0.14142
 C335 C 1.15265 0.18078 0.12224
 C336 C 1.13572 0.16860 0.11046
 C337 C 1.11631 0.15284 0.09877
 C338 C 1.10043 0.13797 0.09026
 C339 C 1.08273 0.11849 0.08155
 C340 C 1.08679 0.09284 0.09486
 C341 C 1.07099 0.07298 0.08516
 C342 C 1.05081 0.07849 0.06191
 C343 C 1.04623 0.10464 0.04964
 C344 C 1.06222 0.12452 0.05930
 H345 H 1.17615 0.22353 0.09940
 H346 H 1.17361 0.16775 0.18233
 H347 H 1.20574 0.19104 0.21331
 H348 H 1.20829 0.24716 0.12989
 H349 H 1.10256 0.08801 0.11221
 H350 H 1.07505 0.05315 0.09524
 H351 H 1.03078 0.10956 0.03188
 H352 H 1.05889 0.14437 0.04894
 C353 C 1.18288 0.71814 0.62284
 C354 C 1.17481 0.69393 0.63464
 C355 C 1.18619 0.68201 0.66357
 C356 C 1.20514 0.69447 0.68123
 C357 C 1.21356 0.71892 0.66988
 C358 C 1.20199 0.73068 0.64046
 C359 C 1.15372 0.68179 0.61898
 C360 C 1.13603 0.67034 0.60801
 C361 C 1.11579 0.65530 0.59742
 C362 C 1.09926 0.64090 0.58993
 C363 C 1.08091 0.62183 0.58241
 C364 C 1.08392 0.59675 0.59764
 C365 C 1.06786 0.57697 0.58857
 C366 C 1.04847 0.58201 0.56406
 C367 C 1.04477 0.60770 0.55005
 C368 C 1.06105 0.62749 0.55904
 H369 H 1.17381 0.72775 0.60078
 H370 H 1.17974 0.66349 0.67327
 H371 H 1.21234 0.68547 0.70474
 H372 H 1.20665 0.75011 0.63182
 H373 H 1.09921 0.59223 0.61584
 H374 H 1.07119 0.55750 0.60000
 H375 H 1.02992 0.61226 0.53130
 H376 H 1.05854 0.64690 0.54717
 C377 C 0.72086 0.16793 0.65471
 C378 C 0.69511 0.17359 0.64667
 C379 C 0.68343 0.19865 0.65428
 C380 C 0.69697 0.21753 0.67161
 C381 C 0.72242 0.21137 0.68269
 C382 C 0.73449 0.18673 0.67198
 C383 C 0.68022 0.15328 0.63239
 C384 C 0.66710 0.13637 0.62164
 C385 C 0.65086 0.11694 0.61020
 C386 C 0.63614 0.10095 0.60114
 C387 C 0.61741 0.08288 0.59093
 C388 C 0.62274 0.06405 0.56506
 C389 C 0.60358 0.04816 0.55346
 C390 C 0.57881 0.05111 0.56746
 C391 C 0.57399 0.06944 0.59428
 C392 C 0.59315 0.08517 0.60588
 H393 H 0.73026 0.14874 0.64838
 H394 H 0.66363 0.20347 0.64738
 H395 H 0.68717 0.23674 0.67627
 H396 H 0.75438 0.18160 0.67811
 H397 H 0.64146 0.06212 0.55328
 H398 H 0.60792 0.03430 0.53274
 H399 H 0.55520 0.07220 0.60572
 H400 H 0.58882 0.09966 0.62594
 C401 C 0.67806 0.69363 0.16584
 C402 C 0.69173 0.67250 0.14943
 C403 C 0.71841 0.67163 0.14848
 C404 C 0.73137 0.69150 0.16469
 C405 C 0.71791 0.71254 0.18230
 C406 C 0.69094 0.71348 0.18215
 C407 C 0.67820 0.65116 0.13523
 C408 C 0.66600 0.63355 0.12438
 C409 C 0.65058 0.61354 0.11270
 C410 C 0.63632 0.59722 0.10334
 C411 C 0.61789 0.57900 0.09270
 C412 C 0.59379 0.58049 0.10810
 C413 C 0.57467 0.56504 0.09576
 C414 C 0.57940 0.54783 0.06774
 C415 C 0.60406 0.54556 0.05337
 C416 C 0.62317 0.56118 0.06570
 H417 H 0.65737 0.69443 0.16674
 H418 H 0.72921 0.65532 0.13591
 H419 H 0.75208 0.69004 0.16442
 H420 H 0.67940 0.72884 0.19515
 H421 H 0.58951 0.59423 0.12900
 H422 H 0.55596 0.56722 0.10753
 H423 H 0.60831 0.53253 0.03176
 H424 H 0.64177 0.55992 0.05355
 C425 C 0.81630 -0.18771 0.18302
 C426 C 0.83090 -0.19973 0.15657
 C427 C 0.82474 -0.22440 0.14360
 C428 C 0.80414 -0.23708 0.15720
 C429 C 0.78948 -0.22520 0.18397
 C430 C 0.79573 -0.20035 0.19666
 C431 C 0.85198 -0.18647 0.14265
 C432 C 0.86926 -0.17455 0.13141
 C433 C 0.88882 -0.15943 0.11874
 C434 C 0.90470 -0.14528 0.10834
 C435 C 0.92236 -0.12672 0.09648
 C436 C 0.93772 -0.13237 0.06774
 C437 C 0.95261 -0.11284 0.05432
 C438 C 0.95201 -0.08739 0.06934
 C439 C 0.93729 -0.08237 0.09902
 C440 C 0.92261 -0.10190 0.11243
 H441 H 0.82081 -0.16852 0.19308
 H442 H 0.83591 -0.23387 0.12311
 H443 H 0.80002 -0.25639 0.14724
 H444 H 0.78457 -0.19052 0.21687
 H445 H 0.93759 -0.15152 0.05512
 H446 H 0.96371 -0.11729 0.03145
 H447 H 0.93652 -0.06307 0.11136
 H448 H 0.91077 -0.09731 0.13466
 C449 C 0.82194 0.27930 0.64419
 C450 C 0.83088 0.30125 0.66119
 C451 C 0.81962 0.30979 0.69200
 C452 C 0.79965 0.29637 0.70602
 C453 C 0.79047 0.27390 0.68947
 C454 C 0.80194 0.26581 0.65805
 C455 C 0.85125 0.31543 0.64679
 C456 C 0.86799 0.32795 0.63511
 C457 C 0.88702 0.34358 0.62188
 C458 C 0.90256 0.35801 0.61103
 C459 C 0.91994 0.37674 0.59871
 C460 C 0.91952 0.40197 0.61372
 C461 C 0.93428 0.42139 0.60017
 C462 C 0.94978 0.41592 0.57129
 C463 C 0.95094 0.39014 0.55716
 C464 C 0.93598 0.37069 0.57072
 H465 H 0.83052 0.27249 0.62026
 H466 H 0.82612 0.32707 0.70512
 H467 H 0.79101 0.30461 0.72911
 H468 H 0.79633 0.24843 0.64446
 H469 H 0.90720 0.40689 0.63538
 H470 H 0.93303 0.44095 0.61186
 H471 H 0.96264 0.38531 0.53492
 H472 H 0.93641 0.35122 0.55884
 C473 C 0.30191 -0.18977 0.64437
 C474 C 0.30473 -0.16733 0.66476
 C475 C 0.29351 -0.16576 0.69729
 C476 C 0.27914 -0.18637 0.70904
 C477 C 0.27568 -0.20869 0.68829
 C478 C 0.28759 -0.21028 0.65600
 C479 C 0.31941 -0.14629 0.65201
 C480 C 0.33217 -0.12945 0.64028
 C481 C 0.34790 -0.11072 0.62584
 C482 C 0.36228 -0.09570 0.61344
 C483 C 0.38088 -0.07910 0.59909
 C484 C 0.37502 -0.06269 0.57083
 C485 C 0.39404 -0.04826 0.55580
 C486 C 0.41917 -0.05033 0.56875
 C487 C 0.42459 -0.06643 0.59761
 C488 C 0.40563 -0.08064 0.61258
 H489 H 0.31075 -0.19140 0.61935
 H490 H 0.29571 -0.14856 0.71343
 H491 H 0.27031 -0.18451 0.73397
 H492 H 0.28600 -0.22747 0.63968
 H493 H 0.35593 -0.06143 0.56005
 H494 H 0.38926 -0.03609 0.53361
 H495 H 0.44364 -0.06838 0.60847
 H496 H 0.41044 -0.09328 0.63436
 C497 C 0.30056 0.31021 0.14499
 C498 C 0.30409 0.33265 0.16509
 C499 C 0.29320 0.33465 0.19781
 C500 C 0.27849 0.31447 0.21006
 C501 C 0.27436 0.29214 0.18962
 C502 C 0.28590 0.29012 0.15712
 C503 C 0.31913 0.35326 0.15183
 C504 C 0.33215 0.36972 0.13968
 C505 C 0.34815 0.38803 0.12477
 C506 C 0.36271 0.40270 0.11199
 C507 C 0.38150 0.41891 0.09723
 C508 C 0.37539 0.43621 0.06990
 C509 C 0.39445 0.45048 0.05466
 C510 C 0.41987 0.44739 0.06646
 C511 C 0.42558 0.43031 0.09432
 C512 C 0.40659 0.41626 0.10950
 H513 H 0.30912 0.30824 0.11982
 H514 H 0.29593 0.35186 0.21373
 H515 H 0.26992 0.31666 0.23512
 H516 H 0.28378 0.27291 0.14101
 H517 H 0.35603 0.43835 0.06006
 H518 H 0.38944 0.46340 0.03325
 H519 H 0.44486 0.42753 0.10430
 H520 H 0.41160 0.40293 0.13054
 C521 C 0.80904 0.18297 -0.20017
 C522 C 0.82076 0.19925 -0.17690
 C523 C 0.81409 0.22657 -0.17646
 C524 C 0.79587 0.23760 -0.19962
 C525 C 0.78400 0.22140 -0.22378
 C526 C 0.79098 0.19378 -0.22326
 C527 C 0.84002 0.18729 -0.15447
 C528 C 0.85591 0.17502 -0.13741
 C529 C 0.87397 0.15833 -0.11949
 C530 C 0.88876 0.14231 -0.10587
 C531 C 0.90545 0.12137 -0.09156
 C532 C 0.92397 0.12667 -0.06709
 C533 C 0.93985 0.10580 -0.05354
 C534 C 0.93732 0.07940 -0.06434
 C535 C 0.91870 0.07442 -0.08907
 C536 C 0.90294 0.09524 -0.10254
 H537 H 0.81423 0.16179 -0.20094
 H538 H 0.82298 0.23937 -0.15833
 H539 H 0.79105 0.25868 -0.19763
 H540 H 0.78361 0.18018 -0.24160
 H541 H 0.92606 0.14684 -0.05844
 H542 H 0.95393 0.11031 -0.03446
 H543 H 0.91619 0.05441 -0.09800
 H544 H 0.88869 0.09093 -0.12151
 C545 C 0.81061 0.72486 0.32388
 C546 C 0.82207 0.69943 0.31752
 C547 C 0.81479 0.68510 0.28889
 C548 C 0.79605 0.69594 0.26675
 C549 C 0.78413 0.72136 0.27298
 C550 C 0.79178 0.73583 0.30161
 C551 C 0.84104 0.68732 0.34016
 C552 C 0.85673 0.67519 0.35763
 C553 C 0.87462 0.65881 0.37619
 C554 C 0.88929 0.64308 0.39043
 C555 C 0.90587 0.62245 0.40552
 C556 C 0.90380 0.59622 0.39474
 C557 C 0.91940 0.57565 0.40904
 C558 C 0.93739 0.58102 0.43443
 C559 C 0.93950 0.60753 0.44502
 C560 C 0.92377 0.62815 0.43063
 H561 H 0.81611 0.73611 0.34604
 H562 H 0.82365 0.66545 0.28363
 H563 H 0.79123 0.68453 0.24444
 H564 H 0.78305 0.75540 0.30710
 H565 H 0.89001 0.59162 0.37528
 H566 H 0.91725 0.55554 0.40025
 H567 H 0.95310 0.61233 0.46460
 H568 H 0.92550 0.64842 0.43914
 C569 C 0.31061 0.17853 0.27261
 C570 C 0.31030 0.18484 0.30749
 C571 C 0.29630 0.20783 0.31894
 C572 C 0.28198 0.22392 0.29569
 C573 C 0.28142 0.21705 0.26081
 C574 C 0.29630 0.19449 0.24944
 C575 C 0.32392 0.16712 0.33118
 C576 C 0.33572 0.15149 0.34962
 C577 C 0.35042 0.13265 0.36946
 C578 C 0.36413 0.11651 0.38473
 C579 C 0.38231 0.09762 0.40064
 C580 C 0.37620 0.08312 0.42976
 C581 C 0.39476 0.06549 0.44502
 C582 C 0.41961 0.06238 0.43133
 C583 C 0.42522 0.07668 0.40169
 C584 C 0.40677 0.09407 0.38656
 H585 H 0.32150 0.16091 0.26339
 H586 H 0.29596 0.21295 0.34587
 H587 H 0.27045 0.24099 0.30523
 H588 H 0.29645 0.18887 0.22268
 H589 H 0.35727 0.08568 0.44085
 H590 H 0.38990 0.05486 0.46788
 H591 H 0.44405 0.07468 0.39024
 H592 H 0.41171 0.10503 0.36397
 C593 C 0.29637 0.70679 -0.18188
 C594 C 0.31100 0.68407 -0.19290
 C595 C 0.31236 0.67794 -0.22781
 C596 C 0.29845 0.69380 -0.25148
 C597 C 0.28294 0.71606 -0.24058
 C598 C 0.28245 0.72277 -0.20563
 C599 C 0.32418 0.66642 -0.16877
 C600 C 0.33570 0.65084 -0.15001
 C601 C 0.35021 0.63207 -0.12988
 C602 C 0.36393 0.61602 -0.11448
 C603 C 0.38228 0.59733 -0.09859
 C604 C 0.37596 0.58165 -0.07064
 C605 C 0.39466 0.56406 -0.05558
 C606 C 0.41982 0.56218 -0.06833
 C607 C 0.42565 0.57774 -0.09678
 C608 C 0.40708 0.59508 -0.11168
 H609 H 0.29522 0.71176 -0.15493
 H610 H 0.32375 0.66054 -0.23668
 H611 H 0.29938 0.68832 -0.27828
 H612 H 0.27040 0.73960 -0.19647
 H613 H 0.35674 0.58318 -0.06034
 H614 H 0.38960 0.55241 -0.03369
 H615 H 0.44472 0.57672 -0.10752
 H616 H 0.41218 0.60697 -0.13338
 C617 C 1.20529 -0.18618 -0.19146
 C618 C 1.18575 -0.19903 -0.17523
 C619 C 1.18242 -0.22575 -0.18242
 C620 C 1.19753 -0.23914 -0.20714
 C621 C 1.21612 -0.22594 -0.22508
 C622 C 1.22057 -0.19967 -0.21617
 C623 C 1.16703 -0.18417 -0.15473
 C624 C 1.15030 -0.17164 -0.13943
 C625 C 1.13004 -0.15647 -0.12357
 C626 C 1.11264 -0.14265 -0.11160
 C627 C 1.09231 -0.12468 -0.09900
 C628 C 1.08745 -0.10025 -0.11539
 C629 C 1.06938 -0.08146 -0.10213
 C630 C 1.05582 -0.08681 -0.07217
 C631 C 1.05987 -0.11195 -0.05674
 C632 C 1.07816 -0.13076 -0.07003
 H633 H 1.20790 -0.16542 -0.18624
 H634 H 1.16734 -0.23587 -0.17011
 H635 H 1.19400 -0.25955 -0.21326
 H636 H 1.23467 -0.18909 -0.22974
 H637 H 1.09819 -0.09540 -0.13793
 H638 H 1.06663 -0.06238 -0.11478
 H639 H 1.04975 -0.11662 -0.03366
 H640 H 1.08173 -0.14969 -0.05723
 C641 C 1.20528 0.31604 0.31165
 C642 C 1.18608 0.30321 0.32867
 C643 C 1.18273 0.27644 0.32186
 C644 C 1.19742 0.26297 0.29677
 C645 C 1.21563 0.27615 0.27808
 C646 C 1.22016 0.30248 0.28657
 C647 C 1.16764 0.31809 0.34961
 C648 C 1.15108 0.33057 0.36531
 C649 C 1.13094 0.34566 0.38161
 C650 C 1.11360 0.35944 0.39385
 C651 C 1.09330 0.37744 0.40652
 C652 C 1.08836 0.40177 0.38993
 C653 C 1.07021 0.42055 0.40300
 C654 C 1.05662 0.41532 0.43297
 C655 C 1.06077 0.39030 0.44867
 C656 C 1.07916 0.37147 0.43557
 H657 H 1.20790 0.33685 0.31656
 H658 H 1.16791 0.26632 0.33475
 H659 H 1.19382 0.24253 0.29093
 H660 H 1.23397 0.31303 0.27239
 H661 H 1.09905 0.40653 0.36731
 H662 H 1.06736 0.43952 0.39010
 H663 H 1.05062 0.38573 0.47176
 H664 H 1.08277 0.35261 0.44852
 C665 C 0.69022 -0.17008 0.26795
 C666 C 0.69954 -0.16534 0.30080
 C667 C 0.72118 -0.18029 0.31285
 C668 C 0.73296 -0.20046 0.29249
 C669 C 0.72304 -0.20606 0.26003
 C670 C 0.70188 -0.19025 0.24768
 C671 C 0.68545 -0.14670 0.32279
 C672 C 0.67226 -0.13181 0.34056
 C673 C 0.65528 -0.11527 0.36048
 C674 C 0.63954 -0.10194 0.37659
 C675 C 0.61934 -0.08706 0.39460
 C676 C 0.62469 -0.06900 0.42051
 C677 C 0.60465 -0.05496 0.43786
 C678 C 0.57903 -0.05889 0.42947
 C679 C 0.57398 -0.07708 0.40333
 C680 C 0.59397 -0.09100 0.38610
 H681 H 0.67347 -0.15865 0.25835
 H682 H 0.72848 -0.17691 0.33833
 H683 H 0.74908 -0.21238 0.30276
 H684 H 0.69409 -0.19374 0.22252
 H685 H 0.64429 -0.06582 0.42732
 H686 H 0.60922 -0.04113 0.45784
 H687 H 0.55455 -0.08061 0.39611
 H688 H 0.58961 -0.10494 0.36611
 C689 C 0.68700 0.31903 -0.22575
 C690 C 0.69940 0.32926 -0.19753
 C691 C 0.72455 0.32002 -0.19005
 C692 C 0.73707 0.30022 -0.21041
 C693 C 0.72447 0.28903 -0.23849
 C694 C 0.69930 0.29927 -0.24600
 C695 C 0.68555 0.34843 -0.17589
 C696 C 0.67245 0.36388 -0.15870
 C697 C 0.65551 0.38121 -0.13967
 C698 C 0.63981 0.39528 -0.12440
 C699 C 0.61969 0.41112 -0.10736
 C700 C 0.62503 0.42834 -0.08049
 C701 C 0.60504 0.44303 -0.06379
 C702 C 0.57946 0.44057 -0.07375
 C703 C 0.57442 0.42335 -0.10099
 C704 C 0.59436 0.40879 -0.11759
 H705 H 0.66760 0.32620 -0.23203
 H706 H 0.73433 0.32773 -0.16811
 H707 H 0.75607 0.29310 -0.20271
 H708 H 0.68896 0.29254 -0.26798
 H709 H 0.64456 0.43029 -0.07231
 H710 H 0.60960 0.45605 -0.04290
 H711 H 0.55503 0.42097 -0.10945
 H712 H 0.58999 0.39553 -0.13834
 C713 C 1.18655 0.21122 -0.12104
 C714 C 1.17284 0.19263 -0.13867
 C715 C 1.17825 0.18705 -0.17296
 C716 C 1.19674 0.20051 -0.18995
 C717 C 1.21026 0.21998 -0.17310
 C718 C 1.20521 0.22480 -0.13802
 C719 C 1.15280 0.17931 -0.12239
 C720 C 1.13579 0.16720 -0.11089
 C721 C 1.11610 0.15172 -0.09969
 C722 C 1.09985 0.13719 -0.09166
 C723 C 1.08161 0.11820 -0.08349
 C724 C 1.08410 0.09311 -0.09890
 C725 C 1.06803 0.07350 -0.08941
 C726 C 1.04917 0.07872 -0.06428
 C727 C 1.04601 0.10442 -0.05002
 C728 C 1.06227 0.12404 -0.05947
 H729 H 1.18257 0.21549 -0.09433
 H730 H 1.16782 0.17259 -0.18683
 H731 H 1.20005 0.19624 -0.21682
 H732 H 1.21501 0.23916 -0.12343
 H733 H 1.09896 0.08846 -0.11764
 H734 H 1.07095 0.05400 -0.10104
 H735 H 1.03160 0.10910 -0.03075
 H736 H 1.06016 0.14347 -0.04747
 C737 C 1.17179 0.72325 0.36374
 C738 C 1.17459 0.69599 0.37043
 C739 C 1.19669 0.68116 0.35984
 C740 C 1.21526 0.69313 0.34080
 C741 C 1.21174 0.72016 0.33152
 C742 C 1.19037 0.73529 0.34480
 C743 C 1.15386 0.68260 0.38498
 C744 C 1.13653 0.67034 0.39529
 C745 C 1.11668 0.65462 0.40549
 C746 C 1.10045 0.63988 0.41294
 C747 C 1.08233 0.62062 0.42066
 C748 C 1.08624 0.59500 0.40707
 C749 C 1.07017 0.57528 0.41619
 C750 C 1.04985 0.58089 0.43913
 C751 C 1.04536 0.60705 0.45155
 C752 C 1.06163 0.62679 0.44250
 H753 H 1.15481 0.73497 0.37199
 H754 H 1.19916 0.66007 0.36528
 H755 H 1.23185 0.68080 0.33302
 H756 H 1.18741 0.75628 0.33898
 H757 H 1.10216 0.59005 0.39004
 H758 H 1.07416 0.55543 0.40599
 H759 H 1.02979 0.61207 0.46905
 H760 H 1.05840 0.64662 0.45308
 C761 C 0.67886 0.19421 0.33524
 C762 C 0.69229 0.17196 0.34938
 C763 C 0.71898 0.16986 0.34838
 C764 C 0.73214 0.18956 0.33229
 C765 C 0.71884 0.21156 0.31652
 C766 C 0.69193 0.21391 0.31906
 C767 C 0.67843 0.15082 0.36333
 C768 C 0.66600 0.13338 0.37400
 C769 C 0.65038 0.11353 0.38555
 C770 C 0.63602 0.09732 0.39483
 C771 C 0.61756 0.07917 0.40545
 C772 C 0.59346 0.08053 0.38993
 C773 C 0.57434 0.06514 0.40223
 C774 C 0.57905 0.04811 0.43034
 C775 C 0.60372 0.04595 0.44485
 C776 C 0.62283 0.06151 0.43254
 H777 H 0.65815 0.19610 0.33610
 H778 H 0.72961 0.15275 0.35935
 H779 H 0.75281 0.18722 0.33116
 H780 H 0.68054 0.23044 0.30836
 H781 H 0.58918 0.09414 0.36895
 H782 H 0.55563 0.06724 0.39036
 H783 H 0.60796 0.03308 0.46654
 H784 H 0.64142 0.06034 0.44479
 C785 C 0.71893 0.66834 -0.15568
 C786 C 0.69305 0.67352 -0.14815
 C787 C 0.68102 0.69839 -0.15589
 C788 C 0.69439 0.71755 -0.17278
 C789 C 0.72004 0.71188 -0.18326
 C790 C 0.73238 0.68741 -0.17252
 C791 C 0.67846 0.65293 -0.13416
 C792 C 0.66567 0.63572 -0.12359
 C793 C 0.64989 0.61590 -0.11229
 C794 C 0.63555 0.59955 -0.10333
 C795 C 0.61722 0.58105 -0.09321
 C796 C 0.59312 0.58244 -0.10875
 C797 C 0.57422 0.56648 -0.09713
 C798 C 0.57913 0.54881 -0.06969
 C799 C 0.60379 0.54668 -0.05517
 C800 C 0.62269 0.56281 -0.06679
 H801 H 0.72859 0.64931 -0.14926
 H802 H 0.66110 0.70285 -0.14939
 H803 H 0.68430 0.73659 -0.17754
 H804 H 0.75238 0.68263 -0.17826
 H805 H 0.58869 0.59646 -0.12924
 H806 H 0.55551 0.56859 -0.10899
 H807 H 0.60818 0.53334 -0.03398
 H808 H 0.64129 0.56158 -0.05456
 C809 C 0.82995 -0.20656 -0.19454
 C810 C 0.83058 -0.20157 -0.15940
 C811 C 0.81076 -0.20937 -0.13867
 C812 C 0.79030 -0.22198 -0.15300
 C813 C 0.78911 -0.22693 -0.18858
 C814 C 0.80953 -0.21910 -0.20903
 C815 C 0.85112 -0.18759 -0.14491
 C816 C 0.86798 -0.17516 -0.13320
 C817 C 0.88714 -0.15957 -0.12001
 C818 C 0.90276 -0.14515 -0.10924
 C819 C 0.92024 -0.12637 -0.09705
 C820 C 0.93639 -0.13228 -0.06909
 C821 C 0.95145 -0.11277 -0.05566
 C822 C 0.95027 -0.08709 -0.06991
 C823 C 0.93467 -0.08177 -0.09876
 C824 C 0.91981 -0.10125 -0.11217
 H825 H 0.84531 -0.20077 -0.21084
 H826 H 0.81092 -0.20538 -0.11142
 H827 H 0.77504 -0.22684 -0.13605
 H828 H 0.81066 -0.22342 -0.23608
 H829 H 0.93683 -0.15167 -0.05712
 H830 H 0.96322 -0.11748 -0.03344
 H831 H 0.93341 -0.06229 -0.11053
 H832 H 0.90741 -0.09644 -0.13382
 C833 C 0.82470 0.27602 0.35691
 C834 C 0.83071 0.30070 0.34398
 C835 C 0.81622 0.31236 0.31719
 C836 C 0.79592 0.29936 0.30318
 C837 C 0.78983 0.27449 0.31581
 C838 C 0.80438 0.26298 0.34294
 C839 C 0.85153 0.31432 0.35825
 C840 C 0.86861 0.32650 0.36976
 C841 C 0.88798 0.34189 0.38270
 C842 C 0.90373 0.35623 0.39326
 C843 C 0.92128 0.37497 0.40520
 C844 C 0.92139 0.39973 0.38921
 C845 C 0.93609 0.41937 0.40253
 C846 C 0.95099 0.41455 0.43213
 C847 C 0.95170 0.38917 0.44722
 C848 C 0.93679 0.36952 0.43390
 H849 H 0.83579 0.26681 0.37764
 H850 H 0.82059 0.33155 0.30714
 H851 H 0.78484 0.30893 0.28272
 H852 H 0.80039 0.24368 0.35290
 H853 H 0.90946 0.40418 0.36701
 H854 H 0.93522 0.43860 0.39012
 H855 H 0.96294 0.38486 0.47004
 H856 H 0.93679 0.35042 0.44655
 C857 C 0.30016 -0.19105 0.35684
 C858 C 0.30400 -0.16908 0.33619
 C859 C 0.29364 -0.16788 0.30309
 C860 C 0.27915 -0.18839 0.29099
 C861 C 0.27472 -0.21026 0.31195
 C862 C 0.28573 -0.21145 0.34487
 C863 C 0.31889 -0.14817 0.34924
 C864 C 0.33177 -0.13144 0.36122
 C865 C 0.34764 -0.11279 0.37591
 C866 C 0.36212 -0.09782 0.38848
 C867 C 0.38086 -0.08129 0.40296
 C868 C 0.37475 -0.06359 0.42996
 C869 C 0.39379 -0.04901 0.44494
 C870 C 0.41920 -0.05217 0.43320
 C871 C 0.42489 -0.06964 0.40563
 C872 C 0.40592 -0.08400 0.39072
 H873 H 0.30831 -0.19242 0.38232
 H874 H 0.29661 -0.15106 0.28672
 H875 H 0.27102 -0.18679 0.26559
 H876 H 0.28337 -0.22827 0.36145
 H877 H 0.35541 -0.06138 0.43978
 H878 H 0.38878 -0.03578 0.46611
 H879 H 0.44415 -0.07251 0.39569
 H880 H 0.41094 -0.09762 0.36992
 C881 C 0.29365 0.31407 -0.14320
 C882 C 0.30259 0.33249 -0.16605
 C883 C 0.29712 0.33023 -0.20094
 C884 C 0.28263 0.30970 -0.21289
 C885 C 0.27317 0.29099 -0.19002
 C886 C 0.27921 0.29361 -0.15490
 C887 C 0.31797 0.35308 -0.15338
 C888 C 0.33122 0.36959 -0.14169
 C889 C 0.34742 0.38799 -0.12727
 C890 C 0.36210 0.40278 -0.11485
 C891 C 0.38095 0.41914 -0.10040
 C892 C 0.37509 0.43627 -0.07274
 C893 C 0.39424 0.45060 -0.05767
 C894 C 0.41951 0.44775 -0.06997
 C895 C 0.42495 0.43088 -0.09820
 C896 C 0.40586 0.41676 -0.11321
 H897 H 0.29809 0.31532 -0.11617
 H898 H 0.30399 0.34439 -0.21896
 H899 H 0.27836 0.30940 -0.23989
 H900 H 0.27370 0.27943 -0.13609
 H901 H 0.35587 0.43819 -0.06249
 H902 H 0.38944 0.46335 -0.03596
 H903 H 0.44411 0.42829 -0.10854
 H904 H 0.41067 0.40357 -0.13452
 C905 C 1.18255 -0.22659 0.18044
 C906 C 1.18596 -0.19984 0.17373
 C907 C 1.20531 -0.18707 0.19070
 C908 C 1.22031 -0.20068 0.21561
 C909 C 1.21576 -0.22699 0.22399
 C910 C 1.19736 -0.24010 0.20537
 C911 C 1.16753 -0.18490 0.15280
 C912 C 1.15105 -0.17233 0.13705
 C913 C 1.13106 -0.15710 0.12061
 C914 C 1.11388 -0.14319 0.10819
 C915 C 1.09377 -0.12507 0.09526
 C916 C 1.07961 -0.13111 0.06614
 C917 C 1.06138 -0.11222 0.05282
 C918 C 1.05739 -0.08707 0.06839
 C919 C 1.07102 -0.08174 0.09840
 C920 C 1.08902 -0.10058 0.11167
 H921 H 1.16762 -0.23666 0.16757
 H922 H 1.20799 -0.16629 0.18585
 H923 H 1.23424 -0.19016 0.22976
 H924 H 1.19375 -0.26052 0.21110
 H925 H 1.08308 -0.15008 0.05330
 H926 H 1.05121 -0.11687 0.02969
 H927 H 1.06830 -0.06267 0.11119
 H928 H 1.09974 -0.09576 0.13433
 C929 C 1.18368 0.27779 0.67955
 C930 C 1.18699 0.30473 0.67411
 C931 C 1.20614 0.31719 0.69194
 C932 C 1.22099 0.30303 0.71653
 C933 C 1.21643 0.27652 0.72368
 C934 C 1.19831 0.26376 0.70417
 C935 C 1.16843 0.32008 0.65391
 C936 C 1.15169 0.33278 0.63885
 C937 C 1.13127 0.34791 0.62325
 C938 C 1.11367 0.36157 0.61151
 C939 C 1.09302 0.37925 0.59920
 C940 C 1.07861 0.37285 0.57048
 C941 C 1.05994 0.39138 0.55747
 C942 C 1.05577 0.41654 0.57293
 C943 C 1.06957 0.42218 0.60269
 C944 C 1.08802 0.40368 0.61567
 H945 H 1.16888 0.26799 0.66605
 H946 H 1.20870 0.33812 0.68810
 H947 H 1.23473 0.31324 0.73147
 H948 H 1.19468 0.24321 0.70912
 H949 H 1.08226 0.35390 0.55764
 H950 H 1.04963 0.38647 0.53456
 H951 H 1.06672 0.44128 0.61538
 H952 H 1.09892 0.40876 0.63805
 C953 C 0.72216 -0.17970 0.69022
 C954 C 0.69715 -0.17011 0.69782
 C955 C 0.68477 -0.18007 0.72613
 C956 C 0.69701 -0.19981 0.74641
 C957 C 0.72210 -0.21026 0.73889
 C958 C 0.73460 -0.19947 0.71059
 C959 C 0.68347 -0.15083 0.67622
 C960 C 0.67063 -0.13521 0.65897
 C961 C 0.65405 -0.11761 0.63982
 C962 C 0.63865 -0.10327 0.62444
 C963 C 0.61880 -0.08710 0.60734
 C964 C 0.59355 -0.08810 0.61843
 C965 C 0.57379 -0.07338 0.60170
 C966 C 0.57892 -0.05732 0.57346
 C967 C 0.60445 -0.05612 0.56267
 C968 C 0.62427 -0.07098 0.57951
 H969 H 0.73190 -0.17226 0.66816
 H970 H 0.66545 -0.17267 0.73246
 H971 H 0.68673 -0.20636 0.76847
 H972 H 0.75346 -0.20693 0.70270
 H973 H 0.58907 -0.10050 0.63992
 H974 H 0.55444 -0.07478 0.61082
 H975 H 0.60908 -0.04401 0.54100
 H976 H 0.64375 -0.07007 0.57066
 C977 C 0.72205 0.31823 0.18578
 C978 C 0.70007 0.33286 0.19739
 C979 C 0.69046 0.32795 0.22995
 C980 C 0.70218 0.30796 0.25038
 C981 C 0.72372 0.29249 0.23849
 C982 C 0.73391 0.29824 0.20632
 C983 C 0.68604 0.35148 0.17532
 C984 C 0.67288 0.36643 0.15759
 C985 C 0.65593 0.38313 0.13782
 C986 C 0.64022 0.39664 0.12190
 C987 C 0.62003 0.41182 0.10417
 C988 C 0.59469 0.40893 0.11374
 C989 C 0.57470 0.42304 0.09670
 C990 C 0.57971 0.44035 0.06970
 C991 C 0.60530 0.44326 0.06028
 C992 C 0.62534 0.42904 0.07743
 H993 H 0.72959 0.32176 0.16054
 H994 H 0.67347 0.33913 0.23924
 H995 H 0.69417 0.30436 0.27531
 H996 H 0.75032 0.28660 0.19640
 H997 H 0.59035 0.39565 0.13437
 H998 H 0.55530 0.42030 0.10473
 H999 H 0.60983 0.45640 0.03960
 H1000 H 0.64490 0.43140 0.06978
 C1001 C 0.81209 0.22368 0.17590
 C1002 C 0.82366 0.19835 0.18246
 C1003 C 0.81644 0.18420 0.21115
 C1004 C 0.79762 0.19512 0.23310
 C1005 C 0.78556 0.22041 0.22665
 C1006 C 0.79319 0.23473 0.19801
 C1007 C 0.84263 0.18608 0.15992
 C1008 C 0.85830 0.17382 0.14254
 C1009 C 0.87615 0.15729 0.12406
 C1010 C 0.89078 0.14145 0.10987
 C1011 C 0.90729 0.12069 0.09483
 C1012 C 0.90528 0.09454 0.10579
 C1013 C 0.92080 0.07386 0.09153
 C1014 C 0.93867 0.07902 0.06601
 C1015 C 0.94073 0.10545 0.05525
 C1016 C 0.92507 0.12619 0.06960
 H1017 H 0.81755 0.23479 0.15370
 H1018 H 0.82537 0.16463 0.21657
 H1019 H 0.79281 0.18383 0.25543
 H1020 H 0.78435 0.25421 0.19235
 H1021 H 0.89159 0.09009 0.12534
 H1022 H 0.91869 0.05381 0.10047
 H1023 H 0.95422 0.11009 0.03557
 H1024 H 0.92676 0.14639 0.06094
 C1025 C 0.81302 0.72883 0.67821
 C1026 C 0.81908 0.70142 0.67713
 C1027 C 0.80658 0.68471 0.69885
 C1028 C 0.78837 0.69517 0.72195
 C1029 C 0.78199 0.72287 0.72401
 C1030 C 0.79465 0.73951 0.70137
 C1031 C 0.83855 0.68976 0.65481
 C1032 C 0.85459 0.67769 0.63778
 C1033 C 0.87278 0.66115 0.61984
 C1034 C 0.88762 0.64520 0.60620
 C1035 C 0.90433 0.62425 0.59189
 C1036 C 0.90193 0.59817 0.60290
 C1037 C 0.91768 0.57733 0.58942
 C1038 C 0.93619 0.58224 0.56465
 C1039 C 0.93862 0.60859 0.55380
 C1040 C 0.92274 0.62949 0.56736
 H1041 H 0.82257 0.74198 0.66133
 H1042 H 0.81129 0.66343 0.69844
 H1043 H 0.78038 0.68115 0.73903
 H1044 H 0.79048 0.76074 0.70068
 H1045 H 0.88776 0.59390 0.62191
 H1046 H 0.91525 0.55735 0.59841
 H1047 H 0.95261 0.61305 0.53468
 H1048 H 0.92475 0.64963 0.55867
 C1049 C 0.30868 0.17649 0.72752
 C1050 C 0.30848 0.18323 0.69281
 C1051 C 0.29498 0.20665 0.68193
 C1052 C 0.28111 0.22283 0.70555
 C1053 C 0.28054 0.21565 0.74027
 C1054 C 0.29483 0.19255 0.75108
 C1055 C 0.32193 0.16571 0.66870
 C1056 C 0.33371 0.15045 0.64975
 C1057 C 0.34856 0.13225 0.62915
 C1058 C 0.36259 0.11685 0.61314
 C1059 C 0.38136 0.09916 0.59631
 C1060 C 0.37460 0.08052 0.57175
 C1061 C 0.39358 0.06344 0.55634
 C1062 C 0.41946 0.06493 0.56544
 C1063 C 0.42580 0.08373 0.59024
 C1064 C 0.40697 0.10060 0.60544
 H1065 H 0.31921 0.15853 0.73630
 H1066 H 0.29473 0.21210 0.65513
 H1067 H 0.26997 0.24026 0.69640
 H1068 H 0.29491 0.18666 0.77770
 H1069 H 0.35477 0.07918 0.56455
 H1070 H 0.38806 0.04925 0.53732
 H1071 H 0.44543 0.08554 0.59807
 H1072 H 0.41245 0.11484 0.62447
 C1073 C 0.30994 0.67514 0.22738
 C1074 C 0.30943 0.68174 0.19263
 C1075 C 0.29545 0.70489 0.18174
 C1076 C 0.28144 0.72092 0.20543
 C1077 C 0.28119 0.71384 0.24020
 C1078 C 0.29595 0.69103 0.25098
 C1079 C 0.32300 0.66427 0.16852
 C1080 C 0.33486 0.64893 0.14970
 C1081 C 0.34974 0.63053 0.12935
 C1082 C 0.36370 0.61486 0.11362
 C1083 C 0.38228 0.59670 0.09711
 C1084 C 0.37567 0.57985 0.07035
 C1085 C 0.39448 0.56258 0.05488
 C1086 C 0.42006 0.56213 0.06605
 C1087 C 0.42624 0.57897 0.09323
 C1088 C 0.40756 0.59601 0.10852
 H1089 H 0.32082 0.65740 0.23618
 H1090 H 0.29495 0.71025 0.15492
 H1091 H 0.26999 0.73816 0.19631
 H1092 H 0.29631 0.68524 0.27765
 H1093 H 0.35610 0.58015 0.06135
 H1094 H 0.38910 0.54993 0.03402
 H1095 H 0.44563 0.57916 0.10275
 H1096 H 0.41292 0.60882 0.12928
   
