data_POSCAR
  _audit_creation_date              2014-09-24
  _audit_creation_method            'ToBaCCo'
  _symmetry_space_group_name_H-M    'P1'
  _symmetry_Int_Tables_number       1
  _symmetry_cell_setting            triclinic
  loop_
  _symmetry_equiv_pos_as_xyz
 x,y,z
_cell_length_a 46.1146
_cell_length_b 46.0477
_cell_length_c 47.8215
_cell_angle_alpha 90.154500
_cell_angle_beta 90.322600
_cell_angle_gamma 118.818100
loop_
  _atom_site_label
  _atom_site_type_symbol
  _atom_site_fract_x
  _atom_site_fract_y
  _atom_site_fract_z
C1 C 0.00109 0.47647 1.32445
 C2 C 0.03206 0.49407 1.31148
 C3 C 0.03266 0.50008 1.28261
 C4 C 0.00350 0.49180 1.26717
 C5 C -0.02694 0.47661 1.28156
 C6 C -0.02871 0.46727 1.30985
 C7 C 0.00496 0.49792 1.23607
 C8 C -0.02321 0.48037 1.21876
 C9 C -0.02160 0.48508 1.18972
 C10 C 0.00876 0.50642 1.17739
 C11 C 0.03727 0.52366 1.19386
 C12 C 0.03498 0.52029 1.22304
 H13 H 0.00013 0.47272 1.34681
 H14 H 0.05613 0.50990 1.27214
 H15 H -0.04959 0.47059 1.27052
 H16 H -0.04649 0.46198 1.22726
 H17 H 0.01030 0.50916 1.15486
 H18 H 0.05705 0.53540 1.23517
 C19 C 0.48579 0.48945 1.33015
 C20 C 0.47686 0.51085 1.31620
 C21 C 0.47652 0.51068 1.28676
 C22 C 0.48475 0.48955 1.27128
 C23 C 0.49321 0.46817 1.28611
 C24 C 0.49431 0.46817 1.31553
 C25 C 0.48548 0.49043 1.23982
 C26 C 0.50509 0.47987 1.22486
 C27 C 0.50601 0.48048 1.19556
 C28 C 0.48884 0.49381 1.18090
 C29 C 0.46974 0.50522 1.19512
 C30 C 0.46724 0.50241 1.22438
 H31 H 0.48635 0.48956 1.35275
 H32 H 0.47186 0.52867 1.27606
 H33 H 0.49753 0.45023 1.27492
 H34 H 0.52044 0.47168 1.23571
 H35 H 0.48965 0.49456 1.15825
 H36 H 0.45138 0.51015 1.23485
 C37 C 0.49278 0.99818 1.32226
 C38 C 0.48751 0.96976 1.30746
 C39 C 0.49398 0.97182 1.27877
 C40 C 0.50385 1.00167 1.26425
 C41 C 0.50936 1.03010 1.27965
 C42 C 0.50469 1.02898 1.30885
 C43 C 0.50703 1.00281 1.23306
 C44 C 0.52840 1.03259 1.21931
 C45 C 0.52936 1.03419 1.19001
 C46 C 0.51084 1.00526 1.17426
 C47 C 0.49025 0.97520 1.18740
 C48 C 0.48767 0.97431 1.21662
 H49 H 0.48938 0.99628 1.34469
 H50 H 0.49054 0.94977 1.26785
 H51 H 0.51553 1.05285 1.26874
 H52 H 0.54371 1.05493 1.23115
 H53 H 0.51200 1.00629 1.15163
 H54 H 0.47041 0.95121 1.22629
 C55 C 1.00084 0.50515 0.67644
 C56 C 0.97050 0.48700 0.68998
 C57 C 0.96996 0.48347 0.71909
 C58 C 0.99929 0.49928 0.73524
 C59 C 1.02940 0.51825 0.72106
 C60 C 1.03085 0.52042 0.69163
 C61 C 0.99869 0.49570 0.76657
 C62 C 1.02763 0.50216 0.78175
 C63 C 1.02727 0.49908 0.81093
 C64 C 0.99729 0.48711 0.82513
 C65 C 0.96816 0.48011 0.81069
 C66 C 0.96916 0.48551 0.78176
 H67 H 1.00076 0.50612 0.65384
 H68 H 0.94641 0.46758 0.72868
 H69 H 1.05186 0.53276 0.73286
 H70 H 1.05079 0.50931 0.77131
 H71 H 0.99681 0.48444 0.84766
 H72 H 0.94657 0.48132 0.77145
 C73 C 0.49506 0.49325 0.67296
 C74 C 0.51217 0.48013 0.68803
 C75 C 0.51129 0.48016 0.71737
 C76 C 0.49155 0.49085 0.73199
 C77 C 0.47297 0.50200 0.71609
 C78 C 0.47560 0.50440 0.68688
 C79 C 0.49090 0.49096 0.76349
 C80 C 0.48074 0.51111 0.77835
 C81 C 0.47996 0.51108 0.80770
 C82 C 0.49196 0.49289 0.82253
 C83 C 0.50308 0.47354 0.80844
 C84 C 0.50112 0.47145 0.77919
 H85 H 0.49600 0.49385 0.65031
 H86 H 0.52675 0.47226 0.72838
 H87 H 0.45664 0.50944 0.72607
 H88 H 0.47312 0.52687 0.76751
 H89 H 0.49276 0.49386 0.84520
 H90 H 0.50835 0.45497 0.76908
 C91 C 0.50569 0.00533 0.67759
 C92 C 0.51782 0.03518 0.69239
 C93 C 0.51730 0.03477 0.72165
 C94 C 0.50797 0.00513 0.73661
 C95 C 0.49745 -0.02449 0.72097
 C96 C 0.49444 -0.02507 0.69151
 C97 C 0.50934 0.00525 0.76821
 C98 C 0.49096 -0.02411 0.78389
 C99 C 0.49361 -0.02427 0.81338
 C100 C 0.51203 0.00636 0.82719
 C101 C 0.52924 0.03581 0.81234
 C102 C 0.52923 0.03495 0.78313
 H103 H 0.50615 0.00620 0.65496
 H104 H 0.52488 0.05803 0.73234
 H105 H 0.49028 -0.04746 0.73166
 H106 H 0.47556 -0.04717 0.77325
 H107 H 0.51242 0.00780 0.84981
 H108 H 0.54452 0.05793 0.77246
 O109 O 0.37597 0.66520 0.96486
 O110 O 0.38104 0.72410 0.97023
 C111 C 0.36046 0.72948 0.95655
 O112 O 0.33000 0.71547 0.96237
 O113 O 0.27412 0.66371 0.97460
 C114 C 0.26713 0.63568 0.96396
 O115 O 0.28134 0.61918 0.97130
 O116 O 0.33600 0.61620 0.97924
 C117 C 0.35990 0.63384 0.96306
 O118 O 0.38236 0.66189 1.02056
 O119 O 0.38340 0.71900 1.02581
 C120 C 0.36919 0.73628 1.03025
 O121 O 0.34283 0.73141 1.01747
 O122 O 0.28719 0.67867 1.02946
 C123 C 0.27177 0.64884 1.03750
 O124 O 0.27598 0.62595 1.02661
 O125 O 0.33186 0.62558 1.03458
 C126 C 0.36304 0.63920 1.03696
 Cr127 Cr 0.37882 0.69169 0.99547
 Cr128 Cr 0.30943 0.69631 0.99608
 Cr129 Cr 0.30725 0.62358 1.00275
 O130 O 0.33172 0.67054 0.99815
 O131 O 0.62167 0.34868 0.97943
 O132 O 0.62030 0.29180 0.97279
 C133 C 0.63468 0.27473 0.96824
 O134 O 0.66003 0.27866 0.98199
 O135 O 0.71550 0.33213 0.97208
 C136 C 0.73195 0.36261 0.96615
 O137 O 0.72835 0.38486 0.97899
 O138 O 0.67341 0.38666 0.96945
 C139 C 0.64248 0.37265 0.96483
 O140 O 0.62398 0.34219 1.03538
 O141 O 0.61987 0.28395 1.02846
 C142 C 0.63975 0.27766 1.04235
 O143 O 0.67050 0.29150 1.03738
 O144 O 0.72739 0.34386 1.02724
 C145 C 0.73354 0.37049 1.04006
 O146 O 0.71882 0.38700 1.03442
 O147 O 0.66548 0.39184 1.02452
 C148 C 0.64011 0.37334 1.03886
 Cr149 Cr 0.62329 0.31748 1.00403
 Cr150 Cr 0.69248 0.31256 1.00466
 Cr151 Cr 0.69556 0.38575 1.00193
 O152 O 0.67044 0.33857 1.00353
 O153 O 0.66618 0.38434 0.51829
 O154 O 0.72121 0.38085 0.52322
 C155 C 0.73635 0.36432 0.52734
 O156 O 0.72903 0.33740 0.51442
 O157 O 0.67412 0.28391 0.52682
 C158 C 0.64446 0.27062 0.53522
 O159 O 0.62288 0.27694 0.52448
 O160 O 0.62683 0.33495 0.53206
 C161 C 0.64255 0.36625 0.53438
 O162 O 0.66790 0.37746 0.46255
 O163 O 0.72450 0.37796 0.46717
 C164 C 0.72783 0.35617 0.45345
 O165 O 0.71283 0.32577 0.45973
 O166 O 0.65887 0.27203 0.47188
 C167 C 0.63146 0.26696 0.46129
 O168 O 0.61628 0.28233 0.46908
 O169 O 0.61790 0.33928 0.47669
 C170 C 0.63657 0.36251 0.46037
 Cr171 Cr 0.69398 0.37826 0.49297
 Cr172 Cr 0.69277 0.30578 0.49336
 Cr173 Cr 0.62288 0.30925 0.50041
 O174 O 0.66988 0.33099 0.49564
 O175 O 0.33957 0.62436 0.52857
 O176 O 0.28496 0.62774 0.53624
 C177 C 0.26841 0.64307 0.53836
 O178 O 0.27310 0.66702 0.52251
 O179 O 0.32866 0.72228 0.53045
 C180 C 0.35942 0.73732 0.53623
 O181 O 0.38035 0.73114 0.52402
 O182 O 0.38062 0.67578 0.53492
 C183 C 0.36577 0.64529 0.54105
 O184 O 0.32941 0.62194 0.47295
 O185 O 0.27337 0.62180 0.48072
 C186 C 0.26889 0.64099 0.46437
 O187 O 0.28450 0.67227 0.46711
 O188 O 0.33789 0.72883 0.47520
 C189 C 0.36351 0.73315 0.46219
 O190 O 0.37944 0.71810 0.46860
 O191 O 0.38084 0.66337 0.47982
 C192 C 0.35999 0.63720 0.46706
 Cr193 Cr 0.30778 0.62579 0.50456
 Cr194 Cr 0.30696 0.69666 0.49897
 Cr195 Cr 0.37846 0.69621 0.50186
 O196 O 0.33120 0.67297 0.50197
 C197 C 0.48383 0.54516 0.35779
 C198 C 0.47360 0.56341 0.37437
 C199 C 0.44731 0.56829 0.36585
 C200 C 0.43251 0.55648 0.33956
 C201 C 0.44339 0.53899 0.32242
 C202 C 0.46843 0.53191 0.33175
 N203 N 0.43554 0.58417 0.38489
 N204 N 0.40706 0.58200 0.38270
 C205 C 0.39589 0.59738 0.40289
 C206 C 0.36222 0.58811 0.40402
 C207 C 0.35038 0.60096 0.42490
 C208 C 0.37226 0.62377 0.44468
 C209 C 0.40619 0.63370 0.44298
 C210 C 0.41787 0.62048 0.42241
 H211 H 0.50432 0.54202 0.36532
 H212 H 0.48553 0.57290 0.39442
 H213 H 0.41226 0.56030 0.33251
 H214 H 0.43057 0.52916 0.30275
 H215 H 0.34502 0.57031 0.38912
 H216 H 0.32414 0.59307 0.42554
 H217 H 0.42368 0.65123 0.45788
 H218 H 0.44405 0.62815 0.42191
 C219 C 0.48962 0.91777 0.31984
 C220 C 0.47757 0.88822 0.33494
 C221 C 0.44986 0.87801 0.35211
 C222 C 0.43424 0.89769 0.35395
 C223 C 0.44647 0.92730 0.33923
 C224 C 0.47435 0.93772 0.32218
 N225 N 0.43853 0.84842 0.36833
 N226 N 0.41123 0.83677 0.38131
 C227 C 0.39905 0.80861 0.39925
 C228 C 0.36790 0.79750 0.41107
 C229 C 0.35606 0.77228 0.43080
 C230 C 0.37533 0.75766 0.43926
 C231 C 0.40626 0.76806 0.42661
 C232 C 0.41810 0.79345 0.40671
 H233 H 0.51127 0.92546 0.30689
 H234 H 0.48991 0.87337 0.33341
 H235 H 0.41287 0.89051 0.36713
 H236 H 0.43414 0.94213 0.34115
 H237 H 0.35307 0.80906 0.40546
 H238 H 0.33204 0.76478 0.43989
 H239 H 0.42166 0.75728 0.43266
 H240 H 0.44236 0.80182 0.39782
 C241 C 0.06367 0.49082 0.35206
 C242 C 0.09183 0.50515 0.36914
 C243 C 0.11861 0.53581 0.36241
 C244 C 0.11781 0.55136 0.33748
 C245 C 0.08993 0.53680 0.31999
 C246 C 0.06182 0.50671 0.32740
 N247 N 0.14562 0.55101 0.38183
 N248 N 0.16797 0.58118 0.38006
 C249 C 0.19413 0.59576 0.40039
 C250 C 0.21523 0.63008 0.40037
 C251 C 0.23975 0.64504 0.42104
 C252 C 0.24367 0.62570 0.44191
 C253 C 0.22284 0.59116 0.44142
 C254 C 0.19828 0.57637 0.42098
 H255 H 0.04361 0.46699 0.35814
 H256 H 0.09242 0.49270 0.38815
 H257 H 0.13840 0.57506 0.33180
 H258 H 0.08980 0.55049 0.30168
 H259 H 0.21227 0.64531 0.38461
 H260 H 0.25550 0.67167 0.42075
 H261 H 0.22514 0.57547 0.45712
 H262 H 0.18239 0.54978 0.42143
 C263 C 0.49212 0.43570 0.35701
 C264 C 0.50523 0.41949 0.37303
 C265 C 0.53183 0.41601 0.36325
 C266 C 0.54390 0.42693 0.33626
 C267 C 0.53018 0.44238 0.31974
 C268 C 0.50492 0.44829 0.33033
 N269 N 0.54688 0.40273 0.38177
 N270 N 0.57561 0.40610 0.37787
 C271 C 0.59020 0.39350 0.39762
 C272 C 0.62401 0.40344 0.39598
 C273 C 0.63928 0.39340 0.41630
 C274 C 0.62073 0.37283 0.43839
 C275 C 0.58661 0.36223 0.43951
 C276 C 0.57153 0.37258 0.41944
 H277 H 0.47162 0.43799 0.36557
 H278 H 0.49537 0.41065 0.39365
 H279 H 0.56434 0.42417 0.32822
 H280 H 0.54114 0.45180 0.29955
 H281 H 0.63869 0.41960 0.37930
 H282 H 0.66556 0.40179 0.41475
 H283 H 0.57157 0.34637 0.45620
 H284 H 0.54533 0.36444 0.42115
 C285 C 0.49602 0.05681 0.34960
 C286 C 0.50624 0.08493 0.36647
 C287 C 0.53379 0.11479 0.35921
 C288 C 0.54983 0.11693 0.33385
 C289 C 0.53913 0.08909 0.31650
 C290 C 0.51275 0.05813 0.32456
 N291 N 0.54615 0.14187 0.37868
 N292 N 0.57591 0.16520 0.37775
 C293 C 0.58903 0.19179 0.39770
 C294 C 0.62338 0.21078 0.40059
 C295 C 0.63715 0.23528 0.42126
 C296 C 0.61667 0.24172 0.43896
 C297 C 0.58216 0.22346 0.43539
 C298 C 0.56839 0.19837 0.41511
 H299 H 0.47467 0.03417 0.35618
 H300 H 0.49341 0.08311 0.38582
 H301 H 0.57110 0.13992 0.32774
 H302 H 0.55324 0.09154 0.29781
 H303 H 0.63951 0.20593 0.38727
 H304 H 0.66383 0.24923 0.42339
 H305 H 0.56586 0.22797 0.44879
 H306 H 0.54173 0.18404 0.41312
 C307 C 0.93691 0.42687 0.34527
 C308 C 0.90727 0.40990 0.35978
 C309 C 0.88059 0.41523 0.35373
 C310 C 0.88335 0.43687 0.33203
 C311 C 0.91281 0.45337 0.31690
 C312 C 0.94052 0.44931 0.32373
 N313 N 0.85170 0.39933 0.37077
 N314 N 0.82952 0.40823 0.37119
 C315 C 0.80164 0.39279 0.38943
 C316 C 0.78372 0.40931 0.39559
 C317 C 0.75900 0.39691 0.41588
 C318 C 0.75130 0.36728 0.42990
 C319 C 0.76805 0.34974 0.42256
 C320 C 0.79326 0.36255 0.40269
 H321 H 0.95673 0.42157 0.35060
 H322 H 0.90531 0.39301 0.37629
 H323 H 0.86291 0.44133 0.32699
 H324 H 0.91424 0.47069 0.30102
 H325 H 0.78989 0.43259 0.38550
 H326 H 0.74632 0.41081 0.42100
 H327 H 0.76267 0.32690 0.43307
 H328 H 0.80664 0.34921 0.39812
 C329 C 0.52019 0.43504 1.18758
 C330 C 0.53557 0.42057 1.17210
 C331 C 0.55549 0.43719 1.14930
 C332 C 0.56014 0.46877 1.14222
 C333 C 0.54446 0.48311 1.15749
 C334 C 0.52418 0.46629 1.18022
 N335 N 0.56962 0.42101 1.13305
 N336 N 0.59058 0.43605 1.11393
 C337 C 0.60381 0.41984 1.09669
 C338 C 0.62927 0.43894 1.07821
 C339 C 0.64162 0.42388 1.05997
 C340 C 0.62840 0.38922 1.05965
 C341 C 0.60309 0.37007 1.07855
 C342 C 0.59098 0.38527 1.09701
 H343 H 0.50440 0.42140 1.20482
 H344 H 0.53167 0.39618 1.17769
 H345 H 0.57535 0.48208 1.12462
 H346 H 0.54811 0.50731 1.15151
 H347 H 0.63928 0.46558 1.07772
 H348 H 0.66103 0.43939 1.04566
 H349 H 0.59242 0.34335 1.07886
 H350 H 0.57117 0.36997 1.11107
 C351 C 0.94907 0.45018 1.14789
 C352 C 0.92105 0.43429 1.13074
 C353 C 0.89215 0.43561 1.13720
 C354 C 0.89120 0.45230 1.16154
 C355 C 0.91908 0.46777 1.17896
 C356 C 0.94838 0.46719 1.17208
 N357 N 0.86446 0.42036 1.11842
 N358 N 0.83954 0.42512 1.12026
 C359 C 0.81222 0.40997 1.10107
 C360 C 0.78877 0.42100 1.10040
 C361 C 0.76290 0.40798 1.08078
 C362 C 0.75983 0.38326 1.06179
 C363 C 0.78290 0.37156 1.06310
 C364 C 0.80898 0.38493 1.08243
 H365 H 0.97129 0.44915 1.14232
 H366 H 0.92201 0.42142 1.11208
 H367 H 0.86906 0.45350 1.16701
 H368 H 0.91805 0.48087 1.19745
 H369 H 0.79097 0.44025 1.11470
 H370 H 0.74543 0.41738 1.08038
 H371 H 0.78129 0.35260 1.04874
 H372 H 0.82670 0.37586 1.08266
 C373 C 0.58057 0.08890 1.18237
 C374 C 0.59711 0.11923 1.16835
 C375 C 0.58058 0.12767 1.14794
 C376 C 0.54735 0.10529 1.14150
 C377 C 0.53106 0.07494 1.15513
 C378 C 0.54746 0.06641 1.17565
 N379 N 0.59788 0.15849 1.13339
 N380 N 0.58214 0.16894 1.11818
 C381 C 0.59783 0.19838 1.10176
 C382 C 0.57776 0.20846 1.08742
 C383 C 0.59156 0.23503 1.06897
 C384 C 0.62590 0.25198 1.06431
 C385 C 0.64622 0.24253 1.07952
 C386 C 0.63229 0.21591 1.09815
 H387 H 0.59369 0.08278 1.19811
 H388 H 0.62275 0.13618 1.17343
 H389 H 0.53403 0.11107 1.12572
 H390 H 0.50541 0.05819 1.14984
 H391 H 0.55117 0.19506 1.09004
 H392 H 0.57514 0.24162 1.05772
 H393 H 0.67275 0.25507 1.07645
 H394 H 0.64826 0.20842 1.10901
 C395 C 0.42011 0.51249 1.18430
 C396 C 0.40478 0.52710 1.16869
 C397 C 0.42238 0.55056 1.14812
 C398 C 0.45565 0.55931 1.14334
 C399 C 0.47084 0.54455 1.15868
 C400 C 0.45324 0.52090 1.17925
 N401 N 0.40597 0.56454 1.13183
 N402 N 0.42185 0.58787 1.11462
 C403 C 0.40640 0.60170 1.09706
 C404 C 0.42642 0.62811 1.07970
 C405 C 0.41237 0.64092 1.06081
 C406 C 0.37779 0.62736 1.05881
 C407 C 0.35768 0.60132 1.07684
 C408 C 0.37187 0.58858 1.09584
 H409 H 0.40592 0.49419 1.19990
 H410 H 0.37910 0.52002 1.17253
 H411 H 0.46984 0.57732 1.12754
 H412 H 0.49652 0.55178 1.15460
 H413 H 0.45306 0.63840 1.08044
 H414 H 0.42864 0.66097 1.04732
 H415 H 0.33098 0.59031 1.07587
 H416 H 0.35588 0.56809 1.10907
 C417 C 0.09630 0.53741 1.18773
 C418 C 0.12592 0.55249 1.17284
 C419 C 0.12990 0.57385 1.15070
 C420 C 0.10401 0.58057 1.14389
 C421 C 0.07414 0.56505 1.15847
 C422 C 0.06989 0.54303 1.18032
 N423 N 0.15934 0.58644 1.13426
 N424 N 0.16704 0.60970 1.11670
 C425 C 0.19521 0.62049 1.09887
 C426 C 0.20610 0.65000 1.08398
 C427 C 0.23192 0.65992 1.06483
 C428 C 0.24683 0.64002 1.05980
 C429 C 0.23621 0.61064 1.07512
 C430 C 0.21079 0.60107 1.09465
 H431 H 0.09350 0.52022 1.20425
 H432 H 0.14558 0.54696 1.17818
 H433 H 0.10644 0.59684 1.12672
 H434 H 0.05415 0.56979 1.15241
 H435 H 0.19418 0.66509 1.08693
 H436 H 0.23939 0.68257 1.05322
 H437 H 0.24727 0.59485 1.07174
 H438 H 0.20265 0.57802 1.10578
 C439 C 0.43734 0.92443 1.17398
 C440 C 0.41989 0.89609 1.15731
 C441 C 0.43645 0.88739 1.13729
 C442 C 0.47072 0.90759 1.13389
 C443 C 0.48804 0.93613 1.15018
 C444 C 0.47155 0.94478 1.17039
 N445 N 0.41814 0.85832 1.12040
 N446 N 0.43287 0.84629 1.10583
 C447 C 0.41576 0.81801 1.08794
 C448 C 0.43349 0.80337 1.07660
 C449 C 0.41813 0.77643 1.05830
 C450 C 0.38472 0.76395 1.05061
 C451 C 0.36686 0.77868 1.06206
 C452 C 0.38220 0.80540 1.08076
 H453 H 0.42410 0.93078 1.18932
 H454 H 0.39347 0.88081 1.16007
 H455 H 0.48408 0.90151 1.11846
 H456 H 0.51443 0.95136 1.14717
 H457 H 0.45939 0.81300 1.08190
 H458 H 0.43266 0.76582 1.04974
 H459 H 0.34109 0.76956 1.05656
 H460 H 0.36808 0.81652 1.08919
 C461 C 0.52549 0.43394 0.68131
 C462 C 0.54057 0.41870 0.66647
 C463 C 0.56068 0.43448 0.64355
 C464 C 0.56575 0.46600 0.63566
 C465 C 0.55033 0.48110 0.65028
 C466 C 0.52995 0.46515 0.67320
 N467 N 0.57454 0.41752 0.62801
 N468 N 0.59595 0.43192 0.60905
 C469 C 0.60888 0.41496 0.59239
 C470 C 0.63451 0.43339 0.57386
 C471 C 0.64623 0.41760 0.55579
 C472 C 0.63221 0.38284 0.55568
 C473 C 0.60696 0.36437 0.57484
 C474 C 0.59544 0.38031 0.59313
 H475 H 0.50959 0.42093 0.69869
 H476 H 0.53633 0.39436 0.67268
 H477 H 0.58108 0.47865 0.61792
 H478 H 0.55430 0.50522 0.64370
 H479 H 0.64503 0.46008 0.57308
 H480 H 0.66566 0.43265 0.54132
 H481 H 0.59564 0.33760 0.57531
 H482 H 0.57550 0.36552 0.60726
 C483 C 0.52233 0.09068 0.68168
 C484 C 0.53601 0.12010 0.66625
 C485 C 0.56059 0.12648 0.64639
 C486 C 0.57132 0.10298 0.64207
 C487 C 0.55731 0.07342 0.65710
 C488 C 0.53263 0.06693 0.67696
 N489 N 0.57336 0.15615 0.63005
 N490 N 0.59907 0.16554 0.61509
 C491 C 0.61126 0.19389 0.59723
 C492 C 0.64179 0.20473 0.58413
 C493 C 0.65326 0.23055 0.56477
 C494 C 0.63402 0.24571 0.55785
 C495 C 0.60368 0.23529 0.57157
 C496 C 0.59246 0.20971 0.59118
 H497 H 0.50327 0.08614 0.69684
 H498 H 0.52740 0.13792 0.66969
 H499 H 0.59011 0.10718 0.62674
 H500 H 0.56584 0.05559 0.65329
 H501 H 0.65646 0.19265 0.58854
 H502 H 0.67664 0.23786 0.55453
 H503 H 0.58833 0.24652 0.56678
 H504 H 0.56870 0.20168 0.60096
 C505 C 0.91237 0.47593 0.68130
 C506 C 0.88364 0.46291 0.66477
 C507 C 0.88118 0.44484 0.64045
 C508 C 0.90782 0.43973 0.63290
 C509 C 0.93665 0.45304 0.64920
 C510 C 0.93928 0.47144 0.67347
 N511 N 0.85187 0.43256 0.62343
 N512 N 0.84702 0.41296 0.60298
 C513 C 0.81860 0.40088 0.58499
 C514 C 0.81336 0.37603 0.56562
 C515 C 0.78644 0.36398 0.54720
 C516 C 0.76436 0.37695 0.54753
 C517 C 0.76969 0.40205 0.56699
 C518 C 0.79652 0.41383 0.58572
 H519 H 0.91392 0.49023 0.69981
 H520 H 0.86334 0.46708 0.67081
 H521 H 0.90658 0.42588 0.61419
 H522 H 0.95694 0.44900 0.64286
 H523 H 0.83028 0.36598 0.56479
 H524 H 0.78324 0.34479 0.53241
 H525 H 0.75310 0.41250 0.56778
 H526 H 0.80024 0.43323 0.60045
 C527 C 0.42479 0.50871 0.67494
 C528 C 0.40916 0.52366 0.66034
 C529 C 0.42718 0.54993 0.64209
 C530 C 0.46103 0.56071 0.63812
 C531 C 0.47653 0.54539 0.65230
 C532 C 0.45861 0.51942 0.67097
 N533 N 0.41050 0.56465 0.62728
 N534 N 0.42629 0.59221 0.61471
 C535 C 0.40988 0.60628 0.59864
 C536 C 0.42849 0.63830 0.58800
 C537 C 0.41381 0.65172 0.57031
 C538 C 0.38025 0.63302 0.56265
 C539 C 0.36139 0.60123 0.57407
 C540 C 0.37602 0.58802 0.59202
 H541 H 0.41047 0.48863 0.68916
 H542 H 0.38302 0.51498 0.66342
 H543 H 0.47540 0.58076 0.62391
 H544 H 0.50268 0.55419 0.64909
 H545 H 0.45463 0.65259 0.59294
 H546 H 0.42904 0.67619 0.56176
 H547 H 0.33546 0.58624 0.56863
 H548 H 0.36112 0.56319 0.59996
 C549 C 0.48238 0.91673 0.68522
 C550 C 0.46780 0.88714 0.66974
 C551 C 0.44965 0.88436 0.64542
 C552 C 0.44678 0.91177 0.63631
 C553 C 0.46196 0.94156 0.65124
 C554 C 0.47996 0.94469 0.67613
 N555 N 0.43503 0.85394 0.62980
 N556 N 0.41157 0.84716 0.61242
 C557 C 0.39776 0.81800 0.59522
 C558 C 0.36769 0.80859 0.58136
 C559 C 0.35457 0.78159 0.56291
 C560 C 0.37182 0.76403 0.55753
 C561 C 0.40185 0.77328 0.57172
 C562 C 0.41460 0.79989 0.59061
 H563 H 0.49669 0.91788 0.70359
 H564 H 0.47053 0.86626 0.67681
 H565 H 0.43297 0.91025 0.61747
 H566 H 0.45818 0.96165 0.64373
 H567 H 0.35459 0.82250 0.58464
 H568 H 0.33150 0.77516 0.55215
 H569 H 0.41561 0.76011 0.56803
 H570 H 0.43802 0.80690 0.60095
 C571 C 0.09039 0.53754 0.68931
 C572 C 0.12022 0.55150 0.67468
 C573 C 0.12250 0.56572 0.64848
 C574 C 0.09456 0.56604 0.63703
 C575 C 0.06457 0.55159 0.65132
 C576 C 0.06172 0.53676 0.67769
 N577 N 0.15299 0.57886 0.63344
 N578 N 0.15771 0.59677 0.61196
 C579 C 0.18694 0.60929 0.59537
 C580 C 0.19170 0.63280 0.57503
 C581 C 0.21868 0.64432 0.55715
 C582 C 0.24135 0.63212 0.55899
 C583 C 0.23681 0.60871 0.57973
 C584 C 0.20984 0.59747 0.59795
 H585 H 0.08959 0.52572 0.70904
 H586 H 0.14154 0.55092 0.68366
 H587 H 0.09572 0.57705 0.61682
 H588 H 0.04396 0.55303 0.64182
 H589 H 0.17412 0.64194 0.57281
 H590 H 0.22125 0.66223 0.54139
 H591 H 0.25382 0.59886 0.58166
 H592 H 0.20644 0.57907 0.61349
 C593 C 0.47478 0.56227 0.81660
 C594 C 0.46167 0.57921 0.83185
 C595 C 0.43922 0.56333 0.85348
 C596 C 0.42994 0.53019 0.85970
 C597 C 0.44323 0.51341 0.84471
 C598 C 0.46587 0.52928 0.82310
 N599 N 0.42685 0.58139 0.86939
 N600 N 0.40435 0.56706 0.88756
 C601 C 0.39231 0.58437 0.90475
 C602 C 0.36642 0.56609 0.92314
 C603 C 0.35531 0.58210 0.94156
 C604 C 0.37013 0.61690 0.94205
 C605 C 0.39572 0.63521 0.92308
 C606 C 0.40670 0.61909 0.90454
 H607 H 0.49233 0.57510 0.80014
 H608 H 0.46912 0.60478 0.82692
 H609 H 0.41270 0.51734 0.87634
 H610 H 0.43566 0.48787 0.84991
 H611 H 0.35519 0.53932 0.92349
 H612 H 0.33558 0.56720 0.95585
 H613 H 0.40762 0.66203 0.92286
 H614 H 0.42682 0.63374 0.89051
 C615 C 0.06120 0.49096 0.84815
 C616 C 0.08954 0.50348 0.86511
 C617 C 0.11518 0.53592 0.86150
 C618 C 0.11294 0.55527 0.83979
 C619 C 0.08491 0.54257 0.82251
 C620 C 0.05850 0.51057 0.82692
 N621 N 0.14244 0.54911 0.88082
 N622 N 0.16226 0.58009 0.88277
 C623 C 0.18921 0.59357 0.90238
 C624 C 0.20575 0.62777 0.90744
 C625 C 0.23113 0.64156 0.92743
 C626 C 0.24077 0.62131 0.94236
 C627 C 0.22463 0.58705 0.93675
 C628 C 0.19890 0.57324 0.91708
 H629 H 0.04117 0.46619 0.85187
 H630 H 0.09103 0.48831 0.88172
 H631 H 0.13256 0.58034 0.83650
 H632 H 0.08326 0.55823 0.80642
 H633 H 0.19852 0.64369 0.89621
 H634 H 0.24325 0.66806 0.93116
 H635 H 0.23145 0.57080 0.94795
 H636 H 0.18655 0.54674 0.91344
 C637 C 0.49391 0.94357 0.85421
 C638 C 0.48021 0.91453 0.86981
 C639 C 0.45094 0.88698 0.86119
 C640 C 0.43560 0.88845 0.83619
 C641 C 0.44965 0.91743 0.82008
 C642 C 0.47893 0.94583 0.82902
 N643 N 0.43771 0.85816 0.87850
 N644 N 0.40878 0.83363 0.87552
 C645 C 0.39716 0.80586 0.89408
 C646 C 0.36324 0.78346 0.89547
 C647 C 0.35117 0.75801 0.91530
 C648 C 0.37301 0.75429 0.93379
 C649 C 0.40717 0.77597 0.93145
 C650 C 0.41910 0.80157 0.91195
 H651 H 0.51717 0.96376 0.86156
 H652 H 0.49246 0.91352 0.88889
 H653 H 0.41285 0.86730 0.82915
 H654 H 0.43659 0.91779 0.80135
 H655 H 0.34604 0.78639 0.88180
 H656 H 0.32473 0.74164 0.91648
 H657 H 0.42470 0.77386 0.94532
 H658 H 0.44547 0.81835 0.91116
 C659 C 0.50756 0.42300 0.82120
 C660 C 0.52225 0.40782 0.83683
 C661 C 0.54848 0.42659 0.85527
 C662 C 0.55973 0.46076 0.85811
 C663 C 0.54470 0.47577 0.84294
 C664 C 0.51850 0.45705 0.82438
 N665 N 0.56253 0.41048 0.87170
 N666 N 0.59004 0.42699 0.88449
 C667 C 0.60364 0.41183 0.90256
 C668 C 0.63602 0.43089 0.91259
 C669 C 0.64918 0.41776 0.93209
 C670 C 0.62980 0.38544 0.94224
 C671 C 0.59749 0.36610 0.93166
 C672 C 0.58456 0.37911 0.91185
 H673 H 0.48733 0.40814 0.80702
 H674 H 0.51324 0.38144 0.83458
 H675 H 0.57977 0.47574 0.87239
 H676 H 0.55367 0.50213 0.84552
 H677 H 0.65089 0.45620 0.90565
 H678 H 0.67408 0.43331 0.93993
 H679 H 0.58204 0.34106 0.93900
 H680 H 0.55938 0.36398 0.90448
 C681 C 0.91630 0.48172 0.82361
 C682 C 0.88722 0.46976 0.83919
 C683 C 0.87780 0.44257 0.85691
 C684 C 0.89782 0.42736 0.85893
 C685 C 0.92709 0.43958 0.84375
 C686 C 0.93664 0.46692 0.82605
 N687 N 0.84870 0.43162 0.87355
 N688 N 0.83651 0.40430 0.88668
 C689 C 0.80867 0.39368 0.90477
 C690 C 0.79430 0.36158 0.91559
 C691 C 0.76864 0.35110 0.93490
 C692 C 0.75726 0.37286 0.94405
 C693 C 0.77135 0.40494 0.93275
 C694 C 0.79676 0.41523 0.91315
 H695 H 0.92334 0.50296 0.81020
 H696 H 0.87208 0.48179 0.83758
 H697 H 0.89120 0.40644 0.87262
 H698 H 0.94232 0.42768 0.84579
 H699 H 0.80340 0.34482 0.90935
 H700 H 0.75840 0.32629 0.94327
 H701 H 0.76302 0.42221 0.93930
 H702 H 0.80763 0.44024 0.90515
 C703 C 0.57971 0.08978 0.82406
 C704 C 0.59528 0.11917 0.83977
 C705 C 0.57713 0.12712 0.85880
 C706 C 0.54314 0.10530 0.86197
 C707 C 0.52776 0.07576 0.84670
 C708 C 0.54590 0.06768 0.82771
 N709 N 0.59371 0.15664 0.87547
 N710 N 0.57754 0.16772 0.88924
 C711 C 0.59313 0.19595 0.90742
 C712 C 0.57417 0.20962 0.91813
 C713 C 0.58791 0.23583 0.93733
 C714 C 0.62082 0.24844 0.94655
 C715 C 0.63997 0.23491 0.93550
 C716 C 0.62630 0.20900 0.91595
 H717 H 0.59414 0.08391 0.80957
 H718 H 0.62151 0.13571 0.83721
 H719 H 0.52860 0.11074 0.87666
 H720 H 0.50160 0.05912 0.84969
 H721 H 0.54852 0.19963 0.91181
 H722 H 0.57249 0.24561 0.94553
 H723 H 0.66544 0.24421 0.94211
 H724 H 0.64136 0.19866 0.90807
   
