data_POSCAR
  _audit_creation_date              2014-09-24
  _audit_creation_method            'ToBaCCo'
  _symmetry_space_group_name_H-M    'P1'
  _symmetry_Int_Tables_number       1
  _symmetry_cell_setting            triclinic
  loop_
  _symmetry_equiv_pos_as_xyz
 x,y,z
_cell_length_a 19.8549
_cell_length_b 19.9365
_cell_length_c 38.3407
_cell_angle_alpha 87.864800
_cell_angle_beta 90.205400
_cell_angle_gamma 119.694900
loop_
  _atom_site_label
  _atom_site_type_symbol
  _atom_site_fract_x
  _atom_site_fract_y
  _atom_site_fract_z
C1 C 0.03442 0.14896 0.52650
 H2 H 0.08597 0.16973 0.51052
 C3 C 0.02701 0.20077 0.54729
 H4 H 0.07253 0.26069 0.54676
 C5 C -0.08707 0.04669 0.54693
 H6 H -0.13064 -0.01385 0.54723
 C7 C -0.09747 0.09724 0.56778
 H8 H -0.14929 0.07554 0.58393
 N9 N -0.02121 0.07298 0.52716
 C10 C 0.05330 -0.09919 0.52003
 H11 H 0.08096 -0.08319 0.49452
 C12 C 0.04646 -0.16433 0.53819
 H13 H 0.06783 -0.19815 0.52580
 C14 C -0.01158 -0.07656 0.56576
 H15 H -0.03610 -0.04370 0.57617
 C16 C -0.01781 -0.14005 0.58526
 H17 H -0.04489 -0.15291 0.61090
 Zn18 Zn 0.00102 0.00531 0.50178
 N19 N 0.02029 -0.05955 0.53305
 C20 C 0.16114 0.10193 0.48513
 N21 N 0.08805 0.06668 0.47236
 C22 C 0.07358 0.08320 0.43942
 C23 C 0.13343 0.13897 0.41825
 C24 C 0.22283 0.15908 0.46491
 C25 C -0.15204 -0.06501 0.47114
 C26 C -0.21236 -0.12296 0.45239
 C27 C -0.12678 -0.17150 0.43770
 C28 C -0.06821 -0.11171 0.45564
 N29 N -0.08226 -0.06206 0.47329
 H30 H 0.17069 0.08886 0.51171
 H31 H 0.01483 0.05542 0.43005
 H32 H 0.12011 0.15165 0.39226
 H33 H 0.27971 0.18923 0.47627
 H34 H -0.16180 -0.02380 0.48455
 H35 H -0.26801 -0.12540 0.45259
 H36 H -0.11147 -0.20856 0.42394
 H37 H -0.01118 -0.10556 0.45568
 C38 C 0.00727 -0.18785 0.57068
 C39 C -0.03891 0.17486 0.56861
 C40 C -0.20175 -0.18029 0.43656
 C41 C 0.20901 0.17949 0.43119
 C42 C 1.13696 0.07709 0.12427
 H43 H 1.13669 0.13086 0.12670
 C44 C 1.19389 0.07533 0.10390
 H45 H 1.23638 0.12855 0.09107
 C46 C 1.08211 -0.05587 0.14004
 H47 H 1.03884 -0.10645 0.15460
 C48 C 1.13799 -0.06037 0.11964
 H49 H 1.13528 -0.11571 0.11801
 N50 N 1.08302 0.01244 0.14202
 C51 C 0.89938 0.06755 0.16017
 H52 H 0.90222 0.07618 0.18794
 C53 C 0.83902 0.06695 0.14087
 H54 H 0.79638 0.07673 0.15374
 C55 C 0.94738 0.03768 0.11002
 H56 H 0.98755 0.02313 0.09827
 C57 C 0.88758 0.03522 0.09005
 H58 H 0.88385 0.02106 0.06284
 Zn59 Zn 1.01757 0.02893 0.17185
 N60 N 0.95147 0.05214 0.14459
 C61 C 1.08614 0.17666 0.20479
 N62 N 1.08593 0.10928 0.20025
 C63 C 1.14191 0.09668 0.21404
 C64 C 1.20169 0.15290 0.23296
 C65 C 1.14461 0.23449 0.22428
 C66 C 0.89033 -0.11785 0.18419
 C67 C 0.83095 -0.17778 0.20420
 C68 C 0.90142 -0.11927 0.25627
 C69 C 0.95876 -0.05960 0.23531
 N70 N 0.95179 -0.05954 0.19998
 H71 H 1.04185 0.18609 0.19297
 H72 H 1.14126 0.04319 0.20936
 H73 H 1.24697 0.14154 0.24177
 H74 H 1.14287 0.28703 0.22756
 H75 H 0.88562 -0.11572 0.15610
 H76 H 0.78133 -0.22276 0.19134
 H77 H 0.90653 -0.11751 0.28439
 H78 H 1.00697 -0.01188 0.24746
 C79 C 0.83157 0.04829 0.10560
 C80 C 1.19605 0.00626 0.10155
 C81 C 0.83563 -0.17804 0.24071
 C82 C 1.20395 0.22325 0.23875
 C83 C 0.06215 0.93048 0.88142
 H84 H 0.00648 0.87861 0.87933
 C85 C 0.11990 0.92849 0.90130
 H86 H 0.10760 0.87389 0.91368
 C87 C 0.14552 1.06205 0.86494
 H88 H 0.15537 1.11343 0.85013
 C89 C 0.20501 1.06298 0.88507
 H90 H 0.25941 1.11622 0.88574
 N91 N 0.07587 0.99618 0.86354
 C92 C -0.16419 0.93875 0.85164
 H93 H -0.17556 0.92298 0.82471
 C94 C -0.22314 0.93587 0.87262
 H95 H -0.27952 0.91640 0.86131
 C96 C -0.07448 0.99099 0.89731
 H97 H -0.01595 1.01429 0.90659
 C98 C -0.13043 0.99245 0.91857
 H99 H -0.11416 1.01432 0.94449
 Zn100 Zn -0.00736 0.98316 0.83525
 N101 N -0.09193 0.96460 0.86448
 C102 C -0.09530 0.83411 0.80382
 N103 N -0.02645 0.90045 0.80660
 C104 C 0.03837 0.91078 0.78988
 C105 C 0.03614 0.85316 0.76971
 C106 C -0.10065 0.77558 0.78293
 C107 C 0.02905 1.13676 0.82324
 C108 C 0.02623 1.19672 0.80450
 C109 C -0.00291 1.12258 0.75262
 C110 C 0.00091 1.06426 0.77229
 N111 N 0.01454 1.07145 0.80712
 H112 H -0.14594 0.82584 0.81792
 H113 H 0.09272 0.96361 0.79302
 H114 H 0.08976 0.86278 0.75826
 H115 H -0.15668 0.72448 0.78046
 H116 H 0.03782 1.14015 0.85113
 H117 H 0.03388 1.24654 0.81816
 H118 H -0.01662 1.11466 0.72520
 H119 H -0.01211 1.01124 0.76012
 C120 C -0.20647 0.96448 0.90654
 C121 C 0.19295 0.99529 0.90357
 C122 C 0.00705 1.18863 0.76901
 C123 C -0.03397 0.78405 0.76575
 C124 C 0.43951 -0.01088 -0.01584
 C125 C 0.44060 -0.00225 0.02076
 C126 C 0.50503 0.00646 0.03965
 C127 C 0.56691 0.00387 0.02339
 C128 C 0.56380 -0.00889 -0.01297
 C129 C 0.50097 -0.01420 -0.03198
 H130 H 0.49937 -0.02197 -0.05987
 H131 H 0.50681 0.01483 0.06750
 C132 C -0.04252 0.41144 0.65166
 C133 C -0.03754 0.41546 0.68844
 C134 C -0.03647 0.47836 0.70426
 C135 C -0.03851 0.53799 0.68453
 C136 C -0.04008 0.53551 0.64765
 C137 C -0.04291 0.47178 0.63184
 H138 H -0.04522 0.46916 0.60362
 H139 H -0.03421 0.48092 0.73247
 C140 C 0.57354 0.58364 0.32261
 C141 C 0.56717 0.57560 0.35942
 C142 C 0.50625 0.50857 0.37532
 C143 C 0.45010 0.44997 0.35534
 C144 C 0.45413 0.45954 0.31843
 C145 C 0.51565 0.52639 0.30267
 H146 H 0.52061 0.53189 0.27444
 H147 H 0.50245 0.50200 0.40357
 C148 C 0.01457 0.27427 0.61416
 C149 C -0.04504 0.22903 0.59182
 C150 C -0.10915 0.24174 0.59122
 C151 C -0.10917 0.30049 0.61117
 C152 C -0.04599 0.34647 0.63279
 C153 C 0.01374 0.32913 0.63384
 C154 C 0.09321 0.35593 0.64715
 C155 C 0.09418 0.29372 0.62486
 H156 H -0.15749 0.20872 0.57439
 H157 H -0.15783 0.31068 0.60932
 H158 H 0.09321 0.34359 0.67563
 H159 H 0.13502 0.41597 0.63784
 H160 H 0.09457 0.24587 0.64052
 H161 H 0.13683 0.31828 0.60281
 C162 C 0.69424 0.74319 0.25632
 C163 C 0.77081 0.76268 0.26251
 C164 C 0.78255 0.72258 0.29102
 C165 C 0.71874 0.66495 0.31116
 C166 C 0.64173 0.64762 0.30403
 C167 C 0.63345 0.68927 0.27603
 C168 C 0.57520 0.70015 0.25579
 C169 C 0.64419 0.76164 0.23353
 H170 H 0.84051 0.73405 0.29711
 H171 H 0.72971 0.63251 0.33136
 H172 H 0.54638 0.72447 0.27173
 H173 H 0.53556 0.64831 0.24119
 H174 H 0.65526 0.82144 0.23669
 H175 H 0.64395 0.74510 0.20615
 C176 C 0.33402 0.03354 -0.08733
 C177 C 0.25587 -0.00852 -0.07641
 C178 C 0.23815 -0.06271 -0.04803
 C179 C 0.29704 -0.06800 -0.02968
 C180 C 0.37561 -0.01728 -0.03828
 C181 C 0.39176 0.02825 -0.06906
 C182 C 0.45068 0.11054 -0.07665
 C183 C 0.38730 0.11782 -0.09578
 H184 H 0.17911 -0.09888 -0.03868
 H185 H 0.28122 -0.10833 -0.00746
 H186 H 0.49776 0.11642 -0.09429
 H187 H 0.47070 0.14482 -0.05282
 H188 H 0.39928 0.13046 -0.12428
 H189 H 0.37022 0.15572 -0.08232
 C190 C 0.02866 0.69772 0.57919
 C191 C -0.01178 0.73610 0.58783
 C192 C -0.07524 0.69616 0.61158
 C193 C -0.08809 0.62795 0.62981
 C194 C -0.03800 0.59799 0.62466
 C195 C 0.01549 0.63035 0.59690
 C196 C 0.09870 0.65150 0.59471
 C197 C 0.11364 0.72604 0.57562
 H198 H -0.11382 0.71826 0.61710
 H199 H -0.13445 0.60118 0.64918
 H200 H 0.10771 0.61233 0.57787
 H201 H 0.12635 0.66047 0.62065
 H202 H 0.13236 0.72984 0.54799
 H203 H 0.14938 0.77856 0.59062
 C204 C 0.29995 0.36366 0.25048
 C205 C 0.27019 0.28432 0.25820
 C206 C 0.31223 0.26451 0.28248
 C207 C 0.37591 0.32145 0.30014
 C208 C 0.39753 0.39990 0.29539
 C209 C 0.36245 0.41961 0.26831
 C210 C 0.33207 0.47441 0.26743
 C211 C 0.26225 0.41286 0.24885
 H212 H 0.29426 0.20487 0.28938
 H213 H 0.40503 0.30358 0.31911
 H214 H 0.36854 0.52674 0.25056
 H215 H 0.31828 0.48601 0.29381
 H216 H 0.25723 0.43086 0.22162
 H217 H 0.20824 0.38829 0.26506
 C218 C 0.75769 0.02130 -0.04624
 C219 C 0.73668 -0.03338 -0.07214
 C220 C 0.65649 -0.08637 -0.07520
 C221 C 0.60086 -0.08000 -0.05503
 C222 C 0.62317 -0.01920 -0.03198
 C223 C 0.70261 0.02926 -0.02757
 C224 C 0.74971 0.11504 -0.02812
 C225 C 0.81052 0.10704 -0.04866
 H226 H 0.63611 -0.13331 -0.09290
 H227 H 0.54010 -0.12150 -0.05824
 H228 H 0.76910 0.13724 -0.00166
 H229 H 0.72248 0.14349 -0.04346
 H230 H 0.86485 0.12508 -0.03399
 H231 H 0.81900 0.13123 -0.07593
 C232 C 0.28796 0.04745 0.04911
 C233 C 0.25736 0.00295 0.08034
 C234 C 0.28327 -0.04986 0.08952
 C235 C 0.34154 -0.05264 0.06979
 C236 C 0.37548 -0.00314 0.04012
 C237 C 0.34451 0.04362 0.02952
 C238 C 0.38408 0.12666 0.01834
 C239 C 0.32421 0.13251 0.04053
 H240 H 0.26135 -0.08683 0.11287
 H241 H 0.36160 -0.09206 0.07829
 H242 H 0.37768 0.13514 -0.01001
 H243 H 0.44412 0.15953 0.02827
 H244 H 0.28542 0.14691 0.02494
 H245 H 0.35085 0.16865 0.06344
 C246 C 0.67069 0.75760 0.41048
 C247 C 0.73866 0.75768 0.42138
 C248 C 0.74037 0.68798 0.41657
 C249 C 0.68258 0.62742 0.39786
 C250 C 0.62299 0.63544 0.38217
 C251 C 0.61507 0.69852 0.39101
 C252 C 0.60007 0.75221 0.36864
 C253 C 0.66106 0.81726 0.38959
 H254 H 0.78558 0.67870 0.42741
 H255 H 0.68696 0.57616 0.39398
 H256 H 0.54063 0.74289 0.37286
 H257 H 0.61760 0.75516 0.34091
 H258 H 0.63650 0.84579 0.40548
 H259 H 0.71395 0.85743 0.37399
 C260 C 0.03096 0.32363 0.75756
 C261 C -0.00941 0.24519 0.75023
 C262 C -0.07084 0.22125 0.72639
 C263 C -0.08331 0.27593 0.70740
 C264 C -0.03362 0.35575 0.71133
 C265 C 0.01919 0.37733 0.73864
 C266 C 0.10279 0.43744 0.73956
 C267 C 0.11597 0.37816 0.76004
 H268 H -0.10820 0.16054 0.72180
 H269 H -0.12965 0.25579 0.68872
 H270 H 0.11230 0.48709 0.75524
 H271 H 0.13113 0.45342 0.71329
 H272 H 0.13381 0.39419 0.78737
 H273 H 0.15134 0.35891 0.74551
 C274 C 0.72674 -0.02396 0.06328
 C275 C 0.76431 0.03852 0.08506
 C276 C 0.73886 0.09319 0.08477
 C277 C 0.67443 0.08191 0.06479
 C278 C 0.63374 0.01539 0.04501
 C279 C 0.66259 -0.03578 0.04437
 C280 C 0.62269 -0.12115 0.05050
 C281 C 0.69310 -0.10852 0.07138
 H282 H 0.76840 0.14421 0.10005
 H283 H 0.65606 0.12477 0.06498
 H284 H 0.61639 -0.15158 0.02596
 H285 H 0.56887 -0.14358 0.06666
 H286 H 0.72710 -0.13201 0.05891
 H287 H 0.68019 -0.12383 0.09970
 C288 C 0.25347 0.28708 0.38544
 C289 C 0.27140 0.24442 0.40991
 C290 C 0.35046 0.26609 0.41322
 C291 C 0.40865 0.33290 0.39540
 C292 C 0.38914 0.37909 0.37364
 C293 C 0.31061 0.35238 0.36777
 C294 C 0.26543 0.39362 0.36951
 C295 C 0.20269 0.32216 0.38904
 H296 H 0.36777 0.23287 0.43016
 H297 H 0.46890 0.34932 0.39911
 H298 H 0.24696 0.40329 0.34331
 H299 H 0.29372 0.44540 0.38569
 H300 H 0.14840 0.29138 0.37404
 H301 H 0.19453 0.33225 0.41665
 C302 C 0.01762 0.73491 0.71819
 C303 C -0.03706 0.72120 0.74451
 C304 C -0.09518 0.64249 0.75011
 C305 C -0.09638 0.58337 0.73016
 C306 C -0.03992 0.60048 0.70375
 C307 C 0.01563 0.67805 0.69876
 C308 C 0.08834 0.73120 0.67909
 C309 C 0.09094 0.79563 0.70070
 H310 H -0.13868 0.62537 0.77052
 H311 H -0.14108 0.52407 0.73567
 H312 H 0.07876 0.73849 0.65109
 H313 H 0.13587 0.71852 0.68493
 H314 H 0.08229 0.83874 0.68503
 H315 H 0.14126 0.82004 0.71841
   
