data_POSCAR
  _audit_creation_date              2014-09-24
  _audit_creation_method            'ToBaCCo'
  _symmetry_space_group_name_H-M    'P1'
  _symmetry_Int_Tables_number       1
  _symmetry_cell_setting            triclinic
  loop_
  _symmetry_equiv_pos_as_xyz
 x,y,z
_cell_length_a 55.5414
_cell_length_b 56.0784
_cell_length_c 24.5714
_cell_angle_alpha 89.760700
_cell_angle_beta 89.672200
_cell_angle_gamma 119.578400
loop_
  _atom_site_label
  _atom_site_type_symbol
  _atom_site_fract_x
  _atom_site_fract_y
  _atom_site_fract_z
C1 C 0.20662 0.52809 0.49833
 C2 C 0.22250 0.53860 0.45041
 C3 C 0.25160 0.55258 0.45469
 C4 C 0.26454 0.55381 0.50484
 C5 C 0.24788 0.54369 0.55207
 C6 C 0.21889 0.53094 0.54950
 C7 C 0.29462 0.56188 0.50708
 C8 C 0.30968 0.57108 0.55605
 C9 C 0.33562 0.57260 0.56187
 C10 C 0.34735 0.56676 0.51668
 C11 C 0.33345 0.55893 0.46712
 C12 C 0.30722 0.55643 0.46247
 H13 H 0.18439 0.51948 0.49624
 H14 H 0.26414 0.56076 0.41831
 H15 H 0.25714 0.54347 0.59050
 H16 H 0.30086 0.57606 0.59057
 H17 H 0.36676 0.56675 0.52054
 H18 H 0.29598 0.54808 0.42517
 C19 C 0.47270 -0.32170 0.50999
 C20 C 0.46666 -0.31351 0.46006
 C21 C 0.45617 -0.29514 0.46104
 C22 C 0.45461 -0.28285 0.51022
 C23 C 0.46089 -0.29178 0.55922
 C24 C 0.46948 -0.31146 0.55981
 C25 C 0.44976 -0.25866 0.51049
 C26 C 0.44247 -0.25027 0.55924
 C27 C 0.44392 -0.22470 0.56278
 C28 C 0.45022 -0.20816 0.51646
 C29 C 0.45612 -0.21648 0.46695
 C30 C 0.45609 -0.24148 0.46411
 H31 H 0.47820 -0.33773 0.51032
 H32 H 0.45102 -0.28906 0.42309
 H33 H 0.46155 -0.28187 0.59713
 H34 H 0.43694 -0.26269 0.59580
 H35 H 0.45189 -0.18811 0.51964
 H36 H 0.46300 -0.24615 0.42650
 C37 C 1.31979 0.79790 0.49810
 C38 C 1.31454 0.78257 0.45025
 C39 C 1.29758 0.75384 0.45388
 C40 C 1.28274 0.74113 0.50245
 C41 C 1.28825 0.75750 0.54933
 C42 C 1.30700 0.78564 0.54740
 C43 C 1.25849 0.71242 0.50218
 C44 C 1.24727 0.69759 0.55131
 C45 C 1.22010 0.67510 0.55332
 C46 C 1.20579 0.66522 0.50418
 C47 C 1.21777 0.67771 0.45443
 C48 C 1.24367 0.70146 0.45368
 H49 H 1.33434 0.81973 0.49740
 H50 H 1.29409 0.74180 0.41763
 H51 H 1.27691 0.74915 0.58689
 H52 H 1.25844 0.70505 0.58892
 H53 H 1.18529 0.64731 0.50436
 H54 H 1.25093 0.71211 0.41520
 C55 C 0.77050 0.40704 0.49364
 C56 C 0.75597 0.40419 0.44567
 C57 C 0.73025 0.40314 0.44800
 C58 C 0.72015 0.40801 0.49732
 C59 C 0.73540 0.41107 0.54514
 C60 C 0.76037 0.41049 0.54360
 C61 C 0.69714 0.41494 0.49739
 C62 C 0.68345 0.41500 0.54636
 C63 C 0.66767 0.42847 0.54906
 C64 C 0.66254 0.43839 0.50040
 C65 C 0.67404 0.43671 0.45101
 C66 C 0.69157 0.42551 0.44969
 H67 H 0.79074 0.40863 0.49140
 H68 H 0.71950 0.40066 0.41013
 H69 H 0.72962 0.41653 0.58318
 H70 H 0.68695 0.40675 0.58337
 H71 H 0.64915 0.44736 0.50051
 H72 H 0.70204 0.42696 0.41164
 C73 C 0.54390 0.33544 0.49257
 C74 C 0.55135 0.32824 0.44337
 C75 C 0.56186 0.31011 0.44392
 C76 C 0.56255 0.29695 0.49256
 C77 C 0.55516 0.30479 0.54169
 C78 C 0.54620 0.32436 0.54256
 C79 C 0.56768 0.27300 0.49131
 C80 C 0.57519 0.26387 0.53868
 C81 C 0.57467 0.23832 0.54064
 C82 C 0.57048 0.22416 0.49093
 C83 C 0.56476 0.23381 0.44306
 C84 C 0.56237 0.25738 0.44375
 H85 H 0.53725 0.35062 0.49141
 H86 H 0.56818 0.30545 0.40559
 H87 H 0.55411 0.29411 0.57905
 H88 H 0.58137 0.27675 0.57411
 H89 H 0.56931 0.20439 0.48875
 H90 H 0.55531 0.26258 0.40703
 C91 C 0.64858 0.22181 0.51475
 C92 C 0.65921 0.22939 0.46185
 C93 C 0.68409 0.25420 0.45383
 C94 C 0.70036 0.26937 0.49873
 C95 C 0.69012 0.25927 0.55171
 C96 C 0.66435 0.23583 0.55959
 C97 C 0.72940 0.29300 0.49089
 C98 C 0.74365 0.31103 0.53437
 C99 C 0.77246 0.32929 0.53154
 C100 C 0.78574 0.33268 0.48096
 C101 C 0.77220 0.31576 0.43706
 C102 C 0.74433 0.29580 0.44217
 H103 H 0.62936 0.20286 0.52159
 H104 H 0.69137 0.26030 0.41261
 H105 H 0.70277 0.26786 0.58728
 H106 H 0.73283 0.30934 0.57194
 H107 H 0.80722 0.34829 0.47546
 H108 H 0.73526 0.28175 0.40883
 O109 O 0.95610 0.42981 0.08851
 O110 O 0.92622 0.43566 0.03340
 C111 C 0.93138 0.42289 0.07173
 O112 O 1.02713 0.55237 0.10255
 O113 O 1.06156 0.54960 0.05599
 C114 C 1.05301 0.56027 0.09291
 O115 O 0.95057 0.50764 0.09825
 O116 O 0.92337 0.47314 0.03968
 C117 C 0.92667 0.48846 0.08164
 O118 O 1.03333 0.46968 0.09606
 O119 O 1.06456 0.50967 0.05321
 C120 C 1.05832 0.48974 0.08757
 Zr121 Zr 0.99517 0.46252 0.06378
 O122 O 0.99381 0.45899 0.14976
 O123 O 0.99710 0.42607 0.05424
 Zr124 Zr 0.99079 0.52072 0.06749
 O125 O 0.98915 0.52250 0.15319
 O126 O 0.98492 0.55523 0.06199
 O127 O 0.96826 0.47804 0.07299
 O128 O 1.01634 0.50406 0.07952
 O129 O 1.04142 0.47675 -0.09368
 O130 O 1.06856 0.51366 -0.03998
 C131 C 1.06534 0.49605 -0.07741
 O132 O 0.95945 0.51472 -0.10922
 O133 O 0.92756 0.47732 -0.06059
 C134 C 0.93439 0.49503 -0.10007
 O135 O 1.03520 0.55911 -0.09006
 O136 O 1.06565 0.55311 -0.03698
 C137 C 1.06006 0.56607 -0.07437
 O138 O 0.96472 0.43851 -0.11174
 O139 O 0.93027 0.44016 -0.06308
 C140 C 0.93886 0.43099 -0.10270
 Zr141 Zr 1.00094 0.46755 -0.07166
 O142 O 1.00758 0.47046 -0.15689
 O143 O 1.00040 0.42952 -0.07051
 Zr144 Zr 0.99647 0.52573 -0.06736
 O145 O 1.00163 0.53473 -0.15161
 O146 O 0.98986 0.55953 -0.05666
 Zr147 Zr 0.95446 0.47172 -0.00820
 Zr148 Zr 1.03730 0.51645 0.00411
 O149 O 1.02287 0.50981 -0.07647
 O150 O 0.97505 0.48398 -0.08416
 O151 O 1.02334 0.47408 -0.00045
 O152 O 0.96859 0.51401 -0.00337
 O153 O 0.97395 0.44771 -0.00802
 O154 O 1.01844 0.54123 0.00406
 H155 H 1.02693 0.50922 0.11386
 H156 H 0.95433 0.51974 -0.00447
 H157 H 1.03615 0.51727 -0.10734
 H158 H 0.96227 0.42756 -0.01140
 H159 H 1.00305 0.57140 0.05293
 H160 H 1.00754 0.57529 -0.04476
 H161 H 1.00388 0.52007 -0.16893
 H162 H 0.99503 0.47636 -0.17283
 H163 H 1.01576 0.43164 -0.04705
 H164 H 0.99589 0.41863 0.09143
 H165 H 0.97814 0.46121 0.16280
 H166 H 0.98715 0.50508 0.16719
 O167 O 0.44985 0.49067 0.09975
 O168 O 0.46203 0.53031 0.05218
 C169 C 0.44795 0.51245 0.08987
 O170 O 0.56701 0.51534 0.09765
 O171 O 0.55515 0.47860 0.04177
 C172 C 0.56946 0.49466 0.08105
 O173 O 0.53581 0.56102 0.11144
 O174 O 0.50364 0.56434 0.05876
 C175 C 0.52008 0.57146 0.10015
 O176 O 0.47445 0.43999 0.08650
 O177 O 0.51099 0.44279 0.03735
 C178 C 0.49130 0.43108 0.07334
 Zr179 Zr 0.47445 0.47625 0.06198
 O180 O 0.46719 0.46745 0.14615
 O181 O 0.43395 0.44459 0.04511
 Zr182 Zr 0.54011 0.52976 0.07208
 O183 O 0.54110 0.52591 0.15762
 O184 O 0.57965 0.56538 0.07346
 O185 O 0.49831 0.51770 0.08046
 O186 O 0.51555 0.48765 0.07504
 O187 O 0.47982 0.44892 -0.10689
 O188 O 0.51326 0.44651 -0.05666
 C189 C 0.49518 0.43809 -0.09545
 O190 O 0.54210 0.57064 -0.09157
 O191 O 0.50705 0.56927 -0.03948
 C192 C 0.52566 0.57989 -0.07773
 O193 O 0.57217 0.52418 -0.09365
 O194 O 0.55741 0.48270 -0.05141
 C195 C 0.57355 0.50204 -0.08498
 O196 O 0.45913 0.50321 -0.11011
 O197 O 0.46560 0.53574 -0.04675
 C198 C 0.45605 0.52337 -0.09254
 Zr199 Zr 0.47832 0.48276 -0.07283
 O200 O 0.47537 0.48008 -0.15853
 O201 O 0.43603 0.45214 -0.06996
 Zr202 Zr 0.54408 0.53612 -0.06312
 O203 O 0.54955 0.54055 -0.14855
 O204 O 0.58352 0.57100 -0.05150
 Zr205 Zr 0.49444 0.53235 0.00366
 Zr206 Zr 0.52412 0.48013 -0.00469
 O207 O 0.51995 0.49493 -0.08084
 O208 O 0.50308 0.52519 -0.07639
 O209 O 0.48046 0.45956 -0.00865
 O210 O 0.53789 0.55221 0.00758
 O211 O 0.46280 0.49135 -0.00372
 O212 O 0.55607 0.52118 0.00272
 H213 H 0.51920 0.47890 0.10663
 H214 H 0.54796 0.57244 0.01110
 H215 H 0.52517 0.48896 -0.11463
 H216 H 0.44355 0.48804 -0.00491
 H217 H 0.59312 0.56057 0.05771
 H218 H 0.59602 0.56451 -0.03777
 H219 H 0.53144 0.53614 -0.16411
 H220 H 0.49383 0.49343 -0.17317
 H221 H 0.43530 0.43452 -0.06156
 H222 H 0.42510 0.43723 0.08097
 H223 H 0.48502 0.47893 0.16446
 H224 H 0.52253 0.52114 0.17173
 O225 O 0.55645 0.03822 -0.09744
 O226 O 0.55092 0.07021 -0.04952
 C227 C 0.56290 0.06338 -0.08683
 O228 O 0.43389 -0.03352 -0.10392
 O229 O 0.43726 -0.06430 -0.04733
 C230 C 0.42599 -0.05836 -0.08732
 O231 O 0.48262 0.04216 -0.11961
 O232 O 0.51419 0.07264 -0.05973
 C233 C 0.50149 0.06671 -0.10599
 O234 O 0.51708 -0.03882 -0.08680
 O235 O 0.47653 -0.06682 -0.04094
 C236 C 0.49621 -0.06280 -0.07477
 Zr237 Zr 0.52515 0.00082 -0.06294
 O238 O 0.53036 -0.00238 -0.14742
 O239 O 0.56195 0.00002 -0.04563
 Zr240 Zr 0.46600 0.00466 -0.07579
 O241 O 0.46183 0.00104 -0.16122
 O242 O 0.43201 0.01188 -0.07561
 O243 O 0.50900 0.02624 -0.08115
 O244 O 0.48311 -0.02081 -0.07856
 O245 O 0.51094 -0.03595 0.10433
 O246 O 0.47431 -0.06548 0.05193
 C247 C 0.49166 -0.06041 0.09122
 O248 O 0.47124 0.04474 0.09133
 O249 O 0.50958 0.07352 0.04062
 C250 C 0.49135 0.06892 0.07846
 O251 O 0.42750 -0.03157 0.08832
 O252 O 0.43488 -0.06352 0.04482
 C253 C 0.42137 -0.05673 0.07871
 O254 O 0.54927 0.04110 0.10539
 O255 O 0.54747 0.07205 0.04657
 C256 C 0.55675 0.06601 0.08972
 Zr257 Zr 0.52029 0.00274 0.07210
 O258 O 0.51893 0.00123 0.15818
 O259 O 0.55798 0.00205 0.07096
 Zr260 Zr 0.46084 0.00606 0.05924
 O261 O 0.45212 0.00540 0.14320
 O262 O 0.42629 0.01114 0.04237
 Zr263 Zr 0.51532 0.04448 -0.00377
 Zr264 Zr 0.47089 -0.03719 0.00042
 O265 O 0.47758 -0.01882 0.07744
 O266 O 0.50312 0.02836 0.07556
 O267 O 0.51360 -0.02333 0.00692
 O268 O 0.47263 0.03023 -0.01055
 O269 O 0.54014 0.02599 0.00409
 O270 O 0.44540 -0.01927 -0.00791
 H271 H 0.47768 -0.03308 -0.11046
 H272 H 0.46712 0.04448 -0.01446
 H273 H 0.47030 -0.03021 0.11083
 H274 H 0.56046 0.03817 0.00621
 H275 H 0.41524 -0.00576 -0.06681
 H276 H 0.41066 -0.00707 0.03288
 H277 H 0.46794 0.00598 0.16254
 H278 H 0.51149 0.01315 0.17024
 H279 H 0.56352 0.00314 0.10951
 H280 H 0.57011 -0.00019 -0.08145
 H281 H 0.52176 0.00719 -0.16603
 H282 H 0.47767 -0.00068 -0.17492
 C283 C 1.20468 0.55033 0.30928
 C284 C 1.17841 0.52677 0.30160
 C285 C 1.16880 0.50623 0.34259
 C286 C 1.18372 0.51023 0.39064
 C287 C 1.20898 0.53438 0.39955
 C288 C 1.21978 0.55385 0.35705
 C289 C 1.14402 0.48181 0.33617
 C290 C 1.12793 0.47744 0.29052
 C291 C 1.13567 0.49772 0.24957
 C292 C 1.16120 0.52293 0.25534
 C293 C 1.16801 0.54377 0.21594
 C294 C 1.15008 0.54052 0.17364
 C295 C 1.12493 0.51627 0.16811
 C296 C 1.11796 0.49409 0.20454
 C297 C 1.09309 0.46933 0.19510
 C298 C 1.07471 0.46770 0.15507
 C299 C 1.08045 0.49043 0.12231
 C300 C 1.10623 0.51436 0.12750
 H301 H 1.21412 0.56646 0.27922
 H302 H 1.17571 0.49392 0.42092
 H303 H 1.23922 0.57270 0.36165
 H304 H 1.13673 0.46591 0.36725
 H305 H 1.10882 0.45824 0.28986
 H306 H 1.18665 0.56338 0.21789
 H307 H 1.15586 0.55733 0.14523
 H308 H 1.08697 0.45085 0.21828
 H309 H 1.05541 0.44862 0.15103
 H310 H 1.11123 0.53198 0.10180
 C311 C 0.46054 0.66075 0.31706
 C312 C 0.48208 0.65409 0.31471
 C313 C 0.49952 0.66071 0.36048
 C314 C 0.49437 0.67161 0.40737
 C315 C 0.47209 0.67684 0.41065
 C316 C 0.45588 0.67217 0.36392
 C317 C 0.52205 0.65624 0.35985
 C318 C 0.52745 0.64464 0.31516
 C319 C 0.51012 0.63645 0.26923
 C320 C 0.48690 0.64105 0.26905
 C321 C 0.46885 0.63162 0.22418
 C322 C 0.47297 0.61775 0.18151
 C323 C 0.49537 0.61299 0.18132
 C324 C 0.51467 0.62286 0.22443
 C325 C 0.53747 0.61815 0.22139
 C326 C 0.53973 0.60255 0.17976
 C327 C 0.51976 0.59148 0.13898
 C328 C 0.49812 0.59762 0.13901
 H329 H 0.44690 0.65737 0.28342
 H330 H 0.50852 0.67677 0.44117
 H331 H 0.43854 0.67591 0.36412
 H332 H 0.53561 0.66156 0.39466
 H333 H 0.54507 0.64165 0.31888
 H334 H 0.45073 0.63389 0.22156
 H335 H 0.45820 0.61036 0.14857
 H336 H 0.55382 0.62585 0.25082
 H337 H 0.55698 0.59864 0.18031
 H338 H 0.48266 0.58945 0.10736
 C339 C 0.34240 -0.20004 0.30731
 C340 C 0.34479 -0.17387 0.29959
 C341 C 0.33511 -0.16375 0.34210
 C342 C 0.32559 -0.17818 0.39123
 C343 C 0.32428 -0.20363 0.39961
 C344 C 0.33193 -0.21479 0.35612
 C345 C 0.33498 -0.13913 0.33584
 C346 C 0.34486 -0.12377 0.28852
 C347 C 0.35607 -0.13207 0.24577
 C348 C 0.35648 -0.15731 0.25166
 C349 C 0.36965 -0.16446 0.21066
 C350 C 0.38275 -0.14717 0.16645
 C351 C 0.38266 -0.12244 0.16050
 C352 C 0.36831 -0.11511 0.19878
 C353 C 0.36763 -0.09052 0.18926
 C354 C 0.38329 -0.07251 0.14756
 C355 C 0.39964 -0.07859 0.11310
 C356 C 0.39799 -0.10433 0.11794
 H357 H 0.34819 -0.20981 0.27623
 H358 H 0.31804 -0.16984 0.42246
 H359 H 0.33111 -0.23439 0.36040
 H360 H 0.32730 -0.13149 0.36816
 H361 H 0.34446 -0.10478 0.28790
 H362 H 0.37130 -0.18279 0.21286
 H363 H 0.39353 -0.15299 0.13710
 H364 H 0.35570 -0.08423 0.21394
 H365 H 0.38348 -0.05317 0.14383
 H366 H 0.41009 -0.10958 0.09082
 C367 C 0.78524 0.39706 0.31065
 C368 C 0.80356 0.42493 0.29638
 C369 C 0.80511 0.44531 0.33244
 C370 C 0.78887 0.43799 0.37990
 C371 C 0.77119 0.41049 0.39346
 C372 C 0.76934 0.39002 0.35870
 C373 C 0.82319 0.47296 0.32162
 C374 C 0.84096 0.48102 0.27708
 C375 C 0.84111 0.46163 0.24086
 C376 C 0.82103 0.43329 0.24886
 C377 C 0.81913 0.41440 0.20904
 C378 C 0.83749 0.42251 0.16515
 C379 C 0.85895 0.44954 0.15988
 C380 C 0.86088 0.46960 0.19726
 C381 C 0.88336 0.49660 0.19090
 C382 C 0.90368 0.50291 0.15113
 C383 C 0.90225 0.48281 0.11561
 C384 C 0.87916 0.45638 0.11877
 H385 H 0.78334 0.38027 0.28643
 H386 H 0.79035 0.45379 0.40730
 H387 H 0.75595 0.36862 0.36914
 H388 H 0.82404 0.48860 0.34862
 H389 H 0.85422 0.50279 0.27188
 H390 H 0.80333 0.39314 0.21040
 H391 H 0.83526 0.40729 0.13572
 H392 H 0.88674 0.51309 0.21771
 H393 H 0.92122 0.52353 0.14952
 H394 H 0.87787 0.44064 0.09162
 C395 C 0.56033 0.35805 0.30064
 C396 C 0.53425 0.35620 0.29132
 C397 C 0.51409 0.34478 0.33350
 C398 C 0.51998 0.33585 0.38246
 C399 C 0.54587 0.33800 0.39110
 C400 C 0.56589 0.34894 0.34964
 C401 C 0.48811 0.34242 0.32696
 C402 C 0.48186 0.35221 0.28035
 C403 C 0.50146 0.36480 0.23792
 C404 C 0.52769 0.36584 0.24249
 C405 C 0.54649 0.37670 0.19831
 C406 C 0.54078 0.38793 0.15305
 C407 C 0.51643 0.38930 0.15027
 C408 C 0.49603 0.37712 0.19182
 C409 C 0.47165 0.37908 0.18665
 C410 C 0.46904 0.39471 0.14513
 C411 C 0.49025 0.40844 0.10663
 C412 C 0.51310 0.40416 0.10759
 H413 H 0.57703 0.36679 0.27135
 H414 H 0.50422 0.32698 0.41409
 H415 H 0.58609 0.35087 0.35552
 H416 H 0.47248 0.33326 0.35875
 H417 H 0.46135 0.34964 0.27904
 H418 H 0.56602 0.37700 0.19752
 H419 H 0.55604 0.39646 0.12056
 H420 H 0.45480 0.37009 0.21554
 H421 H 0.45093 0.39725 0.14505
 H422 H 0.52950 0.41430 0.07763
 C423 C 0.62863 0.16053 0.39316
 C424 C 0.62615 0.16643 0.33827
 C425 C 0.63598 0.19424 0.32353
 C426 C 0.64621 0.21492 0.36350
 C427 C 0.64746 0.20835 0.41826
 C428 C 0.63916 0.18103 0.43190
 C429 C 0.63573 0.20118 0.26901
 C430 C 0.62557 0.18114 0.22891
 C431 C 0.61465 0.15308 0.24192
 C432 C 0.61460 0.14564 0.29771
 C433 C 0.60233 0.11755 0.31157
 C434 C 0.59074 0.09738 0.27255
 C435 C 0.59072 0.10419 0.21810
 C436 C 0.60299 0.13205 0.20148
 C437 C 0.60253 0.13744 0.14518
 C438 C 0.58851 0.11605 0.10826
 C439 C 0.57532 0.08866 0.12587
 C440 C 0.57745 0.08299 0.18055
 H441 H 0.62340 0.14040 0.40766
 H442 H 0.65312 0.23601 0.35198
 H443 H 0.64139 0.17534 0.47296
 H444 H 0.64337 0.22237 0.25716
 H445 H 0.62590 0.18829 0.18802
 H446 H 0.60046 0.11019 0.35273
 H447 H 0.58120 0.07610 0.28544
 H448 H 0.61227 0.15792 0.12851
 H449 H 0.58751 0.12102 0.06599
 H450 H 0.56740 0.06189 0.19482
 C451 C 0.56323 0.21789 -0.31156
 C452 C 0.56450 0.19337 -0.31168
 C453 C 0.57321 0.18642 -0.36040
 C454 C 0.57962 0.20307 -0.40700
 C455 C 0.57520 0.22580 -0.40874
 C456 C 0.56815 0.23354 -0.35905
 C457 C 0.57431 0.16213 -0.36333
 C458 C 0.56401 0.14314 -0.32104
 C459 C 0.55309 0.14825 -0.27334
 C460 C 0.55586 0.17473 -0.26640
 C461 C 0.54945 0.18135 -0.21487
 C462 C 0.53896 0.16205 -0.17277
 C463 C 0.53309 0.13511 -0.18126
 C464 C 0.53960 0.12776 -0.23222
 C465 C 0.53118 0.09988 -0.24106
 C466 C 0.51754 0.08031 -0.20047
 C467 C 0.51239 0.08779 -0.14927
 C468 C 0.52054 0.11533 -0.13946
 H469 H 0.55642 0.22447 -0.27639
 H470 H 0.58713 0.19733 -0.44237
 H471 H 0.56408 0.25044 -0.35662
 H472 H 0.58196 0.15713 -0.39975
 H473 H 0.56518 0.12466 -0.32638
 H474 H 0.55289 0.20156 -0.20560
 H475 H 0.53447 0.16803 -0.13377
 H476 H 0.53406 0.09244 -0.27958
 H477 H 0.51178 0.05919 -0.20868
 H478 H 0.51669 0.12122 -0.09978
 C479 C 0.64091 0.42219 -0.30778
 C480 C 0.64039 0.44710 -0.30200
 C481 C 0.65092 0.46605 -0.34587
 C482 C 0.65949 0.45943 -0.39431
 C483 C 0.65904 0.43430 -0.40071
 C484 C 0.65055 0.41618 -0.35593
 C485 C 0.65280 0.49167 -0.34171
 C486 C 0.64412 0.49900 -0.29501
 C487 C 0.63243 0.48061 -0.25075
 C488 C 0.62984 0.45396 -0.25469
 C489 C 0.61584 0.43486 -0.21232
 C490 C 0.60391 0.44123 -0.16876
 C491 C 0.60603 0.46703 -0.16484
 C492 C 0.62172 0.48754 -0.20413
 C493 C 0.62552 0.51411 -0.19576
 C494 C 0.61137 0.51907 -0.15443
 C495 C 0.59320 0.49792 -0.11948
 C496 C 0.59174 0.47223 -0.12311
 H497 H 0.63428 0.40708 -0.27561
 H498 H 0.66770 0.47470 -0.42665
 H499 H 0.65003 0.39667 -0.35874
 H500 H 0.66096 0.50626 -0.37521
 H501 H 0.64566 0.51891 -0.29607
 H502 H 0.61267 0.41429 -0.21293
 H503 H 0.59272 0.42572 -0.13795
 H504 H 0.63906 0.53149 -0.22079
 H505 H 0.61388 0.53944 -0.15141
 H506 H 0.57835 0.45583 -0.09543
 C507 C 0.79341 0.35701 -0.32679
 C508 C 0.82081 0.36140 -0.32414
 C509 C 0.83169 0.35580 -0.37149
 C510 C 0.81586 0.34614 -0.41860
 C511 C 0.78850 0.34138 -0.42108
 C512 C 0.77757 0.34702 -0.37413
 C513 C 0.85835 0.35941 -0.37192
 C514 C 0.87485 0.36877 -0.32641
 C515 C 0.86532 0.37487 -0.27798
 C516 C 0.83782 0.37107 -0.27659
 C517 C 0.82841 0.37710 -0.22785
 C518 C 0.84568 0.38789 -0.18317
 C519 C 0.87294 0.39303 -0.18499
 C520 C 0.88276 0.38546 -0.23148
 C521 C 0.90992 0.38933 -0.22979
 C522 C 0.92734 0.40258 -0.18635
 C523 C 0.91841 0.41227 -0.14264
 C524 C 0.89072 0.40637 -0.14116
 H525 H 0.78352 0.36101 -0.29300
 H526 H 0.82473 0.34066 -0.45237
 H527 H 0.75695 0.34445 -0.37388
 H528 H 0.86670 0.35508 -0.40818
 H529 H 0.89527 0.37137 -0.33115
 H530 H 0.80779 0.37407 -0.22310
 H531 H 0.83770 0.39258 -0.14690
 H532 H 0.91870 0.38283 -0.26168
 H533 H 0.94835 0.40611 -0.18821
 H534 H 0.88329 0.41326 -0.10711
 C535 C 0.42425 -0.19685 -0.31534
 C536 C 0.44997 -0.18220 -0.28818
 C537 C 0.47297 -0.18349 -0.31011
 C538 C 0.47007 -0.19899 -0.35671
 C539 C 0.44478 -0.21256 -0.38374
 C540 C 0.42188 -0.21155 -0.36283
 C541 C 0.49902 -0.16853 -0.28667
 C542 C 0.50329 -0.15082 -0.24391
 C543 C 0.48137 -0.14790 -0.22196
 C544 C 0.45398 -0.16526 -0.24186
 C545 C 0.43163 -0.16493 -0.21500
 C546 C 0.43603 -0.14693 -0.17267
 C547 C 0.46281 -0.12791 -0.15675
 C548 C 0.48593 -0.12802 -0.18110
 C549 C 0.51269 -0.10723 -0.16566
 C550 C 0.51613 -0.08671 -0.12923
 C551 C 0.49314 -0.08669 -0.10574
 C552 C 0.46657 -0.10792 -0.11835
 H553 H 0.40596 -0.19627 -0.30249
 H554 H 0.48791 -0.19942 -0.37379
 H555 H 0.40233 -0.22156 -0.38407
 H556 H 0.51655 -0.16986 -0.30270
 H557 H 0.52405 -0.13987 -0.22832
 H558 H 0.41035 -0.17867 -0.22539
 H559 H 0.41828 -0.14727 -0.15349
 H560 H 0.53138 -0.10530 -0.18336
 H561 H 0.53685 -0.07036 -0.12054
 H562 H 0.44863 -0.10778 -0.10122
 C563 C 0.34449 0.56019 -0.28976
 C564 C 0.37335 0.57014 -0.28683
 C565 C 0.38985 0.58484 -0.33248
 C566 C 0.37764 0.58848 -0.37934
 C567 C 0.34873 0.57597 -0.38373
 C568 C 0.33244 0.56276 -0.33765
 C569 C 0.41826 0.59429 -0.33263
 C570 C 0.43021 0.58694 -0.29109
 C571 C 0.41426 0.57059 -0.24673
 C572 C 0.38606 0.56425 -0.24209
 C573 C 0.37140 0.55152 -0.19369
 C574 C 0.38312 0.54312 -0.15328
 C575 C 0.40944 0.54615 -0.16038
 C576 C 0.42538 0.55991 -0.20737
 C577 C 0.45119 0.56101 -0.21468
 C578 C 0.46047 0.54869 -0.17728
 C579 C 0.44486 0.53555 -0.13076
 C580 C 0.41963 0.53480 -0.12163
 H581 H 0.33042 0.54851 -0.25724
 H582 H 0.39061 0.59937 -0.41409
 H583 H 0.31007 0.55266 -0.33958
 H584 H 0.43117 0.60624 -0.36665
 H585 H 0.45215 0.59446 -0.29476
 H586 H 0.35077 0.54796 -0.18571
 H587 H 0.37099 0.53313 -0.11708
 H588 H 0.46424 0.57034 -0.24987
 H589 H 0.48021 0.54966 -0.18445
 H590 H 0.40754 0.52453 -0.08555
 C591 C 1.20495 0.65002 -0.30204
 C592 C 1.17692 0.64335 -0.29611
 C593 C 1.16445 0.64901 -0.34072
 C594 C 1.17852 0.65821 -0.39049
 C595 C 1.20620 0.66443 -0.39649
 C596 C 1.21952 0.66111 -0.35095
 C597 C 1.13799 0.64574 -0.33556
 C598 C 1.12355 0.63709 -0.28676
 C599 C 1.13443 0.62984 -0.24193
 C600 C 1.16088 0.63158 -0.24756
 C601 C 1.16956 0.62012 -0.20594
 C602 C 1.15244 0.60658 -0.16132
 C603 C 1.12691 0.60554 -0.15474
 C604 C 1.11862 0.61890 -0.19322
 C605 C 1.09431 0.62014 -0.18215
 C606 C 1.07676 0.60510 -0.13942
 C607 C 1.08286 0.58845 -0.10612
 C608 C 1.10887 0.59015 -0.11170
 H609 H 1.21631 0.64766 -0.26893
 H610 H 1.16823 0.66213 -0.42393
 H611 H 1.24094 0.66597 -0.35367
 H612 H 1.12840 0.65017 -0.36952
 H613 H 1.10302 0.63462 -0.28643
 H614 H 1.18876 0.61973 -0.20876
 H615 H 1.15916 0.59666 -0.13193
 H616 H 1.08814 0.63225 -0.20643
 H617 H 1.05743 0.60524 -0.13458
 H618 H 1.11426 0.57806 -0.08517
 C619 C 0.78404 0.41527 -0.31037
 C620 C 0.81204 0.43650 -0.31359
 C621 C 0.82252 0.44841 -0.36551
 C622 C 0.80574 0.43925 -0.41163
 C623 C 0.77815 0.41837 -0.40762
 C624 C 0.76741 0.40654 -0.35667
 C625 C 0.84969 0.46957 -0.37146
 C626 C 0.86700 0.47939 -0.32702
 C627 C 0.85781 0.46834 -0.27435
 C628 C 0.82998 0.44635 -0.26748
 C629 C 0.82126 0.43480 -0.21496
 C630 C 0.83945 0.44333 -0.17142
 C631 C 0.86685 0.46404 -0.17801
 C632 C 0.87596 0.47786 -0.22875
 C633 C 0.90312 0.50046 -0.23189
 C634 C 0.92127 0.50699 -0.18857
 C635 C 0.91312 0.49139 -0.14042
 C636 C 0.88546 0.47059 -0.13458
 H637 H 0.77422 0.40511 -0.27276
 H638 H 0.81399 0.44900 -0.45076
 H639 H 0.74604 0.39044 -0.35271
 H640 H 0.85776 0.47864 -0.41115
 H641 H 0.88784 0.49528 -0.33582
 H642 H 0.80061 0.41844 -0.20632
 H643 H 0.83206 0.43325 -0.13228
 H644 H 0.91118 0.51345 -0.26738
 H645 H 0.94225 0.52370 -0.19404
 H646 H 0.87863 0.45877 -0.09707
 C647 C 0.54712 0.34308 -0.31105
 C648 C 0.52733 0.35202 -0.30968
 C649 C 0.51236 0.34926 -0.35793
 C650 C 0.51844 0.33984 -0.40602
 C651 C 0.53908 0.33227 -0.40778
 C652 C 0.55267 0.33322 -0.35897
 C653 C 0.49152 0.35622 -0.35847
 C654 C 0.48563 0.36672 -0.31258
 C655 C 0.50079 0.37121 -0.26414
 C656 C 0.52211 0.36390 -0.26265
 C657 C 0.53813 0.36968 -0.21501
 C658 C 0.53434 0.38326 -0.17142
 C659 C 0.51428 0.39130 -0.17306
 C660 C 0.49629 0.38414 -0.21819
 C661 C 0.47494 0.39094 -0.21598
 C662 C 0.47362 0.40686 -0.17402
 C663 C 0.49326 0.41639 -0.13239
 C664 C 0.51275 0.40738 -0.13074
 H665 H 0.55881 0.34351 -0.27587
 H666 H 0.50628 0.33772 -0.44188
 H667 H 0.56882 0.32775 -0.35802
 H668 H 0.47981 0.35387 -0.39515
 H669 H 0.46970 0.37216 -0.31735
 H670 H 0.55458 0.36492 -0.21081
 H671 H 0.54753 0.38782 -0.13626
 H672 H 0.45913 0.38468 -0.24642
 H673 H 0.45768 0.41264 -0.17558
 H674 H 0.52771 0.41405 -0.09813
 C675 C 0.63657 0.21294 -0.29741
 C676 C 0.63824 0.18855 -0.29200
 C677 C 0.65061 0.18174 -0.33541
 C678 C 0.65999 0.19812 -0.38224
 C679 C 0.65715 0.22138 -0.38763
 C680 C 0.64588 0.22906 -0.34482
 C681 C 0.65307 0.15825 -0.33277
 C682 C 0.64223 0.14032 -0.28907
 C683 C 0.62831 0.14515 -0.24602
 C684 C 0.62729 0.17021 -0.24630
 C685 C 0.61488 0.17576 -0.20146
 C686 C 0.60248 0.15686 -0.15942
 C687 C 0.60160 0.13158 -0.16059
 C688 C 0.61486 0.12546 -0.20333
 C689 C 0.61302 0.09933 -0.20269
 C690 C 0.59749 0.07978 -0.16303
 C691 C 0.58350 0.08557 -0.12228
 C692 C 0.58651 0.11193 -0.12026
 H693 H 0.62741 0.21969 -0.26671
 H694 H 0.66884 0.19233 -0.41571
 H695 H 0.64344 0.24700 -0.34877
 H696 H 0.66304 0.15334 -0.36550
 H697 H 0.64508 0.12270 -0.29058
 H698 H 0.61408 0.19448 -0.19786
 H699 H 0.59263 0.16175 -0.12644
 H700 H 0.62233 0.09277 -0.23339
 H701 H 0.59561 0.05965 -0.16562
 H702 H 0.57574 0.11675 -0.08904
 C703 C 1.15840 0.48825 -0.35999
 C704 C 1.16612 0.50280 -0.31054
 C705 C 1.19253 0.52661 -0.30803
 C706 C 1.21067 0.53482 -0.35316
 C707 C 1.20219 0.52086 -0.40301
 C708 C 1.17592 0.49730 -0.40522
 C709 C 1.20017 0.54277 -0.26136
 C710 C 1.18148 0.53680 -0.21853
 C711 C 1.15470 0.51365 -0.21988
 C712 C 1.14779 0.49534 -0.26480
 C713 C 1.12259 0.47033 -0.26297
 C714 C 1.10334 0.46477 -0.22189
 C715 C 1.10833 0.48394 -0.18143
 C716 C 1.13426 0.50838 -0.17872
 C717 C 1.13791 0.52709 -0.13665
 C718 C 1.11608 0.52236 -0.10136
 C719 C 1.09006 0.49887 -0.10664
 C720 C 1.08688 0.47920 -0.14518
 H721 H 1.13838 0.47048 -0.36603
 H722 H 1.23052 0.55346 -0.35055
 H723 H 1.16882 0.48530 -0.44201
 H724 H 1.22043 0.56090 -0.25881
 H725 H 1.18869 0.55065 -0.18459
 H726 H 1.11715 0.45449 -0.29283
 H727 H 1.08385 0.44566 -0.22307
 H728 H 1.15689 0.54617 -0.13162
 H729 H 1.11928 0.53771 -0.07138
 H730 H 1.06704 0.46067 -0.14925
 C731 C 0.46558 0.66680 -0.29487
 C732 C 0.48674 0.65973 -0.29260
 C733 C 0.50327 0.66446 -0.33985
 C734 C 0.49727 0.67366 -0.38824
 C735 C 0.47564 0.67979 -0.39070
 C736 C 0.46045 0.67700 -0.34280
 C737 C 0.52576 0.65995 -0.33889
 C738 C 0.53225 0.65063 -0.29201
 C739 C 0.51578 0.64446 -0.24449
 C740 C 0.49208 0.64817 -0.24533
 C741 C 0.47380 0.63885 -0.20014
 C742 C 0.47816 0.62576 -0.15625
 C743 C 0.50142 0.62240 -0.15466
 C744 C 0.52126 0.63298 -0.19745
 C745 C 0.54545 0.63083 -0.19212
 C746 C 0.54791 0.61548 -0.15012
 C747 C 0.52665 0.60221 -0.11154
 C748 C 0.50423 0.60716 -0.11210
 H749 H 0.45289 0.66506 -0.26008
 H750 H 0.51039 0.67712 -0.42361
 H751 H 0.44355 0.68143 -0.34274
 H752 H 0.53855 0.66365 -0.37490
 H753 H 0.54960 0.64713 -0.29527
 H754 H 0.45495 0.63990 -0.19894
 H755 H 0.46286 0.61767 -0.12373
 H756 H 0.56262 0.64034 -0.22031
 H757 H 0.56598 0.61288 -0.14956
 H758 H 0.48783 0.59741 -0.08190
 C759 C 0.32102 -0.15371 -0.36586
 C760 C 0.33182 -0.15871 -0.31781
 C761 C 0.33046 -0.18456 -0.31222
 C762 C 0.32076 -0.20347 -0.35511
 C763 C 0.31255 -0.19695 -0.40409
 C764 C 0.31184 -0.17243 -0.40830
 C765 C 0.33987 -0.19093 -0.26487
 C766 C 0.35154 -0.17189 -0.22348
 C767 C 0.35474 -0.14536 -0.22825
 C768 C 0.34478 -0.13864 -0.27627
 C769 C 0.34957 -0.11158 -0.28268
 C770 C 0.36481 -0.09142 -0.24511
 C771 C 0.37516 -0.09749 -0.19884
 C772 C 0.36911 -0.12477 -0.18819
 C773 C 0.37846 -0.13000 -0.13848
 C774 C 0.39572 -0.10858 -0.10430
 C775 C 0.40392 -0.08133 -0.11808
 C776 C 0.39243 -0.07613 -0.16414
 H777 H 0.31974 -0.13539 -0.37252
 H778 H 0.32104 -0.22262 -0.35154
 H779 H 0.30473 -0.16742 -0.44533
 H780 H 0.33878 -0.21067 -0.26025
 H781 H 0.35911 -0.17820 -0.18920
 H782 H 0.34297 -0.10483 -0.31773
 H783 H 0.36899 -0.07067 -0.25299
 H784 H 0.37310 -0.15036 -0.12514
 H785 H 0.40336 -0.11338 -0.06779
 H786 H 0.39787 -0.05524 -0.17449
 C787 C 0.49618 -0.15183 0.38386
 C788 C 0.48221 -0.15870 0.33343
 C789 C 0.45953 -0.18563 0.32756
 C790 C 0.45176 -0.20486 0.37035
 C791 C 0.46555 -0.19733 0.42014
 C792 C 0.48782 -0.17082 0.42636
 C793 C 0.44427 -0.19299 0.27965
 C794 C 0.45024 -0.17393 0.23811
 C795 C 0.47231 -0.14673 0.24229
 C796 C 0.48933 -0.13943 0.28965
 C797 C 0.51285 -0.11305 0.29188
 C798 C 0.51845 -0.09372 0.25138
 C799 C 0.50092 -0.09978 0.20708
 C800 C 0.47783 -0.12643 0.20114
 C801 C 0.46081 -0.13124 0.15509
 C802 C 0.46603 -0.11018 0.11812
 C803 C 0.48832 -0.08366 0.12558
 C804 C 0.50609 -0.07892 0.16941
 H805 H 0.51303 -0.13170 0.39269
 H806 H 0.43429 -0.22535 0.36577
 H807 H 0.49870 -0.16470 0.46469
 H808 H 0.42702 -0.21358 0.27473
 H809 H 0.43715 -0.18125 0.20293
 H810 H 0.52760 -0.10662 0.32443
 H811 H 0.53647 -0.07354 0.25544
 H812 H 0.44281 -0.15077 0.14726
 H813 H 0.45201 -0.11457 0.08443
 H814 H 0.52354 -0.05858 0.17565
 C815 C 0.36232 0.52024 0.39136
 C816 C 0.36784 0.53237 0.33882
 C817 C 0.36206 0.55404 0.32964
 C818 C 0.35015 0.56222 0.37106
 C819 C 0.34489 0.54986 0.42258
 C820 C 0.35114 0.52896 0.43236
 C821 C 0.36862 0.56770 0.27956
 C822 C 0.38138 0.56079 0.23857
 C823 C 0.38739 0.53925 0.24551
 C824 C 0.37949 0.52415 0.29573
 C825 C 0.38326 0.50114 0.30116
 C826 C 0.39569 0.49395 0.26034
 C827 C 0.40505 0.50940 0.21259
 C828 C 0.40100 0.53220 0.20405
 C829 C 0.41135 0.54725 0.15483
 C830 C 0.42563 0.54025 0.11683
 C831 C 0.42994 0.51798 0.12627
 C832 C 0.41900 0.50235 0.17383
 H833 H 0.36707 0.50448 0.40278
 H834 H 0.34562 0.57869 0.36377
 H835 H 0.34728 0.51927 0.47214
 H836 H 0.36426 0.58427 0.27225
 H837 H 0.38591 0.57253 0.20141
 H838 H 0.37640 0.48785 0.33634
 H839 H 0.39837 0.47626 0.26666
 H840 H 0.40952 0.56502 0.14507
 H841 H 0.43384 0.55274 0.08043
 H842 H 0.42227 0.48514 0.18200
 C843 C 1.19867 0.64940 0.31200
 C844 C 1.17096 0.64395 0.30771
 C845 C 1.15979 0.65160 0.35203
 C846 C 1.17523 0.66271 0.39936
 C847 C 1.20217 0.66702 0.40346
 C848 C 1.21398 0.66084 0.35914
 C849 C 1.13312 0.64786 0.34941
 C850 C 1.11688 0.63624 0.30403
 C851 C 1.12653 0.62739 0.25943
 C852 C 1.15388 0.63097 0.26152
 C853 C 1.16284 0.62062 0.21831
 C854 C 1.14547 0.60656 0.17542
 C855 C 1.11866 0.60256 0.17326
 C856 C 1.10919 0.61390 0.21398
 C857 C 1.08244 0.61069 0.20800
 C858 C 1.06498 0.59461 0.16672
 C859 C 1.07355 0.58142 0.12939
 C860 C 1.10090 0.58647 0.13151
 H861 H 1.20920 0.64518 0.27974
 H862 H 1.16630 0.66810 0.43327
 H863 H 1.23496 0.66438 0.36144
 H864 H 1.12456 0.65378 0.38312
 H865 H 1.09634 0.63360 0.30621
 H866 H 1.18295 0.62218 0.21724
 H867 H 1.15303 0.59847 0.14381
 H868 H 1.07415 0.62005 0.23483
 H869 H 1.04426 0.59184 0.16519
 H870 H 1.10802 0.57683 0.10229
 C871 C 0.57372 0.20597 0.30984
 C872 C 0.54605 0.18707 0.29559
 C873 C 0.52469 0.18371 0.33212
 C874 C 0.53098 0.19923 0.37985
 C875 C 0.55843 0.21768 0.39293
 C876 C 0.57974 0.22088 0.35802
 C877 C 0.49720 0.16472 0.32113
 C878 C 0.49039 0.14791 0.27597
 C879 C 0.51091 0.14982 0.23917
 C880 C 0.53895 0.17079 0.24745
 C881 C 0.55889 0.17481 0.20727
 C882 C 0.55226 0.15741 0.16307
 C883 C 0.52572 0.13506 0.15760
 C884 C 0.50446 0.13122 0.19483
 C885 C 0.47791 0.10812 0.18751
 C886 C 0.47330 0.08889 0.14729
 C887 C 0.49477 0.09210 0.11245
 C888 C 0.52064 0.11589 0.11634
 H889 H 0.59120 0.20930 0.28528
 H890 H 0.51455 0.19677 0.40739
 H891 H 0.60110 0.23504 0.36805
 H892 H 0.48076 0.16240 0.34844
 H893 H 0.46868 0.13372 0.27077
 H894 H 0.57986 0.19153 0.20852
 H895 H 0.56831 0.16112 0.13354
 H896 H 0.46054 0.10347 0.21381
 H897 H 0.45303 0.07080 0.14498
 H898 H 0.53743 0.11862 0.08966
 C899 C 0.66712 0.48681 0.35906
 C900 C 0.65393 0.47082 0.31271
 C901 C 0.64963 0.44368 0.31120
 C902 C 0.65757 0.43303 0.35521
 C903 C 0.66916 0.44881 0.40170
 C904 C 0.67434 0.47584 0.40277
 C905 C 0.63653 0.42698 0.26677
 C906 C 0.62661 0.43616 0.22448
 C907 C 0.62950 0.46264 0.22481
 C908 C 0.64389 0.48045 0.26913
 C909 C 0.64692 0.50698 0.26939
 C910 C 0.63453 0.51513 0.23035
 C911 C 0.61921 0.49754 0.18868
 C912 C 0.61743 0.47154 0.18366
 C913 C 0.60291 0.45535 0.13840
 C914 C 0.58861 0.46355 0.10318
 C915 C 0.58849 0.48818 0.11154
 C916 C 0.60491 0.50560 0.15298
 H917 H 0.67157 0.50765 0.36383
 H918 H 0.65351 0.41203 0.35446
 H919 H 0.68363 0.48842 0.43825
 H920 H 0.63326 0.40627 0.26530
 H921 H 0.61606 0.42160 0.19267
 H922 H 0.65821 0.52193 0.30008
 H923 H 0.63655 0.53532 0.23350
 H924 H 0.60184 0.43608 0.12950
 H925 H 0.57690 0.45007 0.07033
 H926 H 0.60572 0.52512 0.15906
 C927 C 0.83163 0.32251 0.35185
 C928 C 0.82673 0.33095 0.30073
 C929 C 0.80084 0.32978 0.29305
 C930 C 0.78201 0.32301 0.33674
 C931 C 0.78872 0.31752 0.38835
 C932 C 0.81303 0.31621 0.39487
 C933 C 0.79448 0.33658 0.24258
 C934 C 0.81392 0.34636 0.20052
 C935 C 0.84086 0.35031 0.20777
 C936 C 0.84715 0.34184 0.25826
 C937 C 0.87424 0.34629 0.26606
 C938 C 0.89510 0.36069 0.22820
 C939 C 0.88973 0.37060 0.18049
 C940 C 0.86232 0.36422 0.16789
 C941 C 0.85800 0.37333 0.11695
 C942 C 0.88035 0.39113 0.08397
 C943 C 0.90761 0.39985 0.10002
 C944 C 0.91196 0.38810 0.14667
 H945 H 0.84990 0.32119 0.36063
 H946 H 0.76296 0.32366 0.33150
 H947 H 0.81811 0.31115 0.43422
 H948 H 0.77454 0.33518 0.23601
 H949 H 0.80759 0.35201 0.16357
 H950 H 0.88055 0.34018 0.30239
 H951 H 0.91592 0.36492 0.23733
 H952 H 0.83768 0.36771 0.10209
 H953 H 0.87624 0.39891 0.04682
 H954 H 0.93288 0.39387 0.15873
   
