data_POSCAR
  _audit_creation_date              2014-09-24
  _audit_creation_method            'ToBaCCo'
  _symmetry_space_group_name_H-M    'P1'
  _symmetry_Int_Tables_number       1
  _symmetry_cell_setting            triclinic
  loop_
  _symmetry_equiv_pos_as_xyz
 x,y,z
_cell_length_a 22.9820
_cell_length_b 24.0211
_cell_length_c 23.2708
_cell_angle_alpha 90.520100
_cell_angle_beta 90.262400
_cell_angle_gamma 90.723400
loop_
  _atom_site_label
  _atom_site_type_symbol
  _atom_site_fract_x
  _atom_site_fract_y
  _atom_site_fract_z
Si1 Si 1.25156 0.24317 0.25198
 Si2 Si 0.76020 -0.22341 0.25947
 Si3 Si 0.74590 0.26160 -0.24561
 Si4 Si 1.26081 -0.27591 -0.25187
 Si5 Si 0.25245 0.26563 0.74944
 Si6 Si 0.74011 0.73968 0.74752
 Si7 Si 0.75821 0.23462 0.25265
 Si8 Si 0.24324 0.75712 0.25137
 N9 N 1.11341 0.05420 0.03544
 N10 N 1.15802 0.08768 0.04608
 N11 N 1.06815 -0.05759 0.08115
 N12 N 1.08369 -0.08525 0.12735
 N13 N 1.10799 -0.06240 0.04077
 N14 N 1.15133 -0.09354 0.05928
 N15 N 1.07370 0.05876 0.07586
 N16 N 1.09137 0.09497 0.11584
 C17 C 1.14352 0.11317 0.09568
 C18 C 1.13440 -0.10908 0.11254
 N19 N 0.90299 -0.05712 0.03915
 N20 N 0.86368 -0.09631 0.04883
 N21 N 0.94452 0.06195 0.07581
 N22 N 0.92703 0.09667 0.11688
 N23 N 0.90567 0.05971 0.03403
 N24 N 0.86221 0.09321 0.04465
 N25 N 0.94184 -0.05489 0.08078
 N26 N 0.92935 -0.09210 0.12064
 Mn27 Mn 1.00708 0.00243 0.07898
 C28 C 0.88086 -0.11780 0.09944
 C29 C 0.87624 0.11662 0.09561
 N30 N 1.10728 -0.06738 -0.08617
 N31 N 1.14803 -0.10265 -0.10299
 N32 N 1.07035 0.05114 -0.12633
 N33 N 1.07415 0.09606 -0.15832
 N34 N 1.11251 0.05035 -0.08806
 N35 N 1.14693 0.09461 -0.09360
 N36 N 1.06554 -0.06573 -0.12489
 N37 N 1.07603 -0.09951 -0.16816
 Mn38 Mn 1.11084 -0.00674 -0.02451
 C39 C 1.12664 -0.12296 -0.15370
 C40 C 1.12235 0.12223 -0.13787
 N41 N 0.90498 0.05465 -0.08887
 N42 N 0.86741 0.09410 -0.10170
 N43 N 0.94207 -0.06376 -0.12457
 N44 N 0.93370 -0.10718 -0.15897
 N45 N 0.90288 -0.06280 -0.08382
 N46 N 0.86685 -0.10578 -0.08866
 N47 N 0.94662 0.05288 -0.12706
 N48 N 0.93926 0.09069 -0.16678
 Mn49 Mn 0.90372 -0.00150 -0.02481
 Mn50 Mn 1.00622 -0.00625 -0.12591
 Cl51 Cl 1.00714 -0.00306 -0.02371
 C52 C 0.89020 0.11619 -0.15025
 C53 C 0.88687 -0.13277 -0.13560
 N54 N 1.08975 0.55631 0.55031
 N55 N 1.13410 0.58505 0.57267
 N56 N 1.05530 0.43497 0.57860
 N57 N 1.07659 0.40487 0.62130
 N58 N 1.09492 0.44076 0.53801
 N59 N 1.14299 0.41480 0.55217
 N60 N 1.04834 0.55047 0.58905
 N61 N 1.06348 0.57488 0.63774
 C62 C 1.11601 0.59726 0.62662
 C63 C 1.13075 0.39152 0.60318
 N64 N 0.88756 0.43205 0.53515
 N65 N 0.84423 0.39701 0.54382
 N66 N 0.92202 0.54582 0.58808
 N67 N 0.90303 0.57472 0.63305
 N68 N 0.88382 0.54763 0.54595
 N69 N 0.83837 0.57699 0.56077
 N70 N 0.92648 0.42937 0.57656
 N71 N 0.90942 0.39299 0.61562
 Mn72 Mn 0.98803 0.48988 0.58344
 C73 C 0.85884 0.37244 0.59328
 C74 C 0.85131 0.59473 0.61429
 N75 N 1.09364 0.44983 0.41318
 N76 N 1.13266 0.41223 0.39800
 N77 N 1.04701 0.56722 0.38508
 N78 N 1.05290 0.61039 0.35103
 N79 N 1.08848 0.56681 0.42421
 N80 N 1.12490 0.60925 0.41672
 N81 N 1.05175 0.45144 0.37469
 N82 N 1.06038 0.41561 0.33281
 Mn83 Mn 1.09228 0.50362 0.48129
 C84 C 1.11048 0.39141 0.34782
 C85 C 1.10124 0.63617 0.37144
 N86 N 0.88508 0.55796 0.42440
 N87 N 0.85266 0.60290 0.42526
 N88 N 0.92806 0.44342 0.37469
 N89 N 0.92951 0.39633 0.34463
 N90 N 0.88840 0.44026 0.41490
 N91 N 0.86248 0.39112 0.41421
 N92 N 0.92361 0.56078 0.38327
 N93 N 0.91817 0.60715 0.35393
 Mn94 Mn 0.88607 0.49475 0.47981
 Mn95 Mn 0.98759 0.50567 0.37895
 Cl96 Cl 0.98893 0.49846 0.48135
 C97 C 0.87375 0.63259 0.38073
 C98 C 0.88803 0.36461 0.37013
 N99 N 0.57686 0.07555 0.57900
 N100 N 0.61297 0.11504 0.59795
 N101 N 0.56253 -0.04948 0.61169
 N102 N 0.58172 -0.08868 0.64658
 N103 N 0.60156 -0.03826 0.57208
 N104 N 0.64798 -0.06922 0.57874
 N105 N 0.53698 0.06482 0.61805
 N106 N 0.54419 0.09734 0.66356
 C107 C 0.59098 0.12884 0.65004
 C108 C 0.63501 -0.10051 0.62495
 N109 N 0.39999 -0.08118 0.56856
 N110 N 0.37179 -0.12894 0.57256
 N111 N 0.41392 0.04032 0.61580
 N112 N 0.39727 0.08013 0.65181
 N113 N 0.37506 0.03287 0.57478
 N114 N 0.33087 0.06658 0.58171
 N115 N 0.43816 -0.07496 0.61030
 N116 N 0.43587 -0.11814 0.64521
 Mn117 Mn 0.48788 -0.00500 0.61470
 C118 C 0.39486 -0.15152 0.62009
 C119 C 0.34522 0.09570 0.62967
 N120 N 0.60161 -0.03330 0.44828
 N121 N 0.65119 -0.05574 0.43272
 N122 N 0.53616 0.07191 0.41266
 N123 N 0.54597 0.10280 0.36723
 N124 N 0.57751 0.07985 0.45153
 N125 N 0.61730 0.11533 0.43176
 N126 N 0.56139 -0.04225 0.40873
 N127 N 0.58245 -0.07186 0.36560
 Mn128 Mn 0.58961 0.02138 0.51294
 C129 C 0.63802 -0.08068 0.38204
 C130 C 0.59577 0.13030 0.37987
 N131 N 0.37482 0.03720 0.45160
 N132 N 0.32905 0.06892 0.44377
 N133 N 0.43822 -0.06808 0.40698
 N134 N 0.43349 -0.10597 0.36557
 N135 N 0.39948 -0.07728 0.44710
 N136 N 0.36819 -0.12228 0.43516
 N137 N 0.41384 0.04604 0.41162
 N138 N 0.39579 0.08391 0.37508
 Mn139 Mn 0.38695 -0.02204 0.51063
 Mn140 Mn 0.48741 0.00178 0.40974
 Cl141 Cl 0.48819 -0.00065 0.51202
 C142 C 0.34308 0.09778 0.39608
 C143 C 0.39056 -0.13999 0.38484
 N144 N 0.44017 0.60040 -0.02640
 N145 N 0.42651 0.64398 -0.05667
 N146 N 0.39686 0.54692 0.08387
 N147 N 0.34777 0.55629 0.11138
 N148 N 0.43389 0.58862 0.09221
 N149 N 0.41049 0.62715 0.12542
 N150 N 0.40330 0.55890 -0.03557
 N151 N 0.36252 0.57413 -0.07269
 C152 C 0.37906 0.62710 -0.08576
 C153 C 0.35753 0.60569 0.13798
 N154 N 0.45785 0.39618 0.07334
 N155 N 0.45344 0.35790 0.11344
 N156 N 0.41642 0.43714 -0.04744
 N157 N 0.37729 0.41947 -0.08581
 N158 N 0.46169 0.40412 -0.04739
 N159 N 0.45516 0.36417 -0.08622
 N160 N 0.41160 0.42788 0.07280
 N161 N 0.37399 0.41160 0.11226
 Mn162 Mn 0.40645 0.49257 0.01797
 C163 C 0.40108 0.36820 0.13723
 C164 C 0.40293 0.37458 -0.11029
 N165 N 0.55959 0.60378 0.09814
 N166 N 0.56729 0.64162 0.13914
 N167 N 0.60662 0.58204 -0.02622
 N168 N 0.64069 0.59824 -0.06890
 N169 N 0.56185 0.61510 -0.02148
 N170 N 0.56342 0.65415 -0.06076
 N171 N 0.60473 0.57097 0.09470
 N172 N 0.64372 0.58440 0.13442
 Mn173 Mn 0.49892 0.60192 0.03612
 C174 C 0.61927 0.62793 0.16197
 C175 C 0.61268 0.64333 -0.08972
 N176 N 0.58565 0.41925 -0.04161
 N177 N 0.60459 0.38279 -0.07960
 N178 N 0.61861 0.45353 0.08287
 N179 N 0.65915 0.44499 0.12193
 N180 N 0.58324 0.41030 0.07833
 N181 N 0.59958 0.37044 0.11349
 N182 N 0.62169 0.46208 -0.03714
 N183 N 0.66666 0.45537 -0.07163
 Mn184 Mn 0.52203 0.40707 0.01586
 Mn185 Mn 0.61348 0.51728 0.02826
 Cl186 Cl 0.51013 0.50459 0.02453
 C187 C 0.65448 0.40632 -0.09846
 C188 C 0.64631 0.39337 0.14082
 N189 N 1.23161 0.16900 0.10210
 N190 N 1.26085 0.20085 0.13913
 C191 C 1.22954 0.20217 0.18785
 C192 C 1.17962 0.17023 0.17946
 N193 N 1.18268 0.15046 0.12526
 H194 H 1.14488 0.16215 0.20962
 N195 N 1.14393 0.60744 0.72633
 N196 N 1.18102 0.63613 0.75893
 C197 C 1.21481 0.66596 0.72317
 C198 C 1.19684 0.65528 0.66740
 N199 N 1.15270 0.61850 0.67144
 H200 H 1.21101 0.67542 0.62839
 N201 N 0.59438 0.18428 0.73816
 N202 N 0.63122 0.21698 0.76718
 C203 C 0.68090 0.21873 0.73669
 C204 C 0.67328 0.18642 0.68789
 N205 N 0.61874 0.16606 0.69022
 H206 H 0.70422 0.17870 0.65389
 N207 N 0.67072 0.63692 0.25246
 N208 N 0.70541 0.67317 0.27919
 C209 C 0.70568 0.72022 0.24797
 C210 C 0.66944 0.71175 0.20117
 N211 N 0.64845 0.65942 0.20582
 H212 H 0.66356 0.73866 0.16460
 N213 N 0.81238 -0.19534 0.10206
 N214 N 0.78152 -0.22378 0.14000
 C215 C 0.79833 -0.20544 0.19244
 C216 C 0.84105 -0.16514 0.18555
 N217 N 0.84839 -0.16006 0.12854
 H218 H 0.86123 -0.13905 0.21838
 N219 N 0.77080 0.31698 0.59888
 N220 N 0.73941 0.29003 0.63739
 C221 C 0.76891 0.29415 0.68738
 C222 C 0.81951 0.32403 0.67854
 N223 N 0.81910 0.33712 0.62272
 H224 H 0.85283 0.33564 0.70960
 N225 N 0.35498 -0.24464 0.61229
 N226 N 0.31977 -0.27754 0.64188
 C227 C 0.31347 -0.25339 0.69384
 C228 C 0.34679 -0.20538 0.69578
 N229 N 0.37212 -0.20148 0.64412
 H230 H 0.34741 -0.17353 0.72901
 N231 N 0.40672 0.30274 0.21614
 N232 N 0.37148 0.27141 0.24755
 C233 C 0.31670 0.28405 0.23197
 C234 C 0.31938 0.32429 0.19015
 N235 N 0.37620 0.33473 0.18152
 H236 H 0.28377 0.34098 0.16532
 N237 N 0.89110 0.18047 -0.22883
 N238 N 0.85714 0.21665 -0.25440
 C239 C 0.80742 0.21833 -0.22414
 C240 C 0.81185 0.18201 -0.17867
 N241 N 0.86486 0.15929 -0.18341
 H242 H 0.77946 0.17198 -0.14664
 N243 N 0.82908 0.72160 0.39998
 N244 N 0.80263 0.76116 0.37100
 C245 C 0.80869 0.74883 0.31469
 C246 C 0.83996 0.70060 0.30993
 N247 N 0.85149 0.68496 0.36395
 H248 H 0.84704 0.67570 0.27162
 N249 N 0.25767 0.15651 0.39410
 N250 N 0.23281 0.19323 0.36001
 C251 C 0.26645 0.19722 0.31289
 C252 C 0.31277 0.16201 0.31902
 N253 N 0.30573 0.13754 0.37023
 H254 H 0.34813 0.15499 0.28935
 N255 N 0.35767 0.71969 -0.11540
 N256 N 0.32959 0.74634 -0.15605
 C257 C 0.30054 0.70733 -0.18679
 C258 C 0.31117 0.65561 -0.16380
 N259 N 0.34721 0.66549 -0.11927
 H260 H 0.29742 0.61510 -0.17990
 N261 N 1.14228 -0.16101 -0.24843
 N262 N 1.17461 -0.19796 -0.27544
 C263 C 1.21124 -0.21858 -0.23602
 C264 C 1.20069 -0.19287 -0.18367
 N265 N 1.15720 -0.15733 -0.19351
 H266 H 1.22065 -0.20082 -0.14240
 N267 N 1.10940 0.32913 0.26627
 N268 N 1.14244 0.29224 0.24011
 C269 C 1.19193 0.28952 0.27092
 C270 C 1.18840 0.32577 0.31719
 N271 N 1.13602 0.34954 0.31254
 H272 H 1.22049 0.33411 0.35046
 N273 N 0.73508 -0.08483 0.34304
 N274 N 0.76697 -0.11801 0.31072
 C275 C 0.73168 -0.15978 0.29237
 C276 C 0.67679 -0.15117 0.31413
 N277 N 0.68105 -0.10409 0.34560
 H278 H 0.63914 -0.17862 0.31153
 N279 N 0.74761 0.39505 -0.14664
 N280 N 0.77305 0.35932 -0.18191
 C281 C 0.73364 0.31869 -0.19381
 C282 C 0.68314 0.33067 -0.16498
 N283 N 0.69360 0.37855 -0.13626
 H284 H 0.64252 0.30744 -0.16522
 N285 N 1.10789 0.21312 -0.17985
 N286 N 1.13836 0.25179 -0.20713
 C287 C 1.19460 0.23693 -0.20417
 C288 C 1.19772 0.18797 -0.17362
 N289 N 1.14274 0.17452 -0.15939
 H290 H 1.23519 0.16165 -0.16810
 N291 N 1.09553 0.72196 0.31800
 N292 N 1.12968 0.75434 0.28663
 C293 C 1.18413 0.73507 0.29270
 C294 C 1.18252 0.69023 0.32935
 N295 N 1.12650 0.68361 0.34425
 H296 H 1.21747 0.66223 0.33991
 N297 N 0.60586 0.16693 0.28438
 N298 N 0.64486 0.19075 0.25076
 C299 C 0.69340 0.19884 0.28245
 C300 C 0.68268 0.17934 0.33743
 N301 N 0.62736 0.15990 0.33659
 H302 H 0.71199 0.17865 0.37391
 N303 N 0.59957 0.71595 -0.16001
 N304 N 0.62857 0.74160 -0.20128
 C305 C 0.68090 0.71729 -0.20452
 C306 C 0.68313 0.67562 -0.16404
 N307 N 0.63153 0.67629 -0.13719
 H308 H 0.71914 0.64867 -0.15411
 N309 N 0.85647 -0.22982 -0.13246
 N310 N 0.82069 -0.26417 -0.16066
 C311 C 0.80041 -0.23599 -0.20625
 C312 C 0.82503 -0.18349 -0.20547
 N313 N 0.85984 -0.18151 -0.15910
 H314 H 0.81529 -0.14882 -0.23316
 N315 N 0.84681 0.27408 0.38877
 N316 N 0.81331 0.23773 0.36066
 C317 C 0.81627 0.25114 0.30476
 C318 C 0.85401 0.29585 0.29936
 N319 N 0.87118 0.30968 0.35275
 H320 H 0.85982 0.32178 0.26195
 N321 N 0.35696 -0.23511 0.37199
 N322 N 0.31892 -0.26301 0.33955
 C323 C 0.30103 -0.22786 0.29845
 C324 C 0.33019 -0.17780 0.30600
 N325 N 0.36483 -0.18422 0.35204
 H326 H 0.32349 -0.13912 0.28358
 N327 N 0.40433 0.29604 -0.17633
 N328 N 0.36929 0.26714 -0.21102
 C329 C 0.31669 0.29105 -0.20859
 C330 C 0.32077 0.33629 -0.17120
 N331 N 0.37629 0.33785 -0.15209
 H332 H 0.28675 0.36466 -0.15877
 N333 N 1.18753 -0.10171 0.20208
 N334 N 1.21653 -0.13344 0.23817
 C335 C 1.22149 -0.18390 0.21305
 C336 C 1.19347 -0.18228 0.16016
 N337 N 1.17359 -0.13001 0.15490
 H338 H 1.18433 -0.21658 0.13087
 N339 N 1.23144 0.37569 0.62795
 N340 N 1.26359 0.34726 0.66441
 C341 C 1.22687 0.32060 0.70002
 C342 C 1.17036 0.33357 0.68371
 N343 N 1.17541 0.36802 0.63852
 H344 H 1.12991 0.31703 0.70037
 N345 N 0.72823 -0.14613 0.62807
 N346 N 0.75612 -0.18483 0.65698
 C347 C 0.71947 -0.20396 0.69745
 C348 C 0.66758 -0.17536 0.69235
 N349 N 0.67509 -0.13971 0.64849
 H350 H 0.62840 -0.18006 0.71748
 N351 N 0.72097 0.38962 0.21463
 N352 N 0.75058 0.35217 0.24368
 C353 C 0.73007 0.30174 0.22696
 C354 C 0.68622 0.30940 0.18732
 N355 N 0.68205 0.36470 0.18083
 H356 H 0.66117 0.27795 0.16413
 N357 N 0.78409 0.16227 0.10394
 N358 N 0.75253 0.19043 0.14121
 C359 C 0.78496 0.19661 0.18912
 C360 C 0.83813 0.17130 0.18002
 N361 N 0.83553 0.15038 0.12611
 H362 H 0.87431 0.16777 0.20964
 N363 N 0.75237 0.61655 0.63799
 N364 N 0.72237 0.65137 0.67019
 C365 C 0.76115 0.67972 0.70293
 C366 C 0.81639 0.66089 0.69009
 N367 N 0.80871 0.62144 0.64921
 H368 H 0.85781 0.67710 0.70552
 N369 N 0.25524 0.14635 0.63317
 N370 N 0.23065 0.18787 0.66124
 C371 C 0.26955 0.20681 0.70043
 C372 C 0.31929 0.17492 0.69572
 N373 N 0.30830 0.13774 0.65314
 H374 H 0.35923 0.17826 0.72030
 N375 N 0.25745 0.62051 0.16711
 N376 N 0.22583 0.65883 0.19318
 C377 C 0.26228 0.70131 0.20709
 C378 C 0.31752 0.68752 0.18964
 N379 N 0.31257 0.63687 0.16498
 H380 H 0.35755 0.71118 0.19562
   
