data_POSCAR
  _audit_creation_date              2014-09-24
  _audit_creation_method            'ToBaCCo'
  _symmetry_space_group_name_H-M    'P1'
  _symmetry_Int_Tables_number       1
  _symmetry_cell_setting            triclinic
  loop_
  _symmetry_equiv_pos_as_xyz
 x,y,z
_cell_length_a 20.5208
_cell_length_b 20.4164
_cell_length_c 46.1363
_cell_angle_alpha 83.128700
_cell_angle_beta 90.118500
_cell_angle_gamma 122.461500
loop_
  _atom_site_label
  _atom_site_type_symbol
  _atom_site_fract_x
  _atom_site_fract_y
  _atom_site_fract_z
C1 C -0.08485 0.08717 0.55021
 H2 H -0.03305 0.08586 0.54828
 C3 C -0.08920 0.13302 0.56939
 H4 H -0.04100 0.16545 0.58245
 C5 C -0.20817 0.05020 0.53411
 H6 H -0.25236 0.02221 0.51914
 C7 C -0.21506 0.09501 0.55303
 H8 H -0.26603 0.09825 0.55296
 N9 N -0.14437 0.04576 0.53338
 C10 C -0.09598 -0.12253 0.50469
 H11 H -0.09937 -0.11189 0.48141
 C12 C -0.09203 -0.18654 0.51626
 H13 H -0.09239 -0.22488 0.50185
 C14 C -0.09680 -0.08923 0.55211
 H15 H -0.10296 -0.05414 0.56625
 C16 C -0.08981 -0.15092 0.56449
 H17 H -0.08950 -0.16197 0.58803
 Zn18 Zn -0.12835 -0.00664 0.50533
 N19 N -0.10071 -0.07677 0.52267
 C20 C 0.01952 0.08397 0.47193
 N21 N -0.05062 0.07353 0.47783
 C22 C -0.07036 0.12221 0.46390
 C23 C -0.01895 0.18437 0.44293
 C24 C 0.07319 0.14600 0.45098
 C25 C -0.29079 -0.10971 0.49717
 C26 C -0.35262 -0.15844 0.48119
 C27 C -0.26052 -0.12724 0.44112
 C28 C -0.20148 -0.07522 0.45705
 N29 N -0.21704 -0.06763 0.48464
 H30 H 0.03384 0.04449 0.48344
 H31 H -0.12660 0.11231 0.46913
 H32 H -0.03621 0.22225 0.43214
 H33 H 0.12877 0.15367 0.44650
 H34 H -0.30185 -0.10717 0.51976
 H35 H -0.41082 -0.19062 0.49161
 H36 H -0.24511 -0.13198 0.41940
 H37 H -0.14237 -0.04282 0.44769
 C38 C -0.08997 -0.20171 0.54650
 C39 C -0.15494 0.13759 0.57086
 C40 C -0.33782 -0.16975 0.45299
 C41 C 0.05392 0.19709 0.43620
 C42 C 1.17604 0.02945 0.12014
 H43 H 1.18282 0.08616 0.11601
 C44 C 1.22502 0.01539 0.10494
 H45 H 1.26883 0.06147 0.08888
 C46 C 1.11392 -0.09733 0.14775
 H47 H 1.07206 -0.14003 0.16507
 C48 C 1.16243 -0.11349 0.13335
 H49 H 1.15658 -0.16942 0.13938
 N50 N 1.12245 -0.02631 0.14124
 C51 C 0.95599 0.03454 0.15964
 H52 H 0.96122 0.03667 0.18289
 C53 C 0.89173 0.02904 0.14702
 H54 H 0.84850 0.02868 0.16059
 C55 C 1.00151 0.02371 0.11437
 H56 H 1.04179 0.01692 0.10212
 C57 C 0.93889 0.01992 0.10068
 H58 H 0.93235 0.01147 0.07788
 Zn59 Zn 1.07148 0.00366 0.16522
 N60 N 1.00762 0.02876 0.14353
 C61 C 1.15157 0.15412 0.18623
 N62 N 1.14997 0.08794 0.18295
 C63 C 1.20566 0.07647 0.19330
 C64 C 1.26460 0.13123 0.20846
 C65 C 1.20972 0.21068 0.20154
 C66 C 0.93554 -0.13913 0.18720
 C67 C 0.87820 -0.19421 0.20878
 C68 C 0.96569 -0.12907 0.24556
 C69 C 1.02067 -0.07451 0.22336
 N70 N 1.00446 -0.07977 0.19483
 H71 H 1.10689 0.16218 0.17765
 H72 H 1.20307 0.02336 0.19039
 H73 H 1.30712 0.11958 0.21703
 H74 H 1.20904 0.26199 0.20464
 H75 H 0.92373 -0.14139 0.16436
 H76 H 0.82285 -0.23958 0.20234
 H77 H 0.97908 -0.12258 0.26815
 H78 H 1.07505 -0.02639 0.22910
 C79 C 0.88147 0.01910 0.11745
 C80 C 1.21966 -0.05621 0.11201
 C81 C 0.89264 -0.18851 0.23841
 C82 C 1.26653 0.19873 0.21327
 C83 C 0.13209 0.94895 0.86399
 H84 H 0.07664 0.89852 0.86020
 C85 C 0.18700 0.93812 0.87730
 H86 H 0.17334 0.87915 0.88408
 C87 C 0.21887 1.08717 0.85790
 H88 H 0.23175 1.14477 0.84913
 C89 C 0.27523 1.07892 0.87206
 H90 H 0.33139 1.13039 0.87449
 N91 N 0.14951 1.02221 0.85379
 C92 C -0.08754 0.94565 0.83910
 H93 H -0.08873 0.93897 0.81618
 C94 C -0.15517 0.92615 0.85476
 H95 H -0.20830 0.90231 0.84370
 C96 C -0.01542 0.99085 0.88037
 H97 H 0.03984 1.01810 0.88993
 C98 C -0.08099 0.97525 0.89648
 H99 H -0.07542 0.98896 0.91865
 Zn100 Zn 0.07443 1.01909 0.82948
 N101 N -0.01966 0.97648 0.85216
 C102 C 0.00877 0.88192 0.80000
 N103 N 0.06899 0.95660 0.80121
 C104 C 0.13627 0.98840 0.78445
 C105 C 0.14491 0.94546 0.76528
 C106 C 0.01494 0.83665 0.78098
 C107 C 0.10670 1.17112 0.82823
 C108 C 0.10555 1.23660 0.81621
 C109 C 0.09415 1.19498 0.76859
 C110 C 0.09494 1.13002 0.78154
 N111 N 0.09948 1.11844 0.81096
 H112 H -0.04266 0.85601 0.81459
 H113 H 0.18417 1.04692 0.78660
 H114 H 0.19937 0.97203 0.75237
 H115 H -0.03306 0.77702 0.78064
 H116 H 0.10837 1.15965 0.85163
 H117 H 0.10769 1.27594 0.83053
 H118 H 0.08669 1.20072 0.74541
 H119 H 0.08642 1.08626 0.76829
 C120 C -0.15216 0.94311 0.88361
 C121 C 0.25986 1.00338 0.88094
 C122 C 0.09670 1.24776 0.78617
 C123 C 0.08412 0.86833 0.76352
 C124 C 0.33294 -0.06995 0.00999
 C125 C 0.34001 -0.06119 -0.02004
 C126 C 0.41739 -0.02973 -0.02797
 N127 N 0.45800 -0.01778 -0.00400
 C128 C 0.40639 -0.04285 0.01919
 C129 C 0.44958 -0.01279 -0.05687
 C130 C 0.52222 -0.00173 -0.06346
 C131 C 0.56022 0.02439 -0.09114
 C132 C 0.62237 0.01592 -0.08951
 C133 C 0.62059 -0.01481 -0.06085
 N134 N 0.55981 -0.02482 -0.04504
 C135 C 0.66901 -0.04088 -0.05079
 C136 C 0.68284 -0.04774 -0.02088
 C137 C 0.72360 -0.07928 -0.00870
 C138 C 0.72524 -0.07217 0.02065
 C139 C 0.68452 -0.03755 0.02540
 N140 N 0.65931 -0.02208 -0.00001
 C141 C 0.67083 -0.02063 0.05273
 C142 C 0.61127 -0.00712 0.05792
 C143 C 0.60195 0.02093 0.08255
 C144 C 0.53102 0.01299 0.08185
 C145 C 0.50029 -0.01732 0.05642
 N146 N 0.54929 -0.02924 0.04187
 C147 C 0.42585 -0.03907 0.04844
 H148 H 0.27973 -0.09425 0.02342
 H149 H 0.29314 -0.07820 -0.03427
 H150 H 0.53562 -0.06122 0.02443
 H151 H 0.54340 0.04495 -0.11068
 H152 H 0.66329 0.02932 -0.10751
 H153 H 0.74859 -0.10575 -0.01955
 H154 H 0.75122 -0.09255 0.03672
 H155 H 0.50484 0.02760 0.09817
 H156 H 0.53883 -0.05684 -0.02429
 H157 H 0.64116 0.04317 0.09969
 C158 C -0.08970 0.27182 0.67601
 C159 C -0.05434 0.29096 0.70175
 C160 C -0.01401 0.37197 0.69975
 N161 N -0.02379 0.40278 0.67375
 C162 C -0.07042 0.34165 0.65938
 C163 C 0.03260 0.41687 0.72119
 C164 C 0.05988 0.49711 0.72019
 C165 C 0.11846 0.54822 0.73631
 C166 C 0.12176 0.61787 0.73175
 C167 C 0.06559 0.60742 0.71278
 N168 N 0.02805 0.53374 0.70585
 C169 C 0.04543 0.66262 0.70454
 C170 C -0.00048 0.65690 0.68116
 C171 C -0.03161 0.70214 0.67490
 C172 C -0.06595 0.68329 0.64903
 C173 C -0.05254 0.62887 0.64002
 N174 N -0.01289 0.61257 0.65981
 C175 C -0.07125 0.59910 0.61304
 C176 C -0.07143 0.53171 0.60833
 C177 C -0.07482 0.50700 0.58131
 C178 C -0.08217 0.43543 0.58654
 C179 C -0.08131 0.41937 0.61648
 N180 N -0.07476 0.47804 0.62965
 C181 C -0.09344 0.34858 0.63099
 H182 H -0.12607 0.21329 0.67031
 H183 H -0.05916 0.24955 0.71994
 H184 H -0.08242 0.47615 0.65209
 H185 H 0.15436 0.53631 0.75029
 H186 H 0.16005 0.66965 0.74174
 H187 H -0.02980 0.74437 0.68752
 H188 H -0.09716 0.70713 0.63827
 H189 H -0.08772 0.39917 0.57021
 H190 H -0.02278 0.50703 0.69515
 H191 H -0.07287 0.53673 0.55998
 C192 C 0.62020 0.75042 0.34764
 C193 C 0.65718 0.74720 0.32360
 C194 C 0.61740 0.66948 0.31919
 N195 N 0.55849 0.62476 0.33993
 C196 C 0.56053 0.67406 0.35760
 C197 C 0.64035 0.64036 0.29794
 C198 C 0.58953 0.56732 0.28833
 C199 C 0.61181 0.53201 0.27034
 C200 C 0.54534 0.46384 0.26514
 C201 C 0.48438 0.45864 0.28055
 N202 N 0.51172 0.52286 0.29414
 C203 C 0.40575 0.39675 0.28092
 C204 C 0.34805 0.38314 0.30189
 C205 C 0.27022 0.32398 0.30292
 C206 C 0.23576 0.32565 0.32802
 C207 C 0.29368 0.38487 0.34169
 N208 N 0.36227 0.41962 0.32588
 C209 C 0.28351 0.40057 0.36960
 C210 C 0.34276 0.46157 0.38314
 C211 C 0.34093 0.46615 0.41276
 C212 C 0.40659 0.53593 0.41705
 C213 C 0.44568 0.57291 0.38975
 N214 N 0.40643 0.52677 0.36919
 C215 C 0.51343 0.64909 0.38398
 H216 H 0.63599 0.80309 0.35671
 H217 H 0.70735 0.79636 0.31070
 H218 H 0.41736 0.54288 0.34662
 H219 H 0.66979 0.55316 0.26170
 H220 H 0.54278 0.42295 0.25158
 H221 H 0.24093 0.28194 0.28789
 H222 H 0.17553 0.28592 0.33586
 H223 H 0.42326 0.55616 0.43804
 H224 H 0.47871 0.53896 0.30464
 H225 H 0.29712 0.42346 0.42959
 N226 N -0.20438 0.25083 0.60804
 N227 N -0.22258 0.19471 0.59188
 C228 C -0.16025 0.18907 0.58951
 C229 C -0.10300 0.24380 0.60504
 N230 N -0.13313 0.28066 0.61625
 H231 H -0.04419 0.25847 0.60685
 N232 N 0.77769 0.70789 0.30558
 N233 N 0.84572 0.75326 0.29054
 C234 C 0.83173 0.75912 0.26206
 C235 C 0.75226 0.71554 0.26015
 N236 N 0.72093 0.68462 0.28778
 H237 H 0.72021 0.71007 0.24096
 N238 N 0.38157 -0.06685 -0.09949
 N239 N 0.33057 -0.06443 -0.11641
 C240 C 0.31988 -0.00956 -0.10806
 C241 C 0.36589 0.02173 -0.08538
 N242 N 0.40318 -0.01597 -0.08066
 H243 H 0.36818 0.06357 -0.07237
 N244 N -0.14392 0.60253 0.57124
 N245 N -0.14901 0.65403 0.55263
 C246 C -0.09621 0.72556 0.55945
 C247 C -0.05820 0.71642 0.58264
 N248 N -0.08986 0.63865 0.58957
 H249 H -0.01243 0.76206 0.59350
 N250 N 0.41056 0.29118 0.26378
 N251 N 0.37488 0.23792 0.24597
 C252 C 0.32492 0.25224 0.23204
 C253 C 0.33207 0.31720 0.24175
 N254 N 0.38567 0.33926 0.26162
 H255 H 0.29865 0.34316 0.23637
 N256 N 0.66365 -0.10328 -0.09328
 N257 N 0.71020 -0.10778 -0.11158
 C258 C 0.78155 -0.06915 -0.10164
 C259 C 0.77688 -0.04067 -0.07639
 N260 N 0.70238 -0.06313 -0.07204
 H261 H 0.82341 -0.00319 -0.06353
 N262 N 0.34494 -0.11823 0.09288
 N263 N 0.28902 -0.12556 0.10998
 C264 C 0.27604 -0.06980 0.09869
 C265 C 0.32618 -0.02774 0.07405
 N266 N 0.36774 -0.06008 0.07121
 H267 H 0.33189 0.02101 0.05948
 N268 N 0.48918 0.70088 0.42528
 N269 N 0.52796 0.74784 0.44489
 C270 C 0.60393 0.77933 0.43798
 C271 C 0.60988 0.74884 0.41361
 N272 N 0.53719 0.70022 0.40631
 H273 H 0.66149 0.75661 0.40346
 N274 N 0.04615 0.39056 0.77314
 N275 N 0.06453 0.34800 0.79096
 C276 C 0.08202 0.30893 0.77419
 C277 C 0.07398 0.32948 0.74532
 N278 N 0.05093 0.37997 0.74565
 H279 H 0.08268 0.30902 0.72600
 N280 N 0.68446 -0.05360 0.10407
 N281 N 0.73899 -0.04204 0.12197
 C282 C 0.80693 -0.00165 0.10559
 C283 C 0.79219 0.01094 0.07687
 N284 N 0.71498 -0.02209 0.07691
 H285 H 0.83343 0.04218 0.05800
 N286 N 0.15291 0.36636 0.38174
 N287 N 0.09100 0.31331 0.39914
 C288 C 0.10815 0.26390 0.41398
 C289 C 0.18313 0.28853 0.40499
 N290 N 0.20857 0.35242 0.38499
 H291 H 0.21646 0.26368 0.41233
 N292 N 0.15005 0.79205 0.71316
 N293 N 0.16203 0.84831 0.72825
 C294 C 0.09508 0.82190 0.74406
 C295 C 0.04153 0.74700 0.73824
 N296 N 0.07825 0.73093 0.71894
 H297 H -0.01848 0.70849 0.74650
   
