data_POSCAR
  _audit_creation_date              2014-09-24
  _audit_creation_method            'ToBaCCo'
  _symmetry_space_group_name_H-M    'P1'
  _symmetry_Int_Tables_number       1
  _symmetry_cell_setting            triclinic
  loop_
  _symmetry_equiv_pos_as_xyz
 x,y,z
_cell_length_a 44.4270
_cell_length_b 43.7824
_cell_length_c 44.5277
_cell_angle_alpha 91.511900
_cell_angle_beta 90.525600
_cell_angle_gamma 92.068300
loop_
  _atom_site_label
  _atom_site_type_symbol
  _atom_site_fract_x
  _atom_site_fract_y
  _atom_site_fract_z
C1 C 0.19534 1.23162 0.19042
 N2 N 0.18123 1.21889 0.21427
 C3 C 0.19232 1.19415 0.22780
 N4 N 0.21787 1.18196 0.21696
 C5 C 0.23228 1.19419 0.19307
 N6 N 0.22091 1.21905 0.17996
 C7 C 0.80329 0.76987 0.18707
 N8 N 0.81438 0.78230 0.21338
 C9 C 0.80184 0.80712 0.22654
 N10 N 0.77784 0.81959 0.21290
 C11 C 0.76651 0.80759 0.18652
 N12 N 0.77937 0.78278 0.17381
 C13 C 0.80597 1.22851 -0.20350
 N14 N 0.77968 1.21713 -0.19216
 C15 C 0.76687 1.19044 -0.20314
 N16 N 0.78050 1.17509 -0.22586
 C17 C 0.80663 1.18619 -0.23775
 N18 N 0.81920 1.21283 -0.22628
 C19 C 0.18310 0.77095 -0.19045
 N20 N 0.16985 0.78251 -0.21511
 C21 C 0.18109 0.80847 -0.22763
 N22 N 0.20599 0.82282 -0.21509
 C23 C 0.21952 0.81162 -0.19041
 N24 N 0.20786 0.78572 -0.17820
 C25 C 0.55053 1.04490 -0.00880
 H26 H 0.55262 1.04547 0.01543
 C27 C 0.57218 1.05999 -0.02605
 H28 H 0.59084 1.07245 -0.01499
 C29 C 0.52416 1.02708 -0.05274
 H30 H 0.50590 1.01353 -0.06309
 C31 C 0.54506 1.04228 -0.07086
 H32 H 0.54265 1.04040 -0.09507
 N33 N 0.52728 1.02862 -0.02230
 C34 C 0.45777 1.01870 0.04539
 H35 H 0.45681 0.99409 0.04718
 C36 C 0.43808 1.03644 0.06198
 H37 H 0.42241 1.02524 0.07697
 C38 C 0.47952 1.06293 0.02351
 H39 H 0.49533 1.07305 0.00801
 C40 C 0.46005 1.08157 0.03953
 H41 H 0.46105 1.10596 0.03606
 Zn42 Zn 0.50163 1.00586 0.00314
 N43 N 0.47797 1.03211 0.02667
 C44 C 0.52712 0.98695 0.05828
 N45 N 0.52676 0.98291 0.02788
 C46 C 0.54582 0.96362 0.01396
 C47 C 0.56588 0.94699 0.03073
 C48 C 0.54697 0.97088 0.07594
 C49 C 0.45365 0.99315 -0.03679
 C50 C 0.43219 0.97530 -0.05307
 C51 C 0.45389 0.93011 -0.03328
 C52 C 0.47492 0.94883 -0.01735
 N53 N 0.47459 0.97975 -0.01955
 H54 H 0.51248 1.00308 0.06889
 H55 H 0.54543 0.96125 -0.01029
 H56 H 0.58049 0.93139 0.01917
 H57 H 0.54732 0.97489 0.10003
 H58 H 0.45346 1.01782 -0.03761
 H59 H 0.41544 0.98647 -0.06627
 H60 H 0.45474 0.90554 -0.03147
 H61 H 0.49121 0.93858 -0.00298
 C62 C 0.43876 1.06832 0.05892
 C63 C 0.56967 1.05857 -0.05749
 C64 C 0.43208 0.94330 -0.05139
 C65 C 0.56677 0.95059 0.06219
 C66 C -0.02141 0.52069 1.06387
 H67 H -0.00733 0.50419 1.07413
 C68 C -0.03761 0.54059 1.08209
 H69 H -0.03631 0.53873 1.10626
 C70 C -0.03986 0.54357 1.02006
 H71 H -0.04028 0.54477 0.99582
 C72 C -0.05643 0.56385 1.03737
 H73 H -0.06939 0.58079 1.02624
 N74 N -0.02306 0.52234 1.03344
 C75 C 0.05209 0.46768 1.02697
 H76 H 0.06411 0.48297 1.01224
 C77 C 0.06785 0.44590 1.04253
 H78 H 0.09194 0.44474 1.03956
 C79 C 0.00594 0.44934 1.04718
 H80 H -0.01828 0.45065 1.04856
 C81 C 0.02079 0.42741 1.06330
 H82 H 0.00779 0.41235 1.07754
 Zn83 Zn -0.00077 0.49690 1.00759
 N84 N 0.02170 0.46912 1.02972
 C85 C 0.04510 0.54125 1.00139
 N86 N 0.02488 0.52313 0.98544
 C87 C 0.02167 0.52564 0.95521
 C88 C 0.03928 0.54710 0.93986
 C89 C 0.06327 0.56283 0.98694
 C90 C -0.05740 0.47349 0.98542
 C91 C -0.07644 0.45419 0.96774
 C92 C -0.03270 0.43473 0.94285
 C93 C -0.01449 0.45421 0.96118
 N94 N -0.02704 0.47319 0.98183
 H95 H 0.04683 0.53910 1.02549
 H96 H 0.00484 0.51169 0.94306
 H97 H 0.03578 0.54934 0.91594
 H98 H 0.07940 0.57680 1.00009
 H99 H -0.06693 0.48814 1.00246
 H100 H -0.10055 0.45463 0.97096
 H101 H -0.02230 0.41942 0.92687
 H102 H 0.00976 0.45397 0.95926
 C103 C 0.05219 0.42534 1.06101
 C104 C -0.05548 0.56251 1.06884
 C105 C -0.06410 0.43438 0.94622
 C106 C 0.06029 0.56625 0.95578
 C107 C 1.04831 -0.00900 0.54374
 H108 H 1.04913 0.01574 0.54417
 C109 C 1.06531 -0.02468 0.56442
 H110 H 1.07900 -0.01178 0.58089
 C111 C 1.02831 -0.05568 0.52250
 H112 H 1.01345 -0.06770 0.50653
 C113 C 1.04499 -0.07230 0.54273
 H114 H 1.04325 -0.09703 0.54156
 N115 N 1.03043 -0.02460 0.52321
 C116 C 1.01831 0.04079 0.45240
 H117 H 0.99400 0.04154 0.45206
 C118 C 1.03521 0.05788 0.43214
 H119 H 1.02365 0.07225 0.41671
 C120 C 1.06265 0.02098 0.47309
 H121 H 1.07319 0.00600 0.48860
 C122 C 1.08044 0.03749 0.45299
 H123 H 1.10458 0.03493 0.45333
 Zn124 Zn 1.00708 -0.00122 0.49721
 N125 N 1.03217 0.02298 0.47247
 C126 C 0.98542 0.05466 0.52118
 N127 N 0.98284 0.02363 0.52176
 C128 C 0.96421 0.00934 0.54143
 C129 C 0.94715 0.02636 0.56154
 C130 C 0.96869 0.07257 0.54082
 C131 C 0.99801 -0.04563 0.45199
 C132 C 0.98222 -0.06380 0.43056
 C133 C 0.93596 -0.04250 0.44815
 C134 C 0.95266 -0.02495 0.46954
 N135 N 0.98313 -0.02683 0.47103
 H136 H 1.00084 0.06565 0.50591
 H137 H 0.96303 -0.01537 0.54179
 H138 H 0.93301 0.01450 0.57747
 H139 H 0.97094 0.09722 0.53983
 H140 H 1.02231 -0.04630 0.45336
 H141 H 0.99460 -0.07891 0.41599
 H142 H 0.91184 -0.04001 0.44675
 H143 H 0.94135 -0.00923 0.48433
 C144 C 1.06674 0.05617 0.43202
 C145 C 1.06376 -0.05680 0.56413
 C146 C 0.95076 -0.06213 0.42811
 C147 C 0.94940 0.05846 0.56154
 C148 C 0.19737 0.27033 1.15151
 C149 C 0.18437 0.29451 1.13681
 C150 C 0.15656 0.30541 1.14603
 C151 C 0.14254 0.29257 1.17114
 C152 C 0.15557 0.26861 1.18603
 C153 C 0.18300 0.25675 1.17620
 C154 C 0.14281 0.33028 1.12933
 C155 C 0.11290 0.33245 1.12649
 C156 C 0.09846 0.35644 1.10915
 C157 C 0.06965 0.35018 1.09689
 C158 C 0.05485 0.37235 1.08100
 C159 C 0.06833 0.40158 1.07743
 C160 C 0.09717 0.40791 1.08990
 C161 C 0.11210 0.38559 1.10559
 H162 H 0.21860 0.26222 1.14330
 H163 H 0.19578 0.30432 1.11773
 H164 H 0.12157 0.30114 1.17950
 H165 H 0.14383 0.25924 1.20511
 H166 H 0.15773 0.34582 1.11750
 H167 H 0.09819 0.31491 1.13579
 H168 H 0.05863 0.32792 1.09940
 H169 H 0.03291 0.36646 1.07128
 H170 H 0.10795 0.43035 1.08811
 H171 H 0.13393 0.39151 1.11552
 C172 C -0.19424 0.73198 1.14576
 C173 C -0.18013 0.70760 1.13159
 C174 C -0.15464 0.69495 1.14447
 C175 C -0.14351 0.70732 1.17207
 C176 C -0.15762 0.73170 1.18632
 C177 C -0.18310 0.74460 1.17329
 C178 C -0.13985 0.67001 1.12760
 C179 C -0.11954 0.65168 1.13947
 C180 C -0.10418 0.62794 1.12155
 C181 C -0.07555 0.61918 1.13083
 C182 C -0.05985 0.59768 1.11397
 C183 C -0.07261 0.58428 1.08757
 C184 C -0.10169 0.59230 1.07882
 C185 C -0.11737 0.61379 1.09564
 H186 H -0.21376 0.74105 1.13484
 H187 H -0.18914 0.69867 1.11030
 H188 H -0.12351 0.69894 1.18255
 H189 H -0.14814 0.74069 1.20738
 H190 H -0.14592 0.66707 1.10408
 H191 H -0.11286 0.65458 1.16279
 H192 H -0.06500 0.62952 1.15083
 H193 H -0.03742 0.59214 1.12122
 H194 H -0.11244 0.58178 1.05902
 H195 H -0.13989 0.61893 1.08841
 C196 C -0.15186 0.26618 0.79857
 C197 C -0.13718 0.29179 0.81215
 C198 C -0.15017 0.30743 0.83639
 C199 C -0.17896 0.29759 0.84597
 C200 C -0.19360 0.27185 0.83255
 C201 C -0.18008 0.25542 0.80894
 C202 C -0.13279 0.33353 0.85093
 C203 C -0.13824 0.34454 0.87873
 C204 C -0.11948 0.36880 0.89472
 C205 C -0.12480 0.37435 0.92541
 C206 C -0.10719 0.39597 0.94196
 C207 C -0.08372 0.41257 0.92823
 C208 C -0.07867 0.40760 0.89744
 C209 C -0.09645 0.38614 0.88077
 H210 H -0.14064 0.25454 0.78031
 H211 H -0.11522 0.29904 0.80401
 H212 H -0.19047 0.30961 0.86372
 H213 H -0.21551 0.26480 0.84095
 H214 H -0.11363 0.34236 0.83872
 H215 H -0.15635 0.33422 0.89146
 H216 H -0.14240 0.36154 0.93680
 H217 H -0.11145 0.39913 0.96573
 H218 H -0.06103 0.42048 0.88620
 H219 H -0.09186 0.38349 0.85710
 C220 C 0.14568 0.72658 0.80981
 C221 C 0.13274 0.70100 0.82353
 C222 C 0.14358 0.69162 0.85137
 C223 C 0.16850 0.70763 0.86471
 C224 C 0.18156 0.73310 0.85093
 C225 C 0.17008 0.74313 0.82350
 C226 C 0.12850 0.66511 0.86573
 C227 C 0.12766 0.66212 0.89561
 C228 C 0.11080 0.63695 0.91038
 C229 C 0.10034 0.64201 0.93963
 C230 C 0.08402 0.61911 0.95432
 C231 C 0.07815 0.59036 0.94023
 C232 C 0.08915 0.58507 0.91110
 C233 C 0.10534 0.60809 0.89632
 H234 H 0.13641 0.73348 0.78857
 H235 H 0.11378 0.68886 0.81264
 H236 H 0.17812 0.70044 0.88567
 H237 H 0.20050 0.74510 0.86197
 H238 H 0.11580 0.64896 0.85128
 H239 H 0.13782 0.67996 0.91009
 H240 H 0.10435 0.66399 0.95100
 H241 H 0.07553 0.62416 0.97655
 H242 H 0.08557 0.56300 0.89985
 H243 H 0.11390 0.60303 0.87414
 C244 C 1.14934 0.19195 0.26188
 C245 C 1.13346 0.17774 0.28491
 C246 C 1.14499 0.15241 0.29909
 C247 C 1.17277 0.14134 0.28969
 C248 C 1.18857 0.15531 0.26642
 C249 C 1.17701 0.18074 0.25199
 C250 C 1.12663 0.13699 0.32219
 C251 C 1.13847 0.12109 0.34446
 C252 C 1.11962 0.10494 0.36670
 C253 C 1.13093 0.10130 0.39585
 C254 C 1.11374 0.08576 0.41717
 C255 C 1.08503 0.07308 0.40960
 C256 C 1.07401 0.07630 0.38018
 C257 C 1.09105 0.09207 0.35900
 H258 H 1.13950 0.21140 0.25151
 H259 H 1.11198 0.18655 0.29163
 H260 H 1.18196 0.12134 0.29958
 H261 H 1.20969 0.14581 0.25959
 H262 H 1.10251 0.13978 0.32130
 H263 H 1.16269 0.12084 0.34734
 H264 H 1.15298 0.11081 0.40223
 H265 H 1.12283 0.08397 0.43967
 H266 H 1.05241 0.06608 0.37326
 H267 H 1.08210 0.09349 0.33641
 C268 C 1.14014 -0.19327 0.73501
 C269 C 1.12516 -0.18029 0.71103
 C270 C 1.13637 -0.15320 0.69845
 C271 C 1.16293 -0.13915 0.71052
 C272 C 1.17791 -0.15202 0.73458
 C273 C 1.16665 -0.17919 0.74737
 C274 C 1.11882 -0.13951 0.67406
 C275 C 1.13095 -0.12041 0.65400
 C276 C 1.11331 -0.10531 0.63047
 C277 C 1.12629 -0.07953 0.61682
 C278 C 1.11039 -0.06397 0.59514
 C279 C 1.08109 -0.07392 0.58646
 C280 C 1.06831 -0.10013 0.59959
 C281 C 1.08424 -0.11575 0.62122
 H282 H 1.13058 -0.21415 0.74406
 H283 H 1.10462 -0.19145 0.70231
 H284 H 1.17183 -0.11773 0.70214
 H285 H 1.19811 -0.14026 0.74338
 H286 H 1.09504 -0.14557 0.67301
 H287 H 1.15486 -0.11479 0.65512
 H288 H 1.14876 -0.07116 0.62321
 H289 H 1.12111 -0.04420 0.58506
 H290 H 1.04573 -0.10833 0.59352
 H291 H 1.07360 -0.13601 0.63033
 C292 C 0.80152 -0.15390 0.26716
 C293 C 0.81494 -0.13982 0.29274
 C294 C 0.84166 -0.15071 0.30473
 C295 C 0.85394 -0.17695 0.29162
 C296 C 0.84044 -0.19124 0.26625
 C297 C 0.81432 -0.17959 0.25323
 C298 C 0.85635 -0.13418 0.33068
 C299 C 0.88637 -0.13223 0.33413
 C300 C 0.90189 -0.11409 0.35855
 C301 C 0.93093 -0.10193 0.35338
 C302 C 0.94658 -0.08488 0.37580
 C303 C 0.93377 -0.08008 0.40424
 C304 C 0.90472 -0.09256 0.40952
 C305 C 0.88890 -0.10936 0.38691
 H306 H 0.78128 -0.14431 0.25820
 H307 H 0.80487 -0.11984 0.30270
 H308 H 0.87400 -0.18653 0.30095
 H309 H 0.85090 -0.21116 0.25665
 H310 H 0.84226 -0.12132 0.34575
 H311 H 0.90041 -0.14252 0.31716
 H312 H 0.94143 -0.10529 0.33173
 H313 H 0.96862 -0.07515 0.37066
 H314 H 0.89439 -0.08982 0.43131
 H315 H 0.86686 -0.11916 0.39190
 C316 C 0.80797 0.14250 0.72670
 C317 C 0.82227 0.12650 0.70364
 C318 C 0.84959 0.13763 0.69186
 C319 C 0.86257 0.16510 0.70399
 C320 C 0.84829 0.18118 0.72698
 C321 C 0.82077 0.17014 0.73877
 C322 C 0.86421 0.11929 0.66792
 C323 C 0.88574 0.13049 0.64986
 C324 C 0.90113 0.11167 0.62693
 C325 C 0.93029 0.12084 0.61830
 C326 C 0.94588 0.10367 0.59707
 C327 C 0.93248 0.07705 0.58365
 C328 C 0.90300 0.06819 0.59181
 C329 C 0.88745 0.08531 0.61318
 H330 H 0.78690 0.13303 0.73505
 H331 H 0.81187 0.10528 0.69493
 H332 H 0.88408 0.17411 0.69643
 H333 H 0.85917 0.20217 0.73568
 H334 H 0.85685 0.09553 0.66537
 H335 H 0.89335 0.15415 0.65229
 H336 H 0.94128 0.14113 0.62843
 H337 H 0.96868 0.11096 0.59162
 H338 H 0.89180 0.04819 0.58141
 H339 H 0.86460 0.07808 0.61840
 C340 C 0.26787 1.15106 0.19102
 C341 C 0.29150 1.13580 0.17758
 C342 C 0.30713 1.14854 0.15344
 C343 C 0.29877 1.17716 0.14309
 C344 C 0.27495 1.19238 0.15643
 C345 C 0.25899 1.17934 0.18034
 C346 C 0.33027 1.13027 0.13833
 C347 C 0.35278 1.14232 0.12206
 C348 C 0.37460 1.12308 0.10610
 C349 C 0.40411 1.13448 0.10176
 C350 C 0.42506 1.11674 0.08663
 C351 C 0.41674 1.08737 0.07513
 C352 C 0.38694 1.07632 0.07893
 C353 C 0.36613 1.09392 0.09423
 H354 H 0.25608 1.14026 0.20933
 H355 H 0.29736 1.11370 0.18584
 H356 H 0.30978 1.18737 0.12405
 H357 H 0.26865 1.21407 0.14756
 H358 H 0.32901 1.10580 0.14144
 H359 H 0.35614 1.16690 0.12125
 H360 H 0.41107 1.15700 0.11046
 H361 H 0.44785 1.12589 0.08427
 H362 H 0.37948 1.05423 0.06959
 H363 H 0.34325 1.08488 0.09613
 C364 C 0.72071 1.19598 -0.17175
 C365 C 0.69542 1.18334 -0.15753
 C366 C 0.68855 1.15187 -0.16010
 C367 C 0.70654 1.13342 -0.17837
 C368 C 0.73151 1.14613 -0.19300
 C369 C 0.73918 1.17745 -0.18942
 C370 C 0.66272 1.13881 -0.14339
 C371 C 0.66360 1.11137 -0.13084
 C372 C 0.63904 1.09874 -0.11215
 C373 C 0.64639 1.07993 -0.08836
 C374 C 0.62384 1.06734 -0.07034
 C375 C 0.59342 1.07275 -0.07620
 C376 C 0.58595 1.09117 -0.10033
 C377 C 0.60858 1.10425 -0.11806
 H378 H 0.72588 1.22024 -0.16878
 H379 H 0.68169 1.19802 -0.14380
 H380 H 0.70131 1.10918 -0.18138
 H381 H 0.74521 1.13126 -0.20654
 H382 H 0.64377 1.15316 -0.13919
 H383 H 0.68399 1.09859 -0.13241
 H384 H 0.66968 1.07516 -0.08356
 H385 H 0.63013 1.05287 -0.05211
 H386 H 0.56262 1.09557 -0.10532
 H387 H 0.60219 1.11811 -0.13669
 C388 C 0.25861 0.85451 -0.18930
 C389 C 0.28305 0.87050 -0.17557
 C390 C 0.29572 0.86039 -0.14877
 C391 C 0.28322 0.83384 -0.13586
 C392 C 0.25881 0.81782 -0.14962
 C393 C 0.24610 0.82802 -0.17642
 C394 C 0.32088 0.87897 -0.13455
 C395 C 0.33950 0.86863 -0.11350
 C396 C 0.36363 0.88794 -0.09852
 C397 C 0.37344 0.88020 -0.06976
 C398 C 0.39571 0.89803 -0.05453
 C399 C 0.40893 0.92391 -0.06789
 C400 C 0.39961 0.93127 -0.09699
 C401 C 0.37729 0.91347 -0.11220
 H402 H 0.24940 0.86309 -0.20990
 H403 H 0.29204 0.89096 -0.18592
 H404 H 0.29153 0.82565 -0.11478
 H405 H 0.24960 0.79767 -0.13892
 H406 H 0.32380 0.90229 -0.14175
 H407 H 0.33666 0.84545 -0.10598
 H408 H 0.36344 0.86056 -0.05879
 H409 H 0.40213 0.89189 -0.03203
 H410 H 0.40986 0.95064 -0.10817
 H411 H 0.37122 0.91955 -0.13479
 C412 C 0.73255 0.81238 0.14175
 C413 C 0.71019 0.82730 0.12623
 C414 C 0.69586 0.85218 0.13955
 C415 C 0.70439 0.86191 0.16888
 C416 C 0.72692 0.84709 0.18437
 C417 C 0.74143 0.82228 0.17090
 C418 C 0.67363 0.86842 0.12148
 C419 C 0.65180 0.88512 0.13343
 C420 C 0.63031 0.90168 0.11476
 C421 C 0.60137 0.90679 0.12569
 C422 C 0.58065 0.92248 0.10863
 C423 C 0.58864 0.93378 0.08040
 C424 C 0.61786 0.92916 0.06976
 C425 C 0.63847 0.91332 0.08672
 H426 H 0.74327 0.79344 0.13059
 H427 H 0.70419 0.81949 0.10359
 H428 H 0.69444 0.88152 0.17960
 H429 H 0.73329 0.85541 0.20673
 H430 H 0.67476 0.86550 0.09729
 H431 H 0.64856 0.88566 0.15750
 H432 H 0.59464 0.89826 0.14734
 H433 H 0.55827 0.92542 0.11740
 H434 H 0.62505 0.93828 0.04853
 H435 H 0.66096 0.91083 0.07808
   
