data_POSCAR
  _audit_creation_date              2014-09-24
  _audit_creation_method            'ToBaCCo'
  _symmetry_space_group_name_H-M    'P1'
  _symmetry_Int_Tables_number       1
  _symmetry_cell_setting            triclinic
  loop_
  _symmetry_equiv_pos_as_xyz
 x,y,z
_cell_length_a 11.3716
_cell_length_b 21.7709
_cell_length_c 11.6002
_cell_angle_alpha 87.566200
_cell_angle_beta 89.685400
_cell_angle_gamma 91.738100
loop_
  _atom_site_label
  _atom_site_type_symbol
  _atom_site_fract_x
  _atom_site_fract_y
  _atom_site_fract_z
N1 N 0.19167 0.02284 0.18944
 N2 N 0.27430 0.06187 0.22245
 N3 N 0.03140 -0.09302 0.20703
 N4 N -0.00476 -0.14549 0.25788
 N5 N 0.12842 -0.10024 0.14772
 N6 N 0.16090 -0.15814 0.15711
 N7 N 0.09221 0.03182 0.24342
 N8 N 0.10460 0.07829 0.31299
 C9 C 0.21952 0.09573 0.30003
 C10 C 0.07664 -0.18552 0.22663
 N11 N -0.25704 -0.04403 0.05105
 N12 N -0.33709 -0.08643 0.02513
 N13 N -0.14425 0.06435 0.18361
 N14 N -0.13921 0.10976 0.25494
 N15 N -0.20212 0.08003 0.08976
 N16 N -0.24059 0.14011 0.09738
 N17 N -0.20313 -0.05985 0.14719
 N18 N -0.24452 -0.11363 0.18841
 Mn19 Mn -0.05629 -0.01403 0.19679
 C20 C -0.32887 -0.12917 0.11240
 C21 C -0.19869 0.15556 0.20182
 N22 N 0.20199 -0.07981 -0.09114
 N23 N 0.23595 -0.14058 -0.10029
 N24 N 0.20716 0.06132 -0.14238
 N25 N 0.24693 0.11581 -0.18053
 N26 N 0.26180 0.04386 -0.04754
 N27 N 0.34001 0.08679 -0.01874
 N28 N 0.14732 -0.06172 -0.18552
 N29 N 0.14022 -0.10643 -0.25851
 Mn30 Mn 0.19728 -0.02889 0.04993
 C31 C 0.19474 -0.15414 -0.20592
 C32 C 0.33042 0.13086 -0.10384
 N33 N -0.12852 0.09998 -0.14760
 N34 N -0.16556 0.15711 -0.15736
 N35 N -0.08603 -0.02554 -0.24772
 N36 N -0.08530 -0.07076 -0.31887
 N37 N -0.18369 -0.02725 -0.18651
 N38 N -0.25055 -0.08026 -0.21232
 N39 N -0.02765 0.09582 -0.20197
 N40 N 0.00601 0.14918 -0.25080
 Mn41 Mn -0.19452 0.02730 -0.04908
 Mn42 Mn 0.06070 0.01776 -0.19508
 Cl43 Cl 0.00168 0.00051 0.00080
 C44 C -0.08052 0.18694 -0.22263
 C45 C -0.18475 -0.10427 -0.29648
 N46 N 0.68854 0.59784 0.54017
 N47 N 0.73709 0.65219 0.51534
 N48 N 0.69159 0.47065 0.67296
 N49 N 0.73062 0.42417 0.73798
 N50 N 0.74890 0.47514 0.57406
 N51 N 0.83040 0.43352 0.57070
 N52 N 0.63181 0.59709 0.63914
 N53 N 0.64017 0.65218 0.68449
 C54 C 0.70610 0.68567 0.60472
 C55 C 0.81862 0.40259 0.67341
 N56 N 0.35993 0.42210 0.69045
 N57 N 0.32733 0.36564 0.72466
 N58 N 0.39317 0.56398 0.71153
 N59 N 0.38108 0.61970 0.75032
 N60 N 0.29724 0.54583 0.65805
 N61 N 0.21829 0.58892 0.65866
 N62 N 0.45485 0.44009 0.74546
 N63 N 0.48923 0.39615 0.81888
 Mn64 Mn 0.54327 0.51831 0.69412
 C65 C 0.40782 0.35053 0.80540
 C66 C 0.27059 0.63385 0.71853
 N67 N 0.68705 0.45379 0.33842
 N68 N 0.76597 0.41089 0.33694
 N69 N 0.53091 0.56150 0.25305
 N70 N 0.49707 0.60708 0.18295
 N71 N 0.62767 0.57736 0.30696
 N72 N 0.66224 0.63389 0.27558
 N73 N 0.59161 0.43664 0.28346
 N74 N 0.60388 0.38118 0.24315
 Mn75 Mn 0.68881 0.52599 0.43969
 C76 C 0.71416 0.36661 0.27552
 C77 C 0.58104 0.65139 0.19754
 N78 N 0.23457 0.52351 0.42278
 N79 N 0.15238 0.56477 0.42709
 N80 N 0.35369 0.40492 0.35431
 N81 N 0.36162 0.35055 0.30952
 N82 N 0.29780 0.39991 0.45397
 N83 N 0.26530 0.34187 0.47868
 N84 N 0.29351 0.53001 0.32496
 N85 N 0.25460 0.57704 0.26161
 Mn86 Mn 0.29618 0.47247 0.55695
 Mn87 Mn 0.44177 0.48322 0.30238
 Cl88 Cl 0.49234 0.49991 0.49835
 C89 C 0.16515 0.59717 0.32590
 C90 C 0.30369 0.31211 0.38616
 N91 N 0.41241 0.22026 0.36195
 N92 N 0.39317 0.16183 0.33929
 C93 C 0.27601 0.15092 0.34610
 C94 C 0.22341 0.20491 0.37429
 N95 N 0.31209 0.24688 0.38346
 H96 H 0.13050 0.21442 0.37514
 N97 N 0.50516 0.73238 0.06734
 N98 N 0.52602 0.79190 0.04288
 C99 C 0.61284 0.80998 0.11400
 C100 C 0.64530 0.76019 0.18146
 N101 N 0.57670 0.71278 0.14978
 H102 H 0.71393 0.75826 0.24582
 N103 N 0.98128 0.33553 0.65007
 N104 N 1.00996 0.27810 0.67458
 C105 C 0.92276 0.25237 0.74119
 C106 C 0.83966 0.29628 0.75835
 N107 N 0.88015 0.34755 0.69989
 H108 H 0.75550 0.29053 0.80221
 N109 N 0.16034 0.71766 0.63527
 N110 N 0.14135 0.77632 0.65144
 C111 C 0.19816 0.79067 0.74891
 C112 C 0.25353 0.73902 0.79212
 N113 N 0.22715 0.69461 0.71846
 H114 H 0.30790 0.73418 0.86815
 N115 N 0.48595 0.27260 0.94144
 N116 N 0.46874 0.21296 0.96796
 C117 C 0.38446 0.19268 0.89615
 C118 C 0.34990 0.24115 0.82636
 N119 N 0.41456 0.29005 0.85712
 H120 H 0.28291 0.24108 0.76030
 N121 N 0.83758 0.76828 0.54541
 N122 N 0.86880 0.82502 0.56901
 C123 C 0.79787 0.84177 0.65474
 C124 C 0.72051 0.79259 0.68386
 N125 N 0.75032 0.74747 0.61341
 H126 H 0.65414 0.78897 0.75128
 N127 N 0.00724 0.66682 0.35475
 N128 N -0.01811 0.72488 0.33137
 C129 C 0.06896 0.74917 0.26286
 C130 C 0.14827 0.70387 0.24327
 N131 N 0.10608 0.65322 0.30233
 H132 H 0.23142 0.70823 0.19726
 N133 N 0.82650 0.28427 0.35936
 N134 N 0.84946 0.22613 0.34338
 C135 C 0.79331 0.21063 0.24630
 C136 C 0.73386 0.26103 0.20313
 N137 N 0.75762 0.30591 0.27657
 H138 H 0.67962 0.26491 0.12689
   
