data_POSCAR
  _audit_creation_date              2014-09-24
  _audit_creation_method            'ToBaCCo'
  _symmetry_space_group_name_H-M    'P1'
  _symmetry_Int_Tables_number       1
  _symmetry_cell_setting            triclinic
  loop_
  _symmetry_equiv_pos_as_xyz
 x,y,z
_cell_length_a 61.9145
_cell_length_b 61.7838
_cell_length_c 61.8529
_cell_angle_alpha 90.044900
_cell_angle_beta 89.998800
_cell_angle_gamma 90.013600
loop_
  _atom_site_label
  _atom_site_type_symbol
  _atom_site_fract_x
  _atom_site_fract_y
  _atom_site_fract_z
C1 C 0.60793 0.62500 0.64154
 C2 C 0.59193 0.64107 0.64141
 C3 C 0.59204 0.65742 0.62563
 C4 C 0.60829 0.65752 0.60978
 C5 C 0.62432 0.64148 0.60962
 C6 C 0.62422 0.62523 0.62564
 C7 C 0.60795 0.60883 0.65745
 C8 C 0.62420 0.59275 0.65801
 C9 C 0.64041 0.59330 0.64190
 C10 C 0.64042 0.60923 0.62576
 C11 C 0.65638 0.60932 0.60965
 C12 C 0.65647 0.62533 0.59350
 C13 C 0.64041 0.64141 0.59366
 H14 H 0.57951 0.64105 0.65377
 H15 H 0.60829 0.66995 0.59741
 H16 H 0.59570 0.60953 0.66992
 H17 H 0.65264 0.58080 0.64118
 H18 H 0.66892 0.59708 0.60982
 H19 H 0.64026 0.65370 0.58116
 C20 C 0.89074 0.37499 0.14194
 C21 C 0.90662 0.35880 0.14194
 C22 C 0.90718 0.34270 0.12568
 C23 C 0.89109 0.34324 0.10944
 C24 C 0.87497 0.35919 0.10942
 C25 C 0.87487 0.37522 0.12562
 C26 C 0.89060 0.39107 0.15797
 C27 C 0.87486 0.40745 0.15784
 C28 C 0.85904 0.40756 0.14155
 C29 C 0.85888 0.39151 0.12551
 C30 C 0.84294 0.39144 0.10941
 C31 C 0.84275 0.37532 0.09335
 C32 C 0.85886 0.35928 0.09345
 H33 H 0.91906 0.35949 0.15422
 H34 H 0.89038 0.33073 0.09720
 H35 H 0.90293 0.39105 0.17041
 H36 H 0.84670 0.42001 0.14155
 H37 H 0.83046 0.40375 0.10955
 H38 H 0.85901 0.34702 0.08091
 C39 C 0.39085 0.12502 -0.14116
 C40 C 0.40678 0.14119 -0.14106
 C41 C 0.40680 0.15741 -0.12511
 C42 C 0.39066 0.15731 -0.10911
 C43 C 0.37456 0.14134 -0.10908
 C44 C 0.37461 0.12516 -0.12521
 C45 C 0.39093 0.10878 -0.15703
 C46 C 0.37475 0.09262 -0.15756
 C47 C 0.35849 0.09317 -0.14150
 C48 C 0.35843 0.10913 -0.12536
 C49 C 0.34244 0.10923 -0.10927
 C50 C 0.34231 0.12524 -0.09310
 C51 C 0.35841 0.14129 -0.09318
 H52 H 0.41936 0.14101 -0.15325
 H53 H 0.39046 0.16988 -0.09688
 H54 H 0.40319 0.10947 -0.16949
 H55 H 0.34627 0.08065 -0.14080
 H56 H 0.32989 0.09699 -0.10948
 H57 H 0.35854 0.15357 -0.08065
 C58 C 0.10743 0.87518 0.35937
 C59 C 0.09137 0.85916 0.35949
 C60 C 0.09137 0.84250 0.37515
 C61 C 0.10797 0.84246 0.39086
 C62 C 0.12392 0.85859 0.39110
 C63 C 0.12372 0.87497 0.37527
 C64 C 0.10751 0.89134 0.34344
 C65 C 0.12363 0.90736 0.34322
 C66 C 0.13972 0.90716 0.35927
 C67 C 0.13982 0.89113 0.37531
 C68 C 0.15579 0.89101 0.39140
 C69 C 0.15598 0.87485 0.40740
 C70 C 0.14000 0.85867 0.40709
 H71 H 0.07945 0.85930 0.34669
 H72 H 0.10809 0.83046 0.40360
 H73 H 0.09518 0.89126 0.33099
 H74 H 0.15201 0.91966 0.35940
 H75 H 0.16825 0.90334 0.39133
 H76 H 0.13992 0.84629 0.41950
 N77 N 0.09850 0.15966 0.11630
 N78 N 0.09047 0.15123 0.13407
 C79 C 0.07312 0.16287 0.14022
 C80 C 0.07005 0.17943 0.12544
 C81 C 0.08649 0.17684 0.11048
 H82 H 0.06323 0.15936 0.15417
 H83 H 0.08963 0.18684 0.09650
 Cu84 Cu 0.10322 0.12545 0.14680
 Cu85 Cu 0.12410 0.14795 0.10212
 Cu86 Cu 0.14708 0.10216 0.12509
 N87 N 0.11594 0.09966 0.15953
 N88 N 0.13318 0.09071 0.15096
 C89 C 0.13875 0.07325 0.16268
 C90 C 0.12419 0.07102 0.17953
 C91 C 0.10989 0.08809 0.17698
 H92 H 0.15227 0.06281 0.15903
 H93 H 0.09624 0.09191 0.18716
 N94 N 0.15871 0.11622 0.09894
 N95 N 0.15005 0.13370 0.09028
 C96 C 0.16178 0.13951 0.07288
 C97 C 0.17861 0.12497 0.07039
 C98 C 0.17611 0.11042 0.08722
 H99 H 0.15822 0.15322 0.06265
 H100 H 0.18639 0.09677 0.09085
 H101 H 0.11976 0.11636 0.11222
 H102 H 0.13744 0.13388 0.12928
 N103 N 0.39955 0.83990 0.61686
 N104 N 0.40895 0.84973 0.63319
 C105 C 0.42672 0.83851 0.63889
 C106 C 0.42844 0.82063 0.62549
 C107 C 0.41088 0.82204 0.61173
 H108 H 0.43745 0.84284 0.65199
 H109 H 0.40681 0.81105 0.59874
 Cu110 Cu 0.39695 0.87603 0.64566
 Cu111 Cu 0.37369 0.85127 0.60305
 Cu112 Cu 0.35133 0.89758 0.62531
 N113 N 0.38355 0.90149 0.65848
 N114 N 0.36561 0.90965 0.65062
 C115 C 0.35968 0.92682 0.66264
 C116 C 0.37477 0.92967 0.67891
 C117 C 0.38972 0.91328 0.67574
 H118 H 0.34553 0.93659 0.65963
 H119 H 0.40384 0.91001 0.68547
 N120 N 0.33923 0.88301 0.59971
 N121 N 0.34762 0.86526 0.59134
 C122 C 0.33578 0.85929 0.57406
 C123 C 0.31915 0.87403 0.57135
 C124 C 0.32189 0.88884 0.58794
 H125 H 0.33924 0.84544 0.56395
 H126 H 0.31189 0.90278 0.59128
 H127 H 0.37831 0.88329 0.61168
 H128 H 0.36190 0.86629 0.63048
 N129 N 0.89956 0.66060 0.38347
 N130 N 0.90899 0.65074 0.36716
 C131 C 0.92677 0.66194 0.36145
 C132 C 0.92842 0.67987 0.37477
 C133 C 0.91085 0.67852 0.38851
 H134 H 0.93754 0.65762 0.34839
 H135 H 0.90682 0.68954 0.40149
 Cu136 Cu 0.89649 0.62469 0.35472
 Cu137 Cu 0.87391 0.64902 0.39761
 Cu138 Cu 0.85254 0.60156 0.37639
 N139 N 0.88399 0.59864 0.34228
 N140 N 0.86703 0.58944 0.35116
 C141 C 0.86163 0.57178 0.33962
 C142 C 0.87585 0.56989 0.32245
 C143 C 0.88981 0.58726 0.32464
 H144 H 0.84803 0.56139 0.34314
 H145 H 0.90325 0.59119 0.31421
 N146 N 0.84024 0.61642 0.40178
 N147 N 0.84816 0.63463 0.40965
 C148 C 0.83620 0.64073 0.42679
 C149 C 0.81996 0.62563 0.42992
 C150 C 0.82306 0.61046 0.41373
 H151 H 0.83930 0.65493 0.43651
 H152 H 0.81339 0.59622 0.41073
 H153 H 0.87915 0.61710 0.38924
 H154 H 0.86159 0.63324 0.37080
 N155 N 0.59920 0.34070 -0.11586
 N156 N 0.59049 0.34965 -0.13304
 C157 C 0.57312 0.33798 -0.13905
 C158 C 0.57073 0.32084 -0.12481
 C159 C 0.58762 0.32313 -0.11029
 H160 H 0.56280 0.34183 -0.15261
 H161 H 0.59136 0.31269 -0.09679
 Cu162 Cu 0.60254 0.37581 -0.14575
 Cu163 Cu 0.62493 0.35238 -0.10204
 Cu164 Cu 0.64777 0.39801 -0.12515
 N165 N 0.61587 0.40120 -0.15874
 N166 N 0.63372 0.40956 -0.15082
 C167 C 0.63961 0.42664 -0.16293
 C168 C 0.62461 0.42926 -0.17932
 C169 C 0.60975 0.41280 -0.17613
 H170 H 0.65362 0.43661 -0.15983
 H171 H 0.59567 0.40938 -0.18589
 N172 N 0.65960 0.38400 -0.09912
 N173 N 0.65096 0.36655 -0.09040
 C174 C 0.66268 0.36082 -0.07298
 C175 C 0.67948 0.37541 -0.07052
 C176 C 0.67697 0.38990 -0.08740
 H177 H 0.65908 0.34719 -0.06266
 H178 H 0.68719 0.40360 -0.09102
 H179 H 0.62059 0.38413 -0.11165
 H180 H 0.63730 0.36656 -0.12967
 C181 C -0.04425 0.29371 0.12566
 C182 C -0.05103 0.30329 0.14509
 C183 C -0.06682 0.31945 0.14511
 C184 C -0.07658 0.32642 0.12567
 C185 C -0.06965 0.31662 0.10622
 C186 C -0.05368 0.30064 0.10623
 C187 C -0.02747 0.27659 0.12566
 N188 N -0.01884 0.26933 0.10681
 N189 N -0.00371 0.25400 0.10680
 C190 C 0.00338 0.24522 0.12563
 N191 N -0.00529 0.25243 0.14448
 N192 N -0.02037 0.26781 0.14449
 C193 C 0.02031 0.22824 0.12559
 C194 C 0.02549 0.21697 0.14464
 C195 C 0.04153 0.20104 0.14457
 C196 C 0.05288 0.19614 0.12550
 C197 C 0.04771 0.20742 0.10648
 C198 C 0.03156 0.22321 0.10650
 H199 H -0.04416 0.29827 0.16039
 H200 H -0.07190 0.32569 0.16064
 H201 H -0.07580 0.32180 0.09070
 H202 H -0.04871 0.29374 0.09093
 H203 H 0.01713 0.22040 0.15963
 H204 H 0.04521 0.19278 0.15954
 H205 H 0.05596 0.20391 0.09146
 H206 H 0.02799 0.23156 0.09153
 C207 C 0.54289 0.70672 0.62590
 C208 C 0.53735 0.68480 0.62840
 C209 C 0.55332 0.66882 0.62843
 C210 C 0.57514 0.67440 0.62572
 C211 C 0.58070 0.69628 0.62311
 C212 C 0.56476 0.71230 0.62334
 C213 C 0.52594 0.72364 0.62595
 N214 N 0.53114 0.74481 0.62883
 N215 N 0.51587 0.76000 0.62891
 C216 C 0.49478 0.75467 0.62597
 N217 N 0.48960 0.73351 0.62303
 N218 N 0.50485 0.71831 0.62308
 C219 C 0.47779 0.77154 0.62594
 C220 C 0.45721 0.76710 0.61744
 C221 C 0.44122 0.78306 0.61722
 C222 C 0.44538 0.80373 0.62575
 C223 C 0.46588 0.80812 0.63444
 C224 C 0.48197 0.79225 0.63439
 H225 H 0.52066 0.67997 0.63049
 H226 H 0.54859 0.65205 0.63031
 H227 H 0.59743 0.70102 0.62116
 H228 H 0.56956 0.72903 0.62133
 H229 H 0.45349 0.75132 0.61077
 H230 H 0.42553 0.77912 0.61058
 H231 H 0.46962 0.82394 0.64098
 H232 H 0.49764 0.79618 0.64111
 C233 C 1.04270 0.79373 0.37482
 C234 C 1.03816 0.81465 0.36731
 C235 C 1.05416 0.83060 0.36723
 C236 C 1.07514 0.82624 0.37508
 C237 C 1.07943 0.80516 0.38284
 C238 C 1.06351 0.78913 0.38248
 C239 C 1.02577 0.77683 0.37467
 N240 N 1.03113 0.75551 0.37498
 N241 N 1.01587 0.74031 0.37476
 C242 C 0.99463 0.74581 0.37440
 N243 N 0.98928 0.76712 0.37417
 N244 N 1.00454 0.78232 0.37422
 C245 C 0.97767 0.72895 0.37434
 C246 C 0.95661 0.73385 0.38124
 C247 C 0.94065 0.71785 0.38151
 C248 C 0.94533 0.69675 0.37449
 C249 C 0.96630 0.69189 0.36734
 C250 C 0.98237 0.70778 0.36746
 H251 H 1.02222 0.81871 0.36136
 H252 H 1.04961 0.84661 0.36180
 H253 H 1.09536 0.80058 0.38839
 H254 H 1.06749 0.77310 0.38835
 H255 H 0.95251 0.75000 0.38669
 H256 H 0.92457 0.72208 0.38693
 H257 H 0.97037 0.67571 0.36198
 H258 H 0.99844 0.70354 0.36199
 C259 C 0.45592 0.20690 -0.12517
 C260 C 0.44969 0.19678 -0.10579
 C261 C 0.43373 0.18078 -0.10577
 C262 C 0.42369 0.17446 -0.12514
 C263 C 0.42990 0.18454 -0.14452
 C264 C 0.44579 0.20062 -0.14453
 C265 C 0.47292 0.22383 -0.12518
 N266 N 0.47816 0.23453 -0.14363
 N267 N 0.49345 0.24970 -0.14362
 C268 C 0.50420 0.25481 -0.12515
 N269 N 0.49895 0.24412 -0.10670
 N270 N 0.48364 0.22897 -0.10671
 C271 C 0.52127 0.27167 -0.12511
 C272 C 0.53361 0.27558 -0.10643
 C273 C 0.54970 0.29146 -0.10637
 C274 C 0.55376 0.30390 -0.12495
 C275 C 0.54141 0.30002 -0.14362
 C276 C 0.52540 0.28406 -0.14372
 H277 H 0.45714 0.20119 -0.09058
 H278 H 0.42943 0.17313 -0.09063
 H279 H 0.42225 0.18018 -0.15965
 H280 H 0.45014 0.20809 -0.15975
 H281 H 0.53088 0.26637 -0.09180
 H282 H 0.55874 0.29412 -0.09164
 H283 H 0.54423 0.30915 -0.15827
 H284 H 0.51622 0.28148 -0.15840
 C285 C 0.12370 -0.04329 0.29395
 C286 C 0.14304 -0.05344 0.30020
 C287 C 0.14302 -0.06941 0.31619
 C288 C 0.12365 -0.07567 0.32623
 C289 C 0.10430 -0.06563 0.31993
 C290 C 0.10432 -0.04960 0.30400
 C291 C 0.12372 -0.02626 0.27706
 N292 N 0.10531 -0.01546 0.27194
 N293 N 0.10535 -0.00017 0.25676
 C294 C 0.12379 0.00496 0.24603
 N295 N 0.14220 -0.00584 0.25116
 N296 N 0.14217 -0.02110 0.26635
 C297 C 0.12384 0.02190 0.22905
 C298 C 0.14247 0.02574 0.21664
 C299 C 0.14253 0.04161 0.20057
 C300 C 0.12401 0.05413 0.19656
 C301 C 0.10539 0.05035 0.20901
 C302 C 0.10528 0.03439 0.22502
 H303 H 0.15826 -0.04904 0.29278
 H304 H 0.15815 -0.07707 0.32051
 H305 H 0.08916 -0.06997 0.32753
 H306 H 0.08912 -0.04215 0.29959
 H307 H 0.15705 0.01644 0.21929
 H308 H 0.15722 0.04419 0.19146
 H309 H 0.09078 0.05955 0.20626
 H310 H 0.09064 0.03187 0.23426
 C311 C 0.62426 0.54381 -0.29337
 C312 C 0.64367 0.55075 -0.30283
 C313 C 0.64367 0.56671 -0.31881
 C314 C 0.62422 0.57649 -0.32573
 C315 C 0.60481 0.56951 -0.31594
 C316 C 0.60485 0.55336 -0.30013
 C317 C 0.62428 0.52669 -0.27658
 N318 N 0.60547 0.51790 -0.26947
 N319 N 0.60549 0.50250 -0.25440
 C320 C 0.62433 0.49529 -0.24576
 N321 N 0.64313 0.50409 -0.25287
 N322 N 0.64311 0.51943 -0.26798
 C323 C 0.62438 0.47827 -0.22887
 C324 C 0.64347 0.47322 -0.21767
 C325 C 0.64352 0.45735 -0.20159
 C326 C 0.62452 0.44603 -0.19644
 C327 C 0.60545 0.45096 -0.20773
 C328 C 0.60536 0.46696 -0.22371
 H329 H 0.65896 0.54385 -0.29787
 H330 H 0.65917 0.57191 -0.32499
 H331 H 0.58930 0.57573 -0.32102
 H332 H 0.58957 0.54833 -0.29325
 H333 H 0.65841 0.48160 -0.22122
 H334 H 0.65854 0.45383 -0.19337
 H335 H 0.59049 0.44268 -0.20406
 H336 H 0.59037 0.47042 -0.23204
 C337 C 0.37489 1.04365 0.79376
 C338 C 0.35546 1.05055 0.80318
 C339 C 0.35539 1.06649 0.81921
 C340 C 0.37480 1.07629 0.82622
 C341 C 0.39426 1.06928 0.81654
 C342 C 0.39429 1.05315 0.80069
 C343 C 0.37492 1.02666 0.77680
 N344 N 0.39375 1.01808 0.76948
 N345 N 0.39376 1.00285 0.75423
 C346 C 0.37493 0.99557 0.74560
 N347 N 0.35610 1.00416 0.75291
 N348 N 0.35609 1.01935 0.76820
 C349 C 0.37491 0.97867 0.72857
 C350 C 0.35576 0.97342 0.71752
 C351 C 0.35574 0.95758 0.70138
 C352 C 0.37482 0.94649 0.69602
 C353 C 0.39393 0.95163 0.70713
 C354 C 0.39400 0.96761 0.72316
 H355 H 0.34018 1.04367 0.79813
 H356 H 0.33987 1.07168 0.82534
 H357 H 0.40975 1.07550 0.82173
 H358 H 0.40959 1.04810 0.79389
 H359 H 0.34077 0.98163 0.72125
 H360 H 0.34068 0.95388 0.69330
 H361 H 0.40895 0.94353 0.70329
 H362 H 0.40904 0.97122 0.73134
 C363 C 0.87514 0.45667 0.20715
 C364 C 0.87747 0.43472 0.21266
 C365 C 0.87749 0.41878 0.19663
 C366 C 0.87492 0.42440 0.17479
 C367 C 0.87244 0.44631 0.16927
 C368 C 0.87270 0.46230 0.18527
 C369 C 0.87525 0.47354 0.22417
 N370 N 0.87856 0.49467 0.21911
 N371 N 0.87875 0.50980 0.23447
 C372 C 0.87551 0.50444 0.25552
 N373 N 0.87213 0.48332 0.26056
 N374 N 0.87206 0.46818 0.24522
 C375 C 0.87561 0.52123 0.27261
 C376 C 0.86666 0.51690 0.29304
 C377 C 0.86664 0.53275 0.30916
 C378 C 0.87584 0.55316 0.30532
 C379 C 0.88496 0.55746 0.28497
 C380 C 0.88470 0.54171 0.26873
 H381 H 0.87945 0.42986 0.22935
 H382 H 0.87925 0.40199 0.20133
 H383 H 0.87059 0.45108 0.15252
 H384 H 0.87080 0.47906 0.18051
 H385 H 0.85949 0.50130 0.29654
 H386 H 0.85963 0.52891 0.32473
 H387 H 0.89201 0.57310 0.28147
 H388 H 0.89179 0.54553 0.25318
 C389 C 0.29308 0.12513 -0.04378
 C390 C 0.30322 0.10575 -0.05006
 C391 C 0.31914 0.10578 -0.06609
 C392 C 0.32535 0.12519 -0.07614
 C393 C 0.31527 0.14457 -0.06985
 C394 C 0.29929 0.14454 -0.05389
 C395 C 0.27614 0.12510 -0.02682
 N396 N 0.26543 0.14357 -0.02161
 N397 N 0.25019 0.14355 -0.00641
 C398 C 0.24502 0.12507 0.00429
 N399 N 0.25575 0.10660 -0.00090
 N400 N 0.27096 0.10661 -0.01613
 C401 C 0.22805 0.12505 0.02122
 C402 C 0.22397 0.10636 0.03352
 C403 C 0.20799 0.10636 0.04948
 C404 C 0.19562 0.12500 0.05348
 C405 C 0.19966 0.14368 0.04117
 C406 C 0.21572 0.14373 0.02528
 H407 H 0.29888 0.09051 -0.04260
 H408 H 0.32680 0.09064 -0.07043
 H409 H 0.31956 0.15974 -0.07748
 H410 H 0.29182 0.15975 -0.04949
 H411 H 0.23315 0.09168 0.03084
 H412 H 0.20522 0.09162 0.05850
 H413 H 0.19061 0.15841 0.04393
 H414 H 0.21842 0.15842 0.01614
 C415 C 0.70579 0.62527 0.54429
 C416 C 0.69578 0.60585 0.55062
 C417 C 0.67979 0.60587 0.56658
 C418 C 0.67341 0.62530 0.57652
 C419 C 0.68335 0.64471 0.57015
 C420 C 0.69937 0.64470 0.55425
 C421 C 0.72282 0.62529 0.52743
 N422 N 0.73326 0.64386 0.52206
 N423 N 0.74853 0.64390 0.50691
 C424 C 0.75402 0.62536 0.49644
 N425 N 0.74360 0.60678 0.50182
 N426 N 0.72833 0.60674 0.51700
 C427 C 0.77096 0.62543 0.47949
 C428 C 0.77548 0.60658 0.46758
 C429 C 0.79133 0.60667 0.45150
 C430 C 0.80312 0.62558 0.44698
 C431 C 0.79866 0.64441 0.45894
 C432 C 0.78275 0.64435 0.47497
 H433 H 0.70027 0.59060 0.54326
 H434 H 0.67223 0.59068 0.57097
 H435 H 0.67893 0.65990 0.57768
 H436 H 0.70673 0.65995 0.54978
 H437 H 0.76674 0.59171 0.47062
 H438 H 0.79444 0.59181 0.44279
 H439 H 0.80727 0.65932 0.45581
 H440 H 0.77970 0.65916 0.48382
 C441 C 0.79349 0.37528 0.04406
 C442 C 0.80354 0.39468 0.05039
 C443 C 0.81946 0.39469 0.06640
 C444 C 0.82576 0.37529 0.07641
 C445 C 0.81573 0.35588 0.07011
 C446 C 0.79974 0.35588 0.05415
 C447 C 0.77662 0.37530 0.02703
 N448 N 0.76589 0.35684 0.02181
 N449 N 0.75073 0.35688 0.00653
 C450 C 0.74567 0.37536 -0.00423
 N451 N 0.75643 0.39381 0.00097
 N452 N 0.77156 0.39378 0.01627
 C453 C 0.72876 0.37540 -0.02122
 C454 C 0.72480 0.39406 -0.03360
 C455 C 0.70887 0.39406 -0.04962
 C456 C 0.69644 0.37544 -0.05357
 C457 C 0.70037 0.35680 -0.04117
 C458 C 0.71636 0.35676 -0.02523
 H459 H 0.79914 0.40992 0.04298
 H460 H 0.82706 0.40986 0.07076
 H461 H 0.82006 0.34071 0.07773
 H462 H 0.79231 0.34064 0.04973
 H463 H 0.73403 0.40872 -0.03095
 H464 H 0.70617 0.40877 -0.05871
 H465 H 0.69127 0.34210 -0.04387
 H466 H 0.71896 0.34209 -0.01602
 C467 C 0.20519 0.87475 0.45675
 C468 C 0.19885 0.85537 0.44665
 C469 C 0.18287 0.85541 0.43070
 C470 C 0.17290 0.87484 0.42441
 C471 C 0.17921 0.89422 0.43449
 C472 C 0.19515 0.89418 0.45050
 C473 C 0.22217 0.87468 0.47366
 N474 N 0.22750 0.89314 0.48435
 N475 N 0.24272 0.89305 0.49957
 C476 C 0.25329 0.87449 0.50475
 N477 N 0.24798 0.85604 0.49404
 N478 N 0.23274 0.85613 0.47884
 C479 C 0.27018 0.87437 0.52175
 C480 C 0.28226 0.85556 0.52593
 C481 C 0.29816 0.85546 0.54197
 C482 C 0.30231 0.87413 0.55429
 C483 C 0.29022 0.89292 0.55012
 C484 C 0.27439 0.89306 0.53402
 H485 H 0.20623 0.84011 0.45104
 H486 H 0.17851 0.84025 0.42307
 H487 H 0.17162 0.90941 0.43018
 H488 H 0.19960 0.90941 0.45795
 H489 H 0.27946 0.84086 0.51680
 H490 H 0.30701 0.84064 0.54484
 H491 H 0.29309 0.90766 0.55912
 H492 H 0.26542 0.90784 0.53124
   
