data_POSCAR
  _audit_creation_date              2014-09-24
  _audit_creation_method            'ToBaCCo'
  _symmetry_space_group_name_H-M    'P1'
  _symmetry_Int_Tables_number       1
  _symmetry_cell_setting            triclinic
  loop_
  _symmetry_equiv_pos_as_xyz
 x,y,z
_cell_length_a 49.6633
_cell_length_b 38.5776
_cell_length_c 34.6189
_cell_angle_alpha 90.157200
_cell_angle_beta 90.044800
_cell_angle_gamma 90.115400
loop_
  _atom_site_label
  _atom_site_type_symbol
  _atom_site_fract_x
  _atom_site_fract_y
  _atom_site_fract_z
C1 C 0.24962 0.26866 0.24917
 C2 C 0.24956 0.23331 0.24904
 C3 C 0.22942 0.21306 0.22658
 C4 C 0.26965 0.21305 0.27135
 C5 C 0.27136 0.28886 0.26837
 C6 C 0.22795 0.28889 0.23010
 C7 C 0.21369 0.18791 0.24523
 C8 C 0.19440 0.16900 0.22462
 C9 C 0.19076 0.17485 0.18501
 C10 C 0.20676 0.19950 0.16607
 C11 C 0.22608 0.21838 0.18671
 C12 C 0.27303 0.21834 0.31126
 C13 C 0.29233 0.19946 0.33171
 C14 C 0.30823 0.17489 0.31256
 C15 C 0.30458 0.16905 0.27297
 C16 C 0.28533 0.18792 0.25250
 C17 C 0.29855 0.28347 0.25884
 C18 C 0.31882 0.30207 0.27785
 C19 C 0.31211 0.32648 0.30625
 C20 C 0.28504 0.33249 0.31525
 C21 C 0.26476 0.31389 0.29630
 C22 C 0.23465 0.31398 0.20239
 C23 C 0.21445 0.33263 0.18359
 C24 C 0.18735 0.32661 0.19252
 C25 C 0.18054 0.30213 0.22069
 C26 C 0.20074 0.28348 0.23956
 H27 H 0.21609 0.18329 0.27589
 H28 H 0.18226 0.14997 0.23973
 H29 H 0.20432 0.20424 0.13541
 H30 H 0.23839 0.23720 0.17166
 H31 H 0.26078 0.23712 0.32647
 H32 H 0.29490 0.20406 0.36238
 H33 H 0.28291 0.18333 0.22181
 H34 H 0.30403 0.26475 0.23685
 H35 H 0.33970 0.29733 0.27053
 H36 H 0.27962 0.35137 0.33711
 H37 H 0.24392 0.31857 0.30388
 H38 H 0.25551 0.31867 0.19488
 H39 H 0.21994 0.35156 0.16191
 H40 H 0.15965 0.29739 0.22795
 H41 H 0.19519 0.26472 0.26138
 H42 H 0.31673 0.15004 0.25790
 C43 C 0.75023 0.23236 0.25007
 C44 C 0.75018 0.26771 0.25011
 C45 C 0.77005 0.28800 0.22737
 C46 C 0.73023 0.28785 0.27290
 C47 C 0.72851 0.21205 0.26903
 C48 C 0.77200 0.21222 0.23103
 C49 C 0.78583 0.31340 0.24574
 C50 C 0.80493 0.33221 0.22481
 C51 C 0.80831 0.32602 0.18525
 C52 C 0.79229 0.30120 0.16658
 C53 C 0.77315 0.28238 0.18747
 C54 C 0.72713 0.28232 0.31277
 C55 C 0.70790 0.30097 0.33369
 C56 C 0.69180 0.32555 0.31506
 C57 C 0.69518 0.33168 0.27552
 C58 C 0.71437 0.31303 0.25457
 C59 C 0.70132 0.21746 0.25950
 C60 C 0.68107 0.19861 0.27808
 C61 C 0.68781 0.17394 0.30605
 C62 C 0.71488 0.16797 0.31511
 C63 C 0.73514 0.18682 0.29659
 C64 C 0.76544 0.18682 0.20343
 C65 C 0.78574 0.16812 0.18485
 C66 C 0.81280 0.17439 0.19388
 C67 C 0.81948 0.19922 0.22189
 C68 C 0.79918 0.21793 0.24054
 H69 H 0.78362 0.31825 0.27641
 H70 H 0.81717 0.35142 0.23952
 H71 H 0.79465 0.29632 0.13593
 H72 H 0.76081 0.26338 0.17262
 H73 H 0.73953 0.26350 0.32759
 H74 H 0.70554 0.29614 0.36432
 H75 H 0.71658 0.31782 0.22392
 H76 H 0.69582 0.23632 0.23778
 H77 H 0.66019 0.20331 0.27071
 H78 H 0.72031 0.14888 0.33663
 H79 H 0.75598 0.18213 0.30416
 H80 H 0.74461 0.18189 0.19588
 H81 H 0.78035 0.14890 0.16330
 H82 H 0.84034 0.20416 0.22925
 H83 H 0.80464 0.23693 0.26228
 H84 H 0.68287 0.35070 0.26084
 C85 C 0.75026 0.77109 0.75074
 C86 C 0.75026 0.73574 0.75074
 C87 C 0.72854 0.71538 0.73169
 C88 C 0.77198 0.71558 0.76977
 C89 C 0.77014 0.79137 0.77366
 C90 C 0.73039 0.79116 0.72780
 C91 C 0.70135 0.72078 0.74120
 C92 C 0.68113 0.70152 0.72289
 C93 C 0.68791 0.67648 0.69521
 C94 C 0.71498 0.67062 0.68609
 C95 C 0.73519 0.68986 0.70433
 C96 C 0.76533 0.69017 0.79714
 C97 C 0.78556 0.67112 0.81536
 C98 C 0.81262 0.67707 0.80621
 C99 C 0.81939 0.70200 0.77852
 C100 C 0.79916 0.72106 0.76023
 C101 C 0.78610 0.81656 0.75544
 C102 C 0.80544 0.83505 0.77646
 C103 C 0.80887 0.82876 0.81600
 C104 C 0.79259 0.80421 0.83453
 C105 C 0.77322 0.78574 0.81352
 C106 C 0.72734 0.78532 0.68792
 C107 C 0.70801 0.80363 0.66690
 C108 C 0.69175 0.82819 0.68540
 C109 C 0.69514 0.83469 0.72492
 C110 C 0.71443 0.81638 0.74599
 H111 H 0.69583 0.73986 0.76277
 H112 H 0.66025 0.70614 0.73030
 H113 H 0.72044 0.65125 0.66479
 H114 H 0.75604 0.68517 0.69679
 H115 H 0.74450 0.68541 0.80470
 H116 H 0.78010 0.65183 0.83667
 H117 H 0.80467 0.74006 0.73864
 H118 H 0.78392 0.82141 0.72480
 H119 H 0.81784 0.85403 0.76175
 H120 H 0.79491 0.79919 0.86514
 H121 H 0.76075 0.76690 0.82825
 H122 H 0.73980 0.76646 0.67320
 H123 H 0.70565 0.79851 0.63629
 H124 H 0.68271 0.85370 0.73951
 H125 H 0.71659 0.82140 0.77663
 H126 H 0.84026 0.70669 0.77108
 C127 C 0.24935 0.73226 0.75056
 C128 C 0.24930 0.76761 0.75039
 C129 C 0.26932 0.78778 0.72780
 C130 C 0.22922 0.78788 0.77279
 C131 C 0.22780 0.71202 0.76997
 C132 C 0.27095 0.71200 0.73133
 C133 C 0.28519 0.81298 0.74638
 C134 C 0.30455 0.83156 0.72568
 C135 C 0.30810 0.82535 0.68616
 C136 C 0.29197 0.80077 0.66727
 C137 C 0.27257 0.78219 0.68793
 C138 C 0.22598 0.78274 0.81270
 C139 C 0.20657 0.80145 0.83322
 C140 C 0.19041 0.82573 0.81413
 C141 C 0.19396 0.83146 0.77451
 C142 C 0.21333 0.81274 0.75399
 C143 C 0.20054 0.71708 0.76061
 C144 C 0.18048 0.69818 0.77954
 C145 C 0.18747 0.67377 0.80771
 C146 C 0.21464 0.66818 0.81662
 C147 C 0.23469 0.68710 0.79774
 C148 C 0.26414 0.68670 0.70374
 C149 C 0.28426 0.66781 0.68499
 C150 C 0.31138 0.67380 0.69385
 C151 C 0.31831 0.69854 0.72183
 C152 C 0.29820 0.71744 0.74064
 H153 H 0.28287 0.81781 0.77703
 H154 H 0.31687 0.85059 0.74055
 H155 H 0.29446 0.79588 0.63665
 H156 H 0.26018 0.76333 0.67293
 H157 H 0.23840 0.76417 0.82786
 H158 H 0.20416 0.79686 0.86390
 H159 H 0.21564 0.81721 0.72330
 H160 H 0.19485 0.73571 0.73874
 H161 H 0.15955 0.70266 0.77220
 H162 H 0.22036 0.64932 0.83827
 H163 H 0.25559 0.68267 0.80516
 H164 H 0.24326 0.68198 0.69634
 H165 H 0.27867 0.64866 0.66347
 H166 H 0.33924 0.70326 0.72904
 H167 H 0.30384 0.73636 0.76237
 H168 H 0.18166 0.85022 0.75937
 O169 O 1.02740 -0.04530 -0.00118
 O170 O 0.97582 0.00360 0.05233
 O171 O 0.97487 -0.04514 0.00013
 O172 O 1.02823 0.00371 0.05062
 O173 O 1.02762 0.04323 0.00447
 O174 O 0.97431 -0.00557 -0.04596
 O175 O 0.97522 0.04316 0.00623
 O176 O 1.02684 -0.00577 -0.04731
 Cu177 Cu 1.00163 -0.02480 0.03011
 Cu178 Cu 1.00093 0.02272 -0.02532
 C179 C 1.03590 -0.03374 -0.03320
 C180 C 0.96683 0.03164 0.03834
 C181 C 0.96554 -0.03353 -0.03141
 C182 C 1.03692 0.03172 0.03605
 O183 O 0.52660 0.54234 0.50879
 O184 O 0.47496 0.49466 0.45370
 O185 O 0.47425 0.54225 0.50730
 O186 O 0.52741 0.49456 0.45555
 O187 O 0.52667 0.45399 0.50055
 O188 O 0.47353 0.50166 0.55227
 O189 O 0.47421 0.45405 0.49865
 O190 O 0.52590 0.50178 0.55381
 Cu191 Cu 0.50086 0.52253 0.47677
 Cu192 Cu 0.49999 0.47375 0.53084
 C193 C 0.53494 0.53015 0.54061
 C194 C 0.46587 0.46630 0.46685
 C195 C 0.46500 0.53006 0.53860
 C196 C 0.53604 0.46625 0.46936
 O197 O -0.02636 0.54328 -0.00785
 O198 O 0.02514 0.49542 0.04674
 O199 O 0.02598 0.54306 -0.00654
 O200 O -0.02732 0.49548 0.04508
 O201 O -0.02685 0.45493 -0.00020
 O202 O 0.02642 0.50249 -0.05179
 O203 O 0.02562 0.45484 0.00150
 O204 O -0.02593 0.50274 -0.05315
 Cu205 Cu -0.00067 0.52337 0.02395
 Cu206 Cu -0.00012 0.47463 -0.03045
 C207 C -0.03481 0.53114 -0.03972
 C208 C 0.03407 0.46705 0.03335
 C209 C 0.03511 0.53087 -0.03796
 C210 C -0.03611 0.46720 0.03110
 O211 O 0.47288 0.95402 0.50042
 O212 O 0.52471 1.00267 0.44712
 O213 O 0.52541 0.95420 0.49935
 O214 O 0.47230 1.00272 0.44858
 O215 O 0.47291 1.04250 0.49470
 O216 O 0.52597 0.99402 0.54542
 O217 O 0.52531 1.04249 0.49320
 O218 O 0.47345 0.99380 0.54653
 Cu219 Cu 0.49878 0.97436 0.46924
 Cu220 Cu 0.49949 1.02219 0.52464
 C221 C 0.46434 0.96576 0.53239
 C222 C 0.53374 1.03081 0.46112
 C223 C 0.53469 0.96597 0.53094
 C224 C 0.46365 1.03080 0.46309
 C225 C 1.13476 0.12243 0.12860
 N226 N 1.13995 0.09036 0.11430
 N227 N 1.12077 0.07250 0.09603
 C228 C 1.09582 0.08615 0.09156
 N229 N 1.09064 0.11822 0.10585
 N230 N 1.10982 0.13608 0.12411
 C231 C 1.15529 0.14149 0.14872
 C232 C 1.17239 0.15751 0.16596
 C233 C 1.07512 0.06689 0.07204
 C234 C 1.05769 0.05078 0.05564
 C235 C 0.62978 0.62066 0.63954
 N236 N 0.63657 0.59156 0.61978
 N237 N 0.61787 0.57350 0.60073
 C238 C 0.59183 0.58400 0.60088
 N239 N 0.58503 0.61309 0.62067
 N240 N 0.60373 0.63115 0.63971
 C241 C 0.65000 0.64035 0.65953
 C242 C 0.66717 0.65686 0.67599
 C243 C 0.57178 0.56484 0.57990
 C244 C 0.55496 0.54890 0.56206
 C245 C -0.13417 0.37945 0.12590
 N246 N -0.12998 0.41361 0.13313
 N247 N -0.11079 0.43092 0.11438
 C248 C -0.09520 0.41458 0.08786
 N249 N -0.09940 0.38042 0.08062
 N250 N -0.11859 0.36311 0.09937
 C251 C -0.15459 0.36071 0.14647
 C252 C -0.17160 0.34493 0.16399
 C253 C -0.07442 0.43315 0.06786
 C254 C -0.05693 0.44872 0.05109
 C255 C 0.36641 0.87807 0.62759
 N256 N 0.38371 0.86097 0.60402
 N257 N 0.40305 0.87815 0.58542
 C258 C 0.40569 0.91293 0.58988
 N259 N 0.38839 0.93003 0.61344
 N260 N 0.36905 0.91285 0.63204
 C261 C 0.34574 0.85955 0.64788
 C262 C 0.32849 0.84398 0.66517
 C263 C 0.42646 0.93145 0.56979
 C264 C 0.44383 0.94707 0.55281
 C265 C -0.12914 0.62187 -0.13830
 N266 N -0.10734 0.63811 -0.12299
 N267 N -0.08872 0.62010 -0.10397
 C268 C -0.09134 0.58532 -0.09966
 N269 N -0.11312 0.56908 -0.11498
 N270 N -0.13175 0.58709 -0.13400
 C271 C -0.14942 0.64133 -0.15819
 C272 C -0.16663 0.65765 -0.17460
 C273 C -0.07144 0.56604 -0.07876
 C274 C -0.05473 0.54999 -0.06102
 C275 C 0.36616 1.12089 0.37019
 N276 N 0.39203 1.12215 0.35774
 N277 N 0.41116 1.10439 0.37600
 C278 C 0.40499 1.08481 0.40726
 N279 N 0.37912 1.08354 0.41971
 N280 N 0.35999 1.10131 0.40145
 C281 C 0.34559 1.13989 0.35034
 C282 C 0.32846 1.15585 0.33333
 C283 C 0.42561 1.06570 0.42690
 C284 C 0.44297 1.04972 0.44340
 C285 C 1.13330 -0.12205 -0.12875
 N286 N 1.11957 -0.09633 -0.14665
 N287 N 1.10033 -0.07904 -0.12799
 C288 C 1.09422 -0.08698 -0.09087
 N289 N 1.10796 -0.11271 -0.07297
 N290 N 1.12720 -0.13000 -0.09163
 C291 C 1.15392 -0.14076 -0.14893
 C292 C 1.17113 -0.15648 -0.16613
 C293 C 1.07357 -0.06829 -0.07073
 C294 C 1.05630 -0.05255 -0.05370
 C295 C 0.63393 0.37835 0.37441
 N296 N 0.63866 0.41084 0.38790
 N297 N 0.61946 0.42813 0.40666
 C298 C 0.59496 0.41345 0.41246
 N299 N 0.59024 0.38096 0.39898
 N300 N 0.60944 0.36368 0.38022
 C301 C 0.65448 0.35985 0.35385
 C302 C 0.67159 0.34425 0.33633
 C303 C 0.57425 0.43210 0.43251
 C304 C 0.55681 0.44772 0.44932
 C305 C 0.86630 -0.12042 -0.12551
 N306 N 0.88788 -0.13780 -0.11139
 N307 N 0.90735 -0.12090 -0.09262
 C308 C 0.90584 -0.08610 -0.08741
 N309 N 0.88426 -0.06872 -0.10151
 N310 N 0.86479 -0.08562 -0.12028
 C311 C 0.84553 -0.13856 -0.14618
 C312 C 0.82823 -0.15385 -0.16381
 C313 C 0.92691 -0.06782 -0.06753
 C314 C 0.94459 -0.05229 -0.05097
 C315 C 0.37061 0.37917 0.36492
 N316 N 0.36690 0.41289 0.37472
 N317 N 0.38568 0.42998 0.39468
 C318 C 0.40872 0.41386 0.40548
 N319 N 0.41244 0.38014 0.39567
 N320 N 0.39365 0.36305 0.37570
 C321 C 0.35021 0.36066 0.34389
 C322 C 0.33293 0.34509 0.32653
 C323 C 0.42888 0.43224 0.42713
 C324 C 0.44578 0.44775 0.44531
 C325 C 0.13067 0.62043 -0.13585
 N326 N 0.13712 0.59059 -0.11744
 N327 N 0.11842 0.57291 -0.09813
 C328 C 0.09269 0.58457 -0.09662
 N329 N 0.08623 0.61441 -0.11503
 N330 N 0.10494 0.63209 -0.13435
 C331 C 0.15087 0.63958 -0.15638
 C332 C 0.16797 0.65565 -0.17339
 C333 C 0.07254 0.56556 -0.07582
 C334 C 0.05552 0.54967 -0.05844
 C335 C 0.62928 1.12004 0.36282
 N336 N 0.63340 1.08650 0.37282
 N337 N 0.61456 1.06898 0.39204
 C338 C 0.59104 1.08448 0.40187
 N339 N 0.58692 1.11802 0.39185
 N340 N 0.60576 1.13554 0.37263
 C341 C 0.64971 1.13900 0.34252
 C342 C 0.66700 1.15493 0.32573
 C343 C 0.57082 1.06564 0.42273
 C344 C 0.55388 1.04977 0.44028
 C345 C 0.12909 0.37957 0.13433
 N346 N 0.13409 0.41203 0.12117
 N347 N 0.11537 0.42919 0.10139
 C348 C 0.09108 0.41440 0.09414
 N349 N 0.08607 0.38194 0.10731
 N350 N 0.10480 0.36478 0.12709
 C351 C 0.14939 0.36095 0.15519
 C352 C 0.16660 0.34530 0.17241
 C353 C 0.07097 0.43285 0.07270
 C354 C 0.05412 0.44842 0.05469
 C355 C 0.63331 0.87944 0.62566
 N356 N 0.60828 0.86557 0.62268
 N357 N 0.58891 0.88237 0.60379
 C358 C 0.59400 0.91355 0.58730
 N359 N 0.61904 0.92742 0.59026
 N360 N 0.63841 0.91062 0.60916
 C361 C 0.65406 0.86151 0.64638
 C362 C 0.67134 0.84638 0.66403
 C363 C 0.57308 0.93181 0.56730
 C364 C 0.55552 0.94731 0.55063
 C365 C 0.87138 0.12078 0.13695
 N366 N 0.89483 0.13645 0.12695
 N367 N 0.91367 0.11898 0.10766
 C368 C 0.90962 0.08532 0.09777
 N369 N 0.88618 0.06966 0.10778
 N370 N 0.86734 0.08712 0.12707
 C371 C 0.85096 0.13967 0.15731
 C372 C 0.83365 0.15551 0.17416
 C373 C 0.92983 0.06653 0.07685
 C374 C 0.94675 0.05066 0.05925
 C375 C 0.36940 0.61954 0.63650
 N376 N 0.39470 0.63243 0.63296
 N377 N 0.41343 0.61479 0.61365
 C378 C 0.40742 0.58374 0.59728
 N379 N 0.38212 0.57084 0.60083
 N380 N 0.36339 0.58849 0.62014
 C381 C 0.34916 0.63864 0.65699
 C382 C 0.33203 0.65468 0.67397
 C383 C 0.42759 0.56476 0.57648
 C384 C 0.44461 0.54888 0.55910
   
