data_POSCAR
  _audit_creation_date              2014-09-24
  _audit_creation_method            'ToBaCCo'
  _symmetry_space_group_name_H-M    'P1'
  _symmetry_Int_Tables_number       1
  _symmetry_cell_setting            triclinic
  loop_
  _symmetry_equiv_pos_as_xyz
 x,y,z
_cell_length_a 31.0285
_cell_length_b 32.0228
_cell_length_c 35.9304
_cell_angle_alpha 90.318700
_cell_angle_beta 90.074200
_cell_angle_gamma 90.132400
loop_
  _atom_site_label
  _atom_site_type_symbol
  _atom_site_fract_x
  _atom_site_fract_y
  _atom_site_fract_z
O1 O 0.35060 0.39989 0.03342
 O2 O 0.40902 0.33446 -0.03429
 O3 O 0.35339 0.39383 -0.03930
 O4 O 0.40592 0.33898 0.03840
 O5 O 0.35317 0.29264 0.03866
 O6 O 0.29913 0.34949 -0.03702
 O7 O 0.35542 0.28897 -0.03421
 O8 O 0.29770 0.35352 0.03456
 Cu9 Cu 0.38510 0.37136 -0.00037
 Cu10 Cu 0.32118 0.31638 0.00061
 C11 C 0.31414 0.38786 0.04528
 C12 C 0.39197 0.30084 -0.04611
 C13 C 0.31736 0.38093 -0.05173
 C14 C 0.38831 0.30663 0.05200
 O15 O 0.59808 0.67037 -0.03734
 O16 O 0.64506 0.60864 0.03885
 O17 O 0.58975 0.66904 0.03445
 O18 O 0.65169 0.60767 -0.03364
 O19 O 0.70600 0.65144 -0.02809
 O20 O 0.64324 0.71439 0.03826
 O21 O 0.69871 0.65395 0.04325
 O22 O 0.65311 0.71368 -0.03405
 Cu23 Cu 0.61578 0.63432 -0.00001
 Cu24 Cu 0.68056 0.68799 0.00519
 C25 C 0.61739 0.70308 -0.04840
 C26 C 0.67976 0.62112 0.05415
 C27 C 0.60576 0.70243 0.04775
 C28 C 0.68997 0.61835 -0.04195
 O29 O 0.59388 0.34108 1.04156
 O30 O 0.64968 0.40129 0.96894
 O31 O 0.59464 0.33976 0.96857
 O32 O 0.65126 0.40008 1.04146
 O33 O 0.70346 0.35392 1.04124
 O34 O 0.64774 0.29396 0.96846
 O35 O 0.70305 0.35567 0.96960
 O36 O 0.64633 0.29446 1.04103
 Cu37 Cu 0.61693 0.37508 1.00511
 Cu38 Cu 0.68028 0.31973 1.00496
 C39 C 0.61079 0.30784 1.05381
 C40 C 0.68622 0.38908 0.95745
 C41 C 0.61166 0.30640 0.95624
 C42 C 0.68771 0.38776 1.05344
 O43 O 0.35182 0.60031 0.96060
 O44 O 0.40093 0.66570 1.03377
 O45 O 0.34703 0.60517 1.03382
 O46 O 0.40223 0.66642 0.96163
 O47 O 0.34593 0.70840 0.95814
 O48 O 0.29175 0.64783 1.03093
 O49 O 0.34599 0.70940 1.03072
 O50 O 0.29573 0.64259 0.95870
 Cu51 Cu 0.38092 0.62986 0.99734
 Cu52 Cu 0.31426 0.68127 0.99416
 C53 C 0.31543 0.61024 0.94723
 C54 C 0.38182 0.69845 1.04482
 C55 C 0.31059 0.61702 1.04595
 C56 C 0.38347 0.69801 0.94786
 O57 O -0.04425 0.41146 0.33396
 O58 O 0.03837 0.35751 0.38750
 O59 O 0.03930 0.40984 0.33303
 O60 O -0.04529 0.36273 0.39078
 O61 O -0.04701 0.30825 0.35340
 O62 O 0.03717 0.35571 0.29481
 O63 O 0.03710 0.30322 0.34920
 O64 O -0.04704 0.35753 0.29529
 Cu65 Cu -0.00249 0.39077 0.36517
 Cu66 Cu -0.00546 0.32578 0.31918
 C67 C -0.05985 0.39343 0.30551
 C68 C 0.05179 0.32162 0.37784
 C69 C 0.05317 0.39069 0.30449
 C70 C -0.06130 0.32759 0.38194
 O71 O 0.03657 0.63396 0.60020
 O72 O -0.04711 0.58716 0.65976
 O73 O -0.04641 0.63968 0.60466
 O74 O 0.03751 0.58365 0.65832
 O75 O 0.04053 0.63634 0.69809
 O76 O -0.03929 0.69338 0.64257
 O77 O -0.04358 0.64147 0.69765
 O78 O 0.04290 0.68640 0.64011
 Cu79 Cu -0.00517 0.60549 0.62709
 Cu80 Cu 0.00086 0.66943 0.67372
 C81 C 0.05306 0.66875 0.60961
 C82 C -0.06055 0.60685 0.68820
 C83 C -0.05577 0.67716 0.61357
 C84 C 0.05300 0.60045 0.68763
 O85 O 1.03834 0.58686 0.34088
 O86 O 0.96131 0.64084 0.40281
 O87 O 0.95535 0.59392 0.34261
 O88 O 1.04539 0.63665 0.39898
 O89 O 1.04683 0.69162 0.36281
 O90 O 0.95754 0.64987 0.30712
 O91 O 0.96401 0.69642 0.36678
 O92 O 1.04066 0.64256 0.30486
 Cu93 Cu 0.99979 0.60909 0.37508
 Cu94 Cu 1.00246 0.67564 0.33187
 C95 C 1.05194 0.60534 0.31201
 C96 C 0.95017 0.67808 0.39566
 C97 C 0.94218 0.61414 0.31443
 C98 C 1.06163 0.67184 0.39057
 O99 O 0.95180 0.35381 0.60890
 O100 O 1.03809 0.39302 0.66872
 O101 O 1.03058 0.33351 0.61749
 O102 O 0.95407 0.39849 0.66925
 O103 O 0.94268 0.34475 0.70636
 O104 O 1.03049 0.28669 0.66208
 O105 O 1.02493 0.34463 0.71082
 O106 O 0.94688 0.29781 0.64438
 Cu107 Cu 0.99523 0.37505 0.63751
 Cu108 Cu 0.98443 0.31296 0.68403
 C109 C 0.93571 0.31835 0.61555
 C110 C 1.04503 0.37722 0.70037
 C111 C 1.04331 0.29882 0.63056
 C112 C 0.93455 0.38181 0.69652
 O113 O 0.40549 0.04022 0.34664
 O114 O 0.35362 -0.03679 0.40847
 O115 O 0.40521 -0.04025 0.35121
 O116 O 0.35362 0.04550 0.40396
 O117 O 0.29920 0.04450 0.36463
 O118 O 0.34732 -0.04497 0.31590
 O119 O 0.29580 -0.03698 0.37256
 O120 O 0.35034 0.03496 0.30794
 Cu121 Cu 0.38489 0.00258 0.38166
 Cu122 Cu 0.31734 -0.00082 0.33677
 C123 C 0.38739 0.04939 0.31602
 C124 C 0.31609 -0.05031 0.40080
 C125 C 0.38485 -0.05747 0.32454
 C126 C 0.31819 0.06061 0.39257
 O127 O 0.64083 -0.04056 0.59793
 O128 O 0.59746 0.04767 0.65265
 O129 O 0.64667 0.04076 0.59417
 O130 O 0.59185 -0.03345 0.65677
 O131 O 0.64948 -0.03381 0.69296
 O132 O 0.70397 0.03986 0.63065
 O133 O 0.65511 0.04694 0.68863
 O134 O 0.69873 -0.04077 0.63382
 Cu135 Cu 0.61343 0.00364 0.62172
 Cu136 Cu 0.68257 0.00272 0.66513
 C137 C 0.67741 -0.05538 0.60649
 C138 C 0.61893 0.06256 0.67981
 C139 C 0.68483 0.05269 0.60168
 C140 C 0.61120 -0.04554 0.68594
 O141 O 0.40648 0.96136 0.65872
 O142 O 0.36190 1.03883 0.59431
 O143 O 0.41195 1.04142 0.65351
 O144 O 0.35178 0.95924 0.60296
 O145 O 0.29786 0.96656 0.64236
 O146 O 0.35520 1.05191 0.68952
 O147 O 0.30541 1.04588 0.63130
 O148 O 0.35228 0.97199 0.69746
 Cu149 Cu 0.38864 0.99926 0.62354
 Cu150 Cu 0.32210 1.00998 0.66889
 C151 C 0.38792 0.95471 0.68957
 C152 C 0.32545 1.05465 0.60155
 C153 C 0.39366 1.06034 0.68036
 C154 C 0.31401 0.94954 0.61370
 O155 O 0.58943 0.95774 0.34518
 O156 O 0.64695 1.03816 0.39961
 O157 O 0.59425 1.03787 0.34257
 O158 O 0.64211 0.95638 0.40197
 O159 O 0.69763 0.95181 0.36382
 O160 O 0.64964 1.03248 0.30430
 O161 O 0.70243 1.03244 0.36194
 O162 O 0.64556 0.95204 0.30760
 Cu163 Cu 0.61279 0.99816 0.37640
 Cu164 Cu 0.67948 0.99206 0.33067
 C165 C 0.60765 0.94162 0.31696
 C166 C 0.68516 1.04840 0.39066
 C167 C 0.61312 1.04778 0.31253
 C168 C 0.67779 0.93986 0.39275
 C169 C 0.82336 0.76485 0.48455
 C170 C 0.82091 0.76460 0.52381
 C171 C 0.78948 0.78894 0.54170
 C172 C 0.76271 0.81573 0.52137
 C173 C 0.76547 0.81623 0.48216
 C174 C 0.79511 0.79008 0.46413
 H175 H 0.79791 0.79116 0.43407
 H176 H 0.78841 0.78975 0.57186
 C177 C 0.16531 0.23286 0.48951
 C178 C 0.15927 0.21465 0.52947
 C179 C 0.19078 0.18637 0.54190
 C180 C 0.22260 0.16986 0.51930
 C181 C 0.22395 0.18012 0.48170
 C182 C 0.19618 0.21055 0.46785
 H183 H 0.19846 0.21475 0.43826
 H184 H 0.18897 0.17354 0.56975
 C185 C 0.17254 0.76663 0.52280
 C186 C 0.17867 0.76444 0.48365
 C187 C 0.20711 0.79282 0.46674
 C188 C 0.22855 0.82361 0.48754
 C189 C 0.22325 0.82494 0.52641
 C190 C 0.19602 0.79603 0.54372
 H191 H 0.19145 0.79783 0.57361
 H192 H 0.21117 0.79216 0.43676
 C193 C 0.81757 0.23840 0.51339
 C194 C 0.81784 0.23853 0.47383
 C195 C 0.79158 0.20970 0.45464
 C196 C 0.76814 0.17905 0.47362
 C197 C 0.76766 0.17940 0.51280
 C198 C 0.79149 0.20957 0.53220
 H199 H 0.79222 0.20861 0.56238
 H200 H 0.79192 0.20901 0.42446
 C201 C 0.47725 0.84440 0.78904
 C202 C 0.52254 0.84380 0.78704
 C203 C 0.54578 0.81831 0.81133
 C204 C 0.52452 0.79402 0.83813
 C205 C 0.47884 0.79333 0.83909
 C206 C 0.45587 0.81930 0.81483
 H207 H 0.42100 0.82053 0.81641
 H208 H 0.58071 0.81898 0.81067
 C209 C 0.47678 0.16175 0.21660
 C210 C 0.52229 0.16228 0.21643
 C211 C 0.54421 0.18856 0.19175
 C212 C 0.52150 0.21385 0.16678
 C213 C 0.47595 0.21323 0.16681
 C214 C 0.45402 0.18735 0.19187
 H215 H 0.41909 0.18645 0.19158
 H216 H 0.57915 0.18827 0.19109
 C217 C 0.53102 0.17582 0.77910
 C218 C 0.48546 0.17183 0.77957
 C219 C 0.46183 0.19125 0.80816
 C220 C 0.48261 0.21429 0.83615
 C221 C 0.52787 0.21797 0.83576
 C222 C 0.55162 0.19899 0.80725
 H223 H 0.58649 0.20129 0.80758
 H224 H 0.42709 0.18771 0.80906
 C225 C 0.51254 0.83013 0.22036
 C226 C 0.46699 0.82688 0.22297
 C227 C 0.44424 0.80440 0.19553
 C228 C 0.46588 0.78557 0.16570
 C229 C 0.51118 0.78808 0.16369
 C230 C 0.53402 0.81017 0.19101
 H231 H 0.56877 0.81290 0.18876
 H232 H 0.40937 0.80276 0.19669
 C233 C 0.77663 0.48181 0.84433
 C234 C 0.77624 0.52587 0.84374
 C235 C 0.79716 0.54701 0.81487
 C236 C 0.82019 0.52511 0.78750
 C237 C 0.82140 0.48087 0.78860
 C238 C 0.79934 0.45986 0.81702
 H239 H 0.80096 0.42609 0.81859
 H240 H 0.79689 0.58087 0.81454
 C241 C 0.21804 0.48184 0.15456
 C242 C 0.21717 0.52595 0.15622
 C243 C 0.18992 0.54596 0.18184
 C244 C 0.16453 0.52278 0.20657
 C245 C 0.16846 0.47867 0.20692
 C246 C 0.19459 0.45874 0.18054
 H247 H 0.19612 0.42492 0.17983
 H248 H 0.18803 0.57976 0.18217
 C249 C 0.76370 0.52932 0.17094
 C250 C 0.76548 0.48528 0.16998
 C251 C 0.78886 0.46425 0.19741
 C252 C 0.81485 0.48631 0.22252
 C253 C 0.81513 0.53033 0.22220
 C254 C 0.78782 0.55146 0.19756
 H255 H 0.78792 0.58532 0.19719
 H256 H 0.79015 0.43040 0.19688
 C257 C 0.22507 0.51434 0.83474
 C258 C 0.22399 0.47020 0.83641
 C259 C 0.19604 0.44805 0.81287
 C260 C 0.16934 0.46893 0.78771
 C261 C 0.17137 0.51283 0.78492
 C262 C 0.19914 0.53519 0.80867
 H263 H 0.19975 0.56901 0.80755
 H264 H 0.19415 0.41431 0.81486
 C265 C 0.27854 0.43597 0.13557
 C266 C 0.30236 0.41407 0.10908
 C267 C 0.29004 0.41415 0.07163
 C268 C 0.25337 0.43712 0.06047
 C269 C 0.22902 0.45929 0.08740
 C270 C 0.24215 0.45903 0.12520
 C271 C 0.19169 0.48027 0.07558
 N272 N 0.18066 0.48017 0.03904
 N273 N 0.20417 0.46019 0.01362
 C274 C 0.24007 0.43862 0.02308
 H275 H 0.28860 0.43503 0.16444
 H276 H 0.33011 0.39623 0.11799
 H277 H 0.17109 0.49661 0.09501
 H278 H 0.25793 0.42295 0.00134
 C279 C 0.76145 0.56028 0.10828
 C280 C 0.74108 0.58240 0.08009
 C281 C 0.69895 0.59713 0.08473
 C282 C 0.67712 0.59001 0.11873
 C283 C 0.69816 0.56809 0.14765
 C284 C 0.74047 0.55296 0.14207
 C285 C 0.67604 0.56195 0.18131
 N286 N 0.63554 0.57706 0.18555
 N287 N 0.61583 0.59791 0.15847
 C288 C 0.63523 0.60496 0.12528
 H289 H 0.79389 0.54885 0.10382
 H290 H 0.75821 0.58782 0.05428
 H291 H 0.69055 0.54526 0.20421
 H292 H 0.61785 0.62230 0.10445
 C293 C 0.71485 0.43981 0.86662
 C294 C 0.69247 0.41824 0.89415
 C295 C 0.70985 0.41419 0.92992
 C296 C 0.75010 0.43298 0.93832
 C297 C 0.77320 0.45418 0.91018
 C298 C 0.75504 0.45799 0.87423
 C299 C 0.81391 0.47088 0.91902
 N300 N 0.82933 0.46809 0.95425
 N301 N 0.80685 0.44956 0.98107
 C302 C 0.76778 0.43200 0.97430
 H303 H 0.70064 0.44259 0.83919
 H304 H 0.66165 0.40412 0.88738
 H305 H 0.83359 0.48602 0.89826
 H306 H 0.75055 0.41801 0.99709
 C307 C 0.23280 0.54389 0.89809
 C308 C 0.25465 0.56683 0.92528
 C309 C 0.29530 0.58405 0.91802
 C310 C 0.31408 0.57829 0.88239
 C311 C 0.29032 0.55768 0.85391
 C312 C 0.24998 0.53927 0.86229
 C313 C 0.30788 0.55622 0.81790
 N314 N 0.34778 0.57196 0.81154
 N315 N 0.37094 0.58956 0.83864
 C316 C 0.35548 0.59331 0.87379
 H317 H 0.20185 0.53015 0.90483
 H318 H 0.23988 0.57090 0.95237
 H319 H 0.29036 0.54255 0.79481
 H320 H 0.37557 0.60840 0.89444
 C321 C 0.15425 0.27870 0.42620
 C322 C 0.12560 0.29600 0.39873
 C323 C 0.08044 0.30021 0.40358
 C324 C 0.06345 0.29214 0.43773
 C325 C 0.10517 0.29103 0.47348
 C326 C 0.14289 0.26970 0.46412
 C327 C 0.09298 0.27362 0.51670
 N328 N 0.02025 0.24411 0.52129
 N329 N -0.00925 0.24786 0.48497
 C330 C 0.00723 0.27026 0.44424
 H331 H 0.18694 0.27384 0.41693
 H332 H 0.13911 0.30437 0.37200
 H333 H 0.11586 0.28428 0.53806
 H334 H -0.01375 0.26908 0.42047
 C335 C 0.15551 0.71293 0.57021
 C336 C 0.12691 0.68873 0.59091
 C337 C 0.08259 0.69049 0.58407
 C338 C 0.06679 0.71710 0.55579
 C339 C 0.09556 0.74355 0.53633
 C340 C 0.14050 0.74040 0.54278
 C341 C 0.07806 0.77330 0.51197
 N342 N 0.03503 0.77402 0.50544
 N343 N 0.00830 0.74742 0.52201
 C344 C 0.02274 0.71904 0.54692
 H345 H 0.18971 0.71070 0.57599
 H346 H 0.13938 0.66888 0.61273
 H347 H 0.09808 0.79618 0.49828
 H348 H -0.00021 0.69816 0.55945
 C349 C 0.85133 0.70161 0.45268
 C350 C 0.88220 0.68057 0.43158
 C351 C 0.92057 0.70045 0.42106
 C352 C 0.92889 0.74176 0.43374
 C353 C 0.89735 0.76317 0.45503
 C354 C 0.85822 0.74290 0.46424
 C355 C 0.90599 0.80446 0.46637
 N356 N 0.94419 0.82255 0.45770
 N357 N 0.97428 0.80215 0.43852
 C358 C 0.96806 0.76240 0.42640
 H359 H 0.82147 0.68584 0.45950
 H360 H 0.87544 0.64897 0.42231
 H361 H 0.88280 0.82249 0.48205
 H362 H 0.99409 0.74728 0.41168
 C363 C 0.89059 0.25083 0.53883
 C364 C 0.91848 0.26842 0.56509
 C365 C 0.90462 0.30054 0.58875
 C366 C 0.86192 0.31554 0.58566
 C367 C 0.83270 0.29572 0.56083
 C368 C 0.84752 0.26368 0.53661
 C369 C 0.78939 0.30864 0.56127
 N370 N 0.77709 0.34083 0.58349
 N371 N 0.80504 0.36068 0.60552
 C372 C 0.84702 0.34920 0.60730
 H373 H 0.90211 0.22560 0.52128
 H374 H 0.95115 0.25687 0.56707
 H375 H 0.76528 0.29372 0.54395
 H376 H 0.86836 0.36649 0.62554
 C377 C 0.44677 0.14273 0.27821
 C378 C 0.42593 0.11529 0.30228
 C379 C 0.40986 0.07692 0.28935
 C380 C 0.41594 0.06562 0.25144
 C381 C 0.43709 0.09361 0.22699
 C382 C 0.45261 0.13238 0.24064
 C383 C 0.44274 0.08148 0.18963
 N384 N 0.42879 0.04350 0.17787
 N385 N 0.40965 0.01688 0.20091
 C386 C 0.40286 0.02656 0.23722
 H387 H 0.45868 0.17223 0.28900
 H388 H 0.42186 0.12429 0.33118
 H389 H 0.45830 0.10171 0.16972
 H390 H 0.38785 0.00339 0.25461
 C391 C 0.58607 0.12225 0.76546
 C392 C 0.60744 0.09516 0.74145
 C393 C 0.60075 0.09684 0.70287
 C394 C 0.57543 0.12980 0.68811
 C395 C 0.55424 0.15794 0.71271
 C396 C 0.55799 0.15265 0.75172
 C397 C 0.53029 0.19085 0.69743
 N398 N 0.52744 0.19502 0.65999
 N399 N 0.54737 0.16881 0.63688
 C400 C 0.57142 0.13656 0.64959
 H401 H 0.58998 0.11818 0.79520
 H402 H 0.62788 0.07143 0.75343
 H403 H 0.51431 0.21360 0.71493
 H404 H 0.58801 0.11741 0.62938
 C405 C 0.44462 0.86134 0.72840
 C406 C 0.42351 0.88826 0.70431
 C407 C 0.40867 0.92715 0.71680
 C408 C 0.41561 0.93937 0.75440
 C409 C 0.43680 0.91169 0.77895
 C410 C 0.45178 0.87276 0.76551
 C411 C 0.44325 0.92436 0.81610
 N412 N 0.43021 0.96271 0.82749
 N413 N 0.41124 0.98918 0.80425
 C414 C 0.40363 0.97896 0.76816
 H415 H 0.45605 0.83157 0.71793
 H416 H 0.41874 0.87870 0.67561
 H417 H 0.45870 0.90425 0.83615
 H418 H 0.38887 1.00220 0.75069
 C419 C 0.52901 0.89994 0.24699
 C420 C 0.55117 0.92660 0.27098
 C421 C 0.58397 0.91142 0.29387
 C422 C 0.59424 0.86845 0.29323
 C423 C 0.57102 0.84100 0.26942
 C424 C 0.53812 0.85707 0.24603
 C425 C 0.58091 0.79816 0.27060
 N426 N 0.61238 0.78424 0.29360
 N427 N 0.63450 0.81016 0.31561
 C428 C 0.62650 0.85176 0.31625
 H429 H 0.50437 0.91284 0.22905
 H430 H 0.54318 0.95953 0.27119
 H431 H 0.56362 0.77552 0.25386
 H432 H 0.64516 0.87131 0.33492
 C433 C 0.45027 0.27714 0.86471
 C434 C 0.42959 0.29805 0.89363
 C435 C 0.41436 0.27640 0.92477
 C436 C 0.42066 0.23259 0.92689
 C437 C 0.44171 0.21130 0.89729
 C438 C 0.45685 0.23399 0.86619
 C439 C 0.44775 0.16796 0.90020
 N440 N 0.43419 0.14755 0.93102
 N441 N 0.41515 0.16757 0.95908
 C442 C 0.40805 0.20933 0.95816
 H443 H 0.46182 0.29488 0.84113
 H444 H 0.42512 0.33149 0.89151
 H445 H 0.46325 0.15015 0.87837
 H446 H 0.39322 0.22386 0.98212
 C447 C 0.55048 0.72877 0.86734
 C448 C 0.57297 0.70731 0.89472
 C449 C 0.59755 0.72860 0.92171
 C450 C 0.59961 0.77313 0.92058
 C451 C 0.57514 0.79487 0.89347
 C452 C 0.55089 0.77236 0.86652
 C453 C 0.57433 0.83882 0.89499
 N454 N 0.59803 0.85965 0.92072
 N455 N 0.62221 0.83952 0.94531
 C456 C 0.62379 0.79726 0.94620
 H457 H 0.53184 0.71126 0.84704
 H458 H 0.57100 0.67352 0.89485
 H459 H 0.55457 0.85689 0.87642
 H460 H 0.64409 0.78378 0.96705
 C461 C 0.42963 0.72373 0.13834
 C462 C 0.41044 0.70257 0.10866
 C463 C 0.40117 0.72317 0.07528
 C464 C 0.41137 0.76611 0.07178
 C465 C 0.43104 0.78759 0.10199
 C466 C 0.44073 0.76591 0.13522
 C467 C 0.44091 0.83016 0.09776
 N468 N 0.43240 0.84951 0.06510
 N469 N 0.41468 0.82916 0.03648
 C470 C 0.40396 0.78817 0.03864
 H471 H 0.43706 0.70680 0.16356
 H472 H 0.40283 0.66972 0.11173
 H473 H 0.45525 0.84821 0.12011
 H474 H 0.39010 0.77325 0.01436
 C475 C 0.54525 0.22558 0.10191
 C476 C 0.56675 0.24820 0.07459
 C477 C 0.58915 0.28479 0.08376
 C478 C 0.59048 0.29863 0.12124
 C479 C 0.56908 0.27532 0.14915
 C480 C 0.54588 0.23877 0.13918
 C481 C 0.57131 0.28974 0.18614
 N482 N 0.59349 0.32516 0.19437
 N483 N 0.61361 0.34703 0.16816
 C484 C 0.61290 0.33499 0.13192
 H485 H 0.52785 0.19754 0.09395
 H486 H 0.56551 0.23731 0.04601
 H487 H 0.55560 0.27329 0.20856
 H488 H 0.62991 0.35387 0.11186
 C489 C 0.28427 0.15330 0.55989
 C490 C 0.31014 0.12551 0.57934
 C491 C 0.30468 0.08247 0.57478
 C492 C 0.27399 0.06704 0.54897
 C493 C 0.24625 0.09518 0.53056
 C494 C 0.25189 0.13868 0.53590
 C495 C 0.21291 0.07862 0.50838
 N496 N 0.20989 0.03676 0.50294
 N497 N 0.23747 0.01042 0.51873
 C498 C 0.26930 0.02413 0.54166
 H499 H 0.28848 0.18653 0.56453
 H500 H 0.33348 0.13766 0.59904
 H501 H 0.18921 0.09851 0.49544
 H502 H 0.29078 0.00150 0.55383
 C503 C 0.70367 0.14057 0.45133
 C504 C 0.68370 0.10791 0.43229
 C505 C 0.70783 0.07811 0.41233
 C506 C 0.75385 0.07994 0.41453
 C507 C 0.77400 0.11350 0.43403
 C508 C 0.74852 0.14415 0.45211
 C509 C 0.81935 0.11453 0.43600
 N510 N 0.84287 0.08346 0.42050
 N511 N 0.82418 0.05113 0.40357
 C512 C 0.78077 0.04800 0.40042
 H513 H 0.68386 0.16360 0.46531
 H514 H 0.64878 0.10723 0.43186
 H515 H 0.83646 0.13927 0.45030
 H516 H 0.76828 0.01963 0.38827
 C517 C 0.75435 0.88824 0.54347
 C518 C 0.73411 0.91919 0.56432
 C519 C 0.69620 0.91067 0.58393
 C520 C 0.67826 0.86997 0.58241
 C521 C 0.69940 0.83815 0.56174
 C522 C 0.73762 0.84763 0.54200
 C523 C 0.68161 0.79777 0.56175
 N524 N 0.64488 0.79006 0.58097
 N525 N 0.62495 0.81994 0.60027
 C526 C 0.64042 0.85957 0.60172
 H527 H 0.78389 0.89580 0.52890
 H528 H 0.74821 0.95009 0.56512
 H529 H 0.69659 0.77231 0.54674
 H530 H 0.62314 0.88250 0.61799
 C531 C 0.23599 0.89562 0.46310
 C532 C 0.25676 0.92586 0.44175
 C533 C 0.29614 0.91718 0.42436
 C534 C 0.31486 0.87711 0.42870
 C535 C 0.29392 0.84652 0.45066
 C536 C 0.25392 0.85578 0.46752
 C537 C 0.31365 0.80731 0.45473
 N538 N 0.35130 0.79911 0.43706
 N539 N 0.37036 0.82741 0.41558
 C540 C 0.35331 0.86595 0.41070
 H541 H 0.20519 0.90302 0.47565
 H542 H 0.24186 0.95621 0.43857
 H543 H 0.29950 0.78315 0.47176
 H544 H 0.36951 0.88734 0.39244
 C545 C 0.14755 0.42865 0.73186
 C546 C 0.11752 0.40619 0.71104
 C547 C 0.07633 0.39792 0.72519
 C548 C 0.06506 0.41288 0.76111
 C549 C 0.09548 0.43635 0.78201
 C550 C 0.13680 0.44438 0.76699
 C551 C 0.08333 0.45155 0.81727
 N552 N 0.04316 0.44391 0.83041
 N553 N 0.01442 0.42215 0.81069
 C554 C 0.02391 0.40647 0.77654
 H555 H 0.17927 0.43419 0.72033
 H556 H 0.12643 0.39522 0.68352
 H557 H 0.10528 0.46960 0.83441
 H558 H -0.00094 0.38942 0.76188
 C559 C 0.15055 0.57335 0.25805
 C560 C 0.12362 0.59250 0.28412
 C561 C 0.07964 0.58282 0.28535
 C562 C 0.06218 0.55427 0.25911
 C563 C 0.08894 0.53711 0.23103
 C564 C 0.13393 0.54507 0.23169
 C565 C 0.06951 0.51298 0.20279
 N566 N 0.02685 0.50391 0.20447
 N567 N 0.00223 0.51795 0.23213
 C568 C 0.01843 0.54278 0.25948
 H569 H 0.18475 0.58020 0.25873
 H570 H 0.13729 0.61461 0.30381
 H571 H 0.08790 0.50117 0.17947
 H572 H -0.00306 0.55348 0.28110
 C573 C 0.88813 0.45892 0.23233
 C574 C 0.91822 0.43540 0.25177
 C575 C 0.90646 0.41483 0.28445
 C576 C 0.86368 0.41768 0.29779
 C577 C 0.83310 0.44165 0.27804
 C578 C 0.84568 0.46239 0.24518
 C579 C 0.79091 0.44429 0.29206
 N580 N 0.78028 0.42378 0.32369
 N581 N 0.80894 0.40086 0.34210
 C582 C 0.85023 0.39706 0.33022
 H583 H 0.89793 0.47454 0.20702
 H584 H 0.95103 0.43371 0.24158
 H585 H 0.76641 0.46254 0.27824
 H586 H 0.87205 0.37774 0.34597
 C587 C 0.88006 0.57371 0.77422
 C588 C 0.90901 0.59298 0.75029
 C589 C 0.90490 0.58873 0.71159
 C590 C 0.86890 0.56656 0.69681
 C591 C 0.83956 0.54663 0.72136
 C592 C 0.84609 0.54932 0.76032
 C593 C 0.80416 0.52505 0.70609
 N594 N 0.79849 0.52372 0.66870
 N595 N 0.82556 0.54286 0.64565
 C596 C 0.86032 0.56441 0.65835
 H597 H 0.88536 0.57626 0.80397
 H598 H 0.93591 0.61007 0.76222
 H599 H 0.78067 0.50970 0.72355
 H600 H 0.88010 0.58034 0.63821
 C601 C 0.71137 0.54762 0.87853
 C602 C 0.69073 0.56869 0.90727
 C603 C 0.71383 0.59406 0.93250
 C604 C 0.75986 0.59503 0.92992
 C605 C 0.78067 0.57391 0.90003
 C606 C 0.75598 0.55030 0.87419
 C607 C 0.82596 0.57573 0.89777
 N608 N 0.84896 0.59591 0.92439
 N609 N 0.82984 0.61398 0.95336
 C610 C 0.78641 0.61384 0.95732
 H611 H 0.69223 0.52929 0.85918
 H612 H 0.65591 0.56642 0.90857
 H613 H 0.84354 0.56055 0.87559
 H614 H 0.77383 0.62692 0.98274
 C615 C 0.22867 0.42573 0.89237
 C616 C 0.25135 0.40299 0.91880
 C617 C 0.29671 0.40184 0.91878
 C618 C 0.31922 0.42129 0.88879
 C619 C 0.29547 0.44243 0.86072
 C620 C 0.25018 0.44637 0.86369
 C621 C 0.31759 0.45724 0.82935
 N622 N 0.36087 0.45289 0.82685
 N623 N 0.38339 0.43371 0.85320
 C624 C 0.36418 0.41739 0.88372
 H625 H 0.19387 0.42739 0.89439
 H626 H 0.23308 0.38790 0.94064
 H627 H 0.30065 0.47122 0.80632
 H628 H 0.38440 0.40030 0.90261
 C629 C 0.22226 0.57661 0.10482
 C630 C 0.24510 0.59869 0.07815
 C631 C 0.29033 0.59610 0.07570
 C632 C 0.31298 0.57311 0.10364
 C633 C 0.28922 0.55093 0.13107
 C634 C 0.24360 0.55156 0.13056
 C635 C 0.31188 0.52995 0.15926
 N636 N 0.35547 0.53095 0.16000
 N637 N 0.37791 0.55222 0.13492
 C638 C 0.35838 0.57364 0.10720
 H639 H 0.18737 0.57807 0.10464
 H640 H 0.22667 0.61646 0.05810
 H641 H 0.29534 0.51338 0.18116
 H642 H 0.37895 0.59197 0.08957
 C643 C 0.70307 0.46104 0.13238
 C644 C 0.68477 0.43804 0.10354
 C645 C 0.70976 0.41163 0.08071
 C646 C 0.75561 0.41088 0.08633
 C647 C 0.77422 0.43661 0.11458
 C648 C 0.74747 0.46066 0.13840
 C649 C 0.81950 0.43851 0.11760
 N650 N 0.84454 0.41515 0.09488
 N651 N 0.82750 0.39048 0.06890
 C652 C 0.78434 0.38766 0.06367
 H653 H 0.68220 0.47904 0.15044
 H654 H 0.65006 0.43955 0.10036
 H655 H 0.83548 0.45890 0.13733
 H656 H 0.77411 0.36808 0.04100
 C657 C 0.85517 0.69997 0.54762
 C658 C 0.88569 0.67891 0.56888
 C659 C 0.91597 0.70066 0.59092
 C660 C 0.91703 0.74537 0.58876
 C661 C 0.88554 0.76659 0.56712
 C662 C 0.85421 0.74357 0.54683
 C663 C 0.88732 0.81051 0.56526
 N664 N 0.91922 0.83172 0.58281
 N665 N 0.94981 0.81205 0.60172
 C666 C 0.95017 0.76992 0.60497
 H667 H 0.83165 0.68201 0.53197
 H668 H 0.88435 0.64509 0.56910
 H669 H 0.86423 0.82832 0.54943
 H670 H 0.97765 0.75666 0.61878
 C671 C 0.87530 0.24348 0.42647
 C672 C 0.90245 0.26506 0.40264
 C673 C 0.90628 0.30885 0.40422
 C674 C 0.87764 0.33129 0.42843
 C675 C 0.84774 0.30875 0.45098
 C676 C 0.84804 0.26451 0.45121
 C677 C 0.81669 0.33123 0.47112
 N678 N 0.81656 0.37346 0.47050
 N679 N 0.84477 0.39477 0.45022
 C680 C 0.87480 0.37536 0.42896
 H681 H 0.87531 0.20965 0.42532
 H682 H 0.92258 0.24666 0.38419
 H683 H 0.79161 0.31555 0.48634
 H684 H 0.89444 0.39511 0.41180
 C685 C 0.13292 0.22860 0.59814
 C686 C 0.10378 0.25007 0.62211
 C687 C 0.06763 0.27201 0.60845
 C688 C 0.05533 0.26478 0.57197
 C689 C 0.07768 0.21680 0.55256
 C690 C 0.12253 0.21586 0.56120
 C691 C 0.07476 0.20398 0.50540
 N692 N 0.05812 0.23993 0.47725
 N693 N 0.03652 0.29640 0.49538
 C694 C 0.03468 0.30665 0.54168
 H695 H 0.16546 0.22461 0.60831
 H696 H 0.11408 0.25599 0.65048
 H697 H 0.08945 0.17585 0.49447
 H698 H 0.02463 0.33695 0.55160
 C699 C 0.12753 0.75672 0.43155
 C700 C 0.09984 0.73427 0.40875
 C701 C 0.09449 0.69077 0.41245
 C702 C 0.12150 0.66944 0.43857
 C703 C 0.15039 0.69294 0.46163
 C704 C 0.15203 0.73704 0.45893
 C705 C 0.17808 0.67139 0.48577
 N706 N 0.17676 0.62918 0.48730
 N707 N 0.15026 0.60704 0.46574
 C708 C 0.12308 0.62549 0.44128
 H709 H 0.12871 0.79037 0.42856
 H710 H 0.08077 0.75204 0.38916
 H711 H 0.20138 0.68765 0.50294
 H712 H 0.10463 0.60507 0.42349
 C713 C 0.55216 0.86156 0.72498
 C714 C 0.57268 0.88865 0.70039
 C715 C 0.58858 0.92732 0.71269
 C716 C 0.58239 0.93947 0.75031
 C717 C 0.56098 0.91220 0.77514
 C718 C 0.54613 0.87284 0.76232
 C719 C 0.55449 0.92561 0.81204
 N720 N 0.56845 0.96385 0.82313
 N721 N 0.58839 0.98957 0.79978
 C722 C 0.59574 0.97874 0.76382
 H723 H 0.54055 0.83169 0.71476
 H724 H 0.57665 0.87910 0.67166
 H725 H 0.53803 0.90631 0.83202
 H726 H 0.61149 1.00105 0.74607
 C727 C 0.41256 0.88008 0.23908
 C728 C 0.39362 0.90811 0.26364
 C729 C 0.40506 0.90917 0.30148
 C730 C 0.43440 0.87862 0.31512
 C731 C 0.45117 0.84803 0.29022
 C732 C 0.44232 0.85063 0.25160
 C733 C 0.47649 0.81564 0.30473
 N734 N 0.48685 0.81541 0.34134
 N735 N 0.47309 0.84512 0.36444
 C736 C 0.44737 0.87661 0.35268
 H737 H 0.40503 0.88247 0.20971
 H738 H 0.37098 0.93043 0.25241
 H739 H 0.48812 0.79054 0.28719
 H740 H 0.43755 0.89927 0.37311
 C741 C 0.55442 0.14244 0.27707
 C742 C 0.57593 0.11460 0.30027
 C743 C 0.59158 0.07655 0.28642
 C744 C 0.58466 0.06606 0.24840
 C745 C 0.56277 0.09446 0.22487
 C746 C 0.54741 0.13276 0.23951
 C747 C 0.55612 0.08316 0.18740
 N748 N 0.56984 0.04557 0.17466
 N749 N 0.58968 0.01855 0.19684
 C750 C 0.59744 0.02739 0.23319
 H751 H 0.54270 0.17161 0.28859
 H752 H 0.58054 0.12288 0.32928
 H753 H 0.53995 0.10372 0.16815
 H754 H 0.61297 0.00378 0.24974
 C755 C 0.47221 0.10256 0.75025
 C756 C 0.45106 0.07604 0.72543
 C757 C 0.41794 0.09097 0.70271
 C758 C 0.40685 0.13375 0.70407
 C759 C 0.42946 0.16118 0.72836
 C760 C 0.46204 0.14519 0.75210
 C761 C 0.41897 0.20390 0.72760
 N762 N 0.38723 0.21767 0.70479
 N763 N 0.36545 0.19172 0.68256
 C764 C 0.37418 0.15026 0.68142
 H765 H 0.49651 0.08958 0.76848
 H766 H 0.45954 0.04322 0.72492
 H767 H 0.43592 0.22656 0.74457
 H768 H 0.35577 0.13064 0.66266
 C769 C 0.53703 0.72460 0.13154
 C770 C 0.55903 0.70413 0.10318
 C771 C 0.58085 0.72660 0.07560
 C772 C 0.57855 0.77092 0.07584
 C773 C 0.55583 0.79175 0.10471
 C774 C 0.53527 0.76820 0.13281
 C775 C 0.55368 0.83563 0.10404
 N776 N 0.57266 0.85703 0.07603
 N777 N 0.59343 0.83751 0.04864
 C778 C 0.59686 0.79532 0.04754
 H779 H 0.52140 0.70623 0.15288
 H780 H 0.55966 0.67035 0.10326
 H781 H 0.53675 0.85314 0.12524
 H782 H 0.61312 0.78137 0.02423
 C783 C 0.43267 0.21823 0.10906
 C784 C 0.41195 0.24085 0.08129
 C785 C 0.40909 0.28451 0.08335
 C786 C 0.42589 0.30556 0.11515
 C787 C 0.44675 0.28237 0.14350
 C788 C 0.45092 0.23852 0.13988
 C789 C 0.46219 0.30380 0.17506
 N790 N 0.45726 0.34574 0.17787
 N791 N 0.43755 0.36756 0.15143
 C792 C 0.42151 0.34897 0.12035
 H793 H 0.43548 0.18466 0.10605
 H794 H 0.39900 0.22416 0.05745
 H795 H 0.47756 0.28752 0.19774
 H796 H 0.40492 0.36834 0.10049
 C797 C 0.55689 0.28214 0.86530
 C798 C 0.57578 0.30356 0.89498
 C799 C 0.58969 0.28220 0.92673
 C800 C 0.58356 0.23835 0.92891
 C801 C 0.56448 0.21661 0.89860
 C802 C 0.55095 0.23887 0.86675
 C803 C 0.55906 0.17312 0.90134
 N804 N 0.57110 0.15307 0.93279
 N805 N 0.58815 0.17356 0.96161
 C806 C 0.59470 0.21543 0.96082
 H807 H 0.54641 0.29947 0.84113
 H808 H 0.58023 0.33704 0.89289
 H809 H 0.54528 0.15490 0.87883
 H810 H 0.60796 0.23030 0.98534
 C811 C 0.46168 0.77269 0.90429
 C812 C 0.43876 0.74966 0.93045
 C813 C 0.40563 0.72271 0.91928
 C814 C 0.39547 0.71867 0.88107
 C815 C 0.42103 0.73944 0.85421
 C816 C 0.45405 0.76740 0.86601
 C817 C 0.41272 0.73112 0.81634
 N818 N 0.37916 0.70625 0.80639
 N819 N 0.35368 0.68872 0.83169
 C820 C 0.36070 0.69407 0.86866
 H821 H 0.48557 0.79484 0.91410
 H822 H 0.44643 0.75343 0.95971
 H823 H 0.43263 0.74387 0.79451
 H824 H 0.33909 0.67902 0.88800
 C825 C 0.76291 0.88115 0.44542
 C826 C 0.74172 0.91085 0.42404
 C827 C 0.69759 0.90716 0.41619
 C828 C 0.67454 0.87203 0.42981
 C829 C 0.69632 0.84171 0.45160
 C830 C 0.74074 0.84666 0.45961
 C831 C 0.67311 0.80667 0.46381
 N832 N 0.63086 0.80240 0.45489
 N833 N 0.61044 0.83059 0.43430
 C834 C 0.63081 0.86506 0.42129
 H835 H 0.79697 0.88519 0.45115
 H836 H 0.75998 0.93726 0.41374
 H837 H 0.68832 0.78237 0.47988
 H838 H 0.61265 0.88612 0.40396
 C839 C 0.28893 0.85455 0.55535
 C840 C 0.31059 0.88461 0.57636
 C841 C 0.28853 0.91860 0.59205
 C842 C 0.24340 0.92273 0.58545
 C843 C 0.22145 0.89177 0.56422
 C844 C 0.24454 0.85752 0.54932
 C845 C 0.17704 0.89671 0.55753
 N846 N 0.15614 0.93065 0.57096
 N847 N 0.17667 0.96010 0.59034
 C848 C 0.21940 0.95749 0.59788
 H849 H 0.30693 0.82863 0.54371
 H850 H 0.34496 0.88109 0.58064
 H851 H 0.15881 0.87422 0.54136
 H852 H 0.23390 0.98341 0.61248
 C853 C 0.22940 0.12794 0.43114
 C854 C 0.25210 0.09850 0.41055
 C855 C 0.29724 0.09604 0.41254
 C856 C 0.31991 0.12666 0.43391
 C857 C 0.29639 0.15605 0.45568
 C858 C 0.25079 0.15542 0.45527
 C859 C 0.31930 0.18578 0.47675
 N860 N 0.36294 0.18637 0.47581
 N861 N 0.38509 0.15953 0.45490
 C862 C 0.36519 0.13000 0.43378
 H863 H 0.19450 0.12757 0.42996
 H864 H 0.23382 0.07630 0.39400
 H865 H 0.30285 0.20891 0.49352
 H866 H 0.38517 0.11053 0.41640
 C867 C 0.70405 0.14886 0.54431
 C868 C 0.68399 0.11781 0.56511
 C869 C 0.70695 0.08260 0.57693
 C870 C 0.75077 0.07795 0.56625
 C871 C 0.77104 0.10956 0.54499
 C872 C 0.74740 0.14524 0.53420
 C873 C 0.81458 0.10442 0.53513
 N874 N 0.83599 0.06944 0.54529
 N875 N 0.81682 0.03937 0.56466
 C876 C 0.77507 0.04237 0.57543
 H877 H 0.68574 0.17614 0.53628
 H878 H 0.65057 0.12192 0.57302
 H879 H 0.83179 0.12780 0.51940
 H880 H 0.76138 0.01666 0.59066
 C881 C 0.84339 0.55482 0.28322
 C882 C 0.87429 0.57465 0.30531
 C883 C 0.90959 0.59518 0.28927
 C884 C 0.91409 0.59505 0.24981
 C885 C 0.88285 0.57428 0.22744
 C886 C 0.84714 0.55436 0.24441
 C887 C 0.88926 0.57273 0.18864
 N888 N 0.92426 0.59122 0.17336
 N889 N 0.95354 0.61077 0.19421
 C890 C 0.94982 0.61319 0.23173
 H891 H 0.81657 0.53917 0.29652
 H892 H 0.87056 0.57402 0.33528
 H893 H 0.86720 0.55657 0.17024
 H894 H 0.97565 0.62824 0.24673
 C895 C 0.89247 0.46463 0.76043
 C896 C 0.91941 0.44129 0.73761
 C897 C 0.90361 0.40658 0.71816
 C898 C 0.85938 0.39610 0.72053
 C899 C 0.83121 0.42187 0.74148
 C900 C 0.84822 0.45586 0.76244
 C901 C 0.78681 0.41278 0.74048
 N902 N 0.77228 0.37886 0.72147
 N903 N 0.79904 0.35360 0.70321
 C904 C 0.84206 0.36100 0.70216
 H905 H 0.90651 0.48949 0.77701
 H906 H 0.95326 0.44947 0.73620
 H907 H 0.76347 0.43244 0.75433
 H908 H 0.86224 0.33946 0.68689
 C909 C 0.10534 0.55408 0.77264
 C910 C 0.07689 0.57492 0.74911
 C911 C 0.08491 0.57786 0.71078
 C912 C 0.12326 0.56018 0.69614
 C913 C 0.15240 0.53926 0.72025
 C914 C 0.14298 0.53584 0.75870
 C915 C 0.19061 0.52298 0.70509
 N916 N 0.19890 0.52729 0.66827
 N917 N 0.17177 0.54706 0.64570
 C918 C 0.13440 0.56379 0.65835
 H919 H 0.09774 0.55182 0.80198
 H920 H 0.04793 0.58842 0.76089
 H921 H 0.21405 0.50711 0.72222
 H922 H 0.11419 0.58019 0.63880
 C923 C 0.11245 0.42555 0.21919
 C924 C 0.08429 0.40481 0.24278
 C925 C 0.08730 0.40979 0.28148
 C926 C 0.12174 0.43379 0.29669
 C927 C 0.14998 0.45548 0.27249
 C928 C 0.14393 0.45259 0.23351
 C929 C 0.18401 0.47879 0.28810
 N930 N 0.18933 0.48016 0.32552
 N931 N 0.16326 0.45939 0.34829
 C932 C 0.12992 0.43607 0.33523
 H933 H 0.10806 0.42236 0.18938
 H934 H 0.05877 0.38607 0.23057
 H935 H 0.20678 0.49546 0.27088
 H936 H 0.11112 0.41876 0.35516
   
