data_POSCAR
  _audit_creation_date              2014-09-24
  _audit_creation_method            'ToBaCCo'
  _symmetry_space_group_name_H-M    'P1'
  _symmetry_Int_Tables_number       1
  _symmetry_cell_setting            triclinic
  loop_
  _symmetry_equiv_pos_as_xyz
 x,y,z
_cell_length_a 61.0102
_cell_length_b 60.1657
_cell_length_c 60.9352
_cell_angle_alpha 90.013300
_cell_angle_beta 90.022400
_cell_angle_gamma 89.925700
loop_
  _atom_site_label
  _atom_site_type_symbol
  _atom_site_fract_x
  _atom_site_fract_y
  _atom_site_fract_z
C1 C 0.60828 0.64130 0.62545
 C2 C 0.60850 0.62485 0.64180
 C3 C 0.62476 0.60809 0.64224
 C4 C 0.64090 0.60838 0.62560
 C5 C 0.64089 0.62471 0.60913
 C6 C 0.62453 0.64108 0.60919
 H7 H 0.59512 0.62462 0.65344
 H8 H 0.65436 0.59667 0.62592
 H9 H 0.62444 0.65372 0.59654
 C10 C 0.89227 0.35807 0.12538
 C11 C 0.87560 0.35831 0.10925
 C12 C 0.85911 0.37464 0.10926
 C13 C 0.85916 0.39100 0.12563
 C14 C 0.87543 0.39124 0.14188
 C15 C 0.89183 0.37483 0.14164
 H16 H 0.87556 0.34621 0.09614
 H17 H 0.84681 0.40394 0.12539
 H18 H 0.90348 0.37463 0.15501
 C19 C 0.39191 0.14169 -0.12511
 C20 C 0.39164 0.12524 -0.14148
 C21 C 0.37533 0.10879 -0.14174
 C22 C 0.35914 0.10893 -0.12535
 C23 C 0.35912 0.12523 -0.10884
 C24 C 0.37557 0.14154 -0.10887
 H25 H 0.40418 0.12525 -0.15405
 H26 H 0.34618 0.09665 -0.12578
 H27 H 0.37600 0.15381 -0.09586
 C28 C 0.10746 0.85801 0.37497
 C29 C 0.12411 0.85830 0.39112
 C30 C 0.14059 0.87458 0.39109
 C31 C 0.14053 0.89090 0.37468
 C32 C 0.12429 0.89111 0.35841
 C33 C 0.10790 0.87473 0.35867
 H34 H 0.12378 0.84663 0.40461
 H35 H 0.15352 0.90315 0.37423
 H36 H 0.09588 0.87488 0.34564
 N37 N 0.09986 0.15995 0.11458
 N38 N 0.09103 0.15060 0.13193
 C39 C 0.07327 0.16240 0.13800
 C40 C 0.07076 0.18011 0.12366
 C41 C 0.08801 0.17796 0.10900
 H42 H 0.06285 0.15829 0.15174
 H43 H 0.09183 0.18875 0.09537
 Cu44 Cu 0.10361 0.12392 0.14492
 Cu45 Cu 0.12605 0.14814 0.10053
 Cu46 Cu 0.14940 0.10118 0.12383
 N47 N 0.11727 0.09792 0.15812
 N48 N 0.13513 0.08910 0.14977
 C49 C 0.14106 0.07142 0.16193
 C50 C 0.12613 0.06896 0.17891
 C51 C 0.11127 0.08615 0.17592
 H52 H 0.15531 0.06125 0.15871
 H53 H 0.09703 0.08974 0.18584
 N54 N 0.16142 0.11584 0.09755
 N55 N 0.15256 0.13373 0.08871
 C56 C 0.16446 0.13973 0.07107
 C57 C 0.18168 0.12490 0.06863
 C58 C 0.17918 0.10998 0.08576
 H59 H 0.16072 0.15376 0.06066
 H60 H 0.18961 0.09596 0.08949
 H61 H 0.12176 0.11551 0.11021
 H62 H 0.13877 0.13349 0.12849
 N63 N 0.40039 0.84011 0.61417
 N64 N 0.40920 0.84945 0.63154
 C65 C 0.42698 0.83766 0.63761
 C66 C 0.42949 0.81996 0.62325
 C67 C 0.41225 0.82211 0.60858
 H68 H 0.43739 0.84177 0.65136
 H69 H 0.40843 0.81131 0.59494
 Cu70 Cu 0.39661 0.87611 0.64454
 Cu71 Cu 0.37417 0.85189 0.60013
 Cu72 Cu 0.35071 0.89874 0.62353
 N73 N 0.38290 0.90208 0.65777
 N74 N 0.36501 0.91085 0.64946
 C75 C 0.35906 0.92851 0.66164
 C76 C 0.37401 0.93100 0.67860
 C77 C 0.38892 0.91386 0.67558
 H78 H 0.34477 0.93864 0.65844
 H79 H 0.40318 0.91030 0.68548
 N80 N 0.33868 0.88406 0.59724
 N81 N 0.34763 0.86626 0.58832
 C82 C 0.33575 0.86028 0.57065
 C83 C 0.31843 0.87500 0.56829
 C84 C 0.32086 0.88986 0.58550
 H85 H 0.33937 0.84612 0.56036
 H86 H 0.31054 0.90399 0.58911
 H87 H 0.37838 0.88451 0.60987
 H88 H 0.36145 0.86645 0.62812
 N89 N 0.89950 0.66080 0.38517
 N90 N 0.90774 0.65208 0.36720
 C91 C 0.92550 0.66385 0.36118
 C92 C 0.92860 0.68091 0.37617
 C93 C 0.91172 0.67838 0.39118
 H94 H 0.93554 0.66014 0.34704
 H95 H 0.90840 0.68864 0.40535
 Cu96 Cu 0.89451 0.62616 0.35346
 Cu97 Cu 0.87356 0.64874 0.39944
 Cu98 Cu 0.85019 0.60196 0.37595
 N99 N 0.88152 0.59953 0.34086
 N100 N 0.86419 0.59019 0.34969
 C101 C 0.85861 0.57220 0.33782
 C102 C 0.87324 0.57006 0.32055
 C103 C 0.88757 0.58775 0.32306
 H104 H 0.84500 0.56141 0.34165
 H105 H 0.90130 0.59186 0.31264
 N106 N 0.83841 0.61631 0.40252
 N107 N 0.84728 0.63414 0.41144
 C108 C 0.83552 0.63997 0.42923
 C109 C 0.81837 0.62510 0.43170
 C110 C 0.82078 0.61033 0.41442
 H111 H 0.83927 0.65394 0.43971
 H112 H 0.81035 0.59635 0.41064
 H113 H 0.87816 0.61647 0.38867
 H114 H 0.85990 0.63457 0.37173
 N115 N 0.60045 0.33932 -0.11483
 N116 N 0.59211 0.34812 -0.13272
 C117 C 0.57429 0.33640 -0.13870
 C118 C 0.57128 0.31927 -0.12379
 C119 C 0.58826 0.32170 -0.10886
 H120 H 0.56437 0.33998 -0.15295
 H121 H 0.59148 0.31156 -0.09458
 Cu122 Cu 0.60536 0.37402 -0.14645
 Cu123 Cu 0.62642 0.35133 -0.10058
 Cu124 Cu 0.64980 0.39811 -0.12406
 N125 N 0.61839 0.40061 -0.15909
 N126 N 0.63576 0.40990 -0.15029
 C127 C 0.64137 0.42786 -0.16217
 C128 C 0.62670 0.43004 -0.17942
 C129 C 0.61232 0.41239 -0.17688
 H130 H 0.65502 0.43861 -0.15837
 H131 H 0.59856 0.40832 -0.18728
 N132 N 0.66162 0.38373 -0.09751
 N133 N 0.65274 0.36591 -0.08859
 C134 C 0.66453 0.36005 -0.07082
 C135 C 0.68169 0.37490 -0.06835
 C136 C 0.67927 0.38969 -0.08562
 H137 H 0.66077 0.34609 -0.06034
 H138 H 0.68972 0.40365 -0.08940
 H139 H 0.62186 0.38363 -0.11127
 H140 H 0.64002 0.36552 -0.12830
 C141 C -0.07828 0.30408 0.11571
 C142 C -0.05787 0.30849 0.12512
 C143 C -0.05389 0.32921 0.13462
 C144 C -0.07024 0.34551 0.13476
 C145 C -0.09106 0.34146 0.12531
 C146 C -0.09468 0.32032 0.11576
 C147 C -0.04100 0.29174 0.12500
 C148 C -0.02688 0.27771 0.12488
 C149 C -0.01036 0.26127 0.12472
 C150 C 0.00374 0.24722 0.12456
 C151 C 0.02056 0.23043 0.12436
 C152 C 0.02299 0.21605 0.14223
 C153 C 0.03929 0.19970 0.14203
 C154 C 0.05345 0.19750 0.12391
 C155 C 0.05086 0.21209 0.10603
 C156 C 0.03453 0.22841 0.10627
 H157 H -0.08160 0.28799 0.10847
 H158 H -0.03805 0.33287 0.14180
 H159 H -0.06599 0.36155 0.14155
 H160 H -0.11044 0.31570 0.10906
 H161 H 0.01228 0.21748 0.15635
 H162 H 0.04083 0.18896 0.15617
 H163 H 0.06127 0.21086 0.09172
 H164 H 0.03278 0.23944 0.09232
 C165 C 0.56454 0.68135 0.60528
 C166 C 0.55795 0.69141 0.62492
 C167 C 0.56778 0.68510 0.64472
 C168 C 0.58413 0.66880 0.64490
 C169 C 0.59088 0.65860 0.62525
 C170 C 0.58090 0.66506 0.60542
 C171 C 0.54113 0.70820 0.62474
 C172 C 0.52704 0.72227 0.62458
 C173 C 0.51056 0.73874 0.62439
 C174 C 0.49648 0.75281 0.62421
 C175 C 0.47968 0.76962 0.62399
 C176 C 0.47724 0.78399 0.64187
 C177 C 0.46095 0.80035 0.64166
 C178 C 0.44681 0.80257 0.62351
 C179 C 0.44941 0.78800 0.60562
 C180 C 0.46573 0.77166 0.60587
 H181 H 0.55700 0.68607 0.58987
 H182 H 0.56284 0.69281 0.66001
 H183 H 0.59169 0.66436 0.66038
 H184 H 0.58554 0.65731 0.59007
 H185 H 0.48793 0.78254 0.65600
 H186 H 0.45940 0.81109 0.65581
 H187 H 0.43902 0.78924 0.59129
 H188 H 0.46749 0.76064 0.59191
 C189 C 1.07808 0.80414 0.38495
 C190 C 1.05766 0.80851 0.37553
 C191 C 1.05363 0.82919 0.36595
 C192 C 1.06994 0.84548 0.36573
 C193 C 1.09078 0.84147 0.37517
 C194 C 1.09445 0.82037 0.38482
 C195 C 1.04084 0.79176 0.37569
 C196 C 1.02673 0.77775 0.37580
 C197 C 1.01021 0.76136 0.37591
 C198 C 0.99608 0.74737 0.37599
 C199 C 0.97920 0.73068 0.37605
 C200 C 0.97619 0.71703 0.35772
 C201 C 0.95977 0.70084 0.35774
 C202 C 0.94608 0.69807 0.37614
 C203 C 0.94929 0.71191 0.39450
 C204 C 0.96573 0.72808 0.39444
 H205 H 1.08145 0.78808 0.39227
 H206 H 1.03777 0.83281 0.35877
 H207 H 1.06563 0.86148 0.35889
 H208 H 1.11023 0.81581 0.39155
 H209 H 0.98650 0.71893 0.34337
 H210 H 0.95776 0.69069 0.34324
 H211 H 0.93925 0.71022 0.40903
 H212 H 0.96794 0.73854 0.40874
 C213 C 0.42044 0.19749 -0.11999
 C214 C 0.44219 0.19170 -0.12455
 C215 C 0.44753 0.16959 -0.12927
 C216 C 0.43120 0.15331 -0.12946
 C217 C 0.40928 0.15896 -0.12490
 C218 C 0.40408 0.18124 -0.12015
 C219 C 0.45901 0.20845 -0.12439
 C220 C 0.47312 0.22246 -0.12427
 C221 C 0.48965 0.23885 -0.12414
 C222 C 0.50378 0.25283 -0.12405
 C223 C 0.52067 0.26951 -0.12394
 C224 C 0.53871 0.26736 -0.10993
 C225 C 0.55515 0.28352 -0.10984
 C226 C 0.55379 0.30211 -0.12382
 C227 C 0.53554 0.30410 -0.13785
 C228 C 0.51912 0.28791 -0.13788
 H229 H 0.41611 0.21457 -0.11637
 H230 H 0.46433 0.16492 -0.13276
 H231 H 0.43577 0.13626 -0.13288
 H232 H 0.38732 0.18614 -0.11685
 H233 H 0.54009 0.25315 -0.09909
 H234 H 0.56896 0.28127 -0.09894
 H235 H 0.53377 0.31819 -0.14871
 H236 H 0.50520 0.28976 -0.14878
 C237 C 0.12071 -0.08105 0.30261
 C238 C 0.12510 -0.05889 0.30802
 C239 C 0.12926 -0.05306 0.32986
 C240 C 0.12902 -0.06932 0.34625
 C241 C 0.12458 -0.09164 0.34099
 C242 C 0.12045 -0.09733 0.31897
 C243 C 0.12532 -0.04213 0.29116
 C244 C 0.12548 -0.02811 0.27704
 C245 C 0.12565 -0.01169 0.26050
 C246 C 0.12577 0.00232 0.24637
 C247 C 0.12590 0.01905 0.22948
 C248 C 0.13990 0.01690 0.21143
 C249 C 0.14000 0.03312 0.19500
 C250 C 0.12607 0.05175 0.19638
 C251 C 0.11206 0.05372 0.21464
 C252 C 0.11200 0.03748 0.23106
 H253 H 0.11754 -0.08575 0.28574
 H254 H 0.13263 -0.03595 0.33424
 H255 H 0.13203 -0.06440 0.36308
 H256 H 0.11730 -0.11441 0.31437
 H257 H 0.15070 0.00267 0.21003
 H258 H 0.15089 0.03088 0.18118
 H259 H 0.10123 0.06784 0.21643
 H260 H 0.10111 0.03932 0.24499
 C261 C 0.61549 0.57910 -0.30399
 C262 C 0.62513 0.55844 -0.30799
 C263 C 0.63465 0.55413 -0.32839
 C264 C 0.63456 0.57039 -0.34477
 C265 C 0.62487 0.59148 -0.34111
 C266 C 0.61531 0.59543 -0.32030
 C267 C 0.62529 0.54166 -0.29116
 C268 C 0.62543 0.52760 -0.27707
 C269 C 0.62561 0.51114 -0.26057
 C270 C 0.62577 0.49709 -0.24648
 C271 C 0.62599 0.48029 -0.22966
 C272 C 0.60810 0.46599 -0.22720
 C273 C 0.60831 0.44966 -0.21088
 C274 C 0.62644 0.44739 -0.19675
 C275 C 0.64435 0.46190 -0.19939
 C276 C 0.64410 0.47821 -0.21572
 H277 H 0.60823 0.58268 -0.28815
 H278 H 0.64201 0.53808 -0.33174
 H279 H 0.64137 0.56587 -0.36053
 H280 H 0.60841 0.61141 -0.31603
 H281 H 0.59398 0.46748 -0.23788
 H282 H 0.59415 0.43898 -0.20931
 H283 H 0.65866 0.46062 -0.18900
 H284 H 0.65806 0.48918 -0.21751
 C285 C 0.37945 1.08089 0.80251
 C286 C 0.37478 1.05878 0.80784
 C287 C 0.37028 1.05299 0.82962
 C288 C 0.37044 1.06924 0.84602
 C289 C 0.37513 1.09153 0.84084
 C290 C 0.37963 1.09717 0.81889
 C291 C 0.37463 1.04203 0.79097
 C292 C 0.37451 1.02801 0.77684
 C293 C 0.37439 1.01161 0.76028
 C294 C 0.37429 0.99760 0.74613
 C295 C 0.37420 0.98089 0.72922
 C296 C 0.38816 0.96250 0.73076
 C297 C 0.38811 0.94628 0.71433
 C298 C 0.37406 0.94821 0.69609
 C299 C 0.36006 0.96679 0.69474
 C300 C 0.36015 0.98300 0.71119
 H301 H 0.38289 1.08557 0.78570
 H302 H 0.36670 1.03590 0.83393
 H303 H 0.36717 1.06434 0.86280
 H304 H 0.38301 1.11422 0.81434
 H305 H 0.39908 0.96068 0.74467
 H306 H 0.39899 0.93219 0.71609
 H307 H 0.34914 0.96900 0.68094
 H308 H 0.34929 0.99719 0.70982
 C309 C 0.89469 0.43508 0.18233
 C310 C 0.87491 0.44149 0.19209
 C311 C 0.85529 0.43150 0.18546
 C312 C 0.85543 0.41516 0.16913
 C313 C 0.87524 0.40860 0.15922
 C314 C 0.89488 0.41874 0.16601
 C315 C 0.87473 0.45830 0.20889
 C316 C 0.87458 0.47238 0.22297
 C317 C 0.87438 0.48886 0.23945
 C318 C 0.87420 0.50294 0.25352
 C319 C 0.87397 0.51975 0.27033
 C320 C 0.85590 0.52178 0.28431
 C321 C 0.85565 0.53811 0.30064
 C322 C 0.87350 0.55269 0.30322
 C323 C 0.89160 0.55048 0.28905
 C324 C 0.89181 0.53413 0.27274
 H325 H 0.90997 0.44275 0.18730
 H326 H 0.83989 0.43629 0.19295
 H327 H 0.84009 0.40747 0.16446
 H328 H 0.91035 0.41424 0.15851
 H329 H 0.84197 0.51076 0.28256
 H330 H 0.84136 0.53935 0.31106
 H331 H 0.90572 0.56121 0.29058
 H332 H 0.90592 0.53268 0.26203
 C333 C 0.31879 0.10515 -0.06577
 C334 C 0.30934 0.12518 -0.05890
 C335 C 0.31614 0.14523 -0.06832
 C336 C 0.33233 0.14527 -0.08455
 C337 C 0.34193 0.12521 -0.09159
 C338 C 0.33497 0.10514 -0.08201
 C339 C 0.29268 0.12516 -0.04218
 C340 C 0.27872 0.12514 -0.02819
 C341 C 0.26236 0.12512 -0.01183
 C342 C 0.24838 0.12510 0.00215
 C343 C 0.23168 0.12506 0.01882
 C344 C 0.21793 0.14350 0.02140
 C345 C 0.20168 0.14347 0.03757
 C346 C 0.19895 0.12496 0.05145
 C347 C 0.21291 0.10651 0.04870
 C348 C 0.22913 0.10658 0.03250
 H349 H 0.31369 0.08954 -0.05854
 H350 H 0.30889 0.16083 -0.06316
 H351 H 0.33714 0.16095 -0.09181
 H352 H 0.34224 0.08947 -0.08688
 H353 H 0.21978 0.15792 0.01092
 H354 H 0.19144 0.15805 0.03925
 H355 H 0.21125 0.09189 0.05888
 H356 H 0.23967 0.09219 0.03063
 C357 C 0.68422 0.64478 0.56907
 C358 C 0.69088 0.62479 0.55939
 C359 C 0.68124 0.60478 0.56596
 C360 C 0.66499 0.60474 0.58213
 C361 C 0.65817 0.62475 0.59196
 C362 C 0.66797 0.64479 0.58524
 C363 C 0.70759 0.62481 0.54273
 C364 C 0.72158 0.62484 0.52877
 C365 C 0.73795 0.62487 0.51241
 C366 C 0.75193 0.62490 0.49843
 C367 C 0.76860 0.62494 0.48173
 C368 C 0.77114 0.60654 0.46792
 C369 C 0.78730 0.60657 0.45166
 C370 C 0.80121 0.62504 0.44898
 C371 C 0.79851 0.64345 0.46300
 C372 C 0.78232 0.64338 0.47924
 H373 H 0.69163 0.66037 0.56415
 H374 H 0.68623 0.58921 0.55853
 H375 H 0.65757 0.58909 0.58678
 H376 H 0.66328 0.66042 0.59270
 H377 H 0.76063 0.59216 0.46972
 H378 H 0.78894 0.59202 0.44136
 H379 H 0.80872 0.65803 0.46139
 H380 H 0.78047 0.65773 0.48982
 C381 C 0.80366 0.37886 0.08131
 C382 C 0.80925 0.37490 0.05938
 C383 C 0.83112 0.37088 0.05372
 C384 C 0.84736 0.37079 0.06992
 C385 C 0.84191 0.37473 0.09202
 C386 C 0.81987 0.37879 0.09753
 C387 C 0.79254 0.37495 0.04269
 C388 C 0.77856 0.37498 0.02872
 C389 C 0.76219 0.37500 0.01235
 C390 C 0.74821 0.37500 -0.00164
 C391 C 0.73152 0.37499 -0.01834
 C392 C 0.72902 0.39338 -0.03216
 C393 C 0.71283 0.39337 -0.04841
 C394 C 0.69888 0.37494 -0.05108
 C395 C 0.70156 0.35653 -0.03705
 C396 C 0.71777 0.35658 -0.02082
 H397 H 0.78676 0.38194 0.08588
 H398 H 0.83564 0.36787 0.03678
 H399 H 0.86422 0.36793 0.06512
 H400 H 0.81515 0.38164 0.11443
 H401 H 0.73956 0.40774 -0.03036
 H402 H 0.71122 0.40792 -0.05871
 H403 H 0.69132 0.34197 -0.03866
 H404 H 0.71959 0.34223 -0.01024
 C405 C 0.18094 0.89463 0.43420
 C406 C 0.19049 0.87461 0.44095
 C407 C 0.18374 0.85458 0.43144
 C408 C 0.16752 0.85455 0.41524
 C409 C 0.15782 0.87459 0.40832
 C410 C 0.16472 0.89465 0.41798
 C411 C 0.20720 0.87462 0.45763
 C412 C 0.22120 0.87464 0.47159
 C413 C 0.23760 0.87468 0.48793
 C414 C 0.25161 0.87471 0.50189
 C415 C 0.26835 0.87477 0.51854
 C416 C 0.28687 0.86125 0.51628
 C417 C 0.30315 0.86130 0.53243
 C418 C 0.30114 0.87491 0.55113
 C419 C 0.28241 0.88845 0.55322
 C420 C 0.26615 0.88836 0.53704
 H421 H 0.18600 0.91023 0.44149
 H422 H 0.19107 0.83899 0.43651
 H423 H 0.16274 0.83888 0.40792
 H424 H 0.15737 0.91031 0.41320
 H425 H 0.28876 0.85069 0.50199
 H426 H 0.31735 0.85079 0.53010
 H427 H 0.28013 0.89902 0.56739
 H428 H 0.25185 0.89887 0.53898
   
