data_POSCAR
  _audit_creation_date              2014-09-24
  _audit_creation_method            'ToBaCCo'
  _symmetry_space_group_name_H-M    'P1'
  _symmetry_Int_Tables_number       1
  _symmetry_cell_setting            triclinic
  loop_
  _symmetry_equiv_pos_as_xyz
 x,y,z
_cell_length_a 27.6337
_cell_length_b 27.7473
_cell_length_c 27.5815
_cell_angle_alpha 89.223800
_cell_angle_beta 89.966500
_cell_angle_gamma 89.401800
loop_
  _atom_site_label
  _atom_site_type_symbol
  _atom_site_fract_x
  _atom_site_fract_y
  _atom_site_fract_z
C1 C 0.45175 1.03862 -0.53264
 C2 C 0.44908 1.01930 -0.48510
 C3 C 0.49157 1.00542 -0.46084
 C4 C 0.53818 1.01200 -0.48087
 C5 C 0.54142 1.03177 -0.52883
 C6 C 0.49813 1.04681 -0.55220
 H7 H 0.50041 1.06143 -0.58867
 H8 H 0.48763 0.99230 -0.42383
 C9 C -0.53312 1.45387 0.01410
 C10 C -0.48325 1.44750 0.02358
 C11 C -0.45403 1.48817 0.02875
 C12 C -0.47232 1.53584 0.02565
 C13 C -0.52297 1.54183 0.01880
 C14 C -0.55195 1.50112 0.01238
 H15 H -0.59055 1.50665 0.00731
 H16 H -0.41565 1.48184 0.03425
 C17 C 0.02028 0.46196 0.45575
 C18 C 0.02145 0.51260 0.44815
 C19 C 0.02083 0.54337 0.48816
 C20 C 0.02067 0.52641 0.53664
 C21 C 0.02153 0.47574 0.54424
 C22 C 0.02060 0.44499 0.50424
 H23 H 0.02036 0.40655 0.51185
 H24 H 0.02088 0.58182 0.48055
 O25 O -0.12834 0.99546 -0.07079
 O26 O 0.12054 0.99701 -0.06954
 O27 O -0.00550 1.06286 -0.12829
 O28 O -0.00042 0.93120 -0.12885
 O29 O 0.00074 0.87173 -0.06950
 O30 O -0.01007 1.11988 -0.06820
 O31 O 0.06132 0.99500 -0.12845
 O32 O -0.06856 0.99858 -0.12921
 Zr33 Zr -0.00386 0.99629 -0.08927
 O34 O 0.04080 0.95242 -0.04790
 O35 O -0.04911 1.03866 -0.04795
 C36 C -0.11338 0.99803 -0.11548
 C37 C 0.10599 0.99553 -0.11433
 C38 C -0.00871 1.10699 -0.11313
 C39 C 0.00159 0.88643 -0.11426
 H40 H 0.05875 1.06099 -0.06773
 O41 O 0.03846 1.03973 -0.04729
 H42 H -0.06687 0.93083 -0.06905
 O43 O -0.04679 0.95135 -0.04822
 O44 O 0.11960 0.99840 0.06271
 O45 O -0.12892 0.99110 0.06175
 O46 O 0.05837 1.11962 -0.00163
 O47 O 0.06468 0.87171 -0.00478
 O48 O -0.06758 0.87004 -0.00242
 O49 O -0.07357 1.11767 -0.00378
 O50 O -0.00418 1.05782 0.12115
 O51 O -0.00378 0.92620 0.12041
 O52 O -0.00535 1.11742 0.06194
 O53 O -0.00448 0.86922 0.06026
 O54 O 0.11847 1.06121 -0.00081
 O55 O -0.13056 1.05759 -0.00689
 O56 O -0.12752 0.92860 -0.00282
 O57 O 0.12185 0.93184 -0.00616
 O58 O 0.05999 0.99510 0.12128
 O59 O -0.06958 0.98870 0.12068
 Zr60 Zr 0.08080 0.99597 -0.00363
 Zr61 Zr -0.08944 0.99358 -0.00438
 Zr62 Zr -0.00659 1.07944 -0.00338
 Zr63 Zr -0.00233 0.90990 -0.00434
 Zr64 Zr -0.00460 0.99280 0.08142
 O65 O -0.04738 0.94955 0.03960
 O66 O 0.03810 1.03801 0.04038
 C67 C 0.10462 0.99838 0.10743
 C68 C -0.11427 0.98876 0.10657
 C69 C 0.10340 1.10554 -0.00003
 C70 C 0.10899 0.88708 -0.00619
 C71 C -0.11261 0.88423 -0.00145
 C72 C -0.11781 1.10232 -0.00600
 C73 C -0.00387 1.10264 0.10666
 C74 C -0.00473 0.88206 0.10518
 H75 H -0.07039 1.05658 0.06091
 O76 O -0.04928 1.03667 0.04007
 H77 H 0.06161 0.93036 0.06059
 O78 O 0.04043 0.95085 0.03984
 C79 C 0.33765 1.04704 0.37078
 N80 N 0.33071 1.02850 0.41607
 N81 N 0.36662 1.02801 0.44847
 C82 C 0.41089 1.04590 0.43688
 N83 N 0.41666 1.06597 0.39200
 N84 N 0.38101 1.06653 0.35972
 C85 C 0.30122 1.04214 0.33245
 N86 N 0.31270 1.05394 0.28593
 N87 N 0.28159 1.04645 0.25006
 C88 C 0.23777 1.02685 0.25935
 N89 N 0.22601 1.01542 0.30594
 N90 N 0.25728 1.02269 0.34186
 C91 C 0.20382 1.01802 0.21959
 N92 N 0.15791 1.00403 0.22924
 N93 N 0.12678 0.99698 0.19328
 C94 C 0.14045 1.00318 0.14631
 N95 N 0.18653 1.01675 0.13657
 N96 N 0.21764 1.02407 0.17261
 C97 C -0.34399 1.02273 0.37558
 N98 N -0.34444 0.99432 0.41614
 N99 N -0.37991 0.99876 0.44881
 C100 C -0.41604 1.03202 0.44237
 N101 N -0.41412 1.06114 0.40238
 N102 N -0.37906 1.05666 0.36980
 C103 C -0.30931 1.01501 0.33599
 N104 N -0.31835 1.03518 0.29175
 N105 N -0.28848 1.02776 0.25470
 C106 C -0.24822 1.00001 0.26050
 N107 N -0.23892 0.97988 0.30481
 N108 N -0.26915 0.98693 0.34187
 C109 C -0.21460 0.99363 0.21979
 N110 N -0.16888 0.97716 0.22764
 N111 N -0.13744 0.97455 0.19115
 C112 C -0.15063 0.98776 0.14538
 N113 N -0.19663 1.00348 0.13733
 N114 N -0.22798 1.00652 0.17395
 C115 C -0.35049 0.99866 -0.38124
 N116 N -0.39311 0.97610 -0.37407
 N117 N -0.42783 0.97892 -0.40730
 C118 C -0.42179 1.00436 -0.44937
 N119 N -0.37859 1.02644 -0.45672
 N120 N -0.34354 1.02349 -0.42344
 C121 C -0.31428 0.99828 -0.34223
 N122 N -0.26939 1.01651 -0.34929
 N123 N -0.23755 1.01702 -0.31298
 C124 C -0.24962 0.99979 -0.26825
 N125 N -0.29450 0.98166 -0.26126
 N126 N -0.32616 0.98086 -0.29759
 C127 C -0.21467 1.00035 -0.22815
 N128 N -0.22869 0.98975 -0.18200
 N129 N -0.19674 0.98960 -0.14576
 C130 C -0.14957 0.99977 -0.15449
 N131 N -0.13567 1.01041 -0.20063
 N132 N -0.16761 1.01088 -0.23674
 C133 C 0.33602 1.01693 -0.38517
 N134 N 0.33882 0.98268 -0.41988
 N135 N 0.37318 0.98458 -0.45386
 C136 C 0.40515 1.02143 -0.45492
 N137 N 0.40193 1.05578 -0.42050
 N138 N 0.36797 1.05366 -0.38637
 C139 C 0.30165 1.01276 -0.34475
 N140 N 0.30881 1.03806 -0.30361
 N141 N 0.27887 1.03344 -0.26602
 C142 C 0.24043 1.00356 -0.26832
 N143 N 0.23306 0.97843 -0.30956
 N144 N 0.26335 0.98264 -0.34699
 C145 C 0.20662 0.99953 -0.22742
 N146 N 0.16182 0.98137 -0.23424
 N147 N 0.13022 0.97957 -0.19784
 C148 C 0.14240 0.99524 -0.15309
 N149 N 0.18747 1.01282 -0.14600
 N150 N 0.21895 1.01514 -0.18263
 C151 C 0.36350 1.34444 0.00441
 N152 N 0.40644 1.33544 0.02699
 N153 N 0.44013 1.36949 0.02914
 C154 C 0.43228 1.41363 0.00844
 N155 N 0.38953 1.42203 -0.01464
 N156 N 0.35586 1.38825 -0.01660
 C157 C 0.32482 1.30856 0.00411
 N158 N 0.27981 1.32128 -0.01155
 N159 N 0.24409 1.28943 -0.01119
 C160 C 0.25211 1.24357 0.00470
 N161 N 0.29717 1.23075 0.02023
 N162 N 0.33285 1.26272 0.02015
 C163 C 0.21294 1.20822 0.00445
 N164 N 0.22280 1.16092 0.01306
 N165 N 0.18766 1.12854 0.01184
 C166 C 0.14126 1.14219 0.00231
 N167 N 0.13122 1.18960 -0.00595
 N168 N 0.16651 1.22202 -0.00504
 C169 C 0.38315 0.65996 0.01884
 N170 N 0.38411 0.62803 0.05646
 N171 N 0.41695 0.59268 0.05808
 C172 C 0.45035 0.58792 0.02233
 N173 N 0.44975 0.62013 -0.01522
 N174 N 0.41706 0.65588 -0.01665
 C175 C 0.34294 0.69478 0.01456
 N176 N 0.34486 0.73271 -0.01697
 N177 N 0.30715 0.76279 -0.02180
 C178 C 0.26592 0.75550 0.00407
 N179 N 0.26400 0.71748 0.03541
 N180 N 0.30186 0.68779 0.04065
 C181 C 0.22440 0.78864 -0.00091
 N182 N 0.17973 0.77549 0.01476
 N183 N 0.14241 0.80625 0.01182
 C184 C 0.14860 0.85143 -0.00648
 N185 N 0.19323 0.86445 -0.02225
 N186 N 0.23036 0.83354 -0.01985
 C187 C -0.37100 0.64473 0.02809
 N188 N -0.41855 0.65579 0.02097
 N189 N -0.45180 0.62115 0.02134
 C190 C -0.43885 0.57415 0.02869
 N191 N -0.39124 0.56391 0.03663
 N192 N -0.35814 0.59822 0.03635
 C193 C -0.33307 0.68132 0.02485
 N194 N -0.28589 0.66770 0.02913
 N195 N -0.25071 0.69983 0.02462
 C196 C -0.26137 0.74689 0.01562
 N197 N -0.30857 0.76067 0.01152
 N198 N -0.34385 0.72845 0.01594
 C199 C -0.22242 0.78219 0.01039
 N200 N -0.23311 0.82961 0.00387
 N201 N -0.19790 0.86175 -0.00033
 C202 C -0.15068 0.84776 0.00158
 N203 N -0.13989 0.80025 0.00788
 N204 N -0.17518 0.76805 0.01221
 C205 C -0.39323 1.32632 0.02309
 N206 N -0.42707 1.33245 -0.01231
 N207 N -0.45875 1.36908 -0.01064
 C208 C -0.45805 1.40036 0.02685
 N209 N -0.42520 1.39305 0.06284
 N210 N -0.39350 1.35679 0.06104
 C211 C -0.35319 1.29154 0.01816
 N212 N -0.31229 1.29723 0.04463
 N213 N -0.27424 1.26811 0.03865
 C214 C -0.27576 1.23198 0.00612
 N215 N -0.31682 1.22591 -0.02013
 N216 N -0.35475 1.25547 -0.01455
 C217 C -0.23391 1.19957 0.00034
 N218 N -0.23930 1.15571 -0.01991
 N219 N -0.20188 1.12527 -0.02277
 C220 C -0.15754 1.13779 -0.00617
 N221 N -0.15191 1.18199 0.01339
 N222 N -0.18952 1.21225 0.01677
 C223 C 0.01621 1.35893 0.34842
 N224 N 0.01774 1.40650 0.33609
 N225 N 0.01939 1.44005 0.37033
 C226 C 0.01946 1.42746 0.41820
 N227 N 0.01817 1.37968 0.42985
 N228 N 0.01659 1.34625 0.39592
 C229 C 0.01359 1.32114 0.31175
 N230 N 0.01237 1.27410 0.32596
 N231 N 0.00943 1.23925 0.29344
 C232 C 0.00753 1.25012 0.24541
 N233 N 0.00879 1.29717 0.23109
 N234 N 0.01176 1.33210 0.26367
 C235 C 0.00415 1.21156 0.20963
 N236 N 0.00186 1.22243 0.16161
 N237 N -0.00098 1.18756 0.12911
 C238 C -0.00169 1.14050 0.14330
 N239 N 0.00054 1.12954 0.19137
 N240 N 0.00337 1.16449 0.22394
 C241 C 0.02014 1.38449 -0.33525
 N242 N -0.01654 1.41688 -0.34220
 N243 N -0.01460 1.44925 -0.37838
 C244 C 0.02453 1.45100 -0.40818
 N245 N 0.06159 1.41939 -0.40024
 N246 N 0.05951 1.38689 -0.36446
 C247 C 0.01523 1.34382 -0.30106
 N248 N 0.04332 1.30380 -0.30647
 N249 N 0.03729 1.26526 -0.27792
 C250 C 0.00305 1.26538 -0.24269
 N251 N -0.02482 1.30555 -0.23692
 N252 N -0.01917 1.34395 -0.26590
 C253 C -0.00278 1.22319 -0.21062
 N254 N -0.02506 1.22774 -0.16710
 N255 N -0.02793 1.19019 -0.13672
 C256 C -0.00935 1.14651 -0.14898
 N257 N 0.01222 1.14168 -0.19289
 N258 N 0.01562 1.17945 -0.22309
 C259 C 0.01889 0.62955 -0.35601
 N260 N 0.01830 0.64220 -0.40352
 N261 N 0.01906 0.60873 -0.43745
 C262 C 0.02045 0.56093 -0.42581
 N263 N 0.02129 0.54835 -0.37793
 N264 N 0.02048 0.58195 -0.34369
 C265 C 0.01727 0.66743 -0.31933
 N266 N 0.01682 0.65655 -0.27120
 N267 N 0.01473 0.69158 -0.23859
 C268 C 0.01301 0.73864 -0.25294
 N269 N 0.01356 0.74942 -0.30102
 N270 N 0.01563 0.71447 -0.33356
 C271 C 0.01027 0.77730 -0.21715
 N272 N 0.00831 0.82434 -0.23153
 N273 N 0.00554 0.85936 -0.19897
 C274 C 0.00461 0.84852 -0.15084
 N275 N 0.00662 0.80149 -0.13657
 N276 N 0.00938 0.76654 -0.16907
 C277 C 0.02145 0.60397 0.32772
 N278 N -0.01563 0.57279 0.33457
 N279 N -0.01419 0.54034 0.37073
 C280 C 0.02485 0.53727 0.40059
 N281 N 0.06230 0.56767 0.39276
 N282 N 0.06071 0.60027 0.35700
 C283 C 0.01715 0.64477 0.29349
 N284 N 0.04528 0.68412 0.29927
 N285 N 0.03978 0.72278 0.27061
 C286 C 0.00609 0.72343 0.23488
 N287 N -0.02181 0.68392 0.22875
 N288 N -0.01672 0.64543 0.25785
 C289 C 0.00084 0.76568 0.20265
 N290 N -0.02039 0.76138 0.15865
 N291 N -0.02296 0.79895 0.12823
 C292 C -0.00513 0.84243 0.14090
 N293 N 0.01542 0.84704 0.18526
 N294 N 0.01855 0.80922 0.21551
   
