data_POSCAR
  _audit_creation_date              2014-09-24
  _audit_creation_method            'ToBaCCo'
  _symmetry_space_group_name_H-M    'P1'
  _symmetry_Int_Tables_number       1
  _symmetry_cell_setting            triclinic
  loop_
  _symmetry_equiv_pos_as_xyz
 x,y,z
_cell_length_a 45.2751
_cell_length_b 45.0771
_cell_length_c 45.1804
_cell_angle_alpha 89.924400
_cell_angle_beta 90.010200
_cell_angle_gamma 90.216200
loop_
  _atom_site_label
  _atom_site_type_symbol
  _atom_site_fract_x
  _atom_site_fract_y
  _atom_site_fract_z
N1 N 0.58931 0.67142 0.61207
 N2 N 0.57806 0.65951 0.63617
 C3 C 0.55447 0.67553 0.64473
 C4 C 0.55061 0.69833 0.62462
 C5 C 0.57299 0.69502 0.60415
 H6 H 0.54093 0.67091 0.66391
 H7 H 0.57734 0.70907 0.58522
 Cu8 Cu 0.59545 0.62408 0.65348
 Cu9 Cu 0.62497 0.65626 0.59338
 Cu10 Cu 0.65677 0.59382 0.62502
 N11 N 0.61284 0.58865 0.67077
 N12 N 0.63761 0.57776 0.66025
 C13 C 0.64590 0.55448 0.67695
 C14 C 0.62496 0.55032 0.69885
 C15 C 0.60420 0.57229 0.69424
 H16 H 0.66545 0.54128 0.67318
 H17 H 0.58466 0.57635 0.70739
 N18 N 0.67270 0.61336 0.58930
 N19 N 0.66105 0.63759 0.57777
 C20 C 0.67728 0.64600 0.55419
 C21 C 0.69987 0.62589 0.55051
 C22 C 0.69631 0.60543 0.57301
 H23 H 0.67279 0.66505 0.54036
 H24 H 0.71011 0.58637 0.57726
 H25 H 0.61955 0.61264 0.60662
 H26 H 0.64266 0.63688 0.63082
 N27 N 0.91085 0.32766 0.11213
 N28 N 0.92173 0.33893 0.13668
 C29 C 0.94522 0.32275 0.14521
 C30 C 0.94946 0.30047 0.12464
 C31 C 0.92735 0.30429 0.10388
 H32 H 0.95849 0.32701 0.16465
 H33 H 0.92326 0.29077 0.08453
 Cu34 Cu 0.90452 0.37412 0.15452
 Cu35 Cu 0.87544 0.34334 0.09338
 Cu36 Cu 0.84416 0.40581 0.12515
 N37 N 0.88747 0.40981 0.17149
 N38 N 0.86320 0.42141 0.16054
 C39 C 0.85534 0.44494 0.17705
 C40 C 0.87604 0.44847 0.19923
 C41 C 0.89619 0.42593 0.19504
 H42 H 0.83621 0.45867 0.17306
 H43 H 0.91544 0.42144 0.20847
 N44 N 0.82821 0.38675 0.08927
 N45 N 0.83959 0.36246 0.07770
 C46 C 0.82327 0.35434 0.05410
 C47 C 0.80091 0.37474 0.05044
 C48 C 0.80469 0.39503 0.07299
 H49 H 0.82750 0.33526 0.04027
 H50 H 0.79106 0.41419 0.07732
 H51 H 0.88146 0.38656 0.10740
 H52 H 0.85746 0.36235 0.13089
 N53 N 0.41036 0.17187 -0.11196
 N54 N 0.42158 0.16010 -0.13606
 C55 C 0.44529 0.17617 -0.14452
 C56 C 0.44923 0.19888 -0.12440
 C57 C 0.42679 0.19549 -0.10398
 H58 H 0.45886 0.17162 -0.16367
 H59 H 0.42249 0.20946 -0.08503
 Cu60 Cu 0.40419 0.12469 -0.15349
 Cu61 Cu 0.37465 0.15647 -0.09331
 Cu62 Cu 0.34308 0.09369 -0.12475
 N63 N 0.38683 0.08911 -0.17064
 N64 N 0.36224 0.07779 -0.15991
 C65 C 0.35409 0.05436 -0.17649
 C66 C 0.37490 0.05059 -0.19848
 C67 C 0.39545 0.07289 -0.19412
 H68 H 0.33467 0.04084 -0.17266
 H69 H 0.41487 0.07719 -0.20739
 N70 N 0.32707 0.11307 -0.08912
 N71 N 0.33853 0.13751 -0.07773
 C72 C 0.32214 0.14584 -0.05431
 C73 C 0.29964 0.12543 -0.05058
 C74 C 0.30343 0.10492 -0.07289
 H75 H 0.32642 0.16505 -0.04063
 H76 H 0.28972 0.08569 -0.07710
 H77 H 0.38032 0.11301 -0.10653
 H78 H 0.35700 0.13698 -0.13072
 N79 N 0.09099 0.82576 0.38555
 N80 N 0.07656 0.84078 0.36521
 C81 C 0.05153 0.82606 0.35830
 C82 C 0.05055 0.80027 0.37492
 C83 C 0.07599 0.80071 0.39186
 H84 H 0.03556 0.83312 0.34196
 H85 H 0.08263 0.78446 0.40818
 Cu86 Cu 0.09347 0.87697 0.34881
 Cu87 Cu 0.12699 0.84086 0.40411
 Cu88 Cu 0.15588 0.90643 0.37544
 N89 N 0.11051 0.91254 0.33122
 N90 N 0.13568 0.92321 0.34120
 C91 C 0.14401 0.94636 0.32429
 C92 C 0.12278 0.95058 0.30277
 C93 C 0.10176 0.92883 0.30779
 H94 H 0.16401 0.95919 0.32738
 H95 H 0.08207 0.92480 0.29484
 N96 N 0.17299 0.88587 0.40993
 N97 N 0.16286 0.86023 0.41996
 C98 C 0.17953 0.85166 0.44313
 C99 C 0.20081 0.87310 0.44808
 C100 C 0.19604 0.89448 0.42674
 H101 H 0.17602 0.83174 0.45604
 H102 H 0.20852 0.91476 0.42375
 H103 H 0.12006 0.88518 0.39487
 H104 H 0.14207 0.86357 0.36754
 C105 C 0.10215 0.14809 0.12553
 C106 C 0.12393 0.14778 0.10343
 C107 C 0.14583 0.12581 0.10327
 C108 C 0.14568 0.10391 0.12541
 C109 C 0.12396 0.10389 0.14759
 C110 C 0.10233 0.12613 0.14757
 H111 H 0.12384 0.16470 0.08636
 H112 H 0.16248 0.08685 0.12535
 H113 H 0.08553 0.12630 0.16466
 C114 C 0.39748 0.85268 0.62528
 C115 C 0.39733 0.87480 0.64713
 C116 C 0.37556 0.89692 0.64710
 C117 C 0.35378 0.89673 0.62497
 C118 C 0.35359 0.87471 0.60303
 C119 C 0.37553 0.85278 0.60331
 H120 H 0.41418 0.87482 0.66416
 H121 H 0.33693 0.91374 0.62485
 H122 H 0.37552 0.83573 0.58642
 C123 C 0.89760 0.64723 0.37459
 C124 C 0.87389 0.64891 0.39451
 C125 C 0.85239 0.62638 0.39538
 C126 C 0.85386 0.60307 0.37486
 C127 C 0.87699 0.60161 0.35422
 C128 C 0.89931 0.62332 0.35482
 H129 H 0.87294 0.66709 0.41015
 H130 H 0.83694 0.58600 0.37495
 H131 H 0.91736 0.62235 0.33910
 C132 C 0.60317 0.35345 -0.12563
 C133 C 0.62533 0.35345 -0.10388
 C134 C 0.64738 0.37543 -0.10374
 C135 C 0.64716 0.39752 -0.12569
 C136 C 0.62513 0.39779 -0.14755
 C137 C 0.60319 0.37571 -0.14739
 H138 H 0.62539 0.33632 -0.08703
 H139 H 0.66412 0.41455 -0.12574
 H140 H 0.58616 0.37584 -0.16424
 C141 C 0.01375 0.23641 0.12518
 N142 N -0.00452 0.23945 0.10156
 N143 N -0.02550 0.26009 0.10147
 C144 C -0.02872 0.27874 0.12483
 N145 N -0.01028 0.27581 0.14837
 N146 N 0.01044 0.25490 0.14862
 C147 C 0.03673 0.21355 0.12531
 N148 N 0.04814 0.20347 0.15121
 N149 N 0.06883 0.18252 0.15130
 C150 C 0.07916 0.17119 0.12548
 N151 N 0.06787 0.18143 0.09958
 N152 N 0.04689 0.20208 0.09950
 C153 C 0.48560 0.76395 0.62523
 N154 N 0.50077 0.75778 0.60008
 N155 N 0.52158 0.73697 0.59996
 C156 C 0.52772 0.72132 0.62488
 N157 N 0.51244 0.72735 0.65000
 N158 N 0.49186 0.74842 0.65022
 C159 C 0.46276 0.78698 0.62532
 N160 N 0.45340 0.79912 0.65112
 N161 N 0.43278 0.82014 0.65111
 C162 C 0.42051 0.82955 0.62533
 N163 N 0.42980 0.81725 0.59955
 N164 N 0.45066 0.79649 0.59953
 C165 C 0.98601 0.73599 0.37452
 N166 N 0.98156 0.76234 0.36067
 N167 N 1.00260 0.78309 0.36053
 C168 C 1.02864 0.77848 0.37474
 N169 N 1.03292 0.75220 0.38884
 N170 N 1.01211 0.73124 0.38848
 C171 C 0.96304 0.71299 0.37440
 N172 N 0.97047 0.68385 0.37420
 N173 N 0.94963 0.66291 0.37397
 C174 C 0.92061 0.67037 0.37449
 N175 N 0.91318 0.69953 0.37495
 N176 N 0.93403 0.72047 0.37464
 C177 C 0.51464 0.26454 -0.12514
 N178 N 0.50824 0.24905 -0.15010
 N179 N 0.48753 0.22797 -0.14983
 C180 C 0.47225 0.22189 -0.12468
 N181 N 0.47852 0.23750 -0.09978
 N182 N 0.49947 0.25832 -0.09996
 C183 C 0.53759 0.28760 -0.12532
 N184 N 0.54983 0.29710 -0.09959
 N185 N 0.57078 0.31792 -0.09972
 C186 C 0.58004 0.33027 -0.12555
 N187 N 0.56763 0.32087 -0.15128
 N188 N 0.54692 0.29980 -0.15118
 C189 C 0.12330 0.01495 0.23610
 N190 N 0.09790 0.00059 0.24339
 N191 N 0.09776 -0.02011 0.26447
 C192 C 0.12295 -0.02693 0.27925
 N193 N 0.14832 -0.01250 0.27203
 N194 N 0.14852 0.00795 0.25072
 C195 C 0.12345 0.03785 0.21299
 N196 N 0.14921 0.04683 0.20044
 N197 N 0.14937 0.06770 0.17953
 C198 C 0.12380 0.08063 0.17064
 N199 N 0.09805 0.07170 0.18333
 N200 N 0.09786 0.05060 0.20400
 C201 C 0.62495 0.48652 -0.23616
 N202 N 0.64878 0.49023 -0.25402
 N203 N 0.64869 0.51078 -0.27523
 C204 C 0.62493 0.52868 -0.27910
 N205 N 0.60117 0.52509 -0.26106
 N206 N 0.60110 0.50425 -0.24012
 C207 C 0.62498 0.46365 -0.21303
 N208 N 0.59918 0.45301 -0.20190
 N209 N 0.59922 0.43195 -0.18118
 C210 C 0.62507 0.42105 -0.17054
 N211 N 0.65086 0.43189 -0.18153
 N212 N 0.65081 0.45266 -0.20253
 C213 C 0.37524 0.98564 0.73558
 N214 N 0.40040 1.00051 0.74262
 N215 N 0.40026 1.02136 0.76350
 C216 C 0.37503 1.02782 0.77834
 N217 N 0.34990 1.01285 0.77141
 N218 N 0.34996 0.99225 0.75029
 C219 C 0.37535 0.96273 0.71255
 N220 N 0.34970 0.95352 0.69996
 N221 N 0.34979 0.93273 0.67903
 C222 C 0.37551 0.92012 0.67015
 N223 N 0.40115 0.92927 0.68288
 N224 N 0.40109 0.95029 0.70358
 C225 C 0.87691 0.51304 0.26555
 N226 N 0.85175 0.50702 0.25031
 N227 N 0.85153 0.48658 0.22904
 C228 C 0.87638 0.47118 0.22248
 N229 N 0.90151 0.47709 0.23782
 N230 N 0.90181 0.49777 0.25886
 C231 C 0.87710 0.53570 0.28884
 N232 N 0.90291 0.54755 0.29866
 N233 N 0.90295 0.56845 0.31950
 C234 C 0.87720 0.57801 0.33155
 N235 N 0.85143 0.56596 0.32182
 N236 N 0.85137 0.54531 0.30078
 C237 C 0.23421 0.12556 0.01470
 N238 N 0.24066 0.10031 -0.00029
 N239 N 0.26139 0.10032 -0.02122
 C240 C 0.27666 0.12548 -0.02766
 N241 N 0.27035 0.15068 -0.01256
 N242 N 0.24937 0.15076 0.00813
 C243 C 0.21125 0.12561 0.03762
 N244 N 0.19903 0.15148 0.04677
 N245 N 0.17809 0.15152 0.06749
 C246 C 0.16882 0.12573 0.08007
 N247 N 0.18119 0.09988 0.07099
 N248 N 0.20189 0.09981 0.05003
 C249 C 0.76438 0.62642 0.48433
 N250 N 0.74907 0.65142 0.49076
 N251 N 0.72843 0.65121 0.51178
 C252 C 0.72261 0.62609 0.52736
 N253 N 0.73805 0.60113 0.52106
 N254 N 0.75845 0.60125 0.49981
 C255 C 0.78695 0.62654 0.46102
 N256 N 0.79658 0.60067 0.44920
 N257 N 0.81710 0.60071 0.42808
 C258 C 0.82898 0.62660 0.41816
 N259 N 0.81942 0.65248 0.43012
 N260 N 0.79865 0.65246 0.45102
 C261 C 0.73578 0.37509 -0.01516
 N262 N 0.74231 0.40022 0.00007
 N263 N 0.76294 0.40006 0.02111
 C264 C 0.77803 0.37487 0.02741
 N265 N 0.77163 0.34979 0.01206
 N266 N 0.75075 0.34986 -0.00873
 C267 C 0.71290 0.37519 -0.03817
 N268 N 0.70055 0.34938 -0.04756
 N269 N 0.67963 0.34947 -0.06830
 C270 C 0.67052 0.37535 -0.08069
 N271 N 0.68303 0.40114 -0.07139
 N272 N 0.70371 0.40108 -0.05041
 C273 C 0.26515 0.87399 0.51446
 N274 N 0.25799 0.89931 0.49986
 N275 N 0.23757 0.89900 0.47863
 C276 C 0.22335 0.87343 0.47145
 N277 N 0.23035 0.84816 0.48620
 N278 N 0.25100 0.84841 0.50721
 C279 C 0.28799 0.87421 0.53752
 N280 N 0.30067 0.84851 0.54656
 N281 N 0.32162 0.84870 0.56726
 C282 C 0.33048 0.87455 0.57992
 N283 N 0.31764 0.90024 0.57097
 N284 N 0.29691 0.90009 0.55004
   
