data_POSCAR
  _audit_creation_date              2014-09-24
  _audit_creation_method            'ToBaCCo'
  _symmetry_space_group_name_H-M    'P1'
  _symmetry_Int_Tables_number       1
  _symmetry_cell_setting            triclinic
  loop_
  _symmetry_equiv_pos_as_xyz
 x,y,z
_cell_length_a 35.7919
_cell_length_b 35.9572
_cell_length_c 8.5160
_cell_angle_alpha 90.295900
_cell_angle_beta 90.065700
_cell_angle_gamma 90.011200
loop_
  _atom_site_label
  _atom_site_type_symbol
  _atom_site_fract_x
  _atom_site_fract_y
  _atom_site_fract_z
O1 O 0.22523 0.28197 -0.00211
 O2 O 0.29479 0.20974 0.08175
 O3 O 0.22305 0.21007 0.02149
 O4 O 0.29569 0.28238 0.07311
 O5 O 0.28254 0.28582 0.32565
 O6 O 0.21136 0.21355 0.27498
 O7 O 0.28262 0.21367 0.33499
 O8 O 0.21208 0.28573 0.25035
 Cu9 Cu 0.26117 0.24558 0.01887
 Cu10 Cu 0.24574 0.25004 0.32111
 C11 C 0.20660 0.29619 0.10980
 C12 C 0.30086 0.19938 0.22163
 C13 C 0.20460 0.19948 0.14093
 C14 C 0.30140 0.29653 0.20828
 O15 O 0.79571 0.28336 0.42573
 O16 O 0.72310 0.21123 0.47871
 O17 O 0.79480 0.21069 0.41834
 O18 O 0.72527 0.28322 0.50098
 O19 O 0.71199 0.28620 0.24848
 O20 O 0.78251 0.21382 0.16505
 O21 O 0.71127 0.21392 0.22519
 O22 O 0.78244 0.28602 0.17314
 Cu23 Cu 0.76121 0.24676 0.48061
 Cu24 Cu 0.74562 0.25026 0.17837
 C25 C 0.80137 0.29708 0.29039
 C26 C 0.70458 0.20026 0.35941
 C27 C 0.80079 0.19988 0.27861
 C28 C 0.70657 0.29709 0.38891
 O29 O 0.71948 0.78057 0.58473
 O30 O 0.78989 0.71003 0.69135
 O31 O 0.71890 0.70904 0.62453
 O32 O 0.79085 0.78146 0.63777
 O33 O 0.77999 0.79031 0.88977
 O34 O 0.70703 0.71754 0.87621
 O35 O 0.77801 0.71915 0.94262
 O36 O 0.70826 0.78944 0.83669
 Cu37 Cu 0.75606 0.74425 0.60987
 Cu38 Cu 0.74208 0.75510 0.91115
 C39 C 0.70182 0.79718 0.69398
 C40 C 0.79595 0.70246 0.83488
 C41 C 0.70052 0.70089 0.74692
 C42 C 0.79784 0.79850 0.76539
 O43 O 0.28953 0.78240 0.86269
 O44 O 0.21801 0.70955 0.87632
 O45 O 0.28892 0.71086 0.80895
 O46 O 0.21810 0.78124 0.91592
 O47 O 0.20652 0.78929 0.66429
 O48 O 0.27691 0.71947 0.55775
 O49 O 0.20597 0.71730 0.62459
 O50 O 0.27808 0.79087 0.61088
 Cu51 Cu 0.25494 0.74506 0.89065
 Cu52 Cu 0.24061 0.75513 0.58958
 C53 C 0.29601 0.79929 0.73519
 C54 C 0.19966 0.70091 0.75388
 C55 C 0.29499 0.70308 0.66536
 C56 C 0.20011 0.79748 0.80698
 O57 O 0.95823 -0.02785 -0.20707
 O58 O 1.03277 0.04329 -0.19401
 O59 O 1.03003 -0.02780 -0.25135
 O60 O 0.96015 0.04382 -0.15983
 O61 O 0.96700 0.03428 0.09403
 O62 O 1.03722 -0.03783 0.00203
 O63 O 1.03929 0.03337 0.05981
 O64 O 0.96521 -0.03707 0.04711
 Cu65 Cu 0.99447 0.00903 -0.22765
 Cu66 Cu 1.00305 -0.00288 0.07531
 C67 C 0.94900 -0.04458 -0.08172
 C68 C 1.04882 0.05040 -0.06402
 C69 C 1.04561 -0.04521 -0.13970
 C70 C 0.95136 0.05130 -0.01892
 O71 O 0.53779 0.45739 0.58099
 O72 O 0.46543 0.52556 0.68391
 O73 O 0.46517 0.45555 0.60255
 O74 O 0.53760 0.52781 0.65363
 O75 O 0.53225 0.54163 0.40254
 O76 O 0.46011 0.47008 0.35212
 O77 O 0.45986 0.54020 0.43384
 O78 O 0.53240 0.47137 0.33014
 Cu79 Cu 0.50202 0.49002 0.65509
 Cu80 Cu 0.49551 0.50739 0.35490
 C81 C 0.54757 0.45259 0.43908
 C82 C 0.45035 0.54477 0.57648
 C83 C 0.45042 0.45035 0.46830
 C84 C 0.54736 0.54702 0.53564
 O85 O -0.03959 0.53964 0.06549
 O86 O 0.03291 0.47093 0.16840
 O87 O 0.03280 0.54109 0.09708
 O88 O -0.03940 0.46971 0.14663
 O89 O -0.03448 0.45466 -0.10391
 O90 O 0.03800 0.52680 -0.15416
 O91 O 0.03817 0.45645 -0.08257
 O92 O -0.03416 0.52450 -0.18472
 Cu93 Cu -0.00394 0.50695 0.14421
 Cu94 Cu 0.00240 0.48899 -0.15622
 C95 C -0.04916 0.54393 -0.07714
 C96 C 0.04800 0.45192 0.05933
 C97 C 0.04782 0.54624 -0.03599
 C98 C -0.04919 0.44977 0.03030
 O99 O 0.53956 1.03415 0.44125
 O100 O 0.46599 0.96327 0.45401
 O101 O 0.46725 1.03457 0.40782
 O102 O 0.53794 0.96311 0.49892
 O103 O 0.53077 0.97359 0.75239
 O104 O 0.46056 1.04476 0.66169
 O105 O 0.45889 0.97317 0.70796
 O106 O 0.53322 1.04456 0.69519
 Cu107 Cu 0.50353 0.99768 0.42586
 Cu108 Cu 0.49505 1.01023 0.72899
 C109 C 0.54912 1.05148 0.56514
 C110 C 0.44979 0.95601 0.58262
 C111 C 0.45164 1.05183 0.52078
 C112 C 0.54642 0.95606 0.64063
 C113 C 1.15822 0.15903 0.26172
 C114 C 1.17647 0.17234 0.12645
 C115 C 1.16557 0.15825 -0.02171
 C116 C 1.13673 0.13181 -0.03402
 C117 C 1.11910 0.11867 0.10332
 C118 C 1.13009 0.13237 0.25026
 C119 C 1.09059 0.09211 0.09201
 C120 C 1.07882 0.07866 -0.05513
 C121 C 1.09610 0.09220 -0.19162
 C122 C 1.12496 0.11840 -0.18113
 H123 H 1.17901 0.16818 -0.12759
 H124 H 1.11678 0.12260 0.35665
 H125 H 1.07732 0.08216 0.19823
 H126 H 1.13800 0.12822 -0.28798
 H127 H 1.16575 0.16902 0.37776
 H128 H 1.08758 0.08223 -0.30642
 C129 C 0.65501 0.65693 0.87295
 C130 C 0.67131 0.67183 0.73690
 C131 C 0.65958 0.65873 0.58907
 C132 C 0.63203 0.63122 0.57664
 C133 C 0.61603 0.61607 0.71384
 C134 C 0.62771 0.62915 0.86155
 C135 C 0.58856 0.58828 0.70059
 C136 C 0.57659 0.57589 0.55170
 C137 C 0.59263 0.59147 0.41646
 C138 C 0.62017 0.61873 0.42877
 H139 H 0.67168 0.67013 0.48303
 H140 H 0.61572 0.61796 0.96813
 H141 H 0.57626 0.57665 0.80575
 H142 H 0.63213 0.63012 0.32247
 H143 H 0.66359 0.66652 0.98824
 H144 H 0.58404 0.58239 0.30044
 C145 C -0.15291 0.34344 0.39880
 C146 C -0.16985 0.32617 0.26848
 C147 C -0.15924 0.33701 0.11629
 C148 C -0.13214 0.36468 0.09441
 C149 C -0.11560 0.38211 0.22630
 C150 C -0.12613 0.37127 0.37793
 C151 C -0.08874 0.41002 0.20439
 C152 C -0.07779 0.42052 0.05221
 C153 C -0.09420 0.40273 -0.07808
 C154 C -0.12125 0.37517 -0.05722
 H155 H -0.17190 0.32378 0.01464
 H156 H -0.11365 0.38428 0.48039
 H157 H -0.07613 0.42331 0.30602
 H158 H -0.13360 0.36203 -0.15968
 H159 H -0.16058 0.33567 0.51716
 H160 H -0.08630 0.41030 -0.19643
 C161 C 0.33960 0.84288 0.87403
 C162 C 0.32461 0.82902 0.73255
 C163 C 0.33722 0.84371 0.58943
 C164 C 0.36465 0.87161 0.58754
 C165 C 0.37938 0.88543 0.73056
 C166 C 0.36660 0.87092 0.87310
 C167 C 0.40684 0.91332 0.72867
 C168 C 0.42020 0.92726 0.58542
 C169 C 0.40542 0.91319 0.44391
 C170 C 0.37780 0.88576 0.44494
 H171 H 0.32603 0.83317 0.47950
 H172 H 0.37759 0.88112 0.98387
 H173 H 0.41813 0.92376 0.83856
 H174 H 0.36688 0.87549 0.33416
 H175 H 0.33031 0.83217 0.98603
 H176 H 0.41512 0.92350 0.33186
 C177 C -0.16727 0.66718 0.03547
 C178 C -0.17597 0.67396 -0.12297
 C179 C -0.15775 0.65323 -0.24056
 C180 C -0.13124 0.62612 -0.20062
 C181 C -0.12263 0.61966 -0.04102
 C182 C -0.14082 0.64033 0.07605
 C183 C -0.09595 0.59271 -0.00116
 C184 C -0.07774 0.57197 -0.11882
 C185 C -0.08673 0.57852 -0.27718
 C186 C -0.11319 0.60535 -0.31769
 H187 H -0.16423 0.65806 -0.36317
 H188 H -0.13460 0.63573 0.19901
 H189 H -0.08937 0.58795 0.12141
 H190 H -0.11946 0.60991 -0.44064
 H191 H -0.18086 0.68272 0.12849
 H192 H -0.07313 0.56301 -0.37029
 C193 C 0.34776 1.15283 0.12565
 C194 C 0.32955 1.17061 0.25178
 C195 C 0.33931 1.16098 0.40625
 C196 C 0.36696 1.13415 0.43443
 C197 C 0.38505 1.11648 0.30673
 C198 C 0.37518 1.12599 0.15283
 C199 C 0.41272 1.08964 0.33506
 C200 C 0.42267 1.08028 0.48967
 C201 C 0.40449 1.09816 0.61564
 C202 C 0.37690 1.12478 0.58833
 H203 H 0.32561 1.17450 0.50463
 H204 H 0.38873 1.11276 0.05344
 H205 H 0.42648 1.07613 0.23681
 H206 H 0.36337 1.13805 0.68767
 H207 H 0.34081 1.15966 0.00539
 H208 H 0.41151 1.09150 0.73601
 C209 C 1.16501 -0.16574 -0.00000
 C210 C 1.17315 -0.17534 -0.15694
 C211 C 1.15383 -0.15695 -0.27837
 C212 C 1.12717 -0.12955 -0.24422
 C213 C 1.11929 -0.12022 -0.08644
 C214 C 1.13832 -0.13851 0.03476
 C215 C 1.09258 -0.09272 -0.05269
 C216 C 1.07372 -0.07430 -0.17491
 C217 C 1.08191 -0.08386 -0.33142
 C218 C 1.10834 -0.11124 -0.36574
 H219 H 1.15953 -0.16373 -0.40026
 H220 H 1.13263 -0.13170 0.15652
 H221 H 1.08661 -0.08563 0.06860
 H222 H 1.11408 -0.11806 -0.48747
 H223 H 1.17923 -0.17924 0.09652
 H224 H 1.06783 -0.07019 -0.42782
 C225 C 0.66958 0.33545 0.57897
 C226 C 0.67814 0.32594 0.42271
 C227 C 0.65915 0.34398 0.29985
 C228 C 0.63192 0.37103 0.33278
 C229 C 0.62343 0.38005 0.49044
 C230 C 0.64245 0.36219 0.61252
 C231 C 0.59598 0.40673 0.52378
 C232 C 0.57682 0.42481 0.40173
 C233 C 0.58568 0.41589 0.24517
 C234 C 0.61294 0.38919 0.21098
 H235 H 0.66553 0.33703 0.17880
 H236 H 0.63630 0.36883 0.73406
 H237 H 0.58960 0.41338 0.64513
 H238 H 0.61912 0.38268 0.08935
 H239 H 0.68370 0.32202 0.67587
 H240 H 0.57135 0.42938 0.14896
 C241 C 0.84314 -0.16255 -0.37187
 C242 C 0.82531 -0.17355 -0.23189
 C243 C 0.83560 -0.15596 -0.08996
 C244 C 0.86330 -0.12831 -0.08780
 C245 C 0.88056 -0.11737 -0.22946
 C246 C 0.87023 -0.13462 -0.37070
 C247 C 0.90812 -0.08959 -0.22739
 C248 C 0.91925 -0.07310 -0.08490
 C249 C 0.90213 -0.08443 0.05552
 C250 C 0.87423 -0.11160 0.05400
 H251 H 0.82248 -0.16402 0.01944
 H252 H 0.88324 -0.12665 -0.48037
 H253 H 0.92135 -0.08131 -0.33624
 H254 H 0.86141 -0.11970 0.16388
 H255 H 0.83600 -0.17530 -0.48347
 H256 H 0.91014 -0.07209 0.16686
 C257 C 0.34695 0.34271 0.09963
 C258 C 0.33013 0.32573 0.22998
 C259 C 0.34076 0.33701 0.38214
 C260 C 0.36775 0.36484 0.40399
 C261 C 0.38418 0.38199 0.27210
 C262 C 0.37364 0.37069 0.12047
 C263 C 0.41094 0.41006 0.29402
 C264 C 0.42189 0.42098 0.44623
 C265 C 0.40560 0.40347 0.57651
 C266 C 0.37865 0.37576 0.55562
 H267 H 0.32819 0.32401 0.48382
 H268 H 0.38603 0.38349 0.01800
 H269 H 0.42347 0.42313 0.19243
 H270 H 0.36638 0.36284 0.65807
 H271 H 0.33925 0.33460 -0.01871
 H272 H 0.41350 0.41137 0.69487
 C273 C 0.15436 0.65640 -0.37236
 C274 C 0.17072 0.67160 -0.23623
 C275 C 0.15933 0.65854 -0.08852
 C276 C 0.13202 0.63082 -0.07631
 C277 C 0.11593 0.61541 -0.21362
 C278 C 0.12730 0.62841 -0.36120
 C279 C 0.08866 0.58745 -0.20061
 C280 C 0.07697 0.57516 -0.05183
 C281 C 0.09312 0.59098 0.08352
 C282 C 0.12047 0.61840 0.07144
 H283 H 0.17150 0.67016 0.01759
 H284 H 0.11524 0.61702 -0.46785
 H285 H 0.07627 0.57564 -0.30585
 H286 H 0.13251 0.62999 0.17783
 H287 H 0.16268 0.66593 -0.48757
 H288 H 0.08474 0.58198 0.19946
 C289 C 0.65811 1.15948 0.23899
 C290 C 0.67645 1.17317 0.37416
 C291 C 0.66565 1.15948 0.52241
 C292 C 0.63683 1.13304 0.53488
 C293 C 0.61913 1.11952 0.39762
 C294 C 0.63000 1.13284 0.25062
 C295 C 0.59066 1.09295 0.40906
 C296 C 0.57903 1.07983 0.55623
 C297 C 0.59637 1.09375 0.69266
 C298 C 0.62518 1.11998 0.68205
 H299 H 0.67915 1.16970 0.62821
 H300 H 0.61663 1.12279 0.14429
 H301 H 0.57735 1.08270 0.30287
 H302 H 0.63827 1.13009 0.78885
 H303 H 0.66555 1.16916 0.12289
 H304 H 0.58795 1.08405 0.80749
 C305 C 0.16959 0.33411 -0.08050
 C306 C 0.17821 0.32498 0.07579
 C307 C 0.15933 0.34338 0.19858
 C308 C 0.13215 0.37041 0.16559
 C309 C 0.12361 0.37906 0.00791
 C310 C 0.14252 0.36083 -0.11413
 C311 C 0.09623 0.40573 -0.02545
 C312 C 0.07718 0.42415 0.09660
 C313 C 0.08609 0.41560 0.25317
 C314 C 0.11329 0.38891 0.28738
 H315 H 0.16574 0.33672 0.31966
 H316 H 0.13633 0.36719 -0.23568
 H317 H 0.08980 0.41211 -0.14681
 H318 H 0.11951 0.38268 0.40902
 H319 H 0.18364 0.32040 -0.17735
 H320 H 0.07185 0.42936 0.34938
 C321 C 0.66488 0.83452 0.49956
 C322 C 0.67356 0.82586 0.65623
 C323 C 0.65505 0.84494 0.77805
 C324 C 0.62835 0.87226 0.74435
 C325 C 0.61980 0.88075 0.58655
 C326 C 0.63821 0.86171 0.46500
 C327 C 0.59301 0.90812 0.55316
 C328 C 0.57468 0.92720 0.67562
 C329 C 0.58353 0.91847 0.83208
 C330 C 0.61009 0.89126 0.86612
 H331 H 0.66144 0.83864 0.89952
 H332 H 0.63202 0.86786 0.34328
 H333 H 0.58652 0.91454 0.43192
 H334 H 0.61634 0.88508 0.98778
 H335 H 0.67870 0.82027 0.40352
 H336 H 0.56987 0.93268 0.92865
 C337 C 0.84762 0.15350 0.37520
 C338 C 0.82947 0.17100 0.24885
 C339 C 0.83926 0.16099 0.09451
 C340 C 0.86688 0.13406 0.06668
 C341 C 0.88491 0.11664 0.19458
 C342 C 0.87501 0.12654 0.34836
 C343 C 0.91254 0.08968 0.16657
 C344 C 0.92249 0.07993 0.01205
 C345 C 0.90438 0.09757 -0.11410
 C346 C 0.87685 0.12432 -0.08709
 H347 H 0.82561 0.17431 -0.00404
 H348 H 0.88851 0.11352 0.44793
 H349 H 0.92624 0.07635 0.26495
 H350 H 0.86337 0.13739 -0.18659
 H351 H 0.84065 0.16061 0.49537
 H352 H 0.91140 0.09063 -0.23440
 C353 C 0.33197 0.66764 0.46460
 C354 C 0.32323 0.67465 0.62304
 C355 C 0.34152 0.65415 0.74050
 C356 C 0.36811 0.62705 0.70041
 C357 C 0.37675 0.62036 0.54081
 C358 C 0.35850 0.64080 0.42387
 C359 C 0.40349 0.59339 0.50079
 C360 C 0.42173 0.57287 0.61832
 C361 C 0.41274 0.57966 0.77668
 C362 C 0.38622 0.60651 0.81734
 H363 H 0.33502 0.65915 0.86311
 H364 H 0.36474 0.63603 0.30090
 H365 H 0.41007 0.58845 0.37822
 H366 H 0.37994 0.61125 0.94029
 H367 H 0.31832 0.68299 0.37167
 H368 H 0.42636 0.56433 0.86969
   
