data_POSCAR
  _audit_creation_date              2014-09-24
  _audit_creation_method            'ToBaCCo'
  _symmetry_space_group_name_H-M    'P1'
  _symmetry_Int_Tables_number       1
  _symmetry_cell_setting            triclinic
  loop_
  _symmetry_equiv_pos_as_xyz
 x,y,z
_cell_length_a 58.5309
_cell_length_b 57.7186
_cell_length_c 24.1998
_cell_angle_alpha 89.519000
_cell_angle_beta 89.895000
_cell_angle_gamma 118.718500
loop_
  _atom_site_label
  _atom_site_type_symbol
  _atom_site_fract_x
  _atom_site_fract_y
  _atom_site_fract_z
C1 C 0.16499 0.46118 0.54980
 C2 C 0.16659 0.46426 0.49347
 C3 C 0.18180 0.45344 0.47459
 N4 N 0.18986 0.44423 0.51778
 C5 C 0.17960 0.44898 0.56374
 C6 C 0.18781 0.45185 0.41831
 C7 C 0.20840 0.44671 0.40330
 C8 C 0.21105 0.43733 0.35233
 C9 C 0.23441 0.43710 0.35284
 C10 C 0.24524 0.44596 0.40433
 N11 N 0.22922 0.45161 0.43506
 C12 C 0.27018 0.45030 0.42026
 C13 C 0.27787 0.45245 0.47603
 C14 C 0.30288 0.45979 0.49375
 C15 C 0.30164 0.45746 0.55023
 C16 C 0.27590 0.44906 0.56538
 N17 N 0.26141 0.44572 0.51970
 C18 C 0.26562 0.44215 0.61984
 C19 C 0.23939 0.43494 0.63305
 C20 C 0.22697 0.42402 0.68306
 C21 C 0.20341 0.42385 0.68224
 C22 C 0.20212 0.43497 0.63221
 N23 N 0.22395 0.44144 0.60235
 C24 C 0.18273 0.44186 0.61809
 H25 H 0.15468 0.46766 0.57742
 H26 H 0.15789 0.47383 0.46939
 H27 H 0.22961 0.45331 0.56707
 H28 H 0.19761 0.43142 0.31807
 H29 H 0.24255 0.43118 0.31908
 H30 H 0.32018 0.46580 0.46864
 H31 H 0.31782 0.46094 0.57671
 H32 H 0.18932 0.41731 0.71571
 H33 H 0.23366 0.46125 0.47283
 H34 H 0.23436 0.41779 0.71776
 C35 C 0.54371 -0.16459 0.49332
 C36 C 0.54879 -0.16185 0.43764
 C37 C 0.56355 -0.17419 0.42686
 N38 N 0.56792 -0.18414 0.47403
 C39 C 0.55597 -0.17810 0.51495
 C40 C 0.57373 -0.17518 0.37461
 C41 C 0.58314 -0.19300 0.36320
 C42 C 0.59854 -0.19119 0.31809
 C43 C 0.60067 -0.21389 0.31819
 C44 C 0.58625 -0.22906 0.36306
 N45 N 0.57601 -0.21595 0.39085
 C46 C 0.58109 -0.25523 0.37498
 C47 C 0.57331 -0.26632 0.42882
 C48 C 0.56221 -0.29300 0.44238
 C49 C 0.55840 -0.29506 0.49849
 C50 C 0.56673 -0.26969 0.51728
 N51 N 0.57584 -0.25213 0.47481
 C52 C 0.56681 -0.26288 0.57311
 C53 C 0.56888 -0.23845 0.58868
 C54 C 0.57520 -0.22787 0.64112
 C55 C 0.57226 -0.20562 0.64081
 C56 C 0.56386 -0.20343 0.58833
 N57 N 0.56228 -0.22331 0.55653
 C58 C 0.55655 -0.18426 0.57167
 H59 H 0.53202 -0.15767 0.51514
 H60 H 0.54203 -0.15225 0.40832
 H61 H 0.55404 -0.22816 0.51739
 H62 H 0.60690 -0.17540 0.28765
 H63 H 0.61117 -0.21894 0.28797
 H64 H 0.55687 -0.30945 0.41483
 H65 H 0.54994 -0.31321 0.52254
 H66 H 0.57565 -0.19270 0.67555
 H67 H 0.56209 -0.22378 0.42226
 H68 H 0.58100 -0.23558 0.67614
 C69 C 1.14759 0.72776 0.48006
 C70 C 1.14771 0.72738 0.53668
 C71 C 1.17366 0.73916 0.55242
 N72 N 1.18936 0.74711 0.50759
 C73 C 1.17343 0.73988 0.46341
 C74 C 1.18247 0.73871 0.60647
 C75 C 1.20773 0.75805 0.62335
 C76 C 1.22056 0.75670 0.67049
 C77 C 1.24439 0.77925 0.67103
 C78 C 1.24572 0.79364 0.62382
 N79 N 1.22335 0.78061 0.59503
 C80 C 1.26736 0.81799 0.60753
 C81 C 1.27171 0.82557 0.55090
 C82 C 1.28751 0.85106 0.53125
 C83 C 1.28882 0.84942 0.47501
 C84 C 1.27350 0.82304 0.46193
 N85 N 1.26267 0.80847 0.50827
 C86 C 1.27061 0.81253 0.40811
 C87 C 1.24826 0.78860 0.39428
 C88 C 1.24599 0.77278 0.34936
 C89 C 1.22066 0.75268 0.34893
 C90 C 1.20842 0.75649 0.39421
 N91 N 1.22531 0.77832 0.42169
 C92 C 1.18212 0.74046 0.40902
 H93 H 1.13050 0.71918 0.45410
 H94 H 1.13071 0.71846 0.56336
 H95 H 1.22076 0.78707 0.45441
 H96 H 1.21391 0.74086 0.70075
 H97 H 1.25941 0.78401 0.70164
 H98 H 1.29725 0.86899 0.55503
 H99 H 1.29966 0.86579 0.44684
 H100 H 1.21235 0.73686 0.31925
 H101 H 1.21853 0.78766 0.55954
 H102 H 1.26100 0.77535 0.31996
 C103 C 0.85830 0.57703 0.53396
 C104 C 0.85484 0.57272 0.47825
 C105 C 0.82842 0.56228 0.46884
 N106 N 0.81553 0.55985 0.51681
 C107 C 0.83376 0.56850 0.55690
 C108 C 0.81628 0.55293 0.41747
 C109 C 0.79080 0.54822 0.40631
 C110 C 0.77591 0.53426 0.36156
 C111 C 0.75336 0.53613 0.36345
 C112 C 0.75517 0.55112 0.40933
 N113 N 0.77805 0.55843 0.43516
 C114 C 0.73671 0.55895 0.42502
 C115 C 0.73634 0.56812 0.47863
 C116 C 0.72212 0.58041 0.49446
 C117 C 0.72502 0.58362 0.55055
 C118 C 0.74062 0.57281 0.56715
 N119 N 0.74780 0.56364 0.52296
 C120 C 0.74559 0.56877 0.62270
 C121 C 0.76679 0.56438 0.63673
 C122 C 0.76884 0.55272 0.68557
 C123 C 0.79210 0.55234 0.68335
 C124 C 0.80371 0.56363 0.63310
 N125 N 0.78805 0.57072 0.60466
 C126 C 0.82802 0.56668 0.61423
 H127 H 0.87675 0.58515 0.55525
 H128 H 0.87000 0.57667 0.44809
 H129 H 0.79246 0.58100 0.56710
 H130 H 0.78087 0.52401 0.33049
 H131 H 0.73751 0.52750 0.33428
 H132 H 0.71061 0.58613 0.46842
 H133 H 0.71614 0.59233 0.57648
 H134 H 0.79919 0.54387 0.71454
 H135 H 0.78578 0.57199 0.46708
 H136 H 0.75474 0.54459 0.71888
 C137 C 0.40498 0.13564 0.46239
 C138 C 0.40794 0.13616 0.51856
 C139 C 0.41965 0.16254 0.53371
 N140 N 0.42322 0.17806 0.48904
 C141 C 0.41446 0.16161 0.44547
 C142 C 0.43019 0.17230 0.58630
 C143 C 0.43528 0.19782 0.60337
 C144 C 0.45189 0.21207 0.64581
 C145 C 0.45166 0.23574 0.64846
 C146 C 0.43494 0.23545 0.60755
 N147 N 0.42512 0.21228 0.58008
 C148 C 0.42947 0.25645 0.59570
 C149 C 0.42016 0.25880 0.54295
 C150 C 0.40866 0.27437 0.53065
 C151 C 0.40563 0.27375 0.47443
 C152 C 0.41486 0.25740 0.45434
 N153 N 0.42356 0.24807 0.49621
 C154 C 0.41800 0.25378 0.39779
 C155 C 0.42215 0.23308 0.37884
 C156 C 0.43165 0.23182 0.32698
 C157 C 0.43166 0.20800 0.32467
 C158 C 0.42217 0.19550 0.37515
 N159 N 0.41623 0.21080 0.40770
 C160 C 0.41843 0.17029 0.39013
 H161 H 0.39740 0.11829 0.43668
 H162 H 0.40303 0.11919 0.54505
 H163 H 0.40660 0.20545 0.44573
 H164 H 0.46366 0.20645 0.67120
 H165 H 0.46325 0.25169 0.67621
 H166 H 0.40345 0.28545 0.55913
 H167 H 0.39786 0.28438 0.45085
 H168 H 0.43805 0.20082 0.28996
 H169 H 0.41096 0.20598 0.54939
 H170 H 0.43805 0.24657 0.29430
 C171 C 0.69358 0.16788 0.46988
 C172 C 0.69403 0.16804 0.52660
 C173 C 0.71971 0.18419 0.54155
 N174 N 0.73497 0.19364 0.49607
 C175 C 0.71904 0.18375 0.45218
 C176 C 0.72899 0.18894 0.59629
 C177 C 0.75407 0.20946 0.60974
 C178 C 0.76626 0.21164 0.65994
 C179 C 0.78916 0.23514 0.65830
 C180 C 0.79030 0.24680 0.60721
 N181 N 0.76895 0.23088 0.57762
 C182 C 0.81016 0.27215 0.59013
 C183 C 0.81530 0.27924 0.53330
 C184 C 0.83052 0.30471 0.51265
 C185 C 0.83151 0.30274 0.45641
 C186 C 0.81633 0.27628 0.44425
 N187 N 0.80645 0.26190 0.49118
 C188 C 0.81233 0.26573 0.39054
 C189 C 0.79146 0.24064 0.37786
 C190 C 0.78860 0.22764 0.32831
 C191 C 0.76436 0.20567 0.32975
 C192 C 0.75325 0.20577 0.38034
 N193 N 0.76990 0.22706 0.40948
 C194 C 0.72752 0.18773 0.39654
 H195 H 0.67648 0.15716 0.44466
 H196 H 0.67737 0.15757 0.55370
 H197 H 0.76535 0.23375 0.44543
 H198 H 0.75929 0.19783 0.69437
 H199 H 0.80333 0.24282 0.69113
 H200 H 0.83972 0.32296 0.53546
 H201 H 0.84170 0.31900 0.42763
 H202 H 0.75572 0.19146 0.29698
 H203 H 0.76349 0.23592 0.54042
 H204 H 0.80225 0.23372 0.29407
 O205 O 0.98102 0.50907 -0.09720
 O206 O 1.02526 0.53299 0.11966
 O207 O 0.94633 0.48277 0.06222
 O208 O 1.03586 0.54782 -0.04731
 O209 O 0.97809 0.51411 0.10444
 O210 O 1.02729 0.51953 -0.10802
 O211 O 1.04313 0.55539 0.04613
 O212 O 0.96184 0.51026 -0.02262
 C213 C 0.96769 0.51730 -0.07160
 C214 C 1.03929 0.55461 0.09646
 C215 C 0.95431 0.50143 0.09555
 C216 C 1.03616 0.54310 -0.09623
 O217 O 1.01620 0.47328 -0.06570
 O218 O 0.97420 0.46569 0.10822
 O219 O 0.93547 0.46095 -0.03875
 O220 O 1.05488 0.51587 0.05993
 O221 O 1.02303 0.48765 0.11424
 O222 O 0.96953 0.45890 -0.06971
 O223 O 1.05117 0.50870 -0.04083
 O224 O 0.96229 0.45054 0.02637
 Co225 Co 0.99871 0.49144 -0.07604
 Co226 Co 0.99997 0.50002 0.10218
 Co227 Co 0.96407 0.48156 0.00104
 Co228 Co 1.04274 0.52937 0.00417
 O229 O 1.00292 0.50212 0.01220
 C230 C 1.04039 0.48551 -0.06003
 C231 C 0.96314 0.44638 0.07667
 C232 C 0.94552 0.45210 -0.07607
 C233 C 1.04650 0.49861 0.09860
 O234 O 0.48351 0.46314 -0.08804
 O235 O 0.46778 0.48285 0.09655
 O236 O 0.49497 0.44697 0.03165
 O237 O 0.45272 0.49623 -0.02240
 O238 O 0.49757 0.46721 0.10696
 O239 O 0.47113 0.49585 -0.09897
 O240 O 0.46624 0.51645 0.06790
 O241 O 0.51503 0.45864 -0.05983
 C242 C 0.49404 0.44919 -0.08497
 C243 C 0.45557 0.49517 0.09383
 C244 C 0.48815 0.44607 0.08047
 C245 C 0.45069 0.48913 -0.07121
 O246 O 0.52331 0.53435 -0.09316
 O247 O 0.53822 0.51867 0.09585
 O248 O 0.55376 0.50289 -0.01880
 O249 O 0.51125 0.55312 0.02326
 O250 O 0.50841 0.53452 0.10172
 O251 O 0.53572 0.50144 -0.09671
 O252 O 0.49170 0.53935 -0.06760
 O253 O 0.53989 0.48448 0.07358
 Co254 Co 0.50340 0.49879 -0.08542
 Co255 Co 0.50302 0.50072 0.09159
 Co256 Co 0.52351 0.47600 0.00636
 Co257 Co 0.48287 0.52354 0.00069
 O258 O 0.50320 0.49977 0.00329
 C259 C 0.51278 0.54835 -0.09273
 C260 C 0.55034 0.50623 0.09686
 C261 C 0.55602 0.50927 -0.06837
 C262 C 0.51778 0.55509 0.07241
 O263 O 0.54124 0.01436 -0.08144
 O264 O 0.50857 -0.02766 0.09456
 O265 O 0.53439 0.05328 0.04350
 O266 O 0.47851 -0.06852 -0.05016
 O267 O 0.53104 0.02147 0.10013
 O268 O 0.51216 -0.03335 -0.08268
 O269 O 0.51411 -0.03900 0.01351
 O270 O 0.53845 0.04921 -0.05768
 C271 C 0.55157 0.03893 -0.07706
 C272 C 0.51897 -0.03730 0.06373
 C273 C 0.54280 0.04517 0.08363
 C274 C 0.49665 -0.05792 -0.08820
 O275 O 0.47213 -0.02433 -0.11058
 O276 O 0.48698 0.02100 0.10281
 O277 O 0.48522 0.03262 -0.06422
 O278 O 0.46632 -0.05812 0.05013
 O279 O 0.46287 -0.02658 0.08692
 O280 O 0.50497 0.02303 -0.12398
 O281 O 0.45317 -0.04367 -0.03486
 O282 O 0.48411 0.04031 0.02920
 Co283 Co 0.50650 -0.00487 -0.09055
 Co284 Co 0.49740 -0.00315 0.08682
 Co285 Co 0.50979 0.04017 -0.01235
 Co286 Co 0.48421 -0.03955 -0.01156
 O287 O 0.49942 -0.00018 -0.00274
 C288 C 0.45145 -0.03842 -0.08410
 C289 C 0.47972 0.03551 0.07906
 C290 C 0.48988 0.03173 -0.11307
 C291 C 0.45426 -0.05070 0.08165
 C292 C 1.14376 0.46405 0.29362
 C293 C 1.13116 0.44755 0.33887
 C294 C 1.14558 0.44323 0.37965
 C295 C 1.17299 0.45546 0.37600
 C296 C 1.18538 0.47165 0.32946
 C297 C 1.17087 0.47595 0.28877
 C298 C 1.12877 0.46948 0.25363
 C299 C 1.11542 0.47392 0.22206
 C300 C 1.09836 0.47892 0.18719
 C301 C 1.07148 0.46442 0.19602
 C302 C 1.05464 0.47042 0.16604
 C303 C 1.06445 0.49109 0.12666
 C304 C 1.09149 0.50508 0.11676
 C305 C 1.10837 0.49907 0.14708
 H306 H 1.11014 0.43815 0.34289
 H307 H 1.13525 0.43004 0.41379
 H308 H 1.20642 0.48177 0.32552
 H309 H 1.18083 0.48890 0.25404
 H310 H 1.06354 0.44884 0.22704
 H311 H 1.03393 0.45915 0.17454
 H312 H 1.09962 0.52109 0.08674
 H313 H 1.12919 0.51047 0.14009
 C314 C 0.58043 0.69395 0.24924
 C315 C 0.59302 0.69537 0.29914
 C316 C 0.59430 0.71294 0.33991
 C317 C 0.58269 0.72918 0.33164
 C318 C 0.57137 0.72855 0.27983
 C319 C 0.57013 0.71097 0.23918
 C320 C 0.57500 0.67277 0.21178
 C321 C 0.56874 0.65382 0.18287
 C322 C 0.55934 0.62987 0.15188
 C323 C 0.55514 0.60671 0.17922
 C324 C 0.54238 0.58250 0.15249
 C325 C 0.53364 0.58112 0.09794
 C326 C 0.53897 0.60462 0.06975
 C327 C 0.55164 0.62889 0.09680
 H328 H 0.60102 0.68223 0.30737
 H329 H 0.60397 0.71351 0.37839
 H330 H 0.56193 0.74043 0.27195
 H331 H 0.56006 0.70979 0.20091
 H332 H 0.56086 0.60723 0.22195
 H333 H 0.53870 0.56475 0.17512
 H334 H 0.53248 0.60412 0.02767
 H335 H 0.55461 0.64671 0.07545
 C336 C 0.32997 -0.14787 0.28792
 C337 C 0.30381 -0.15859 0.27301
 C338 C 0.28420 -0.17150 0.31257
 C339 C 0.29045 -0.17395 0.36790
 C340 C 0.31698 -0.16279 0.38227
 C341 C 0.33652 -0.14993 0.34258
 C342 C 0.35017 -0.13358 0.24790
 C343 C 0.36737 -0.12067 0.21553
 C344 C 0.38821 -0.10382 0.17888
 C345 C 0.39620 -0.07679 0.17779
 C346 C 0.41737 -0.05971 0.14520
 C347 C 0.43091 -0.06943 0.11308
 C348 C 0.42245 -0.09673 0.11331
 C349 C 0.40118 -0.11386 0.14627
 H350 H 0.29856 -0.15670 0.23095
 H351 H 0.26414 -0.17898 0.30012
 H352 H 0.32266 -0.16463 0.42397
 H353 H 0.35675 -0.14154 0.35457
 H354 H 0.38631 -0.06883 0.20292
 H355 H 0.42337 -0.03880 0.14579
 H356 H 0.43255 -0.10471 0.08899
 H357 H 0.39514 -0.13479 0.14696
 C358 C 0.85727 0.53446 0.29370
 C359 C 0.84978 0.55371 0.28281
 C360 C 0.83638 0.55978 0.32307
 C361 C 0.83046 0.54665 0.37448
 C362 C 0.83791 0.52727 0.38497
 C363 C 0.85127 0.52123 0.34476
 C364 C 0.87219 0.52902 0.25379
 C365 C 0.88546 0.52458 0.22216
 C366 C 0.90236 0.51961 0.18697
 C367 C 0.92929 0.53557 0.19141
 C368 C 0.94613 0.52987 0.16077
 C369 C 0.93622 0.50807 0.12522
 C370 C 0.90909 0.49246 0.11993
 C371 C 0.89222 0.49818 0.15086
 H372 H 0.85450 0.56417 0.24352
 H373 H 0.83077 0.57479 0.31443
 H374 H 0.83337 0.51688 0.42433
 H375 H 0.85713 0.50641 0.35363
 H376 H 0.93731 0.55214 0.21940
 H377 H 0.96693 0.54232 0.16559
 H378 H 0.90094 0.47557 0.09283
 H379 H 0.87136 0.48566 0.14737
 C380 C 0.42629 0.31255 0.27832
 C381 C 0.44248 0.31951 0.32455
 C382 C 0.43931 0.30044 0.36392
 C383 C 0.41983 0.27415 0.35758
 C384 C 0.40326 0.26728 0.31162
 C385 C 0.40651 0.28646 0.27200
 C386 C 0.43100 0.33240 0.23711
 C387 C 0.43681 0.35037 0.20486
 C388 C 0.44590 0.37334 0.16990
 C389 C 0.44978 0.39707 0.19298
 C390 C 0.46271 0.42059 0.16286
 C391 C 0.47193 0.42069 0.10914
 C392 C 0.46680 0.39659 0.08505
 C393 C 0.45398 0.37301 0.11553
 H394 H 0.45788 0.33965 0.32967
 H395 H 0.45241 0.30603 0.39880
 H396 H 0.38817 0.24705 0.30610
 H397 H 0.39393 0.28089 0.23626
 H398 H 0.44380 0.39756 0.23516
 H399 H 0.46623 0.43883 0.18233
 H400 H 0.47366 0.39612 0.04368
 H401 H 0.45127 0.35474 0.09753
 C402 C 0.67180 0.14365 0.27224
 C403 C 0.67928 0.13050 0.31114
 C404 C 0.69771 0.14482 0.35127
 C405 C 0.70870 0.17241 0.35290
 C406 C 0.70150 0.18555 0.31318
 C407 C 0.68306 0.17120 0.27306
 C408 C 0.65156 0.12862 0.23357
 C409 C 0.63396 0.11519 0.20316
 C410 C 0.61221 0.09790 0.16988
 C411 C 0.60002 0.07077 0.18085
 C412 C 0.57775 0.05369 0.15198
 C413 C 0.56726 0.06350 0.11155
 C414 C 0.57998 0.09077 0.09973
 C415 C 0.60233 0.10792 0.12896
 H416 H 0.67057 0.10915 0.31092
 H417 H 0.70319 0.13444 0.38145
 H418 H 0.70987 0.20685 0.31393
 H419 H 0.67731 0.18153 0.24330
 H420 H 0.60749 0.06284 0.21250
 H421 H 0.56857 0.03279 0.16193
 H422 H 0.57239 0.09889 0.06878
 H423 H 0.61163 0.12895 0.12034
 C424 C 0.45075 0.12386 -0.31660
 C425 C 0.43831 0.13668 -0.29178
 C426 C 0.43202 0.15325 -0.32327
 C427 C 0.43788 0.15698 -0.38023
 C428 C 0.45117 0.14451 -0.40401
 C429 C 0.45743 0.12807 -0.37252
 C430 C 0.45637 0.10602 -0.28516
 C431 C 0.46102 0.09103 -0.25879
 C432 C 0.46643 0.07352 -0.22565
 C433 C 0.45367 0.06457 -0.17488
 C434 C 0.46050 0.04976 -0.13957
 C435 C 0.48024 0.04369 -0.15458
 C436 C 0.49215 0.05162 -0.20682
 C437 C 0.48532 0.06661 -0.24217
 H438 H 0.43311 0.13354 -0.24833
 H439 H 0.42163 0.16226 -0.30362
 H440 H 0.45687 0.14762 -0.44720
 H441 H 0.46733 0.11848 -0.39194
 H442 H 0.43899 0.06975 -0.16181
 H443 H 0.45092 0.04378 -0.09965
 H444 H 0.50747 0.04728 -0.21918
 H445 H 0.49529 0.07347 -0.28152
 C446 C 0.69057 0.56090 -0.25434
 C447 C 0.68229 0.54893 -0.30565
 C448 C 0.70043 0.55165 -0.34594
 C449 C 0.72740 0.56655 -0.33589
 C450 C 0.73554 0.57852 -0.28379
 C451 C 0.71721 0.57572 -0.24331
 C452 C 0.67115 0.55717 -0.21372
 C453 C 0.65316 0.55248 -0.18316
 C454 C 0.62994 0.54506 -0.15114
 C455 C 0.62826 0.53698 -0.09589
 C456 C 0.60434 0.52622 -0.06785
 C457 C 0.58188 0.52317 -0.09520
 C458 C 0.58404 0.53229 -0.14999
 C459 C 0.60791 0.54316 -0.17770
 H460 H 0.66170 0.53721 -0.31441
 H461 H 0.69328 0.54137 -0.38458
 H462 H 0.75606 0.59044 -0.27476
 H463 H 0.72379 0.58507 -0.20360
 H464 H 0.64517 0.53816 -0.07514
 H465 H 0.60322 0.51939 -0.02560
 H466 H 0.56712 0.53037 -0.17196
 H467 H 0.60897 0.54919 -0.22057
 C468 C 0.85441 0.32944 -0.29042
 C469 C 0.82743 0.31415 -0.28391
 C470 C 0.81292 0.29485 -0.32266
 C471 C 0.82516 0.29071 -0.36896
 C472 C 0.85249 0.30578 -0.37397
 C473 C 0.86693 0.32502 -0.33512
 C474 C 0.86924 0.35014 -0.25211
 C475 C 0.88201 0.36776 -0.22083
 C476 C 0.89777 0.38897 -0.18436
 C477 C 0.88650 0.40078 -0.15177
 C478 C 0.90204 0.42152 -0.11661
 C479 C 0.92900 0.43061 -0.11378
 C480 C 0.94014 0.41870 -0.14688
 C481 C 0.92460 0.39802 -0.18192
 H482 H 0.81756 0.31743 -0.24940
 H483 H 0.79195 0.28390 -0.31757
 H484 H 0.86274 0.30255 -0.40781
 H485 H 0.88786 0.33661 -0.34022
 H486 H 0.86574 0.39396 -0.15352
 H487 H 0.89297 0.43037 -0.09164
 H488 H 0.96084 0.42526 -0.14551
 H489 H 0.93352 0.38905 -0.20709
 C490 C 0.53530 -0.14490 -0.30805
 C491 C 0.52604 -0.17214 -0.30357
 C492 C 0.53328 -0.18509 -0.34281
 C493 C 0.54985 -0.17099 -0.38748
 C494 C 0.55934 -0.14345 -0.39080
 C495 C 0.55208 -0.13059 -0.35150
 C496 C 0.52757 -0.13149 -0.26847
 C497 C 0.52152 -0.11958 -0.23615
 C498 C 0.51502 -0.10442 -0.19860
 C499 C 0.49262 -0.11666 -0.16534
 C500 C 0.48648 -0.10157 -0.12928
 C501 C 0.50272 -0.07410 -0.12624
 C502 C 0.52512 -0.06203 -0.15990
 C503 C 0.53121 -0.07710 -0.19578
 H504 H 0.51300 -0.18341 -0.27009
 H505 H 0.52521 -0.20632 -0.33921
 H506 H 0.57274 -0.13175 -0.42339
 H507 H 0.55955 -0.10943 -0.35506
 H508 H 0.47992 -0.13780 -0.16732
 H509 H 0.46908 -0.11136 -0.10391
 H510 H 0.53803 -0.04092 -0.15840
 H511 H 0.54856 -0.06742 -0.22139
 C512 C 0.31812 0.44643 -0.25658
 C513 C 0.32092 0.46946 -0.28228
 C514 C 0.30324 0.46799 -0.32243
 C515 C 0.28243 0.44342 -0.33739
 C516 C 0.27942 0.42035 -0.31069
 C517 C 0.29725 0.42187 -0.27050
 C518 C 0.33776 0.44833 -0.21859
 C519 C 0.35545 0.45144 -0.18880
 C520 C 0.37793 0.45703 -0.15605
 C521 C 0.39961 0.45742 -0.18133
 C522 C 0.42302 0.46682 -0.15272
 C523 C 0.42504 0.47603 -0.09840
 C524 C 0.40280 0.47434 -0.07224
 C525 C 0.37938 0.46501 -0.10110
 H526 H 0.33708 0.48854 -0.27199
 H527 H 0.30589 0.48602 -0.34230
 H528 H 0.26374 0.40116 -0.32209
 H529 H 0.29507 0.40392 -0.25115
 H530 H 0.39874 0.45143 -0.22394
 H531 H 0.43978 0.46771 -0.17378
 H532 H 0.40380 0.48128 -0.03040
 H533 H 0.36274 0.46498 -0.08131
 C534 C 1.13216 0.67303 -0.29370
 C535 C 1.14494 0.69827 -0.27050
 C536 C 1.16204 0.72009 -0.30273
 C537 C 1.16642 0.71690 -0.35878
 C538 C 1.15376 0.69117 -0.38089
 C539 C 1.13682 0.66955 -0.34872
 C540 C 1.11401 0.65051 -0.26181
 C541 C 1.09873 0.63137 -0.23588
 C542 C 1.08079 0.60872 -0.20402
 C543 C 1.07158 0.61252 -0.15349
 C544 C 1.05598 0.59089 -0.11982
 C545 C 1.04936 0.56508 -0.13619
 C546 C 1.05769 0.56124 -0.18812
 C547 C 1.07345 0.58304 -0.22185
 H548 H 1.14140 0.70113 -0.22778
 H549 H 1.17097 0.73952 -0.28446
 H550 H 1.15716 0.68768 -0.42329
 H551 H 1.12724 0.65009 -0.36695
 H552 H 1.07705 0.63227 -0.13939
 H553 H 1.04974 0.59443 -0.08009
 H554 H 1.05295 0.54159 -0.20154
 H555 H 1.08048 0.57992 -0.26104
 C556 C 0.88086 0.56287 -0.27012
 C557 C 0.86841 0.57778 -0.25829
 C558 C 0.85103 0.57914 -0.29632
 C559 C 0.84587 0.56566 -0.34709
 C560 C 0.85852 0.55060 -0.35799
 C561 C 0.87581 0.54930 -0.32002
 C562 C 0.89827 0.56058 -0.23099
 C563 C 0.91265 0.55739 -0.19983
 C564 C 0.92935 0.55185 -0.16460
 C565 C 0.92294 0.54524 -0.10880
 C566 C 0.93673 0.53574 -0.07704
 C567 C 0.95695 0.53252 -0.10096
 C568 C 0.96422 0.54066 -0.15613
 C569 C 0.95047 0.55022 -0.18769
 H570 H 0.87210 0.58833 -0.21969
 H571 H 0.84201 0.59118 -0.28647
 H572 H 0.85442 0.53904 -0.39526
 H573 H 0.88504 0.53739 -0.32938
 H574 H 0.90655 0.54628 -0.09050
 H575 H 0.93058 0.52951 -0.03477
 H576 H 0.97970 0.53844 -0.17570
 H577 H 0.95558 0.55517 -0.23086
 C578 C 0.44715 0.31672 -0.28569
 C579 C 0.43476 0.29014 -0.26905
 C580 C 0.42892 0.27022 -0.30794
 C581 C 0.43526 0.27654 -0.36439
 C582 C 0.44794 0.30348 -0.38020
 C583 C 0.45373 0.32327 -0.34132
 C584 C 0.45341 0.33749 -0.24616
 C585 C 0.45916 0.35555 -0.21459
 C586 C 0.46663 0.37784 -0.17859
 C587 C 0.45298 0.39220 -0.17971
 C588 C 0.46146 0.41505 -0.14809
 C589 C 0.48381 0.42392 -0.11505
 C590 C 0.49702 0.40900 -0.11308
 C591 C 0.48850 0.38615 -0.14470
 H592 H 0.42955 0.28479 -0.22606
 H593 H 0.41887 0.24982 -0.29404
 H594 H 0.45408 0.30939 -0.42260
 H595 H 0.46357 0.34377 -0.35469
 H596 H 0.43608 0.38604 -0.20589
 H597 H 0.45086 0.42609 -0.15045
 H598 H 0.51425 0.41529 -0.08796
 H599 H 0.49929 0.37529 -0.14358
 C600 C 0.67789 0.13829 -0.27538
 C601 C 0.68699 0.16560 -0.27395
 C602 C 0.70387 0.18212 -0.31526
 C603 C 0.71181 0.17149 -0.35858
 C604 C 0.70293 0.14413 -0.35938
 C605 C 0.68604 0.12764 -0.31807
 C606 C 0.65919 0.12110 -0.23477
 C607 C 0.64284 0.10673 -0.20188
 C608 C 0.62235 0.08967 -0.16422
 C609 C 0.61122 0.10041 -0.12832
 C610 C 0.58908 0.08382 -0.09715
 C611 C 0.57766 0.05618 -0.10160
 C612 C 0.58980 0.04554 -0.13552
 C613 C 0.61195 0.06220 -0.16676
 H614 H 0.68072 0.17408 -0.24136
 H615 H 0.71044 0.20314 -0.31399
 H616 H 0.70890 0.13558 -0.39233
 H617 H 0.67906 0.10654 -0.31982
 H618 H 0.61904 0.12162 -0.12601
 H619 H 0.58025 0.09266 -0.07140
 H620 H 0.58145 0.02437 -0.14009
 H621 H 0.62033 0.05362 -0.19450
 C622 C 1.13393 0.44664 -0.25432
 C623 C 1.12278 0.42872 -0.29760
 C624 C 1.13863 0.42685 -0.33878
 C625 C 1.16580 0.44293 -0.33711
 C626 C 1.17687 0.46064 -0.29326
 C627 C 1.16102 0.46247 -0.25213
 C628 C 1.11758 0.44993 -0.21397
 C629 C 1.10407 0.45358 -0.18125
 C630 C 1.08807 0.45911 -0.14400
 C631 C 1.06090 0.44386 -0.14540
 C632 C 1.04526 0.45147 -0.11509
 C633 C 1.05663 0.47459 -0.08324
 C634 C 1.08396 0.48896 -0.07973
 C635 C 1.09955 0.48129 -0.11002
 H636 H 1.10184 0.41649 -0.29995
 H637 H 1.12976 0.41310 -0.37228
 H638 H 1.19776 0.47330 -0.29143
 H639 H 1.16986 0.47654 -0.21913
 H640 H 1.05179 0.42669 -0.17167
 H641 H 1.02430 0.44001 -0.11883
 H642 H 1.09333 0.50682 -0.05556
 H643 H 1.12055 0.49329 -0.10866
 C644 C 0.55628 0.67869 -0.30335
 C645 C 0.53911 0.68916 -0.30588
 C646 C 0.54281 0.70847 -0.34545
 C647 C 0.56374 0.71755 -0.38302
 C648 C 0.58116 0.70728 -0.37976
 C649 C 0.57742 0.68792 -0.34017
 C650 C 0.55148 0.65778 -0.26439
 C651 C 0.54658 0.63988 -0.23220
 C652 C 0.53956 0.61805 -0.19430
 C653 C 0.51836 0.61064 -0.15837
 C654 C 0.51013 0.58835 -0.12429
 C655 C 0.52297 0.57309 -0.12569
 C656 C 0.54472 0.58106 -0.16078
 C657 C 0.55291 0.60339 -0.19500
 H658 H 0.52263 0.68210 -0.27779
 H659 H 0.52908 0.71601 -0.34746
 H660 H 0.59745 0.71406 -0.40829
 H661 H 0.59079 0.67993 -0.33872
 H662 H 0.50786 0.62179 -0.15749
 H663 H 0.49338 0.58277 -0.09758
 H664 H 0.55500 0.56971 -0.16272
 H665 H 0.56932 0.60890 -0.22272
 C666 C 0.32241 -0.13167 -0.27479
 C667 C 0.33078 -0.13626 -0.32563
 C668 C 0.31274 -0.15314 -0.36382
 C669 C 0.28574 -0.16575 -0.35229
 C670 C 0.27759 -0.16154 -0.30008
 C671 C 0.29578 -0.14453 -0.26183
 C672 C 0.34149 -0.11375 -0.23657
 C673 C 0.35856 -0.09865 -0.20663
 C674 C 0.38021 -0.08085 -0.17319
 C675 C 0.40166 -0.05952 -0.19830
 C676 C 0.42437 -0.04449 -0.16820
 C677 C 0.42597 -0.05067 -0.11248
 C678 C 0.40381 -0.07117 -0.08666
 C679 C 0.38111 -0.08623 -0.11694
 H680 H 0.35136 -0.12675 -0.33586
 H681 H 0.32005 -0.15665 -0.40223
 H682 H 0.25708 -0.17059 -0.28956
 H683 H 0.28905 -0.14122 -0.22247
 H684 H 0.40124 -0.05519 -0.24183
 H685 H 0.44108 -0.02884 -0.18924
 H686 H 0.40446 -0.07649 -0.04388
 H687 H 0.36469 -0.10275 -0.09706
 C688 C 0.57067 -0.12441 0.24729
 C689 C 0.58517 -0.11351 0.29520
 C690 C 0.58676 -0.12994 0.33606
 C691 C 0.57375 -0.15749 0.32952
 C692 C 0.55978 -0.16826 0.28075
 C693 C 0.55822 -0.15180 0.23990
 C694 C 0.56657 -0.10773 0.20843
 C695 C 0.56204 -0.09375 0.17812
 C696 C 0.55518 -0.07708 0.14537
 C697 C 0.55404 -0.05600 0.17080
 C698 C 0.54361 -0.04206 0.14274
 C699 C 0.53416 -0.04899 0.08866
 C700 C 0.53673 -0.06920 0.06204
 C701 C 0.54705 -0.08331 0.09048
 H702 H 0.59468 -0.09236 0.30160
 H703 H 0.59765 -0.12128 0.37332
 H704 H 0.54953 -0.18946 0.27507
 H705 H 0.54673 -0.16048 0.20330
 H706 H 0.56019 -0.05104 0.21327
 H707 H 0.54199 -0.02650 0.16416
 H708 H 0.52945 -0.07504 0.02052
 H709 H 0.54770 -0.09971 0.07049
 C710 C 0.32658 0.45858 0.29679
 C711 C 0.31667 0.47635 0.29807
 C712 C 0.29795 0.47333 0.33762
 C713 C 0.28901 0.45252 0.37641
 C714 C 0.29859 0.43441 0.37422
 C715 C 0.31735 0.43748 0.33468
 C716 C 0.34706 0.46277 0.25828
 C717 C 0.36469 0.46696 0.22684
 C718 C 0.38632 0.47278 0.19033
 C719 C 0.39601 0.49505 0.15560
 C720 C 0.41817 0.50194 0.12307
 C721 C 0.43099 0.48666 0.12498
 C722 C 0.42073 0.46391 0.15886
 C723 C 0.39856 0.45707 0.19143
 H724 H 0.32372 0.49279 0.26910
 H725 H 0.29080 0.48748 0.33873
 H726 H 0.29182 0.41818 0.40367
 H727 H 0.32492 0.42365 0.33418
 H728 H 0.38674 0.50739 0.15447
 H729 H 0.42556 0.51951 0.09726
 H730 H 0.43014 0.45173 0.16108
 H731 H 0.39127 0.43981 0.21823
 C732 C 1.12956 0.68332 0.29484
 C733 C 1.13514 0.67518 0.34527
 C734 C 1.15229 0.69382 0.38214
 C735 C 1.16401 0.72089 0.36912
 C736 C 1.15852 0.72903 0.31829
 C737 C 1.14131 0.71028 0.28125
 C738 C 1.11216 0.66366 0.25719
 C739 C 1.09775 0.64616 0.22731
 C740 C 1.08101 0.62419 0.19345
 C741 C 1.06243 0.60067 0.21849
 C742 C 1.04810 0.57823 0.18663
 C743 C 1.05226 0.57904 0.12922
 C744 C 1.07029 0.60306 0.10412
 C745 C 1.08464 0.62548 0.13613
 H746 H 1.12629 0.65437 0.35601
 H747 H 1.15651 0.68716 0.42087
 H748 H 1.16748 0.74983 0.30755
 H749 H 1.13721 0.71675 0.24216
 H750 H 1.05956 0.59945 0.26289
 H751 H 1.03433 0.56007 0.20715
 H752 H 1.07394 0.60431 0.06001
 H753 H 1.09907 0.64356 0.11640
 C754 C 0.42983 0.12119 0.27314
 C755 C 0.44607 0.13109 0.31901
 C756 C 0.44240 0.14725 0.35641
 C757 C 0.42236 0.15372 0.34855
 C758 C 0.40621 0.14402 0.30215
 C759 C 0.40993 0.12776 0.26453
 C760 C 0.43400 0.10436 0.23560
 C761 C 0.43886 0.09054 0.20610
 C762 C 0.44623 0.07460 0.17289
 C763 C 0.45028 0.07929 0.11598
 C764 C 0.46030 0.06584 0.08496
 C765 C 0.46655 0.04762 0.11063
 C766 C 0.46157 0.04241 0.16753
 C767 C 0.45152 0.05586 0.19841
 H768 H 0.46157 0.12622 0.32599
 H769 H 0.45514 0.15467 0.39179
 H770 H 0.39065 0.14881 0.29550
 H771 H 0.39728 0.12024 0.22905
 H772 H 0.44641 0.09387 0.09586
 H773 H 0.46391 0.07030 0.04123
 H774 H 0.46613 0.02849 0.18850
 H775 H 0.44859 0.05219 0.24252
 C776 C 0.67675 0.54720 0.30846
 C777 C 0.67017 0.53481 0.36045
 C778 C 0.68965 0.53897 0.39861
 C779 C 0.71599 0.55563 0.38525
 C780 C 0.72249 0.56826 0.33325
 C781 C 0.70296 0.56405 0.29504
 C782 C 0.65657 0.54202 0.26869
 C783 C 0.63928 0.53706 0.23605
 C784 C 0.61812 0.53040 0.19805
 C785 C 0.60873 0.50733 0.16684
 C786 C 0.58707 0.49982 0.13274
 C787 C 0.57446 0.51527 0.12951
 C788 C 0.58442 0.53878 0.15992
 C789 C 0.60608 0.54625 0.19404
 H790 H 0.64998 0.52168 0.37127
 H791 H 0.68424 0.52890 0.43829
 H792 H 0.74269 0.58115 0.32217
 H793 H 0.70831 0.57372 0.25493
 H794 H 0.61785 0.49489 0.16964
 H795 H 0.57989 0.48165 0.10975
 H796 H 0.57516 0.55111 0.15821
 H797 H 0.61313 0.56413 0.21804
 C798 C 0.86452 0.31494 0.26234
 C799 C 0.83776 0.30636 0.25854
 C800 C 0.82071 0.29001 0.29978
 C801 C 0.83026 0.28209 0.34532
 C802 C 0.85706 0.29043 0.34849
 C803 C 0.87409 0.30679 0.30725
 C804 C 0.88239 0.33381 0.22282
 C805 C 0.89765 0.35072 0.19192
 C806 C 0.91621 0.37244 0.15847
 C807 C 0.93902 0.39162 0.18305
 C808 C 0.95525 0.41499 0.15462
 C809 C 0.94895 0.41954 0.10100
 C810 C 0.92691 0.39950 0.07503
 C811 C 0.91049 0.37610 0.10386
 H812 H 0.83016 0.31277 0.22436
 H813 H 0.80013 0.28392 0.29680
 H814 H 0.86478 0.28454 0.38330
 H815 H 0.89477 0.31351 0.31095
 H816 H 0.94363 0.38907 0.22526
 H817 H 0.97215 0.43005 0.17556
 H818 H 0.92150 0.40260 0.03395
 H819 H 0.89281 0.36144 0.08451
   
