data_POSCAR
  _audit_creation_date              2014-09-24
  _audit_creation_method            'ToBaCCo'
  _symmetry_space_group_name_H-M    'P1'
  _symmetry_Int_Tables_number       1
  _symmetry_cell_setting            triclinic
  loop_
  _symmetry_equiv_pos_as_xyz
 x,y,z
_cell_length_a 36.0331
_cell_length_b 41.9962
_cell_length_c 25.6722
_cell_angle_alpha 90.012100
_cell_angle_beta 90.104800
_cell_angle_gamma 90.059700
loop_
  _atom_site_label
  _atom_site_type_symbol
  _atom_site_fract_x
  _atom_site_fract_y
  _atom_site_fract_z
C1 C 0.19162 0.22223 0.17961
 C2 C 0.18165 0.25215 0.15926
 C3 C 0.19673 0.28047 0.17811
 C4 C 0.22392 0.27958 0.21760
 C5 C 0.23461 0.24993 0.23937
 C6 C 0.21783 0.22122 0.22147
 C7 C 0.22534 0.19300 0.24918
 C8 C 0.25160 0.19222 0.28894
 C9 C 0.27114 0.21976 0.30389
 C10 C 0.26113 0.24919 0.28059
 C11 C 0.24040 0.30772 0.23613
 C12 C 0.26621 0.30696 0.27631
 C13 C 0.27694 0.27800 0.29916
 C14 C 0.30233 0.27725 0.34110
 C15 C 0.31184 0.24818 0.36382
 C16 C 0.29798 0.21912 0.34470
 H17 H 0.21011 0.17129 0.24194
 H18 H 0.25539 0.16989 0.30925
 H19 H 0.23333 0.33071 0.21989
 H20 H 0.27725 0.32948 0.28976
 H21 H 0.16198 0.25371 0.12733
 H22 H 0.33269 0.24823 0.39437
 C23 C 0.79985 0.28030 0.16108
 C24 C 0.81279 0.25112 0.14135
 C25 C 0.80290 0.22207 0.16391
 C26 C 0.77775 0.22149 0.20604
 C27 C 0.76278 0.25045 0.22510
 C28 C 0.77349 0.27991 0.20239
 C29 C 0.75542 0.30784 0.21896
 C30 C 0.72972 0.30726 0.25932
 C31 C 0.72068 0.27870 0.28482
 C32 C 0.73658 0.24987 0.26650
 C33 C 0.76655 0.19259 0.22874
 C34 C 0.74117 0.19205 0.26940
 C35 C 0.72553 0.22035 0.28848
 C36 C 0.69896 0.21985 0.32888
 C37 C 0.68482 0.24847 0.34806
 C38 C 0.69494 0.27787 0.32656
 H39 H 0.76013 0.33043 0.19985
 H40 H 0.71647 0.32949 0.26946
 H41 H 0.77699 0.16998 0.21490
 H42 H 0.73385 0.16913 0.28569
 H43 H 0.83332 0.25092 0.11049
 H44 H 0.66459 0.24776 0.37930
 C45 C 0.80224 0.78112 0.83753
 C46 C 0.81527 0.75193 0.85721
 C47 C 0.80536 0.72289 0.83457
 C48 C 0.78019 0.72231 0.79237
 C49 C 0.76511 0.75125 0.77336
 C50 C 0.77580 0.78071 0.79616
 C51 C 0.75761 0.80862 0.77965
 C52 C 0.73174 0.80801 0.73933
 C53 C 0.72267 0.77943 0.71382
 C54 C 0.73876 0.75064 0.73200
 C55 C 0.76906 0.69340 0.76955
 C56 C 0.74356 0.69283 0.72892
 C57 C 0.72772 0.72110 0.71000
 C58 C 0.70093 0.72054 0.66977
 C59 C 0.68659 0.74913 0.65070
 C60 C 0.69669 0.77854 0.67221
 H61 H 0.76231 0.83121 0.79879
 H62 H 0.71839 0.83021 0.72927
 H63 H 0.77963 0.67080 0.78327
 H64 H 0.73630 0.66990 0.71255
 H65 H 0.83580 0.75172 0.88818
 H66 H 0.66617 0.74836 0.61961
 C67 C 0.30138 0.77810 0.66296
 C68 C 0.31528 0.74901 0.64530
 C69 C 0.30103 0.72011 0.66344
 C70 C 0.27173 0.72015 0.70009
 C71 C 0.25761 0.74947 0.71896
 C72 C 0.27202 0.77853 0.69941
 C73 C 0.25561 0.80724 0.71490
 C74 C 0.22642 0.80754 0.75013
 C75 C 0.21355 0.77931 0.77371
 C76 C 0.22849 0.74974 0.75649
 C77 C 0.25507 0.69169 0.71642
 C78 C 0.22598 0.69189 0.75188
 C79 C 0.21334 0.72044 0.77466
 C80 C 0.18391 0.72076 0.81162
 C81 C 0.16984 0.75030 0.82787
 C82 C 0.18409 0.77955 0.81056
 H83 H 0.26445 0.82978 0.69864
 H84 H 0.21349 0.83029 0.75726
 H85 H 0.26366 0.66894 0.70071
 H86 H 0.21288 0.66928 0.75978
 H87 H 0.33811 0.74886 0.61780
 H88 H 0.14906 0.75057 0.85838
 O89 O 1.03939 -0.03776 0.01467
 O90 O 0.96834 0.01890 0.05932
 O91 O 0.96798 -0.03800 0.01741
 O92 O 1.04055 0.01866 0.05757
 O93 O 1.03845 0.04110 -0.02010
 O94 O 0.96633 -0.01611 -0.06072
 O95 O 0.96679 0.04060 -0.01890
 O96 O 1.03861 -0.01543 -0.06314
 Cu97 Cu 1.00419 -0.01167 0.04513
 Cu98 Cu 1.00245 0.01469 -0.04858
 C99 C 1.05073 -0.03658 -0.03210
 C100 C 0.95568 0.03969 0.02800
 C101 C 0.95521 -0.03712 -0.02871
 C102 C 1.05146 0.03991 0.02590
 O103 O 0.53811 0.45944 0.52132
 O104 O 0.46703 0.51684 0.56339
 O105 O 0.46658 0.46015 0.52148
 O106 O 0.53930 0.51620 0.56353
 O107 O 0.53906 0.53834 0.48562
 O108 O 0.46719 0.48160 0.44307
 O109 O 0.46725 0.53845 0.48509
 O110 O 0.53929 0.48178 0.44352
 Cu111 Cu 0.50276 0.48607 0.55035
 Cu112 Cu 0.50318 0.51222 0.45648
 C113 C 0.55047 0.46052 0.47504
 C114 C 0.45518 0.53765 0.53155
 C115 C 0.45494 0.46087 0.47476
 C116 C 0.55128 0.53714 0.53201
 O117 O -0.03476 0.53920 0.01844
 O118 O 0.03735 0.48370 0.06331
 O119 O 0.03676 0.53993 0.01926
 O120 O -0.03499 0.48259 0.06049
 O121 O -0.03323 0.46035 -0.01735
 O122 O 0.03886 0.51705 -0.05810
 O123 O 0.03843 0.46110 -0.01425
 O124 O -0.03322 0.51727 -0.05960
 Cu125 Cu 0.00099 0.51349 0.04826
 Cu126 Cu 0.00277 0.48672 -0.04513
 C127 C -0.04581 0.53820 -0.02851
 C128 C 0.04993 0.46266 0.03249
 C129 C 0.04966 0.53855 -0.02674
 C130 C -0.04604 0.46141 0.02866
 O131 O 0.46677 1.03912 0.51962
 O132 O 0.53881 0.98186 0.55886
 O133 O 0.53843 1.03844 0.51693
 O134 O 0.46658 0.98204 0.56088
 O135 O 0.46503 0.96058 0.48246
 O136 O 0.53689 1.01671 0.43871
 O137 O 0.53650 0.95989 0.48080
 O138 O 0.46451 1.01738 0.44139
 Cu139 Cu 0.50278 1.01249 0.54695
 Cu140 Cu 0.50061 0.98659 0.45290
 C141 C 0.45363 1.03830 0.47370
 C142 C 0.54953 0.96077 0.52680
 C143 C 0.54968 1.03741 0.47009
 C144 C 0.45391 0.96134 0.52935
 C145 C 1.14057 0.14182 0.10851
 C146 C 1.12016 0.16944 0.11886
 C147 C 1.13689 0.19548 0.14301
 C148 C 1.17475 0.19481 0.15726
 C149 C 1.19530 0.16710 0.14562
 C150 C 1.17821 0.14069 0.12234
 C151 C 1.12193 0.11434 0.08385
 C152 C 1.12146 0.08456 0.10861
 C153 C 1.09945 0.05986 0.08887
 C154 C 1.07815 0.06442 0.04352
 C155 C 1.08030 0.09373 0.01733
 C156 C 1.10171 0.11855 0.03761
 H157 H 1.11969 0.21592 0.15179
 H158 H 1.22487 0.16610 0.15306
 H159 H 1.09839 0.03748 0.10976
 H160 H 1.06412 0.09798 -0.01757
 H161 H 1.19453 0.11966 0.11399
 H162 H 1.13673 0.08093 0.14450
 H163 H 1.09094 0.17064 0.10904
 H164 H 1.10180 0.14135 0.01789
 C165 C 0.64778 0.63660 0.60961
 C166 C 0.67104 0.65504 0.57750
 C167 C 0.68913 0.68194 0.59730
 C168 C 0.68469 0.69059 0.64965
 C169 C 0.66220 0.67195 0.68207
 C170 C 0.64391 0.64522 0.66230
 C171 C 0.62589 0.60964 0.58784
 C172 C 0.61903 0.58221 0.61775
 C173 C 0.59557 0.55823 0.59911
 C174 C 0.57869 0.56102 0.54995
 C175 C 0.58666 0.58784 0.51920
 C176 C 0.60987 0.61192 0.53800
 H177 H 0.70626 0.69623 0.57172
 H178 H 0.65801 0.67865 0.72239
 H179 H 0.59021 0.53773 0.62356
 H180 H 0.57397 0.59077 0.48123
 H181 H 0.62568 0.63201 0.68787
 H182 H 0.63147 0.57941 0.65589
 H183 H 0.67499 0.64886 0.53695
 H184 H 0.61407 0.63289 0.51420
 C185 C -0.14445 0.36185 0.10195
 C186 C -0.15971 0.33901 0.06798
 C187 C -0.17865 0.31253 0.08738
 C188 C -0.18413 0.30862 0.14129
 C189 C -0.16985 0.33202 0.17519
 C190 C -0.15015 0.35814 0.15582
 C191 C -0.12098 0.38833 0.08150
 C192 C -0.11973 0.41812 0.10670
 C193 C -0.09574 0.44208 0.08927
 C194 C -0.07304 0.43703 0.04567
 C195 C -0.07501 0.40771 0.01956
 C196 C -0.09837 0.38358 0.03752
 H197 H -0.18950 0.29521 0.06000
 H198 H -0.17202 0.32920 0.21702
 H199 H -0.09494 0.46456 0.10994
 H200 H -0.05750 0.40299 -0.01381
 H201 H -0.13808 0.37469 0.18339
 H202 H -0.13718 0.42295 0.14002
 H203 H -0.15680 0.34136 0.02621
 H204 H -0.09774 0.36084 0.01770
 C205 C 0.35777 0.86123 0.60586
 C206 C 0.33452 0.84332 0.57280
 C207 C 0.31573 0.81656 0.59156
 C208 C 0.31934 0.80752 0.64384
 C209 C 0.34170 0.82565 0.67732
 C210 C 0.36083 0.85222 0.65851
 C211 C 0.38018 0.88816 0.58503
 C212 C 0.38743 0.91531 0.61557
 C213 C 0.41073 0.93947 0.59716
 C214 C 0.42700 0.93716 0.54761
 C215 C 0.41886 0.91053 0.51648
 C216 C 0.39591 0.88627 0.53504
 H217 H 0.29852 0.80275 0.56528
 H218 H 0.34502 0.81873 0.71770
 H219 H 0.41630 0.95979 0.62195
 H220 H 0.43116 0.90790 0.47826
 H221 H 0.37894 0.86505 0.68487
 H222 H 0.37527 0.91782 0.65388
 H223 H 0.33101 0.84985 0.53231
 H224 H 0.39153 0.86552 0.51076
 C225 C -0.13877 0.63975 -0.10716
 C226 C -0.13141 0.65126 -0.15757
 C227 C -0.14995 0.67803 -0.17666
 C228 C -0.17624 0.69375 -0.14580
 C229 C -0.18382 0.68241 -0.09561
 C230 C -0.16540 0.65553 -0.07652
 C231 C -0.11753 0.61229 -0.08597
 C232 C -0.10533 0.61238 -0.03394
 C233 C -0.08312 0.58775 -0.01489
 C234 C -0.07240 0.56248 -0.04746
 C235 C -0.08546 0.56185 -0.09906
 C236 C -0.10784 0.58646 -0.11807
 H237 H -0.14348 0.68679 -0.21527
 H238 H -0.20398 0.69439 -0.07129
 H239 H -0.07342 0.58905 0.02500
 H240 H -0.07784 0.54265 -0.12508
 H241 H -0.17200 0.64710 -0.03777
 H242 H -0.11184 0.63208 -0.00835
 H243 H -0.11058 0.64009 -0.18180
 H244 H -0.11730 0.58539 -0.15809
 C245 C 0.35359 1.13734 0.40301
 C246 C 0.34643 1.14065 0.34937
 C247 C 0.32655 1.16678 0.33038
 C248 C 0.31365 1.19063 0.36441
 C249 C 0.32033 1.18698 0.41813
 C250 C 0.33939 1.16049 0.43719
 C251 C 0.37753 1.11100 0.42288
 C252 C 0.40119 1.11603 0.46583
 C253 C 0.42497 1.09203 0.48316
 C254 C 0.42635 1.06260 0.45738
 C255 C 0.40265 1.05727 0.41479
 C256 C 0.37822 1.08108 0.39806
 H257 H 0.32334 1.16929 0.28862
 H258 H 0.31043 1.20458 0.44567
 H259 H 0.44325 1.09693 0.51574
 H260 H 0.40298 1.03468 0.39443
 H261 H 0.34332 1.15842 0.47885
 H262 H 0.40230 1.13886 0.48529
 H263 H 0.35758 1.12383 0.32158
 H264 H 0.35998 1.07601 0.36556
 C265 C 1.13640 -0.13849 -0.11956
 C266 C 1.11403 -0.16370 -0.13645
 C267 C 1.12977 -0.19017 -0.16046
 C268 C 1.16850 -0.19230 -0.16793
 C269 C 1.19088 -0.16695 -0.14981
 C270 C 1.17489 -0.14006 -0.12669
 C271 C 1.11901 -0.11097 -0.09386
 C272 C 1.11794 -0.08125 -0.11867
 C273 C 1.09668 -0.05651 -0.09774
 C274 C 1.07679 -0.06105 -0.05123
 C275 C 1.07956 -0.09039 -0.02520
 C276 C 1.10017 -0.11524 -0.04667
 H277 H 1.11139 -0.20886 -0.17402
 H278 H 1.22085 -0.16833 -0.15187
 H279 H 1.09506 -0.03412 -0.11854
 H280 H 1.06438 -0.09465 0.01050
 H281 H 1.19256 -0.12092 -0.11304
 H282 H 1.13215 -0.07771 -0.15536
 H283 H 1.08420 -0.16275 -0.13135
 H284 H 1.10063 -0.13813 -0.02721
 C285 C 0.64024 0.35936 0.39252
 C286 C 0.67911 0.35867 0.38969
 C287 C 0.69715 0.33226 0.36812
 C288 C 0.67645 0.30674 0.34764
 C289 C 0.63754 0.30781 0.35008
 C290 C 0.61961 0.33378 0.37266
 C291 C 0.62074 0.38637 0.41671
 C292 C 0.59923 0.38142 0.46143
 C293 C 0.57775 0.40609 0.48180
 C294 C 0.57676 0.43592 0.45704
 C295 C 0.59902 0.44103 0.41288
 C296 C 0.62118 0.41649 0.39318
 H297 H 0.72719 0.33160 0.36767
 H298 H 0.62102 0.28836 0.33481
 H299 H 0.56069 0.40141 0.51565
 H300 H 0.59878 0.46381 0.39311
 H301 H 0.58958 0.33401 0.37449
 H302 H 0.59856 0.35825 0.47993
 H303 H 0.69539 0.37819 0.40520
 H304 H 0.63750 0.42059 0.35842
 C305 C 0.85747 -0.13717 -0.10262
 C306 C 0.85180 -0.14083 -0.15655
 C307 C 0.83228 -0.16702 -0.17616
 C308 C 0.81816 -0.19055 -0.14246
 C309 C 0.82364 -0.18671 -0.08850
 C310 C 0.84239 -0.16016 -0.06886
 C311 C 0.88068 -0.11054 -0.08191
 C312 C 0.90327 -0.11516 -0.03775
 C313 C 0.92644 -0.09090 -0.01961
 C314 C 0.92824 -0.06158 -0.04570
 C315 C 0.90552 -0.05665 -0.08945
 C316 C 0.88172 -0.08074 -0.10705
 H317 H 0.83011 -0.16977 -0.21802
 H318 H 0.81291 -0.20412 -0.06126
 H319 H 0.94398 -0.09552 0.01385
 H320 H 0.90620 -0.03417 -0.11012
 H321 H 0.84528 -0.15786 -0.02707
 H322 H 0.90406 -0.13789 -0.01795
 H323 H 0.86374 -0.12417 -0.18398
 H324 H 0.86426 -0.07598 -0.14049
 C325 C 0.36019 0.35969 0.39861
 C326 C 0.33381 0.34403 0.42985
 C327 C 0.31470 0.31741 0.41098
 C328 C 0.32136 0.30620 0.36043
 C329 C 0.34747 0.32178 0.32903
 C330 C 0.36667 0.34831 0.34788
 C331 C 0.38198 0.38699 0.41934
 C332 C 0.39120 0.41289 0.38714
 C333 C 0.41401 0.43739 0.40557
 C334 C 0.42801 0.43660 0.45668
 C335 C 0.41780 0.41124 0.48941
 C336 C 0.39511 0.38670 0.47093
 H337 H 0.29473 0.30550 0.43575
 H338 H 0.35329 0.31310 0.29016
 H339 H 0.42121 0.45667 0.37944
 H340 H 0.42822 0.40984 0.52893
 H341 H 0.38729 0.35939 0.32318
 H342 H 0.38101 0.41411 0.34749
 H343 H 0.32792 0.35236 0.46888
 H344 H 0.38894 0.36693 0.49657
 C345 C 0.13595 0.64016 -0.11433
 C346 C 0.17439 0.64137 -0.12233
 C347 C 0.19047 0.66777 -0.14689
 C348 C 0.16822 0.69297 -0.16566
 C349 C 0.12953 0.69118 -0.15746
 C350 C 0.11372 0.66524 -0.13198
 C351 C 0.11840 0.61294 -0.08775
 C352 C 0.09719 0.61804 -0.04276
 C353 C 0.07648 0.59324 -0.02115
 C354 C 0.07597 0.56311 -0.04492
 C355 C 0.09827 0.55776 -0.08896
 C356 C 0.11965 0.58245 -0.10992
 H357 H 0.22043 0.66891 -0.14950
 H358 H 0.11120 0.70971 -0.17159
 H359 H 0.05940 0.59809 0.01261
 H360 H 0.09843 0.53474 -0.10796
 H361 H 0.08392 0.66455 -0.12651
 H362 H 0.09589 0.64148 -0.02525
 H363 H 0.19199 0.62231 -0.10829
 H364 H 0.13570 0.57819 -0.14486
 C365 C 0.64592 1.13627 0.39020
 C366 C 0.66966 1.15464 0.42184
 C367 C 0.68776 1.18138 0.40162
 C368 C 0.68285 1.18995 0.34930
 C369 C 0.65991 1.17135 0.31731
 C370 C 0.64161 1.14477 0.33751
 C371 C 0.62403 1.10949 0.41248
 C372 C 0.60863 1.11194 0.46262
 C373 C 0.58550 1.08800 0.48198
 C374 C 0.57696 1.06118 0.45150
 C375 C 0.59317 1.05823 0.40200
 C376 C 0.61657 1.08204 0.38281
 H377 H 0.70522 1.19565 0.42688
 H378 H 0.65536 1.17799 0.27702
 H379 H 0.57332 1.09105 0.52018
 H380 H 0.58736 1.03771 0.37775
 H381 H 0.62301 1.13161 0.31228
 H382 H 0.61329 1.13292 0.48625
 H383 H 0.67398 1.14853 0.46236
 H384 H 0.62852 1.07911 0.34445
 C385 C 0.14565 0.36443 0.11522
 C386 C 0.16937 0.34576 0.08422
 C387 C 0.18693 0.31895 0.10504
 C388 C 0.18150 0.31061 0.15732
 C389 C 0.15874 0.32958 0.18878
 C390 C 0.14097 0.35624 0.16796
 C391 C 0.12405 0.39110 0.09214
 C392 C 0.10874 0.38826 0.04192
 C393 C 0.08572 0.41204 0.02186
 C394 C 0.07721 0.43910 0.05170
 C395 C 0.09340 0.44246 0.10124
 C396 C 0.11668 0.41879 0.12115
 H397 H 0.20430 0.30439 0.08022
 H398 H 0.15384 0.32313 0.22904
 H399 H 0.07356 0.40868 -0.01636
 H400 H 0.08761 0.46316 0.12502
 H401 H 0.12240 0.36967 0.19271
 H402 H 0.11335 0.36708 0.01879
 H403 H 0.17398 0.35164 0.04369
 H404 H 0.12855 0.42200 0.15956
 C405 C 0.64080 0.85971 0.60684
 C406 C 0.67970 0.85931 0.60949
 C407 C 0.69813 0.83302 0.63088
 C408 C 0.67782 0.80733 0.65142
 C409 C 0.63888 0.80812 0.64919
 C410 C 0.62056 0.83396 0.62676
 C411 C 0.62086 0.88667 0.58305
 C412 C 0.59831 0.88159 0.53926
 C413 C 0.57645 0.90623 0.51946
 C414 C 0.57614 0.93616 0.54393
 C415 C 0.59944 0.94141 0.58710
 C416 C 0.62196 0.91690 0.60617
 H417 H 0.72819 0.83259 0.63114
 H418 H 0.62264 0.78854 0.66453
 H419 H 0.55860 0.90146 0.48638
 H420 H 0.59974 0.96427 0.60661
 H421 H 0.59051 0.83397 0.62516
 H422 H 0.59711 0.85833 0.52106
 H423 H 0.69570 0.87898 0.59397
 H424 H 0.63909 0.92112 0.64020
 C425 C 0.86040 0.13977 0.10586
 C426 C 0.86673 0.15083 0.15685
 C427 C 0.84752 0.17723 0.17593
 C428 C 0.82154 0.19301 0.14451
 C429 C 0.81493 0.18206 0.09376
 C430 C 0.83404 0.15556 0.07466
 C431 C 0.88241 0.11277 0.08475
 C432 C 0.89548 0.11350 0.03320
 C433 C 0.91833 0.08925 0.01434
 C434 C 0.92880 0.06377 0.04665
 C435 C 0.91494 0.06256 0.09774
 C436 C 0.89194 0.08675 0.11654
 H437 H 0.85332 0.18572 0.21496
 H438 H 0.79508 0.19413 0.06895
 H439 H 0.92863 0.09098 -0.02515
 H440 H 0.92234 0.04316 0.12353
 H441 H 0.82822 0.14746 0.03545
 H442 H 0.88912 0.13338 0.00788
 H443 H 0.88733 0.13967 0.18155
 H444 H 0.88183 0.08520 0.15614
 C445 C 0.35769 0.63713 0.60654
 C446 C 0.35967 0.64559 0.65956
 C447 C 0.34027 0.67199 0.67835
 C448 C 0.31864 0.69048 0.64453
 C449 C 0.31603 0.68194 0.59188
 C450 C 0.33514 0.65537 0.57311
 C451 C 0.38049 0.61043 0.58585
 C452 C 0.39735 0.61282 0.53661
 C453 C 0.42067 0.58873 0.51839
 C454 C 0.42802 0.56179 0.54913
 C455 C 0.41061 0.55900 0.59785
 C456 C 0.38698 0.58298 0.61590
 H457 H 0.34292 0.67856 0.71899
 H458 H 0.29949 0.69606 0.56528
 H459 H 0.43384 0.59170 0.48081
 H460 H 0.41552 0.53842 0.62231
 H461 H 0.33247 0.64927 0.53230
 H462 H 0.39354 0.63381 0.51275
 H463 H 0.37724 0.63250 0.68624
 H464 H 0.37395 0.58007 0.65356
   
