data_POSCAR
  _audit_creation_date              2014-09-24
  _audit_creation_method            'ToBaCCo'
  _symmetry_space_group_name_H-M    'P1'
  _symmetry_Int_Tables_number       1
  _symmetry_cell_setting            triclinic
  loop_
  _symmetry_equiv_pos_as_xyz
 x,y,z
_cell_length_a 45.1023
_cell_length_b 45.4360
_cell_length_c 45.7392
_cell_angle_alpha 90.568600
_cell_angle_beta 89.687500
_cell_angle_gamma 87.630300
loop_
  _atom_site_label
  _atom_site_type_symbol
  _atom_site_fract_x
  _atom_site_fract_y
  _atom_site_fract_z
C1 C 0.27897 0.24764 0.22160
 C2 C 0.27873 0.22580 0.24314
 C3 C 0.25562 0.22536 0.26388
 C4 C 0.23255 0.24709 0.26278
 C5 C 0.23232 0.26896 0.24129
 C6 C 0.25563 0.26905 0.22083
 H7 H 0.29660 0.20916 0.24378
 H8 H 0.21469 0.24700 0.27871
 H9 H 0.25562 0.28589 0.20424
 C10 C 0.71633 -0.24412 0.23194
 C11 C 0.73839 -0.26710 0.23355
 C12 C 0.75937 -0.26849 0.25641
 C13 C 0.75776 -0.24609 0.27800
 C14 C 0.73626 -0.22299 0.27690
 C15 C 0.71581 -0.22212 0.25394
 H16 H 0.73922 -0.28405 0.21687
 H17 H 0.77378 -0.24584 0.29548
 H18 H 0.69892 -0.20452 0.25401
 C19 C 0.74010 0.26519 0.76868
 C20 C 0.74055 0.24312 0.74702
 C21 C 0.76171 0.24264 0.72446
 C22 C 0.78249 0.26481 0.72351
 C23 C 0.78276 0.28734 0.74502
 C24 C 0.76122 0.28706 0.76759
 H25 H 0.72442 0.22613 0.74779
 H26 H 0.79905 0.26362 0.70632
 H27 H 0.76013 0.30423 0.78414
 C28 C 0.27204 -0.24126 0.76692
 C29 C 0.25102 -0.26324 0.76614
 C30 C 0.23008 -0.26476 0.74333
 C31 C 0.23084 -0.24325 0.72124
 C32 C 0.25159 -0.22103 0.72180
 C33 C 0.27211 -0.22026 0.74467
 H34 H 0.25182 -0.27962 0.78312
 H35 H 0.21479 -0.24299 0.70377
 H36 H 0.28823 -0.20324 0.74514
 C37 C 0.72717 -0.24270 0.77601
 C38 C 0.75065 -0.26400 0.77528
 C39 C 0.77220 -0.26458 0.75270
 C40 C 0.76950 -0.24285 0.73085
 C41 C 0.74627 -0.22130 0.73141
 C42 C 0.72520 -0.22145 0.75403
 H43 H 0.75133 -0.28061 0.79205
 H44 H 0.78590 -0.24189 0.71360
 H45 H 0.70717 -0.20494 0.75452
 C46 C 0.27982 0.23829 0.77241
 C47 C 0.27911 0.21852 0.74865
 C48 C 0.25671 0.22115 0.72749
 C49 C 0.23477 0.24389 0.73039
 C50 C 0.23505 0.26384 0.75406
 C51 C 0.25767 0.26084 0.77493
 H52 H 0.29609 0.20105 0.74660
 H53 H 0.21743 0.24610 0.71418
 H54 H 0.25808 0.27617 0.79320
 C55 C 0.26753 -0.26241 0.22981
 C56 C 0.24523 -0.28322 0.23217
 C57 C 0.22362 -0.28108 0.25442
 C58 C 0.22440 -0.25797 0.27490
 C59 C 0.24633 -0.23705 0.27332
 C60 C 0.26761 -0.23934 0.25078
 H61 H 0.24384 -0.30082 0.21623
 H62 H 0.20786 -0.25625 0.29216
 H63 H 0.28471 -0.22336 0.25035
 C64 C 0.73269 0.24482 0.22887
 C65 C 0.73327 0.22530 0.25239
 C66 C 0.75606 0.22591 0.27317
 C67 C 0.77792 0.24693 0.27046
 C68 C 0.77740 0.26687 0.24714
 C69 C 0.75484 0.26537 0.22619
 H70 H 0.71637 0.20910 0.25393
 H71 H 0.79538 0.24778 0.28657
 H72 H 0.75387 0.28078 0.20826
 O73 O 0.25638 0.02875 0.46288
 O74 O 0.25573 -0.02730 0.52042
 O75 O 0.25524 -0.02859 0.46354
 O76 O 0.25636 0.02991 0.51988
 O77 O 0.20743 0.03259 0.52032
 O78 O 0.20631 -0.02576 0.46403
 O79 O 0.20679 -0.02458 0.52091
 O80 O 0.20745 0.03147 0.46327
 Cu81 Cu 0.26083 0.00045 0.49160
 Cu82 Cu 0.20210 0.00374 0.49215
 C83 C 0.23204 0.03969 0.45318
 C84 C 0.23117 -0.03553 0.53056
 C85 C 0.23056 -0.03724 0.45419
 C86 C 0.23206 0.04116 0.52987
 O87 O 0.72280 0.03438 0.53398
 O88 O 0.72506 -0.02380 0.47731
 O89 O 0.72615 -0.02307 0.53429
 O90 O 0.72189 0.03353 0.47717
 O91 O 0.77076 0.03410 0.47602
 O92 O 0.77500 -0.02225 0.53320
 O93 O 0.77392 -0.02315 0.47625
 O94 O 0.77166 0.03510 0.53283
 Cu95 Cu 0.71908 0.00515 0.50583
 Cu96 Cu 0.77773 0.00599 0.50449
 C97 C 0.74684 0.04482 0.54301
 C98 C 0.74987 -0.03338 0.46700
 C99 C 0.75133 -0.03234 0.54354
 C100 C 0.74563 0.04351 0.46682
 O101 O 0.48209 0.25966 0.02610
 O102 O 0.54053 0.26304 -0.03027
 O103 O 0.48275 0.26377 -0.03062
 O104 O 0.53957 0.25941 0.02666
 O105 O 0.54216 0.21095 0.02212
 O106 O 0.48390 0.21529 -0.03405
 O107 O 0.54167 0.21460 -0.03438
 O108 O 0.48423 0.21116 0.02278
 Cu109 Cu 0.51108 0.26633 -0.00169
 Cu110 Cu 0.51311 0.20813 -0.00625
 C111 C 0.47326 0.23481 0.03420
 C112 C 0.55108 0.23936 -0.04201
 C113 C 0.47346 0.24032 -0.04206
 C114 C 0.55069 0.23448 0.03406
 O115 O 0.52319 0.71634 0.02911
 O116 O 0.46658 0.71694 -0.02844
 O117 O 0.52432 0.71554 -0.02776
 O118 O 0.46541 0.71857 0.02858
 O119 O 0.46507 0.76711 0.02798
 O120 O 0.52376 0.76409 -0.02811
 O121 O 0.46596 0.76549 -0.02901
 O122 O 0.52276 0.76489 0.02876
 Cu123 Cu 0.49488 0.71198 0.00042
 Cu124 Cu 0.49431 0.77026 -0.00016
 C125 C 0.53272 0.74046 0.03880
 C126 C 0.45661 0.74125 -0.03867
 C127 C 0.53416 0.73936 -0.03752
 C128 C 0.45524 0.74342 0.03800
 O129 O 0.02393 0.47234 0.27518
 O130 O -0.03591 0.52981 0.27137
 O131 O -0.03374 0.47261 0.27543
 O132 O 0.02191 0.52944 0.27126
 O133 O 0.02199 0.52572 0.22315
 O134 O -0.03341 0.46857 0.22734
 O135 O -0.03581 0.52579 0.22328
 O136 O 0.02423 0.46855 0.22707
 Cu137 Cu -0.00600 0.50147 0.27813
 Cu138 Cu -0.00574 0.49681 0.22039
 C139 C 0.03432 0.46059 0.25176
 C140 C -0.04615 0.53762 0.24668
 C141 C -0.04301 0.46075 0.25213
 C142 C 0.03154 0.53728 0.24650
 O143 O 0.03810 0.53604 0.73621
 O144 O -0.01930 0.48049 0.73647
 O145 O -0.01961 0.53769 0.73857
 O146 O 0.03839 0.47869 0.73304
 O147 O 0.04050 0.47652 0.78113
 O148 O -0.01750 0.53604 0.78669
 O149 O -0.01717 0.47892 0.78460
 O150 O 0.04031 0.53396 0.78431
 Cu151 Cu 0.00923 0.50841 0.73125
 Cu152 Cu 0.01183 0.50619 0.78900
 C153 C 0.04897 0.54456 0.76029
 C154 C -0.02816 0.47031 0.76064
 C155 C -0.02860 0.54693 0.76350
 C156 C 0.04929 0.46736 0.75607
 C157 C 0.31563 0.27507 0.19203
 C158 C 0.33827 0.27577 0.17111
 C159 C 0.34928 0.24975 0.15768
 C160 C 0.33751 0.22277 0.16559
 C161 C 0.31484 0.22203 0.18655
 C162 C 0.30355 0.24821 0.19988
 N163 N 0.37209 0.25145 0.13592
 N164 N 0.38320 0.22876 0.12273
 C165 C 0.40582 0.23078 0.10079
 C166 C 0.41741 0.20494 0.08742
 C167 C 0.43935 0.20617 0.06581
 C168 C 0.45006 0.23342 0.05714
 C169 C 0.43836 0.25935 0.07063
 C170 C 0.41646 0.25806 0.09227
 H171 H 0.30771 0.29555 0.20221
 H172 H 0.34724 0.29668 0.16527
 H173 H 0.34563 0.20235 0.15546
 H174 H 0.30576 0.20104 0.19191
 H175 H 0.40938 0.18378 0.09378
 H176 H 0.44788 0.18580 0.05585
 H177 H 0.44612 0.28067 0.06449
 H178 H 0.40783 0.27838 0.10225
 C179 C 0.68191 0.78378 0.19948
 C180 C 0.66087 0.78458 0.17715
 C181 C 0.65224 0.75861 0.16373
 C182 C 0.66509 0.73159 0.17276
 C183 C 0.68624 0.73065 0.19499
 C184 C 0.69509 0.75676 0.20899
 N185 N 0.63034 0.76025 0.14116
 N186 N 0.62090 0.73731 0.12870
 C187 C 0.59895 0.73877 0.10618
 C188 C 0.58914 0.71250 0.09418
 C189 C 0.56762 0.71303 0.07230
 C190 C 0.55556 0.73999 0.06196
 C191 C 0.56555 0.76639 0.07400
 C192 C 0.58704 0.76580 0.09595
 H193 H 0.68850 0.80466 0.20833
 H194 H 0.65132 0.80560 0.17018
 H195 H 0.65860 0.71112 0.16285
 H196 H 0.69442 0.70915 0.20191
 H197 H 0.59816 0.69154 0.10187
 H198 H 0.56047 0.69230 0.06349
 H199 H 0.55670 0.78750 0.06652
 H200 H 0.59429 0.78643 0.10489
 C201 C 0.70292 0.29178 -0.19824
 C202 C 0.68122 0.29168 -0.17627
 C203 C 0.67362 0.26524 -0.16331
 C204 C 0.68825 0.23877 -0.17238
 C205 C 0.70999 0.23884 -0.19425
 C206 C 0.71747 0.26533 -0.20756
 N207 N 0.65091 0.26577 -0.14125
 N208 N 0.64204 0.24221 -0.12988
 C209 C 0.61933 0.24224 -0.10787
 C210 C 0.61006 0.21524 -0.09754
 C211 C 0.58786 0.21431 -0.07620
 C212 C 0.57456 0.24050 -0.06469
 C213 C 0.58400 0.26765 -0.07504
 C214 C 0.60617 0.26853 -0.09650
 H215 H 0.70790 0.31249 -0.20830
 H216 H 0.67008 0.31222 -0.16951
 H217 H 0.68291 0.21804 -0.16259
 H218 H 0.72111 0.21817 -0.20061
 H219 H 0.62005 0.19484 -0.10613
 H220 H 0.58117 0.19304 -0.06869
 H221 H 0.57420 0.28821 -0.06663
 H222 H 0.61301 0.28969 -0.10415
 C223 C 0.30131 0.78650 -0.19605
 C224 C 0.32214 0.78723 -0.17354
 C225 C 0.33613 0.76116 -0.16365
 C226 C 0.32910 0.73418 -0.17665
 C227 C 0.30834 0.73342 -0.19919
 C228 C 0.29415 0.75957 -0.20913
 N229 N 0.35737 0.76265 -0.14055
 N230 N 0.37007 0.73960 -0.13002
 C231 C 0.39146 0.74073 -0.10704
 C232 C 0.40368 0.71428 -0.09618
 C233 C 0.42473 0.71444 -0.07390
 C234 C 0.43404 0.74121 -0.06208
 C235 C 0.42169 0.76780 -0.07302
 C236 C 0.40054 0.76759 -0.09530
 H237 H 0.29052 0.80697 -0.20298
 H238 H 0.32732 0.80815 -0.16368
 H239 H 0.33973 0.71372 -0.16951
 H240 H 0.30369 0.71239 -0.20912
 H241 H 0.39687 0.69345 -0.10507
 H242 H 0.43380 0.69357 -0.06602
 H243 H 0.42837 0.78878 -0.06439
 H244 H 0.39141 0.78834 -0.10336
 C245 C 0.19548 0.30031 0.21323
 C246 C 0.17260 0.32196 0.21214
 C247 C 0.16160 0.33542 0.23783
 C248 C 0.17370 0.32689 0.26486
 C249 C 0.19659 0.30522 0.26600
 C250 C 0.20778 0.29174 0.24018
 N251 N 0.13830 0.35770 0.23582
 N252 N 0.12723 0.37088 0.25827
 C253 C 0.10401 0.39322 0.25611
 C254 C 0.09271 0.40665 0.28170
 C255 C 0.07007 0.42856 0.28036
 C256 C 0.05834 0.43743 0.25325
 C257 C 0.06977 0.42389 0.22755
 C258 C 0.09239 0.40198 0.22895
 H259 H 0.20335 0.29006 0.19301
 H260 H 0.16339 0.32828 0.19119
 H261 H 0.16560 0.33704 0.28504
 H262 H 0.20585 0.29934 0.28704
 H263 H 0.10148 0.40010 0.30276
 H264 H 0.06177 0.43853 0.30055
 H265 H 0.06124 0.43019 0.20633
 H266 H 0.10077 0.39193 0.20883
 C267 C 0.19666 0.70320 0.71591
 C268 C 0.17593 0.68118 0.71529
 C269 C 0.16677 0.66809 0.74111
 C270 C 0.17866 0.67726 0.76780
 C271 C 0.19944 0.69923 0.76856
 C272 C 0.20895 0.71279 0.74261
 N273 N 0.14534 0.64570 0.73965
 N274 N 0.13609 0.63299 0.76242
 C275 C 0.11457 0.61069 0.76118
 C276 C 0.10532 0.59804 0.78726
 C277 C 0.08413 0.57646 0.78698
 C278 C 0.07177 0.56711 0.76046
 C279 C 0.08123 0.57976 0.73423
 C280 C 0.10244 0.60138 0.73457
 H281 H 0.20377 0.71164 0.69512
 H282 H 0.16710 0.67411 0.69452
 H283 H 0.17170 0.66765 0.78816
 H284 H 0.20689 0.70625 0.78984
 H285 H 0.11452 0.60502 0.80790
 H286 H 0.07736 0.56719 0.80756
 H287 H 0.07215 0.57306 0.71345
 H288 H 0.10925 0.61084 0.71410
 C289 C -0.20610 0.69919 0.28462
 C290 C -0.18398 0.67680 0.28579
 C291 C -0.17337 0.66292 0.26024
 C292 C -0.18534 0.67153 0.23326
 C293 C -0.20755 0.69387 0.23194
 C294 C -0.21837 0.70837 0.25762
 N295 N -0.15036 0.64036 0.26234
 N296 N -0.13929 0.62710 0.23994
 C297 C -0.11614 0.60467 0.24218
 C298 C -0.10480 0.59120 0.21663
 C299 C -0.08208 0.56939 0.21803
 C300 C -0.07028 0.56066 0.24516
 C301 C -0.08178 0.57422 0.27082
 C302 C -0.10450 0.59603 0.26937
 H303 H -0.21419 0.70836 0.30521
 H304 H -0.17512 0.67013 0.30678
 H305 H -0.17731 0.66124 0.21312
 H306 H -0.21502 0.70049 0.21048
 H307 H -0.11359 0.59767 0.19555
 H308 H -0.07374 0.55939 0.19786
 H309 H -0.07321 0.56801 0.29205
 H310 H -0.11289 0.60613 0.28946
 C311 C -0.18271 0.31770 0.71737
 C312 C -0.16118 0.33893 0.71659
 C313 C -0.15186 0.35237 0.74232
 C314 C -0.16463 0.34461 0.76905
 C315 C -0.18631 0.32352 0.76995
 C316 C -0.19571 0.30937 0.74411
 N317 N -0.12930 0.37361 0.74074
 N318 N -0.11878 0.38551 0.76353
 C319 C -0.09618 0.40669 0.76213
 C320 C -0.08495 0.41785 0.78823
 C321 C -0.06280 0.43844 0.78776
 C322 C -0.05152 0.44834 0.76103
 C323 C -0.06290 0.43713 0.73479
 C324 C -0.08501 0.41644 0.73532
 H325 H -0.18976 0.30876 0.69666
 H326 H -0.15172 0.34497 0.69579
 H327 H -0.15766 0.35462 0.78932
 H328 H -0.19447 0.31751 0.79125
 H329 H -0.09339 0.41051 0.80902
 H330 H -0.05458 0.44666 0.80835
 H331 H -0.05469 0.44430 0.71385
 H332 H -0.09337 0.40813 0.71483
 C333 C 0.28202 0.19332 0.30084
 C334 C 0.28184 0.17195 0.32262
 C335 C 0.25534 0.15927 0.33079
 C336 C 0.22886 0.16806 0.31672
 C337 C 0.22900 0.18935 0.29487
 C338 C 0.25557 0.20233 0.28675
 N339 N 0.25591 0.13767 0.35342
 N340 N 0.23239 0.12632 0.36283
 C341 C 0.23289 0.10471 0.38543
 C342 C 0.20602 0.09412 0.39546
 C343 C 0.20568 0.07307 0.41753
 C344 C 0.23235 0.06212 0.42990
 C345 C 0.25934 0.07277 0.41973
 C346 C 0.25963 0.09391 0.39773
 H347 H 0.30277 0.20315 0.29539
 H348 H 0.30239 0.16540 0.33334
 H349 H 0.20809 0.15845 0.32253
 H350 H 0.20835 0.19545 0.28414
 H351 H 0.18527 0.10227 0.38615
 H352 H 0.18452 0.06531 0.42482
 H353 H 0.28027 0.06481 0.42880
 H354 H 0.28071 0.10173 0.39032
 C355 C 0.78967 0.20513 0.69308
 C356 C 0.79036 0.18227 0.67239
 C357 C 0.76402 0.17238 0.66051
 C358 C 0.73676 0.18575 0.66946
 C359 C 0.73603 0.20867 0.69011
 C360 C 0.76248 0.21860 0.70219
 N361 N 0.76558 0.14880 0.63948
 N362 N 0.74247 0.13804 0.62853
 C363 C 0.74412 0.11453 0.60740
 C364 C 0.71780 0.10338 0.59673
 C365 C 0.71862 0.08059 0.57595
 C366 C 0.74592 0.06860 0.56541
 C367 C 0.77236 0.07981 0.57625
 C368 C 0.77149 0.10256 0.59708
 H369 H 0.81038 0.21195 0.70231
 H370 H 0.81149 0.17209 0.66572
 H371 H 0.71609 0.17856 0.66049
 H372 H 0.71478 0.21883 0.69642
 H373 H 0.69658 0.11243 0.60453
 H374 H 0.69786 0.07248 0.56803
 H375 H 0.79375 0.07107 0.56860
 H376 H 0.79216 0.11082 0.60499
 C377 C 0.27866 -0.18989 0.68620
 C378 C 0.27877 -0.16879 0.66417
 C379 C 0.25211 -0.15592 0.65401
 C380 C 0.22513 -0.16438 0.66622
 C381 C 0.22497 -0.18547 0.68826
 C382 C 0.25174 -0.19851 0.69847
 N383 N 0.25305 -0.13442 0.63137
 N384 N 0.22962 -0.12212 0.62090
 C385 C 0.23058 -0.10059 0.59827
 C386 C 0.20390 -0.08817 0.58767
 C387 C 0.20402 -0.06706 0.56564
 C388 C 0.23097 -0.05799 0.55381
 C389 C 0.25776 -0.07055 0.56450
 C390 C 0.25759 -0.09166 0.58652
 H391 H 0.29960 -0.19977 0.69337
 H392 H 0.29969 -0.16250 0.65490
 H393 H 0.20421 -0.15466 0.65882
 H394 H 0.20392 -0.19133 0.69757
 H395 H 0.18295 -0.09487 0.59655
 H396 H 0.18301 -0.05783 0.55791
 H397 H 0.27889 -0.06406 0.55587
 H398 H 0.27852 -0.10094 0.59435
 C399 C 0.70787 -0.18987 0.31240
 C400 C 0.70690 -0.16817 0.33431
 C401 C 0.73304 -0.15594 0.34417
 C402 C 0.76035 -0.16559 0.33173
 C403 C 0.76136 -0.18726 0.30981
 C404 C 0.73513 -0.19969 0.29994
 N405 N 0.73126 -0.13389 0.36678
 N406 N 0.75425 -0.12229 0.37707
 C407 C 0.75257 -0.10022 0.39966
 C408 C 0.77884 -0.08865 0.40998
 C409 C 0.77802 -0.06700 0.43193
 C410 C 0.75077 -0.05653 0.44395
 C411 C 0.72439 -0.06826 0.43357
 C412 C 0.72526 -0.08992 0.41162
 H413 H 0.68735 -0.19928 0.30550
 H414 H 0.68573 -0.16096 0.34376
 H415 H 0.78087 -0.15639 0.33890
 H416 H 0.78264 -0.19410 0.30036
 H417 H 0.80001 -0.09642 0.40093
 H418 H 0.79874 -0.05844 0.43941
 H419 H 0.70305 -0.06067 0.44235
 H420 H 0.70463 -0.09854 0.40400
 C421 C 0.69426 0.78383 -0.18704
 C422 C 0.67247 0.78389 -0.16521
 C423 C 0.66048 0.75751 -0.15630
 C424 C 0.67068 0.73084 -0.16939
 C425 C 0.69248 0.73073 -0.19124
 C426 C 0.70445 0.75726 -0.20037
 N427 N 0.63784 0.75853 -0.13420
 N428 N 0.62603 0.73546 -0.12480
 C429 C 0.60320 0.73687 -0.10287
 C430 C 0.59151 0.71070 -0.09295
 C431 C 0.56909 0.71140 -0.07167
 C432 C 0.55793 0.73842 -0.06001
 C433 C 0.56974 0.76468 -0.07005
 C434 C 0.59217 0.76393 -0.09125
 H435 H 0.70331 0.80455 -0.19334
 H436 H 0.66483 0.80456 -0.15523
 H437 H 0.66166 0.71015 -0.16291
 H438 H 0.69960 0.70997 -0.20138
 H439 H 0.59981 0.68971 -0.10175
 H440 H 0.56047 0.69079 -0.06441
 H441 H 0.56167 0.78586 -0.06152
 H442 H 0.60080 0.78449 -0.09858
 C443 C 0.31332 0.20769 -0.19509
 C444 C 0.33565 0.20519 -0.17406
 C445 C 0.34872 0.23035 -0.16301
 C446 C 0.33931 0.25820 -0.17337
 C447 C 0.31704 0.26073 -0.19440
 C448 C 0.30371 0.23551 -0.20545
 N449 N 0.37134 0.22708 -0.14127
 N450 N 0.38343 0.24922 -0.12986
 C451 C 0.40601 0.24631 -0.10807
 C452 C 0.41757 0.27182 -0.09612
 C453 C 0.43948 0.26989 -0.07469
 C454 C 0.45030 0.24227 -0.06485
 C455 C 0.43870 0.21663 -0.07698
 C456 C 0.41671 0.21861 -0.09840
 H457 H 0.30325 0.18789 -0.20290
 H458 H 0.34266 0.18362 -0.16621
 H459 H 0.34917 0.27799 -0.16526
 H460 H 0.31045 0.28241 -0.20226
 H461 H 0.40949 0.29327 -0.10342
 H462 H 0.44795 0.29006 -0.06584
 H463 H 0.44655 0.19503 -0.06988
 H464 H 0.40810 0.19856 -0.10735
 C465 C 0.29766 0.70798 0.19398
 C466 C 0.31895 0.70598 0.17164
 C467 C 0.33225 0.73118 0.16155
 C468 C 0.32409 0.75862 0.17413
 C469 C 0.30293 0.76074 0.19656
 C470 C 0.28917 0.73545 0.20702
 N471 N 0.35401 0.72834 0.13864
 N472 N 0.36621 0.75064 0.12799
 C473 C 0.38814 0.74814 0.10525
 C474 C 0.39825 0.72066 0.09386
 C475 C 0.41999 0.71908 0.07190
 C476 C 0.43192 0.74491 0.06095
 C477 C 0.42155 0.77232 0.07237
 C478 C 0.39990 0.77384 0.09434
 H479 H 0.28897 0.68761 0.20165
 H480 H 0.32526 0.68463 0.16228
 H481 H 0.33392 0.77852 0.16654
 H482 H 0.29667 0.78257 0.20464
 H483 H 0.38948 0.70046 0.10198
 H484 H 0.42750 0.69764 0.06356
 H485 H 0.43028 0.79264 0.06447
 H486 H 0.39228 0.79513 0.10297
 C487 C 0.67917 0.24988 0.21576
 C488 C 0.65649 0.24965 0.19507
 C489 C 0.66295 0.24265 0.16579
 C490 C 0.69253 0.23633 0.15722
 C491 C 0.71531 0.23730 0.17776
 C492 C 0.70873 0.24392 0.20717
 N493 N 0.63930 0.24285 0.14507
 N494 N 0.64172 0.22927 0.12066
 C495 C 0.61843 0.23057 0.09953
 C496 C 0.61779 0.20884 0.07767
 C497 C 0.59539 0.20973 0.05664
 C498 C 0.57381 0.23293 0.05673
 C499 C 0.57470 0.25492 0.07848
 C500 C 0.59665 0.25359 0.09992
 H501 H 0.67377 0.25516 0.23836
 H502 H 0.63379 0.25470 0.20188
 H503 H 0.69802 0.23117 0.13463
 H504 H 0.73804 0.23265 0.17082
 H505 H 0.63455 0.19108 0.07708
 H506 H 0.59527 0.19264 0.03997
 H507 H 0.55827 0.27299 0.07904
 H508 H 0.59690 0.27076 0.11648
 C509 C -0.19048 0.70470 0.72519
 C510 C -0.16729 0.68337 0.72445
 C511 C -0.15693 0.67043 0.75018
 C512 C -0.17014 0.67897 0.77693
 C513 C -0.19346 0.70022 0.77781
 C514 C -0.20416 0.71366 0.75192
 N515 N -0.13314 0.64860 0.74842
 N516 N -0.12200 0.63627 0.77093
 C517 C -0.09835 0.61431 0.76868
 C518 C -0.08668 0.60181 0.79421
 C519 C -0.06384 0.58005 0.79266
 C520 C -0.05234 0.57039 0.76540
 C521 C -0.06404 0.58312 0.73981
 C522 C -0.08680 0.60488 0.74141
 H523 H -0.19831 0.71306 0.70445
 H524 H -0.15745 0.67672 0.70364
 H525 H -0.16235 0.66936 0.79720
 H526 H -0.20207 0.70679 0.79910
 H527 H -0.09540 0.60889 0.81536
 H528 H -0.05534 0.57067 0.81276
 H529 H -0.05568 0.57621 0.71848
 H530 H -0.09543 0.61419 0.72134
 C531 C -0.18756 0.29664 0.21781
 C532 C -0.16669 0.31846 0.21585
 C533 C -0.15788 0.33361 0.24090
 C534 C -0.17013 0.32661 0.26815
 C535 C -0.19100 0.30482 0.27016
 C536 C -0.19999 0.28962 0.24501
 N537 N -0.13669 0.35605 0.23810
 N538 N -0.12766 0.37044 0.26011
 C539 C -0.10658 0.39299 0.25749
 C540 C -0.09723 0.40731 0.28281
 C541 C -0.07662 0.42937 0.28111
 C542 C -0.06504 0.43756 0.25390
 C543 C -0.07458 0.42320 0.22845
 C544 C -0.09515 0.40108 0.23021
 H545 H -0.19379 0.28509 0.19810
 H546 H -0.15735 0.32360 0.19473
 H547 H -0.16376 0.33807 0.28785
 H548 H -0.20049 0.30023 0.29134
 H549 H -0.10591 0.40128 0.30395
 H550 H -0.06977 0.43999 0.30112
 H551 H -0.06608 0.42896 0.20717
 H552 H -0.10209 0.39035 0.21030
 C553 C 0.19944 0.29542 0.78442
 C554 C 0.17804 0.31843 0.78720
 C555 C 0.16867 0.33434 0.76267
 C556 C 0.18090 0.32689 0.73512
 C557 C 0.20233 0.30390 0.73230
 C558 C 0.21190 0.28794 0.75694
 N559 N 0.14687 0.35796 0.76635
 N560 N 0.13703 0.37290 0.74483
 C561 C 0.11531 0.39659 0.74833
 C562 C 0.10473 0.41112 0.72345
 C563 C 0.08337 0.43417 0.72596
 C564 C 0.07226 0.44320 0.75356
 C565 C 0.08309 0.42868 0.77859
 C566 C 0.10440 0.40553 0.77601
 H567 H 0.20604 0.28329 0.80374
 H568 H 0.16871 0.32389 0.80853
 H569 H 0.17408 0.33893 0.71582
 H570 H 0.21178 0.29894 0.71091
 H571 H 0.11300 0.40446 0.70201
 H572 H 0.07554 0.44490 0.70625
 H573 H 0.07497 0.43507 0.80015
 H574 H 0.11230 0.39464 0.79560
 C575 C 0.19156 0.68565 0.28322
 C576 C 0.16945 0.66504 0.28477
 C577 C 0.15550 0.65545 0.25936
 C578 C 0.16383 0.66684 0.23221
 C579 C 0.18588 0.68749 0.23063
 C580 C 0.20007 0.69708 0.25611
 N581 N 0.13309 0.63415 0.26172
 N582 N 0.12024 0.62379 0.23939
 C583 C 0.09787 0.60245 0.24174
 C584 C 0.08560 0.59113 0.21617
 C585 C 0.06398 0.57001 0.21766
 C586 C 0.05417 0.55991 0.24488
 C587 C 0.06641 0.57149 0.27055
 C588 C 0.08810 0.59253 0.26901
 H589 H 0.20230 0.69234 0.30319
 H590 H 0.16327 0.65638 0.30581
 H591 H 0.15326 0.65987 0.21226
 H592 H 0.19160 0.69623 0.20949
 H593 H 0.09294 0.59862 0.19503
 H594 H 0.05499 0.56158 0.19748
 H595 H 0.05936 0.56417 0.29185
 H596 H 0.09723 0.60098 0.28911
 C597 C 0.71652 -0.19029 0.69607
 C598 C 0.71452 -0.16876 0.67446
 C599 C 0.73995 -0.15507 0.66478
 C600 C 0.76758 -0.16311 0.67705
 C601 C 0.76961 -0.18459 0.69869
 C602 C 0.74411 -0.19845 0.70842
 N603 N 0.73712 -0.13314 0.64258
 N604 N 0.75949 -0.12041 0.63235
 C605 C 0.75682 -0.09843 0.61019
 C606 C 0.78254 -0.08604 0.59951
 C607 C 0.78080 -0.06458 0.57784
 C608 C 0.75314 -0.05506 0.56652
 C609 C 0.72729 -0.06751 0.57736
 C610 C 0.72909 -0.08903 0.59899
 H611 H 0.69655 -0.20081 0.70286
 H612 H 0.69312 -0.16280 0.66513
 H613 H 0.78756 -0.15274 0.67003
 H614 H 0.79110 -0.19007 0.70809
 H615 H 0.80403 -0.09310 0.60799
 H616 H 0.80113 -0.05544 0.57000
 H617 H 0.70566 -0.06067 0.56909
 H618 H 0.70887 -0.09827 0.60693
 C619 C 0.27423 -0.20469 0.30746
 C620 C 0.27494 -0.18191 0.32818
 C621 C 0.24871 -0.16693 0.33721
 C622 C 0.22155 -0.17498 0.32521
 C623 C 0.22079 -0.19773 0.30447
 C624 C 0.24713 -0.21285 0.29535
 N625 N 0.25027 -0.14375 0.35854
 N626 N 0.22719 -0.12963 0.36810
 C627 C 0.22867 -0.10647 0.38945
 C628 C 0.20227 -0.09252 0.39947
 C629 C 0.20285 -0.06999 0.42045
 C630 C 0.22999 -0.06095 0.43176
 C631 C 0.25652 -0.07493 0.42154
 C632 C 0.25588 -0.09752 0.40059
 H633 H 0.29483 -0.21618 0.30120
 H634 H 0.29600 -0.17598 0.33733
 H635 H 0.20096 -0.16366 0.33178
 H636 H 0.19964 -0.20327 0.29528
 H637 H 0.18117 -0.09921 0.39103
 H638 H 0.18202 -0.05967 0.42782
 H639 H 0.27778 -0.06850 0.42981
 H640 H 0.27662 -0.10796 0.39315
 C641 C 0.78459 0.19112 0.30595
 C642 C 0.78572 0.17037 0.32829
 C643 C 0.75972 0.16235 0.34239
 C644 C 0.73238 0.17558 0.33406
 C645 C 0.73121 0.19641 0.31176
 C646 C 0.75730 0.20434 0.29737
 N647 N 0.76171 0.14063 0.36483
 N648 N 0.73889 0.13136 0.37773
 C649 C 0.74109 0.10952 0.40007
 C650 C 0.71507 0.09953 0.41267
 C651 C 0.71646 0.07805 0.43436
 C652 C 0.74404 0.06626 0.44387
 C653 C 0.77015 0.07644 0.43123
 C654 C 0.76871 0.09784 0.40950
 H655 H 0.80502 0.19640 0.29502
 H656 H 0.80691 0.16026 0.33447
 H657 H 0.71197 0.16983 0.34474
 H658 H 0.70991 0.20648 0.30594
 H659 H 0.69366 0.10836 0.40559
 H660 H 0.69595 0.07072 0.44368
 H661 H 0.79173 0.06782 0.43805
 H662 H 0.78915 0.10523 0.40011
 C663 C 0.28274 0.19091 0.68807
 C664 C 0.28235 0.17082 0.66474
 C665 C 0.25558 0.15965 0.65525
 C666 C 0.22898 0.16890 0.66936
 C667 C 0.22934 0.18894 0.69274
 C668 C 0.25624 0.20013 0.70241
 N669 N 0.25606 0.13874 0.63159
 N670 N 0.23245 0.12825 0.62144
 C671 C 0.23294 0.10701 0.59807
 C672 C 0.20604 0.09691 0.58769
 C673 C 0.20570 0.07573 0.56534
 C674 C 0.23240 0.06419 0.55299
 C675 C 0.25942 0.07454 0.56333
 C676 C 0.25971 0.09578 0.58566
 H677 H 0.30377 0.19943 0.69470
 H678 H 0.30298 0.16392 0.65400
 H679 H 0.20799 0.16048 0.66251
 H680 H 0.20861 0.19530 0.70356
 H681 H 0.18527 0.10538 0.59710
 H682 H 0.18451 0.06822 0.55791
 H683 H 0.28037 0.06612 0.55429
 H684 H 0.28081 0.10323 0.59332
   
