data_POSCAR
  _audit_creation_date              2014-09-24
  _audit_creation_method            'ToBaCCo'
  _symmetry_space_group_name_H-M    'P1'
  _symmetry_Int_Tables_number       1
  _symmetry_cell_setting            triclinic
  loop_
  _symmetry_equiv_pos_as_xyz
 x,y,z
_cell_length_a 35.5162
_cell_length_b 39.6919
_cell_length_c 49.2689
_cell_angle_alpha 88.832000
_cell_angle_beta 88.896000
_cell_angle_gamma 88.806500
loop_
  _atom_site_label
  _atom_site_type_symbol
  _atom_site_fract_x
  _atom_site_fract_y
  _atom_site_fract_z
C1 C 1.20463 0.24419 0.28562
 H2 H 1.20605 0.21708 0.28435
 C3 C 1.18333 0.25900 0.30646
 H4 H 1.16780 0.24307 0.32064
 C5 C 1.22504 0.29766 0.27000
 H6 H 1.24206 0.31278 0.25636
 C7 C 1.20405 0.31354 0.29051
 H8 H 1.20454 0.34069 0.29139
 N9 N 1.22469 0.26354 0.26767
 C10 C 1.22843 0.22615 0.18909
 H11 H 1.24944 0.24366 0.18209
 C12 C 1.20566 0.21144 0.17010
 H13 H 1.20909 0.21824 0.14880
 C14 C 1.19880 0.19532 0.22486
 H15 H 1.19627 0.18887 0.24617
 C16 C 1.17584 0.17949 0.20642
 H17 H 1.15535 0.16160 0.21391
 Zn18 Zn 1.25507 0.24099 0.24109
 N19 N 1.22430 0.21846 0.21603
 C20 C 1.28538 0.17595 0.25573
 N21 N 1.28579 0.20961 0.26027
 C22 C 1.30640 0.22224 0.28048
 C23 C 1.32739 0.20082 0.29741
 C24 C 1.30567 0.15346 0.27240
 C25 C 1.26839 0.29825 0.20770
 C26 C 1.28936 0.32091 0.19190
 C27 C 1.34586 0.29010 0.20462
 C28 C 1.32372 0.26811 0.22030
 N29 N 1.28566 0.27246 0.22152
 H30 H 1.26874 0.16641 0.23955
 H31 H 1.30576 0.24910 0.28383
 H32 H 1.34224 0.21222 0.31364
 H33 H 1.30436 0.12668 0.26874
 H34 H 1.23799 0.30077 0.20847
 H35 H 1.27405 0.34046 0.18100
 H36 H 1.37609 0.28580 0.20373
 H37 H 1.33699 0.24715 0.23100
 C38 C 1.17910 0.18777 0.17865
 C39 C 1.18306 0.29407 0.30929
 C40 C 1.32888 0.31694 0.18997
 C41 C 1.32697 0.16564 0.29376
 C42 C 0.70945 -0.25143 0.29624
 H43 H 0.70849 -0.27859 0.29513
 C44 C 0.68845 -0.23467 0.31620
 H45 H 0.67133 -0.24917 0.33041
 C46 C 0.73326 -0.19977 0.27908
 H47 H 0.75122 -0.18633 0.26482
 C48 C 0.71270 -0.18192 0.29880
 H49 H 0.71544 -0.15490 0.29921
 N50 N 0.73082 -0.23386 0.27792
 C51 C 0.73758 -0.30142 0.20950
 H52 H 0.76781 -0.30403 0.20688
 C53 C 0.71379 -0.31817 0.19231
 H54 H 0.72622 -0.33316 0.17626
 C55 C 0.68518 -0.27705 0.23288
 H56 H 0.67411 -0.26050 0.24836
 C57 C 0.66035 -0.29324 0.21608
 H58 H 0.63028 -0.28928 0.21899
 Zn59 Zn 0.75743 -0.25982 0.25170
 N60 N 0.72303 -0.28178 0.22956
 C61 C 0.78106 -0.32554 0.26927
 N62 N 0.78718 -0.29197 0.27107
 C63 C 0.81275 -0.28018 0.28849
 C64 C 0.83332 -0.30240 0.30514
 C65 C 0.80099 -0.34869 0.28550
 C66 C 0.77021 -0.20825 0.21323
 C67 C 0.79045 -0.18911 0.19408
 C68 C 0.84652 -0.22126 0.20577
 C69 C 0.82522 -0.23949 0.22494
 N70 N 0.78777 -0.23269 0.22832
 H71 H 0.75997 -0.33445 0.25582
 H72 H 0.81665 -0.25330 0.28979
 H73 H 0.85301 -0.29163 0.31875
 H74 H 0.79516 -0.37527 0.28393
 H75 H 0.74016 -0.20404 0.21575
 H76 H 0.77499 -0.17050 0.18225
 H77 H 0.87622 -0.22746 0.20322
 H78 H 0.83849 -0.25967 0.23655
 C79 C 0.67453 -0.31446 0.19574
 C80 C 0.68956 -0.19945 0.31760
 C81 C 0.82935 -0.19557 0.18995
 C82 C 0.82725 -0.33739 0.30410
 C83 C 0.71842 0.26882 -0.19425
 H84 H 0.73719 0.24829 -0.18844
 C85 C 0.70366 0.28993 -0.17425
 H86 H 0.71098 0.28515 -0.15326
 C87 C 0.68745 0.30097 -0.22849
 H88 H 0.68244 0.30594 -0.24979
 C89 C 0.67173 0.32260 -0.20903
 H90 H 0.65453 0.34390 -0.21567
 N91 N 0.71039 0.27466 -0.22085
 C92 C 0.71547 0.19751 -0.28291
 H93 H 0.74437 0.18944 -0.27996
 C94 C 0.69333 0.18013 -0.30076
 H95 H 0.70609 0.15952 -0.31190
 C96 C 0.66455 0.23467 -0.27227
 H97 H 0.65329 0.25582 -0.26112
 C98 C 0.64139 0.21810 -0.29016
 H99 H 0.61256 0.22685 -0.29272
 Zn100 Zn 0.73548 0.24702 -0.24710
 N101 N 0.70112 0.22453 -0.26934
 C102 C 0.74526 0.18719 -0.21720
 N103 N 0.76421 0.21350 -0.22851
 C104 C 0.80197 0.21631 -0.22556
 C105 C 0.82207 0.19241 -0.21004
 C106 C 0.76420 0.16256 -0.20183
 C107 C 0.76991 0.30756 -0.26582
 C108 C 0.79036 0.32781 -0.28407
 C109 C 0.80692 0.27825 -0.30962
 C110 C 0.78611 0.25901 -0.29087
 N111 N 0.76736 0.27389 -0.26984
 H112 H 0.71517 0.18566 -0.21980
 H113 H 0.81637 0.23753 -0.23476
 H114 H 0.85197 0.19574 -0.20812
 H115 H 0.74826 0.14210 -0.19276
 H116 H 0.75566 0.31898 -0.24868
 H117 H 0.79120 0.35468 -0.28069
 H118 H 0.82064 0.26515 -0.32616
 H119 H 0.78445 0.23216 -0.29345
 C120 C 0.65573 0.19046 -0.30466
 C121 C 0.68007 0.31721 -0.18148
 C122 C 0.80868 0.31348 -0.30674
 C123 C 0.80301 0.16518 -0.19748
 C124 C 1.18416 -0.24603 -0.21742
 H125 H 1.18430 -0.27318 -0.21758
 C126 C 1.16148 -0.22919 -0.19845
 H127 H 1.14376 -0.24368 -0.18461
 C128 C 1.20884 -0.19443 -0.23384
 H129 H 1.22811 -0.18089 -0.24701
 C130 C 1.18656 -0.17652 -0.21513
 H131 H 1.18841 -0.14939 -0.21512
 N132 N 1.20700 -0.22861 -0.23490
 C133 C 1.21163 -0.27316 -0.30965
 H134 H 1.23102 -0.25463 -0.31738
 C135 C 1.18964 -0.29001 -0.32791
 H136 H 1.19218 -0.28397 -0.34940
 C137 C 1.18477 -0.30394 -0.27271
 H138 H 1.18308 -0.30963 -0.25124
 C139 C 1.16273 -0.32192 -0.29040
 H140 H 1.14368 -0.34064 -0.28219
 Zn141 Zn 1.23850 -0.25458 -0.25866
 N142 N 1.20862 -0.27991 -0.28250
 C143 C 1.26736 -0.31746 -0.23712
 N144 N 1.26785 -0.28327 -0.23611
 C145 C 1.28835 -0.26746 -0.21739
 C146 C 1.30928 -0.28602 -0.19846
 C147 C 1.28732 -0.33712 -0.21819
 C148 C 1.25678 -0.20035 -0.29475
 C149 C 1.27993 -0.18145 -0.31220
 C150 C 1.33255 -0.21740 -0.29932
 C151 C 1.30845 -0.23531 -0.28186
 N152 N 1.27125 -0.22668 -0.27993
 H153 H 1.25112 -0.32957 -0.25230
 H154 H 1.28786 -0.24021 -0.21692
 H155 H 1.32413 -0.27223 -0.18349
 H156 H 1.28601 -0.36433 -0.21901
 H157 H 1.22686 -0.19472 -0.29371
 H158 H 1.26681 -0.16145 -0.32406
 H159 H 1.36194 -0.22520 -0.30080
 H160 H 1.31935 -0.25684 -0.27052
 C161 C 1.16502 -0.31481 -0.31838
 C162 C 1.16264 -0.19403 -0.19692
 C163 C 1.31856 -0.19003 -0.31489
 C164 C 1.30875 -0.32154 -0.19847
 C165 C 0.28570 0.21004 0.71753
 H166 H 0.25582 0.21320 0.71438
 C167 C 0.30719 0.19014 0.69981
 H168 H 0.29302 0.17820 0.68348
 C169 C 0.34033 0.22516 0.74078
 H170 H 0.35350 0.23972 0.75606
 C171 C 0.36293 0.20543 0.72354
 H172 H 0.39316 0.20462 0.72614
 N173 N 0.30232 0.22684 0.73771
 C174 C 0.23532 0.23609 0.80811
 H175 H 0.25235 0.25535 0.81650
 C176 C 0.21207 0.21739 0.82554
 H177 H 0.21229 0.22344 0.84679
 C178 C 0.21323 0.20767 0.77006
 H179 H 0.21339 0.20413 0.74842
 C180 C 0.18895 0.18869 0.78670
 H181 H 0.17112 0.17051 0.77740
 Zn182 Zn 0.27066 0.25586 0.75876
 N183 N 0.23634 0.23049 0.78098
 C184 C 0.20597 0.28571 0.73386
 N185 N 0.24421 0.28378 0.73389
 C186 C 0.26530 0.30068 0.71502
 C187 C 0.24800 0.32023 0.69483
 C188 C 0.18738 0.30478 0.71385
 C189 C 0.32239 0.26729 0.80008
 C190 C 0.34156 0.28611 0.81877
 C191 C 0.31444 0.33687 0.79874
 C192 C 0.29586 0.31699 0.78036
 N193 N 0.29983 0.28285 0.78148
 H194 H 0.18980 0.27218 0.74919
 H195 H 0.29570 0.29856 0.71551
 H196 H 0.26553 0.33318 0.67988
 H197 H 0.15699 0.30552 0.71457
 H198 H 0.32450 0.24006 0.80097
 H199 H 0.35877 0.27297 0.83369
 H200 H 0.30990 0.36381 0.79731
 H201 H 0.27735 0.32891 0.76574
 C202 C 0.18870 0.19263 0.81505
 C203 C 0.34644 0.18750 0.70278
 C204 C 0.33734 0.32140 0.81869
 C205 C 0.20850 0.32213 0.69364
 C206 C 0.77375 0.70820 0.70417
 H207 H 0.74327 0.70843 0.70431
 C208 C 0.79393 0.68829 0.68570
 H209 H 0.77839 0.67391 0.67146
 C210 C 0.83033 0.72793 0.72227
 H211 H 0.84444 0.74372 0.73629
 C212 C 0.85165 0.70833 0.70418
 H213 H 0.88211 0.70902 0.70465
 N214 N 0.79207 0.72687 0.72238
 C215 C 0.71189 0.73361 0.78967
 H216 H 0.70921 0.76069 0.79139
 C217 C 0.69210 0.71260 0.80767
 H218 H 0.67451 0.72477 0.82278
 C219 C 0.73937 0.68649 0.76762
 H220 H 0.75841 0.67637 0.75236
 C221 C 0.72019 0.66445 0.78519
 H222 H 0.72462 0.63755 0.78281
 Zn223 Zn 0.76164 0.75101 0.74757
 N224 N 0.73470 0.72037 0.77004
 C225 C 0.69014 0.77402 0.72861
 N226 N 0.72794 0.77880 0.72725
 C227 C 0.74308 0.80172 0.70959
 C228 C 0.72005 0.82092 0.69227
 C229 C 0.66601 0.79265 0.71168
 C230 C 0.81679 0.75951 0.78630
 C231 C 0.83866 0.77640 0.80468
 C232 C 0.80686 0.82846 0.79166
 C233 C 0.78604 0.81056 0.77313
 N234 N 0.79139 0.77671 0.77076
 H235 H 0.67863 0.75511 0.74228
 H236 H 0.77330 0.80463 0.70862
 H237 H 0.73368 0.83852 0.67854
 H238 H 0.63606 0.78800 0.71294
 H239 H 0.81995 0.73247 0.78445
 H240 H 0.85877 0.76200 0.81673
 H241 H 0.80193 0.85534 0.79270
 H242 H 0.76520 0.82369 0.76096
 C243 C 0.69610 0.67717 0.80575
 C244 C 0.83353 0.68764 0.68596
 C245 C 0.83364 0.81130 0.80796
 C246 C 0.68071 0.81628 0.69286
 C247 C 0.76477 0.21336 0.20415
 H248 H 0.73481 0.21451 0.20106
 C249 C 0.78757 0.19390 0.18699
 H250 H 0.77444 0.18137 0.17048
 C251 C 0.81764 0.22908 0.22913
 H252 H 0.82927 0.24242 0.24580
 C253 C 0.84157 0.20977 0.21244
 H254 H 0.87152 0.20883 0.21623
 N255 N 0.77998 0.23092 0.22449
 C256 C 0.67714 0.24034 0.27125
 H257 H 0.66792 0.26531 0.26476
 C258 C 0.65349 0.22058 0.28766
 H259 H 0.62590 0.23036 0.29354
 C260 C 0.72507 0.19790 0.27268
 H261 H 0.75328 0.18951 0.26708
 C262 C 0.70240 0.17735 0.28915
 H263 H 0.71322 0.15281 0.29545
 Zn264 Zn 0.74636 0.25767 0.24601
 N265 N 0.71233 0.22888 0.26440
 C266 C 0.69161 0.27564 0.20749
 N267 N 0.71897 0.28810 0.22315
 C268 C 0.72650 0.32156 0.22257
 C269 C 0.70721 0.34360 0.20504
 C270 C 0.67162 0.29673 0.18964
 C271 C 0.75990 0.27978 0.29859
 C272 C 0.77648 0.29837 0.31865
 C273 C 0.81983 0.32070 0.28481
 C274 C 0.80197 0.30192 0.26526
 N275 N 0.77255 0.28196 0.27241
 H276 H 0.68487 0.24926 0.20906
 H277 H 0.74771 0.33130 0.23549
 H278 H 0.71419 0.37006 0.20472
 H279 H 0.65029 0.28545 0.17768
 H280 H 0.73640 0.26402 0.30400
 H281 H 0.76546 0.29638 0.33928
 H282 H 0.84265 0.33663 0.27818
 H283 H 0.81129 0.30359 0.24425
 C284 C 0.66644 0.18908 0.29742
 C285 C 0.82663 0.19184 0.19103
 C286 C 0.80692 0.31921 0.31205
 C287 C 0.67968 0.33135 0.18788
 C288 C 0.26113 0.69630 0.23854
 H289 H 0.23999 0.68638 0.25233
 C290 C 0.28032 0.67436 0.22102
 H291 H 0.27330 0.64792 0.22139
 C292 C 0.29639 0.74223 0.22145
 H293 H 0.30344 0.76851 0.22221
 C294 C 0.31646 0.72117 0.20374
 H295 H 0.33842 0.73209 0.19116
 N296 N 0.26874 0.72978 0.23805
 C297 C 0.21692 0.73525 0.31221
 H298 H 0.23972 0.74992 0.31961
 C299 C 0.19534 0.71609 0.33051
 H300 H 0.20141 0.71682 0.35193
 C301 C 0.18110 0.71683 0.27544
 H302 H 0.17598 0.71699 0.25386
 C303 C 0.15857 0.69761 0.29306
 H304 H 0.13602 0.68309 0.28498
 Zn305 Zn 0.24075 0.76020 0.26068
 N306 N 0.20966 0.73516 0.28520
 C307 C 0.17233 0.79144 0.24244
 N308 N 0.21036 0.78961 0.23858
 C309 C 0.22733 0.80783 0.21833
 C310 C 0.20592 0.82681 0.19984
 C311 C 0.14976 0.81006 0.22441
 C312 C 0.31061 0.77527 0.28410
 C313 C 0.33483 0.79325 0.30017
 C314 C 0.28403 0.83307 0.30930
 C315 C 0.26084 0.81432 0.29296
 N316 N 0.27435 0.78600 0.28083
 H317 H 0.15917 0.77817 0.25930
 H318 H 0.25759 0.80734 0.21617
 H319 H 0.22098 0.84019 0.18390
 H320 H 0.11947 0.81025 0.22757
 H321 H 0.32061 0.75230 0.27473
 H322 H 0.36348 0.78393 0.30263
 H323 H 0.27186 0.85528 0.31852
 H324 H 0.23178 0.82213 0.29019
 C325 C 0.16597 0.69667 0.32089
 C326 C 0.30792 0.68674 0.20294
 C327 C 0.32175 0.82245 0.31336
 C328 C 0.16624 0.82741 0.20221
 O329 O 1.06049 0.00826 0.03453
 O330 O 0.92941 -0.01306 0.02985
 O331 O 0.97495 0.05591 0.03103
 O332 O 1.01852 -0.06036 0.02976
 O333 O 0.92559 0.04432 0.01097
 O334 O 1.06927 -0.04575 0.01166
 O335 O 0.95450 -0.06105 0.01882
 O336 O 1.03919 0.05750 0.02351
 C337 C 1.05417 0.03794 0.04073
 C338 C 0.93502 -0.04346 0.03511
 C339 C 0.94040 0.05595 0.03117
 C340 C 1.05299 -0.05965 0.03102
 O341 O 1.06485 -0.01463 -0.03582
 O342 O 0.93672 0.02029 -0.03864
 O343 O 1.02695 0.05673 -0.03293
 O344 O 0.97488 -0.05514 -0.03641
 O345 O 0.92439 -0.03632 -0.01947
 O346 O 1.07492 0.03866 -0.01309
 O347 O 1.03788 -0.06189 -0.02652
 O348 O 0.96294 0.06493 -0.02472
 Co349 Co 1.06024 -0.00295 -0.00079
 Co350 Co 0.93608 0.00349 -0.00418
 Co351 Co 1.00083 0.05358 -0.00096
 Co352 Co 0.99669 -0.05437 -0.00337
 O353 O 0.99833 -0.00007 -0.00232
 C354 C 1.05719 -0.04365 -0.04255
 C355 C 0.94630 0.04985 -0.04299
 C356 C 1.06143 0.05501 -0.03230
 C357 C 0.94079 -0.05052 -0.03855
 O358 O 1.06000 0.49285 0.54178
 O359 O 0.93390 0.45696 0.52703
 O360 O 0.97702 0.53268 0.53896
 O361 O 1.01703 0.41769 0.53041
 O362 O 0.92787 0.51587 0.51938
 O363 O 1.07077 0.43899 0.52311
 O364 O 0.95812 0.41472 0.50759
 O365 O 1.04224 0.54137 0.52856
 C366 C 1.05459 0.52273 0.54707
 C367 C 0.93937 0.42622 0.52695
 C368 C 0.94265 0.52855 0.53955
 C369 C 1.04932 0.42208 0.53817
 O370 O 1.07358 0.46836 0.47193
 O371 O 0.94445 0.50671 0.46489
 O372 O 1.02645 0.54412 0.47505
 O373 O 0.99316 0.43062 0.46008
 O374 O 0.93790 0.44800 0.47141
 O375 O 1.07630 0.52181 0.49151
 O376 O 1.05272 0.42005 0.48124
 O377 O 0.96057 0.54859 0.48727
 Co378 Co 1.06389 0.48054 0.50656
 Co379 Co 0.94238 0.48181 0.49621
 Co380 Co 1.00180 0.53576 0.50681
 Co381 Co 1.00514 0.42660 0.49548
 O382 O 1.00329 0.48118 0.50126
 C383 C 1.07087 0.43877 0.46549
 C384 C 0.94899 0.53735 0.46572
 C385 C 1.06099 0.53998 0.47371
 C386 C 0.96010 0.43621 0.45379
 O387 O 0.56980 0.01295 0.53385
 O388 O 0.43816 -0.00833 0.53321
 O389 O 0.48511 0.05994 0.53436
 O390 O 0.52552 -0.05692 0.53054
 O391 O 0.43405 0.04906 0.51607
 O392 O 0.57583 -0.04139 0.51188
 O393 O 0.46074 -0.05657 0.52076
 O394 O 0.54902 0.06226 0.52321
 C395 C 0.56405 0.04260 0.54022
 C396 C 0.44266 -0.03894 0.53777
 C397 C 0.45055 0.05981 0.53594
 C398 C 0.56003 -0.05541 0.53145
 O399 O 0.56945 -0.01145 0.46380
 O400 O 0.44228 0.02655 0.46508
 O401 O 0.53086 0.06203 0.46813
 O402 O 0.47906 -0.05013 0.46536
 O403 O 0.42993 -0.03013 0.48364
 O404 O 0.58044 0.04237 0.48497
 O405 O 0.54290 -0.05840 0.47449
 O406 O 0.46798 0.07071 0.47979
 Co407 Co 0.56701 0.00115 0.49876
 Co408 Co 0.44308 0.00893 0.49935
 Co409 Co 0.50803 0.05845 0.50118
 Co410 Co 0.50236 -0.05005 0.49799
 O411 O 0.50509 0.00458 0.49934
 C412 C 0.56193 -0.04078 0.45788
 C413 C 0.45146 0.05626 0.46122
 C414 C 0.56511 0.05801 0.46609
 C415 C 0.44498 -0.04452 0.46412
 O416 O 0.56950 0.53870 0.02379
 O417 O 0.41890 0.49297 0.02277
 O418 O 0.46201 0.58920 0.01903
 O419 O 0.52651 0.44450 0.01037
 O420 O 0.43547 0.54675 0.03551
 O421 O 0.55328 0.48324 0.03014
 O422 O 0.46655 0.46074 0.03221
 O423 O 0.52162 0.56807 0.03798
 C424 C 0.55351 0.55577 0.04207
 C425 C 0.43474 0.47195 0.03846
 C426 C 0.44372 0.57639 0.03798
 C427 C 0.54472 0.45349 0.02999
 O428 O 0.55535 0.47344 -0.02605
 O429 O 0.43374 0.56854 -0.01930
 O430 O 0.55269 0.57566 -0.01081
 O431 O 0.43616 0.46451 -0.01647
 O432 O 0.42719 0.51324 -0.03207
 O433 O 0.56151 0.53174 -0.03284
 O434 O 0.49887 0.46271 -0.03757
 O435 O 0.49035 0.58205 -0.03047
 Co436 Co 0.55407 0.50786 -0.00118
 Co437 Co 0.43463 0.52932 0.00164
 Co438 Co 0.50539 0.57270 0.00360
 Co439 Co 0.48329 0.46417 -0.00254
 O440 O 0.49433 0.51848 0.00038
 C441 C 0.53295 0.46300 -0.04331
 C442 C 0.45647 0.58196 -0.03593
 C443 C 0.56435 0.56248 -0.03188
 C444 C 0.42472 0.48284 -0.03529
 C445 C 1.15487 0.17305 0.15816
 C446 C 1.14077 0.14056 0.16040
 C447 C 1.11964 0.12611 0.13819
 N448 N 1.11518 0.09229 0.13705
 N449 N 1.09764 0.07893 0.11628
 C450 C 1.08367 0.09897 0.09600
 N451 N 1.08758 0.13279 0.09740
 N452 N 1.10531 0.14611 0.11805
 C453 C 1.06583 0.08485 0.07223
 C454 C 1.06784 0.05063 0.06648
 H455 H 1.14769 0.12456 0.17773
 H456 H 1.05293 0.10233 0.05783
 H457 H 1.15054 0.18743 0.13951
 H458 H 1.08145 0.03303 0.08044
 C459 C 1.14174 0.66803 0.66187
 C460 C 1.13061 0.63468 0.66505
 C461 C 1.11083 0.61789 0.64330
 N462 N 1.10959 0.58374 0.64281
 N463 N 1.09354 0.56842 0.62229
 C464 C 1.07793 0.58678 0.60165
 N465 N 1.07859 0.62087 0.60242
 N466 N 1.09480 0.63614 0.62281
 C467 C 1.06195 0.57075 0.57801
 C468 C 1.06624 0.53645 0.57300
 H469 H 1.13911 0.61988 0.68267
 H470 H 1.04851 0.58709 0.56303
 H471 H 1.13596 0.68135 0.64294
 H472 H 1.07979 0.51977 0.58767
 C473 C 0.63188 0.17422 0.67524
 C474 C 0.63841 0.14126 0.66665
 C475 C 0.61878 0.12699 0.64365
 N476 N 0.62668 0.09480 0.63633
 N477 N 0.61091 0.08196 0.61463
 C478 C 0.58669 0.10088 0.59937
 N479 N 0.57858 0.13301 0.60678
 N480 N 0.59434 0.14585 0.62852
 C481 C 0.57048 0.08760 0.57459
 C482 C 0.57815 0.05487 0.56598
 H483 H 0.65937 0.12542 0.67657
 H484 H 0.55272 0.10430 0.56248
 H485 H 0.60867 0.18884 0.66675
 H486 H 0.59505 0.03776 0.57835
 C487 C 0.64779 0.66898 0.17787
 C488 C 0.65717 0.64033 0.16304
 C489 C 0.63119 0.62580 0.14380
 N490 N 0.64269 0.59907 0.12884
 N491 N 0.62025 0.58650 0.11040
 C492 C 0.58539 0.60016 0.10627
 N493 N 0.57370 0.62668 0.12144
 N494 N 0.59619 0.63929 0.13987
 C495 C 0.56132 0.58790 0.08477
 C496 C 0.57439 0.56390 0.06641
 H497 H 0.68453 0.62821 0.16515
 H498 H 0.53383 0.59974 0.08215
 H499 H 0.61943 0.67945 0.17675
 H500 H 0.60210 0.55243 0.06878
 C501 C 0.85133 -0.17840 0.17015
 C502 C 0.83896 -0.15028 0.15491
 C503 C 0.86200 -0.13485 0.13298
 N504 N 0.85093 -0.10481 0.12184
 N505 N 0.87065 -0.09080 0.10147
 C506 C 0.90213 -0.10639 0.09131
 N507 N 0.91318 -0.13652 0.10239
 N508 N 0.89353 -0.15047 0.12289
 C509 C 0.92347 -0.09143 0.06826
 C510 C 0.91591 -0.05862 0.05895
 H511 H 0.81201 -0.13825 0.15919
 H512 H 0.94547 -0.10641 0.05850
 H513 H 0.88005 -0.18731 0.16664
 H514 H 0.89521 -0.04317 0.06965
 C515 C 0.82696 0.33498 0.67429
 C516 C 0.84535 0.32448 0.65043
 C517 C 0.86104 0.34841 0.63017
 N518 N 0.87846 0.33649 0.60748
 N519 N 0.89218 0.35759 0.58858
 C520 C 0.88893 0.39147 0.59161
 N521 N 0.87152 0.40344 0.61432
 N522 N 0.85780 0.38230 0.63325
 C523 C 0.90395 0.41498 0.57075
 C524 C 0.92282 0.40343 0.54756
 H525 H 0.84810 0.29814 0.64562
 H526 H 0.90055 0.44182 0.57386
 H527 H 0.82594 0.36180 0.67808
 H528 H 0.92675 0.37660 0.54469
 C529 C 0.34323 -0.17342 0.66680
 C530 C 0.33416 -0.14387 0.65221
 C531 C 0.35961 -0.12927 0.63142
 N532 N 0.35215 -0.09787 0.62131
 N533 N 0.37396 -0.08453 0.60181
 C534 C 0.40398 -0.10214 0.59151
 N535 N 0.41141 -0.13364 0.60154
 N536 N 0.38968 -0.14694 0.62119
 C537 C 0.42730 -0.08779 0.56926
 C538 C 0.42326 -0.05400 0.56147
 H539 H 0.30816 -0.13012 0.65621
 H540 H 0.44742 -0.10397 0.55872
 H541 H 0.37137 -0.18405 0.66395
 H542 H 0.40438 -0.03768 0.57300
 C543 C 0.35184 0.33773 0.17338
 C544 C 0.33895 0.36577 0.15825
 C545 C 0.36328 0.38409 0.13871
 N546 N 0.34880 0.41060 0.12425
 N547 N 0.36971 0.42655 0.10552
 C548 C 0.40595 0.41658 0.10052
 N549 N 0.42056 0.39022 0.11512
 N550 N 0.39963 0.37425 0.13386
 C551 C 0.42871 0.43285 0.07889
 C552 C 0.41398 0.45853 0.06224
 H553 H 0.31011 0.37469 0.15990
 H554 H 0.45711 0.42331 0.07516
 H555 H 0.38161 0.33128 0.17186
 H556 H 0.38563 0.46816 0.06597
 C557 C 0.82053 0.14106 -0.18026
 C558 C 0.85744 0.14269 -0.17099
 C559 C 0.87199 0.11904 -0.15007
 N560 N 0.90404 0.12623 -0.13703
 N561 N 0.91652 0.10621 -0.11698
 C562 C 0.89754 0.07811 -0.10930
 N563 N 0.86584 0.07056 -0.12267
 N564 N 0.85323 0.09071 -0.14263
 C565 C 0.90999 0.05689 -0.08615
 C566 C 0.93597 0.06849 -0.06788
 H567 H 0.87548 0.16314 -0.17712
 H568 H 0.89664 0.03291 -0.08237
 H569 H 0.80346 0.12066 -0.17228
 H570 H 0.94780 0.09323 -0.07105
 C571 C 0.84511 0.63864 0.32131
 C572 C 0.87039 0.64623 0.34166
 C573 C 0.88465 0.62061 0.36113
 N574 N 0.90620 0.63025 0.38190
 N575 N 0.91812 0.60786 0.40046
 C576 C 0.90901 0.57489 0.39897
 N577 N 0.88776 0.56512 0.37803
 N578 N 0.87573 0.58758 0.35947
 C579 C 0.92097 0.55026 0.42004
 C580 C 0.93845 0.56057 0.44346
 H581 H 0.87919 0.67171 0.34467
 H582 H 0.91470 0.52391 0.41758
 H583 H 0.83781 0.61243 0.31928
 H584 H 0.94393 0.58704 0.44606
 C585 C 0.34545 0.14235 0.31122
 C586 C 0.36977 0.15134 0.33175
 C587 C 0.38401 0.12730 0.35242
 N588 N 0.40756 0.13837 0.37147
 N589 N 0.41925 0.11788 0.39141
 C590 C 0.40781 0.08546 0.39317
 N591 N 0.38447 0.07421 0.37396
 N592 N 0.37272 0.09478 0.35395
 C593 C 0.41945 0.06334 0.41605
 C594 C 0.44073 0.07586 0.43693
 H595 H 0.37879 0.17699 0.33350
 H596 H 0.41021 0.03750 0.41697
 H597 H 0.34026 0.11577 0.30883
 H598 H 0.44959 0.10182 0.43586
 C599 C 0.32737 0.65825 -0.17892
 C600 C 0.35367 0.67025 -0.16090
 C601 C 0.36854 0.64946 -0.13840
 N602 N 0.39915 0.65973 -0.12502
 N603 N 0.41206 0.64207 -0.10378
 C604 C 0.39462 0.61366 -0.09495
 N605 N 0.36388 0.60345 -0.10824
 N606 N 0.35111 0.62098 -0.12964
 C607 C 0.40798 0.59465 -0.07099
 C608 C 0.44325 0.60011 -0.06025
 H609 H 0.36467 0.69533 -0.16331
 H610 H 0.39002 0.57560 -0.06190
 H611 H 0.32129 0.63159 -0.17788
 H612 H 0.46233 0.61736 -0.07048
 C613 C 1.13916 -0.17714 -0.17578
 C614 C 1.14404 -0.14406 -0.16762
 C615 C 1.12268 -0.12964 -0.14457
 N616 N 1.12942 -0.09774 -0.13689
 N617 N 1.11137 -0.08468 -0.11550
 C618 C 1.08588 -0.10303 -0.10094
 N619 N 1.07897 -0.13488 -0.10869
 N620 N 1.09702 -0.14795 -0.13012
 C621 C 1.06682 -0.08931 -0.07664
 C622 C 1.07370 -0.05694 -0.06781
 H623 H 1.16520 -0.12851 -0.17729
 H624 H 1.04772 -0.10531 -0.06513
 H625 H 1.11838 -0.19222 -0.16501
 H626 H 1.09237 -0.04077 -0.07955
 C627 C 1.16098 0.30900 0.33208
 C628 C 1.16559 0.34174 0.34116
 C629 C 1.14457 0.35498 0.36481
 N630 N 1.15017 0.38699 0.37274
 N631 N 1.13181 0.39925 0.39433
 C632 C 1.10721 0.37992 0.40883
 N633 N 1.10157 0.34791 0.40089
 N634 N 1.11990 0.33566 0.37927
 C635 C 1.08705 0.39295 0.43290
 C636 C 1.09094 0.42595 0.44139
 H637 H 1.18590 0.35814 0.33143
 H638 H 1.06858 0.37614 0.44419
 H639 H 1.14137 0.29288 0.34299
 H640 H 1.10878 0.44308 0.42988
 C641 C 0.66664 -0.18261 0.33911
 C642 C 0.66182 -0.14775 0.34140
 C643 C 0.63897 -0.13273 0.36350
 N644 N 0.63731 -0.09877 0.36610
 N645 N 0.61738 -0.08484 0.38629
 C646 C 0.59822 -0.10435 0.40460
 N647 N 0.59963 -0.13830 0.40188
 N648 N 0.61964 -0.15224 0.38173
 C649 C 0.57725 -0.08943 0.42762
 C650 C 0.57871 -0.05519 0.43310
 H651 H 0.67504 -0.13068 0.32697
 H652 H 0.56198 -0.10609 0.44138
 H653 H 0.65238 -0.19871 0.35387
 H654 H 0.59455 -0.03861 0.41962
 C655 C 0.66666 0.34025 -0.15996
 C656 C 0.63428 0.36063 -0.16178
 C657 C 0.62178 0.38222 -0.13922
 N658 N 0.58641 0.39584 -0.13874
 N659 N 0.57449 0.41456 -0.11799
 C660 C 0.59763 0.42058 -0.09705
 N661 N 0.63315 0.40736 -0.09773
 N662 N 0.64498 0.38849 -0.11838
 C663 C 0.58455 0.43999 -0.07341
 C664 C 0.54660 0.44787 -0.06874
 H665 H 0.61657 0.35946 -0.17935
 H666 H 0.60499 0.44611 -0.05833
 H667 H 0.68208 0.33984 -0.14118
 H668 H 0.52589 0.44058 -0.08327
 C669 C 1.16622 0.17289 -0.16911
 C670 C 1.16718 0.17107 -0.14069
 C671 C 1.14244 0.14913 -0.12428
 N672 N 1.15158 0.14148 -0.09826
 N673 N 1.12951 0.12205 -0.08276
 C674 C 1.09724 0.10974 -0.09262
 N675 N 1.08783 0.11764 -0.11860
 N676 N 1.11013 0.13688 -0.13421
 C677 C 1.07251 0.08882 -0.07525
 C678 C 1.08570 0.07377 -0.05138
 H679 H 1.18828 0.18395 -0.12960
 H680 H 1.04379 0.08500 -0.08135
 H681 H 1.14719 0.15613 -0.17892
 H682 H 1.11513 0.07574 -0.04635
 C683 C 1.14253 0.67561 0.33929
 C684 C 1.15629 0.66096 0.36317
 C685 C 1.13314 0.63937 0.38108
 N686 N 1.14933 0.62227 0.40207
 N687 N 1.12878 0.60277 0.41865
 C688 C 1.09123 0.59973 0.41488
 N689 N 1.07499 0.61693 0.39394
 N690 N 1.09559 0.63634 0.37729
 C691 C 1.06809 0.57896 0.43345
 C692 C 1.08405 0.55867 0.45376
 H693 H 1.18536 0.66429 0.36854
 H694 H 1.03778 0.57995 0.43126
 H695 H 1.11442 0.66971 0.33295
 H696 H 1.11439 0.55678 0.45544
 C697 C 0.64245 0.16983 0.31684
 C698 C 0.65738 0.14729 0.33611
 C699 C 0.63424 0.13170 0.35780
 N700 N 0.65114 0.11265 0.37740
 N701 N 0.63094 0.09921 0.39776
 C702 C 0.59305 0.10430 0.39928
 N703 N 0.57606 0.12318 0.37957
 N704 N 0.59629 0.13669 0.35921
 C705 C 0.57057 0.09007 0.42195
 C706 C 0.58728 0.07224 0.44337
 H707 H 0.68744 0.14246 0.33667
 H708 H 0.54029 0.09400 0.42193
 H709 H 0.61260 0.17601 0.31772
 H710 H 0.61754 0.06834 0.44351
 C711 C 0.67865 0.65507 -0.17714
 C712 C 0.65441 0.66399 -0.15559
 C713 C 0.63864 0.63914 -0.13623
 N714 N 0.61844 0.65027 -0.11450
 N715 N 0.60472 0.62860 -0.09611
 C716 C 0.61056 0.59490 -0.09870
 N717 N 0.63045 0.58362 -0.12063
 N718 N 0.64435 0.60538 -0.13906
 C719 C 0.59589 0.57121 -0.07784
 C720 C 0.58109 0.58344 -0.05351
 H721 H 0.64702 0.68992 -0.15160
 H722 H 0.59709 0.54437 -0.08140
 H723 H 0.68413 0.62835 -0.17989
 H724 H 0.58115 0.61029 -0.04997
 C725 C 0.85536 -0.17274 -0.17259
 C726 C 0.84968 -0.13960 -0.16397
 C727 C 0.87259 -0.12532 -0.14254
 N728 N 0.86017 -0.09731 -0.12949
 N729 N 0.88012 -0.08453 -0.10965
 C730 C 0.91341 -0.09913 -0.10226
 N731 N 0.92610 -0.12686 -0.11556
 N732 N 0.90600 -0.13980 -0.13526
 C733 C 0.93544 -0.08561 -0.08006
 C734 C 0.91967 -0.06304 -0.06151
 H735 H 0.82649 -0.12420 -0.17137
 H736 H 0.96409 -0.09487 -0.07746
 H737 H 0.87707 -0.18774 -0.16257
 H738 H 0.89039 -0.05522 -0.06320
 C739 C 0.82236 0.33793 0.33289
 C740 C 0.85499 0.35700 0.33058
 C741 C 0.86860 0.37557 0.35390
 N742 N 0.90499 0.38525 0.35456
 N743 N 0.91782 0.40093 0.37608
 C744 C 0.89459 0.40780 0.39760
 N745 N 0.85807 0.39868 0.39670
 N746 N 0.84534 0.38279 0.37529
 C747 C 0.90849 0.42356 0.42209
 C748 C 0.94675 0.42532 0.42741
 H749 H 0.87231 0.35695 0.31232
 H750 H 0.88799 0.43141 0.43739
 H751 H 0.80840 0.33677 0.35266
 H752 H 0.96738 0.41614 0.41270
 C753 C 0.34663 -0.16088 0.33033
 C754 C 0.33716 -0.13274 0.34594
 C755 C 0.36359 -0.11808 0.36495
 N756 N 0.35136 -0.09310 0.38150
 N757 N 0.37429 -0.08016 0.39946
 C758 C 0.41045 -0.09162 0.40152
 N759 N 0.42286 -0.11641 0.38478
 N760 N 0.39985 -0.12944 0.36685
 C761 C 0.43556 -0.07819 0.42204
 C762 C 0.42188 -0.05650 0.44200
 H763 H 0.30930 -0.12141 0.34546
 H764 H 0.46476 -0.08666 0.42219
 H765 H 0.37503 -0.17117 0.33204
 H766 H 0.39240 -0.04893 0.44223
 C767 C 0.35500 0.33927 -0.16088
 C768 C 0.35201 0.37413 -0.15723
 C769 C 0.36788 0.39001 -0.13336
 N770 N 0.36422 0.42382 -0.13017
 N771 N 0.37750 0.43828 -0.10822
 C772 C 0.39482 0.41938 -0.08865
 N773 N 0.39853 0.38564 -0.09187
 N774 N 0.38530 0.37121 -0.11380
 C775 C 0.40942 0.43451 -0.06413
 C776 C 0.40813 0.46906 -0.05966
 H777 H 0.33698 0.39042 -0.17128
 H778 H 0.42224 0.41770 -0.04921
 H779 H 0.37127 0.32468 -0.14623
 H780 H 0.39613 0.48630 -0.07463
 C781 C 1.14248 -0.15630 0.18318
 C782 C 1.15501 -0.13961 0.15949
 C783 C 1.12931 -0.12600 0.13868
 N784 N 1.14408 -0.11143 0.11587
 N785 N 1.12179 -0.09965 0.09632
 C786 C 1.08377 -0.10197 0.09872
 N787 N 1.06887 -0.11645 0.12161
 N788 N 1.09124 -0.12832 0.14123
 C789 C 1.05926 -0.08892 0.07686
 C790 C 1.07492 -0.07488 0.05319
 H791 H 1.18465 -0.13697 0.15499
 H792 H 1.02895 -0.09001 0.07947
 H793 H 1.11230 -0.15774 0.18659
 H794 H 1.10527 -0.07386 0.05089
 C795 C 1.19220 0.34077 0.67211
 C796 C 1.15371 0.34260 0.66655
 C797 C 1.13947 0.36066 0.64231
 N798 N 1.10267 0.35853 0.63577
 N799 N 1.08964 0.37398 0.61349
 C800 C 1.11294 0.39219 0.59696
 N801 N 1.14965 0.39453 0.60360
 N802 N 1.16269 0.37902 0.62583
 C803 C 1.09923 0.40899 0.57208
 C804 C 1.06260 0.40536 0.56315
 H805 H 1.13329 0.32949 0.67911
 H806 H 1.11874 0.42427 0.56027
 H807 H 1.21112 0.35376 0.65810
 H808 H 1.04301 0.38997 0.57478
 C809 C 0.65571 -0.16670 0.67507
 C810 C 0.66650 -0.14357 0.65470
 C811 C 0.63998 -0.12877 0.63492
 N812 N 0.65337 -0.10842 0.61470
 N813 N 0.63042 -0.09542 0.59602
 C814 C 0.59308 -0.10220 0.59678
 N815 N 0.57952 -0.12238 0.61715
 N816 N 0.60257 -0.13549 0.63586
 C817 C 0.56792 -0.08820 0.57567
 C818 C 0.58267 -0.07046 0.55333
 H819 H 0.69547 -0.13635 0.65205
 H820 H 0.53789 -0.09222 0.57746
 H821 H 0.62606 -0.17257 0.67677
 H822 H 0.61283 -0.06716 0.55158
 C823 C 0.66190 0.35409 0.16967
 C824 C 0.63555 0.34532 0.15040
 C825 C 0.62018 0.37006 0.13070
 N826 N 0.59694 0.35978 0.11111
 N827 N 0.58356 0.38165 0.09264
 C828 C 0.59291 0.41463 0.09311
 N829 N 0.61595 0.42497 0.11280
 N830 N 0.62938 0.40309 0.13124
 C831 C 0.57907 0.43893 0.07254
 C832 C 0.55735 0.42922 0.05091
 H833 H 0.62648 0.31971 0.14859
 H834 H 0.58683 0.46506 0.07419
 H835 H 0.66998 0.38026 0.17009
 H836 H 0.54959 0.40313 0.04907
 C837 C 0.85246 0.17248 0.17283
 C838 C 0.84019 0.14786 0.15538
 C839 C 0.86508 0.13152 0.13517
 N840 N 0.85007 0.11073 0.11694
 N841 N 0.87166 0.09653 0.09779
 C842 C 0.90915 0.10249 0.09618
 N843 N 0.92429 0.12304 0.11458
 N844 N 0.90263 0.13739 0.13369
 C845 C 0.93299 0.08743 0.07468
 C846 C 0.91739 0.07059 0.05317
 H847 H 0.81106 0.14051 0.15583
 H848 H 0.96321 0.09048 0.07535
 H849 H 0.88220 0.17800 0.17309
 H850 H 0.88711 0.06846 0.05206
 C851 C 0.85681 0.66633 0.66753
 C852 C 0.84286 0.63935 0.65327
 C853 C 0.86695 0.61884 0.63515
 N854 N 0.85138 0.59502 0.61975
 N855 N 0.87268 0.57672 0.60280
 C856 C 0.91040 0.58146 0.60075
 N857 N 0.92602 0.60504 0.61632
 N858 N 0.90470 0.62342 0.63320
 C859 C 0.93414 0.56269 0.58127
 C860 C 0.91910 0.54215 0.56175
 H861 H 0.81359 0.63269 0.65524
 H862 H 0.96415 0.56714 0.58107
 H863 H 0.88660 0.67152 0.66578
 H864 H 0.88904 0.53817 0.56143
 C865 C 0.37111 0.16837 0.68367
 C866 C 0.35773 0.14460 0.66593
 C867 C 0.38157 0.12915 0.64466
 N868 N 0.36562 0.10931 0.62619
 N869 N 0.38620 0.09618 0.60602
 C870 C 0.42359 0.10234 0.60356
 N871 N 0.43971 0.12191 0.62221
 N872 N 0.41905 0.13517 0.64236
 C873 C 0.44620 0.08865 0.58083
 C874 C 0.42919 0.07315 0.55925
 H875 H 0.32851 0.13752 0.66685
 H876 H 0.47645 0.09171 0.58065
 H877 H 0.40094 0.17360 0.68331
 H878 H 0.39884 0.07103 0.55911
 C879 C 0.32670 0.66307 0.18375
 C880 C 0.34946 0.67330 0.16180
 C881 C 0.36534 0.64962 0.14183
 N882 N 0.38746 0.66151 0.12122
 N883 N 0.40135 0.64088 0.10240
 C884 C 0.39363 0.60750 0.10342
 N885 N 0.37159 0.59551 0.12410
 N886 N 0.35770 0.61619 0.14299
 C887 C 0.40809 0.58485 0.08211
 C888 C 0.43056 0.59703 0.06075
 H889 H 0.35518 0.69963 0.15819
 H890 H 0.40031 0.55860 0.08287
 H891 H 0.32093 0.63648 0.18630
 H892 H 0.43848 0.62325 0.06025
   
