data_POSCAR
  _audit_creation_date              2014-09-24
  _audit_creation_method            'ToBaCCo'
  _symmetry_space_group_name_H-M    'P1'
  _symmetry_Int_Tables_number       1
  _symmetry_cell_setting            triclinic
  loop_
  _symmetry_equiv_pos_as_xyz
 x,y,z
_cell_length_a 11.5729
_cell_length_b 27.8942
_cell_length_c 13.6345
_cell_angle_alpha 90.195100
_cell_angle_beta 89.650500
_cell_angle_gamma 91.944600
loop_
  _atom_site_label
  _atom_site_type_symbol
  _atom_site_fract_x
  _atom_site_fract_y
  _atom_site_fract_z
N1 N 0.22839 0.05035 0.10462
 N2 N 0.28945 0.09110 0.10639
 N3 N 0.13769 -0.05131 0.17089
 N4 N 0.13830 -0.09206 0.21988
 N5 N 0.22087 -0.04977 0.10493
 N6 N 0.28026 -0.08914 0.10755
 N7 N 0.14904 0.04960 0.17387
 N8 N 0.15392 0.09004 0.22412
 C9 C 0.24270 0.11519 0.18208
 C10 C 0.22866 -0.11494 0.17996
 N11 N -0.19351 -0.04729 0.10456
 N12 N -0.25738 -0.08751 0.10440
 N13 N -0.09787 0.05178 0.17456
 N14 N -0.09342 0.09119 0.22835
 N15 N -0.17492 0.05488 0.10478
 N16 N -0.22607 0.09964 0.11062
 N17 N -0.11206 -0.04949 0.17108
 N18 N -0.11878 -0.09107 0.21732
 Mn19 Mn 0.01897 -0.00016 0.17382
 C20 C -0.21075 -0.11424 0.17583
 C21 C -0.17208 0.12032 0.18922
 N22 N 0.22500 -0.05040 -0.10447
 N23 N 0.28528 -0.09256 -0.10331
 N24 N 0.15261 0.04768 -0.17644
 N25 N 0.15688 0.08805 -0.22666
 N26 N 0.23067 0.04927 -0.10682
 N27 N 0.29027 0.09038 -0.10858
 N28 N 0.14176 -0.05376 -0.16927
 N29 N 0.14036 -0.09629 -0.21249
 Mn30 Mn 0.22712 0.00011 -0.00034
 C31 C 0.22897 -0.11957 -0.17126
 C32 C 0.24415 0.11392 -0.18448
 N33 N -0.17224 0.05370 -0.10906
 N34 N -0.22313 0.09539 -0.11656
 N35 N -0.10847 -0.05223 -0.17102
 N36 N -0.11301 -0.09515 -0.21300
 N37 N -0.19271 -0.04811 -0.10673
 N38 N -0.25938 -0.09076 -0.10497
 N39 N -0.09459 0.04930 -0.17896
 N40 N -0.09122 0.08755 -0.23565
 Mn41 Mn -0.18489 0.00369 -0.00156
 Mn42 Mn 0.02272 -0.00261 -0.17529
 Cl43 Cl 0.02067 0.00027 -0.00092
 C44 C -0.17216 0.11591 -0.19680
 C45 C -0.20610 -0.11847 -0.17215
 N46 N 0.69231 0.54792 0.60448
 N47 N 0.75645 0.58810 0.60385
 N48 N 0.59612 0.44927 0.67560
 N49 N 0.59363 0.41075 0.73139
 N50 N 0.67342 0.44553 0.60527
 N51 N 0.72485 0.40387 0.61148
 N52 N 0.61026 0.55051 0.67126
 N53 N 0.61684 0.59234 0.71719
 C54 C 0.70934 0.61526 0.67526
 C55 C 0.67460 0.38279 0.69150
 N56 N 0.26961 0.45043 0.60691
 N57 N 0.20960 0.40938 0.60789
 N58 N 0.36058 0.55229 0.67226
 N59 N 0.35972 0.59324 0.72110
 N60 N 0.27823 0.55064 0.60647
 N61 N 0.21917 0.59012 0.60891
 N62 N 0.34888 0.45118 0.67553
 N63 N 0.34488 0.41044 0.72437
 Mn64 Mn 0.47910 0.50110 0.67490
 C65 C 0.25669 0.38510 0.68237
 C66 C 0.27009 0.61610 0.68116
 N67 N 0.67273 0.44542 0.39164
 N68 N 0.72402 0.40373 0.38416
 N69 N 0.60955 0.55025 0.32788
 N70 N 0.61602 0.59197 0.28219
 N71 N 0.69182 0.54771 0.39355
 N72 N 0.75597 0.58786 0.39378
 N73 N 0.59487 0.44910 0.32257
 N74 N 0.59176 0.41049 0.26651
 Mn75 Mn 0.68447 0.49626 0.49873
 C76 C 0.67301 0.38254 0.30480
 C77 C 0.70863 0.61489 0.32318
 N78 N 0.27794 0.55082 0.39756
 N79 N 0.21920 0.59040 0.39658
 N80 N 0.34780 0.45150 0.32580
 N81 N 0.34261 0.41109 0.27546
 N82 N 0.26896 0.45069 0.39553
 N83 N 0.20796 0.40992 0.39391
 N84 N 0.36003 0.55242 0.33067
 N85 N 0.35932 0.59342 0.28259
 Mn86 Mn 0.27257 0.50041 0.50164
 Mn87 Mn 0.47822 0.50110 0.32552
 Cl88 Cl 0.47890 0.49967 0.50020
 C89 C 0.27005 0.61638 0.32409
 C90 C 0.25412 0.38591 0.31784
 C91 C 0.20467 0.23758 0.27524
 C92 C 0.29242 0.26349 0.22490
 N93 N 0.36562 0.24018 0.16466
 C94 C 0.35442 0.19196 0.15176
 C95 C 0.26597 0.16605 0.20147
 N96 N 0.19334 0.18957 0.26221
 N97 N 0.13149 0.26089 0.33550
 C98 C 0.14262 0.30912 0.34834
 C99 C 0.23098 0.33503 0.29855
 N100 N 0.30367 0.31151 0.23787
 H101 H 0.41270 0.17424 0.10214
 H102 H 0.08432 0.32684 0.39795
 C103 C 0.79447 0.76186 0.27533
 C104 C 0.70355 0.73882 0.22401
 N105 N 0.64102 0.76428 0.15970
 C106 C 0.66534 0.81174 0.14415
 C107 C 0.75654 0.83500 0.19511
 N108 N 0.81904 0.80926 0.25966
 N109 N 0.85698 0.73639 0.33966
 C110 C 0.83262 0.68892 0.35521
 C111 C 0.74144 0.66567 0.30417
 N112 N 0.67899 0.69143 0.23966
 H113 H 0.61462 0.83100 0.09196
 H114 H 0.88324 0.66965 0.40749
 C115 C 0.72173 0.24039 0.78847
 C116 C 0.78141 0.25825 0.70545
 N117 N 0.85298 0.22920 0.65552
 C118 C 0.86800 0.18325 0.68484
 C119 C 0.80860 0.16516 0.76809
 N120 N 0.73661 0.19442 0.81794
 N121 N 0.65022 0.26938 0.83848
 C122 C 0.63518 0.31531 0.80928
 C123 C 0.69445 0.33346 0.72601
 N124 N 0.76648 0.30425 0.67600
 H125 H 0.92641 0.16118 0.64376
 H126 H 0.57678 0.33733 0.85052
 C127 C 0.20368 0.76148 0.73083
 C128 C 0.29227 0.73901 0.78138
 N129 N 0.35949 0.76471 0.84479
 C130 C 0.34187 0.81195 0.86061
 C131 C 0.25220 0.83464 0.81088
 N132 N 0.18560 0.80861 0.74674
 N133 N 0.13692 0.73576 0.66694
 C134 C 0.15483 0.68850 0.65119
 C135 C 0.24352 0.66599 0.70168
 N136 N 0.31031 0.69189 0.76559
 H137 H 0.39685 0.83125 0.91231
 H138 H 0.10139 0.66891 0.59887
 C139 C 0.20628 0.23653 0.72362
 C140 C 0.29480 0.26233 0.77272
 N141 N 0.36805 0.23893 0.83166
 C142 C 0.35623 0.19074 0.84445
 C143 C 0.26709 0.16488 0.79601
 N144 N 0.19431 0.18849 0.73652
 N145 N 0.13304 0.25999 0.66470
 C146 C 0.14480 0.30822 0.65209
 C147 C 0.23382 0.33404 0.70077
 N148 N 0.30661 0.31036 0.76006
 H149 H 0.41473 0.17299 0.89299
 H150 H 0.08629 0.32603 0.60366
 C151 C 0.79972 0.76190 0.72699
 C152 C 0.70644 0.73936 0.77674
 N153 N 0.64312 0.76511 0.84086
 C154 C 0.66892 0.81234 0.85810
 C155 C 0.76340 0.83528 0.80932
 N156 N 0.82620 0.80910 0.74444
 N157 N 0.86244 0.73613 0.66226
 C158 C 0.83629 0.68886 0.64512
 C159 C 0.74314 0.66604 0.69506
 N160 N 0.68029 0.69214 0.75973
 H161 H 0.61639 0.83152 0.90997
 H162 H 0.88727 0.66938 0.59264
 C163 C 0.20476 0.76196 0.27806
 C164 C 0.29441 0.73966 0.22723
 N165 N 0.36276 0.76560 0.16457
 C166 C 0.34524 0.81290 0.15002
 C167 C 0.25513 0.83521 0.20026
 N168 N 0.18692 0.80913 0.26325
 N169 N 0.13655 0.73600 0.34085
 C170 C 0.15411 0.68869 0.35538
 C171 C 0.24390 0.66635 0.30473
 N172 N 0.31205 0.69247 0.24179
 H173 H 0.40009 0.83268 0.09875
 H174 H 0.09943 0.66890 0.40680
 C175 C 0.72069 0.24007 0.20548
 C176 C 0.78314 0.25857 0.28603
 N177 N 0.85789 0.23021 0.33282
 C178 C 0.87367 0.18433 0.30279
 C179 C 0.81144 0.16536 0.22168
 N180 N 0.73598 0.19409 0.17529
 N181 N 0.64605 0.26847 0.15854
 C182 C 0.63064 0.31439 0.18850
 C183 C 0.69268 0.33316 0.26943
 N184 N 0.76775 0.30454 0.31632
 H185 H 0.93478 0.16309 0.34204
 H186 H 0.56979 0.33592 0.14973
   
