data_POSCAR
  _audit_creation_date              2014-09-24
  _audit_creation_method            'ToBaCCo'
  _symmetry_space_group_name_H-M    'P1'
  _symmetry_Int_Tables_number       1
  _symmetry_cell_setting            triclinic
  loop_
  _symmetry_equiv_pos_as_xyz
 x,y,z
_cell_length_a 46.6647
_cell_length_b 46.1363
_cell_length_c 47.3458
_cell_angle_alpha 89.953600
_cell_angle_beta 89.834100
_cell_angle_gamma 89.980400
loop_
  _atom_site_label
  _atom_site_type_symbol
  _atom_site_fract_x
  _atom_site_fract_y
  _atom_site_fract_z
N1 N 0.30203 0.38305 1.36167
 N2 N 0.30415 0.36258 1.38093
 C3 C 0.28255 0.36551 1.39969
 C4 C 0.26630 0.38902 1.39159
 C5 C 0.27906 0.39971 1.36747
 H6 H 0.27871 0.35151 1.41764
 H7 H 0.27201 0.41798 1.35494
 Cu8 Cu 0.33462 0.33384 1.37916
 Cu9 Cu 0.32875 0.38616 1.33012
 Cu10 Cu 0.38348 0.33532 1.32694
 N11 N 0.36560 0.30566 1.37743
 N12 N 0.38466 0.30636 1.35690
 C13 C 0.40333 0.28436 1.36031
 C14 C 0.39543 0.26930 1.38423
 C15 C 0.37149 0.28317 1.39465
 H16 H 0.42106 0.27952 1.34632
 H17 H 0.35918 0.27711 1.41313
 N18 N 0.37868 0.36630 1.29865
 N19 N 0.35786 0.38569 1.29986
 C20 C 0.36011 0.40360 1.27746
 C21 C 0.38337 0.39498 1.26161
 C22 C 0.39471 0.37138 1.27544
 H23 H 0.34580 0.42141 1.27282
 H24 H 0.41308 0.35875 1.26890
 H25 H 0.33983 0.34281 1.32863
 H26 H 0.36303 0.36698 1.35036
 N27 N 1.19658 0.61769 0.86384
 N28 N 1.19467 0.63781 0.88343
 C29 C 1.21697 0.63510 0.90127
 C30 C 1.23346 0.61209 0.89229
 C31 C 1.22009 0.60148 0.86855
 H32 H 1.22115 0.64897 0.91919
 H33 H 1.22714 0.58358 0.85553
 Cu34 Cu 1.16381 0.66619 0.88337
 Cu35 Cu 1.16892 0.61440 0.83338
 Cu36 Cu 1.11481 0.66570 0.83119
 N37 N 1.13389 0.69547 0.88091
 N38 N 1.11483 0.69520 0.86048
 C39 C 1.09714 0.71808 0.86349
 C40 C 1.10570 0.73330 0.88700
 C41 C 1.12901 0.71860 0.89762
 H42 H 1.07966 0.72341 0.84946
 H43 H 1.14163 0.72453 0.91586
 N44 N 1.11828 0.63418 0.80340
 N45 N 1.13893 0.61462 0.80421
 C46 C 1.13582 0.59635 0.78223
 C47 C 1.11214 0.60493 0.76709
 C48 C 1.10147 0.62888 0.78089
 H49 H 1.14982 0.57834 0.77738
 H50 H 1.08303 0.64160 0.77478
 H51 H 1.15852 0.65800 0.83278
 H52 H 1.13503 0.63367 0.85432
 N53 N 0.69668 -0.11900 0.13484
 N54 N 0.69398 -0.13856 0.11482
 C55 C 0.71619 -0.13610 0.09670
 C56 C 0.73345 -0.11384 0.10597
 C57 C 0.72062 -0.10342 0.13014
 H58 H 0.71975 -0.14961 0.07837
 H59 H 0.72830 -0.08605 0.14345
 Cu60 Cu 0.66219 -0.16585 0.11472
 Cu61 Cu 0.66945 -0.11562 0.16582
 Cu62 Cu 0.61357 -0.16498 0.16750
 N63 N 0.63116 -0.19398 0.11667
 N64 N 0.61225 -0.19355 0.13734
 C65 C 0.59374 -0.21567 0.13398
 C66 C 0.60158 -0.23054 0.10996
 C67 C 0.62535 -0.21644 0.09943
 H68 H 0.57624 -0.22081 0.14815
 H69 H 0.63767 -0.22239 0.08093
 N70 N 0.61849 -0.13446 0.19612
 N71 N 0.63978 -0.11561 0.19547
 C72 C 0.63757 -0.09791 0.21801
 C73 C 0.61382 -0.10611 0.23336
 C74 C 0.60217 -0.12925 0.21910
 H75 H 0.65225 -0.08056 0.22309
 H76 H 0.58340 -0.14151 0.22521
 H77 H 0.65745 -0.15881 0.16556
 H78 H 0.63469 -0.13312 0.14490
 N79 N -0.19771 1.11595 -0.36069
 N80 N -0.19513 1.13574 -0.38056
 C81 C -0.21678 1.13271 -0.39911
 C82 C -0.23356 1.10985 -0.39029
 C83 C -0.22102 1.09964 -0.36593
 H84 H -0.22029 1.14621 -0.41746
 H85 H -0.22846 1.08190 -0.35288
 Cu86 Cu -0.16412 1.16390 -0.38004
 Cu87 Cu -0.17106 1.11321 -0.32925
 Cu88 Cu -0.11640 1.16400 -0.32687
 N89 N -0.13374 1.19268 -0.37790
 N90 N -0.11513 1.19261 -0.35707
 C91 C -0.09687 1.21497 -0.36041
 C92 C -0.10457 1.22963 -0.38458
 C93 C -0.12798 1.21514 -0.39523
 H94 H -0.07957 1.22035 -0.34619
 H95 H -0.14003 1.22076 -0.41393
 N96 N -0.12119 1.13336 -0.29825
 N97 N -0.14201 1.11398 -0.29914
 C98 C -0.13973 1.09627 -0.27660
 C99 C -0.11643 1.10502 -0.26100
 C100 C -0.10512 1.12848 -0.27513
 H101 H -0.15400 1.07848 -0.27174
 H102 H -0.08669 1.14111 -0.26886
 H103 H -0.16011 1.15663 -0.32918
 H104 H -0.13642 1.13164 -0.34969
 N105 N 0.69784 0.61930 0.63672
 N106 N 0.69568 0.63939 0.61709
 C107 C 0.71782 0.63673 0.59892
 C108 C 0.73450 0.61381 0.60776
 C109 C 0.72138 0.60320 0.63173
 H110 H 0.72179 0.65056 0.58087
 H111 H 0.72863 0.58537 0.64473
 Cu112 Cu 0.66457 0.66744 0.61793
 Cu113 Cu 0.67044 0.61594 0.66769
 Cu114 Cu 0.61472 0.66579 0.66916
 N115 N 0.63323 0.69523 0.61875
 N116 N 0.61380 0.69447 0.63895
 C117 C 0.59504 0.71629 0.63509
 C118 C 0.60322 0.73134 0.61126
 C119 C 0.62746 0.71759 0.60134
 H120 H 0.57708 0.72112 0.64879
 H121 H 0.64008 0.72374 0.58310
 N122 N 0.61938 0.63512 0.69780
 N123 N 0.64059 0.61612 0.69723
 C124 C 0.63817 0.59841 0.71977
 C125 C 0.61439 0.60675 0.73501
 C126 C 0.60294 0.62998 0.72070
 H127 H 0.65273 0.58097 0.72494
 H128 H 0.58422 0.64236 0.72675
 H129 H 0.63620 0.63420 0.64662
 H130 H 0.65851 0.65908 0.66846
 N131 N 0.80233 0.38378 0.14122
 N132 N 0.80490 0.36428 0.12112
 C133 C 0.78319 0.36752 0.10267
 C134 C 0.76638 0.39022 0.11180
 C135 C 0.77895 0.40011 0.13625
 H136 H 0.77968 0.35428 0.08416
 H137 H 0.77151 0.41766 0.14951
 Cu138 Cu 0.83596 0.33614 0.12121
 Cu139 Cu 0.82909 0.38620 0.17257
 Cu140 Cu 0.88372 0.33536 0.17442
 N141 N 0.86625 0.30723 0.12321
 N142 N 0.88484 0.30701 0.14405
 C143 C 0.90297 0.28456 0.14056
 C144 C 0.89523 0.27012 0.11631
 C145 C 0.87192 0.28487 0.10576
 H146 H 0.92024 0.27896 0.15474
 H147 H 0.85986 0.27947 0.08702
 N148 N 0.87907 0.36577 0.20324
 N149 N 0.85825 0.38516 0.20255
 C150 C 0.86065 0.40272 0.22516
 C151 C 0.88402 0.39385 0.24060
 C152 C 0.89526 0.37047 0.22630
 H153 H 0.84642 0.42050 0.23017
 H154 H 0.91374 0.35780 0.23239
 H155 H 0.86371 0.36797 0.15189
 H156 H 0.84001 0.34273 0.17214
 N157 N 0.30341 0.11683 0.86068
 N158 N 0.30572 0.13694 0.88024
 C159 C 0.28402 0.13397 0.89887
 C160 C 0.26749 0.11083 0.89043
 C161 C 0.28022 0.10039 0.86621
 H162 H 0.28029 0.14772 0.91701
 H163 H 0.27299 0.08241 0.85342
 Cu164 Cu 0.33648 0.16536 0.87896
 Cu165 Cu 0.33018 0.11391 0.82917
 Cu166 Cu 0.38511 0.16454 0.82647
 N167 N 0.36740 0.19358 0.87730
 N168 N 0.38634 0.19317 0.85666
 C169 C 0.40492 0.21521 0.86018
 C170 C 0.39710 0.23002 0.88425
 C171 C 0.37329 0.21592 0.89466
 H172 H 0.42253 0.22029 0.84613
 H173 H 0.36105 0.22176 0.91324
 N174 N 0.38024 0.13385 0.79794
 N175 N 0.35936 0.11454 0.79898
 C176 C 0.36159 0.09681 0.77647
 C177 C 0.38491 0.10547 0.76072
 C178 C 0.39629 0.12891 0.77473
 H179 H 0.34724 0.07909 0.77170
 H180 H 0.41473 0.14152 0.76831
 H181 H 0.36465 0.13260 0.84953
 H182 H 0.34143 0.15725 0.82828
 N183 N 0.19630 0.88278 0.36319
 N184 N 0.19440 0.86274 0.38289
 C185 C 0.21666 0.86556 0.40075
 C186 C 0.23312 0.88855 0.39166
 C187 C 0.21977 0.89903 0.36784
 H188 H 0.22085 0.85176 0.41875
 H189 H 0.22682 0.91687 0.35471
 Cu190 Cu 0.16358 0.83434 0.38293
 Cu191 Cu 0.16871 0.88585 0.33263
 Cu192 Cu 0.11459 0.83456 0.33074
 N193 N 0.13364 0.80510 0.38071
 N194 N 0.11457 0.80528 0.36030
 C195 C 0.09690 0.78242 0.36348
 C196 C 0.10545 0.76728 0.38707
 C197 C 0.12876 0.78205 0.39756
 H198 H 0.07943 0.77699 0.34948
 H199 H 0.14139 0.77618 0.41580
 N200 N 0.11814 0.86588 0.30269
 N201 N 0.13880 0.88543 0.30338
 C202 C 0.13575 0.90355 0.28125
 C203 C 0.11210 0.89488 0.26613
 C204 C 0.10139 0.87104 0.28010
 H205 H 0.14976 0.92151 0.27629
 H206 H 0.08296 0.85830 0.27405
 H207 H 0.13477 0.86672 0.35367
 H208 H 0.15826 0.84227 0.33229
 Zn209 Zn 0.00570 1.03624 -0.01541
 Zn210 Zn -0.02184 0.97780 -0.02053
 Zn211 Zn 0.03587 0.98377 0.00644
 Zn212 Zn -0.01614 1.00605 0.03612
 O213 O 0.00088 1.00094 0.00162
 O214 O -0.01318 1.03894 -0.04812
 O215 O -0.00383 0.94544 -0.03200
 O216 O 0.06482 1.00531 -0.00687
 O217 O -0.03371 0.99580 -0.05203
 O218 O 0.04244 1.04409 -0.02349
 O219 O 0.03867 0.94991 -0.01165
 O220 O 0.00525 0.99287 0.06469
 O221 O -0.05376 0.96601 -0.00264
 O222 O 0.04387 0.97619 0.04271
 O223 O -0.04955 0.98737 0.03908
 O224 O -0.02368 1.04329 0.04383
 O225 O -0.00714 1.06574 0.00572
 C226 C -0.02887 1.02113 -0.06130
 C227 C 0.02121 0.93609 -0.02703
 C228 C 0.06516 1.02974 -0.01911
 C229 C 0.02961 0.98074 0.06510
 C230 C -0.06310 0.97134 0.02199
 C231 C -0.01910 1.06622 0.02978
 Zn232 Zn 0.48450 0.00671 0.46215
 Zn233 Zn 0.47696 -0.02153 0.51872
 Zn234 Zn 0.53540 -0.01641 0.49284
 Zn235 Zn 0.50550 0.03647 0.51411
 O236 O 0.50056 0.00129 0.49698
 O237 O 0.45085 -0.01141 0.45862
 O238 O 0.49396 -0.05449 0.52995
 O239 O 0.54422 -0.02391 0.45676
 O240 O 0.44510 -0.03238 0.50041
 O241 O 0.50645 -0.00673 0.43393
 O242 O 0.53711 -0.05052 0.51062
 O243 O 0.54218 0.04390 0.52252
 O244 O 0.46509 -0.00364 0.55033
 O245 O 0.56436 0.00461 0.50672
 O246 O 0.48631 0.03920 0.54673
 O247 O 0.49323 0.06617 0.49295
 O248 O 0.47756 0.04407 0.45441
 C249 C 0.43649 -0.02698 0.47558
 C250 C 0.51892 -0.06430 0.52531
 C251 C 0.53066 -0.01918 0.43407
 C252 C 0.56479 0.02917 0.51868
 C253 C 0.47027 0.02152 0.55980
 C254 C 0.48186 0.06689 0.46868
 Zn255 Zn 1.00629 0.46264 0.48602
 Zn256 Zn 1.03629 0.51516 0.50785
 Zn257 Zn 0.97858 0.52102 0.48083
 Zn258 Zn 0.98431 0.49270 0.53750
 O259 O 1.00134 0.49790 0.50302
 O260 O 1.04306 0.45488 0.47799
 O261 O 1.03900 0.54904 0.48974
 O262 O 0.96679 0.50302 0.44934
 O263 O 1.06531 0.49371 0.49456
 O264 O 0.98750 0.45995 0.45328
 O265 O 0.99651 0.55340 0.46934
 O266 O 0.95088 0.51140 0.54044
 O267 O 1.04423 0.52270 0.54412
 O268 O 0.94664 0.53277 0.49870
 O269 O 1.00566 0.50586 0.56608
 O270 O 0.97678 0.45544 0.54518
 O271 O 0.99347 0.43310 0.50711
 C272 C 1.06574 0.46929 0.48235
 C273 C 1.02151 0.56281 0.47433
 C274 C 0.97175 0.47772 0.44008
 C275 C 0.93732 0.52744 0.52334
 C276 C 1.02998 0.51807 0.56650
 C277 C 0.98142 0.43254 0.53113
 Zn278 Zn 0.48479 0.49404 0.96380
 Zn279 Zn 0.47704 0.52244 1.02022
 Zn280 Zn 0.50561 0.46440 1.01594
 Zn281 Zn 0.53558 0.51722 0.99457
 O282 O 0.50072 0.49955 0.99866
 O283 O 0.45111 0.51211 0.96010
 O284 O 0.46499 0.50460 1.05181
 O285 O 0.49356 0.43465 0.99479
 O286 O 0.44525 0.53327 1.00174
 O287 O 0.47800 0.45666 0.95613
 O288 O 0.48620 0.46172 1.04844
 O289 O 0.56450 0.49621 1.00863
 O290 O 0.49400 0.55540 1.03142
 O291 O 0.54225 0.45703 1.02459
 O292 O 0.53722 0.55137 1.01226
 O293 O 0.54449 0.52469 0.95849
 O294 O 0.50677 0.50750 0.93563
 C295 C 0.43671 0.52776 0.97693
 C296 C 0.47009 0.47943 1.06136
 C297 C 0.48233 0.43387 0.97046
 C298 C 0.56487 0.47172 1.02075
 C299 C 0.51898 0.56519 1.02684
 C300 C 0.53097 0.51996 0.93579
 C301 C 1.14222 0.43876 0.45221
 C302 C 1.14949 0.40904 0.45425
 C303 C 1.17554 0.39880 0.44220
 C304 C 1.19416 0.41836 0.42818
 C305 C 1.18705 0.44815 0.42644
 C306 C 1.16102 0.45838 0.43850
 C307 C 1.15435 0.48825 0.43642
 C308 C 1.17284 0.50744 0.42279
 C309 C 1.19828 0.49743 0.41099
 C310 C 1.20542 0.46815 0.41272
 C311 C 1.18229 0.36897 0.44440
 C312 C 1.16384 0.34980 0.45813
 C313 C 1.13838 0.35981 0.46991
 C314 C 1.13118 0.38906 0.46806
 C315 C 1.22038 0.40778 0.41519
 C316 C 1.24203 0.39897 0.40419
 C317 C 1.11515 0.44909 0.46357
 C318 C 1.09260 0.45804 0.47249
 H319 H 1.13482 0.49709 0.44529
 H320 H 1.16740 0.53021 0.42140
 H321 H 1.21258 0.51243 0.40042
 H322 H 1.22546 0.46141 0.40322
 H323 H 1.20185 0.36016 0.43559
 H324 H 1.16933 0.32706 0.45962
 H325 H 1.12413 0.34483 0.48055
 H326 H 1.11116 0.39583 0.47757
 C327 C 0.36116 0.56103 0.94760
 C328 C 0.33821 0.56767 0.96612
 C329 C 0.31199 0.57851 0.95509
 C330 C 0.30889 0.58264 0.92562
 C331 C 0.33193 0.57622 0.90712
 C332 C 0.35814 0.56539 0.91814
 C333 C 0.38085 0.55909 0.89921
 C334 C 0.37776 0.56337 0.87025
 C335 C 0.35213 0.57395 0.85948
 C336 C 0.32942 0.58033 0.87759
 C337 C 0.28934 0.58497 0.97401
 C338 C 0.29249 0.58082 1.00300
 C339 C 0.31811 0.57021 1.01377
 C340 C 0.34078 0.56367 0.99564
 C341 C 0.28199 0.59324 0.91423
 C342 C 0.25977 0.60191 0.90441
 C343 C 0.38779 0.54945 0.95871
 C344 C 0.41005 0.53964 0.96739
 H345 H 0.40121 0.55082 0.90656
 H346 H 0.39535 0.55845 0.85608
 H347 H 0.34984 0.57724 0.83695
 H348 H 0.30992 0.58853 0.86819
 H349 H 0.26901 0.59329 0.96663
 H350 H 0.27495 0.58587 1.01717
 H351 H 0.32045 0.56703 1.03630
 H352 H 0.36030 0.55548 1.00501
 C353 C -0.13859 0.93650 0.05003
 C354 C -0.16407 0.93904 0.03405
 C355 C -0.19030 0.92808 0.04503
 C356 C -0.19091 0.91466 0.07194
 C357 C -0.16535 0.91177 0.08776
 C358 C -0.13912 0.92273 0.07677
 C359 C -0.11388 0.91971 0.09305
 C360 C -0.11454 0.90625 0.11940
 C361 C -0.14018 0.89553 0.13013
 C362 C -0.16536 0.89820 0.11459
 C363 C -0.21551 0.93096 0.02871
 C364 C -0.21482 0.94430 0.00230
 C365 C -0.18918 0.95504 -0.00842
 C366 C -0.16402 0.95250 0.00717
 C367 C -0.21785 0.90432 0.08361
 C368 C -0.24014 0.89594 0.09363
 C369 C -0.11195 0.94859 0.03933
 C370 C -0.08971 0.95885 0.03103
 H371 H -0.09340 0.92767 0.08561
 H372 H -0.09503 0.90414 0.13155
 H373 H -0.14058 0.88509 0.15060
 H374 H -0.18477 0.88949 0.12383
 H375 H -0.23597 0.92293 0.03615
 H376 H -0.23431 0.94632 -0.00990
 H377 H -0.18876 0.96539 -0.02895
 H378 H -0.14459 0.96116 -0.00207
 C379 C 0.64100 0.05968 0.54904
 C380 C 0.66097 0.03976 0.56045
 C381 C 0.68694 0.05001 0.57246
 C382 C 0.69282 0.08012 0.57295
 C383 C 0.67303 0.10000 0.56121
 C384 C 0.64704 0.08975 0.54922
 C385 C 0.62754 0.11005 0.53770
 C386 C 0.63355 0.13963 0.53801
 C387 C 0.65895 0.14966 0.54973
 C388 C 0.67854 0.13017 0.56124
 C389 C 0.70651 0.02970 0.58385
 C390 C 0.70059 0.00010 0.58337
 C391 C 0.67521 -0.00993 0.57160
 C392 C 0.65555 0.00957 0.56025
 C393 C 0.71905 0.09063 0.58582
 C394 C 0.74073 0.09937 0.59666
 C395 C 0.61403 0.04924 0.53769
 C396 C 0.59156 0.04028 0.52873
 H397 H 0.60751 0.10329 0.52832
 H398 H 0.61840 0.15486 0.52909
 H399 H 0.66351 0.17266 0.54992
 H400 H 0.69801 0.13901 0.57010
 H401 H 0.72655 0.03644 0.59322
 H402 H 0.71580 -0.01514 0.59216
 H403 H 0.67072 -0.03295 0.57127
 H404 H 0.63612 0.00071 0.55132
 C405 C 0.45423 0.14462 0.43725
 C406 C 0.45924 0.15235 0.40872
 C407 C 0.44780 0.17863 0.39783
 C408 C 0.43140 0.19702 0.41554
 C409 C 0.42683 0.18954 0.44421
 C410 C 0.43829 0.16327 0.45511
 C411 C 0.43334 0.15622 0.48382
 C412 C 0.41752 0.17458 0.50127
 C413 C 0.40630 0.20025 0.49061
 C414 C 0.41082 0.20775 0.46243
 C415 C 0.45300 0.18584 0.36920
 C416 C 0.46905 0.16761 0.35183
 C417 C 0.48023 0.14191 0.36248
 C418 C 0.47544 0.13425 0.39057
 C419 C 0.41876 0.22332 0.40417
 C420 C 0.40793 0.24500 0.39477
 C421 C 0.46477 0.11716 0.44809
 C422 C 0.47294 0.09425 0.45733
 H423 H 0.44165 0.13651 0.49310
 H424 H 0.41396 0.16885 0.52317
 H425 H 0.39403 0.21444 0.50425
 H426 H 0.40168 0.22796 0.45513
 H427 H 0.44478 0.20562 0.35997
 H428 H 0.47284 0.17347 0.33000
 H429 H 0.49269 0.12783 0.34890
 H430 H 0.48460 0.11406 0.39790
 C431 C 0.95333 0.35490 0.56249
 C432 C 0.93747 0.33626 0.54465
 C433 C 0.92613 0.30990 0.55549
 C434 C 0.93072 0.30231 0.58411
 C435 C 0.94701 0.32070 0.60182
 C436 C 0.95834 0.34707 0.59098
 C437 C 0.97444 0.36516 0.60911
 C438 C 0.97925 0.35739 0.63715
 C439 C 0.96818 0.33160 0.64775
 C440 C 0.95222 0.31339 0.63039
 C441 C 0.91024 0.29169 0.53727
 C442 C 0.90572 0.29929 0.50914
 C443 C 0.91682 0.32505 0.49854
 C444 C 0.93252 0.34341 0.51599
 C445 C 0.91827 0.27588 0.59543
 C446 C 0.90765 0.25407 0.60483
 C447 C 0.96392 0.38236 0.55166
 C448 C 0.97221 0.40524 0.54245
 H449 H 0.98352 0.38541 0.60183
 H450 H 0.99164 0.37146 0.65073
 H451 H 0.97199 0.32566 0.66954
 H452 H 0.94408 0.29354 0.63959
 H453 H 0.90120 0.27140 0.54453
 H454 H 0.89355 0.28509 0.49550
 H455 H 0.91326 0.33085 0.47666
 H456 H 0.94074 0.36320 0.50674
 C457 C 0.04990 0.86007 -0.06137
 C458 C 0.03384 0.83414 -0.05909
 C459 C 0.04511 0.80782 -0.07011
 C460 C 0.07237 0.80760 -0.08333
 C461 C 0.08830 0.83360 -0.08587
 C462 C 0.07703 0.85991 -0.07486
 C463 C 0.09340 0.88561 -0.07758
 C464 C 0.12011 0.88532 -0.09081
 C465 C 0.13112 0.85960 -0.10157
 C466 C 0.11550 0.83397 -0.09919
 C467 C 0.02870 0.78216 -0.06752
 C468 C 0.00192 0.78248 -0.05442
 C469 C -0.00909 0.80820 -0.04364
 C470 C 0.00660 0.83380 -0.04589
 C471 C 0.08418 0.78063 -0.09407
 C472 C 0.09421 0.75833 -0.10296
 C473 C 0.03886 0.88682 -0.04938
 C474 C 0.03035 0.90921 -0.03926
 H475 H 0.08575 0.90617 -0.06958
 H476 H 0.13233 0.90517 -0.09271
 H477 H 0.15188 0.85949 -0.11183
 H478 H 0.12497 0.81452 -0.10792
 H479 H 0.03635 0.76162 -0.07559
 H480 H -0.01035 0.76265 -0.05263
 H481 H -0.02990 0.80833 -0.03348
 H482 H -0.00287 0.85328 -0.03720
 C483 C 0.54432 0.64360 1.05830
 C484 C 0.54316 0.64942 1.08763
 C485 C 0.55421 0.67596 1.09827
 C486 C 0.56634 0.69652 1.07951
 C487 C 0.56696 0.69095 1.05010
 C488 C 0.55590 0.66442 1.03947
 C489 C 0.55687 0.65930 1.01000
 C490 C 0.56842 0.67979 0.99157
 C491 C 0.57925 0.70572 1.00198
 C492 C 0.57859 0.71135 1.03089
 C493 C 0.55295 0.68123 1.12770
 C494 C 0.54109 0.66087 1.14609
 C495 C 0.53029 0.63493 1.13568
 C496 C 0.53127 0.62915 1.10681
 C497 C 0.57875 0.72307 1.09048
 C498 C 0.58936 0.74496 1.09961
 C499 C 0.53450 0.61587 1.04755
 C500 C 0.52701 0.59275 1.03831
 H501 H 0.54867 0.63948 1.00088
 H502 H 0.56897 0.67553 0.96909
 H503 H 0.58820 0.72157 0.98758
 H504 H 0.58725 0.73184 1.03796
 H505 H 0.56104 0.70110 1.13680
 H506 H 0.54028 0.66525 1.16853
 H507 H 0.52109 0.61919 1.15005
 H508 H 0.52255 0.60869 1.09971
 C509 C 0.43428 0.45155 1.13551
 C510 C 0.43630 0.46822 1.16052
 C511 C 0.42522 0.45711 1.18636
 C512 C 0.41220 0.42940 1.18704
 C513 C 0.40974 0.41295 1.16192
 C514 C 0.42080 0.42406 1.13609
 C515 C 0.41818 0.40715 1.11128
 C516 C 0.40500 0.38006 1.11197
 C517 C 0.39419 0.36920 1.13722
 C518 C 0.39647 0.38535 1.16198
 C519 C 0.42759 0.47413 1.21111
 C520 C 0.44051 0.50135 1.21035
 C521 C 0.45134 0.51220 1.18509
 C522 C 0.44932 0.49592 1.16039
 C523 C 0.40179 0.41756 1.21359
 C524 C 0.39332 0.40742 1.23556
 C525 C 0.44668 0.46227 1.10934
 C526 C 0.45723 0.47051 1.08749
 H527 H 0.42622 0.41467 1.09111
 H528 H 0.40317 0.36744 1.09279
 H529 H 0.38396 0.34815 1.13765
 H530 H 0.38771 0.37598 1.18109
 H531 H 0.41947 0.46662 1.23125
 H532 H 0.44213 0.51409 1.22947
 H533 H 0.46135 0.53336 1.18461
 H534 H 0.45802 0.50530 1.14125
 C535 C 0.56410 -0.04932 0.35974
 C536 C 0.57126 -0.03033 0.33731
 C537 C 0.58182 -0.04172 0.31139
 C538 C 0.58513 -0.07204 0.30806
 C539 C 0.57826 -0.09101 0.33061
 C540 C 0.56774 -0.07962 0.35653
 C541 C 0.56102 -0.09904 0.37876
 C542 C 0.56458 -0.12883 0.37548
 C543 C 0.57483 -0.13997 0.35012
 C544 C 0.58162 -0.12138 0.32787
 C545 C 0.58879 -0.02231 0.28925
 C546 C 0.58546 0.00751 0.29263
 C547 C 0.57514 0.01864 0.31796
 C548 C 0.56808 0.00004 0.34012
 C549 C 0.59541 -0.08377 0.28144
 C550 C 0.60384 -0.09382 0.25943
 C551 C 0.55258 -0.03785 0.38598
 C552 C 0.54273 -0.02893 0.40787
 H553 H 0.55300 -0.09144 0.39890
 H554 H 0.55936 -0.14335 0.39271
 H555 H 0.57755 -0.16313 0.34767
 H556 H 0.58954 -0.13109 0.30858
 H557 H 0.59691 -0.02993 0.26915
 H558 H 0.59092 0.02205 0.27548
 H559 H 0.57260 0.04182 0.32048
 H560 H 0.56017 0.00972 0.35944
 C561 C -0.06457 1.04910 -0.13529
 C562 C -0.06279 1.03229 -0.16024
 C563 C -0.07405 1.04329 -0.18598
 C564 C -0.08703 1.07103 -0.18662
 C565 C -0.08921 1.08765 -0.16157
 C566 C -0.07796 1.07665 -0.13583
 C567 C -0.08030 1.09372 -0.11109
 C568 C -0.09339 1.12086 -0.11175
 C569 C -0.10440 1.13161 -0.13691
 C570 C -0.10239 1.11530 -0.16160
 C571 C -0.07191 1.02614 -0.21067
 C572 C -0.05903 0.99889 -0.20995
 C573 C -0.04803 0.98814 -0.18478
 C574 C -0.04982 1.00456 -0.16015
 C575 C -0.09768 1.08272 -0.21309
 C576 C -0.10633 1.09273 -0.23500
 C577 C -0.05212 1.03841 -0.10919
 C578 C -0.04159 1.03013 -0.08741
 H579 H -0.07210 1.08629 -0.09099
 H580 H -0.09501 1.13361 -0.09263
 H581 H -0.11455 1.15270 -0.13732
 H582 H -0.11130 1.12459 -0.18064
 H583 H -0.08018 1.03356 -0.23075
 H584 H -0.05759 0.98605 -0.22903
 H585 H -0.03805 0.96696 -0.18434
 H586 H -0.04098 0.99526 -0.14107
 C587 C 1.06078 0.54690 0.64222
 C588 C 1.04274 0.56433 0.65930
 C589 C 1.05314 0.57572 0.68521
 C590 C 1.08150 0.56957 0.69391
 C591 C 1.09942 0.55183 0.67701
 C592 C 1.08902 0.54046 0.65109
 C593 C 1.10735 0.52285 0.63452
 C594 C 1.13515 0.51662 0.64332
 C595 C 1.14531 0.52773 0.66867
 C596 C 1.12775 0.54515 0.68540
 C597 C 1.03474 0.59320 0.70185
 C598 C 1.00686 0.59921 0.69318
 C599 C 0.99667 0.58805 0.66787
 C600 C 1.01431 0.57081 0.65104
 C601 C 1.09236 0.58183 0.72001
 C602 C 1.10138 0.59225 0.74157
 C603 C 1.05036 0.53604 0.61536
 C604 C 1.04133 0.52753 0.59304
 H605 H 1.10040 0.51369 0.61466
 H606 H 1.14887 0.50310 0.63041
 H607 H 1.16692 0.52282 0.67542
 H608 H 1.13662 0.55326 0.70495
 H609 H 1.04167 0.60236 0.72172
 H610 H 0.99307 0.61260 0.70618
 H611 H 0.97498 0.59277 0.66123
 H612 H 1.00539 0.56263 0.63154
 C613 C 0.86209 0.56261 0.55171
 C614 C 0.86058 0.57184 0.58020
 C615 C 0.83443 0.58294 0.59124
 C616 C 0.80994 0.58475 0.57373
 C617 C 0.81158 0.57596 0.54512
 C618 C 0.83774 0.56484 0.53408
 C619 C 0.83883 0.55609 0.50546
 C620 C 0.81478 0.55830 0.48820
 C621 C 0.78922 0.56919 0.49898
 C622 C 0.78751 0.57793 0.52711
 C623 C 0.83344 0.59197 0.61980
 C624 C 0.85758 0.59009 0.63696
 C625 C 0.88314 0.57922 0.62618
 C626 C 0.88474 0.57016 0.59815
 C627 C 0.78302 0.59524 0.58532
 C628 C 0.76079 0.60378 0.59535
 C629 C 0.88859 0.55038 0.54080
 C630 C 0.91075 0.54001 0.53241
 H631 H 0.85825 0.54751 0.49611
 H632 H 0.81600 0.55153 0.46635
 H633 H 0.77061 0.57087 0.48549
 H634 H 0.76717 0.58629 0.53452
 H635 H 0.81406 0.60060 0.62916
 H636 H 0.85644 0.59712 0.65875
 H637 H 0.90184 0.57781 0.63960
 H638 H 0.90512 0.56189 0.59075
 C639 C 0.64087 0.44136 1.05189
 C640 C 0.65245 0.41454 1.04287
 C641 C 0.67843 0.40416 1.05480
 C642 C 0.69267 0.42067 1.07570
 C643 C 0.68121 0.44761 1.08455
 C644 C 0.65525 0.45799 1.07261
 C645 C 0.64420 0.48497 1.08183
 C646 C 0.65839 0.50121 1.10227
 C647 C 0.68376 0.49105 1.11397
 C648 C 0.69514 0.46457 1.10529
 C649 C 0.68956 0.37727 1.04549
 C650 C 0.67543 0.36108 1.02496
 C651 C 0.65003 0.37122 1.01330
 C652 C 0.63857 0.39763 1.02207
 C653 C 0.71892 0.40984 1.08830
 C654 C 0.74062 0.40088 1.09894
 C655 C 0.61400 0.45172 1.04022
 C656 C 0.59160 0.46064 1.03101
 H657 H 0.62454 0.49381 1.07336
 H658 H 0.64964 0.52180 1.10908
 H659 H 0.69470 0.50374 1.12984
 H660 H 0.71494 0.45760 1.11501
 H661 H 0.70927 0.36848 1.05393
 H662 H 0.68425 0.34055 1.01807
 H663 H 0.63914 0.35856 0.99736
 H664 H 0.61877 0.40462 1.01237
 C665 C 0.14168 1.06049 -0.04899
 C666 C 0.16070 1.04085 -0.06235
 C667 C 0.18682 1.05111 -0.07422
 C668 C 0.19376 1.08094 -0.07266
 C669 C 0.17493 1.10051 -0.05895
 C670 C 0.14880 1.09025 -0.04708
 C671 C 0.13028 1.11023 -0.03356
 C672 C 0.13738 1.13950 -0.03179
 C673 C 0.16292 1.14954 -0.04338
 C674 C 0.18155 1.13036 -0.05684
 C675 C 0.20544 1.03108 -0.08755
 C676 C 0.19848 1.00176 -0.08908
 C677 C 0.17296 0.99172 -0.07747
 C678 C 0.15420 1.01094 -0.06424
 C679 C 0.22005 1.09155 -0.08552
 C680 C 0.24176 1.10034 -0.09640
 C681 C 0.11456 1.05011 -0.03776
 C682 C 0.09200 1.04109 -0.02893
 H683 H 0.11019 1.10345 -0.02420
 H684 H 0.12298 1.15449 -0.02135
 H685 H 0.16833 1.17230 -0.04194
 H686 H 0.20118 1.13920 -0.06551
 H687 H 0.22556 1.03784 -0.09688
 H688 H 0.21299 0.98674 -0.09932
 H689 H 0.16765 0.96892 -0.07870
 H690 H 0.13463 1.00208 -0.05550
 C691 C 0.36088 -0.06027 0.44657
 C692 C 0.35771 -0.06444 0.41711
 C693 C 0.33149 -0.07529 0.40618
 C694 C 0.30857 -0.08192 0.42477
 C695 C 0.31182 -0.07797 0.45425
 C696 C 0.33805 -0.06710 0.46518
 C697 C 0.34076 -0.06326 0.49471
 C698 C 0.31821 -0.06999 0.51293
 C699 C 0.29258 -0.08063 0.50224
 C700 C 0.28929 -0.08461 0.47326
 C701 C 0.32882 -0.07923 0.37665
 C702 C 0.35141 -0.07263 0.35844
 C703 C 0.37704 -0.06202 0.36912
 C704 C 0.38028 -0.05792 0.39809
 C705 C 0.28165 -0.09254 0.41348
 C706 C 0.25943 -0.10123 0.40372
 C707 C 0.38753 -0.04869 0.45759
 C708 C 0.40981 -0.03888 0.46617
 H709 H 0.36030 -0.05506 0.50401
 H710 H 0.32065 -0.06692 0.53546
 H711 H 0.27513 -0.08582 0.51649
 H712 H 0.26896 -0.09296 0.46595
 H713 H 0.30931 -0.08744 0.36732
 H714 H 0.34900 -0.07578 0.33592
 H715 H 0.39453 -0.05692 0.35488
 H716 H 0.40065 -0.04963 0.40537
 C717 C 0.54447 -0.14249 0.55726
 C718 C 0.55720 -0.16295 0.53880
 C719 C 0.56839 -0.18931 0.54975
 C720 C 0.56675 -0.19506 0.57909
 C721 C 0.55345 -0.17489 0.59746
 C722 C 0.54226 -0.14853 0.58651
 C723 C 0.52919 -0.12864 0.60529
 C724 C 0.52719 -0.13462 0.63408
 C725 C 0.53813 -0.16040 0.64480
 C726 C 0.55114 -0.18038 0.62680
 C727 C 0.58117 -0.20935 0.53091
 C728 C 0.58283 -0.20353 0.50207
 C729 C 0.57187 -0.17776 0.49135
 C730 C 0.55919 -0.15763 0.50940
 C731 C 0.57933 -0.22139 0.59045
 C732 C 0.59009 -0.24306 0.59991
 C733 C 0.53455 -0.11487 0.54627
 C734 C 0.52700 -0.09181 0.53689
 H735 H 0.52032 -0.10832 0.59794
 H736 H 0.51710 -0.11918 0.64815
 H737 H 0.53653 -0.16495 0.66718
 H738 H 0.55929 -0.20014 0.63612
 H739 H 0.58997 -0.22970 0.53823
 H740 H 0.59266 -0.21910 0.48795
 H741 H 0.57319 -0.17335 0.46892
 H742 H 0.55094 -0.13792 0.50005
 C743 C 1.04980 0.63895 0.43984
 C744 C 1.07672 0.63916 0.42593
 C745 C 1.08779 0.66552 0.41481
 C746 C 1.07189 0.69151 0.41766
 C747 C 1.04484 0.69124 0.43130
 C748 C 1.03377 0.66487 0.44243
 C749 C 1.00674 0.66515 0.45607
 C750 C 0.99108 0.69074 0.45862
 C751 C 1.00190 0.71651 0.44773
 C752 C 1.02846 0.71689 0.43421
 C753 C 1.11478 0.66520 0.40107
 C754 C 1.13038 0.63959 0.39839
 C755 C 1.11956 0.61382 0.40927
 C756 C 1.09306 0.61348 0.42290
 C757 C 1.08351 0.71852 0.40679
 C758 C 1.09340 0.74084 0.39780
 C759 C 1.03895 0.61215 0.45190
 C760 C 1.03056 0.58972 0.46206
 H761 H 0.99743 0.64564 0.46485
 H762 H 0.97044 0.69057 0.46911
 H763 H 0.98964 0.73633 0.44977
 H764 H 1.03596 0.73746 0.42607
 H765 H 1.12410 0.68469 0.39225
 H766 H 1.15098 0.63974 0.38782
 H767 H 1.13177 0.59398 0.40714
 H768 H 1.08555 0.59289 0.43098
 C769 C -0.04692 1.14370 0.06167
 C770 C -0.04164 1.15127 0.09016
 C771 C -0.05280 1.17760 0.10125
 C772 C -0.06919 1.19618 0.08379
 C773 C -0.07407 1.18883 0.05517
 C774 C -0.06290 1.16252 0.04408
 C775 C -0.06816 1.15559 0.01543
 C776 C -0.08398 1.17414 -0.00177
 C777 C -0.09490 1.19986 0.00908
 C778 C -0.09008 1.20724 0.03721
 C779 C -0.04730 1.18467 0.12981
 C780 C -0.03124 1.16626 0.14693
 C781 C -0.02035 1.14051 0.13609
 C782 C -0.02543 1.13299 0.10804
 C783 C -0.08147 1.22257 0.09536
 C784 C -0.09196 1.24434 0.10494
 C785 C -0.03646 1.11631 0.05058
 C786 C -0.02825 1.09348 0.04120
 H787 H -0.06009 1.13584 0.00600
 H788 H -0.08778 1.16851 -0.02363
 H789 H -0.10717 1.21420 -0.00436
 H790 H -0.09899 1.22750 0.04466
 H791 H -0.05530 1.20447 0.13920
 H792 H -0.02722 1.17200 0.16872
 H793 H -0.00788 1.12628 0.14947
 H794 H -0.01648 1.11275 0.10056
 C795 C 0.45552 0.35604 0.93875
 C796 C 0.43944 0.33725 0.95637
 C797 C 0.42827 0.31096 0.94529
 C798 C 0.43327 0.30360 0.91666
 C799 C 0.44983 0.32212 0.89920
 C800 C 0.46098 0.34842 0.91028
 C801 C 0.47734 0.36664 0.89239
 C802 C 0.48256 0.35910 0.86435
 C803 C 0.47166 0.33339 0.85351
 C804 C 0.45546 0.31503 0.87064
 C805 C 0.41212 0.29261 0.96326
 C806 C 0.40717 0.30000 0.99138
 C807 C 0.41809 0.32570 1.00222
 C808 C 0.43405 0.34419 0.98502
 C809 C 0.42088 0.27731 0.90507
 C810 C 0.41021 0.25565 0.89552
 C811 C 0.46574 0.38352 0.94976
 C812 C 0.47366 0.40647 0.95909
 H813 H 0.48631 0.38685 0.89987
 H814 H 0.49514 0.37328 0.85096
 H815 H 0.47578 0.32762 0.83171
 H816 H 0.44746 0.29525 0.86126
 H817 H 0.40320 0.27238 0.95581
 H818 H 0.39479 0.28571 1.00484
 H819 H 0.41420 0.33133 1.02409
 H820 H 0.44213 0.36391 0.99444
 C821 C 0.56427 0.55012 0.86138
 C822 C 0.56772 0.58044 0.85804
 C823 C 0.57824 0.59181 0.83210
 C824 C 0.58530 0.57280 0.80966
 C825 C 0.58212 0.54248 0.81309
 C826 C 0.57157 0.53111 0.83903
 C827 C 0.56854 0.50073 0.84195
 C828 C 0.57575 0.48211 0.81989
 C829 C 0.58607 0.49322 0.79453
 C830 C 0.58925 0.52305 0.79105
 C831 C 0.58141 0.62219 0.82924
 C832 C 0.57445 0.64080 0.85139
 C833 C 0.56419 0.62968 0.87677
 C834 C 0.56081 0.59987 0.88017
 C835 C 0.59569 0.58451 0.78305
 C836 C 0.60425 0.59451 0.76106
 C837 C 0.55284 0.53865 0.88766
 C838 C 0.54303 0.52972 0.90958
 H839 H 0.56062 0.49106 0.86129
 H840 H 0.57332 0.45892 0.82249
 H841 H 0.59164 0.47867 0.77746
 H842 H 0.59737 0.53066 0.77094
 H843 H 0.58931 0.63189 0.80992
 H844 H 0.57703 0.66397 0.84885
 H845 H 0.55883 0.64422 0.89392
 H846 H 0.55278 0.59229 0.90032
 C847 C 0.43517 0.04942 0.63424
 C848 C 0.42211 0.07713 0.63503
 C849 C 0.41125 0.08817 0.66095
 C850 C 0.41351 0.07146 0.68594
 C851 C 0.42613 0.04355 0.68506
 C852 C 0.43700 0.03251 0.65913
 C853 C 0.44963 0.00461 0.65879
 C854 C 0.45143 -0.01193 0.68337
 C855 C 0.44079 -0.00114 0.70872
 C856 C 0.42827 0.02628 0.70968
 C857 C 0.39837 0.11596 0.66122
 C858 C 0.39627 0.13237 0.63658
 C859 C 0.40690 0.12157 0.61124
 C860 C 0.41970 0.09430 0.61034
 C861 C 0.40323 0.08318 0.71258
 C862 C 0.39483 0.09321 0.73461
 C863 C 0.44730 0.03872 0.60795
 C864 C 0.45764 0.03046 0.58602
 H865 H 0.45817 -0.00472 0.63957
 H866 H 0.46113 -0.03323 0.68273
 H867 H 0.44223 -0.01408 0.72774
 H868 H 0.42028 0.03373 0.72989
 H869 H 0.38976 0.12529 0.68041
 H870 H 0.38634 0.15356 0.63717
 H871 H 0.40522 0.13440 0.59215
 H872 H 0.42761 0.08684 0.59011
 C873 C 0.06076 0.95234 0.14090
 C874 C 0.04162 0.93914 0.16028
 C875 C 0.05208 0.92790 0.18625
 C876 C 0.08162 0.92997 0.19269
 C877 C 0.10070 0.94351 0.17348
 C878 C 0.09024 0.95473 0.14750
 C879 C 0.10973 0.96810 0.12859
 C880 C 0.13873 0.97034 0.13517
 C881 C 0.14896 0.95938 0.16056
 C882 C 0.13027 0.94609 0.17957
 C883 C 0.03255 0.91470 0.20523
 C884 C 0.00351 0.91268 0.19877
 C885 C -0.00673 0.92367 0.17339
 C886 C 0.01200 0.93676 0.15429
 C887 C 0.09243 0.91779 0.21887
 C888 C 0.10140 0.90745 0.24050
 C889 C 0.05017 0.96296 0.11400
 C890 C 0.04103 0.97134 0.09164
 H891 H 0.10277 0.97698 0.10859
 H892 H 0.15334 0.98065 0.12048
 H893 H 0.17151 0.96118 0.16557
 H894 H 0.13924 0.93791 0.19907
 H895 H 0.03949 0.90584 0.22525
 H896 H -0.01113 0.90253 0.21354
 H897 H -0.02932 0.92205 0.16847
 H898 H 0.00300 0.94501 0.13484
 C899 C 0.93627 0.44962 0.36611
 C900 C 0.92327 0.42189 0.36557
 C901 C 0.91200 0.41086 0.33988
 C902 C 0.91378 0.42762 0.31486
 C903 C 0.92640 0.45552 0.31549
 C904 C 0.93768 0.46655 0.34119
 C905 C 0.95029 0.49445 0.34128
 C906 C 0.95170 0.51100 0.31668
 C907 C 0.94066 0.50022 0.29156
 C908 C 0.92814 0.47282 0.29084
 C909 C 0.89919 0.38304 0.33985
 C910 C 0.89757 0.36659 0.36451
 C911 C 0.90861 0.37737 0.38962
 C912 C 0.92134 0.40467 0.39028
 C913 C 0.90303 0.41596 0.28845
 C914 C 0.89428 0.40601 0.26657
 C915 C 0.94865 0.46038 0.39218
 C916 C 0.95911 0.46870 0.41396
 H917 H 0.95914 0.50377 0.36032
 H918 H 0.96140 0.53230 0.31712
 H919 H 0.94181 0.51317 0.27251
 H920 H 0.91984 0.46538 0.27080
 H921 H 0.89028 0.37372 0.32084
 H922 H 0.88770 0.34537 0.36411
 H923 H 0.90729 0.36451 0.40872
 H924 H 0.92958 0.41211 0.41034
   
