data_POSCAR
  _audit_creation_date              2014-09-24
  _audit_creation_method            'ToBaCCo'
  _symmetry_space_group_name_H-M    'P1'
  _symmetry_Int_Tables_number       1
  _symmetry_cell_setting            triclinic
  loop_
  _symmetry_equiv_pos_as_xyz
 x,y,z
_cell_length_a 65.3591
_cell_length_b 45.3513
_cell_length_c 44.8898
_cell_angle_alpha 90.007900
_cell_angle_beta 89.978700
_cell_angle_gamma 90.279600
loop_
  _atom_site_label
  _atom_site_type_symbol
  _atom_site_fract_x
  _atom_site_fract_y
  _atom_site_fract_z
C1 C 1.21730 0.25652 0.28928
 H2 H 1.21545 0.23315 0.28518
 C3 C 1.20289 0.27150 0.30644
 H4 H 1.19008 0.25937 0.31570
 C5 C 1.23590 0.30077 0.28114
 H6 H 1.24853 0.31221 0.27068
 C7 C 1.22198 0.31658 0.29849
 H8 H 1.22412 0.34011 0.30127
 N9 N 1.23328 0.27131 0.27680
 C10 C 1.23570 0.19914 0.21988
 H11 H 1.24836 0.18784 0.23021
 C12 C 1.22174 0.18323 0.20251
 H13 H 1.22388 0.15975 0.19958
 C14 C 1.21712 0.24320 0.21201
 H15 H 1.21532 0.26654 0.21619
 C16 C 1.20268 0.22812 0.19484
 H17 H 1.18988 0.24014 0.18565
 Zn18 Zn 1.25033 0.24999 0.25048
 N19 N 1.23311 0.22855 0.22436
 C20 C 1.28365 0.21252 0.25681
 N21 N 1.26751 0.22403 0.27184
 C22 C 1.26472 0.21864 0.30135
 C23 C 1.27862 0.20113 0.31699
 C24 C 1.29808 0.19534 0.27158
 C25 C 1.26493 0.28031 0.19905
 C26 C 1.27892 0.29755 0.18307
 C27 C 1.29791 0.30543 0.22857
 C28 C 1.28345 0.28840 0.24372
 N29 N 1.26748 0.27600 0.22881
 H30 H 1.28555 0.21733 0.23337
 H31 H 1.25189 0.22824 0.31294
 H32 H 1.27601 0.19751 0.34055
 H33 H 1.31090 0.18701 0.25886
 H34 H 1.25230 0.26993 0.18754
 H35 H 1.27683 0.30033 0.15931
 H36 H 1.31070 0.31465 0.24081
 H37 H 1.28522 0.28434 0.26733
 C38 C 1.20478 0.19766 0.19013
 C39 C 1.20501 0.30201 0.31098
 C40 C 1.29587 0.30995 0.19777
 C41 C 1.29592 0.18954 0.30232
 C42 C 0.72305 -0.23714 0.29892
 H43 H 0.72304 -0.26094 0.30053
 C44 C 0.70923 -0.22082 0.31570
 H45 H 0.69873 -0.23229 0.33039
 C46 C 0.73645 -0.19361 0.27699
 H47 H 0.74701 -0.18316 0.26173
 C48 C 0.72298 -0.17629 0.29374
 H49 H 0.72316 -0.15258 0.29099
 N50 N 0.73575 -0.22353 0.27921
 C51 C 0.73876 -0.29494 0.21414
 H52 H 0.75485 -0.30036 0.21353
 C53 C 0.72471 -0.31157 0.19747
 H54 H 0.73012 -0.32990 0.18422
 C55 C 0.71218 -0.26429 0.23186
 H56 H 0.70727 -0.24541 0.24456
 C57 C 0.69771 -0.28022 0.21571
 H58 H 0.68186 -0.27349 0.21678
 Zn59 Zn 0.75086 -0.24973 0.25485
 N60 N 0.73222 -0.27220 0.23144
 C61 C 0.76509 -0.30361 0.28190
 N62 N 0.76620 -0.27365 0.28116
 C63 C 0.77926 -0.25856 0.29919
 C64 C 0.79290 -0.27358 0.31748
 C65 C 0.77839 -0.31961 0.30018
 C66 C 0.76264 -0.20823 0.21007
 C67 C 0.77654 -0.19357 0.19138
 C68 C 0.80343 -0.22446 0.21073
 C69 C 0.78913 -0.23832 0.22900
 N70 N 0.76923 -0.22971 0.22890
 H71 H 0.75428 -0.31518 0.26791
 H72 H 0.77960 -0.23472 0.29843
 H73 H 0.80360 -0.26104 0.33090
 H74 H 0.77779 -0.34347 0.29985
 H75 H 0.74663 -0.20233 0.20973
 H76 H 0.77110 -0.17623 0.17688
 H77 H 0.81918 -0.23168 0.21159
 H78 H 0.79403 -0.25623 0.24308
 C79 C 0.70381 -0.30444 0.19845
 C80 C 0.70873 -0.19005 0.31271
 C81 C 0.79731 -0.20152 0.19178
 C82 C 0.79288 -0.30452 0.31769
 C83 C 0.71744 0.25656 -0.21019
 H84 H 0.71555 0.23319 -0.21423
 C85 C 0.70307 0.27166 -0.19309
 H86 H 0.69023 0.25961 -0.18380
 C87 C 0.73617 0.30069 -0.21844
 H88 H 0.74885 0.31201 -0.22893
 C89 C 0.72227 0.31662 -0.20114
 H90 H 0.72447 0.34015 -0.19842
 N91 N 0.73345 0.27124 -0.22273
 C92 C 0.73535 0.19925 -0.27989
 H93 H 0.74791 0.18768 -0.26964
 C94 C 0.72125 0.18367 -0.29732
 H95 H 0.72319 0.16017 -0.30038
 C96 C 0.71710 0.24365 -0.28747
 H97 H 0.71547 0.26699 -0.28315
 C98 C 0.70252 0.22889 -0.30469
 H99 H 0.68980 0.24117 -0.31377
 Zn100 Zn 0.75038 0.24979 -0.24906
 N101 N 0.73299 0.22869 -0.27526
 C102 C 0.78312 0.21116 -0.24290
 N103 N 0.76740 0.22362 -0.22769
 C104 C 0.76504 0.21928 -0.19790
 C105 C 0.77899 0.20194 -0.18219
 C106 C 0.79755 0.19402 -0.22804
 C107 C 0.76482 0.28096 -0.30008
 C108 C 0.77887 0.29817 -0.31598
 C109 C 0.79865 0.30392 -0.27083
 C110 C 0.78404 0.28705 -0.25579
 N111 N 0.76769 0.27566 -0.27058
 H112 H 0.78475 0.21524 -0.26653
 H113 H 0.75260 0.22973 -0.18615
 H114 H 0.77707 0.19914 -0.15839
 H115 H 0.81015 0.18475 -0.24052
 H116 H 0.75182 0.27146 -0.31148
 H117 H 0.77620 0.30169 -0.33952
 H118 H 0.81166 0.31212 -0.25832
 H119 H 0.78601 0.28231 -0.23235
 C120 C 0.70439 0.19844 -0.30958
 C121 C 0.70526 0.30217 -0.18865
 C122 C 0.79643 0.30954 -0.30159
 C123 C 0.79570 0.18947 -0.19721
 C124 C 1.21772 -0.24366 -0.21084
 H125 H 1.21594 -0.26704 -0.21492
 C126 C 1.20334 -0.22877 -0.19357
 H127 H 1.19060 -0.24098 -0.18420
 C128 C 1.23618 -0.19929 -0.21910
 H129 H 1.24874 -0.18778 -0.22966
 C130 C 1.22228 -0.18357 -0.20165
 H131 H 1.22436 -0.16003 -0.19888
 N132 N 1.23361 -0.22876 -0.22343
 C133 C 1.23589 -0.30080 -0.28024
 H134 H 1.24845 -0.31223 -0.26981
 C135 C 1.22191 -0.31656 -0.29768
 H136 H 1.22393 -0.34007 -0.30056
 C137 C 1.21754 -0.25655 -0.28826
 H138 H 1.21585 -0.23319 -0.28410
 C139 C 1.20309 -0.27148 -0.30551
 H140 H 1.19037 -0.25934 -0.31478
 Zn141 Zn 1.25063 -0.25001 -0.24970
 N142 N 1.23342 -0.27136 -0.27582
 C143 C 1.28357 -0.28819 -0.24345
 N144 N 1.26776 -0.27588 -0.22830
 C145 C 1.26531 -0.28032 -0.19854
 C146 C 1.27923 -0.29764 -0.18279
 C147 C 1.29797 -0.30533 -0.22854
 C148 C 1.26516 -0.21963 -0.30103
 C149 C 1.27904 -0.20215 -0.31694
 C150 C 1.29799 -0.19422 -0.27139
 C151 C 1.28364 -0.21152 -0.25633
 N152 N 1.26774 -0.22401 -0.27129
 H153 H 1.28526 -0.28404 -0.26706
 H154 H 1.25280 -0.26999 -0.18685
 H155 H 1.27723 -0.30054 -0.15903
 H156 H 1.31064 -0.31451 -0.24096
 H157 H 1.25259 -0.23009 -0.31259
 H158 H 1.27693 -0.19929 -0.34068
 H159 H 1.31072 -0.18489 -0.25911
 H160 H 1.28543 -0.21563 -0.23273
 C161 C 1.20507 -0.30196 -0.31017
 C162 C 1.20541 -0.19826 -0.18904
 C163 C 1.29589 -0.18957 -0.30217
 C164 C 1.29601 -0.31001 -0.19775
 C165 C 0.26472 0.21764 0.69941
 H166 H 0.25223 0.22784 0.68757
 C167 C 0.27851 0.19982 0.68395
 H168 H 0.27641 0.19642 0.66027
 C169 C 0.28307 0.21055 0.74434
 H170 H 0.28485 0.21521 0.76784
 C171 C 0.29732 0.19290 0.72972
 H172 H 0.30996 0.18384 0.74227
 N173 N 0.26726 0.22268 0.72905
 C174 C 0.21708 0.24351 0.78871
 H175 H 0.21523 0.26667 0.78368
 C176 C 0.20271 0.22903 0.80652
 H177 H 0.18995 0.24153 0.81519
 C178 C 0.23576 0.19932 0.78245
 H179 H 0.24844 0.18770 0.77252
 C180 C 0.22192 0.18400 0.80053
 H181 H 0.22433 0.16070 0.80432
 Zn182 Zn 0.25023 0.24916 0.74999
 N183 N 0.23308 0.22850 0.77685
 C184 C 0.21729 0.25458 0.71093
 N185 N 0.23311 0.26980 0.72329
 C186 C 0.23563 0.29918 0.71832
 C187 C 0.22180 0.31444 0.70036
 C188 C 0.20298 0.26901 0.69314
 C189 C 0.26506 0.28075 0.80041
 C190 C 0.27901 0.29864 0.81573
 C191 C 0.29767 0.30558 0.76976
 C192 C 0.28328 0.28786 0.75530
 N193 N 0.26747 0.27568 0.77075
 H194 H 0.21553 0.23128 0.71552
 H195 H 0.24814 0.31097 0.72869
 H196 H 0.22388 0.33791 0.69704
 H197 H 0.19032 0.25652 0.68392
 H198 H 0.25255 0.27054 0.81236
 H199 H 0.27701 0.30207 0.83942
 H200 H 0.31031 0.31468 0.75708
 H201 H 0.28493 0.28320 0.73179
 C202 C 0.20483 0.19870 0.81248
 C203 C 0.29525 0.18754 0.69905
 C204 C 0.29575 0.31096 0.80045
 C205 C 0.20503 0.29941 0.68788
 C206 C 0.76438 0.71918 0.69595
 H207 H 0.75197 0.72925 0.68382
 C208 C 0.77840 0.70140 0.68085
 H209 H 0.77655 0.69788 0.65714
 C210 C 0.78232 0.71239 0.74128
 H211 H 0.78386 0.71715 0.76480
 C212 C 0.79678 0.69480 0.72704
 H213 H 0.80932 0.68588 0.73990
 N214 N 0.76662 0.72435 0.72562
 C215 C 0.71608 0.74506 0.78475
 H216 H 0.71419 0.76821 0.77968
 C217 C 0.70171 0.73056 0.80257
 H218 H 0.68892 0.74302 0.81119
 C219 C 0.73486 0.70095 0.77864
 H220 H 0.74758 0.68937 0.76879
 C221 C 0.72103 0.68561 0.79674
 H222 H 0.72350 0.66233 0.80061
 Zn223 Zn 0.74941 0.75082 0.74629
 N224 N 0.73213 0.73012 0.77298
 C225 C 0.71667 0.75651 0.70677
 N226 N 0.73244 0.77159 0.71944
 C227 C 0.73496 0.80103 0.71483
 C228 C 0.72116 0.81651 0.69702
 C229 C 0.70238 0.77116 0.68911
 C230 C 0.76415 0.78217 0.79697
 C231 C 0.77817 0.79981 0.81246
 C232 C 0.79693 0.80689 0.76659
 C233 C 0.78247 0.78942 0.75197
 N234 N 0.76659 0.77727 0.76729
 H235 H 0.71490 0.73316 0.71108
 H236 H 0.74741 0.81272 0.72546
 H237 H 0.72323 0.84003 0.69404
 H238 H 0.68973 0.75880 0.67969
 H239 H 0.75159 0.77197 0.80881
 H240 H 0.77616 0.80308 0.83617
 H241 H 0.80963 0.81593 0.75402
 H242 H 0.78415 0.78488 0.72843
 C243 C 0.70392 0.70026 0.80865
 C244 C 0.79504 0.68931 0.69636
 C245 C 0.79500 0.81205 0.79732
 C246 C 0.70441 0.80164 0.68429
 C247 C 0.76551 0.21882 0.19624
 H248 H 0.75321 0.22911 0.18409
 C249 C 0.77938 0.20084 0.18114
 H250 H 0.77752 0.19741 0.15742
 C251 C 0.78334 0.21164 0.24161
 H252 H 0.78487 0.21632 0.26514
 C253 C 0.79766 0.19383 0.22737
 H254 H 0.81012 0.18466 0.24022
 N255 N 0.76776 0.22388 0.22592
 C256 C 0.71748 0.24521 0.28509
 H257 H 0.71592 0.26848 0.28037
 C258 C 0.70298 0.23089 0.30280
 H259 H 0.69036 0.24343 0.31184
 C260 C 0.73555 0.20055 0.27811
 H261 H 0.74802 0.18870 0.26792
 C262 C 0.72151 0.18540 0.29600
 H263 H 0.72341 0.16194 0.29946
 Zn264 Zn 0.75062 0.25042 0.24643
 N265 N 0.73325 0.22990 0.27299
 C266 C 0.71804 0.25565 0.20688
 N267 N 0.73373 0.27097 0.21946
 C268 C 0.73619 0.30038 0.21461
 C269 C 0.72238 0.31558 0.19658
 C270 C 0.70377 0.27002 0.18901
 C271 C 0.76512 0.28178 0.29710
 C272 C 0.77897 0.29956 0.31267
 C273 C 0.79787 0.30683 0.26695
 C274 C 0.78355 0.28920 0.25222
 N275 N 0.76769 0.27690 0.26744
 H276 H 0.71634 0.23234 0.21142
 H277 H 0.74859 0.31222 0.22518
 H278 H 0.72438 0.33908 0.19338
 H279 H 0.69119 0.25747 0.17964
 H280 H 0.75258 0.27144 0.30887
 H281 H 0.77686 0.30279 0.33637
 H282 H 0.81057 0.31601 0.25448
 H283 H 0.78533 0.28468 0.22870
 C284 C 0.70480 0.20053 0.30823
 C285 C 0.79588 0.18843 0.19667
 C286 C 0.79578 0.31197 0.29765
 C287 C 0.70572 0.30045 0.18391
 C288 C 0.26527 0.71874 0.19906
 H289 H 0.25287 0.72898 0.18706
 C290 C 0.27927 0.70114 0.18371
 H291 H 0.27740 0.69794 0.15996
 C292 C 0.28322 0.71138 0.24428
 H293 H 0.28478 0.71586 0.26785
 C294 C 0.29768 0.69397 0.22979
 H295 H 0.31024 0.68490 0.24249
 N296 N 0.26752 0.72357 0.22879
 C297 C 0.21728 0.74450 0.28856
 H298 H 0.21564 0.76778 0.28389
 C299 C 0.20281 0.73004 0.30623
 H300 H 0.19015 0.74248 0.31530
 C301 C 0.23545 0.69997 0.28143
 H302 H 0.24794 0.68822 0.27117
 C303 C 0.22145 0.68468 0.29928
 H304 H 0.22340 0.66123 0.30266
 Zn305 Zn 0.25034 0.75002 0.24959
 N306 N 0.23310 0.72934 0.27637
 C307 C 0.21746 0.75516 0.21038
 N308 N 0.23321 0.77053 0.22276
 C309 C 0.23557 0.79995 0.21784
 C310 C 0.22161 0.81511 0.19998
 C311 C 0.20304 0.76948 0.19268
 C312 C 0.26484 0.78237 0.29985
 C313 C 0.27879 0.80021 0.31522
 C314 C 0.29813 0.80578 0.26963
 C315 C 0.28363 0.78824 0.25513
 N316 N 0.26754 0.77668 0.27039
 H317 H 0.21583 0.73184 0.21493
 H318 H 0.24804 0.81183 0.22823
 H319 H 0.22356 0.83861 0.19671
 H320 H 0.19044 0.75687 0.18347
 H321 H 0.25207 0.77270 0.31165
 H322 H 0.27626 0.80403 0.33875
 H323 H 0.31092 0.81413 0.25676
 H324 H 0.28548 0.78316 0.23174
 C325 C 0.20467 0.69966 0.31157
 C326 C 0.29593 0.68888 0.19902
 C327 C 0.29607 0.81185 0.30033
 C328 C 0.20489 0.79992 0.18751
 O329 O 1.02878 0.04847 0.05535
 O330 O 1.05153 0.02254 0.02657
 C331 C 1.04722 0.04124 0.04751
 O332 O 0.97147 -0.05859 0.04696
 O333 O 0.94887 -0.02856 0.02240
 C334 C 0.95307 -0.05040 0.03998
 O335 O 1.02854 -0.05576 0.05064
 O336 O 1.05137 -0.02719 0.02437
 C337 C 1.04700 -0.04762 0.04362
 O338 O 0.97177 0.05066 0.05284
 O339 O 0.94905 0.02368 0.02477
 C340 C 0.95336 0.04337 0.04480
 Zr341 Zr 1.00024 0.03378 0.03861
 O342 O 0.99969 0.02616 0.08504
 O343 O 1.00060 0.07994 0.04531
 Zr344 Zr 1.00006 -0.03989 0.03510
 O345 O 0.99926 -0.03666 0.08205
 O346 O 1.00054 -0.08644 0.03755
 O347 O 1.01862 -0.00327 0.04267
 O348 O 0.98197 -0.00335 0.04208
 O349 O 0.97203 0.05457 -0.05079
 O350 O 0.94917 0.02558 -0.02509
 C351 C 0.95357 0.04661 -0.04363
 O352 O 1.02898 -0.05057 -0.05695
 O353 O 1.05164 -0.02474 -0.02769
 C354 C 1.04738 -0.04329 -0.04882
 O355 O 0.97181 -0.05257 -0.05574
 O356 O 0.94908 -0.02616 -0.02744
 C357 C 0.95339 -0.04548 -0.04777
 O358 O 1.02916 0.05307 -0.05219
 O359 O 1.05170 0.02471 -0.02556
 C360 C 1.04753 0.04505 -0.04491
 Zr361 Zr 1.00050 0.03755 -0.03660
 O362 O 0.99870 0.03933 -0.08366
 O363 O 1.00230 0.08412 -0.03416
 Zr364 Zr 1.00036 -0.03666 -0.04012
 O365 O 0.99854 -0.03392 -0.08715
 O366 O 1.00201 -0.08322 -0.04231
 Zr367 Zr 1.03095 -0.00122 -0.00072
 Zr368 Zr 0.96958 -0.00134 -0.00108
 O369 O 0.98260 0.00065 -0.04393
 O370 O 1.01879 0.00076 -0.04416
 O371 O 0.98217 0.04153 0.00114
 O372 O 1.01798 -0.04373 -0.00266
 O373 O 1.01816 0.04121 0.00134
 O374 O 0.98199 -0.04418 -0.00295
 H375 H 0.97248 -0.00423 0.05929
 H376 H 1.02709 -0.06110 -0.00345
 H377 H 0.97351 0.00141 -0.06157
 H378 H 1.02736 0.05861 0.00210
 H379 H 1.00304 -0.09373 0.01715
 H380 H 0.99054 -0.09128 -0.03037
 H381 H 1.01049 -0.02238 -0.09415
 H382 H 1.01039 0.02810 -0.09175
 H383 H 0.99084 0.09089 -0.02151
 H384 H 1.00401 0.08907 0.02595
 H385 H 0.99919 0.04589 0.09450
 H386 H 0.99857 -0.05718 0.08954
 O387 O 1.02864 0.54908 0.55635
 O388 O 1.05136 0.52306 0.52766
 C389 C 1.04706 0.54191 0.54844
 O390 O 0.97194 0.44264 0.55158
 O391 O 0.94909 0.47077 0.52528
 C392 C 0.95348 0.45013 0.54419
 O393 O 1.02910 0.44534 0.55297
 O394 O 1.05163 0.47308 0.52526
 C395 C 1.04747 0.45319 0.54517
 O396 O 0.97161 0.55057 0.55437
 O397 O 0.94892 0.52292 0.52694
 C398 C 0.95320 0.54294 0.54664
 Zr399 Zr 1.00013 0.53392 0.53999
 O400 O 0.99980 0.52715 0.58655
 O401 O 1.00008 0.58018 0.54600
 Zr402 Zr 1.00040 0.45998 0.53713
 O403 O 0.99883 0.45875 0.58423
 O404 O 1.00254 0.41344 0.53520
 O405 O 1.01872 0.49707 0.54421
 O406 O 0.98227 0.49656 0.54406
 O407 O 0.97115 0.55411 0.45179
 O408 O 0.94871 0.52408 0.47705
 C409 C 0.95280 0.54562 0.45901
 O410 O 1.02876 0.44945 0.44442
 O411 O 1.05145 0.47552 0.47343
 C412 C 1.04717 0.45691 0.45234
 O413 O 0.97173 0.44637 0.44673
 O414 O 0.94899 0.47255 0.47523
 C415 C 0.95331 0.45326 0.45488
 O416 O 1.02840 0.55252 0.44856
 O417 O 1.05128 0.52539 0.47593
 C418 C 1.04688 0.54516 0.45607
 Zr419 Zr 0.99992 0.53684 0.46471
 O420 O 0.99893 0.53529 0.41769
 O421 O 1.00139 0.58348 0.46502
 Zr422 Zr 1.00021 0.46275 0.46196
 O423 O 0.99839 0.46488 0.41494
 O424 O 1.00244 0.41621 0.46042
 Zr425 Zr 1.03083 0.49892 0.50071
 Zr426 Zr 0.96947 0.49790 0.50109
 O427 O 0.98212 0.49976 0.45802
 O428 O 1.01843 0.50034 0.45744
 O429 O 0.98181 0.54095 0.50268
 O430 O 1.01812 0.45620 0.49921
 O431 O 1.01777 0.54117 0.50243
 O432 O 0.98203 0.45519 0.49943
 H433 H 0.97305 0.49596 0.56158
 H434 H 1.02732 0.43892 0.49842
 H435 H 0.97288 0.50034 0.44054
 H436 H 1.02684 0.55872 0.50291
 H437 H 0.99094 0.40614 0.52309
 H438 H 0.99096 0.40800 0.47220
 H439 H 1.00826 0.48012 0.40826
 H440 H 0.99870 0.55607 0.41089
 H441 H 0.99129 0.59044 0.47984
 H442 H 1.00442 0.58913 0.52696
 H443 H 0.99929 0.54703 0.59566
 H444 H 1.00955 0.47222 0.59194
 O445 O 0.52788 0.05187 0.55359
 O446 O 0.55077 0.02652 0.52456
 C447 C 0.54635 0.04496 0.54567
 O448 O 0.47142 -0.05358 0.54883
 O449 O 0.44860 -0.02580 0.52211
 C450 C 0.45298 -0.04620 0.54129
 O451 O 0.52850 -0.05087 0.55060
 O452 O 0.55109 -0.02298 0.52323
 C453 C 0.54689 -0.04283 0.54314
 O454 O 0.47086 0.05318 0.55137
 O455 O 0.44833 0.02588 0.52327
 C456 C 0.45249 0.04554 0.54342
 Zr457 Zr 0.49946 0.03812 0.53568
 O458 O 0.49914 0.04131 0.58268
 O459 O 0.49969 0.08453 0.53156
 Zr460 Zr 0.49988 -0.03638 0.53436
 O461 O 0.49814 -0.03714 0.58146
 O462 O 0.50209 -0.08293 0.53305
 O463 O 0.51790 0.00106 0.54101
 O464 O 0.48188 0.00040 0.54056
 O465 O 0.47093 0.05576 0.44651
 O466 O 0.44837 0.02703 0.47310
 C467 C 0.45255 0.04768 0.45400
 O468 O 0.52855 -0.04850 0.44223
 O469 O 0.55104 -0.02170 0.47088
 C470 C 0.54691 -0.04058 0.45001
 O471 O 0.47119 -0.05122 0.44432
 O472 O 0.44836 -0.02444 0.47221
 C473 C 0.45272 -0.04410 0.45222
 O474 O 0.52805 0.05480 0.44453
 O475 O 0.55083 0.02769 0.47205
 C476 C 0.54649 0.04729 0.45202
 Zr477 Zr 0.49956 0.03945 0.46088
 O478 O 0.49758 0.04021 0.41380
 O479 O 0.50108 0.08607 0.46237
 Zr480 Zr 0.49988 -0.03492 0.45931
 O481 O 0.49783 -0.03412 0.41224
 O482 O 0.50215 -0.08148 0.45888
 Zr483 Zr 0.53039 0.00206 0.49767
 Zr484 Zr 0.46905 0.00092 0.49760
 O485 O 0.48191 0.00207 0.45461
 O486 O 0.51804 0.00270 0.45425
 O487 O 0.48107 0.04413 0.49841
 O488 O 0.51776 -0.04072 0.49673
 O489 O 0.51746 0.04445 0.49849
 O490 O 0.48157 -0.04183 0.49671
 H491 H 0.47269 -0.00021 0.55810
 H492 H 0.52701 -0.05795 0.49632
 H493 H 0.47277 0.00231 0.43701
 H494 H 0.52664 0.06191 0.49895
 H495 H 0.49056 -0.09043 0.52092
 H496 H 0.49024 -0.08949 0.46988
 H497 H 0.50913 -0.02155 0.40478
 H498 H 0.50919 0.02871 0.40589
 H499 H 0.49032 0.09283 0.47627
 H500 H 0.50007 0.09238 0.55215
 H501 H 0.49584 0.02150 0.59047
 H502 H 0.50960 -0.02501 0.58919
 O503 O 0.52954 0.55047 0.05567
 O504 O 0.55213 0.52510 0.02613
 C505 C 0.54793 0.54336 0.04751
 O506 O 0.47223 0.44492 0.04920
 O507 O 0.44948 0.47395 0.02370
 C508 C 0.45380 0.45282 0.04212
 O509 O 0.52928 0.44709 0.05116
 O510 O 0.55197 0.47543 0.02436
 C511 C 0.54769 0.45514 0.04379
 O512 O 0.47242 0.55317 0.05347
 O513 O 0.44960 0.52618 0.02556
 C514 C 0.45397 0.54588 0.04557
 Zr515 Zr 0.50090 0.53668 0.03854
 O516 O 0.50022 0.53105 0.08527
 O517 O 0.50286 0.58312 0.04221
 Zr518 Zr 0.50073 0.46289 0.03594
 O519 O 0.50056 0.46693 0.08283
 O520 O 0.50080 0.41635 0.03881
 O521 O 0.51929 0.49961 0.04279
 O522 O 0.48272 0.49953 0.04266
 O523 O 0.47220 0.55632 -0.05068
 O524 O 0.44949 0.52760 -0.02441
 C525 C 0.45379 0.54841 -0.04323
 O526 O 0.52912 0.45112 -0.05639
 O527 O 0.55193 0.47729 -0.02771
 C528 C 0.54757 0.45850 -0.04857
 O529 O 0.47199 0.44914 -0.05440
 O530 O 0.44939 0.47585 -0.02617
 C531 C 0.45361 0.45631 -0.04634
 O532 O 0.52933 0.55481 -0.05277
 O533 O 0.55203 0.52680 -0.02607
 C534 C 0.54774 0.54691 -0.04560
 Zr535 Zr 0.50076 0.53953 -0.03661
 O536 O 0.49866 0.54105 -0.08365
 O537 O 0.50288 0.58610 -0.03448
 Zr538 Zr 0.50060 0.46526 -0.03932
 O539 O 0.49852 0.46744 -0.08635
 O540 O 0.50220 0.41867 -0.04093
 Zr541 Zr 0.53141 0.50113 -0.00071
 Zr542 Zr 0.47003 0.50097 -0.00033
 O543 O 0.48283 0.50252 -0.04334
 O544 O 0.51900 0.50265 -0.04402
 O545 O 0.48255 0.54390 0.00124
 O546 O 0.51843 0.45862 -0.00201
 O547 O 0.51865 0.54360 0.00108
 O548 O 0.48243 0.45813 -0.00183
 H549 H 0.47342 0.49887 0.06009
 H550 H 0.52755 0.44125 -0.00277
 H551 H 0.47365 0.50308 -0.06089
 H552 H 0.52781 0.56105 0.00175
 H553 H 0.50456 0.40881 0.01892
 H554 H 0.49101 0.41081 -0.02832
 H555 H 0.51039 0.47899 -0.09362
 H556 H 0.51015 0.52945 -0.09180
 H557 H 0.49104 0.59326 -0.02287
 H558 H 0.49313 0.59148 0.02766
 H559 H 0.50013 0.55116 0.09390
 H560 H 0.49992 0.44654 0.09071
 C561 C 1.15913 0.14990 0.14510
 N562 N 1.15553 0.17761 0.15513
 N563 N 1.17014 0.19287 0.16901
 C564 C 1.18891 0.18098 0.17357
 N565 N 1.19251 0.15322 0.16347
 N566 N 1.17792 0.13800 0.14940
 C567 C 1.14274 0.13302 0.13047
 N568 N 1.14666 0.10698 0.11667
 N569 N 1.13162 0.09178 0.10361
 C570 C 1.11211 0.10198 0.10409
 N571 N 1.10823 0.12795 0.11795
 N572 N 1.12326 0.14322 0.13081
 C573 C 1.09538 0.08547 0.08985
 N574 N 1.07570 0.09377 0.09427
 N575 N 1.06040 0.07935 0.08109
 C576 C 1.06420 0.05615 0.06285
 N577 N 1.08390 0.04777 0.05840
 N578 N 1.09922 0.06211 0.07177
 C579 C 1.15928 0.65065 0.64481
 N580 N 1.15579 0.67843 0.65474
 N581 N 1.17046 0.69358 0.66860
 C582 C 1.18916 0.68152 0.67324
 N583 N 1.19265 0.65370 0.66322
 N584 N 1.17801 0.63858 0.64917
 C585 C 1.14284 0.63387 0.63027
 N586 N 1.14665 0.60771 0.61666
 N587 N 1.13155 0.59254 0.60373
 C588 C 1.11209 0.60290 0.60418
 N589 N 1.10830 0.62900 0.61785
 N590 N 1.12340 0.64424 0.63058
 C591 C 1.09531 0.58640 0.59013
 N592 N 1.07565 0.59483 0.59454
 N593 N 1.06031 0.58034 0.58155
 C594 C 1.06405 0.55696 0.56352
 N595 N 1.08373 0.54847 0.55909
 N596 N 1.09908 0.56288 0.57226
 C597 C 0.65841 0.15167 0.64505
 N598 N 0.65497 0.17932 0.65538
 N599 N 0.66968 0.19426 0.66938
 C600 C 0.68839 0.18210 0.67378
 N601 N 0.69182 0.15440 0.66339
 N602 N 0.67714 0.13951 0.64919
 C603 C 0.64194 0.13514 0.63021
 N604 N 0.64575 0.10923 0.61611
 N605 N 0.63066 0.09434 0.60282
 C606 C 0.61121 0.10472 0.60336
 N607 N 0.60742 0.13056 0.61753
 N608 N 0.62251 0.14553 0.63063
 C609 C 0.59445 0.08854 0.58882
 N610 N 0.57477 0.09691 0.59320
 N611 N 0.55948 0.08272 0.57974
 C612 C 0.56329 0.05970 0.56127
 N613 N 0.58298 0.05127 0.55687
 N614 N 0.59829 0.06537 0.57050
 C615 C 0.65910 0.64663 0.15253
 N616 N 0.67927 0.64070 0.14843
 N617 N 0.69357 0.65615 0.16294
 C618 C 0.68822 0.67814 0.18199
 N619 N 0.66803 0.68392 0.18594
 N620 N 0.65379 0.66850 0.17155
 C621 C 0.64304 0.63000 0.13685
 N622 N 0.62309 0.63584 0.14262
 N623 N 0.60827 0.62128 0.12853
 C624 C 0.61280 0.60031 0.10805
 N625 N 0.63277 0.59437 0.10221
 N626 N 0.64765 0.60895 0.11640
 C627 C 0.59617 0.58482 0.09244
 N628 N 0.60009 0.56471 0.07077
 N629 N 0.58476 0.55128 0.05648
 C630 C 0.56500 0.55748 0.06341
 N631 N 0.56114 0.57749 0.08514
 N632 N 0.57643 0.59090 0.09936
 C633 C 0.84168 -0.15769 0.14024
 N634 N 0.82187 -0.14878 0.13954
 N635 N 0.80765 -0.16278 0.15563
 C636 C 0.81273 -0.18619 0.17302
 N637 N 0.83255 -0.19505 0.17348
 N638 N 0.84671 -0.18112 0.15745
 C639 C 0.85772 -0.14209 0.12348
 N640 N 0.87744 -0.15107 0.12564
 N641 N 0.89229 -0.13677 0.11132
 C642 C 0.88801 -0.11293 0.09422
 N643 N 0.86826 -0.10395 0.09188
 N644 N 0.85337 -0.11828 0.10628
 C645 C 0.90470 -0.09690 0.07930
 N646 N 0.90091 -0.07322 0.06165
 N647 N 0.91628 -0.05850 0.04883
 C648 C 0.93597 -0.06691 0.05327
 N649 N 0.93971 -0.09062 0.07083
 N650 N 0.92437 -0.10534 0.08357
 C651 C 0.84090 0.35330 0.65218
 N652 N 0.82332 0.34487 0.63847
 N653 N 0.80870 0.33076 0.65360
 C654 C 0.81096 0.32467 0.68313
 N655 N 0.82854 0.33357 0.69675
 N656 N 0.84322 0.34744 0.68160
 C657 C 0.85743 0.36781 0.63546
 N658 N 0.87639 0.37023 0.64756
 N659 N 0.89158 0.38291 0.63241
 C660 C 0.88835 0.39385 0.60469
 N661 N 0.86936 0.39159 0.59260
 N662 N 0.85419 0.37866 0.60767
 C663 C 0.90521 0.40793 0.58828
 N664 N 0.90158 0.42445 0.56362
 N665 N 0.91695 0.43776 0.54935
 C666 C 0.93651 0.43477 0.55908
 N667 N 0.94012 0.41805 0.58357
 N668 N 0.92476 0.40497 0.59796
 C669 C 0.34134 -0.14411 0.65013
 N670 N 0.32262 -0.14877 0.63787
 N671 N 0.30808 -0.16298 0.65308
 C672 C 0.31168 -0.17286 0.68118
 N673 N 0.33038 -0.16793 0.69342
 N674 N 0.34494 -0.15391 0.67818
 C675 C 0.35768 -0.12936 0.63326
 N676 N 0.37712 -0.12928 0.64385
 N677 N 0.39213 -0.11633 0.62857
 C678 C 0.38825 -0.10285 0.60220
 N679 N 0.36878 -0.10280 0.59162
 N680 N 0.35377 -0.11594 0.60684
 C681 C 0.40494 -0.08856 0.58568
 N682 N 0.40108 -0.07095 0.56189
 N683 N 0.41637 -0.05755 0.54750
 C684 C 0.43605 -0.06151 0.55628
 N685 N 0.43988 -0.07928 0.57992
 N686 N 0.42461 -0.09249 0.59439
 C687 C 0.34169 0.35454 0.14988
 N688 N 0.34527 0.34449 0.17785
 N689 N 0.33061 0.33074 0.19314
 C690 C 0.31180 0.32633 0.18103
 N691 N 0.30823 0.33644 0.15300
 N692 N 0.32287 0.35038 0.13775
 C693 C 0.35813 0.36909 0.13300
 N694 N 0.35424 0.38307 0.10685
 N695 N 0.36932 0.39615 0.09170
 C696 C 0.38884 0.39549 0.10206
 N697 N 0.39270 0.38143 0.12812
 N698 N 0.37763 0.36856 0.14334
 C699 C 0.40560 0.40984 0.08567
 N700 N 0.42528 0.40532 0.09403
 N701 N 0.44059 0.41869 0.07979
 C702 C 0.43681 0.43722 0.05673
 N703 N 0.41711 0.44175 0.04828
 N704 N 0.40178 0.42820 0.06243
 C705 C 0.84152 0.14462 -0.15021
 N706 N 0.82285 0.14890 -0.13772
 N707 N 0.80820 0.16292 -0.15268
 C708 C 0.81163 0.17299 -0.18078
 N709 N 0.83028 0.16846 -0.19326
 N710 N 0.84495 0.15463 -0.17826
 C711 C 0.85797 0.12999 -0.13364
 N712 N 0.87738 0.13039 -0.14436
 N713 N 0.89246 0.11748 -0.12938
 C714 C 0.88868 0.10352 -0.10320
 N715 N 0.86924 0.10300 -0.09248
 N716 N 0.85416 0.11611 -0.10738
 C717 C 0.90544 0.08918 -0.08703
 N718 N 0.90162 0.07099 -0.06362
 N719 N 0.91694 0.05753 -0.04957
 C720 C 0.93662 0.06200 -0.05829
 N721 N 0.94041 0.08035 -0.08154
 N722 N 0.92511 0.09362 -0.09569
 C723 C 0.83863 0.65013 0.36429
 N724 N 0.82144 0.63575 0.35524
 N725 N 0.80674 0.65011 0.34069
 C726 C 0.80863 0.67942 0.33487
 N727 N 0.82578 0.69372 0.34419
 N728 N 0.84050 0.67936 0.35852
 C729 C 0.85529 0.63441 0.37930
 N730 N 0.87376 0.64773 0.38296
 N731 N 0.88913 0.63355 0.39599
 C732 C 0.88656 0.60557 0.40608
 N733 N 0.86805 0.59226 0.40260
 N734 N 0.85270 0.60639 0.38934
 C735 C 0.90368 0.58999 0.42010
 N736 N 0.90059 0.56418 0.43480
 N737 N 0.91623 0.55013 0.44739
 C738 C 0.93552 0.56127 0.44555
 N739 N 0.93859 0.58703 0.43079
 N740 N 0.92295 0.60118 0.41841
 C741 C 0.33992 0.14451 0.34761
 N742 N 0.32257 0.15320 0.36164
 N743 N 0.30810 0.16773 0.34682
 C744 C 0.31029 0.17401 0.31730
 N745 N 0.32763 0.16484 0.30337
 N746 N 0.34215 0.15055 0.31821
 C747 C 0.35635 0.12961 0.36397
 N748 N 0.37517 0.12697 0.35153
 N749 N 0.39031 0.11405 0.36636
 C750 C 0.38717 0.10306 0.39411
 N751 N 0.36830 0.10551 0.40654
 N752 N 0.35318 0.11869 0.39178
 C753 C 0.40404 0.08896 0.41023
 N754 N 0.40052 0.07246 0.43498
 N755 N 0.41595 0.05933 0.44908
 C756 C 0.43546 0.06250 0.43910
 N757 N 0.43896 0.07918 0.41451
 N758 N 0.42354 0.09206 0.40028
 C759 C 0.34168 0.64517 -0.15054
 N760 N 0.32298 0.64944 -0.13814
 N761 N 0.30837 0.66344 -0.15318
 C762 C 0.31187 0.67350 -0.18127
 N763 N 0.33055 0.66896 -0.19367
 N764 N 0.34517 0.65514 -0.17858
 C765 C 0.35810 0.63064 -0.13387
 N766 N 0.37752 0.63103 -0.14455
 N767 N 0.39259 0.61827 -0.12945
 C768 C 0.38880 0.60448 -0.10319
 N769 N 0.36935 0.60396 -0.09251
 N770 N 0.35427 0.61692 -0.10753
 C771 C 0.40556 0.59037 -0.08689
 N772 N 0.40178 0.57237 -0.06331
 N773 N 0.41713 0.55912 -0.04915
 C774 C 0.43680 0.56359 -0.05795
 N775 N 0.44054 0.58175 -0.08136
 N776 N 0.42521 0.59482 -0.09561
 C777 C 1.15968 -0.15095 -0.14449
 N778 N 1.15609 -0.17876 -0.15441
 N779 N 1.17074 -0.19389 -0.16809
 C780 C 1.18953 -0.18178 -0.17257
 N781 N 1.19312 -0.15394 -0.16256
 N782 N 1.17849 -0.13884 -0.14868
 C783 C 1.14323 -0.13419 -0.13018
 N784 N 1.14711 -0.10807 -0.11643
 N785 N 1.13200 -0.09295 -0.10369
 C786 C 1.11248 -0.10331 -0.10450
 N787 N 1.10863 -0.12936 -0.11832
 N788 N 1.12373 -0.14455 -0.13085
 C789 C 1.09569 -0.08692 -0.09059
 N790 N 1.07602 -0.09535 -0.09538
 N791 N 1.06067 -0.08107 -0.08241
 C792 C 1.06441 -0.05792 -0.06403
 N793 N 1.08409 -0.04941 -0.05923
 N794 N 1.09947 -0.06359 -0.07238
 C795 C 1.15929 0.34954 0.35546
 N796 N 1.17813 0.36159 0.35127
 N797 N 1.19274 0.34644 0.33739
 C798 C 1.18912 0.31860 0.32739
 N799 N 1.17030 0.30656 0.33186
 N800 N 1.15567 0.32174 0.34554
 C801 C 1.14286 0.36634 0.36987
 N802 N 1.12335 0.35601 0.36930
 N803 N 1.10829 0.37118 0.38197
 C804 C 1.11218 0.39719 0.39585
 N805 N 1.13172 0.40753 0.39655
 N806 N 1.14678 0.39242 0.38367
 C807 C 1.09542 0.41355 0.40995
 N808 N 1.09923 0.43684 0.42819
 N809 N 1.08388 0.45095 0.44153
 C810 C 1.06419 0.44240 0.43689
 N811 N 1.06042 0.41928 0.41847
 N812 N 1.07574 0.40509 0.40532
 C813 C 0.66183 -0.14226 0.35408
 N814 N 0.65997 -0.17168 0.34940
 N815 N 0.67504 -0.18675 0.33669
 C816 C 0.69255 -0.17302 0.32795
 N817 N 0.69441 -0.14350 0.33259
 N818 N 0.67937 -0.12841 0.34558
 C819 C 0.64487 -0.12596 0.36769
 N820 N 0.64754 -0.09821 0.37842
 N821 N 0.63200 -0.08390 0.39106
 C822 C 0.61323 -0.09675 0.39312
 N823 N 0.61058 -0.12439 0.38221
 N824 N 0.62612 -0.13877 0.36985
 C825 C 0.59603 -0.08141 0.40722
 N826 N 0.57670 -0.09206 0.40418
 N827 N 0.56104 -0.07878 0.41748
 C828 C 0.56414 -0.05447 0.43455
 N829 N 0.58348 -0.04377 0.43762
 N830 N 0.59914 -0.05693 0.42409
 C831 C 0.65954 0.35002 -0.14452
 N832 N 0.67839 0.36202 -0.14877
 N833 N 0.69300 0.34677 -0.16253
 C834 C 0.68937 0.31888 -0.17236
 N835 N 0.67054 0.30688 -0.16784
 N836 N 0.65591 0.32217 -0.15427
 C837 C 0.64312 0.36692 -0.13024
 N838 N 0.62360 0.35659 -0.13072
 N839 N 0.60855 0.37187 -0.11816
 C840 C 0.61245 0.39799 -0.10449
 N841 N 0.63198 0.40832 -0.10389
 N842 N 0.64705 0.39311 -0.11665
 C843 C 0.59571 0.41448 -0.09051
 N844 N 0.59956 0.43796 -0.07254
 N845 N 0.58424 0.45225 -0.05934
 C846 C 0.56453 0.44370 -0.06384
 N847 N 0.56072 0.42038 -0.08199
 N848 N 0.57601 0.40600 -0.09501
 C849 C 1.16030 0.15338 -0.14076
 N850 N 1.17774 0.13963 -0.14932
 N851 N 1.19222 0.15431 -0.16417
 C852 C 1.18992 0.18337 -0.17090
 N853 N 1.17252 0.19707 -0.16191
 N854 N 1.15799 0.18237 -0.14727
 C855 C 1.14387 0.13707 -0.12559
 N856 N 1.12508 0.14930 -0.12253
 N857 N 1.10993 0.13438 -0.10954
 C858 C 1.11302 0.10674 -0.09893
 N859 N 1.13186 0.09453 -0.10178
 N860 N 1.14700 0.10939 -0.11500
 C861 C 1.09612 0.09038 -0.08496
 N862 N 1.09958 0.06513 -0.06952
 N863 N 1.08412 0.05058 -0.05673
 C864 C 1.06465 0.06064 -0.05918
 N865 N 1.06122 0.08578 -0.07474
 N866 N 1.07667 0.10043 -0.08730
 C867 C 1.15893 0.65361 0.35828
 N868 N 1.17748 0.64111 0.35348
 N869 N 1.19209 0.65579 0.33889
 C870 C 1.18877 0.68360 0.32872
 N871 N 1.17024 0.69610 0.33378
 N872 N 1.15560 0.68138 0.34819
 C873 C 1.14250 0.63725 0.37345
 N874 N 1.12319 0.64810 0.37392
 N875 N 1.10812 0.63318 0.38713
 C876 C 1.11181 0.60690 0.40052
 N877 N 1.13115 0.59608 0.40020
 N878 N 1.14621 0.61094 0.38680
 C879 C 1.09504 0.59055 0.41488
 N880 N 1.09882 0.56648 0.43198
 N881 N 1.08351 0.55193 0.44512
 C882 C 1.06385 0.56081 0.44144
 N883 N 1.06009 0.58479 0.42423
 N884 N 1.07539 0.59942 0.41127
 C885 C 0.65894 0.15481 0.35482
 N886 N 0.67748 0.14226 0.35022
 N887 N 0.69215 0.15685 0.33569
 C888 C 0.68887 0.18462 0.32539
 N889 N 0.67035 0.19718 0.33027
 N890 N 0.65566 0.18255 0.34463
 C891 C 0.64245 0.13853 0.36982
 N892 N 0.62316 0.14942 0.37003
 N893 N 0.60801 0.13453 0.38307
 C894 C 0.61161 0.10826 0.39651
 N895 N 0.63094 0.09740 0.39645
 N896 N 0.64609 0.11223 0.38323
 C897 C 0.59479 0.09201 0.41072
 N898 N 0.59848 0.06801 0.42795
 N899 N 0.58310 0.05361 0.44107
 C900 C 0.56348 0.06260 0.43723
 N901 N 0.55982 0.08649 0.41987
 N902 N 0.57518 0.10096 0.40692
 C903 C 0.65966 0.65492 -0.14402
 N904 N 0.67712 0.64124 -0.15261
 N905 N 0.69150 0.65592 -0.16767
 C906 C 0.68908 0.68492 -0.17459
 N907 N 0.67165 0.69855 -0.16559
 N908 N 0.65722 0.68385 -0.15073
 C909 C 0.64336 0.63861 -0.12853
 N910 N 0.62454 0.65073 -0.12538
 N911 N 0.60951 0.63584 -0.11205
 C912 C 0.61276 0.60833 -0.10118
 N913 N 0.63163 0.59624 -0.10413
 N914 N 0.64664 0.61107 -0.11769
 C915 C 0.59599 0.59201 -0.08681
 N916 N 0.59961 0.56696 -0.07112
 N917 N 0.58427 0.55248 -0.05795
 C918 C 0.56475 0.56241 -0.06026
 N919 N 0.56117 0.58735 -0.07608
 N920 N 0.57650 0.60193 -0.08902
 C921 C 0.84086 -0.14194 -0.15626
 N922 N 0.84412 -0.15163 -0.18445
 N923 N 0.82944 -0.16583 -0.19927
 C924 C 0.81094 -0.17105 -0.18647
 N925 N 0.80768 -0.16126 -0.15824
 N926 N 0.82234 -0.14689 -0.14345
 C927 C 0.85735 -0.12702 -0.13982
 N928 N 0.85375 -0.11413 -0.11302
 N929 N 0.86889 -0.10094 -0.09811
 C930 C 0.88817 -0.10038 -0.10939
 N931 N 0.89174 -0.11330 -0.13615
 N932 N 0.87660 -0.12630 -0.15111
 C933 C 0.90501 -0.08622 -0.09303
 N934 N 0.92460 -0.08949 -0.10247
 N935 N 0.93998 -0.07667 -0.08786
 C936 C 0.93635 -0.05997 -0.06336
 N937 N 0.91675 -0.05663 -0.05391
 N938 N 0.90136 -0.06962 -0.06843
 C939 C 0.84124 0.35801 0.34472
 N940 N 0.84468 0.34845 0.31653
 N941 N 0.83011 0.33428 0.30147
 C942 C 0.81155 0.32898 0.31403
 N943 N 0.80810 0.33866 0.34224
 N944 N 0.82265 0.35299 0.35728
 C945 C 0.85763 0.37274 0.36147
 N946 N 0.85388 0.38541 0.38833
 N947 N 0.86896 0.39834 0.40358
 C948 C 0.88832 0.39885 0.39258
 N949 N 0.89203 0.38615 0.36576
 N950 N 0.87696 0.37340 0.35046
 C951 C 0.90509 0.41272 0.40926
 N952 N 0.92470 0.40938 0.40001
 N953 N 0.94003 0.42206 0.41480
 C954 C 0.93632 0.43868 0.43933
 N955 N 0.91670 0.44207 0.44863
 N956 N 0.90134 0.42921 0.43391
 C957 C 0.34025 -0.14229 0.34508
 N958 N 0.34240 -0.14847 0.31569
 N959 N 0.32782 -0.16304 0.30101
 C960 C 0.31051 -0.17233 0.31510
 N961 N 0.30841 -0.16590 0.34459
 N962 N 0.32293 -0.15112 0.35924
 C963 C 0.35671 -0.12707 0.36132
 N964 N 0.35362 -0.11645 0.38925
 N965 N 0.36874 -0.10303 0.40398
 C966 C 0.38754 -0.10000 0.39139
 N967 N 0.39061 -0.11068 0.36351
 N968 N 0.37547 -0.12386 0.34871
 C969 C 0.40439 -0.08565 0.40758
 N970 N 0.42386 -0.08781 0.39734
 N971 N 0.43924 -0.07480 0.41177
 C972 C 0.43571 -0.05895 0.43689
 N973 N 0.41622 -0.05671 0.44714
 N974 N 0.40084 -0.06994 0.43281
 C975 C 0.34130 0.35806 -0.15362
 N976 N 0.34461 0.34815 -0.18172
 N977 N 0.33003 0.33361 -0.19639
 C978 C 0.31158 0.32823 -0.18352
 N979 N 0.30827 0.33822 -0.15538
 N980 N 0.32283 0.35294 -0.14073
 C981 C 0.35771 0.37333 -0.13734
 N982 N 0.35406 0.38641 -0.11064
 N983 N 0.36914 0.39988 -0.09588
 C984 C 0.38842 0.40056 -0.10720
 N985 N 0.39202 0.38746 -0.13385
 N986 N 0.37695 0.37417 -0.14868
 C987 C 0.40522 0.41497 -0.09100
 N988 N 0.42480 0.41171 -0.10047
 N989 N 0.44017 0.42472 -0.08604
 C990 C 0.43654 0.44164 -0.06168
 N991 N 0.41695 0.44498 -0.05219
 N992 N 0.40156 0.43178 -0.06654
 C993 C 1.15919 -0.15460 0.14084
 N994 N 1.15596 -0.18258 0.15052
 N995 N 1.17059 -0.19710 0.16492
 C996 C 1.18901 -0.18420 0.17036
 N997 N 1.19224 -0.15619 0.16059
 N998 N 1.17764 -0.14169 0.14602
 C999 C 1.14275 -0.13847 0.12570
 N1000 N 1.14636 -0.11182 0.11285
 N1001 N 1.13128 -0.09718 0.09951
 C1002 C 1.11202 -0.10857 0.09872
 N1003 N 1.10844 -0.13518 0.11159
 N1004 N 1.12353 -0.14988 0.12476
 C1005 C 1.09523 -0.09245 0.08444
 N1006 N 1.07564 -0.10202 0.08754
 N1007 N 1.06031 -0.08758 0.07469
 C1008 C 1.06399 -0.06310 0.05809
 N1009 N 1.08360 -0.05353 0.05491
 N1010 N 1.09894 -0.06789 0.06794
 C1011 C 1.15968 0.34538 0.64107
 N1012 N 1.15622 0.31752 0.65093
 N1013 N 1.17075 0.30282 0.66535
 C1014 C 1.18929 0.31543 0.67064
 N1015 N 1.19275 0.34332 0.66066
 N1016 N 1.17825 0.35799 0.64607
 C1017 C 1.14332 0.36173 0.62604
 N1018 N 1.14709 0.38821 0.61294
 N1019 N 1.13203 0.40307 0.59977
 C1020 C 1.11267 0.39206 0.59945
 N1021 N 1.10894 0.36562 0.61257
 N1022 N 1.12399 0.35070 0.62555
 C1023 C 1.09588 0.40837 0.58544
 N1024 N 1.07626 0.39923 0.58928
 N1025 N 1.06089 0.41373 0.57663
 C1026 C 1.06456 0.43785 0.55951
 N1027 N 1.08419 0.44703 0.55560
 N1028 N 1.09959 0.43260 0.56844
 C1029 C 0.65899 -0.15158 0.63840
 N1030 N 0.67761 -0.13914 0.64341
 N1031 N 0.69213 -0.15407 0.65769
 C1032 C 0.68865 -0.18207 0.66732
 N1033 N 0.67006 -0.19452 0.66202
 N1034 N 0.65551 -0.17955 0.64792
 C1035 C 0.64262 -0.13494 0.62370
 N1036 N 0.62324 -0.14581 0.62326
 N1037 N 0.60820 -0.13066 0.61054
 C1038 C 0.61197 -0.10413 0.59762
 N1039 N 0.63138 -0.09327 0.59790
 N1040 N 0.64643 -0.10837 0.61082
 C1041 C 0.59520 -0.08763 0.58374
 N1042 N 0.59895 -0.06338 0.56679
 N1043 N 0.58359 -0.04890 0.55392
 C1044 C 0.56394 -0.05804 0.55776
 N1045 N 0.56023 -0.08216 0.57486
 N1046 N 0.57556 -0.09671 0.58754
 C1047 C 0.66017 0.34641 0.13762
 N1048 N 0.65685 0.31841 0.14714
 N1049 N 0.67146 0.30369 0.16136
 C1050 C 0.68994 0.31643 0.16676
 N1051 N 0.69326 0.34446 0.15711
 N1052 N 0.67868 0.35915 0.14272
 C1053 C 0.64373 0.36281 0.12291
 N1054 N 0.64737 0.38953 0.11028
 N1055 N 0.63223 0.40450 0.09745
 C1056 C 0.61291 0.39334 0.09701
 N1057 N 0.60931 0.36664 0.10965
 N1058 N 0.62444 0.35162 0.12230
 C1059 C 0.59608 0.40978 0.08333
 N1060 N 0.57648 0.40043 0.08693
 N1061 N 0.56109 0.41511 0.07453
 C1062 C 0.56473 0.43959 0.05795
 N1063 N 0.58434 0.44896 0.05430
 N1064 N 0.59975 0.43437 0.06687
 C1065 C 0.84129 0.14126 0.15127
 N1066 N 0.84456 0.15125 0.17937
 N1067 N 0.83001 0.16580 0.19389
 C1068 C 0.81164 0.17109 0.18086
 N1069 N 0.80837 0.16100 0.15274
 N1070 N 0.82290 0.14627 0.13824
 C1071 C 0.85766 0.12605 0.13513
 N1072 N 0.85403 0.11290 0.10845
 N1073 N 0.86910 0.09952 0.09376
 C1074 C 0.88834 0.09903 0.10515
 N1075 N 0.89194 0.11221 0.13179
 N1076 N 0.87687 0.12540 0.14654
 C1077 C 0.90511 0.08471 0.08905
 N1078 N 0.92468 0.08816 0.09855
 N1079 N 0.94002 0.07517 0.08422
 C1080 C 0.93636 0.05811 0.05995
 N1081 N 0.91678 0.05461 0.05042
 N1082 N 0.90142 0.06778 0.06466
 C1083 C 0.84080 0.64237 0.65130
 N1084 N 0.84399 0.65266 0.67930
 N1085 N 0.82934 0.66719 0.69367
 C1086 C 0.81094 0.67215 0.68059
 N1087 N 0.80775 0.66178 0.65254
 N1088 N 0.82238 0.64709 0.63820
 C1089 C 0.85725 0.62702 0.63538
 N1090 N 0.85368 0.61339 0.60893
 N1091 N 0.86878 0.59977 0.59454
 C1092 C 0.88802 0.59949 0.60600
 N1093 N 0.89155 0.61317 0.63241
 N1094 N 0.87645 0.62660 0.64686
 C1095 C 0.90484 0.58487 0.59022
 N1096 N 0.92440 0.58850 0.59969
 N1097 N 0.93977 0.57529 0.58563
 C1098 C 0.93615 0.55779 0.56166
 N1099 N 0.91657 0.55408 0.55217
 N1100 N 0.90119 0.56747 0.56615
 C1101 C 0.34044 0.14092 0.65251
 N1102 N 0.34390 0.15074 0.68062
 N1103 N 0.32942 0.16512 0.69549
 C1104 C 0.31093 0.17039 0.68282
 N1105 N 0.30746 0.16045 0.65469
 N1106 N 0.32192 0.14591 0.63984
 C1107 C 0.35675 0.12593 0.63597
 N1108 N 0.35299 0.11296 0.60924
 N1109 N 0.36802 0.09983 0.59421
 C1110 C 0.38735 0.09942 0.60530
 N1111 N 0.39107 0.11241 0.63200
 N1112 N 0.37605 0.12535 0.64708
 C1113 C 0.40412 0.08547 0.58880
 N1114 N 0.42372 0.08918 0.59804
 N1115 N 0.43908 0.07662 0.58336
 C1116 C 0.43541 0.05973 0.55897
 N1117 N 0.41579 0.05594 0.54970
 N1118 N 0.40041 0.06869 0.56430
 C1119 C 0.34173 0.64298 0.15294
 N1120 N 0.34496 0.65280 0.18111
 N1121 N 0.33030 0.66697 0.19583
 C1122 C 0.31185 0.67202 0.18294
 N1123 N 0.30862 0.66211 0.15473
 N1124 N 0.32326 0.64777 0.14005
 C1125 C 0.35819 0.62806 0.13661
 N1126 N 0.35456 0.61491 0.10992
 N1127 N 0.36966 0.60170 0.09512
 C1128 C 0.38894 0.60136 0.10640
 N1129 N 0.39254 0.61454 0.13304
 N1130 N 0.37744 0.62757 0.14790
 C1131 C 0.40574 0.58712 0.09017
 N1132 N 0.42534 0.59062 0.09955
 N1133 N 0.44067 0.57768 0.08513
 C1134 C 0.43698 0.56060 0.06087
 N1135 N 0.41736 0.55704 0.05147
 N1136 N 0.40202 0.57016 0.06580
   
