data_POSCAR
  _audit_creation_date              2014-09-24
  _audit_creation_method            'ToBaCCo'
  _symmetry_space_group_name_H-M    'P1'
  _symmetry_Int_Tables_number       1
  _symmetry_cell_setting            triclinic
  loop_
  _symmetry_equiv_pos_as_xyz
 x,y,z
_cell_length_a 29.7994
_cell_length_b 29.3000
_cell_length_c 29.6262
_cell_angle_alpha 99.089800
_cell_angle_beta 91.112500
_cell_angle_gamma 91.028200
loop_
  _atom_site_label
  _atom_site_type_symbol
  _atom_site_fract_x
  _atom_site_fract_y
  _atom_site_fract_z
C1 C 0.60084 0.52591 -0.00059
 C2 C 0.59562 0.57356 0.00053
 C3 C 0.55357 0.59469 0.00264
 C4 C 0.51433 0.56566 0.00118
 C5 C 0.51889 0.51735 0.00238
 C6 C 0.56216 0.49807 0.00353
 C7 C 0.56578 0.45254 0.01275
 C8 C 0.52810 0.42463 0.01522
 C9 C 0.48491 0.44106 0.00912
 C10 C 0.48009 0.48848 0.00470
 C11 C 0.47079 0.58328 0.00150
 C12 C 0.43313 0.55444 -0.00014
 C13 C 0.43667 0.50743 0.00394
 C14 C 0.39804 0.47854 0.00590
 C15 C 0.40389 0.43111 0.00611
 C16 C 0.44631 0.41212 0.00957
 H17 H 0.59793 0.43820 0.01955
 H18 H 0.53344 0.39021 0.02272
 H19 H 0.46454 0.61954 0.00325
 H20 H 0.40105 0.57003 -0.00425
 H21 H 0.62504 0.59488 -0.00317
 H22 H 0.37469 0.40882 0.00764
 C23 C 0.01038 0.59063 0.46309
 C24 C 0.01381 0.57084 0.41730
 C25 C 0.00599 0.52338 0.40245
 C26 C -0.00652 0.49487 0.43504
 C27 C -0.01001 0.51471 0.48171
 C28 C -0.00300 0.56288 0.49547
 C29 C -0.01103 0.58228 0.54102
 C30 C -0.02035 0.55437 0.57348
 C31 C -0.02250 0.50607 0.56154
 C32 C -0.02095 0.48640 0.51483
 C33 C -0.01841 0.44780 0.42223
 C34 C -0.02799 0.41994 0.45471
 C35 C -0.02933 0.43844 0.50137
 C36 C -0.03819 0.41034 0.53505
 C37 C -0.03532 0.42972 0.58133
 C38 C -0.02644 0.47699 0.59510
 H39 H -0.01016 0.61925 0.55218
 H40 H -0.02595 0.57107 0.60812
 H41 H -0.02098 0.43162 0.38691
 H42 H -0.03396 0.38361 0.44243
 H43 H 0.02506 0.59263 0.39316
 H44 H -0.03872 0.40728 0.60693
 C45 C 0.54967 -0.01485 0.58873
 C46 C 0.59404 -0.01540 0.57290
 C47 C 0.60454 -0.00978 0.52811
 C48 C 0.56920 0.00038 0.49852
 C49 C 0.52398 0.00051 0.51302
 C50 C 0.51398 -0.00694 0.55817
 C51 C 0.46846 -0.00977 0.56976
 C52 C 0.43403 -0.00250 0.53924
 C53 C 0.44327 0.00665 0.49513
 C54 C 0.48853 0.00663 0.48148
 C55 C 0.57800 0.01274 0.45544
 C56 C 0.54345 0.01714 0.42443
 C57 C 0.49847 0.01147 0.43587
 C58 C 0.46333 0.01097 0.40277
 C59 C 0.41890 0.01429 0.41752
 C60 C 0.40843 0.01407 0.46363
 H61 H 0.45859 -0.01884 0.60212
 H62 H 0.39985 -0.00590 0.55011
 H63 H 0.61184 0.01896 0.44501
 H64 H 0.55228 0.02539 0.39133
 H65 H 0.62106 -0.02240 0.59572
 H66 H 0.39214 0.01649 0.39272
 O67 O 0.46997 -0.01428 -0.07396
 O68 O 0.46041 -0.00727 0.05191
 O69 O 0.44992 0.05176 -0.00456
 O70 O 0.48160 -0.07115 -0.01401
 O71 O 0.55247 -0.04837 -0.00185
 O72 O 0.52145 0.07312 -0.00012
 O73 O 0.53156 0.01575 0.06052
 O74 O 0.54238 0.00257 -0.06440
 Cu75 Cu 0.45819 -0.01179 -0.01177
 Cu76 Cu 0.54379 0.01415 -0.00105
 C77 C 0.50846 -0.00918 -0.09047
 C78 C 0.49505 0.00379 0.07730
 C79 C 0.48025 0.08329 -0.00013
 C80 C 0.52250 -0.08032 -0.00696
 O81 O -0.06676 0.52544 1.00591
 O82 O 0.05496 0.54486 1.01693
 O83 O -0.00386 0.54648 0.95202
 O84 O -0.00652 0.52325 1.06975
 O85 O 0.00583 0.44937 1.04587
 O86 O 0.00221 0.47155 0.92759
 O87 O 0.06487 0.47119 0.98969
 O88 O -0.05736 0.45079 0.98346
 Cu89 Cu -0.00687 0.54254 1.01353
 Cu90 Cu 0.00479 0.45313 0.98417
 C91 C -0.08293 0.48498 0.99313
 C92 C 0.08076 0.51129 1.00515
 C93 C -0.00063 0.51272 0.91980
 C94 C 0.00050 0.48277 1.07808
 O95 O 0.01652 -0.06729 0.46210
 O96 O -0.00592 0.05368 0.45361
 O97 O 0.06766 0.00546 0.46021
 O98 O -0.05429 -0.01975 0.45493
 O99 O -0.05697 -0.00278 0.53011
 O100 O 0.06507 0.02307 0.53536
 O101 O -0.00679 0.07023 0.52903
 O102 O 0.01590 -0.05063 0.53750
 Cu103 Cu 0.00662 -0.00845 0.45010
 Cu104 Cu 0.00412 0.01151 0.54058
 C105 C 0.01985 -0.07955 0.50119
 C106 C -0.01099 0.08229 0.48995
 C107 C 0.08723 0.01835 0.49876
 C108 C -0.07655 -0.01533 0.49146
 C109 C -0.27518 0.51511 1.00673
 C110 C -0.26943 0.47396 0.97821
 C111 C -0.30508 0.44832 0.95551
 C112 C -0.34838 0.46576 0.96272
 C113 C -0.35553 0.50773 0.99310
 C114 C -0.31773 0.53270 1.01492
 O115 O -0.23700 0.53513 1.02375
 C116 C -0.20638 0.50599 1.00558
 C117 C -0.22434 0.46780 0.97766
 C118 C -0.19793 0.43312 0.95499
 C119 C -0.15113 0.43835 0.96111
 C120 C -0.13198 0.47805 0.98901
 C121 C -0.16020 0.51210 1.01173
 H122 H -0.29970 0.41653 0.93235
 H123 H -0.37617 0.44715 0.94356
 H124 H -0.32118 0.56461 1.03850
 H125 H -0.21277 0.40337 0.93314
 H126 H -0.12987 0.41210 0.94334
 H127 H -0.14666 0.54273 1.03332
 C128 C 0.27418 0.48662 0.99429
 C129 C 0.26672 0.52598 1.02488
 C130 C 0.30104 0.55117 1.05035
 C131 C 0.34490 0.53526 1.04376
 C132 C 0.35397 0.49554 1.01105
 C133 C 0.31745 0.47067 0.98659
 O134 O 0.23682 0.46644 0.97514
 C135 C 0.20503 0.49372 0.99405
 C136 C 0.22153 0.53084 1.02450
 C137 C 0.19397 0.56351 1.04848
 C138 C 0.14747 0.55742 1.04097
 C139 C 0.12966 0.51879 1.01045
 C140 C 0.15903 0.48668 0.98650
 H141 H 0.29419 0.58129 1.07526
 H142 H 0.37159 0.55312 1.06528
 H143 H 0.32251 0.43997 0.96175
 H144 H 0.20773 0.59241 1.07233
 H145 H 0.12537 0.58217 1.05975
 H146 H 0.14648 0.45689 0.96299
 C147 C 0.01236 -0.28034 0.46744
 C148 C 0.04278 -0.26681 0.50280
 C149 C 0.06535 -0.29817 0.52516
 C150 C 0.05556 -0.34531 0.51090
 C151 C 0.02262 -0.35979 0.47605
 C152 C 0.00148 -0.32680 0.45343
 O153 O -0.00526 -0.24526 0.45058
 C154 C 0.01415 -0.20876 0.47606
 C155 C 0.04351 -0.21993 0.50885
 C156 C 0.06572 -0.18672 0.54068
 C157 C 0.05732 -0.14011 0.53843
 C158 C 0.02799 -0.12808 0.50415
 C159 C 0.00629 -0.16289 0.47248
 H160 H 0.08951 -0.28678 0.55255
 H161 H 0.07277 -0.37056 0.52756
 H162 H -0.02345 -0.33700 0.42645
 H163 H 0.08819 -0.19632 0.56658
 H164 H 0.07400 -0.11345 0.56281
 H165 H -0.01680 -0.15446 0.44648
 C166 C -0.02295 0.28231 0.52639
 C167 C -0.05689 0.26561 0.49572
 C168 C -0.08790 0.29417 0.47914
 C169 C -0.08292 0.34195 0.49397
 C170 C -0.04646 0.35992 0.52338
 C171 C -0.01681 0.32953 0.54067
 O172 O 0.00248 0.24953 0.53862
 C173 C -0.01547 0.21128 0.51483
 C174 C -0.05152 0.21916 0.48755
 C175 C -0.07409 0.18388 0.45842
 C176 C -0.05921 0.13862 0.45798
 C177 C -0.02318 0.12984 0.48711
 C178 C -0.00096 0.16663 0.51581
 H179 H -0.11472 0.28023 0.45553
 H180 H -0.10633 0.36513 0.48142
 H181 H 0.01103 0.34240 0.56346
 H182 H -0.10205 0.19094 0.43688
 H183 H -0.07651 0.11032 0.43617
 H184 H 0.02676 0.16060 0.53817
 C185 C 0.51672 -0.00831 -0.28856
 C186 C 0.54033 -0.04498 -0.27743
 C187 C 0.56539 -0.07351 -0.30874
 C188 C 0.56676 -0.06372 -0.35341
 C189 C 0.54329 -0.02578 -0.36663
 C190 C 0.51751 0.00217 -0.33327
 O191 O 0.49663 0.01545 -0.25267
 C192 C 0.50801 -0.00681 -0.21833
 C193 C 0.53489 -0.04393 -0.23192
 C194 C 0.55302 -0.07070 -0.20163
 C195 C 0.54327 -0.05872 -0.15525
 C196 C 0.51540 -0.02099 -0.14006
 C197 C 0.49706 0.00525 -0.17207
 H198 H 0.58384 -0.10204 -0.29896
 H199 H 0.58621 -0.08608 -0.37797
 H200 H 0.50067 0.03250 -0.34112
 H201 H 0.57465 -0.09929 -0.21317
 H202 H 0.55761 -0.07871 -0.13095
 H203 H 0.47641 0.03479 -0.16108
 C204 C 0.46469 0.01663 0.27469
 C205 C 0.49270 -0.01939 0.26058
 C206 C 0.51042 -0.04718 0.29006
 C207 C 0.49942 -0.03717 0.33625
 C208 C 0.47220 0.00097 0.35265
 C209 C 0.45375 0.02774 0.32105
 O210 O 0.45133 0.03822 0.24052
 C211 C 0.47165 0.01541 0.20429
 C212 C 0.49761 -0.01988 0.21508
 C213 C 0.52316 -0.04737 0.18320
 C214 C 0.52201 -0.03825 0.13820
 C215 C 0.49506 -0.00277 0.12563
 C216 C 0.46919 0.02445 0.15906
 H217 H 0.53192 -0.07570 0.27791
 H218 H 0.51259 -0.05890 0.35955
 H219 H 0.43242 0.05666 0.33233
 H220 H 0.54361 -0.07465 0.19273
 H221 H 0.54177 -0.05922 0.11283
 H222 H 0.44859 0.05196 0.15028
 C223 C 0.53124 -0.28178 -0.01108
 C224 C 0.56259 -0.25976 0.01980
 C225 C 0.59023 -0.28306 0.04617
 C226 C 0.58557 -0.33120 0.04060
 C227 C 0.55396 -0.35598 0.00854
 C228 C 0.52682 -0.33027 -0.01826
 O229 O 0.50797 -0.25242 -0.03203
 C230 C 0.52529 -0.21115 -0.01389
 C231 C 0.55923 -0.21410 0.01753
 C232 C 0.58319 -0.17578 0.03990
 C233 C 0.57145 -0.13235 0.02997
 C234 C 0.53559 -0.12763 -0.00109
 C235 C 0.51210 -0.16779 -0.02346
 H236 H 0.61443 -0.26475 0.07051
 H237 H 0.60659 -0.34931 0.06189
 H238 H 0.50449 -0.34725 -0.04524
 H239 H 0.61002 -0.17919 0.06421
 H240 H 0.58958 -0.10214 0.04756
 H241 H 0.48469 -0.16529 -0.04741
 C242 C 0.46898 0.28287 -0.00255
 C243 C 0.44176 0.27118 0.03099
 C244 C 0.41750 0.30347 0.05950
 C245 C 0.42098 0.34973 0.05297
 C246 C 0.44760 0.36300 0.01771
 C247 C 0.47192 0.32876 -0.01060
 O248 O 0.48998 0.24673 -0.02501
 C249 C 0.47536 0.21155 -0.00538
 C250 C 0.44528 0.22471 0.02863
 C251 C 0.42441 0.19345 0.05265
 C252 C 0.43528 0.14668 0.04152
 C253 C 0.46732 0.13225 0.00777
 C254 C 0.48775 0.16521 -0.01604
 H255 H 0.39666 0.29344 0.08596
 H256 H 0.40235 0.37534 0.07504
 H257 H 0.49193 0.33750 -0.03824
 H258 H 0.40051 0.20465 0.07895
 H259 H 0.41970 0.12180 0.06007
 H260 H 0.51217 0.15498 -0.04211
 C261 C -0.26984 -0.01076 0.52626
 C262 C -0.26350 -0.03654 0.48404
 C263 C -0.29889 -0.05501 0.45532
 C264 C -0.34267 -0.04616 0.47046
 C265 C -0.35074 -0.01825 0.51337
 C266 C -0.31318 -0.00141 0.54204
 O267 O -0.23155 0.00408 0.54794
 C268 C -0.20040 -0.01269 0.51866
 C269 C -0.21826 -0.03774 0.47901
 C270 C -0.19190 -0.05713 0.44305
 C271 C -0.14523 -0.05009 0.44792
 C272 C -0.12573 -0.02430 0.48841
 C273 C -0.15391 -0.00573 0.52450
 H274 H -0.29303 -0.07575 0.42245
 H275 H -0.37035 -0.06194 0.44894
 H276 H -0.31741 0.01994 0.57495
 H277 H -0.20678 -0.07643 0.41203
 H278 H -0.12431 -0.06456 0.41997
 H279 H -0.14022 0.01463 0.55555
 C280 C 0.28091 0.00991 0.46724
 C281 C 0.27384 0.04259 0.50502
 C282 C 0.30876 0.06720 0.53024
 C283 C 0.35276 0.05766 0.51608
 C284 C 0.36125 0.02313 0.47802
 C285 C 0.32453 -0.00069 0.45298
 O286 O 0.24302 -0.00919 0.44787
 C287 C 0.21140 0.01175 0.47413
 C288 C 0.22854 0.04353 0.50974
 C289 C 0.20153 0.06835 0.54226
 C290 C 0.15497 0.05989 0.53812
 C291 C 0.13628 0.02765 0.50147
 C292 C 0.16504 0.00351 0.46879
 H293 H 0.30234 0.09312 0.55957
 H294 H 0.38034 0.07713 0.53475
 H295 H 0.32980 -0.02687 0.42354
 H296 H 0.21583 0.09291 0.57019
 H297 H 0.13344 0.07857 0.56338
 H298 H 0.15184 -0.02178 0.44085
 C299 C -0.00264 0.51343 1.27653
 C300 C 0.01990 0.47319 1.26313
 C301 C 0.04026 0.44870 1.29417
 C302 C 0.03636 0.46599 1.34087
 C303 C 0.01134 0.50640 1.35562
 C304 C -0.00724 0.53093 1.32245
 O305 O -0.01848 0.53233 1.24194
 C306 C -0.00577 0.50336 1.20581
 C307 C 0.01759 0.46639 1.21673
 C308 C 0.03409 0.43205 1.18373
 C309 C 0.02681 0.43659 1.13766
 C310 C 0.00387 0.47526 1.12588
 C311 C -0.01306 0.50870 1.16059
 H312 H 0.05884 0.41773 1.28286
 H313 H 0.05324 0.44818 1.36550
 H314 H -0.02621 0.56204 1.33203
 H315 H 0.05237 0.40322 1.19308
 H316 H 0.04023 0.41087 1.11135
 H317 H -0.03069 0.53858 1.15273
 C318 C -0.03109 0.49448 0.72393
 C319 C 0.00588 0.52305 0.73552
 C320 C 0.03380 0.53730 0.70325
 C321 C 0.02296 0.52166 0.65714
 C322 C -0.01626 0.49393 0.64419
 C323 C -0.04344 0.47996 0.67832
 O324 O -0.05074 0.48155 0.75974
 C325 C -0.02577 0.50261 0.79465
 C326 C 0.00893 0.52903 0.78175
 C327 C 0.03973 0.55335 0.81287
 C328 C 0.03489 0.54968 0.85916
 C329 C 0.00051 0.52109 0.87269
 C330 C -0.03046 0.49759 0.84019
 H331 H 0.06361 0.55841 0.71320
 H332 H 0.04534 0.53079 0.63146
 H333 H -0.07283 0.45780 0.66963
 H334 H 0.06683 0.57377 0.80184
 H335 H 0.05888 0.56736 0.88418
 H336 H -0.05670 0.47529 0.85001
   
