data_POSCAR
  _audit_creation_date              2014-09-24
  _audit_creation_method            'ToBaCCo'
  _symmetry_space_group_name_H-M    'P1'
  _symmetry_Int_Tables_number       1
  _symmetry_cell_setting            triclinic
  loop_
  _symmetry_equiv_pos_as_xyz
 x,y,z
_cell_length_a 48.8074
_cell_length_b 32.5465
_cell_length_c 21.5133
_cell_angle_alpha 90.058100
_cell_angle_beta 89.891300
_cell_angle_gamma 90.046300
loop_
  _atom_site_label
  _atom_site_type_symbol
  _atom_site_fract_x
  _atom_site_fract_y
  _atom_site_fract_z
O1 O 0.76158 0.19897 0.55881
 O2 O 0.71528 0.23911 0.43826
 O3 O 0.76156 0.19887 0.43804
 O4 O 0.71533 0.23921 0.55902
 O5 O 0.73810 0.29799 0.55886
 O6 O 0.78432 0.25765 0.43789
 O7 O 0.73804 0.29789 0.43811
 O8 O 0.78434 0.25776 0.55865
 Cu9 Cu 0.73615 0.21311 0.49854
 Cu10 Cu 0.76350 0.28375 0.49835
 C11 C 0.78089 0.22149 0.57878
 C12 C 0.71873 0.27538 0.41818
 C13 C 0.78087 0.22134 0.41787
 C14 C 0.71880 0.27551 0.57906
 O15 O 0.23853 0.80124 0.56221
 O16 O 0.28490 0.76072 0.44158
 O17 O 0.23875 0.80121 0.44144
 O18 O 0.28471 0.76076 0.56233
 O19 O 0.26181 0.70210 0.56219
 O20 O 0.21585 0.74255 0.44130
 O21 O 0.26200 0.70206 0.44144
 O22 O 0.21564 0.74258 0.56206
 Cu23 Cu 0.26403 0.78690 0.50192
 Cu24 Cu 0.23651 0.71641 0.50174
 C25 C 0.21913 0.77886 0.58217
 C26 C 0.28138 0.72445 0.42146
 C27 C 0.21943 0.77881 0.42127
 C28 C 0.28114 0.72449 0.58232
 O29 O 0.26105 0.30089 -0.56348
 O30 O 0.21493 0.26055 -0.44233
 O31 O 0.26119 0.30087 -0.44272
 O32 O 0.21477 0.26056 -0.56309
 O33 O 0.23751 0.20183 -0.56344
 O34 O 0.28393 0.24213 -0.44307
 O35 O 0.23768 0.20181 -0.44268
 O36 O 0.28380 0.24215 -0.56383
 Cu37 Cu 0.23569 0.28664 -0.50289
 Cu38 Cu 0.26302 0.21605 -0.50331
 C39 C 0.28034 0.27844 -0.58378
 C40 C 0.21841 0.22428 -0.42235
 C41 C 0.28050 0.27840 -0.42287
 C42 C 0.21818 0.22428 -0.58326
 O43 O -0.23797 0.79800 -0.55831
 O44 O -0.28437 0.75743 -0.43785
 O45 O -0.23815 0.79788 -0.43756
 O46 O -0.28417 0.75750 -0.55860
 O47 O -0.26133 0.69883 -0.55871
 O48 O -0.21532 0.73922 -0.43766
 O49 O -0.26154 0.69876 -0.43795
 O50 O -0.21513 0.73934 -0.55841
 Cu51 Cu -0.26347 0.78362 -0.49807
 Cu52 Cu -0.23603 0.71312 -0.49819
 C53 C -0.21860 0.77563 -0.57837
 C54 C -0.28091 0.72114 -0.41787
 C55 C -0.21885 0.77547 -0.41751
 C56 C -0.28063 0.72124 -0.57877
 N57 N 0.02872 1.07336 -0.06694
 N58 N 0.04856 1.10016 -0.07712
 N59 N -0.02881 1.04405 -0.10957
 N60 N -0.04868 1.05012 -0.15004
 N61 N -0.02895 1.07281 -0.06670
 N62 N -0.04894 1.09930 -0.07682
 N63 N 0.02879 1.04460 -0.10982
 N64 N 0.04866 1.05099 -0.15037
 C65 C 0.06082 1.08553 -0.12904
 C66 C -0.06108 1.08446 -0.12868
 N67 N -0.02840 0.92701 -0.06611
 N68 N -0.04829 0.90024 -0.07579
 N69 N 0.02913 0.95612 -0.10950
 N70 N 0.04902 0.94991 -0.15003
 N71 N 0.02927 0.92756 -0.06641
 N72 N 0.04930 0.90108 -0.07644
 N73 N -0.02848 0.95557 -0.10921
 N74 N -0.04841 0.94907 -0.14940
 Mn75 Mn 0.00016 1.00008 -0.11017
 C76 C -0.06060 0.91466 -0.12764
 C77 C 0.06145 0.91569 -0.12848
 N78 N -0.02894 1.07311 0.06735
 N79 N -0.04903 1.09951 0.07722
 N80 N 0.02880 1.04511 0.11021
 N81 N 0.04869 1.05167 0.15050
 N82 N 0.02873 1.07367 0.06711
 N83 N 0.04859 1.10050 0.07691
 N84 N -0.02880 1.04455 0.11045
 N85 N -0.04877 1.05069 0.15084
 Mn86 Mn -0.00011 1.07373 0.00021
 C87 C -0.06121 1.08486 0.12919
 C88 C 0.06086 1.08610 0.12881
 N89 N 0.02927 0.92788 0.06764
 N90 N 0.04930 0.90145 0.07764
 N91 N -0.02847 0.95607 0.11080
 N92 N -0.04832 0.94964 0.15139
 N93 N -0.02839 0.92731 0.06792
 N94 N -0.04821 0.90048 0.07815
 N95 N 0.02913 0.95663 0.11053
 N96 N 0.04904 0.95061 0.15090
 Mn97 Mn 0.00044 0.92696 0.00076
 Mn98 Mn 0.00016 1.00060 0.11115
 Cl99 Cl 0.00016 1.00034 0.00049
 C100 C 0.06146 0.91631 0.12945
 C101 C -0.06047 0.91508 0.13009
 N102 N 0.47078 0.42713 -0.06770
 N103 N 0.45077 0.40064 -0.07798
 N104 N 0.52861 0.45531 -0.11040
 N105 N 0.54855 0.44893 -0.15076
 N106 N 0.52845 0.42658 -0.06756
 N107 N 0.54831 0.39982 -0.07758
 N108 N 0.47101 0.45586 -0.11053
 N109 N 0.45118 0.44977 -0.15113
 C110 C 0.43871 0.41544 -0.12989
 C111 C 0.56067 0.41443 -0.12936
 N112 N 0.52916 0.57237 -0.06681
 N113 N 0.54921 0.59887 -0.07672
 N114 N 0.47143 0.54434 -0.11002
 N115 N 0.45154 0.55081 -0.15030
 N116 N 0.47149 0.57292 -0.06687
 N117 N 0.45162 0.59968 -0.07659
 N118 N 0.52903 0.54378 -0.10995
 N119 N 0.54897 0.54999 -0.15038
 Mn120 Mn 0.50002 0.49982 -0.11088
 C121 C 0.56140 0.58423 -0.12872
 C122 C 0.43936 0.58522 -0.12853
 N123 N 0.52829 0.42635 0.06648
 N124 N 0.54813 0.39956 0.07630
 N125 N 0.47074 0.45550 0.10950
 N126 N 0.45073 0.44938 0.14978
 N127 N 0.47063 0.42692 0.06635
 N128 N 0.45051 0.40051 0.07608
 N129 N 0.52835 0.45494 0.10962
 N130 N 0.54820 0.44844 0.14998
 Mn131 Mn 0.49953 0.42626 -0.00061
 C132 C 0.56037 0.41400 0.12828
 C133 C 0.43828 0.41519 0.12800
 N134 N 0.47134 0.57271 0.06716
 N135 N 0.45155 0.59958 0.07735
 N136 N 0.52877 0.54342 0.11008
 N137 N 0.54866 0.54945 0.15056
 N138 N 0.52900 0.57214 0.06723
 N139 N 0.54906 0.59856 0.07738
 N140 N 0.47118 0.54398 0.10999
 N141 N 0.45130 0.55045 0.15050
 Mn142 Mn 0.50025 0.57302 0.00018
 Mn143 Mn 0.49976 0.49946 0.11045
 Cl144 Cl 0.49989 0.49964 -0.00021
 C145 C 0.43922 0.58501 0.12921
 C146 C 0.56114 0.58374 0.12923
 C147 C 0.29806 0.29392 0.37357
 C148 C 0.31425 0.30806 0.33699
 C149 C 0.33413 0.32541 0.29508
 C150 C 0.33254 0.36697 0.27859
 C151 C 0.35292 0.38460 0.24140
 C152 C 0.37499 0.36072 0.22055
 C153 C 0.37634 0.31899 0.23616
 C154 C 0.35595 0.30137 0.27335
 C155 C 0.39693 0.37954 0.18604
 C156 C 0.41565 0.39563 0.15869
 H157 H 0.31584 0.38590 0.29543
 H158 H 0.35176 0.41695 0.22989
 H159 H 0.39338 0.30030 0.22056
 H160 H 0.35746 0.26925 0.28611
 C161 C -0.19981 0.79208 0.37674
 C162 C -0.18357 0.80634 0.34036
 C163 C -0.16369 0.82386 0.29857
 C164 C -0.16608 0.86494 0.27994
 C165 C -0.14581 0.88278 0.24263
 C166 C -0.12307 0.85961 0.22379
 C167 C -0.12090 0.81834 0.24160
 C168 C -0.14117 0.80050 0.27891
 C169 C -0.10135 0.87874 0.18894
 C170 C -0.08284 0.89513 0.16124
 H171 H -0.18333 0.88334 0.29514
 H172 H -0.14763 0.91477 0.22941
 H173 H -0.10334 0.80021 0.22757
 H174 H -0.13904 0.76878 0.29331
 C175 C 0.70072 0.70488 0.37611
 C176 C 0.68457 0.69072 0.33957
 C177 C 0.66475 0.67337 0.29762
 C178 C 0.66641 0.63183 0.28085
 C179 C 0.64613 0.61424 0.24348
 C180 C 0.62409 0.63810 0.22273
 C181 C 0.62266 0.67980 0.23866
 C182 C 0.64295 0.69740 0.27604
 C183 C 0.60227 0.61932 0.18792
 C184 C 0.58365 0.60325 0.16029
 H185 H 0.68310 0.61292 0.29757
 H186 H 0.64735 0.58191 0.23172
 H187 H 0.60563 0.69848 0.22315
 H188 H 0.64138 0.72949 0.28901
 C189 C 0.20038 1.20881 0.37433
 C190 C 0.18415 1.19466 0.33792
 C191 C 0.16426 1.17728 0.29613
 C192 C 0.16679 1.13637 0.27660
 C193 C 0.14651 1.11859 0.23941
 C194 C 0.12360 1.14164 0.22158
 C195 C 0.12129 1.18275 0.24026
 C196 C 0.14158 1.20053 0.27746
 C197 C 0.10183 1.12252 0.18698
 C198 C 0.08328 1.10611 0.15956
 H199 H 0.18417 1.11803 0.29104
 H200 H 0.14843 1.08671 0.22551
 H201 H 0.10360 1.20080 0.22703
 H202 H 0.13934 1.23212 0.29257
 C203 C 0.70009 0.29185 -0.37581
 C204 C 0.68391 0.30603 -0.33924
 C205 C 0.66407 0.32345 -0.29728
 C206 C 0.66646 0.36453 -0.27852
 C207 C 0.64619 0.38232 -0.24119
 C208 C 0.62345 0.35909 -0.22248
 C209 C 0.62129 0.31781 -0.24037
 C210 C 0.64156 0.30003 -0.27770
 C211 C 0.60167 0.37819 -0.18777
 C212 C 0.58311 0.39454 -0.16026
 H213 H 0.68371 0.38298 -0.29367
 H214 H 0.64799 0.41432 -0.22790
 H215 H 0.60371 0.29964 -0.22644
 H216 H 0.63944 0.26830 -0.29222
 C217 C 0.20135 0.79439 -0.37531
 C218 C 0.18512 0.80854 -0.33880
 C219 C 0.16521 0.82587 -0.29688
 C220 C 0.16706 0.86727 -0.27947
 C221 C 0.14672 0.88486 -0.24210
 C222 C 0.12444 0.86112 -0.22198
 C223 C 0.12283 0.81954 -0.23857
 C224 C 0.14317 0.80195 -0.27595
 C225 C 0.10259 0.87993 -0.18715
 C226 C 0.08396 0.89605 -0.15951
 H227 H 0.18393 0.88610 -0.29567
 H228 H 0.14810 0.91709 -0.22983
 H229 H 0.10562 0.80096 -0.22356
 H230 H 0.14146 0.76997 -0.28941
 C231 C 0.29981 0.70806 -0.37274
 C232 C 0.31599 0.69382 -0.33640
 C233 C 0.33584 0.67634 -0.29476
 C234 C 0.35824 0.69984 -0.27486
 C235 C 0.37855 0.68201 -0.23790
 C236 C 0.37653 0.64060 -0.22070
 C237 C 0.35390 0.61729 -0.23974
 C238 C 0.33360 0.63512 -0.27670
 C239 C 0.39834 0.62149 -0.18637
 C240 C 0.41692 0.60512 -0.15913
 H241 H 0.36025 0.73167 -0.28885
 H242 H 0.39603 0.70025 -0.22371
 H243 H 0.35222 0.58519 -0.22699
 H244 H 0.31644 0.61660 -0.29211
 C245 C -0.20040 1.20526 -0.37619
 C246 C -0.18423 1.19121 -0.33965
 C247 C -0.16441 1.17398 -0.29765
 C248 C -0.14233 1.19787 -0.27695
 C249 C -0.12209 1.18036 -0.23945
 C250 C -0.12384 1.13888 -0.22248
 C251 C -0.14615 1.11517 -0.24235
 C252 C -0.16639 1.13268 -0.27985
 C253 C -0.10208 1.12012 -0.18752
 C254 C -0.08353 1.10404 -0.15979
 H255 H -0.14052 1.22978 -0.29070
 H256 H -0.10486 1.19892 -0.22462
 H257 H -0.14764 1.08302 -0.22978
 H258 H -0.18330 1.11387 -0.29585
 C259 C 0.70131 0.70561 -0.37537
 C260 C 0.68509 0.69146 -0.33886
 C261 C 0.66520 0.67412 -0.29693
 C262 C 0.64323 0.69805 -0.27569
 C263 C 0.62289 0.68045 -0.23832
 C264 C 0.62444 0.63884 -0.22204
 C265 C 0.64664 0.61508 -0.24244
 C266 C 0.66697 0.63269 -0.27981
 C267 C 0.60258 0.62002 -0.18724
 C268 C 0.58394 0.60389 -0.15965
 H269 H 0.64158 0.73006 -0.28892
 H270 H 0.60574 0.69905 -0.22308
 H271 H 0.64796 0.58283 -0.23041
 H272 H 0.68379 0.61384 -0.29624
 C273 C 0.19976 1.20795 -0.37708
 C274 C 0.18364 1.19381 -0.34038
 C275 C 0.16387 1.17644 -0.29820
 C276 C 0.16630 1.13541 -0.27936
 C277 C 0.14610 1.11766 -0.24177
 C278 C 0.12340 1.14088 -0.22287
 C279 C 0.12120 1.18210 -0.24087
 C280 C 0.14140 1.19985 -0.27846
 C281 C 0.10170 1.12180 -0.18790
 C282 C 0.08319 1.10545 -0.16017
 H283 H 0.18352 1.11696 -0.29463
 H284 H 0.14793 1.08570 -0.22841
 H285 H 0.10365 1.20027 -0.22680
 H286 H 0.13924 1.23154 -0.29304
 C287 C 0.29926 0.29469 -0.37787
 C288 C 0.31546 0.30876 -0.34136
 C289 C 0.33532 0.32599 -0.29934
 C290 C 0.35731 0.30206 -0.27855
 C291 C 0.37758 0.31956 -0.24099
 C292 C 0.37593 0.36107 -0.22406
 C293 C 0.35370 0.38483 -0.24403
 C294 C 0.33344 0.36733 -0.28159
 C295 C 0.39770 0.37980 -0.18898
 C296 C 0.41626 0.39586 -0.16115
 H297 H 0.35904 0.27012 -0.29225
 H298 H 0.39475 0.30095 -0.22607
 H299 H 0.35230 0.41701 -0.23149
 H300 H 0.31660 0.38618 -0.29766
 C301 C -0.20018 0.79185 -0.37244
 C302 C -0.18401 0.80606 -0.33598
 C303 C -0.16417 0.82351 -0.29419
 C304 C -0.14176 0.80004 -0.27449
 C305 C -0.12146 0.81785 -0.23739
 C306 C -0.12348 0.85922 -0.21987
 C307 C -0.14612 0.88250 -0.23871
 C308 C -0.16643 0.86468 -0.27580
 C309 C -0.10166 0.87834 -0.18547
 C310 C -0.08307 0.89472 -0.15821
 H311 H -0.13974 0.76824 -0.28873
 H312 H -0.10396 0.79963 -0.22336
 H313 H -0.14781 0.91457 -0.22571
 H314 H -0.18358 0.88318 -0.29107
 C315 C 0.30014 0.70803 0.37644
 C316 C 0.31633 0.69381 0.33995
 C317 C 0.33617 0.67633 0.29800
 C318 C 0.33361 0.63536 0.27881
 C319 C 0.35384 0.61753 0.24137
 C320 C 0.37670 0.64060 0.22297
 C321 C 0.37904 0.68177 0.24133
 C322 C 0.35881 0.69960 0.27877
 C323 C 0.39839 0.62144 0.18805
 C324 C 0.41688 0.60502 0.16033
 H325 H 0.31627 0.61702 0.29367
 H326 H 0.35189 0.58561 0.22772
 H327 H 0.39670 0.69982 0.22765
 H328 H 0.36107 0.73124 0.29361
 C329 C -0.20138 1.20587 0.37526
 C330 C -0.18517 1.19176 0.33869
 C331 C -0.16527 1.17446 0.29676
 C332 C -0.14336 1.19850 0.27542
 C333 C -0.12298 1.18092 0.23815
 C334 C -0.12443 1.13925 0.22208
 C335 C -0.14658 1.11539 0.24256
 C336 C -0.16696 1.13296 0.27982
 C337 C -0.10251 1.12047 0.18745
 C338 C -0.08381 1.10440 0.16001
 H339 H -0.14178 1.23056 0.28852
 H340 H -0.10587 1.19960 0.22284
 H341 H -0.14782 1.08308 0.23069
 H342 H -0.18372 1.11404 0.29635
 C343 C 0.69995 0.29167 0.37332
 C344 C 0.68371 0.30579 0.33700
 C345 C 0.66380 0.32314 0.29533
 C346 C 0.66630 0.36408 0.27602
 C347 C 0.64599 0.38180 0.23892
 C348 C 0.62311 0.35867 0.22097
 C349 C 0.62083 0.31753 0.23944
 C350 C 0.64114 0.29980 0.27654
 C351 C 0.60133 0.37772 0.18642
 C352 C 0.58278 0.39407 0.15903
 H353 H 0.68366 0.38248 0.29055
 H354 H 0.64789 0.41370 0.22518
 H355 H 0.60316 0.29942 0.22611
 H356 H 0.63893 0.26819 0.29148
 C357 C 0.20082 0.79517 0.37616
 C358 C 0.18471 0.80932 0.33960
 C359 C 0.16493 0.82666 0.29763
 C360 C 0.14311 0.80264 0.27597
 C361 C 0.12285 0.82024 0.23860
 C362 C 0.12435 0.86192 0.22275
 C363 C 0.14642 0.88578 0.24357
 C364 C 0.16667 0.86818 0.28093
 C365 C 0.10255 0.88071 0.18798
 C366 C 0.08396 0.89678 0.16041
 H367 H 0.14149 0.77056 0.28889
 H368 H 0.10580 0.80157 0.22304
 H369 H 0.14770 0.91810 0.23186
 H370 H 0.18338 0.88709 0.29770
   
