data_POSCAR
  _audit_creation_date              2014-09-24
  _audit_creation_method            'ToBaCCo'
  _symmetry_space_group_name_H-M    'P1'
  _symmetry_Int_Tables_number       1
  _symmetry_cell_setting            triclinic
  loop_
  _symmetry_equiv_pos_as_xyz
 x,y,z
_cell_length_a 56.9141
_cell_length_b 56.8730
_cell_length_c 19.9579
_cell_angle_alpha 89.954400
_cell_angle_beta 90.024800
_cell_angle_gamma 119.974600
loop_
  _atom_site_label
  _atom_site_type_symbol
  _atom_site_fract_x
  _atom_site_fract_y
  _atom_site_fract_z
O1 O 0.26135 0.47672 0.56235
 O2 O 0.21483 0.47604 0.43295
 O3 O 0.26111 0.47671 0.43257
 O4 O 0.21513 0.47606 0.56310
 O5 O 0.23706 0.52095 0.56303
 O6 O 0.28307 0.52161 0.43245
 O7 O 0.23675 0.52092 0.43280
 O8 O 0.28332 0.52161 0.56229
 Cu9 Cu 0.23586 0.47186 0.49773
 Cu10 Cu 0.26223 0.52580 0.49761
 C11 C 0.28038 0.49927 0.58358
 C12 C 0.21778 0.49836 0.41144
 C13 C 0.28007 0.49926 0.41116
 C14 C 0.21820 0.49839 0.58472
 O15 O 0.52359 -0.21513 0.56752
 O16 O 0.52298 -0.26161 0.43812
 O17 O 0.52360 -0.21537 0.43735
 O18 O 0.52298 -0.26142 0.56781
 O19 O 0.47813 -0.28345 0.56783
 O20 O 0.47875 -0.23735 0.43730
 O21 O 0.47812 -0.28363 0.43806
 O22 O 0.47874 -0.23712 0.56754
 Cu23 Cu 0.52781 -0.23613 0.50274
 Cu24 Cu 0.47391 -0.26256 0.50272
 C25 C 0.50127 -0.21812 0.58895
 C26 C 0.50046 -0.28067 0.41687
 C27 C 0.50129 -0.21846 0.41564
 C28 C 0.50046 -0.28046 0.58911
 O29 O 1.26035 0.78505 0.43658
 O30 O 1.21422 0.73881 0.56602
 O31 O 1.26009 0.78476 0.56663
 O32 O 1.21451 0.73913 0.43595
 O33 O 1.23696 0.71669 0.43595
 O34 O 1.28257 0.76236 0.56670
 O35 O 1.23665 0.71637 0.56609
 O36 O 1.28283 0.76264 0.43656
 Cu37 Cu 1.23503 0.76420 0.50131
 Cu38 Cu 1.26202 0.73725 0.50135
 C39 C 1.27952 0.78180 0.41512
 C40 C 1.21748 0.71963 0.58747
 C41 C 1.27918 0.78143 0.58825
 C42 C 1.21789 0.72007 0.41432
 O43 O 0.73866 0.52387 0.56538
 O44 O 0.78458 0.52322 0.43624
 O45 O 0.73897 0.52380 0.43520
 O46 O 0.78427 0.52322 0.56597
 O47 O 0.76143 0.47833 0.56614
 O48 O 0.71610 0.47891 0.43530
 O49 O 0.76175 0.47833 0.43634
 O50 O 0.71579 0.47900 0.56557
 Cu51 Cu 0.76389 0.52805 0.50070
 Cu52 Cu 0.73642 0.47411 0.50088
 C53 C 0.71932 0.50156 0.58686
 C54 C 0.78113 0.50067 0.41510
 C55 C 0.71975 0.50146 0.41358
 C56 C 0.78074 0.50068 0.58741
 O57 O 0.47611 0.26078 0.43611
 O58 O 0.47656 0.21470 0.56542
 O59 O 0.47595 0.26036 0.56627
 O60 O 0.47668 0.21511 0.43566
 O61 O 0.52154 0.23794 0.43594
 O62 O 0.52081 0.28323 0.56661
 O63 O 0.52141 0.23753 0.56577
 O64 O 0.52096 0.28363 0.43639
 Cu65 Cu 0.47181 0.23546 0.50085
 Cu66 Cu 0.52570 0.26292 0.50123
 C67 C 0.49845 0.28011 0.41479
 C68 C 0.49906 0.21811 0.58678
 C69 C 0.49825 0.27958 0.58805
 C70 C 0.49923 0.21867 0.41439
 O71 O 0.73845 0.21600 0.43690
 O72 O 0.78481 0.26228 0.56591
 O73 O 0.73880 0.21634 0.56674
 O74 O 0.78444 0.26191 0.43604
 O75 O 0.76210 0.28446 0.43596
 O76 O 0.71643 0.23887 0.56670
 O77 O 0.76247 0.28483 0.56588
 O78 O 0.71608 0.23853 0.43681
 Cu79 Cu 0.76388 0.23687 0.50142
 Cu80 Cu 0.73702 0.26395 0.50135
 C81 C 0.71924 0.21926 0.41567
 C82 C 0.78169 0.28158 0.58706
 C83 C 0.71969 0.21968 0.58811
 C84 C 0.78118 0.28107 0.41453
 O85 O 0.96267 0.44093 0.12385
 O86 O 0.93253 0.44654 0.05872
 C87 C 0.93832 0.43475 0.10624
 O88 O 1.03827 0.56152 0.11801
 O89 O 1.06825 0.55433 0.05667
 C90 C 1.06259 0.56743 0.10083
 O91 O 0.96247 0.52160 0.12385
 O92 O 0.93245 0.48569 0.05914
 C93 C 0.93815 0.50329 0.10651
 O94 O 1.03838 0.47641 0.11699
 O95 O 1.06840 0.51374 0.05591
 C96 C 1.06272 0.49490 0.10003
 Zr97 Zr 1.00040 0.47010 0.08279
 O98 O 1.00119 0.46654 0.18813
 O99 O 0.99943 0.43274 0.07019
 Zr100 Zr 1.00033 0.52965 0.08443
 O101 O 1.00291 0.53112 0.19033
 O102 O 0.99738 0.56532 0.08248
 O103 O 0.97633 0.48782 0.09694
 O104 O 1.02384 0.51160 0.09619
 O105 O 1.03826 0.47660 -0.11854
 O106 O 1.06827 0.51405 -0.05796
 C107 C 1.06259 0.49516 -0.10178
 O108 O 0.96266 0.52137 -0.12545
 O109 O 0.93251 0.48590 -0.05963
 C110 C 0.93830 0.50333 -0.10750
 O111 O 1.03847 0.56164 -0.11859
 O112 O 1.06840 0.55456 -0.05669
 C113 C 1.06279 0.56760 -0.10120
 O114 O 0.96245 0.44062 -0.12428
 O115 O 0.93244 0.44666 -0.05996
 C116 C 0.93814 0.43467 -0.10710
 Zr117 Zr 1.00032 0.47061 -0.08528
 O118 O 1.00301 0.47174 -0.19120
 O119 O 0.99772 0.43215 -0.08342
 Zr120 Zr 1.00039 0.53027 -0.08369
 O121 O 1.00214 0.53509 -0.18885
 O122 O 0.99736 0.56577 -0.07414
 Zr123 Zr 0.95969 0.47981 -0.00048
 Zr124 Zr 1.04092 0.52042 -0.00039
 O125 O 1.02377 0.51214 -0.09706
 O126 O 0.97632 0.48845 -0.09795
 O127 O 1.02481 0.47804 -0.00126
 O128 O 0.97644 0.52222 0.00033
 O129 O 0.97642 0.45415 -0.00115
 O130 O 1.02483 0.54675 0.00044
 H131 H 1.03593 0.51760 0.13582
 H132 H 0.96391 0.52958 0.00038
 H133 H 1.03572 0.51814 -0.13695
 H134 H 0.96399 0.43424 -0.00119
 H135 H 1.01328 0.57933 0.05763
 H136 H 1.01522 0.58070 -0.05933
 H137 H 1.00108 0.51859 -0.20795
 H138 H 0.98803 0.47409 -0.20874
 H139 H 1.01258 0.43374 -0.05450
 H140 H 0.99890 0.42572 0.11593
 H141 H 1.00495 0.48411 0.20718
 H142 H 0.98860 0.51336 0.20749
 O143 O 0.52148 0.55923 -0.12652
 O144 O 0.48606 0.55391 -0.06059
 C145 C 0.50341 0.56552 -0.10860
 O146 O 0.47660 0.43861 -0.11831
 O147 O 0.51400 0.44601 -0.05763
 C148 C 0.49508 0.43276 -0.10131
 O149 O 0.44071 0.47858 -0.12412
 O150 O 0.44685 0.51475 -0.06004
 C151 C 0.43477 0.49698 -0.10696
 O152 O 0.56171 0.52362 -0.11977
 O153 O 0.55448 0.48639 -0.05826
 C154 C 0.56757 0.50512 -0.10264
 Zr155 Zr 0.53021 0.53015 -0.08522
 O156 O 0.53413 0.53336 -0.19069
 O157 O 0.56660 0.56751 -0.07355
 Zr158 Zr 0.47065 0.47062 -0.08507
 O159 O 0.47138 0.46878 -0.19096
 O160 O 0.43205 0.43503 -0.08217
 O161 O 0.48839 0.51242 -0.09844
 O162 O 0.51210 0.48859 -0.09766
 O163 O 0.56194 0.52371 0.11659
 O164 O 0.55467 0.48647 0.05524
 C165 C 0.56780 0.50524 0.09937
 O166 O 0.44087 0.47866 0.12234
 O167 O 0.44694 0.51479 0.05810
 C168 C 0.43492 0.49704 0.10508
 O169 O 0.47705 0.43886 0.11709
 O170 O 0.51418 0.44604 0.05563
 C171 C 0.49548 0.43296 0.09997
 O172 O 0.52155 0.55915 0.12453
 O173 O 0.48615 0.55394 0.05868
 C174 C 0.50349 0.56548 0.10676
 Zr175 Zr 0.53045 0.53035 0.08243
 O176 O 0.53500 0.53291 0.18769
 O177 O 0.56607 0.56880 0.07394
 Zr178 Zr 0.47085 0.47072 0.08354
 O179 O 0.47170 0.46877 0.18941
 O180 O 0.43226 0.43506 0.08103
 Zr181 Zr 0.48016 0.52080 -0.00098
 Zr182 Zr 0.52067 0.48005 -0.00106
 O183 O 0.51234 0.48881 0.09564
 O184 O 0.48864 0.51256 0.09648
 O185 O 0.54706 0.52243 -0.00151
 O186 O 0.45464 0.47836 -0.00072
 O187 O 0.52252 0.54653 -0.00144
 O188 O 0.47829 0.45384 -0.00074
 H189 H 0.51801 0.48241 -0.13728
 H190 H 0.43473 0.47079 -0.00069
 H191 H 0.51835 0.48281 0.13548
 H192 H 0.52977 0.56641 -0.00150
 H193 H 0.43404 0.42095 -0.05787
 H194 H 0.43430 0.42088 0.05753
 H195 H 0.47389 0.48599 0.20719
 H196 H 0.51806 0.51794 0.20649
 H197 H 0.58016 0.56604 0.05235
 H198 H 0.57296 0.57435 -0.11947
 H199 H 0.52032 0.51572 -0.20929
 H200 H 0.47471 0.48647 -0.20848
 O201 O 0.47839 0.03749 0.12410
 O202 O 0.51412 0.06761 0.05895
 C203 C 0.49657 0.06185 0.10645
 O204 O 0.52326 -0.03826 0.11868
 O205 O 0.48611 -0.06825 0.05730
 C206 C 0.50485 -0.06259 0.10154
 O207 O 0.55914 0.03759 0.12435
 O208 O 0.55330 0.06765 0.05950
 C209 C 0.56517 0.06194 0.10695
 O210 O 0.43813 -0.03825 0.11747
 O211 O 0.44537 -0.06829 0.05640
 C212 C 0.43223 -0.06260 0.10045
 Zr213 Zr 0.46980 -0.00030 0.08315
 O214 O 0.46551 -0.00101 0.18851
 O215 O 0.43347 0.00072 0.07033
 Zr216 Zr 0.52934 -0.00029 0.08496
 O217 O 0.52826 -0.00283 0.19086
 O218 O 0.56791 0.00260 0.08318
 O219 O 0.51156 0.02376 0.09734
 O220 O 0.48781 -0.02380 0.09666
 O221 O 0.43839 -0.03822 -0.11801
 O222 O 0.44587 -0.06825 -0.05744
 C223 C 0.43264 -0.06256 -0.10121
 O224 O 0.55873 0.03739 -0.12492
 O225 O 0.55344 0.06757 -0.05922
 C226 C 0.56507 0.06177 -0.10701
 O227 O 0.52313 -0.03848 -0.11794
 O228 O 0.48612 -0.06844 -0.05609
 C229 C 0.50477 -0.06282 -0.10056
 O230 O 0.47826 0.03766 -0.12402
 O231 O 0.51430 0.06768 -0.05971
 C232 C 0.49663 0.06200 -0.10688
 Zr233 Zr 0.47037 -0.00024 -0.08489
 O234 O 0.46877 -0.00297 -0.19079
 O235 O 0.43455 0.00239 -0.08316
 Zr236 Zr 0.52988 -0.00035 -0.08318
 O237 O 0.53292 -0.00209 -0.18834
 O238 O 0.56836 0.00263 -0.07354
 Zr239 Zr 0.52020 0.04044 -0.00011
 Zr240 Zr 0.47956 -0.04089 0.00011
 O241 O 0.48841 -0.02373 -0.09659
 O242 O 0.51217 0.02376 -0.09755
 O243 O 0.45333 -0.02473 -0.00085
 O244 O 0.54579 0.02360 0.00083
 O245 O 0.47783 0.02369 -0.00083
 O246 O 0.52195 -0.02480 0.00101
 H247 H 0.48171 -0.03592 0.13626
 H248 H 0.56567 0.03612 0.00093
 H249 H 0.48243 -0.03570 -0.13646
 H250 H 0.47037 0.03615 -0.00090
 H251 H 0.56602 -0.01328 0.05829
 H252 H 0.56541 -0.01525 -0.05872
 H253 H 0.51749 -0.00099 -0.20744
 H254 H 0.48605 0.01204 -0.20834
 H255 H 0.42130 -0.01245 -0.05416
 H256 H 0.42698 0.00126 0.11603
 H257 H 0.47914 -0.00501 0.20762
 H258 H 0.52477 0.01146 0.20797
 C259 C 1.16215 0.49719 0.28437
 C260 C 1.13335 0.47534 0.30444
 C261 C 1.11362 0.47480 0.26475
 C262 C 1.12457 0.49615 0.20874
 C263 C 1.14502 0.49107 0.17045
 C264 C 1.16479 0.49161 0.21026
 C265 C 1.16157 0.52389 0.28449
 C266 C 1.14184 0.52335 0.24476
 C267 C 1.18313 0.49773 0.32825
 C268 C 1.19974 0.49807 0.36642
 C269 C 1.10305 0.49558 0.16702
 C270 C 1.08487 0.49518 0.13505
 H271 H 1.12884 0.46148 0.34620
 H272 H 1.09223 0.46047 0.27255
 H273 H 1.14406 0.48739 0.11689
 H274 H 1.18078 0.48840 0.19080
 H275 H 1.17549 0.54168 0.31318
 H276 H 1.13884 0.54068 0.23948
 C277 C 0.50061 0.66253 0.29032
 C278 C 0.47302 0.63632 0.28576
 C279 C 0.47339 0.61676 0.24711
 C280 C 0.50133 0.62533 0.21681
 C281 C 0.52073 0.63395 0.27686
 C282 C 0.52035 0.65348 0.31545
 C283 C 0.50896 0.67133 0.21737
 C284 C 0.50934 0.65175 0.17869
 C285 C 0.50031 0.68342 0.33291
 C286 C 0.50028 0.70012 0.37004
 C287 C 0.50186 0.60419 0.17588
 C288 C 0.50252 0.58661 0.14362
 H289 H 0.45478 0.63338 0.31062
 H290 H 0.45549 0.59707 0.23894
 H291 H 0.53365 0.62546 0.28810
 H292 H 0.53296 0.66173 0.35970
 H293 H 0.51412 0.69116 0.19781
 H294 H 0.51482 0.65481 0.12601
 C295 C 0.33510 -0.16183 0.28516
 C296 C 0.36195 -0.16207 0.28318
 C297 C 0.38114 -0.14238 0.24331
 C298 C 0.37162 -0.12437 0.20927
 C299 C 0.36212 -0.11325 0.26680
 C300 C 0.34295 -0.13291 0.30663
 C301 C 0.32639 -0.16388 0.21154
 C302 C 0.34561 -0.14416 0.17160
 C303 C 0.31465 -0.18274 0.32917
 C304 C 0.29834 -0.19928 0.36739
 C305 C 0.39253 -0.10290 0.16739
 C306 C 0.41032 -0.08474 0.13539
 H307 H 0.36555 -0.17646 0.31059
 H308 H 0.40118 -0.13993 0.23662
 H309 H 0.36975 -0.09179 0.27544
 H310 H 0.33417 -0.12828 0.34937
 H311 H 0.30688 -0.17942 0.19249
 H312 H 0.34258 -0.14281 0.11834
 C313 C 0.83810 0.50074 0.28879
 C314 C 0.83755 0.47348 0.28721
 C315 C 0.85750 0.47382 0.24872
 C316 C 0.87605 0.50139 0.21554
 C317 C 0.88679 0.52183 0.27351
 C318 C 0.86687 0.52149 0.31196
 C319 C 0.83688 0.50771 0.21498
 C320 C 0.85685 0.50805 0.17644
 C321 C 0.81692 0.50049 0.33127
 C322 C 0.80018 0.50048 0.36835
 C323 C 0.89775 0.50187 0.17482
 C324 C 0.91600 0.50244 0.14286
 H325 H 0.82278 0.45548 0.31390
 H326 H 0.85980 0.45611 0.24248
 H327 H 0.90818 0.53540 0.28349
 H328 H 0.87121 0.53478 0.35484
 H329 H 0.82168 0.51197 0.19477
 H330 H 0.85875 0.51261 0.12322
 C331 C 0.49749 0.33568 0.28483
 C332 C 0.52455 0.36254 0.28287
 C333 C 0.52410 0.38176 0.24299
 C334 C 0.49661 0.37227 0.20891
 C335 C 0.47598 0.36275 0.26643
 C336 C 0.47643 0.34354 0.30628
 C337 C 0.49086 0.32699 0.21120
 C338 C 0.49040 0.34625 0.17125
 C339 C 0.49794 0.31519 0.32884
 C340 C 0.49823 0.29889 0.36704
 C341 C 0.49613 0.39326 0.16703
 C342 C 0.49579 0.41109 0.13502
 H343 H 0.54253 0.36614 0.31033
 H344 H 0.54167 0.40182 0.23634
 H345 H 0.46216 0.37040 0.27508
 H346 H 0.46301 0.33474 0.34900
 H347 H 0.48686 0.30745 0.19218
 H348 H 0.48602 0.34322 0.11800
 C349 C 0.66251 0.16206 0.28938
 C350 C 0.67068 0.16336 0.21555
 C351 C 0.65109 0.14337 0.17699
 C352 C 0.62528 0.12407 0.21608
 C353 C 0.61620 0.14255 0.24934
 C354 C 0.63576 0.16251 0.28786
 C355 C 0.65460 0.13328 0.31246
 C356 C 0.63505 0.11334 0.27398
 C357 C 0.68340 0.18329 0.33187
 C358 C 0.70008 0.20009 0.36893
 C359 C 0.60410 0.10235 0.17533
 C360 C 0.58645 0.08409 0.14333
 H361 H 0.69010 0.17861 0.19535
 H362 H 0.65373 0.14150 0.12376
 H363 H 0.59617 0.14018 0.24313
 H364 H 0.63249 0.17725 0.31460
 H365 H 0.66359 0.12894 0.35527
 H366 H 0.62731 0.09194 0.28387
 C367 C 0.49897 0.16207 -0.28936
 C368 C 0.47740 0.13331 -0.31056
 C369 C 0.47710 0.11339 -0.27206
 C370 C 0.49841 0.12412 -0.21600
 C371 C 0.49298 0.14407 -0.17638
 C372 C 0.49328 0.16404 -0.21497
 C373 C 0.52585 0.16186 -0.29025
 C374 C 0.52555 0.14193 -0.25171
 C375 C 0.49919 0.18325 -0.33190
 C376 C 0.49920 0.20000 -0.36906
 C377 C 0.49798 0.10242 -0.17522
 C378 C 0.49744 0.08416 -0.14322
 H379 H 0.46354 0.12897 -0.35221
 H380 H 0.46300 0.09200 -0.28077
 H381 H 0.48926 0.14265 -0.12278
 H382 H 0.48982 0.17972 -0.19443
 H383 H 0.54357 0.17616 -0.31861
 H384 H 0.54301 0.13913 -0.24712
 C385 C 0.66475 0.50274 -0.28649
 C386 C 0.67530 0.51515 -0.21699
 C387 C 0.65604 0.51569 -0.17736
 C388 C 0.62815 0.50377 -0.21115
 C389 C 0.62104 0.47508 -0.23301
 C390 C 0.64028 0.47454 -0.27258
 C391 C 0.65265 0.51927 -0.31619
 C392 C 0.63344 0.51981 -0.27665
 C393 C 0.68524 0.50220 -0.33020
 C394 C 0.70153 0.50185 -0.36824
 C395 C 0.60720 0.50436 -0.16946
 C396 C 0.58941 0.50477 -0.13759
 H397 H 0.69603 0.52282 -0.20036
 H398 H 0.66027 0.52383 -0.12683
 H399 H 0.60254 0.45679 -0.21861
 H400 H 0.63826 0.45579 -0.29201
 H401 H 0.65869 0.52969 -0.36409
 H402 H 0.62302 0.53068 -0.29076
 C403 C 0.83795 0.33725 -0.28925
 C404 C 0.83817 0.36435 -0.28980
 C405 C 0.85815 0.38392 -0.25133
 C406 C 0.87597 0.37448 -0.21603
 C407 C 0.88661 0.36395 -0.27238
 C408 C 0.86665 0.34440 -0.31082
 C409 C 0.83607 0.32948 -0.21493
 C410 C 0.85608 0.34907 -0.17641
 C411 C 0.81670 0.31636 -0.33173
 C412 C 0.79989 0.29971 -0.36883
 C413 C 0.89772 0.39567 -0.17533
 C414 C 0.91599 0.41334 -0.14339
 H415 H 0.82385 0.36786 -0.31787
 H416 H 0.86095 0.40418 -0.24648
 H417 H 0.90797 0.37120 -0.28128
 H418 H 0.87094 0.33491 -0.35261
 H419 H 0.82043 0.31032 -0.19438
 H420 H 0.85758 0.34669 -0.12287
 C421 C 0.50238 -0.16243 -0.28432
 C422 C 0.52389 -0.13360 -0.30520
 C423 C 0.52443 -0.11384 -0.26567
 C424 C 0.50340 -0.12480 -0.20899
 C425 C 0.50895 -0.14496 -0.17070
 C426 C 0.50842 -0.16476 -0.21035
 C427 C 0.47554 -0.16217 -0.28369
 C428 C 0.47607 -0.14240 -0.24411
 C429 C 0.50185 -0.18345 -0.32803
 C430 C 0.50153 -0.20008 -0.36610
 C431 C 0.50398 -0.10324 -0.16741
 C432 C 0.50441 -0.08502 -0.13555
 H433 H 0.53754 -0.12909 -0.34739
 H434 H 0.53853 -0.09242 -0.27401
 H435 H 0.51294 -0.14378 -0.11725
 H436 H 0.51195 -0.18056 -0.19085
 H437 H 0.45766 -0.17629 -0.31180
 H438 H 0.45866 -0.13958 -0.23835
 C439 C 0.33719 0.49928 -0.28955
 C440 C 0.34542 0.47869 -0.31279
 C441 C 0.36500 0.47840 -0.27417
 C442 C 0.37447 0.49872 -0.21598
 C443 C 0.34852 0.49185 -0.17715
 C444 C 0.32889 0.49214 -0.21586
 C445 C 0.36377 0.52662 -0.28755
 C446 C 0.38337 0.52633 -0.24889
 C447 C 0.31628 0.49949 -0.33222
 C448 C 0.29959 0.49948 -0.36948
 C449 C 0.39569 0.49830 -0.17511
 C450 C 0.41340 0.49776 -0.14313
 H451 H 0.33662 0.46545 -0.35582
 H452 H 0.37296 0.46493 -0.28415
 H453 H 0.34580 0.48717 -0.12400
 H454 H 0.30937 0.48771 -0.19587
 H455 H 0.36691 0.54463 -0.31409
 H456 H 0.40330 0.54409 -0.24236
 C457 C 1.16211 0.66484 -0.28552
 C458 C 1.16234 0.63797 -0.28361
 C459 C 1.14265 0.61873 -0.24384
 C460 C 1.12464 0.62822 -0.20986
 C461 C 1.11355 0.63779 -0.26742
 C462 C 1.13322 0.65701 -0.30714
 C463 C 1.16411 0.67349 -0.21187
 C464 C 1.14438 0.65421 -0.17207
 C465 C 1.18303 0.68536 -0.32939
 C466 C 1.19956 0.70173 -0.36753
 C467 C 1.10316 0.60725 -0.16807
 C468 C 1.08497 0.58946 -0.13615
 H469 H 1.17674 0.63439 -0.31100
 H470 H 1.14018 0.59866 -0.23726
 H471 H 1.09211 0.63013 -0.27624
 H472 H 1.12862 0.66583 -0.34991
 H473 H 1.17961 0.69299 -0.19268
 H474 H 1.14298 0.65718 -0.11881
 C475 C 0.83782 0.50077 -0.28717
 C476 C 0.83654 0.50713 -0.21296
 C477 C 0.85668 0.50749 -0.17512
 C478 C 0.87607 0.50145 -0.21531
 C479 C 0.88655 0.52232 -0.27240
 C480 C 0.86646 0.52196 -0.31015
 C481 C 0.83766 0.47370 -0.28722
 C482 C 0.85777 0.47405 -0.24942
 C483 C 0.81651 0.50051 -0.32894
 C484 C 0.79972 0.50049 -0.36576
 C485 C 0.89790 0.50194 -0.17536
 C486 C 0.91621 0.50251 -0.14379
 H487 H 0.82119 0.51098 -0.19199
 H488 H 0.85859 0.51165 -0.12171
 H489 H 0.90789 0.53617 -0.28233
 H490 H 0.87059 0.53552 -0.35240
 H491 H 0.82301 0.45580 -0.31445
 H492 H 0.86037 0.45647 -0.24432
 C493 C 0.49701 0.33496 -0.28273
 C494 C 0.49295 0.35581 -0.32223
 C495 C 0.49244 0.37512 -0.28309
 C496 C 0.49604 0.37173 -0.20817
 C497 C 0.52268 0.37118 -0.20326
 C498 C 0.52319 0.35182 -0.24250
 C499 C 0.47420 0.32337 -0.23034
 C500 C 0.47369 0.34273 -0.19108
 C501 C 0.49755 0.31444 -0.32609
 C502 C 0.49791 0.29818 -0.36410
 C503 C 0.49551 0.39281 -0.16710
 C504 C 0.49520 0.41073 -0.13572
 H505 H 0.49066 0.35544 -0.37630
 H506 H 0.48972 0.39129 -0.30365
 H507 H 0.53963 0.38476 -0.17173
 H508 H 0.54056 0.34879 -0.24454
 H509 H 0.45977 0.30188 -0.22452
 H510 H 0.45882 0.33784 -0.15164
 C511 C 0.66294 0.16240 -0.28642
 C512 C 0.66375 0.17004 -0.21235
 C513 C 0.64399 0.14985 -0.17454
 C514 C 0.62542 0.12408 -0.21464
 C515 C 0.64461 0.11600 -0.24815
 C516 C 0.66434 0.13614 -0.28587
 C517 C 0.63406 0.15379 -0.30990
 C518 C 0.61434 0.13366 -0.27217
 C519 C 0.68394 0.18377 -0.32816
 C520 C 0.70063 0.20062 -0.36501
 C521 C 0.60409 0.10220 -0.17477
 C522 C 0.58635 0.08387 -0.14326
 H523 H 0.67851 0.18953 -0.19145
 H524 H 0.64180 0.15205 -0.12124
 H525 H 0.64289 0.09620 -0.24263
 H526 H 0.67954 0.13361 -0.31263
 H527 H 0.62950 0.16278 -0.35238
 H528 H 0.59289 0.12539 -0.28230
 C529 C 1.16192 0.49729 -0.28514
 C530 C 1.16144 0.52403 -0.28536
 C531 C 1.14170 0.52352 -0.24578
 C532 C 1.12438 0.49631 -0.20979
 C533 C 1.14475 0.49114 -0.17133
 C534 C 1.16453 0.49166 -0.21102
 C535 C 1.13313 0.47549 -0.30533
 C536 C 1.11341 0.47498 -0.26576
 C537 C 1.18284 0.49779 -0.32894
 C538 C 1.19935 0.49810 -0.36724
 C539 C 1.10288 0.49576 -0.16829
 C540 C 1.08470 0.49539 -0.13655
 H541 H 1.17540 0.54182 -0.31404
 H542 H 1.13876 0.54088 -0.24053
 H543 H 1.14375 0.48742 -0.11776
 H544 H 1.18047 0.48838 -0.19148
 H545 H 1.12862 0.46163 -0.34706
 H546 H 1.09202 0.46069 -0.27358
 C547 C 0.50062 0.66347 -0.28819
 C548 C 0.52206 0.65630 -0.31063
 C549 C 0.52246 0.63655 -0.27292
 C550 C 0.50137 0.62589 -0.21640
 C551 C 0.47409 0.61668 -0.25126
 C552 C 0.47370 0.63645 -0.28900
 C553 C 0.50662 0.67095 -0.21380
 C554 C 0.50701 0.65116 -0.17600
 C555 C 0.50032 0.68454 -0.32993
 C556 C 0.50029 0.70132 -0.36677
 C557 C 0.50191 0.60453 -0.17648
 C558 C 0.50253 0.58679 -0.14491
 H559 H 0.53579 0.66592 -0.35245
 H560 H 0.53649 0.62924 -0.28246
 H561 H 0.45662 0.59643 -0.24665
 H562 H 0.45588 0.63315 -0.31671
 H563 H 0.51023 0.69006 -0.19270
 H564 H 0.51096 0.65330 -0.12249
 C565 C 0.33487 -0.16219 -0.28269
 C566 C 0.34249 -0.13336 -0.30454
 C567 C 0.36184 -0.11357 -0.26541
 C568 C 0.37170 -0.12451 -0.20819
 C569 C 0.38112 -0.14253 -0.24244
 C570 C 0.36176 -0.16234 -0.28161
 C571 C 0.32653 -0.16409 -0.20882
 C572 C 0.34594 -0.14424 -0.16958
 C573 C 0.31429 -0.18319 -0.32601
 C574 C 0.29793 -0.19975 -0.36396
 C575 C 0.39280 -0.10293 -0.16716
 C576 C 0.41070 -0.08471 -0.13576
 H577 H 0.33343 -0.12889 -0.34700
 H578 H 0.36937 -0.09213 -0.27440
 H579 H 0.40123 -0.13998 -0.23639
 H580 H 0.36526 -0.17678 -0.30904
 H581 H 0.30716 -0.17963 -0.18910
 H582 H 0.34320 -0.14275 -0.11623
 C583 C 0.50249 -0.16210 0.28529
 C584 C 0.47584 -0.16147 0.28557
 C585 C 0.47641 -0.14171 0.24584
 C586 C 0.50358 -0.12450 0.20972
 C587 C 0.50859 -0.14498 0.17137
 C588 C 0.50802 -0.16479 0.21117
 C589 C 0.52438 -0.13331 0.30529
 C590 C 0.52496 -0.11356 0.26559
 C591 C 0.50193 -0.18305 0.32919
 C592 C 0.50158 -0.19960 0.36753
 C593 C 0.50420 -0.10296 0.16809
 C594 C 0.50460 -0.08475 0.13633
 H595 H 0.45807 -0.17538 0.31433
 H596 H 0.45911 -0.13868 0.24064
 H597 H 0.51224 -0.14402 0.11779
 H598 H 0.51118 -0.18081 0.19166
 H599 H 0.53826 -0.12882 0.34694
 H600 H 0.53931 -0.09216 0.27329
 C601 C 0.33692 0.49925 0.28512
 C602 C 0.34366 0.47731 0.30599
 C603 C 0.36336 0.47702 0.26795
 C604 C 0.37440 0.49868 0.21271
 C605 C 0.38382 0.52568 0.24926
 C606 C 0.36411 0.52597 0.28734
 C607 C 0.32962 0.49407 0.21046
 C608 C 0.34936 0.49377 0.17233
 C609 C 0.31593 0.49947 0.32720
 C610 C 0.29921 0.49946 0.36421
 C611 C 0.39573 0.49827 0.17253
 C612 C 0.41352 0.49778 0.14098
 H613 H 0.33382 0.46321 0.34706
 H614 H 0.37038 0.46268 0.27644
 H615 H 0.40417 0.54303 0.24554
 H616 H 0.36758 0.54359 0.31624
 H617 H 0.31067 0.49091 0.18944
 H618 H 0.34732 0.49036 0.11859
 C619 C 1.16184 0.66467 0.28417
 C620 C 1.13300 0.65722 0.30513
 C621 C 1.11332 0.63800 0.26552
 C622 C 1.12437 0.62809 0.20874
 C623 C 1.14207 0.61842 0.24366
 C624 C 1.16178 0.63765 0.28330
 C625 C 1.16412 0.67315 0.21030
 C626 C 1.14438 0.65388 0.17056
 C627 C 1.18271 0.68512 0.32799
 C628 C 1.19916 0.70138 0.36628
 C629 C 1.10289 0.60715 0.16719
 C630 C 1.08471 0.58933 0.13549
 H631 H 1.12842 0.66628 0.34737
 H632 H 1.09189 0.63061 0.27382
 H633 H 1.13940 0.59825 0.23767
 H634 H 1.17599 0.63396 0.31128
 H635 H 1.17982 0.69253 0.19093
 H636 H 1.14316 0.65674 0.11715
 C637 C 0.49921 0.16197 0.28779
 C638 C 0.47732 0.13329 0.30865
 C639 C 0.47697 0.11332 0.27040
 C640 C 0.49852 0.12396 0.21497
 C641 C 0.52556 0.14148 0.25132
 C642 C 0.52592 0.16148 0.28961
 C643 C 0.49390 0.16414 0.21323
 C644 C 0.49354 0.14412 0.17488
 C645 C 0.49947 0.18315 0.33008
 C646 C 0.49946 0.19981 0.36727
 C647 C 0.49801 0.10222 0.17454
 C648 C 0.49741 0.08395 0.14273
 H649 H 0.46330 0.12903 0.34987
 H650 H 0.46265 0.09195 0.27885
 H651 H 0.54291 0.13847 0.24729
 H652 H 0.54358 0.17561 0.31837
 H653 H 0.49072 0.17998 0.19242
 H654 H 0.49005 0.14279 0.12118
 C655 C 0.66470 0.50268 0.28316
 C656 C 0.67302 0.50842 0.20914
 C657 C 0.65382 0.50902 0.16934
 C658 C 0.62825 0.50380 0.20762
 C659 C 0.63851 0.52504 0.26378
 C660 C 0.65767 0.52446 0.30345
 C661 C 0.63750 0.47594 0.28305
 C662 C 0.61834 0.47654 0.24336
 C663 C 0.68505 0.50210 0.32705
 C664 C 0.70121 0.50174 0.36544
 C665 C 0.60739 0.50447 0.16597
 C666 C 0.58964 0.50492 0.13414
 H667 H 0.69226 0.51174 0.18975
 H668 H 0.65659 0.51283 0.11581
 H669 H 0.63138 0.53933 0.27161
 H670 H 0.66694 0.53826 0.34532
 H671 H 0.63364 0.45810 0.31163
 H672 H 0.59806 0.45920 0.23787
 C673 C 0.83815 0.33742 0.28777
 C674 C 0.84712 0.32607 0.22959
 C675 C 0.86717 0.34567 0.19123
 C676 C 0.87623 0.37466 0.21490
 C677 C 0.88424 0.37537 0.28858
 C678 C 0.86424 0.35581 0.32686
 C679 C 0.83016 0.35685 0.25496
 C680 C 0.85020 0.37645 0.21662
 C681 C 0.81692 0.31658 0.33009
 C682 C 0.80017 0.30000 0.36733
 C683 C 0.89798 0.39584 0.17445
 C684 C 0.91625 0.41350 0.14260
 H685 H 0.83849 0.30457 0.21938
 H686 H 0.87573 0.34097 0.14816
 H687 H 0.90391 0.38997 0.30893
 H688 H 0.86678 0.35366 0.38002
 H689 H 0.81049 0.35532 0.26120
 H690 H 0.84773 0.39175 0.19006
   
