data_POSCAR
  _audit_creation_date              2014-09-24
  _audit_creation_method            'ToBaCCo'
  _symmetry_space_group_name_H-M    'P1'
  _symmetry_Int_Tables_number       1
  _symmetry_cell_setting            triclinic
  loop_
  _symmetry_equiv_pos_as_xyz
 x,y,z
_cell_length_a 25.3432
_cell_length_b 26.9225
_cell_length_c 29.8340
_cell_angle_alpha 86.755100
_cell_angle_beta 89.093900
_cell_angle_gamma 89.631100
loop_
  _atom_site_label
  _atom_site_type_symbol
  _atom_site_fract_x
  _atom_site_fract_y
  _atom_site_fract_z
C1 C 0.34196 0.42174 1.36498
 C2 C 0.36226 0.42594 1.32060
 C3 C 0.40293 0.39469 1.30807
 C4 C 0.42339 0.35875 1.33889
 C5 C 0.40407 0.35523 1.38236
 C6 C 0.36342 0.38687 1.39546
 C7 C 0.29872 0.44226 1.38620
 N8 N 0.29366 0.42021 1.42838
 C9 C 0.33357 0.38669 1.43411
 C10 C 0.42579 0.31333 1.40324
 N11 N 0.45705 0.29051 1.37310
 C12 C 0.45642 0.31862 1.33376
 C13 C 0.41296 0.40432 1.26315
 N14 N 0.37978 0.44083 1.24760
 C15 C 0.34821 0.45413 1.28235
 H16 H 0.27158 0.46926 1.37108
 H17 H 0.33934 0.36172 1.46332
 H18 H 0.41589 0.29862 1.43681
 H19 H 0.47560 0.30918 1.30270
 H20 H 0.44189 0.38539 1.24308
 H21 H 0.31728 0.48200 1.28005
 C22 C 1.17463 0.63179 0.80915
 C23 C 1.12984 0.63483 0.78204
 C24 C 1.08491 0.65789 0.79734
 C25 C 1.08409 0.67880 0.83908
 C26 C 1.12869 0.67814 0.86522
 C27 C 1.17429 0.65295 0.85056
 C28 C 1.22148 0.60661 0.80490
 N29 N 1.24959 0.61050 0.84297
 C30 C 1.22123 0.63928 0.87095
 C31 C 1.11556 0.70346 0.90316
 N32 N 1.06376 0.71729 0.90070
 C33 C 1.04444 0.70167 0.86182
 C34 C 1.04659 0.65345 0.76597
 N35 N 1.06688 0.62800 0.73169
 C36 C 1.11794 0.61630 0.74112
 H37 H 1.23242 0.58459 0.77696
 H38 H 1.23265 0.64795 0.90442
 H39 H 1.14130 0.71033 0.93073
 H40 H 1.00486 0.70844 0.84967
 H41 H 1.00655 0.66732 0.76838
 H42 H 1.14392 0.59474 0.72050
 C43 C 0.66016 -0.13809 0.18638
 C44 C 0.61579 -0.14008 0.21479
 C45 C 0.57113 -0.16400 0.20209
 C46 C 0.57076 -0.18753 0.16167
 C47 C 0.61527 -0.18792 0.13410
 C48 C 0.66042 -0.16128 0.14603
 C49 C 0.70564 -0.11156 0.18840
 N50 N 0.73405 -0.11643 0.14993
 C51 C 0.70706 -0.14743 0.12386
 C52 C 0.60257 -0.21625 0.09836
 N53 N 0.55136 -0.23116 0.10369
 C54 C 0.53182 -0.21290 0.14198
 C55 C 0.53265 -0.15686 0.23404
 N56 N 0.55323 -0.12920 0.26597
 C57 C 0.60414 -0.11871 0.25461
 H58 H 0.71525 -0.08799 0.21523
 H59 H 0.71891 -0.15714 0.09045
 H60 H 0.62839 -0.22498 0.07060
 H61 H 0.49282 -0.21981 0.15619
 H62 H 0.49235 -0.16988 0.23358
 H63 H 0.62996 -0.09548 0.27290
 C64 C -0.15690 1.06738 -0.36218
 C65 C -0.13727 1.06690 -0.31863
 C66 C -0.11351 1.10874 -0.30364
 C67 C -0.10868 1.15158 -0.33242
 C68 C -0.12877 1.15242 -0.37538
 C69 C -0.15483 1.11037 -0.38986
 C70 C -0.18453 1.03267 -0.38394
 N71 N -0.20189 1.05409 -0.42326
 C72 C -0.18435 1.10181 -0.42719
 C73 C -0.11749 1.19854 -0.39567
 N74 N -0.09166 1.22572 -0.36584
 C75 C -0.08691 1.19736 -0.32690
 C76 C -0.10200 1.09870 -0.25901
 N77 N -0.11928 1.05216 -0.24664
 C78 C -0.14064 1.03239 -0.28298
 H79 H -0.19504 0.99586 -0.37029
 H80 H -0.19302 1.12839 -0.45473
 H81 H -0.12762 1.21129 -0.42953
 H82 H -0.06758 1.20838 -0.29698
 H83 H -0.08464 1.12418 -0.23671
 H84 H -0.15868 0.99609 -0.28325
 C85 C 0.65810 0.59766 0.62778
 C86 C 0.64272 0.59542 0.67307
 C87 C 0.61107 0.63233 0.68957
 C88 C 0.59434 0.67208 0.66075
 C89 C 0.61028 0.67475 0.61607
 C90 C 0.64227 0.63706 0.59932
 C91 C 0.69119 0.56831 0.60379
 N92 N 0.69635 0.58891 0.56138
 C93 C 0.66631 0.63092 0.55814
 C94 C 0.59063 0.71858 0.59693
 N95 N 0.56266 0.74229 0.62875
 C96 C 0.56466 0.71388 0.66786
 C97 C 0.60377 0.62107 0.73486
 N98 N 0.63018 0.57813 0.74595
 C99 C 0.65419 0.56232 0.70833
 H100 H 0.71167 0.53534 0.61688
 H101 H 0.66419 0.65643 0.52885
 H102 H 0.59653 0.73207 0.56236
 H103 H 0.54717 0.72326 0.69961
 H104 H 0.58059 0.64235 0.75785
 H105 H 0.67836 0.52919 0.70656
 C106 C 0.84299 0.38025 0.15954
 C107 C 0.88396 0.37364 0.19029
 C108 C 0.92324 0.33945 0.18287
 C109 C 0.92216 0.31136 0.14496
 C110 C 0.88003 0.31507 0.11584
 C111 C 0.83986 0.35068 0.12300
 C112 C 0.80338 0.41494 0.15612
 N113 N 0.77549 0.40783 0.11856
 C114 C 0.79664 0.36781 0.09847
 C115 C 0.89052 0.28183 0.08279
 N116 N 0.93879 0.26065 0.09063
 C117 C 0.95811 0.27872 0.12848
 C118 C 0.95657 0.33891 0.21872
 N119 N 0.93807 0.37167 0.24822
 C120 C 0.89410 0.39389 0.23073
 H121 H 0.79634 0.44407 0.17909
 H122 H 0.78420 0.35456 0.06674
 H123 H 0.86640 0.27572 0.05400
 H124 H 0.99555 0.26838 0.14344
 H125 H 0.99061 0.31489 0.22368
 H126 H 0.86967 0.42066 0.24729
 C127 C 0.34421 0.10362 0.83783
 C128 C 0.38208 0.12088 0.80614
 C129 C 0.41422 0.16034 0.81504
 C130 C 0.40916 0.18272 0.85634
 C131 C 0.37184 0.16536 0.88778
 C132 C 0.33856 0.12613 0.87809
 C133 C 0.30671 0.06705 0.83722
 N134 N 0.27751 0.06751 0.87580
 C135 C 0.29682 0.10360 0.90104
 C136 C 0.37611 0.19322 0.92478
 N137 N 0.41471 0.22729 0.91644
 C138 C 0.43494 0.22149 0.87460
 C139 C 0.44619 0.16950 0.77766
 N140 N 0.43397 0.13655 0.74656
 C141 C 0.39480 0.10673 0.76382
 H142 H 0.30015 0.04326 0.80982
 H143 H 0.28171 0.11299 0.93364
 H144 H 0.35252 0.18933 0.95533
 H145 H 0.46653 0.24344 0.85891
 H146 H 0.47595 0.19811 0.77351
 H147 H 0.37645 0.07709 0.74675
 C148 C 0.18500 0.90433 0.36266
 C149 C 0.17052 0.90388 0.31750
 C150 C 0.14060 0.86530 0.30326
 C151 C 0.12438 0.82696 0.33382
 C152 C 0.13835 0.82718 0.37846
 C153 C 0.16869 0.86658 0.39311
 C154 C 0.21446 0.93688 0.38565
 N155 N 0.21645 0.92016 0.42948
 C156 C 0.18794 0.87741 0.43441
 C157 C 0.11626 0.78534 0.39998
 N158 N 0.08900 0.76058 0.36936
 C159 C 0.09375 0.78590 0.32894
 C160 C 0.12970 0.87565 0.25874
 N161 N 0.15169 0.92005 0.24568
 C162 C 0.17705 0.93751 0.28132
 H163 H 0.23328 0.97018 0.37123
 H164 H 0.18293 0.85471 0.46526
 H165 H 0.11900 0.77427 0.43531
 H166 H 0.07643 0.77517 0.29803
 H167 H 0.10493 0.85388 0.23818
 H168 H 0.19688 0.97298 0.28150
 Zn169 Zn 0.01188 1.03288 -0.03734
 Zn170 Zn -0.05523 0.94439 -0.00972
 Zn171 Zn 0.05972 0.94281 0.01151
 Zn172 Zn -0.01491 1.01034 0.05782
 O173 O 0.00049 0.98247 0.00534
 O174 O -0.03207 1.02977 -0.08325
 O175 O -0.03539 0.88219 -0.01897
 O176 O 0.11152 0.96345 -0.02627
 O177 O -0.08426 0.96668 -0.06167
 O178 O 0.07709 1.03079 -0.06112
 O179 O 0.04923 0.87906 -0.00178
 O180 O 0.03586 0.99943 0.09775
 O181 O -0.10633 0.93835 0.03314
 O182 O 0.08738 0.94337 0.06683
 O183 O -0.07344 0.98595 0.08383
 O184 O -0.02303 1.07645 0.05302
 O185 O 0.00345 1.09422 -0.01699
 C186 C -0.07044 1.00126 -0.09013
 C187 C 0.00795 0.85860 -0.01546
 C188 C 0.11481 1.00017 -0.05466
 C189 C 0.07557 0.97056 0.09902
 C190 C -0.10843 0.95639 0.07153
 C191 C -0.01238 1.10780 0.02097
 Zn192 Zn 0.45623 0.02764 0.45318
 Zn193 Zn 0.45567 -0.00211 0.55032
 Zn194 Zn 0.54245 -0.03661 0.49048
 Zn195 Zn 0.53601 0.07039 0.51251
 O196 O 0.49775 0.01488 0.50170
 O197 O 0.38776 0.01645 0.46443
 O198 O 0.47434 -0.06029 0.57742
 O199 O 0.53581 -0.05964 0.43549
 O200 O 0.38788 -0.01031 0.53595
 O201 O 0.47024 -0.01232 0.40943
 O202 O 0.53386 -0.08862 0.52993
 O203 O 0.60614 0.05843 0.51414
 O204 O 0.45771 0.04251 0.59252
 O205 O 0.60976 -0.02028 0.49623
 O206 O 0.51860 0.09530 0.56539
 O207 O 0.52588 0.12008 0.47092
 O208 O 0.46488 0.08888 0.42808
 C209 C 0.36421 -0.00260 0.49902
 C210 C 0.50615 -0.09385 0.56565
 C211 C 0.50337 -0.04701 0.40492
 C212 C 0.63220 0.01900 0.50739
 C213 C 0.48555 0.08114 0.59581
 C214 C 0.49562 0.12370 0.43740
 Zn215 Zn 0.94700 0.48995 0.54433
 Zn216 Zn 1.01534 0.42935 0.48792
 Zn217 Zn 0.95357 0.51462 0.44605
 Zn218 Zn 1.04577 0.53435 0.50525
 O219 O 0.99062 0.49216 0.49568
 O220 O 0.94187 0.42998 0.57219
 O221 O 0.99960 0.40835 0.43418
 O222 O 0.88543 0.52890 0.45837
 O223 O 0.99081 0.38306 0.52922
 O224 O 0.88196 0.50954 0.53142
 O225 O 0.95430 0.47116 0.40226
 O226 O 1.04649 0.58742 0.46600
 O227 O 1.08579 0.42643 0.48956
 O228 O 0.98021 0.57129 0.42151
 O229 O 1.10877 0.50463 0.49863
 O230 O 1.04421 0.55906 0.56058
 O231 O 0.96770 0.52910 0.58614
 C232 C 0.96120 0.38814 0.56339
 C233 C 0.97520 0.42824 0.40094
 C234 C 0.86025 0.52576 0.49551
 C235 C 1.01782 0.59883 0.43242
 C236 C 1.12065 0.45963 0.49257
 C237 C 1.00833 0.55522 0.59078
 Zn238 Zn 0.49336 0.47669 0.94041
 Zn239 Zn 0.55779 0.54509 0.98629
 Zn240 Zn 0.44303 0.53853 1.00725
 Zn241 Zn 0.51236 0.45522 1.03556
 O242 O 0.50156 0.50409 0.99296
 O243 O 0.55219 0.48105 0.90697
 O244 O 0.54550 0.60539 1.00773
 O245 O 0.39897 0.54835 0.96078
 O246 O 0.57766 0.55453 0.92783
 O247 O 0.44142 0.50692 0.90886
 O248 O 0.45980 0.59924 1.02298
 O249 O 0.47484 0.46685 1.08541
 O250 O 0.61309 0.51924 1.01696
 O251 O 0.40814 0.51014 1.05535
 O252 O 0.58072 0.45004 1.05106
 O253 O 0.49099 0.39544 1.01846
 O254 O 0.47694 0.41253 0.94612
 C255 C 0.57866 0.52055 0.89991
 C256 C 0.50267 0.62340 1.02263
 C257 C 0.40380 0.53507 0.92068
 C258 C 0.42893 0.48589 1.08851
 C259 C 0.61867 0.47992 1.04227
 C260 C 0.47649 0.38235 0.98030
 N261 N 1.19925 0.41108 0.51654
 N262 N 1.24836 0.39972 0.49804
 C263 C 1.25341 0.42650 0.45853
 C264 C 1.20884 0.45627 0.45162
 C265 C 1.17608 0.44514 0.48855
 H266 H 1.19936 0.47975 0.42219
 H267 H 1.18263 0.39349 0.54546
 H268 H 1.27399 0.37282 0.51198
 N269 N 0.36603 0.53776 0.84434
 N270 N 0.32265 0.55917 0.82242
 C271 C 0.29607 0.58632 0.85212
 C272 C 0.32167 0.58309 0.89321
 C273 C 0.36494 0.55199 0.88688
 H274 H 0.30980 0.59972 0.92400
 H275 H 0.39350 0.51415 0.82987
 H276 H 0.31354 0.55396 0.78904
 N277 N -0.15402 0.96091 0.14482
 N278 N -0.19754 0.93978 0.16725
 C279 C -0.22067 0.90912 0.13926
 C280 C -0.19254 0.90979 0.09862
 C281 C -0.15124 0.94292 0.10368
 H282 H -0.20086 0.88935 0.06937
 H283 H -0.12823 0.98592 0.15845
 H284 H -0.20869 0.94738 0.19996
 N285 N 0.71395 -0.02733 0.52538
 N286 N 0.76063 -0.01754 0.54706
 C287 C 0.76407 0.03211 0.54940
 C288 C 0.72033 0.05520 0.52958
 C289 C 0.68903 0.01640 0.51645
 H290 H 0.70891 0.09389 0.53108
 H291 H 0.69822 -0.06283 0.52303
 H292 H 0.78566 -0.04465 0.56161
 N293 N 0.51078 0.17046 0.36454
 N294 N 0.50065 0.21841 0.34646
 C295 C 0.47922 0.24449 0.37959
 C296 C 0.47675 0.21479 0.41928
 C297 C 0.49644 0.16902 0.40819
 H298 H 0.45977 0.22383 0.45131
 H299 H 0.52474 0.14085 0.34646
 H300 H 0.50537 0.22955 0.31257
 N301 N 0.95737 0.34741 0.63963
 N302 N 0.94327 0.30130 0.65962
 C303 C 0.92684 0.27296 0.62675
 C304 C 0.93112 0.29949 0.58535
 C305 C 0.95062 0.34569 0.59511
 H306 H 0.92116 0.28724 0.55263
 H307 H 0.97100 0.37749 0.65672
 H308 H 0.94370 0.29236 0.69410
 N309 N -0.03391 0.78445 -0.04375
 N310 N -0.01799 0.74506 -0.06903
 C311 C 0.03518 0.74417 -0.07005
 C312 C 0.05451 0.78201 -0.04494
 C313 C 0.00972 0.80745 -0.03048
 H314 H 0.09505 0.79415 -0.04353
 H315 H -0.07284 0.79703 -0.04098
 H316 H -0.04362 0.72286 -0.08615
 N317 N 0.45689 0.69309 1.05704
 N318 N 0.47076 0.73398 1.08061
 C319 C 0.52370 0.73832 1.07792
 C320 C 0.54483 0.70125 1.05216
 C321 C 0.50157 0.67290 1.04099
 H322 H 0.58613 0.69240 1.04707
 H323 H 0.41880 0.67866 1.05604
 H324 H 0.44407 0.75535 1.09842
 N325 N 0.35415 0.50288 1.14171
 N326 N 0.34146 0.49139 1.18427
 C327 C 0.37921 0.46109 1.20194
 C328 C 0.41750 0.45299 1.16949
 C329 C 0.40017 0.48021 1.13179
 H330 H 0.45343 0.43127 1.17287
 H331 H 0.33195 0.52638 1.12016
 H332 H 0.30769 0.50420 1.20056
 N333 N 0.45897 -0.07850 0.33901
 N334 N 0.47198 -0.10127 0.30239
 C335 C 0.52429 -0.11015 0.30284
 C336 C 0.54571 -0.09311 0.34148
 C337 C 0.50269 -0.07323 0.36339
 H338 H 0.58665 -0.09315 0.35123
 H339 H 0.42090 -0.06619 0.34675
 H340 H 0.44578 -0.10859 0.27695
 N341 N -0.13505 0.97591 -0.14651
 N342 N -0.14722 0.98886 -0.18849
 C343 C -0.11814 1.02876 -0.20222
 C344 C -0.08623 1.04205 -0.16772
 C345 C -0.09802 1.00727 -0.13302
 H346 H -0.05705 1.07126 -0.16836
 H347 H -0.15087 0.94529 -0.12800
 H348 H -0.17458 0.97027 -0.20715
 N349 N 0.96881 0.59455 0.65613
 N350 N 0.98401 0.61390 0.69337
 C351 C 1.03713 0.61332 0.69411
 C352 C 1.05692 0.59324 0.65530
 C353 C 1.01182 0.58176 0.63222
 H354 H 1.09763 0.58601 0.64618
 H355 H 0.92943 0.58938 0.64773
 H356 H 0.95808 0.62551 0.71826
 N357 N 0.78104 0.57331 0.46745
 N358 N 0.73721 0.59094 0.48557
 C359 C 0.73325 0.57226 0.52837
 C360 C 0.77581 0.54144 0.53783
 C361 C 0.80554 0.54355 0.49861
 H362 H 0.78665 0.52406 0.56998
 H363 H 0.79542 0.58408 0.43538
 H364 H 0.71216 0.61694 0.46946
 N365 N 0.68807 0.50708 1.09183
 N366 N 0.73030 0.48598 1.11544
 C367 C 0.73664 0.43906 1.10260
 C368 C 0.69838 0.42873 1.07137
 C369 C 0.66857 0.47237 1.06606
 H370 H 0.69174 0.39388 1.05604
 H371 H 0.67258 0.54257 1.09614
 H372 H 0.75321 0.50484 1.13768
 N373 N 0.17620 0.97819 -0.11577
 N374 N 0.22172 0.99820 -0.13629
 C375 C 0.23531 1.03792 -0.11347
 C376 C 0.19922 1.04453 -0.07872
 C377 C 0.16302 1.00663 -0.08164
 H378 H 0.19818 1.07377 -0.05528
 H379 H 0.15540 0.94783 -0.12657
 H380 H 0.24101 0.98384 -0.16392
 N381 N 0.28563 -0.05098 0.52616
 N382 N 0.24477 -0.07515 0.50549
 C383 C 0.24510 -0.05907 0.46187
 C384 C 0.28465 -0.02397 0.45401
 C385 C 0.31006 -0.02103 0.49466
 H386 H 0.29811 -0.00793 0.42180
 H387 H 0.29881 -0.06022 0.55858
 H388 H 0.22149 -0.10307 0.52116
 N389 N 0.49083 -0.14573 0.63624
 N390 N 0.50768 -0.19193 0.65433
 C391 C 0.53802 -0.21275 0.62283
 C392 C 0.54132 -0.18097 0.58456
 C393 C 0.51163 -0.13948 0.59450
 H394 H 0.56356 -0.18631 0.55394
 H395 H 0.46770 -0.12036 0.65320
 H396 H 0.49790 -0.20649 0.68652
 N397 N 1.00346 0.65735 0.36632
 N398 N 1.02234 0.70015 0.34956
 C399 C 1.05917 0.71577 0.37755
 C400 C 1.06427 0.68154 0.41372
 C401 C 1.02817 0.64487 0.40504
 H402 H 1.09076 0.68268 0.44173
 H403 H 0.97440 0.63697 0.35118
 H404 H 1.00980 0.71811 0.31965
 N405 N 0.03242 1.18355 0.04064
 N406 N 0.01870 1.22559 0.06335
 C407 C -0.03437 1.22840 0.06501
 C408 C -0.05582 1.18840 0.04413
 C409 C -0.01242 1.16071 0.03013
 H410 H -0.09681 1.17733 0.04461
 H411 H 0.07062 1.16896 0.03853
 H412 H 0.04554 1.24885 0.07794
 N413 N 0.44327 0.29920 1.00891
 N414 N 0.42590 0.25825 0.99172
 C415 C 0.43099 0.26355 0.94669
 C416 C 0.45203 0.30962 0.93444
 C417 C 0.45898 0.33119 0.97499
 H418 H 0.45954 0.32576 0.90091
 H419 H 0.44299 0.30547 1.04314
 H420 H 0.41081 0.22756 1.01058
 N421 N 0.63229 0.48896 0.83751
 N422 N 0.64580 0.50427 0.79613
 C423 C 0.63038 0.55205 0.78928
 C424 C 0.60702 0.56829 0.82821
 C425 C 0.60887 0.52688 0.85785
 H426 H 0.58685 0.60318 0.83294
 H427 H 0.63657 0.45241 0.85072
 H428 H 0.66218 0.48123 0.77254
 N429 N 0.50829 0.15009 0.64472
 N430 N 0.49480 0.16462 0.68497
 C431 C 0.45778 0.13333 0.70277
 C432 C 0.44712 0.09746 0.67274
 C433 C 0.48007 0.10942 0.63638
 H434 H 0.42006 0.06656 0.67684
 H435 H 0.53671 0.16753 0.62365
 H436 H 0.51102 0.19518 0.69969
 N437 N 0.12277 1.01059 0.15931
 N438 N 0.14400 0.99708 0.19829
 C439 C 0.14264 0.94709 0.20365
 C440 C 0.12054 0.92778 0.16612
 C441 C 0.10834 0.96948 0.13900
 H442 H 0.11019 0.88958 0.16112
 H443 H 0.11613 1.04744 0.14783
 H444 H 0.15566 1.02192 0.22183
 N445 N 1.00066 0.35887 0.35359
 N446 N 0.99193 0.34447 0.31284
 C447 C 0.95834 0.37706 0.29235
 C448 C 0.94498 0.41398 0.32120
 C449 C 0.97294 0.40088 0.35977
 H450 H 0.91898 0.44560 0.31513
 H451 H 1.02553 0.34022 0.37661
 H452 H 1.00825 0.31247 0.29993
   
