data_POSCAR
  _audit_creation_date              2014-09-24
  _audit_creation_method            'ToBaCCo'
  _symmetry_space_group_name_H-M    'P1'
  _symmetry_Int_Tables_number       1
  _symmetry_cell_setting            triclinic
  loop_
  _symmetry_equiv_pos_as_xyz
 x,y,z
_cell_length_a 22.3408
_cell_length_b 22.1750
_cell_length_c 22.2391
_cell_angle_alpha 86.867200
_cell_angle_beta 89.099100
_cell_angle_gamma 91.295500
loop_
  _atom_site_label
  _atom_site_type_symbol
  _atom_site_fract_x
  _atom_site_fract_y
  _atom_site_fract_z
C1 C 0.61648 0.55024 -0.02882
 C2 C 0.60005 0.61077 -0.03576
 C3 C 0.54072 0.62855 -0.02852
 C4 C 0.49432 0.58319 -0.02380
 C5 C 0.50930 0.52114 -0.02072
 C6 C 0.57050 0.50454 -0.02366
 C7 C 0.58332 0.44307 -0.02726
 C8 C 0.53865 0.39870 -0.02100
 C9 C 0.47812 0.41365 -0.01575
 C10 C 0.46284 0.47546 -0.01709
 C11 C 0.43355 0.59766 -0.02791
 C12 C 0.38843 0.55362 -0.02138
 C13 C 0.40143 0.49171 -0.01568
 C14 C 0.35540 0.44569 -0.00890
 C15 C 0.37270 0.38494 -0.00713
 C16 C 0.43261 0.36829 -0.01050
 H17 H 0.62787 0.42804 -0.03698
 H18 H 0.55267 0.35242 -0.02140
 H19 H 0.41956 0.64329 -0.03818
 H20 H 0.34345 0.57003 -0.02207
 H21 H 0.63520 0.64549 -0.04047
 H22 H 0.33912 0.34921 -0.00821
 C23 C 0.02565 0.62944 0.44559
 C24 C 0.02506 0.61345 0.38580
 C25 C 0.01806 0.55325 0.37029
 C26 C 0.01698 0.50646 0.41725
 C27 C 0.01936 0.52209 0.47847
 C28 C 0.02512 0.58362 0.49246
 C29 C 0.03391 0.59750 0.55263
 C30 C 0.03163 0.55274 0.59877
 C31 C 0.02085 0.49195 0.58684
 C32 C 0.01808 0.47603 0.52592
 C33 C 0.01909 0.44482 0.40534
 C34 C 0.01629 0.39988 0.45152
 C35 C 0.01555 0.41423 0.51232
 C36 C 0.01373 0.36859 0.55978
 C37 C 0.01409 0.38565 0.61965
 C38 C 0.01621 0.44624 0.63393
 H39 H 0.04415 0.64309 0.56477
 H40 H 0.04018 0.56647 0.64377
 H41 H 0.02502 0.42998 0.36029
 H42 H 0.01556 0.35369 0.43842
 H43 H 0.02603 0.64939 0.35056
 H44 H 0.01372 0.35124 0.65619
 C45 C 0.54153 -0.01585 0.63591
 C46 C 0.60112 -0.02275 0.61749
 C47 C 0.61950 -0.01847 0.55653
 C48 C 0.57488 -0.01110 0.51181
 C49 C 0.51367 -0.00635 0.52930
 C50 C 0.49670 -0.00970 0.59135
 C51 C 0.43522 -0.01143 0.60644
 C52 C 0.39207 -0.00190 0.56300
 C53 C 0.40769 0.00344 0.50161
 C54 C 0.46893 -0.00004 0.48442
 C55 C 0.58917 -0.01207 0.44984
 C56 C 0.54559 -0.00543 0.40633
 C57 C 0.48534 0.00177 0.42240
 C58 C 0.44075 0.00852 0.37810
 C59 C 0.38113 0.01541 0.39616
 C60 C 0.36383 0.01166 0.45676
 H61 H 0.41898 -0.02177 0.65184
 H62 H 0.34614 0.00003 0.57850
 H63 H 0.63389 -0.02003 0.43351
 H64 H 0.55992 -0.00720 0.35981
 H65 H 0.63435 -0.02507 0.65236
 H66 H 0.34719 0.02282 0.36237
 O67 O 0.46734 -0.00260 -0.08138
 O68 O 0.44782 -0.01523 0.08340
 O69 O 0.44522 0.07195 0.00200
 O70 O 0.46756 -0.09159 0.00103
 O71 O 0.56481 -0.07689 0.01178
 O72 O 0.54271 0.08755 0.01007
 O73 O 0.54492 0.00100 0.09375
 O74 O 0.56488 0.01044 -0.07102
 Cu75 Cu 0.44724 -0.01110 0.00006
 Cu76 Cu 0.56415 0.00691 0.01222
 C77 C 0.51953 0.00611 -0.10423
 C78 C 0.49293 -0.00833 0.11664
 C79 C 0.49001 0.10760 0.00647
 C80 C 0.51988 -0.11220 0.00653
 O81 O -0.08850 0.56593 0.98964
 O82 O 0.07419 0.54446 0.99076
 O83 O -0.00892 0.53707 0.91026
 O84 O -0.00648 0.56728 1.07193
 O85 O -0.02330 0.47024 1.09516
 O86 O -0.02218 0.43966 0.93422
 O87 O 0.05929 0.44748 1.01572
 O88 O -0.10432 0.46857 1.01199
 Cu89 Cu -0.00596 0.56340 0.98837
 Cu90 Cu -0.02422 0.44679 1.01668
 C91 C -0.12415 0.52117 1.00021
 C92 C 0.09459 0.49247 1.00340
 C93 C -0.01556 0.48295 0.89483
 C94 C -0.01468 0.52382 1.11108
 O95 O -0.01322 -0.07091 0.42782
 O96 O -0.01521 0.09148 0.45450
 O97 O 0.06729 0.01448 0.43232
 O98 O -0.09689 0.00495 0.45199
 O99 O -0.08608 -0.01541 0.54945
 O100 O 0.07728 -0.00845 0.52952
 O101 O -0.00460 0.07059 0.55192
 O102 O -0.00488 -0.09205 0.52553
 Cu103 Cu -0.01575 0.01232 0.43190
 Cu104 Cu -0.00353 -0.01305 0.54898
 C105 C -0.00865 -0.10909 0.47206
 C106 C -0.00994 0.10875 0.50765
 C107 C 0.10014 0.00341 0.47746
 C108 C -0.11940 -0.00743 0.50413
 C109 C -0.32125 0.53998 0.97336
 C110 C -0.29576 0.49718 1.00911
 C111 C -0.23031 0.48799 1.01165
 C112 C -0.18899 0.53158 0.99793
 H113 H -0.32320 0.46714 1.03857
 H114 H -0.21604 0.44371 1.02774
 H115 H -0.29222 0.57289 0.94902
 H116 H -0.20237 0.57709 0.98559
 C117 C 0.29329 0.45905 0.99310
 C118 C 0.25024 0.42060 1.01671
 C119 C 0.18503 0.43178 1.01666
 C120 C 0.16006 0.48516 1.00315
 H121 H 0.26190 0.37780 1.03843
 H122 H 0.15621 0.39317 1.02970
 H123 H 0.27912 0.50201 0.97478
 H124 H 0.18742 0.52510 0.99193
 C125 C 0.02508 -0.30505 0.45602
 C126 C -0.01405 -0.28174 0.49419
 C127 C -0.01595 -0.21673 0.50452
 C128 C -0.00684 -0.17370 0.46052
 H129 H -0.04407 -0.31150 0.52132
 H130 H -0.02847 -0.20430 0.54936
 H131 H 0.05467 -0.27528 0.42840
 H132 H 0.00066 -0.18597 0.41457
 C133 C 0.01413 0.30308 0.54788
 C134 C -0.01637 0.26086 0.58231
 C135 C -0.01521 0.19564 0.57192
 C136 C -0.00968 0.17399 0.51708
 H137 H -0.04208 0.27375 0.62101
 H138 H -0.02270 0.16463 0.61078
 H139 H 0.04133 0.28906 0.51075
 H140 H -0.00687 0.20471 0.47752
 C141 C 0.53147 -0.01506 -0.30121
 C142 C 0.49172 0.01961 -0.27417
 C143 C 0.48334 0.01796 -0.20811
 C144 C 0.52862 0.01025 -0.16989
 H145 H 0.46379 0.05007 -0.30023
 H146 H 0.43870 0.02551 -0.19082
 H147 H 0.56207 -0.04031 -0.27270
 H148 H 0.57415 0.00802 -0.18692
 C149 C 0.45515 0.00911 0.31267
 C150 C 0.42103 -0.02133 0.27494
 C151 C 0.43174 -0.02111 0.20933
 C152 C 0.48526 -0.00996 0.18252
 H153 H 0.38161 -0.04622 0.29230
 H154 H 0.39355 -0.03248 0.18238
 H155 H 0.49388 0.03521 0.29577
 H156 H 0.52455 -0.00175 0.20899
 C157 C 0.53235 -0.30864 -0.02527
 C158 C 0.49112 -0.28389 0.00984
 C159 C 0.48366 -0.21800 0.01181
 C160 C 0.52926 -0.17766 0.00594
 H161 H 0.46078 -0.31202 0.03815
 H162 H 0.43889 -0.20272 0.02099
 H163 H 0.56526 -0.27856 -0.04823
 H164 H 0.57484 -0.19270 0.00180
 C165 C 0.44617 0.30298 -0.01216
 C166 C 0.41629 0.26044 0.02222
 C167 C 0.42720 0.19536 0.01943
 C168 C 0.48108 0.17301 0.00762
 H169 H 0.38049 0.27309 0.05205
 H170 H 0.38973 0.16481 0.03090
 H171 H 0.48022 0.28951 -0.04349
 H172 H 0.51993 0.20289 0.00113
 C173 C -0.31845 -0.01641 0.54125
 C174 C -0.27541 -0.03897 0.57715
 C175 C -0.21032 -0.03236 0.56458
 C176 C -0.18494 -0.01270 0.51180
 H177 H -0.28696 -0.06418 0.61881
 H178 H -0.18182 -0.04569 0.60173
 H179 H -0.30467 0.00592 0.49899
 H180 H -0.21168 -0.00151 0.47289
 C181 C 0.29927 0.01766 0.46993
 C182 C 0.26676 -0.02642 0.49921
 C183 C 0.20151 -0.02318 0.50876
 C184 C 0.16542 0.00392 0.46858
 H185 H 0.28879 -0.06584 0.51838
 H186 H 0.18242 -0.04770 0.54822
 H187 H 0.27760 0.05704 0.45026
 H188 H 0.18355 0.02381 0.42642
 C189 C 0.01282 0.54451 1.30804
 C190 C -0.02290 0.50264 1.28445
 C191 C -0.02647 0.49352 1.21908
 C192 C -0.01311 0.53624 1.17550
 H193 H -0.05082 0.47273 1.31356
 H194 H -0.04217 0.44936 1.20679
 H195 H 0.03516 0.57770 1.27747
 H196 H -0.00117 0.58178 1.18659
 C197 C 0.01502 0.45854 0.69895
 C198 C -0.02143 0.49885 0.72218
 C199 C -0.02238 0.51178 0.78664
 C200 C -0.01478 0.46927 0.83078
 H201 H -0.04946 0.52596 0.69261
 H202 H -0.03269 0.55737 0.79784
 H203 H 0.04266 0.43104 0.72856
 H204 H -0.00956 0.42261 0.82002
   
