data_POSCAR
  _audit_creation_date              2014-09-24
  _audit_creation_method            'ToBaCCo'
  _symmetry_space_group_name_H-M    'P1'
  _symmetry_Int_Tables_number       1
  _symmetry_cell_setting            triclinic
  loop_
  _symmetry_equiv_pos_as_xyz
 x,y,z
_cell_length_a 52.2750
_cell_length_b 51.8316
_cell_length_c 18.0600
_cell_angle_alpha 90.288400
_cell_angle_beta 89.864300
_cell_angle_gamma 120.014900
loop_
  _atom_site_label
  _atom_site_type_symbol
  _atom_site_fract_x
  _atom_site_fract_y
  _atom_site_fract_z
C1 C 0.22598 0.49214 0.46999
 C2 C 0.22542 0.48815 0.54833
 C3 C 0.24866 0.48647 0.58256
 C4 C 0.27314 0.48951 0.54271
 C5 C 0.27268 0.49133 0.46454
 C6 C 0.25000 0.49382 0.42967
 H7 H 0.24996 0.49418 0.36979
 H8 H 0.24741 0.48282 0.64170
 C9 C 0.51047 -0.26288 0.45678
 C10 C 0.51533 -0.26268 0.53441
 C11 C 0.52015 -0.23757 0.57658
 C12 C 0.52145 -0.21222 0.54381
 C13 C 0.51780 -0.21238 0.46597
 C14 C 0.51130 -0.23789 0.42479
 H15 H 0.50866 -0.23750 0.36528
 H16 H 0.52247 -0.23822 0.63565
 C17 C 1.26495 0.77764 0.45874
 C18 C 1.25860 0.78001 0.53431
 C19 C 1.23433 0.75598 0.56918
 C20 C 1.21598 0.72926 0.53109
 C21 C 1.22280 0.72662 0.45685
 C22 C 1.24688 0.75039 0.42188
 H23 H 1.25026 0.74726 0.36435
 H24 H 1.22929 0.75876 0.62583
 C25 C 0.77868 0.50177 0.46430
 C26 C 0.77957 0.50328 0.54296
 C27 C 0.75755 0.50634 0.58062
 C28 C 0.73536 0.50893 0.54254
 C29 C 0.73576 0.50895 0.46391
 C30 C 0.75673 0.50451 0.42636
 H31 H 0.75582 0.50334 0.36658
 H32 H 0.75923 0.50920 0.63983
 C33 C 0.47733 0.26748 0.45859
 C34 C 0.47426 0.26505 0.53684
 C35 C 0.47616 0.24180 0.57214
 C36 C 0.48135 0.22132 0.53209
 C37 C 0.48486 0.22451 0.45425
 C38 C 0.48283 0.24740 0.41901
 H39 H 0.48713 0.25039 0.36010
 H40 H 0.47122 0.23828 0.63037
 C41 C 0.73078 0.21567 0.46557
 C42 C 0.73522 0.21493 0.54235
 C43 C 0.75976 0.23894 0.57624
 C44 C 0.78024 0.26429 0.53565
 C45 C 0.77501 0.26498 0.45861
 C46 C 0.75047 0.24092 0.42505
 H47 H 0.74730 0.24163 0.36596
 H48 H 0.76292 0.23663 0.63429
 O49 O 1.03553 0.55989 0.13661
 O50 O 1.07151 0.55772 0.06816
 C51 C 1.06279 0.56962 0.11854
 O52 O 0.96720 0.42460 0.12937
 O53 O 0.93073 0.42825 0.06764
 C54 C 0.93973 0.41527 0.11383
 O55 O 1.04885 0.47706 0.13602
 O56 O 1.07779 0.51803 0.06458
 C57 C 1.07427 0.49925 0.11623
 O58 O 0.95377 0.51139 0.13271
 O59 O 0.92444 0.46945 0.06390
 C60 C 0.92824 0.48944 0.11270
 Zr61 Zr 0.99670 0.52321 0.09581
 O62 O 0.99405 0.52141 0.21285
 O63 O 0.99400 0.56264 0.09579
 Zr64 Zr 1.00595 0.46314 0.09420
 O65 O 1.00306 0.46087 0.21116
 O66 O 1.01467 0.42742 0.09130
 O67 O 1.02750 0.50917 0.10949
 O68 O 0.97595 0.47770 0.10936
 O69 O 0.95345 0.51189 -0.12584
 O70 O 0.92446 0.46970 -0.05821
 C71 C 0.92797 0.48981 -0.10608
 O72 O 1.04699 0.47718 -0.13853
 O73 O 1.07677 0.51827 -0.06739
 C74 C 1.07253 0.49965 -0.12061
 O75 O 0.96513 0.42508 -0.13012
 O76 O 0.93027 0.42772 -0.05787
 C77 C 0.93805 0.41528 -0.10854
 O78 O 1.03643 0.55947 -0.13424
 O79 O 1.07158 0.55775 -0.06182
 C80 C 1.06367 0.56931 -0.11395
 Zr81 Zr 0.99655 0.52339 -0.09098
 O82 O 0.99332 0.52161 -0.20792
 O83 O 0.99454 0.56319 -0.08899
 Zr84 Zr 1.00486 0.46266 -0.09180
 O85 O 1.00430 0.45845 -0.20840
 O86 O 1.01125 0.42575 -0.08004
 Zr87 Zr 1.04488 0.51984 0.00143
 Zr88 Zr 0.95724 0.46660 0.00283
 O89 O 0.97515 0.47762 -0.10451
 O90 O 1.02668 0.50878 -0.10616
 O91 O 0.96975 0.51209 0.00285
 O92 O 1.03191 0.47432 0.00023
 O93 O 1.02157 0.54321 0.00229
 O94 O 0.97967 0.44225 0.00167
 H95 H 0.96293 0.46979 0.15326
 H96 H 1.04749 0.46875 -0.00089
 H97 H 0.96172 0.46968 -0.14770
 H98 H 1.03279 0.56529 0.00217
 H99 H 1.00004 0.41204 0.05753
 H100 H 1.01248 0.41930 -0.13101
 H101 H 0.99711 0.47135 -0.22855
 H102 H 1.01062 0.52079 -0.22736
 H103 H 0.97695 0.55928 -0.05973
 H104 H 0.97627 0.55855 0.06700
 H105 H 1.01206 0.52192 0.23157
 H106 H 1.01734 0.48083 0.23074
 O107 O 0.44461 0.48963 0.13912
 O108 O 0.45615 0.53136 0.07113
 C109 C 0.44110 0.51198 0.12166
 O110 O 0.57393 0.52437 0.12785
 O111 O 0.56041 0.48234 0.05840
 C112 C 0.57699 0.50203 0.10718
 O113 O 0.53927 0.57167 0.14183
 O114 O 0.50126 0.57050 0.07558
 C115 C 0.52137 0.58135 0.12708
 O116 O 0.47525 0.43770 0.12618
 O117 O 0.51353 0.44110 0.05592
 C118 C 0.49267 0.42801 0.10443
 Zr119 Zr 0.47376 0.47616 0.09433
 O120 O 0.47418 0.47269 0.21104
 O121 O 0.43043 0.43932 0.08696
 Zr122 Zr 0.54269 0.53659 0.09374
 O123 O 0.54650 0.53577 0.21016
 O124 O 0.58417 0.57633 0.08784
 O125 O 0.49796 0.52208 0.11094
 O126 O 0.51830 0.49090 0.10610
 O127 O 0.47388 0.43856 -0.13043
 O128 O 0.51357 0.44243 -0.06657
 C129 C 0.49198 0.42917 -0.11308
 O130 O 0.53604 0.57300 -0.13434
 O131 O 0.50076 0.57198 -0.05630
 C132 C 0.51916 0.58314 -0.11093
 O133 O 0.57291 0.52614 -0.13067
 O134 O 0.56039 0.48360 -0.06494
 C135 C 0.57656 0.50395 -0.11244
 O136 O 0.44374 0.49090 -0.13148
 O137 O 0.45527 0.53159 -0.05807
 C138 C 0.44014 0.51284 -0.11029
 Zr139 Zr 0.47303 0.47709 -0.09226
 O140 O 0.47376 0.47560 -0.20941
 O141 O 0.42909 0.44098 -0.09085
 Zr142 Zr 0.54153 0.53777 -0.09249
 O143 O 0.54384 0.53749 -0.20943
 O144 O 0.58275 0.57785 -0.08892
 Zr145 Zr 0.49025 0.53350 0.00476
 Zr146 Zr 0.52510 0.48050 -0.00214
 O147 O 0.51741 0.49212 -0.10790
 O148 O 0.49668 0.52328 -0.10467
 O149 O 0.47861 0.45614 -0.00077
 O150 O 0.53673 0.55715 0.00290
 O151 O 0.45827 0.48788 0.00296
 O152 O 0.55788 0.52592 -0.00145
 H153 H 0.52362 0.48259 0.14881
 H154 H 0.54697 0.57921 0.00409
 H155 H 0.52249 0.48431 -0.15233
 H156 H 0.43706 0.48189 0.00386
 H157 H 0.59828 0.57146 0.06386
 H158 H 0.59704 0.57343 -0.06452
 H159 H 0.52466 0.53402 -0.22854
 H160 H 0.47782 0.49523 -0.22787
 H161 H 0.42835 0.42639 -0.05454
 H162 H 0.42392 0.43300 0.13858
 H163 H 0.47959 0.49244 0.23201
 H164 H 0.52694 0.53021 0.23116
 O165 O 0.46233 0.03833 0.12532
 O166 O 0.50349 0.07319 0.06334
 C167 C 0.48198 0.06556 0.11007
 O168 O 0.51789 -0.03998 0.13226
 O169 O 0.47996 -0.07311 0.05779
 C170 C 0.49919 -0.06682 0.10989
 O171 O 0.55386 0.04359 0.14289
 O172 O 0.54714 0.07574 0.06948
 C173 C 0.55976 0.07015 0.12366
 O174 O 0.42352 -0.04453 0.11631
 O175 O 0.43481 -0.07527 0.04936
 C176 C 0.41872 -0.07069 0.09630
 Zr177 Zr 0.45738 -0.00181 0.08269
 O178 O 0.45060 -0.00289 0.19843
 O179 O 0.41680 -0.00349 0.06211
 Zr180 Zr 0.52366 0.00151 0.09622
 O181 O 0.51926 -0.00230 0.21280
 O182 O 0.56642 0.00671 0.10316
 O183 O 0.50216 0.02611 0.10582
 O184 O 0.47839 -0.02599 0.10165
 O185 O 0.42956 -0.04224 -0.14231
 O186 O 0.43820 -0.07424 -0.07333
 C187 C 0.42375 -0.06880 -0.12315
 O188 O 0.56152 0.04601 -0.12704
 O189 O 0.55124 0.07715 -0.05826
 C190 C 0.56663 0.07233 -0.10718
 O191 O 0.52552 -0.03779 -0.12478
 O192 O 0.48373 -0.07208 -0.06377
 C193 C 0.50592 -0.06498 -0.10751
 O194 O 0.47128 0.04193 -0.14509
 O195 O 0.50763 0.07482 -0.06657
 C196 C 0.48976 0.06873 -0.12181
 Zr197 Zr 0.46298 0.00011 -0.10349
 O198 O 0.46510 -0.00232 -0.22022
 O199 O 0.42320 0.00129 -0.11188
 Zr200 Zr 0.52890 0.00313 -0.09055
 O201 O 0.53041 0.00077 -0.20743
 O202 O 0.57169 0.00846 -0.08294
 Zr203 Zr 0.51362 0.04507 -0.00065
 Zr204 Zr 0.47302 -0.04344 -0.00617
 O205 O 0.48442 -0.02418 -0.11204
 O206 O 0.50859 0.02834 -0.10968
 O207 O 0.44293 -0.02770 -0.01286
 O208 O 0.54293 0.02841 0.00534
 O209 O 0.46742 0.02498 -0.00951
 O210 O 0.51926 -0.02393 0.00231
 H211 H 0.47117 -0.03982 0.14422
 H212 H 0.56442 0.04265 0.00915
 H213 H 0.47938 -0.03744 -0.15584
 H214 H 0.45835 0.03778 -0.01170
 H215 H 0.56609 -0.00993 0.07530
 H216 H 0.57020 -0.00770 -0.05112
 H217 H 0.52839 0.01735 -0.22773
 H218 H 0.48370 0.01528 -0.23654
 H219 H 0.40882 -0.01398 -0.07775
 H220 H 0.40806 -0.00421 0.11132
 H221 H 0.46380 -0.00903 0.22162
 H222 H 0.51446 0.01292 0.23029
 C223 C 1.20137 0.49009 0.43183
 C224 C 1.20221 0.50040 0.35976
 C225 C 1.17552 0.49689 0.32263
 N226 N 1.17799 0.51121 0.25796
 N227 N 1.15407 0.50823 0.22376
 C228 C 1.12673 0.49068 0.25283
 N229 N 1.12424 0.47625 0.31726
 N230 N 1.14816 0.47934 0.35160
 C231 C 1.09996 0.48681 0.21553
 C232 C 1.10111 0.50346 0.15383
 H233 H 1.22299 0.51292 0.33082
 H234 H 1.07871 0.47059 0.23810
 H235 H 1.18028 0.48015 0.45974
 H236 H 1.12234 0.52043 0.13285
 C237 C 0.50505 0.71370 0.40746
 C238 C 0.51688 0.69491 0.41340
 C239 C 0.51260 0.67340 0.35435
 N240 N 0.53043 0.66144 0.35132
 N241 N 0.52755 0.64276 0.29690
 C242 C 0.50671 0.63522 0.24342
 N243 N 0.48855 0.64686 0.24697
 N244 N 0.49154 0.66570 0.30128
 C245 C 0.50355 0.61436 0.18351
 C246 C 0.52479 0.60593 0.17450
 H247 H 0.53242 0.69823 0.45692
 H248 H 0.48412 0.60486 0.14851
 H249 H 0.49437 0.71283 0.35531
 H250 H 0.54416 0.61604 0.20978
 C251 C 0.28837 -0.19786 0.42139
 C252 C 0.29786 -0.19866 0.34916
 C253 C 0.31967 -0.17162 0.31027
 N254 N 0.32969 -0.17410 0.24277
 N255 N 0.34895 -0.14991 0.20583
 C256 C 0.35876 -0.12230 0.23482
 N257 N 0.34865 -0.11980 0.30220
 N258 N 0.32943 -0.14401 0.33926
 C259 C 0.38048 -0.09545 0.19524
 C260 C 0.39417 -0.09716 0.13058
 H261 H 0.28978 -0.21928 0.31891
 H262 H 0.38700 -0.07391 0.21981
 H263 H 0.30009 -0.17662 0.44944
 H264 H 0.38843 -0.11875 0.10770
 C265 C 0.79970 0.49587 0.42190
 C266 C 0.80848 0.50505 0.34921
 C267 C 0.83230 0.50202 0.31490
 N268 N 0.83422 0.50100 0.24014
 N269 N 0.85642 0.49928 0.20882
 C270 C 0.87767 0.49893 0.25124
 N271 N 0.87591 0.50026 0.32591
 N272 N 0.85352 0.50158 0.35721
 C273 C 0.90310 0.49876 0.21766
 C274 C 0.90183 0.48717 0.14731
 H275 H 0.79879 0.51559 0.31728
 H276 H 0.92321 0.50739 0.24993
 H277 H 0.80918 0.48405 0.44915
 H278 H 0.88097 0.47560 0.11799
 C279 C 0.47768 0.29255 0.41817
 C280 C 0.46847 0.29048 0.34494
 C281 C 0.46932 0.31604 0.30826
 N282 N 0.47181 0.31866 0.23356
 N283 N 0.47342 0.34228 0.20016
 C284 C 0.47221 0.36387 0.24033
 N285 N 0.46914 0.36095 0.31484
 N286 N 0.46790 0.33753 0.34828
 C287 C 0.47450 0.39024 0.20477
 C288 C 0.48875 0.40048 0.13717
 H289 H 0.46101 0.27018 0.31330
 H290 H 0.46682 0.40316 0.23512
 H291 H 0.48610 0.31375 0.44630
 H292 H 0.49885 0.38910 0.11004
 C293 C 0.70611 0.18992 0.42721
 C294 C 0.69062 0.19303 0.36851
 C295 C 0.66642 0.16698 0.33126
 N296 N 0.65139 0.17083 0.27537
 N297 N 0.62958 0.14738 0.24088
 C298 C 0.62201 0.11922 0.26106
 N299 N 0.63701 0.11538 0.31699
 N300 N 0.65881 0.13882 0.35147
 C301 C 0.59832 0.09312 0.22284
 C302 C 0.58250 0.09596 0.16465
 H303 H 0.69592 0.21502 0.35015
 H304 H 0.59359 0.07119 0.24028
 H305 H 0.69953 0.16774 0.44636
 H306 H 0.58723 0.11792 0.14750
 C307 C 0.48122 0.19698 -0.43242
 C308 C 0.48355 0.19450 -0.35598
 C309 C 0.48159 0.16774 -0.32270
 N310 N 0.48995 0.16856 -0.25135
 N311 N 0.48833 0.14455 -0.22027
 C312 C 0.47808 0.11875 -0.25919
 N313 N 0.46941 0.11780 -0.33035
 N314 N 0.47119 0.14189 -0.36162
 C315 C 0.47646 0.09224 -0.22517
 C316 C 0.49060 0.09434 -0.15837
 H317 H 0.48863 0.21293 -0.31911
 H318 H 0.46476 0.07107 -0.25400
 H319 H 0.47971 0.17896 -0.46616
 H320 H 0.50356 0.11593 -0.13208
 C321 C 0.71326 0.51165 -0.41856
 C322 C 0.70725 0.50636 -0.34285
 C323 C 0.68391 0.51001 -0.30736
 N324 N 0.67320 0.49760 -0.24029
 N325 N 0.65175 0.50038 -0.20810
 C326 C 0.64039 0.51587 -0.24160
 N327 N 0.65138 0.52861 -0.30820
 N328 N 0.67269 0.52566 -0.34060
 C329 C 0.61658 0.51890 -0.20706
 C330 C 0.60058 0.50138 -0.14724
 H331 H 0.71800 0.49742 -0.30911
 H332 H 0.61089 0.53452 -0.23085
 H333 H 0.69852 0.51661 -0.44904
 H334 H 0.60533 0.48471 -0.12605
 C335 C 0.80543 0.28807 -0.42989
 C336 C 0.81039 0.29105 -0.35329
 C337 C 0.83787 0.31448 -0.31945
 N338 N 0.83929 0.31776 -0.24482
 N339 N 0.86385 0.33854 -0.21222
 C340 C 0.88809 0.35675 -0.25290
 N341 N 0.88683 0.35332 -0.32766
 N342 N 0.86215 0.33253 -0.36042
 C343 C 0.91484 0.38058 -0.21684
 C344 C 0.91396 0.38863 -0.14355
 H345 H 0.79352 0.27663 -0.31478
 H346 H 0.93459 0.39343 -0.24964
 H347 H 0.82204 0.30553 -0.46399
 H348 H 0.89342 0.37699 -0.11298
 C349 C 0.52527 -0.18750 -0.41336
 C350 C 0.52394 -0.18626 -0.33601
 C351 C 0.52614 -0.15984 -0.29866
 N352 N 0.51482 -0.16224 -0.22970
 N353 N 0.51536 -0.13885 -0.19707
 C354 C 0.52745 -0.11211 -0.23194
 N355 N 0.53930 -0.10955 -0.30026
 N356 N 0.53855 -0.13299 -0.33311
 C357 C 0.52714 -0.08638 -0.19791
 C358 C 0.50848 -0.08983 -0.13895
 H359 H 0.51857 -0.20536 -0.30192
 H360 H 0.54039 -0.06466 -0.22283
 H361 H 0.52759 -0.16818 -0.44177
 H362 H 0.49400 -0.11191 -0.11714
 C363 C 0.29779 0.49104 -0.42044
 C364 C 0.30380 0.49670 -0.34461
 C365 C 0.33015 0.49830 -0.31076
 N366 N 0.33910 0.51039 -0.24225
 N367 N 0.36276 0.51167 -0.21079
 C368 C 0.37824 0.50077 -0.24668
 N369 N 0.36920 0.48856 -0.31494
 N370 N 0.34568 0.48745 -0.34654
 C371 C 0.40355 0.50064 -0.21197
 C372 C 0.41685 0.51618 -0.14693
 H373 H 0.29039 0.50208 -0.30932
 H374 H 0.41186 0.48753 -0.23869
 H375 H 0.31474 0.49014 -0.45281
 H376 H 0.40994 0.53080 -0.12224
 C377 C 1.18930 0.70473 -0.43264
 C378 C 1.18714 0.69965 -0.35646
 C379 C 1.16037 0.67552 -0.32149
 N380 N 1.16105 0.66917 -0.24904
 N381 N 1.13723 0.64732 -0.21639
 C382 C 1.11168 0.63104 -0.25474
 N383 N 1.11086 0.63757 -0.32711
 N384 N 1.13477 0.65938 -0.35992
 C385 C 1.08551 0.60622 -0.21911
 C386 C 1.08786 0.59550 -0.15036
 H387 H 1.20597 0.71299 -0.32116
 H388 H 1.06473 0.59530 -0.24882
 H389 H 1.17095 0.68955 -0.46711
 H390 H 1.10923 0.60563 -0.12338
 C391 C 0.80322 0.50378 -0.41755
 C392 C 0.80272 0.49717 -0.34222
 C393 C 0.82876 0.49902 -0.30539
 N394 N 0.82592 0.48580 -0.23877
 N395 N 0.84934 0.48724 -0.20537
 C396 C 0.87650 0.50213 -0.23723
 N397 N 0.87936 0.51555 -0.30343
 N398 N 0.85594 0.51396 -0.33699
 C399 C 0.90278 0.50434 -0.20135
 C400 C 0.90120 0.48717 -0.14037
 H401 H 0.78257 0.48850 -0.31034
 H402 H 0.92412 0.51950 -0.22533
 H403 H 0.82322 0.50908 -0.44723
 H404 H 0.87985 0.47089 -0.11843
 C405 C 0.46845 0.28496 -0.42202
 C406 C 0.47370 0.29070 -0.34604
 C407 C 0.47109 0.31474 -0.30900
 N408 N 0.48295 0.32418 -0.24070
 N409 N 0.48238 0.34699 -0.20804
 C410 C 0.46983 0.36122 -0.24223
 N411 N 0.45751 0.35148 -0.31006
 N412 N 0.45821 0.32873 -0.34293
 C413 C 0.47042 0.38742 -0.20778
 C414 C 0.48854 0.40175 -0.14710
 H415 H 0.48317 0.28000 -0.31391
 H416 H 0.45781 0.39648 -0.23284
 H417 H 0.46107 0.29823 -0.45105
 H418 H 0.50211 0.39324 -0.12495
 C419 C 0.71426 0.18928 -0.41189
 C420 C 0.70211 0.19311 -0.34673
 C421 C 0.67841 0.16770 -0.30638
 N422 N 0.66444 0.17252 -0.24905
 N423 N 0.64231 0.14970 -0.21372
 C424 C 0.63338 0.12119 -0.23444
 N425 N 0.64748 0.11639 -0.29139
 N426 N 0.66953 0.13918 -0.32678
 C427 C 0.60875 0.09555 -0.19719
 C428 C 0.59160 0.09851 -0.14204
 H429 H 0.70886 0.21544 -0.32738
 H430 H 0.60364 0.07351 -0.21511
 H431 H 0.70651 0.16695 -0.43245
 H432 H 0.59634 0.12050 -0.12462
 C433 C 1.20274 0.48538 -0.40424
 C434 C 1.18837 0.50183 -0.41026
 C435 C 1.16495 0.49705 -0.35764
 N436 N 1.16049 0.51981 -0.33808
 N437 N 1.13942 0.51544 -0.28961
 C438 C 1.12190 0.48808 -0.25975
 N439 N 1.12609 0.46527 -0.28023
 N440 N 1.14738 0.46972 -0.32782
 C441 C 1.09779 0.48252 -0.20882
 C442 C 1.09827 0.50492 -0.16501
 H443 H 1.19576 0.51975 -0.44999
 H444 H 1.07938 0.45995 -0.20466
 H445 H 1.19906 0.47296 -0.35331
 H446 H 1.11784 0.52682 -0.16361
 C447 C 0.51237 0.71073 -0.42635
 C448 C 0.52848 0.71284 -0.36272
 C449 C 0.52680 0.68663 -0.32678
 N450 N 0.53448 0.68819 -0.25450
 N451 N 0.53385 0.66498 -0.22137
 C452 C 0.52596 0.63946 -0.25965
 N453 N 0.51862 0.63799 -0.33223
 N454 N 0.51887 0.66110 -0.36514
 C455 C 0.52559 0.61386 -0.22355
 C456 C 0.52094 0.60921 -0.14764
 H457 H 0.54312 0.73437 -0.33812
 H458 H 0.52713 0.59744 -0.25769
 H459 H 0.49738 0.68881 -0.44852
 H460 H 0.51594 0.62376 -0.11513
 C461 C 0.27719 -0.19285 -0.42128
 C462 C 0.29023 -0.19444 -0.35561
 C463 C 0.31304 -0.16772 -0.31720
 N464 N 0.32769 -0.17074 -0.25909
 N465 N 0.34941 -0.14684 -0.22582
 C466 C 0.35730 -0.11899 -0.24942
 N467 N 0.34246 -0.11594 -0.30714
 N468 N 0.32077 -0.13987 -0.34056
 C469 C 0.38173 -0.09245 -0.21412
 C470 C 0.39917 -0.09482 -0.15936
 H471 H 0.28525 -0.21604 -0.33483
 H472 H 0.38633 -0.07067 -0.23248
 H473 H 0.28268 -0.17131 -0.44335
 H474 H 0.39468 -0.11667 -0.14197
 C475 C 0.52153 -0.18590 0.42533
 C476 C 0.50265 -0.18826 0.36809
 C477 C 0.50677 -0.16227 0.32616
 N478 N 0.48855 -0.16612 0.26868
 N479 N 0.49185 -0.14282 0.23017
 C480 C 0.51351 -0.11479 0.24772
 N481 N 0.53175 -0.11091 0.30525
 N482 N 0.52848 -0.13424 0.34371
 C483 C 0.51678 -0.08886 0.20682
 C484 C 0.49874 -0.09219 0.14669
 H485 H 0.48410 -0.20986 0.35367
 H486 H 0.53307 -0.06680 0.22578
 H487 H 0.53972 -0.16416 0.44016
 H488 H 0.48270 -0.11433 0.12757
 C489 C 0.29407 0.48758 0.41836
 C490 C 0.30937 0.50608 0.35918
 C491 C 0.33247 0.50302 0.31980
 N492 N 0.34926 0.52301 0.26718
 N493 N 0.37067 0.52073 0.23285
 C494 C 0.37608 0.49838 0.24994
 N495 N 0.35921 0.47836 0.30224
 N496 N 0.33787 0.48066 0.33656
 C497 C 0.39961 0.49540 0.21303
 C498 C 0.41828 0.51563 0.16028
 H499 H 0.30542 0.52398 0.34406
 H500 H 0.40217 0.47658 0.22777
 H501 H 0.29885 0.47030 0.43413
 H502 H 0.41578 0.53450 0.14564
 C503 C 1.20496 0.69959 0.41243
 C504 C 1.17860 0.69456 0.38139
 C505 C 1.16234 0.67113 0.32623
 N506 N 1.13685 0.66774 0.29824
 N507 N 1.12160 0.64664 0.24832
 C508 C 1.13127 0.62815 0.22410
 N509 N 1.15699 0.63170 0.25152
 N510 N 1.17229 0.65286 0.30169
 C511 C 1.11325 0.60367 0.17229
 C512 C 1.08426 0.59640 0.15814
 H513 H 1.17002 0.70906 0.39656
 H514 H 1.12175 0.58991 0.15055
 H515 H 1.21482 0.68649 0.39499
 H516 H 1.07561 0.60930 0.18434
 C517 C 0.49263 0.20553 0.40852
 C518 C 0.47831 0.19311 0.34178
 C519 C 0.48516 0.17378 0.29613
 N520 N 0.46503 0.15500 0.24626
 N521 N 0.47051 0.13689 0.20526
 C522 C 0.49652 0.13717 0.21182
 N523 N 0.51695 0.15637 0.26072
 N524 N 0.51132 0.17428 0.30241
 C525 C 0.50196 0.11616 0.16887
 C526 C 0.47836 0.08873 0.14728
 H527 H 0.46023 0.19627 0.32456
 H528 H 0.52444 0.12103 0.15986
 H529 H 0.50892 0.20027 0.42917
 H530 H 0.45621 0.08284 0.16437
 C531 C 0.71517 0.51460 0.41952
 C532 C 0.70017 0.49751 0.35766
 C533 C 0.67923 0.50294 0.31547
 N534 N 0.66381 0.48474 0.25819
 N535 N 0.64443 0.48914 0.22048
 C536 C 0.63979 0.51195 0.23863
 N537 N 0.65531 0.53021 0.29567
 N538 N 0.67464 0.52579 0.33338
 C539 C 0.61801 0.51686 0.19902
 C540 C 0.60023 0.49814 0.14231
 H541 H 0.70313 0.47905 0.34110
 H542 H 0.61537 0.53539 0.21672
 H543 H 0.71154 0.53257 0.43654
 H544 H 0.60272 0.47949 0.12477
 C545 C 0.79381 0.29059 0.41045
 C546 C 0.82158 0.29624 0.38751
 C547 C 0.83883 0.31851 0.33044
 N548 N 0.86534 0.32229 0.30892
 N549 N 0.88126 0.34222 0.25734
 C550 C 0.87127 0.35914 0.22496
 N551 N 0.84467 0.35529 0.24627
 N552 N 0.82871 0.33532 0.29794
 C553 C 0.88953 0.38225 0.17030
 C554 C 0.91815 0.38856 0.15402
 H555 H 0.83058 0.28321 0.41067
 H556 H 0.88129 0.39597 0.14728
 H557 H 0.78378 0.30211 0.38426
 H558 H 0.92650 0.37542 0.17985
   
