data_POSCAR
  _audit_creation_date              2014-09-24
  _audit_creation_method            'ToBaCCo'
  _symmetry_space_group_name_H-M    'P1'
  _symmetry_Int_Tables_number       1
  _symmetry_cell_setting            triclinic
  loop_
  _symmetry_equiv_pos_as_xyz
 x,y,z
_cell_length_a 25.4609
_cell_length_b 25.6124
_cell_length_c 46.6477
_cell_angle_alpha 90.147200
_cell_angle_beta 89.934500
_cell_angle_gamma 119.073200
loop_
  _atom_site_label
  _atom_site_type_symbol
  _atom_site_fract_x
  _atom_site_fract_y
  _atom_site_fract_z
Zn1 Zn 0.95645 0.03697 1.01057
 Zn2 Zn 1.07415 0.03909 1.01462
 Zn3 Zn 0.95964 -0.07840 1.01183
 Zn4 Zn 1.00393 0.00197 0.96052
 O5 O 0.99850 -0.00036 0.99945
 O6 O 0.99867 0.09957 1.03331
 O7 O 1.09000 -0.00800 1.03684
 O8 O 0.89263 -0.09607 1.03227
 O9 O 1.08615 0.10155 1.03653
 O10 O 0.89105 -0.01056 1.03050
 O11 O 1.00657 -0.09523 1.03492
 O12 O 0.97025 -0.07067 0.94502
 O13 O 1.13234 0.06791 0.98799
 O14 O 0.93637 -0.13118 0.98243
 O15 O 1.07954 0.03938 0.94795
 O16 O 0.96887 0.04020 0.94407
 O17 O 0.93244 0.06532 0.98136
 C18 C 1.05185 0.12286 1.04293
 C19 C 1.05996 -0.06254 1.04398
 C20 C 0.86848 -0.06428 1.03881
 C21 C 0.94346 -0.12291 0.95550
 C22 C 1.12967 0.06548 0.96082
 C23 C 0.94068 0.06519 0.95456
 Zn24 Zn 0.03895 0.96041 0.51280
 Zn25 Zn -0.07780 0.96344 0.51309
 Zn26 Zn 0.03774 1.07676 0.51265
 Zn27 Zn -0.00094 1.00070 0.46078
 O28 O -0.00049 1.00002 0.49986
 O29 O -0.00897 0.89619 0.53452
 O30 O -0.09390 1.01037 0.53604
 O31 O 0.10242 1.09319 0.53309
 O32 O -0.09456 0.89893 0.53398
 O33 O 0.10411 1.00774 0.53453
 O34 O -0.00739 1.09425 0.53549
 O35 O 0.03599 1.07448 0.44586
 O36 O -0.13248 0.93908 0.48485
 O37 O 0.06273 1.13086 0.48473
 O38 O -0.07528 0.96537 0.44610
 O39 O 0.03642 0.96360 0.44580
 O40 O 0.06637 0.93331 0.48373
 C41 C -0.06372 0.87475 0.54195
 C42 C -0.06110 1.06402 0.54414
 C43 C 0.12646 1.06261 0.54135
 C44 C 0.06041 1.12556 0.45769
 C45 C -0.12682 0.94194 0.45776
 C46 C 0.06320 0.93759 0.45669
 O47 O 0.24855 0.55574 0.27586
 O48 O 0.24879 0.65619 0.28595
 C49 C 0.27576 0.71201 0.29072
 O50 O 0.31896 0.74915 0.27518
 O51 O 0.42171 0.74975 0.28042
 C52 C 0.45195 0.72298 0.28427
 O53 O 0.44192 0.67627 0.27042
 O54 O 0.34366 0.57756 0.28257
 C55 C 0.28832 0.54822 0.28875
 O56 O 0.24324 0.57286 0.21916
 O57 O 0.23743 0.67018 0.22949
 C58 C 0.27125 0.71498 0.21413
 O59 O 0.32777 0.74400 0.21750
 O60 O 0.43243 0.74872 0.22270
 C61 C 0.44085 0.71089 0.20845
 O62 O 0.41481 0.65578 0.21449
 O63 O 0.31969 0.55520 0.22634
 C64 C 0.27259 0.54612 0.21292
 Cr65 Cr 0.24778 0.61545 0.25254
 Cr66 Cr 0.37363 0.74464 0.24899
 Cr67 Cr 0.37827 0.61785 0.24855
 O68 O 0.33330 0.65942 0.25009
 O69 O 0.75412 0.44099 0.77302
 O70 O 0.75128 0.34046 0.78543
 C71 C 0.72188 0.28609 0.79266
 O72 O 0.67507 0.24844 0.77952
 O73 O 0.57831 0.25724 0.78592
 C74 C 0.54972 0.28598 0.78818
 O75 O 0.55859 0.32865 0.77145
 O76 O 0.66090 0.42649 0.77932
 C77 C 0.71637 0.45221 0.78575
 O78 O 0.75346 0.41564 0.71663
 O79 O 0.75295 0.31627 0.72905
 C80 C 0.71461 0.26866 0.71649
 O81 O 0.65904 0.24247 0.72246
 O82 O 0.55895 0.24526 0.72890
 C83 C 0.55232 0.28005 0.71173
 O84 O 0.58068 0.33648 0.71454
 O85 O 0.67991 0.43799 0.72227
 C86 C 0.72687 0.44449 0.70954
 Cr87 Cr 0.74960 0.37678 0.75101
 Cr88 Cr 0.61956 0.25167 0.75407
 Cr89 Cr 0.62167 0.38074 0.74702
 O90 O 0.66382 0.33648 0.75068
 C91 C 0.03599 0.19899 0.06967
 C92 C 0.05622 0.24797 0.08815
 C93 C 0.11479 0.27494 0.09920
 C94 C 0.15262 0.25125 0.09172
 C95 C 0.13238 0.20222 0.07326
 C96 C 0.07384 0.17551 0.06205
 C97 C 0.13360 0.32546 0.11951
 C98 C 0.19121 0.36614 0.12400
 C99 C 0.21072 0.41361 0.14603
 C100 C 0.26848 0.43608 0.15760
 C101 C 0.28842 0.47922 0.17917
 C102 C 0.25126 0.50155 0.18946
 C103 C 0.19402 0.48053 0.17726
 C104 C 0.17385 0.43688 0.15575
 H105 H -0.00949 0.17930 0.06151
 H106 H 0.02600 0.26492 0.09381
 H107 H 0.19731 0.26923 0.10059
 H108 H 0.16242 0.18482 0.06804
 H109 H 0.09844 0.32839 0.13125
 H110 H 0.22626 0.36330 0.11212
 H111 H 0.29794 0.41934 0.15029
 H112 H 0.33307 0.49496 0.18783
 H113 H 0.16461 0.49733 0.18454
 H114 H 0.12975 0.42204 0.14667
 C115 C 0.79125 0.94848 0.06640
 C116 C 0.74218 0.92717 0.08495
 C117 C 0.71391 0.86779 0.09434
 C118 C 0.73590 0.82981 0.08475
 C119 C 0.78548 0.85132 0.06627
 C120 C 0.81393 0.91105 0.05704
 C121 C 0.66439 0.84876 0.11543
 C122 C 0.62100 0.79200 0.11878
 C123 C 0.57300 0.77268 0.14084
 C124 C 0.54208 0.71213 0.14847
 C125 C 0.49842 0.69197 0.16997
 C126 C 0.48437 0.73195 0.18437
 C127 C 0.51379 0.79226 0.17610
 C128 C 0.55738 0.81242 0.15449
 H129 H 0.81212 0.99481 0.05985
 H130 H 0.72643 0.95743 0.09215
 H131 H 0.71636 0.78418 0.09215
 H132 H 0.80212 0.82150 0.05961
 H133 H 0.66441 0.88363 0.12853
 H134 H 0.62132 0.75752 0.10543
 H135 H 0.55260 0.68038 0.13816
 H136 H 0.47645 0.64510 0.17564
 H137 H 0.50349 0.82408 0.18648
 H138 H 0.57820 0.85902 0.14862
 C139 C 0.14786 0.94855 0.07265
 C140 C 0.17491 0.92621 0.09132
 C141 C 0.14353 0.86715 0.10122
 C142 C 0.08379 0.83073 0.09194
 C143 C 0.05663 0.85319 0.07316
 C144 C 0.08833 0.91244 0.06337
 C145 C 0.17467 0.84700 0.12177
 C146 C 0.15536 0.78991 0.12915
 C147 C 0.18688 0.77178 0.15040
 C148 C 0.15345 0.71841 0.16557
 C149 C 0.18089 0.70002 0.18612
 C150 C 0.24279 0.73428 0.19181
 C151 C 0.27669 0.78703 0.17610
 C152 C 0.24912 0.80558 0.15560
 H153 H 0.17374 0.99444 0.06559
 H154 H 0.22077 0.95545 0.09812
 H155 H 0.05718 0.78538 0.09941
 H156 H 0.01060 0.82432 0.06656
 H157 H 0.21553 0.88158 0.13137
 H158 H 0.11403 0.75480 0.12027
 H159 H 0.10564 0.69120 0.16179
 H160 H 0.15340 0.65887 0.19760
 H161 H 0.32454 0.81416 0.17972
 H162 H 0.27694 0.84589 0.14366
 C163 C 0.84871 0.80111 0.57083
 C164 C 0.82170 0.75241 0.58937
 C165 C 0.85221 0.72197 0.59806
 C166 C 0.91094 0.74164 0.58779
 C167 C 0.93824 0.79084 0.56929
 C168 C 0.90746 0.82128 0.56069
 C169 C 0.82198 0.67234 0.61889
 C170 C 0.83574 0.62840 0.62260
 C171 C 0.80535 0.57969 0.64399
 C172 C 0.83476 0.54846 0.65326
 C173 C 0.80885 0.50378 0.67408
 C174 C 0.75263 0.48902 0.68608
 C175 C 0.72223 0.51885 0.67611
 C176 C 0.74801 0.56334 0.65522
 H177 H 0.82363 0.82349 0.56478
 H178 H 0.77664 0.73853 0.59705
 H179 H 0.93664 0.72045 0.59454
 H180 H 0.98367 0.80544 0.56200
 H181 H 0.78649 0.67256 0.63155
 H182 H 0.87153 0.62840 0.61008
 H183 H 0.87855 0.55949 0.64476
 H184 H 0.83347 0.48157 0.68114
 H185 H 0.67848 0.50805 0.68457
 H186 H 0.72241 0.58423 0.64792
 C187 C 0.20565 0.15356 0.56594
 C188 C 0.25552 0.18222 0.58383
 C189 C 0.28262 0.15092 0.59563
 C190 C 0.25851 0.08973 0.58904
 C191 C 0.20828 0.06087 0.57105
 C192 C 0.18107 0.09244 0.55946
 C193 C 0.33350 0.18350 0.61575
 C194 C 0.37259 0.16508 0.62331
 C195 C 0.42059 0.19686 0.64487
 C196 C 0.44062 0.16373 0.66086
 C197 C 0.48370 0.19101 0.68231
 C198 C 0.50847 0.25247 0.68807
 C199 C 0.49013 0.28627 0.67134
 C200 C 0.44662 0.25879 0.64993
 H201 H 0.18597 0.17943 0.55741
 H202 H 0.27283 0.22918 0.58861
 H203 H 0.27692 0.06340 0.59824
 H204 H 0.19019 0.01369 0.56662
 H205 H 0.33816 0.22441 0.62490
 H206 H 0.36806 0.12390 0.61463
 H207 H 0.42188 0.11619 0.65718
 H208 H 0.49733 0.16368 0.69451
 H209 H 0.50884 0.33378 0.67501
 H210 H 0.43391 0.28627 0.63733
 C211 C 0.95301 0.14963 0.57510
 C212 C 0.93176 0.17563 0.59500
 C213 C 0.87197 0.14510 0.60438
 C214 C 0.83369 0.08741 0.59360
 C215 C 0.85508 0.06118 0.57374
 C216 C 0.91503 0.09200 0.56434
 C217 C 0.85250 0.17408 0.62625
 C218 C 0.79529 0.16152 0.62979
 C219 C 0.77615 0.19057 0.65187
 C220 C 0.71587 0.16154 0.66063
 C221 C 0.69585 0.18686 0.68156
 C222 C 0.73575 0.24210 0.69412
 C223 C 0.79589 0.27178 0.68497
 C224 C 0.81585 0.24654 0.66397
 H225 H 0.99954 0.17454 0.56843
 H226 H 0.96224 0.21989 0.60312
 H227 H 0.78780 0.06170 0.60096
 H228 H 0.82488 0.01653 0.56602
 H229 H 0.88738 0.20754 0.63958
 H230 H 0.76052 0.12793 0.61643
 H231 H 0.68422 0.11874 0.65146
 H232 H 0.64911 0.16290 0.68798
 H233 H 0.82757 0.31482 0.69389
 H234 H 0.86210 0.27168 0.65709
 C235 C 0.24220 0.11621 0.95689
 C236 C 0.29476 0.14248 0.94043
 C237 C 0.29186 0.14766 0.91061
 C238 C 0.23527 0.12464 0.89741
 C239 C 0.18283 0.09802 0.91378
 C240 C 0.18565 0.09366 0.94371
 C241 C 0.34801 0.17464 0.89360
 C242 C 0.35331 0.20346 0.86890
 C243 C 0.40712 0.22719 0.85029
 C244 C 0.41684 0.27245 0.83069
 C245 C 0.46418 0.29278 0.81109
 C246 C 0.50247 0.26764 0.81041
 C247 C 0.49333 0.22290 0.83035
 C248 C 0.44614 0.20280 0.85007
 H249 H 0.24583 0.11317 0.97988
 H250 H 0.33783 0.15923 0.95103
 H251 H 0.23120 0.12598 0.87437
 H252 H 0.14000 0.08075 0.90292
 H253 H 0.38617 0.17205 0.90217
 H254 H 0.31695 0.21107 0.86206
 H255 H 0.38716 0.29164 0.83029
 H256 H 0.46982 0.32721 0.79601
 H257 H 0.52189 0.20246 0.83034
 H258 H 0.43916 0.16673 0.86431
 C259 C 0.94050 0.83442 0.90696
 C260 C 0.91931 0.78666 0.88775
 C261 C 0.87707 0.72896 0.89645
 C262 C 0.85741 0.71957 0.92515
 C263 C 0.87928 0.76746 0.94457
 C264 C 0.92073 0.82550 0.93558
 C265 C 0.85628 0.68001 0.87509
 C266 C 0.80216 0.63089 0.87591
 C267 C 0.78111 0.58470 0.85306
 C268 C 0.71941 0.55149 0.84714
 C269 C 0.69828 0.50871 0.82521
 C270 C 0.73848 0.49770 0.80895
 C271 C 0.80016 0.53003 0.81538
 C272 C 0.82124 0.57292 0.83719
 H273 H 0.97277 0.87844 0.89936
 H274 H 0.93556 0.79500 0.86585
 H275 H 0.82601 0.67531 0.93276
 H276 H 0.86344 0.75916 0.96651
 H277 H 0.88525 0.68717 0.85681
 H278 H 0.77056 0.62632 0.89258
 H279 H 0.68753 0.55931 0.85923
 H280 H 0.65043 0.48423 0.82105
 H281 H 0.83235 0.52224 0.80356
 H282 H 0.86890 0.59618 0.84177
 C283 C 0.93684 0.10659 0.90651
 C284 C 0.91774 0.13771 0.88860
 C285 C 0.87889 0.15781 0.89889
 C286 C 0.86025 0.14717 0.92769
 C287 C 0.87985 0.11657 0.94570
 C288 C 0.91826 0.09583 0.93529
 C289 C 0.85975 0.19059 0.87921
 C290 C 0.80649 0.18893 0.88140
 C291 C 0.78552 0.21701 0.85993
 C292 C 0.72436 0.18870 0.85282
 C293 C 0.70357 0.21179 0.83128
 C294 C 0.74341 0.26452 0.81688
 C295 C 0.80422 0.29454 0.82498
 C296 C 0.82521 0.27082 0.84622
 H297 H 0.96687 0.09169 0.89791
 H298 H 0.93300 0.14572 0.86655
 H299 H 0.83156 0.16343 0.93651
 H300 H 0.86513 0.10940 0.96783
 H301 H 0.88847 0.21285 0.86104
 H302 H 0.77485 0.16147 0.89771
 H303 H 0.69290 0.14755 0.86333
 H304 H 0.65632 0.18806 0.82570
 H305 H 0.83585 0.33538 0.81431
 H306 H 0.87240 0.29448 0.85183
 C307 C 0.76166 0.89818 0.45144
 C308 C 0.71071 0.87651 0.43394
 C309 C 0.71576 0.87342 0.40411
 C310 C 0.77310 0.89402 0.39200
 C311 C 0.82402 0.91601 0.40944
 C312 C 0.81891 0.91807 0.43938
 C313 C 0.66090 0.84966 0.38613
 C314 C 0.65584 0.82104 0.36133
 C315 C 0.60146 0.79557 0.34302
 C316 C 0.59134 0.74827 0.32462
 C317 C 0.54224 0.72421 0.30605
 C318 C 0.50235 0.74750 0.30508
 C319 C 0.51237 0.79500 0.32352
 C320 C 0.56143 0.81879 0.34238
 H321 H 0.75622 0.89964 0.47441
 H322 H 0.66712 0.86146 0.44374
 H323 H 0.77897 0.89415 0.36901
 H324 H 0.86748 0.93153 0.39943
 H325 H 0.62279 0.85277 0.39444
 H326 H 0.69200 0.81289 0.35468
 H327 H 0.62170 0.72986 0.32455
 H328 H 0.53619 0.68787 0.29207
 H329 H 0.48265 0.81412 0.32321
 H330 H 0.56870 0.85626 0.35578
 C331 C 0.09754 0.23491 0.45155
 C332 C 0.12214 0.28641 0.43471
 C333 C 0.13781 0.28432 0.40609
 C334 C 0.12700 0.22939 0.39429
 C335 C 0.10139 0.17761 0.41098
 C336 C 0.08673 0.17995 0.43983
 C337 C 0.16259 0.33932 0.38870
 C338 C 0.20301 0.35097 0.36787
 C339 C 0.22592 0.40466 0.34957
 C340 C 0.28370 0.42846 0.33776
 C341 C 0.30507 0.47679 0.31887
 C342 C 0.26843 0.50136 0.31096
 C343 C 0.21080 0.47791 0.32305
 C344 C 0.18978 0.43016 0.34220
 H345 H 0.08627 0.23796 0.47366
 H346 H 0.12947 0.32814 0.44413
 H347 H 0.13714 0.22611 0.37203
 H348 H 0.09341 0.13584 0.40138
 H349 H 0.14889 0.37211 0.39408
 H350 H 0.22133 0.32108 0.36455
 H351 H 0.31213 0.40921 0.34296
 H352 H 0.34948 0.49357 0.30972
 H353 H 0.18146 0.49579 0.31730
 H354 H 0.14444 0.41194 0.35035
 C355 C 0.09653 0.92641 0.40773
 C356 C 0.12490 0.90531 0.38910
 C357 C 0.14871 0.86968 0.39922
 C358 C 0.14426 0.85611 0.42867
 C359 C 0.11624 0.87779 0.44747
 C360 C 0.09198 0.91313 0.43716
 C361 C 0.17923 0.84951 0.37842
 C362 C 0.18411 0.80003 0.38166
 C363 C 0.21055 0.77875 0.35918
 C364 C 0.18913 0.71721 0.35601
 C365 C 0.21072 0.69550 0.33401
 C366 C 0.25493 0.73504 0.31492
 C367 C 0.27806 0.79683 0.31883
 C368 C 0.25619 0.81847 0.34071
 H369 H 0.07876 0.95383 0.39905
 H370 H 0.12803 0.91673 0.36658
 H371 H 0.16342 0.82995 0.43735
 H372 H 0.11380 0.86711 0.47004
 H373 H 0.19437 0.87439 0.35860
 H374 H 0.16378 0.77154 0.40006
 H375 H 0.15447 0.68574 0.37015
 H376 H 0.19230 0.64766 0.33181
 H377 H 0.31258 0.82859 0.30474
 H378 H 0.27524 0.86630 0.34313
   
