data_POSCAR
  _audit_creation_date              2014-09-24
  _audit_creation_method            'ToBaCCo'
  _symmetry_space_group_name_H-M    'P1'
  _symmetry_Int_Tables_number       1
  _symmetry_cell_setting            triclinic
  loop_
  _symmetry_equiv_pos_as_xyz
 x,y,z
_cell_length_a 35.8913
_cell_length_b 50.1017
_cell_length_c 32.6526
_cell_angle_alpha 90.057700
_cell_angle_beta 90.600300
_cell_angle_gamma 90.407300
loop_
  _atom_site_label
  _atom_site_type_symbol
  _atom_site_fract_x
  _atom_site_fract_y
  _atom_site_fract_z
O1 O 0.19043 0.21837 0.27142
 O2 O 0.23915 0.27030 0.33174
 O3 O 0.18464 0.26988 0.27910
 O4 O 0.24557 0.21877 0.32465
 O5 O 0.28578 0.22465 0.27473
 O6 O 0.22463 0.27542 0.22881
 O7 O 0.27897 0.27614 0.28135
 O8 O 0.23073 0.22379 0.22141
 Cu9 Cu 0.21094 0.24361 0.30675
 Cu10 Cu 0.25905 0.25041 0.24648
 C11 C 0.20211 0.21237 0.23606
 C12 C 0.26707 0.28229 0.31660
 C13 C 0.19448 0.28156 0.24644
 C14 C 0.27630 0.21322 0.30774
 O15 O 0.78626 0.26480 0.21966
 O16 O 0.73180 0.21303 0.27348
 O17 O 0.78001 0.21310 0.21448
 O18 O 0.74021 0.26450 0.28081
 O19 O 0.69411 0.27036 0.23646
 O20 O 0.73343 0.21789 0.17044
 O21 O 0.68536 0.21877 0.22958
 O22 O 0.74000 0.26951 0.17516
 Cu23 Cu 0.76421 0.23833 0.25156
 Cu24 Cu 0.70854 0.24468 0.19854
 C25 C 0.77232 0.27585 0.18804
 C26 C 0.69920 0.20710 0.26059
 C27 C 0.76360 0.20667 0.18125
 C28 C 0.71058 0.27628 0.26997
 O29 O 0.72506 0.77617 0.72783
 O30 O 0.78654 0.72564 0.77382
 O31 O 0.73123 0.72453 0.72083
 O32 O 0.77963 0.77714 0.78002
 O33 O 0.74011 0.77146 0.83070
 O34 O 0.69119 0.71925 0.77112
 O35 O 0.74658 0.71990 0.82406
 O36 O 0.68532 0.77078 0.77841
 Cu37 Cu 0.75961 0.75126 0.74551
 Cu38 Cu 0.71182 0.74464 0.80612
 C39 C 0.69499 0.78235 0.74559
 C40 C 0.77720 0.71434 0.80697
 C41 C 0.70270 0.71314 0.73573
 C42 C 0.76792 0.78347 0.81531
 O43 O 0.23113 0.71412 0.77320
 O44 O 0.28599 0.76566 0.71932
 O45 O 0.23974 0.76561 0.78029
 O46 O 0.27952 0.71397 0.71438
 O47 O 0.23309 0.71877 0.67016
 O48 O 0.19388 0.77152 0.73571
 O49 O 0.23991 0.77036 0.67459
 O50 O 0.18482 0.71991 0.72910
 Cu51 Cu 0.26371 0.73931 0.75127
 Cu52 Cu 0.20824 0.74568 0.69801
 C53 C 0.19856 0.70828 0.76018
 C54 C 0.27221 0.77665 0.68757
 C55 C 0.21024 0.77751 0.76928
 C56 C 0.26319 0.70751 0.68112
 C57 C 0.99784 0.00542 -0.02365
 C58 C 1.03576 0.00520 -0.02623
 C59 C 1.05963 0.02599 -0.00636
 C60 C 1.05506 -0.01630 -0.04887
 C61 C 0.97444 -0.01442 -0.04609
 C62 C 0.97783 0.02486 0.00228
 C63 C 1.05257 0.05330 -0.01203
 C64 C 1.07409 0.07253 0.00856
 C65 C 1.10349 0.06478 0.03466
 C66 C 1.11170 0.03757 0.03861
 C67 C 1.08988 0.01834 0.01846
 C68 C 1.07738 -0.00991 -0.08249
 C69 C 1.09326 -0.03016 -0.10591
 C70 C 1.08760 -0.05711 -0.09574
 C71 C 1.06591 -0.06342 -0.06135
 C72 C 1.05006 -0.04316 -0.03798
 C73 C 0.95089 -0.03158 -0.02429
 C74 C 0.93063 -0.05157 -0.04465
 C75 C 0.93317 -0.05449 -0.08745
 C76 C 0.95617 -0.03682 -0.10923
 C77 C 0.97642 -0.01685 -0.08882
 C78 C 0.98600 0.02733 0.04424
 C79 C 0.96703 0.04587 0.06813
 C80 C 0.93919 0.06199 0.05071
 C81 C 0.93099 0.05935 0.00863
 C82 C 0.94994 0.04080 -0.01520
 H83 H 1.03022 0.05972 -0.03218
 H84 H 1.06790 0.09341 0.00368
 H85 H 1.13451 0.03115 0.05814
 H86 H 1.09615 -0.00257 0.02290
 H87 H 1.08157 0.01072 -0.09130
 H88 H 1.10972 -0.02476 -0.13229
 H89 H 1.03310 -0.04844 -0.01193
 H90 H 0.94916 -0.03004 0.00872
 H91 H 0.91410 -0.06502 -0.02636
 H92 H 0.95871 -0.03860 -0.14215
 H93 H 0.99415 -0.00357 -0.10622
 H94 H 1.00709 0.01494 0.05843
 H95 H 0.97401 0.04756 0.10039
 H96 H 0.91061 0.07188 -0.00635
 H97 H 0.94333 0.03920 -0.04756
 H98 H 1.06009 -0.08389 -0.05302
 C99 C 0.49751 0.50609 0.47680
 C100 C 0.53543 0.50584 0.47417
 C101 C 0.55934 0.52661 0.49402
 C102 C 0.55469 0.48431 0.45155
 C103 C 0.47403 0.48623 0.45451
 C104 C 0.47757 0.52559 0.50270
 C105 C 0.55234 0.55393 0.48836
 C106 C 0.57391 0.57314 0.50894
 C107 C 0.60331 0.56535 0.53503
 C108 C 0.61145 0.53813 0.53898
 C109 C 0.58958 0.51893 0.51884
 C110 C 0.57721 0.49068 0.41809
 C111 C 0.59319 0.47042 0.39478
 C112 C 0.58741 0.44347 0.40488
 C113 C 0.56547 0.43718 0.43909
 C114 C 0.54955 0.45744 0.46237
 C115 C 0.45044 0.46918 0.47647
 C116 C 0.43005 0.44919 0.45629
 C117 C 0.43249 0.44614 0.41350
 C118 C 0.45553 0.46370 0.39156
 C119 C 0.47593 0.48367 0.41180
 C120 C 0.48573 0.52807 0.54466
 C121 C 0.46677 0.54663 0.56853
 C122 C 0.43896 0.56275 0.55109
 C123 C 0.43077 0.56011 0.50901
 C124 C 0.44970 0.54154 0.48520
 H125 H 0.53000 0.56038 0.46822
 H126 H 0.56777 0.59402 0.50407
 H127 H 0.63426 0.53168 0.55849
 H128 H 0.59581 0.49800 0.52328
 H129 H 0.58152 0.51131 0.40934
 H130 H 0.60984 0.47581 0.36853
 H131 H 0.53246 0.45218 0.48833
 H132 H 0.44876 0.47082 0.50948
 H133 H 0.41348 0.43584 0.47472
 H134 H 0.45800 0.46183 0.35865
 H135 H 0.49369 0.49686 0.39428
 H136 H 0.50679 0.51567 0.55887
 H137 H 0.47375 0.54833 0.60079
 H138 H 0.41040 0.57264 0.49401
 H139 H 0.44309 0.53993 0.45284
 H140 H 0.55954 0.41671 0.44737
 C141 C 0.02034 0.50564 0.02430
 C142 C -0.01755 0.50377 0.02589
 C143 C -0.03611 0.48082 0.04619
 C144 C -0.04246 0.52420 0.00740
 C145 C 0.03966 0.52730 0.00172
 C146 C 0.04459 0.48549 0.04440
 C147 C -0.03024 0.45458 0.03275
 C148 C -0.04681 0.43308 0.05307
 C149 C -0.06992 0.43754 0.08694
 C150 C -0.07592 0.46384 0.10003
 C151 C -0.05945 0.48531 0.07961
 C152 C -0.07187 0.51603 -0.01847
 C153 C -0.09582 0.53477 -0.03592
 C154 C -0.09070 0.56210 -0.02819
 C155 C -0.06170 0.57032 -0.00161
 C156 C -0.03797 0.55149 0.01627
 C157 C 0.06650 0.54302 0.02208
 C158 C 0.08550 0.56318 0.00126
 C159 C 0.07850 0.56779 -0.04051
 C160 C 0.05147 0.55200 -0.06094
 C161 C 0.03243 0.53182 -0.04002
 C162 C 0.04175 0.48003 0.08643
 C163 C 0.06323 0.45993 0.10435
 C164 C 0.08817 0.44510 0.08052
 C165 C 0.09217 0.45149 0.03896
 C166 C 0.07052 0.47146 0.02103
 H167 H -0.01245 0.45076 0.00683
 H168 H -0.04079 0.41308 0.04269
 H169 H -0.09347 0.46780 0.12610
 H170 H -0.06430 0.50544 0.09036
 H171 H -0.07614 0.49508 -0.02542
 H172 H -0.11820 0.52793 -0.05593
 H173 H -0.01627 0.55821 0.03722
 H174 H 0.07258 0.53977 0.05425
 H175 H 0.10601 0.57508 0.01779
 H176 H 0.04448 0.55527 -0.09280
 H177 H 0.01209 0.51969 -0.05639
 H178 H 0.02264 0.49118 0.10523
 H179 H 0.06045 0.45626 0.13681
 H180 H 0.11153 0.44061 0.02009
 H181 H 0.07339 0.47557 -0.01136
 H182 H -0.05776 0.59116 0.00611
 C183 C 0.52032 1.00609 0.52315
 C184 C 0.48244 1.00419 0.52467
 C185 C 0.46391 0.98124 0.54504
 C186 C 0.45750 1.02456 0.50610
 C187 C 0.53965 1.02778 0.50063
 C188 C 0.54458 0.98597 0.54328
 C189 C 0.46983 0.95499 0.53169
 C190 C 0.45332 0.93351 0.55211
 C191 C 0.43021 0.93800 0.58597
 C192 C 0.42415 0.96431 0.59895
 C193 C 0.44056 0.98576 0.57845
 C194 C 0.42807 1.01632 0.48030
 C195 C 0.40400 1.03500 0.46289
 C196 C 0.40902 1.06234 0.47059
 C197 C 0.43806 1.07064 0.49705
 C198 C 0.46190 1.05187 0.51490
 C199 C 0.56639 1.04353 0.52109
 C200 C 0.58547 1.06366 0.50032
 C201 C 0.57868 1.06820 0.45850
 C202 C 0.55173 1.05240 0.43796
 C203 C 0.53258 1.03225 0.45884
 C204 C 0.54175 0.98053 0.58531
 C205 C 0.56326 0.96044 0.60325
 C206 C 0.58820 0.94561 0.57944
 C207 C 0.59218 0.95198 0.53787
 C208 C 0.57052 0.97193 0.51992
 H209 H 0.48762 0.95115 0.50579
 H210 H 0.45938 0.91350 0.54180
 H211 H 0.40659 0.96829 0.62501
 H212 H 0.43567 1.00590 0.58912
 H213 H 0.42386 0.99535 0.47341
 H214 H 0.38160 1.02810 0.44297
 H215 H 0.48360 1.05865 0.53580
 H216 H 0.57232 1.04031 0.55329
 H217 H 0.60592 1.07558 0.51692
 H218 H 0.54490 1.05563 0.40606
 H219 H 0.51231 1.02010 0.44240
 H220 H 0.52264 0.99168 0.60410
 H221 H 0.56048 0.95680 0.63572
 H222 H 0.61155 0.94110 0.51901
 H223 H 0.57339 0.97602 0.48753
 H224 H 0.44192 1.09149 0.50474
 C225 C 1.18154 0.19221 0.21190
 C226 C 1.19396 0.18324 0.17398
 C227 C 1.17258 0.16403 0.14832
 C228 C 1.19166 0.14786 0.12050
 C229 C 1.17224 0.12966 0.09560
 C230 C 1.13322 0.12751 0.09778
 C231 C 1.11407 0.14423 0.12472
 C232 C 1.13350 0.16223 0.14991
 C233 C 1.11164 0.10860 0.07184
 C234 C 1.12618 0.08452 0.05783
 H235 H 1.22097 0.18982 0.16326
 H236 H 1.22170 0.14923 0.11821
 H237 H 1.18780 0.11767 0.07424
 H238 H 1.08397 0.14324 0.12649
 H239 H 1.11775 0.17503 0.16994
 H240 H 1.08240 0.11273 0.06661
 H241 H 1.15609 0.18419 0.22461
 H242 H 1.15393 0.07873 0.06745
 C243 C 0.68204 0.69290 0.71183
 C244 C 0.69430 0.68384 0.67389
 C245 C 0.67282 0.66459 0.64840
 C246 C 0.69178 0.64841 0.62051
 C247 C 0.67227 0.63019 0.59572
 C248 C 0.63326 0.62805 0.59809
 C249 C 0.61422 0.64477 0.62512
 C250 C 0.63375 0.66278 0.65020
 C251 C 0.61158 0.60914 0.57224
 C252 C 0.62607 0.58506 0.55817
 H253 H 0.72126 0.69041 0.66299
 H254 H 0.72182 0.64978 0.61806
 H255 H 0.68774 0.61820 0.57429
 H256 H 0.58413 0.64378 0.62704
 H257 H 0.61808 0.67559 0.67030
 H258 H 0.58233 0.61329 0.56711
 H259 H 0.65665 0.68490 0.72472
 H260 H 0.65383 0.57925 0.56770
 C261 C -0.20661 0.29618 0.16540
 C262 C -0.17280 0.30672 0.17958
 C263 C -0.15226 0.32764 0.15695
 C264 C -0.12983 0.34589 0.17875
 C265 C -0.11101 0.36637 0.15828
 C266 C -0.11405 0.36877 0.11545
 C267 C -0.13524 0.34985 0.09352
 C268 C -0.15431 0.32954 0.11401
 C269 C -0.09508 0.39039 0.09271
 C270 C -0.08733 0.41536 0.10995
 H271 H -0.16229 0.30073 0.20938
 H272 H -0.12729 0.34453 0.21177
 H273 H -0.09385 0.38005 0.17602
 H274 H -0.13745 0.35099 0.06046
 H275 H -0.17026 0.31523 0.09609
 H276 H -0.09001 0.38720 0.06047
 H277 H -0.21897 0.30370 0.13735
 H278 H -0.09673 0.41954 0.14068
 C279 C 0.29344 0.79687 0.66488
 C280 C 0.32724 0.80739 0.67912
 C281 C 0.34790 0.82822 0.65643
 C282 C 0.37027 0.84653 0.67819
 C283 C 0.38914 0.86695 0.65765
 C284 C 0.38622 0.86923 0.61479
 C285 C 0.36512 0.85024 0.59292
 C286 C 0.34600 0.82999 0.61347
 C287 C 0.40522 0.89080 0.59198
 C288 C 0.41284 0.91584 0.60907
 H289 H 0.33764 0.80146 0.70900
 H290 H 0.37269 0.84527 0.71123
 H291 H 0.40624 0.88069 0.67535
 H292 H 0.36301 0.85129 0.55984
 H293 H 0.33010 0.81563 0.59559
 H294 H 0.41038 0.88753 0.55977
 H295 H 0.28120 0.80433 0.63674
 H296 H 0.40336 0.92008 0.63975
 C297 C -0.19727 0.69493 -0.17426
 C298 C -0.20624 0.68099 -0.13869
 C299 C -0.18038 0.66226 -0.11815
 C300 C -0.19509 0.64201 -0.09333
 C301 C -0.17153 0.62408 -0.07319
 C302 C -0.13265 0.62623 -0.07725
 C303 C -0.11789 0.64696 -0.10108
 C304 C -0.14146 0.66475 -0.12151
 C305 C -0.10689 0.60761 -0.05635
 C306 C -0.11672 0.58127 -0.04735
 H307 H -0.23385 0.68318 -0.12605
 H308 H -0.22494 0.63998 -0.08965
 H309 H -0.18385 0.60889 -0.05396
 H310 H -0.08801 0.64929 -0.10412
 H311 H -0.12904 0.68068 -0.13919
 H312 H -0.07849 0.61424 -0.05089
 H313 H -0.17089 0.69156 -0.18910
 H314 H -0.14356 0.57369 -0.05764
 C315 C 0.30041 1.19471 0.32542
 C316 C 0.29198 1.18100 0.36147
 C317 C 0.31811 1.16230 0.38163
 C318 C 0.30375 1.14203 0.40666
 C319 C 0.32758 1.12415 0.42649
 C320 C 0.36640 1.12636 0.42191
 C321 C 0.38083 1.14711 0.39787
 C322 C 0.35698 1.16485 0.37774
 C323 C 0.39244 1.10780 0.44252
 C324 C 0.38280 1.08143 0.45157
 H325 H 0.26468 1.18332 0.37486
 H326 H 0.27395 1.13996 0.41075
 H327 H 0.31553 1.10894 0.44589
 H328 H 0.41066 1.14948 0.39443
 H329 H 0.36913 1.18080 0.35988
 H330 H 0.42084 1.11451 0.44774
 H331 H 0.32653 1.19094 0.31024
 H332 H 0.35594 1.07379 0.44148
 C333 C 1.19622 -0.20273 -0.20522
 C334 C 1.16495 -0.18754 -0.21528
 C335 C 1.15068 -0.16639 -0.18801
 C336 C 1.13134 -0.14482 -0.20517
 C337 C 1.11793 -0.12437 -0.18027
 C338 C 1.12341 -0.12525 -0.13755
 C339 C 1.14171 -0.14725 -0.12032
 C340 C 1.15533 -0.16759 -0.14522
 C341 C 1.10918 -0.10423 -0.11004
 C342 C 1.10314 -0.07797 -0.12270
 H343 H 1.15173 -0.19010 -0.24504
 H344 H 1.12685 -0.14369 -0.23798
 H345 H 1.10277 -0.10821 -0.19453
 H346 H 1.14563 -0.14866 -0.08745
 H347 H 1.16888 -0.18439 -0.13075
 H348 H 1.10540 -0.10940 -0.07818
 H349 H 1.21117 -0.19870 -0.17688
 H350 H 1.11146 -0.07206 -0.15315
 C351 C 0.69565 0.29693 0.29712
 C352 C 0.66554 0.31293 0.28605
 C353 C 0.65102 0.33408 0.31315
 C354 C 0.63256 0.35594 0.29569
 C355 C 0.61890 0.37640 0.32041
 C356 C 0.62328 0.37526 0.36326
 C357 C 0.64072 0.35299 0.38075
 C358 C 0.65455 0.33263 0.35605
 C359 C 0.60878 0.39627 0.39061
 C360 C 0.60314 0.42260 0.37805
 H361 H 0.65353 0.31090 0.25561
 H362 H 0.62892 0.35729 0.26278
 H363 H 0.60441 0.39277 0.30588
 H364 H 0.64379 0.35138 0.41370
 H365 H 0.66738 0.31562 0.37074
 H366 H 0.60444 0.39102 0.42234
 H367 H 0.70988 0.30017 0.32609
 H368 H 0.61194 0.42858 0.34779
 C369 C 0.78519 -0.19608 -0.16243
 C370 C 0.81475 -0.18103 -0.17810
 C371 C 0.83229 -0.15824 -0.15611
 C372 C 0.85192 -0.13908 -0.17880
 C373 C 0.86885 -0.11720 -0.15940
 C374 C 0.86695 -0.11424 -0.11661
 C375 C 0.84730 -0.13340 -0.09395
 C376 C 0.83035 -0.15527 -0.11335
 C377 C 0.88453 -0.09148 -0.09453
 C378 C 0.91388 -0.07625 -0.11029
 H379 H 0.82420 -0.18509 -0.20889
 H380 H 0.85375 -0.14086 -0.21178
 H381 H 0.88274 -0.10256 -0.17826
 H382 H 0.84546 -0.13164 -0.06096
 H383 H 0.81638 -0.16993 -0.09457
 H384 H 0.87443 -0.08733 -0.06415
 H385 H 0.77401 -0.19131 -0.13270
 H386 H 0.92389 -0.08052 -0.14069
 C387 C 0.28529 0.30374 0.34034
 C388 C 0.31378 0.31942 0.32396
 C389 C 0.33140 0.34225 0.34579
 C390 C 0.35048 0.36158 0.32288
 C391 C 0.36748 0.38349 0.34212
 C392 C 0.36618 0.38632 0.38496
 C393 C 0.34705 0.36700 0.40785
 C394 C 0.33005 0.34509 0.38861
 C395 C 0.38384 0.40911 0.40688
 C396 C 0.41301 0.42438 0.39083
 H397 H 0.32228 0.31569 0.29273
 H398 H 0.35185 0.35990 0.28985
 H399 H 0.38095 0.39826 0.32313
 H400 H 0.34567 0.36868 0.44089
 H401 H 0.31650 0.33034 0.40756
 H402 H 0.37399 0.41321 0.43738
 H403 H 0.27454 0.30795 0.37045
 H404 H 0.42277 0.42011 0.36032
 C405 C 0.17608 0.68771 -0.21935
 C406 C 0.18875 0.67397 -0.18483
 C407 C 0.16668 0.65281 -0.16441
 C408 C 0.17466 0.64661 -0.12338
 C409 C 0.15448 0.62674 -0.10308
 C410 C 0.12585 0.61257 -0.12357
 C411 C 0.11860 0.61828 -0.16493
 C412 C 0.13869 0.63818 -0.18519
 C413 C 0.10393 0.59119 -0.10348
 C414 C 0.09959 0.58941 -0.06108
 H415 H 0.21537 0.67959 -0.17129
 H416 H 0.19654 0.65723 -0.10692
 H417 H 0.16201 0.62230 -0.07170
 H418 H 0.09719 0.60732 -0.18165
 H419 H 0.13260 0.64161 -0.21724
 H420 H 0.09040 0.57666 -0.12322
 H421 H 0.14857 0.68367 -0.23180
 H422 H 0.11286 0.60419 -0.04156
 C423 C 0.67797 1.18757 0.28005
 C424 C 0.69055 1.17370 0.31458
 C425 C 0.66825 1.15262 0.33488
 C426 C 0.67581 1.14655 0.37606
 C427 C 0.65537 1.12680 0.39628
 C428 C 0.62689 1.11259 0.37557
 C429 C 0.62009 1.11814 0.33407
 C430 C 0.64046 1.13793 0.31389
 C431 C 0.60469 1.09133 0.39560
 C432 C 0.59992 1.08976 0.43796
 H433 H 0.71715 1.17917 0.32835
 H434 H 0.69755 1.15721 0.39270
 H435 H 0.66256 1.12246 0.42779
 H436 H 0.59883 1.10715 0.31719
 H437 H 0.63473 1.14125 0.28173
 H438 H 0.59134 1.07673 0.37586
 H439 H 0.65041 1.18345 0.26774
 H440 H 0.61302 1.10461 0.45749
 C441 C 0.17067 0.30270 0.22950
 C442 C 0.18183 0.31831 0.19636
 C443 C 0.16018 0.34115 0.18025
 C444 C 0.17866 0.36049 0.15678
 C445 C 0.15948 0.38245 0.14107
 C446 C 0.12111 0.38534 0.14807
 C447 C 0.10262 0.36603 0.17159
 C448 C 0.12182 0.34406 0.18732
 C449 C 0.09969 0.40828 0.13195
 C450 C 0.11069 0.42315 0.09792
 H451 H 0.20884 0.31462 0.18303
 H452 H 0.20822 0.35878 0.15099
 H453 H 0.17502 0.39726 0.12412
 H454 H 0.07308 0.36778 0.17740
 H455 H 0.10628 0.32931 0.20437
 H456 H 0.07296 0.41227 0.14564
 H457 H 0.14495 0.30688 0.24514
 H458 H 0.13507 0.41715 0.08113
 C459 C 0.67108 0.80343 0.72863
 C460 C 0.68212 0.81898 0.69537
 C461 C 0.66043 0.84179 0.67927
 C462 C 0.67885 0.86111 0.65570
 C463 C 0.65963 0.88305 0.64000
 C464 C 0.62128 0.88593 0.64709
 C465 C 0.60284 0.86664 0.67069
 C466 C 0.62208 0.84469 0.68643
 C467 C 0.59981 0.90885 0.63096
 C468 C 0.61074 0.92368 0.59686
 H469 H 0.70909 0.81527 0.68196
 H470 H 0.70839 0.85940 0.64984
 H471 H 0.67513 0.89785 0.62298
 H472 H 0.57331 0.86839 0.67658
 H473 H 0.60659 0.82995 0.70355
 H474 H 0.57311 0.91285 0.64471
 H475 H 0.64541 0.80763 0.74435
 H476 H 0.63509 0.91766 0.58003
 C477 C 0.77959 0.18601 0.15478
 C478 C 0.81368 0.17410 0.16431
 C479 C 0.83158 0.15350 0.13875
 C480 C 0.86985 0.14894 0.14416
 C481 C 0.88798 0.12957 0.12108
 C482 C 0.86800 0.11397 0.09239
 C483 C 0.82972 0.11855 0.08693
 C484 C 0.81159 0.13799 0.10997
 C485 C 0.88617 0.09345 0.06686
 C486 C 0.92037 0.08181 0.07696
 H487 H 0.82887 0.18096 0.19123
 H488 H 0.88592 0.16066 0.16606
 H489 H 0.91769 0.12732 0.12542
 H490 H 0.81368 0.10686 0.06498
 H491 H 0.78192 0.14040 0.10552
 H492 H 0.87099 0.08646 0.04010
 H493 H 0.76464 0.18079 0.12696
 H494 H 0.93335 0.08642 0.10618
 C495 C 0.27918 0.68677 0.65479
 C496 C 0.31323 0.67486 0.66444
 C497 C 0.33118 0.65424 0.63896
 C498 C 0.36944 0.64970 0.64443
 C499 C 0.38762 0.63032 0.62140
 C500 C 0.36768 0.61470 0.59271
 C501 C 0.32940 0.61925 0.58720
 C502 C 0.31123 0.63869 0.61019
 C503 C 0.38590 0.59417 0.56721
 C504 C 0.42012 0.58258 0.57731
 H505 H 0.32838 0.68175 0.69138
 H506 H 0.38548 0.66143 0.66633
 H507 H 0.41732 0.62808 0.62578
 H508 H 0.31339 0.60754 0.56525
 H509 H 0.28156 0.64109 0.60569
 H510 H 0.37072 0.58715 0.54047
 H511 H 0.26428 0.68153 0.62694
 H512 H 0.43311 0.58722 0.60652
   
