data_POSCAR
  _audit_creation_date              2014-09-24
  _audit_creation_method            'ToBaCCo'
  _symmetry_space_group_name_H-M    'P1'
  _symmetry_Int_Tables_number       1
  _symmetry_cell_setting            triclinic
  loop_
  _symmetry_equiv_pos_as_xyz
 x,y,z
_cell_length_a 40.7531
_cell_length_b 40.8428
_cell_length_c 40.8210
_cell_angle_alpha 81.198900
_cell_angle_beta 98.779900
_cell_angle_gamma 97.454400
loop_
  _atom_site_label
  _atom_site_type_symbol
  _atom_site_fract_x
  _atom_site_fract_y
  _atom_site_fract_z
C1 C 0.57258 0.53339 -0.00259
 C2 C 0.56602 0.56567 -0.00036
 C3 C 0.53383 0.57256 0.00207
 C4 C 0.50721 0.54656 0.00233
 C5 C 0.51355 0.51366 0.00008
 C6 C 0.54636 0.50700 -0.00240
 C7 C 0.55202 0.47418 -0.00462
 C8 C 0.52603 0.44844 -0.00443
 C9 C 0.49336 0.45447 -0.00200
 C10 C 0.48702 0.48735 0.00029
 C11 C 0.47448 0.55253 0.00478
 C12 C 0.44852 0.52677 0.00500
 C13 C 0.45421 0.49396 0.00278
 C14 C 0.42802 0.46753 0.00297
 C15 C 0.43463 0.43528 0.00067
 C16 C 0.46681 0.42849 -0.00181
 H17 H 0.57668 0.46810 -0.00654
 H18 H 0.53181 0.42368 -0.00621
 H19 H 0.46866 0.57727 0.00654
 H20 H 0.42385 0.53281 0.00694
 H21 H 0.58631 0.58578 -0.00054
 H22 H 0.41446 0.41509 0.00079
 C23 C -0.00070 0.57277 0.46550
 C24 C 0.00013 0.56613 0.43311
 C25 C 0.00080 0.53363 0.42658
 C26 C 0.00067 0.50684 0.45307
 C27 C -0.00018 0.51336 0.48608
 C28 C -0.00087 0.54646 0.49235
 C29 C -0.00172 0.55237 0.52525
 C30 C -0.00186 0.52627 0.55153
 C31 C -0.00117 0.49327 0.54590
 C32 C -0.00033 0.48674 0.51290
 C33 C 0.00135 0.47378 0.44750
 C34 C 0.00120 0.44769 0.47380
 C35 C 0.00036 0.45363 0.50668
 C36 C 0.00019 0.42735 0.53356
 C37 C -0.00062 0.43406 0.56594
 C38 C -0.00128 0.46656 0.57238
 H39 H -0.00228 0.57730 0.53097
 H40 H -0.00253 0.53220 0.57636
 H41 H 0.00202 0.46780 0.42269
 H42 H 0.00176 0.42275 0.46810
 H43 H 0.00024 0.58661 0.41271
 H44 H -0.00072 0.41370 0.58643
 C45 C 0.53420 -0.00029 0.57347
 C46 C 0.56650 -0.00250 0.56702
 C47 C 0.57298 -0.00380 0.53463
 C48 C 0.54661 -0.00291 0.50768
 C49 C 0.51371 -0.00067 0.51391
 C50 C 0.50742 0.00065 0.54692
 C51 C 0.47456 0.00287 0.55244
 C52 C 0.44844 0.00377 0.52612
 C53 C 0.45413 0.00250 0.49325
 C54 C 0.48703 0.00026 0.48706
 C55 C 0.55221 -0.00418 0.47472
 C56 C 0.52606 -0.00328 0.44844
 C57 C 0.49328 -0.00107 0.45405
 C58 C 0.46654 -0.00013 0.42755
 C59 C 0.43426 0.00208 0.43397
 C60 C 0.42780 0.00339 0.46634
 H61 H 0.46876 0.00393 0.57725
 H62 H 0.42367 0.00549 0.53180
 H63 H 0.57695 -0.00589 0.46896
 H64 H 0.53178 -0.00435 0.42360
 H65 H 0.58692 -0.00321 0.58755
 H66 H 0.41387 0.00279 0.41347
 O67 O 0.47443 -0.00160 -0.05053
 O68 O 0.47035 -0.00787 0.03979
 O69 O 0.46993 0.04050 -0.00969
 O70 O 0.47483 -0.04998 -0.00106
 O71 O 0.52993 -0.04118 0.00863
 O72 O 0.52503 0.04928 -0.00000
 O73 O 0.52545 0.00092 0.04948
 O74 O 0.52953 0.00719 -0.04083
 Cu75 Cu 0.46683 -0.00562 -0.00634
 Cu76 Cu 0.53303 0.00493 0.00529
 C77 C 0.50269 0.00365 -0.06090
 C78 C 0.49718 -0.00433 0.05985
 C79 C 0.49663 0.06015 -0.00612
 C80 C 0.50323 -0.06083 0.00503
 O81 O -0.04092 0.52978 0.99120
 O82 O 0.04988 0.52567 1.00048
 O83 O 0.00178 0.52608 0.95067
 O84 O 0.00718 0.52939 1.04101
 O85 O -0.00121 0.47436 1.05030
 O86 O -0.00660 0.47105 0.95996
 O87 O 0.04150 0.47065 1.00978
 O88 O -0.04931 0.47476 1.00049
 Cu89 Cu 0.00532 0.53328 0.99491
 Cu90 Cu -0.00474 0.46715 1.00606
 C91 C -0.06042 0.50298 0.99444
 C92 C 0.06100 0.49745 1.00653
 C93 C -0.00315 0.49798 0.94009
 C94 C 0.00371 0.50246 1.06087
 O95 O -0.00748 -0.04051 0.47095
 O96 O -0.00305 0.04953 0.47421
 O97 O 0.03999 0.00856 0.47098
 O98 O -0.05054 0.00045 0.47420
 O99 O -0.04120 -0.00884 0.52946
 O100 O 0.04933 -0.00073 0.52625
 O101 O 0.00628 0.04024 0.52948
 O102 O 0.00186 -0.04981 0.52622
 Cu103 Cu -0.00621 0.00544 0.46700
 Cu104 Cu 0.00500 -0.00572 0.53344
 C105 C -0.00341 -0.06033 0.49801
 C106 C 0.00225 0.06006 0.50241
 C107 C 0.05993 0.00515 0.49806
 C108 C -0.06114 -0.00544 0.50239
 C109 C -0.39528 0.52855 0.99517
 C110 C -0.36678 0.52483 0.99329
 C111 C -0.33258 0.52098 0.99122
 C112 C -0.31512 0.54266 0.96821
 C113 C -0.28155 0.53976 0.96692
 C114 C -0.26494 0.51511 0.98869
 C115 C -0.28283 0.49320 1.01150
 C116 C -0.31641 0.49616 1.01274
 C117 C -0.22896 0.51274 0.98813
 C118 C -0.21675 0.48148 0.99191
 C119 C -0.18272 0.47936 0.99219
 C120 C -0.16045 0.50840 0.98871
 C121 C -0.17237 0.53959 0.98469
 C122 C -0.20637 0.54177 0.98438
 C123 C -0.12526 0.50626 0.99012
 C124 C -0.09570 0.50467 0.99179
 H125 H -0.32740 0.56195 0.95140
 H126 H -0.26862 0.55672 0.94879
 H127 H -0.27066 0.47426 1.02888
 H128 H -0.32965 0.47933 1.03075
 H129 H -0.23355 0.45869 0.99444
 H130 H -0.17377 0.45508 0.99532
 H131 H -0.15533 0.56223 0.98215
 H132 H -0.21487 0.56618 0.98191
 C133 C 0.39587 0.47229 1.00527
 C134 C 0.36737 0.47595 1.00721
 C135 C 0.33316 0.47972 1.00935
 C136 C 0.31702 0.50474 0.98809
 C137 C 0.28344 0.50764 0.98939
 C138 C 0.26552 0.48548 1.01198
 C139 C 0.28209 0.46063 1.03349
 C140 C 0.31567 0.45779 1.03215
 C141 C 0.22953 0.48781 1.01259
 C142 C 0.20691 0.45876 1.01600
 C143 C 0.17292 0.46092 1.01574
 C144 C 0.16103 0.49208 1.01213
 C145 C 0.18333 0.52113 1.00898
 C146 C 0.21736 0.51904 1.00921
 C147 C 0.12584 0.49420 1.01078
 C148 C 0.09628 0.49577 1.00915
 H149 H 0.33029 0.52176 0.97024
 H150 H 0.27130 0.52674 0.97220
 H151 H 0.26913 0.44348 1.05145
 H152 H 0.32792 0.43835 1.04875
 H153 H 0.21539 0.43438 1.01815
 H154 H 0.15586 0.43827 1.01801
 H155 H 0.17440 0.54540 1.00617
 H156 H 0.23417 0.54184 1.00694
 C157 C -0.00126 -0.39301 0.47025
 C158 C -0.00162 -0.36434 0.47387
 C159 C -0.00190 -0.33001 0.47780
 C160 C 0.01901 -0.30528 0.46107
 C161 C 0.01866 -0.27184 0.46455
 C162 C -0.00268 -0.26269 0.48483
 C163 C -0.02360 -0.28776 0.50159
 C164 C -0.02317 -0.32122 0.49809
 C165 C -0.00318 -0.22713 0.48828
 C166 C -0.03358 -0.21418 0.48808
 C167 C -0.03402 -0.18048 0.49059
 C168 C -0.00410 -0.15937 0.49340
 C169 C 0.02627 -0.17207 0.49390
 C170 C 0.02676 -0.20572 0.49137
 C171 C -0.00446 -0.12456 0.49529
 C172 C -0.00427 -0.09527 0.49664
 H173 H 0.03548 -0.31182 0.44519
 H174 H 0.03470 -0.25308 0.45096
 H175 H -0.04001 -0.28152 0.51768
 H176 H -0.03941 -0.34022 0.51120
 H177 H -0.05706 -0.22996 0.48533
 H178 H -0.05767 -0.17086 0.49007
 H179 H 0.04957 -0.15593 0.49614
 H180 H 0.05058 -0.21504 0.49206
 C181 C 0.00073 0.39312 0.52886
 C182 C 0.00109 0.36445 0.52525
 C183 C 0.00136 0.33013 0.52128
 C184 C -0.02437 0.30637 0.53137
 C185 C -0.02399 0.27290 0.52799
 C186 C 0.00220 0.26276 0.51447
 C187 C 0.02792 0.28686 0.50430
 C188 C 0.02746 0.32035 0.50768
 C189 C 0.00276 0.22714 0.51128
 C190 C 0.03279 0.21233 0.51922
 C191 C 0.03311 0.17857 0.51693
 C192 C 0.00347 0.15924 0.50663
 C193 C -0.02646 0.17381 0.49842
 C194 C -0.02685 0.20753 0.50072
 C195 C 0.00358 0.12435 0.50498
 C196 C 0.00323 0.09502 0.50375
 H197 H -0.04463 0.31368 0.54205
 H198 H -0.04389 0.25487 0.53647
 H199 H 0.04819 0.27987 0.49344
 H200 H 0.04747 0.33858 0.49973
 H201 H 0.05590 0.22668 0.52781
 H202 H 0.05640 0.16749 0.52345
 H203 H -0.04953 0.15907 0.49036
 H204 H -0.05027 0.21833 0.49401
 C205 C 0.52975 0.00079 -0.39419
 C206 C 0.52641 0.00162 -0.36549
 C207 C 0.52309 0.00238 -0.33104
 C208 C 0.49529 0.01450 -0.32269
 C209 C 0.49222 0.01517 -0.28913
 C210 C 0.51693 0.00364 -0.26349
 C211 C 0.54480 -0.00841 -0.27220
 C212 C 0.54783 -0.00902 -0.30573
 C213 C 0.51369 0.00402 -0.22780
 C214 C 0.52262 -0.02284 -0.20351
 C215 C 0.52001 -0.02238 -0.16985
 C216 C 0.50845 0.00490 -0.15997
 C217 C 0.49934 0.03170 -0.18393
 C218 C 0.50191 0.03127 -0.21765
 C219 C 0.50611 0.00524 -0.12519
 C220 C 0.50443 0.00490 -0.09591
 H221 H 0.47596 0.02333 -0.34210
 H222 H 0.47030 0.02423 -0.28321
 H223 H 0.56447 -0.01700 -0.25310
 H224 H 0.56951 -0.01833 -0.31193
 H225 H 0.53130 -0.04438 -0.21058
 H226 H 0.52700 -0.04331 -0.15154
 H227 H 0.49042 0.05297 -0.17653
 H228 H 0.49521 0.05249 -0.23569
 C229 C 0.47118 -0.00130 0.39337
 C230 C 0.47443 -0.00214 0.36465
 C231 C 0.47763 -0.00292 0.33017
 C232 C 0.45302 0.00887 0.30492
 C233 C 0.45591 0.00823 0.27136
 C234 C 0.48351 -0.00423 0.26256
 C235 C 0.50808 -0.01615 0.28815
 C236 C 0.50515 -0.01545 0.32173
 C237 C 0.48660 -0.00465 0.22684
 C238 C 0.49793 -0.03210 0.21659
 C239 C 0.50037 -0.03255 0.18284
 C240 C 0.49160 -0.00557 0.15896
 C241 C 0.48049 0.02189 0.16894
 C242 C 0.47800 0.02238 0.20262
 C243 C 0.49384 -0.00593 0.12416
 C244 C 0.49547 -0.00558 0.09487
 H245 H 0.43155 0.01849 0.31117
 H246 H 0.43634 0.01712 0.25230
 H247 H 0.52979 -0.02554 0.28216
 H248 H 0.52436 -0.02459 0.34110
 H249 H 0.50437 -0.05344 0.23458
 H250 H 0.50894 -0.05397 0.17537
 H251 H 0.47375 0.04296 0.15068
 H252 H 0.46967 0.04407 0.20976
 C253 C 0.52934 -0.39519 0.00405
 C254 C 0.52611 -0.36656 0.00566
 C255 C 0.52308 -0.33214 0.00740
 C256 C 0.55180 -0.31013 0.01408
 C257 C 0.54918 -0.27651 0.01501
 C258 C 0.51772 -0.26439 0.00924
 C259 C 0.48894 -0.28679 0.00283
 C260 C 0.49163 -0.32044 0.00189
 C261 C 0.51506 -0.22845 0.00938
 C262 C 0.48949 -0.21832 0.02388
 C263 C 0.48700 -0.18444 0.02375
 C264 C 0.50998 -0.16025 0.00910
 C265 C 0.53549 -0.17009 -0.00535
 C266 C 0.53804 -0.20390 -0.00522
 C267 C 0.50726 -0.12533 0.00840
 C268 C 0.50528 -0.09594 0.00722
 H269 H 0.57626 -0.31893 0.01845
 H270 H 0.57176 -0.26003 0.02047
 H271 H 0.46441 -0.27817 -0.00211
 H272 H 0.46923 -0.33725 -0.00343
 H273 H 0.47165 -0.23659 0.03565
 H274 H 0.46716 -0.17711 0.03502
 H275 H 0.55330 -0.15159 -0.01692
 H276 H 0.55768 -0.21084 -0.01704
 C277 C 0.47155 0.39446 -0.00411
 C278 C 0.47484 0.36590 -0.00595
 C279 C 0.47806 0.33160 -0.00802
 C280 C 0.45138 0.31182 -0.02362
 C281 C 0.45397 0.27825 -0.02485
 C282 C 0.48333 0.26394 -0.01045
 C283 C 0.51017 0.28413 0.00488
 C284 C 0.50751 0.31772 0.00610
 C285 C 0.48570 0.22799 -0.01090
 C286 C 0.51547 0.21712 -0.01662
 C287 C 0.51773 0.18320 -0.01651
 C288 C 0.49030 0.15971 -0.01069
 C289 C 0.46055 0.17029 -0.00511
 C290 C 0.45824 0.20416 -0.00523
 C291 C 0.49277 0.12470 -0.00973
 C292 C 0.49462 0.09528 -0.00840
 H293 H 0.42848 0.32231 -0.03468
 H294 H 0.43305 0.26352 -0.03724
 H295 H 0.53294 0.27378 0.01655
 H296 H 0.52828 0.33277 0.01834
 H297 H 0.53692 0.23486 -0.02146
 H298 H 0.54088 0.17530 -0.02087
 H299 H 0.43922 0.15232 -0.00038
 H300 H 0.43514 0.21163 -0.00026
 C301 C -0.39480 -0.00581 0.53018
 C302 C -0.36628 -0.00747 0.52660
 C303 C -0.33210 -0.00924 0.52274
 C304 C -0.32176 -0.00198 0.49102
 C305 C -0.28834 -0.00296 0.48744
 C306 C -0.26483 -0.01125 0.51558
 C307 C -0.27557 -0.01876 0.54731
 C308 C -0.30897 -0.01773 0.55084
 C309 C -0.22914 -0.01143 0.51201
 C310 C -0.21046 -0.03627 0.53080
 C311 C -0.17659 -0.03578 0.52820
 C312 C -0.16095 -0.01050 0.50681
 C313 C -0.17938 0.01413 0.48778
 C314 C -0.21326 0.01367 0.49031
 C315 C -0.12583 -0.00928 0.50502
 C316 C -0.09632 -0.00779 0.50373
 H317 H -0.33950 0.00456 0.46910
 H318 H -0.28091 0.00255 0.46265
 H319 H -0.25801 -0.02477 0.56950
 H320 H -0.31671 -0.02328 0.57551
 H321 H -0.22209 -0.05615 0.54740
 H322 H -0.16255 -0.05498 0.54303
 H323 H -0.16747 0.03390 0.47126
 H324 H -0.22683 0.03338 0.47587
 C325 C 0.39376 0.00552 0.47100
 C326 C 0.36522 0.00717 0.47451
 C327 C 0.33102 0.00893 0.47831
 C328 C 0.30814 0.01833 0.45030
 C329 C 0.27471 0.01934 0.45375
 C330 C 0.26371 0.01091 0.48531
 C331 C 0.28697 0.00173 0.51337
 C332 C 0.32042 0.00076 0.50987
 C333 C 0.22799 0.01105 0.48877
 C334 C 0.21182 -0.01459 0.50971
 C335 C 0.17792 -0.01505 0.51215
 C336 C 0.15976 0.01011 0.49378
 C337 C 0.17567 0.03591 0.47315
 C338 C 0.20957 0.03641 0.47065
 C339 C 0.12462 0.00893 0.49549
 C340 C 0.09511 0.00748 0.49674
 H341 H 0.31607 0.02458 0.42575
 H342 H 0.25733 0.02605 0.43161
 H343 H 0.27935 -0.00450 0.53805
 H344 H 0.33796 -0.00649 0.53172
 H345 H 0.22519 -0.03469 0.52361
 H346 H 0.16580 -0.03522 0.52807
 H347 H 0.16183 0.05552 0.45885
 H348 H 0.22141 0.05669 0.45466
 C349 C 0.00146 0.52898 1.39423
 C350 C 0.00193 0.52544 1.36553
 C351 C 0.00229 0.52184 1.33108
 C352 C -0.01321 0.54401 1.30565
 C353 C -0.01280 0.54083 1.27213
 C354 C 0.00317 0.51541 1.26357
 C355 C 0.01874 0.49325 1.28933
 C356 C 0.01827 0.49646 1.32288
 C357 C 0.00358 0.51215 1.22790
 C358 C 0.03261 0.50476 1.21704
 C359 C 0.03307 0.50236 1.18330
 C360 C 0.00453 0.50724 1.16004
 C361 C -0.02452 0.51435 1.17064
 C362 C -0.02502 0.51679 1.20432
 C363 C 0.00496 0.50527 1.12521
 C364 C 0.00474 0.50387 1.09590
 H365 H -0.02552 0.56384 1.31174
 H366 H -0.02458 0.55857 1.25290
 H367 H 0.03091 0.47321 1.28353
 H368 H 0.03031 0.47914 1.34239
 H369 H 0.05513 0.50144 1.23452
 H370 H 0.05571 0.49692 1.17533
 H371 H -0.04678 0.51807 1.15286
 H372 H -0.04789 0.52203 1.21198
 C373 C -0.00191 0.47150 0.60656
 C374 C -0.00229 0.47504 0.63527
 C375 C -0.00254 0.47865 0.66973
 C376 C -0.01930 0.50342 0.67801
 C377 C -0.01966 0.50663 0.71158
 C378 C -0.00319 0.48510 0.73729
 C379 C 0.01359 0.46030 0.72865
 C380 C 0.01388 0.45712 0.69511
 C381 C -0.00349 0.48836 0.77297
 C382 C 0.02546 0.48469 0.79629
 C383 C 0.02507 0.48712 0.83000
 C384 C -0.00421 0.49325 0.84088
 C385 C -0.03310 0.49715 0.81788
 C386 C -0.03276 0.49476 0.78411
 C387 C -0.00453 0.49519 0.87573
 C388 C -0.00423 0.49658 0.90506
 H389 H -0.03205 0.52025 0.65853
 H390 H -0.03247 0.52620 0.71743
 H391 H 0.02609 0.44304 0.74785
 H392 H 0.02682 0.43776 0.68898
 H393 H 0.04849 0.48021 0.78842
 H394 H 0.04760 0.48416 0.84758
 H395 H -0.05593 0.50182 0.82606
 H396 H -0.05554 0.49731 0.76684
   
