data_POSCAR
  _audit_creation_date              2014-09-24
  _audit_creation_method            'ToBaCCo'
  _symmetry_space_group_name_H-M    'P1'
  _symmetry_Int_Tables_number       1
  _symmetry_cell_setting            triclinic
  loop_
  _symmetry_equiv_pos_as_xyz
 x,y,z
_cell_length_a 14.7651
_cell_length_b 14.9250
_cell_length_c 14.8327
_cell_angle_alpha 90.047200
_cell_angle_beta 90.056000
_cell_angle_gamma 90.071800
loop_
  _atom_site_label
  _atom_site_type_symbol
  _atom_site_fract_x
  _atom_site_fract_y
  _atom_site_fract_z
C1 C 0.54377 1.00001 -0.50195
 C2 C 0.45175 0.99482 -0.50018
 C3 C 0.39225 1.00165 -0.58205
 C4 C 0.40242 0.98584 -0.41341
 C5 C 0.59979 1.00460 -0.41895
 C6 C 0.59759 0.99787 -0.58566
 C7 C 0.41268 0.96167 -0.66568
 C8 C 0.35281 0.96925 -0.73856
 C9 C 0.26626 1.00732 -0.72648
 C10 C 0.24475 1.04392 -0.64183
 C11 C 0.30813 1.04499 -0.57278
 C12 C 0.40605 1.05362 -0.34772
 C13 C 0.34555 1.05251 -0.27532
 C14 C 0.27928 0.98536 -0.26969
 C15 C 0.27776 0.91608 -0.33321
 C16 C 0.33962 0.91572 -0.40400
 C17 C 0.59684 0.93707 -0.35305
 C18 C 0.65867 0.93800 -0.28157
 C19 C 0.72579 1.00449 -0.27736
 C20 C 0.72820 1.07216 -0.34234
 C21 C 0.66516 1.07275 -0.41207
 C22 C 0.65942 0.92748 -0.59682
 C23 C 0.72071 0.92857 -0.66774
 C24 C 0.72047 0.99933 -0.72924
 C25 C 0.65671 1.06850 -0.72067
 C26 C 0.59611 1.06853 -0.64811
 H27 H 0.47319 0.92225 -0.67508
 H28 H 0.37152 0.93830 -0.80199
 H29 H 0.17974 1.07507 -0.62931
 H30 H 0.28947 1.07776 -0.51035
 H31 H 0.45244 1.10941 -0.35491
 H32 H 0.34705 1.10660 -0.22667
 H33 H 0.33536 0.86337 -0.45449
 H34 H 0.54886 0.88241 -0.35843
 H35 H 0.65662 0.88498 -0.23178
 H36 H 0.77907 1.12430 -0.33915
 H37 H 0.66900 1.12508 -0.46251
 H38 H 0.66187 0.87288 -0.54877
 H39 H 0.76908 0.87471 -0.67427
 H40 H 0.65652 1.12394 -0.76765
 H41 H 0.54987 1.12412 -0.63934
 H42 H 0.22755 0.86337 -0.32893
 C43 C -0.45393 1.50163 -0.00350
 C44 C -0.54637 1.50062 -0.00012
 C45 C -0.60018 1.41638 0.00634
 C46 C -0.60275 1.58290 -0.00349
 C47 C -0.39804 1.58520 0.00484
 C48 C -0.40006 1.41757 -0.01243
 C49 C -0.59412 1.34805 -0.05869
 C50 C -0.65407 1.27526 -0.05611
 C51 C -0.72274 1.27187 0.00922
 C52 C -0.72824 1.33937 0.07446
 C53 C -0.66682 1.41025 0.07374
 C54 C -0.67087 1.58809 -0.06955
 C55 C -0.73354 1.65766 -0.06856
 C56 C -0.72798 1.72463 -0.00278
 C57 C -0.65854 1.72161 0.06198
 C58 C -0.59728 1.64999 0.06283
 C59 C -0.41589 1.66438 -0.04369
 C60 C -0.35712 1.73812 -0.03728
 C61 C -0.27506 1.73087 0.01067
 C62 C -0.25702 1.65148 0.05803
 C63 C -0.31900 1.58138 0.05776
 C64 C -0.40610 1.34817 0.05130
 C65 C -0.34526 1.27640 0.04840
 C66 C -0.27529 1.27505 -0.01564
 C67 C -0.26965 1.34361 -0.07971
 C68 C -0.33230 1.41349 -0.07894
 H69 H -0.54524 1.35245 -0.11286
 H70 H -0.64979 1.22403 -0.10761
 H71 H -0.78088 1.33772 0.12531
 H72 H -0.67329 1.46242 0.12415
 H73 H -0.67700 1.53648 -0.12062
 H74 H -0.78665 1.65916 -0.11903
 H75 H -0.54696 1.64598 0.11582
 H76 H -0.47353 1.66887 -0.08848
 H77 H -0.37239 1.79794 -0.07569
 H78 H -0.19537 1.64397 0.09704
 H79 H -0.30312 1.52207 0.09673
 H80 H -0.45557 1.35108 0.10503
 H81 H -0.34996 1.22425 0.09885
 H82 H -0.21619 1.34350 -0.12971
 H83 H -0.32562 1.46678 -0.12805
 H84 H -0.65409 1.77263 0.11379
 C85 C 0.00312 0.49868 0.54713
 C86 C 0.00417 0.50117 0.45434
 C87 C 0.00106 0.41973 0.39425
 C88 C 0.00757 0.58730 0.40305
 C89 C -0.00393 0.58196 0.60478
 C90 C 0.01004 0.41334 0.60067
 C91 C 0.05439 0.34272 0.40823
 C92 C 0.05030 0.27042 0.34758
 C93 C 0.00119 0.27775 0.26641
 C94 C -0.04812 0.35638 0.25028
 C95 C -0.05129 0.42416 0.31477
 C96 C 0.07586 0.59838 0.33796
 C97 C 0.07234 0.66891 0.27645
 C98 C 0.00187 0.73153 0.28016
 C99 C -0.06398 0.72384 0.34800
 C100 C -0.06230 0.65112 0.40799
 C101 C -0.05711 0.57824 0.68364
 C102 C -0.05321 0.64606 0.74828
 C103 C -0.00286 0.72432 0.73245
 C104 C 0.04476 0.73200 0.65057
 C105 C 0.04836 0.65972 0.58999
 C106 C -0.04608 0.33823 0.58585
 C107 C -0.04277 0.26420 0.64444
 C108 C 0.00843 0.26850 0.72452
 C109 C 0.06325 0.34396 0.73963
 C110 C 0.06726 0.41290 0.67664
 H111 H 0.09976 0.33830 0.46533
 H112 H 0.09051 0.21140 0.36124
 H113 H -0.08772 0.36409 0.18920
 H114 H -0.09330 0.48198 0.30089
 H115 H 0.12986 0.54963 0.33217
 H116 H 0.12407 0.67392 0.22490
 H117 H -0.11681 0.64302 0.45610
 H118 H -0.09882 0.52012 0.69761
 H119 H -0.09242 0.63836 0.80954
 H120 H 0.08465 0.79120 0.63634
 H121 H 0.09404 0.66433 0.53330
 H122 H -0.09342 0.33723 0.53012
 H123 H -0.08579 0.20702 0.63089
 H124 H 0.10517 0.34881 0.79949
 H125 H 0.11173 0.46914 0.69017
 H126 H -0.11887 0.77141 0.35180
 O127 O -0.23305 1.00189 -0.12436
 O128 O 0.23448 0.99411 -0.11780
 O129 O -0.00315 1.11842 -0.23488
 O130 O 0.00690 0.87476 -0.23008
 O131 O -0.00743 0.76842 -0.11813
 O132 O 0.00831 1.22828 -0.12597
 O133 O 0.12522 0.99124 -0.22942
 O134 O -0.12110 1.00068 -0.23309
 Zr135 Zr 0.00109 0.99778 -0.15902
 O136 O 0.08137 0.91708 -0.07936
 O137 O -0.08146 1.08100 -0.08469
 C138 C -0.20501 1.00239 -0.20702
 C139 C 0.20848 0.99015 -0.20110
 C140 C 0.00350 1.20158 -0.20927
 C141 C -0.00029 0.79248 -0.20221
 H142 H 0.12293 1.11588 -0.12006
 O143 O 0.08286 1.07892 -0.08178
 H144 H -0.12136 0.88051 -0.11908
 O145 O -0.08240 0.91905 -0.08113
 O146 O 0.23140 0.99740 0.12470
 O147 O -0.23597 1.00273 0.11810
 O148 O 0.12383 1.22906 0.00525
 O149 O 0.11909 0.76962 -0.00157
 O150 O -0.12556 0.77296 0.01386
 O151 O -0.12164 1.23080 -0.01372
 O152 O 0.00531 1.12686 0.22976
 O153 O -0.00556 0.88436 0.23527
 O154 O -0.00399 1.23322 0.11751
 O155 O -0.00213 0.77316 0.12679
 O156 O 0.23395 1.11931 0.00370
 O157 O -0.23345 1.12272 -0.00709
 O158 O -0.23574 0.88085 -0.00239
 O159 O 0.23130 0.87741 0.00260
 O160 O 0.11945 1.01242 0.23141
 O161 O -0.12624 1.00302 0.22933
 Zr162 Zr 0.15865 0.99895 0.00217
 Zr163 Zr -0.16037 1.00159 -0.00230
 Zr164 Zr 0.00057 1.15778 -0.00305
 Zr165 Zr -0.00262 0.84349 0.00302
 Zr166 Zr -0.00249 1.00410 0.15842
 O167 O -0.08494 0.92169 0.08253
 O168 O 0.08143 1.08289 0.08117
 C169 C 0.20379 1.00621 0.20733
 C170 C -0.20958 1.00212 0.20140
 C171 C 0.20735 1.20205 0.00613
 C172 C 0.20314 0.79521 -0.00048
 C173 C -0.20933 0.79849 0.00768
 C174 C -0.20568 1.20493 -0.01263
 C175 C 0.00152 1.20921 0.20160
 C176 C -0.00380 0.80103 0.20983
 H177 H -0.12182 1.12284 0.11573
 O178 O -0.08296 1.08354 0.07861
 H179 H 0.11727 0.88296 0.12307
 O180 O 0.07909 0.92081 0.08384
   
