data_POSCAR
  _audit_creation_date              2014-09-24
  _audit_creation_method            'ToBaCCo'
  _symmetry_space_group_name_H-M    'P1'
  _symmetry_Int_Tables_number       1
  _symmetry_cell_setting            triclinic
  loop_
  _symmetry_equiv_pos_as_xyz
 x,y,z
_cell_length_a 34.1183
_cell_length_b 33.7744
_cell_length_c 58.0646
_cell_angle_alpha 89.523800
_cell_angle_beta 92.100500
_cell_angle_gamma 88.296500
loop_
  _atom_site_label
  _atom_site_type_symbol
  _atom_site_fract_x
  _atom_site_fract_y
  _atom_site_fract_z
C1 C -0.02656 0.38056 0.98560
 C2 C -0.03003 0.38003 1.00904
 C3 C -0.01444 0.41494 1.01723
 N4 N -0.00234 0.43714 0.99953
 C5 C -0.00959 0.41602 0.98022
 C6 C -0.00914 0.42485 1.04078
 C7 C -0.00261 0.46449 1.04758
 C8 C 0.01457 0.47545 1.06851
 C9 C 0.01454 0.51609 1.06865
 C10 C -0.00254 0.52906 1.04777
 N11 N -0.01251 0.49739 1.03488
 C12 C -0.00889 0.56941 1.04124
 C13 C -0.01325 0.58101 1.01775
 C14 C -0.02795 0.61755 1.00975
 C15 C -0.02412 0.61789 0.98634
 C16 C -0.00777 0.58137 0.98076
 N17 N -0.00129 0.55874 0.99995
 C18 C 0.00337 0.57035 0.95849
 C19 C 0.01198 0.53065 0.95268
 C20 C 0.03058 0.51851 0.93299
 C21 C 0.03002 0.47778 0.93282
 C22 C 0.01115 0.46633 0.95243
 N23 N 0.00034 0.49868 0.96445
 C24 C 0.00169 0.42714 0.95802
 H25 H -0.03547 0.35750 0.97386
 H26 H -0.04240 0.35648 1.01893
 H27 H -0.01802 0.49911 0.97838
 H28 H 0.02657 0.45620 1.08216
 H29 H 0.02646 0.53402 1.08243
 H30 H -0.04008 0.64156 1.01975
 H31 H -0.03248 0.64219 0.97474
 H32 H 0.04170 0.45883 0.91962
 H33 H -0.02831 0.49829 1.01916
 H34 H 0.04280 0.53705 0.91993
 C35 C 0.37666 0.02282 0.48849
 C36 C 0.37893 0.02317 0.51212
 C37 C 0.41762 0.01380 0.51858
 N38 N 0.43900 0.00761 0.49975
 C39 C 0.41408 0.01336 0.48130
 C40 C 0.43178 0.00782 0.54150
 C41 C 0.47187 0.00140 0.54776
 C42 C 0.48561 -0.01438 0.56872
 C43 C 0.52585 -0.01472 0.56847
 C44 C 0.53573 0.00162 0.54751
 N45 N 0.50252 0.01118 0.53491
 C46 C 0.57462 0.00788 0.54062
 C47 C 0.58317 0.01413 0.51715
 C48 C 0.61775 0.02934 0.50943
 C49 C 0.61545 0.02805 0.48586
 C50 C 0.57931 0.01276 0.47989
 N51 N 0.55950 0.00434 0.49901
 C52 C 0.56633 0.00445 0.45713
 C53 C 0.52664 -0.00216 0.45096
 C54 C 0.51330 -0.01635 0.42984
 C55 C 0.47299 -0.01514 0.43002
 C56 C 0.46281 -0.00078 0.45138
 N57 N 0.49571 0.00733 0.46395
 C58 C 0.42396 0.00689 0.45819
 H59 H 0.35025 0.02807 0.47788
 H60 H 0.35470 0.02889 0.52327
 H61 H 0.49697 0.02272 0.47937
 H62 H 0.46841 -0.02499 0.58268
 H63 H 0.54553 -0.02607 0.58217
 H64 H 0.64214 0.04031 0.51969
 H65 H 0.63774 0.03751 0.47439
 H66 H 0.45353 -0.02359 0.41590
 H67 H 0.50084 0.02704 0.51945
 H68 H 0.53072 -0.02595 0.41560
 C69 C 0.06469 -0.00271 0.26079
 H70 H 0.06679 -0.00415 0.24226
 C71 C 0.09873 -0.00063 0.27480
 H72 H 0.12707 -0.00054 0.26699
 C73 C 0.02514 -0.00029 0.29349
 H74 H -0.00357 0.00020 0.30073
 C75 C 0.05835 0.00248 0.30810
 H76 H 0.05492 0.00443 0.32653
 N77 N 0.02888 -0.00333 0.27032
 C78 C -0.04750 -0.06209 0.22002
 H79 H -0.07259 -0.04172 0.21963
 C80 C -0.04790 -0.09580 0.20625
 H81 H -0.07332 -0.10106 0.19510
 C82 C 0.01648 -0.07948 0.23469
 H83 H 0.04132 -0.07345 0.24601
 C84 C 0.01747 -0.11331 0.22105
 H85 H 0.04322 -0.13287 0.22194
 Zn86 Zn -0.01633 -0.00640 0.25053
 N87 N -0.01529 -0.05412 0.23350
 C88 C -0.01725 0.03262 0.20705
 N89 N -0.01676 0.03788 0.23026
 C90 C -0.01453 0.07465 0.23950
 C91 C -0.01334 0.10807 0.22522
 C92 C -0.01607 0.06516 0.19216
 C93 C -0.06719 -0.03831 0.28167
 C94 C -0.09933 -0.03975 0.29580
 C95 C -0.12064 0.02503 0.28151
 C96 C -0.08819 0.02510 0.26751
 N97 N -0.06189 -0.00599 0.26817
 H98 H -0.01817 0.00319 0.19999
 H99 H -0.01335 0.07795 0.25803
 H100 H -0.01110 0.13705 0.23290
 H101 H -0.01695 0.06033 0.17374
 H102 H -0.04609 -0.06286 0.28161
 H103 H -0.10297 -0.06585 0.30636
 H104 H -0.14051 0.05064 0.28128
 H105 H -0.08384 0.05025 0.25640
 C106 C -0.01482 -0.12152 0.20638
 C107 C 0.09571 0.00195 0.29877
 C108 C -0.12634 -0.00754 0.29611
 C109 C -0.01399 0.10352 0.20119
 C110 C 0.01191 0.08162 0.75863
 H111 H 0.01114 0.08533 0.74009
 C112 C 0.01134 0.11484 0.77282
 H113 H 0.01055 0.14414 0.76507
 C114 C 0.01443 0.03881 0.79122
 H115 H 0.01499 0.00919 0.79838
 C116 C 0.01397 0.07112 0.80602
 H117 H 0.01417 0.06591 0.82445
 N118 N 0.01410 0.04454 0.76800
 C119 C 0.06773 -0.02963 0.71586
 H120 H 0.04644 -0.05265 0.71431
 C121 C 0.10051 -0.03057 0.70215
 H122 H 0.10377 -0.05417 0.68981
 C123 C 0.08837 0.02963 0.73345
 H124 H 0.08383 0.05277 0.74588
 C125 C 0.12176 0.02966 0.72024
 H126 H 0.14261 0.05292 0.72276
 Zn127 Zn 0.01570 0.00056 0.74799
 N128 N 0.06178 0.00067 0.73073
 C129 C -0.02594 0.00603 0.70481
 N130 N -0.02960 0.00408 0.72804
 C131 C -0.06554 0.00523 0.73747
 C132 C -0.09963 0.00632 0.72334
 C133 C -0.05918 0.00717 0.69008
 C134 C 0.04977 -0.05511 0.77893
 C135 C 0.05215 -0.08857 0.79323
 C136 C -0.01228 -0.10612 0.77884
 C137 C -0.01334 -0.07239 0.76471
 N138 N 0.01703 -0.04718 0.76543
 H139 H 0.00271 0.00668 0.69758
 H140 H -0.06767 0.00450 0.75601
 H141 H -0.12795 0.00589 0.73115
 H142 H -0.05557 0.00856 0.67164
 H143 H 0.07379 -0.03491 0.77887
 H144 H 0.07841 -0.09414 0.80394
 H145 H -0.03740 -0.12497 0.77863
 H146 H -0.03875 -0.06616 0.75351
 C147 C 0.12796 -0.00044 0.70407
 C148 C 0.01279 0.10978 0.79688
 C149 C 0.02056 -0.11428 0.79362
 C150 C -0.09666 0.00668 0.69928
 C151 C -0.00880 -0.34192 0.09287
 C152 C 0.01289 -0.33743 0.07297
 C153 C 0.01276 -0.36647 0.05601
 C154 C -0.00881 -0.40109 0.05854
 C155 C -0.02997 -0.40580 0.07873
 C156 C -0.03025 -0.37642 0.09557
 C157 C -0.00910 -0.31056 0.11056
 N158 N -0.03668 -0.30944 0.12686
 N159 N -0.03730 -0.28068 0.14243
 C160 C -0.01021 -0.25197 0.14243
 N161 N 0.01747 -0.25327 0.12621
 N162 N 0.01796 -0.28188 0.11058
 C163 C -0.01110 -0.21952 0.15943
 C164 C 0.02125 -0.19502 0.16245
 C165 C 0.02020 -0.16370 0.17798
 C166 C -0.01336 -0.15588 0.19068
 C167 C -0.04567 -0.18043 0.18780
 C168 C -0.04446 -0.21211 0.17244
 H169 H 0.02984 -0.31127 0.07037
 H170 H 0.03039 -0.36222 0.04109
 H171 H -0.04725 -0.43179 0.08120
 H172 H -0.04718 -0.38082 0.11074
 H173 H 0.04744 -0.19996 0.15276
 H174 H 0.04536 -0.14499 0.17969
 H175 H -0.07180 -0.17520 0.19751
 H176 H -0.06989 -0.23038 0.17049
 C177 C -0.00706 0.33225 0.09109
 C178 C 0.01313 0.32776 0.07057
 C179 C 0.01258 0.35821 0.05418
 C180 C -0.00824 0.39418 0.05773
 C181 C -0.02792 0.39885 0.07851
 C182 C -0.02744 0.36824 0.09493
 C183 C -0.00707 0.29928 0.10813
 N184 N -0.02786 0.30234 0.12759
 N185 N -0.02830 0.27228 0.14259
 C186 C -0.00795 0.23789 0.13877
 N187 N 0.01292 0.23494 0.11937
 N188 N 0.01334 0.26495 0.10438
 C189 C -0.00890 0.20400 0.15514
 C190 C 0.01240 0.16869 0.15091
 C191 C 0.01091 0.13632 0.16593
 C192 C -0.01190 0.13839 0.18557
 C193 C -0.03284 0.17381 0.18999
 C194 C -0.03140 0.20626 0.17494
 H195 H 0.02943 0.30061 0.06709
 H196 H 0.02922 0.35383 0.03882
 H197 H -0.04470 0.42582 0.08180
 H198 H -0.04334 0.37271 0.11054
 H199 H 0.03021 0.16590 0.13593
 H200 H 0.02793 0.10969 0.16225
 H201 H -0.05096 0.17619 0.20487
 H202 H -0.04820 0.23297 0.17872
 C203 C 0.34623 0.00345 0.59393
 C204 C 0.35238 -0.02905 0.57936
 C205 C 0.38032 -0.02768 0.56239
 C206 C 0.40282 0.00601 0.55986
 C207 C 0.39734 0.03824 0.57454
 C208 C 0.36913 0.03708 0.59138
 C209 C 0.31559 0.00259 0.61136
 N210 N 0.30365 0.03632 0.62195
 N211 N 0.27535 0.03575 0.63714
 C212 C 0.25790 0.00139 0.64247
 N213 N 0.27004 -0.03240 0.63201
 N214 N 0.29822 -0.03180 0.61673
 C215 C 0.22568 0.00094 0.65890
 C216 C 0.21252 -0.03505 0.66763
 C217 C 0.18133 -0.03549 0.68258
 C218 C 0.16229 0.00003 0.68899
 C219 C 0.17574 0.03604 0.68040
 C220 C 0.20716 0.03650 0.66563
 H221 H 0.33519 -0.05533 0.58081
 H222 H 0.38433 -0.05278 0.55114
 H223 H 0.41460 0.06442 0.57275
 H224 H 0.36526 0.06253 0.60237
 H225 H 0.22636 -0.06296 0.66295
 H226 H 0.17226 -0.06371 0.68919
 H227 H 0.16140 0.06392 0.68463
 H228 H 0.21639 0.06474 0.65911
 C229 C -0.33055 0.00428 0.59039
 C230 C -0.36538 0.02582 0.59464
 C231 C -0.39676 0.02676 0.57842
 C232 C -0.39403 0.00635 0.55743
 C233 C -0.35922 -0.01562 0.55344
 C234 C -0.32800 -0.01663 0.56965
 C235 C -0.29675 0.00386 0.60722
 N236 N -0.26355 -0.01765 0.60306
 N237 N -0.23282 -0.01764 0.61786
 C238 C -0.23388 0.00391 0.63747
 N239 N -0.26714 0.02537 0.64170
 N240 N -0.29793 0.02534 0.62688
 C241 C -0.19921 0.00429 0.65364
 C242 C -0.19947 0.02735 0.67370
 C243 C -0.16632 0.02805 0.68861
 C244 C -0.13220 0.00579 0.68375
 C245 C -0.13212 -0.01751 0.66383
 C246 C -0.16516 -0.01825 0.64896
 H247 H -0.36834 0.04230 0.61043
 H248 H -0.42278 0.04447 0.58200
 H249 H -0.35634 -0.03268 0.53784
 H250 H -0.30177 -0.03380 0.56583
 H251 H -0.22517 0.04510 0.67783
 H252 H -0.16717 0.04655 0.70374
 H253 H -0.10655 -0.03555 0.65981
 H254 H -0.16391 -0.03652 0.63376
 C255 C 0.01280 -0.33785 0.90718
 C256 C -0.01260 -0.36938 0.90334
 C257 C -0.01562 -0.39921 0.91997
 C258 C 0.00685 -0.39821 0.94067
 C259 C 0.03252 -0.36705 0.94446
 C260 C 0.03540 -0.33710 0.92793
 C261 C 0.01538 -0.30563 0.88984
 N262 N 0.03626 -0.27293 0.89469
 N263 N 0.03806 -0.24362 0.87933
 C264 C 0.01914 -0.24577 0.85840
 N265 N -0.00160 -0.27857 0.85349
 N266 N -0.00347 -0.30786 0.86889
 C267 C 0.02050 -0.21268 0.84153
 C268 C 0.00434 -0.21633 0.81905
 C269 C 0.00482 -0.18468 0.80339
 C270 C 0.02132 -0.14858 0.80987
 C271 C 0.03773 -0.14510 0.83230
 C272 C 0.03744 -0.17677 0.84790
 H273 H -0.03048 -0.37085 0.88760
 H274 H -0.03567 -0.42298 0.91678
 H275 H 0.05026 -0.36591 0.96029
 H276 H 0.05536 -0.31338 0.93143
 H277 H -0.00873 -0.24365 0.81352
 H278 H -0.00756 -0.18855 0.78615
 H279 H 0.05006 -0.11753 0.83801
 H280 H 0.04997 -0.17281 0.86510
 C281 C 0.00933 0.33582 0.90691
 C282 C -0.01642 0.36881 0.90331
 C283 C -0.01864 0.39869 0.91979
 C284 C 0.00480 0.39612 0.94013
 C285 C 0.03086 0.36358 0.94365
 C286 C 0.03312 0.33372 0.92723
 C287 C 0.01097 0.30341 0.88986
 N288 N 0.03535 0.27132 0.89365
 N289 N 0.03632 0.24173 0.87865
 C290 C 0.01296 0.24291 0.85920
 N291 N -0.01133 0.27509 0.85534
 N292 N -0.01230 0.30471 0.87035
 C293 C 0.01351 0.20942 0.84284
 C294 C -0.01061 0.21036 0.82265
 C295 C -0.01063 0.17823 0.80760
 C296 C 0.01335 0.14442 0.81244
 C297 C 0.03776 0.14368 0.83247
 C298 C 0.03786 0.17576 0.84747
 H299 H -0.03512 0.37141 0.88787
 H300 H -0.03896 0.42362 0.91682
 H301 H 0.04930 0.36123 0.95922
 H302 H 0.05333 0.30884 0.93057
 H303 H -0.02974 0.23579 0.81855
 H304 H -0.03001 0.17952 0.79240
 H305 H 0.05704 0.11832 0.83649
 H306 H 0.05695 0.17403 0.86278
 C307 C -0.34530 -0.00277 0.40607
 C308 C -0.37687 0.02488 0.40348
 C309 C -0.40581 0.02708 0.41993
 C310 C -0.40386 0.00149 0.43912
 C311 C -0.37279 -0.02655 0.44153
 C312 C -0.34375 -0.02859 0.42524
 C313 C -0.31369 -0.00429 0.38922
 N314 N -0.28034 -0.02638 0.39374
 N315 N -0.25150 -0.02728 0.37891
 C316 C -0.25477 -0.00624 0.35887
 N317 N -0.28820 0.01573 0.35427
 N318 N -0.31703 0.01674 0.36916
 C319 C -0.22226 -0.00689 0.34261
 C320 C -0.22743 0.00972 0.32038
 C321 C -0.19650 0.00925 0.30521
 C322 C -0.15962 -0.00760 0.31197
 C323 C -0.15453 -0.02413 0.33422
 C324 C -0.18547 -0.02393 0.34930
 H325 H -0.37892 0.04525 0.38896
 H326 H -0.42952 0.04902 0.41784
 H327 H -0.37089 -0.04664 0.45620
 H328 H -0.32001 -0.05037 0.42772
 H329 H -0.25545 0.02289 0.31463
 H330 H -0.20161 0.02175 0.28810
 H331 H -0.12635 -0.03666 0.34018
 H332 H -0.18033 -0.03672 0.36634
 C333 C 0.32895 0.00687 0.40744
 C334 C 0.34694 -0.02902 0.41528
 C335 C 0.37786 -0.02904 0.43176
 C336 C 0.39175 0.00680 0.44034
 C337 C 0.37429 0.04266 0.43236
 C338 C 0.34297 0.04272 0.41616
 C339 C 0.29534 0.00690 0.39057
 N340 N 0.27081 0.03917 0.38801
 N341 N 0.24007 0.03895 0.37319
 C342 C 0.23274 0.00655 0.36021
 N343 N 0.25743 -0.02563 0.36266
 N344 N 0.28802 -0.02551 0.37759
 C345 C 0.19816 0.00605 0.34406
 C346 C 0.19604 -0.02201 0.32634
 C347 C 0.16305 -0.02286 0.31136
 C348 C 0.13129 0.00388 0.31405
 C349 C 0.13339 0.03199 0.33169
 C350 C 0.16663 0.03327 0.34644
 H351 H 0.33667 -0.05712 0.40900
 H352 H 0.39095 -0.05697 0.43788
 H353 H 0.38467 0.07056 0.43891
 H354 H 0.32984 0.07083 0.41041
 H355 H 0.21992 -0.04327 0.32401
 H356 H 0.16198 -0.04498 0.29797
 H357 H 0.10937 0.05310 0.33399
 H358 H 0.16732 0.05518 0.35995
   
