data_POSCAR
  _audit_creation_date              2014-09-24
  _audit_creation_method            'ToBaCCo'
  _symmetry_space_group_name_H-M    'P1'
  _symmetry_Int_Tables_number       1
  _symmetry_cell_setting            triclinic
  loop_
  _symmetry_equiv_pos_as_xyz
 x,y,z
_cell_length_a 50.6947
_cell_length_b 53.6380
_cell_length_c 49.7879
_cell_angle_alpha 90.549400
_cell_angle_beta 89.459300
_cell_angle_gamma 91.208000
loop_
  _atom_site_label
  _atom_site_type_symbol
  _atom_site_fract_x
  _atom_site_fract_y
  _atom_site_fract_z
C1 C 0.21857 0.21855 0.24583
 C2 C 0.21807 0.23594 0.22506
 C3 C 0.24002 0.23968 0.20879
 C4 C 0.26286 0.22597 0.21320
 C5 C 0.26329 0.20889 0.23374
 C6 C 0.24091 0.20505 0.25008
 C7 C 0.19919 0.20930 0.26265
 N8 N 0.20898 0.19016 0.27715
 C9 C 0.23475 0.18770 0.26943
 C10 C 0.28671 0.19659 0.23168
 N11 N 0.30079 0.20550 0.21017
 C12 C 0.28608 0.22370 0.19895
 C13 C 0.23290 0.25581 0.18884
 N14 N 0.20718 0.26180 0.19266
 C15 C 0.19807 0.24973 0.21485
 H16 H 0.17902 0.21541 0.26274
 H17 H 0.24825 0.17399 0.27657
 H18 H 0.29192 0.18115 0.24419
 H19 H 0.29112 0.23428 0.18122
 H20 H 0.24518 0.26180 0.17211
 H21 H 0.17815 0.25050 0.22278
 C22 C -0.19396 0.78299 0.21172
 C23 C -0.19247 0.76431 0.19189
 C24 C -0.20993 0.76399 0.17070
 C25 C -0.22908 0.78239 0.16904
 C26 C -0.23058 0.80062 0.18864
 C27 C -0.21292 0.80092 0.21013
 C28 C -0.17830 0.78911 0.23330
 N29 N -0.18717 0.81053 0.24505
 C30 C -0.20859 0.81762 0.23078
 C31 C -0.24963 0.81685 0.18104
 N32 N -0.25996 0.80916 0.15704
 C33 C -0.24727 0.78786 0.14976
 C34 C -0.20276 0.74492 0.15365
 N35 N -0.18135 0.73367 0.16394
 C36 C -0.17497 0.74547 0.18737
 H37 H -0.16146 0.77861 0.23939
 H38 H -0.21966 0.83441 0.23390
 H39 H -0.25443 0.83364 0.19203
 H40 H -0.25047 0.77697 0.13168
 H41 H -0.21186 0.74025 0.13463
 H42 H -0.15863 0.74089 0.20011
 C43 C -0.22724 0.22874 -0.27439
 C44 C -0.22406 0.24492 -0.25229
 C45 C -0.24334 0.24579 -0.23247
 C46 C -0.26609 0.23054 -0.23456
 C47 C -0.26918 0.21475 -0.25634
 C48 C -0.24959 0.21382 -0.27638
 C49 C -0.21051 0.22192 -0.29496
 N50 N -0.22196 0.20292 -0.30952
 C51 C -0.24612 0.19816 -0.29806
 C52 C -0.29141 0.20029 -0.25170
 N53 N -0.30214 0.20662 -0.22736
 C54 C -0.28655 0.22540 -0.21698
 C55 C -0.23386 0.26112 -0.21228
 N56 N -0.20931 0.26962 -0.21932
 C57 C -0.20323 0.25978 -0.24382
 H58 H -0.19085 0.22964 -0.29777
 H59 H -0.26013 0.18375 -0.30399
 H60 H -0.29802 0.18531 -0.26480
 H61 H -0.28885 0.23432 -0.19759
 H62 H -0.24395 0.26531 -0.19357
 H63 H -0.18451 0.26221 -0.25419
 C64 C 0.17156 0.78840 -0.20201
 C65 C 0.17526 0.76605 -0.18837
 C66 C 0.19321 0.76509 -0.16767
 C67 C 0.20782 0.78665 -0.16040
 C68 C 0.20404 0.80859 -0.17392
 C69 C 0.18584 0.80946 -0.19487
 C70 C 0.15476 0.79491 -0.22214
 N71 N 0.15838 0.81965 -0.22766
 C72 C 0.17760 0.82851 -0.21081
 C73 C 0.22011 0.82652 -0.16249
 N74 N 0.23396 0.81626 -0.14212
 C75 C 0.22634 0.79168 -0.14088
 C76 C 0.19158 0.74130 -0.15743
 N77 N 0.17301 0.72796 -0.17136
 C78 C 0.16311 0.74304 -0.19042
 H79 H 0.14102 0.78212 -0.23180
 H80 H 0.18495 0.84751 -0.20935
 H81 H 0.22164 0.84555 -0.16931
 H82 H 0.23314 0.77823 -0.12663
 H83 H 0.20237 0.73459 -0.14039
 H84 H 0.14790 0.73781 -0.20463
 C85 C 0.24318 1.21831 0.74203
 C86 C 0.26399 1.21774 0.76037
 C87 C 0.26586 1.23552 0.78058
 C88 C 0.24688 1.25415 0.78272
 C89 C 0.22652 1.25473 0.76458
 C90 C 0.22459 1.23660 0.74414
 C91 C 0.23517 1.20216 0.72197
 N92 N 0.21188 1.20996 0.71167
 C93 C 0.20555 1.23128 0.72533
 C94 C 0.21010 1.27350 0.77260
 N95 N 0.21974 1.28453 0.79543
 C96 C 0.24244 1.27258 0.80155
 C97 C 0.28660 1.22912 0.79662
 N98 N 0.29732 1.20786 0.78667
 C99 C 0.28356 1.20086 0.76443
 H100 H 0.24534 1.18533 0.71653
 H101 H 0.18809 1.24214 0.72265
 H102 H 0.19176 1.27764 0.76289
 H103 H 0.25498 1.27646 0.81857
 H104 H 0.29256 1.23861 0.81493
 H105 H 0.28710 1.18439 0.75231
 C106 C 0.80919 0.80115 0.79445
 C107 C 0.78988 0.80320 0.81464
 C108 C 0.78729 0.78505 0.83403
 C109 C 0.80410 0.76458 0.83351
 C110 C 0.82315 0.76260 0.81368
 C111 C 0.82578 0.78111 0.79397
 C112 C 0.81651 0.81641 0.77358
 N113 N 0.83740 0.80637 0.76009
 C114 C 0.84306 0.78462 0.77272
 C115 C 0.83688 0.74129 0.81869
 N116 N 0.82676 0.73006 0.84121
 C117 C 0.80655 0.74452 0.85019
 C118 C 0.76750 0.79228 0.85140
 N119 N 0.75806 0.81443 0.84303
 C120 C 0.77168 0.82117 0.82049
 H121 H 0.80743 0.83399 0.76946
 H122 H 0.85846 0.77189 0.76714
 H123 H 0.85337 0.73506 0.80669
 H124 H 0.79425 0.74119 0.86767
 H125 H 0.76096 0.78242 0.86920
 H126 H 0.76861 0.83790 0.80905
 C127 C 0.19862 0.79938 1.22512
 C128 C 0.21726 0.80194 1.20424
 C129 C 0.22121 0.78241 1.18647
 C130 C 0.20667 0.76008 1.18930
 C131 C 0.18827 0.75756 1.20980
 C132 C 0.18420 0.77743 1.22784
 C133 C 0.18997 0.81554 1.24473
 N134 N 0.17045 0.80413 1.25957
 C135 C 0.16698 0.78066 1.24906
 C136 C 0.17619 0.73448 1.20666
 N137 N 0.18678 0.72300 1.18470
 C138 C 0.20553 0.73860 1.17408
 C139 C 0.23943 0.79038 1.16764
 N140 N 0.24672 0.81434 1.17347
 C141 C 0.23325 0.82153 1.19592
 H142 H 0.19724 0.83449 1.24713
 H143 H 0.15308 0.76656 1.25601
 H144 H 0.16013 0.72706 1.21886
 H145 H 0.21733 0.73481 1.15634
 H146 H 0.24677 0.77945 1.15089
 H147 H 0.23435 0.83988 1.20510
 C148 C 0.77366 1.20330 1.25766
 C149 C 0.75098 1.20297 1.24167
 C150 C 0.74913 1.21943 1.22063
 C151 C 0.76991 1.23630 1.21514
 C152 C 0.79226 1.23661 1.23083
 C153 C 0.79413 1.21992 1.25228
 C154 C 0.78138 1.18867 1.27857
 N155 N 0.80624 1.19580 1.28631
 C156 C 0.81398 1.21507 1.27005
 C157 C 0.80960 1.25396 1.21992
 N158 N 0.79831 1.26409 1.19797
 C159 C 0.77398 1.25334 1.19501
 C160 C 0.72596 1.21395 1.20754
 N161 N 0.71362 1.19446 1.21999
 C162 C 0.72883 1.18765 1.24096
 H163 H 0.76962 1.17345 1.28667
 H164 H 0.83269 1.22506 1.27055
 H165 H 0.82934 1.25823 1.22695
 H166 H 0.76020 1.25747 1.17927
 H167 H 0.71928 1.22274 1.18942
 H168 H 0.72444 1.17234 1.25440
 O169 O 0.52212 0.97642 0.95737
 O170 O 0.47272 0.97558 1.03270
 O171 O 0.55140 0.99948 1.02802
 O172 O 0.44289 1.00167 0.97945
 O173 O 0.51983 0.97357 1.03519
 O174 O 0.47196 0.97520 0.96570
 O175 O 0.44403 1.00341 1.02787
 O176 O 0.55310 0.99751 0.97869
 C177 C 0.54579 0.97941 0.96397
 C178 C 0.44921 0.98127 1.03283
 C179 C 0.54384 0.97761 1.03264
 C180 C 0.44863 0.97991 0.97179
 O181 O 0.47046 1.02132 0.94688
 O182 O 0.52207 1.02037 1.05711
 O183 O 0.54177 1.04464 0.97521
 O184 O 0.46971 1.04837 1.02577
 O185 O 0.47469 1.02179 1.05676
 O186 O 0.51924 1.02380 0.94447
 O187 O 0.46586 1.04831 0.97790
 O188 O 0.53481 1.04635 1.02641
 Co189 Co 0.49597 1.00018 0.95824
 Co190 Co 0.49731 0.99892 1.04183
 Co191 Co 0.54075 1.02113 1.00226
 Co192 Co 0.45910 1.02421 1.00263
 O193 O 0.49853 1.01105 1.00100
 C194 C 0.46592 1.04328 0.95365
 C195 C 0.53095 1.04165 1.05061
 C196 C 0.53449 1.04171 0.95134
 C197 C 0.47098 1.04388 1.05004
 O198 O 0.02869 0.45712 0.04840
 O199 O 0.01325 0.50244 -0.05806
 O200 O 0.03433 0.43935 -0.01765
 O201 O 0.04853 0.51392 0.01646
 O202 O 0.02276 0.45760 -0.05354
 O203 O 0.02813 0.50341 0.05261
 O204 O 0.04250 0.50649 -0.02934
 O205 O 0.01159 0.42705 0.02457
 C206 C 0.02768 0.43454 0.04201
 C207 C 0.03629 0.50860 -0.05287
 C208 C 0.03922 0.44488 -0.04132
 C209 C 0.04774 0.51325 0.04129
 O210 O -0.02225 0.50404 0.04800
 O211 O -0.02847 0.44969 -0.03907
 O212 O -0.03333 0.44257 0.00769
 O213 O -0.00818 0.52703 -0.02515
 O214 O -0.03370 0.49553 -0.03663
 O215 O -0.02375 0.45630 0.04744
 O216 O -0.00101 0.53147 0.02258
 O217 O -0.00920 0.41611 -0.02476
 Co218 Co 0.00279 0.47991 0.04449
 Co219 Co -0.00528 0.47645 -0.04245
 Co220 Co 0.00082 0.44320 -0.00540
 Co221 Co 0.01930 0.51668 -0.00404
 O222 O 0.00537 0.48033 0.00040
 C223 C -0.01900 0.52599 0.03965
 C224 C -0.02469 0.42636 -0.04237
 C225 C -0.03900 0.44441 0.03204
 C226 C -0.03041 0.51853 -0.03280
 O227 O 1.05003 0.02111 0.48382
 O228 O 0.94195 0.00734 0.52791
 O229 O 0.98553 0.02901 0.46261
 O230 O 1.01569 0.03958 0.54361
 O231 O 0.94879 0.01686 0.47984
 O232 O 1.05075 0.01964 0.53370
 O233 O 0.97088 0.03482 0.53417
 O234 O 1.02690 0.00735 0.45019
 C235 C 1.04524 0.02098 0.45925
 C236 C 0.94732 0.02932 0.53368
 C237 C 0.96193 0.03306 0.46721
 C238 C 1.04010 0.03874 0.54285
 O239 O 1.04350 -0.02797 0.53358
 O240 O 0.96167 -0.03125 0.47142
 O241 O 1.00766 -0.03529 0.46505
 O242 O 0.97137 -0.01369 0.55565
 O243 O 0.96156 -0.03715 0.52096
 O244 O 1.04620 -0.02828 0.48203
 O245 O 1.01827 -0.00769 0.56234
 O246 O 0.97827 -0.01147 0.43641
 Co247 Co 1.04308 -0.00369 0.50781
 Co248 Co 0.95780 -0.00992 0.50045
 Co249 Co 0.99611 -0.00294 0.46631
 Co250 Co 0.99401 0.01221 0.54565
 O251 O 0.99996 -0.00016 0.50647
 C252 C 1.03424 -0.02504 0.55691
 C253 C 0.96018 -0.02687 0.44626
 C254 C 1.03103 -0.04148 0.46777
 C255 C 0.96440 -0.03470 0.54586
 C256 C 1.19115 0.13761 0.32215
 C257 C 1.16521 0.14335 0.32904
 C258 C 1.15420 0.16512 0.31946
 C259 C 1.16885 0.18094 0.30263
 C260 C 1.19499 0.17524 0.29481
 C261 C 1.20595 0.15335 0.30532
 C262 C 1.14970 0.12677 0.34565
 C263 C 1.13651 0.11294 0.35945
 C264 C 1.12098 0.09690 0.37566
 C265 C 1.10773 0.08335 0.38972
 C266 C 1.09210 0.06744 0.40694
 C267 C 1.09744 0.06687 0.43442
 C268 C 1.08222 0.05169 0.45139
 C269 C 1.06140 0.03682 0.44106
 C270 C 1.05618 0.03746 0.41338
 C271 C 1.07147 0.05271 0.39642
 H272 H 1.19988 0.12076 0.32955
 H273 H 1.13415 0.16985 0.32490
 H274 H 1.15939 0.19762 0.29608
 H275 H 1.22569 0.14770 0.30026
 H276 H 1.11335 0.07823 0.44276
 H277 H 1.08673 0.05164 0.47261
 H278 H 1.04027 0.02627 0.40485
 H279 H 1.06716 0.05307 0.37516
 C280 C 0.86121 -0.16913 0.29664
 C281 C 0.84879 -0.14833 0.30757
 C282 C 0.82387 -0.14193 0.29854
 C283 C 0.81163 -0.15589 0.27818
 C284 C 0.82416 -0.17662 0.26621
 C285 C 0.84906 -0.18321 0.27630
 C286 C 0.86207 -0.13292 0.32722
 C287 C 0.87346 -0.11967 0.34319
 C288 C 0.88710 -0.10387 0.36137
 C289 C 0.89906 -0.09022 0.37651
 C290 C 0.91372 -0.07385 0.39417
 C291 C 0.92947 -0.05457 0.38347
 C292 C 0.94436 -0.03904 0.40047
 C293 C 0.94368 -0.04265 0.42839
 C294 C 0.92755 -0.06187 0.43901
 C295 C 0.91267 -0.07739 0.42197
 H296 H 0.88058 -0.17422 0.30349
 H297 H 0.81399 -0.12592 0.30703
 H298 H 0.79229 -0.15019 0.27215
 H299 H 0.85988 -0.19869 0.26815
 H300 H 0.93042 -0.05168 0.36197
 H301 H 0.95655 -0.02435 0.39173
 H302 H 0.92665 -0.06508 0.46045
 H303 H 0.90054 -0.09227 0.43045
 C304 C 0.78929 0.15405 0.63857
 C305 C 0.81486 0.16028 0.63003
 C306 C 0.82748 0.18163 0.64035
 C307 C 0.81499 0.19629 0.65980
 C308 C 0.78950 0.18976 0.66968
 C309 C 0.77665 0.16862 0.65802
 C310 C 0.82894 0.14383 0.61227
 C311 C 0.84150 0.12974 0.59844
 C312 C 0.85716 0.11305 0.58353
 C313 C 0.87145 0.09877 0.57193
 C314 C 0.88966 0.08186 0.55953
 C315 C 0.91599 0.08946 0.55585
 C316 C 0.93458 0.07247 0.54670
 C317 C 0.92708 0.04758 0.54115
 C318 C 0.90041 0.04026 0.54396
 C319 C 0.88180 0.05732 0.55322
 H320 H 0.77931 0.13752 0.63069
 H321 H 0.84732 0.18667 0.63380
 H322 H 0.82582 0.21244 0.66713
 H323 H 0.75711 0.16257 0.66412
 H324 H 0.92231 0.10837 0.56078
 H325 H 0.95496 0.07867 0.54457
 H326 H 0.89411 0.02121 0.53974
 H327 H 0.86148 0.05121 0.55614
 C328 C 1.11022 -0.16383 0.72007
 C329 C 1.11753 -0.13903 0.71524
 C330 C 1.13838 -0.12799 0.72941
 C331 C 1.15198 -0.14164 0.74838
 C332 C 1.14499 -0.16684 0.75366
 C333 C 1.12373 -0.17761 0.73901
 C334 C 1.10403 -0.12501 0.69534
 C335 C 1.09318 -0.11311 0.67846
 C336 C 1.08114 -0.09901 0.65842
 C337 C 1.07152 -0.08682 0.64101
 C338 C 1.06095 -0.07212 0.61984
 C339 C 1.04306 -0.05326 0.62570
 C340 C 1.03405 -0.03809 0.60518
 C341 C 1.04287 -0.04163 0.57855
 C342 C 1.06049 -0.06093 0.57284
 C343 C 1.06948 -0.07603 0.59337
 H344 H 1.09407 -0.17257 0.70913
 H345 H 1.14429 -0.10879 0.72568
 H346 H 1.16813 -0.13218 0.75842
 H347 H 1.11704 -0.19660 0.74204
 H348 H 1.03639 -0.05005 0.64615
 H349 H 1.02049 -0.02339 0.61022
 H350 H 1.06762 -0.06420 0.55257
 H351 H 1.08337 -0.09056 0.58865
 C352 C 0.36037 1.16693 1.20359
 C353 C 0.36934 1.17355 1.17800
 C354 C 0.35671 1.19227 1.16404
 C355 C 0.33453 1.20366 1.17512
 C356 C 0.32419 1.19629 1.20041
 C357 C 0.33820 1.17822 1.21478
 C358 C 0.38964 1.15940 1.16495
 C359 C 0.40538 1.14668 1.15320
 C360 C 0.42218 1.13095 1.13839
 C361 C 0.43500 1.11695 1.12473
 C362 C 0.44828 1.09977 1.10715
 C363 C 0.45233 1.10601 1.08019
 C364 C 0.46090 1.08805 1.06181
 C365 C 0.46541 1.06354 1.07015
 C366 C 0.46272 1.05777 1.09755
 C367 C 0.45406 1.07579 1.11593
 H368 H 0.37007 1.15247 1.21463
 H369 H 0.36346 1.19748 1.14411
 H370 H 0.32511 1.21741 1.16302
 H371 H 0.33213 1.17231 1.23459
 H372 H 0.44778 1.12447 1.07315
 H373 H 0.46302 1.09311 1.04088
 H374 H 0.46623 1.03909 1.10456
 H375 H 0.45082 1.07072 1.13673
 C376 C 0.28787 0.82794 0.90673
 C377 C 0.29118 0.85380 0.90479
 C378 C 0.27491 0.86711 0.88792
 C379 C 0.25570 0.85473 0.87265
 C380 C 0.25225 0.82850 0.87377
 C381 C 0.26856 0.81538 0.89150
 C382 C 0.31187 0.86692 0.91903
 C383 C 0.32919 0.87900 0.92974
 C384 C 0.34943 0.89421 0.94085
 C385 C 0.36672 0.90794 0.94909
 C386 C 0.38738 0.92506 0.95741
 C387 C 0.38106 0.94854 0.96785
 C388 C 0.40103 0.96625 0.97305
 C389 C 0.42760 0.96070 0.96782
 C390 C 0.43381 0.93677 0.95817
 C391 C 0.41380 0.91911 0.95292
 H392 H 0.30046 0.81741 0.91971
 H393 H 0.27725 0.88717 0.88634
 H394 H 0.24360 0.86614 0.86025
 H395 H 0.26719 0.79536 0.89326
 H396 H 0.36066 0.95337 0.97131
 H397 H 0.39563 0.98444 0.98068
 H398 H 0.45408 0.93187 0.95411
 H399 H 0.41891 0.90105 0.94472
 C400 C 0.68987 0.85496 1.13831
 C401 C 0.68412 0.84737 1.11210
 C402 C 0.69642 0.82656 1.10104
 C403 C 0.71475 0.81356 1.11604
 C404 C 0.72128 0.82123 1.14251
 C405 C 0.70812 0.84210 1.15339
 C406 C 0.66589 0.86142 1.09668
 C407 C 0.65065 0.87403 1.08469
 C408 C 0.63281 0.88971 1.07187
 C409 C 0.61752 0.90380 1.06205
 C410 C 0.59919 0.92135 1.05180
 C411 C 0.57211 0.91576 1.05242
 C412 C 0.55406 0.93387 1.04544
 C413 C 0.56292 0.95785 1.03791
 C414 C 0.59020 0.96303 1.03646
 C415 C 0.60822 0.94488 1.04340
 H416 H 0.68029 0.87100 1.14713
 H417 H 0.69207 0.82052 1.08071
 H418 H 0.72400 0.79790 1.10633
 H419 H 0.71149 0.84873 1.17361
 H420 H 0.56492 0.89765 1.05902
 H421 H 0.53317 0.92931 1.04660
 H422 H 0.59759 0.98128 1.03057
 H423 H 0.62914 0.94942 1.04295
 C424 C 0.64942 1.18771 0.82533
 C425 C 0.63626 1.16786 0.81256
 C426 C 0.64238 1.16202 0.78588
 C427 C 0.66223 1.17541 0.77226
 C428 C 0.67673 1.19489 0.78518
 C429 C 0.66930 1.20117 0.81185
 C430 C 0.61802 1.15234 0.82755
 C431 C 0.60385 1.13897 0.84094
 C432 C 0.58864 1.12306 0.85766
 C433 C 0.57693 1.10940 0.87295
 C434 C 0.56463 1.09320 0.89248
 C435 C 0.54696 1.07409 0.88472
 C436 C 0.53669 1.05747 0.90388
 C437 C 0.54414 1.05976 0.93099
 C438 C 0.56149 1.07936 0.93856
 C439 C 0.57163 1.09589 0.91945
 H440 H 0.64481 1.19240 0.84604
 H441 H 0.63222 1.14670 0.77574
 H442 H 0.66614 1.16995 0.75173
 H443 H 0.67910 1.21594 0.82300
 H444 H 0.54145 1.07182 0.86386
 H445 H 0.52326 1.04267 0.89745
 H446 H 0.56758 1.08175 0.95923
 H447 H 0.58534 1.11056 0.92567
 C448 C 0.14908 0.28789 0.15722
 C449 C 0.16086 0.30783 0.14338
 C450 C 0.18811 0.31228 0.14523
 C451 C 0.20347 0.29697 0.16115
 C452 C 0.19169 0.27712 0.17550
 C453 C 0.16435 0.27264 0.17314
 C454 C 0.14466 0.32407 0.12808
 C455 C 0.13047 0.33761 0.11590
 C456 C 0.11335 0.35350 0.10235
 C457 C 0.09848 0.36724 0.09133
 C458 C 0.08063 0.38398 0.07882
 C459 C 0.08062 0.40909 0.08662
 C460 C 0.06321 0.42546 0.07480
 C461 C 0.04551 0.41691 0.05497
 C462 C 0.04560 0.39160 0.04728
 C463 C 0.06307 0.37524 0.05916
 H464 H 0.12803 0.28425 0.15588
 H465 H 0.19741 0.32773 0.13467
 H466 H 0.22441 0.30098 0.16274
 H467 H 0.15475 0.25725 0.18349
 H468 H 0.09409 0.41603 0.10186
 H469 H 0.06369 0.44484 0.08112
 H470 H 0.03228 0.38448 0.03201
 H471 H 0.06289 0.35581 0.05302
 C472 C -0.17666 0.29880 -0.15891
 C473 C -0.15722 0.31395 -0.17101
 C474 C -0.15522 0.31477 -0.19904
 C475 C -0.17246 0.30039 -0.21492
 C476 C -0.19198 0.28497 -0.20296
 C477 C -0.19392 0.28442 -0.17474
 C478 C -0.13924 0.32848 -0.15464
 C479 C -0.12422 0.34061 -0.14085
 C480 C -0.10674 0.35483 -0.12460
 C481 C -0.09197 0.36709 -0.11066
 C482 C -0.07462 0.38194 -0.09392
 C483 C -0.07720 0.40785 -0.09276
 C484 C -0.06078 0.42231 -0.07614
 C485 C -0.04156 0.41103 -0.06041
 C486 C -0.03893 0.38500 -0.06183
 C487 C -0.05539 0.37055 -0.07849
 H488 H -0.17835 0.29797 -0.13723
 H489 H -0.14031 0.32650 -0.20863
 H490 H -0.17064 0.30148 -0.23655
 H491 H -0.20842 0.27251 -0.16485
 H492 H -0.09201 0.41686 -0.10459
 H493 H -0.06329 0.44231 -0.07544
 H494 H -0.02427 0.37581 -0.04999
 H495 H -0.05322 0.35050 -0.07923
 C496 C 0.12876 0.67121 -0.16609
 C497 C 0.14528 0.65442 -0.15359
 C498 C 0.17125 0.66164 -0.14745
 C499 C 0.18056 0.68570 -0.15356
 C500 C 0.16393 0.70284 -0.16584
 C501 C 0.13796 0.69521 -0.17217
 C502 C 0.13475 0.63052 -0.14546
 C503 C 0.12482 0.61120 -0.13790
 C504 C 0.11210 0.58954 -0.12789
 C505 C 0.10049 0.57199 -0.11807
 C506 C 0.08598 0.55241 -0.10457
 C507 C 0.09613 0.54245 -0.08106
 C508 C 0.08034 0.52691 -0.06501
 C509 C 0.05414 0.52118 -0.07225
 C510 C 0.04459 0.53000 -0.09673
 C511 C 0.06042 0.54568 -0.11275
 H512 H 0.10852 0.66592 -0.17063
 H513 H 0.18417 0.64881 -0.13760
 H514 H 0.20070 0.69089 -0.14869
 H515 H 0.12444 0.70798 -0.18113
 H516 H 0.11580 0.54767 -0.07444
 H517 H 0.08824 0.52029 -0.04629
 H518 H 0.02447 0.52591 -0.10274
 H519 H 0.05231 0.55346 -0.13081
 C520 C -0.12600 0.69190 0.14363
 C521 C -0.13905 0.67480 0.12675
 C522 C -0.16609 0.67701 0.12220
 C523 C -0.18004 0.69630 0.13447
 C524 C -0.16709 0.71361 0.15149
 C525 C -0.13989 0.71118 0.15593
 C526 C -0.12459 0.65504 0.11414
 C527 C -0.11215 0.63859 0.10381
 C528 C -0.09722 0.61944 0.09200
 C529 C -0.08418 0.60313 0.08222
 C530 C -0.06832 0.58368 0.07093
 C531 C -0.04843 0.58946 0.05220
 C532 C -0.03241 0.57068 0.04192
 C533 C -0.03613 0.54585 0.05026
 C534 C -0.05634 0.54021 0.06893
 C535 C -0.07230 0.55903 0.07921
 H536 H -0.10505 0.69040 0.14721
 H537 H -0.17639 0.66381 0.10921
 H538 H -0.20099 0.69751 0.13089
 H539 H -0.12924 0.72440 0.16853
 H540 H -0.04516 0.60851 0.04570
 H541 H -0.01701 0.57565 0.02761
 H542 H -0.05976 0.52129 0.07573
 H543 H -0.08763 0.55438 0.09374
 C544 C 1.15576 0.19286 0.66727
 C545 C 1.16499 0.17115 0.65504
 C546 C 1.19028 0.16302 0.66077
 C547 C 1.20612 0.17617 0.67911
 C548 C 1.19692 0.19782 0.69241
 C549 C 1.17150 0.20612 0.68563
 C550 C 1.14814 0.15655 0.63755
 C551 C 1.13408 0.14373 0.62346
 C552 C 1.11774 0.12799 0.60758
 C553 C 1.10398 0.11391 0.59458
 C554 C 1.08787 0.09627 0.57974
 C555 C 1.09973 0.07657 0.56591
 C556 C 1.08417 0.05821 0.55328
 C557 C 1.05646 0.05928 0.55438
 C558 C 1.04470 0.07952 0.56771
 C559 C 1.06034 0.09787 0.58037
 H560 H 1.13616 0.19934 0.66295
 H561 H 1.19769 0.14626 0.65131
 H562 H 1.22547 0.16898 0.68264
 H563 H 1.16310 0.22249 0.69475
 H564 H 1.12101 0.07511 0.56536
 H565 H 1.09382 0.04292 0.54312
 H566 H 1.02344 0.08086 0.56891
 H567 H 1.05095 0.11299 0.59111
 C568 C 0.88798 -0.18229 0.70678
 C569 C 0.87819 -0.16103 0.69467
 C570 C 0.85453 -0.15109 0.70394
 C571 C 0.84083 -0.16204 0.72540
 C572 C 0.85052 -0.18334 0.73834
 C573 C 0.87432 -0.19341 0.72830
 C574 C 0.89258 -0.14870 0.67330
 C575 C 0.90405 -0.13734 0.65577
 C576 C 0.91682 -0.12283 0.63576
 C577 C 0.92716 -0.10942 0.61923
 C578 C 0.93880 -0.09215 0.60028
 C579 C 0.95275 -0.07113 0.60977
 C580 C 0.96176 -0.05286 0.59191
 C581 C 0.95697 -0.05532 0.56421
 C582 C 0.94377 -0.07694 0.55468
 C583 C 0.93464 -0.09520 0.57265
 H584 H 0.90637 -0.19013 0.69982
 H585 H 0.84668 -0.13466 0.69465
 H586 H 0.82254 -0.15361 0.73140
 H587 H 0.88303 -0.20950 0.73722
 H588 H 0.95604 -0.06852 0.63110
 H589 H 0.97193 -0.03649 0.59989
 H590 H 0.93977 -0.07937 0.53348
 H591 H 0.92376 -0.11134 0.56508
 C592 C 1.14934 -0.15096 0.31231
 C593 C 1.12770 -0.16367 0.32360
 C594 C 1.12050 -0.18730 0.31382
 C595 C 1.13476 -0.19816 0.29270
 C596 C 1.15663 -0.18550 0.28073
 C597 C 1.16366 -0.16166 0.29121
 C598 C 1.11275 -0.15206 0.34488
 C599 C 1.10064 -0.14152 0.36243
 C600 C 1.08700 -0.12814 0.38262
 C601 C 1.07593 -0.11577 0.39946
 C602 C 1.06350 -0.09975 0.41899
 C603 C 1.03691 -0.09371 0.41645
 C604 C 1.02584 -0.07564 0.43333
 C605 C 1.04133 -0.06327 0.45285
 C606 C 1.06771 -0.07026 0.45600
 C607 C 1.07870 -0.08835 0.43916
 H608 H 1.15516 -0.13264 0.31979
 H609 H 1.10369 -0.19731 0.32238
 H610 H 1.12804 -0.21628 0.28573
 H611 H 1.18032 -0.15101 0.28355
 H612 H 1.02499 -0.10231 0.40082
 H613 H 1.00550 -0.07060 0.43032
 H614 H 1.08016 -0.06110 0.47082
 H615 H 1.09933 -0.09279 0.44124
 C616 C 0.86269 0.18069 0.32997
 C617 C 0.85158 0.16170 0.34571
 C618 C 0.82520 0.15459 0.34214
 C619 C 0.81002 0.16609 0.32271
 C620 C 0.82093 0.18506 0.30613
 C621 C 0.84761 0.19230 0.31048
 C622 C 0.86741 0.14876 0.36480
 C623 C 0.88040 0.13720 0.38039
 C624 C 0.89531 0.12276 0.39809
 C625 C 0.90777 0.10958 0.41259
 C626 C 0.92229 0.09276 0.42901
 C627 C 0.90904 0.07827 0.44833
 C628 C 0.92232 0.05961 0.46182
 C629 C 0.94904 0.05514 0.45607
 C630 C 0.96253 0.07057 0.43757
 C631 C 0.94919 0.08920 0.42407
 H632 H 0.88318 0.18632 0.33250
 H633 H 0.81634 0.13991 0.35425
 H634 H 0.78974 0.15983 0.32105
 H635 H 0.85740 0.20656 0.29867
 H636 H 0.88821 0.08080 0.45229
 H637 H 0.91143 0.04810 0.47604
 H638 H 0.98309 0.06755 0.43268
 H639 H 0.95963 0.10022 0.40908
 C640 C 0.20433 0.32831 -0.14864
 C641 C 0.18200 0.33981 -0.15854
 C642 C 0.17296 0.33363 -0.18420
 C643 C 0.18576 0.31566 -0.19973
 C644 C 0.20800 0.30322 -0.18987
 C645 C 0.21729 0.31032 -0.16410
 C646 C 0.16744 0.35699 -0.14200
 C647 C 0.15435 0.37079 -0.12834
 C648 C 0.13796 0.38621 -0.11259
 C649 C 0.12306 0.39867 -0.09936
 C650 C 0.10417 0.41258 -0.08387
 C651 C 0.08863 0.43023 -0.09641
 C652 C 0.06811 0.44157 -0.08222
 C653 C 0.06284 0.43529 -0.05530
 C654 C 0.07923 0.41827 -0.04254
 C655 C 0.09971 0.40695 -0.05679
 H656 H 0.21146 0.33290 -0.12871
 H657 H 0.15571 0.34250 -0.19213
 H658 H 0.17797 0.31182 -0.21946
 H659 H 0.23404 0.30164 -0.15516
 H660 H 0.09183 0.43466 -0.11739
 H661 H 0.05589 0.45467 -0.09254
 H662 H 0.07564 0.41305 -0.02184
 H663 H 0.11153 0.39322 -0.04691
 C664 C -0.15896 0.31716 0.17276
 C665 C -0.16619 0.31785 0.14571
 C666 C -0.18516 0.30086 0.13592
 C667 C -0.19685 0.28325 0.15307
 C668 C -0.18970 0.28235 0.18031
 C669 C -0.17061 0.29954 0.18995
 C670 C -0.15376 0.33569 0.12795
 C671 C -0.14286 0.35058 0.11336
 C672 C -0.12929 0.36797 0.09687
 C673 C -0.11674 0.38279 0.08359
 C674 C -0.10038 0.40040 0.06903
 C675 C -0.09372 0.39614 0.04201
 C676 C -0.07485 0.41149 0.02922
 C677 C -0.06228 0.43109 0.04348
 C678 C -0.07011 0.43594 0.07017
 C679 C -0.08900 0.42070 0.08282
 H680 H -0.14429 0.33023 0.18057
 H681 H -0.19080 0.30112 0.11499
 H682 H -0.21114 0.27007 0.14487
 H683 H -0.16490 0.29955 0.21084
 H684 H -0.10231 0.38041 0.03117
 H685 H -0.06911 0.40723 0.00870
 H686 H -0.06086 0.45093 0.08165
 H687 H -0.09394 0.42415 0.10373
 C688 C -0.16607 0.67834 -0.11042
 C689 C -0.14532 0.66529 -0.12211
 C690 C -0.13427 0.67349 -0.14635
 C691 C -0.14367 0.69481 -0.15873
 C692 C -0.16443 0.70862 -0.14706
 C693 C -0.17559 0.69967 -0.12268
 C694 C -0.13462 0.64406 -0.10877
 C695 C -0.12496 0.62667 -0.09755
 C696 C -0.11262 0.60682 -0.08445
 C697 C -0.10101 0.59045 -0.07342
 C698 C -0.08563 0.57175 -0.06058
 C699 C -0.08961 0.54637 -0.06659
 C700 C -0.07246 0.52867 -0.05641
 C701 C -0.05101 0.53626 -0.04033
 C702 C -0.04791 0.56167 -0.03352
 C703 C -0.06509 0.57924 -0.04356
 H704 H -0.17476 0.67220 -0.09158
 H705 H -0.11815 0.66351 -0.15563
 H706 H -0.13433 0.70017 -0.17741
 H707 H -0.19145 0.70906 -0.11248
 H708 H -0.10540 0.54036 -0.07982
 H709 H -0.07530 0.50927 -0.06207
 H710 H -0.03165 0.56811 -0.02115
 H711 H -0.06178 0.59880 -0.03879
 C712 C 0.17219 0.67182 0.13470
 C713 C 0.16049 0.65361 0.15111
 C714 C 0.15798 0.65801 0.17877
 C715 C 0.16691 0.68068 0.18992
 C716 C 0.17841 0.69925 0.17350
 C717 C 0.18109 0.69445 0.14577
 C718 C 0.14982 0.63110 0.13912
 C719 C 0.14028 0.61290 0.12827
 C720 C 0.12826 0.59247 0.11475
 C721 C 0.11710 0.57585 0.10264
 C722 C 0.10252 0.55717 0.08767
 C723 C 0.08330 0.54239 0.10060
 C724 C 0.06635 0.52696 0.08557
 C725 C 0.06835 0.52623 0.05735
 C726 C 0.08861 0.54017 0.04464
 C727 C 0.10554 0.55560 0.05973
 H728 H 0.17400 0.66871 0.11323
 H729 H 0.14886 0.64406 0.19165
 H730 H 0.16482 0.68366 0.21135
 H731 H 0.18941 0.70841 0.13246
 H732 H 0.08070 0.54355 0.12220
 H733 H 0.05097 0.51643 0.09595
 H734 H 0.09065 0.54004 0.02297
 H735 H 0.12026 0.56706 0.04951
 C736 C 0.33884 1.15449 0.80810
 C737 C 0.35743 1.16672 0.82441
 C738 C 0.35669 1.19264 0.82767
 C739 C 0.33722 1.20624 0.81495
 C740 C 0.31817 1.19406 0.79882
 C741 C 0.31937 1.16802 0.79538
 C742 C 0.37627 1.15239 0.83886
 C743 C 0.39125 1.13991 0.85142
 C744 C 0.40777 1.12483 0.86678
 C745 C 0.42091 1.11162 0.88056
 C746 C 0.43528 1.09554 0.89792
 C747 C 0.43943 1.10260 0.92470
 C748 C 0.45041 1.08591 0.94260
 C749 C 0.45730 1.06184 0.93396
 C750 C 0.45415 1.05525 0.90675
 C751 C 0.44310 1.07200 0.88886
 H752 H 0.33907 1.13440 0.80560
 H753 H 0.37095 1.20231 0.84032
 H754 H 0.33705 1.22627 0.81776
 H755 H 0.30484 1.15796 0.78350
 H756 H 0.43338 1.12073 0.93196
 H757 H 0.45271 1.09158 0.96340
 H758 H 0.45938 1.03689 0.89950
 H759 H 0.43990 1.06630 0.86819
 C760 C 0.28647 0.83990 1.11549
 C761 C 0.30095 0.85911 1.12806
 C762 C 0.29745 0.86367 1.15558
 C763 C 0.27958 0.84904 1.17050
 C764 C 0.26500 0.82960 1.15809
 C765 C 0.26862 0.82525 1.13037
 C766 C 0.31952 0.87403 1.11277
 C767 C 0.33520 0.88659 1.10020
 C768 C 0.35375 0.90148 1.08594
 C769 C 0.36980 0.91444 1.07435
 C770 C 0.38922 0.93034 1.06144
 C771 C 0.41526 0.92250 1.05852
 C772 C 0.43471 0.93882 1.04837
 C773 C 0.42832 0.96323 1.04115
 C774 C 0.40193 0.97065 1.04330
 C775 C 0.38252 0.95430 1.05340
 H776 H 0.28896 0.83625 1.09419
 H777 H 0.30861 0.87846 1.16553
 H778 H 0.27750 0.85270 1.19182
 H779 H 0.25743 0.81072 1.12009
 H780 H 0.42068 0.90400 1.06472
 H781 H 0.45484 0.93255 1.04685
 H782 H 0.39640 0.98930 1.03777
 H783 H 0.36243 0.96056 1.05559
 C784 C 0.64932 1.18231 1.18497
 C785 C 0.64613 1.15653 1.18818
 C786 C 0.66432 1.14353 1.20336
 C787 C 0.68604 1.15611 1.21466
 C788 C 0.68992 1.18188 1.21076
 C789 C 0.67101 1.19491 1.19622
 C790 C 0.62563 1.14315 1.17392
 C791 C 0.60938 1.13175 1.16090
 C792 C 0.59156 1.11814 1.14447
 C793 C 0.57754 1.10625 1.12946
 C794 C 0.56242 1.09169 1.11039
 C795 C 0.54966 1.06948 1.11819
 C796 C 0.53824 1.05365 1.09884
 C797 C 0.53968 1.05979 1.07144
 C798 C 0.55139 1.08274 1.06398
 C799 C 0.56274 1.09852 1.08334
 H800 H 0.63542 1.19256 1.17318
 H801 H 0.66218 1.12353 1.20576
 H802 H 0.70033 1.14547 1.22545
 H803 H 0.67323 1.21480 1.19320
 H804 H 0.54937 1.06397 1.13907
 H805 H 0.52918 1.03620 1.10521
 H806 H 0.55267 1.08808 1.04308
 H807 H 0.57263 1.11563 1.07706
 C808 C 0.69769 0.83052 0.88358
 C809 C 0.69757 0.85648 0.88100
 C810 C 0.71748 0.86855 0.86607
 C811 C 0.73736 0.85476 0.85369
 C812 C 0.73763 0.82864 0.85603
 C813 C 0.71759 0.81667 0.87121
 C814 C 0.67701 0.87086 0.89343
 C815 C 0.65996 0.88331 0.90351
 C816 C 0.64020 0.89838 0.91495
 C817 C 0.62349 0.91164 0.92439
 C818 C 0.60374 0.92794 0.93523
 C819 C 0.57743 0.92522 0.92720
 C820 C 0.55848 0.94178 0.93677
 C821 C 0.56563 0.96136 0.95444
 C822 C 0.59208 0.96373 0.96265
 C823 C 0.61096 0.94712 0.95312
 H824 H 0.68233 0.82096 0.89502
 H825 H 0.71766 0.88864 0.86401
 H826 H 0.75268 0.86461 0.84255
 H827 H 0.71705 0.79660 0.87317
 H828 H 0.57162 0.91047 0.91332
 H829 H 0.53832 0.93941 0.93007
 H830 H 0.59825 0.97854 0.97628
 H831 H 0.63126 0.94942 0.95946
   
