data_POSCAR
  _audit_creation_date              2014-09-24
  _audit_creation_method            'ToBaCCo'
  _symmetry_space_group_name_H-M    'P1'
  _symmetry_Int_Tables_number       1
  _symmetry_cell_setting            triclinic
  loop_
  _symmetry_equiv_pos_as_xyz
 x,y,z
_cell_length_a 28.5838
_cell_length_b 28.5831
_cell_length_c 28.5835
_cell_angle_alpha 89.437900
_cell_angle_beta 90.097700
_cell_angle_gamma 89.620100
loop_
  _atom_site_label
  _atom_site_type_symbol
  _atom_site_fract_x
  _atom_site_fract_y
  _atom_site_fract_z
O1 O 0.56369 0.49963 0.03836
 O2 O 0.43477 0.49908 0.03835
 O3 O 0.49993 0.43500 0.03814
 O4 O 0.49853 0.56370 0.03856
 O5 O 0.49837 0.56470 -0.03860
 O6 O 0.49977 0.43601 -0.03902
 O7 O 0.43460 0.50008 -0.03873
 O8 O 0.56353 0.50064 -0.03880
 Cu9 Cu 0.49924 0.49925 0.04608
 Cu10 Cu 0.49904 0.50046 -0.04651
 C11 C 0.58571 0.50025 -0.00023
 C12 C 0.41245 0.49948 -0.00018
 C13 C 0.50009 0.41344 -0.00051
 C14 C 0.49822 0.58626 0.00005
 O15 O -0.03823 0.56565 0.49954
 O16 O -0.03848 0.43672 0.49999
 O17 O -0.03837 0.50076 0.56411
 O18 O -0.03834 0.50160 0.43540
 O19 O 0.03882 0.50096 0.43557
 O20 O 0.03879 0.50012 0.56427
 O21 O 0.03867 0.43607 0.50014
 O22 O 0.03885 0.56501 0.49970
 Cu23 Cu -0.04608 0.50125 0.49974
 Cu24 Cu 0.04651 0.50048 0.49993
 C25 C 0.00035 0.58756 0.49955
 C26 C 0.00006 0.41429 0.50016
 C27 C 0.00021 0.50028 0.58625
 C28 C 0.00025 0.50143 0.41342
 O29 O 0.49988 0.03853 0.56484
 O30 O 0.49970 0.03819 0.43592
 O31 O 0.43545 0.03821 0.50038
 O32 O 0.56415 0.03850 0.50036
 O33 O 0.56484 -0.03866 0.50134
 O34 O 0.43615 -0.03895 0.50137
 O35 O 0.50040 -0.03897 0.43689
 O36 O 0.50057 -0.03856 0.56582
 Cu37 Cu 0.49973 0.04608 0.50028
 Cu38 Cu 0.50056 -0.04651 0.50146
 C39 C 0.50021 0.00005 0.58756
 C40 C 0.50004 -0.00045 0.41430
 C41 C 0.41374 -0.00042 0.50090
 C42 C 0.58655 -0.00003 0.50081
 C43 C 0.50192 0.12125 -0.08813
 C44 C 0.49969 0.08761 -0.12192
 C45 C 0.49878 0.04476 -0.09874
 N46 N 0.50031 0.05129 -0.05201
 C47 C 0.50219 0.09795 -0.04531
 C48 C 0.49802 0.00087 -0.12109
 C49 C 0.49875 -0.04302 -0.09758
 C50 C 0.50491 -0.08559 -0.11975
 C51 C 0.50452 -0.11964 -0.08556
 C52 C 0.49813 -0.09718 -0.04318
 N53 N 0.49384 -0.05052 -0.05096
 C54 C 0.49658 -0.12049 0.00078
 C55 C 0.49708 -0.09825 0.04474
 C56 C 0.49736 -0.12155 0.08756
 C57 C 0.49971 -0.08792 0.12135
 C58 C 0.50066 -0.04507 0.09817
 N59 N 0.49906 -0.05159 0.05144
 C60 C 0.50152 -0.00118 0.12052
 C61 C 0.50070 0.04271 0.09702
 C62 C 0.49453 0.08527 0.11920
 C63 C 0.49479 0.11932 0.08501
 C64 C 0.50115 0.09687 0.04262
 N65 N 0.50552 0.05022 0.05039
 C66 C 0.50260 0.12019 -0.00134
 H67 H 0.50291 0.15863 -0.09444
 H68 H 0.49909 0.09403 -0.15930
 H69 H 0.51473 0.02549 0.02580
 H70 H 0.50982 -0.09157 -0.15676
 H71 H 0.50908 -0.15676 -0.09132
 H72 H 0.49630 -0.15893 0.09387
 H73 H 0.50035 -0.09434 0.15873
 H74 H 0.49019 0.15643 0.09078
 H75 H 0.48462 -0.02578 -0.02638
 H76 H 0.48966 0.09124 0.15622
 C77 C -0.08703 0.49879 0.87878
 C78 C -0.12096 0.50105 0.91254
 C79 C -0.09797 0.50176 0.95530
 N80 N -0.05121 0.50008 0.94860
 C81 C -0.04430 0.49831 0.90192
 C82 C -0.12052 0.50247 0.99928
 C83 C -0.09720 0.50152 1.04308
 C84 C -0.11956 0.49533 1.08573
 C85 C -0.08550 0.49549 1.11965
 C86 C -0.04304 0.50177 1.09703
 N87 N -0.05062 0.50622 1.05041
 C88 C 0.00082 0.50307 1.12017
 C89 C 0.04488 0.50246 1.09775
 C90 C 0.08760 0.50195 1.12089
 C91 C 0.12153 0.49958 1.08713
 C92 C 0.09855 0.49883 1.04437
 N93 N 0.05179 0.50059 1.05107
 C94 C 0.12110 0.49804 1.00040
 C95 C 0.09779 0.49907 0.95660
 C96 C 0.12015 0.50529 0.91396
 C97 C 0.08609 0.50525 0.88003
 C98 C 0.04361 0.49900 0.90265
 N99 N 0.05119 0.49445 0.94926
 C100 C -0.00025 0.49778 0.87950
 H101 H -0.09318 0.49793 0.84142
 H102 H -0.15832 0.50181 0.90626
 H103 H 0.02650 0.48527 0.97409
 H104 H -0.15659 0.49055 1.09186
 H105 H -0.09141 0.49084 1.15680
 H106 H 0.09376 0.50287 1.15824
 H107 H 0.15889 0.49878 1.09342
 H108 H 0.09201 0.50994 0.84289
 H109 H -0.02594 0.51541 1.02557
 H110 H 0.15718 0.51002 0.90784
 C111 C 0.12142 -0.08795 0.50149
 C112 C 0.08771 -0.12176 0.49929
 C113 C 0.04489 -0.09865 0.49870
 N114 N 0.05151 -0.05193 0.50038
 C115 C 0.09820 -0.04518 0.50205
 C116 C 0.00095 -0.12106 0.49811
 C117 C -0.04289 -0.09765 0.49931
 C118 C -0.08538 -0.12000 0.50570
 C119 C -0.11938 -0.08585 0.50580
 C120 C -0.09696 -0.04333 0.49944
 N121 N -0.05040 -0.05096 0.49471
 C122 C -0.12023 0.00061 0.49830
 C123 C -0.09791 0.04460 0.49871
 C124 C -0.12113 0.08738 0.49927
 C125 C -0.08741 0.12119 0.50136
 C126 C -0.04459 0.09808 0.50190
 N127 N -0.05122 0.05136 0.50028
 C128 C -0.00065 0.12049 0.50239
 C129 C 0.04318 0.09707 0.50125
 C130 C 0.08568 0.11940 0.49484
 C131 C 0.11968 0.08526 0.49486
 C132 C 0.09726 0.04275 0.50128
 N133 N 0.05069 0.05038 0.50595
 C134 C 0.12052 -0.00119 0.50253
 H135 H 0.15881 -0.09422 0.50227
 H136 H 0.09406 -0.15912 0.49850
 H137 H 0.02606 0.02563 0.51528
 H138 H -0.09134 -0.15710 0.51048
 H139 H -0.15643 -0.09175 0.51064
 H140 H -0.15852 0.09365 0.49856
 H141 H -0.09376 0.15855 0.50212
 H142 H 0.15674 0.09114 0.49004
 H143 H -0.02578 -0.02619 0.48541
 H144 H 0.09165 0.15649 0.49000
 C145 C -0.26388 0.50124 0.99972
 C146 C -0.28854 0.50166 0.95738
 C147 C -0.33748 0.50131 0.95734
 C148 C -0.36243 0.50054 0.99976
 C149 C -0.33728 0.50010 1.04215
 C150 C -0.28835 0.50045 1.04208
 C151 C -0.21351 0.50166 0.99967
 C152 C -0.17131 0.50202 0.99954
 H153 H -0.26995 0.50226 0.92437
 H154 H -0.35573 0.50166 0.92411
 H155 H -0.35539 0.49951 1.07540
 H156 H -0.26960 0.50012 1.07506
 C157 C 0.26447 0.49881 0.99993
 C158 C 0.28913 0.49837 1.04223
 C159 C 0.33806 0.49859 1.04229
 C160 C 0.36322 0.49927 0.99985
 C161 C 0.33784 0.49972 0.95745
 C162 C 0.28891 0.49949 0.95758
 C163 C 0.21410 0.49855 0.99999
 C164 C 0.17189 0.49833 1.00013
 H165 H 0.27053 0.49784 1.07523
 H166 H 0.35606 0.49823 1.07567
 H167 H 0.35567 0.50025 0.92404
 H168 H 0.27013 0.49985 0.92461
 C169 C 0.00059 -0.26445 0.49892
 C170 C -0.04178 -0.28865 0.49897
 C171 C -0.04195 -0.33758 0.49919
 C172 C 0.00043 -0.36320 0.49936
 C173 C 0.04289 -0.33829 0.49933
 C174 C 0.04287 -0.28935 0.49910
 C175 C 0.00068 -0.21407 0.49865
 C176 C 0.00078 -0.17186 0.49841
 H177 H -0.07473 -0.26968 0.49884
 H178 H -0.07538 -0.35522 0.49922
 H179 H 0.07625 -0.35648 0.49945
 H180 H 0.07589 -0.27093 0.49907
 C181 C -0.00025 0.26387 0.50112
 C182 C -0.04255 0.28881 0.50094
 C183 C -0.04250 0.33774 0.50059
 C184 C -0.00004 0.36243 0.50042
 C185 C 0.04231 0.33701 0.50058
 C186 C 0.04216 0.28807 0.50092
 C187 C -0.00036 0.21350 0.50155
 C188 C -0.00048 0.17129 0.50193
 H189 H -0.07558 0.27042 0.50109
 H190 H -0.07570 0.35621 0.50048
 H191 H 0.07558 0.35490 0.50045
 H192 H 0.07511 0.26911 0.50105
 C193 C 0.49952 0.00049 -0.26446
 C194 C 0.49931 0.04275 -0.28955
 C195 C 0.49961 0.04269 -0.33849
 C196 C 0.50011 0.00020 -0.36320
 C197 C 0.50039 -0.04215 -0.33740
 C198 C 0.50009 -0.04191 -0.28847
 C199 C 0.49904 0.00064 -0.21409
 C200 C 0.49860 0.00076 -0.17188
 H201 H 0.49886 0.07579 -0.27129
 H202 H 0.49938 0.07604 -0.35683
 H203 H 0.50079 -0.07560 -0.35488
 H204 H 0.50027 -0.07484 -0.26935
 C205 C 0.50046 -0.00085 0.26389
 C206 C 0.50077 -0.04314 0.28898
 C207 C 0.50059 -0.04307 0.33792
 C208 C 0.50008 -0.00060 0.36244
 C209 C 0.49972 0.04174 0.33686
 C210 C 0.49991 0.04156 0.28793
 C211 C 0.50078 -0.00098 0.21352
 C212 C 0.50109 -0.00108 0.17131
 H213 H 0.50120 -0.07619 0.27072
 H214 H 0.50088 -0.07626 0.35651
 H215 H 0.49933 0.07503 0.35463
 H216 H 0.49966 0.07451 0.26884
 C217 C 0.49703 -0.26359 0.00049
 C218 C 0.49721 -0.28755 -0.04195
 C219 C 0.49756 -0.33644 -0.04214
 C220 C 0.49774 -0.36198 0.00021
 C221 C 0.49753 -0.33752 0.04270
 C222 C 0.49717 -0.28862 0.04279
 C223 C 0.49680 -0.21333 0.00063
 C224 C 0.49667 -0.17118 0.00071
 H225 H 0.49712 -0.26844 -0.07488
 H226 H 0.49772 -0.35420 -0.07543
 H227 H 0.49766 -0.35612 0.07589
 H228 H 0.49705 -0.27035 0.07583
 C229 C 0.50163 0.26329 -0.00101
 C230 C 0.50137 0.28723 0.04144
 C231 C 0.50088 0.33612 0.04165
 C232 C 0.50064 0.36168 -0.00068
 C233 C 0.50092 0.33724 -0.04319
 C234 C 0.50141 0.28834 -0.04330
 C235 C 0.50204 0.21303 -0.00117
 C236 C 0.50233 0.17088 -0.00127
 H237 H 0.50152 0.26811 0.07436
 H238 H 0.50068 0.35387 0.07495
 H239 H 0.50075 0.35586 -0.07637
 H240 H 0.50160 0.27008 -0.07634
 C241 C -0.26331 0.00027 0.49983
 C242 C -0.28817 0.04259 0.49945
 C243 C -0.33706 0.04255 0.49984
 C244 C -0.36169 0.00007 0.50061
 C245 C -0.33632 -0.04230 0.50104
 C246 C -0.28743 -0.04215 0.50065
 C247 C -0.21305 0.00037 0.49930
 C248 C -0.17092 0.00046 0.49884
 H249 H -0.26977 0.07561 0.49881
 H250 H -0.35553 0.07575 0.49948
 H251 H -0.35421 -0.07557 0.50164
 H252 H -0.26846 -0.07510 0.50096
 C253 C 0.26360 -0.00079 0.50151
 C254 C 0.28771 0.04164 0.50076
 C255 C 0.33660 0.04181 0.50052
 C256 C 0.36198 -0.00055 0.50102
 C257 C 0.33737 -0.04303 0.50173
 C258 C 0.28848 -0.04310 0.50197
 C259 C 0.21334 -0.00092 0.50184
 C260 C 0.17121 -0.00104 0.50214
 H261 H 0.26871 0.07458 0.50039
 H262 H 0.35447 0.07510 0.49997
 H263 H 0.35586 -0.07623 0.50213
 H264 H 0.27010 -0.07613 0.50255
 C265 C 0.00036 0.50239 1.26327
 C266 C 0.04271 0.50200 1.28788
 C267 C 0.04272 0.50169 1.33677
 C268 C 0.00028 0.50177 1.36166
 C269 C -0.04212 0.50217 1.33655
 C270 C -0.04203 0.50247 1.28765
 C271 C 0.00043 0.50266 1.21300
 C272 C 0.00057 0.50286 1.17086
 H273 H 0.07571 0.50193 1.26927
 H274 H 0.07594 0.50139 1.35504
 H275 H -0.07537 0.50223 1.35465
 H276 H -0.07499 0.50276 1.26887
 C277 C 0.00016 0.49898 0.73640
 C278 C -0.04220 0.49945 0.71182
 C279 C -0.04223 0.49989 0.66292
 C280 C 0.00019 0.49987 0.63801
 C281 C 0.04261 0.49941 0.66310
 C282 C 0.04253 0.49897 0.71200
 C283 C 0.00012 0.49852 0.78667
 C284 C 0.00000 0.49817 0.82881
 H285 H -0.07519 0.49947 0.73043
 H286 H -0.07546 0.50024 0.64467
 H287 H 0.07585 0.49938 0.64499
 H288 H 0.07551 0.49862 0.73076
   
