data_POSCAR
  _audit_creation_date              2014-09-24
  _audit_creation_method            'ToBaCCo'
  _symmetry_space_group_name_H-M    'P1'
  _symmetry_Int_Tables_number       1
  _symmetry_cell_setting            triclinic
  loop_
  _symmetry_equiv_pos_as_xyz
 x,y,z
_cell_length_a 29.6545
_cell_length_b 29.7172
_cell_length_c 29.7020
_cell_angle_alpha 70.312700
_cell_angle_beta 109.735100
_cell_angle_gamma 70.953400
loop_
  _atom_site_label
  _atom_site_type_symbol
  _atom_site_fract_x
  _atom_site_fract_y
  _atom_site_fract_z
O1 O 0.58774 0.46365 0.04106
 O2 O 0.46383 0.48037 0.05235
 O3 O 0.53257 0.41195 0.03966
 O4 O 0.52222 0.53112 0.05621
 O5 O 0.46788 0.58648 -0.03428
 O6 O 0.47912 0.46661 -0.05085
 O7 O 0.41170 0.53596 -0.03788
 O8 O 0.53495 0.51962 -0.04929
 Cu9 Cu 0.53163 0.46635 0.05648
 Cu10 Cu 0.46818 0.53250 -0.05223
 C11 C 0.58241 0.48935 -0.00598
 C12 C 0.41636 0.51088 0.00892
 C13 C 0.50764 0.41881 -0.00826
 C14 C 0.49410 0.57888 0.01378
 O15 O -0.04383 0.58889 0.46345
 O16 O -0.05192 0.46370 0.48021
 O17 O -0.05363 0.51823 0.53400
 O18 O -0.04166 0.53492 0.41079
 O19 O 0.04903 0.48447 0.46334
 O20 O 0.03695 0.46656 0.58675
 O21 O 0.03870 0.41345 0.53307
 O22 O 0.04651 0.53857 0.51775
 Cu23 Cu -0.05678 0.53126 0.46703
 Cu24 Cu 0.05193 0.47081 0.53037
 C25 C 0.00259 0.58523 0.48841
 C26 C -0.00792 0.41724 0.50890
 C27 C -0.01031 0.49005 0.58137
 C28 C 0.00564 0.51218 0.41602
 O29 O 0.48030 0.04836 0.53660
 O30 O 0.46423 0.03938 0.41178
 O31 O 0.41104 0.03770 0.46550
 O32 O 0.53290 0.05181 0.48104
 O33 O 0.58673 -0.03841 0.53415
 O34 O 0.46402 -0.05252 0.51831
 O35 O 0.51841 -0.05076 0.46393
 O36 O 0.53471 -0.04161 0.58846
 Cu37 Cu 0.46698 0.05319 0.46883
 Cu38 Cu 0.53116 -0.05510 0.53136
 C39 C 0.51003 0.00493 0.58395
 C40 C 0.48930 -0.00726 0.41667
 C41 C 0.41654 -0.00962 0.48950
 C42 C 0.58039 0.00929 0.50958
 O43 O 0.46390 0.03195 -0.08760
 O44 O 0.45414 0.01539 0.03660
 O45 O 0.46355 0.08586 -0.03461
 O46 O 0.45742 -0.04086 -0.01548
 O47 O 0.54816 -0.09012 0.03662
 O48 O 0.55421 0.03631 0.01757
 O49 O 0.54485 -0.03495 0.08883
 O50 O 0.55470 -0.01905 -0.03554
 Cu51 Cu 0.45071 0.02786 -0.03020
 Cu52 Cu 0.55957 -0.03165 0.03203
 C53 C 0.51094 0.00836 -0.08254
 C54 C 0.49761 -0.01178 0.08370
 C55 C 0.51004 0.08262 -0.01132
 C56 C 0.50184 -0.08704 0.01291
 O57 O -0.08777 0.53832 0.96583
 O58 O 0.03314 0.55444 0.97859
 O59 O -0.03584 0.54030 0.91084
 O60 O -0.02057 0.55359 1.03319
 O61 O 0.03409 0.46360 1.08712
 O62 O 0.01971 0.45049 0.96478
 O63 O 0.08755 0.46458 1.03401
 O64 O -0.03381 0.44836 1.01998
 Cu65 Cu -0.03308 0.55570 0.96676
 Cu66 Cu 0.03215 0.44776 1.03157
 C67 C -0.08150 0.49077 0.99120
 C68 C 0.08103 0.51218 1.00847
 C69 C -0.01018 0.49319 0.91695
 C70 C 0.00875 0.51083 1.08095
 O71 O -0.02248 -0.03521 0.44910
 O72 O -0.03398 0.08645 0.46196
 O73 O 0.03335 0.01793 0.44818
 O74 O -0.08980 0.03539 0.45988
 O75 O -0.03749 -0.01787 0.55050
 O76 O 0.08639 -0.03645 0.53871
 O77 O 0.02023 0.03306 0.55251
 O78 O 0.03118 -0.08856 0.53976
 Cu79 Cu -0.03327 0.03137 0.44561
 Cu80 Cu 0.03021 -0.03261 0.55440
 C81 C 0.00567 -0.08251 0.49232
 C82 C -0.00850 0.08045 0.50945
 C83 C 0.08086 -0.01181 0.49135
 C84 C -0.08483 0.01149 0.50703
 C85 C -0.27390 0.48268 0.98710
 C86 C -0.32640 0.52779 0.94485
 C87 C -0.37344 0.52851 0.94609
 C88 C -0.36816 0.48537 0.99016
 C89 C -0.31520 0.44027 1.03215
 C90 C -0.26786 0.43843 1.03053
 C91 C -0.22425 0.48254 0.98668
 C92 C -0.17162 0.43765 1.02889
 C93 C -0.12459 0.43904 1.02902
 C94 C -0.13029 0.48558 0.98809
 C95 C -0.18340 0.52946 0.94573
 C96 C -0.23042 0.52814 0.94470
 C97 C -0.21456 0.39384 1.07186
 C98 C -0.16728 0.39325 1.07082
 C99 C -0.33077 0.57204 0.90293
 C100 C -0.28355 0.57230 0.90304
 H101 H -0.20923 0.35919 1.10551
 H102 H -0.12701 0.35819 1.10362
 H103 H -0.37096 0.60721 0.87025
 H104 H -0.28861 0.60766 0.87054
 H105 H -0.41396 0.56366 0.91389
 H106 H -0.31086 0.40691 1.06618
 H107 H -0.08383 0.40507 1.06191
 H108 H -0.18817 0.56516 0.91389
 C109 C 0.27328 0.52140 1.01442
 C110 C 0.26822 0.55748 0.96575
 C111 C 0.31595 0.55429 0.96456
 C112 C 0.36875 0.51614 1.01202
 C113 C 0.37269 0.48213 1.06143
 C114 C 0.32513 0.48382 1.06246
 C115 C 0.22340 0.52189 1.01454
 C116 C 0.22873 0.48323 1.06197
 C117 C 0.18168 0.48094 1.06031
 C118 C 0.12952 0.51801 1.01214
 C119 C 0.12450 0.55847 0.96602
 C120 C 0.17153 0.55979 0.96655
 C121 C 0.32846 0.44763 1.11004
 C122 C 0.28117 0.44690 1.10961
 C123 C 0.21555 0.59541 0.91882
 C124 C 0.16798 0.59689 0.91940
 H125 H 0.36811 0.41876 1.14759
 H126 H 0.28574 0.41740 1.14675
 H127 H 0.21107 0.62390 0.88116
 H128 H 0.12821 0.62653 0.88221
 H129 H 0.31175 0.58140 0.92634
 H130 H 0.41272 0.45265 1.09836
 H131 H 0.18565 0.45001 1.09611
 H132 H 0.08448 0.58699 0.92880
 C133 C 0.00722 -0.27280 0.48275
 C134 C 0.05538 -0.32436 0.51905
 C135 C 0.05439 -0.37128 0.51911
 C136 C 0.00499 -0.36722 0.48467
 C137 C -0.04280 -0.31474 0.44806
 C138 C -0.04168 -0.26745 0.44652
 C139 C 0.00772 -0.22354 0.48342
 C140 C -0.04025 -0.17185 0.44654
 C141 C -0.03989 -0.12536 0.44823
 C142 C 0.00739 -0.13075 0.48762
 C143 C 0.05519 -0.18279 0.52420
 C144 C 0.05580 -0.22927 0.52168
 C145 C -0.08873 -0.21496 0.40987
 C146 C -0.08789 -0.16789 0.40956
 C147 C 0.10326 -0.32812 0.55541
 C148 C 0.10333 -0.28144 0.55702
 H149 H -0.12658 -0.21024 0.38133
 H150 H -0.12510 -0.12818 0.38064
 H151 H 0.14077 -0.36761 0.58349
 H152 H 0.14087 -0.28622 0.58619
 H153 H 0.09154 -0.41108 0.54750
 H154 H -0.08103 -0.31049 0.42074
 H155 H -0.07696 -0.08539 0.42049
 H156 H 0.09171 -0.18698 0.55447
 C157 C -0.01269 0.27255 0.51643
 C158 C -0.05807 0.32470 0.47435
 C159 C -0.05711 0.37192 0.47323
 C160 C -0.01063 0.36727 0.51306
 C161 C 0.03444 0.31458 0.55517
 C162 C 0.03348 0.26702 0.55725
 C163 C -0.01292 0.22286 0.51678
 C164 C 0.03253 0.17066 0.55863
 C165 C 0.03272 0.12368 0.55763
 C166 C -0.01132 0.12907 0.51410
 C167 C -0.05678 0.18164 0.47299
 C168 C -0.05797 0.22865 0.47433
 C169 C 0.07807 0.21409 0.59870
 C170 C 0.07746 0.16670 0.59960
 C171 C -0.10297 0.32865 0.43344
 C172 C -0.10282 0.28144 0.43332
 H173 H 0.11394 0.20925 0.63048
 H174 H 0.11287 0.12670 0.63207
 H175 H -0.13816 0.36864 0.40073
 H176 H -0.13791 0.28633 0.40055
 H177 H -0.09167 0.41226 0.44032
 H178 H 0.07034 0.31070 0.58595
 H179 H 0.06797 0.08324 0.58929
 H180 H -0.09091 0.18593 0.43966
 C181 C 0.51777 0.01075 -0.27409
 C182 C 0.48135 0.05865 -0.32613
 C183 C 0.48081 0.05742 -0.37315
 C184 C 0.51458 0.00794 -0.36863
 C185 C 0.55139 -0.03946 -0.31569
 C186 C 0.55348 -0.03808 -0.26841
 C187 C 0.51753 0.01125 -0.22471
 C188 C 0.55442 -0.03660 -0.17263
 C189 C 0.55340 -0.03631 -0.12594
 C190 C 0.51459 0.01072 -0.13138
 C191 C 0.47749 0.05829 -0.18387
 C192 C 0.47946 0.05905 -0.23067
 C193 C 0.58992 -0.08502 -0.21562
 C194 C 0.59067 -0.08419 -0.16846
 C195 C 0.44510 0.10627 -0.33024
 C196 C 0.44375 0.10630 -0.28341
 H197 H 0.61781 -0.12280 -0.21084
 H198 H 0.61923 -0.12139 -0.12853
 H199 H 0.41676 0.14352 -0.37016
 H200 H 0.41444 0.14356 -0.28855
 H201 H 0.45245 0.09434 -0.41334
 H202 H 0.57827 -0.07769 -0.31111
 H203 H 0.58113 -0.07334 -0.08570
 H204 H 0.44725 0.09446 -0.18818
 C205 C 0.48627 -0.01407 0.27394
 C206 C 0.44399 0.03164 0.26670
 C207 C 0.44430 0.03330 0.31353
 C208 C 0.48619 -0.01066 0.36718
 C209 C 0.52720 -0.05684 0.37343
 C210 C 0.52783 -0.05845 0.32699
 C211 C 0.48786 -0.01495 0.22509
 C212 C 0.53151 -0.05960 0.23249
 C213 C 0.53428 -0.05900 0.18604
 C214 C 0.49318 -0.01457 0.13254
 C215 C 0.44890 0.02906 0.12584
 C216 C 0.44641 0.02946 0.17203
 C217 C 0.56999 -0.10304 0.33266
 C218 C 0.57196 -0.10350 0.28625
 C219 C 0.40292 0.07511 0.21283
 C220 C 0.40401 0.07391 0.16631
 H221 H 0.60221 -0.13754 0.37341
 H222 H 0.60562 -0.13837 0.29255
 H223 H 0.36986 0.11057 0.20650
 H224 H 0.37180 0.10844 0.12551
 H225 H 0.41235 0.06887 0.30829
 H226 H 0.55976 -0.09065 0.41446
 H227 H 0.56835 -0.09282 0.19144
 H228 H 0.41752 0.06364 0.08479
 C229 C 0.49623 -0.28196 0.02279
 C230 C 0.44524 -0.27842 -0.00509
 C231 C 0.44441 -0.32468 -0.00697
 C232 C 0.49408 -0.37422 0.01986
 C233 C 0.54465 -0.37782 0.04930
 C234 C 0.54606 -0.33144 0.05010
 C235 C 0.49758 -0.23259 0.02206
 C236 C 0.54863 -0.23559 0.04794
 C237 C 0.54963 -0.18797 0.04541
 C238 C 0.50008 -0.13761 0.01749
 C239 C 0.44925 -0.13561 -0.00777
 C240 C 0.44781 -0.18299 -0.00562
 C241 C 0.59632 -0.33312 0.07632
 C242 C 0.59762 -0.28601 0.07526
 C243 C 0.39630 -0.22837 -0.03144
 C244 C 0.39758 -0.18162 -0.03127
 H245 H 0.63500 -0.37099 0.09715
 H246 H 0.63734 -0.28907 0.09574
 H247 H 0.35672 -0.22521 -0.05270
 H248 H 0.35890 -0.14385 -0.05207
 H249 H 0.40546 -0.32226 -0.02942
 H250 H 0.58284 -0.41600 0.06933
 H251 H 0.58906 -0.19001 0.06446
 H252 H 0.41090 -0.09708 -0.02985
 C253 C 0.51376 0.27700 -0.01785
 C254 C 0.46806 0.32920 -0.05929
 C255 C 0.46734 0.37605 -0.05758
 C256 C 0.51109 0.37050 -0.01374
 C257 C 0.55675 0.31791 0.02721
 C258 C 0.55851 0.27103 0.02514
 C259 C 0.51399 0.22750 -0.01840
 C260 C 0.55965 0.17536 0.02323
 C261 C 0.55909 0.12826 0.02363
 C262 C 0.51255 0.13286 -0.01606
 C263 C 0.46723 0.18556 -0.05787
 C264 C 0.46791 0.23311 -0.05947
 C265 C 0.60360 0.21822 0.06583
 C266 C 0.60433 0.17121 0.06463
 C267 C 0.42334 0.33332 -0.10063
 C268 C 0.42308 0.28609 -0.10053
 H269 H 0.63840 0.21308 0.09921
 H270 H 0.63973 0.13120 0.09702
 H271 H 0.38775 0.37337 -0.13272
 H272 H 0.38723 0.29117 -0.13261
 H273 H 0.43189 0.41648 -0.08894
 H274 H 0.59063 0.31353 0.06091
 H275 H 0.59394 0.08796 0.05617
 H276 H 0.43129 0.18951 -0.08867
 C277 C -0.27878 0.02047 0.51377
 C278 C -0.27302 -0.01782 0.56181
 C279 C -0.31959 -0.02072 0.56067
 C280 C -0.37162 0.01523 0.51238
 C281 C -0.37714 0.05477 0.46523
 C282 C -0.33058 0.05681 0.46533
 C283 C -0.22931 0.02074 0.51340
 C284 C -0.23471 0.05679 0.46443
 C285 C -0.18730 0.05491 0.46344
 C286 C -0.13463 0.01678 0.51065
 C287 C -0.12999 -0.01839 0.55983
 C288 C -0.17728 -0.01670 0.56131
 C289 C -0.33442 0.09291 0.41740
 C290 C -0.28724 0.09277 0.41691
 C291 C -0.22050 -0.05359 0.60941
 C292 C -0.17345 -0.05297 0.60918
 H293 H -0.37404 0.12057 0.37957
 H294 H -0.29179 0.12027 0.37868
 H295 H -0.21557 -0.08288 0.64693
 H296 H -0.13359 -0.08192 0.64648
 H297 H -0.31540 -0.05126 0.59695
 H298 H -0.41716 0.08198 0.42776
 H299 H -0.19133 0.08230 0.42549
 H300 H -0.08961 -0.04832 0.59624
 C301 C 0.27300 -0.01771 0.48211
 C302 C 0.26680 0.02815 0.44035
 C303 C 0.31404 0.02983 0.44208
 C304 C 0.36714 -0.01407 0.48494
 C305 C 0.37253 -0.06045 0.52543
 C306 C 0.32555 -0.06221 0.52457
 C307 C 0.22359 -0.01822 0.48255
 C308 C 0.22985 -0.06272 0.52595
 C309 C 0.18284 -0.06130 0.52804
 C310 C 0.12996 -0.01605 0.48672
 C311 C 0.12439 0.02721 0.44251
 C312 C 0.17111 0.02674 0.44062
 C313 C 0.33010 -0.10680 0.56628
 C314 C 0.28310 -0.10702 0.56708
 C315 C 0.21352 0.07198 0.39858
 C316 C 0.16649 0.07115 0.39862
 H317 H 0.37041 -0.14136 0.59921
 H318 H 0.28860 -0.14187 0.60059
 H319 H 0.20807 0.10756 0.36595
 H320 H 0.12618 0.10604 0.36607
 H321 H 0.30950 0.06568 0.41068
 H322 H 0.41317 -0.09406 0.55888
 H323 H 0.18741 -0.09489 0.56207
 H324 H 0.08388 0.06239 0.41091
 C325 C 0.01287 0.51930 1.27258
 C326 C -0.03262 0.56109 1.26612
 C327 C -0.03411 0.55943 1.31334
 C328 C 0.00970 0.51666 1.36662
 C329 C 0.05575 0.47610 1.37229
 C330 C 0.05724 0.47687 1.32536
 C331 C 0.01337 0.51907 1.22318
 C332 C 0.05773 0.47586 1.22979
 C333 C 0.05669 0.47413 1.18291
 C334 C 0.01201 0.51558 1.12969
 C335 C -0.03125 0.55971 1.12362
 C336 C -0.03116 0.56123 1.17037
 C337 C 0.10157 0.43522 1.33019
 C338 C 0.10173 0.43462 1.28322
 C339 C -0.07615 0.60298 1.21258
 C340 C -0.07532 0.60318 1.16550
 H341 H 0.13607 0.40234 1.37068
 H342 H 0.13635 0.40134 1.28877
 H343 H -0.11139 0.63563 1.20701
 H344 H -0.10993 0.63597 1.12498
 H345 H -0.06957 0.59092 1.30874
 H346 H 0.08931 0.44274 1.41313
 H347 H 0.09025 0.44023 1.18782
 H348 H -0.06594 0.59154 1.08275
 C349 C -0.01668 0.48425 0.72470
 C350 C -0.06106 0.52680 0.67197
 C351 C -0.06012 0.52706 0.62498
 C352 C -0.01440 0.48602 0.63062
 C353 C 0.02932 0.44320 0.68382
 C354 C 0.02830 0.44202 0.73102
 C355 C -0.01653 0.48480 0.77421
 C356 C 0.02812 0.44253 0.82692
 C357 C 0.02888 0.44419 0.87382
 C358 C -0.01390 0.48851 0.86802
 C359 C -0.05868 0.53015 0.81489
 C360 C -0.06028 0.52839 0.76783
 C361 C 0.07198 0.40017 0.78441
 C362 C 0.07179 0.40029 0.83157
 C363 C -0.10468 0.56910 0.66732
 C364 C -0.10418 0.56999 0.71444
 H365 H 0.10687 0.36734 0.78975
 H366 H 0.10656 0.36753 0.87197
 H367 H -0.13906 0.60229 0.62688
 H368 H -0.13817 0.60382 0.70904
 H369 H -0.09378 0.56035 0.58414
 H370 H 0.06444 0.41131 0.68842
 H371 H 0.06370 0.41222 0.91458
 H372 H -0.09191 0.56416 0.81020
   
