data_POSCAR
  _audit_creation_date              2014-09-24
  _audit_creation_method            'ToBaCCo'
  _symmetry_space_group_name_H-M    'P1'
  _symmetry_Int_Tables_number       1
  _symmetry_cell_setting            triclinic
  loop_
  _symmetry_equiv_pos_as_xyz
 x,y,z
_cell_length_a 55.8377
_cell_length_b 55.7985
_cell_length_c 21.9902
_cell_angle_alpha 89.997000
_cell_angle_beta 89.939600
_cell_angle_gamma 119.953600
loop_
  _atom_site_label
  _atom_site_type_symbol
  _atom_site_fract_x
  _atom_site_fract_y
  _atom_site_fract_z
C1 C 0.18530 0.50115 0.49782
 C2 C 0.19829 0.50207 0.44306
 C3 C 0.22366 0.50261 0.44314
 C4 C 0.23624 0.50143 0.49838
 C5 C 0.22222 0.50015 0.55328
 C6 C 0.19727 0.50042 0.55281
 C7 C 0.26342 0.50140 0.49876
 C8 C 0.27720 0.50258 0.55400
 C9 C 0.30194 0.50192 0.55404
 C10 C 0.31395 0.50091 0.49933
 C11 C 0.30128 0.50021 0.44438
 C12 C 0.27615 0.50006 0.44386
 H13 H 0.16573 0.50095 0.49763
 H14 H 0.23300 0.50399 0.39946
 H15 H 0.23002 0.49878 0.59713
 H16 H 0.26937 0.50409 0.59773
 H17 H 0.33325 0.50063 0.49953
 H18 H 0.26708 0.49871 0.39993
 C19 C 0.49866 -0.31600 0.49942
 C20 C 0.49870 -0.30347 0.44460
 C21 C 0.49862 -0.27839 0.44459
 C22 C 0.49831 -0.26531 0.49988
 C23 C 0.49809 -0.27880 0.55487
 C24 C 0.49835 -0.30377 0.55441
 C25 C 0.49829 -0.23807 0.50024
 C26 C 0.49873 -0.22461 0.55551
 C27 C 0.49873 -0.19951 0.55546
 C28 C 0.49851 -0.18712 0.50072
 C29 C 0.49822 -0.19962 0.44578
 C30 C 0.49798 -0.22483 0.44527
 H31 H 0.49890 -0.33535 0.49928
 H32 H 0.49888 -0.26966 0.40078
 H33 H 0.49772 -0.27052 0.59883
 H34 H 0.49917 -0.23290 0.59940
 H35 H 0.49868 -0.16758 0.50088
 H36 H 0.49761 -0.23340 0.40123
 C37 C 1.31484 0.81356 0.49981
 C38 C 1.30184 0.80189 0.44486
 C39 C 1.27651 0.77701 0.44461
 C40 C 1.26429 0.76263 0.49958
 C41 C 1.27850 0.77482 0.55457
 C42 C 1.30315 0.80028 0.55452
 C43 C 1.23714 0.73544 0.49961
 C44 C 1.22275 0.72324 0.55458
 C45 C 1.19793 0.69785 0.55438
 C46 C 1.18630 0.68478 0.49946
 C47 C 1.19955 0.69650 0.44474
 C48 C 1.22498 0.72118 0.44465
 H49 H 1.33416 0.83313 0.50015
 H50 H 1.26678 0.76953 0.40105
 H51 H 1.27105 0.76505 0.59812
 H52 H 1.23018 0.73303 0.59811
 H53 H 1.16678 0.66541 0.49916
 H54 H 1.23473 0.72864 0.40107
 C55 C 0.81244 0.49660 0.49934
 C56 C 0.80059 0.49781 0.44464
 C57 C 0.77563 0.49805 0.44464
 C58 C 0.76135 0.49586 0.49978
 C59 C 0.77370 0.49393 0.55463
 C60 C 0.79925 0.49493 0.55420
 C61 C 0.73417 0.49581 0.50013
 C62 C 0.72206 0.49804 0.55523
 C63 C 0.69681 0.49775 0.55514
 C64 C 0.68376 0.49647 0.50033
 C65 C 0.69530 0.49472 0.44558
 C66 C 0.71985 0.49375 0.44527
 H67 H 0.83209 0.49702 0.49923
 H68 H 0.76807 0.50019 0.40110
 H69 H 0.76402 0.49158 0.59831
 H70 H 0.73184 0.50025 0.59872
 H71 H 0.66452 0.49688 0.50015
 H72 H 0.72717 0.49130 0.40165
 C73 C 0.50311 0.31634 0.50124
 C74 C 0.50396 0.30421 0.44664
 C75 C 0.50479 0.27955 0.44679
 C76 C 0.50405 0.26599 0.50212
 C77 C 0.50298 0.27887 0.55703
 C78 C 0.50285 0.30392 0.55634
 C79 C 0.50417 0.23883 0.50248
 C80 C 0.50538 0.22617 0.55770
 C81 C 0.50471 0.20071 0.55757
 C82 C 0.50371 0.18778 0.50271
 C83 C 0.50297 0.19982 0.44789
 C84 C 0.50282 0.22481 0.44751
 H85 H 0.50263 0.33556 0.50073
 H86 H 0.50605 0.27162 0.40302
 H87 H 0.50207 0.26994 0.60097
 H88 H 0.50682 0.23549 0.60142
 H89 H 0.50338 0.16815 0.50257
 H90 H 0.50144 0.23256 0.40362
 C91 C 0.68416 0.18830 0.50086
 C92 C 0.69711 0.20015 0.44603
 C93 C 0.72238 0.22504 0.44576
 C94 C 0.73486 0.23906 0.50087
 C95 C 0.72081 0.22652 0.55591
 C96 C 0.69603 0.20121 0.55564
 C97 C 0.76212 0.26615 0.50104
 C98 C 0.77635 0.27838 0.55610
 C99 C 0.80134 0.30359 0.55588
 C100 C 0.81318 0.31657 0.50101
 C101 C 0.80003 0.30493 0.44630
 C102 C 0.77455 0.28032 0.44606
 H103 H 0.66481 0.16879 0.50093
 H104 H 0.73182 0.23270 0.40202
 H105 H 0.72849 0.23585 0.59969
 H106 H 0.76870 0.26878 0.59973
 H107 H 0.83281 0.33583 0.50075
 H108 H 0.76502 0.27287 0.40237
 O109 O 0.96288 0.44082 0.11309
 O110 O 0.93198 0.44597 0.05345
 C111 C 0.93802 0.43448 0.09748
 O112 O 1.03976 0.56290 0.10575
 O113 O 1.07047 0.55579 0.04997
 C114 C 1.06457 0.56882 0.09071
 O115 O 0.96268 0.52224 0.11128
 O116 O 0.93190 0.48555 0.05305
 C117 C 0.93786 0.50344 0.09628
 O118 O 1.03992 0.47682 0.10640
 O119 O 1.07062 0.51442 0.04998
 C120 C 1.06475 0.49565 0.09114
 Zr121 Zr 1.00123 0.46998 0.07459
 O122 O 1.00211 0.46630 0.17018
 O123 O 1.00021 0.43189 0.06330
 Zr124 Zr 1.00116 0.53074 0.07447
 O125 O 1.00370 0.53365 0.17045
 O126 O 0.99815 0.56707 0.06936
 O127 O 0.97679 0.48818 0.08684
 O128 O 1.02504 0.51232 0.08602
 O129 O 1.03984 0.47651 -0.10891
 O130 O 1.07055 0.51452 -0.05380
 C131 C 1.06465 0.49551 -0.09429
 O132 O 0.96262 0.52196 -0.11440
 O133 O 0.93187 0.48544 -0.05558
 C134 C 0.93781 0.50322 -0.09902
 O135 O 1.03982 0.56256 -0.10966
 O136 O 1.07053 0.55569 -0.05345
 C137 C 1.06464 0.56858 -0.09454
 O138 O 0.96277 0.44045 -0.11511
 O139 O 0.93192 0.44582 -0.05568
 C140 C 0.93792 0.43418 -0.09950
 Zr141 Zr 1.00116 0.46978 -0.07721
 O142 O 1.00372 0.46787 -0.17282
 O143 O 0.99826 0.43055 -0.06995
 Zr144 Zr 1.00116 0.53061 -0.07783
 O145 O 1.00400 0.53392 -0.17379
 O146 O 0.99811 0.56689 -0.07258
 Zr147 Zr 0.95963 0.47952 -0.00135
 Zr148 Zr 1.04260 0.52104 -0.00158
 O149 O 1.02493 0.51207 -0.08913
 O150 O 0.97673 0.48797 -0.08975
 O151 O 1.02628 0.47783 -0.00130
 O152 O 0.97672 0.52274 -0.00163
 O153 O 0.97659 0.45327 -0.00109
 O154 O 1.02615 0.54784 -0.00181
 H155 H 1.03717 0.51847 0.12225
 H156 H 0.96392 0.53022 -0.00164
 H157 H 1.03687 0.51801 -0.12575
 H158 H 0.96368 0.43302 -0.00091
 H159 H 1.01537 0.58173 0.05051
 H160 H 1.01573 0.58185 -0.05595
 H161 H 0.99054 0.51565 -0.19068
 H162 H 0.99512 0.47813 -0.18999
 H163 H 1.01559 0.43334 -0.05120
 H164 H 0.99965 0.42475 0.10483
 H165 H 1.00571 0.48411 0.18754
 H166 H 0.99076 0.51505 0.18681
 O167 O 0.55944 0.52190 0.11290
 O168 O 0.55427 0.48575 0.05352
 C169 C 0.56577 0.50333 0.09738
 O170 O 0.43743 0.47689 0.10691
 O171 O 0.44451 0.51470 0.05108
 C172 C 0.43148 0.49578 0.09184
 O173 O 0.47818 0.44039 0.11232
 O174 O 0.51474 0.44613 0.05364
 C175 C 0.49694 0.43432 0.09708
 O176 O 0.52338 0.56291 0.10671
 O177 O 0.48543 0.55567 0.05134
 C178 C 0.50436 0.56872 0.09208
 Zr179 Zr 0.53022 0.53108 0.07458
 O180 O 0.53425 0.53583 0.17007
 O181 O 0.56822 0.56812 0.06233
 Zr182 Zr 0.46948 0.47022 0.07541
 O183 O 0.46676 0.46998 0.17143
 O184 O 0.43323 0.43088 0.07077
 O185 O 0.51206 0.48849 0.08731
 O186 O 0.48792 0.51255 0.08656
 O187 O 0.52344 0.56295 -0.10857
 O188 O 0.48545 0.55566 -0.05312
 C189 C 0.50441 0.56876 -0.09375
 O190 O 0.47816 0.44017 -0.11336
 O191 O 0.51476 0.44604 -0.05485
 C192 C 0.49692 0.43412 -0.09803
 O193 O 0.43757 0.47681 -0.10917
 O194 O 0.44456 0.51461 -0.05352
 C195 C 0.43167 0.49577 -0.09446
 O196 O 0.55995 0.52219 -0.11433
 O197 O 0.55419 0.48561 -0.05569
 C198 C 0.56597 0.50336 -0.09923
 Zr199 Zr 0.53014 0.53088 -0.07721
 O200 O 0.53062 0.53415 -0.17315
 O201 O 0.56931 0.56731 -0.07222
 Zr202 Zr 0.46943 0.47005 -0.07677
 O203 O 0.46593 0.46900 -0.17266
 O204 O 0.43313 0.43084 -0.07027
 Zr205 Zr 0.52064 0.47979 -0.00089
 Zr206 Zr 0.47901 0.52121 -0.00102
 O207 O 0.48790 0.51234 -0.08851
 O208 O 0.51203 0.48822 -0.08918
 O209 O 0.52219 0.54811 -0.00132
 O210 O 0.47744 0.45363 -0.00060
 O211 O 0.54680 0.52297 -0.00120
 O212 O 0.45224 0.47800 -0.00074
 H213 H 0.48183 0.51854 0.12294
 H214 H 0.46999 0.43336 -0.00047
 H215 H 0.48198 0.51832 -0.12514
 H216 H 0.56704 0.53034 -0.00123
 H217 H 0.41844 0.43350 0.05290
 H218 H 0.41820 0.43368 -0.05395
 H219 H 0.48461 0.47550 -0.18945
 H220 H 0.52501 0.51562 -0.18985
 H221 H 0.56675 0.58164 -0.05162
 H222 H 0.57558 0.57468 0.10369
 H223 H 0.51625 0.52227 0.18784
 H224 H 0.48552 0.47621 0.18744
 O225 O 0.47791 0.03757 0.11489
 O226 O 0.51405 0.06853 0.05549
 C227 C 0.49646 0.06247 0.09937
 O228 O 0.52282 -0.03958 0.10828
 O229 O 0.48521 -0.07023 0.05219
 C230 C 0.50402 -0.06439 0.09312
 O231 O 0.55940 0.03737 0.11366
 O232 O 0.55369 0.06844 0.05571
 C233 C 0.56554 0.06226 0.09883
 O234 O 0.43695 -0.03945 0.10857
 O235 O 0.44414 -0.07020 0.05303
 C236 C 0.43111 -0.06430 0.09388
 Zr237 Zr 0.46877 -0.00081 0.07642
 O238 O 0.46391 -0.00147 0.17189
 O239 O 0.43177 0.00022 0.06405
 Zr240 Zr 0.52951 -0.00090 0.07659
 O241 O 0.53009 -0.00333 0.17254
 O242 O 0.56870 0.00188 0.07068
 O243 O 0.51133 0.02353 0.08895
 O244 O 0.48724 -0.02467 0.08800
 O245 O 0.43682 -0.03931 -0.10689
 O246 O 0.44397 -0.07007 -0.05140
 C247 C 0.43096 -0.06416 -0.09209
 O248 O 0.55943 0.03804 -0.11235
 O249 O 0.55368 0.06873 -0.05327
 C250 C 0.56548 0.06286 -0.09690
 O251 O 0.52318 -0.03926 -0.10718
 O252 O 0.48540 -0.07007 -0.05142
 C253 C 0.50433 -0.06412 -0.09223
 O254 O 0.47735 0.03791 -0.11185
 O255 O 0.51412 0.06867 -0.05374
 C256 C 0.49622 0.06273 -0.09695
 Zr257 Zr 0.46896 -0.00062 -0.07556
 O258 O 0.46640 -0.00332 -0.17160
 O259 O 0.43249 0.00210 -0.07128
 Zr260 Zr 0.52967 -0.00061 -0.07562
 O261 O 0.53010 -0.00332 -0.17155
 O262 O 0.56901 0.00249 -0.07098
 Zr263 Zr 0.52002 0.04086 0.00086
 Zr264 Zr 0.47852 -0.04223 0.00044
 O265 O 0.48742 -0.02447 -0.08707
 O266 O 0.51156 0.02391 -0.08756
 O267 O 0.45173 -0.02579 0.00041
 O268 O 0.54611 0.02372 0.00065
 O269 O 0.47685 0.02388 0.00069
 O270 O 0.52174 -0.02580 0.00036
 H271 H 0.48127 -0.03677 0.12436
 H272 H 0.56637 0.03651 0.00060
 H273 H 0.48143 -0.03648 -0.12354
 H274 H 0.46946 0.03675 0.00092
 H275 H 0.56592 -0.01578 0.05386
 H276 H 0.56652 -0.01481 -0.05263
 H277 H 0.52441 0.00955 -0.18811
 H278 H 0.48460 0.01073 -0.18800
 H279 H 0.41830 -0.01450 -0.04956
 H280 H 0.42521 0.00119 0.10535
 H281 H 0.47696 -0.00660 0.18965
 H282 H 0.52301 0.00850 0.18874
 C283 C 1.15549 0.50075 0.29468
 C284 C 1.16345 0.49478 0.23188
 C285 C 1.14646 0.49389 0.18612
 C286 C 1.12327 0.49904 0.20792
 C287 C 1.13808 0.52693 0.24114
 C288 C 1.15500 0.52783 0.28670
 C289 C 1.12514 0.47842 0.30356
 C290 C 1.10825 0.47752 0.25808
 C291 C 1.17295 0.50162 0.34537
 C292 C 1.18566 0.50202 0.39002
 C293 C 1.10421 0.49795 0.16072
 C294 C 1.08694 0.49690 0.12628
 H295 H 1.18085 0.49158 0.22407
 H296 H 1.14931 0.48994 0.13909
 H297 H 1.13562 0.54450 0.22964
 H298 H 1.16702 0.54616 0.31425
 H299 H 1.11757 0.46441 0.34216
 H300 H 1.08622 0.46277 0.25778
 C301 C 0.49987 0.65476 0.29627
 C302 C 0.50502 0.66831 0.23315
 C303 C 0.50573 0.65209 0.18739
 C304 C 0.50122 0.62399 0.20944
 C305 C 0.47366 0.61082 0.24413
 C306 C 0.47296 0.62698 0.28972
 C307 C 0.52256 0.64715 0.30399
 C308 C 0.52327 0.63103 0.25849
 C309 C 0.49926 0.67155 0.34697
 C310 C 0.49895 0.68397 0.39159
 C311 C 0.50215 0.60592 0.16212
 C312 C 0.50310 0.58965 0.12749
 H313 H 0.50778 0.68873 0.22514
 H314 H 0.50909 0.65861 0.14014
 H315 H 0.45616 0.59063 0.23358
 H316 H 0.45486 0.62062 0.31819
 H317 H 0.53692 0.65393 0.34189
 H318 H 0.53823 0.62400 0.25747
 C319 C 0.34412 -0.15462 0.29738
 C320 C 0.35209 -0.12422 0.30537
 C321 C 0.36852 -0.10742 0.26014
 C322 C 0.37546 -0.12256 0.21108
 C323 C 0.34734 -0.14581 0.18858
 C324 C 0.33082 -0.16270 0.23405
 C325 C 0.37172 -0.15419 0.29116
 C326 C 0.38818 -0.13736 0.24584
 C327 C 0.32697 -0.17205 0.34774
 C328 C 0.31436 -0.18494 0.39207
 C329 C 0.39380 -0.10361 0.16395
 C330 C 0.41016 -0.08644 0.12937
 H331 H 0.34542 -0.11654 0.34334
 H332 H 0.37589 -0.08536 0.25943
 H333 H 0.34103 -0.14879 0.14123
 H334 H 0.31035 -0.18016 0.22567
 H335 H 0.37777 -0.16616 0.31969
 H336 H 0.40831 -0.13492 0.23559
 C337 C 0.84575 0.49949 0.29586
 C338 C 0.84398 0.47141 0.28578
 C339 C 0.86133 0.47188 0.24162
 C340 C 0.87879 0.50034 0.21184
 C341 C 0.89368 0.52017 0.26475
 C342 C 0.87636 0.51973 0.30878
 C343 C 0.84033 0.50789 0.23306
 C344 C 0.85775 0.50834 0.18876
 C345 C 0.82779 0.49908 0.34511
 C346 C 0.81457 0.49867 0.38889
 C347 C 0.89825 0.50100 0.16605
 C348 C 0.91567 0.50193 0.13212
 H349 H 0.83013 0.45274 0.31075
 H350 H 0.86232 0.45363 0.22870
 H351 H 0.91595 0.53349 0.26735
 H352 H 0.88381 0.53266 0.34906
 H353 H 0.82418 0.51286 0.22412
 H354 H 0.85653 0.51370 0.14186
 C355 C 0.50227 0.34719 0.29709
 C356 C 0.52965 0.37437 0.28880
 C357 C 0.52881 0.39093 0.24438
 C358 C 0.50070 0.37877 0.21260
 C359 C 0.47978 0.37250 0.26399
 C360 C 0.48059 0.35594 0.30828
 C361 C 0.49544 0.33365 0.23388
 C362 C 0.49462 0.35031 0.18930
 C363 C 0.50313 0.33005 0.34666
 C364 C 0.50366 0.31747 0.39070
 C365 C 0.49969 0.39732 0.16672
 C366 C 0.49857 0.41371 0.13285
 H367 H 0.54819 0.37997 0.31501
 H368 H 0.54661 0.41063 0.23238
 H369 H 0.46544 0.38030 0.26532
 H370 H 0.46693 0.34953 0.34749
 H371 H 0.49173 0.31294 0.22490
 H372 H 0.49024 0.34390 0.14210
 C373 C 0.65358 0.15421 0.29839
 C374 C 0.62609 0.15396 0.29175
 C375 C 0.60930 0.13639 0.24792
 C376 C 0.62156 0.12075 0.21493
 C377 C 0.62855 0.10632 0.26559
 C378 C 0.64535 0.12389 0.30938
 C379 C 0.66656 0.16096 0.23460
 C380 C 0.64968 0.14332 0.19062
 C381 C 0.67108 0.17251 0.34716
 C382 C 0.68392 0.18603 0.39054
 C383 C 0.60282 0.10134 0.16912
 C384 C 0.58629 0.08419 0.13490
 H385 H 0.62024 0.16639 0.31923
 H386 H 0.58909 0.13372 0.23796
 H387 H 0.62106 0.08424 0.26688
 H388 H 0.65219 0.11684 0.34819
 H389 H 0.68718 0.17791 0.22491
 H390 H 0.65589 0.14508 0.14329
 C391 C 0.50248 0.15590 -0.29688
 C392 C 0.49524 0.16217 -0.23362
 C393 C 0.49403 0.14432 -0.18953
 C394 C 0.50019 0.12204 -0.21320
 C395 C 0.52851 0.13810 -0.24428
 C396 C 0.52973 0.15587 -0.28821
 C397 C 0.48080 0.12558 -0.30914
 C398 C 0.47960 0.10782 -0.26527
 C399 C 0.50372 0.17433 -0.34592
 C400 C 0.50442 0.18769 -0.38971
 C401 C 0.49896 0.10232 -0.16734
 C402 C 0.49783 0.08489 -0.13311
 H403 H 0.49132 0.17901 -0.22434
 H404 H 0.48907 0.14586 -0.14247
 H405 H 0.54607 0.13573 -0.23266
 H406 H 0.54838 0.16873 -0.31423
 H407 H 0.46744 0.11866 -0.34879
 H408 H 0.46523 0.08572 -0.26739
 C409 C 0.65387 0.49912 -0.29916
 C410 C 0.64527 0.52094 -0.30968
 C411 C 0.62832 0.52133 -0.26575
 C412 C 0.62155 0.49986 -0.21535
 C413 C 0.64975 0.50561 -0.19121
 C414 C 0.66680 0.50523 -0.23539
 C415 C 0.62659 0.47165 -0.29264
 C416 C 0.60961 0.47205 -0.24860
 C417 C 0.67151 0.49881 -0.34830
 C418 C 0.68433 0.49848 -0.39215
 C419 C 0.60278 0.50056 -0.16953
 C420 C 0.58643 0.50163 -0.13542
 H421 H 0.65194 0.53492 -0.34834
 H422 H 0.62046 0.53562 -0.26687
 H423 H 0.65570 0.50944 -0.14369
 H424 H 0.68736 0.50873 -0.22573
 H425 H 0.62117 0.45341 -0.31989
 H426 H 0.58968 0.45418 -0.23816
 C427 C 0.84567 0.34630 -0.29851
 C428 C 0.84520 0.37342 -0.29097
 C429 C 0.86260 0.39028 -0.24696
 C430 C 0.87878 0.37843 -0.21477
 C431 C 0.89346 0.37208 -0.26594
 C432 C 0.87611 0.35523 -0.30984
 C433 C 0.83917 0.33307 -0.23496
 C434 C 0.85663 0.35001 -0.19080
 C435 C 0.82770 0.32879 -0.34763
 C436 C 0.81454 0.31605 -0.39146
 C437 C 0.89828 0.39718 -0.16914
 C438 C 0.91574 0.41362 -0.13533
 H439 H 0.83220 0.37883 -0.31754
 H440 H 0.86446 0.41007 -0.23576
 H441 H 0.91563 0.38012 -0.26755
 H442 H 0.88341 0.34887 -0.34904
 H443 H 0.82229 0.31238 -0.22545
 H444 H 0.85471 0.34384 -0.14343
 C445 C 0.50034 -0.15517 -0.29420
 C446 C 0.50604 -0.16298 -0.23100
 C447 C 0.50676 -0.14586 -0.18568
 C448 C 0.50171 -0.12269 -0.20825
 C449 C 0.47398 -0.13760 -0.24196
 C450 C 0.47326 -0.15465 -0.28710
 C451 C 0.52270 -0.12483 -0.30320
 C452 C 0.52342 -0.10780 -0.25812
 C453 C 0.49964 -0.17283 -0.34441
 C454 C 0.49919 -0.18583 -0.38864
 C455 C 0.50255 -0.10355 -0.16141
 C456 C 0.50335 -0.08628 -0.12721
 H457 H 0.50920 -0.18037 -0.22259
 H458 H 0.51054 -0.14857 -0.13846
 H459 H 0.45639 -0.13506 -0.23115
 H460 H 0.45505 -0.16671 -0.31492
 H461 H 0.53684 -0.11736 -0.34158
 H462 H 0.53818 -0.08576 -0.25797
 C463 C 0.34495 0.50061 -0.29608
 C464 C 0.35283 0.47817 -0.30561
 C465 C 0.36926 0.47737 -0.26101
 C466 C 0.37625 0.49904 -0.21101
 C467 C 0.34815 0.49403 -0.18776
 C468 C 0.33165 0.49485 -0.23264
 C469 C 0.37257 0.52766 -0.28931
 C470 C 0.38902 0.52684 -0.24465
 C471 C 0.32791 0.50143 -0.34591
 C472 C 0.31533 0.50185 -0.39003
 C473 C 0.39453 0.49805 -0.16443
 C474 C 0.41080 0.49704 -0.13004
 H475 H 0.34597 0.46403 -0.34395
 H476 H 0.37651 0.46256 -0.26126
 H477 H 0.34178 0.49014 -0.14044
 H478 H 0.31113 0.49163 -0.22381
 H479 H 0.37864 0.54589 -0.31709
 H480 H 0.40919 0.54437 -0.23422
 C481 C 1.15467 0.65578 -0.29777
 C482 C 1.16276 0.66926 -0.23458
 C483 C 1.14601 0.65278 -0.18889
 C484 C 1.12288 0.62452 -0.21110
 C485 C 1.13777 0.61186 -0.24578
 C486 C 1.15446 0.62828 -0.29130
 C487 C 1.12424 0.64759 -0.30559
 C488 C 1.10757 0.63121 -0.26016
 C489 C 1.17196 0.67286 -0.34833
 C490 C 1.18479 0.68539 -0.39279
 C491 C 1.10402 0.60616 -0.16393
 C492 C 1.08683 0.58970 -0.12958
 H493 H 1.18013 0.68982 -0.22645
 H494 H 1.14902 0.65920 -0.14161
 H495 H 1.13553 0.59183 -0.23526
 H496 H 1.16648 0.62227 -0.31978
 H497 H 1.11643 0.65413 -0.34355
 H498 H 1.08551 0.62374 -0.25925
 C499 C 0.84447 0.49673 -0.29752
 C500 C 0.84479 0.46958 -0.28945
 C501 C 0.86251 0.47078 -0.24552
 C502 C 0.87821 0.49900 -0.21392
 C503 C 0.85567 0.50470 -0.19000
 C504 C 0.83787 0.50351 -0.23410
 C505 C 0.87470 0.51875 -0.30936
 C506 C 0.89240 0.51993 -0.26551
 C507 C 0.82613 0.49553 -0.34655
 C508 C 0.81283 0.49494 -0.39023
 C509 C 0.89800 0.50032 -0.16840
 C510 C 0.91559 0.50158 -0.13470
 H511 H 0.83207 0.45098 -0.31566
 H512 H 0.86496 0.45323 -0.23404
 H513 H 0.85383 0.50922 -0.14277
 H514 H 0.82079 0.50704 -0.22469
 H515 H 0.88160 0.53236 -0.34865
 H516 H 0.91445 0.53453 -0.26730
 C517 C 0.50158 0.34667 -0.29767
 C518 C 0.49506 0.33326 -0.23430
 C519 C 0.49442 0.35001 -0.18971
 C520 C 0.50040 0.37841 -0.21319
 C521 C 0.47925 0.37204 -0.26395
 C522 C 0.47987 0.35540 -0.30827
 C523 C 0.52902 0.37387 -0.29018
 C524 C 0.52838 0.39055 -0.24576
 C525 C 0.50211 0.32935 -0.34716
 C526 C 0.50242 0.31663 -0.39113
 C527 C 0.49954 0.39699 -0.16727
 C528 C 0.49849 0.41342 -0.13350
 H529 H 0.49136 0.31256 -0.22525
 H530 H 0.49023 0.34368 -0.14241
 H531 H 0.46494 0.37987 -0.26490
 H532 H 0.46609 0.34899 -0.34719
 H533 H 0.54738 0.37947 -0.31712
 H534 H 0.54621 0.41038 -0.23451
 C535 C 0.65256 0.15603 -0.29587
 C536 C 0.66572 0.16288 -0.23231
 C537 C 0.64900 0.14522 -0.18805
 C538 C 0.62088 0.12254 -0.21198
 C539 C 0.62782 0.10819 -0.26287
 C540 C 0.64444 0.12576 -0.30687
 C541 C 0.62506 0.15570 -0.28859
 C542 C 0.60843 0.13811 -0.24451
 C543 C 0.66979 0.17427 -0.34500
 C544 C 0.68252 0.18756 -0.38871
 C545 C 0.60232 0.10282 -0.16635
 C546 C 0.58599 0.08519 -0.13262
 H547 H 0.68626 0.18001 -0.22293
 H548 H 0.65519 0.14726 -0.14070
 H549 H 0.62040 0.08612 -0.26410
 H550 H 0.65129 0.11872 -0.34571
 H551 H 0.61924 0.16831 -0.31547
 H552 H 0.58842 0.13569 -0.23354
 C553 C 1.15442 0.49920 -0.29882
 C554 C 1.15412 0.52640 -0.29153
 C555 C 1.13746 0.52587 -0.24567
 C556 C 1.12271 0.49818 -0.21154
 C557 C 1.14594 0.49305 -0.18997
 C558 C 1.16267 0.49359 -0.23602
 C559 C 1.12402 0.47691 -0.30668
 C560 C 1.10739 0.47637 -0.26091
 C561 C 1.17160 0.49965 -0.34972
 C562 C 1.18428 0.49995 -0.39438
 C563 C 1.10391 0.49744 -0.16406
 C564 C 1.08677 0.49661 -0.12948
 H565 H 1.16609 0.54457 -0.31967
 H566 H 1.13515 0.54357 -0.23453
 H567 H 1.14902 0.48943 -0.14288
 H568 H 1.18010 0.49042 -0.22839
 H569 H 1.11623 0.46269 -0.34485
 H570 H 1.08535 0.46170 -0.25991
 C571 C 0.49957 0.65451 -0.29741
 C572 C 0.52188 0.64642 -0.30599
 C573 C 0.52267 0.63041 -0.26037
 C574 C 0.50108 0.62397 -0.21043
 C575 C 0.47326 0.61096 -0.24383
 C576 C 0.47247 0.62700 -0.28956
 C577 C 0.50542 0.66844 -0.23466
 C578 C 0.50621 0.65232 -0.18876
 C579 C 0.49886 0.67117 -0.34817
 C580 C 0.49852 0.68355 -0.39276
 C581 C 0.50209 0.60599 -0.16315
 C582 C 0.50316 0.58974 -0.12879
 H583 H 0.53590 0.65279 -0.34455
 H584 H 0.53739 0.62306 -0.25992
 H585 H 0.45567 0.59097 -0.23232
 H586 H 0.45419 0.62074 -0.31722
 H587 H 0.50854 0.68902 -0.22693
 H588 H 0.50999 0.65907 -0.14170
 C589 C 0.34561 -0.15575 -0.29478
 C590 C 0.35344 -0.12546 -0.30423
 C591 C 0.36936 -0.10835 -0.25895
 C592 C 0.37596 -0.12311 -0.20841
 C593 C 0.38917 -0.13794 -0.24120
 C594 C 0.37323 -0.15508 -0.28657
 C595 C 0.33169 -0.16355 -0.23194
 C596 C 0.34770 -0.14634 -0.18639
 C597 C 0.32903 -0.17349 -0.34519
 C598 C 0.31661 -0.18639 -0.38955
 C599 C 0.39384 -0.10381 -0.16144
 C600 C 0.41001 -0.08639 -0.12718
 H601 H 0.34696 -0.11808 -0.34307
 H602 H 0.37651 -0.08632 -0.25907
 H603 H 0.40923 -0.13532 -0.22959
 H604 H 0.37965 -0.16710 -0.31386
 H605 H 0.31116 -0.18099 -0.22396
 H606 H 0.34091 -0.14906 -0.13936
 C607 C 0.49982 -0.15528 0.29557
 C608 C 0.47257 -0.15519 0.28754
 C609 C 0.47335 -0.13818 0.24225
 C610 C 0.50131 -0.12288 0.20936
 C611 C 0.50696 -0.14570 0.18721
 C612 C 0.50618 -0.16279 0.23268
 C613 C 0.52180 -0.12485 0.30505
 C614 C 0.52259 -0.10785 0.25983
 C615 C 0.49902 -0.17292 0.34586
 C616 C 0.49853 -0.18592 0.39008
 C617 C 0.50217 -0.10380 0.16237
 C618 C 0.50296 -0.08657 0.12807
 H619 H 0.45422 -0.16748 0.31492
 H620 H 0.45568 -0.13588 0.23089
 H621 H 0.51128 -0.14815 0.14020
 H622 H 0.50982 -0.17991 0.22462
 H623 H 0.53568 -0.11732 0.34380
 H624 H 0.53714 -0.08576 0.25992
 C625 C 0.34425 0.49909 0.29406
 C626 C 0.33054 0.49297 0.23106
 C627 C 0.34701 0.49252 0.18556
 C628 C 0.37547 0.49823 0.20777
 C629 C 0.36923 0.47675 0.25787
 C630 C 0.35287 0.47720 0.30312
 C631 C 0.37147 0.52652 0.28647
 C632 C 0.38787 0.52607 0.24112
 C633 C 0.32721 0.49946 0.34442
 C634 C 0.31459 0.49973 0.38868
 C635 C 0.39382 0.49757 0.16085
 C636 C 0.41032 0.49681 0.12668
 H637 H 0.30984 0.48943 0.22291
 H638 H 0.34045 0.48859 0.13841
 H639 H 0.37696 0.46234 0.25774
 H640 H 0.34658 0.46318 0.34169
 H641 H 0.37726 0.54476 0.31401
 H642 H 0.40771 0.54393 0.22984
 C643 C 1.15560 0.65420 0.29392
 C644 C 1.12535 0.64656 0.30297
 C645 C 1.10831 0.63069 0.25752
 C646 C 1.12312 0.62395 0.20728
 C647 C 1.13769 0.61058 0.24041
 C648 C 1.15474 0.62647 0.28591
 C649 C 1.16362 0.66812 0.23111
 C650 C 1.14649 0.65216 0.18542
 C651 C 1.17328 0.67071 0.34444
 C652 C 1.18620 0.68308 0.38882
 C653 C 1.10399 0.60609 0.16010
 C654 C 1.08672 0.58985 0.12571
 H655 H 1.11796 0.65316 0.34161
 H656 H 1.08634 0.62370 0.25730
 H657 H 1.13489 0.59041 0.22902
 H658 H 1.16654 0.61990 0.31351
 H659 H 1.18109 0.68865 0.22326
 H660 H 1.14928 0.65900 0.13842
 C661 C 0.50127 0.15479 0.29909
 C662 C 0.47918 0.12446 0.30944
 C663 C 0.47856 0.10710 0.26535
 C664 C 0.50007 0.12167 0.21499
 C665 C 0.52789 0.13717 0.24817
 C666 C 0.52852 0.15457 0.29237
 C667 C 0.49527 0.16188 0.23543
 C668 C 0.49465 0.14441 0.19105
 C669 C 0.50185 0.17274 0.34841
 C670 C 0.50230 0.18592 0.39225
 C671 C 0.49919 0.10213 0.16925
 C672 C 0.49809 0.08464 0.13538
 H673 H 0.46515 0.11724 0.34803
 H674 H 0.46399 0.08502 0.26617
 H675 H 0.54562 0.13489 0.23744
 H676 H 0.54681 0.16717 0.31956
 H677 H 0.49198 0.17912 0.22603
 H678 H 0.49082 0.14669 0.14360
 C679 C 0.65195 0.49638 0.29707
 C680 C 0.64513 0.51956 0.30675
 C681 C 0.62872 0.52081 0.26271
 C682 C 0.62068 0.49877 0.21313
 C683 C 0.60740 0.47112 0.24736
 C684 C 0.62381 0.46985 0.29146
 C685 C 0.66474 0.50146 0.23316
 C686 C 0.64823 0.50270 0.18887
 C687 C 0.66901 0.49516 0.34623
 C688 C 0.68171 0.49462 0.38996
 C689 C 0.60236 0.50019 0.16741
 C690 C 0.58617 0.50156 0.13346
 H691 H 0.65261 0.53382 0.34487
 H692 H 0.62214 0.53612 0.26314
 H693 H 0.58693 0.45403 0.23763
 H694 H 0.61738 0.45162 0.31951
 H695 H 0.68487 0.50381 0.22357
 H696 H 0.65420 0.50609 0.14129
 C697 C 0.84507 0.34828 0.29766
 C698 C 0.87553 0.35811 0.31128
 C699 C 0.89316 0.37453 0.26715
 C700 C 0.87867 0.37956 0.21355
 C701 C 0.86159 0.39127 0.24220
 C702 C 0.84393 0.37484 0.28643
 C703 C 0.83959 0.33407 0.23531
 C704 C 0.85732 0.35058 0.19093
 C705 C 0.82681 0.33121 0.34689
 C706 C 0.81355 0.31850 0.39065
 C707 C 0.89837 0.39789 0.16769
 C708 C 0.91588 0.41409 0.13363
 H709 H 0.88266 0.35256 0.35199
 H710 H 0.91537 0.38302 0.27008
 H711 H 0.86311 0.41066 0.22861
 H712 H 0.83034 0.38020 0.31082
 H713 H 0.82328 0.31300 0.22679
 H714 H 0.85620 0.34366 0.14436
   
