data_POSCAR
  _audit_creation_date              2014-09-24
  _audit_creation_method            'ToBaCCo'
  _symmetry_space_group_name_H-M    'P1'
  _symmetry_Int_Tables_number       1
  _symmetry_cell_setting            triclinic
  loop_
  _symmetry_equiv_pos_as_xyz
 x,y,z
_cell_length_a 35.0578
_cell_length_b 32.1639
_cell_length_c 32.4262
_cell_angle_alpha 90.907000
_cell_angle_beta 89.824400
_cell_angle_gamma 90.411400
loop_
  _atom_site_label
  _atom_site_type_symbol
  _atom_site_fract_x
  _atom_site_fract_y
  _atom_site_fract_z
C1 C 1.25082 0.23649 0.23710
 C2 C 0.76194 -0.25176 0.26221
 C3 C 0.74934 0.26105 -0.26463
 C4 C 1.25115 -0.25025 -0.23569
 C5 C 0.25018 0.24389 0.75825
 C6 C 0.75124 0.74649 0.73757
 C7 C 0.74531 0.24846 0.26392
 C8 C 0.24069 0.75474 0.23513
 O9 O 0.92676 -0.05438 -0.08263
 O10 O 0.95993 -0.09849 -0.04112
 C11 C 0.93638 -0.09123 -0.07098
 O12 O 1.05807 0.06841 -0.07257
 O13 O 1.01766 0.11400 -0.03949
 C14 C 1.04627 0.10564 -0.06354
 O15 O 1.05991 -0.04764 -0.07619
 O16 O 1.02428 -0.09496 -0.03991
 C17 C 1.05034 -0.08528 -0.06675
 O18 O 0.91932 0.06159 -0.08009
 O19 O 0.95279 0.11057 -0.04255
 C20 C 0.92770 0.09987 -0.07009
 Zr21 Zr 0.94154 0.00476 -0.05884
 O22 O 0.94285 0.00757 -0.12400
 O23 O 0.88150 -0.00291 -0.06021
 Zr24 Zr 1.03741 0.00945 -0.05492
 O25 O 1.03844 0.01236 -0.12013
 O26 O 1.09778 0.00856 -0.05368
 O27 O 0.99108 -0.03034 -0.06469
 O28 O 0.98859 0.04307 -0.06503
 O29 O 0.91272 0.06403 0.06256
 O30 O 0.94776 0.11147 0.02597
 C31 C 0.92080 0.10162 0.05158
 O32 O 1.05432 -0.04419 0.07182
 O33 O 1.02204 -0.09354 0.03351
 C34 C 1.04637 -0.08250 0.06193
 O35 O 1.05550 0.07101 0.06432
 O36 O 1.01645 0.11520 0.02939
 C37 C 1.04439 0.10783 0.05430
 O38 O 0.92169 -0.05075 0.06926
 O39 O 0.95787 -0.09667 0.03123
 C40 C 0.93267 -0.08809 0.05954
 Zr41 Zr 0.93769 0.00727 0.04488
 O42 O 0.93515 0.01419 0.10987
 O43 O 0.87778 -0.00107 0.04242
 Zr44 Zr 1.03306 0.01210 0.04895
 O45 O 1.02514 0.01889 0.11352
 O46 O 1.09258 0.01246 0.05905
 Zr47 Zr 0.98972 -0.05409 -0.00442
 Zr48 Zr 0.98527 0.07074 -0.00585
 O49 O 0.98390 0.04666 0.05407
 O50 O 0.98649 -0.02751 0.05543
 O51 O 0.93070 0.04277 -0.00776
 O52 O 1.04367 -0.02505 -0.00233
 O53 O 0.93385 -0.03069 -0.00685
 O54 O 1.04156 0.04799 -0.00318
 H55 H 0.98905 0.06109 -0.08954
 H56 H 1.06692 -0.04235 -0.00145
 H57 H 0.98252 0.06669 0.07758
 H58 H 0.91213 -0.05057 -0.00732
 H59 H 1.10633 0.03126 -0.03486
 H60 H 1.10478 0.01076 0.03160
 H61 H 1.01889 -0.00883 0.12461
 H62 H 0.95239 -0.00665 0.12173
 H63 H 0.86754 0.02033 0.02398
 H64 H 0.87008 0.02170 -0.04643
 H65 H 0.96147 -0.01327 -0.13396
 H66 H 1.02661 -0.01352 -0.13112
 O67 O 1.08407 0.43654 0.56720
 O68 O 1.04741 0.38962 0.53066
 C69 C 1.07370 0.39887 0.55760
 O70 O 0.94647 0.54967 0.57505
 O71 O 0.98106 0.59776 0.53885
 C72 C 0.95492 0.58759 0.56556
 O73 O 0.95091 0.43458 0.57599
 O74 O 0.98361 0.38869 0.53428
 C75 C 0.95974 0.39728 0.56375
 O76 O 1.08851 0.55151 0.56572
 O77 O 1.05071 0.59844 0.53262
 C78 C 1.07889 0.58905 0.55660
 Zr79 Zr 1.06503 0.49414 0.54614
 O80 O 1.07029 0.49828 0.61111
 O81 O 1.12500 0.48957 0.53967
 Zr82 Zr 0.96995 0.49311 0.55521
 O83 O 0.98040 0.49702 0.61950
 O84 O 0.91090 0.49006 0.56816
 O85 O 1.01798 0.45604 0.55775
 O86 O 1.01796 0.53041 0.55929
 O87 O 1.07667 0.55330 0.42200
 O88 O 1.04479 0.59941 0.46420
 C89 C 1.06839 0.59075 0.43432
 O90 O 0.94028 0.43743 0.42940
 O91 O 0.97871 0.39037 0.46168
 C92 C 0.95125 0.39993 0.43680
 O93 O 0.93844 0.55301 0.43638
 O94 O 0.97847 0.59919 0.46970
 C95 C 0.94971 0.59046 0.44595
 O96 O 1.07352 0.43755 0.41674
 O97 O 1.04238 0.39009 0.45712
 C98 C 1.06516 0.39974 0.42705
 Zr99 Zr 1.05715 0.49511 0.44287
 O100 O 1.05244 0.49990 0.37804
 O101 O 1.11727 0.49119 0.43788
 Zr102 Zr 0.96161 0.49476 0.45177
 O103 O 0.95779 0.49995 0.38688
 O104 O 0.90144 0.49075 0.45658
 Zr105 Zr 1.01324 0.43161 0.49715
 Zr106 Zr 1.01354 0.55693 0.50066
 O107 O 1.00890 0.53133 0.44071
 O108 O 1.00864 0.45769 0.43808
 O109 O 1.06876 0.53193 0.49475
 O110 O 0.95854 0.45770 0.50298
 O111 O 1.06811 0.45820 0.49295
 O112 O 0.95826 0.53088 0.50521
 H113 H 1.01949 0.54947 0.58355
 H114 H 0.93581 0.43927 0.50416
 H115 H 1.00703 0.55015 0.41691
 H116 H 1.09039 0.43950 0.49070
 H117 H 0.89772 0.48873 0.54130
 H118 H 0.89305 0.51287 0.47607
 H119 H 0.97050 0.47547 0.37430
 H120 H 1.03551 0.47710 0.36826
 H121 H 1.12836 0.51534 0.45296
 H122 H 1.13379 0.51336 0.52309
 H123 H 1.05360 0.47660 0.62298
 H124 H 0.98719 0.46892 0.62894
 O125 O 0.54526 0.07109 0.57320
 O126 O 0.58651 0.02787 0.53855
 C127 C 0.57931 0.05804 0.56455
 O128 O 0.42881 -0.06829 0.57527
 O129 O 0.38974 -0.03007 0.53407
 C130 C 0.39534 -0.05654 0.56344
 O131 O 0.53429 -0.07179 0.58430
 O132 O 0.58072 -0.04153 0.54440
 C133 C 0.56960 -0.06424 0.57481
 O134 O 0.44084 0.08456 0.56200
 O135 O 0.39582 0.04439 0.52857
 C136 C 0.40615 0.07641 0.55086
 Zr137 Zr 0.49166 0.05233 0.54996
 O138 O 0.48458 0.05477 0.61484
 O139 O 0.50055 0.11747 0.54996
 Zr140 Zr 0.48379 -0.05156 0.55553
 O141 O 0.47998 -0.05261 0.62062
 O142 O 0.48065 -0.11718 0.55246
 O143 O 0.52134 -0.00149 0.56261
 O144 O 0.45394 0.00382 0.55899
 O145 O 0.44617 0.07584 0.42847
 O146 O 0.39840 0.04014 0.46163
 C147 C 0.41065 0.06943 0.43771
 O148 O 0.53986 -0.08511 0.43165
 O149 O 0.58330 -0.04909 0.47175
 C150 C 0.57437 -0.07720 0.44414
 O151 O 0.43310 -0.08041 0.43190
 O152 O 0.39236 -0.03470 0.46432
 C153 C 0.39918 -0.06616 0.43977
 O154 O 0.55106 0.05885 0.42500
 O155 O 0.58908 0.02219 0.46879
 C156 C 0.58413 0.04785 0.43889
 Zr157 Zr 0.49552 0.04375 0.44580
 O158 O 0.49406 0.03089 0.38173
 O159 O 0.50356 0.10748 0.43303
 Zr160 Zr 0.48743 -0.05939 0.45204
 O161 O 0.48585 -0.06318 0.38682
 O162 O 0.48616 -0.12501 0.45606
 Zr163 Zr 0.54662 -0.00771 0.50377
 Zr164 Zr 0.43227 0.00113 0.49859
 O165 O 0.45783 -0.00537 0.43999
 O166 O 0.52621 -0.01103 0.44264
 O167 O 0.46098 0.05894 0.49599
 O168 O 0.51848 -0.06564 0.50589
 O169 O 0.52691 0.05357 0.49891
 O170 O 0.45084 -0.06089 0.50288
 H171 H 0.43560 0.00776 0.58200
 H172 H 0.53397 -0.09113 0.50841
 H173 H 0.44094 -0.00505 0.41555
 H174 H 0.54526 0.07710 0.49826
 H175 H 0.47959 -0.12659 0.58139
 H176 H 0.46566 -0.13232 0.47577
 H177 H 0.50792 -0.04713 0.37629
 H178 H 0.49541 0.05824 0.36818
 H179 H 0.50637 0.12205 0.45989
 H180 H 0.48705 0.12834 0.52570
 H181 H 0.50649 0.04026 0.62714
 H182 H 0.47459 -0.02393 0.63013
 O183 O 0.55922 0.58217 0.07298
 O184 O 0.60383 0.54401 0.03688
 C185 C 0.59398 0.57418 0.06200
 O186 O 0.45793 0.42604 0.08005
 O187 O 0.41476 0.46148 0.04128
 C188 C 0.42331 0.43425 0.06876
 O189 O 0.56412 0.43636 0.08435
 O190 O 0.60600 0.47168 0.04300
 C191 C 0.59845 0.44687 0.07322
 O192 O 0.45320 0.57938 0.07123
 O193 O 0.41218 0.53353 0.03878
 C194 C 0.41929 0.56482 0.06331
 Zr195 Zr 0.50734 0.55580 0.05361
 O196 O 0.50713 0.55387 0.11870
 O197 O 0.50474 0.62150 0.05540
 Zr198 Zr 0.51032 0.45224 0.06026
 O199 O 0.50587 0.45975 0.12512
 O200 O 0.51650 0.38734 0.06723
 O201 O 0.54346 0.50620 0.06475
 O202 O 0.47527 0.50319 0.06465
 O203 O 0.45383 0.56914 -0.07020
 O204 O 0.41260 0.53219 -0.02932
 C205 C 0.41980 0.55963 -0.05724
 O206 O 0.56341 0.42129 -0.06351
 O207 O 0.60579 0.46315 -0.02778
 C208 C 0.59762 0.43229 -0.05280
 O209 O 0.45739 0.41679 -0.06217
 O210 O 0.41432 0.45805 -0.02782
 C211 C 0.42274 0.42748 -0.05275
 O212 O 0.56056 0.56836 -0.07487
 O213 O 0.60395 0.53464 -0.03469
 C214 C 0.59526 0.55951 -0.06431
 Zr215 Zr 0.50775 0.54761 -0.05050
 O216 O 0.50347 0.54013 -0.11534
 O217 O 0.50976 0.61306 -0.05618
 Zr218 Zr 0.51011 0.44382 -0.04391
 O219 O 0.50687 0.44188 -0.10914
 O220 O 0.51461 0.37827 -0.04222
 Zr221 Zr 0.56653 0.50202 0.00461
 Zr222 Zr 0.45184 0.49766 0.00517
 O223 O 0.47535 0.49404 -0.05450
 O224 O 0.54355 0.49621 -0.05536
 O225 O 0.47357 0.55875 0.00124
 O226 O 0.54338 0.44152 0.00868
 O227 O 0.54047 0.56067 0.00079
 O228 O 0.47656 0.43832 0.00882
 H229 H 0.45793 0.50396 0.08885
 H230 H 0.56041 0.41722 0.01099
 H231 H 0.45785 0.49205 -0.07840
 H232 H 0.55653 0.58595 -0.00170
 H233 H 0.49990 0.37358 0.04648
 H234 H 0.49511 0.36810 -0.02265
 H235 H 0.53107 0.45331 -0.12013
 H236 H 0.52648 0.52523 -0.12504
 H237 H 0.49121 0.62480 -0.03617
 H238 H 0.51548 0.63155 0.02916
 H239 H 0.50488 0.58309 0.12844
 H240 H 0.52704 0.47819 0.13423
 C241 C 1.18985 0.23063 0.19087
 C242 C 1.16942 0.21036 0.15907
 C243 C 1.18707 0.17817 0.13594
 C244 C 1.22485 0.16764 0.14377
 C245 C 1.24452 0.18711 0.17581
 C246 C 1.22703 0.21759 0.20126
 C247 C 1.16639 0.15582 0.10624
 C248 C 1.12774 0.16399 0.10039
 C249 C 1.10996 0.19698 0.12217
 C250 C 1.13122 0.22062 0.15095
 C251 C 1.07081 0.20408 0.11625
 C252 C 1.04912 0.17674 0.09143
 C253 C 1.06659 0.14247 0.07215
 C254 C 1.10610 0.13756 0.07512
 H255 H 1.17633 0.25599 0.20736
 H256 H 1.23891 0.14345 0.12586
 H257 H 1.27350 0.17744 0.18172
 H258 H 1.17986 0.13054 0.08923
 H259 H 1.11756 0.24539 0.16846
 H260 H 1.05665 0.22937 0.13242
 H261 H 1.01855 0.18085 0.08938
 H262 H 1.11964 0.11127 0.05979
 C263 C 1.21911 0.72264 0.69504
 C264 C 1.19068 0.69819 0.67534
 C265 C 1.16782 0.67099 0.69894
 C266 C 1.17315 0.66872 0.74135
 C267 C 1.20006 0.69395 0.76069
 C268 C 1.22284 0.72258 0.73852
 C269 C 1.14009 0.64594 0.67995
 C270 C 1.13424 0.64789 0.63749
 C271 C 1.15603 0.67573 0.61350
 C272 C 1.18447 0.70049 0.63253
 C273 C 1.14930 0.67756 0.57085
 C274 C 1.12229 0.65098 0.55220
 C275 C 1.10177 0.62237 0.57595
 C276 C 1.10748 0.62144 0.61858
 H277 H 1.23812 0.74066 0.67609
 H278 H 1.15608 0.64777 0.75980
 H279 H 1.20258 0.69185 0.79386
 H280 H 1.12314 0.62468 0.69826
 H281 H 1.20159 0.72149 0.61415
 H282 H 1.16561 0.69865 0.55181
 H283 H 1.11893 0.65119 0.51908
 H284 H 1.09180 0.59906 0.63687
 C285 C 0.72284 0.20724 0.68403
 C286 C 0.69332 0.18469 0.66488
 C287 C 0.65512 0.19606 0.67249
 C288 C 0.64725 0.23012 0.69857
 C289 C 0.67683 0.25191 0.71831
 C290 C 0.71516 0.23988 0.71268
 C291 C 0.62542 0.17306 0.65411
 C292 C 0.63348 0.13851 0.62863
 C293 C 0.67169 0.12705 0.62096
 C294 C 0.70143 0.15039 0.63899
 C295 C 0.67940 0.09239 0.59547
 C296 C 0.64952 0.06940 0.57751
 C297 C 0.61141 0.08067 0.58478
 C298 C 0.60378 0.11529 0.61064
 H299 H 0.75214 0.19813 0.67835
 H300 H 0.61808 0.23968 0.70411
 H301 H 0.66918 0.27807 0.73780
 H302 H 0.59605 0.18181 0.65994
 H303 H 0.73081 0.14160 0.63327
 H304 H 0.70855 0.08314 0.58929
 H305 H 0.65628 0.04303 0.55771
 H306 H 0.57461 0.12463 0.61660
 C307 C 0.71570 0.72191 0.20357
 C308 C 0.70290 0.69142 0.17526
 C309 C 0.71934 0.65155 0.17453
 C310 C 0.75109 0.64434 0.19926
 C311 C 0.76530 0.67576 0.22545
 C312 C 0.74654 0.71464 0.23045
 C313 C 0.70370 0.61980 0.14914
 C314 C 0.67255 0.62815 0.12336
 C315 C 0.65882 0.66941 0.12147
 C316 C 0.67360 0.70044 0.14771
 C317 C 0.62937 0.67890 0.09444
 C318 C 0.61133 0.64739 0.07203
 C319 C 0.62189 0.60563 0.07647
 C320 C 0.65375 0.59608 0.10076
 H321 H 0.70081 0.75083 0.20382
 H322 H 0.76530 0.61454 0.19805
 H323 H 0.79103 0.66902 0.24232
 H324 H 0.71533 0.58867 0.14992
 H325 H 0.66177 0.73151 0.14720
 H326 H 0.61912 0.71048 0.09196
 H327 H 0.58715 0.65538 0.05305
 H328 H 0.66207 0.56395 0.10430
 C329 C 0.80815 -0.23235 0.20196
 C330 C 0.83303 -0.20408 0.18276
 C331 C 0.84153 -0.16563 0.20241
 C332 C 0.82651 -0.15676 0.24150
 C333 C 0.80221 -0.18505 0.26055
 C334 C 0.79146 -0.22288 0.24084
 C335 C 0.86453 -0.13631 0.18254
 C336 C 0.87930 -0.14490 0.14317
 C337 C 0.87230 -0.18394 0.12398
 C338 C 0.84912 -0.21334 0.14390
 C339 C 0.88802 -0.19243 0.08485
 C340 C 0.90923 -0.16192 0.06435
 C341 C 0.91460 -0.12238 0.08247
 C342 C 0.90026 -0.11451 0.12232
 H343 H 0.80182 -0.26133 0.18604
 H344 H 0.83328 -0.12770 0.25727
 H345 H 0.79131 -0.17708 0.29091
 H346 H 0.87037 -0.10650 0.19741
 H347 H 0.84307 -0.24302 0.12888
 H348 H 0.88329 -0.22232 0.06979
 H349 H 0.92021 -0.16872 0.03378
 H350 H 0.90481 -0.08430 0.13689
 C351 C 0.81323 0.26907 0.69339
 C352 C 0.83463 0.29002 0.66318
 C353 C 0.81644 0.31913 0.63775
 C354 C 0.77728 0.32550 0.64134
 C355 C 0.75655 0.30547 0.67174
 C356 C 0.77425 0.27855 0.69989
 C357 C 0.83775 0.34268 0.61003
 C358 C 0.87732 0.33842 0.60797
 C359 C 0.89579 0.30816 0.63177
 C360 C 0.87418 0.28367 0.65898
 C361 C 0.93569 0.30437 0.62907
 C362 C 0.95705 0.33191 0.60486
 C363 C 0.93862 0.36337 0.58328
 C364 C 0.89881 0.36561 0.58393
 H365 H 0.82749 0.24642 0.71194
 H366 H 0.76285 0.34721 0.62159
 H367 H 0.72652 0.31267 0.67474
 H368 H 0.82371 0.36569 0.59135
 H369 H 0.88832 0.26116 0.67811
 H370 H 0.95044 0.28122 0.64682
 H371 H 0.98788 0.33002 0.60465
 H372 H 0.88467 0.38987 0.56696
 C373 C 0.26355 -0.19244 0.70868
 C374 C 0.28911 -0.16548 0.68779
 C375 C 0.32690 -0.16106 0.70240
 C376 C 0.33866 -0.18269 0.73678
 C377 C 0.31421 -0.21053 0.75556
 C378 C 0.27672 -0.21827 0.74084
 C379 C 0.35303 -0.13551 0.68231
 C380 C 0.34291 -0.11541 0.64625
 C381 C 0.30554 -0.11918 0.63063
 C382 C 0.27837 -0.14362 0.65209
 C383 C 0.29679 -0.09927 0.59338
 C384 C 0.32527 -0.07746 0.57144
 C385 C 0.36276 -0.07490 0.58672
 C386 C 0.37061 -0.09293 0.62492
 H387 H 0.23394 -0.19378 0.69938
 H388 H 0.36729 -0.17874 0.74885
 H389 H 0.32534 -0.22607 0.78224
 H390 H 0.38193 -0.13254 0.69398
 H391 H 0.24959 -0.14684 0.64027
 H392 H 0.26831 -0.10154 0.58066
 H393 H 0.31830 -0.06375 0.54215
 H394 H 0.39908 -0.09072 0.63781
 C395 C 0.27839 0.28953 0.18738
 C396 C 0.30833 0.31045 0.16778
 C397 C 0.34624 0.29752 0.17386
 C398 C 0.35334 0.26312 0.19858
 C399 C 0.32332 0.24264 0.21843
 C400 C 0.28539 0.25671 0.21479
 C401 C 0.37638 0.31921 0.15519
 C402 C 0.36897 0.35387 0.13076
 C403 C 0.33091 0.36645 0.12435
 C404 C 0.30084 0.34457 0.14276
 C405 C 0.32355 0.40092 0.09980
 C406 C 0.35359 0.42291 0.08183
 C407 C 0.39161 0.41095 0.08818
 C408 C 0.39903 0.37624 0.11273
 H409 H 0.24935 0.29979 0.18270
 H410 H 0.38218 0.25208 0.20271
 H411 H 0.33028 0.21562 0.23616
 H412 H 0.40555 0.30938 0.15998
 H413 H 0.27166 0.35442 0.13805
 H414 H 0.29454 0.41095 0.09455
 H415 H 0.34698 0.44946 0.06308
 H416 H 0.42817 0.36645 0.11767
 C417 C 0.80276 0.24031 -0.21429
 C418 C 0.82071 0.21175 -0.18827
 C419 C 0.80535 0.17124 -0.18460
 C420 C 0.77205 0.16030 -0.20542
 C421 C 0.75424 0.18869 -0.23054
 C422 C 0.77003 0.22874 -0.23744
 C423 C 0.82309 0.14214 -0.15972
 C424 C 0.85615 0.15284 -0.13804
 C425 C 0.87143 0.19350 -0.14053
 C426 C 0.85362 0.22282 -0.16576
 C427 C 0.90438 0.20377 -0.11793
 C428 C 0.92229 0.17376 -0.09395
 C429 C 0.90771 0.13294 -0.09249
 C430 C 0.87426 0.12305 -0.11423
 H431 H 0.81422 0.27156 -0.21674
 H432 H 0.75927 0.12977 -0.20178
 H433 H 0.72733 0.17863 -0.24342
 H434 H 0.81122 0.11101 -0.15738
 H435 H 0.86545 0.25394 -0.16807
 H436 H 0.91651 0.23480 -0.11915
 H437 H 0.94802 0.18223 -0.07735
 H438 H 0.86237 0.09187 -0.11295
 C439 C 0.81933 0.73093 0.31058
 C440 C 0.83625 0.70551 0.34010
 C441 C 0.81517 0.67237 0.35717
 C442 C 0.77694 0.66659 0.34630
 C443 C 0.76011 0.69228 0.31746
 C444 C 0.78104 0.72436 0.29807
 C445 C 0.83290 0.64478 0.38395
 C446 C 0.87152 0.64998 0.39395
 C447 C 0.89215 0.68448 0.37880
 C448 C 0.87439 0.71202 0.35190
 C449 C 0.93056 0.69002 0.38981
 C450 C 0.94887 0.66051 0.41386
 C451 C 0.92912 0.62489 0.42681
 C452 C 0.89019 0.62037 0.41767
 H453 H 0.83686 0.75475 0.29689
 H454 H 0.76020 0.64162 0.35947
 H455 H 0.73064 0.68642 0.30910
 H456 H 0.81695 0.61864 0.39609
 H457 H 0.89051 0.73782 0.33933
 H458 H 0.94672 0.71649 0.37883
 H459 H 0.97895 0.66447 0.42056
 H460 H 0.87472 0.59311 0.42802
 C461 C 0.28730 0.21341 0.30083
 C462 C 0.30084 0.18321 0.32770
 C463 C 0.28873 0.14143 0.32300
 C464 C 0.26137 0.13120 0.29320
 C465 C 0.24800 0.16145 0.26654
 C466 C 0.26269 0.20260 0.26797
 C467 C 0.30482 0.11049 0.34746
 C468 C 0.33351 0.12084 0.37596
 C469 C 0.34425 0.16309 0.38185
 C470 C 0.32749 0.19398 0.35811
 C471 C 0.37306 0.17366 0.40989
 C472 C 0.39298 0.14258 0.42972
 C473 C 0.38398 0.10050 0.42251
 C474 C 0.35319 0.08962 0.39697
 H475 H 0.29737 0.24524 0.30413
 H476 H 0.25066 0.09962 0.29007
 H477 H 0.22622 0.15195 0.24481
 H478 H 0.29620 0.07827 0.34308
 H479 H 0.33655 0.22613 0.36197
 H480 H 0.38141 0.20583 0.41504
 H481 H 0.41656 0.15130 0.44968
 H482 H 0.34644 0.05708 0.39127
 C483 C 0.27690 0.70440 -0.17520
 C484 C 0.30297 0.67497 -0.16046
 C485 C 0.33006 0.65712 -0.18773
 C486 C 0.32922 0.66680 -0.22954
 C487 C 0.30289 0.69518 -0.24408
 C488 C 0.27756 0.71622 -0.21706
 C489 C 0.35771 0.62993 -0.17290
 C490 C 0.35831 0.61952 -0.13114
 C491 C 0.32995 0.63533 -0.10414
 C492 C 0.30264 0.66324 -0.11887
 C493 C 0.32984 0.62337 -0.06270
 C494 C 0.35817 0.59706 -0.04795
 C495 C 0.38749 0.58296 -0.07417
 C496 C 0.38716 0.59395 -0.11587
 H497 H 0.25623 0.71766 -0.15405
 H498 H 0.34914 0.65262 -0.25107
 H499 H 0.30311 0.70206 -0.27667
 H500 H 0.37897 0.61712 -0.19381
 H501 H 0.28149 0.67616 -0.09792
 H502 H 0.30820 0.63483 -0.04156
 H503 H 0.35808 0.58910 -0.01561
 H504 H 0.40956 0.58285 -0.13629
 C505 C 1.18891 -0.21874 -0.20457
 C506 C 1.16924 -0.19592 -0.17422
 C507 C 1.18978 -0.17402 -0.14342
 C508 C 1.22960 -0.17719 -0.14236
 C509 C 1.24885 -0.20211 -0.17131
 C510 C 1.22902 -0.22399 -0.20283
 C511 C 1.17017 -0.14901 -0.11456
 C512 C 1.13014 -0.14693 -0.11541
 C513 C 1.10950 -0.17116 -0.14462
 C514 C 1.12921 -0.19486 -0.17430
 C515 C 1.06946 -0.17057 -0.14420
 C516 C 1.05000 -0.14470 -0.11636
 C517 C 1.07032 -0.11862 -0.08915
 C518 C 1.11035 -0.12028 -0.08824
 H519 H 1.17230 -0.23218 -0.22951
 H520 H 1.24591 -0.16071 -0.11886
 H521 H 1.27948 -0.20437 -0.16880
 H522 H 1.18600 -0.13110 -0.09165
 H523 H 1.11338 -0.21252 -0.19742
 H524 H 1.05324 -0.18930 -0.16609
 H525 H 1.01915 -0.14328 -0.11765
 H526 H 1.12598 -0.09997 -0.06719
 C527 C 1.19482 0.25801 0.28422
 C528 C 1.17553 0.28680 0.30975
 C529 C 1.19102 0.32713 0.31553
 C530 C 1.22572 0.33764 0.29728
 C531 C 1.24485 0.30893 0.27261
 C532 C 1.22906 0.26915 0.26370
 C533 C 1.17203 0.35642 0.34003
 C534 C 1.13773 0.34603 0.35937
 C535 C 1.12220 0.30560 0.35481
 C536 C 1.14118 0.27610 0.32976
 C537 C 1.08802 0.29572 0.37543
 C538 C 1.06938 0.32587 0.39979
 C539 C 1.08443 0.36638 0.40330
 C540 C 1.11882 0.37589 0.38326
 H541 H 1.18321 0.22692 0.28002
 H542 H 1.23850 0.36803 0.30262
 H543 H 1.27261 0.31834 0.26154
 H544 H 1.18401 0.38743 0.34406
 H545 H 1.12928 0.24508 0.32582
 H546 H 1.07569 0.26483 0.37260
 H547 H 1.04298 0.31778 0.41521
 H548 H 1.13118 0.40679 0.38636
 C549 C 0.71965 -0.22097 0.32254
 C550 C 0.69299 -0.19220 0.33812
 C551 C 0.67430 -0.16525 0.31107
 C552 C 0.68451 -0.16562 0.26935
 C553 C 0.71253 -0.19277 0.25452
 C554 C 0.72932 -0.22308 0.27989
 C555 C 0.64677 -0.13736 0.32641
 C556 C 0.63895 -0.13485 0.36891
 C557 C 0.65938 -0.16019 0.39631
 C558 C 0.68565 -0.18923 0.38069
 C559 C 0.65328 -0.15600 0.43895
 C560 C 0.62669 -0.12752 0.45435
 C561 C 0.60504 -0.10361 0.42738
 C562 C 0.61125 -0.10729 0.38463
 H563 H 0.73369 -0.24005 0.34480
 H564 H 0.67184 -0.14381 0.24837
 H565 H 0.72196 -0.18905 0.22297
 H566 H 0.63195 -0.11716 0.30542
 H567 H 0.70071 -0.20916 0.40174
 H568 H 0.66897 -0.17485 0.46039
 H569 H 0.62202 -0.12514 0.48736
 H570 H 0.59467 -0.08859 0.36380
 C571 C 0.71491 0.28739 -0.19916
 C572 C 0.70245 0.31890 -0.17184
 C573 C 0.71109 0.36092 -0.18002
 C574 C 0.73483 0.37037 -0.21327
 C575 C 0.74843 0.33883 -0.23932
 C576 C 0.73686 0.29680 -0.23452
 C577 C 0.69565 0.39280 -0.15509
 C578 C 0.67199 0.38307 -0.12158
 C579 C 0.66585 0.34081 -0.11158
 C580 C 0.68092 0.30907 -0.13682
 C581 C 0.64313 0.33085 -0.07758
 C582 C 0.62411 0.36210 -0.05578
 C583 C 0.62753 0.40385 -0.06736
 C584 C 0.65271 0.41457 -0.09926
 H585 H 0.70693 0.25538 -0.19339
 H586 H 0.74308 0.40228 -0.21911
 H587 H 0.76803 0.34831 -0.26312
 H588 H 0.70121 0.42507 -0.16241
 H589 H 0.67496 0.27679 -0.12986
 H590 H 0.63846 0.29873 -0.06916
 H591 H 0.60450 0.35338 -0.03144
 H592 H 0.65494 0.44670 -0.10866
 C593 C 1.18869 0.23504 -0.19655
 C594 C 1.16862 0.21340 -0.16586
 C595 C 1.18736 0.18218 -0.14349
 C596 C 1.22585 0.17421 -0.15063
 C597 C 1.24525 0.19507 -0.18143
 C598 C 1.22678 0.22448 -0.20632
 C599 C 1.16713 0.15820 -0.11528
 C600 C 1.12803 0.16404 -0.10987
 C601 C 1.10918 0.19628 -0.13059
 C602 C 1.12979 0.22125 -0.15817
 C603 C 1.06975 0.20153 -0.12466
 C604 C 1.04901 0.17343 -0.10054
 C605 C 1.06759 0.13994 -0.08225
 C606 C 1.10720 0.13643 -0.08572
 H607 H 1.17415 0.25920 -0.21295
 H608 H 1.24071 0.15080 -0.13330
 H609 H 1.27477 0.18701 -0.18713
 H610 H 1.18148 0.13363 -0.09897
 H611 H 1.11529 0.24536 -0.17494
 H612 H 1.05476 0.22623 -0.13997
 H613 H 1.01836 0.17648 -0.09806
 H614 H 1.12160 0.11082 -0.07109
 C615 C 1.19745 0.73325 0.29475
 C616 C 1.17170 0.70562 0.31353
 C617 C 1.16077 0.66876 0.29256
 C618 C 1.17334 0.66164 0.25228
 C619 C 1.19790 0.68979 0.23343
 C620 C 1.21345 0.72495 0.25495
 C621 C 1.13697 0.63982 0.31188
 C622 C 1.12328 0.64765 0.35185
 C623 C 1.13218 0.68562 0.37219
 C624 C 1.15663 0.71432 0.35302
 C625 C 1.11679 0.69382 0.41153
 C626 C 1.09415 0.66391 0.43115
 C627 C 1.08748 0.62500 0.41217
 C628 C 1.10130 0.61765 0.37199
 H629 H 1.20448 0.76124 0.31176
 H630 H 1.16365 0.63451 0.23493
 H631 H 1.20420 0.68383 0.20122
 H632 H 1.12933 0.61106 0.29592
 H633 H 1.16424 0.74308 0.36896
 H634 H 1.12269 0.72308 0.42735
 H635 H 1.08294 0.67068 0.46162
 H636 H 1.09547 0.58815 0.35653
 C637 C 0.72223 0.19920 0.32270
 C638 C 0.69799 0.16728 0.33657
 C639 C 0.67066 0.14953 0.30942
 C640 C 0.66950 0.16192 0.26840
 C641 C 0.69421 0.19271 0.25460
 C642 C 0.71974 0.21342 0.28176
 C643 C 0.64462 0.11987 0.32369
 C644 C 0.64569 0.10729 0.36474
 C645 C 0.67440 0.12296 0.39143
 C646 C 0.70035 0.15302 0.37721
 C647 C 0.67580 0.10920 0.43225
 C648 C 0.64776 0.08205 0.44703
 C649 C 0.61779 0.06865 0.42129
 C650 C 0.61756 0.08041 0.37987
 H651 H 0.74319 0.21224 0.34371
 H652 H 0.64934 0.14792 0.24695
 H653 H 0.69275 0.20147 0.22252
 H654 H 0.62302 0.10721 0.30304
 H655 H 0.72172 0.16593 0.39796
 H656 H 0.69778 0.12051 0.45310
 H657 H 0.64821 0.07352 0.47921
 H658 H 0.59457 0.06990 0.35987
 C659 C 0.73259 0.69242 -0.20572
 C660 C 0.70563 0.67449 -0.17881
 C661 C 0.67014 0.69406 -0.17254
 C662 C 0.66289 0.73179 -0.19136
 C663 C 0.68938 0.74893 -0.21832
 C664 C 0.72387 0.72847 -0.22862
 C665 C 0.64218 0.67564 -0.14777
 C666 C 0.64902 0.63748 -0.12917
 C667 C 0.68487 0.61817 -0.13407
 C668 C 0.71309 0.63688 -0.15879
 C669 C 0.69150 0.58021 -0.11457
 C670 C 0.66267 0.56133 -0.09117
 C671 C 0.62660 0.57986 -0.08730
 C672 C 0.62022 0.61819 -0.10613
 H673 H 0.76002 0.67755 -0.20947
 H674 H 0.63630 0.74794 -0.18572
 H675 H 0.68170 0.77824 -0.23119
 H676 H 0.61481 0.69068 -0.14356
 H677 H 0.74040 0.62178 -0.16315
 H678 H 0.71882 0.56493 -0.11773
 H679 H 0.66828 0.53179 -0.07688
 H680 H 0.59270 0.63310 -0.10283
 C681 C 0.79633 -0.23060 -0.20286
 C682 C 0.82413 -0.20398 -0.18541
 C683 C 0.83528 -0.16779 -0.20649
 C684 C 0.81977 -0.15953 -0.24497
 C685 C 0.79303 -0.18650 -0.26245
 C686 C 0.77921 -0.22184 -0.24129
 C687 C 0.86215 -0.14049 -0.18914
 C688 C 0.87813 -0.14875 -0.15074
 C689 C 0.86817 -0.18548 -0.12982
 C690 C 0.84119 -0.21302 -0.14736
 C691 C 0.88475 -0.19326 -0.09130
 C692 C 0.90926 -0.16380 -0.07286
 C693 C 0.91744 -0.12628 -0.09273
 C694 C 0.90288 -0.11983 -0.13235
 H695 H 0.78884 -0.25846 -0.18653
 H696 H 0.82904 -0.13262 -0.26217
 H697 H 0.78458 -0.18028 -0.29376
 H698 H 0.87019 -0.11243 -0.20527
 H699 H 0.83307 -0.24100 -0.13118
 H700 H 0.87777 -0.22139 -0.07487
 H701 H 0.92021 -0.16941 -0.04230
 H702 H 0.90949 -0.09122 -0.14823
 C703 C 0.80809 0.27918 0.29449
 C704 C 0.82872 0.29878 0.32616
 C705 C 0.80919 0.31793 0.35934
 C706 C 0.76928 0.31537 0.36103
 C707 C 0.74903 0.29317 0.33063
 C708 C 0.76802 0.27360 0.29718
 C709 C 0.82993 0.33962 0.38989
 C710 C 0.86999 0.34105 0.38813
 C711 C 0.88952 0.31942 0.35628
 C712 C 0.86873 0.29906 0.32511
 C713 C 0.92956 0.31956 0.35546
 C714 C 0.95012 0.34307 0.38449
 C715 C 0.93084 0.36690 0.41432
 C716 C 0.89087 0.36500 0.41677
 H717 H 0.82400 0.26798 0.26801
 H718 H 0.75374 0.32993 0.38625
 H719 H 0.71839 0.29079 0.33371
 H720 H 0.81496 0.35556 0.41475
 H721 H 0.88369 0.28344 0.30002
 H722 H 0.94492 0.30277 0.33148
 H723 H 0.98090 0.34494 0.38191
 H724 H 0.87608 0.38374 0.43978
 C725 C 0.25951 -0.19297 0.29288
 C726 C 0.28631 -0.17696 0.32139
 C727 C 0.32064 -0.19841 0.32776
 C728 C 0.32674 -0.23625 0.30743
 C729 C 0.30034 -0.25165 0.27898
 C730 C 0.26717 -0.22906 0.26803
 C731 C 0.34849 -0.18181 0.35432
 C732 C 0.34268 -0.14353 0.37443
 C733 C 0.30786 -0.12239 0.36935
 C734 C 0.27970 -0.13940 0.34307
 C735 C 0.30230 -0.08416 0.38994
 C736 C 0.33145 -0.06643 0.41409
 C737 C 0.36670 -0.08658 0.41803
 C738 C 0.37168 -0.12562 0.39871
 H739 H 0.23272 -0.17676 0.28995
 H740 H 0.35228 -0.25400 0.31326
 H741 H 0.30692 -0.28151 0.26547
 H742 H 0.37506 -0.19827 0.35860
 H743 H 0.25321 -0.12288 0.33861
 H744 H 0.27575 -0.06753 0.38664
 H745 H 0.32680 -0.03632 0.42861
 H746 H 0.39853 -0.14180 0.40178
 C747 C 0.27803 0.29491 -0.18852
 C748 C 0.30789 0.31362 -0.16622
 C749 C 0.34582 0.30137 -0.17401
 C750 C 0.35303 0.26987 -0.20326
 C751 C 0.32307 0.25106 -0.22517
 C752 C 0.28499 0.26414 -0.21927
 C753 C 0.37587 0.32064 -0.15228
 C754 C 0.36836 0.35204 -0.12283
 C755 C 0.33027 0.36378 -0.11460
 C756 C 0.30029 0.34449 -0.13631
 C757 C 0.32282 0.39497 -0.08505
 C758 C 0.35282 0.41501 -0.06439
 C759 C 0.39091 0.40426 -0.07282
 C760 C 0.39836 0.37225 -0.10185
 H761 H 0.24896 0.30456 -0.18238
 H762 H 0.38192 0.25942 -0.20895
 H763 H 0.33025 0.22578 -0.24596
 H764 H 0.40505 0.31140 -0.15848
 H765 H 0.27109 0.35372 -0.13017
 H766 H 0.29379 0.40421 -0.07824
 H767 H 0.34611 0.43937 -0.04215
 H768 H 0.42752 0.36348 -0.10870
 C769 C 1.18366 -0.22286 0.19255
 C770 C 1.16259 -0.19315 0.17129
 C771 C 1.17507 -0.15148 0.17122
 C772 C 1.20889 -0.14050 0.19135
 C773 C 1.23008 -0.17038 0.21179
 C774 C 1.21741 -0.21239 0.21507
 C775 C 1.15420 -0.12167 0.14994
 C776 C 1.12115 -0.13327 0.12820
 C777 C 1.10877 -0.17513 0.12767
 C778 C 1.12947 -0.20482 0.14943
 C779 C 1.07603 -0.18653 0.10517
 C780 C 1.05569 -0.15665 0.08343
 C781 C 1.06759 -0.11485 0.08418
 C782 C 1.10048 -0.10355 0.10668
 H783 H 1.17341 -0.25435 0.19022
 H784 H 1.21968 -0.10887 0.19030
 H785 H 1.25750 -0.16029 0.22350
 H786 H 1.16388 -0.08956 0.14994
 H787 H 1.11995 -0.23699 0.14915
 H788 H 1.06619 -0.21854 0.10434
 H789 H 1.03049 -0.16617 0.06641
 H790 H 1.11035 -0.07153 0.10723
 C791 C 1.19525 0.26407 0.71008
 C792 C 1.17741 0.29157 0.68293
 C793 C 1.19234 0.33217 0.67868
 C794 C 1.22455 0.34457 0.70090
 C795 C 1.24246 0.31707 0.72698
 C796 C 1.22795 0.27642 0.73303
 C797 C 1.17539 0.35984 0.65169
 C798 C 1.14352 0.34767 0.62864
 C799 C 1.12823 0.30719 0.63222
 C800 C 1.14536 0.27917 0.65945
 C801 C 1.09596 0.29591 0.60871
 C802 C 1.07858 0.32496 0.58293
 C803 C 1.09336 0.36558 0.58024
 C804 C 1.12642 0.37609 0.60257
 H805 H 1.18434 0.23261 0.71274
 H806 H 1.23664 0.37542 0.69725
 H807 H 1.26864 0.32802 0.74090
 H808 H 1.18702 0.39101 0.64869
 H809 H 1.13379 0.24800 0.66240
 H810 H 1.08377 0.26498 0.61084
 H811 H 1.05310 0.31604 0.56610
 H812 H 1.13860 0.40709 0.60056
 C813 C 0.71319 -0.19148 0.70800
 C814 C 0.68863 -0.17387 0.67925
 C815 C 0.67431 -0.19840 0.64631
 C816 C 0.68542 -0.23991 0.64236
 C817 C 0.71042 -0.25706 0.67077
 C818 C 0.72574 -0.23316 0.70394
 C819 C 0.64841 -0.18135 0.61848
 C820 C 0.63693 -0.13987 0.62315
 C821 C 0.65218 -0.11493 0.65558
 C822 C 0.67773 -0.13218 0.68354
 C823 C 0.64127 -0.07322 0.65977
 C824 C 0.61487 -0.05656 0.63260
 C825 C 0.59890 -0.08148 0.60126
 C826 C 0.61009 -0.12296 0.59627
 H827 H 0.72136 -0.17280 0.73464
 H828 H 0.67433 -0.25940 0.61754
 H829 H 0.71686 -0.28954 0.66660
 H830 H 0.63693 -0.20043 0.59351
 H831 H 0.68899 -0.11321 0.70872
 H832 H 0.65287 -0.05363 0.68424
 H833 H 0.60635 -0.02441 0.63644
 H834 H 0.59769 -0.14195 0.57177
 C835 C 0.73140 0.30854 0.21192
 C836 C 0.70518 0.33543 0.19272
 C837 C 0.66724 0.33731 0.20753
 C838 C 0.65618 0.31374 0.24108
 C839 C 0.68148 0.28633 0.25851
 C840 C 0.71895 0.28067 0.24279
 C841 C 0.64039 0.36235 0.18851
 C842 C 0.65019 0.38483 0.15359
 C843 C 0.68794 0.38392 0.13832
 C844 C 0.71556 0.35969 0.15846
 C845 C 0.69677 0.40645 0.10263
 C846 C 0.66816 0.42819 0.08177
 C847 C 0.63031 0.42799 0.09644
 C848 C 0.62206 0.40701 0.13306
 H849 H 0.76099 0.30889 0.20232
 H850 H 0.62752 0.31588 0.25357
 H851 H 0.67099 0.26932 0.28475
 H852 H 0.61133 0.36325 0.20014
 H853 H 0.74451 0.35857 0.14667
 H854 H 0.72552 0.40641 0.09029
 H855 H 0.67543 0.44415 0.05363
 H856 H 0.59320 0.40683 0.14521
 C857 C 0.77776 0.22587 0.19310
 C858 C 0.80671 0.20327 0.17242
 C859 C 0.82939 0.17530 0.19482
 C860 C 0.82345 0.17032 0.23681
 C861 C 0.79617 0.19370 0.25714
 C862 C 0.77341 0.22302 0.23643
 C863 C 0.85772 0.15222 0.17512
 C864 C 0.86435 0.15666 0.13309
 C865 C 0.84283 0.18511 0.11010
 C866 C 0.81378 0.20815 0.12990
 C867 C 0.85054 0.18915 0.06771
 C868 C 0.87803 0.16386 0.04832
 C869 C 0.89785 0.13435 0.07123
 C870 C 0.89157 0.13179 0.11363
 H871 H 0.75908 0.24483 0.17511
 H872 H 0.84047 0.14881 0.25426
 H873 H 0.79362 0.18978 0.29012
 H874 H 0.87453 0.13042 0.19256
 H875 H 0.79685 0.22970 0.11239
 H876 H 0.83461 0.21090 0.04942
 H877 H 0.88238 0.16583 0.01532
 H878 H 0.90703 0.10902 0.13129
 C879 C 0.81013 0.72475 0.69418
 C880 C 0.83212 0.69588 0.67202
 C881 C 0.82023 0.65399 0.66979
 C882 C 0.78610 0.64199 0.68879
 C883 C 0.76412 0.67112 0.71039
 C884 C 0.77631 0.71297 0.71530
 C885 C 0.84220 0.62496 0.64784
 C886 C 0.87585 0.63747 0.62790
 C887 C 0.88763 0.67950 0.62948
 C888 C 0.86567 0.70853 0.65166
 C889 C 0.92119 0.69160 0.60889
 C890 C 0.94315 0.66209 0.58737
 C891 C 0.93191 0.62011 0.58642
 C892 C 0.89792 0.60832 0.60647
 H893 H 0.81967 0.75659 0.69390
 H894 H 0.77590 0.61017 0.68617
 H895 H 0.73669 0.66086 0.72178
 H896 H 0.83309 0.59266 0.64621
 H897 H 0.87467 0.74085 0.65312
 H898 H 0.93055 0.72377 0.60964
 H899 H 0.96912 0.67196 0.57210
 H900 H 0.88842 0.57616 0.60556
 C901 C 0.28492 0.22071 0.69222
 C902 C 0.29735 0.19046 0.66368
 C903 C 0.28587 0.14859 0.66814
 C904 C 0.26005 0.13824 0.69924
 C905 C 0.24758 0.16848 0.72731
 C906 C 0.26179 0.20985 0.72616
 C907 C 0.30110 0.11758 0.64218
 C908 C 0.32838 0.12789 0.61233
 C909 C 0.33825 0.17019 0.60637
 C910 C 0.32229 0.20122 0.63171
 C911 C 0.36577 0.18057 0.57687
 C912 C 0.38572 0.14929 0.55615
 C913 C 0.37789 0.10726 0.56389
 C914 C 0.34794 0.09654 0.59041
 H915 H 0.29448 0.25264 0.68911
 H916 H 0.24977 0.10656 0.70220
 H917 H 0.22673 0.15872 0.74979
 H918 H 0.29311 0.08529 0.64654
 H919 H 0.33080 0.23344 0.62792
 H920 H 0.37345 0.21275 0.57162
 H921 H 0.40885 0.15786 0.53564
 H922 H 0.34227 0.06406 0.59671
 C923 C 0.27534 0.69253 0.20142
 C924 C 0.29983 0.67548 0.17142
 C925 C 0.31855 0.70169 0.14337
 C926 C 0.31100 0.74421 0.14464
 C927 C 0.28510 0.76070 0.17322
 C928 C 0.26520 0.73544 0.20203
 C929 C 0.34539 0.68516 0.11544
 C930 C 0.35275 0.64232 0.11442
 C931 C 0.33202 0.61567 0.14078
 C932 C 0.30632 0.63249 0.16964
 C933 C 0.33777 0.57263 0.13827
 C934 C 0.36482 0.55621 0.11101
 C935 C 0.38720 0.58260 0.08665
 C936 C 0.38087 0.62564 0.08805
 H937 H 0.26589 0.67207 0.22560
 H938 H 0.32554 0.76502 0.12373
 H939 H 0.28206 0.79392 0.17294
 H940 H 0.36071 0.70562 0.09478
 H941 H 0.29133 0.61211 0.19065
 H942 H 0.32179 0.55173 0.15784
 H943 H 0.36958 0.52295 0.11034
 H944 H 0.39802 0.64595 0.06898
   
