data_POSCAR
  _audit_creation_date              2014-09-24
  _audit_creation_method            'ToBaCCo'
  _symmetry_space_group_name_H-M    'P1'
  _symmetry_Int_Tables_number       1
  _symmetry_cell_setting            triclinic
  loop_
  _symmetry_equiv_pos_as_xyz
 x,y,z
_cell_length_a 50.2746
_cell_length_b 50.2948
_cell_length_c 17.9807
_cell_angle_alpha 90.346400
_cell_angle_beta 90.349500
_cell_angle_gamma 119.986600
loop_
  _atom_site_label
  _atom_site_type_symbol
  _atom_site_fract_x
  _atom_site_fract_y
  _atom_site_fract_z
C1 C 0.25194 0.49122 0.54383
 C2 C 0.25435 0.49093 0.46812
 C3 C 0.23094 0.49143 0.41792
 C4 C 0.28049 0.49015 0.43200
 C5 C 0.27730 0.49495 0.59398
 C6 C 0.22386 0.48782 0.57983
 C7 C 0.21659 0.46888 0.36244
 C8 C 0.19294 0.46775 0.31882
 C9 C 0.18282 0.48908 0.32974
 C10 C 0.19869 0.51281 0.38315
 C11 C 0.22250 0.51396 0.42615
 C12 C 0.28943 0.46895 0.45407
 C13 C 0.31536 0.46994 0.42350
 C14 C 0.33189 0.49112 0.36793
 C15 C 0.32224 0.51145 0.34344
 C16 C 0.29679 0.51101 0.37544
 C17 C 0.30727 0.51974 0.58591
 C18 C 0.33140 0.52168 0.62917
 C19 C 0.32595 0.49887 0.68172
 C20 C 0.29566 0.47510 0.69247
 C21 C 0.27156 0.47313 0.64901
 C22 C 0.22644 0.50887 0.63501
 C23 C 0.20015 0.50702 0.66593
 C24 C 0.17083 0.48413 0.64181
 C25 C 0.16824 0.46277 0.58773
 C26 C 0.19451 0.46415 0.55820
 H27 H 0.22307 0.45151 0.35442
 H28 H 0.18192 0.44944 0.27782
 H29 H 0.19335 0.53080 0.39286
 H30 H 0.23401 0.53218 0.46711
 H31 H 0.27665 0.45200 0.49592
 H32 H 0.32238 0.45399 0.44276
 H33 H 0.29022 0.52745 0.35728
 H34 H 0.31203 0.53731 0.54518
 H35 H 0.35415 0.54111 0.62136
 H36 H 0.29073 0.45750 0.73327
 H37 H 0.24856 0.45402 0.65672
 H38 H 0.24882 0.52722 0.65274
 H39 H 0.20274 0.52400 0.70701
 H40 H 0.14584 0.44484 0.56883
 H41 H 0.19194 0.44713 0.51727
 H42 H 0.33490 0.52828 0.30124
 C43 C 0.51228 -0.23356 0.53175
 C44 C 0.51120 -0.23141 0.45609
 C45 C 0.51126 -0.25477 0.40494
 C46 C 0.50967 -0.20558 0.42051
 C47 C 0.50875 -0.21189 0.58203
 C48 C 0.51704 -0.25744 0.56793
 C49 C 0.53291 -0.24546 0.34786
 C50 C 0.53400 -0.26713 0.30085
 C51 C 0.51332 -0.29873 0.31003
 C52 C 0.49092 -0.30781 0.36553
 C53 C 0.48979 -0.28610 0.41229
 C54 C 0.53035 -0.17493 0.44078
 C55 C 0.52730 -0.15108 0.41051
 C56 C 0.50451 -0.15735 0.35692
 C57 C 0.48460 -0.18785 0.33429
 C58 C 0.48710 -0.21177 0.36609
 C59 C 0.48296 -0.20810 0.57645
 C60 C 0.48117 -0.18577 0.61937
 C61 C 0.50515 -0.16687 0.66905
 C62 C 0.53002 -0.17199 0.67748
 C63 C 0.53183 -0.19426 0.63438
 C64 C 0.49816 -0.27445 0.62686
 C65 C 0.50163 -0.29757 0.66013
 C66 C 0.52402 -0.30447 0.63450
 C67 C 0.54304 -0.28715 0.57581
 C68 C 0.54016 -0.26339 0.54431
 H69 H 0.54937 -0.22135 0.34048
 H70 H 0.55106 -0.25877 0.25771
 H71 H 0.47444 -0.33189 0.37345
 H72 H 0.47239 -0.29375 0.45482
 H73 H 0.54854 -0.16950 0.48092
 H74 H 0.54297 -0.12768 0.42824
 H75 H 0.47102 -0.23519 0.34933
 H76 H 0.46449 -0.22208 0.53779
 H77 H 0.46097 -0.18352 0.61349
 H78 H 0.54856 -0.15812 0.71609
 H79 H 0.55175 -0.19706 0.64014
 H80 H 0.48021 -0.27026 0.64620
 H81 H 0.48577 -0.31061 0.70356
 H82 H 0.56065 -0.29159 0.55497
 H83 H 0.55577 -0.24991 0.50073
 H84 H 0.46661 -0.19323 0.29356
 C85 C 1.23596 0.74232 0.53954
 C86 C 1.23837 0.74512 0.46422
 C87 C 1.26403 0.77226 0.42755
 C88 C 1.21466 0.72187 0.41403
 C89 C 1.21165 0.71412 0.57627
 C90 C 1.25671 0.76833 0.58859
 C91 C 1.25752 0.78772 0.37205
 C92 C 1.28117 0.81201 0.33363
 C93 C 1.31224 0.82152 0.34976
 C94 C 1.31857 0.80616 0.40638
 C95 C 1.29480 0.78163 0.44414
 C96 C 1.18434 0.71608 0.41604
 C97 C 1.16240 0.69517 0.36601
 C98 C 1.17055 0.67974 0.31336
 C99 C 1.20084 0.68546 0.31198
 C100 C 1.22286 0.70671 0.36123
 C101 C 1.20647 0.68482 0.55675
 C102 C 1.18357 0.65863 0.59182
 C103 C 1.16554 0.66096 0.64841
 C104 C 1.17116 0.69061 0.66828
 C105 C 1.19391 0.71669 0.63273
 C106 C 1.27808 0.76612 0.63452
 C107 C 1.29862 0.79119 0.67827
 C108 C 1.29747 0.81860 0.67899
 C109 C 1.27536 0.82033 0.63353
 C110 C 1.25537 0.79547 0.58858
 H111 H 1.23394 0.78091 0.35827
 H112 H 1.27456 0.82311 0.29225
 H113 H 1.34205 0.81269 0.42059
 H114 H 1.30046 0.76959 0.48535
 H115 H 1.17778 0.72790 0.45606
 H116 H 1.13901 0.69060 0.36974
 H117 H 1.24626 0.71114 0.35877
 H118 H 1.22030 0.68219 0.51461
 H119 H 1.18019 0.63642 0.57491
 H120 H 1.15810 0.69431 0.71030
 H121 H 1.19742 0.73901 0.64890
 H122 H 1.27934 0.74524 0.63499
 H123 H 1.31532 0.78901 0.71215
 H124 H 1.27392 0.84100 0.62980
 H125 H 1.23893 0.79743 0.55317
 H126 H 1.20749 0.67356 0.27241
 C127 C 0.75828 0.50165 0.54750
 C128 C 0.75713 0.50420 0.47200
 C129 C 0.77866 0.50069 0.42186
 C130 C 0.73420 0.51062 0.43630
 C131 C 0.73347 0.49993 0.59570
 C132 C 0.78446 0.50103 0.58485
 C133 C 0.79636 0.52387 0.37118
 C134 C 0.81807 0.52177 0.32714
 C135 C 0.82213 0.49604 0.33198
 C136 C 0.80375 0.47253 0.38148
 C137 C 0.78212 0.47471 0.42562
 C138 C 0.72972 0.53441 0.46305
 C139 C 0.70613 0.53835 0.43417
 C140 C 0.68768 0.51965 0.37557
 C141 C 0.69316 0.49693 0.34593
 C142 C 0.71619 0.49238 0.37635
 C143 C 0.70265 0.47794 0.58156
 C144 C 0.67917 0.47882 0.62062
 C145 C 0.68582 0.50153 0.67530
 C146 C 0.71702 0.52248 0.69231
 C147 C 0.74048 0.52153 0.65298
 C148 C 0.77898 0.47920 0.63966
 C149 C 0.80339 0.47773 0.67303
 C150 C 0.83396 0.49801 0.65153
 C151 C 0.83923 0.52001 0.59712
 C152 C 0.81490 0.52206 0.56574
 H153 H 0.79408 0.54414 0.36759
 H154 H 0.83215 0.54084 0.29145
 H155 H 0.80636 0.45250 0.38661
 H156 H 0.76840 0.45636 0.46369
 H157 H 0.74401 0.54944 0.50760
 H158 H 0.70235 0.55613 0.45727
 H159 H 0.71938 0.47406 0.35451
 H160 H 0.69676 0.46071 0.53840
 H161 H 0.65561 0.46204 0.60643
 H162 H 0.72384 0.54017 0.73433
 H163 H 0.76417 0.53853 0.66514
 H164 H 0.75570 0.46281 0.65552
 H165 H 0.79785 0.45986 0.71321
 H166 H 0.86238 0.53618 0.57969
 H167 H 0.81987 0.53988 0.52565
 H168 H 0.67897 0.48205 0.30104
 C169 C 0.49952 0.26043 0.52512
 C170 C 0.49576 0.25574 0.44987
 C171 C 0.49896 0.28022 0.39844
 C172 C 0.48830 0.22578 0.41569
 C173 C 0.50174 0.23780 0.57405
 C174 C 0.50092 0.28780 0.56143
 C175 C 0.47528 0.27438 0.34780
 C176 C 0.47725 0.29771 0.30218
 C177 C 0.50335 0.32732 0.30541
 C178 C 0.52736 0.33277 0.35486
 C179 C 0.52530 0.30946 0.40059
 C180 C 0.46449 0.19809 0.44383
 C181 C 0.45940 0.16999 0.41579
 C182 C 0.47697 0.16910 0.35677
 C183 C 0.49981 0.19672 0.32608
 C184 C 0.50549 0.22486 0.35555
 C185 C 0.52342 0.22866 0.55991
 C186 C 0.52288 0.20461 0.59958
 C187 C 0.50076 0.18911 0.65473
 C188 C 0.48017 0.19972 0.67174
 C189 C 0.48082 0.22386 0.63189
 C190 C 0.52325 0.30436 0.61625
 C191 C 0.52523 0.33056 0.64918
 C192 C 0.50499 0.34096 0.62718
 C193 C 0.48257 0.32411 0.57256
 C194 C 0.48000 0.29742 0.54169
 H195 H 0.45476 0.25196 0.34538
 H196 H 0.45785 0.29248 0.26649
 H197 H 0.54769 0.35530 0.35876
 H198 H 0.54404 0.31433 0.43854
 H199 H 0.45028 0.19825 0.48863
 H200 H 0.44156 0.14891 0.43975
 H201 H 0.52382 0.24590 0.33272
 H202 H 0.54012 0.23950 0.51628
 H203 H 0.53938 0.19755 0.58539
 H204 H 0.46302 0.18937 0.71428
 H205 H 0.46407 0.23080 0.64406
 H206 H 0.53958 0.29734 0.63262
 H207 H 0.54341 0.34299 0.68952
 H208 H 0.46642 0.33117 0.55474
 H209 H 0.46178 0.28442 0.50170
 H210 H 0.51388 0.19654 0.28094
 C211 C 0.75182 0.23115 0.53788
 C212 C 0.75365 0.22988 0.46247
 C213 C 0.72881 0.20656 0.41294
 C214 C 0.78138 0.25335 0.42411
 C215 C 0.77660 0.25692 0.58158
 C216 C 0.72504 0.20857 0.58078
 C217 C 0.71386 0.17484 0.42708
 C218 C 0.69218 0.15374 0.37609
 C219 C 0.68587 0.16398 0.30910
 C220 C 0.70102 0.19545 0.29475
 C221 C 0.72185 0.21647 0.34632
 C222 C 0.80130 0.24507 0.39049
 C223 C 0.82672 0.26677 0.35114
 C224 C 0.83255 0.29702 0.34494
 C225 C 0.81203 0.30499 0.37752
 C226 C 0.78672 0.28333 0.41690
 C227 C 0.77339 0.28214 0.60124
 C228 C 0.79688 0.30714 0.63987
 C229 C 0.82380 0.30716 0.66210
 C230 C 0.82670 0.28140 0.64282
 C231 C 0.80341 0.25671 0.60236
 C232 C 0.69534 0.20324 0.56582
 C233 C 0.67060 0.18242 0.60867
 C234 C 0.67520 0.16707 0.66810
 C235 C 0.70503 0.17251 0.68285
 C236 C 0.72967 0.19319 0.63986
 H237 H 0.71942 0.16632 0.47644
 H238 H 0.68119 0.12944 0.38775
 H239 H 0.69657 0.20385 0.24351
 H240 H 0.73292 0.24066 0.33342
 H241 H 0.79707 0.22180 0.39463
 H242 H 0.84192 0.25998 0.32572
 H243 H 0.77090 0.28971 0.44046
 H244 H 0.75284 0.28267 0.58537
 H245 H 0.79374 0.32643 0.65319
 H246 H 0.84710 0.28035 0.65643
 H247 H 0.80630 0.23746 0.58699
 H248 H 0.69136 0.21527 0.52125
 H249 H 0.64782 0.17848 0.59582
 H250 H 0.70946 0.16043 0.72634
 H251 H 0.75241 0.19694 0.65222
 H252 H 0.81493 0.32766 0.37125
 N253 N 1.03703 0.45772 0.09972
 N254 N 1.06183 0.45530 0.10944
 N255 N 0.97177 0.43947 0.15233
 N256 N 0.94999 0.42392 0.20059
 N257 N 0.97245 0.42116 0.10100
 N258 N 0.95094 0.39243 0.11312
 N259 N 1.03590 0.47600 0.15036
 N260 N 1.05984 0.48663 0.19570
 C261 C 1.07583 0.47353 0.16951
 C262 C 0.93716 0.39465 0.17561
 N263 N 0.96379 0.51055 0.10127
 N264 N 0.94016 0.51449 0.11430
 N265 N 1.03040 0.52996 0.15047
 N266 N 1.05303 0.54644 0.19747
 N267 N 1.02818 0.54743 0.09978
 N268 N 1.04923 0.57649 0.11126
 N269 N 0.96613 0.49344 0.15276
 N270 N 0.94420 0.48529 0.20233
 Mn271 Mn 1.00107 0.48471 0.15210
 C272 C 0.92807 0.49842 0.17736
 C273 C 1.06453 0.57533 0.17239
 N274 N 0.97143 0.42008 -0.06022
 N275 N 0.95164 0.39079 -0.07339
 N276 N 1.03368 0.47388 -0.11256
 N277 N 1.05736 0.48403 -0.15768
 N278 N 1.03578 0.45691 -0.06012
 N279 N 1.06107 0.45541 -0.06741
 N280 N 0.96916 0.43731 -0.11169
 N281 N 0.94749 0.42016 -0.16077
 Mn282 Mn 1.00414 0.43860 0.02003
 C283 C 0.93664 0.39120 -0.13575
 C284 C 1.07413 0.47220 -0.12868
 N285 N 1.02685 0.54640 -0.06060
 N286 N 1.04722 0.57549 -0.07185
 N287 N 0.96412 0.49212 -0.11151
 N288 N 0.93982 0.48137 -0.15590
 N289 N 0.96245 0.50928 -0.05843
 N290 N 0.93681 0.51027 -0.06440
 N291 N 1.02861 0.52886 -0.11253
 N292 N 1.05033 0.54569 -0.16064
 Mn293 Mn 0.99529 0.52870 0.02035
 Mn294 Mn 0.99892 0.48305 -0.11311
 Cl295 Cl 0.99984 0.48375 0.01972
 C296 C 1.06178 0.57475 -0.13410
 C297 C 0.92310 0.49298 -0.12564
 N298 N 0.48925 0.45505 0.07623
 N299 N 0.48497 0.42725 0.08773
 N300 N 0.46940 0.50143 0.12648
 N301 N 0.45217 0.50740 0.17078
 N302 N 0.45287 0.48320 0.07156
 N303 N 0.42401 0.47654 0.07638
 N304 N 0.50606 0.47388 0.12995
 N305 N 0.51357 0.45947 0.17952
 C306 C 0.50045 0.43048 0.15225
 C307 C 0.42395 0.49167 0.13871
 N308 N 0.54221 0.58098 0.08551
 N309 N 0.54554 0.60837 0.09891
 N310 N 0.56052 0.53356 0.13717
 N311 N 0.57585 0.52479 0.18081
 N312 N 0.57879 0.55301 0.08736
 N313 N 0.60694 0.55773 0.09516
 N314 N 0.52374 0.56107 0.13422
 N315 N 0.51399 0.57424 0.18194
 Mn316 Mn 0.51494 0.51750 0.13278
 C317 C 0.52765 0.60368 0.15913
 C318 C 0.60479 0.54028 0.15413
 N319 N 0.45558 0.48457 -0.08826
 N320 N 0.42694 0.47778 -0.10096
 N321 N 0.51022 0.47610 -0.13370
 N322 N 0.52145 0.46295 -0.17734
 N323 N 0.49234 0.45676 -0.08323
 N324 N 0.49133 0.43015 -0.09014
 N325 N 0.47404 0.50433 -0.13727
 N326 N 0.45851 0.51152 -0.18459
 Mn327 Mn 0.47219 0.46956 -0.00606
 C328 C 0.42914 0.49475 -0.16122
 C329 C 0.50938 0.43431 -0.14931
 N330 N 0.58160 0.55474 -0.07223
 N331 N 0.61034 0.56083 -0.07620
 N332 N 0.52875 0.56399 -0.12979
 N333 N 0.51897 0.57787 -0.17532
 N334 N 0.54467 0.58237 -0.07445
 N335 N 0.54575 0.60903 -0.08002
 N336 N 0.56491 0.53567 -0.12574
 N337 N 0.58177 0.52816 -0.16730
 Mn338 Mn 0.56212 0.56815 0.00654
 Mn339 Mn 0.51951 0.52004 -0.13261
 Cl340 Cl 0.51718 0.51881 0.00017
 C341 C 0.61009 0.54414 -0.13581
 C342 C 0.52990 0.60596 -0.14349
 N343 N 0.41322 -0.03749 0.05266
 N344 N 0.38483 -0.06032 0.06107
 N345 N 0.45950 0.02651 0.11788
 N346 N 0.46757 0.04995 0.16377
 N347 N 0.44196 0.02687 0.06391
 N348 N 0.43785 0.05068 0.07120
 N349 N 0.43121 -0.03775 0.10553
 N350 N 0.41556 -0.06072 0.15137
 C351 C 0.38672 -0.07475 0.12249
 C352 C 0.45360 0.06458 0.13416
 N353 N 0.53959 0.03428 0.07591
 N354 N 0.56745 0.05392 0.10165
 N355 N 0.49083 -0.03311 0.11139
 N356 N 0.48369 -0.05700 0.15394
 N357 N 0.51116 -0.03004 0.06157
 N358 N 0.51801 -0.05206 0.06796
 N359 N 0.51878 0.03076 0.12493
 N360 N 0.53187 0.04776 0.18471
 Mn361 Mn 0.47500 -0.00347 0.11558
 C362 C 0.56210 0.06247 0.16915
 C363 C 0.50080 -0.06857 0.12590
 N364 N 0.44544 0.03137 -0.09528
 N365 N 0.43946 0.05404 -0.10092
 N366 N 0.43735 -0.03032 -0.15597
 N367 N 0.42458 -0.05232 -0.20680
 N368 N 0.41697 -0.03287 -0.10701
 N369 N 0.38970 -0.05648 -0.12346
 N370 N 0.46582 0.03424 -0.14460
 N371 N 0.47444 0.05907 -0.18488
 Mn372 Mn 0.42908 -0.00306 -0.02142
 C373 C 0.45771 0.07112 -0.15701
 C374 C 0.39488 -0.06838 -0.18580
 N375 N 0.51505 -0.02539 -0.09748
 N376 N 0.52168 -0.04741 -0.10864
 N377 N 0.52485 0.03851 -0.13899
 N378 N 0.53995 0.06111 -0.18585
 N379 N 0.54321 0.03898 -0.08601
 N380 N 0.57149 0.06186 -0.09610
 N381 N 0.49673 -0.02575 -0.15032
 N382 N 0.49045 -0.04797 -0.19892
 Mn383 Mn 0.52764 0.00461 -0.01149
 Mn384 Mn 0.48118 0.00415 -0.14828
 Cl385 Cl 0.47830 0.00061 -0.01635
 C386 C 0.50623 -0.06125 -0.17219
 C387 C 0.56889 0.07562 -0.15824
 C388 C 1.15828 0.48555 0.28955
 C389 C 1.14363 0.50291 0.29958
 C390 C 1.11733 0.49824 0.26088
 C391 C 1.10322 0.47793 0.20082
 H392 H 1.15138 0.52034 0.34250
 H393 H 1.10743 0.51189 0.27975
 H394 H 1.14845 0.46700 0.24916
 H395 H 1.11332 0.46538 0.17651
 C396 C 0.51415 0.67700 0.26403
 C397 C 0.53756 0.68171 0.21976
 C398 C 0.53907 0.65698 0.17819
 C399 C 0.52397 0.62743 0.19808
 H400 H 0.55687 0.70450 0.21259
 H401 H 0.55492 0.66392 0.13224
 H402 H 0.49470 0.65404 0.26872
 H403 H 0.50935 0.62020 0.24630
 C404 C 0.33718 -0.15438 0.31222
 C405 C 0.33476 -0.13975 0.25250
 C406 C 0.36229 -0.11446 0.21802
 C407 C 0.35999 -0.10106 0.15618
 H408 H 0.31277 -0.14618 0.22737
 H409 H 0.38458 -0.10647 0.24397
 H410 H 0.36015 -0.14747 0.33234
 H411 H 0.33772 -0.10920 0.13004
 C412 C 0.84622 0.49354 0.29007
 C413 C 0.86073 0.51068 0.23069
 C414 C 0.88607 0.50981 0.19104
 C415 C 0.90166 0.49656 0.21703
 H416 H 0.85375 0.52610 0.20795
 H417 H 0.89300 0.52210 0.13904
 H418 H 0.85171 0.47648 0.30909
 H419 H 0.89596 0.48480 0.26961
 C420 C 0.50583 0.35354 0.26203
 C421 C 0.48757 0.35064 0.20394
 C422 C 0.48862 0.37685 0.16399
 C423 C 0.50184 0.40557 0.19128
 H424 H 0.47116 0.32814 0.18261
 H425 H 0.47639 0.37165 0.11128
 H426 H 0.52385 0.37614 0.27895
 H427 H 0.51323 0.41127 0.24496
 C428 C 0.66456 0.14257 0.25174
 C429 C 0.63741 0.11836 0.26837
 C430 C 0.61541 0.09936 0.20924
 C431 C 0.58563 0.08198 0.22458
 H432 H 0.63056 0.11361 0.32604
 H433 H 0.62337 0.10035 0.15288
 H434 H 0.67013 0.14856 0.19385
 H435 H 0.57783 0.08229 0.28049
 C436 C 0.49980 0.16330 -0.31176
 C437 C 0.47926 0.14516 -0.26121
 C438 C 0.47916 0.11743 -0.23421
 C439 C 0.45899 0.09938 -0.18342
 H440 H 0.46188 0.14977 -0.24023
 H441 H 0.49552 0.11153 -0.25674
 H442 H 0.51654 0.15707 -0.32987
 H443 H 0.44289 0.10548 -0.16017
 C444 C 0.66097 0.50267 -0.29168
 C445 C 0.66330 0.52340 -0.24071
 C446 C 0.63559 0.52350 -0.21433
 C447 C 0.63737 0.54323 -0.16167
 H448 H 0.68526 0.54079 -0.21870
 H449 H 0.61346 0.50735 -0.23870
 H450 H 0.63800 0.48579 -0.31035
 H451 H 0.65936 0.55901 -0.13619
 C452 C 0.84670 0.33316 -0.29900
 C453 C 0.87106 0.33475 -0.26355
 C454 C 0.89395 0.36339 -0.22551
 C455 C 0.91304 0.36310 -0.17378
 H456 H 0.87401 0.31493 -0.25969
 H457 H 0.89489 0.38480 -0.23921
 H458 H 0.84392 0.35318 -0.29539
 H459 H 0.91102 0.34145 -0.15762
 C460 C 0.50512 -0.14175 -0.28708
 C461 C 0.48996 -0.12738 -0.30881
 C462 C 0.49055 -0.10109 -0.26935
 C463 C 0.50653 -0.08772 -0.20686
 H464 H 0.47678 -0.13435 -0.36011
 H465 H 0.47705 -0.09215 -0.29463
 H466 H 0.51949 -0.13405 -0.23777
 H467 H 0.52030 -0.09586 -0.17978
 C468 C 0.35102 0.49903 -0.27373
 C469 C 0.38028 0.51252 -0.29656
 C470 C 0.40578 0.51198 -0.25602
 C471 C 0.40258 0.49468 -0.19655
 H472 H 0.38645 0.52448 -0.34893
 H473 H 0.42849 0.52622 -0.27863
 H474 H 0.34451 0.48636 -0.22242
 H475 H 0.38028 0.47969 -0.17320
 C476 C 1.14277 0.63366 -0.31799
 C477 C 1.12530 0.63247 -0.26035
 C478 C 1.10169 0.60295 -0.22886
 C479 C 1.08619 0.60283 -0.16852
 H480 H 1.12816 0.65315 -0.23438
 H481 H 1.09692 0.58150 -0.25491
 H482 H 1.13931 0.61198 -0.33982
 H483 H 1.09148 0.62448 -0.14263
 C484 C 0.85941 0.49709 -0.31863
 C485 C 0.85904 0.48278 -0.25577
 C486 C 0.88745 0.48478 -0.22749
 C487 C 0.89356 0.48765 -0.15476
 H488 H 0.83892 0.47198 -0.22109
 H489 H 0.90455 0.48646 -0.26662
 H490 H 0.88134 0.51038 -0.34604
 H491 H 0.87767 0.48883 -0.11626
 C492 C 0.50624 0.36749 -0.34304
 C493 C 0.52074 0.38142 -0.27961
 C494 C 0.51871 0.40774 -0.25095
 C495 C 0.51505 0.41037 -0.17849
 H496 H 0.53153 0.37202 -0.24460
 H497 H 0.51745 0.42348 -0.28987
 H498 H 0.49291 0.37617 -0.37078
 H499 H 0.51337 0.39293 -0.14058
 C500 C 0.64825 0.14459 -0.28908
 C501 C 0.65013 0.13634 -0.21905
 C502 C 0.62377 0.11254 -0.17700
 C503 C 0.59434 0.10135 -0.19673
 H504 H 0.67214 0.14659 -0.19079
 H505 H 0.62918 0.10373 -0.12784
 H506 H 0.62630 0.13469 -0.31741
 H507 H 0.58814 0.11026 -0.24413
 C508 C 1.14270 0.48252 -0.32909
 C509 C 1.13976 0.48741 -0.25736
 C510 C 1.11088 0.48405 -0.22923
 C511 C 1.10342 0.47730 -0.15810
 H512 H 1.15819 0.49228 -0.21826
 H513 H 1.09498 0.48560 -0.26756
 H514 H 1.12321 0.47507 -0.36655
 H515 H 1.11842 0.47368 -0.12118
 C516 C 0.52773 0.67170 -0.33601
 C517 C 0.51646 0.65820 -0.27066
 C518 C 0.52149 0.63346 -0.24423
 C519 C 0.52419 0.62994 -0.17167
 H520 H 0.50516 0.66637 -0.23361
 H521 H 0.52431 0.61889 -0.28437
 H522 H 0.54183 0.66471 -0.36650
 H523 H 0.52391 0.64612 -0.13203
 C524 C 0.31907 -0.15661 -0.27705
 C525 C 0.31735 -0.13140 -0.26080
 C526 C 0.34131 -0.10555 -0.21709
 C527 C 0.37125 -0.09529 -0.22666
 H528 H 0.29722 -0.12994 -0.27498
 H529 H 0.33407 -0.09320 -0.18055
 H530 H 0.33795 -0.15838 -0.25292
 H531 H 0.37871 -0.10588 -0.26794
 C532 C 0.50142 -0.13188 0.32662
 C533 C 0.49625 -0.13021 0.25440
 C534 C 0.49434 -0.10400 0.22545
 C535 C 0.50115 -0.09555 0.15484
 H536 H 0.49487 -0.14753 0.21584
 H537 H 0.48874 -0.09062 0.26310
 H538 H 0.50545 -0.11312 0.36371
 H539 H 0.50889 -0.10758 0.11864
 C540 C 0.35971 0.49236 0.33816
 C541 C 0.36649 0.49645 0.26601
 C542 C 0.39434 0.49741 0.23823
 C543 C 0.39646 0.49122 0.16705
 H544 H 0.35091 0.49810 0.22681
 H545 H 0.41290 0.50228 0.27692
 H546 H 0.37411 0.48819 0.37594
 H547 H 0.37717 0.48446 0.12937
 C548 C 1.14753 0.65598 0.26320
 C549 C 1.12276 0.65658 0.23751
 C550 C 1.09823 0.63076 0.19471
 C551 C 1.09031 0.60171 0.20926
 H552 H 1.12032 0.67651 0.24725
 H553 H 1.08486 0.63564 0.15540
 H554 H 1.15137 0.63745 0.24640
 H555 H 1.10200 0.59670 0.25303
 C556 C 0.47188 0.13924 0.32965
 C557 C 0.47158 0.13317 0.25729
 C558 C 0.46682 0.10335 0.23162
 C559 C 0.45730 0.09362 0.16229
 H560 H 0.47418 0.15009 0.21652
 H561 H 0.47083 0.08912 0.26995
 H562 H 0.46680 0.12139 0.36991
 H563 H 0.45171 0.10712 0.12532
 C564 C 0.66214 0.52339 0.34803
 C565 C 0.65614 0.52298 0.27559
 C566 C 0.63050 0.52674 0.24978
 C567 C 0.63043 0.53692 0.18162
 H568 H 0.67079 0.52076 0.23498
 H569 H 0.61185 0.52178 0.28747
 H570 H 0.64901 0.52818 0.38810
 H571 H 0.64995 0.54366 0.14563
 C572 C 0.85953 0.31940 0.30241
 C573 C 0.87332 0.34964 0.31597
 C574 C 0.89993 0.37326 0.27531
 C575 C 0.91125 0.36866 0.21224
 H576 H 0.86548 0.35817 0.36123
 H577 H 0.91011 0.39623 0.29865
 H578 H 0.86871 0.31043 0.26139
 H579 H 0.90147 0.34624 0.18632
   
