data_POSCAR
  _audit_creation_date              2014-09-24
  _audit_creation_method            'ToBaCCo'
  _symmetry_space_group_name_H-M    'P1'
  _symmetry_Int_Tables_number       1
  _symmetry_cell_setting            triclinic
  loop_
  _symmetry_equiv_pos_as_xyz
 x,y,z
_cell_length_a 30.3821
_cell_length_b 35.0019
_cell_length_c 34.4189
_cell_angle_alpha 91.143800
_cell_angle_beta 85.307000
_cell_angle_gamma 93.401800
loop_
  _atom_site_label
  _atom_site_type_symbol
  _atom_site_fract_x
  _atom_site_fract_y
  _atom_site_fract_z
N1 N 0.19135 1.30330 0.18739
 N2 N 0.17216 1.30211 0.22303
 C3 C 0.14471 1.33094 0.22823
 C4 C 0.14670 1.35099 0.19381
 C5 C 0.17683 1.33282 0.16856
 H6 H 0.12392 1.33616 0.25462
 H7 H 0.18683 1.33994 0.13856
 Cu8 Cu 0.18309 1.26170 0.25851
 Cu9 Cu 0.23283 1.26563 0.16831
 Cu10 Cu 0.21038 1.17875 0.21414
 N11 N 0.18001 1.21399 0.28666
 N12 N 0.18776 1.18127 0.26867
 C13 C 0.17756 1.15241 0.29372
 C14 C 0.16345 1.16812 0.32946
 C15 C 0.16579 1.20725 0.32408
 H16 H 0.18018 1.12239 0.28642
 H17 H 0.15561 1.22898 0.34517
 N18 N 0.24734 1.18448 0.16440
 N19 N 0.25603 1.21779 0.14724
 C20 C 0.28323 1.21300 0.11495
 C21 C 0.29257 1.17493 0.11188
 C22 C 0.26941 1.15756 0.14366
 H23 H 0.29603 1.23569 0.09554
 H24 H 0.26928 1.12777 0.15146
 H25 H 0.18694 1.22917 0.19520
 H26 H 0.24118 1.23198 0.21751
 N27 N 0.75759 0.72741 0.18421
 N28 N 0.79773 0.74094 0.19123
 C29 C 0.82690 0.71443 0.18008
 C30 C 0.80366 0.68282 0.16550
 C31 C 0.75999 0.69196 0.16881
 H32 H 0.86233 0.71827 0.18145
 H33 H 0.73233 0.67498 0.15836
 Cu34 Cu 0.80898 0.79284 0.21314
 Cu35 Cu 0.70535 0.75847 0.18790
 Cu36 Cu 0.72465 0.85014 0.21226
 N37 N 0.80372 0.83713 0.24871
 N38 N 0.76990 0.85891 0.24854
 C39 C 0.77315 0.88645 0.27604
 C40 C 0.81119 0.88196 0.29440
 C41 C 0.83011 0.85045 0.27628
 H42 H 0.74948 0.90811 0.28227
 H43 H 0.86023 0.83784 0.28293
 N44 N 0.67397 0.83374 0.18411
 N45 N 0.66565 0.79740 0.17555
 C46 C 0.62884 0.79371 0.15621
 C47 C 0.61386 0.82978 0.15194
 C48 C 0.64317 0.85456 0.17006
 H49 H 0.61523 0.76701 0.14458
 H50 H 0.64269 0.88540 0.17210
 H51 H 0.75767 0.79716 0.17584
 H52 H 0.74431 0.78599 0.22840
 N53 N 0.88799 1.24877 -0.13152
 N54 N 0.89833 1.25842 -0.16800
 C55 C 0.91094 1.29592 -0.16928
 C56 C 0.90895 1.31026 -0.13154
 C57 C 0.89449 1.27960 -0.10820
 H58 H 0.92190 1.31143 -0.19551
 H59 H 0.88882 1.27969 -0.07676
 Cu60 Cu 0.89855 1.21978 -0.20934
 Cu61 Cu 0.86683 1.19674 -0.11766
 Cu62 Cu 0.83575 1.13893 -0.19541
 N63 N 0.89547 1.18086 -0.25011
 N64 N 0.87300 1.14796 -0.24382
 C65 C 0.87861 1.12531 -0.27580
 C66 C 0.90574 1.14549 -0.30354
 C67 C 0.91560 1.18060 -0.28636
 H68 H 0.86355 1.09672 -0.27877
 H69 H 0.93673 1.20382 -0.29905
 N70 N 0.81275 1.12966 -0.14094
 N71 N 0.82609 1.15085 -0.11145
 C72 C 0.80169 1.14025 -0.07867
 C73 C 0.77132 1.11133 -0.08795
 C74 C 0.77936 1.10504 -0.12762
 H75 H 0.80326 1.15479 -0.05075
 H76 H 0.76036 1.08588 -0.14577
 H77 H 0.88543 1.16391 -0.16743
 H78 H 0.83618 1.19320 -0.16834
 N79 N 0.17895 0.73227 -0.18691
 N80 N 0.16355 0.71504 -0.21773
 C81 C 0.14724 0.67965 -0.20806
 C82 C 0.15193 0.67476 -0.16894
 C83 C 0.17192 0.70874 -0.15622
 H84 H 0.13218 0.65929 -0.22776
 H85 H 0.18154 0.71550 -0.12719
 Cu86 Cu 0.16305 0.74128 -0.26677
 Cu87 Cu 0.20826 0.78338 -0.18975
 Cu88 Cu 0.22846 0.82041 -0.28256
 N89 N 0.15318 0.77648 -0.30779
 N90 N 0.17877 0.80777 -0.31383
 C91 C 0.16367 0.82778 -0.34246
 C92 C 0.12645 0.80793 -0.35481
 C93 C 0.12089 0.77536 -0.33241
 H94 H 0.17811 0.85511 -0.35272
 H95 H 0.09455 0.75320 -0.33303
 N96 N 0.26083 0.83932 -0.23844
 N97 N 0.25196 0.82631 -0.20273
 C98 C 0.27950 0.84485 -0.17902
 C99 C 0.30686 0.87062 -0.20100
 C100 C 0.29413 0.86644 -0.23849
 H101 H 0.28040 0.83927 -0.14832
 H102 H 0.30820 0.88180 -0.26395
 H103 H 0.18342 0.80401 -0.23923
 H104 H 0.23118 0.77262 -0.24600
 C105 C 0.54907 1.05380 -0.00992
 H106 H 0.52359 1.06707 0.00845
 C107 C 0.59124 1.07182 -0.01446
 H108 H 0.59762 1.09924 -0.00027
 C109 C 0.57289 1.00094 -0.04857
 H110 H 0.56584 0.97262 -0.06049
 C111 C 0.61545 1.01851 -0.05471
 H112 H 0.64102 1.00386 -0.07176
 N113 N 0.54058 1.01900 -0.02690
 C114 C 0.42627 1.02853 0.04488
 H115 H 0.43243 1.00532 0.06358
 C116 C 0.39887 1.05734 0.05903
 H117 H 0.38461 1.05618 0.08883
 C118 C 0.43788 1.05848 -0.01657
 H119 H 0.45340 1.05867 -0.04601
 C120 C 0.41104 1.08778 -0.00366
 H121 H 0.40593 1.11049 -0.02342
 Zn122 Zn 0.48447 0.99382 -0.01399
 N123 N 0.44556 1.03001 0.00781
 C124 C 0.51292 0.96648 0.05470
 N125 N 0.49345 0.95535 0.02180
 C126 C 0.48517 0.91768 0.01301
 C127 C 0.49733 0.88948 0.03750
 C128 C 0.52585 0.93922 0.07988
 C129 C 0.47660 0.97690 -0.09517
 C130 C 0.45428 0.96191 -0.12654
 C131 C 0.39440 0.93880 -0.08093
 C132 C 0.41768 0.95437 -0.05057
 N133 N 0.45821 0.97248 -0.05803
 H134 H 0.51966 0.99662 0.06071
 H135 H 0.47080 0.90931 -0.01376
 H136 H 0.49165 0.85964 0.02947
 H137 H 0.54184 0.94875 0.10558
 H138 H 0.50810 0.99260 -0.10064
 H139 H 0.46928 0.96561 -0.15594
 H140 H 0.36208 0.92484 -0.07410
 H141 H 0.40333 0.95221 -0.02082
 C142 C 0.39138 1.08771 0.03465
 C143 C 0.62496 1.05419 -0.03704
 C144 C 0.41272 0.94237 -0.11958
 C145 C 0.51891 0.90009 0.07093
 C146 C -0.02437 0.57676 1.08059
 H147 H 0.00992 0.58385 1.08542
 C148 C -0.05769 0.59752 1.10015
 H149 H -0.04862 0.62066 1.11975
 C150 C -0.07778 0.53679 1.05053
 H151 H -0.08575 0.51270 1.03178
 C152 C -0.11195 0.55654 1.06952
 H153 H -0.14581 0.54764 1.06462
 N154 N -0.03491 0.54706 1.05625
 C155 C 0.07432 0.47136 1.06055
 H156 H 0.08813 0.47070 1.03070
 C157 C 0.09289 0.45007 1.08830
 H158 H 0.12112 0.43378 1.07913
 C159 C 0.02018 0.49258 1.10821
 H160 H -0.00888 0.50834 1.11579
 C161 C 0.03767 0.47171 1.13687
 H162 H 0.02206 0.47210 1.16627
 Zn163 Zn 0.00974 0.51666 1.03192
 N164 N 0.03834 0.49183 1.07075
 C165 C 0.07503 0.52550 0.97127
 N166 N 0.05062 0.54612 0.99813
 C167 C 0.05025 0.58490 0.99573
 C168 C 0.07404 0.60414 0.96467
 C169 C 0.09877 0.54344 0.93973
 C170 C -0.01802 0.44129 1.00690
 C171 C -0.03375 0.41449 0.97989
 C172 C -0.04704 0.46656 0.93812
 C173 C -0.03145 0.49228 0.96594
 N174 N -0.01673 0.47934 0.99925
 H175 H 0.07338 0.49464 0.97257
 H176 H 0.02965 0.60079 1.01651
 H177 H 0.07163 0.63469 0.96215
 H178 H 0.11625 0.52624 0.91772
 H179 H -0.00595 0.43167 1.03351
 H180 H -0.03334 0.38433 0.98598
 H181 H -0.05771 0.47739 0.91140
 H182 H -0.02982 0.52270 0.96055
 C183 C 0.07408 0.44953 1.12701
 C184 C -0.10226 0.58729 1.09480
 C185 C -0.04786 0.42710 0.94465
 C186 C 0.09757 0.58307 0.93555
 C187 C 1.05778 -0.05105 0.53267
 H188 H 1.07284 -0.02245 0.53440
 C189 C 1.07359 -0.08011 0.55397
 H190 H 1.10073 -0.07312 0.57175
 C191 C 1.00292 -0.09410 0.50869
 H192 H 0.97472 -0.09926 0.49172
 C193 C 1.01760 -0.12400 0.52962
 H194 H 1.00079 -0.15207 0.52811
 N195 N 1.02293 -0.05838 0.51071
 C196 C 1.04993 0.01500 0.41851
 H197 H 1.03052 -0.00467 0.40134
 C198 C 1.07714 0.04383 0.39977
 H199 H 1.07835 0.04580 0.36837
 C200 C 1.06886 0.03883 0.48023
 H201 H 1.06387 0.03804 0.51165
 C202 C 1.09579 0.06835 0.46275
 H203 H 1.11214 0.08948 0.48089
 Zn204 Zn 0.99977 -0.01722 0.48539
 N205 N 1.04562 0.01344 0.45814
 C206 C 0.96486 0.05125 0.51136
 N207 N 0.97280 0.01572 0.52337
 C208 C 0.96571 0.00590 0.56153
 C209 C 0.95149 0.03296 0.58957
 C210 C 0.95146 0.07924 0.53840
 C211 C 0.96858 -0.06097 0.42158
 C212 C 0.93786 -0.07332 0.39516
 C213 C 0.88426 -0.03448 0.43020
 C214 C 0.91580 -0.02305 0.45592
 N215 N 0.95731 -0.03582 0.45090
 H216 H 0.97092 0.05831 0.48086
 H217 H 0.97246 -0.02249 0.57040
 H218 H 0.94764 0.02528 0.62001
 H219 H 0.94701 0.10785 0.52859
 H220 H 1.00168 -0.07106 0.41842
 H221 H 0.94785 -0.09260 0.37158
 H222 H 0.85162 -0.02351 0.43448
 H223 H 0.90710 -0.00358 0.47965
 C224 C 1.09927 0.07170 0.42213
 C225 C 1.05317 -0.11717 0.55294
 C226 C 0.89514 -0.05964 0.39910
 C227 C 0.94538 0.07043 0.57808
 N228 N 0.07379 0.42422 1.19276
 N229 N 0.09246 0.39769 1.21171
 C230 C 0.12178 0.38161 1.18579
 C231 C 0.12068 0.39923 1.15042
 N232 N 0.09013 0.42565 1.15586
 H233 H 0.13913 0.39229 1.12325
 N234 N -0.17989 0.59413 1.11594
 N235 N -0.20585 0.61861 1.13473
 C236 C -0.17940 0.64815 1.14636
 C237 C -0.13617 0.64105 1.13407
 N238 N -0.13791 0.60697 1.11502
 H239 H -0.10689 0.65961 1.13728
 N240 N -0.06047 0.40957 0.87738
 N241 N -0.07148 0.37914 0.85602
 C242 C -0.07903 0.34965 0.88068
 C243 C -0.07228 0.36287 0.91787
 N244 N -0.06059 0.40048 0.91458
 H245 H -0.07520 0.34658 0.94444
 N246 N 0.11941 0.58161 0.86601
 N247 N 0.13314 0.60511 0.83731
 C248 C 0.13863 0.64022 0.85352
 C249 C 0.12776 0.63761 0.89317
 N250 N 0.11579 0.60045 0.89978
 H251 H 0.12748 0.66056 0.91472
 N252 N 1.12123 0.13965 0.42222
 N253 N 1.13753 0.16663 0.39778
 C254 C 1.14763 0.14901 0.36331
 C255 C 1.13712 0.11028 0.36736
 N256 N 1.12046 0.10565 0.40457
 H257 H 1.13964 0.08802 0.34513
 N258 N 1.04383 -0.18040 0.58248
 N259 N 1.06255 -0.20136 0.60747
 C260 C 1.09874 -0.18073 0.61779
 C261 C 1.10175 -0.14656 0.59823
 N262 N 1.06668 -0.14728 0.57658
 H263 H 1.12656 -0.12332 0.60038
 N264 N 0.82676 -0.05105 0.36893
 N265 N 0.80351 -0.06590 0.34088
 C266 C 0.82584 -0.09523 0.32492
 C267 C 0.86375 -0.09792 0.34410
 N268 N 0.86308 -0.06971 0.37145
 H269 H 0.88890 -0.11845 0.33881
 N270 N 0.95312 0.13627 0.60137
 N271 N 0.94367 0.15720 0.63305
 C272 C 0.92083 0.13378 0.65909
 C273 C 0.91658 0.09764 0.64241
 N274 N 0.93735 0.10046 0.60635
 H275 H 0.90079 0.07187 0.65533
 N276 N 0.36621 1.15218 0.03019
 N277 N 0.34040 1.17623 0.04986
 C278 C 0.32247 1.15768 0.08176
 C279 C 0.33813 1.12145 0.08116
 N280 N 0.36551 1.11914 0.04844
 H281 H 0.33046 1.09929 0.10252
 N282 N 0.68543 1.09410 -0.01288
 N283 N 0.72481 1.10943 -0.02528
 C284 C 0.73338 1.09675 -0.06220
 C285 C 0.69802 1.07291 -0.07208
 N286 N 0.66878 1.07214 -0.04048
 H287 H 0.69289 1.05941 -0.10004
 N288 N 0.39835 0.93704 -0.18846
 N289 N 0.37060 0.91865 -0.21114
 C290 C 0.34280 0.89623 -0.18769
 C291 C 0.35429 0.90137 -0.15001
 N292 N 0.38908 0.92716 -0.15159
 H293 H 0.33898 0.88733 -0.12420
 N294 N 0.52506 0.83415 0.09111
 N295 N 0.54985 0.81430 0.11235
 C296 C 0.57750 0.83987 0.12924
 C297 C 0.56885 0.87599 0.11786
 N298 N 0.53591 0.87128 0.09398
 H299 H 0.58684 0.90265 0.12433
   
