data_POSCAR
  _audit_creation_date              2014-09-24
  _audit_creation_method            'ToBaCCo'
  _symmetry_space_group_name_H-M    'P1'
  _symmetry_Int_Tables_number       1
  _symmetry_cell_setting            triclinic
  loop_
  _symmetry_equiv_pos_as_xyz
 x,y,z
_cell_length_a 25.1134
_cell_length_b 25.0889
_cell_length_c 42.3937
_cell_angle_alpha 90.670000
_cell_angle_beta 90.780800
_cell_angle_gamma 90.149600
loop_
  _atom_site_label
  _atom_site_type_symbol
  _atom_site_fract_x
  _atom_site_fract_y
  _atom_site_fract_z
C1 C -0.02745 0.33504 0.98438
 C2 C -0.02752 0.33543 1.01672
 C3 C -0.01396 0.38682 1.02639
 N4 N -0.00528 0.41757 1.00099
 C5 C -0.01385 0.38615 0.97529
 C6 C -0.00628 0.40346 1.05811
 C7 C 0.00265 0.45707 1.06757
 C8 C 0.01908 0.47336 1.09758
 C9 C 0.01988 0.52817 1.09771
 C10 C 0.00399 0.54404 1.06776
 N11 N -0.00677 0.50044 1.04966
 C12 C -0.00316 0.59761 1.05850
 C13 C -0.00908 0.61363 1.02677
 C14 C -0.01985 0.66526 1.01717
 C15 C -0.01884 0.66467 0.98483
 C16 C -0.00758 0.61272 0.97567
 N17 N -0.00123 0.58176 1.00133
 C18 C -0.00008 0.59561 0.94419
 C19 C 0.00651 0.54177 0.93496
 C20 C 0.02267 0.52485 0.90532
 C21 C 0.02090 0.47003 0.90519
 C22 C 0.00375 0.45495 0.93475
 N23 N -0.00531 0.49892 0.95263
 C24 C -0.00600 0.40186 0.94382
 H25 H -0.03582 0.30083 0.96930
 H26 H -0.03597 0.30157 1.03145
 H27 H -0.02427 0.49976 0.97422
 H28 H 0.02893 0.44832 1.11744
 H29 H 0.03052 0.55349 1.11767
 H30 H -0.02703 0.69990 1.03196
 H31 H -0.02516 0.69872 0.96980
 H32 H 0.03070 0.44424 0.88547
 H33 H -0.02533 0.50042 1.02765
 H34 H 0.03405 0.54944 0.88570
 C35 C 0.66732 -0.02190 0.51288
 C36 C 0.66545 -0.02114 0.48055
 C37 C 0.61364 -0.00789 0.47197
 N38 N 0.58405 -0.00029 0.49803
 C39 C 0.61662 -0.00920 0.52306
 C40 C 0.59556 0.00051 0.44068
 C41 C 0.54171 0.01016 0.43232
 C42 C 0.52423 0.02813 0.40311
 C43 C 0.46952 0.02966 0.40395
 C44 C 0.45496 0.01258 0.43363
 N45 N 0.49915 0.00040 0.45064
 C46 C 0.40186 0.00579 0.44350
 C47 C 0.38717 -0.00255 0.47509
 C48 C 0.33587 -0.01369 0.48484
 C49 C 0.33782 -0.01554 0.51717
 C50 C 0.39022 -0.00541 0.52613
 N51 N 0.42016 0.00289 0.50038
 C52 C 0.40869 -0.00048 0.55764
 C53 C 0.46280 0.00627 0.56636
 C54 C 0.48087 0.02096 0.59630
 C55 C 0.53562 0.02047 0.59552
 C56 C 0.54954 0.00542 0.56514
 N57 N 0.50491 -0.00356 0.54763
 C58 C 0.60227 -0.00264 0.55496
 H59 H 0.70219 -0.03031 0.52725
 H60 H 0.69863 -0.02877 0.46511
 H61 H 0.50328 -0.02119 0.52538
 H62 H 0.54839 0.03868 0.38316
 H63 H 0.44343 0.04157 0.38478
 H64 H 0.30059 -0.01933 0.47022
 H65 H 0.30432 -0.02285 0.53234
 H66 H 0.56215 0.02968 0.61518
 H67 H 0.49997 -0.01915 0.47207
 H68 H 0.45709 0.03069 0.61667
 C69 C 0.10303 0.01118 0.26413
 H70 H 0.10673 0.01058 0.23873
 C71 C 0.14863 0.01382 0.28335
 H72 H 0.18740 0.01556 0.27255
 C73 C 0.04779 0.01079 0.30898
 H74 H 0.00849 0.01018 0.31896
 C75 C 0.09223 0.01353 0.32905
 H76 H 0.08648 0.01378 0.35432
 N77 N 0.05390 0.00874 0.27716
 C78 C -0.04761 -0.07074 0.20659
 H79 H -0.08039 -0.04288 0.20560
 C80 C -0.04850 -0.11639 0.18745
 H81 H -0.08192 -0.12302 0.17147
 C82 C 0.03636 -0.09487 0.22811
 H83 H 0.06907 -0.08675 0.24425
 C84 C 0.03713 -0.14102 0.20937
 H85 H 0.07059 -0.16796 0.21133
 Zn86 Zn -0.00636 0.00399 0.24984
 N87 N -0.00511 -0.06027 0.22591
 C88 C -0.00363 0.05617 0.19086
 N89 N -0.00473 0.06346 0.22269
 C90 C -0.00359 0.11321 0.23579
 C91 C -0.00343 0.15817 0.21663
 C92 C -0.00348 0.09992 0.17086
 C93 C -0.07811 -0.03824 0.29281
 C94 C -0.12313 -0.04002 0.31172
 C95 C -0.15156 0.04373 0.28966
 C96 C -0.10596 0.04390 0.27116
 N97 N -0.06979 0.00383 0.27354
 H98 H -0.00277 0.01646 0.18083
 H99 H -0.00359 0.11790 0.26119
 H100 H -0.00394 0.19744 0.22749
 H101 H -0.00251 0.09321 0.14560
 H102 H -0.04905 -0.06995 0.29392
 H103 H -0.12805 -0.07301 0.32767
 H104 H -0.17977 0.07609 0.28755
 H105 H -0.09954 0.07622 0.25505
 C106 C -0.00542 -0.15196 0.18842
 C107 C 0.14354 0.01467 0.31631
 C108 C -0.16030 0.00167 0.31057
 C109 C -0.00397 0.15179 0.18367
 C110 C 0.00269 0.10411 0.76393
 H111 H 0.00370 0.10774 0.73854
 C112 C -0.00060 0.14979 0.78298
 H113 H -0.00238 0.18855 0.77206
 C114 C 0.00230 0.04896 0.80891
 H115 H 0.00271 0.00967 0.81899
 C116 C -0.00113 0.09346 0.82880
 H117 H -0.00206 0.08777 0.85406
 N118 N 0.00491 0.05498 0.77712
 C119 C 0.08316 -0.04711 0.70781
 H120 H 0.05517 -0.07997 0.70667
 C121 C 0.12828 -0.04790 0.68895
 H122 H 0.13439 -0.08134 0.67305
 C123 C 0.10799 0.03705 0.72934
 H124 H 0.10029 0.06984 0.74533
 C125 C 0.15364 0.03792 0.71088
 H126 H 0.18064 0.07153 0.71292
 Zn127 Zn 0.00923 -0.00552 0.75009
 N128 N 0.07323 -0.00453 0.72695
 C129 C -0.04349 -0.00305 0.69043
 N130 N -0.05037 -0.00385 0.72219
 C131 C -0.09987 -0.00218 0.73478
 C132 C -0.14504 -0.00167 0.71517
 C133 C -0.08748 -0.00254 0.66998
 C134 C 0.05064 -0.07712 0.79414
 C135 C 0.05148 -0.12165 0.81358
 C136 C -0.03250 -0.14972 0.79033
 C137 C -0.03173 -0.10464 0.77133
 N138 N 0.00885 -0.06879 0.77408
 H139 H -0.00393 -0.00260 0.68080
 H140 H -0.10422 -0.00196 0.76014
 H141 H -0.18412 -0.00172 0.72563
 H142 H -0.08110 -0.00173 0.64478
 H143 H 0.08275 -0.04832 0.79555
 H144 H 0.08418 -0.12651 0.83019
 H145 H -0.06534 -0.17760 0.78796
 H146 H -0.06381 -0.09827 0.75461
 C147 C 0.16389 -0.00463 0.69002
 C148 C -0.00240 0.14476 0.81591
 C149 C 0.00910 -0.15830 0.81214
 C150 C -0.13913 -0.00236 0.68226
 C151 C -0.00295 -0.28607 0.12437
 C152 C 0.04379 -0.25730 0.13090
 C153 C 0.04319 -0.21425 0.15213
 C154 C -0.00288 -0.36349 0.08151
 C155 C -0.05092 -0.22899 0.16068
 C156 C -0.05021 -0.27206 0.13945
 C157 C -0.00283 -0.32861 0.10133
 C158 C -0.00429 -0.19932 0.16707
 H159 H 0.08052 -0.26763 0.11922
 H160 H 0.07956 -0.19179 0.15620
 H161 H -0.08792 -0.21891 0.17209
 H162 H -0.08663 -0.29407 0.13456
 C163 C -0.00672 0.28626 0.12172
 C164 C -0.03769 0.24114 0.11472
 C165 C -0.03712 0.19770 0.13501
 C166 C -0.00607 0.36494 0.08080
 C167 C 0.02518 0.24453 0.16969
 C168 C 0.02457 0.28801 0.14930
 C169 C -0.00615 0.32980 0.09996
 C170 C -0.00540 0.19870 0.16263
 H171 H -0.06208 0.23940 0.09345
 H172 H -0.06174 0.16340 0.12917
 H173 H 0.05040 0.24629 0.19060
 H174 H 0.04889 0.32269 0.15486
 C175 C 0.29482 -0.00124 0.62578
 C176 C 0.28165 -0.04864 0.64094
 C177 C 0.23971 -0.04963 0.66229
 C178 C 0.36943 -0.00062 0.58238
 C179 C 0.22452 0.04450 0.65375
 C180 C 0.26643 0.04538 0.63240
 C181 C 0.33591 -0.00086 0.60247
 C182 C 0.21035 -0.00314 0.66873
 H183 H 0.30337 -0.08497 0.63597
 H184 H 0.23020 -0.08676 0.67373
 H185 H 0.20225 0.08077 0.65784
 H186 H 0.27610 0.08222 0.62065
 C187 C -0.27483 -0.00369 0.61931
 C188 C -0.23033 -0.03503 0.61259
 C189 C -0.18642 -0.03484 0.63317
 C190 C -0.35536 -0.00276 0.57851
 C191 C -0.23150 0.02790 0.66749
 C192 C -0.27544 0.02766 0.64683
 C193 C -0.31917 -0.00304 0.59748
 C194 C -0.18635 -0.00316 0.66078
 H195 H -0.22949 -0.05948 0.59137
 H196 H -0.15265 -0.05980 0.62758
 H197 H -0.23243 0.05313 0.68837
 H198 H -0.30964 0.05224 0.65217
 C199 C 0.00474 -0.28837 0.87721
 C200 C 0.05272 -0.27435 0.86305
 C201 C 0.05414 -0.23252 0.84154
 C202 C 0.00206 -0.36407 0.92004
 C203 C -0.04064 -0.21905 0.84805
 C204 C -0.04194 -0.26081 0.86955
 C205 C 0.00351 -0.32991 0.90029
 C206 C 0.00750 -0.20419 0.83394
 H207 H 0.08909 -0.29546 0.86881
 H208 H 0.09167 -0.22244 0.83081
 H209 H -0.07706 -0.19754 0.84307
 H210 H -0.07924 -0.27116 0.88051
 C211 C -0.00739 0.28107 0.87816
 C212 C 0.02428 0.28221 0.85126
 C213 C 0.02528 0.23824 0.83067
 C214 C -0.00627 0.36055 0.91965
 C215 C -0.03762 0.19219 0.86368
 C216 C -0.03858 0.23615 0.88419
 C217 C -0.00670 0.32497 0.90029
 C218 C -0.00529 0.19251 0.83684
 H219 H 0.04876 0.31672 0.84646
 H220 H 0.05099 0.23946 0.81039
 H221 H -0.06220 0.15794 0.86882
 H222 H -0.06327 0.23489 0.90494
 C223 C -0.29218 0.00200 0.37418
 C224 C -0.26549 0.04954 0.36765
 C225 C -0.22323 0.04961 0.34654
 C226 C -0.36720 0.00109 0.41733
 C227 C -0.23465 -0.04547 0.33805
 C228 C -0.27694 -0.04543 0.35917
 C229 C -0.33354 0.00152 0.39731
 C230 C -0.20700 0.00199 0.33170
 H231 H -0.27675 0.08641 0.37930
 H232 H -0.20232 0.08665 0.34251
 H233 H -0.22355 -0.08263 0.32671
 H234 H -0.29731 -0.08247 0.36408
 C235 C 0.27973 0.01436 0.37886
 C236 C 0.28016 -0.01595 0.35095
 C237 C 0.23627 -0.01516 0.33029
 C238 C 0.35961 0.00909 0.41998
 C239 C 0.19166 0.04687 0.36527
 C240 C 0.23558 0.04603 0.38586
 C241 C 0.32365 0.01165 0.40093
 C242 C 0.19129 0.01590 0.33738
 H243 H 0.31407 -0.04079 0.34538
 H244 H 0.23694 -0.03992 0.30921
 H245 H 0.15799 0.07175 0.37118
 H246 H 0.23486 0.06967 0.40740
   
