data_POSCAR
  _audit_creation_date              2014-09-24
  _audit_creation_method            'ToBaCCo'
  _symmetry_space_group_name_H-M    'P1'
  _symmetry_Int_Tables_number       1
  _symmetry_cell_setting            triclinic
  loop_
  _symmetry_equiv_pos_as_xyz
 x,y,z
_cell_length_a 31.0912
_cell_length_b 30.0391
_cell_length_c 32.2750
_cell_angle_alpha 91.424900
_cell_angle_beta 91.038700
_cell_angle_gamma 87.959000
loop_
  _atom_site_label
  _atom_site_type_symbol
  _atom_site_fract_x
  _atom_site_fract_y
  _atom_site_fract_z
C1 C 0.70457 0.65476 0.93537
 H2 H 0.73456 0.65662 0.91916
 C3 C 0.66596 0.66993 0.91645
 H4 H 0.66639 0.68407 0.88593
 C5 C 0.66654 0.63110 0.99340
 H6 H 0.66620 0.61480 1.02277
 C7 C 0.62757 0.64492 0.97542
 H8 H 0.59804 0.64002 0.99175
 N9 N 0.70412 0.63556 0.97317
 C10 C 0.83041 0.62904 1.03418
 H11 H 0.82701 0.59676 1.04763
 C12 C 0.86475 0.65497 1.04662
 H13 H 0.88809 0.64202 1.06896
 C14 C 0.80339 0.68524 0.98945
 H15 H 0.77881 0.69735 0.96808
 C16 C 0.83786 0.71208 1.00053
 H17 H 0.83966 0.74465 0.98719
 Zn18 Zn 0.75366 0.60634 0.99685
 N19 N 0.80056 0.64431 1.00609
 C20 C 0.81322 0.54699 0.95751
 N21 N 0.77066 0.55833 0.96071
 C22 C 0.74132 0.54268 0.93262
 C23 C 0.75485 0.51719 0.89806
 C24 C 0.82808 0.52175 0.92352
 C25 C 0.73540 0.62416 1.07699
 C26 C 0.72405 0.61846 1.11776
 C27 C 0.71849 0.53959 1.10279
 C28 C 0.73103 0.54683 1.06204
 N29 N 0.73893 0.58878 1.05015
 H30 H 0.83618 0.55984 0.97978
 H31 H 0.70768 0.55251 0.93545
 H32 H 0.73134 0.50760 0.87467
 H33 H 0.86233 0.51489 0.92064
 H34 H 0.74101 0.65728 1.06634
 H35 H 0.72083 0.64799 1.13738
 H36 H 0.71231 0.50594 1.11159
 H37 H 0.73381 0.51929 1.03990
 C38 C 0.86883 0.69701 1.02973
 C39 C 0.62688 0.66385 0.93628
 C40 C 0.71510 0.57581 1.13152
 C41 C 0.79897 0.50822 0.89235
 C42 C 0.69865 0.30800 0.53611
 H43 H 0.72662 0.28603 0.53184
 C44 C 0.65979 0.29095 0.54887
 H45 H 0.65789 0.25567 0.55443
 C46 C 0.66677 0.38085 0.53440
 H47 H 0.66991 0.41597 0.52903
 C48 C 0.62724 0.36511 0.54587
 H49 H 0.60011 0.38838 0.54965
 N50 N 0.70131 0.35231 0.52926
 C51 C 0.78252 0.32000 0.44830
 H52 H 0.75061 0.32526 0.43520
 C53 C 0.81494 0.30066 0.42371
 H54 H 0.80686 0.29026 0.39230
 C55 C 0.83158 0.32817 0.50462
 H56 H 0.83821 0.33937 0.53605
 C57 C 0.86515 0.30934 0.48093
 H58 H 0.89719 0.30678 0.49451
 Zn59 Zn 0.75193 0.37834 0.51108
 N60 N 0.79182 0.33566 0.48719
 C61 C 0.81875 0.42487 0.55071
 N62 N 0.77900 0.40870 0.55629
 C63 C 0.76081 0.40981 0.59440
 C64 C 0.78385 0.42534 0.62913
 C65 C 0.84324 0.43950 0.58464
 C66 C 0.70356 0.40481 0.44194
 C67 C 0.69271 0.42935 0.40698
 C68 C 0.74658 0.48184 0.42768
 C69 C 0.75614 0.45646 0.46256
 N70 N 0.73529 0.41816 0.46854
 H71 H 0.83280 0.42331 0.52028
 H72 H 0.72928 0.39669 0.59831
 H73 H 0.76994 0.42395 0.65957
 H74 H 0.87585 0.44968 0.58002
 H75 H 0.68749 0.37416 0.44715
 H76 H 0.66843 0.41710 0.38557
 H77 H 0.76410 0.51174 0.42298
 H78 H 0.78096 0.46686 0.48408
 C79 C 0.85748 0.29752 0.43915
 C80 C 0.62345 0.31972 0.55334
 C81 C 0.71507 0.46783 0.39900
 C82 C 0.82617 0.43869 0.62445
 C83 C 0.20452 -0.18552 0.01454
 H84 H 0.23195 -0.20284 0.00070
 C85 C 0.17099 -0.20984 0.02992
 H86 H 0.17323 -0.24581 0.02759
 C87 C 0.16920 -0.11770 0.03539
 H88 H 0.16893 -0.08169 0.03756
 C89 C 0.13504 -0.14065 0.05116
 H90 H 0.10837 -0.12177 0.06479
 N91 N 0.20276 -0.14025 0.01703
 C92 C 0.33257 -0.14399 0.00537
 H93 H 0.33436 -0.12418 0.03360
 C94 C 0.36855 -0.16961 -0.00680
 H95 H 0.39742 -0.16920 0.01245
 C96 C 0.29384 -0.16712 -0.05483
 H97 H 0.26456 -0.16564 -0.07345
 C98 C 0.32963 -0.19250 -0.06871
 H99 H 0.32771 -0.21095 -0.09790
 Zn100 Zn 0.24830 -0.10617 -0.00227
 N101 N 0.29596 -0.14344 -0.01835
 C102 C 0.27298 -0.08734 0.07920
 N103 N 0.26456 -0.06809 0.04213
 C104 C 0.26715 -0.02338 0.03762
 C105 C 0.28038 0.00359 0.07099
 C106 C 0.28673 -0.06178 0.11317
 C107 C 0.18878 -0.07508 -0.06241
 C108 C 0.17516 -0.05411 -0.09852
 C109 C 0.24697 -0.02793 -0.10653
 C110 C 0.25922 -0.04954 -0.06994
 N111 N 0.23022 -0.07285 -0.04896
 H112 H 0.26973 -0.12287 0.08209
 H113 H 0.25942 -0.00863 0.00812
 H114 H 0.28325 0.03895 0.06662
 H115 H 0.29376 -0.07787 0.14227
 H116 H 0.16622 -0.09399 -0.04565
 H117 H 0.14179 -0.05703 -0.10761
 H118 H 0.27117 -0.01066 -0.12283
 H119 H 0.29219 -0.04861 -0.05875
 C120 C 0.36742 -0.19405 -0.04431
 C121 C 0.13541 -0.18740 0.04827
 C122 C 0.20449 -0.03084 -0.12209
 C123 C 0.29095 -0.01577 0.10914
 C124 C 0.19319 0.15869 0.45147
 H125 H 0.21268 0.14063 0.42892
 C126 C 0.15499 0.18012 0.43828
 H127 H 0.14628 0.17882 0.40565
 C128 C 0.18024 0.18124 0.52107
 H129 H 0.18936 0.17994 0.55354
 C130 C 0.14191 0.20395 0.50899
 H131 H 0.12221 0.22079 0.53228
 N132 N 0.20458 0.15838 0.49241
 C133 C 0.33216 0.11117 0.53813
 H134 H 0.32745 0.07643 0.53032
 C135 C 0.37237 0.12450 0.55206
 H136 H 0.39821 0.09967 0.55547
 C137 C 0.30391 0.18544 0.54247
 H138 H 0.27720 0.20898 0.53792
 C139 C 0.34383 0.20024 0.55733
 H140 H 0.34769 0.23533 0.56428
 Zn141 Zn 0.24896 0.11622 0.50879
 N142 N 0.29905 0.14148 0.53299
 C143 C 0.30238 0.09970 0.44169
 N144 N 0.26713 0.08421 0.46028
 C145 C 0.24331 0.05197 0.44164
 C146 C 0.25418 0.03505 0.40223
 C147 C 0.31489 0.08305 0.40302
 C148 C 0.24415 0.07212 0.58556
 C149 C 0.22201 0.05270 0.61736
 C150 C 0.16080 0.04576 0.57082
 C151 C 0.18423 0.06478 0.53977
 N152 N 0.22470 0.07870 0.54791
 H153 H 0.31976 0.12679 0.45582
 H154 H 0.21485 0.04081 0.45640
 H155 H 0.23420 0.01051 0.38708
 H156 H 0.34215 0.09718 0.38838
 H157 H 0.27583 0.08429 0.59206
 H158 H 0.23708 0.05009 0.64776
 H159 H 0.12788 0.03684 0.56432
 H160 H 0.16898 0.07133 0.51006
 C161 C 0.37880 0.16951 0.56145
 C162 C 0.12824 0.20225 0.46723
 C163 C 0.17922 0.04103 0.61056
 C164 C 0.29010 0.05114 0.38238
 C165 C 0.16440 0.45914 0.17822
 H166 H 0.17227 0.44024 0.20560
 C167 C 0.18645 0.44963 0.14151
 H168 H 0.21110 0.42327 0.14088
 C169 C 0.12372 0.51725 0.14615
 H170 H 0.09976 0.54397 0.14780
 C171 C 0.14501 0.50905 0.10904
 H172 H 0.13601 0.52905 0.08265
 N173 N 0.13296 0.49189 0.17971
 C174 C 0.12642 0.52086 0.31226
 H175 H 0.09270 0.51721 0.31775
 C176 C 0.15346 0.53231 0.34535
 H177 H 0.14007 0.53604 0.37599
 C178 C 0.18425 0.52206 0.26561
 H179 H 0.19593 0.51943 0.23432
 C180 C 0.21256 0.53354 0.29796
 H181 H 0.24579 0.53932 0.29104
 Zn182 Zn 0.10191 0.50388 0.22946
 N183 N 0.14195 0.51599 0.27324
 C184 C 0.04354 0.45612 0.27732
 N185 N 0.07069 0.45314 0.24460
 C186 C 0.08297 0.41270 0.22796
 C187 C 0.07348 0.37371 0.24785
 C188 C 0.03268 0.41767 0.29796
 C189 C 0.07982 0.59386 0.24107
 C190 C 0.06189 0.63522 0.23069
 C191 C 0.01389 0.59855 0.18233
 C192 C 0.03245 0.55739 0.19423
 N193 N 0.06591 0.55597 0.22211
 H194 H 0.03261 0.48846 0.28918
 H195 H 0.10262 0.41038 0.20085
 H196 H 0.08607 0.34203 0.23571
 H197 H 0.01376 0.42070 0.32580
 H198 H 0.10689 0.59263 0.26243
 H199 H 0.07556 0.66460 0.24487
 H200 H -0.01128 0.59940 0.15871
 H201 H 0.02223 0.52690 0.17912
 C202 C 0.19706 0.53924 0.33840
 C203 C 0.17661 0.47468 0.10626
 C204 C 0.02935 0.63821 0.20012
 C205 C 0.05003 0.37619 0.28450
 C206 C -0.19667 0.06771 0.22277
 H207 H -0.17592 0.09092 0.23868
 C208 C -0.21602 0.07921 0.18485
 H209 H -0.21022 0.11182 0.17317
 C210 C -0.22489 -0.00436 0.21708
 H211 H -0.22646 -0.03763 0.22893
 C212 C -0.24428 0.00546 0.17895
 H213 H -0.26220 -0.02027 0.16317
 N214 N -0.19968 0.02573 0.23690
 C215 C -0.16003 -0.04505 0.34910
 H216 H -0.12595 -0.05039 0.34383
 C217 C -0.17812 -0.06046 0.38517
 H218 H -0.15769 -0.07808 0.40728
 C219 C -0.22763 -0.01433 0.32719
 H220 H -0.24668 0.00428 0.30476
 C221 C -0.24693 -0.02866 0.36311
 H222 H -0.28101 -0.02191 0.36736
 Zn223 Zn -0.15827 0.00092 0.27409
 N224 N -0.18493 -0.02288 0.32076
 C225 C -0.13298 0.07920 0.31737
 N226 N -0.11887 0.04407 0.29323
 C227 C -0.07671 0.03901 0.28283
 C228 C -0.04744 0.07118 0.29478
 C229 C -0.10449 0.11191 0.33064
 C230 C -0.12111 -0.08618 0.24932
 C231 C -0.09894 -0.11462 0.22118
 C232 C -0.09306 -0.05280 0.17553
 C233 C -0.11491 -0.02577 0.20439
 N234 N -0.12811 -0.04243 0.24064
 H235 H -0.16653 0.08218 0.32568
 H236 H -0.06558 0.01025 0.26488
 H237 H -0.01427 0.06709 0.28531
 H238 H -0.11643 0.14039 0.34877
 H239 H -0.13255 -0.09906 0.27793
 H240 H -0.09318 -0.14911 0.22904
 H241 H -0.08331 -0.03791 0.14725
 H242 H -0.12128 0.00903 0.19794
 C243 C -0.22213 -0.05219 0.39262
 C244 C -0.23750 0.04669 0.16073
 C245 C -0.08434 -0.09792 0.18364
 C246 C -0.06132 0.10841 0.31852
 C247 C 0.29690 0.55025 0.67812
 H248 H 0.29111 0.57444 0.70270
 C249 C 0.27637 0.55625 0.63978
 H250 H 0.25551 0.58543 0.63534
 C251 C 0.33012 0.48269 0.65392
 H252 H 0.35054 0.45362 0.65943
 C253 C 0.31020 0.48730 0.61516
 H254 H 0.31699 0.46243 0.59114
 N255 N 0.32486 0.51499 0.68395
 C256 C 0.34158 0.50479 0.81718
 H257 H 0.37319 0.51844 0.82091
 C258 C 0.32111 0.48824 0.85129
 H259 H 0.33667 0.49052 0.88151
 C260 C 0.28407 0.48324 0.77260
 H261 H 0.27071 0.47988 0.74156
 C262 C 0.26221 0.46667 0.80602
 H263 H 0.23171 0.45111 0.80043
 Zn264 Zn 0.35876 0.51134 0.73364
 N265 N 0.32345 0.50079 0.77871
 C266 C 0.43076 0.56730 0.74602
 N267 N 0.38706 0.56561 0.74480
 C268 C 0.36190 0.60219 0.75477
 C269 C 0.38030 0.64255 0.76576
 C270 C 0.45057 0.60687 0.75793
 C271 C 0.39363 0.42689 0.75387
 C272 C 0.41364 0.38564 0.74521
 C273 C 0.44596 0.41697 0.68563
 C274 C 0.42580 0.45809 0.69591
 N275 N 0.39837 0.46164 0.72831
 H276 H 0.45029 0.53766 0.73914
 H277 H 0.32748 0.59966 0.75630
 H278 H 0.35967 0.67077 0.77494
 H279 H 0.48534 0.60750 0.76007
 H280 H 0.37218 0.42993 0.77972
 H281 H 0.40801 0.35852 0.76558
 H282 H 0.46509 0.41416 0.65798
 H283 H 0.42902 0.48607 0.67586
 C284 C 0.28148 0.46779 0.84570
 C285 C 0.28409 0.52524 0.60733
 C286 C 0.43825 0.37952 0.70941
 C287 C 0.42512 0.64502 0.76800
 C288 C 0.70167 0.92483 0.72518
 H289 H 0.70393 0.91130 0.75591
 C290 C 0.71538 0.89888 0.69110
 H291 H 0.72910 0.86586 0.69634
 C292 C 0.67936 0.98353 0.68119
 H293 H 0.66429 1.01614 0.67730
 C294 C 0.69268 0.95863 0.64616
 H295 H 0.68752 0.97238 0.61571
 N296 N 0.68255 0.96564 0.71958
 C297 C 0.66519 1.02849 0.84255
 H298 H 0.63048 1.03192 0.84002
 C299 C 0.68607 1.04262 0.87877
 H300 H 0.66649 1.05649 0.90356
 C301 C 0.73130 1.00468 0.81268
 H302 H 0.74860 0.98977 0.78677
 C303 C 0.75365 1.01758 0.84898
 H304 H 0.78827 1.01286 0.84976
 Zn305 Zn 0.65190 0.99239 0.76471
 N306 N 0.68779 1.01045 0.81022
 C307 C 0.63598 0.92522 0.81812
 N308 N 0.61647 0.94794 0.78657
 C309 C 0.57654 0.93698 0.77233
 C310 C 0.55432 0.90310 0.79123
 C311 C 0.61483 0.89221 0.83815
 C312 C 0.63716 1.08422 0.75926
 C313 C 0.62017 1.12434 0.74455
 C314 C 0.57060 1.08331 0.70137
 C315 C 0.58858 1.04359 0.71720
 N316 N 0.62123 1.04469 0.74588
 H317 H 0.66834 0.93259 0.82804
 H318 H 0.56169 0.95442 0.74670
 H319 H 0.52226 0.89519 0.78040
 H320 H 0.63092 0.87534 0.86368
 H321 H 0.66449 1.08503 0.78026
 H322 H 0.63447 1.15456 0.75596
 H323 H 0.54516 1.08142 0.67818
 H324 H 0.57759 1.01201 0.70527
 C325 C 0.73107 1.03724 0.88283
 C326 C 0.70922 0.91495 0.65078
 C327 C 0.58665 1.12458 0.71485
 C328 C 0.57342 0.88106 0.82512
 C329 C 0.03084 0.18813 -0.16448
 H330 H 0.03312 0.22040 -0.17815
 C331 C 0.03779 0.14943 -0.18880
 H332 H 0.04576 0.15220 -0.22114
 C333 C 0.01832 0.14487 -0.10574
 H334 H 0.01117 0.14336 -0.07315
 C335 C 0.02404 0.10548 -0.12908
 H336 H 0.02189 0.07382 -0.11408
 N337 N 0.02175 0.18512 -0.12361
 C338 C -0.04375 0.30597 -0.11719
 H339 H -0.06777 0.29150 -0.09859
 C340 C -0.05440 0.34480 -0.13822
 H341 H -0.08678 0.35914 -0.13609
 C342 C 0.02789 0.30674 -0.14096
 H343 H 0.06008 0.29183 -0.14136
 C344 C 0.01885 0.34648 -0.16166
 H345 H 0.04391 0.36178 -0.17865
 Zn346 Zn 0.01153 0.23579 -0.08866
 N347 N -0.00341 0.28715 -0.11953
 C348 C 0.06291 0.28869 -0.03698
 N349 N 0.06208 0.24905 -0.05814
 C350 C 0.09853 0.22348 -0.06373
 C351 C 0.13833 0.23901 -0.05022
 C352 C 0.10207 0.30567 -0.02323
 C353 C -0.07094 0.20925 -0.07463
 C354 C -0.10534 0.19378 -0.05283
 C355 C -0.06313 0.20155 0.01038
 C356 C -0.02988 0.21826 -0.01269
 N357 N -0.03429 0.22132 -0.05447
 H358 H 0.03346 0.30859 -0.03341
 H359 H 0.09716 0.19219 -0.08089
 H360 H 0.16680 0.21842 -0.05639
 H361 H 0.10182 0.33840 -0.00855
 H362 H -0.07301 0.21072 -0.10808
 H363 H -0.13340 0.18371 -0.07042
 H364 H -0.05849 0.19914 0.04354
 H365 H -0.00010 0.22738 0.00256
 C366 C -0.02293 0.36548 -0.16072
 C367 C 0.03432 0.10752 -0.17103
 C368 C -0.10150 0.18840 -0.00971
 C369 C 0.14082 0.28166 -0.03146
 C370 C 0.48769 0.23638 0.19332
 H371 H 0.50267 0.26496 0.20763
 C372 C 0.46749 0.20603 0.21802
 H373 H 0.46774 0.21131 0.25131
 C374 C 0.46890 0.19499 0.13263
 H375 H 0.46908 0.19132 0.09919
 C376 C 0.44860 0.16382 0.15607
 H377 H 0.43311 0.13644 0.14018
 N378 N 0.48779 0.23052 0.15140
 C379 C 0.57891 0.30143 0.16888
 H380 H 0.58916 0.26670 0.16624
 C381 C 0.60481 0.33164 0.19023
 H382 H 0.63451 0.31942 0.20453
 C383 C 0.52754 0.35896 0.15320
 H384 H 0.49745 0.36946 0.13860
 C385 C 0.55249 0.39036 0.17427
 H386 H 0.54132 0.42488 0.17517
 Zn387 Zn 0.51240 0.27300 0.11708
 N388 N 0.54148 0.31558 0.15029
 C389 C 0.47568 0.33632 0.06052
 N390 N 0.46709 0.30192 0.08544
 C391 C 0.42578 0.28981 0.09090
 C392 C 0.39147 0.31229 0.07107
 C393 C 0.44218 0.36021 0.04058
 C394 C 0.56763 0.20096 0.09140
 C395 C 0.60350 0.18079 0.07235
 C396 C 0.61355 0.24875 0.03605
 C397 C 0.57743 0.26773 0.05592
 N398 N 0.55530 0.24386 0.08325
 H399 H 0.50835 0.34654 0.05735
 H400 H 0.41888 0.26352 0.11163
 H401 H 0.35895 0.30246 0.07661
 H402 H 0.44976 0.38776 0.02134
 H403 H 0.55115 0.18277 0.11431
 H404 H 0.61279 0.14688 0.07995
 H405 H 0.63141 0.26896 0.01560
 H406 H 0.56846 0.30221 0.05092
 C407 C 0.59213 0.37698 0.19249
 C408 C 0.44736 0.16931 0.19937
 C409 C 0.62751 0.20496 0.04483
 C410 C 0.39940 0.34837 0.04595
 C411 C 0.95676 0.70020 0.68222
 H412 H 0.94883 0.73550 0.68491
 C413 C 0.93740 0.67071 0.70808
 H414 H 0.91537 0.68427 0.73101
 C415 C 0.99535 0.64075 0.64853
 H416 H 1.01717 0.62926 0.62455
 C417 C 0.97624 0.60984 0.67358
 H418 H 0.98396 0.57475 0.66860
 N419 N 0.98511 0.68497 0.65323
 C420 C 1.03530 0.81495 0.62953
 H421 H 1.02679 0.81808 0.59706
 C422 C 1.05359 0.85053 0.65124
 H423 H 1.05938 0.88107 0.63542
 C424 C 1.03995 0.77057 0.68933
 H425 H 1.03527 0.73908 0.70378
 C426 C 1.05956 0.80476 0.71178
 H427 H 1.06965 0.79958 0.74365
 Zn428 Zn 1.00456 0.72884 0.61784
 N429 N 1.02812 0.77629 0.64900
 C430 C 0.93689 0.78956 0.59583
 N431 N 0.95593 0.74902 0.58726
 C432 C 0.93896 0.72062 0.55842
 C433 C 0.90230 0.73339 0.53554
 C434 C 0.89998 0.80349 0.57403
 C435 C 1.08309 0.68556 0.59946
 C436 C 1.11785 0.67186 0.57496
 C437 C 1.08020 0.70254 0.51544
 C438 C 1.04604 0.71540 0.54103
 N439 N 1.04799 0.70655 0.58217
 H440 H 0.94962 0.81079 0.62023
 H441 H 0.95401 0.68797 0.55324
 H442 H 0.88910 0.71023 0.51289
 H443 H 0.88542 0.83596 0.58119
 H444 H 1.08432 0.68016 0.63248
 H445 H 1.14574 0.65578 0.58948
 H446 H 1.07795 0.70986 0.48280
 H447 H 1.01860 0.73363 0.52816
 C448 C 1.06630 0.84524 0.69269
 C449 C 0.94632 0.62469 0.70354
 C450 C 1.11677 0.68066 0.53241
 C451 C 0.88237 0.77528 0.54338
 C452 C 0.53359 0.71303 0.30111
 H453 H 0.55120 0.74342 0.30168
 C454 C 0.55365 0.67349 0.28655
 H455 H 0.58611 0.67459 0.27522
 C456 C 0.47251 0.67405 0.32036
 H457 H 0.44184 0.67352 0.33523
 C458 C 0.49134 0.63380 0.30609
 H459 H 0.47401 0.60350 0.30919
 N460 N 0.49426 0.71253 0.31883
 C461 C 0.42685 0.83915 0.33569
 H462 H 0.40947 0.82927 0.36245
 C463 C 0.41471 0.87873 0.31629
 H464 H 0.38759 0.89780 0.32870
 C465 C 0.48405 0.82624 0.28914
 H466 H 0.51143 0.80598 0.27902
 C467 C 0.47299 0.86560 0.26865
 H468 H 0.49249 0.87415 0.24289
 Zn469 Zn 0.47783 0.76291 0.35273
 N470 N 0.46100 0.81380 0.32200
 C471 C 0.54494 0.81538 0.38794
 N472 N 0.52692 0.77481 0.38571
 C473 C 0.54498 0.73932 0.40560
 C474 C 0.58252 0.74373 0.42920
 C475 C 0.58292 0.82126 0.41106
 C476 C 0.39428 0.73591 0.36951
 C477 C 0.36341 0.71570 0.39285
 C478 C 0.40928 0.72474 0.45346
 C479 C 0.43929 0.74455 0.42893
 N480 N 0.43236 0.74749 0.38736
 H481 H 0.53016 0.84302 0.37147
 H482 H 0.53010 0.70734 0.40293
 H483 H 0.59546 0.71471 0.44480
 H484 H 0.59692 0.85371 0.41198
 H485 H 0.38921 0.73953 0.33649
 H486 H 0.33476 0.70379 0.37733
 H487 H 0.41627 0.72112 0.48619
 H488 H 0.46890 0.75573 0.44298
 C489 C 0.43793 0.89301 0.28222
 C490 C 0.53321 0.63286 0.29060
 C491 C 0.37174 0.70808 0.43505
 C492 C 0.60242 0.78501 0.43199
 C493 C 0.36340 0.03647 0.24322
 C494 C 0.12093 0.99280 0.74884
 C495 C 0.65339 0.51741 0.25984
 C496 C 0.88987 0.48380 0.76497
 C497 C 0.25353 0.39871 -0.01546
 C498 C 0.76522 0.10948 1.02014
 C499 C 0.25320 0.60577 0.47410
 C500 C 0.73616 0.84483 0.50627
 C501 C 0.00270 0.25057 0.37566
 C502 C 0.99201 0.77029 0.10882
 C503 C 0.50609 0.24542 0.63151
 C504 C 0.49580 0.74520 0.87382
 N505 N 0.42623 -0.00997 0.21946
 N506 N 0.44679 -0.05025 0.22990
 C507 C 0.42671 -0.06631 0.26282
 C508 C 0.39327 -0.03637 0.27375
 C509 C 0.39398 -0.00120 0.24627
 H510 H 0.37021 -0.04027 0.29785
 H511 H 0.43354 0.00769 0.19330
 H512 H 0.47254 -0.06459 0.21348
 N513 N 0.96627 0.47486 0.79693
 N514 N 0.98922 0.44291 0.81555
 C515 C 0.96541 0.40637 0.81683
 C516 C 0.92615 0.41512 0.79779
 C517 C 0.92761 0.45886 0.78559
 H518 H 0.89936 0.39319 0.79434
 H519 H 0.97680 0.50711 0.79340
 H520 H 1.01984 0.44684 0.82868
 N521 N 0.05127 0.99535 0.79007
 N522 N 0.02916 1.02586 0.81193
 C523 C 0.04478 1.06624 0.80486
 C524 C 0.07795 1.06118 0.77719
 C525 C 0.08157 1.01567 0.76866
 H526 H 0.09983 1.08630 0.76815
 H527 H 0.04752 0.96110 0.79233
 H528 H 0.00523 1.01868 0.83278
 N529 N 0.58009 0.52185 0.29459
 N530 N 0.54849 0.55144 0.30189
 C531 C 0.55717 0.58978 0.28342
 C532 C 0.59566 0.58373 0.26287
 C533 C 0.61007 0.54034 0.27132
 H534 H 0.61137 0.60844 0.24541
 H535 H 0.58092 0.48957 0.30581
 H536 H 0.52257 0.54567 0.32091
 N537 N 0.67878 0.43950 0.23747
 N538 N 0.66311 0.40310 0.22014
 C539 C 0.62056 0.41000 0.21284
 C540 C 0.60888 0.45299 0.22610
 C541 C 0.64669 0.47055 0.24203
 H542 H 0.57740 0.46938 0.22413
 H543 H 0.71118 0.44313 0.24553
 H544 H 0.68187 0.37465 0.21260
 N545 N 0.14136 0.90953 0.75119
 N546 N 0.12632 0.87149 0.73713
 C547 C 0.09009 0.87999 0.71502
 C548 C 0.08133 0.92557 0.71511
 C549 C 0.11431 0.94337 0.73926
 H550 H 0.05489 0.94331 0.69978
 H551 H 0.17045 0.91169 0.76764
 H552 H 0.14161 0.84038 0.74145
 N553 N 0.87278 0.56751 0.76676
 N554 N 0.88733 0.60372 0.75041
 C555 C 0.92304 0.59283 0.72876
 C556 C 0.93143 0.54724 0.73173
 C557 C 0.89902 0.53230 0.75652
 H558 H 0.95652 0.52712 0.71684
 H559 H 0.84399 0.56725 0.78285
 H560 H 0.87136 0.63478 0.75278
 N561 N 0.38480 0.11331 0.27352
 N562 N 0.40698 0.14743 0.26180
 C563 C 0.42422 0.13760 0.22461
 C564 C 0.41278 0.09509 0.21248
 C565 C 0.38790 0.08015 0.24439
 H566 H 0.41909 0.07862 0.18300
 H567 H 0.36641 0.11462 0.30018
 H568 H 0.40810 0.17775 0.27825
 N569 N 0.21195 0.42227 -0.07983
 N570 N 0.21878 0.44071 -0.11572
 C571 C 0.26131 0.44632 -0.11923
 C572 C 0.28248 0.42993 -0.08435
 C573 C 0.24996 0.41550 -0.05960
 H574 H 0.31673 0.42933 -0.07792
 H575 H 0.18148 0.41581 -0.06880
 H576 H 0.19440 0.45053 -0.13657
 N577 N 0.71088 0.92024 0.47780
 N578 N 0.72122 0.94659 0.44751
 C579 C 0.75790 0.93047 0.43016
 C580 C 0.77146 0.89251 0.45062
 C581 C 0.74057 0.88649 0.48050
 H582 H 0.79849 0.87057 0.44255
 H583 H 0.68291 0.92444 0.49512
 H584 H 0.70280 0.97458 0.43855
 N585 N 0.74857 0.03630 1.05067
 N586 N 0.74578 0.01953 1.09041
 C587 C 0.75311 0.05297 1.11816
 C588 C 0.75822 0.09187 1.09650
 C589 C 0.75729 0.08001 1.05434
 H590 H 0.76479 0.12463 1.10924
 H591 H 0.74585 0.01684 1.02356
 H592 H 0.74354 -0.01433 1.09608
 N593 N 0.25827 0.52502 0.49853
 N594 N 0.26561 0.50412 0.53365
 C595 C 0.26852 0.53459 0.56483
 C596 C 0.26214 0.57659 0.54885
 C597 C 0.25664 0.56944 0.50648
 H598 H 0.26480 0.60838 0.56506
 H599 H 0.25587 0.50870 0.46970
 H600 H 0.26966 0.46959 0.53569
 N601 N 0.28326 0.56776 0.40895
 N602 N 0.26870 0.55020 0.37367
 C603 C 0.22538 0.55425 0.37292
 C604 C 0.21195 0.57533 0.40931
 C605 C 0.24959 0.58402 0.43117
 H606 H 0.17934 0.58372 0.41859
 H607 H 0.31577 0.56824 0.41763
 H608 H 0.28834 0.53520 0.35105
 N609 N 0.80308 0.06040 0.96839
 N610 N 0.79394 0.04091 0.92968
 C611 C 0.75247 0.05123 0.91975
 C612 C 0.73477 0.07761 0.95187
 C613 C 0.76756 0.08359 0.98136
 H614 H 0.70235 0.09169 0.95358
 H615 H 0.83274 0.05721 0.98397
 H616 H 0.81586 0.02075 0.91302
 N617 N 0.71886 0.82230 0.57871
 N618 N 0.71338 0.83996 0.61608
 C619 C 0.71589 0.88451 0.61430
 C620 C 0.72317 0.89564 0.57336
 C621 C 0.72487 0.85489 0.55156
 H622 H 0.72776 0.92848 0.56156
 H623 H 0.71935 0.78808 0.57234
 H624 H 0.70739 0.82136 0.64212
 N625 N 0.21990 0.47472 0.00395
 N626 N 0.20071 0.49449 0.03589
 C627 C 0.19844 0.46509 0.06655
 C628 C 0.21766 0.42484 0.05360
 C629 C 0.23001 0.43197 0.01323
 H630 H 0.22109 0.39421 0.07049
 H631 H 0.22630 0.49090 -0.02341
 H632 H 0.19001 0.52782 0.03645
 N633 N -0.07150 0.27802 0.35326
 N634 N -0.10940 0.28839 0.36921
 C635 C -0.10638 0.28596 0.41081
 C636 C -0.06411 0.27366 0.42165
 C637 C -0.04275 0.26930 0.38406
 H638 H -0.05128 0.26717 0.45235
 H639 H -0.06571 0.27592 0.32148
 H640 H -0.13654 0.29734 0.35140
 N641 N 0.46793 0.74476 0.94755
 N642 N 0.43480 0.76089 0.96876
 C643 C 0.40603 0.77976 0.94239
 C644 C 0.42150 0.77524 0.90244
 C645 C 0.46117 0.75251 0.90676
 H646 H 0.40706 0.78960 0.87498
 H647 H 0.49563 0.73086 0.96156
 H648 H 0.43279 0.76002 1.00100
 N649 N 1.05200 0.73534 0.06565
 N650 N 1.08914 0.74592 0.04999
 C651 C 1.09832 0.78761 0.06284
 C652 C 1.06551 0.80386 0.08841
 C653 C 1.03609 0.77004 0.08866
 H654 H 1.06313 0.83606 0.10406
 H655 H 1.03716 0.70519 0.05947
 H656 H 1.10672 0.72522 0.02955
 N657 N 0.51277 0.30049 0.57409
 N658 N 0.54312 0.31987 0.55369
 C659 C 0.58179 0.30324 0.56647
 C660 C 0.57578 0.27181 0.59625
 C661 C 0.53135 0.27170 0.60102
 H662 H 0.60051 0.25324 0.61318
 H663 H 0.47984 0.30773 0.57031
 H664 H 0.53724 0.34434 0.53167
 N665 N 0.49200 0.18265 0.57992
 N666 N 0.45913 0.16321 0.56151
 C667 C 0.42225 0.18348 0.57453
 C668 C 0.43219 0.21744 0.60252
 C669 C 0.47702 0.21532 0.60578
 H670 H 0.40984 0.24006 0.61842
 H671 H 0.52426 0.17363 0.57477
 H672 H 0.46219 0.13683 0.53994
 N673 N 0.95606 0.77183 0.03805
 N674 N 0.92360 0.75381 0.01767
 C675 C 0.90544 0.72460 0.04233
 C676 C 0.92729 0.72422 0.08028
 C677 C 0.95953 0.75458 0.07628
 H678 H 0.91990 0.70538 0.10721
 H679 H 0.97556 0.79562 0.02575
 H680 H 0.91469 0.76110 -0.01284
 N681 N 0.51643 0.67028 0.90395
 N682 N 0.55034 0.64919 0.92014
 C683 C 0.58494 0.67429 0.91614
 C684 C 0.57261 0.71302 0.89593
 C685 C 0.52835 0.70961 0.88922
 H686 H 0.59244 0.74097 0.89002
 H687 H 0.48515 0.65879 0.90491
 H688 H 0.54933 0.61867 0.93485
 N689 N 0.03520 0.27327 0.44565
 N690 N 0.06873 0.26108 0.46914
 C691 C 0.08623 0.22270 0.45359
 C692 C 0.06182 0.20947 0.41933
 C693 C 0.02946 0.24237 0.41509
 H694 H 0.06901 0.18193 0.39803
 H695 H 0.01859 0.30398 0.44877
 H696 H 0.08117 0.28054 0.49348
 N697 N 0.56452 0.23860 0.68626
 N698 N 0.58496 0.20791 0.70836
 C699 C 0.57028 0.16747 0.69719
 C700 C 0.53875 0.17324 0.66644
 C701 C 0.53639 0.21895 0.66005
 H702 H 0.51984 0.14791 0.65124
 H703 H 0.56962 0.27272 0.68938
 H704 H 0.60839 0.21545 0.73070
 N705 N 1.01046 0.75498 0.18404
 N706 N 1.01967 0.72080 0.20783
 C707 C 1.01429 0.68276 0.18569
 C708 C 1.00009 0.69361 0.14594
 C709 C 0.99729 0.74011 0.14622
 H710 H 0.99614 0.67109 0.11957
 H711 H 1.01591 0.78790 0.19321
 H712 H 1.03122 0.72407 0.23828
 N713 N 0.97932 0.85399 0.10007
 N714 N 0.95900 0.88783 0.11902
 C715 C 0.94047 0.87331 0.15348
 C716 C 0.94935 0.82787 0.15594
 C717 C 0.97557 0.81697 0.12234
 H718 H 0.93797 0.80550 0.17872
 H719 H 0.99491 0.85650 0.07190
 H720 H 0.95820 0.92014 0.10788
 N721 N 0.45365 0.26164 0.68917
 N722 N 0.43685 0.29605 0.71016
 C723 C 0.45228 0.33389 0.69540
 C724 C 0.48010 0.32266 0.66336
 C725 C 0.47973 0.27641 0.66000
 H726 H 0.49838 0.34495 0.64535
 H727 H 0.44722 0.22844 0.69476
 H728 H 0.41444 0.29303 0.73350
 N729 N 0.44757 0.75358 0.80938
 N730 N 0.42876 0.72725 0.78160
 C731 C 0.44465 0.68533 0.78605
 C732 C 0.47501 0.68514 0.81771
 C733 C 0.47531 0.72897 0.83290
 H734 H 0.49100 0.65583 0.83026
 H735 H 0.44004 0.78757 0.81305
 H736 H 0.40414 0.73764 0.76123
 N737 N 0.01402 0.19547 0.31427
 N738 N -0.00268 0.15814 0.30018
 C739 C -0.03153 0.14479 0.32742
 C740 C -0.03242 0.17443 0.36098
 C741 C -0.00326 0.20665 0.35143
 H742 H -0.05351 0.17446 0.38729
 H743 H 0.03521 0.21352 0.29717
 H744 H 0.00373 0.14375 0.27105
 N745 N 0.06886 0.27436 0.33852
 N746 N 0.08069 0.30614 0.31414
 C747 C 0.04790 0.33625 0.31009
 C748 C 0.01365 0.32325 0.33333
 C749 C 0.02779 0.28276 0.35012
 H750 H -0.01735 0.34038 0.33635
 H751 H 0.08844 0.24668 0.34608
 H752 H 0.11097 0.30709 0.30075
 N753 N 0.53359 0.81191 0.90329
 N754 N 0.55328 0.84716 0.89084
 C755 C 0.55054 0.84844 0.84924
 C756 C 0.52788 0.81210 0.83438
 C757 C 0.51782 0.78940 0.86999
 H758 H 0.52191 0.80238 0.80235
 H759 H 0.53210 0.80284 0.93424
 H760 H 0.56906 0.86947 0.91069
 N761 N 0.68861 0.58518 0.23888
 N762 N 0.70570 0.60177 0.20314
 C763 C 0.70239 0.57032 0.17271
 C764 C 0.68344 0.53321 0.18862
 C765 C 0.67488 0.54385 0.23011
 H766 H 0.67519 0.50304 0.17180
 H767 H 0.68666 0.60268 0.26721
 H768 H 0.71964 0.63278 0.20210
 N769 N 0.09584 1.03365 0.68462
 N770 N 0.11024 1.04378 0.64802
 C771 C 0.15191 1.03063 0.64574
 C772 C 0.16457 1.01080 0.68270
 C773 C 0.12814 1.01436 0.70726
 H774 H 0.19556 0.99526 0.69019
 H775 H 0.06381 1.03904 0.69316
 H776 H 0.09168 1.06022 0.62544
 N777 N 0.19271 1.01757 0.77692
 N778 N 0.21596 1.01050 0.81393
 C779 C 0.19166 0.98665 0.83908
 C780 C 0.15293 0.97893 0.81884
 C781 C 0.15497 0.99715 0.77982
 H782 H 0.12663 0.95977 0.82930
 H783 H 0.20352 1.03605 0.75250
 H784 H 0.24691 1.02175 0.81972
 N785 N 0.72247 0.52612 0.30398
 N786 N 0.73779 0.51380 0.34050
 C787 C 0.70755 0.49146 0.35977
 C788 C 0.67119 0.48985 0.33439
 C789 C 0.68147 0.51272 0.29920
 H790 H 0.64218 0.47247 0.34004
 H791 H 0.74117 0.54140 0.28231
 H792 H 0.76937 0.51860 0.35075
 N793 N 0.91093 0.43851 0.70070
 N794 N 0.89502 0.42890 0.66355
 C795 C 0.85447 0.44576 0.66089
 C796 C 0.84411 0.46751 0.69797
 C797 C 0.88073 0.46149 0.72298
 H798 H 0.81460 0.48600 0.70527
 H799 H 0.94255 0.43034 0.70989
 H800 H 0.91173 0.41066 0.64062
 N801 N 0.31683 0.06886 0.18515
 N802 N 0.29785 0.05541 0.15034
 C803 C 0.30693 0.01156 0.14440
 C804 C 0.33301 -0.00342 0.17675
 C805 C 0.33907 0.03407 0.20185
 H806 H 0.34565 -0.03696 0.18155
 H807 H 0.31403 0.10129 0.19749
 H808 H 0.27821 0.07590 0.13175
 N809 N 0.28766 0.02986 0.27278
 N810 N 0.26918 0.03163 0.30936
 C811 C 0.29947 0.03868 0.33887
 C812 C 0.33909 0.04053 0.32023
 C813 C 0.33038 0.03589 0.27802
 H814 H 0.36998 0.04612 0.33511
 H815 H 0.27068 0.02528 0.24490
 H816 H 0.23604 0.03023 0.31360
 N817 N 0.81608 0.45952 0.79047
 N818 N 0.79302 0.46541 0.82440
 C819 C 0.81522 0.49021 0.85222
 C820 C 0.85393 0.50047 0.83514
 C821 C 0.85307 0.48148 0.79555
 H822 H 0.87885 0.52077 0.84870
 H823 H 0.80646 0.44019 0.76490
 H824 H 0.76267 0.45244 0.82825
 N825 N 0.19932 0.66855 0.45599
 N826 N 0.16365 0.68766 0.47069
 C827 C 0.15402 0.66805 0.50625
 C828 C 0.18479 0.63491 0.51427
 C829 C 0.21355 0.63631 0.48184
 H830 H 0.18505 0.61230 0.53976
 H831 H 0.21267 0.67683 0.42793
 H832 H 0.14663 0.71385 0.45645
 N833 N 0.72282 0.17493 0.98705
 N834 N 0.68712 0.19926 0.99315
 C835 C 0.66807 0.18544 1.02743
 C836 C 0.69302 0.15078 1.04377
 C837 C 0.72812 0.14504 1.01759
 H838 H 0.68617 0.13230 1.07101
 H839 H 0.74194 0.17783 0.96116
 H840 H 0.67567 0.22406 0.97327
 N841 N 0.83539 0.12508 1.05724
 N842 N 0.87198 0.14863 1.04905
 C843 C 0.86593 0.16796 1.01211
 C844 C 0.82476 0.15884 0.99727
 C845 C 0.80603 0.13204 1.02621
 H846 H 0.81129 0.16754 0.96745
 H847 H 0.83493 0.10213 1.08089
 H848 H 0.90044 0.14609 1.06661
 N849 N 0.32795 0.62765 0.50117
 N850 N 0.35804 0.65517 0.49125
 C851 C 0.34398 0.67933 0.45882
 C852 C 0.30276 0.66679 0.44798
 C853 C 0.29332 0.63394 0.47571
 H854 H 0.28370 0.67765 0.42160
 H855 H 0.33297 0.60349 0.52351
 H856 H 0.38872 0.65491 0.50494
 N857 N 0.70036 0.77114 0.49243
 N858 N 0.66595 0.75559 0.47340
 C859 C 0.64330 0.78970 0.45613
 C860 C 0.66479 0.82876 0.46464
 C861 C 0.70113 0.81563 0.48768
 H862 H 0.65515 0.86198 0.45547
 H863 H 0.72311 0.75110 0.50810
 H864 H 0.65899 0.72188 0.47235
 N865 N 0.24988 0.31723 -0.03664
 N866 N 0.22057 0.28661 -0.04088
 C867 C 0.18324 0.30262 -0.02465
 C868 C 0.18993 0.34528 -0.00864
 C869 C 0.23271 0.35343 -0.01670
 H870 H 0.16604 0.36907 0.00321
 H871 H 0.28023 0.31446 -0.05000
 H872 H 0.22580 0.25672 -0.05747
 N873 N 0.32623 0.43067 0.00219
 N874 N 0.36418 0.41773 0.01755
 C875 C 0.36320 0.37426 0.02662
 C876 C 0.32264 0.35900 0.01649
 C877 C 0.30019 0.39563 0.00016
 H878 H 0.31118 0.32591 0.02084
 H879 H 0.31824 0.46324 -0.00648
 H880 H 0.38977 0.43889 0.02268
 N881 N 0.79198 0.79106 0.47389
 N882 N 0.83008 0.77297 0.48349
 C883 C 0.84237 0.78877 0.52114
 C884 C 0.81081 0.81822 0.53602
 C885 C 0.77891 0.81833 0.50548
 H886 H 0.81055 0.83624 0.56547
 H887 H 0.77528 0.78471 0.44612
 H888 H 0.84726 0.75055 0.46424
   
