data_POSCAR
  _audit_creation_date              2014-09-24
  _audit_creation_method            'ToBaCCo'
  _symmetry_space_group_name_H-M    'P1'
  _symmetry_Int_Tables_number       1
  _symmetry_cell_setting            triclinic
  loop_
  _symmetry_equiv_pos_as_xyz
 x,y,z
_cell_length_a 36.3397
_cell_length_b 36.4802
_cell_length_c 46.4071
_cell_angle_alpha 90.095500
_cell_angle_beta 91.045900
_cell_angle_gamma 89.954900
loop_
  _atom_site_label
  _atom_site_type_symbol
  _atom_site_fract_x
  _atom_site_fract_y
  _atom_site_fract_z
C1 C 1.25597 0.25736 0.24929
 C2 C 0.75658 -0.24123 0.25201
 C3 C 0.74611 0.25672 -0.25010
 C4 C 1.24561 -0.24371 -0.25188
 C5 C 0.25327 0.24524 0.75186
 C6 C 0.75727 0.74084 0.74673
 C7 C 0.74453 0.24030 0.24782
 C8 C 0.24334 0.74139 0.25164
 O9 O 1.06242 0.02206 0.03777
 O10 O 0.93679 -0.01805 0.03288
 O11 O 0.98110 0.06417 0.03512
 O12 O 1.01878 -0.06165 0.03621
 O13 O 0.93078 0.04349 0.01770
 O14 O 1.07019 -0.03986 0.02315
 O15 O 0.95748 -0.06842 0.01728
 O16 O 1.04315 0.07207 0.02009
 C17 C 1.05852 0.05544 0.04037
 C18 C 0.94142 -0.05116 0.03651
 C19 C 0.94782 0.05894 0.03789
 C20 C 1.05189 -0.05691 0.04130
 O21 O 1.06556 -0.01809 -0.03339
 O22 O 0.93959 0.02151 -0.03840
 O23 O 1.02054 0.06419 -0.03568
 O24 O 0.98347 -0.06158 -0.03702
 O25 O 0.93207 -0.04035 -0.02345
 O26 O 1.07108 0.04363 -0.01845
 O27 O 1.04487 -0.06832 -0.01777
 O28 O 0.95847 0.07176 -0.02079
 Co29 Co 1.06096 0.00190 0.00205
 Co30 Co 0.94114 0.00166 -0.00261
 Co31 Co 1.00082 0.06148 -0.00030
 Co32 Co 1.00111 -0.05852 -0.00036
 O33 O 1.00102 0.00159 -0.00030
 C34 C 1.06092 -0.05121 -0.03701
 C35 C 0.94324 0.05491 -0.04106
 C36 C 1.05388 0.05924 -0.03847
 C37 C 0.95029 -0.05700 -0.04190
 O38 O 1.05561 0.53961 0.52884
 O39 O 0.92818 0.46159 0.51783
 O40 O 0.98962 0.54984 0.53730
 O41 O 1.04269 0.42515 0.52046
 O42 O 0.93588 0.52838 0.52442
 O43 O 1.05797 0.47632 0.53915
 O44 O 0.97522 0.42755 0.53216
 O45 O 1.03213 0.58787 0.50797
 C46 C 1.05787 0.57381 0.52422
 C47 C 0.94262 0.43824 0.53501
 C48 C 0.95643 0.54441 0.54279
 C49 C 1.05611 0.44263 0.54111
 O50 O 1.07274 0.46030 0.48221
 O51 O 0.94673 0.53332 0.46539
 O52 O 1.01571 0.55173 0.46201
 O53 O 0.95906 0.42195 0.47836
 O54 O 0.93981 0.47180 0.45985
 O55 O 1.06697 0.52542 0.47185
 O56 O 1.02568 0.42849 0.46594
 O57 O 0.96374 0.57726 0.49100
 Co58 Co 1.05791 0.49977 0.50476
 Co59 Co 0.94240 0.49858 0.49255
 Co60 Co 1.00383 0.54833 0.49976
 Co61 Co 1.00073 0.43219 0.49910
 O62 O 0.99944 0.49262 0.49822
 C63 C 1.05828 0.43883 0.46368
 C64 C 0.94387 0.56628 0.47089
 C65 C 1.04756 0.54410 0.45490
 C66 C 0.94264 0.43824 0.45856
 O67 O 0.56255 0.01640 0.53633
 O68 O 0.43639 -0.02069 0.53580
 O69 O 0.47946 0.05971 0.53601
 O70 O 0.52006 -0.06575 0.53486
 O71 O 0.42841 0.04054 0.51938
 O72 O 0.56999 -0.04498 0.51867
 O73 O 0.45753 -0.07160 0.52076
 O74 O 0.54075 0.06700 0.52113
 C75 C 0.55724 0.04938 0.54043
 C76 C 0.44157 -0.05369 0.53982
 C77 C 0.44614 0.05607 0.53911
 C78 C 0.55357 -0.06193 0.53783
 O79 O 0.56133 -0.01995 0.46415
 O80 O 0.43472 0.01637 0.46401
 O81 O 0.51730 0.06057 0.46488
 O82 O 0.47727 -0.06472 0.46401
 O83 O 0.42736 -0.04517 0.48106
 O84 O 0.56842 0.04119 0.48123
 O85 O 0.54001 -0.07111 0.47831
 O86 O 0.45596 0.06692 0.47980
 Co87 Co 0.55895 -0.00183 0.50015
 Co88 Co 0.43836 -0.00217 0.50000
 Co89 Co 0.49838 0.05731 0.50042
 Co90 Co 0.49869 -0.06197 0.49950
 O91 O 0.49862 -0.00220 0.50003
 C92 C 0.55635 -0.05290 0.45969
 C93 C 0.43995 0.04939 0.46019
 C94 C 0.55057 0.05667 0.46158
 C95 C 0.44365 -0.06145 0.46143
 O96 O 0.56479 0.52721 0.03654
 O97 O 0.43898 0.48852 0.03575
 O98 O 0.48163 0.57142 0.03577
 O99 O 0.52098 0.44583 0.03616
 O100 O 0.43115 0.54999 0.01942
 O101 O 0.57176 0.46557 0.02064
 O102 O 0.45929 0.43817 0.01970
 O103 O 0.54369 0.57787 0.02070
 C104 C 0.56039 0.56044 0.04004
 C105 C 0.44366 0.45536 0.03922
 C106 C 0.44840 0.56630 0.03903
 C107 C 0.55442 0.44949 0.03980
 O108 O 0.56389 0.48880 -0.03525
 O109 O 0.43759 0.52662 -0.03600
 O110 O 0.52052 0.57109 -0.03552
 O111 O 0.48203 0.44554 -0.03582
 O112 O 0.43122 0.46508 -0.02012
 O113 O 0.57111 0.55044 -0.01880
 O114 O 0.54388 0.43838 -0.01930
 O115 O 0.45837 0.57744 -0.02027
 Co116 Co 0.56140 0.50794 0.00069
 Co117 Co 0.44123 0.50755 -0.00016
 Co118 Co 0.50109 0.56804 0.00016
 Co119 Co 0.50152 0.44840 0.00019
 O120 O 0.50131 0.50802 0.00023
 C121 C 0.55946 0.45560 -0.03877
 C122 C 0.44186 0.55981 -0.03960
 C123 C 0.55382 0.56621 -0.03864
 C124 C 0.44857 0.44918 -0.03942
 C125 C 1.18845 0.19571 0.19145
 N126 N 1.21237 0.17855 0.20968
 N127 N 1.23319 0.19776 0.22813
 C128 C 1.23083 0.23495 0.22928
 N129 N 1.20690 0.25208 0.21086
 N130 N 1.18608 0.23285 0.19236
 C131 C 1.16648 0.17442 0.17048
 N132 N 1.14382 0.19148 0.15116
 N133 N 1.12495 0.17215 0.13150
 C134 C 1.12800 0.13506 0.13045
 N135 N 1.15047 0.11799 0.14989
 N136 N 1.16936 0.13732 0.16953
 C137 C 1.10848 0.11397 0.10793
 N138 N 1.11201 0.07694 0.10642
 N139 N 1.09559 0.05808 0.08518
 C140 C 1.07509 0.07561 0.06469
 N141 N 1.07134 0.11258 0.06635
 N142 N 1.08771 0.13141 0.08758
 C143 C 1.18830 0.70083 0.68110
 N144 N 1.17197 0.72870 0.69546
 N145 N 1.18921 0.74499 0.71759
 C146 C 1.22334 0.73386 0.72641
 N147 N 1.23965 0.70609 0.71179
 N148 N 1.22233 0.68965 0.68981
 C149 C 1.17018 0.68377 0.65594
 N150 N 1.18458 0.65311 0.64398
 N151 N 1.16841 0.63756 0.62108
 C152 C 1.13748 0.65232 0.60906
 N153 N 1.12316 0.68315 0.62087
 N154 N 1.13923 0.69860 0.64392
 C155 C 1.11878 0.63372 0.58485
 N156 N 1.09012 0.64970 0.57041
 N157 N 1.07163 0.63135 0.54990
 C158 C 1.08112 0.59638 0.54324
 N159 N 1.11000 0.58067 0.55745
 N160 N 1.12864 0.59906 0.57772
 C161 C 0.68304 0.18913 0.69337
 N162 N 0.66638 0.21581 0.70885
 N163 N 0.68589 0.23673 0.72708
 C164 C 0.72285 0.23185 0.73045
 N165 N 0.73943 0.20554 0.71446
 N166 N 0.71990 0.18439 0.69650
 C167 C 0.66198 0.16641 0.67283
 N168 N 0.67677 0.13505 0.66230
 N169 N 0.65844 0.11505 0.64277
 C170 C 0.62479 0.12586 0.63286
 N171 N 0.60994 0.15718 0.64344
 N172 N 0.62812 0.17700 0.66320
 C173 C 0.60576 0.10505 0.60999
 N174 N 0.57808 0.12069 0.59429
 N175 N 0.56232 0.10268 0.57235
 C176 C 0.57341 0.06827 0.56549
 N177 N 0.60073 0.05240 0.58144
 N178 N 0.61676 0.07056 0.60321
 C179 C 0.69347 0.69520 0.19265
 N180 N 0.68987 0.73216 0.19386
 N181 N 0.70959 0.75174 0.21276
 C182 C 0.73365 0.73520 0.23137
 N183 N 0.73744 0.69813 0.22999
 N184 N 0.71766 0.67850 0.21103
 C185 C 0.67197 0.67408 0.17129
 N186 N 0.67559 0.63712 0.16919
 N187 N 0.65653 0.61840 0.14924
 C188 C 0.63318 0.63600 0.13070
 N189 N 0.62949 0.67290 0.13292
 N190 N 0.64851 0.69157 0.15284
 C191 C 0.61308 0.61588 0.10796
 N192 N 0.59126 0.63418 0.08877
 N193 N 0.57405 0.61638 0.06740
 C194 C 0.57798 0.57959 0.06443
 N195 N 0.59957 0.56118 0.08374
 N196 N 0.61683 0.57901 0.10512
 C197 C 0.82284 -0.18081 0.19489
 N198 N 0.79684 -0.16355 0.21056
 N199 N 0.77663 -0.18218 0.22917
 C200 C 0.78178 -0.21878 0.23304
 N201 N 0.80796 -0.23594 0.21736
 N202 N 0.82812 -0.21732 0.19870
 C203 C 0.84335 -0.16076 0.17300
 N204 N 0.86669 -0.17872 0.15535
 N205 N 0.88376 -0.16089 0.13443
 C206 C 0.87813 -0.12445 0.13043
 N207 N 0.85504 -0.10642 0.14824
 N208 N 0.83792 -0.12426 0.16912
 C209 C 0.89559 -0.10516 0.10656
 N210 N 0.89033 -0.06862 0.10277
 N211 N 0.90516 -0.05134 0.08055
 C212 C 0.92565 -0.07002 0.06125
 N213 N 0.93105 -0.10652 0.06509
 N214 N 0.91629 -0.12378 0.08735
 C215 C 0.80592 0.32060 0.69056
 N216 N 0.82390 0.29775 0.70911
 N217 N 0.80541 0.27824 0.72830
 C218 C 0.76817 0.28088 0.72978
 N219 N 0.75029 0.30386 0.71118
 N220 N 0.76878 0.32340 0.69202
 C221 C 0.82616 0.34069 0.66844
 N222 N 0.80826 0.36335 0.64965
 N223 N 0.82650 0.38035 0.62888
 C224 C 0.86328 0.37523 0.62613
 N225 N 0.88115 0.35274 0.64502
 N226 N 0.86295 0.33580 0.66578
 C227 C 0.88355 0.39265 0.60268
 N228 N 0.91968 0.38482 0.59922
 N229 N 0.93824 0.39956 0.57769
 C230 C 0.92145 0.42276 0.55876
 N231 N 0.88529 0.43083 0.56223
 N232 N 0.86665 0.41596 0.58380
 C233 C 0.31277 -0.18070 0.69360
 N234 N 0.27749 -0.17062 0.69842
 N235 N 0.25667 -0.18998 0.71612
 C236 C 0.27055 -0.21973 0.73019
 N237 N 0.30586 -0.22992 0.72505
 N238 N 0.32658 -0.21076 0.70713
 C239 C 0.33486 -0.16042 0.67295
 N240 N 0.36593 -0.17533 0.66210
 N241 N 0.38480 -0.15768 0.64207
 C242 C 0.37342 -0.12437 0.63242
 N243 N 0.34262 -0.10929 0.64355
 N244 N 0.32358 -0.12707 0.66337
 C245 C 0.39286 -0.10561 0.60939
 N246 N 0.38481 -0.07020 0.60300
 N247 N 0.40094 -0.05351 0.58112
 C248 C 0.42544 -0.07175 0.56467
 N249 N 0.43368 -0.10713 0.57110
 N250 N 0.41774 -0.12375 0.59317
 C251 C 0.32140 0.31957 0.19267
 N252 N 0.29832 0.33668 0.21102
 N253 N 0.27821 0.31734 0.22928
 C254 C 0.28047 0.28012 0.22999
 N255 N 0.30366 0.26313 0.21157
 N256 N 0.32377 0.28246 0.19333
 C257 C 0.34229 0.34064 0.17156
 N258 N 0.36434 0.32319 0.15263
 N259 N 0.38208 0.34200 0.13262
 C260 C 0.37845 0.37896 0.13079
 N261 N 0.35660 0.39648 0.14986
 N262 N 0.33884 0.37765 0.16988
 C263 C 0.39669 0.39930 0.10781
 N264 N 0.39241 0.43615 0.10522
 N265 N 0.40778 0.45421 0.08359
 C266 C 0.42791 0.43602 0.06375
 N267 N 0.43238 0.39925 0.06647
 N268 N 0.41706 0.38122 0.08809
 C269 C 0.81349 0.19468 -0.19246
 N270 N 0.81619 0.23178 -0.19345
 N271 N 0.79546 0.25112 -0.21192
 C272 C 0.77126 0.23413 -0.23024
 N273 N 0.76858 0.19697 -0.22903
 N274 N 0.78932 0.17765 -0.21061
 C275 C 0.83535 0.17333 -0.17145
 N276 N 0.83219 0.13626 -0.17036
 N277 N 0.85099 0.11696 -0.15068
 C278 C 0.87364 0.13401 -0.13133
 N279 N 0.87695 0.17106 -0.13252
 N280 N 0.85818 0.19037 -0.15222
 C281 C 0.89313 0.11300 -0.10875
 N282 N 0.91398 0.13053 -0.08847
 N283 N 0.93037 0.11183 -0.06721
 C284 C 0.92659 0.07489 -0.06544
 N285 N 0.90600 0.05725 -0.08585
 N286 N 0.88955 0.07599 -0.10712
 C287 C 0.81401 0.70252 0.31857
 N288 N 0.78012 0.69130 0.30957
 N289 N 0.76271 0.70814 0.28785
 C290 C 0.77881 0.73636 0.27375
 N291 N 0.81275 0.74765 0.28294
 N292 N 0.83008 0.73097 0.30483
 C293 C 0.83239 0.68443 0.34315
 N294 N 0.86312 0.69893 0.35580
 N295 N 0.87948 0.68221 0.37816
 C296 C 0.86568 0.65038 0.38857
 N297 N 0.83497 0.63601 0.37591
 N298 N 0.81851 0.65281 0.35375
 C299 C 0.88459 0.63017 0.41184
 N300 N 0.87565 0.59464 0.41652
 N301 N 0.89399 0.57493 0.43609
 C302 C 0.92163 0.59008 0.45210
 N303 N 0.93031 0.62586 0.44788
 N304 N 0.91213 0.64557 0.42799
 C305 C 0.31798 0.18930 0.30600
 N306 N 0.33501 0.21579 0.29066
 N307 N 0.31584 0.23686 0.27236
 C308 C 0.27887 0.23232 0.26880
 N309 N 0.26192 0.20621 0.28466
 N310 N 0.28112 0.18492 0.30268
 C311 C 0.33862 0.16648 0.32663
 N312 N 0.32352 0.13520 0.33691
 N313 N 0.34140 0.11515 0.35661
 C314 C 0.37486 0.12585 0.36696
 N315 N 0.39004 0.15708 0.35663
 N316 N 0.37232 0.17695 0.33669
 C317 C 0.39328 0.10506 0.39006
 N318 N 0.42050 0.12070 0.40626
 N319 N 0.43565 0.10271 0.42843
 C320 C 0.42436 0.06833 0.43502
 N321 N 0.39751 0.05245 0.41858
 N322 N 0.38209 0.07060 0.39658
 C323 C 0.30918 0.69298 -0.19285
 N324 N 0.31266 0.72993 -0.19401
 N325 N 0.29279 0.74944 -0.21283
 C326 C 0.26872 0.73281 -0.23139
 N327 N 0.26508 0.69573 -0.23009
 N328 N 0.28500 0.67618 -0.21120
 C329 C 0.33075 0.67201 -0.17151
 N330 N 0.32717 0.63507 -0.16932
 N331 N 0.34623 0.61653 -0.14929
 C332 C 0.36952 0.63429 -0.13080
 N333 N 0.37319 0.67116 -0.13313
 N334 N 0.35418 0.68966 -0.15311
 C335 C 0.38952 0.61442 -0.10793
 N336 N 0.41119 0.63295 -0.08875
 N337 N 0.42827 0.61541 -0.06722
 C338 C 0.42436 0.57866 -0.06410
 N339 N 0.40294 0.56001 -0.08341
 N340 N 0.38579 0.57759 -0.10494
 C341 C 1.17947 -0.18284 -0.19473
 N342 N 1.20539 -0.16573 -0.21049
 N343 N 1.22559 -0.18453 -0.22906
 C344 C 1.22050 -0.22117 -0.23281
 N345 N 1.19442 -0.23820 -0.21701
 N346 N 1.17427 -0.21940 -0.19838
 C347 C 1.15894 -0.16252 -0.17295
 N348 N 1.13561 -0.18024 -0.15521
 N349 N 1.11851 -0.16211 -0.13440
 C350 C 1.12411 -0.12561 -0.13061
 N351 N 1.14719 -0.10784 -0.14852
 N352 N 1.16433 -0.12598 -0.16929
 C353 C 1.10666 -0.10600 -0.10685
 N354 N 1.11197 -0.06943 -0.10321
 N355 N 1.09716 -0.05188 -0.08105
 C356 C 1.07666 -0.07030 -0.06169
 N357 N 1.07120 -0.10682 -0.06539
 N358 N 1.08594 -0.12436 -0.08758
 C359 C 1.19618 0.32198 0.30831
 N360 N 1.17813 0.29957 0.28942
 N361 N 1.19664 0.27980 0.27034
 C362 C 1.23395 0.28173 0.26933
 N363 N 1.25189 0.30429 0.28826
 N364 N 1.23339 0.32407 0.30731
 C365 C 1.17589 0.34226 0.33032
 N366 N 1.19388 0.36402 0.34975
 N367 N 1.17553 0.38109 0.37048
 C368 C 1.13855 0.37693 0.37253
 N369 N 1.12060 0.35536 0.35299
 N370 N 1.13891 0.33836 0.33227
 C371 C 1.11810 0.39422 0.39596
 N372 N 1.08165 0.38741 0.39852
 N373 N 1.06287 0.40188 0.42007
 C374 C 1.07975 0.42377 0.43993
 N375 N 1.11624 0.43087 0.43736
 N376 N 1.13511 0.41626 0.41575
 C377 C 0.68873 -0.17840 0.30643
 N378 N 0.67521 -0.20854 0.29277
 N379 N 0.69615 -0.22762 0.27489
 C380 C 0.73142 -0.21726 0.26988
 N381 N 0.74502 -0.18742 0.28404
 N382 N 0.72398 -0.16815 0.30172
 C383 C 0.66633 -0.15829 0.32707
 N384 N 0.67739 -0.12502 0.33705
 N385 N 0.65796 -0.10741 0.35680
 C386 C 0.62697 -0.12259 0.36746
 N387 N 0.61583 -0.15581 0.35743
 N388 N 0.63509 -0.17329 0.33748
 C389 C 0.60697 -0.10403 0.39040
 N390 N 0.58169 -0.12233 0.40605
 N391 N 0.56513 -0.10595 0.42800
 C392 C 0.57313 -0.07064 0.43488
 N393 N 0.59805 -0.05223 0.41900
 N394 N 0.61480 -0.06868 0.39724
 C395 C 0.68168 0.31941 -0.19277
 N396 N 0.70474 0.33636 -0.21117
 N397 N 0.72452 0.31689 -0.22966
 C398 C 0.72193 0.27970 -0.23057
 N399 N 0.69876 0.26287 -0.21210
 N400 N 0.67899 0.28233 -0.19364
 C401 C 0.66107 0.34059 -0.17144
 N402 N 0.63903 0.32323 -0.15251
 N403 N 0.62144 0.34209 -0.13238
 C404 C 0.62521 0.37903 -0.13041
 N405 N 0.64706 0.39647 -0.14945
 N406 N 0.66468 0.37758 -0.16961
 C407 C 0.60695 0.39943 -0.10735
 N408 N 0.61113 0.43629 -0.10469
 N409 N 0.59563 0.45438 -0.08306
 C410 C 0.57545 0.43623 -0.06330
 N411 N 0.57110 0.39944 -0.06608
 N412 N 0.58655 0.38138 -0.08769
 C413 C 1.19055 0.17988 -0.19185
 N414 N 1.17347 0.20333 -0.21041
 N415 N 1.19295 0.22346 -0.22856
 C416 C 1.23028 0.22085 -0.22892
 N417 N 1.24725 0.19726 -0.21032
 N418 N 1.22777 0.17714 -0.19218
 C419 C 1.16937 0.15905 -0.17082
 N420 N 1.18682 0.13687 -0.15150
 N421 N 1.16789 0.11926 -0.13150
 C422 C 1.13083 0.12318 -0.13009
 N423 N 1.11331 0.14514 -0.14955
 N424 N 1.13225 0.16277 -0.16957
 C425 C 1.11038 0.10522 -0.10709
 N426 N 1.07343 0.10975 -0.10502
 N427 N 1.05524 0.09470 -0.08335
 C428 C 1.07341 0.07467 -0.06297
 N429 N 1.11029 0.06993 -0.06516
 N430 N 1.12845 0.08494 -0.08682
 C431 C 1.17962 0.67432 0.30415
 N432 N 1.21628 0.66836 0.30147
 N433 N 1.23633 0.68944 0.28436
 C434 C 1.22057 0.71721 0.26887
 N435 N 1.18383 0.72332 0.27204
 N436 N 1.16380 0.70228 0.28918
 C437 C 1.15776 0.65170 0.32377
 N438 N 1.12160 0.65908 0.32805
 N439 N 1.10231 0.63949 0.34674
 C440 C 1.11844 0.61169 0.36178
 N441 N 1.15449 0.60414 0.35728
 N442 N 1.17377 0.62373 0.33864
 C443 C 1.09819 0.59158 0.38397
 N444 N 1.11554 0.56532 0.39982
 N445 N 1.09864 0.54916 0.42161
 C446 C 1.06366 0.55847 0.42837
 N447 N 1.04598 0.58430 0.41222
 N448 N 1.06294 0.60054 0.39039
 C449 C 0.67889 0.17845 0.30437
 N450 N 0.70661 0.16215 0.28992
 N451 N 0.72645 0.18120 0.27130
 C452 C 0.71938 0.21731 0.26642
 N453 N 0.69187 0.23359 0.28126
 N454 N 0.67179 0.21446 0.29964
 C455 C 0.65819 0.15810 0.32593
 N456 N 0.62622 0.17177 0.33616
 N457 N 0.60824 0.15420 0.35671
 C458 C 0.62179 0.12255 0.36800
 N459 N 0.65372 0.10882 0.35774
 N460 N 0.67152 0.12621 0.33697
 C461 C 0.60288 0.10433 0.39165
 N462 N 0.62061 0.07897 0.40819
 N463 N 0.60391 0.06364 0.43047
 C464 C 0.56880 0.07292 0.43682
 N465 N 0.55094 0.09797 0.42009
 N466 N 0.56776 0.11356 0.39800
 C467 C 0.69241 0.68055 -0.19476
 N468 N 0.67618 0.70434 -0.21353
 N469 N 0.69624 0.72270 -0.23245
 C470 C 0.73334 0.71787 -0.23351
 N471 N 0.74944 0.69402 -0.21464
 N472 N 0.72939 0.67568 -0.19573
 C473 C 0.67068 0.66149 -0.17293
 N474 N 0.68749 0.63898 -0.15349
 N475 N 0.66824 0.62274 -0.13297
 C476 C 0.63142 0.62835 -0.13109
 N477 N 0.61452 0.65070 -0.15063
 N478 N 0.63380 0.66698 -0.17116
 C479 C 0.61067 0.61134 -0.10768
 N480 N 0.57384 0.61680 -0.10531
 N481 N 0.55551 0.60217 -0.08350
 C482 C 0.57338 0.58162 -0.06326
 N483 N 0.61011 0.57605 -0.06573
 N484 N 0.62840 0.59061 -0.08752
 C485 C 0.81872 -0.19172 -0.19540
 N486 N 0.83608 -0.21711 -0.21170
 N487 N 0.81707 -0.23803 -0.23024
 C488 C 0.77995 -0.23428 -0.23334
 N489 N 0.76269 -0.20891 -0.21686
 N490 N 0.78168 -0.18802 -0.19833
 C491 C 0.83934 -0.16940 -0.17422
 N492 N 0.82146 -0.14509 -0.15728
 N493 N 0.83978 -0.12569 -0.13737
 C494 C 0.87669 -0.12982 -0.13367
 N495 N 0.89465 -0.15396 -0.15074
 N496 N 0.87631 -0.17341 -0.17065
 C497 C 0.89642 -0.10951 -0.11078
 N498 N 0.93326 -0.11377 -0.10652
 N499 N 0.95067 -0.09652 -0.08490
 C500 C 0.93183 -0.07443 -0.06675
 N501 N 0.89508 -0.06997 -0.07117
 N502 N 0.87771 -0.08716 -0.09278
 C503 C 0.80986 0.30100 0.30747
 N504 N 0.81107 0.26385 0.30703
 N505 N 0.79078 0.24499 0.28801
 C506 C 0.76852 0.26252 0.26860
 N507 N 0.76730 0.29978 0.26917
 N508 N 0.78763 0.31864 0.28820
 C509 C 0.83149 0.32165 0.32893
 N510 N 0.83001 0.35881 0.32968
 N511 N 0.84891 0.37748 0.34970
 C512 C 0.86996 0.35964 0.36967
 N513 N 0.87157 0.32249 0.36884
 N514 N 0.85268 0.30383 0.34882
 C515 C 0.88980 0.38011 0.39227
 N516 N 0.90967 0.36220 0.41292
 N517 N 0.92681 0.38075 0.43394
 C518 C 0.92465 0.41786 0.43505
 N519 N 0.90494 0.43579 0.41432
 N520 N 0.88780 0.41724 0.39331
 C521 C 0.30377 -0.19735 0.31240
 N522 N 0.32095 -0.22196 0.29530
 N523 N 0.30193 -0.24142 0.27582
 C524 C 0.26487 -0.23692 0.27232
 N525 N 0.24775 -0.21254 0.28990
 N526 N 0.26679 -0.19312 0.30942
 C527 C 0.32484 -0.17588 0.33393
 N528 N 0.30749 -0.15248 0.35198
 N529 N 0.32657 -0.13331 0.37164
 C530 C 0.36373 -0.13673 0.37394
 N531 N 0.38109 -0.16005 0.35583
 N532 N 0.36201 -0.17927 0.33620
 C533 C 0.38470 -0.11614 0.39607
 N534 N 0.42193 -0.11901 0.39805
 N535 N 0.44080 -0.10116 0.41859
 C536 C 0.42312 -0.07979 0.43793
 N537 N 0.38592 -0.07676 0.43587
 N538 N 0.36707 -0.09456 0.41530
 C539 C 0.31439 0.31264 -0.19014
 N540 N 0.33208 0.28923 -0.20795
 N541 N 0.31312 0.26822 -0.22644
 C542 C 0.27574 0.26991 -0.22796
 N543 N 0.25818 0.29324 -0.20992
 N544 N 0.27711 0.31423 -0.19144
 C545 C 0.33504 0.33523 -0.16925
 N546 N 0.31697 0.35783 -0.15104
 N547 N 0.33546 0.37758 -0.13146
 C548 C 0.37271 0.37550 -0.12939
 N549 N 0.39082 0.35306 -0.14771
 N550 N 0.37231 0.33328 -0.16731
 C551 C 0.39278 0.39610 -0.10694
 N552 N 0.42996 0.39351 -0.10422
 N553 N 0.44789 0.41096 -0.08299
 C554 C 0.42926 0.43158 -0.06372
 N555 N 0.39214 0.43440 -0.06657
 N556 N 0.37423 0.41699 -0.08781
 C557 C 1.18240 -0.19313 0.19437
 N558 N 1.17412 -0.22906 0.19788
 N559 N 1.19328 -0.24966 0.21647
 C560 C 1.22108 -0.23507 0.23291
 N561 N 1.22959 -0.19905 0.22894
 N562 N 1.21063 -0.17853 0.21011
 C563 C 1.16172 -0.17085 0.17323
 N564 N 1.17508 -0.13817 0.16413
 N565 N 1.15688 -0.11873 0.14417
 C566 C 1.12447 -0.13106 0.13280
 N567 N 1.11096 -0.16355 0.14212
 N568 N 1.12932 -0.18314 0.16186
 C569 C 1.10497 -0.11040 0.11001
 N570 N 1.06980 -0.11908 0.10235
 N571 N 1.05259 -0.10145 0.08088
 C572 C 1.07004 -0.07470 0.06611
 N573 N 1.10517 -0.06591 0.07383
 N574 N 1.12226 -0.08332 0.09548
 C575 C 1.18660 0.30710 0.69393
 N576 N 1.18511 0.26996 0.69411
 N577 N 1.20583 0.25074 0.71259
 C578 C 1.22883 0.26789 0.73170
 N579 N 1.23032 0.30515 0.73139
 N580 N 1.20957 0.32438 0.71290
 C581 C 1.16458 0.32804 0.67287
 N582 N 1.16630 0.36521 0.67213
 N583 N 1.14723 0.38398 0.65227
 C584 C 1.12579 0.36622 0.63246
 N585 N 1.12392 0.32909 0.63335
 N586 N 1.14294 0.31035 0.65320
 C587 C 1.10618 0.38651 0.60964
 N588 N 1.08700 0.36815 0.58883
 N589 N 1.07059 0.38620 0.56726
 C590 C 1.07269 0.42327 0.56573
 N591 N 1.09158 0.44173 0.58668
 N592 N 1.10808 0.42364 0.60826
 C593 C 0.69434 -0.19704 0.68624
 N594 N 0.68670 -0.23293 0.69090
 N595 N 0.70639 -0.25229 0.71001
 C596 C 0.73408 -0.23638 0.72567
 N597 N 0.74192 -0.20050 0.72068
 N598 N 0.72246 -0.18124 0.70135
 C599 C 0.67277 -0.17583 0.66496
 N600 N 0.68535 -0.14322 0.65508
 N601 N 0.66604 -0.12431 0.63543
 C602 C 0.63325 -0.13713 0.62518
 N603 N 0.62056 -0.16961 0.63521
 N604 N 0.64004 -0.18868 0.65464
 C605 C 0.61219 -0.11666 0.60314
 N606 N 0.57644 -0.12511 0.59727
 N607 N 0.55757 -0.10720 0.57682
 C608 C 0.57386 -0.08041 0.56129
 N609 N 0.60959 -0.07192 0.56716
 N610 N 0.62836 -0.08959 0.58782
 C611 C 0.68563 0.30910 0.18958
 N612 N 0.66724 0.28577 0.20693
 N613 N 0.68550 0.26427 0.22544
 C614 C 0.72287 0.26535 0.22744
 N615 N 0.74115 0.28857 0.20984
 N616 N 0.72291 0.31005 0.19133
 C617 C 0.66568 0.33231 0.16876
 N618 N 0.68432 0.35475 0.15086
 N619 N 0.66636 0.37512 0.13141
 C620 C 0.62909 0.37385 0.12918
 N621 N 0.61042 0.35157 0.14719
 N622 N 0.62839 0.33117 0.16664
 C623 C 0.60947 0.39508 0.10690
 N624 N 0.57227 0.39315 0.10416
 N625 N 0.55463 0.41108 0.08307
 C626 C 0.57358 0.43155 0.06398
 N627 N 0.61074 0.43374 0.06686
 N628 N 0.62837 0.41584 0.08795
 C629 C 0.80860 0.17521 0.19211
 N630 N 0.82522 0.19851 0.21106
 N631 N 0.80529 0.21849 0.22907
 C632 C 0.76794 0.21587 0.22890
 N633 N 0.75143 0.19240 0.20991
 N634 N 0.77137 0.17243 0.19192
 C635 C 0.83028 0.15477 0.17112
 N636 N 0.81331 0.13270 0.15143
 N637 N 0.83267 0.11563 0.13135
 C638 C 0.86970 0.12001 0.13022
 N639 N 0.88675 0.14182 0.15007
 N640 N 0.86737 0.15891 0.17016
 C641 C 0.89053 0.10278 0.10706
 N642 N 0.92742 0.10792 0.10511
 N643 N 0.94589 0.09358 0.08325
 C644 C 0.92808 0.07371 0.06255
 N645 N 0.89128 0.06836 0.06463
 N646 N 0.87284 0.08265 0.08648
 C647 C 0.82415 0.67455 0.69360
 N648 N 0.83044 0.71106 0.69629
 N649 N 0.80953 0.73165 0.71316
 C650 C 0.78181 0.71652 0.72844
 N651 N 0.77539 0.67995 0.72551
 N652 N 0.79611 0.65939 0.70840
 C653 C 0.84657 0.65222 0.67417
 N654 N 0.83516 0.61839 0.66567
 N655 N 0.85456 0.59901 0.64687
 C656 C 0.88630 0.61255 0.63614
 N657 N 0.89795 0.64616 0.64495
 N658 N 0.87839 0.66568 0.66354
 C659 C 0.90625 0.59240 0.61381
 N660 N 0.94046 0.60302 0.60595
 N661 N 0.95724 0.58664 0.58409
 C662 C 0.94029 0.55920 0.56916
 N663 N 0.90626 0.54835 0.57721
 N664 N 0.88965 0.56448 0.59923
 C665 C 0.31722 0.18271 0.69426
 N666 N 0.32457 0.21872 0.69886
 N667 N 0.30494 0.23811 0.71745
 C668 C 0.27767 0.22210 0.73266
 N669 N 0.27030 0.18601 0.72787
 N670 N 0.28968 0.16671 0.70904
 C671 C 0.33771 0.16191 0.67274
 N672 N 0.32424 0.12986 0.66203
 N673 N 0.34205 0.11185 0.64152
 C674 C 0.37413 0.12506 0.63122
 N675 N 0.38778 0.15690 0.64215
 N676 N 0.36979 0.17511 0.66243
 C677 C 0.39321 0.10600 0.60798
 N678 N 0.42852 0.11465 0.60185
 N679 N 0.44554 0.09826 0.58015
 C680 C 0.42772 0.07295 0.56361
 N681 N 0.39241 0.06424 0.56974
 N682 N 0.37551 0.08036 0.59164
 C683 C 0.30814 0.68431 0.19296
 N684 N 0.31517 0.71988 0.19950
 N685 N 0.29473 0.73773 0.21848
 C686 C 0.26679 0.72063 0.23233
 N687 N 0.25953 0.68502 0.22529
 N688 N 0.27979 0.66725 0.20607
 C689 C 0.33032 0.66506 0.17143
 N690 N 0.31858 0.63295 0.15962
 N691 N 0.33815 0.61627 0.13940
 C692 C 0.37036 0.63086 0.13045
 N693 N 0.38226 0.66278 0.14246
 N694 N 0.36253 0.67963 0.16248
 C695 C 0.39132 0.61311 0.10744
 N696 N 0.42635 0.62364 0.10190
 N697 N 0.44486 0.60832 0.08044
 C698 C 0.42888 0.58215 0.06355
 N699 N 0.39390 0.57158 0.06913
 N700 N 0.37553 0.58665 0.09074
   
