data_POSCAR
  _audit_creation_date              2014-09-24
  _audit_creation_method            'ToBaCCo'
  _symmetry_space_group_name_H-M    'P1'
  _symmetry_Int_Tables_number       1
  _symmetry_cell_setting            triclinic
  loop_
  _symmetry_equiv_pos_as_xyz
 x,y,z
_cell_length_a 47.1814
_cell_length_b 47.1932
_cell_length_c 47.2415
_cell_angle_alpha 90.010700
_cell_angle_beta 90.015300
_cell_angle_gamma 90.011500
loop_
  _atom_site_label
  _atom_site_type_symbol
  _atom_site_fract_x
  _atom_site_fract_y
  _atom_site_fract_z
C1 C 0.18577 0.21241 0.22663
 C2 C 0.20416 0.18954 0.23111
 C3 C 0.22704 0.18503 0.21275
 C4 C 0.23152 0.20341 0.18990
 C5 C 0.21314 0.22628 0.18539
 C6 C 0.19027 0.23077 0.20376
 H7 H 0.20069 0.17532 0.24881
 H8 H 0.24922 0.19992 0.17568
 H9 H 0.17604 0.24848 0.20029
 C10 C 0.68554 0.71356 0.72687
 C11 C 0.70389 0.69063 0.73122
 C12 C 0.72673 0.68614 0.71281
 C13 C 0.73121 0.70461 0.69002
 C14 C 0.71287 0.72755 0.68564
 C15 C 0.69005 0.73201 0.70407
 H16 H 0.70042 0.67635 0.74887
 H17 H 0.74888 0.70114 0.67576
 H18 H 0.67585 0.74976 0.70069
 C19 C 0.31344 0.78741 0.72737
 C20 C 0.29501 0.81026 0.73177
 C21 C 0.27211 0.81468 0.71337
 C22 C 0.26769 0.79619 0.69056
 C23 C 0.28612 0.77333 0.68615
 C24 C 0.30898 0.76895 0.70456
 H25 H 0.29852 0.82452 0.74945
 H26 H 0.25000 0.79953 0.67626
 H27 H 0.32325 0.75126 0.70116
 C28 C 0.81491 0.28665 0.22720
 C29 C 0.79644 0.30949 0.23166
 C30 C 0.77356 0.31394 0.21328
 C31 C 0.76914 0.29555 0.19041
 C32 C 0.78757 0.27272 0.18591
 C33 C 0.81045 0.26827 0.20430
 H34 H 0.79981 0.32377 0.24935
 H35 H 0.75143 0.29899 0.17618
 H36 H 0.82469 0.25057 0.20076
 C37 C 0.81457 0.71336 0.27336
 C38 C 0.79620 0.69044 0.26900
 C39 C 0.77336 0.68596 0.28742
 C40 C 0.76890 0.70444 0.31021
 C41 C 0.78725 0.72737 0.31459
 C42 C 0.81009 0.73181 0.29616
 H43 H 0.79967 0.67615 0.25136
 H44 H 0.75122 0.70099 0.32446
 H45 H 0.82430 0.74956 0.29954
 C46 C 0.31518 0.21271 -0.22740
 C47 C 0.31065 0.23112 -0.20454
 C48 C 0.28774 0.22667 -0.18621
 C49 C 0.26933 0.20381 -0.19073
 C50 C 0.27382 0.18539 -0.21355
 C51 C 0.29674 0.18984 -0.23188
 H52 H 0.32487 0.24884 -0.20099
 H53 H 0.25159 0.20037 -0.17654
 H54 H 0.30016 0.17554 -0.24954
 C55 C 0.68511 0.28644 -0.22731
 C56 C 0.68964 0.26808 -0.20441
 C57 C 0.71255 0.27258 -0.18607
 C58 C 0.73094 0.29543 -0.19062
 C59 C 0.72646 0.31380 -0.21348
 C60 C 0.70355 0.30930 -0.23182
 H61 H 0.67543 0.25036 -0.20084
 H62 H 0.74868 0.29891 -0.17642
 H63 H 0.70012 0.32357 -0.24950
 C64 C 0.18617 0.78732 0.27308
 C65 C 0.20468 0.81012 0.26866
 C66 C 0.22752 0.81456 0.28713
 C67 C 0.23182 0.79614 0.31002
 C68 C 0.21331 0.77334 0.31444
 C69 C 0.19050 0.76895 0.29596
 H70 H 0.20127 0.82432 0.25092
 H71 H 0.24947 0.79949 0.32437
 H72 H 0.17617 0.75130 0.29938
 C73 C 0.46295 0.43561 0.47757
 C74 C 0.48134 0.44004 0.45471
 C75 C 0.47688 0.46286 0.43627
 C76 C 0.45399 0.48125 0.44070
 C77 C 0.43559 0.47684 0.46355
 C78 C 0.44008 0.45402 0.48198
 H79 H 0.49905 0.42580 0.45129
 H80 H 0.45052 0.49891 0.42643
 H81 H 0.42583 0.45060 0.49966
 C82 C -0.03726 -0.06351 0.97673
 C83 C -0.01891 -0.05908 0.95385
 C84 C -0.02339 -0.03628 0.93541
 C85 C -0.04625 -0.01786 0.93986
 C86 C -0.06465 -0.02225 0.96275
 C87 C -0.06013 -0.04509 0.98118
 H88 H -0.00122 -0.07334 0.95041
 H89 H -0.04967 -0.00021 0.92554
 H90 H -0.07431 -0.04857 0.99892
 C91 C 1.03684 0.56436 0.97674
 C92 C 1.01843 0.55987 0.95390
 C93 C 1.02284 0.53699 0.93553
 C94 C 1.04570 0.51858 0.94001
 C95 C 1.06413 0.52304 0.96284
 C96 C 1.05969 0.54593 0.98120
 H97 H 1.00073 0.57413 0.95044
 H98 H 1.04913 0.50087 0.92579
 H99 H 1.07395 0.54939 0.99888
 C100 C 0.53739 0.06393 0.47735
 C101 C 0.51897 0.05938 0.45454
 C102 C 0.52348 0.03656 0.43612
 C103 C 0.54644 0.01826 0.44052
 C104 C 0.56491 0.02277 0.46334
 C105 C 0.56035 0.04563 0.48175
 H106 H 0.50119 0.07355 0.45113
 H107 H 0.54988 0.00059 0.42622
 H108 H 0.57459 0.04921 0.49944
 C109 C -0.03754 0.06446 0.52278
 C110 C -0.01907 0.05991 0.54556
 C111 C -0.02350 0.03702 0.56392
 C112 C -0.04643 0.01867 0.55950
 C113 C -0.06494 0.02318 0.53671
 C114 C -0.06046 0.04610 0.51836
 H115 H -0.00133 0.07411 0.54898
 H116 H -0.04981 0.00096 0.57376
 H117 H -0.07472 0.04968 0.50070
 C118 C 0.46320 0.56459 0.02327
 C119 C 0.44036 0.54615 0.01876
 C120 C 0.43591 0.52323 0.03708
 C121 C 0.45431 0.51877 0.05993
 C122 C 0.47716 0.53720 0.06446
 C123 C 0.48159 0.56010 0.04612
 H124 H 0.42612 0.54962 0.00107
 H125 H 0.45088 0.50103 0.07411
 H126 H 0.49927 0.57437 0.04962
 C127 C 0.53700 -0.06492 0.02285
 C128 C 0.55989 -0.04648 0.01845
 C129 C 0.56444 -0.02372 0.03694
 C130 C 0.54610 -0.01937 0.05985
 C131 C 0.52322 -0.03777 0.06429
 C132 C 0.51867 -0.06054 0.04579
 H133 H 0.57413 -0.04979 0.00072
 H134 H 0.54961 -0.00175 0.07417
 H135 H 0.50093 -0.07475 0.04928
 C136 C 1.03716 0.43631 0.52245
 C137 C 1.01878 0.44071 0.54532
 C138 C 1.02323 0.46351 0.56378
 C139 C 1.04609 0.48195 0.55936
 C140 C 1.06452 0.47759 0.53648
 C141 C 1.06002 0.45474 0.51804
 H142 H 1.00109 0.42644 0.54874
 H143 H 1.04949 0.49960 0.57370
 H144 H 1.07422 0.45128 0.50030
 C145 C 0.41855 0.01231 0.21224
 H146 H 0.41967 0.03154 0.22466
 C147 C 0.43706 0.00832 0.18952
 H148 H 0.45243 0.02455 0.18431
 C149 C 0.39744 -0.03258 0.20404
 H150 H 0.38230 -0.04865 0.21001
 C151 C 0.41556 -0.03741 0.18115
 H152 H 0.41412 -0.05708 0.16941
 N153 N 0.39903 -0.00787 0.21884
 C154 C 0.33185 0.03726 0.26351
 H155 H 0.33071 0.02487 0.28275
 C156 C 0.31335 0.05999 0.25945
 H157 H 0.29796 0.06525 0.27563
 C158 C 0.35300 0.04534 0.21868
 H159 H 0.36814 0.03931 0.20265
 C160 C 0.33488 0.06823 0.21377
 H161 H 0.33633 0.07993 0.19409
 Zn162 Zn 0.37519 -0.00097 0.25034
 N163 N 0.35138 0.03058 0.24339
 C164 C 0.39738 0.03069 0.29664
 N165 N 0.39897 0.00596 0.28189
 C166 C 0.41847 -0.01421 0.28856
 C167 C 0.43697 -0.01017 0.31129
 C168 C 0.41549 0.03558 0.31952
 C169 C 0.33186 -0.03916 0.23704
 C170 C 0.31332 -0.06189 0.24104
 C171 C 0.33475 -0.07017 0.28676
 C172 C 0.35291 -0.04729 0.28191
 N173 N 0.35136 -0.03252 0.25721
 H174 H 0.38226 0.04677 0.29061
 H175 H 0.41959 -0.03347 0.27618
 H176 H 0.45234 -0.02639 0.31655
 H177 H 0.41407 0.05528 0.33121
 H178 H 0.33077 -0.02676 0.21781
 H179 H 0.29795 -0.06712 0.22482
 H180 H 0.33615 -0.08188 0.30644
 H181 H 0.36802 -0.04128 0.29799
 C182 C 0.31494 0.07565 0.23438
 C183 C 0.43548 -0.01674 0.17380
 C184 C 0.31484 -0.07756 0.26611
 C185 C 0.43541 0.01493 0.32694
 C186 C 0.08169 -0.01358 0.71137
 H187 H 0.08052 -0.03278 0.72383
 C188 C 0.06317 -0.00957 0.68866
 H189 H 0.04772 -0.02576 0.68349
 C190 C 0.10293 0.03122 0.70310
 H191 H 0.11811 0.04727 0.70905
 C192 C 0.08480 0.03608 0.68022
 H193 H 0.08627 0.05573 0.66846
 N194 N 0.10127 0.00655 0.71795
 C195 C 0.16823 -0.03855 0.76299
 H196 H 0.16936 -0.02606 0.78216
 C197 C 0.18670 -0.06134 0.75909
 H198 H 0.20206 -0.06653 0.77533
 C199 C 0.14715 -0.04684 0.71815
 H200 H 0.13205 -0.04087 0.70205
 C201 C 0.16524 -0.06979 0.71340
 H202 H 0.16380 -0.08159 0.69378
 Zn203 Zn 0.12504 -0.00029 0.74952
 N204 N 0.14875 -0.03195 0.74279
 C205 C 0.10265 -0.03162 0.79594
 N206 N 0.10116 -0.00697 0.78104
 C207 C 0.08171 0.01329 0.78755
 C208 C 0.06316 0.00945 0.81026
 C209 C 0.08449 -0.03632 0.81881
 C210 C 0.16851 0.03772 0.73617
 C211 C 0.18710 0.06041 0.74012
 C212 C 0.16560 0.06895 0.78576
 C213 C 0.14739 0.04610 0.78096
 N214 N 0.14895 0.03122 0.75632
 H215 H 0.11774 -0.04777 0.79004
 H216 H 0.08067 0.03248 0.77506
 H217 H 0.04782 0.02574 0.81539
 H218 H 0.08584 -0.05594 0.83062
 H219 H 0.16959 0.02523 0.71699
 H220 H 0.20251 0.06553 0.72392
 H221 H 0.16419 0.08075 0.80539
 H222 H 0.13223 0.04021 0.79702
 C223 C 0.18513 -0.07713 0.73409
 C224 C 0.06479 0.01546 0.67292
 C225 C 0.18557 0.07620 0.76512
 C226 C 0.06462 -0.01556 0.82606
 C227 C 0.58187 0.48657 0.21224
 H228 H 0.58072 0.46733 0.22463
 C229 C 0.56340 0.49060 0.18949
 H230 H 0.54802 0.47439 0.18423
 C231 C 0.60303 0.53145 0.20414
 H232 H 0.61816 0.54751 0.21017
 C233 C 0.58494 0.53632 0.18124
 H234 H 0.58641 0.55601 0.16953
 N235 N 0.60140 0.50673 0.21891
 C236 C 0.66847 0.46160 0.26377
 H237 H 0.66957 0.47401 0.28300
 C238 C 0.68697 0.43885 0.25977
 H239 H 0.70234 0.43362 0.27599
 C240 C 0.64739 0.45345 0.21890
 H241 H 0.63228 0.45946 0.20283
 C242 C 0.66552 0.43056 0.21405
 H243 H 0.66411 0.41884 0.19438
 Zn244 Zn 0.62517 0.49981 0.25047
 N245 N 0.64897 0.46824 0.24360
 C246 C 0.60288 0.46823 0.29675
 N247 N 0.60133 0.49294 0.28196
 C248 C 0.58182 0.51313 0.28858
 C249 C 0.56330 0.50914 0.31128
 C250 C 0.58474 0.46338 0.31961
 C251 C 0.66855 0.53796 0.23724
 C252 C 0.68707 0.56070 0.24125
 C253 C 0.66554 0.56908 0.28691
 C254 C 0.64741 0.54618 0.28205
 N255 N 0.64901 0.53135 0.25738
 H256 H 0.61800 0.45214 0.29076
 H257 H 0.58073 0.53237 0.27617
 H258 H 0.54793 0.52537 0.31650
 H259 H 0.58615 0.44370 0.33133
 H260 H 0.66968 0.52552 0.21804
 H261 H 0.70246 0.56591 0.22505
 H262 H 0.66409 0.58084 0.30655
 H263 H 0.63225 0.54020 0.29810
 C264 C 0.68543 0.42317 0.23471
 C265 C 0.56501 0.51568 0.17382
 C266 C 0.68548 0.57644 0.26628
 C267 C 0.56484 0.48406 0.32697
 C268 C 0.91811 0.51329 0.71152
 H269 H 0.91919 0.53249 0.72399
 C270 C 0.93666 0.50938 0.68882
 H271 H 0.95204 0.52563 0.68369
 C272 C 0.89705 0.46841 0.70317
 H273 H 0.88192 0.45230 0.70907
 C274 C 0.91522 0.46365 0.68031
 H275 H 0.91383 0.44400 0.66852
 N276 N 0.89860 0.49308 0.71804
 C277 C 0.83134 0.53799 0.76282
 H278 H 0.83020 0.52552 0.78200
 C279 C 0.81285 0.56075 0.75885
 H280 H 0.79745 0.56594 0.77505
 C281 C 0.85252 0.54627 0.71804
 H282 H 0.86767 0.54031 0.70199
 C283 C 0.83441 0.56918 0.71322
 H284 H 0.83587 0.58097 0.69359
 Zn285 Zn 0.87472 0.49986 0.74954
 N286 N 0.85089 0.53141 0.74268
 C287 C 0.89686 0.53141 0.79594
 N288 N 0.89849 0.50672 0.78111
 C289 C 0.91802 0.48656 0.78773
 C290 C 0.93649 0.49055 0.81049
 C291 C 0.91495 0.53626 0.81885
 C292 C 0.83145 0.46162 0.73612
 C293 C 0.81295 0.43886 0.74008
 C294 C 0.83437 0.43053 0.78580
 C295 C 0.85249 0.45345 0.78100
 N296 N 0.85093 0.46826 0.75632
 H297 H 0.88172 0.54749 0.78995
 H298 H 0.91916 0.46735 0.77529
 H299 H 0.95188 0.47434 0.81570
 H300 H 0.91349 0.55592 0.83060
 H301 H 0.83036 0.47406 0.71692
 H302 H 0.79759 0.43364 0.72384
 H303 H 0.83578 0.41879 0.80545
 H304 H 0.86759 0.45945 0.79709
 C305 C 0.81446 0.57652 0.73385
 C306 C 0.93514 0.48435 0.67305
 C307 C 0.81448 0.42315 0.76512
 C308 C 0.93489 0.51561 0.82621
 C309 C 0.21189 0.41793 0.01308
 H310 H 0.22432 0.41902 0.03229
 C311 C 0.18914 0.43644 0.00912
 H312 H 0.18392 0.45179 0.02535
 C313 C 0.20370 0.39691 -0.03181
 H314 H 0.20970 0.38182 -0.04790
 C315 C 0.18080 0.41504 -0.03662
 H316 H 0.16905 0.41365 -0.05628
 N317 N 0.21852 0.39846 -0.00712
 C318 C 0.26350 0.33133 0.03777
 H319 H 0.28274 0.33027 0.02536
 C320 C 0.25953 0.31278 0.06046
 H321 H 0.27578 0.29743 0.06566
 C322 C 0.21856 0.35233 0.04597
 H323 H 0.20245 0.36743 0.04000
 C324 C 0.21374 0.33416 0.06881
 H325 H 0.19406 0.33554 0.08054
 Zn326 Zn 0.25012 0.37469 -0.00030
 N327 N 0.24328 0.35081 0.03118
 C328 C 0.29648 0.39694 0.03130
 N329 N 0.28165 0.39854 0.00662
 C330 C 0.28822 0.41811 -0.01349
 C331 C 0.31094 0.43665 -0.00947
 C332 C 0.31935 0.41510 0.03617
 C333 C 0.23690 0.33142 -0.03856
 C334 C 0.24095 0.31296 -0.06131
 C335 C 0.28668 0.33453 -0.06953
 C336 C 0.28177 0.35261 -0.04663
 N337 N 0.25704 0.35096 -0.03187
 H338 H 0.29052 0.38177 0.04733
 H339 H 0.27578 0.41923 -0.03270
 H340 H 0.31612 0.45207 -0.02565
 H341 H 0.33111 0.41366 0.05582
 H342 H 0.21765 0.33026 -0.02617
 H343 H 0.22475 0.29756 -0.06657
 H344 H 0.30637 0.33600 -0.08122
 H345 H 0.29783 0.36775 -0.04059
 C346 C 0.23445 0.31428 0.07615
 C347 C 0.17342 0.43492 -0.01594
 C348 C 0.26605 0.31459 -0.07696
 C349 C 0.32668 0.43507 0.01556
 C350 C 0.71226 0.08128 -0.01334
 H351 H 0.72466 0.08019 -0.03257
 C352 C 0.68953 0.06275 -0.00933
 H353 H 0.68430 0.04737 -0.02554
 C354 C 0.70411 0.10237 0.03151
 H355 H 0.71011 0.11750 0.04757
 C356 C 0.68123 0.08422 0.03637
 H357 H 0.66951 0.08563 0.05604
 N358 N 0.71889 0.10081 0.00680
 C359 C 0.76349 0.16803 -0.03833
 H360 H 0.78277 0.16920 -0.02597
 C361 C 0.75939 0.18650 -0.06105
 H362 H 0.77557 0.20191 -0.06633
 C363 C 0.71861 0.14683 -0.04636
 H364 H 0.70258 0.13167 -0.04032
 C365 C 0.71366 0.16491 -0.06924
 H366 H 0.69395 0.16343 -0.08091
 Zn367 Zn 0.75039 0.12469 -0.00013
 N368 N 0.74337 0.14848 -0.03164
 C369 C 0.79674 0.10257 -0.03179
 N370 N 0.78199 0.10095 -0.00707
 C371 C 0.78871 0.08146 0.01306
 C372 C 0.81149 0.06300 0.00901
 C373 C 0.81967 0.08450 -0.03669
 C374 C 0.73709 0.16797 0.03808
 C375 C 0.74109 0.18645 0.06083
 C376 C 0.78691 0.16507 0.06904
 C377 C 0.78205 0.14697 0.04614
 N378 N 0.75730 0.14851 0.03140
 H379 H 0.79068 0.11769 -0.04784
 H380 H 0.77633 0.08031 0.03230
 H381 H 0.81678 0.04764 0.02521
 H382 H 0.83136 0.08596 -0.05637
 H383 H 0.71782 0.16904 0.02571
 H384 H 0.72484 0.20178 0.06610
 H385 H 0.80661 0.16368 0.08073
 H386 H 0.79815 0.13189 0.04011
 C387 C 0.73427 0.18487 -0.07668
 C388 C 0.67384 0.06429 0.01573
 C389 C 0.76621 0.18493 0.07647
 C390 C 0.82714 0.06460 -0.01606
 C391 C 0.21121 0.58165 0.48684
 H392 H 0.22369 0.58056 0.46767
 C393 C 0.18844 0.56314 0.49074
 H394 H 0.18327 0.54778 0.47449
 C395 C 0.20290 0.60268 0.53169
 H396 H 0.20885 0.61779 0.54780
 C397 C 0.17998 0.58455 0.53643
 H398 H 0.16818 0.58595 0.55606
 N399 N 0.21778 0.60113 0.50705
 C400 C 0.26285 0.66831 0.46230
 H401 H 0.28203 0.66940 0.47481
 C402 C 0.25896 0.68684 0.43959
 H403 H 0.27522 0.70222 0.43447
 C404 C 0.21798 0.64723 0.45389
 H405 H 0.20186 0.63210 0.45978
 C406 C 0.21324 0.66538 0.43102
 H407 H 0.19361 0.66397 0.41919
 Zn408 Zn 0.24939 0.62494 0.50032
 N409 N 0.24263 0.64879 0.46880
 C410 C 0.29584 0.60276 0.46888
 N411 N 0.28097 0.60114 0.49353
 C412 C 0.28756 0.58162 0.51368
 C413 C 0.31032 0.56313 0.50973
 C414 C 0.31876 0.58465 0.46408
 C415 C 0.23597 0.66822 0.53848
 C416 C 0.23992 0.68673 0.56121
 C417 C 0.28564 0.66526 0.56966
 C418 C 0.28085 0.64713 0.54677
 N419 N 0.25617 0.64872 0.53190
 H420 H 0.28988 0.61789 0.45282
 H421 H 0.27508 0.58048 0.53286
 H422 H 0.31551 0.54774 0.52593
 H423 H 0.33055 0.58610 0.44446
 H424 H 0.21677 0.66934 0.52601
 H425 H 0.22368 0.70210 0.56639
 H426 H 0.30530 0.66383 0.58144
 H427 H 0.29695 0.63202 0.54082
 C428 C 0.23395 0.68530 0.42377
 C429 C 0.17266 0.56467 0.51574
 C430 C 0.26496 0.68517 0.57697
 C431 C 0.32610 0.56472 0.48472
 C432 C 0.71187 0.91932 0.51333
 H433 H 0.72431 0.92047 0.53255
 C434 C 0.68909 0.93779 0.50933
 H435 H 0.68385 0.95316 0.52554
 C436 C 0.70371 0.89818 0.46850
 H437 H 0.70972 0.88306 0.45245
 C438 C 0.68077 0.91626 0.46366
 H439 H 0.66902 0.91480 0.44400
 N440 N 0.71852 0.89981 0.49319
 C441 C 0.76344 0.83274 0.53823
 H442 H 0.78268 0.83164 0.52583
 C443 C 0.75943 0.81422 0.56094
 H444 H 0.77566 0.79884 0.56615
 C445 C 0.71852 0.85380 0.54639
 H446 H 0.70243 0.86892 0.54040
 C447 C 0.71367 0.83566 0.56925
 H448 H 0.69398 0.83707 0.58096
 Zn449 Zn 0.75011 0.87603 0.50007
 N450 N 0.74325 0.85224 0.53161
 C451 C 0.79649 0.89830 0.53161
 N452 N 0.78167 0.89986 0.50693
 C453 C 0.78829 0.91936 0.48676
 C454 C 0.81104 0.93787 0.49073
 C455 C 0.81940 0.91643 0.53643
 C456 C 0.73681 0.83266 0.46198
 C457 C 0.74081 0.81411 0.43929
 C458 C 0.78654 0.83561 0.43092
 C459 C 0.78169 0.85377 0.45377
 N460 N 0.75698 0.85220 0.46857
 H461 H 0.79051 0.88319 0.54768
 H462 H 0.77585 0.92045 0.46755
 H463 H 0.81625 0.95323 0.47451
 H464 H 0.83116 0.91502 0.55609
 H465 H 0.71758 0.83155 0.47440
 H466 H 0.72459 0.79871 0.43411
 H467 H 0.80622 0.83703 0.41919
 H468 H 0.79777 0.86892 0.45973
 C469 C 0.73434 0.81575 0.57661
 C470 C 0.67337 0.93618 0.48429
 C471 C 0.76588 0.81566 0.42360
 C472 C 0.82677 0.93633 0.51577
 C473 C 0.01293 0.21219 0.41788
 H474 H 0.03218 0.22461 0.41897
 C475 C 0.00891 0.18950 0.43642
 H476 H 0.02513 0.18431 0.45180
 C477 C -0.03196 0.20397 0.39678
 H478 H -0.04803 0.20992 0.38164
 C479 C -0.03683 0.18112 0.41494
 H480 H -0.05651 0.16938 0.41352
 N481 N -0.00723 0.21877 0.39835
 C482 C 0.03795 0.26333 0.33118
 H483 H 0.02556 0.28258 0.32999
 C484 C 0.06071 0.25922 0.31273
 H485 H 0.06597 0.27539 0.29732
 C486 C 0.04603 0.21850 0.35241
 H487 H 0.03999 0.20248 0.36756
 C488 C 0.06894 0.21355 0.33434
 H489 H 0.08064 0.19385 0.33584
 Zn490 Zn -0.00030 0.25024 0.37446
 N491 N 0.03127 0.24323 0.35073
 C492 C 0.03136 0.29663 0.39655
 N493 N 0.00661 0.28187 0.39814
 C494 C -0.01357 0.28859 0.41760
 C495 C -0.00952 0.31137 0.43605
 C496 C 0.03626 0.31956 0.41461
 C497 C -0.03847 0.23680 0.33120
 C498 C -0.06121 0.24073 0.31268
 C499 C -0.06956 0.28654 0.33399
 C500 C -0.04666 0.28176 0.35212
 N501 N -0.03185 0.25705 0.35063
 H502 H 0.04744 0.29056 0.38147
 H503 H -0.03283 0.27621 0.41873
 H504 H -0.02575 0.31665 0.45139
 H505 H 0.05597 0.33125 0.41318
 H506 H -0.02604 0.21757 0.33016
 H507 H -0.06643 0.22445 0.29738
 H508 H -0.08131 0.30622 0.33535
 H509 H -0.04068 0.29789 0.36719
 C510 C 0.07637 0.23413 0.31439
 C511 C -0.01617 0.17379 0.43487
 C512 C -0.07693 0.26580 0.31416
 C513 C 0.01560 0.32702 0.43448
 C514 C -0.01325 0.71237 0.08149
 H515 H -0.03248 0.72481 0.08042
 C516 C -0.00932 0.68961 0.06300
 H517 H -0.02559 0.68440 0.04768
 C518 C 0.03168 0.70414 0.10249
 H519 H 0.04780 0.71012 0.11757
 C520 C 0.03646 0.68123 0.08438
 H521 H 0.05612 0.66947 0.08578
 N522 N 0.00698 0.71898 0.10095
 C523 C -0.03791 0.76382 0.16813
 H524 H -0.02547 0.78305 0.16923
 C525 C -0.06060 0.75981 0.18668
 H526 H -0.06577 0.77603 0.20207
 C527 C -0.04618 0.71895 0.14704
 H528 H -0.04023 0.70288 0.13190
 C529 C -0.06903 0.71409 0.16521
 H530 H -0.08078 0.69442 0.16380
 Zn531 Zn 0.00017 0.75053 0.12477
 N532 N -0.03135 0.74366 0.14861
 C533 C -0.03144 0.79691 0.10267
 N534 N -0.00673 0.78211 0.10103
 C535 C 0.01342 0.78876 0.08152
 C536 C 0.00938 0.81152 0.06306
 C537 C -0.03633 0.81982 0.08459
 C538 C 0.03840 0.73716 0.16799
 C539 C 0.06116 0.74112 0.18648
 C540 C 0.06955 0.78687 0.16506
 C541 C 0.04663 0.78205 0.14695
 N542 N 0.03179 0.75736 0.14851
 H543 H -0.04750 0.79090 0.11779
 H544 H 0.03265 0.77634 0.08037
 H545 H 0.02558 0.81675 0.04768
 H546 H -0.05601 0.83155 0.08605
 H547 H 0.02594 0.71794 0.16908
 H548 H 0.06636 0.72488 0.20182
 H549 H 0.08131 0.80653 0.16365
 H550 H 0.04065 0.79815 0.13185
 C551 C -0.07633 0.73475 0.18514
 C552 C 0.01573 0.67387 0.06453
 C553 C 0.07690 0.76618 0.18494
 C554 C -0.01570 0.82722 0.06467
 C555 C 0.48680 0.21157 0.58240
 H556 H 0.46757 0.22400 0.58130
 C557 C 0.49080 0.18885 0.56387
 H558 H 0.47457 0.18366 0.54849
 C559 C 0.53169 0.20335 0.60348
 H560 H 0.54777 0.20931 0.61861
 C561 C 0.53654 0.18048 0.58534
 H562 H 0.55621 0.16873 0.58675
 N563 N 0.50698 0.21816 0.60191
 C564 C 0.46190 0.26294 0.66902
 H565 H 0.47433 0.28218 0.67016
 C566 C 0.43915 0.25892 0.68749
 H567 H 0.43393 0.27513 0.70287
 C568 C 0.45373 0.21808 0.64788
 H569 H 0.45972 0.20202 0.63275
 C570 C 0.43082 0.21321 0.66596
 H571 H 0.41908 0.19353 0.66450
 Zn572 Zn 0.50011 0.24969 0.62574
 N573 N 0.46854 0.24279 0.64950
 C574 C 0.46853 0.29608 0.60357
 N575 N 0.49325 0.28128 0.60199
 C576 C 0.51343 0.28792 0.58250
 C577 C 0.50942 0.31066 0.56402
 C578 C 0.46368 0.31898 0.58548
 C579 C 0.53830 0.23634 0.66901
 C580 C 0.56107 0.24031 0.68749
 C581 C 0.56943 0.28606 0.66609
 C582 C 0.54651 0.28124 0.64798
 N583 N 0.53168 0.25654 0.64954
 H584 H 0.45245 0.29008 0.61868
 H585 H 0.53266 0.27549 0.58139
 H586 H 0.52565 0.31589 0.54867
 H587 H 0.44400 0.33072 0.58690
 H588 H 0.52586 0.21711 0.67010
 H589 H 0.56628 0.22406 0.70283
 H590 H 0.58119 0.30573 0.66468
 H591 H 0.54052 0.29734 0.63289
 C592 C 0.42344 0.23384 0.68588
 C593 C 0.51587 0.17314 0.56542
 C594 C 0.57680 0.26537 0.68596
 C595 C 0.48434 0.32636 0.56558
 C596 C 0.51322 0.71260 0.91852
 H597 H 0.53244 0.72507 0.91960
 C598 C 0.50930 0.68985 0.93701
 H599 H 0.52556 0.68467 0.95235
 C600 C 0.46830 0.70432 0.89751
 H601 H 0.45218 0.71028 0.88242
 C602 C 0.46353 0.68142 0.91562
 H603 H 0.44387 0.66964 0.91422
 N604 N 0.49299 0.71918 0.89905
 C605 C 0.53791 0.76408 0.83193
 H606 H 0.52547 0.78331 0.83084
 C607 C 0.56062 0.76009 0.81340
 H608 H 0.56581 0.77631 0.79803
 C609 C 0.54613 0.71920 0.85298
 H610 H 0.54017 0.70312 0.86810
 C611 C 0.56900 0.71436 0.83484
 H612 H 0.58075 0.69468 0.83625
 Zn613 Zn 0.49978 0.75075 0.87526
 N614 N 0.53131 0.74390 0.85143
 C615 C 0.53137 0.79715 0.89744
 N616 N 0.50667 0.78232 0.89904
 C617 C 0.48652 0.78890 0.91857
 C618 C 0.49054 0.81162 0.93709
 C619 C 0.53625 0.82002 0.91558
 C620 C 0.46153 0.73737 0.83204
 C621 C 0.43874 0.74132 0.81359
 C622 C 0.43035 0.78704 0.83507
 C623 C 0.45330 0.78224 0.85313
 N624 N 0.46816 0.75757 0.85152
 H625 H 0.54743 0.79119 0.88229
 H626 H 0.46729 0.77646 0.91969
 H627 H 0.47434 0.81679 0.95250
 H628 H 0.55592 0.83177 0.91414
 H629 H 0.47400 0.71817 0.83091
 H630 H 0.43352 0.72508 0.79824
 H631 H 0.41857 0.80669 0.83651
 H632 H 0.45929 0.79834 0.86824
 C633 C 0.57634 0.73502 0.81494
 C634 C 0.48425 0.67409 0.93548
 C635 C 0.42298 0.76636 0.81518
 C636 C 0.51561 0.82734 0.93553
 C637 C 0.16228 0.21705 0.24550
 C638 C 0.14260 0.22094 0.26129
 C639 C 0.11955 0.22551 0.27977
 C640 C 0.09987 0.22943 0.29555
 C641 C 0.66209 0.71816 0.74579
 C642 C 0.64244 0.72202 0.76163
 C643 C 0.61944 0.72656 0.78018
 C644 C 0.59979 0.73042 0.79602
 C645 C 0.33695 0.78289 0.74626
 C646 C 0.35665 0.77910 0.76207
 C647 C 0.37972 0.77467 0.78056
 C648 C 0.39943 0.77088 0.79635
 C649 C -0.16284 0.28233 0.24508
 C650 C -0.14316 0.27852 0.26090
 C651 C -0.12012 0.27408 0.27944
 C652 C -0.10044 0.27030 0.29527
 C653 C -0.16198 0.71795 0.25443
 C654 C -0.14235 0.72179 0.23856
 C655 C -0.11938 0.72630 0.21997
 C656 C -0.09976 0.73014 0.20409
 C657 C 0.33747 0.21703 0.75478
 C658 C 0.35718 0.22086 0.73900
 C659 C 0.38024 0.22537 0.72053
 C660 C 0.39994 0.22922 0.70474
 C661 C 0.66282 0.28207 0.75486
 C662 C 0.64311 0.27822 0.73908
 C663 C 0.62003 0.27374 0.72060
 C664 C 0.60033 0.26992 0.70482
 C665 C 0.16272 0.78279 0.25411
 C666 C 0.14307 0.77899 0.23825
 C667 C 0.12005 0.77454 0.21968
 C668 C 0.10039 0.77074 0.20384
 C669 C 0.24593 0.16153 0.21737
 C670 C 0.26174 0.14185 0.22125
 C671 C 0.28025 0.11881 0.22581
 C672 C 0.29606 0.09913 0.22972
 C673 C 0.74557 0.66258 0.71730
 C674 C 0.76135 0.64286 0.72107
 C675 C 0.77982 0.61976 0.72550
 C676 C 0.79560 0.60005 0.72930
 C677 C 0.74537 0.33728 0.78189
 C678 C 0.76120 0.35695 0.77802
 C679 C 0.77974 0.37998 0.77351
 C680 C 0.79558 0.39966 0.76968
 C681 C 0.24552 -0.16327 0.28284
 C682 C 0.26142 -0.14364 0.27902
 C683 C 0.28003 -0.12066 0.27454
 C684 C 0.29590 -0.10102 0.27070
 C685 C 0.25419 -0.16308 0.71763
 C686 C 0.23835 -0.14340 0.72140
 C687 C 0.21982 -0.12035 0.72582
 C688 C 0.20400 -0.10066 0.72959
 C689 C 0.75461 0.33739 0.21787
 C690 C 0.73874 0.35703 0.22172
 C691 C 0.72018 0.38003 0.22625
 C692 C 0.70433 0.39969 0.23011
 C693 C 0.75449 0.66242 0.28291
 C694 C 0.73868 0.64272 0.27912
 C695 C 0.72017 0.61965 0.27467
 C696 C 0.70436 0.59995 0.27086
 C697 C 0.25488 0.16192 0.78183
 C698 C 0.23902 0.14228 0.77798
 C699 C 0.22043 0.11928 0.77349
 C700 C 0.20454 0.09964 0.76967
 C701 C 0.21775 0.24516 0.16191
 C702 C 0.22159 0.26098 0.14225
 C703 C 0.22607 0.27951 0.11924
 C704 C 0.22989 0.29535 0.09960
 C705 C 0.71748 0.74650 0.66222
 C706 C 0.72134 0.76238 0.64262
 C707 C 0.72587 0.78097 0.61966
 C708 C 0.72974 0.79683 0.60004
 C709 C 0.78264 0.74634 0.33799
 C710 C 0.77880 0.76224 0.35759
 C711 C 0.77431 0.78084 0.38055
 C712 C 0.77047 0.79672 0.40017
 C713 C 0.28309 0.24558 -0.16276
 C714 C 0.27919 0.26141 -0.14311
 C715 C 0.27461 0.27992 -0.12011
 C716 C 0.27070 0.29573 -0.10044
 C717 C 0.71719 0.25373 -0.16257
 C718 C 0.72108 0.23795 -0.14289
 C719 C 0.72565 0.21948 -0.11985
 C720 C 0.72958 0.20371 -0.10017
 C721 C 0.21772 0.75444 0.33794
 C722 C 0.22142 0.73860 0.35761
 C723 C 0.22576 0.72005 0.38063
 C724 C 0.22949 0.70421 0.40030
 C725 C 0.28156 0.75437 0.66272
 C726 C 0.27776 0.73849 0.64309
 C727 C 0.27330 0.71993 0.62010
 C728 C 0.26950 0.70408 0.60045
 C729 C 0.78300 0.25385 0.16241
 C730 C 0.77915 0.23805 0.14273
 C731 C 0.77463 0.21956 0.11968
 C732 C 0.77079 0.20378 0.09998
 C733 C 0.46754 0.41216 0.49650
 C734 C 0.47138 0.39252 0.51235
 C735 C 0.47589 0.36951 0.53088
 C736 C 0.47974 0.34985 0.54671
 C737 C -0.03264 0.91304 -0.00435
 C738 C -0.02876 0.89339 0.01148
 C739 C -0.02422 0.87037 0.03000
 C740 C -0.02033 0.85071 0.04581
 C741 C 0.03228 0.58787 -0.00439
 C742 C 0.02847 0.60757 0.01140
 C743 C 0.02402 0.63064 0.02988
 C744 C 0.02024 0.65035 0.04567
 C745 C 0.53273 0.08739 0.49626
 C746 C 0.52885 0.10704 0.51210
 C747 C 0.52432 0.13004 0.53065
 C748 C 0.52046 0.14968 0.54650
 C749 C -0.03295 0.08797 0.50392
 C750 C -0.02911 0.10764 0.48812
 C751 C -0.02462 0.13067 0.46960
 C752 C -0.02077 0.15033 0.45378
 C753 C 0.46775 0.58813 1.00443
 C754 C 0.47154 0.60783 0.98865
 C755 C 0.47597 0.63090 0.97016
 C756 C 0.47973 0.65059 0.95436
 C757 C 0.53258 0.91294 1.00486
 C758 C 0.52869 0.89334 0.98896
 C759 C 0.52413 0.87039 0.97035
 C760 C 0.52025 0.85077 0.95447
 C761 C 0.03255 0.41285 0.50351
 C762 C 0.02868 0.39321 0.48767
 C763 C 0.02414 0.37019 0.46914
 C764 C 0.02025 0.35052 0.45333
 C765 C 0.41208 0.49574 0.46808
 C766 C 0.39238 0.51155 0.47189
 C767 C 0.36932 0.53005 0.47636
 C768 C 0.34962 0.54585 0.48018
 C769 C 0.91311 -0.00435 -0.03292
 C770 C 0.89342 0.01147 -0.02908
 C771 C 0.87036 0.02997 -0.02457
 C772 C 0.85066 0.04576 -0.02070
 C773 C 0.58793 -0.00480 0.03240
 C774 C 0.60761 0.01104 0.02860
 C775 C 0.63067 0.02957 0.02414
 C776 C 0.65035 0.04540 0.02031
 C777 C 0.08674 0.49551 0.53219
 C778 C 0.10642 0.51137 0.52840
 C779 C 0.12946 0.52992 0.52398
 C780 C 0.14914 0.54576 0.52022
 C781 C 0.08761 0.50411 -0.03258
 C782 C 0.10727 0.48826 -0.02877
 C783 C 0.13028 0.46969 -0.02431
 C784 C 0.14994 0.45383 -0.02049
 C785 C 0.58724 1.00497 0.46763
 C786 C 0.60699 0.98922 0.47143
 C787 C 0.63009 0.97077 0.47589
 C788 C 0.64982 0.95500 0.47971
 C789 C 0.91278 1.00533 0.53240
 C790 C 0.89306 0.98953 0.52858
 C791 C 0.86999 0.97103 0.52412
 C792 C 0.85028 0.95521 0.52032
 C793 C 0.41245 0.50429 0.03243
 C794 C 0.39281 0.48843 0.02855
 C795 C 0.36980 0.46985 0.02402
 C796 C 0.35015 0.45399 0.02016
 C797 C 0.49577 0.46738 0.41278
 C798 C 0.51159 0.47119 0.39311
 C799 C 0.53011 0.47565 0.37009
 C800 C 0.54593 0.47948 0.35043
 C801 C -0.00451 -0.03178 0.91191
 C802 C 0.01131 -0.02804 0.89223
 C803 C 0.02985 -0.02369 0.86920
 C804 C 0.04569 -0.01998 0.84953
 C805 C -0.00451 0.03237 0.58732
 C806 C 0.01138 0.02849 0.60692
 C807 C 0.02998 0.02395 0.62987
 C808 C 0.04586 0.02008 0.64949
 C809 C 0.49605 0.53259 0.08794
 C810 C 0.51187 0.52871 0.10760
 C811 C 0.53037 0.52417 0.13063
 C812 C 0.54616 0.52029 0.15031
 C813 C 0.50438 -0.03328 0.08783
 C814 C 0.48861 -0.02951 0.10754
 C815 C 0.47012 -0.02508 0.13060
 C816 C 0.45433 -0.02129 0.15030
 C817 C 1.00433 0.46800 0.58727
 C818 C 0.98849 0.47174 0.60693
 C819 C 0.96993 0.47611 0.62994
 C820 C 0.95407 0.47986 0.64959
 C821 C 1.00392 0.53240 0.91207
 C822 C 0.98809 0.52855 0.89241
 C823 C 0.96957 0.52404 0.86939
 C824 C 0.95375 0.52019 0.84971
 C825 C 0.50453 0.03190 0.41269
 C826 C 0.48868 0.02801 0.39306
 C827 C 0.47013 0.02345 0.37006
 C828 C 0.45430 0.01956 0.35041
   
