data_POSCAR
  _audit_creation_date              2014-09-24
  _audit_creation_method            'ToBaCCo'
  _symmetry_space_group_name_H-M    'P1'
  _symmetry_Int_Tables_number       1
  _symmetry_cell_setting            triclinic
  loop_
  _symmetry_equiv_pos_as_xyz
 x,y,z
_cell_length_a 44.3052
_cell_length_b 46.0579
_cell_length_c 43.3895
_cell_angle_alpha 90.608900
_cell_angle_beta 90.545900
_cell_angle_gamma 88.999100
loop_
  _atom_site_label
  _atom_site_type_symbol
  _atom_site_fract_x
  _atom_site_fract_y
  _atom_site_fract_z
C1 C 0.21829 0.18626 0.21263
 C2 C 0.20439 0.17032 0.23575
 C3 C 0.17417 0.17617 0.24448
 C4 C 0.15825 0.19879 0.22915
 C5 C 0.17192 0.21492 0.20598
 C6 C 0.20205 0.20863 0.19775
 C7 C 0.24795 0.17943 0.20356
 C8 C 0.26194 0.19462 0.17953
 C9 C 0.24549 0.21764 0.16563
 C10 C 0.21583 0.22449 0.17433
 C11 C 0.19957 0.24668 0.15944
 C12 C 0.16950 0.25310 0.16732
 C13 C 0.15582 0.23716 0.19072
 H14 H 0.21701 0.15236 0.24573
 H15 H 0.13547 0.20478 0.23575
 H16 H 0.25921 0.16105 0.21427
 H17 H 0.25575 0.23092 0.14831
 H18 H 0.21008 0.25846 0.14101
 H19 H 0.13268 0.24212 0.19708
 C20 C -0.23516 0.80384 0.23799
 C21 C -0.22299 0.81798 0.26400
 C22 C -0.19764 0.80633 0.28003
 C23 C -0.18541 0.77941 0.26957
 C24 C -0.19728 0.76513 0.24356
 C25 C -0.22220 0.77744 0.22770
 C26 C -0.25931 0.81649 0.22135
 C27 C -0.27078 0.80325 0.19416
 C28 C -0.25792 0.77632 0.18483
 C29 C -0.23375 0.76363 0.20112
 C30 C -0.22035 0.73768 0.19053
 C31 C -0.19498 0.72562 0.20564
 C32 C -0.18392 0.73916 0.23255
 H33 H -0.23243 0.83900 0.27034
 H34 H -0.16692 0.76894 0.28184
 H35 H -0.26772 0.83756 0.22887
 H36 H -0.26688 0.76466 0.16509
 H37 H -0.22929 0.72715 0.17001
 H38 H -0.16414 0.73018 0.24414
 C39 C -0.23492 0.19319 -0.22974
 C40 C -0.21937 0.17603 -0.25148
 C41 C -0.19297 0.18603 -0.26524
 C42 C -0.18285 0.21405 -0.25787
 C43 C -0.19829 0.23152 -0.23627
 C44 C -0.22435 0.22099 -0.22201
 C45 C -0.26033 0.18248 -0.21500
 C46 C -0.27530 0.19868 -0.19165
 C47 C -0.26472 0.22685 -0.18466
 C48 C -0.23941 0.23795 -0.19951
 C49 C -0.22809 0.26526 -0.19119
 C50 C -0.20187 0.27578 -0.20497
 C51 C -0.18741 0.25890 -0.22786
 H52 H -0.22755 0.15460 -0.25734
 H53 H -0.16229 0.22183 -0.26804
 H54 H -0.26853 0.16151 -0.22236
 H55 H -0.27480 0.23974 -0.16635
 H56 H -0.23906 0.27785 -0.17312
 H57 H -0.16737 0.26692 -0.23885
 C58 C 0.22997 0.81574 -0.19055
 C59 C 0.21869 0.82841 -0.21765
 C60 C 0.19254 0.81778 -0.23263
 C61 C 0.17867 0.79321 -0.21999
 C62 C 0.18982 0.78032 -0.19292
 C63 C 0.21550 0.79165 -0.17806
 C64 C 0.25517 0.82731 -0.17536
 C65 C 0.26582 0.81549 -0.14747
 C66 C 0.25153 0.79118 -0.13533
 C67 C 0.22638 0.77924 -0.15038
 C68 C 0.21131 0.75571 -0.13767
 C69 C 0.18537 0.74457 -0.15212
 C70 C 0.17501 0.75682 -0.17991
 H71 H 0.23093 0.84628 -0.22721
 H72 H 0.15802 0.78489 -0.22991
 H73 H 0.26631 0.84585 -0.18504
 H74 H 0.25935 0.78217 -0.11364
 H75 H 0.21920 0.74666 -0.11602
 H76 H 0.15523 0.74811 -0.19136
 C77 C 0.17839 1.21778 0.79014
 C78 C 0.16462 1.20747 0.76302
 C79 C 0.17808 1.18500 0.74513
 C80 C 0.20644 1.17372 0.75498
 C81 C 0.22051 1.18400 0.78200
 C82 C 0.20640 1.20608 0.79969
 C83 C 0.16423 1.23953 0.80792
 C84 C 0.17728 1.24983 0.83574
 C85 C 0.20570 1.23805 0.84477
 C86 C 0.22013 1.21623 0.82711
 C87 C 0.24778 1.20389 0.83683
 C88 C 0.26185 1.18150 0.81956
 C89 C 0.24812 1.17188 0.79204
 H90 H 0.14363 1.21770 0.75567
 H91 H 0.21715 1.15579 0.74275
 H92 H 0.14331 1.24892 0.79925
 H93 H 0.21614 1.24460 0.86634
 H94 H 0.25836 1.21167 0.85790
 H95 H 0.25851 1.15433 0.77884
 C96 C 0.80811 0.76044 0.75214
 C97 C 0.82287 0.77166 0.72650
 C98 C 0.81667 0.80014 0.71602
 C99 C 0.79443 0.81686 0.73176
 C100 C 0.77954 0.80590 0.75745
 C101 C 0.78650 0.77763 0.76775
 C102 C 0.81543 0.73252 0.76286
 C103 C 0.80182 0.72130 0.78950
 C104 C 0.77969 0.73880 0.80446
 C105 C 0.77222 0.76676 0.79399
 C106 C 0.75108 0.78426 0.80982
 C107 C 0.74431 0.81267 0.80002
 C108 C 0.75850 0.82321 0.77362
 H109 H 0.83871 0.75761 0.71439
 H110 H 0.78968 0.83913 0.72541
 H111 H 0.83327 0.72051 0.75127
 H112 H 0.76762 0.73071 0.82406
 H113 H 0.74004 0.77582 0.82994
 H114 H 0.75380 0.84523 0.76616
 C115 C 0.18322 0.77714 1.19689
 C116 C 0.17318 0.78443 1.22659
 C117 C 0.18671 0.80691 1.24364
 C118 C 0.21120 0.82152 1.23095
 C119 C 0.22166 0.81424 1.20139
 C120 C 0.20751 0.79206 1.18420
 C121 C 0.16886 0.75548 1.17960
 C122 C 0.17798 0.74841 1.14923
 C123 C 0.20278 0.76332 1.13704
 C124 C 0.21738 0.78510 1.15418
 C125 C 0.24129 0.80050 1.14150
 C126 C 0.25544 0.82273 1.15846
 C127 C 0.24551 0.82935 1.18845
 H128 H 0.15452 0.77281 1.23632
 H129 H 0.22150 0.83920 1.24367
 H130 H 0.15104 0.74366 1.19049
 H131 H 0.20997 0.75929 1.11359
 H132 H 0.24896 0.79515 1.11845
 H133 H 0.25589 0.84682 1.20145
 C134 C 0.83315 1.23721 1.23735
 C135 C 0.85028 1.22307 1.26027
 C136 C 0.84423 1.19416 1.26862
 C137 C 0.81955 1.18032 1.25412
 C138 C 0.80231 1.19423 1.23123
 C139 C 0.80917 1.22272 1.22266
 C140 C 0.84047 1.26527 1.22805
 C141 C 0.82450 1.27889 1.20387
 C142 C 0.80019 1.26448 1.18974
 C143 C 0.79244 1.23649 1.19894
 C144 C 0.76897 1.22159 1.18402
 C145 C 0.76216 1.19304 1.19237
 C146 C 0.77872 1.17970 1.21629
 H147 H 0.86948 1.23423 1.27001
 H148 H 0.81306 1.15878 1.26089
 H149 H 0.85900 1.27635 1.23932
 H150 H 0.78806 1.27455 1.17074
 H151 H 0.75661 1.23189 1.16530
 H152 H 0.77338 1.15781 1.22309
 O153 O 0.54780 0.97495 0.96377
 O154 O 0.48280 0.98436 1.06407
 O155 O 0.55602 0.97074 1.01781
 O156 O 0.45400 0.99538 0.97944
 O157 O 0.54040 0.98305 1.06327
 O158 O 0.49275 0.96808 0.96671
 O159 O 0.44882 1.00560 1.03395
 O160 O 0.58814 0.99686 0.98111
 C161 C 0.57597 0.97938 0.96056
 C162 C 0.45610 0.98676 1.05405
 C163 C 0.55391 0.96533 1.04583
 C164 C 0.46497 0.97088 0.97137
 O165 O 0.48248 1.01854 0.94115
 O166 O 0.53926 1.04105 1.06312
 O167 O 0.55961 1.04447 0.98833
 O168 O 0.46891 1.06018 1.02569
 O169 O 0.48327 1.04009 1.06784
 O170 O 0.53673 1.03092 0.94703
 O171 O 0.47764 1.05165 0.97348
 O172 O 0.57516 1.02056 1.03705
 Co173 Co 0.51482 0.99976 0.95972
 Co174 Co 0.51174 1.01206 1.05931
 Co175 Co 0.55523 1.00795 1.00260
 Co176 Co 0.46605 1.02701 1.00297
 O177 O 0.51039 1.01284 1.00874
 C178 C 0.47413 1.04378 0.94674
 C179 C 0.56660 1.03916 1.05650
 C180 C 0.55248 1.04928 0.96110
 C181 C 0.47057 1.06073 1.05417
 O182 O 0.02515 0.47234 0.03080
 O183 O 0.02369 0.52362 -0.05157
 O184 O -0.00937 0.43969 -0.03819
 O185 O -0.00289 0.56129 0.01179
 O186 O 0.02315 0.47188 -0.04728
 O187 O 0.02490 0.52850 0.03588
 O188 O -0.00857 0.55735 -0.04452
 O189 O -0.00759 0.43998 0.01744
 C190 C 0.01842 0.44633 0.02717
 C191 C 0.01799 0.54993 -0.05000
 C192 C 0.01724 0.44589 -0.04440
 C193 C 0.02036 0.55417 0.02733
 O194 O -0.03120 0.52718 0.05414
 O195 O -0.03323 0.47094 -0.07299
 O196 O -0.06361 0.46383 0.01915
 O197 O -0.06417 0.53724 -0.03861
 O198 O -0.03423 0.52326 -0.07517
 O199 O -0.03038 0.47335 0.05385
 O200 O -0.05986 0.54786 0.01900
 O201 O -0.06459 0.46682 -0.03652
 Co202 Co -0.00428 0.50004 0.03834
 Co203 Co -0.00642 0.49765 -0.05760
 Co204 Co -0.03489 0.45652 -0.00981
 Co205 Co -0.03269 0.54607 -0.01312
 O206 O -0.01957 0.50020 -0.01024
 C207 C -0.05378 0.54280 0.04668
 C208 C -0.05940 0.46537 -0.06446
 C209 C -0.05656 0.46555 0.04681
 C210 C -0.05965 0.53307 -0.06661
 O211 O 1.07023 0.01599 0.47185
 O212 O 0.97143 0.02526 0.53757
 O213 O 0.98651 0.00630 0.44164
 O214 O 1.02403 0.02880 0.54598
 O215 O 0.97448 0.03279 0.48174
 O216 O 1.06879 0.01659 0.53071
 O217 O 0.98808 0.00246 0.57853
 O218 O 1.04026 -0.00352 0.43663
 C219 C 1.06050 0.01444 0.44449
 C220 C 0.96816 0.02044 0.56624
 C221 C 0.97852 0.03056 0.45330
 C222 C 1.05146 0.03411 0.54454
 O223 O 1.06839 -0.04156 0.52895
 O224 O 0.94955 -0.01749 0.47090
 O225 O 1.03251 -0.05866 0.45560
 O226 O 0.99554 -0.04490 0.54893
 O227 O 0.95506 -0.03036 0.52612
 O228 O 1.07368 -0.03970 0.47185
 O229 O 1.04292 -0.02110 0.56551
 O230 O 0.98129 -0.05063 0.46437
 Co231 Co 1.06509 -0.01207 0.50112
 Co232 Co 0.96760 0.00088 0.50388
 Co233 Co 1.00999 -0.02547 0.45345
 Co234 Co 1.00932 -0.00832 0.54490
 O235 O 1.01555 -0.01247 0.49919
 C236 C 1.06219 -0.03957 0.55690
 C237 C 0.95482 -0.04282 0.46264
 C238 C 1.06038 -0.05954 0.45771
 C239 C 0.96872 -0.04915 0.54198
 C240 C 1.13277 0.12462 0.31260
 C241 C 1.11506 0.13852 0.29020
 C242 C 1.12851 0.15580 0.26802
 C243 C 1.16019 0.15944 0.26763
 C244 C 1.17757 0.14544 0.29086
 C245 C 1.16398 0.12828 0.31297
 C246 C 1.11913 0.10625 0.33504
 C247 C 1.10826 0.09063 0.35394
 C248 C 1.09589 0.07177 0.37669
 C249 C 1.10717 0.07233 0.40692
 C250 C 1.09570 0.05367 0.42897
 C251 C 1.07277 0.03410 0.42105
 C252 C 1.06151 0.03375 0.39060
 C253 C 1.07300 0.05248 0.36859
 H254 H 1.09083 0.13569 0.28959
 H255 H 1.11393 0.16500 0.25042
 H256 H 1.20167 0.14834 0.29291
 H257 H 1.17790 0.11787 0.33045
 H258 H 1.12492 0.08714 0.41343
 H259 H 1.10484 0.05456 0.45219
 H260 H 1.04382 0.01902 0.38376
 H261 H 1.06412 0.05183 0.34525
 C262 C 0.84374 -0.14545 0.35284
 C263 C 0.86050 -0.16596 0.33600
 C264 C 0.84684 -0.18217 0.31251
 C265 C 0.81585 -0.17822 0.30512
 C266 C 0.79915 -0.15771 0.32294
 C267 C 0.81299 -0.14153 0.34646
 C268 C 0.85873 -0.12777 0.37568
 C269 C 0.87278 -0.11323 0.39390
 C270 C 0.89146 -0.09636 0.41442
 C271 C 0.91937 -0.10786 0.42401
 C272 C 0.93944 -0.09069 0.44082
 C273 C 0.93189 -0.06169 0.44827
 C274 C 0.90328 -0.05059 0.43970
 C275 C 0.88321 -0.06784 0.42272
 H276 H 0.88444 -0.16897 0.34054
 H277 H 0.86135 -0.19654 0.29923
 H278 H 0.77513 -0.15444 0.31952
 H279 H 0.79971 -0.12582 0.35952
 H280 H 0.92606 -0.12984 0.41764
 H281 H 0.96128 -0.09986 0.44718
 H282 H 0.89693 -0.02832 0.44510
 H283 H 0.86170 -0.05866 0.41527
 C284 C 0.85980 0.12977 0.67580
 C285 C 0.85540 0.15901 0.66816
 C286 C 0.83804 0.17735 0.68714
 C287 C 0.82483 0.16661 0.71399
 C288 C 0.82932 0.13715 0.72136
 C289 C 0.84667 0.11889 0.70238
 C290 C 0.87805 0.11092 0.65665
 C291 C 0.89342 0.09497 0.64087
 C292 C 0.91184 0.07591 0.62212
 C293 C 0.91269 0.07970 0.59020
 C294 C 0.93085 0.06145 0.57198
 C295 C 0.94843 0.03919 0.58551
 C296 C 0.94728 0.03538 0.61758
 C297 C 0.92909 0.05367 0.63577
 H298 H 0.86545 0.16764 0.64759
 H299 H 0.83478 0.19985 0.68074
 H300 H 0.81990 0.12833 0.74213
 H301 H 0.85004 0.09633 0.70858
 H302 H 0.89943 0.09683 0.57940
 H303 H 0.93130 0.06491 0.54734
 H304 H 0.96052 0.01839 0.62861
 H305 H 0.92856 0.05054 0.66047
 C306 C 1.15255 -0.13882 0.69064
 C307 C 1.17093 -0.12372 0.71136
 C308 C 1.18453 -0.13804 0.73623
 C309 C 1.17996 -0.16800 0.74110
 C310 C 1.16169 -0.18298 0.71942
 C311 C 1.14816 -0.16850 0.69456
 C312 C 1.13726 -0.12344 0.66620
 C313 C 1.12416 -0.10987 0.64641
 C314 C 1.10822 -0.09290 0.62363
 C315 C 1.11561 -0.09545 0.59240
 C316 C 1.10050 -0.07826 0.57055
 C317 C 1.07786 -0.05826 0.57974
 C318 C 1.07047 -0.05606 0.61115
 C319 C 1.08556 -0.07325 0.63290
 H320 H 1.17423 -0.10062 0.70872
 H321 H 1.19718 -0.12490 0.75240
 H322 H 1.15828 -0.20610 0.72092
 H323 H 1.13411 -0.18047 0.67848
 H324 H 1.13315 -0.11057 0.58498
 H325 H 1.10668 -0.08047 0.54654
 H326 H 1.05313 -0.04093 0.61899
 H327 H 1.07969 -0.07108 0.65701
 C328 C 0.34713 1.16566 1.14559
 C329 C 0.32727 1.18129 1.12663
 C330 C 0.29966 1.19152 1.13799
 C331 C 0.29111 1.18621 1.16876
 C332 C 0.31210 1.17119 1.18787
 C333 C 0.33971 1.16097 1.17632
 C334 C 0.37356 1.15208 1.13247
 C335 C 0.39444 1.13956 1.12032
 C336 C 0.41761 1.12316 1.10459
 C337 C 0.42041 1.12566 1.07265
 C338 C 0.43909 1.10633 1.05633
 C339 C 0.45510 1.08415 1.07181
 C340 C 0.45346 1.08283 1.10414
 C341 C 0.43471 1.10218 1.12041
 H342 H 0.33261 1.18465 1.10262
 H343 H 0.28446 1.20185 1.12168
 H344 H 0.30768 1.16753 1.21197
 H345 H 0.35502 1.14890 1.19124
 H346 H 0.40710 1.14170 1.06016
 H347 H 0.43989 1.10793 1.03146
 H348 H 0.46551 1.06600 1.11672
 H349 H 0.43252 1.09993 1.14512
 C350 C 0.33805 0.85694 0.90188
 C351 C 0.33749 0.82660 0.89983
 C352 C 0.31397 0.81294 0.88382
 C353 C 0.29089 0.82956 0.86962
 C354 C 0.29165 0.86001 0.87205
 C355 C 0.31506 0.87355 0.88802
 C356 C 0.36211 0.87158 0.91779
 C357 C 0.38142 0.88564 0.93039
 C358 C 0.40327 0.90451 0.94436
 C359 C 0.39322 0.92852 0.96167
 C360 C 0.41359 0.94950 0.97154
 C361 C 0.44438 0.94675 0.96426
 C362 C 0.45458 0.92183 0.94815
 C363 C 0.43406 0.90090 0.93810
 H364 H 0.35523 0.81354 0.91044
 H365 H 0.31404 0.78947 0.88217
 H366 H 0.27393 0.87338 0.86188
 H367 H 0.31522 0.89705 0.88957
 H368 H 0.36942 0.93162 0.96651
 H369 H 0.40505 0.96837 0.98396
 H370 H 0.47815 0.91914 0.94219
 H371 H 0.44204 0.88249 0.92453
 C372 C 0.66217 0.84623 1.13957
 C373 C 0.68205 0.82617 1.12600
 C374 C 0.70375 0.81168 1.14397
 C375 C 0.70620 0.81703 1.17612
 C376 C 0.68546 0.83713 1.18942
 C377 C 0.66376 0.85150 1.17131
 C378 C 0.64111 0.86253 1.12083
 C379 C 0.62385 0.87721 1.10573
 C380 C 0.60366 0.89620 1.08895
 C381 C 0.60902 0.90265 1.05801
 C382 C 0.59166 0.92412 1.04316
 C383 C 0.56899 0.93950 1.05929
 C384 C 0.56291 0.93187 1.08990
 C385 C 0.58014 0.91039 1.10459
 H386 H 0.68126 0.82219 1.10135
 H387 H 0.71955 0.79753 1.13199
 H388 H 0.68519 0.84139 1.21396
 H389 H 0.64833 0.86694 1.18209
 H390 H 0.62729 0.89187 1.04574
 H391 H 0.59692 0.92964 1.01962
 H392 H 0.54552 0.94324 1.10288
 H393 H 0.57585 0.90563 1.12854
 C394 C 0.65395 1.16149 0.85973
 C395 C 0.65535 1.19164 0.85698
 C396 C 0.67838 1.20403 0.83985
 C397 C 0.70056 1.18643 0.82504
 C398 C 0.69841 1.15596 0.82808
 C399 C 0.67543 1.14378 0.84515
 C400 C 0.63132 1.14818 0.87820
 C401 C 0.61365 1.13515 0.89357
 C402 C 0.59429 1.11743 0.91168
 C403 C 0.60004 1.11422 0.94324
 C404 C 0.58507 1.09308 0.95985
 C405 C 0.56430 1.07475 0.94498
 C406 C 0.55741 1.07923 0.91366
 C407 C 0.57241 1.10039 0.89710
 H408 H 0.63870 1.20558 0.86812
 H409 H 0.67800 1.22739 0.83763
 H410 H 0.71525 1.14115 0.81874
 H411 H 0.67479 1.12039 0.84747
 H412 H 0.61711 1.12711 0.95470
 H413 H 0.59084 1.09016 0.98395
 H414 H 0.54146 1.06551 0.90162
 H415 H 0.56796 1.10253 0.87262
 C416 C 0.12111 0.31792 0.11515
 C417 C 0.15065 0.32297 0.12523
 C418 C 0.16619 0.30212 0.14270
 C419 C 0.15235 0.27591 0.15032
 C420 C 0.12247 0.27121 0.14047
 C421 C 0.10698 0.29210 0.12296
 C422 C 0.10525 0.33936 0.09702
 C423 C 0.09180 0.35749 0.08219
 C424 C 0.07524 0.37937 0.06533
 C425 C 0.08432 0.40831 0.06673
 C426 C 0.06654 0.43007 0.05303
 C427 C 0.03934 0.42311 0.03790
 C428 C 0.03110 0.39380 0.03548
 C429 C 0.04893 0.37209 0.04915
 H430 H 0.16172 0.34297 0.11951
 H431 H 0.18903 0.30651 0.15029
 H432 H 0.11137 0.25111 0.14566
 H433 H 0.08407 0.28802 0.11532
 H434 H 0.10466 0.41417 0.07920
 H435 H 0.07353 0.45241 0.05526
 H436 H 0.01035 0.38774 0.02389
 H437 H 0.04172 0.34975 0.04790
 C438 C -0.16258 0.35435 -0.16983
 C439 C -0.14419 0.33056 -0.17796
 C440 C -0.15696 0.30530 -0.18995
 C441 C -0.18841 0.30343 -0.19403
 C442 C -0.20673 0.32768 -0.18633
 C443 C -0.19387 0.35298 -0.17424
 C444 C -0.14915 0.37914 -0.15502
 C445 C -0.13660 0.39862 -0.14159
 C446 C -0.12011 0.42007 -0.12430
 C447 C -0.09320 0.43084 -0.13593
 C448 C -0.07422 0.44734 -0.11699
 C449 C -0.08186 0.45301 -0.08609
 C450 C -0.10983 0.44364 -0.07520
 C451 C -0.12878 0.42718 -0.09419
 H452 H -0.11998 0.33126 -0.17434
 H453 H -0.14224 0.28690 -0.19507
 H454 H -0.23099 0.32701 -0.18947
 H455 H -0.20834 0.37123 -0.16787
 H456 H -0.08618 0.42531 -0.15915
 H457 H -0.05287 0.45432 -0.12604
 H458 H -0.11638 0.44772 -0.05154
 H459 H -0.14945 0.41880 -0.08488
 C460 C 0.13557 0.67632 -0.11038
 C461 C 0.16715 0.67480 -0.11071
 C462 C 0.18348 0.69701 -0.12423
 C463 C 0.16835 0.72091 -0.13766
 C464 C 0.13662 0.72224 -0.13702
 C465 C 0.12039 0.70010 -0.12350
 C466 C 0.11837 0.65349 -0.09710
 C467 C 0.10274 0.63492 -0.08662
 C468 C 0.08266 0.61349 -0.07504
 C469 C 0.09059 0.58394 -0.07619
 C470 C 0.06981 0.56313 -0.06733
 C471 C 0.04082 0.57171 -0.05747
 C472 C 0.03339 0.60148 -0.05567
 C473 C 0.05418 0.62220 -0.06439
 H474 H 0.17911 0.65643 -0.10069
 H475 H 0.20788 0.69530 -0.12459
 H476 H 0.12434 0.74059 -0.14669
 H477 H 0.09595 0.70152 -0.12331
 H478 H 0.11256 0.57697 -0.08450
 H479 H 0.07618 0.54035 -0.06885
 H480 H 0.01130 0.60876 -0.04801
 H481 H 0.04780 0.64501 -0.06346
 C482 C -0.14864 0.65232 0.16462
 C483 C -0.15959 0.67507 0.14636
 C484 C -0.17457 0.69877 0.15981
 C485 C -0.17898 0.70011 0.19185
 C486 C -0.16774 0.67724 0.21020
 C487 C -0.15266 0.65340 0.19660
 C488 C -0.13312 0.62838 0.14981
 C489 C -0.12041 0.60968 0.13496
 C490 C -0.10566 0.58929 0.11450
 C491 C -0.11648 0.58658 0.08424
 C492 C -0.10022 0.57035 0.06253
 C493 C -0.07281 0.55652 0.07078
 C494 C -0.06280 0.55812 0.10163
 C495 C -0.07908 0.57460 0.12335
 H496 H -0.15641 0.67457 0.12162
 H497 H -0.18236 0.71628 0.14513
 H498 H -0.17091 0.67765 0.23491
 H499 H -0.14421 0.63590 0.21096
 H500 H -0.13695 0.59797 0.07710
 H501 H -0.10864 0.56942 0.03903
 H502 H -0.04175 0.54774 0.10864
 H503 H -0.07039 0.57672 0.14668
 C504 C 1.13305 0.14821 0.66733
 C505 C 1.11648 0.16215 0.69051
 C506 C 1.13124 0.17475 0.71578
 C507 C 1.16312 0.17354 0.71858
 C508 C 1.17946 0.15983 0.69444
 C509 C 1.16454 0.14731 0.66920
 C510 C 1.11772 0.13306 0.64277
 C511 C 1.10511 0.11923 0.62290
 C512 C 1.09063 0.10117 0.60012
 C513 C 1.05958 0.09623 0.60163
 C514 C 1.04633 0.07548 0.58226
 C515 C 1.06410 0.05930 0.56131
 C516 C 1.09499 0.06544 0.55897
 C517 C 1.10814 0.08621 0.57829
 H518 H 1.09203 0.16261 0.68950
 H519 H 1.11719 0.18385 0.73382
 H520 H 1.20386 0.15921 0.69437
 H521 H 1.17763 0.13662 0.65127
 H522 H 1.04585 0.10758 0.61859
 H523 H 1.02252 0.07117 0.58468
 H524 H 1.10926 0.05338 0.54304
 H525 H 1.13221 0.08977 0.57701
 C526 C 0.86695 -0.16206 0.64405
 C527 C 0.87936 -0.18501 0.66100
 C528 C 0.86264 -0.19793 0.68416
 C529 C 0.83301 -0.18800 0.69112
 C530 C 0.82065 -0.16521 0.67305
 C531 C 0.83747 -0.15244 0.64989
 C532 C 0.88513 -0.14700 0.62224
 C533 C 0.90046 -0.13333 0.60496
 C534 C 0.91868 -0.11557 0.58565
 C535 C 0.90507 -0.09877 0.56252
 C536 C 0.92187 -0.07824 0.54690
 C537 C 0.95249 -0.07418 0.55439
 C538 C 0.96638 -0.09225 0.57649
 C539 C 0.94952 -0.11275 0.59209
 H540 H 0.90235 -0.19241 0.65694
 H541 H 0.87397 -0.21451 0.69764
 H542 H 0.79770 -0.15743 0.67610
 H543 H 0.82756 -0.13472 0.63678
 H544 H 0.88120 -0.10069 0.55742
 H545 H 0.91058 -0.06471 0.52992
 H546 H 0.98989 -0.08959 0.58280
 H547 H 0.96025 -0.12555 0.61005
 C548 C 1.14973 -0.16254 0.32951
 C549 C 1.13061 -0.17127 0.30545
 C550 C 1.14268 -0.18179 0.27783
 C551 C 1.17413 -0.18375 0.27384
 C552 C 1.19322 -0.17550 0.29843
 C553 C 1.18106 -0.16491 0.32609
 C554 C 1.13691 -0.14910 0.35656
 C555 C 1.12509 -0.13677 0.37803
 C556 C 1.10975 -0.12070 0.40197
 C557 C 1.07850 -0.12322 0.40502
 C558 C 1.06257 -0.10433 0.42459
 C559 C 1.07772 -0.08257 0.44130
 C560 C 1.10936 -0.08123 0.43938
 C561 C 1.12525 -0.10014 0.41971
 H562 H 1.10633 -0.16923 0.30773
 H563 H 1.12736 -0.18746 0.25921
 H564 H 1.21751 -0.17703 0.29617
 H565 H 1.19606 -0.15805 0.34453
 H566 H 1.06626 -0.13894 0.39124
 H567 H 1.03824 -0.10594 0.42557
 H568 H 1.12167 -0.06470 0.45191
 H569 H 1.14942 -0.09787 0.41736
 C570 C 0.90016 0.14861 0.33275
 C571 C 0.89773 0.17887 0.33447
 C572 C 0.87938 0.19400 0.31343
 C573 C 0.86287 0.17907 0.29026
 C574 C 0.86587 0.14843 0.28901
 C575 C 0.88426 0.13351 0.30999
 C576 C 0.91827 0.13258 0.35459
 C577 C 0.93248 0.11769 0.37241
 C578 C 0.94801 0.09824 0.39311
 C579 C 0.96387 0.07416 0.38121
 C580 C 0.97510 0.05273 0.40099
 C581 C 0.97050 0.05511 0.43296
 C582 C 0.95588 0.08013 0.44485
 C583 C 0.94459 0.10150 0.42499
 H584 H 0.90975 0.19076 0.35228
 H585 H 0.87736 0.21728 0.31639
 H586 H 0.85512 0.13569 0.27109
 H587 H 0.88616 0.11005 0.30833
 H588 H 0.96652 0.07136 0.35655
 H589 H 0.98637 0.03380 0.39115
 H590 H 0.95202 0.08259 0.46935
 H591 H 0.93218 0.11998 0.43441
 C592 C 0.13111 0.31468 -0.11121
 C593 C 0.16254 0.31197 -0.10914
 C594 C 0.17786 0.29040 -0.12618
 C595 C 0.16198 0.27121 -0.14596
 C596 C 0.13012 0.27410 -0.14711
 C597 C 0.11501 0.29555 -0.13001
 C598 C 0.11502 0.33752 -0.09506
 C599 C 0.10019 0.35649 -0.08278
 C600 C 0.08104 0.37889 -0.06969
 C601 C 0.08894 0.40810 -0.07175
 C602 C 0.06859 0.43000 -0.06249
 C603 C 0.03998 0.42290 -0.05130
 C604 C 0.03269 0.39347 -0.04825
 C605 C 0.05309 0.37164 -0.05742
 H606 H 0.17528 0.32684 -0.09478
 H607 H 0.20224 0.28995 -0.12480
 H608 H 0.11638 0.25927 -0.16040
 H609 H 0.09061 0.29724 -0.13155
 H610 H 0.11044 0.41397 -0.08137
 H611 H 0.07487 0.45246 -0.06502
 H612 H 0.01092 0.38733 -0.03953
 H613 H 0.04668 0.34912 -0.05583
 C614 C -0.14547 0.35859 0.16475
 C615 C -0.17639 0.35405 0.16838
 C616 C -0.18629 0.32851 0.18195
 C617 C -0.16534 0.30716 0.19187
 C618 C -0.13432 0.31233 0.18870
 C619 C -0.12451 0.33783 0.17527
 C620 C -0.13492 0.38305 0.14786
 C621 C -0.12464 0.40212 0.13257
 C622 C -0.11071 0.42290 0.11298
 C623 C -0.12158 0.42675 0.08289
 C624 C -0.10483 0.44231 0.06175
 C625 C -0.07686 0.45404 0.07043
 C626 C -0.06706 0.45167 0.10124
 C627 C -0.08385 0.43606 0.12235
 H628 H -0.19282 0.36991 0.16012
 H629 H -0.21030 0.32529 0.18434
 H630 H -0.11760 0.29616 0.19553
 H631 H -0.10054 0.34096 0.17223
 H632 H -0.14222 0.41647 0.07533
 H633 H -0.11303 0.44385 0.03821
 H634 H -0.04567 0.46053 0.10863
 H635 H -0.07511 0.43302 0.14552
 C636 C -0.16554 0.64152 -0.17303
 C637 C -0.16369 0.64634 -0.20467
 C638 C -0.17526 0.67213 -0.21725
 C639 C -0.18880 0.69391 -0.19835
 C640 C -0.19137 0.68799 -0.16653
 C641 C -0.17980 0.66219 -0.15414
 C642 C -0.15070 0.61673 -0.15926
 C643 C -0.13742 0.59729 -0.14622
 C644 C -0.12066 0.57598 -0.12869
 C645 C -0.09318 0.56466 -0.13962
 C646 C -0.07408 0.54861 -0.12005
 C647 C -0.08216 0.54408 -0.08922
 C648 C -0.11071 0.55385 -0.07914
 C649 C -0.12977 0.56973 -0.09874
 H650 H -0.15281 0.63039 -0.21958
 H651 H -0.17385 0.67451 -0.24195
 H652 H -0.20045 0.70386 -0.15046
 H653 H -0.18105 0.65884 -0.12950
 H654 H -0.08580 0.56953 -0.16271
 H655 H -0.05225 0.54137 -0.12846
 H656 H -0.11765 0.55057 -0.05558
 H657 H -0.15090 0.57849 -0.08996
 C658 C 0.13097 0.68416 0.09753
 C659 C 0.16114 0.68971 0.09099
 C660 C 0.17665 0.71105 0.10768
 C661 C 0.16230 0.72716 0.13154
 C662 C 0.13160 0.72137 0.13732
 C663 C 0.11626 0.70015 0.12055
 C664 C 0.11496 0.66160 0.08145
 C665 C 0.10049 0.64271 0.06922
 C666 C 0.08212 0.62017 0.05614
 C667 C 0.05729 0.62736 0.03738
 C668 C 0.03753 0.60580 0.02740
 C669 C 0.04235 0.57672 0.03612
 C670 C 0.06789 0.56960 0.05424
 C671 C 0.08757 0.59121 0.06423
 H672 H 0.17283 0.67726 0.07330
 H673 H 0.20028 0.71374 0.10263
 H674 H 0.11873 0.73381 0.15406
 H675 H 0.09278 0.69622 0.12561
 H676 H 0.05276 0.64974 0.03112
 H677 H 0.01814 0.61201 0.01344
 H678 H 0.07231 0.54744 0.06130
 H679 H 0.10662 0.58544 0.07890
 C680 C 0.34274 1.13817 0.85210
 C681 C 0.31994 1.14626 0.87275
 C682 C 0.29389 1.16071 0.86224
 C683 C 0.29022 1.16731 0.83083
 C684 C 0.31341 1.15935 0.81025
 C685 C 0.33950 1.14487 0.82084
 C686 C 0.36909 1.12267 0.86329
 C687 C 0.39048 1.10966 0.87414
 C688 C 0.41501 1.09431 0.88919
 C689 C 0.42906 1.10703 0.91484
 C690 C 0.44969 1.09096 0.93254
 C691 C 0.45657 1.06187 0.92483
 C692 C 0.44365 1.04967 0.89806
 C693 C 0.42282 1.06580 0.88041
 H694 H 0.32216 1.14112 0.89699
 H695 H 0.27630 1.16611 0.87859
 H696 H 0.31140 1.16439 0.78599
 H697 H 0.35703 1.13879 0.80465
 H698 H 0.42312 1.12901 0.92194
 H699 H 0.45933 1.10094 0.95301
 H700 H 0.44845 1.02727 0.89172
 H701 H 0.41195 1.05567 0.86068
 C702 C 0.32510 0.87461 1.11989
 C703 C 0.32778 0.86472 1.15019
 C704 C 0.30543 0.84738 1.16254
 C705 C 0.28003 0.83970 1.14473
 C706 C 0.27779 0.84931 1.11410
 C707 C 0.30018 0.86670 1.10179
 C708 C 0.34753 0.89350 1.10777
 C709 C 0.36632 0.90957 1.09807
 C710 C 0.38882 0.92894 1.08694
 C711 C 0.41868 0.92630 1.09743
 C712 C 0.44054 0.94525 1.08694
 C713 C 0.43278 0.96717 1.06578
 C714 C 0.40265 0.96971 1.05545
 C715 C 0.38084 0.95068 1.06595
 H716 H 0.34701 0.87065 1.16438
 H717 H 0.30797 0.84000 1.18605
 H718 H 0.25834 0.84405 1.09995
 H719 H 0.29784 0.87431 1.07833
 H720 H 0.42509 0.90957 1.11373
 H721 H 0.46353 0.94264 1.09529
 H722 H 0.39591 0.98635 1.03921
 H723 H 0.35776 0.95296 1.05772
 C724 C 0.69383 1.14475 1.14430
 C725 C 0.68851 1.17399 1.15201
 C726 C 0.71076 1.18986 1.16749
 C727 C 0.73855 1.17660 1.17552
 C728 C 0.74370 1.14728 1.16741
 C729 C 0.72150 1.13150 1.15194
 C730 C 0.67101 1.12806 1.12877
 C731 C 0.65239 1.11339 1.11588
 C732 C 0.63068 1.09520 1.10060
 C733 C 0.60013 1.09727 1.10835
 C734 C 0.57922 1.07903 1.09400
 C735 C 0.58867 1.05846 1.07174
 C736 C 0.61942 1.05665 1.06402
 C737 C 0.64026 1.07490 1.07839
 H738 H 0.66714 1.18444 1.14621
 H739 H 0.70608 1.21233 1.17363
 H740 H 0.76505 1.13660 1.17279
 H741 H 0.72590 1.10893 1.14597
 H742 H 0.59249 1.11286 1.12557
 H743 H 0.55570 1.08100 1.10039
 H744 H 0.62741 1.04111 1.04693
 H745 H 0.66388 1.07308 1.07228
 C746 C 0.68485 0.86902 0.85219
 C747 C 0.70542 0.85057 0.86736
 C748 C 0.72450 0.83206 0.85041
 C749 C 0.72330 0.83172 0.81798
 C750 C 0.70240 0.85022 0.80293
 C751 C 0.68331 0.86872 0.81994
 C752 C 0.66564 0.88843 0.86979
 C753 C 0.64981 0.90466 0.88485
 C754 C 0.63113 0.92394 0.90319
 C755 C 0.59982 0.92041 0.90377
 C756 C 0.58180 0.93866 0.92220
 C757 C 0.59491 0.96066 0.94035
 C758 C 0.62634 0.96425 0.93940
 C759 C 0.64432 0.94598 0.92095
 H760 H 0.70689 0.85067 0.89230
 H761 H 0.74063 0.81844 0.86269
 H762 H 0.70070 0.85026 0.77802
 H763 H 0.66743 0.88286 0.80795
 H764 H 0.58936 0.90343 0.89015
 H765 H 0.55766 0.93537 0.92246
 H766 H 0.63706 0.98104 0.95304
 H767 H 0.66852 0.94892 0.92070
   
