data_POSCAR
  _audit_creation_date              2014-09-24
  _audit_creation_method            'ToBaCCo'
  _symmetry_space_group_name_H-M    'P1'
  _symmetry_Int_Tables_number       1
  _symmetry_cell_setting            triclinic
  loop_
  _symmetry_equiv_pos_as_xyz
 x,y,z
_cell_length_a 49.9353
_cell_length_b 49.9412
_cell_length_c 49.9221
_cell_angle_alpha 90.031000
_cell_angle_beta 90.030700
_cell_angle_gamma 90.000100
loop_
  _atom_site_label
  _atom_site_type_symbol
  _atom_site_fract_x
  _atom_site_fract_y
  _atom_site_fract_z
O1 O 0.27441 1.02587 0.02541
 O2 O 0.27440 0.97371 -0.02674
 O3 O 0.27412 1.02587 -0.02675
 O4 O 0.27422 0.97373 0.02543
 O5 O 0.22993 0.97372 0.02541
 O6 O 0.22983 1.02579 -0.02670
 O7 O 0.23012 0.97365 -0.02674
 O8 O 0.23012 1.02585 0.02545
 Cu9 Cu 0.27876 0.99980 -0.00067
 Cu10 Cu 0.22553 0.99975 -0.00065
 C11 C 0.25228 1.03466 0.03423
 C12 C 0.25227 0.96486 -0.03554
 C13 C 0.25194 1.03463 -0.03552
 C14 C 0.25207 0.96493 0.03422
 O15 O 0.77471 0.52593 0.52603
 O16 O 0.77466 0.47375 0.47391
 O17 O 0.77446 0.52593 0.47384
 O18 O 0.77442 0.47376 0.52610
 O19 O 0.73013 0.47383 0.52605
 O20 O 0.73018 0.52594 0.47385
 O21 O 0.73037 0.47377 0.47387
 O22 O 0.73043 0.52599 0.52603
 Cu23 Cu 0.77903 0.49984 0.49997
 Cu24 Cu 0.72581 0.49989 0.49994
 C25 C 0.75259 0.53477 0.53483
 C26 C 0.75252 0.46495 0.46509
 C27 C 0.75231 0.53474 0.46503
 C28 C 0.75225 0.46499 0.53489
 O29 O 0.72556 0.97374 1.02706
 O30 O 0.72554 1.02592 0.97494
 O31 O 0.72585 0.97375 0.97487
 O32 O 0.72573 1.02592 1.02713
 O33 O 0.77001 1.02594 1.02717
 O34 O 0.77014 0.97384 0.97497
 O35 O 0.76983 1.02600 0.97499
 O36 O 0.76984 0.97378 1.02715
 Cu37 Cu 0.72121 0.99982 1.00099
 Cu38 Cu 0.77442 0.99990 1.00108
 C39 C 0.74769 0.96493 1.03590
 C40 C 0.74767 1.03477 0.96616
 C41 C 0.74804 0.96499 0.96610
 C42 C 0.74787 1.03474 1.03597
 O43 O 0.26966 0.47425 0.52599
 O44 O 0.26972 0.52634 0.47381
 O45 O 0.26995 0.52637 0.52597
 O46 O 0.26992 0.47420 0.47384
 O47 O 0.22563 0.47420 0.47377
 O48 O 0.22566 0.52644 0.52597
 O49 O 0.22543 0.52635 0.47380
 O50 O 0.22537 0.47431 0.52593
 Cu51 Cu 0.27429 0.50029 0.49990
 Cu52 Cu 0.22105 0.50033 0.49986
 C53 C 0.24749 0.46549 0.53476
 C54 C 0.24757 0.53513 0.46500
 C55 C 0.24783 0.53521 0.53478
 C56 C 0.24780 0.46539 0.46501
 O57 O 1.02561 0.22895 0.02566
 O58 O 0.97336 0.22889 -0.02650
 O59 O 1.02551 0.22872 -0.02649
 O60 O 0.97347 0.22852 0.02565
 O61 O 0.97332 0.27281 0.02577
 O62 O 1.02543 0.27301 -0.02645
 O63 O 0.97327 0.27317 -0.02640
 O64 O 1.02547 0.27324 0.02571
 Cu65 Cu 0.99950 0.22430 -0.00043
 Cu66 Cu 0.99936 0.27753 -0.00034
 C67 C 1.03435 0.25113 0.03448
 C68 C 0.96450 0.25103 -0.03525
 C69 C 1.03426 0.25087 -0.03527
 C70 C 0.96461 0.25061 0.03452
 O71 O 0.52623 0.72897 0.52618
 O72 O 0.47402 0.72911 0.47398
 O73 O 0.52620 0.72874 0.47400
 O74 O 0.47406 0.72878 0.52617
 O75 O 0.47410 0.77306 0.52627
 O76 O 0.52631 0.77302 0.47403
 O77 O 0.47413 0.77339 0.47408
 O78 O 0.52627 0.77326 0.52622
 Cu79 Cu 0.50012 0.72443 0.50008
 Cu80 Cu 0.50021 0.77764 0.50015
 C81 C 0.53505 0.75111 0.53501
 C82 C 0.46527 0.75129 0.46522
 C83 C 0.53506 0.75085 0.46521
 C84 C 0.46528 0.75090 0.53504
 O85 O 0.02623 0.72689 -0.02707
 O86 O -0.02591 0.72686 0.02509
 O87 O -0.02595 0.72718 -0.02710
 O88 O 0.02626 0.72713 0.02512
 O89 O 0.02624 0.77141 0.02514
 O90 O -0.02591 0.77145 -0.02701
 O91 O -0.02593 0.77114 0.02517
 O92 O 0.02627 0.77117 -0.02704
 Cu93 Cu 0.00016 0.72255 -0.00100
 Cu94 Cu 0.00017 0.77575 -0.00094
 C95 C 0.03507 0.74902 -0.03586
 C96 C -0.03472 0.74898 0.03394
 C97 C -0.03475 0.74934 -0.03586
 C98 C 0.03505 0.74928 0.03394
 O99 O 0.52611 0.27089 0.47408
 O100 O 0.47390 0.27107 0.52616
 O101 O 0.52605 0.27126 0.52624
 O102 O 0.47398 0.27127 0.47401
 O103 O 0.47386 0.22699 0.47402
 O104 O 0.52600 0.22697 0.52632
 O105 O 0.47385 0.22678 0.52618
 O106 O 0.52600 0.22660 0.47416
 Cu107 Cu 0.50002 0.27559 0.50012
 Cu108 Cu 0.49992 0.22237 0.50018
 C109 C 0.53486 0.24870 0.46533
 C110 C 0.46507 0.24894 0.53495
 C111 C 0.53482 0.24914 0.53510
 C112 C 0.46512 0.24916 0.46520
 O113 O 1.02569 0.02555 0.27407
 O114 O 0.97367 -0.02674 0.27411
 O115 O 1.02584 -0.02661 0.27378
 O116 O 0.97353 0.02542 0.27388
 O117 O 0.97348 0.02538 0.22958
 O118 O 1.02572 -0.02657 0.22948
 O119 O 0.97356 -0.02677 0.22982
 O120 O 1.02563 0.02557 0.22977
 Cu121 Cu 0.99969 -0.00060 0.27843
 Cu122 Cu 0.99959 -0.00060 0.22519
 C123 C 1.03444 0.03440 0.25193
 C124 C 0.96483 -0.03559 0.25199
 C125 C 1.03460 -0.03536 0.25159
 C126 C 0.96469 0.03418 0.25172
 O127 O 0.52608 0.52621 0.77478
 O128 O 0.47399 0.47410 0.77476
 O129 O 0.52615 0.47405 0.77450
 O130 O 0.47391 0.52626 0.77449
 O131 O 0.47393 0.52621 0.73020
 O132 O 0.52611 0.47407 0.73020
 O133 O 0.47396 0.47406 0.73046
 O134 O 0.52609 0.52622 0.73048
 Cu135 Cu 0.50003 0.50016 0.77910
 Cu136 Cu 0.50002 0.50014 0.72587
 C137 C 0.53489 0.53500 0.75265
 C138 C 0.46518 0.46528 0.75262
 C139 C 0.53494 0.46526 0.75233
 C140 C 0.46511 0.53505 0.75232
 O141 O 0.97335 1.02674 0.72580
 O142 O 1.02549 0.97457 0.72574
 O143 O 0.97334 0.97458 0.72608
 O144 O 1.02552 1.02672 0.72594
 O145 O 1.02559 1.02675 0.77024
 O146 O 0.97348 0.97467 0.77039
 O147 O 1.02562 0.97461 0.77004
 O148 O 0.97343 1.02683 0.77009
 Cu149 Cu 0.99941 1.00065 0.72142
 Cu150 Cu 0.99954 1.00072 0.77466
 C151 C 0.96458 1.03560 0.74794
 C152 C 1.03435 0.96577 0.74787
 C153 C 0.96462 0.96582 0.74828
 C154 C 1.03436 1.03553 0.74809
 O155 O 0.47420 0.52612 0.26976
 O156 O 0.52620 0.47382 0.26978
 O157 O 0.52635 0.52598 0.27001
 O158 O 0.47405 0.47397 0.27007
 O159 O 0.47397 0.47388 0.22577
 O160 O 0.52634 0.52596 0.22571
 O161 O 0.52613 0.47379 0.22548
 O162 O 0.47419 0.52604 0.22546
 Cu163 Cu 0.50020 0.49998 0.27437
 Cu164 Cu 0.50016 0.49991 0.22114
 C165 C 0.46542 0.53490 0.24759
 C166 C 0.53492 0.46498 0.24761
 C167 C 0.53518 0.53476 0.24788
 C168 C 0.46517 0.46514 0.24795
 O169 O 0.25047 0.18059 0.21248
 O170 O 0.27955 0.17278 0.24965
 O171 O 0.18030 0.21288 0.25114
 O172 O 0.17066 0.24765 0.27753
 O173 O 0.21278 0.25058 0.18027
 O174 O 0.25004 0.27982 0.17281
 O175 O 0.25034 0.28688 0.31924
 O176 O 0.21914 0.25100 0.32593
 O177 O 0.31904 0.25074 0.28689
 O178 O 0.32745 0.22061 0.24907
 O179 O 0.28675 0.31919 0.25067
 O180 O 0.24840 0.32737 0.22041
 O181 O 0.25063 0.31908 0.28700
 O182 O 0.22008 0.32722 0.24881
 O183 O 0.31900 0.28700 0.25063
 O184 O 0.32692 0.24841 0.22001
 O185 O 0.28690 0.25147 0.31918
 O186 O 0.25459 0.22098 0.32758
 O187 O 0.25047 0.21286 0.18025
 O188 O 0.27981 0.25018 0.17286
 O189 O 0.18056 0.25019 0.21254
 O190 O 0.17435 0.28119 0.25024
 O191 O 0.21245 0.18058 0.24974
 O192 O 0.25128 0.17238 0.27914
 Zr193 Zr 0.24886 0.20193 0.24885
 O194 O 0.27381 0.22496 0.27386
 Zr195 Zr 0.20190 0.24897 0.24895
 O196 O 0.22485 0.27396 0.27412
 Zr197 Zr 0.24897 0.24904 0.20184
 O198 O 0.27392 0.27410 0.22484
 Zr199 Zr 0.25073 0.25073 0.29769
 O200 O 0.22527 0.22522 0.27508
 Zr201 Zr 0.29761 0.25068 0.25057
 O202 O 0.27484 0.22534 0.22525
 Zr203 Zr 0.25047 0.29772 0.25063
 O204 O 0.22526 0.27486 0.22524
 O205 O 0.22403 0.22416 0.22396
 O206 O 0.27572 0.27587 0.27568
 C207 C 0.25113 0.18836 0.18798
 C208 C 0.18799 0.18836 0.25108
 C209 C 0.18829 0.25101 0.18803
 C210 C 0.25044 0.31137 0.31151
 C211 C 0.31137 0.25116 0.31141
 C212 C 0.31126 0.31149 0.25064
 H213 H 0.28466 0.21284 0.28517
 H214 H 0.28494 0.28515 0.21269
 H215 H 0.21258 0.21271 0.21251
 H216 H 0.21278 0.28485 0.28542
 H217 H 0.20714 0.23590 0.32129
 H218 H 0.17727 0.25671 0.29385
 H219 H 0.32352 0.26315 0.20723
 H220 H 0.29392 0.23775 0.17914
 H221 H 0.24373 0.20557 0.32162
 H222 H 0.23557 0.17469 0.29099
 H223 H 0.26267 0.32359 0.20721
 H224 H 0.23775 0.29401 0.17919
 H225 H 0.29385 0.17930 0.23758
 H226 H 0.32305 0.20704 0.26281
 H227 H 0.17975 0.29397 0.23609
 H228 H 0.20707 0.32342 0.26325
 O229 O 0.74966 0.81959 0.21265
 O230 O 0.72063 0.82733 0.24986
 O231 O 0.81987 0.78718 0.25116
 O232 O 0.82957 0.75237 0.27741
 O233 O 0.78723 0.74963 0.18019
 O234 O 0.74994 0.72042 0.17271
 O235 O 0.74994 0.71310 0.31915
 O236 O 0.78118 0.74896 0.32590
 O237 O 0.68118 0.74933 0.28696
 O238 O 0.67273 0.77954 0.24921
 O239 O 0.71340 0.68092 0.25052
 O240 O 0.75165 0.67275 0.22023
 O241 O 0.74959 0.68095 0.28682
 O242 O 0.78008 0.67290 0.24855
 O243 O 0.68115 0.71312 0.25059
 O244 O 0.67317 0.75174 0.22011
 O245 O 0.71339 0.74854 0.31923
 O246 O 0.74575 0.77901 0.32765
 O247 O 0.74957 0.78738 0.18032
 O248 O 0.72017 0.75007 0.17289
 O249 O 0.81953 0.74995 0.21243
 O250 O 0.82578 0.71887 0.25006
 O251 O 0.78774 0.81951 0.24988
 O252 O 0.74897 0.82768 0.27933
 Zr253 Zr 0.75131 0.79817 0.24896
 O254 O 0.72641 0.77511 0.27395
 Zr255 Zr 0.79826 0.75111 0.24888
 O256 O 0.77535 0.72610 0.27402
 Zr257 Zr 0.75109 0.75115 0.20182
 O258 O 0.72618 0.72606 0.22480
 Zr259 Zr 0.74953 0.74929 0.29769
 O260 O 0.77495 0.77482 0.27510
 Zr261 Zr 0.70255 0.74944 0.25061
 O262 O 0.72527 0.77481 0.22533
 Zr263 Zr 0.74968 0.70238 0.25050
 O264 O 0.77484 0.72527 0.22513
 O265 O 0.77608 0.77598 0.22398
 O266 O 0.72448 0.72419 0.27564
 C267 C 0.74895 0.81187 0.18812
 C268 C 0.81220 0.81171 0.25117
 C269 C 0.81175 0.74917 0.18792
 C270 C 0.74981 0.68861 0.31136
 C271 C 0.68889 0.74887 0.31148
 C272 C 0.68889 0.68863 0.25053
 H273 H 0.71559 0.78721 0.28530
 H274 H 0.71514 0.71503 0.21263
 H275 H 0.78752 0.78744 0.21255
 H276 H 0.78744 0.71519 0.28528
 H277 H 0.79319 0.76404 0.32127
 H278 H 0.82299 0.74331 0.29372
 H279 H 0.67657 0.73706 0.20725
 H280 H 0.70610 0.76252 0.17921
 H281 H 0.75664 0.79440 0.32173
 H282 H 0.76470 0.82533 0.29116
 H283 H 0.73740 0.67661 0.20701
 H284 H 0.76223 0.70621 0.17904
 H285 H 0.70631 0.82083 0.23778
 H286 H 0.67715 0.79306 0.26300
 H287 H 0.82036 0.70613 0.23585
 H288 H 0.79309 0.67663 0.26303
 O289 O 0.74949 0.18056 0.78776
 O290 O 0.72037 0.17277 0.75058
 O291 O 0.81965 0.21282 0.74907
 O292 O 0.82933 0.24758 0.72276
 O293 O 0.78718 0.25053 0.82000
 O294 O 0.74996 0.27982 0.82748
 O295 O 0.74968 0.28683 0.68102
 O296 O 0.78087 0.25090 0.67434
 O297 O 0.68095 0.25073 0.71336
 O298 O 0.67251 0.22063 0.75115
 O299 O 0.71327 0.31918 0.74962
 O300 O 0.75159 0.32739 0.77986
 O301 O 0.74940 0.31904 0.71328
 O302 O 0.77997 0.32715 0.75151
 O303 O 0.68100 0.28700 0.74965
 O304 O 0.67307 0.24844 0.78023
 O305 O 0.71309 0.25142 0.68107
 O306 O 0.74539 0.22092 0.67265
 O307 O 0.74948 0.21285 0.82000
 O308 O 0.72014 0.25021 0.82738
 O309 O 0.81941 0.25010 0.78774
 O310 O 0.82563 0.28112 0.75007
 O311 O 0.78749 0.18052 0.75047
 O312 O 0.74864 0.17231 0.72110
 Zr313 Zr 0.75109 0.20189 0.75140
 O314 O 0.72616 0.22493 0.72638
 Zr315 Zr 0.79808 0.24891 0.75131
 O316 O 0.77515 0.27390 0.72616
 Zr317 Zr 0.75099 0.24902 0.79842
 O318 O 0.72607 0.27409 0.77542
 Zr319 Zr 0.74926 0.25068 0.70257
 O320 O 0.77469 0.22517 0.72518
 Zr321 Zr 0.70238 0.25067 0.74968
 O322 O 0.72512 0.22533 0.77499
 Zr323 Zr 0.74954 0.29769 0.74965
 O324 O 0.77473 0.27483 0.77504
 O325 O 0.77592 0.22412 0.77630
 O326 O 0.72428 0.27585 0.72458
 C327 C 0.74883 0.18834 0.81227
 C328 C 0.81196 0.18829 0.74912
 C329 C 0.81168 0.25093 0.81225
 C330 C 0.74959 0.31133 0.68876
 C331 C 0.68862 0.25113 0.68884
 C332 C 0.68876 0.31149 0.74965
 H333 H 0.71531 0.21281 0.71506
 H334 H 0.71506 0.28516 0.78758
 H335 H 0.78737 0.21266 0.78773
 H336 H 0.78723 0.28478 0.71486
 H337 H 0.79285 0.23581 0.67898
 H338 H 0.82272 0.25662 0.70643
 H339 H 0.67647 0.26318 0.79303
 H340 H 0.70604 0.23775 0.82111
 H341 H 0.75622 0.20551 0.67861
 H342 H 0.76433 0.17463 0.70923
 H343 H 0.73737 0.32357 0.79309
 H344 H 0.76225 0.29400 0.82110
 H345 H 0.70609 0.17930 0.76269
 H346 H 0.67693 0.20704 0.73743
 H347 H 0.82025 0.29389 0.76425
 H348 H 0.79295 0.32337 0.73705
 O349 O 0.25045 0.81971 0.78759
 O350 O 0.27956 0.82752 0.75049
 O351 O 0.18032 0.78740 0.74877
 O352 O 0.17071 0.75262 0.72240
 O353 O 0.21270 0.74975 0.81976
 O354 O 0.24995 0.72047 0.82728
 O355 O 0.25044 0.71341 0.68085
 O356 O 0.21926 0.74928 0.67408
 O357 O 0.31912 0.74956 0.71334
 O358 O 0.32744 0.77973 0.75122
 O359 O 0.28678 0.68112 0.74951
 O360 O 0.24842 0.67292 0.77967
 O361 O 0.25069 0.68122 0.71310
 O362 O 0.22011 0.67308 0.75124
 O363 O 0.31903 0.71331 0.74961
 O364 O 0.32693 0.75188 0.78022
 O365 O 0.28702 0.74882 0.68097
 O366 O 0.25471 0.77932 0.67252
 O367 O 0.25041 0.78745 0.81984
 O368 O 0.27972 0.75013 0.82731
 O369 O 0.18052 0.75013 0.78741
 O370 O 0.17439 0.71909 0.74969
 O371 O 0.21246 0.81971 0.75025
 O372 O 0.25133 0.82791 0.72094
 Zr373 Zr 0.24888 0.79836 0.75123
 O374 O 0.27387 0.77534 0.72627
 Zr375 Zr 0.20191 0.75132 0.75104
 O376 O 0.22491 0.72634 0.72592
 Zr377 Zr 0.24893 0.75127 0.79825
 O378 O 0.27392 0.72621 0.77530
 Zr379 Zr 0.25081 0.74957 0.70240
 O380 O 0.22532 0.77506 0.72496
 Zr381 Zr 0.29764 0.74963 0.74962
 O382 O 0.27483 0.77496 0.77489
 Zr383 Zr 0.25050 0.70258 0.74947
 O384 O 0.22525 0.72543 0.77481
 O385 O 0.22402 0.77614 0.77608
 O386 O 0.27578 0.72442 0.72446
 C387 C 0.25108 0.81195 0.81210
 C388 C 0.18800 0.81193 0.74885
 C389 C 0.18820 0.74932 0.81194
 C390 C 0.25053 0.68892 0.68859
 C391 C 0.31149 0.74913 0.68880
 C392 C 0.31129 0.68881 0.74959
 H393 H 0.28472 0.78746 0.71499
 H394 H 0.28492 0.71517 0.78749
 H395 H 0.21255 0.78759 0.78749
 H396 H 0.21285 0.71545 0.71460
 H397 H 0.20724 0.76436 0.67870
 H398 H 0.17735 0.74358 0.70608
 H399 H 0.32349 0.73717 0.79303
 H400 H 0.29385 0.76254 0.82104
 H401 H 0.24381 0.79471 0.67844
 H402 H 0.23563 0.82559 0.70906
 H403 H 0.26264 0.67674 0.79293
 H404 H 0.23765 0.70630 0.82088
 H405 H 0.29386 0.82100 0.76258
 H406 H 0.32310 0.79325 0.73741
 H407 H 0.17975 0.70633 0.76389
 H408 H 0.20711 0.67688 0.73677
 O409 O 0.24912 0.31969 0.71286
 O410 O 0.22005 0.32747 0.75003
 O411 O 0.31923 0.28722 0.75151
 O412 O 0.32890 0.25237 0.77769
 O413 O 0.28670 0.24976 0.68044
 O414 O 0.24942 0.22056 0.67286
 O415 O 0.24918 0.21321 0.81925
 O416 O 0.28043 0.24906 0.82609
 O417 O 0.18052 0.24950 0.78695
 O418 O 0.17215 0.27976 0.74921
 O419 O 0.21273 0.18112 0.75059
 O420 O 0.25100 0.17290 0.72031
 O421 O 0.24885 0.18109 0.78689
 O422 O 0.27938 0.17300 0.74868
 O423 O 0.18051 0.21335 0.75063
 O424 O 0.17259 0.25196 0.72012
 O425 O 0.21267 0.24863 0.81928
 O426 O 0.24500 0.27908 0.82782
 O427 O 0.24906 0.28749 0.68052
 O428 O 0.21968 0.25022 0.67298
 O429 O 0.31893 0.25005 0.71274
 O430 O 0.32511 0.21892 0.75035
 O431 O 0.28713 0.31957 0.75015
 O432 O 0.24834 0.32781 0.77951
 Zr433 Zr 0.25070 0.29828 0.74915
 O434 O 0.22575 0.27525 0.77408
 Zr435 Zr 0.29762 0.25118 0.74914
 O436 O 0.27466 0.22618 0.77421
 Zr437 Zr 0.25053 0.25128 0.70199
 O438 O 0.22557 0.22621 0.72489
 Zr439 Zr 0.24883 0.24941 0.79782
 O440 O 0.27429 0.27492 0.77531
 Zr441 Zr 0.20193 0.24963 0.75066
 O442 O 0.22470 0.27498 0.72544
 Zr443 Zr 0.24901 0.20252 0.75061
 O444 O 0.27424 0.22538 0.72530
 O445 O 0.27550 0.27608 0.72421
 O446 O 0.22380 0.22435 0.77571
 C447 C 0.24844 0.31197 0.68834
 C448 C 0.31157 0.31174 0.75151
 C449 C 0.31119 0.24929 0.68823
 C450 C 0.24905 0.18874 0.81142
 C451 C 0.18819 0.24900 0.81147
 C452 C 0.18824 0.18886 0.75058
 H453 H 0.21492 0.28736 0.78542
 H454 H 0.21453 0.21520 0.71269
 H455 H 0.28696 0.28754 0.71281
 H456 H 0.28672 0.21526 0.78547
 H457 H 0.29244 0.26415 0.82150
 H458 H 0.32226 0.24337 0.79402
 H459 H 0.17598 0.23726 0.70728
 H460 H 0.20559 0.26266 0.67928
 H461 H 0.25585 0.29450 0.82191
 H462 H 0.26402 0.32543 0.79139
 H463 H 0.23674 0.17675 0.70711
 H464 H 0.26169 0.20634 0.67919
 H465 H 0.20575 0.32101 0.73790
 H466 H 0.17652 0.29325 0.76305
 H467 H 0.31974 0.20621 0.73610
 H468 H 0.29238 0.17672 0.76316
 O469 O 0.75109 0.68066 0.71309
 O470 O 0.78029 0.67289 0.75020
 O471 O 0.68098 0.71283 0.75195
 O472 O 0.67122 0.74758 0.77823
 O473 O 0.71326 0.75057 0.68098
 O474 O 0.75044 0.77993 0.67351
 O475 O 0.75093 0.78684 0.81997
 O476 O 0.71980 0.75087 0.82666
 O477 O 0.81965 0.75087 0.78746
 O478 O 0.82805 0.72076 0.74959
 O479 O 0.78712 0.81926 0.75138
 O480 O 0.74881 0.82749 0.72124
 O481 O 0.75109 0.81906 0.78775
 O482 O 0.72041 0.82712 0.74956
 O483 O 0.81945 0.78714 0.75125
 O484 O 0.82745 0.74864 0.72061
 O485 O 0.78756 0.75151 0.81982
 O486 O 0.75532 0.72093 0.82823
 O487 O 0.75100 0.71296 0.68089
 O488 O 0.78029 0.75035 0.67351
 O489 O 0.68108 0.75009 0.71330
 O490 O 0.67490 0.78113 0.75106
 O491 O 0.71317 0.68057 0.75044
 O492 O 0.75207 0.67236 0.77971
 Zr493 Zr 0.74953 0.70197 0.74948
 O494 O 0.77446 0.72501 0.77450
 Zr495 Zr 0.70247 0.74894 0.74969
 O496 O 0.72539 0.77391 0.77487
 Zr497 Zr 0.74948 0.74911 0.70251
 O498 O 0.77439 0.77419 0.72552
 Zr499 Zr 0.75136 0.75071 0.79838
 O500 O 0.72593 0.72519 0.77576
 Zr501 Zr 0.79816 0.75079 0.75118
 O502 O 0.77542 0.72544 0.72586
 Zr503 Zr 0.75092 0.79774 0.75136
 O504 O 0.72574 0.77488 0.72595
 O505 O 0.72462 0.72418 0.72465
 O506 O 0.77626 0.77592 0.77635
 C507 C 0.75170 0.68845 0.68859
 C508 C 0.68871 0.68833 0.75185
 C509 C 0.68878 0.75094 0.68878
 C510 C 0.75096 0.81133 0.81225
 C511 C 0.81203 0.75126 0.81200
 C512 C 0.81164 0.81161 0.75129
 H513 H 0.78535 0.71290 0.78577
 H514 H 0.78536 0.78528 0.71336
 H515 H 0.71317 0.71271 0.71322
 H516 H 0.71332 0.78476 0.78620
 H517 H 0.70783 0.73576 0.82201
 H518 H 0.67788 0.75648 0.79462
 H519 H 0.82397 0.76335 0.70781
 H520 H 0.79441 0.73791 0.67974
 H521 H 0.74448 0.70552 0.82227
 H522 H 0.73640 0.67465 0.79162
 H523 H 0.76296 0.82364 0.70793
 H524 H 0.73812 0.79408 0.67990
 H525 H 0.79454 0.67943 0.73807
 H526 H 0.82372 0.70720 0.76335
 H527 H 0.68019 0.79387 0.73683
 H528 H 0.70750 0.82337 0.76410
 O529 O 0.24950 0.68077 0.28682
 O530 O 0.22050 0.67288 0.24961
 O531 O 0.31967 0.71316 0.24826
 O532 O 0.32938 0.74795 0.22203
 O533 O 0.28705 0.75078 0.31917
 O534 O 0.24973 0.78002 0.32656
 O535 O 0.24968 0.78696 0.18015
 O536 O 0.28095 0.75112 0.17347
 O537 O 0.18098 0.75077 0.21235
 O538 O 0.17259 0.72057 0.25017
 O539 O 0.21314 0.81923 0.24867
 O540 O 0.25137 0.82754 0.27897
 O541 O 0.24929 0.81917 0.21242
 O542 O 0.27979 0.82737 0.25067
 O543 O 0.18093 0.78699 0.24863
 O544 O 0.17295 0.74846 0.27916
 O545 O 0.21318 0.75153 0.18011
 O546 O 0.24554 0.72104 0.17176
 O547 O 0.24940 0.71305 0.31908
 O548 O 0.22002 0.75033 0.32646
 O549 O 0.31933 0.75042 0.28695
 O550 O 0.32553 0.78147 0.24927
 O551 O 0.28756 0.68080 0.24962
 O552 O 0.24881 0.67249 0.22020
 Zr553 Zr 0.25114 0.70209 0.25048
 O554 O 0.22621 0.72504 0.22542
 Zr555 Zr 0.29805 0.74920 0.25050
 O556 O 0.27511 0.77411 0.22529
 Zr557 Zr 0.25090 0.74921 0.29752
 O558 O 0.22595 0.77420 0.27449
 Zr559 Zr 0.24931 0.75082 0.20167
 O560 O 0.27476 0.72539 0.22432
 Zr561 Zr 0.20235 0.75072 0.24871
 O562 O 0.22510 0.72545 0.27406
 Zr563 Zr 0.24943 0.79783 0.24876
 O564 O 0.27463 0.77505 0.27420
 O565 O 0.27590 0.72436 0.27543
 O566 O 0.22425 0.77594 0.22366
 C567 C 0.24879 0.68855 0.31132
 C568 C 0.31201 0.68863 0.24830
 C569 C 0.31155 0.75124 0.31145
 C570 C 0.24953 0.81144 0.18791
 C571 C 0.18869 0.75121 0.18784
 C572 C 0.18865 0.81148 0.24866
 H573 H 0.21540 0.71290 0.21409
 H574 H 0.21490 0.78524 0.28663
 H575 H 0.28735 0.71292 0.28689
 H576 H 0.28719 0.78501 0.21402
 H577 H 0.29297 0.73606 0.17814
 H578 H 0.32275 0.75688 0.20565
 H579 H 0.17636 0.76315 0.29202
 H580 H 0.20593 0.73789 0.32015
 H581 H 0.25645 0.70568 0.17771
 H582 H 0.26451 0.67482 0.20835
 H583 H 0.23713 0.82369 0.29219
 H584 H 0.26205 0.79420 0.32024
 H585 H 0.20616 0.67939 0.26166
 H586 H 0.17695 0.70708 0.23633
 H587 H 0.32013 0.79421 0.26348
 H588 H 0.29280 0.82361 0.23621
 O589 O 0.75050 0.31874 0.28706
 O590 O 0.77957 0.32644 0.24985
 O591 O 0.68029 0.28640 0.24846
 O592 O 0.67051 0.25159 0.22224
 O593 O 0.71285 0.24885 0.31943
 O594 O 0.75009 0.21960 0.32693
 O595 O 0.75011 0.21225 0.18049
 O596 O 0.71888 0.24816 0.17377
 O597 O 0.81886 0.24843 0.21274
 O598 O 0.82736 0.27863 0.25051
 O599 O 0.78657 0.18008 0.24908
 O600 O 0.74833 0.17191 0.27936
 O601 O 0.75042 0.18012 0.21280
 O602 O 0.71988 0.17211 0.25106
 O603 O 0.81885 0.21225 0.24903
 O604 O 0.82691 0.25082 0.27956
 O605 O 0.78666 0.24765 0.18047
 O606 O 0.75435 0.27813 0.17201
 O607 O 0.75054 0.28654 0.31935
 O608 O 0.77990 0.24920 0.32677
 O609 O 0.68057 0.24921 0.28717
 O610 O 0.67427 0.21811 0.24954
 O611 O 0.71246 0.31869 0.24981
 O612 O 0.75123 0.32686 0.22042
 Zr613 Zr 0.74884 0.29733 0.25074
 O614 O 0.77370 0.27424 0.22573
 Zr615 Zr 0.70183 0.25032 0.25075
 O616 O 0.72469 0.22528 0.22560
 Zr617 Zr 0.74899 0.25032 0.29783
 O618 O 0.77386 0.22520 0.27485
 Zr619 Zr 0.75054 0.24845 0.20198
 O620 O 0.72517 0.27401 0.22457
 Zr621 Zr 0.79751 0.24857 0.24907
 O622 O 0.77483 0.27396 0.27437
 Zr623 Zr 0.75033 0.20156 0.24912
 O624 O 0.72520 0.22447 0.27451
 O625 O 0.72403 0.27517 0.27568
 O626 O 0.77555 0.22334 0.22402
 C627 C 0.75120 0.31102 0.31158
 C628 C 0.68800 0.31091 0.24847
 C629 C 0.68835 0.24842 0.31167
 C630 C 0.75021 0.18778 0.18827
 C631 C 0.81114 0.24797 0.18823
 C632 C 0.81107 0.18777 0.24908
 H633 H 0.78453 0.28634 0.21439
 H634 H 0.78489 0.21416 0.28701
 H635 H 0.71261 0.28665 0.28711
 H636 H 0.71259 0.21437 0.21433
 H637 H 0.70691 0.26327 0.17840
 H638 H 0.67708 0.24255 0.20590
 H639 H 0.82348 0.23615 0.29241
 H640 H 0.79398 0.26164 0.32048
 H641 H 0.74354 0.29356 0.17796
 H642 H 0.73554 0.32451 0.20855
 H643 H 0.76257 0.17576 0.29258
 H644 H 0.73779 0.20540 0.32058
 H645 H 0.79385 0.31996 0.26198
 H646 H 0.82297 0.29215 0.23672
 H647 H 0.67966 0.20537 0.26374
 H648 H 0.70691 0.17582 0.23655
 C649 C 0.25255 0.09241 0.09190
 N650 N 0.25875 0.08617 0.11760
 N651 N 0.25879 0.10506 0.13647
 C652 C 0.25265 0.13076 0.13020
 N653 N 0.24645 0.13700 0.10450
 N654 N 0.24641 0.11811 0.08563
 C655 C 0.25242 0.07207 0.07160
 C656 C 0.25233 0.05498 0.05454
 C657 C 0.25240 0.15104 0.15056
 C658 C 0.25197 0.16809 0.16765
 C659 C 0.75293 0.59256 0.59246
 N660 N 0.76404 0.58769 0.61677
 N661 N 0.76411 0.60659 0.63563
 C662 C 0.75309 0.63092 0.63075
 N663 N 0.74197 0.63578 0.60644
 N664 N 0.74191 0.61689 0.58757
 C665 C 0.75278 0.57220 0.57217
 C666 C 0.75267 0.55511 0.55512
 C667 C 0.75290 0.65117 0.65113
 C668 C 0.75251 0.66820 0.66825
 C669 C 0.74745 0.90817 0.09239
 N670 N 0.74947 0.91486 0.11865
 N671 N 0.74944 0.89593 0.13746
 C672 C 0.74737 0.86973 0.13058
 N673 N 0.74535 0.86304 0.10432
 N674 N 0.74537 0.88197 0.08551
 C675 C 0.74756 0.92855 0.07212
 C676 C 0.74765 0.94567 0.05509
 C677 C 0.74765 0.84933 0.15083
 C678 C 0.74809 0.83221 0.16785
 C679 C 0.24711 0.40792 0.59247
 N680 N 0.25067 0.41459 0.61857
 N681 N 0.25060 0.39574 0.63744
 C682 C 0.24695 0.36966 0.63078
 N683 N 0.24339 0.36299 0.60469
 N684 N 0.24346 0.38184 0.58581
 C685 C 0.24728 0.42819 0.57215
 C686 C 0.24741 0.44523 0.55507
 C687 C 0.24719 0.34935 0.65106
 C688 C 0.24761 0.33228 0.66809
 C689 C 0.74739 0.09247 0.90843
 N690 N 0.75097 0.11856 0.91506
 N691 N 0.75094 0.13742 0.89616
 C692 C 0.74730 0.13075 0.87007
 N693 N 0.74371 0.10465 0.86344
 N694 N 0.74374 0.08580 0.88233
 C695 C 0.74751 0.07215 0.92876
 C696 C 0.74761 0.05508 0.94584
 C697 C 0.74756 0.15102 0.84970
 C698 C 0.74799 0.16806 0.83260
 C699 C 0.24731 0.59271 0.40730
 N700 N 0.24946 0.58590 0.38109
 N701 N 0.24942 0.60475 0.36220
 C702 C 0.24721 0.63096 0.36897
 N703 N 0.24506 0.63776 0.39518
 N704 N 0.24510 0.61892 0.41407
 C705 C 0.24744 0.57244 0.42762
 C706 C 0.24753 0.55540 0.44469
 C707 C 0.24748 0.65125 0.34867
 C708 C 0.24793 0.66829 0.33161
 C709 C 0.25253 0.90810 0.90798
 N710 N 0.24881 0.88205 0.91468
 N711 N 0.24885 0.86312 0.89586
 C712 C 0.25262 0.86967 0.86977
 N713 N 0.25633 0.89572 0.86307
 N714 N 0.25630 0.91465 0.88189
 C715 C 0.25241 0.92849 0.92824
 C716 C 0.25232 0.94561 0.94527
 C717 C 0.25235 0.84932 0.84947
 C718 C 0.25192 0.83224 0.83241
 C719 C 0.75275 0.40717 0.40745
 N720 N 0.75335 0.38091 0.41433
 N721 N 0.75338 0.36200 0.39548
 C722 C 0.75283 0.36879 0.36919
 N723 N 0.75223 0.39505 0.36231
 N724 N 0.75221 0.41396 0.38116
 C725 C 0.75264 0.42752 0.42775
 C726 C 0.75255 0.44461 0.44480
 C727 C 0.75254 0.34843 0.34890
 C728 C 0.75208 0.33134 0.33186
 C729 C 0.09215 0.25167 0.09212
 N730 N 0.08535 0.25207 0.11841
 N731 N 0.10426 0.25227 0.13727
 C732 C 0.13053 0.25211 0.13039
 N733 N 0.13732 0.25172 0.10409
 N734 N 0.11842 0.25152 0.08524
 C735 C 0.07179 0.25141 0.07182
 C736 C 0.05469 0.25123 0.05477
 C737 C 0.15088 0.25202 0.15068
 C738 C 0.16797 0.25172 0.16774
 C739 C 0.59273 0.75137 0.59277
 N740 N 0.60279 0.72802 0.60230
 N741 N 0.62165 0.72815 0.62119
 C742 C 0.63102 0.75164 0.63112
 N743 N 0.62096 0.77499 0.62160
 N744 N 0.60209 0.77486 0.60270
 C745 C 0.57242 0.75122 0.57243
 C746 C 0.55536 0.75113 0.55534
 C747 C 0.65135 0.75172 0.65145
 C748 C 0.66843 0.75154 0.66851
 C749 C 0.09182 0.74862 0.90762
 N750 N 0.11677 0.73948 0.91328
 N751 N 0.13569 0.73932 0.89447
 C752 C 0.13024 0.74828 0.86940
 N753 N 0.10529 0.75741 0.86374
 N754 N 0.08637 0.75757 0.88255
 C755 C 0.07144 0.74883 0.92790
 C756 C 0.05433 0.74896 0.94494
 C757 C 0.15068 0.74836 0.84919
 C758 C 0.16783 0.74864 0.83219
 C759 C 0.59244 0.24809 0.40762
 N760 N 0.58973 0.26340 0.38535
 N761 N 0.60856 0.26317 0.36645
 C762 C 0.63065 0.24762 0.36925
 N763 N 0.63336 0.23231 0.39151
 N764 N 0.61453 0.23253 0.41041
 C765 C 0.57218 0.24836 0.42796
 C766 C 0.55515 0.24856 0.44504
 C767 C 0.65099 0.24758 0.34900
 C768 C 0.66807 0.24780 0.33196
 C769 C 0.90764 0.74850 0.09174
 N770 N 0.91452 0.74856 0.11803
 N771 N 0.89568 0.74837 0.13693
 C772 C 0.86938 0.74810 0.13012
 N773 N 0.86250 0.74804 0.10384
 N774 N 0.88134 0.74822 0.08493
 C775 C 0.92793 0.74874 0.07138
 C776 C 0.94498 0.74890 0.05428
 C777 C 0.84909 0.74819 0.15048
 C778 C 0.83204 0.74849 0.16758
 C779 C 0.40729 0.24874 0.59248
 N780 N 0.39803 0.22527 0.60250
 N781 N 0.37912 0.22516 0.62133
 C782 C 0.36890 0.24852 0.63067
 N783 N 0.37816 0.27199 0.62064
 N784 N 0.39708 0.27210 0.60182
 C785 C 0.42764 0.24886 0.57223
 C786 C 0.44474 0.24894 0.55521
 C787 C 0.34857 0.24846 0.65093
 C788 C 0.33149 0.24867 0.66796
 C789 C 0.90780 0.25134 0.90819
 N790 N 0.89826 0.27483 0.89847
 N791 N 0.87935 0.27498 0.87961
 C792 C 0.86943 0.25162 0.86991
 N793 N 0.87898 0.22813 0.87963
 N794 N 0.89788 0.22799 0.89849
 C795 C 0.92816 0.25118 0.92849
 C796 C 0.94525 0.25107 0.94555
 C797 C 0.84909 0.25172 0.84961
 C798 C 0.83200 0.25154 0.83255
 C799 C 0.40755 0.75189 0.40751
 N800 N 0.41438 0.75126 0.38122
 N801 N 0.39550 0.75147 0.36234
 C802 C 0.36923 0.75234 0.36918
 N803 N 0.36241 0.75297 0.39546
 N804 N 0.38128 0.75276 0.41435
 C805 C 0.42787 0.75161 0.42784
 C806 C 0.44495 0.75141 0.44491
 C807 C 0.34891 0.75225 0.34886
 C808 C 0.33184 0.75195 0.33178
 C809 C 0.09202 0.09226 0.25225
 N810 N 0.11825 0.08555 0.25448
 N811 N 0.13708 0.10446 0.25458
 C812 C 0.13027 0.13066 0.25246
 N813 N 0.10404 0.13738 0.25023
 N814 N 0.08520 0.11847 0.25014
 C815 C 0.07174 0.07189 0.25208
 C816 C 0.05471 0.05477 0.25197
 C817 C 0.15058 0.15101 0.25226
 C818 C 0.16765 0.16808 0.25188
 C819 C 0.59263 0.59256 0.75306
 N820 N 0.61888 0.58567 0.75403
 N821 N 0.63779 0.60450 0.75414
 C822 C 0.63100 0.63078 0.75331
 N823 N 0.60475 0.63767 0.75235
 N824 N 0.58584 0.61884 0.75224
 C825 C 0.57229 0.57230 0.75287
 C826 C 0.55520 0.55527 0.75273
 C827 C 0.65135 0.65103 0.75310
 C828 C 0.66843 0.66806 0.75269
 C829 C 0.90800 0.09228 0.74770
 N830 N 0.88186 0.08561 0.74459
 N831 N 0.86300 0.10449 0.74455
 C832 C 0.86971 0.13064 0.74760
 N833 N 0.89586 0.13731 0.75071
 N834 N 0.91472 0.11843 0.75075
 C835 C 0.92831 0.07193 0.74782
 C836 C 0.94537 0.05484 0.74791
 C837 C 0.84937 0.15095 0.74785
 C838 C 0.83229 0.16801 0.74828
 C839 C 0.40793 0.59271 0.24717
 N840 N 0.38187 0.58611 0.24333
 N841 N 0.36303 0.60501 0.24321
 C842 C 0.36971 0.63108 0.24690
 N843 N 0.39578 0.63767 0.25074
 N844 N 0.41461 0.61877 0.25086
 C845 C 0.42818 0.57236 0.24738
 C846 C 0.44519 0.55525 0.24752
 C847 C 0.34942 0.65137 0.24710
 C848 C 0.33234 0.66841 0.24749
 C849 C 0.09198 0.90796 0.74751
 N850 N 0.11802 0.91451 0.74337
 N851 N 0.13687 0.89561 0.74331
 C852 C 0.13025 0.86958 0.74734
 N853 N 0.10421 0.86303 0.75147
 N854 N 0.08537 0.88193 0.75153
 C855 C 0.07170 0.92833 0.74767
 C856 C 0.05465 0.94543 0.74779
 C857 C 0.15058 0.84926 0.74758
 C858 C 0.16766 0.83220 0.74801
 C859 C 0.59230 0.40706 0.24724
 N860 N 0.61829 0.41350 0.24270
 N861 N 0.63708 0.39454 0.24260
 C862 C 0.63042 0.36859 0.24700
 N863 N 0.60443 0.36215 0.25154
 N864 N 0.58565 0.38111 0.25164
 C865 C 0.57211 0.42746 0.24742
 C866 C 0.55513 0.44460 0.24755
 C867 C 0.65067 0.34824 0.24722
 C868 C 0.66771 0.33117 0.24763
 C869 C 0.90827 0.90770 0.25238
 N870 N 0.91509 0.88145 0.25084
 N871 N 0.89622 0.86257 0.25094
 C872 C 0.86997 0.86936 0.25260
 N873 N 0.86316 0.89560 0.25414
 N874 N 0.88203 0.91449 0.25404
 C875 C 0.92858 0.92805 0.25219
 C876 C 0.94564 0.94515 0.25206
 C877 C 0.84964 0.84903 0.25239
 C878 C 0.83255 0.83198 0.25199
 C879 C 0.40759 0.40757 0.75296
 N880 N 0.38152 0.41421 0.75667
 N881 N 0.36266 0.39534 0.75674
 C882 C 0.36932 0.36926 0.75312
 N883 N 0.39539 0.36262 0.74942
 N884 N 0.41425 0.38149 0.74935
 C885 C 0.42787 0.42789 0.75280
 C886 C 0.44491 0.44497 0.75268
 C887 C 0.34899 0.34898 0.75286
 C888 C 0.33190 0.33196 0.75241
 C889 C 0.09199 0.25031 0.90715
 N890 N 0.08558 0.24485 0.88132
 N891 N 0.10450 0.24443 0.86251
 C892 C 0.13041 0.24944 0.86898
 N893 N 0.13682 0.25490 0.89481
 N894 N 0.11790 0.25532 0.91362
 C895 C 0.07165 0.25066 0.92741
 C896 C 0.05456 0.25085 0.94444
 C897 C 0.15075 0.24912 0.84873
 C898 C 0.16785 0.24898 0.83171
 C899 C 0.59281 0.75014 0.40749
 N900 N 0.58927 0.76372 0.38423
 N901 N 0.60813 0.76332 0.36535
 C902 C 0.63110 0.74933 0.36914
 N903 N 0.63464 0.73574 0.39240
 N904 N 0.61578 0.73614 0.41128
 C905 C 0.57247 0.75051 0.42781
 C906 C 0.55539 0.75074 0.44488
 C907 C 0.65146 0.74901 0.34884
 C908 C 0.66855 0.74886 0.33178
 C909 C 0.90845 0.75003 0.90767
 N910 N 0.91432 0.74303 0.88208
 N911 N 0.89538 0.74343 0.86327
 C912 C 0.87000 0.75086 0.86946
 N913 N 0.86413 0.75787 0.89505
 N914 N 0.88307 0.75747 0.91386
 C915 C 0.92885 0.74966 0.92792
 C916 C 0.94598 0.74944 0.94495
 C917 C 0.84958 0.75116 0.84923
 C918 C 0.83243 0.75129 0.83223
 C919 C 0.40747 0.24986 0.40740
 N920 N 0.39745 0.27346 0.39843
 N921 N 0.37858 0.27382 0.37954
 C922 C 0.36916 0.25060 0.36905
 N923 N 0.37918 0.22700 0.37802
 N924 N 0.39805 0.22664 0.39691
 C925 C 0.42778 0.24948 0.42775
 C926 C 0.44483 0.24925 0.44485
 C927 C 0.34883 0.25096 0.34874
 C928 C 0.33173 0.25114 0.33168
 C929 C 0.09272 0.74992 0.09173
 N930 N 0.11894 0.74767 0.08503
 N931 N 0.13780 0.74807 0.10393
 C932 C 0.13100 0.75076 0.13009
 N933 N 0.10478 0.75301 0.13679
 N934 N 0.08592 0.75261 0.11789
 C935 C 0.07242 0.74956 0.07138
 C936 C 0.05536 0.74936 0.05428
 C937 C 0.15130 0.75106 0.15045
 C938 C 0.16837 0.75121 0.16753
 C939 C 0.59249 0.24981 0.59288
 N940 N 0.61075 0.22977 0.59444
 N941 N 0.62964 0.23014 0.61330
 C942 C 0.63085 0.25058 0.63117
 N943 N 0.61260 0.27062 0.62961
 N944 N 0.59370 0.27025 0.61075
 C945 C 0.57217 0.24944 0.57254
 C946 C 0.55511 0.24922 0.55545
 C947 C 0.65118 0.25094 0.65150
 C948 C 0.66827 0.25111 0.66856
 C949 C 0.90703 0.24964 0.09225
 N950 N 0.91305 0.24152 0.11747
 N951 N 0.89419 0.24100 0.13634
 C952 C 0.86876 0.24857 0.13055
 N953 N 0.86274 0.25668 0.10533
 N954 N 0.88160 0.25720 0.08646
 C955 C 0.92731 0.25012 0.07192
 C956 C 0.94435 0.25043 0.05484
 C957 C 0.84849 0.24817 0.15088
 C958 C 0.83144 0.24798 0.16795
 C959 C 0.40762 0.75028 0.59284
 N960 N 0.39809 0.77353 0.60317
 N961 N 0.37923 0.77320 0.62206
 C962 C 0.36933 0.74962 0.63119
 N963 N 0.37886 0.72637 0.62086
 N964 N 0.39772 0.72670 0.60197
 C965 C 0.42793 0.75062 0.57248
 C966 C 0.44498 0.75083 0.55538
 C967 C 0.34899 0.74929 0.65150
 C968 C 0.33188 0.74913 0.66855
 C969 C 0.25108 0.09247 0.90701
 N970 N 0.26680 0.09033 0.88497
 N971 N 0.26631 0.10926 0.86617
 C972 C 0.25009 0.13087 0.86884
 N973 N 0.23437 0.13300 0.89088
 N974 N 0.23485 0.11408 0.90968
 C975 C 0.25153 0.07208 0.92723
 C976 C 0.25180 0.05497 0.94423
 C977 C 0.24962 0.15126 0.84863
 C978 C 0.24930 0.16838 0.83164
 C979 C 0.75164 0.59249 0.40732
 N980 N 0.76550 0.58913 0.38420
 N981 N 0.76508 0.60800 0.36533
 C982 C 0.75077 0.63080 0.36899
 N983 N 0.73691 0.63416 0.39211
 N984 N 0.73733 0.61529 0.41098
 C985 C 0.75202 0.57214 0.42763
 C986 C 0.75224 0.55506 0.44470
 C987 C 0.75035 0.65115 0.34868
 C988 C 0.75006 0.66825 0.33163
 C989 C 0.74842 0.09142 0.09255
 N990 N 0.73384 0.11413 0.08949
 N991 N 0.73425 0.13308 0.10830
 C992 C 0.74926 0.12989 0.13073
 N993 N 0.76383 0.10718 0.13379
 N994 N 0.76342 0.08824 0.11498
 C995 C 0.74808 0.07106 0.07225
 C996 C 0.74790 0.05397 0.05519
 C997 C 0.74967 0.15029 0.15099
 C998 C 0.74996 0.16741 0.16801
 C999 C 0.24860 0.59288 0.59256
 N1000 N 0.26521 0.59057 0.61394
 N1001 N 0.26567 0.60946 0.63281
 C1002 C 0.24954 0.63121 0.63087
 N1003 N 0.23292 0.63352 0.60949
 N1004 N 0.23247 0.61464 0.59061
 C1005 C 0.24818 0.57258 0.57220
 C1006 C 0.24794 0.55552 0.55511
 C1007 C 0.24999 0.65153 0.65120
 C1008 C 0.25029 0.66860 0.66828
 C1009 C 0.74887 0.90733 0.90832
 N1010 N 0.74265 0.88161 0.91443
 N1011 N 0.74316 0.86274 0.89555
 C1012 C 0.74991 0.86901 0.87000
 N1013 N 0.75613 0.89473 0.86389
 N1014 N 0.75562 0.91360 0.88277
 C1015 C 0.74844 0.92764 0.92867
 C1016 C 0.74818 0.94469 0.94576
 C1017 C 0.75038 0.84870 0.84966
 C1018 C 0.75070 0.83164 0.83258
 C1019 C 0.24851 0.40760 0.40735
 N1020 N 0.23522 0.38421 0.41105
 N1021 N 0.23568 0.36527 0.39223
 C1022 C 0.24946 0.36916 0.36915
 N1023 N 0.26274 0.39255 0.36545
 N1024 N 0.26229 0.41148 0.38427
 C1025 C 0.24811 0.42795 0.42765
 C1026 C 0.24788 0.44505 0.44471
 C1027 C 0.24990 0.34879 0.34886
 C1028 C 0.25020 0.33170 0.33181
 C1029 C 0.25142 0.90729 0.09189
 N1030 N 0.23853 0.88378 0.08754
 N1031 N 0.23808 0.86495 0.10643
 C1032 C 0.25049 0.86908 0.13025
 N1033 N 0.26338 0.89259 0.13460
 N1034 N 0.26383 0.91142 0.11571
 C1035 C 0.25181 0.92759 0.07159
 C1036 C 0.25202 0.94464 0.05452
 C1037 C 0.25006 0.84879 0.15057
 C1038 C 0.24976 0.83174 0.16763
 C1039 C 0.75150 0.40729 0.59264
 N1040 N 0.73753 0.38430 0.58881
 N1041 N 0.73708 0.36546 0.60771
 C1042 C 0.75057 0.36904 0.63103
 N1043 N 0.76454 0.39202 0.63486
 N1044 N 0.76499 0.41086 0.61596
 C1045 C 0.75190 0.42761 0.57231
 C1046 C 0.75214 0.44468 0.55523
 C1047 C 0.75014 0.34872 0.65137
 C1048 C 0.74984 0.33165 0.66845
 C1049 C 0.09212 0.09309 0.74870
 N1050 N 0.11833 0.08629 0.74655
 N1051 N 0.13724 0.10511 0.74702
 C1052 C 0.13051 0.13129 0.74966
 N1053 N 0.10430 0.13809 0.75181
 N1054 N 0.08539 0.11927 0.75135
 C1055 C 0.07178 0.07283 0.74833
 C1056 C 0.05469 0.05579 0.74813
 C1057 C 0.15085 0.15155 0.75009
 C1058 C 0.16793 0.16859 0.75037
 C1059 C 0.59292 0.59249 0.24857
 N1060 N 0.58606 0.61877 0.24859
 N1061 N 0.60492 0.63766 0.24907
 C1062 C 0.63121 0.63085 0.24957
 N1063 N 0.63807 0.60456 0.24956
 N1064 N 0.61922 0.58568 0.24908
 C1065 C 0.57261 0.57214 0.24817
 C1066 C 0.55553 0.55507 0.24795
 C1067 C 0.65152 0.65120 0.25002
 C1068 C 0.66858 0.66829 0.25031
 C1069 C 0.09246 0.90717 0.25071
 N1070 N 0.11868 0.91402 0.25254
 N1071 N 0.13761 0.89522 0.25200
 C1072 C 0.13088 0.86902 0.24959
 N1073 N 0.10467 0.86217 0.24776
 N1074 N 0.08573 0.88097 0.24830
 C1075 C 0.07209 0.92741 0.25117
 C1076 C 0.05497 0.94441 0.25145
 C1077 C 0.15125 0.84878 0.24913
 C1078 C 0.16834 0.83176 0.24884
 C1079 C 0.59271 0.40754 0.75158
 N1080 N 0.61893 0.41427 0.75383
 N1081 N 0.63781 0.39541 0.75334
 C1082 C 0.63105 0.36925 0.75057
 N1083 N 0.60483 0.36252 0.74832
 N1084 N 0.58595 0.38138 0.74881
 C1085 C 0.57237 0.42787 0.75200
 C1086 C 0.55528 0.44494 0.75223
 C1087 C 0.65139 0.34892 0.75013
 C1088 C 0.66846 0.33184 0.74984
 C1089 C 0.90697 0.09178 0.25103
 N1090 N 0.88069 0.08493 0.25050
 N1091 N 0.86183 0.10379 0.25000
 C1092 C 0.86868 0.13007 0.25000
 N1093 N 0.89495 0.13692 0.25053
 N1094 N 0.91382 0.11806 0.25103
 C1095 C 0.92728 0.07148 0.25144
 C1096 C 0.94435 0.05444 0.25166
 C1097 C 0.84838 0.15038 0.24955
 C1098 C 0.83133 0.16745 0.24927
 C1099 C 0.40734 0.59276 0.75157
 N1100 N 0.38106 0.58591 0.75089
 N1101 N 0.36218 0.60478 0.75040
 C1102 C 0.36901 0.63107 0.75055
 N1103 N 0.39529 0.63792 0.75123
 N1104 N 0.41417 0.61905 0.75172
 C1105 C 0.42768 0.57243 0.75198
 C1106 C 0.44477 0.55536 0.75222
 C1107 C 0.34867 0.65140 0.75010
 C1108 C 0.33160 0.66848 0.74981
 C1109 C 0.90715 0.90797 0.74918
 N1110 N 0.88092 0.91466 0.75137
 N1111 N 0.86215 0.89571 0.75191
 C1112 C 0.86905 0.86949 0.75030
 N1113 N 0.89528 0.86280 0.74812
 N1114 N 0.91405 0.88175 0.74758
 C1115 C 0.92736 0.92836 0.74871
 C1116 C 0.94436 0.94548 0.74843
 C1117 C 0.84885 0.84910 0.75078
 C1118 C 0.83186 0.83196 0.75109
 C1119 C 0.40734 0.40750 0.24874
 N1120 N 0.41415 0.38121 0.24847
 N1121 N 0.39526 0.36235 0.24896
 C1122 C 0.36899 0.36922 0.24975
 N1123 N 0.36218 0.39551 0.25003
 N1124 N 0.38107 0.41437 0.24954
 C1125 C 0.42769 0.42781 0.24832
 C1126 C 0.44480 0.44486 0.24807
 C1127 C 0.34864 0.34890 0.25019
 C1128 C 0.33156 0.33183 0.25046
   
