data_POSCAR
  _audit_creation_date              2014-09-24
  _audit_creation_method            'ToBaCCo'
  _symmetry_space_group_name_H-M    'P1'
  _symmetry_Int_Tables_number       1
  _symmetry_cell_setting            triclinic
  loop_
  _symmetry_equiv_pos_as_xyz
 x,y,z
_cell_length_a 62.1360
_cell_length_b 62.1518
_cell_length_c 17.9981
_cell_angle_alpha 90.038200
_cell_angle_beta 90.114600
_cell_angle_gamma 119.863300
loop_
  _atom_site_label
  _atom_site_type_symbol
  _atom_site_fract_x
  _atom_site_fract_y
  _atom_site_fract_z
C1 C 0.23043 0.49922 0.46041
 C2 C 0.23081 0.50144 0.53976
 C3 C 0.25066 0.50200 0.57973
 C4 C 0.27016 0.50065 0.54482
 C5 C 0.26985 0.49874 0.46631
 C6 C 0.25017 0.49792 0.42594
 H7 H 0.25088 0.49705 0.36589
 H8 H 0.25080 0.50319 0.63987
 C9 C 0.49771 -0.27072 0.46207
 C10 C 0.49945 -0.26925 0.54095
 C11 C 0.50172 -0.24828 0.57755
 C12 C 0.50246 -0.22830 0.53855
 C13 C 0.49982 -0.23017 0.45994
 C14 C 0.49747 -0.25116 0.42331
 H15 H 0.49607 -0.25179 0.36321
 H16 H 0.50353 -0.24741 0.63757
 C17 C 1.26855 0.77227 0.46207
 C18 C 1.26530 0.77169 0.54055
 C19 C 1.24504 0.75116 0.57346
 C20 C 1.22803 0.73085 0.53091
 C21 C 1.23168 0.73078 0.45345
 C22 C 1.25182 0.75134 0.42025
 H23 H 1.25374 0.75127 0.36042
 H24 H 1.24259 0.75089 0.63317
 C25 C 0.76586 0.49016 0.46563
 C26 C 0.76653 0.49198 0.54446
 C27 C 0.74813 0.49511 0.58054
 C28 C 0.72854 0.49523 0.54106
 C29 C 0.72872 0.49415 0.46205
 C30 C 0.74700 0.49118 0.42603
 H31 H 0.74737 0.49109 0.36576
 H32 H 0.74779 0.49509 0.64073
 C33 C 0.49489 0.26740 0.46315
 C34 C 0.50117 0.27042 0.54002
 C35 C 0.50608 0.25292 0.57443
 C36 C 0.50392 0.23213 0.53602
 C37 C 0.49869 0.23009 0.45857
 C38 C 0.49385 0.24743 0.42397
 H39 H 0.49046 0.24609 0.36454
 H40 H 0.50910 0.25415 0.63396
 C41 C 0.72932 0.23153 0.46429
 C42 C 0.72853 0.23401 0.54212
 C43 C 0.74780 0.25477 0.57780
 C44 C 0.76808 0.27338 0.53800
 C45 C 0.76888 0.27041 0.45964
 C46 C 0.74945 0.24974 0.42422
 H47 H 0.75025 0.24752 0.36467
 H48 H 0.74658 0.25657 0.63733
 O49 O 0.96664 0.52062 -0.13677
 O50 O 0.93898 0.48888 -0.06286
 C51 C 0.94422 0.50477 -0.11601
 O52 O 1.03223 0.47389 -0.12496
 O53 O 1.06107 0.50821 -0.06124
 C54 C 1.05497 0.49015 -0.10805
 O55 O 0.96290 0.44390 -0.12919
 O56 O 0.93715 0.45174 -0.05737
 C57 C 0.94101 0.43935 -0.10831
 O58 O 1.03620 0.55448 -0.13324
 O59 O 1.06281 0.54670 -0.06527
 C60 C 1.05834 0.55926 -0.11433
 Zr61 Zr 1.00107 0.52632 -0.09529
 O62 O 1.00312 0.52565 -0.21263
 O63 O 0.99999 0.55982 -0.09924
 Zr64 Zr 0.99842 0.47077 -0.08876
 O65 O 1.00048 0.47039 -0.20612
 O66 O 0.99403 0.43477 -0.08344
 O67 O 0.97749 0.48814 -0.10568
 O68 O 1.02128 0.50833 -0.10643
 O69 O 1.03754 0.55777 0.12379
 O70 O 1.06363 0.54834 0.05967
 C71 C 1.05951 0.56210 0.10512
 O72 O 0.96429 0.44706 0.14254
 O73 O 0.93765 0.45366 0.07037
 C74 C 0.94213 0.44222 0.12309
 O75 O 1.03403 0.47815 0.13694
 O76 O 1.06199 0.51029 0.06443
 C77 C 1.05654 0.49405 0.11680
 O78 O 0.96834 0.52360 0.13563
 O79 O 0.93975 0.49048 0.06749
 C80 C 0.94566 0.50737 0.11807
 Zr81 Zr 1.00216 0.52867 0.09199
 O82 O 1.00585 0.53172 0.20907
 O83 O 1.00074 0.56199 0.08720
 Zr84 Zr 0.99954 0.47312 0.09848
 O85 O 1.00239 0.47494 0.21579
 O86 O 0.99560 0.43725 0.09954
 Zr87 Zr 0.96330 0.48266 0.00328
 Zr88 Zr 1.03739 0.51678 0.00026
 O89 O 1.02244 0.51104 0.10807
 O90 O 0.97883 0.49088 0.11091
 O91 O 1.02401 0.54201 -0.00299
 O92 O 0.97722 0.45797 0.00619
 O93 O 0.98020 0.52156 -0.00112
 O94 O 1.02103 0.47784 0.00452
 H95 H 1.03219 0.51296 -0.15056
 H96 H 0.96542 0.43987 0.00800
 H97 H 1.03372 0.51692 0.15162
 H98 H 0.96959 0.52930 -0.00182
 H99 H 1.00786 0.43589 -0.05314
 H100 H 1.01036 0.43840 0.07497
 H101 H 0.98960 0.47858 0.23460
 H102 H 0.99215 0.51634 0.23044
 H103 H 1.01482 0.57390 0.05641
 H104 H 1.01421 0.57233 -0.06986
 H105 H 0.98817 0.51052 -0.23045
 H106 H 0.98742 0.47346 -0.22615
 O107 O 0.44748 0.48271 0.13487
 O108 O 0.45478 0.51676 0.06624
 C109 C 0.44276 0.50020 0.11673
 O110 O 0.55853 0.51993 0.12571
 O111 O 0.54968 0.48545 0.05672
 C112 C 0.56300 0.50251 0.10477
 O113 O 0.52414 0.55526 0.13917
 O114 O 0.49186 0.55185 0.06861
 C115 C 0.50819 0.56209 0.12116
 O116 O 0.47849 0.44386 0.12590
 O117 O 0.51198 0.44977 0.05699
 C118 C 0.49488 0.43777 0.10596
 Zr119 Zr 0.47414 0.47424 0.09145
 O120 O 0.47503 0.47188 0.20864
 O121 O 0.43821 0.44258 0.08799
 Zr122 Zr 0.52977 0.52708 0.09342
 O123 O 0.53141 0.52487 0.21049
 O124 O 0.56315 0.56167 0.09449
 O125 O 0.49172 0.51252 0.10840
 O126 O 0.51194 0.48905 0.10485
 O127 O 0.47719 0.44500 -0.13386
 O128 O 0.51105 0.45005 -0.06850
 C129 C 0.49329 0.43834 -0.11625
 O130 O 0.52418 0.55717 -0.13388
 O131 O 0.49185 0.55277 -0.06185
 C132 C 0.50825 0.56376 -0.11359
 O133 O 0.55835 0.52144 -0.12985
 O134 O 0.54986 0.48641 -0.06442
 C135 C 0.56306 0.50401 -0.11090
 O136 O 0.44748 0.48454 -0.13693
 O137 O 0.45503 0.51781 -0.06384
 C138 C 0.44316 0.50210 -0.11663
 Zr139 Zr 0.47406 0.47554 -0.09612
 O140 O 0.47571 0.47507 -0.21357
 O141 O 0.43797 0.44412 -0.09747
 Zr142 Zr 0.52970 0.52823 -0.09404
 O143 O 0.53079 0.52719 -0.21150
 O144 O 0.56316 0.56274 -0.09270
 Zr145 Zr 0.48483 0.52134 0.00101
 Zr146 Zr 0.51893 0.48139 -0.00352
 O147 O 0.51184 0.49031 -0.11006
 O148 O 0.49166 0.51396 -0.10823
 O149 O 0.48000 0.45880 -0.00383
 O150 O 0.52379 0.54316 0.00120
 O151 O 0.46014 0.48279 -0.00121
 O152 O 0.54425 0.51985 -0.00142
 H153 H 0.51731 0.48295 0.14792
 H154 H 0.53152 0.56147 0.00253
 H155 H 0.51709 0.48450 -0.15405
 H156 H 0.44203 0.47658 -0.00134
 H157 H 0.57540 0.55988 0.06406
 H158 H 0.57532 0.56064 -0.06266
 H159 H 0.51555 0.52654 -0.23057
 H160 H 0.47786 0.49103 -0.23183
 H161 H 0.43833 0.43131 -0.06577
 H162 H 0.43946 0.42932 0.06136
 H163 H 0.47796 0.48788 0.22918
 H164 H 0.51579 0.52303 0.23069
 O165 O 0.47714 0.03424 0.12698
 O166 O 0.51017 0.06179 0.05662
 C167 C 0.49337 0.05663 0.10703
 O168 O 0.52315 -0.03200 0.13564
 O169 O 0.48939 -0.06064 0.06965
 C170 C 0.50687 -0.05470 0.11828
 O171 O 0.55298 0.03725 0.13801
 O172 O 0.54670 0.06312 0.06165
 C173 C 0.55785 0.05917 0.11650
 O174 O 0.44262 -0.03542 0.12576
 O175 O 0.45125 -0.06242 0.06345
 C176 C 0.43800 -0.05769 0.10896
 Zr177 Zr 0.47147 -0.00039 0.08879
 O178 O 0.46917 -0.00203 0.20620
 O179 O 0.43819 0.00109 0.08237
 Zr180 Zr 0.52698 0.00181 0.09570
 O181 O 0.52648 0.00044 0.21321
 O182 O 0.56223 0.00452 0.09107
 O183 O 0.50948 0.02292 0.10498
 O184 O 0.48908 -0.02062 0.10814
 O185 O 0.44402 -0.03778 -0.13205
 O186 O 0.45206 -0.06343 -0.06041
 C187 C 0.43932 -0.05965 -0.11052
 O188 O 0.55450 0.03428 -0.13610
 O189 O 0.54755 0.06183 -0.07023
 C190 C 0.55926 0.05663 -0.12045
 O191 O 0.52409 -0.03492 -0.12148
 O192 O 0.48959 -0.06217 -0.05578
 C193 C 0.50750 -0.05724 -0.10169
 O194 O 0.47913 0.03161 -0.14629
 O195 O 0.51103 0.06041 -0.07463
 C196 C 0.49523 0.05434 -0.12875
 Zr197 Zr 0.47259 -0.00219 -0.09797
 O198 O 0.47132 -0.00640 -0.21492
 O199 O 0.43943 -0.00042 -0.10045
 Zr200 Zr 0.52795 -0.00019 -0.09075
 O201 O 0.52787 -0.00423 -0.20756
 O202 O 0.56370 0.00363 -0.08371
 Zr203 Zr 0.51720 0.03694 -0.00436
 Zr204 Zr 0.48237 -0.03716 0.00241
 O205 O 0.49024 -0.02280 -0.10621
 O206 O 0.51075 0.02073 -0.11104
 O207 O 0.45731 -0.02364 -0.00319
 O208 O 0.54169 0.02280 0.00104
 O209 O 0.47827 0.02029 -0.00706
 O210 O 0.52123 -0.02126 0.00512
 H211 H 0.48364 -0.03133 0.15283
 H212 H 0.55978 0.03465 0.00167
 H213 H 0.48525 -0.03435 -0.14902
 H214 H 0.47079 0.03111 -0.00997
 H215 H 0.56761 0.00524 0.14332
 H216 H 0.56276 -0.00873 -0.04726
 H217 H 0.52429 0.00818 -0.22992
 H218 H 0.48727 0.00684 -0.23483
 H219 H 0.42674 -0.01478 -0.07217
 H220 H 0.42586 -0.01384 0.05515
 H221 H 0.48460 0.01213 0.22593
 H222 H 0.52099 0.01200 0.23083
 C223 C 1.20392 0.48498 0.34895
 C224 C 1.18629 0.48553 0.30200
 C225 C 1.17616 0.50063 0.31863
 C226 C 1.18470 0.51602 0.38163
 C227 C 1.20278 0.51592 0.42788
 C228 C 1.21227 0.49988 0.41357
 C229 C 1.15695 0.50012 0.26883
 C230 C 1.13740 0.50132 0.29480
 C231 C 1.11696 0.49870 0.24640
 C232 C 1.09281 0.48717 0.27502
 C233 C 1.07309 0.48486 0.23175
 C234 C 1.07720 0.49459 0.15937
 C235 C 1.10143 0.50622 0.13062
 C236 C 1.12113 0.50812 0.17355
 H237 H 1.21032 0.47211 0.33567
 H238 H 1.18006 0.47360 0.25349
 H239 H 1.17778 0.52852 0.39430
 H240 H 1.20970 0.52888 0.47385
 H241 H 1.15779 0.49643 0.21038
 H242 H 1.13530 0.50233 0.35426
 H243 H 1.08919 0.47990 0.33110
 H244 H 1.05470 0.47609 0.25590
 H245 H 1.10520 0.51405 0.07522
 H246 H 1.13966 0.51755 0.15050
 C247 C 0.48107 0.69960 0.35833
 C248 C 0.47997 0.67990 0.31776
 C249 C 0.49481 0.66965 0.33742
 C250 C 0.51053 0.67927 0.39960
 C251 C 0.51160 0.69891 0.44034
 C252 C 0.49667 0.70926 0.42108
 C253 C 0.49288 0.64867 0.29296
 C254 C 0.51132 0.64341 0.28782
 C255 C 0.50974 0.62241 0.24405
 C256 C 0.52666 0.61431 0.26007
 C257 C 0.52615 0.59476 0.22035
 C258 C 0.50875 0.58290 0.16307
 C259 C 0.49194 0.59115 0.14635
 C260 C 0.49246 0.61074 0.18614
 H261 H 0.46894 0.70662 0.34192
 H262 H 0.46752 0.67269 0.27052
 H263 H 0.52191 0.67159 0.41769
 H264 H 0.52482 0.70647 0.48555
 H265 H 0.47574 0.63760 0.26288
 H266 H 0.52849 0.65478 0.31758
 H267 H 0.54028 0.62306 0.30394
 H268 H 0.53943 0.58896 0.23466
 H269 H 0.47840 0.58256 0.10220
 H270 H 0.47957 0.61682 0.17017
 C271 C 0.29384 -0.18245 0.44521
 C272 C 0.31278 -0.16192 0.40885
 C273 C 0.32563 -0.16503 0.34973
 C274 C 0.31917 -0.18926 0.32788
 C275 C 0.30021 -0.20981 0.36419
 C276 C 0.28749 -0.20679 0.42449
 C277 C 0.34609 -0.14260 0.31444
 C278 C 0.35477 -0.14246 0.24613
 C279 C 0.37581 -0.12025 0.21209
 C280 C 0.38946 -0.12375 0.15616
 C281 C 0.40959 -0.10347 0.12280
 C282 C 0.41642 -0.07910 0.14408
 C283 C 0.40246 -0.07554 0.19906
 C284 C 0.38234 -0.09587 0.23268
 H285 H 0.28368 -0.17913 0.48817
 H286 H 0.31723 -0.14349 0.42653
 H287 H 0.32910 -0.19259 0.28427
 H288 H 0.29635 -0.22810 0.34704
 H289 H 0.35417 -0.12564 0.34665
 H290 H 0.34674 -0.15938 0.21380
 H291 H 0.38470 -0.14230 0.13876
 H292 H 0.41979 -0.10694 0.08024
 H293 H 0.40707 -0.05703 0.21627
 H294 H 0.37179 -0.09234 0.27376
 C295 C 0.78092 0.47182 0.36905
 C296 C 0.80005 0.47197 0.32800
 C297 C 0.82473 0.49091 0.33800
 C298 C 0.82996 0.50961 0.39094
 C299 C 0.81082 0.50945 0.43190
 C300 C 0.78619 0.49045 0.42175
 C301 C 0.84440 0.49000 0.29394
 C302 C 0.86669 0.50990 0.28068
 C303 C 0.88641 0.50880 0.23760
 C304 C 0.91118 0.52713 0.24995
 C305 C 0.93042 0.52675 0.21110
 C306 C 0.92527 0.50811 0.15830
 C307 C 0.90042 0.49001 0.14481
 C308 C 0.88119 0.49037 0.18381
 H309 H 0.76202 0.45701 0.36044
 H310 H 0.79553 0.45727 0.28803
 H311 H 0.84875 0.52412 0.40220
 H312 H 0.81523 0.52408 0.47205
 H313 H 0.84003 0.47213 0.27140
 H314 H 0.87113 0.52777 0.30325
 H315 H 0.91568 0.54167 0.29053
 H316 H 0.94933 0.54105 0.22264
 H317 H 0.89576 0.47549 0.10410
 H318 H 0.86232 0.47641 0.17064
 C319 C 0.47012 0.27912 0.37967
 C320 C 0.46714 0.29678 0.33990
 C321 C 0.48628 0.32161 0.33776
 C322 C 0.50836 0.32855 0.37740
 C323 C 0.51126 0.31092 0.41754
 C324 C 0.49209 0.28611 0.41942
 C325 C 0.48241 0.33989 0.29557
 C326 C 0.50112 0.36000 0.26388
 C327 C 0.49784 0.37853 0.22112
 C328 C 0.51590 0.39300 0.16856
 C329 C 0.51444 0.41166 0.12974
 C330 C 0.49500 0.41657 0.14329
 C331 C 0.47673 0.40192 0.19551
 C332 C 0.47811 0.38308 0.23409
 H333 H 0.45511 0.26006 0.38056
 H334 H 0.44992 0.29102 0.31028
 H335 H 0.52324 0.34765 0.37875
 H336 H 0.52837 0.31664 0.44773
 H337 H 0.46350 0.33585 0.28721
 H338 H 0.51968 0.36255 0.26626
 H339 H 0.53136 0.39000 0.15784
 H340 H 0.52895 0.42260 0.09024
 H341 H 0.46161 0.40532 0.20764
 H342 H 0.46417 0.37271 0.27557
 C343 C 0.71566 0.19466 0.38173
 C344 C 0.69720 0.17409 0.34382
 C345 C 0.67244 0.16875 0.34556
 C346 C 0.66639 0.18417 0.38732
 C347 C 0.68486 0.20465 0.42576
 C348 C 0.70962 0.21001 0.42329
 C349 C 0.65342 0.14653 0.30542
 C350 C 0.63239 0.14457 0.27833
 C351 C 0.61373 0.12247 0.23685
 C352 C 0.59865 0.12528 0.18415
 C353 C 0.58074 0.10482 0.14435
 C354 C 0.57725 0.08097 0.15733
 C355 C 0.59214 0.07811 0.21089
 C356 C 0.61017 0.09861 0.25023
 H357 H 0.73465 0.19843 0.37953
 H358 H 0.70229 0.16239 0.31263
 H359 H 0.64740 0.18022 0.39162
 H360 H 0.67986 0.21629 0.45762
 H361 H 0.65769 0.13194 0.29427
 H362 H 0.62927 0.16017 0.28282
 H363 H 0.60087 0.14342 0.17333
 H364 H 0.56950 0.10769 0.10388
 H365 H 0.58983 0.06000 0.22270
 H366 H 0.62092 0.09559 0.29206
 C367 C 0.52195 0.21913 -0.36337
 C368 C 0.52253 0.20044 -0.32174
 C369 C 0.50642 0.17533 -0.33825
 C370 C 0.48942 0.16931 -0.39711
 C371 C 0.48890 0.18796 -0.43893
 C372 C 0.50527 0.21324 -0.42334
 C373 C 0.50715 0.15617 -0.29064
 C374 C 0.49745 0.13229 -0.31067
 C375 C 0.49725 0.11295 -0.26197
 C376 C 0.47932 0.08809 -0.27511
 C377 C 0.47848 0.06912 -0.23142
 C378 C 0.49574 0.07456 -0.17374
 C379 C 0.51387 0.09946 -0.16089
 C380 C 0.51468 0.11845 -0.20460
 H381 H 0.53510 0.23825 -0.34956
 H382 H 0.53570 0.20564 -0.27641
 H383 H 0.47581 0.15031 -0.40984
 H384 H 0.47467 0.18242 -0.48111
 H385 H 0.51595 0.16219 -0.23683
 H386 H 0.48863 0.12617 -0.36434
 H387 H 0.46579 0.08331 -0.31921
 H388 H 0.46433 0.05017 -0.24315
 H389 H 0.52767 0.10430 -0.11760
 H390 H 0.52931 0.13726 -0.19416
 C391 C 0.68412 0.48147 -0.44393
 C392 C 0.66508 0.48309 -0.40832
 C393 C 0.66999 0.49789 -0.34501
 C394 C 0.69436 0.51092 -0.31720
 C395 C 0.71358 0.50965 -0.35363
 C396 C 0.70892 0.49547 -0.41915
 C397 C 0.64946 0.50005 -0.31145
 C398 C 0.64781 0.50314 -0.23850
 C399 C 0.62637 0.50397 -0.20629
 C400 C 0.61715 0.49287 -0.13715
 C401 C 0.59642 0.49270 -0.10654
 C402 C 0.58493 0.50422 -0.14371
 C403 C 0.59464 0.51600 -0.21193
 C404 C 0.61508 0.51574 -0.24323
 H405 H 0.67922 0.46886 -0.49052
 H406 H 0.64636 0.47254 -0.43001
 H407 H 0.69877 0.52282 -0.26898
 H408 H 0.73228 0.52088 -0.33249
 H409 H 0.63438 0.49740 -0.34770
 H410 H 0.66143 0.50314 -0.20083
 H411 H 0.62570 0.48389 -0.10748
 H412 H 0.58952 0.48374 -0.05342
 H413 H 0.58623 0.52512 -0.24156
 H414 H 0.62220 0.52495 -0.29589
 C415 C 0.79811 0.31824 -0.45290
 C416 C 0.81820 0.33807 -0.41740
 C417 C 0.82711 0.33460 -0.34958
 C418 C 0.81526 0.31090 -0.31712
 C419 C 0.79533 0.29097 -0.35301
 C420 C 0.78692 0.29410 -0.42289
 C421 C 0.84950 0.35567 -0.31627
 C422 C 0.85388 0.35811 -0.24300
 C423 C 0.87642 0.37914 -0.21037
 C424 C 0.87490 0.38802 -0.14013
 C425 C 0.89585 0.40771 -0.10741
 C426 C 0.91894 0.41855 -0.14362
 C427 C 0.92060 0.40934 -0.21337
 C428 C 0.89950 0.38988 -0.24667
 H429 H 0.79124 0.32197 -0.50373
 H430 H 0.82679 0.35624 -0.44301
 H431 H 0.82198 0.30744 -0.26553
 H432 H 0.78756 0.27279 -0.32785
 H433 H 0.86226 0.37012 -0.35333
 H434 H 0.83996 0.34510 -0.20513
 H435 H 0.85737 0.37986 -0.11084
 H436 H 0.89403 0.41424 -0.05326
 H437 H 0.93815 0.41730 -0.24243
 H438 H 0.90138 0.38299 -0.30010
 C439 C 0.52164 -0.18293 -0.44791
 C440 C 0.52427 -0.16226 -0.40931
 C441 C 0.51170 -0.16505 -0.34228
 C442 C 0.49645 -0.18912 -0.31432
 C443 C 0.49385 -0.20982 -0.35284
 C444 C 0.50593 -0.20714 -0.42128
 C445 C 0.51417 -0.14252 -0.30562
 C446 C 0.50830 -0.14166 -0.23439
 C447 C 0.50925 -0.11950 -0.20025
 C448 C 0.49341 -0.12292 -0.14051
 C449 C 0.49300 -0.10271 -0.10817
 C450 C 0.50871 -0.07850 -0.13432
 C451 C 0.52516 -0.07496 -0.19264
 C452 C 0.52546 -0.09524 -0.22528
 H453 H 0.53251 -0.17980 -0.49774
 H454 H 0.53632 -0.14395 -0.43188
 H455 H 0.48579 -0.19232 -0.26410
 H456 H 0.48127 -0.22804 -0.33065
 H457 H 0.52079 -0.12611 -0.33976
 H458 H 0.50151 -0.15797 -0.19987
 H459 H 0.48093 -0.14138 -0.11968
 H460 H 0.48025 -0.10611 -0.06287
 H461 H 0.53766 -0.05655 -0.21365
 H462 H 0.53856 -0.09176 -0.26949
 C463 C 0.28281 0.48578 -0.34669
 C464 C 0.30108 0.48420 -0.30571
 C465 C 0.32611 0.49817 -0.32592
 C466 C 0.33262 0.51395 -0.38783
 C467 C 0.31432 0.51527 -0.42952
 C468 C 0.28905 0.50074 -0.41071
 C469 C 0.34477 0.49493 -0.28385
 C470 C 0.36825 0.51319 -0.27480
 C471 C 0.38682 0.50968 -0.23329
 C472 C 0.40527 0.52960 -0.19267
 C473 C 0.42328 0.52696 -0.15372
 C474 C 0.42359 0.50451 -0.15623
 C475 C 0.40532 0.48465 -0.19788
 C476 C 0.38701 0.48715 -0.23573
 H477 H 0.26361 0.47416 -0.33046
 H478 H 0.29563 0.47185 -0.25834
 H479 H 0.35175 0.52480 -0.40539
 H480 H 0.32005 0.52791 -0.47612
 H481 H 0.33862 0.47724 -0.25689
 H482 H 0.37380 0.53164 -0.29497
 H483 H 0.40561 0.54719 -0.19056
 H484 H 0.43719 0.54265 -0.12251
 H485 H 0.40512 0.46715 -0.20105
 H486 H 0.37337 0.47164 -0.26815
 C487 C 1.18216 0.70315 -0.45362
 C488 C 1.16187 0.68352 -0.41837
 C489 C 1.16541 0.67080 -0.35940
 C490 C 1.18983 0.67795 -0.33718
 C491 C 1.21011 0.69758 -0.37254
 C492 C 1.20644 0.71024 -0.43125
 C493 C 1.14322 0.64991 -0.32442
 C494 C 1.14326 0.64111 -0.25633
 C495 C 1.12106 0.62014 -0.22175
 C496 C 1.12456 0.60666 -0.16515
 C497 C 1.10425 0.58687 -0.13052
 C498 C 1.07988 0.58024 -0.15125
 C499 C 1.07635 0.59397 -0.20720
 C500 C 1.09668 0.61373 -0.24197
 H501 H 1.17891 0.71284 -0.49839
 H502 H 1.14332 0.67836 -0.43692
 H503 H 1.19353 0.66821 -0.29377
 H504 H 1.22873 0.70265 -0.35494
 H505 H 1.12621 0.64174 -0.35642
 H506 H 1.16024 0.64916 -0.22422
 H507 H 1.14311 0.61134 -0.14798
 H508 H 1.10770 0.57683 -0.08733
 H509 H 1.05785 0.58953 -0.22406
 H510 H 1.09312 0.62415 -0.28346
 C511 C 0.79157 0.47219 -0.42922
 C512 C 0.81005 0.47097 -0.38832
 C513 C 0.82216 0.48761 -0.32993
 C514 C 0.81458 0.50473 -0.31051
 C515 C 0.79577 0.50569 -0.35057
 C516 C 0.78452 0.48998 -0.41221
 C517 C 0.84224 0.48633 -0.28957
 C518 C 0.86217 0.50653 -0.26242
 C519 C 0.88293 0.50549 -0.22544
 C520 C 0.90699 0.52595 -0.23083
 C521 C 0.92700 0.52562 -0.19631
 C522 C 0.92323 0.50496 -0.15438
 C523 C 0.89906 0.48460 -0.14817
 C524 C 0.87913 0.48482 -0.18346
 H525 H 0.78243 0.45879 -0.47328
 H526 H 0.81517 0.45722 -0.40310
 H527 H 0.82310 0.51732 -0.26421
 H528 H 0.79088 0.51956 -0.33527
 H529 H 0.84145 0.46853 -0.28734
 H530 H 0.86417 0.52465 -0.27178
 H531 H 0.91033 0.54216 -0.26239
 H532 H 0.94536 0.54167 -0.20160
 H533 H 0.89553 0.46842 -0.11610
 H534 H 0.86072 0.46900 -0.17658
 C535 C 0.52003 0.30166 -0.36085
 C536 C 0.52087 0.32087 -0.31820
 C537 C 0.50312 0.32828 -0.32804
 C538 C 0.48450 0.31612 -0.38204
 C539 C 0.48365 0.29694 -0.42472
 C540 C 0.50167 0.28965 -0.41600
 C541 C 0.50526 0.34930 -0.28310
 C542 C 0.48617 0.35314 -0.27021
 C543 C 0.48846 0.37481 -0.22866
 C544 C 0.47066 0.38202 -0.24127
 C545 C 0.47217 0.40253 -0.20462
 C546 C 0.49144 0.41624 -0.15378
 C547 C 0.50898 0.40870 -0.13975
 C548 C 0.50750 0.38819 -0.17663
 H549 H 0.53444 0.29693 -0.35247
 H550 H 0.53554 0.33004 -0.27741
 H551 H 0.47069 0.32147 -0.39266
 H552 H 0.46836 0.28739 -0.46321
 H553 H 0.52337 0.36198 -0.26036
 H554 H 0.46804 0.34037 -0.29269
 H555 H 0.45568 0.37192 -0.28050
 H556 H 0.45823 0.40768 -0.21649
 H557 H 0.52392 0.41867 -0.10033
 H558 H 0.52111 0.38277 -0.16333
 C559 C 0.69423 0.22124 -0.36542
 C560 C 0.67512 0.20316 -0.32212
 C561 C 0.66961 0.17835 -0.32483
 C562 C 0.68414 0.17212 -0.37031
 C563 C 0.70324 0.19020 -0.41343
 C564 C 0.70826 0.21483 -0.41200
 C565 C 0.64928 0.15973 -0.27775
 C566 C 0.63675 0.13546 -0.29450
 C567 C 0.61699 0.11609 -0.24761
 C568 C 0.61072 0.09135 -0.25982
 C569 C 0.59220 0.07221 -0.21813
 C570 C 0.57925 0.07727 -0.16323
 C571 C 0.58533 0.10203 -0.15114
 C572 C 0.60399 0.12127 -0.19293
 H573 H 0.69795 0.24020 -0.36311
 H574 H 0.66445 0.20852 -0.28690
 H575 H 0.68125 0.15347 -0.37167
 H576 H 0.71430 0.18501 -0.44748
 H577 H 0.64458 0.16649 -0.22855
 H578 H 0.64139 0.12911 -0.34475
 H579 H 0.62029 0.08678 -0.30174
 H580 H 0.58799 0.05339 -0.22937
 H581 H 0.57555 0.10655 -0.10982
 H582 H 0.60773 0.13997 -0.18295
 C583 C 1.21750 0.51815 -0.35808
 C584 C 1.19891 0.51852 -0.31574
 C585 C 1.17384 0.50191 -0.33062
 C586 C 1.16767 0.48502 -0.38990
 C587 C 1.18631 0.48476 -0.43288
 C588 C 1.21156 0.50151 -0.41810
 C589 C 1.15491 0.50354 -0.28466
 C590 C 1.13200 0.48440 -0.27320
 C591 C 1.11294 0.48609 -0.22775
 C592 C 1.08794 0.46823 -0.23882
 C593 C 1.06922 0.46932 -0.19909
 C594 C 1.07505 0.48826 -0.14668
 C595 C 1.10014 0.50575 -0.13380
 C596 C 1.11890 0.50465 -0.17364
 H597 H 1.23664 0.53158 -0.34528
 H598 H 1.20418 0.53185 -0.27087
 H599 H 1.14852 0.47226 -0.40416
 H600 H 1.18094 0.47115 -0.47696
 H601 H 1.16050 0.52125 -0.25863
 H602 H 1.12659 0.46672 -0.29929
 H603 H 1.08280 0.45358 -0.27943
 H604 H 1.05012 0.45544 -0.21030
 H605 H 1.10532 0.52044 -0.09334
 H606 H 1.13794 0.51826 -0.16115
 C607 C 0.47599 0.68643 -0.41688
 C608 C 0.47429 0.66688 -0.37407
 C609 C 0.49377 0.67061 -0.32642
 C610 C 0.51458 0.69454 -0.32000
 C611 C 0.51617 0.71410 -0.36232
 C612 C 0.49712 0.71010 -0.41209
 C613 C 0.49183 0.64936 -0.28373
 C614 C 0.51175 0.64738 -0.26617
 C615 C 0.51017 0.62578 -0.22659
 C616 C 0.52861 0.61948 -0.23930
 C617 C 0.52792 0.59932 -0.20287
 C618 C 0.50897 0.58523 -0.15179
 C619 C 0.49077 0.59189 -0.13785
 C620 C 0.49130 0.61190 -0.17505
 H621 H 0.46094 0.68310 -0.45421
 H622 H 0.45796 0.64869 -0.37923
 H623 H 0.52955 0.69823 -0.28199
 H624 H 0.53249 0.73230 -0.35731
 H625 H 0.47342 0.63424 -0.27122
 H626 H 0.52987 0.66133 -0.28571
 H627 H 0.54347 0.63004 -0.27822
 H628 H 0.54235 0.59486 -0.21462
 H629 H 0.47612 0.58168 -0.09809
 H630 H 0.47721 0.61672 -0.16228
 C631 C 0.27696 -0.19582 -0.36101
 C632 C 0.29486 -0.17638 -0.31794
 C633 C 0.31988 -0.17014 -0.32128
 C634 C 0.32668 -0.18380 -0.36856
 C635 C 0.30882 -0.20313 -0.41189
 C636 C 0.28391 -0.20900 -0.40940
 C637 C 0.33855 -0.14842 -0.27852
 C638 C 0.36024 -0.14598 -0.25604
 C639 C 0.37950 -0.12374 -0.21669
 C640 C 0.39630 -0.12615 -0.17016
 C641 C 0.41544 -0.10542 -0.13474
 C642 C 0.41845 -0.08168 -0.14609
 C643 C 0.40166 -0.07924 -0.19288
 C644 C 0.38237 -0.10004 -0.22781
 H645 H 0.25783 -0.20007 -0.35845
 H646 H 0.28919 -0.16603 -0.28235
 H647 H 0.34586 -0.17914 -0.37420
 H648 H 0.31450 -0.21316 -0.44877
 H649 H 0.33386 -0.13439 -0.26349
 H650 H 0.36386 -0.16114 -0.26446
 H651 H 0.39463 -0.14416 -0.16127
 H652 H 0.42812 -0.10798 -0.09940
 H653 H 0.40351 -0.06122 -0.20303
 H654 H 0.37021 -0.09736 -0.26502
 C655 C 0.47803 -0.20661 0.42849
 C656 C 0.47635 -0.18835 0.38784
 C657 C 0.49402 -0.17469 0.33325
 C658 C 0.51285 -0.18034 0.31772
 C659 C 0.51435 -0.19879 0.35782
 C660 C 0.49727 -0.21168 0.41451
 C661 C 0.49207 -0.15503 0.29269
 C662 C 0.51197 -0.13447 0.26744
 C663 C 0.51017 -0.11435 0.22918
 C664 C 0.53000 -0.08994 0.23475
 C665 C 0.52891 -0.07049 0.19932
 C666 C 0.50809 -0.07516 0.15644
 C667 C 0.48841 -0.09972 0.14979
 C668 C 0.48941 -0.11910 0.18579
 H669 H 0.46450 -0.21661 0.47143
 H670 H 0.46150 -0.18454 0.40006
 H671 H 0.52629 -0.17069 0.27434
 H672 H 0.52917 -0.20266 0.34585
 H673 H 0.47385 -0.15685 0.28812
 H674 H 0.53037 -0.13148 0.27906
 H675 H 0.54629 -0.08587 0.26727
 H676 H 0.54446 -0.05183 0.20507
 H677 H 0.47214 -0.10401 0.11685
 H678 H 0.47411 -0.13780 0.17847
 C679 C 0.29291 0.47606 0.43879
 C680 C 0.31206 0.47456 0.40292
 C681 C 0.32730 0.49269 0.35121
 C682 C 0.32282 0.51237 0.33586
 C683 C 0.30365 0.51382 0.37172
 C684 C 0.28886 0.49594 0.42438
 C685 C 0.34822 0.49097 0.31761
 C686 C 0.35995 0.50285 0.25526
 C687 C 0.38137 0.50182 0.22272
 C688 C 0.39667 0.52043 0.17245
 C689 C 0.41677 0.52011 0.13899
 C690 C 0.42200 0.50101 0.15463
 C691 C 0.40670 0.48234 0.20498
 C692 C 0.38656 0.48266 0.23846
 H693 H 0.28157 0.46199 0.47898
 H694 H 0.31510 0.45928 0.41605
 H695 H 0.33445 0.52717 0.29826
 H696 H 0.30088 0.52938 0.36031
 H697 H 0.35406 0.47945 0.34626
 H698 H 0.35404 0.51430 0.22652
 H699 H 0.39308 0.53534 0.15899
 H700 H 0.42811 0.53479 0.10044
 H701 H 0.41003 0.46722 0.21774
 H702 H 0.37489 0.46753 0.27506
 C703 C 1.20986 0.68554 0.41997
 C704 C 1.19290 0.66565 0.37624
 C705 C 1.18029 0.66955 0.31766
 C706 C 1.18580 0.69393 0.30152
 C707 C 1.20275 0.71378 0.34515
 C708 C 1.21458 0.70970 0.40550
 C709 C 1.16142 0.64792 0.27500
 C710 C 1.14162 0.64758 0.24399
 C711 C 1.12126 0.62554 0.20696
 C712 C 1.09758 0.62307 0.20604
 C713 C 1.07764 0.60251 0.17284
 C714 C 1.08100 0.58407 0.13860
 C715 C 1.10486 0.58679 0.13770
 C716 C 1.12483 0.60732 0.17179
 H717 H 1.21913 0.68207 0.46554
 H718 H 1.18921 0.64710 0.38922
 H719 H 1.17711 0.69778 0.25518
 H720 H 1.20634 0.73232 0.33261
 H721 H 1.16285 0.63125 0.27469
 H722 H 1.13904 0.66345 0.25112
 H723 H 1.09439 0.63695 0.23211
 H724 H 1.05957 0.60113 0.17388
 H725 H 1.10805 0.57294 0.11143
 H726 H 1.14300 0.60899 0.16972
 C727 C 0.52268 0.21015 0.41229
 C728 C 0.52472 0.19280 0.36790
 C729 C 0.50514 0.17684 0.32101
 C730 C 0.48378 0.17922 0.31726
 C731 C 0.48178 0.19664 0.36149
 C732 C 0.50103 0.21195 0.41029
 C733 C 0.50766 0.15810 0.27673
 C734 C 0.48809 0.13634 0.25673
 C735 C 0.49022 0.11654 0.21734
 C736 C 0.47110 0.09195 0.22587
 C737 C 0.47221 0.07259 0.19021
 C738 C 0.49236 0.07740 0.14414
 C739 C 0.51135 0.10210 0.13437
 C740 C 0.51033 0.12151 0.17067
 H741 H 0.53795 0.22213 0.44852
 H742 H 0.54148 0.19156 0.37110
 H743 H 0.46867 0.16784 0.27987
 H744 H 0.46505 0.19793 0.35845
 H745 H 0.52625 0.16161 0.26556
 H746 H 0.46971 0.13194 0.27458
 H747 H 0.45532 0.08764 0.26098
 H748 H 0.45715 0.05383 0.19864
 H749 H 0.52704 0.10646 0.09885
 H750 H 0.52508 0.14032 0.16111
 C751 C 0.71008 0.52032 0.42605
 C752 C 0.69273 0.52375 0.38618
 C753 C 0.67719 0.50614 0.33353
 C754 C 0.67964 0.48508 0.32080
 C755 C 0.69700 0.48165 0.36079
 C756 C 0.71193 0.49895 0.41490
 C757 C 0.65772 0.50965 0.29721
 C758 C 0.64632 0.49842 0.23368
 C759 C 0.62548 0.50042 0.20081
 C760 C 0.60918 0.48162 0.15238
 C761 C 0.58891 0.48228 0.12139
 C762 C 0.58457 0.50193 0.13766
 C763 C 0.60116 0.52103 0.18501
 C764 C 0.62146 0.52037 0.21604
 H765 H 0.72164 0.53401 0.46705
 H766 H 0.69121 0.54008 0.39723
 H767 H 0.66763 0.47068 0.28241
 H768 H 0.69809 0.46499 0.35171
 H769 H 0.65242 0.52166 0.32544
 H770 H 0.65164 0.48643 0.20541
 H771 H 0.61193 0.46614 0.13926
 H772 H 0.57656 0.46726 0.08501
 H773 H 0.59855 0.53661 0.19787
 H774 H 0.63403 0.53570 0.25093
 C775 C 0.81438 0.29118 0.43137
 C776 C 0.83515 0.30881 0.39243
 C777 C 0.83255 0.32275 0.33539
 C778 C 0.80856 0.31765 0.31502
 C779 C 0.78781 0.30000 0.35390
 C780 C 0.79065 0.28719 0.41375
 C781 C 0.85517 0.34236 0.29863
 C782 C 0.85632 0.36260 0.26813
 C783 C 0.87881 0.38278 0.23243
 C784 C 0.87586 0.39819 0.18151
 C785 C 0.89639 0.41753 0.14649
 C786 C 0.92050 0.42211 0.16217
 C787 C 0.92356 0.40701 0.21433
 C788 C 0.90295 0.38756 0.24921
 H789 H 0.81687 0.28114 0.47664
 H790 H 0.85336 0.31208 0.40833
 H791 H 0.80569 0.32723 0.26928
 H792 H 0.76958 0.29688 0.33884
 H793 H 0.87143 0.34026 0.29931
 H794 H 0.84000 0.36463 0.26843
 H795 H 0.85752 0.39510 0.16816
 H796 H 0.89331 0.42886 0.10694
 H797 H 0.94187 0.41013 0.22806
 H798 H 0.90613 0.37666 0.28996
   
