data_POSCAR
  _audit_creation_date              2014-09-24
  _audit_creation_method            'ToBaCCo'
  _symmetry_space_group_name_H-M    'P1'
  _symmetry_Int_Tables_number       1
  _symmetry_cell_setting            triclinic
  loop_
  _symmetry_equiv_pos_as_xyz
 x,y,z
_cell_length_a 57.7567
_cell_length_b 57.7305
_cell_length_c 42.0293
_cell_angle_alpha 90.003400
_cell_angle_beta 89.985100
_cell_angle_gamma 89.983600
loop_
  _atom_site_label
  _atom_site_type_symbol
  _atom_site_fract_x
  _atom_site_fract_y
  _atom_site_fract_z
O1 O -0.02501 0.28661 0.02344
 O2 O 0.01979 0.28551 -0.03940
 O3 O -0.02558 0.28568 -0.03842
 O4 O 0.02034 0.28687 0.02255
 O5 O 0.02032 0.24868 0.02375
 O6 O -0.02538 0.24749 -0.03694
 O7 O 0.01962 0.24736 -0.03792
 O8 O -0.02464 0.24842 0.02464
 Cu9 Cu -0.00260 0.29002 -0.00810
 Cu10 Cu -0.00250 0.24419 -0.00650
 C11 C -0.03259 0.26760 0.03461
 C12 C 0.02751 0.26615 -0.04931
 C13 C -0.03349 0.26633 -0.04788
 C14 C 0.02828 0.26793 0.03344
 O15 O 0.52525 0.78757 0.47663
 O16 O 0.47892 0.78490 0.53698
 O17 O 0.52424 0.78464 0.53839
 O18 O 0.47983 0.78750 0.47519
 O19 O 0.48011 0.74936 0.47204
 O20 O 0.52399 0.74651 0.53506
 O21 O 0.47900 0.74678 0.53359
 O22 O 0.52515 0.74943 0.47355
 Cu23 Cu 0.50206 0.78999 0.50709
 Cu24 Cu 0.50206 0.74423 0.50321
 C25 C 0.53329 0.76890 0.46501
 C26 C 0.47093 0.76534 0.54544
 C27 C 0.53179 0.76501 0.54739
 C28 C 0.47224 0.76882 0.46300
 O29 O 1.02580 0.71713 0.03709
 O30 O 0.97959 0.71441 -0.02361
 O31 O 1.02501 0.71468 -0.02474
 O32 O 0.98049 0.71674 0.03824
 O33 O 0.98037 0.75489 0.03535
 O34 O 1.02452 0.75279 -0.02744
 O35 O 0.97949 0.75256 -0.02625
 O36 O 1.02535 0.75523 0.03413
 Cu37 Cu 1.00275 0.71190 0.00699
 Cu38 Cu 1.00240 0.75765 0.00365
 C39 C 1.03361 0.73671 0.04590
 C40 C 0.97151 0.73310 -0.03511
 C41 C 1.03259 0.73345 -0.03669
 C42 C 0.97273 0.73623 0.04744
 O43 O 0.47469 0.21226 0.46148
 O44 O 0.51912 0.21110 0.52458
 O45 O 0.47379 0.21149 0.52332
 O46 O 0.52010 0.21194 0.46269
 O47 O 0.52022 0.25014 0.46378
 O48 O 0.47426 0.24969 0.52413
 O49 O 0.51922 0.24930 0.52544
 O50 O 0.47518 0.25045 0.46253
 Cu51 Cu 0.49691 0.20784 0.49290
 Cu52 Cu 0.49725 0.25370 0.49404
 C53 C 0.46719 0.23163 0.45144
 C54 C 0.52686 0.23006 0.53566
 C55 C 0.46600 0.23059 0.53392
 C56 C 0.52821 0.23118 0.45308
 O57 O 0.71304 0.02059 -0.02984
 O58 O 0.71530 -0.02370 0.03350
 O59 O 0.71475 0.02159 0.03209
 O60 O 0.71357 -0.02483 -0.02834
 O61 O 0.75173 -0.02423 -0.03030
 O62 O 0.75290 0.02184 0.02989
 O63 O 0.75341 -0.02313 0.03130
 O64 O 0.75120 0.02080 -0.03178
 Cu65 Cu 0.71032 -0.00162 0.00201
 Cu66 Cu 0.75610 -0.00113 -0.00045
 C67 C 0.73181 0.02839 -0.04147
 C68 C 0.73481 -0.03112 0.04317
 C69 C 0.73410 0.02969 0.04125
 C70 C 0.73252 -0.03261 -0.03943
 O71 O 0.21368 0.52534 0.46450
 O72 O 0.21240 0.47836 0.52401
 O73 O 0.21347 0.52363 0.52642
 O74 O 0.21286 0.47995 0.46217
 O75 O 0.25104 0.47939 0.46255
 O76 O 0.25164 0.52259 0.52663
 O77 O 0.25058 0.47764 0.52418
 O78 O 0.25186 0.52443 0.46496
 Cu79 Cu 0.20926 0.50192 0.49421
 Cu80 Cu 0.25508 0.50094 0.49458
 C81 C 0.23304 0.53305 0.45476
 C82 C 0.23132 0.46987 0.53412
 C83 C 0.23274 0.53063 0.53743
 C84 C 0.23191 0.47205 0.45159
 O85 O 0.28575 1.02559 0.02345
 O86 O 0.28575 0.97877 -0.03642
 O87 O 0.28472 1.02419 -0.03836
 O88 O 0.28649 0.98021 0.02549
 O89 O 0.24832 0.97980 0.02644
 O90 O 0.24659 1.02322 -0.03720
 O91 O 0.24759 0.97820 -0.03518
 O92 O 0.24762 1.02478 0.02432
 Cu93 Cu 0.28952 1.00225 -0.00658
 Cu94 Cu 0.24374 1.00142 -0.00531
 C95 C 0.26662 1.03339 0.03394
 C96 C 0.26661 0.97035 -0.04583
 C97 C 0.26526 1.03144 -0.04850
 C98 C 0.26761 0.97240 0.03675
 O99 O 0.78789 0.52053 0.53262
 O100 O 0.78819 0.47706 0.46809
 O101 O 0.78916 0.52247 0.47082
 O102 O 0.78720 0.47519 0.52988
 O103 O 0.74903 0.47603 0.52839
 O104 O 0.75099 0.52313 0.46970
 O105 O 0.75003 0.47812 0.46685
 O106 O 0.74971 0.52100 0.53124
 Cu107 Cu 0.79196 0.49874 0.50045
 Cu108 Cu 0.74615 0.49965 0.49890
 C109 C 0.76866 0.52830 0.54281
 C110 C 0.76907 0.47000 0.45666
 C111 C 0.77036 0.53106 0.46043
 C112 C 0.76772 0.46740 0.53904
 C113 C 0.23948 0.21381 0.19292
 C114 C 0.21873 0.22292 0.18129
 C115 C 0.20980 0.24387 0.19256
 C116 C 0.22182 0.25619 0.21648
 C117 C 0.24303 0.24727 0.22838
 C118 C 0.25196 0.22605 0.21647
 C119 C 0.27295 0.21753 0.22869
 C120 C 0.28511 0.22972 0.25184
 C121 C 0.27652 0.25067 0.26417
 C122 C 0.25531 0.25959 0.25227
 C123 C 0.21336 0.27727 0.22853
 C124 C 0.22528 0.28921 0.25218
 C125 C 0.24635 0.28078 0.26424
 C126 C 0.25860 0.29278 0.28825
 C127 C 0.27953 0.28384 0.29954
 C128 C 0.28867 0.26310 0.28785
 H129 H 0.28021 0.20133 0.22043
 H130 H 0.30134 0.22250 0.26000
 H131 H 0.19739 0.28474 0.21983
 H132 H 0.21778 0.30518 0.26090
 H133 H 0.20931 0.21349 0.16308
 H134 H 0.28888 0.29320 0.31789
 C135 C 0.74910 0.71894 0.31398
 C136 C 0.72837 0.72805 0.32574
 C137 C 0.71913 0.74875 0.31406
 C138 C 0.73107 0.76105 0.29002
 C139 C 0.75225 0.75216 0.27799
 C140 C 0.76135 0.73105 0.29005
 C141 C 0.78273 0.72299 0.27853
 C142 C 0.79481 0.73519 0.25530
 C143 C 0.78597 0.75591 0.24263
 C144 C 0.76456 0.76458 0.25422
 C145 C 0.72274 0.78230 0.27836
 C146 C 0.73477 0.79444 0.25501
 C147 C 0.75562 0.78583 0.24244
 C148 C 0.76813 0.79821 0.21904
 C149 C 0.78927 0.78951 0.20808
 C150 C 0.79827 0.76857 0.21929
 H151 H 0.79052 0.70732 0.28772
 H152 H 0.81134 0.72833 0.24769
 H153 H 0.70696 0.78993 0.28748
 H154 H 0.72770 0.81085 0.24725
 H155 H 0.71900 0.71860 0.34397
 H156 H 0.79868 0.79900 0.18992
 C157 C 0.79169 0.23885 0.20477
 C158 C 0.78369 0.21705 0.19540
 C159 C 0.76287 0.20798 0.20693
 C160 C 0.74977 0.22082 0.22926
 C161 C 0.75771 0.24295 0.23916
 C162 C 0.77868 0.25207 0.22676
 C163 C 0.78628 0.27393 0.23709
 C164 C 0.77351 0.28669 0.25902
 C165 C 0.75286 0.27790 0.27195
 C166 C 0.74476 0.25590 0.26176
 C167 C 0.72929 0.21189 0.24252
 C168 C 0.71659 0.22459 0.26463
 C169 C 0.72388 0.24672 0.27435
 C170 C 0.71115 0.25971 0.29690
 C171 C 0.71934 0.28137 0.30662
 C172 C 0.73996 0.29058 0.29466
 H173 H 0.80228 0.28138 0.22844
 H174 H 0.78005 0.30355 0.26576
 H175 H 0.72301 0.19484 0.23625
 H176 H 0.70109 0.21675 0.27427
 H177 H 0.79361 0.20717 0.17817
 H178 H 0.70957 0.29118 0.32409
 C179 C 0.29298 0.74613 0.29905
 C180 C 0.28387 0.72540 0.31082
 C181 C 0.26229 0.71712 0.30099
 C182 C 0.24926 0.72985 0.27850
 C183 C 0.25832 0.75086 0.26611
 C184 C 0.28024 0.75907 0.27647
 C185 C 0.28888 0.77988 0.26381
 C186 C 0.27608 0.79264 0.24190
 C187 C 0.25434 0.78488 0.23134
 C188 C 0.24535 0.76379 0.24353
 C189 C 0.22722 0.72244 0.26863
 C190 C 0.21451 0.73510 0.24652
 C191 C 0.22333 0.75569 0.23342
 C192 C 0.21048 0.76874 0.21104
 C193 C 0.21942 0.78968 0.19972
 C194 C 0.24110 0.79785 0.20932
 H195 H 0.30563 0.78655 0.27078
 H196 H 0.28341 0.80875 0.23343
 H197 H 0.21947 0.70685 0.27813
 H198 H 0.19753 0.72871 0.24011
 H199 H 0.29371 0.71558 0.32820
 H200 H 0.20956 0.79955 0.18243
 C201 C 0.78551 0.23666 0.79281
 C202 C 0.77630 0.21605 0.80477
 C203 C 0.75527 0.20719 0.79373
 C204 C 0.74301 0.21912 0.76965
 C205 C 0.75203 0.24020 0.75744
 C206 C 0.77331 0.24908 0.76915
 C207 C 0.78192 0.26995 0.75666
 C208 C 0.76973 0.28210 0.73347
 C209 C 0.74871 0.27357 0.72136
 C210 C 0.73974 0.25244 0.73348
 C211 C 0.72190 0.21069 0.75774
 C212 C 0.71000 0.22254 0.73399
 C213 C 0.71851 0.24352 0.72169
 C214 C 0.70652 0.25573 0.69764
 C215 C 0.71547 0.27660 0.68616
 C216 C 0.73624 0.28573 0.69770
 H217 H 0.79818 0.27715 0.76472
 H218 H 0.77701 0.29825 0.72510
 H219 H 0.71437 0.19480 0.76664
 H220 H 0.69400 0.21507 0.72540
 H221 H 0.78568 0.20671 0.82310
 H222 H 0.70608 0.28594 0.66784
 C223 C 0.29248 0.73375 0.71066
 C224 C 0.28413 0.71212 0.70110
 C225 C 0.26305 0.70344 0.71229
 C226 C 0.25009 0.71644 0.73459
 C227 C 0.25833 0.73844 0.74460
 C228 C 0.27953 0.74721 0.73244
 C229 C 0.28738 0.76899 0.74279
 C230 C 0.27459 0.78204 0.76439
 C231 C 0.25372 0.77359 0.77706
 C232 C 0.24545 0.75161 0.76700
 C233 C 0.22943 0.70781 0.74769
 C234 C 0.21686 0.72067 0.76976
 C235 C 0.22443 0.74270 0.77950
 C236 C 0.21181 0.75587 0.80196
 C237 C 0.22008 0.77756 0.81139
 C238 C 0.24075 0.78658 0.79936
 H239 H 0.30356 0.77616 0.73437
 H240 H 0.28132 0.79882 0.77115
 H241 H 0.22292 0.69086 0.74134
 H242 H 0.20120 0.71307 0.77928
 H243 H 0.29396 0.70212 0.68390
 H244 H 0.21030 0.78755 0.82866
 C245 C 0.23250 0.20628 0.78314
 C246 C 0.21089 0.21460 0.79280
 C247 C 0.20204 0.23557 0.78141
 C248 C 0.21489 0.24848 0.75889
 C249 C 0.23684 0.24021 0.74870
 C250 C 0.24574 0.21910 0.76097
 C251 C 0.26742 0.21118 0.75034
 C252 C 0.28025 0.22382 0.72835
 C253 C 0.27170 0.24464 0.71563
 C254 C 0.24983 0.25300 0.72599
 C255 C 0.20617 0.26909 0.74573
 C256 C 0.21889 0.28161 0.72346
 C257 C 0.24085 0.27401 0.71351
 C258 C 0.25389 0.28657 0.69084
 C259 C 0.27544 0.27817 0.68104
 C260 C 0.28448 0.25746 0.69297
 H261 H 0.27467 0.19504 0.75880
 H262 H 0.29696 0.21704 0.72137
 H263 H 0.18925 0.27561 0.75221
 H264 H 0.21122 0.29723 0.71393
 H265 H 0.20101 0.20484 0.81020
 H266 H 0.28531 0.28788 0.66358
 C267 C 0.73806 0.70223 0.71569
 C268 C 0.71639 0.71034 0.70590
 C269 C 0.70734 0.73127 0.71713
 C270 C 0.72004 0.74434 0.73964
 C271 C 0.74206 0.73632 0.74990
 C272 C 0.75117 0.71525 0.73779
 C273 C 0.77292 0.70758 0.74848
 C274 C 0.78562 0.72043 0.77039
 C275 C 0.77688 0.74124 0.78293
 C276 C 0.75492 0.74932 0.77251
 C277 C 0.71109 0.76489 0.75270
 C278 C 0.72368 0.77761 0.77486
 C279 C 0.74574 0.77031 0.78481
 C280 C 0.75867 0.78314 0.80729
 C281 C 0.78030 0.77500 0.81716
 C282 C 0.78955 0.75432 0.80544
 H283 H 0.78033 0.69148 0.74012
 H284 H 0.80239 0.71384 0.77744
 H285 H 0.69409 0.77120 0.74623
 H286 H 0.71583 0.79318 0.78431
 H287 H 0.70664 0.70045 0.68851
 H288 H 0.79010 0.78493 0.83446
 C289 C 0.26521 0.09055 0.09673
 C290 C 0.24460 0.07984 0.08738
 C291 C 0.24510 0.06070 0.06712
 C292 C 0.26632 0.05188 0.05573
 C293 C 0.28704 0.06252 0.06590
 C294 C 0.28644 0.08176 0.08618
 C295 C 0.26417 0.11109 0.11609
 C296 C 0.26212 0.12847 0.13173
 C297 C 0.25822 0.14934 0.14968
 C298 C 0.23943 0.15048 0.17067
 C299 C 0.23389 0.17135 0.18565
 C300 C 0.24716 0.19127 0.17989
 C301 C 0.26632 0.18998 0.15939
 C302 C 0.27183 0.16905 0.14434
 H303 H 0.22806 0.08653 0.09539
 H304 H 0.22876 0.05306 0.06005
 H305 H 0.30372 0.05628 0.05778
 H306 H 0.30251 0.08995 0.09326
 H307 H 0.22866 0.13541 0.17474
 H308 H 0.21892 0.17215 0.20114
 H309 H 0.27651 0.20529 0.15437
 H310 H 0.28626 0.16842 0.12788
 C311 C 0.76642 0.58288 0.61214
 C312 C 0.78780 0.57518 0.60047
 C313 C 0.78868 0.55698 0.57846
 C314 C 0.76815 0.54639 0.56778
 C315 C 0.74683 0.55398 0.58019
 C316 C 0.74601 0.57207 0.60218
 C317 C 0.76501 0.60256 0.63305
 C318 C 0.76263 0.61930 0.64988
 C319 C 0.75838 0.63949 0.66909
 C320 C 0.77105 0.65985 0.66405
 C321 C 0.76505 0.68018 0.68021
 C322 C 0.74635 0.68025 0.70157
 C323 C 0.73404 0.65967 0.70704
 C324 C 0.74007 0.63938 0.69093
 H325 H 0.80371 0.58349 0.60795
 H326 H 0.80535 0.55156 0.56930
 H327 H 0.73071 0.54619 0.57254
 H328 H 0.72937 0.57793 0.61100
 H329 H 0.78508 0.66019 0.64693
 H330 H 0.77447 0.69601 0.67535
 H331 H 0.71941 0.65952 0.72316
 H332 H 0.72999 0.62380 0.69476
 C333 C 0.73865 0.91556 0.11186
 C334 C 0.75887 0.92543 0.09961
 C335 C 0.75759 0.94327 0.07726
 C336 C 0.73596 0.95159 0.06668
 C337 C 0.71566 0.94177 0.07964
 C338 C 0.71704 0.92385 0.10202
 C339 C 0.74042 0.89636 0.13356
 C340 C 0.74303 0.88002 0.15107
 C341 C 0.74751 0.86029 0.17106
 C342 C 0.76685 0.86039 0.19114
 C343 C 0.77298 0.84039 0.20784
 C344 C 0.75976 0.82011 0.20474
 C345 C 0.74003 0.82025 0.18523
 C346 C 0.73391 0.84029 0.16847
 H347 H 0.77569 0.91911 0.10703
 H348 H 0.77363 0.95031 0.06806
 H349 H 0.69869 0.94766 0.07222
 H350 H 0.70127 0.91628 0.11132
 H351 H 0.77761 0.87569 0.19309
 H352 H 0.78840 0.84049 0.22251
 H353 H 0.72987 0.80464 0.18216
 H354 H 0.71907 0.83995 0.15273
 C355 C 0.23109 0.41156 0.59755
 C356 C 0.21013 0.42055 0.58628
 C357 C 0.21009 0.43991 0.56622
 C358 C 0.23106 0.45042 0.55710
 C359 C 0.25198 0.44152 0.56914
 C360 C 0.25196 0.42224 0.58920
 C361 C 0.23155 0.39058 0.61602
 C362 C 0.23286 0.37262 0.63053
 C363 C 0.23557 0.35077 0.64658
 C364 C 0.23934 0.34997 0.67950
 C365 C 0.24441 0.32885 0.69432
 C366 C 0.24572 0.30842 0.67627
 C367 C 0.24141 0.30927 0.64344
 C368 C 0.23630 0.33033 0.62869
 H369 H 0.19388 0.41234 0.59247
 H370 H 0.19370 0.44633 0.55733
 H371 H 0.26841 0.44921 0.56265
 H372 H 0.26830 0.41536 0.59767
 H373 H 0.23903 0.36572 0.69351
 H374 H 0.24803 0.32851 0.71960
 H375 H 0.24258 0.29370 0.62915
 H376 H 0.23361 0.33078 0.60319
 C377 C 0.91162 0.26655 0.10214
 C378 C 0.92307 0.24606 0.09393
 C379 C 0.94152 0.24653 0.07250
 C380 C 0.94884 0.26756 0.05890
 C381 C 0.93757 0.28819 0.06781
 C382 C 0.91901 0.28766 0.08927
 C383 C 0.89167 0.26539 0.12260
 C384 C 0.87477 0.26315 0.13916
 C385 C 0.85449 0.25897 0.15820
 C386 C 0.85460 0.24091 0.18043
 C387 C 0.83428 0.23495 0.19648
 C388 C 0.81366 0.24707 0.19057
 C389 C 0.81371 0.26552 0.16879
 C390 C 0.83407 0.27146 0.15268
 H391 H 0.91746 0.22961 0.10368
 H392 H 0.94982 0.23033 0.06623
 H393 H 0.94277 0.30465 0.05772
 H394 H 0.91021 0.30363 0.09540
 H395 H 0.87022 0.23098 0.18464
 H396 H 0.83445 0.22051 0.21294
 H397 H 0.79785 0.27480 0.16360
 H398 H 0.83373 0.28529 0.13526
 C399 C 0.41381 0.76122 0.61062
 C400 C 0.42447 0.74101 0.59952
 C401 C 0.44330 0.74239 0.57878
 C402 C 0.45177 0.76405 0.56880
 C403 C 0.44121 0.78431 0.58051
 C404 C 0.42230 0.78288 0.60127
 C405 C 0.39364 0.75943 0.63057
 C406 C 0.37655 0.75698 0.64667
 C407 C 0.35598 0.75287 0.66513
 C408 C 0.35559 0.73470 0.68718
 C409 C 0.33503 0.72903 0.70287
 C410 C 0.31469 0.74157 0.69677
 C411 C 0.31524 0.76008 0.67511
 C412 C 0.33583 0.76573 0.65938
 H413 H 0.41800 0.72415 0.60656
 H414 H 0.45103 0.72646 0.57025
 H415 H 0.44730 0.80125 0.57324
 H416 H 0.41413 0.79863 0.60966
 H417 H 0.37101 0.72450 0.69158
 H418 H 0.33482 0.71454 0.71923
 H419 H 0.29959 0.76967 0.66976
 H420 H 0.33589 0.77966 0.64212
 C421 C 0.08917 0.74099 0.11112
 C422 C 0.08044 0.71931 0.10227
 C423 C 0.06179 0.71780 0.08108
 C424 C 0.05166 0.73801 0.06830
 C425 C 0.06044 0.75972 0.07790
 C426 C 0.07901 0.76114 0.09907
 C427 C 0.10910 0.74284 0.13155
 C428 C 0.12604 0.74540 0.14796
 C429 C 0.14650 0.74964 0.16663
 C430 C 0.16601 0.73542 0.16325
 C431 C 0.18666 0.74108 0.17881
 C432 C 0.18795 0.76100 0.19794
 C433 C 0.16818 0.77489 0.20179
 C434 C 0.14756 0.76920 0.18627
 H435 H 0.08823 0.70359 0.11142
 H436 H 0.05557 0.70078 0.07440
 H437 H 0.05319 0.77571 0.06880
 H438 H 0.08566 0.77801 0.10572
 H439 H 0.16546 0.72038 0.14785
 H440 H 0.20185 0.73041 0.17513
 H441 H 0.16894 0.79045 0.21616
 H442 H 0.13265 0.78044 0.18882
 C443 C 0.58289 0.23046 0.60269
 C444 C 0.57169 0.25112 0.59459
 C445 C 0.55306 0.25088 0.57345
 C446 C 0.54535 0.22993 0.56004
 C447 C 0.55628 0.20913 0.56901
 C448 C 0.57500 0.20943 0.59015
 C449 C 0.60346 0.23132 0.62192
 C450 C 0.62115 0.23302 0.63694
 C451 C 0.64273 0.23620 0.65345
 C452 C 0.66351 0.23506 0.63639
 C453 C 0.68441 0.24063 0.65122
 C454 C 0.68472 0.24730 0.68331
 C455 C 0.66392 0.24791 0.70060
 C456 C 0.64298 0.24237 0.68570
 H457 H 0.57773 0.26751 0.60403
 H458 H 0.54501 0.26718 0.56712
 H459 H 0.55078 0.19273 0.55906
 H460 H 0.58365 0.19335 0.59612
 H461 H 0.66349 0.23053 0.61137
 H462 H 0.70029 0.24032 0.63751
 H463 H 0.66388 0.25334 0.72527
 H464 H 0.62696 0.24354 0.69902
 C465 C 0.73108 0.08428 0.89116
 C466 C 0.71027 0.07638 0.90433
 C467 C 0.71033 0.05771 0.92562
 C468 C 0.73126 0.04686 0.93409
 C469 C 0.75199 0.05460 0.92008
 C470 C 0.75187 0.07317 0.89880
 C471 C 0.73160 0.10475 0.87164
 C472 C 0.73305 0.12234 0.85630
 C473 C 0.73598 0.14379 0.83933
 C474 C 0.74175 0.14377 0.80694
 C475 C 0.74715 0.16459 0.79156
 C476 C 0.74679 0.18554 0.80851
 C477 C 0.74048 0.18551 0.84075
 C478 C 0.73505 0.16474 0.85605
 H479 H 0.69408 0.08495 0.89872
 H480 H 0.69409 0.05218 0.93603
 H481 H 0.76840 0.04661 0.92601
 H482 H 0.76810 0.07922 0.88887
 H483 H 0.74276 0.12763 0.79386
 H484 H 0.75231 0.16432 0.76678
 H485 H 0.74037 0.20151 0.85421
 H486 H 0.73083 0.16494 0.88117
 C487 C 0.23587 0.59177 0.39217
 C488 C 0.25619 0.58013 0.40069
 C489 C 0.25520 0.56069 0.42041
 C490 C 0.23381 0.55260 0.43197
 C491 C 0.21339 0.56406 0.42264
 C492 C 0.21444 0.58357 0.40291
 C493 C 0.23736 0.61290 0.37412
 C494 C 0.23946 0.63094 0.35999
 C495 C 0.24298 0.65284 0.34436
 C496 C 0.24427 0.67308 0.36261
 C497 C 0.24982 0.69415 0.34820
 C498 C 0.25403 0.69522 0.31535
 C499 C 0.25228 0.67498 0.29698
 C500 C 0.24675 0.65385 0.31145
 H501 H 0.27288 0.58639 0.39262
 H502 H 0.27123 0.55227 0.42708
 H503 H 0.19666 0.55828 0.43116
 H504 H 0.19861 0.59252 0.39659
 H505 H 0.24157 0.67247 0.38811
 H506 H 0.25133 0.70958 0.36274
 H507 H 0.25580 0.67547 0.27168
 H508 H 0.24601 0.63825 0.29716
 C509 C 0.26518 0.91200 0.89081
 C510 C 0.24457 0.92291 0.89985
 C511 C 0.24511 0.94219 0.91989
 C512 C 0.26632 0.95088 0.93122
 C513 C 0.28702 0.94012 0.92146
 C514 C 0.28642 0.92075 0.90141
 C515 C 0.26414 0.89123 0.87193
 C516 C 0.26219 0.87359 0.85681
 C517 C 0.25855 0.85233 0.83964
 C518 C 0.23960 0.85039 0.81904
 C519 C 0.23437 0.82912 0.80495
 C520 C 0.24810 0.80959 0.81120
 C521 C 0.26741 0.81170 0.83129
 C522 C 0.27262 0.83301 0.84544
 H523 H 0.22803 0.91626 0.89185
 H524 H 0.22887 0.95006 0.92689
 H525 H 0.30361 0.94636 0.92982
 H526 H 0.30248 0.91238 0.89464
 H527 H 0.22846 0.86515 0.81464
 H528 H 0.21926 0.82770 0.78980
 H529 H 0.27795 0.79670 0.83675
 H530 H 0.28718 0.83426 0.86160
 C531 C 0.76701 0.41425 0.38918
 C532 C 0.74681 0.42640 0.39682
 C533 C 0.74764 0.44497 0.41805
 C534 C 0.76873 0.45168 0.43201
 C535 C 0.78911 0.43981 0.42349
 C536 C 0.78822 0.42114 0.40224
 C537 C 0.76543 0.39388 0.36958
 C538 C 0.76299 0.37652 0.35400
 C539 C 0.75880 0.35556 0.33641
 C540 C 0.73936 0.35404 0.31661
 C541 C 0.73369 0.33301 0.30212
 C542 C 0.74748 0.31333 0.30717
 C543 C 0.76723 0.31504 0.32653
 C544 C 0.77287 0.33609 0.34107
 H545 H 0.73030 0.42117 0.38692
 H546 H 0.73165 0.45376 0.42403
 H547 H 0.80560 0.44453 0.43388
 H548 H 0.80395 0.41178 0.39659
 H549 H 0.72822 0.36892 0.31312
 H550 H 0.71827 0.33191 0.28753
 H551 H 0.77783 0.29991 0.33107
 H552 H 0.78780 0.33702 0.35663
 C553 C 0.08177 0.26331 0.88328
 C554 C 0.07320 0.28479 0.89328
 C555 C 0.05493 0.28585 0.91516
 C556 C 0.04505 0.26537 0.92749
 C557 C 0.05363 0.24388 0.91668
 C558 C 0.07180 0.24291 0.89483
 C559 C 0.10142 0.26182 0.86229
 C560 C 0.11816 0.25941 0.84546
 C561 C 0.13841 0.25517 0.82636
 C562 C 0.15802 0.26926 0.82953
 C563 C 0.17856 0.26345 0.81375
 C564 C 0.17961 0.24352 0.79462
 C565 C 0.15974 0.22979 0.79094
 C566 C 0.13923 0.23562 0.80668
 H567 H 0.08084 0.30070 0.88453
 H568 H 0.04884 0.30272 0.92277
 H569 H 0.04656 0.22770 0.92538
 H570 H 0.07833 0.22619 0.88729
 H571 H 0.15767 0.28428 0.84498
 H572 H 0.19384 0.27401 0.81729
 H573 H 0.16032 0.21422 0.77658
 H574 H 0.12425 0.22447 0.80431
 C575 C 0.59206 0.77028 0.40252
 C576 C 0.58353 0.79097 0.41534
 C577 C 0.56393 0.79069 0.43494
 C578 C 0.55274 0.76966 0.44208
 C579 C 0.56113 0.74907 0.42836
 C580 C 0.58065 0.74940 0.40875
 C581 C 0.61339 0.77001 0.38482
 C582 C 0.63164 0.76885 0.37098
 C583 C 0.65379 0.76633 0.35570
 C584 C 0.67398 0.76684 0.37411
 C585 C 0.69539 0.76196 0.36020
 C586 C 0.69684 0.75662 0.32769
 C587 C 0.67663 0.75664 0.30911
 C588 C 0.65517 0.76150 0.32308
 H589 H 0.59231 0.80721 0.41079
 H590 H 0.55793 0.80683 0.44517
 H591 H 0.55291 0.73260 0.43331
 H592 H 0.58716 0.73327 0.39906
 H593 H 0.67308 0.77034 0.39941
 H594 H 0.71079 0.76177 0.37492
 H595 H 0.67742 0.75220 0.28410
 H596 H 0.63963 0.76082 0.30869
 C597 C 0.91393 0.73202 0.90024
 C598 C 0.92212 0.71127 0.91331
 C599 C 0.94124 0.71145 0.93381
 C600 C 0.95231 0.73243 0.94155
 C601 C 0.94418 0.75310 0.92774
 C602 C 0.92515 0.75286 0.90727
 C603 C 0.89338 0.73242 0.88087
 C604 C 0.87593 0.73395 0.86525
 C605 C 0.85491 0.73722 0.84740
 C606 C 0.83567 0.72296 0.85278
 C607 C 0.81451 0.72790 0.83802
 C608 C 0.81247 0.74713 0.81775
 C609 C 0.83195 0.76103 0.81188
 C610 C 0.85306 0.75606 0.82657
 H611 H 0.91350 0.69504 0.90812
 H612 H 0.94705 0.69526 0.94408
 H613 H 0.95230 0.76954 0.93313
 H614 H 0.91893 0.76904 0.89736
 H615 H 0.83683 0.70849 0.86911
 H616 H 0.79955 0.71724 0.84319
 H617 H 0.83059 0.77608 0.79660
 H618 H 0.86776 0.76734 0.82247
 C619 C 0.41090 0.23472 0.38495
 C620 C 0.41849 0.21323 0.39634
 C621 C 0.43727 0.21207 0.41735
 C622 C 0.44855 0.23243 0.42730
 C623 C 0.44107 0.25386 0.41511
 C624 C 0.42239 0.25496 0.39411
 C625 C 0.39061 0.23642 0.36525
 C626 C 0.37339 0.23899 0.34946
 C627 C 0.35267 0.24340 0.33148
 C628 C 0.33284 0.22986 0.33622
 C629 C 0.31207 0.23577 0.32113
 C630 C 0.31103 0.25524 0.30116
 C631 C 0.33106 0.26848 0.29605
 C632 C 0.35179 0.26255 0.31109
 H633 H 0.40965 0.19746 0.38948
 H634 H 0.44258 0.19532 0.42637
 H635 H 0.44939 0.26985 0.42222
 H636 H 0.41662 0.27169 0.38549
 H637 H 0.33327 0.21515 0.35222
 H638 H 0.29666 0.22558 0.32565
 H639 H 0.33046 0.28369 0.28097
 H640 H 0.36696 0.27328 0.30750
 C641 C 0.73310 0.90887 0.89758
 C642 C 0.71210 0.91687 0.91006
 C643 C 0.71172 0.93638 0.92986
 C644 C 0.73241 0.94800 0.93752
 C645 C 0.75332 0.94013 0.92415
 C646 C 0.75364 0.92071 0.90436
 C647 C 0.73407 0.88766 0.87965
 C648 C 0.73588 0.86953 0.86562
 C649 C 0.73921 0.84756 0.85014
 C650 C 0.74301 0.84642 0.81724
 C651 C 0.74856 0.82523 0.80294
 C652 C 0.75031 0.80507 0.82147
 C653 C 0.74606 0.80625 0.85430
 C654 C 0.74048 0.82738 0.86854
 H655 H 0.69611 0.90775 0.90509
 H656 H 0.69536 0.94198 0.93981
 H657 H 0.76954 0.94868 0.92950
 H658 H 0.77001 0.91461 0.89493
 H659 H 0.74230 0.86196 0.80284
 H660 H 0.75212 0.82464 0.77765
 H661 H 0.74757 0.79089 0.86895
 H662 H 0.73779 0.82810 0.89403
 C663 C 0.23295 0.41622 0.38412
 C664 C 0.21179 0.42425 0.39608
 C665 C 0.21129 0.44294 0.41732
 C666 C 0.23201 0.45369 0.42698
 C667 C 0.25310 0.44584 0.41412
 C668 C 0.25354 0.42725 0.39288
 C669 C 0.23396 0.39567 0.36476
 C670 C 0.23576 0.37801 0.34965
 C671 C 0.23904 0.35646 0.33301
 C672 C 0.24493 0.35629 0.30066
 C673 C 0.25048 0.33539 0.28558
 C674 C 0.25015 0.31454 0.30278
 C675 C 0.24376 0.31477 0.33499
 C676 C 0.23818 0.33562 0.35000
 H677 H 0.19575 0.41575 0.38959
 H678 H 0.19479 0.44854 0.42683
 H679 H 0.26935 0.45375 0.42099
 H680 H 0.27002 0.42111 0.38389
 H681 H 0.24588 0.37234 0.28737
 H682 H 0.25569 0.33551 0.26082
 H683 H 0.24366 0.29886 0.34865
 H684 H 0.23386 0.33557 0.37509
 C685 C 0.26161 0.08603 0.88474
 C686 C 0.24139 0.07546 0.89579
 C687 C 0.24263 0.05710 0.91731
 C688 C 0.26423 0.04895 0.92827
 C689 C 0.28455 0.05936 0.91631
 C690 C 0.28321 0.07782 0.89477
 C691 C 0.25982 0.10595 0.86430
 C692 C 0.25717 0.12287 0.84790
 C693 C 0.25269 0.14326 0.82920
 C694 C 0.23423 0.14334 0.80761
 C695 C 0.22817 0.16374 0.79180
 C696 C 0.24059 0.18424 0.79732
 C697 C 0.25937 0.18401 0.81854
 C698 C 0.26541 0.16357 0.83439
 H699 H 0.22457 0.08170 0.88820
 H700 H 0.22657 0.04960 0.92573
 H701 H 0.30149 0.05361 0.92405
 H702 H 0.29899 0.08593 0.88638
 H703 H 0.22413 0.12779 0.80367
 H704 H 0.21349 0.16370 0.77577
 H705 H 0.26888 0.19978 0.82343
 H706 H 0.27955 0.16377 0.85132
 C707 C 0.77113 0.59090 0.39981
 C708 C 0.79198 0.58182 0.41134
 C709 C 0.79188 0.56189 0.43031
 C710 C 0.77087 0.55090 0.43811
 C711 C 0.75009 0.55985 0.42569
 C712 C 0.75025 0.57971 0.40671
 C713 C 0.77075 0.61249 0.38270
 C714 C 0.76949 0.63092 0.36932
 C715 C 0.76687 0.65324 0.35451
 C716 C 0.76700 0.67322 0.37339
 C717 C 0.76205 0.69477 0.35987
 C718 C 0.75702 0.69655 0.32730
 C719 C 0.75740 0.67655 0.30828
 C720 C 0.76233 0.65496 0.32186
 H721 H 0.80823 0.59042 0.40626
 H722 H 0.80816 0.55545 0.43954
 H723 H 0.73363 0.55181 0.43118
 H724 H 0.73400 0.58663 0.39802
 H725 H 0.77028 0.67207 0.39872
 H726 H 0.76159 0.70999 0.37492
 H727 H 0.75319 0.67758 0.28321
 H728 H 0.76194 0.63958 0.30710
 C729 C 0.08808 0.73263 0.89784
 C730 C 0.07764 0.75357 0.90636
 C731 C 0.05892 0.75380 0.92737
 C732 C 0.05031 0.73298 0.94036
 C733 C 0.06053 0.71189 0.93079
 C734 C 0.07935 0.71177 0.90978
 C735 C 0.10873 0.73298 0.87868
 C736 C 0.12648 0.73430 0.86370
 C737 C 0.14814 0.73711 0.84723
 C738 C 0.16874 0.73786 0.86474
 C739 C 0.18962 0.74314 0.84966
 C740 C 0.19012 0.74762 0.81686
 C741 C 0.16954 0.74631 0.79917
 C742 C 0.14860 0.74107 0.81433
 H743 H 0.08432 0.76984 0.89734
 H744 H 0.05155 0.77039 0.93390
 H745 H 0.05443 0.69550 0.94011
 H746 H 0.08739 0.69545 0.90342
 H747 H 0.16855 0.73504 0.89023
 H748 H 0.20532 0.74431 0.86366
 H749 H 0.16963 0.75004 0.77392
 H750 H 0.13273 0.74077 0.80062
 C751 C 0.58641 0.23328 0.38952
 C752 C 0.57509 0.25374 0.39823
 C753 C 0.55580 0.25298 0.41824
 C754 C 0.54753 0.23168 0.42989
 C755 C 0.55864 0.21111 0.42035
 C756 C 0.57802 0.21193 0.40034
 C757 C 0.60743 0.23457 0.37121
 C758 C 0.62540 0.23659 0.35685
 C759 C 0.64721 0.24010 0.34098
 C760 C 0.66752 0.24157 0.35902
 C761 C 0.68849 0.24721 0.34439
 C762 C 0.68938 0.25133 0.31150
 C763 C 0.66906 0.24938 0.29333
 C764 C 0.64804 0.24377 0.30804
 H765 H 0.58148 0.27037 0.39011
 H766 H 0.54764 0.26912 0.42506
 H767 H 0.55272 0.19445 0.42894
 H768 H 0.58672 0.19599 0.39386
 H769 H 0.66705 0.23896 0.38454
 H770 H 0.70396 0.24885 0.35877
 H771 H 0.66942 0.25284 0.26801
 H772 H 0.63239 0.24290 0.29389
 C773 C 0.90896 0.26359 0.88765
 C774 C 0.92013 0.24321 0.89702
 C775 C 0.93918 0.24417 0.91742
 C776 C 0.94734 0.26558 0.92878
 C777 C 0.93632 0.28606 0.91867
 C778 C 0.91720 0.28504 0.89826
 C779 C 0.88843 0.26211 0.86840
 C780 C 0.87102 0.25978 0.85294
 C781 C 0.85009 0.25564 0.83531
 C782 C 0.84884 0.23660 0.81476
 C783 C 0.82792 0.23094 0.80007
 C784 C 0.80806 0.24433 0.80567
 C785 C 0.80945 0.26371 0.82577
 C786 C 0.83042 0.26936 0.84052
 H787 H 0.91387 0.22651 0.88900
 H788 H 0.94726 0.22809 0.92469
 H789 H 0.94217 0.30280 0.92704
 H790 H 0.90861 0.30092 0.89122
 H791 H 0.86388 0.22575 0.81081
 H792 H 0.82704 0.21580 0.78488
 H793 H 0.79418 0.27400 0.83066
 H794 H 0.83114 0.28398 0.85664
 C795 C 0.41618 0.76976 0.39590
 C796 C 0.42772 0.74906 0.40276
 C797 C 0.44631 0.74890 0.42397
 C798 C 0.45368 0.76950 0.43870
 C799 C 0.44236 0.79038 0.43107
 C800 C 0.42367 0.79048 0.40984
 C801 C 0.39591 0.76920 0.37598
 C802 C 0.37868 0.76749 0.35997
 C803 C 0.35787 0.76400 0.34173
 C804 C 0.35635 0.74502 0.32110
 C805 C 0.33540 0.73979 0.30614
 C806 C 0.31577 0.75357 0.31155
 C807 C 0.31749 0.77296 0.33161
 C808 C 0.33848 0.77816 0.34663
 H809 H 0.42204 0.73291 0.39218
 H810 H 0.45465 0.73254 0.42924
 H811 H 0.44759 0.80652 0.44207
 H812 H 0.41479 0.80660 0.40480
 H813 H 0.37116 0.73381 0.31739
 H814 H 0.33428 0.72463 0.29104
 H815 H 0.30240 0.78353 0.33643
 H816 H 0.33939 0.79273 0.36281
 C817 C 0.26746 0.91749 0.10565
 C818 C 0.28845 0.92512 0.09269
 C819 C 0.28868 0.94341 0.07079
 C820 C 0.26786 0.95416 0.06152
 C821 C 0.24695 0.94663 0.07523
 C822 C 0.24678 0.92845 0.09710
 C823 C 0.26663 0.89774 0.12650
 C824 C 0.26464 0.88096 0.14334
 C825 C 0.26075 0.86074 0.16264
 C826 C 0.27349 0.84045 0.15734
 C827 C 0.26774 0.82007 0.17356
 C828 C 0.24922 0.81989 0.19522
 C829 C 0.23687 0.84040 0.20096
 C830 C 0.24265 0.86074 0.18480
 H831 H 0.30456 0.91670 0.09907
 H832 H 0.30505 0.94879 0.06062
 H833 H 0.23063 0.95454 0.06869
 H834 H 0.23043 0.92265 0.10692
 H835 H 0.28735 0.84019 0.13997
 H836 H 0.27719 0.80429 0.16849
 H837 H 0.22237 0.84047 0.21732
 H838 H 0.23252 0.87627 0.18884
 C839 C 0.76406 0.40889 0.60193
 C840 C 0.74385 0.42032 0.59250
 C841 C 0.74510 0.43962 0.57256
 C842 C 0.76665 0.44779 0.56171
 C843 C 0.78695 0.43645 0.57178
 C844 C 0.78564 0.41707 0.59175
 C845 C 0.76231 0.38826 0.62101
 C846 C 0.75978 0.37084 0.63644
 C847 C 0.75547 0.34996 0.65417
 C848 C 0.73649 0.34896 0.67484
 C849 C 0.73074 0.32815 0.68984
 C850 C 0.74399 0.30816 0.68443
 C851 C 0.76329 0.30931 0.66417
 C852 C 0.76902 0.33016 0.64911
 H853 H 0.72705 0.41411 0.60020
 H854 H 0.72915 0.44794 0.56530
 H855 H 0.80380 0.44229 0.56381
 H856 H 0.80140 0.40831 0.59885
 H857 H 0.72576 0.36411 0.67871
 H858 H 0.71565 0.32748 0.70514
 H859 H 0.77348 0.29394 0.65941
 H860 H 0.78361 0.33069 0.63292
 C861 C 0.73688 0.08610 0.10777
 C862 C 0.71542 0.07772 0.09744
 C863 C 0.71440 0.05906 0.07618
 C864 C 0.73488 0.04867 0.06493
 C865 C 0.75633 0.05704 0.07588
 C866 C 0.75729 0.07561 0.09711
 C867 C 0.73830 0.10607 0.12817
 C868 C 0.74053 0.12306 0.14457
 C869 C 0.74443 0.14360 0.16319
 C870 C 0.73005 0.16296 0.15956
 C871 C 0.73548 0.18375 0.17495
 C872 C 0.75532 0.18531 0.19414
 C873 C 0.76936 0.16568 0.19829
 C874 C 0.76391 0.14492 0.18294
 H875 H 0.69951 0.08578 0.10546
 H876 H 0.69763 0.05303 0.06818
 H877 H 0.77242 0.04943 0.06775
 H878 H 0.77399 0.08201 0.10488
 H879 H 0.71508 0.16220 0.14406
 H880 H 0.72470 0.19884 0.17105
 H881 H 0.78487 0.16666 0.21271
 H882 H 0.77527 0.13012 0.18568
 C883 C 0.23531 0.58437 0.60801
 C884 C 0.25561 0.57324 0.59827
 C885 C 0.25468 0.55547 0.57577
 C886 C 0.23337 0.54857 0.56261
 C887 C 0.21295 0.55954 0.57301
 C888 C 0.21394 0.57739 0.59554
 C889 C 0.23683 0.60371 0.62952
 C890 C 0.23922 0.62021 0.64680
 C891 C 0.24336 0.64022 0.66641
 C892 C 0.26282 0.64078 0.68627
 C893 C 0.26864 0.66113 0.70240
 C894 C 0.25499 0.68110 0.69893
 C895 C 0.23513 0.68027 0.67968
 C896 C 0.22933 0.65990 0.66351
 H897 H 0.27225 0.57855 0.60768
 H898 H 0.27072 0.54738 0.56836
 H899 H 0.19629 0.55464 0.56331
 H900 H 0.19812 0.58597 0.60282
 H901 H 0.27392 0.62574 0.68844
 H902 H 0.28416 0.66154 0.71685
 H903 H 0.22465 0.69564 0.67628
 H904 H 0.21439 0.65974 0.64793
 C905 C 0.91775 0.74004 0.11603
 C906 C 0.92572 0.71841 0.10567
 C907 C 0.94397 0.71706 0.08379
 C908 C 0.95436 0.73737 0.07197
 C909 C 0.94645 0.75898 0.08300
 C910 C 0.92829 0.76027 0.10485
 C911 C 0.89813 0.74182 0.13699
 C912 C 0.88145 0.74439 0.15385
 C913 C 0.86130 0.74876 0.17307
 C914 C 0.84152 0.73490 0.16989
 C915 C 0.82114 0.74080 0.18599
 C916 C 0.82044 0.76058 0.20543
 C917 C 0.84047 0.77409 0.20907
 C918 C 0.86080 0.76817 0.19302
 H919 H 0.91762 0.70264 0.11410
 H920 H 0.94964 0.70017 0.07574
 H921 H 0.95407 0.77494 0.07444
 H922 H 0.92222 0.77710 0.11265
 H923 H 0.84164 0.71999 0.15424
 H924 H 0.80573 0.73041 0.18254
 H925 H 0.84013 0.78954 0.22369
 H926 H 0.87593 0.77914 0.19540
 C927 C 0.40848 0.23193 0.59865
 C928 C 0.41640 0.21075 0.58661
 C929 C 0.43551 0.21015 0.56609
 C930 C 0.44681 0.23079 0.55729
 C931 C 0.43895 0.25190 0.57006
 C932 C 0.41994 0.25244 0.59056
 C933 C 0.38796 0.23307 0.61800
 C934 C 0.37053 0.23516 0.63354
 C935 C 0.34955 0.23902 0.65122
 C936 C 0.33009 0.22502 0.64608
 C937 C 0.30901 0.23046 0.66070
 C938 C 0.30727 0.24991 0.68062
 C939 C 0.32695 0.26357 0.68622
 C940 C 0.34799 0.25812 0.67165
 H941 H 0.40760 0.19477 0.59264
 H942 H 0.44111 0.19363 0.55663
 H943 H 0.44725 0.26809 0.56383
 H944 H 0.41391 0.26894 0.59967
 H945 H 0.33104 0.21036 0.63004
 H946 H 0.29389 0.21997 0.65575
 H947 H 0.32582 0.27879 0.70124
 H948 H 0.36286 0.26920 0.67555
 C949 C 0.08548 0.26786 0.09860
 C950 C 0.07441 0.24711 0.09066
 C951 C 0.05545 0.24722 0.07006
 C952 C 0.04729 0.26814 0.05705
 C953 C 0.05816 0.28901 0.06580
 C954 C 0.07720 0.28884 0.08641
 C955 C 0.10624 0.26719 0.11748
 C956 C 0.12404 0.26570 0.13228
 C957 C 0.14572 0.26277 0.14862
 C958 C 0.16641 0.26374 0.13131
 C959 C 0.18740 0.25841 0.14605
 C960 C 0.18792 0.25217 0.17830
 C961 C 0.16723 0.25174 0.19582
 C962 C 0.14618 0.25704 0.18101
 H963 H 0.08075 0.23075 0.09985
 H964 H 0.04746 0.23086 0.06388
 H965 H 0.05231 0.30539 0.05617
 H966 H 0.08574 0.30499 0.09227
 H967 H 0.16623 0.26794 0.10618
 H968 H 0.20320 0.25857 0.13215
 H969 H 0.16733 0.24663 0.22062
 H970 H 0.13024 0.25601 0.19453
 C971 C 0.58689 0.76011 0.61573
 C972 C 0.57919 0.78189 0.60560
 C973 C 0.56089 0.78361 0.58386
 C974 C 0.55016 0.76352 0.57191
 C975 C 0.55779 0.74175 0.58274
 C976 C 0.57600 0.74009 0.60446
 C977 C 0.60661 0.75795 0.63647
 C978 C 0.62341 0.75518 0.65308
 C979 C 0.64374 0.75072 0.67194
 C980 C 0.66329 0.76491 0.66900
 C981 C 0.68382 0.75910 0.68477
 C982 C 0.68493 0.73906 0.70369
 C983 C 0.66513 0.72518 0.70706
 C984 C 0.64463 0.73102 0.69133
 H985 H 0.58755 0.79751 0.61410
 H986 H 0.55544 0.80062 0.57596
 H987 H 0.54992 0.72594 0.57408
 H988 H 0.58186 0.72313 0.61206
 H989 H 0.66288 0.78006 0.65379
 H990 H 0.69905 0.76977 0.68144
 H991 H 0.66575 0.70953 0.72126
 H992 H 0.62968 0.71979 0.69353
   
