data_POSCAR
  _audit_creation_date              2014-09-24
  _audit_creation_method            'ToBaCCo'
  _symmetry_space_group_name_H-M    'P1'
  _symmetry_Int_Tables_number       1
  _symmetry_cell_setting            triclinic
  loop_
  _symmetry_equiv_pos_as_xyz
 x,y,z
_cell_length_a 30.2000
_cell_length_b 30.1029
_cell_length_c 30.0889
_cell_angle_alpha 89.992500
_cell_angle_beta 89.937100
_cell_angle_gamma 90.007200
loop_
  _atom_site_label
  _atom_site_type_symbol
  _atom_site_fract_x
  _atom_site_fract_y
  _atom_site_fract_z
C1 C 0.18317 0.53595 1.05443
 H2 H 0.18421 0.56196 1.02963
 C3 C 0.15188 0.53769 1.08849
 H4 H 0.12928 0.56560 1.08945
 C5 C 0.21085 0.46755 1.08160
 H6 H 0.23322 0.43976 1.07813
 C7 C 0.17988 0.46777 1.11619
 H8 H 0.17941 0.44013 1.13922
 N9 N 0.21183 0.50131 1.05156
 C10 C 0.31576 0.55297 0.96539
 H11 H 0.31498 0.52795 0.93959
 C12 C 0.34692 0.58710 0.96350
 H13 H 0.36986 0.58807 0.93584
 C14 C 0.28757 0.58068 1.03347
 H15 H 0.26508 0.57740 1.06122
 C16 C 0.31839 0.61536 1.03301
 H17 H 0.31887 0.63876 1.06033
 Zn18 Zn 0.24936 0.50006 1.00122
 N19 N 0.28687 0.55036 0.99994
 C20 C 0.21152 0.53231 0.92045
 N21 N 0.21204 0.49881 0.95080
 C22 C 0.18317 0.46430 0.94810
 C23 C 0.15221 0.46241 0.91381
 C24 C 0.18091 0.53185 0.88561
 C25 C 0.31547 0.44681 1.03703
 C26 C 0.34659 0.41264 1.03874
 C27 C 0.31819 0.38480 0.96906
 C28 C 0.28743 0.41951 0.96878
 N29 N 0.28671 0.44966 1.00247
 H30 H 0.23400 0.56002 0.92379
 H31 H 0.18382 0.43852 0.97315
 H32 H 0.12928 0.43479 0.91275
 H33 H 0.18057 0.55914 0.86217
 H34 H 0.31467 0.47170 1.06296
 H35 H 0.36946 0.41149 1.06640
 H36 H 0.31871 0.36156 0.94161
 H37 H 0.26503 0.42297 0.94103
 C38 C 0.34889 0.61866 0.99785
 C39 C 0.14934 0.50297 1.11979
 C40 C 0.34861 0.38129 1.00420
 C41 C 0.15044 0.49673 0.88219
 C42 C 0.81625 0.53603 -0.05252
 H43 H 0.81557 0.56179 -0.02745
 C44 C 0.84739 0.53784 -0.08672
 H45 H 0.87040 0.56540 -0.08772
 C46 C 0.78787 0.46810 -0.08023
 H47 H 0.76532 0.44044 -0.07693
 C48 C 0.81865 0.46847 -0.11499
 H49 H 0.81904 0.44118 -0.13841
 N50 N 0.78730 0.50159 -0.04987
 C51 C 0.68371 0.55330 0.03659
 H52 H 0.68443 0.52825 0.06238
 C53 C 0.65259 0.58746 0.03847
 H54 H 0.62963 0.58845 0.06611
 C55 C 0.71197 0.58099 -0.03148
 H56 H 0.73445 0.57769 -0.05923
 C57 C 0.68120 0.61570 -0.03104
 H58 H 0.68076 0.63910 -0.05837
 Zn59 Zn 0.74990 0.50023 0.00055
 N60 N 0.71258 0.55065 0.00204
 C61 C 0.78805 0.53207 0.08131
 N62 N 0.78734 0.49866 0.05086
 C63 C 0.81615 0.46410 0.05335
 C64 C 0.84729 0.46209 0.08747
 C65 C 0.81884 0.53149 0.11598
 C66 C 0.68348 0.44750 -0.03535
 C67 C 0.65232 0.41337 -0.03727
 C68 C 0.68093 0.38484 0.03205
 C69 C 0.71174 0.41952 0.03255
 N70 N 0.71238 0.44997 -0.00088
 H71 H 0.76560 0.55982 0.07813
 H72 H 0.81536 0.43840 0.02823
 H73 H 0.87019 0.43444 0.08834
 H74 H 0.81934 0.55872 0.13947
 H75 H 0.68423 0.47262 -0.06106
 H76 H 0.62936 0.41250 -0.06486
 H77 H 0.68049 0.36133 0.05928
 H78 H 0.73425 0.42269 0.06023
 C79 C 0.65067 0.61901 0.00409
 C80 C 0.84924 0.50350 -0.11831
 C81 C 0.65040 0.38168 -0.00302
 C82 C 0.84930 0.49633 0.11914
 C83 C -0.03593 0.31686 0.44617
 H84 H -0.06155 0.31618 0.47133
 C85 C -0.03779 0.34815 0.41204
 H86 H -0.06538 0.37111 0.41138
 C87 C 0.03163 0.28834 0.41815
 H88 H 0.05915 0.26565 0.42128
 C89 C 0.03129 0.31929 0.38349
 H90 H 0.05857 0.31941 0.36011
 N91 N -0.00165 0.28778 0.44864
 C92 C -0.05189 0.18317 0.53528
 H93 H -0.02626 0.18343 0.56037
 C94 C -0.08614 0.15218 0.53775
 H95 H -0.08657 0.12879 0.56508
 C96 C -0.08115 0.21261 0.46845
 H97 H -0.07850 0.23554 0.44096
 C98 C -0.11601 0.18206 0.46955
 H99 H -0.14010 0.18220 0.44293
 Zn100 Zn 0.00015 0.25018 0.49898
 N101 N -0.04999 0.21258 0.50107
 C102 C -0.03114 0.28770 0.58023
 N103 N 0.00190 0.28761 0.54944
 C104 C 0.03599 0.31697 0.55180
 C105 C 0.03790 0.34798 0.58617
 C106 C -0.03065 0.31834 0.61514
 C107 C 0.05253 0.18344 0.46263
 C108 C 0.08682 0.15248 0.46031
 C109 C 0.11634 0.18235 0.52866
 C110 C 0.08145 0.21285 0.52962
 N111 N 0.05042 0.21278 0.49688
 H112 H -0.05855 0.26485 0.57717
 H113 H 0.06139 0.31669 0.52641
 H114 H 0.06517 0.37132 0.58696
 H115 H -0.05758 0.31830 0.63891
 H116 H 0.02700 0.18368 0.43743
 H117 H 0.08740 0.12912 0.43297
 H118 H 0.14029 0.18250 0.55541
 H119 H 0.07864 0.23573 0.55712
 C120 C -0.11860 0.15101 0.50435
 C121 C -0.00353 0.35025 0.38027
 C122 C 0.11910 0.15131 0.49388
 C123 C 0.00403 0.34931 0.61821
 C124 C 0.96425 0.68358 0.55260
 H125 H 0.93891 0.68389 0.52721
 C126 C 0.96235 0.65243 0.58686
 H127 H 0.93512 0.62904 0.58758
 C128 C 1.03131 0.71284 0.58106
 H129 H 1.05869 0.73574 0.57805
 C130 C 1.03081 0.68208 0.61587
 H131 H 1.05773 0.68206 0.63961
 N132 N 0.99832 0.71297 0.55030
 C133 C 0.94819 0.81729 0.46347
 H134 H 0.97389 0.81709 0.43839
 C135 C 0.91393 0.84826 0.46104
 H136 H 0.91355 0.87168 0.43373
 C137 C 0.91878 0.78775 0.53026
 H138 H 0.92138 0.76479 0.55773
 C139 C 0.88391 0.81827 0.52919
 H140 H 0.85977 0.81807 0.55581
 Zn141 Zn 1.00024 0.75042 0.49987
 N142 N 0.95003 0.78786 0.49767
 C143 C 0.96927 0.71264 0.41874
 N144 N 1.00224 0.71286 0.44953
 C145 C 1.03634 0.68351 0.44730
 C146 C 1.03830 0.65230 0.41311
 C147 C 0.96982 0.68181 0.38400
 C148 C 1.05217 0.81746 0.53612
 C149 C 1.08640 0.84847 0.53851
 C150 C 1.11650 0.81835 0.47046
 C151 C 1.08166 0.78779 0.46943
 N152 N 1.05039 0.78795 0.50200
 H153 H 0.94186 0.73550 0.42169
 H154 H 1.06167 0.68391 0.47270
 H155 H 1.06555 0.62894 0.41245
 H156 H 0.94292 0.68171 0.36024
 H157 H 1.02645 0.81728 0.56118
 H158 H 1.08673 0.87196 0.56575
 H159 H 1.14068 0.81813 0.44386
 H160 H 1.07911 0.76477 0.44202
 C161 C 0.88141 0.84937 0.49444
 C162 C 0.99619 0.65103 0.61885
 C163 C 1.11895 0.84954 0.50513
 C164 C 1.00448 0.65080 0.38110
 C165 C 0.44790 -0.03720 0.31673
 H166 H 0.47343 -0.06241 0.31654
 C167 C 0.41359 -0.03940 0.34772
 H168 H 0.41299 -0.06668 0.37117
 C169 C 0.41901 0.02973 0.28715
 H170 H 0.42184 0.05717 0.26419
 C171 C 0.38410 0.02889 0.31768
 H172 H 0.36015 0.05564 0.31748
 N173 N 0.45003 -0.00303 0.28728
 C174 C 0.53641 -0.05394 0.18317
 H175 H 0.56202 -0.02881 0.18378
 C176 C 0.53823 -0.08806 0.15187
 H177 H 0.56581 -0.08875 0.12885
 C178 C 0.46886 -0.08185 0.21184
 H179 H 0.44134 -0.07867 0.23459
 C180 C 0.46916 -0.11649 0.18090
 H181 H 0.44187 -0.13983 0.18084
 Zn182 Zn 0.50030 -0.00104 0.24983
 N183 N 0.50214 -0.05141 0.21231
 C184 C 0.58166 -0.03142 0.28735
 N185 N 0.55042 0.00113 0.28738
 C186 C 0.55224 0.03537 0.31675
 C187 C 0.58649 0.03793 0.34770
 C188 C 0.61653 -0.03023 0.31785
 C189 C 0.46443 0.05159 0.18294
 C190 C 0.46244 0.08592 0.15188
 C191 C 0.53089 0.11502 0.18149
 C192 C 0.53147 0.08014 0.21216
 N193 N 0.49851 0.04931 0.21229
 H194 H 0.57907 -0.05893 0.26445
 H195 H 0.52655 0.06041 0.31649
 H196 H 0.58686 0.06529 0.37105
 H197 H 0.64068 -0.05680 0.31771
 H198 H 0.43910 0.02617 0.18326
 H199 H 0.43519 0.08664 0.12855
 H200 H 0.55776 0.13883 0.18150
 H201 H 0.55886 0.07715 0.23502
 C202 C 0.50395 -0.11975 0.14985
 C203 C 0.38131 -0.00581 0.34882
 C204 C 0.49622 0.11801 0.15053
 C205 C 0.61904 0.00460 0.34886
 C206 C 0.55219 -0.03635 0.68252
 H207 H 0.52655 -0.06146 0.68271
 C208 C 0.58650 -0.03871 0.65154
 H209 H 0.58699 -0.06599 0.62811
 C210 C 0.58137 0.03045 0.71209
 H211 H 0.57866 0.05790 0.73505
 C212 C 0.61628 0.02946 0.68156
 H213 H 0.64035 0.05611 0.68176
 N214 N 0.55021 -0.00218 0.71196
 C215 C 0.46384 -0.05262 0.81639
 H216 H 0.43849 -0.02723 0.81600
 C217 C 0.46187 -0.08680 0.84762
 H218 H 0.43460 -0.08746 0.87100
 C219 C 0.53095 -0.08118 0.78723
 H220 H 0.55837 -0.07824 0.76434
 C221 C 0.53039 -0.11592 0.81807
 H222 H 0.55731 -0.13967 0.81816
 Zn223 Zn 0.49994 -0.00004 0.74944
 N224 N 0.49796 -0.05040 0.78701
 C225 C 0.41851 -0.03039 0.71210
 N226 N 0.44980 0.00212 0.71192
 C227 C 0.44801 0.03627 0.68243
 C228 C 0.41374 0.03875 0.65149
 C229 C 0.38364 -0.02927 0.68161
 C230 C 0.53582 0.05265 0.81630
 C231 C 0.53770 0.08692 0.84743
 C232 C 0.46922 0.11592 0.81781
 C233 C 0.46876 0.08110 0.78706
 N234 N 0.50177 0.05035 0.78693
 H235 H 0.42107 -0.05781 0.73511
 H236 H 0.47373 0.06129 0.68258
 H237 H 0.41340 0.06602 0.62803
 H238 H 0.35945 -0.05582 0.68187
 H239 H 0.56120 0.02728 0.81598
 H240 H 0.56492 0.08766 0.87080
 H241 H 0.44229 0.13965 0.81784
 H242 H 0.44138 0.07809 0.76419
 C243 C 0.49571 -0.11881 0.84912
 C244 C 0.61894 -0.00526 0.65044
 C245 C 0.50384 0.11891 0.84883
 C246 C 0.38116 0.00544 0.65046
 Si247 Si 0.25006 0.00038 0.49970
 Si248 Si 0.75025 0.00016 0.49955
 Si249 Si 0.49965 0.25028 1.00005
 Si250 Si 0.49967 0.75009 0.00065
 Si251 Si 1.00044 0.49937 0.24997
 Si252 Si 0.00019 0.49989 0.75034
 N253 N 0.18359 0.11333 0.52742
 C254 C 0.15381 0.11647 0.49371
 N255 N 0.15502 0.08547 0.46090
 N256 N 0.18428 0.05241 0.46205
 C257 C 0.21356 0.04918 0.49596
 N258 N 0.21290 0.08024 0.52857
 N259 N 0.61084 0.68196 -0.03076
 C260 C 0.61566 0.65355 0.00407
 N261 N 0.58625 0.65604 0.03817
 N262 N 0.55320 0.68525 0.03732
 C263 C 0.54827 0.71319 0.00240
 N264 N 0.57771 0.71124 -0.03161
 N265 N 0.84560 -0.08488 0.46123
 C266 C 0.84669 -0.11580 0.49412
 N267 N 0.81676 -0.11260 0.52777
 N268 N 0.78742 -0.07954 0.52877
 C269 C 0.78687 -0.04856 0.49607
 N270 N 0.81630 -0.05186 0.46222
 N271 N 0.41304 0.34418 1.03802
 C272 C 0.38363 0.34675 1.00401
 N273 N 0.38843 0.31843 0.96910
 N274 N 0.42158 0.28917 0.96808
 C275 C 0.45102 0.28714 1.00201
 N276 N 0.44610 0.31498 1.03701
 N277 N 0.84549 0.08533 0.53771
 C278 C 0.84666 0.11619 0.50475
 N279 N 0.81677 0.11294 0.47114
 N280 N 0.78741 0.07988 0.47022
 C281 C 0.78679 0.04896 0.50299
 N282 N 0.81618 0.05232 0.53680
 N283 N 0.41329 0.65564 -0.03635
 C284 C 0.38388 0.65324 -0.00224
 N285 N 0.38863 0.68182 0.03245
 N286 N 0.42171 0.71118 0.03316
 C287 C 0.45114 0.71305 -0.00086
 N288 N 0.44628 0.68493 -0.03564
 N289 N 0.15465 -0.08457 0.53817
 C290 C 0.15364 -0.11560 0.50540
 N291 N 0.18364 -0.11251 0.47180
 N292 N 0.21297 -0.07944 0.47074
 C293 C 0.21344 -0.04834 0.50332
 N294 N 0.18394 -0.05153 0.53711
 N295 N 0.61070 0.31845 1.03155
 C296 C 0.61541 0.34711 0.99690
 N297 N 0.58597 0.34480 0.96289
 N298 N 0.55297 0.31552 0.96366
 C299 C 0.54815 0.28733 0.99840
 N300 N 0.57762 0.28910 1.03232
 N301 N 0.46238 0.15526 1.08601
 C302 C 0.49614 0.15285 1.11569
 N303 N 0.53059 0.18165 1.11132
 N304 N 0.53143 0.21122 1.07832
 C305 C 0.49777 0.21309 1.04859
 N306 N 0.46320 0.18477 1.05309
 N307 N 0.03081 0.61158 0.68217
 C308 C -0.00373 0.61601 0.65351
 N309 N -0.03742 0.58622 0.65587
 N310 N -0.03645 0.55314 0.68519
 C311 C -0.00181 0.54858 0.71336
 N312 N 0.03179 0.57841 0.71155
 N313 N 0.53026 0.81792 -0.11130
 C314 C 0.49574 0.84660 -0.11578
 N315 N 0.46203 0.84435 -0.08595
 N316 N 0.46298 0.81512 -0.05279
 C317 C 0.49761 0.78691 -0.04819
 N318 N 0.53121 0.78862 -0.07806
 N319 N 0.96322 0.41382 0.34539
 C320 C 0.99658 0.38358 0.34741
 N321 N 1.03069 0.38751 0.31801
 N322 N 1.03166 0.42057 0.28851
 C323 C 0.99844 0.45082 0.28717
 N324 N 0.96416 0.44677 0.31593
 N325 N 0.53710 0.84536 0.08615
 C326 C 0.50378 0.84742 0.11650
 N327 N 0.46964 0.81812 0.11263
 N328 N 0.46859 0.78866 0.07955
 C329 C 0.50177 0.78727 0.04920
 N330 N 0.53608 0.81594 0.05318
 N331 N -0.03054 0.38853 0.68177
 C332 C 0.00402 0.38414 0.65306
 N333 N 0.03780 0.41382 0.65554
 N334 N 0.03688 0.44675 0.68502
 C335 C 0.00221 0.45127 0.71325
 N336 N -0.03147 0.42155 0.71131
 N337 N 0.46913 0.18218 0.88834
 C338 C 0.50373 0.15359 0.88382
 N339 N 0.53747 0.15603 0.91353
 N340 N 0.53647 0.18533 0.94661
 C341 C 0.50175 0.21343 0.95126
 N342 N 0.46811 0.21155 0.92151
 N343 N 1.03815 0.58594 0.34420
 C344 C 1.00444 0.61572 0.34651
 N345 N 0.96989 0.61119 0.31788
 N346 N 0.96892 0.57797 0.28858
 C347 C 1.00252 0.54816 0.28681
 N348 N 1.03718 0.55281 0.31496
 N349 N 1.08617 0.53656 0.15487
 C350 C 1.11602 0.50284 0.15259
 N351 N 1.11172 0.46842 0.18165
 N352 N 1.07870 0.46752 0.21112
 C353 C 1.04885 0.50111 0.21273
 N354 N 1.05326 0.53568 0.18428
 N355 N 0.65495 -0.03837 0.58467
 C356 C 0.65371 -0.00550 0.61560
 N357 N 0.68354 0.02820 0.61241
 N358 N 0.71293 0.02926 0.57933
 C359 C 0.71362 -0.00342 0.54834
 N360 N 0.68429 -0.03731 0.55164
 N361 N -0.08629 0.53743 0.84460
 C362 C -0.11575 0.50343 0.84708
 N363 N -0.11102 0.46865 0.81860
 N364 N -0.07789 0.46775 0.78925
 C365 C -0.04840 0.50167 0.78731
 N366 N -0.05326 0.53654 0.81532
 N367 N 0.31679 0.02788 0.38674
 C368 C 0.34657 -0.00587 0.38368
 N369 N 0.34531 -0.03860 0.41476
 N370 N 0.31600 -0.03736 0.44781
 C371 C 0.28671 -0.00342 0.45097
 N372 N 0.28743 0.02912 0.41983
 N373 N 0.11098 0.53141 0.81890
 C374 C 0.11565 0.49666 0.84743
 N375 N 0.08633 0.46255 0.84484
 N376 N 0.05347 0.46332 0.81544
 C377 C 0.04866 0.49817 0.78738
 N378 N 0.07803 0.53218 0.78943
 N379 N 0.65488 0.03808 0.41446
 C380 C 0.65379 0.00511 0.38363
 N381 N 0.68378 -0.02843 0.38686
 N382 N 0.71315 -0.02926 0.41989
 C383 C 0.71368 0.00351 0.45079
 N384 N 0.68420 0.03725 0.44745
 N385 N 0.88920 0.53092 0.18217
 C386 C 0.88432 0.49620 0.15365
 N387 N 0.91366 0.46210 0.15600
 N388 N 0.94674 0.46284 0.18517
 C389 C 0.95174 0.49766 0.21321
 N390 N 0.92236 0.53167 0.21140
 N391 N 0.34537 0.03866 0.58470
 C392 C 0.34642 0.00583 0.61568
 N393 N 0.31642 -0.02772 0.61258
 N394 N 0.28707 -0.02869 0.57954
 C395 C 0.28657 0.00394 0.54849
 N396 N 0.31607 0.03769 0.55169
   
