data_POSCAR
  _audit_creation_date              2014-09-24
  _audit_creation_method            'ToBaCCo'
  _symmetry_space_group_name_H-M    'P1'
  _symmetry_Int_Tables_number       1
  _symmetry_cell_setting            triclinic
  loop_
  _symmetry_equiv_pos_as_xyz
 x,y,z
_cell_length_a 25.5190
_cell_length_b 29.5510
_cell_length_c 29.3515
_cell_angle_alpha 90.082400
_cell_angle_beta 89.739500
_cell_angle_gamma 103.410900
loop_
  _atom_site_label
  _atom_site_type_symbol
  _atom_site_fract_x
  _atom_site_fract_y
  _atom_site_fract_z
O1 O 0.10999 0.41684 -0.03088
 O2 O 0.00821 0.42513 0.05648
 O3 O 0.10723 0.41210 0.05623
 O4 O 0.01173 0.42936 -0.03260
 O5 O -0.01993 0.35325 -0.03544
 O6 O 0.07626 0.33587 0.05279
 O7 O -0.02091 0.34876 0.05518
 O8 O 0.07791 0.34078 -0.03512
 Cu9 Cu 0.06202 0.42850 0.01282
 Cu10 Cu 0.02441 0.33711 0.00893
 C11 C 0.11187 0.37741 -0.04726
 C12 C -0.02312 0.38819 0.07135
 C13 C 0.10918 0.37128 0.06858
 C14 C -0.01997 0.39388 -0.04959
 O15 O 0.47119 0.86858 0.54088
 O16 O 0.54873 0.86028 0.43683
 O17 O 0.45040 0.86718 0.45401
 O18 O 0.57050 0.87188 0.52165
 O19 O 0.54813 0.79561 0.53125
 O20 O 0.43257 0.79034 0.45417
 O21 O 0.53266 0.78389 0.44439
 O22 O 0.44529 0.79181 0.54214
 Cu23 Cu 0.51193 0.87462 0.48761
 Cu24 Cu 0.48733 0.78261 0.49356
 C25 C 0.44446 0.83118 0.55883
 C26 C 0.55543 0.82091 0.42384
 C27 C 0.42151 0.82830 0.44178
 C28 C 0.57977 0.83509 0.53835
 O29 O 0.96642 0.62007 0.03671
 O30 O 0.93655 0.70616 -0.04439
 O31 O 0.95290 0.62791 -0.05598
 O32 O 0.93833 0.70158 0.04129
 O33 O 1.02556 0.73435 0.04046
 O34 O 1.04027 0.65992 -0.05649
 O35 O 1.02315 0.74120 -0.04673
 O36 O 1.05249 0.65526 0.03139
 Cu37 Cu 0.94067 0.65859 -0.00375
 Cu38 Cu 1.04423 0.70033 -0.00785
 C39 C 1.01491 0.62510 0.04953
 C40 C 0.97517 0.73780 -0.05983
 C41 C 0.99861 0.63514 -0.07533
 C42 C 0.97868 0.73095 0.05689
 O43 O 0.42566 0.07233 0.46505
 O44 O 0.52262 0.08308 0.55985
 O45 O 0.41969 0.07478 0.55356
 O46 O 0.53013 0.07708 0.47106
 O47 O 0.54149 0.15319 0.46421
 O48 O 0.43788 0.15159 0.55285
 O49 O 0.54150 0.15960 0.55306
 O50 O 0.43899 0.14886 0.46293
 Cu51 Cu 0.47318 0.06914 0.51243
 Cu52 Cu 0.49133 0.16092 0.50778
 C53 C 0.41535 0.10894 0.44829
 C54 C 0.54836 0.12318 0.57268
 C55 C 0.41104 0.11285 0.56819
 C56 C 0.55414 0.11551 0.45328
 O57 O 0.73119 0.06406 -0.04360
 O58 O 0.67596 -0.02874 0.03913
 O59 O 0.72435 0.05842 0.04594
 O60 O 0.67866 -0.02064 -0.05069
 O61 O 0.75624 -0.04189 -0.05054
 O62 O 0.80095 0.03575 0.04685
 O63 O 0.75272 -0.05115 0.03654
 O64 O 0.80873 0.04285 -0.04287
 Cu65 Cu 0.69466 0.02039 -0.00209
 Cu66 Cu 0.78765 -0.00541 -0.00220
 C67 C 0.77886 0.06796 -0.05845
 C68 C 0.70545 -0.05554 0.05210
 C69 C 0.77000 0.05970 0.06349
 C70 C 0.71039 -0.04344 -0.06787
 O71 O 0.24949 0.41363 0.55210
 O72 O 0.18088 0.46936 0.46694
 O73 O 0.24520 0.41253 0.46330
 O74 O 0.18982 0.47235 0.55496
 O75 O 0.25907 0.53285 0.54807
 O76 O 0.31769 0.47038 0.46062
 O77 O 0.25302 0.52716 0.46031
 O78 O 0.31971 0.47366 0.54997
 Cu79 Cu 0.20922 0.43590 0.50945
 Cu80 Cu 0.29481 0.50681 0.50406
 C81 C 0.29530 0.43477 0.56672
 C82 C 0.20501 0.50770 0.44924
 C83 C 0.29107 0.43119 0.44659
 C84 C 0.21506 0.51280 0.56698
 O85 O 0.23757 1.02438 0.05303
 O86 O 0.26648 0.95558 -0.04447
 O87 O 0.23657 1.03189 -0.03607
 O88 O 0.26836 0.94544 0.04325
 O89 O 0.18320 0.90679 0.04432
 O90 O 0.15171 0.99242 -0.03677
 O91 O 0.18177 0.91562 -0.04522
 O92 O 0.15268 0.98519 0.05201
 Cu93 Cu 0.26076 0.99327 0.00467
 Cu94 Cu 0.15882 0.94602 0.00393
 C95 C 0.18994 1.01687 0.06883
 C96 C 0.22892 0.92489 -0.06219
 C97 C 0.18890 1.02589 -0.05119
 C98 C 0.23167 0.91131 0.05694
 O99 O 0.86618 0.56496 0.54365
 O100 O 0.80847 0.47111 0.46295
 O101 O 0.85341 0.55783 0.45444
 O102 O 0.81000 0.47909 0.55246
 O103 O 0.73283 0.50080 0.55283
 O104 O 0.77821 0.58263 0.45941
 O105 O 0.73277 0.49525 0.46269
 O106 O 0.78857 0.58587 0.54701
 Cu107 Cu 0.84236 0.51619 0.50352
 Cu108 Cu 0.75023 0.54288 0.50602
 C109 C 0.83724 0.59105 0.55931
 C110 C 0.76165 0.46871 0.44742
 C111 C 0.82261 0.58291 0.43993
 C112 C 0.76363 0.47715 0.56956
 C113 C 0.32518 0.26755 0.38435
 C114 C 0.32487 0.22125 0.38572
 C115 C 0.30920 0.20326 0.34286
 N116 N 0.29874 0.23713 0.31584
 C117 C 0.30842 0.27639 0.34115
 C118 C 0.30643 0.15679 0.32894
 C119 C 0.28587 0.13916 0.28578
 C120 C 0.29256 0.09779 0.26684
 C121 C 0.26485 0.09177 0.22645
 C122 C 0.24291 0.13011 0.22090
 N123 N 0.25564 0.15881 0.25726
 C124 C 0.21098 0.13654 0.18317
 C125 C 0.20117 0.17978 0.16971
 C126 C 0.17728 0.18722 0.12893
 C127 C 0.17930 0.23393 0.12657
 C128 C 0.20338 0.25358 0.16644
 N129 N 0.21694 0.22034 0.19256
 C130 C 0.21199 0.30125 0.17830
 C131 C 0.23378 0.31948 0.22079
 C132 C 0.23012 0.36250 0.23782
 C133 C 0.25579 0.36802 0.27897
 C134 C 0.27388 0.32796 0.28675
 N135 N 0.26070 0.29858 0.25098
 C136 C 0.30053 0.31993 0.32705
 H137 H 0.33499 0.29163 0.41256
 H138 H 0.33416 0.20325 0.41555
 H139 H 0.27319 0.26794 0.24602
 H140 H 0.31553 0.07435 0.28021
 H141 H 0.26212 0.06274 0.20335
 H142 H 0.16166 0.16192 0.10274
 H143 H 0.16493 0.25106 0.09833
 H144 H 0.25925 0.39778 0.30126
 H145 H 0.23988 0.18754 0.26412
 H146 H 0.20978 0.38713 0.22289
 C147 C 0.86094 0.84913 0.13982
 C148 C 0.81355 0.86313 0.13516
 C149 C 0.77531 0.83306 0.16152
 N150 N 0.79855 0.80206 0.18263
 C151 C 0.85068 0.81204 0.16984
 C152 C 0.71950 0.83194 0.16506
 C153 C 0.68753 0.80216 0.19716
 C154 C 0.63200 0.78565 0.19583
 C155 C 0.61670 0.76602 0.23777
 C156 C 0.66354 0.76936 0.26233
 N157 N 0.70634 0.79100 0.23748
 C158 C 0.66585 0.76501 0.30957
 C159 C 0.70578 0.74541 0.32905
 C160 C 0.71302 0.73814 0.37488
 C161 C 0.75630 0.71754 0.37766
 C162 C 0.77491 0.71448 0.33344
 N163 N 0.74319 0.73069 0.30405
 C164 C 0.82009 0.69732 0.31994
 C165 C 0.85241 0.71562 0.28126
 C166 C 0.90102 0.70495 0.26942
 C167 C 0.91926 0.72909 0.23044
 C168 C 0.88260 0.75537 0.21983
 N169 N 0.84287 0.74805 0.25161
 C170 C 0.88820 0.78612 0.18220
 H171 H 0.89892 0.86491 0.12354
 H172 H 0.80922 0.89246 0.11491
 H173 H 0.81224 0.76560 0.25351
 H174 H 0.60503 0.78912 0.16841
 H175 H 0.57583 0.75288 0.24977
 H176 H 0.68961 0.74648 0.40317
 H177 H 0.77346 0.70848 0.40898
 H178 H 0.95640 0.72840 0.21278
 H179 H 0.74452 0.80486 0.25084
 H180 H 0.92319 0.68381 0.28769
 C181 C 0.66734 0.24532 0.38138
 C182 C 0.68395 0.29265 0.37895
 C183 C 0.71920 0.30246 0.34244
 N184 N 0.72457 0.26250 0.32239
 C185 C 0.69202 0.22719 0.34559
 C186 C 0.74885 0.34763 0.33105
 C187 C 0.78728 0.35687 0.29546
 C188 C 0.82913 0.39605 0.29275
 C189 C 0.85617 0.39263 0.25264
 C190 C 0.82891 0.35223 0.23094
 N191 N 0.78722 0.33042 0.25776
 C192 C 0.84078 0.33729 0.18669
 C193 C 0.81940 0.29125 0.17136
 C194 C 0.82083 0.27602 0.12671
 C195 C 0.80221 0.22866 0.12739
 C196 C 0.78881 0.21646 0.17222
 N197 N 0.79940 0.25470 0.19904
 C198 C 0.77232 0.17032 0.18816
 C199 C 0.74895 0.15816 0.23167
 C200 C 0.73565 0.11335 0.24886
 C201 C 0.71064 0.11546 0.29015
 C202 C 0.71009 0.16179 0.29791
 N203 N 0.73250 0.18726 0.26134
 C204 C 0.68685 0.17893 0.33675
 H205 H 0.64110 0.22726 0.40776
 H206 H 0.67284 0.31692 0.40268
 H207 H 0.73225 0.22166 0.25484
 H208 H 0.83975 0.42376 0.31756
 H209 H 0.89217 0.41716 0.24140
 H210 H 0.83395 0.29661 0.09657
 H211 H 0.79905 0.20582 0.09817
 H212 H 0.69378 0.08555 0.31103
 H213 H 0.75669 0.30194 0.24872
 H214 H 0.74181 0.08201 0.23276
 C215 C 0.10488 0.71197 0.14028
 C216 C 0.13950 0.75493 0.13704
 C217 C 0.17886 0.75599 0.16949
 N218 N 0.17037 0.71464 0.19147
 C219 C 0.12539 0.68736 0.17342
 C220 C 0.22443 0.79283 0.17601
 C221 C 0.25519 0.79733 0.21664
 C222 C 0.30283 0.83032 0.22410
 C223 C 0.31782 0.82493 0.26823
 C224 C 0.27870 0.78923 0.28701
 N225 N 0.24050 0.77285 0.25555
 C226 C 0.27777 0.77442 0.33287
 C227 C 0.24714 0.73112 0.34841
 C228 C 0.24186 0.71726 0.39365
 C229 C 0.21203 0.67222 0.39399
 C230 C 0.19997 0.66013 0.34897
 N231 N 0.22161 0.69612 0.32114
 C232 C 0.17162 0.61588 0.33391
 C233 C 0.15301 0.60741 0.28875
 C234 C 0.13677 0.56376 0.26889
 C235 C 0.11762 0.57036 0.22633
 C236 C 0.12328 0.61784 0.22128
 N237 N 0.14487 0.64022 0.25934
 C238 C 0.10622 0.63931 0.18321
 H239 H 0.06893 0.70040 0.12013
 H240 H 0.13571 0.78214 0.11362
 H241 H 0.14796 0.67522 0.26659
 H242 H 0.32430 0.85664 0.20095
 H243 H 0.35342 0.84538 0.28464
 H244 H 0.25788 0.73741 0.42337
 H245 H 0.20036 0.65100 0.42401
 H246 H 0.10152 0.54333 0.20186
 H247 H 0.20384 0.74979 0.26211
 H248 H 0.13841 0.53051 0.28347
 C249 C 0.80949 0.24007 0.88748
 C250 C 0.82596 0.28756 0.88979
 C251 C 0.82464 0.30402 0.84562
 N252 N 0.80677 0.26828 0.81672
 C253 C 0.79753 0.22932 0.84223
 C254 C 0.84530 0.35036 0.83137
 C255 C 0.83264 0.36578 0.78781
 C256 C 0.85909 0.40648 0.76621
 C257 C 0.83185 0.40928 0.72618
 C258 C 0.79022 0.36976 0.72390
 N259 N 0.79087 0.34362 0.76155
 C260 C 0.74960 0.36089 0.69030
 C261 C 0.71504 0.31658 0.68316
 C262 C 0.66875 0.30802 0.65694
 C263 C 0.64862 0.26076 0.65683
 C264 C 0.68398 0.24166 0.68206
 N265 N 0.72452 0.27600 0.69815
 C266 C 0.68087 0.19350 0.68829
 C267 C 0.71566 0.17831 0.71923
 C268 C 0.72995 0.13576 0.71789
 C269 C 0.75922 0.13304 0.75671
 C270 C 0.76266 0.17429 0.78024
 N271 N 0.73639 0.20175 0.75709
 C272 C 0.78498 0.18425 0.82394
 H273 H 0.80726 0.21622 0.91575
 H274 H 0.83812 0.30742 0.92051
 H275 H 0.72726 0.23213 0.76937
 H276 H 0.89432 0.43166 0.77776
 H277 H 0.84147 0.43732 0.70165
 H278 H 0.65095 0.33309 0.63972
 H279 H 0.61187 0.24318 0.64016
 H280 H 0.77538 0.10380 0.76677
 H281 H 0.76063 0.31500 0.77101
 H282 H 0.72006 0.10921 0.69188
 C283 C 0.13534 0.77823 0.85342
 C284 C 0.09736 0.73741 0.84809
 C285 C 0.10411 0.72094 0.80461
 N286 N 0.14310 0.75193 0.78251
 C287 C 0.16291 0.78650 0.81246
 C288 C 0.07455 0.67845 0.78561
 C289 C 0.08695 0.66250 0.74259
 C290 C 0.05314 0.62853 0.71688
 C291 C 0.08386 0.61699 0.68215
 C292 C 0.13583 0.64335 0.68830
 N293 N 0.13703 0.67194 0.72436
 C294 C 0.18210 0.63602 0.66573
 C295 C 0.22939 0.67186 0.66210
 C296 C 0.27889 0.66737 0.64545
 C297 C 0.31257 0.71108 0.64662
 C298 C 0.28259 0.74061 0.66430
 N299 N 0.23185 0.71661 0.67344
 C300 C 0.30074 0.78903 0.67098
 C301 C 0.27178 0.81359 0.69908
 C302 C 0.27661 0.86137 0.69875
 C303 C 0.25001 0.87176 0.73680
 C304 C 0.22860 0.82992 0.75838
 N305 N 0.24101 0.79457 0.73484
 C306 C 0.20498 0.82531 0.80196
 H307 H 0.14075 0.79912 0.88399
 H308 H 0.06797 0.72241 0.87361
 H309 H 0.23610 0.76059 0.74671
 H310 H 0.01125 0.61233 0.72290
 H311 H 0.07000 0.59061 0.65654
 H312 H 0.29019 0.63607 0.63428
 H313 H 0.35460 0.71964 0.63673
 H314 H 0.24775 0.90615 0.74806
 H315 H 0.17187 0.69050 0.74019
 H316 H 0.29847 0.88642 0.67455
 C317 C 0.32758 0.23132 0.63232
 C318 C 0.33023 0.27800 0.63417
 C319 C 0.31410 0.28725 0.67763
 N320 N 0.30263 0.24779 0.70266
 C321 C 0.31119 0.21340 0.67513
 C322 C 0.30817 0.33139 0.69210
 C323 C 0.28273 0.34012 0.73311
 C324 C 0.26560 0.38062 0.74127
 C325 C 0.23978 0.37535 0.78257
 C326 C 0.24233 0.33200 0.79934
 N327 N 0.26894 0.31075 0.76890
 C328 C 0.21955 0.31368 0.84166
 C329 C 0.21079 0.26607 0.85378
 C330 C 0.18772 0.24704 0.89440
 C331 C 0.18432 0.20018 0.89204
 C332 C 0.20638 0.19194 0.85049
 N333 N 0.22254 0.23223 0.82720
 C334 C 0.21351 0.14797 0.83641
 C335 C 0.24324 0.14034 0.79737
 C336 C 0.26189 0.10046 0.79016
 C337 C 0.28873 0.10591 0.74912
 C338 C 0.28487 0.14859 0.73148
 N339 N 0.25710 0.16946 0.76137
 C340 C 0.30577 0.16636 0.68829
 H341 H 0.33582 0.21306 0.60219
 H342 H 0.34122 0.30207 0.60608
 H343 H 0.24376 0.19959 0.75568
 H344 H 0.26946 0.41038 0.71900
 H345 H 0.21987 0.40032 0.79764
 H346 H 0.17502 0.26467 0.92324
 H347 H 0.16886 0.17524 0.91863
 H348 H 0.30932 0.08121 0.73446
 H349 H 0.28032 0.27957 0.77352
 H350 H 0.25761 0.07078 0.81260
 C351 C 0.76354 0.77044 0.59505
 C352 C 0.80207 0.74521 0.60018
 C353 C 0.80937 0.74127 0.64669
 N354 N 0.77603 0.76229 0.67006
 C355 C 0.74838 0.78039 0.63861
 C356 C 0.84465 0.71715 0.66723
 C357 C 0.86072 0.72477 0.71326
 C358 C 0.88648 0.69687 0.73863
 C359 C 0.89909 0.71863 0.77999
 C360 C 0.87959 0.75868 0.77911
 N361 N 0.85647 0.76225 0.73839
 C362 C 0.88731 0.79286 0.81359
 C363 C 0.85545 0.82559 0.81784
 C364 C 0.86548 0.86322 0.84730
 C365 C 0.82220 0.88324 0.84417
 C366 C 0.78667 0.85656 0.81349
 N367 N 0.80732 0.82144 0.79744
 C368 C 0.73485 0.86258 0.80217
 C369 C 0.70773 0.84085 0.76309
 C370 C 0.65352 0.83602 0.75317
 C371 C 0.64618 0.82016 0.70897
 C372 C 0.69548 0.81383 0.69407
 N373 N 0.73257 0.82616 0.72705
 C374 C 0.70766 0.80353 0.64920
 H375 H 0.74790 0.77977 0.56307
 H376 H 0.82282 0.73191 0.57282
 H377 H 0.77395 0.83094 0.72218
 H378 H 0.89563 0.66437 0.72846
 H379 H 0.92037 0.70642 0.80744
 H380 H 0.90022 0.87498 0.86892
 H381 H 0.81822 0.91420 0.86217
 H382 H 0.60907 0.81429 0.68981
 H383 H 0.84420 0.79142 0.72683
 H384 H 0.62247 0.84385 0.77492
 C385 C 0.17836 0.04384 0.10481
 C386 C 0.12803 0.03862 0.12450
 C387 C 0.13404 0.07234 0.15703
 C388 C 0.18747 0.09542 0.15486
 O389 O 0.21463 0.07839 0.12322
 H390 H 0.09126 0.01361 0.11581
 H391 H 0.10318 0.07974 0.17932
 C392 C 0.85941 0.62747 0.59258
 C393 C 0.91204 0.63893 0.60741
 C394 C 0.91425 0.67433 0.63787
 C395 C 0.86260 0.68136 0.63958
 O396 O 0.82952 0.65312 0.61192
 H397 H 0.94482 0.62359 0.59702
 H398 H 0.94933 0.69306 0.65621
 C399 C 0.68799 0.91146 0.08572
 C400 C 0.64430 0.90979 0.11385
 C401 C 0.64927 0.87910 0.14732
 C402 C 0.69461 0.86294 0.13619
 O403 O 0.71774 0.88281 0.09872
 H404 H 0.61531 0.93131 0.11253
 H405 H 0.62456 0.87198 0.17767
 C406 C 0.31861 0.41424 0.60479
 C407 C 0.36634 0.43421 0.62633
 C408 C 0.36947 0.40538 0.66206
 C409 C 0.32348 0.37021 0.65931
 O410 O 0.29256 0.37546 0.62477
 H411 H 0.39461 0.46643 0.61771
 H412 H 0.40085 0.40972 0.68744
 C413 C 0.93949 0.39063 0.10563
 C414 C 0.92582 0.43082 0.12015
 C415 C 0.88611 0.41671 0.15195
 C416 C 0.87973 0.36907 0.15584
 O417 O 0.91187 0.35340 0.12726
 H418 H 0.94134 0.46589 0.10778
 H419 H 0.86383 0.43857 0.16941
 C420 C 0.41227 0.83314 0.59962
 C421 C 0.42653 0.86534 0.63391
 C422 C 0.38734 0.85270 0.66615
 C423 C 0.35127 0.81445 0.64838
 O424 O 0.36702 0.80221 0.60821
 H425 H 0.46208 0.89357 0.63577
 H426 H 0.38569 0.86915 0.69891
 C427 C 0.02779 0.60349 0.08834
 C428 C -0.00904 0.57992 0.11976
 C429 C 0.01818 0.58484 0.16029
 C430 C 0.06935 0.61053 0.15007
 O431 O 0.07556 0.61967 0.10638
 H432 H -0.05206 0.56736 0.11538
 H433 H 0.00085 0.57647 0.19381
 C434 C 0.58469 0.12761 0.61206
 C435 C 0.58071 0.09416 0.64527
 C436 C 0.61618 0.11407 0.67813
 C437 C 0.64042 0.15807 0.66222
 O438 O 0.62075 0.16628 0.62210
 H439 H 0.55316 0.06028 0.64650
 H440 H 0.62206 0.09876 0.71061
 C441 C 0.79859 0.10009 0.90405
 C442 C 0.84729 0.10360 0.88206
 C443 C 0.84775 0.13453 0.84759
 C444 C 0.79917 0.14706 0.85109
 O445 O 0.76932 0.12652 0.88539
 H446 H 0.87845 0.08553 0.89005
 H447 H 0.87986 0.14716 0.82334
 C448 C 0.17689 0.52994 0.41564
 C449 C 0.12327 0.51442 0.40454
 C450 C 0.11368 0.54491 0.37264
 C451 C 0.16234 0.57648 0.36646
 O452 O 0.20067 0.56766 0.39279
 H453 H 0.09464 0.48461 0.41823
 H454 H 0.07589 0.54425 0.35577
 C455 C 0.24029 0.90095 0.89638
 C456 C 0.29089 0.90699 0.87744
 C457 C 0.28395 0.88016 0.83936
 C458 C 0.22940 0.85987 0.83744
 O459 O 0.20281 0.87251 0.87226
 H460 H 0.32839 0.92825 0.89008
 H461 H 0.31521 0.87519 0.81614
 C462 C 0.74154 0.43648 0.40975
 C463 C 0.69414 0.43533 0.38692
 C464 C 0.69198 0.40315 0.35331
 C465 C 0.73828 0.38714 0.35796
 O466 O 0.76857 0.40719 0.39226
 H467 H 0.66481 0.45570 0.39387
 H468 H 0.66000 0.39183 0.32886
 C469 C 0.15519 0.37398 0.92066
 C470 C 0.20257 0.40739 0.91629
 C471 C 0.23328 0.38913 0.88657
 C472 C 0.20201 0.34619 0.87426
 O473 O 0.15466 0.33679 0.89532
 H474 H 0.21397 0.44043 0.93383
 H475 H 0.27380 0.40503 0.87531
 C476 C 0.59025 0.81870 0.38459
 C477 C 0.60908 0.85594 0.35612
 C478 C 0.63961 0.84024 0.32467
 C479 C 0.63750 0.79456 0.33637
 O480 O 0.60752 0.78122 0.37297
 H481 H 0.60123 0.89035 0.35803
 H482 H 0.66118 0.85976 0.29645
 C483 C 0.96466 0.76880 0.90445
 C484 C 1.00235 0.80609 0.88705
 C485 C 0.97785 0.82115 0.85078
 C486 C 0.92741 0.79172 0.84905
 O487 O 0.91923 0.75995 0.88140
 H488 H 1.04323 0.81961 0.89854
 H489 H 0.99493 0.84928 0.82770
 C490 C 0.37511 0.10546 0.41188
 C491 C 0.33489 0.06656 0.40296
 C492 C 0.30387 0.08003 0.37016
 C493 C 0.32808 0.12599 0.36074
 O494 O 0.37127 0.14132 0.38628
 H495 H 0.32771 0.03310 0.41978
 H496 H 0.26705 0.05926 0.35587
 C497 C 0.69654 0.93091 0.88950
 C498 C 0.66663 0.94452 0.85543
 C499 C 0.67559 0.92006 0.81790
 C500 C 0.70933 0.89237 0.83213
 O501 O 0.72213 0.89938 0.87559
 H502 H 0.64523 0.97212 0.85668
 H503 H 0.66207 0.92452 0.78368
 C504 C 0.31289 0.40726 0.40997
 C505 C 0.36290 0.42291 0.39005
 C506 C 0.36550 0.39151 0.35652
 C507 C 0.31694 0.35935 0.35878
 O508 O 0.28487 0.36871 0.39103
 H509 H 0.39335 0.45379 0.39855
 H510 H 0.39828 0.39222 0.33282
 C511 C 0.17768 0.05553 0.91514
 C512 C 0.12752 0.05186 0.89598
 C513 C 0.13472 0.08575 0.86358
 C514 C 0.18866 0.10735 0.86515
 O515 O 0.21497 0.08935 0.89650
 H516 H 0.09025 0.02729 0.90446
 H517 H 0.10439 0.09398 0.84149
 C518 C 0.83590 0.60940 0.39771
 C519 C 0.85408 0.59089 0.35949
 C520 C 0.85021 0.62096 0.32541
 C521 C 0.83238 0.65715 0.34557
 O522 O 0.82176 0.64898 0.38943
 H523 H 0.86433 0.55748 0.35616
 H524 H 0.85699 0.61561 0.28961
 C525 C 0.00295 0.62392 0.87917
 C526 C -0.04012 0.61488 0.84946
 C527 C -0.01865 0.63060 0.80801
 C528 C 0.03589 0.64654 0.81547
 O529 O 0.04886 0.64067 0.85799
 H530 H -0.08256 0.60598 0.85810
 H531 H -0.04100 0.63533 0.77793
 C532 C 0.59820 0.11731 0.42046
 C533 C 0.63757 0.09269 0.42480
 C534 C 0.67582 0.11141 0.39310
 C535 C 0.65618 0.14517 0.37078
 O536 O 0.60918 0.14882 0.38777
 H537 H 0.64009 0.06692 0.45035
 H538 H 0.71471 0.10322 0.38863
 C539 C 0.94259 0.39934 0.91387
 C540 C 0.92763 0.43996 0.90305
 C541 C 0.88955 0.42793 0.86972
 C542 C 0.88480 0.38097 0.86215
 O543 O 0.91706 0.36388 0.88903
 H544 H 0.94125 0.47377 0.91879
 H545 H 0.86664 0.45032 0.85417
 C546 C 0.37521 0.82760 0.41235
 C547 C 0.35546 0.86618 0.40267
 C548 C 0.31495 0.85115 0.37236
 C549 C 0.31345 0.80465 0.36569
 O550 O 0.34971 0.79015 0.39015
 H551 H 0.36950 0.90117 0.41566
 H552 H 0.29021 0.87166 0.35621
 C553 C 0.24636 0.87634 0.08698
 C554 C 0.29595 0.86542 0.08559
 C555 C 0.29361 0.83195 0.11781
 C556 C 0.24323 0.82565 0.13754
 O557 O 0.21394 0.85208 0.11828
 H558 H 0.32953 0.87976 0.06324
 H559 H 0.32511 0.81446 0.12636
 C560 C 0.74540 0.44856 0.61014
 C561 C 0.70135 0.45245 0.63600
 C562 C 0.69843 0.42118 0.67041
 C563 C 0.74065 0.40031 0.66283
 O564 O 0.76959 0.41692 0.62640
 H565 H 0.67460 0.47544 0.63038
 H566 H 0.66845 0.41356 0.69723
 C567 C 0.78652 0.08803 0.10452
 C568 C 0.83151 0.08670 0.12990
 C569 C 0.83095 0.11629 0.16545
 C570 C 0.78566 0.13338 0.15918
 O571 O 0.75857 0.11649 0.12214
 H572 H 0.86103 0.06643 0.12331
 H573 H 0.86042 0.12509 0.19236
 C574 C 0.19373 0.53634 0.60396
 C575 C 0.16163 0.51353 0.63851
 C576 C 0.15378 0.54779 0.66684
 C577 C 0.18069 0.58907 0.64682
 O578 O 0.20561 0.58202 0.60884
 H579 H 0.14715 0.47639 0.64312
 H580 H 0.13143 0.54319 0.69858
 C581 C 0.97025 0.76043 0.09501
 C582 C 1.00892 0.79533 0.11481
 C583 C 0.98328 0.81121 0.15038
 C584 C 0.93117 0.78477 0.14899
 O585 O 0.92323 0.75408 0.11569
 H586 H 1.05069 0.80727 0.10486
 H587 H 1.00043 0.83804 0.17471
 C588 C 0.36955 0.11213 0.60341
 C589 C 0.32668 0.07504 0.61165
 C590 C 0.29703 0.08992 0.64488
 C591 C 0.32461 0.13473 0.65529
 O592 O 0.36858 0.14818 0.62989
 H593 H 0.31728 0.04176 0.59441
 H594 H 0.25915 0.07078 0.65908
 C595 C 0.15162 0.36503 0.10004
 C596 C 0.19965 0.39732 0.10543
 C597 C 0.22905 0.37718 0.13433
 C598 C 0.19644 0.33433 0.14532
 O599 O 0.14948 0.32665 0.12400
 H600 H 0.21220 0.43100 0.08923
 H601 H 0.26941 0.39204 0.14636
 C602 C 0.62815 0.83911 0.56588
 C603 C 0.66943 0.87862 0.56673
 C604 C 0.70537 0.86939 0.59718
 C605 C 0.68319 0.82510 0.61254
 O606 O 0.63620 0.80635 0.59379
 H607 H 0.67252 0.91051 0.54774
 H608 H 0.74271 0.89242 0.60788
   
