data_POSCAR
  _audit_creation_date              2014-09-24
  _audit_creation_method            'ToBaCCo'
  _symmetry_space_group_name_H-M    'P1'
  _symmetry_Int_Tables_number       1
  _symmetry_cell_setting            triclinic
  loop_
  _symmetry_equiv_pos_as_xyz
 x,y,z
_cell_length_a 22.6065
_cell_length_b 21.0139
_cell_length_c 62.2549
_cell_angle_alpha 93.625000
_cell_angle_beta 85.816100
_cell_angle_gamma 117.453900
loop_
  _atom_site_label
  _atom_site_type_symbol
  _atom_site_fract_x
  _atom_site_fract_y
  _atom_site_fract_z
C1 C -0.10996 -0.16152 0.48095
 C2 C -0.06593 -0.11905 0.49670
 C3 C -0.05625 -0.15117 0.51423
 C4 C -0.09065 -0.22591 0.51653
 C5 C -0.13538 -0.26776 0.50059
 C6 C -0.14516 -0.23673 0.48251
 C7 C -0.02863 -0.04050 0.49487
 C8 C -0.03327 0.00454 0.51179
 C9 C 0.00540 0.07917 0.51099
 C10 C 0.04904 0.10843 0.49299
 C11 C 0.05438 0.06393 0.47592
 C12 C 0.01478 -0.01067 0.47692
 H13 H -0.11439 -0.13536 0.46717
 H14 H -0.02298 -0.11676 0.52637
 H15 H -0.06593 -0.01882 0.52582
 H16 H 0.01861 -0.04570 0.46395
 H17 H -0.16240 -0.32514 0.50220
 H18 H 0.07982 0.16599 0.49245
 C19 C 1.00588 -0.02138 0.15227
 C20 C 0.97032 -0.00529 0.16924
 C21 C 1.00423 0.04294 0.18585
 C22 C 1.07407 0.07613 0.18556
 C23 C 1.10957 0.05989 0.16843
 C24 C 1.07624 0.01108 0.15145
 C25 C 0.89752 -0.03537 0.16881
 C26 C 0.85568 -0.09289 0.18174
 C27 C 0.78573 -0.12257 0.18118
 C28 C 0.75913 -0.09301 0.16720
 C29 C 0.80100 -0.03667 0.15376
 C30 C 0.87021 -0.00761 0.15484
 H31 H 0.97797 -0.05650 0.13922
 H32 H 0.97607 0.05493 0.19890
 H33 H 0.87829 -0.11522 0.19171
 H34 H 0.90302 0.03539 0.14439
 H35 H 1.16339 0.08481 0.16874
 H36 H 0.70573 -0.11315 0.16667
 C37 C 0.08250 1.02797 0.85725
 C38 C 0.04823 1.03434 0.84024
 C39 C 0.03646 0.98845 0.82197
 C40 C 0.05834 0.93590 0.82063
 C41 C 0.09141 0.92896 0.83786
 C42 C 0.10448 0.97492 0.85638
 C43 C 0.02557 1.08999 0.84135
 C44 C 0.05176 1.14440 0.82635
 C45 C 0.03139 1.19827 0.82728
 C46 C -0.01623 1.19645 0.84340
 C47 C -0.04368 1.14198 0.85870
 C48 C -0.02187 1.08874 0.85737
 H49 H 0.09015 1.06341 0.87132
 H50 H 0.01113 0.99442 0.80870
 H51 H 0.08906 1.14534 0.81423
 H52 H -0.03988 1.04711 0.86909
 H53 H 0.10948 0.88924 0.83620
 H54 H -0.03464 1.23561 0.84309
 O55 O 0.40898 -0.01703 -0.02091
 O56 O 0.49932 -0.05549 0.01801
 O57 O 0.40390 -0.01910 0.02121
 O58 O 0.51496 -0.03766 -0.02327
 O59 O 0.58175 0.07832 -0.01953
 O60 O 0.47407 0.09619 0.02416
 O61 O 0.56907 0.05957 0.02213
 O62 O 0.47581 0.09906 -0.01766
 Cu63 Cu 0.44988 -0.04358 -0.00168
 Cu64 Cu 0.53208 0.09465 0.00251
 C65 C 0.42593 0.04663 -0.02605
 C66 C 0.54898 -0.00554 0.02694
 C67 C 0.42129 0.04235 0.03049
 C68 C 0.56789 0.01813 -0.02887
 O69 O 0.06869 0.46281 0.68521
 O70 O 0.04889 0.57273 0.64595
 O71 O 0.06031 0.45519 0.64350
 O72 O 0.06654 0.58587 0.68744
 O73 O 0.17594 0.64325 0.68200
 O74 O 0.16967 0.51575 0.63856
 O75 O 0.15813 0.63339 0.64059
 O76 O 0.17846 0.52081 0.68009
 Cu77 Cu 0.05018 0.51340 0.66607
 Cu78 Cu 0.18144 0.58443 0.65980
 C79 C 0.12639 0.47268 0.68934
 C80 C 0.09949 0.62101 0.63629
 C81 C 0.11450 0.46374 0.63348
 C82 C 0.12310 0.63643 0.69238
 O83 O 0.50078 0.54737 0.30879
 O84 O 0.37283 0.44896 0.35001
 O85 O 0.49135 0.55867 0.35084
 O86 O 0.38827 0.43060 0.30848
 O87 O 0.44055 0.36588 0.31219
 O88 O 0.53570 0.48675 0.35540
 O89 O 0.41816 0.37740 0.35370
 O90 O 0.55352 0.48378 0.31385
 Cu91 Cu 0.43343 0.50314 0.32913
 Cu92 Cu 0.49162 0.42148 0.33413
 C93 C 0.54924 0.53341 0.30442
 C94 C 0.37281 0.39630 0.35887
 C95 C 0.53087 0.54354 0.36051
 C96 C 0.39791 0.37656 0.30297
 C97 C 0.06185 0.18121 0.53734
 C98 C 0.05995 0.22520 0.55498
 C99 C -0.00212 0.21452 0.56488
 C100 C -0.06129 0.15954 0.55694
 C101 C -0.05893 0.11562 0.53940
 C102 C 0.00259 0.12620 0.52941
 C103 C -0.00390 0.25885 0.58252
 C104 C 0.05567 0.31358 0.59039
 C105 C 0.11760 0.32364 0.58048
 C106 C 0.11933 0.27950 0.56289
 C107 C 0.17707 0.37800 0.58826
 C108 C 0.17551 0.42262 0.60558
 C109 C 0.11444 0.41388 0.61555
 C110 C 0.05449 0.35875 0.60792
 H111 H 0.10959 0.18900 0.52998
 H112 H -0.10936 0.15047 0.56429
 H113 H -0.10527 0.07374 0.53348
 H114 H -0.05150 0.25083 0.59008
 H115 H 0.16694 0.28753 0.55531
 H116 H 0.22490 0.38631 0.58087
 H117 H 0.22250 0.46442 0.61109
 H118 H 0.00709 0.35145 0.61543
 C119 C 0.76067 0.80459 0.21462
 C120 C 0.71759 0.74705 0.22750
 C121 C 0.65248 0.70098 0.22090
 C122 C 0.63296 0.71046 0.20103
 C123 C 0.67681 0.76618 0.18798
 C124 C 0.74065 0.81535 0.19477
 C125 C 0.60760 0.64668 0.23437
 C126 C 0.62736 0.63697 0.25421
 C127 C 0.69373 0.68000 0.26028
 C128 C 0.73830 0.73532 0.24697
 C129 C 0.71369 0.66803 0.27985
 C130 C 0.66745 0.61629 0.29373
 C131 C 0.60066 0.57678 0.28833
 C132 C 0.58117 0.58625 0.26839
 H133 H 0.80907 0.84165 0.22044
 H134 H 0.58368 0.67464 0.19553
 H135 H 0.66026 0.77020 0.17249
 H136 H 0.55702 0.61270 0.22956
 H137 H 0.78867 0.76971 0.25188
 H138 H 0.76449 0.69999 0.28467
 H139 H 0.68291 0.60988 0.30917
 H140 H 0.52947 0.55549 0.26424
 C141 C 0.18298 0.02859 -0.11428
 C142 C 0.22158 0.02177 -0.09866
 C143 C 0.21502 -0.04675 -0.09475
 C144 C 0.17067 -0.10693 -0.10640
 C145 C 0.13404 -0.09960 -0.12223
 C146 C 0.13976 -0.03187 -0.12668
 C147 C 0.25351 -0.05427 -0.07945
 C148 C 0.29979 0.00603 -0.06824
 C149 C 0.30747 0.07493 -0.07217
 C150 C 0.26781 0.08239 -0.08726
 C151 C 0.35503 0.13495 -0.06101
 C152 C 0.39441 0.12653 -0.04611
 C153 C 0.38641 0.05792 -0.04203
 C154 C 0.33886 -0.00193 -0.05325
 H155 H 0.19000 0.08169 -0.11756
 H156 H 0.16470 -0.15987 -0.10341
 H157 H 0.09953 -0.14803 -0.13053
 H158 H 0.24807 -0.10707 -0.07646
 H159 H 0.27350 0.13521 -0.09032
 H160 H 0.36185 0.18832 -0.06382
 H161 H 0.43059 0.17350 -0.03766
 H162 H 0.33229 -0.05525 -0.05043
 C163 C -0.01762 0.77203 0.54383
 C164 C -0.00664 0.73878 0.56092
 C165 C -0.05925 0.67512 0.56909
 C166 C -0.12158 0.64553 0.56001
 C167 C -0.13185 0.67800 0.54278
 C168 C -0.08022 0.74179 0.53429
 C169 C -0.04865 0.64145 0.58606
 C170 C 0.01442 0.66971 0.59468
 C171 C 0.06753 0.73287 0.58640
 C172 C 0.05652 0.76745 0.56968
 C173 C 0.13089 0.75969 0.59484
 C174 C 0.14162 0.72378 0.61115
 C175 C 0.08894 0.66109 0.61951
 C176 C 0.02532 0.63483 0.61124
 H177 H 0.02404 0.81943 0.53734
 H178 H -0.16257 0.59697 0.56621
 H179 H -0.18151 0.65404 0.53677
 H180 H -0.08923 0.59262 0.59233
 H181 H 0.09721 0.81602 0.56333
 H182 H 0.17227 0.80797 0.58866
 H183 H 0.19107 0.74506 0.61724
 H184 H -0.01567 0.58609 0.61737
 C185 C 0.16444 0.12652 0.21200
 C186 C 0.19957 0.17668 0.22817
 C187 C 0.18036 0.22983 0.23553
 C188 C 0.12591 0.23148 0.22661
 C189 C 0.09110 0.18123 0.21050
 C190 C 0.11018 0.12851 0.20298
 C191 C 0.21587 0.28034 0.25165
 C192 C 0.27021 0.27810 0.26054
 C193 C 0.28892 0.22451 0.25317
 C194 C 0.25364 0.17434 0.23706
 C195 C 0.34270 0.22173 0.26206
 C196 C 0.37769 0.27133 0.27816
 C197 C 0.35994 0.32508 0.28570
 C198 C 0.30606 0.32831 0.27672
 H199 H 0.17895 0.08544 0.20655
 H200 H 0.11042 0.27180 0.23202
 H201 H 0.04985 0.18430 0.20365
 H202 H 0.20121 0.32118 0.25727
 H203 H 0.26827 0.13346 0.23144
 H204 H 0.35767 0.18104 0.25660
 H205 H 0.41902 0.26754 0.28469
 H206 H 0.29174 0.36932 0.28241
 C207 C 0.85824 0.07608 -0.11660
 C208 C 0.80951 0.07585 -0.10114
 C209 C 0.81135 0.14157 -0.09365
 C210 C 0.86097 0.20603 -0.10178
 C211 C 0.90836 0.20588 -0.11737
 C212 C 0.90810 0.14114 -0.12517
 C213 C 0.76350 0.14211 -0.07815
 C214 C 0.71307 0.07765 -0.07015
 C215 C 0.71001 0.01153 -0.07780
 C216 C 0.75851 0.01101 -0.09321
 C217 C 0.65855 -0.05269 -0.06979
 C218 C 0.61121 -0.05121 -0.05417
 C219 C 0.61485 0.01454 -0.04622
 C220 C 0.66580 0.07866 -0.05450
 H221 H 0.85491 0.02509 -0.12261
 H222 H 0.86328 0.25688 -0.09605
 H223 H 0.94683 0.25742 -0.12261
 H224 H 0.76544 0.19279 -0.07233
 H225 H 0.75652 -0.03966 -0.09903
 H226 H 0.65518 -0.10399 -0.07550
 H227 H 0.57252 -0.10133 -0.04805
 H228 H 0.66902 0.12984 -0.04868
 C229 C 0.17688 0.04882 0.12720
 C230 C 0.21211 0.03578 0.10946
 C231 C 0.18362 -0.03079 0.09798
 C232 C 0.11986 -0.08316 0.10445
 C233 C 0.08452 -0.06958 0.12200
 C234 C 0.11233 -0.00336 0.13378
 C235 C 0.21914 -0.04359 0.08017
 C236 C 0.28252 0.00998 0.07358
 C237 C 0.31035 0.07685 0.08505
 C238 C 0.27524 0.08914 0.10291
 C239 C 0.37298 0.13079 0.07847
 C240 C 0.40805 0.11898 0.06069
 C241 C 0.38157 0.05278 0.04910
 C242 C 0.31855 -0.00182 0.05568
 H243 H 0.19906 0.10150 0.13507
 H244 H 0.09720 -0.13477 0.09593
 H245 H 0.03624 -0.11254 0.12669
 H246 H 0.19733 -0.09482 0.07140
 H247 H 0.29698 0.14048 0.11165
 H248 H 0.39491 0.18229 0.08708
 H249 H 0.45654 0.16200 0.05612
 H250 H 0.29754 -0.05300 0.04689
 C251 C 0.77744 0.74530 0.45386
 C252 C 0.73436 0.70124 0.43793
 C253 C 0.72612 0.63078 0.43393
 C254 C 0.76029 0.60530 0.44586
 C255 C 0.80229 0.64880 0.46175
 C256 C 0.81178 0.71960 0.46619
 C257 C 0.68389 0.58662 0.41804
 C258 C 0.64915 0.61162 0.40610
 C259 C 0.65625 0.68161 0.41014
 C260 C 0.69902 0.72621 0.42604
 C261 C 0.62050 0.70552 0.39811
 C262 C 0.57876 0.66067 0.38211
 C263 C 0.57237 0.59136 0.37785
 C264 C 0.60757 0.56733 0.39009
 H265 H 0.78162 0.79839 0.45714
 H266 H 0.75492 0.55158 0.44280
 H267 H 0.82950 0.62718 0.46983
 H268 H 0.67806 0.53268 0.41495
 H269 H 0.70484 0.78011 0.42912
 H270 H 0.62510 0.75896 0.40098
 H271 H 0.55222 0.68049 0.37291
 H272 H 0.60289 0.51383 0.38715
 C273 C 0.06884 0.23988 0.78935
 C274 C 0.08931 0.29291 0.77392
 C275 C 0.09948 0.36282 0.78039
 C276 C 0.09144 0.37918 0.80222
 C277 C 0.07115 0.32619 0.81746
 C278 C 0.05826 0.25566 0.81118
 C279 C 0.11561 0.41466 0.76488
 C280 C 0.12071 0.39720 0.74294
 C281 C 0.11279 0.32801 0.73650
 C282 C 0.09763 0.27648 0.75206
 C283 C 0.11736 0.31062 0.71450
 C284 C 0.12611 0.35995 0.69901
 C285 C 0.13154 0.42753 0.70532
 C286 C 0.13038 0.44668 0.72726
 H287 H 0.05864 0.18570 0.78421
 H288 H 0.09972 0.43267 0.80749
 H289 H 0.06501 0.34036 0.83420
 H290 H 0.12198 0.46780 0.76982
 H291 H 0.09018 0.22299 0.74708
 H292 H 0.11150 0.25795 0.70927
 H293 H 0.12587 0.34436 0.68207
 H294 H 0.13340 0.49860 0.73203
 C295 C 0.72632 -0.06221 0.12347
 C296 C 0.70213 -0.03979 0.10694
 C297 C 0.72334 0.03416 0.10449
 C298 C 0.76918 0.08447 0.11862
 C299 C 0.79407 0.06164 0.13484
 C300 C 0.77263 -0.01183 0.13742
 C301 C 0.69871 0.05636 0.08790
 C302 C 0.65364 0.00543 0.07365
 C303 C 0.63356 -0.06838 0.07607
 C304 C 0.65767 -0.09043 0.09268
 C305 C 0.58916 -0.11942 0.06192
 C306 C 0.56353 -0.09806 0.04573
 C307 C 0.58167 -0.02512 0.04329
 C308 C 0.62765 0.02670 0.05717
 H309 H 0.71056 -0.11892 0.12514
 H310 H 0.78625 0.14139 0.11699
 H311 H 0.82998 0.10129 0.14544
 H312 H 0.71457 0.11302 0.08608
 H313 H 0.64182 -0.14711 0.09451
 H314 H 0.57361 -0.17608 0.06349
 H315 H 0.52860 -0.13922 0.03524
 H316 H 0.64194 0.08303 0.05548
 C317 C 0.11093 0.15853 0.44847
 C318 C 0.15987 0.19127 0.43204
 C319 C 0.20192 0.16067 0.42445
 C320 C 0.19337 0.09700 0.43326
 C321 C 0.14450 0.06474 0.44967
 C322 C 0.10332 0.09557 0.45758
 C323 C 0.25208 0.19457 0.40837
 C324 C 0.26063 0.25869 0.39980
 C325 C 0.21774 0.28844 0.40725
 C326 C 0.16775 0.25461 0.42328
 C327 C 0.22568 0.35196 0.39866
 C328 C 0.27585 0.38620 0.38291
 C329 C 0.31946 0.35791 0.37544
 C330 C 0.31146 0.29381 0.38396
 H331 H 0.07883 0.18220 0.45425
 H332 H 0.22503 0.07266 0.42766
 H333 H 0.14006 0.01661 0.45657
 H334 H 0.28464 0.17138 0.40266
 H335 H 0.13531 0.27793 0.42905
 H336 H 0.19318 0.37537 0.40417
 H337 H 0.28075 0.43548 0.37670
 H338 H 0.34453 0.27127 0.37829
 C339 C 0.10430 0.88237 0.79134
 C340 C 0.09665 0.83667 0.77324
 C341 C 0.03323 0.79722 0.76451
 C342 C -0.02122 0.80579 0.77385
 C343 C -0.01299 0.85205 0.79186
 C344 C 0.04959 0.88981 0.80090
 C345 C 0.02542 0.74979 0.74671
 C346 C 0.08046 0.74195 0.73749
 C347 C 0.14402 0.78295 0.74607
 C348 C 0.15161 0.82968 0.76387
 C349 C 0.19925 0.77645 0.73677
 C350 C 0.19187 0.72942 0.71922
 C351 C 0.12901 0.68729 0.71065
 C352 C 0.07324 0.69382 0.71989
 H353 H 0.15298 0.91233 0.79804
 H354 H -0.07018 0.77635 0.76735
 H355 H -0.05578 0.85712 0.79904
 H356 H -0.02331 0.71896 0.74011
 H357 H 0.20033 0.86043 0.77051
 H358 H 0.24825 0.80761 0.74313
 H359 H 0.23563 0.72532 0.71253
 H360 H 0.02461 0.66189 0.71336
   
