data_POSCAR
  _audit_creation_date              2014-09-24
  _audit_creation_method            'ToBaCCo'
  _symmetry_space_group_name_H-M    'P1'
  _symmetry_Int_Tables_number       1
  _symmetry_cell_setting            triclinic
  loop_
  _symmetry_equiv_pos_as_xyz
 x,y,z
_cell_length_a 44.5908
_cell_length_b 44.6317
_cell_length_c 25.5923
_cell_angle_alpha 89.883800
_cell_angle_beta 90.058100
_cell_angle_gamma 120.032000
loop_
  _atom_site_label
  _atom_site_type_symbol
  _atom_site_fract_x
  _atom_site_fract_y
  _atom_site_fract_z
O1 O 0.45852 0.96695 0.54982
 O2 O 0.49227 1.03435 0.44805
 O3 O 0.45874 0.96700 0.44805
 O4 O 0.49239 1.03430 0.54984
 O5 O 0.54186 1.03433 0.54986
 O6 O 0.50823 0.96707 0.44823
 O7 O 0.54171 1.03442 0.44807
 O8 O 0.50799 0.96698 0.55000
 Cu9 Cu 0.47053 1.00065 0.49893
 Cu10 Cu 0.52990 1.00071 0.49905
 C11 C 0.47747 0.95544 0.56742
 C12 C 0.52277 1.04597 0.43043
 C13 C 0.47775 0.95553 0.43066
 C14 C 0.52289 1.04580 0.56735
 O15 O 0.03362 0.49212 0.55257
 O16 O -0.03377 0.45841 0.45088
 O17 O 0.03364 0.49228 0.45079
 O18 O -0.03379 0.45862 0.55266
 O19 O -0.03375 0.50800 0.55239
 O20 O 0.03364 0.54170 0.45069
 O21 O -0.03377 0.50783 0.45061
 O22 O 0.03366 0.54150 0.55248
 Cu23 Cu -0.00008 0.47042 0.50175
 Cu24 Cu -0.00005 0.52970 0.50153
 C25 C 0.04523 0.52258 0.57014
 C26 C -0.04528 0.47735 0.43322
 C27 C 0.04515 0.52276 0.43322
 C28 C -0.04536 0.47754 0.57014
 O29 O 0.50821 0.54133 0.55152
 O30 O 0.54185 0.50772 0.44989
 O31 O 0.50799 0.54120 0.44975
 O32 O 0.54173 0.50751 0.55168
 O33 O 0.49229 0.45811 0.55170
 O34 O 0.45853 0.49175 0.44993
 O35 O 0.49239 0.45827 0.44991
 O36 O 0.45872 0.49190 0.55170
 Cu37 Cu 0.52990 0.52939 0.50070
 Cu38 Cu 0.47053 0.47006 0.50083
 C39 C 0.47773 0.52238 0.56909
 C40 C 0.52288 0.47727 0.43240
 C41 C 0.47747 0.52222 0.43233
 C42 C 0.52279 0.47701 0.56932
 O43 O 0.38348 0.66839 -0.06039
 O44 O 0.38507 0.72681 -0.04377
 C45 C 0.36347 0.73130 -0.07029
 O46 O 0.33127 0.71519 -0.06069
 O47 O 0.27279 0.65835 -0.04361
 C48 C 0.26825 0.63226 -0.06998
 O49 O 0.28437 0.61620 -0.06032
 O50 O 0.34126 0.61465 -0.04337
 C51 C 0.36738 0.63621 -0.06987
 O52 O 0.38509 0.65843 0.04347
 O53 O 0.38352 0.71527 0.06011
 C54 C 0.36745 0.73138 0.06958
 O55 O 0.34134 0.72684 0.04308
 O56 O 0.28445 0.66841 0.06018
 C57 C 0.26835 0.63624 0.06991
 O58 O 0.27282 0.61466 0.04351
 O59 O 0.33129 0.61626 0.06043
 C60 C 0.36350 0.63235 0.07001
 Cr61 Cr 0.38242 0.69129 -0.00014
 Cr62 Cr 0.30839 0.69127 -0.00025
 Cr63 Cr 0.30837 0.61730 0.00006
 O64 O 0.33306 0.66662 -0.00011
 O65 O 0.61640 0.33175 -0.06054
 O66 O 0.61481 0.27333 -0.04357
 C67 C 0.63641 0.26886 -0.07001
 O68 O 0.66861 0.28495 -0.06037
 O69 O 0.72709 0.34179 -0.04345
 C70 C 0.73162 0.36788 -0.07000
 O71 O 0.71550 0.38393 -0.06050
 O72 O 0.65861 0.38549 -0.04373
 C73 C 0.63250 0.36393 -0.07018
 O74 O 0.61479 0.34167 0.04328
 O75 O 0.61635 0.28483 0.06025
 C76 C 0.63243 0.26873 0.06989
 O77 O 0.65853 0.27327 0.04345
 O78 O 0.71542 0.33169 0.06036
 C79 C 0.73152 0.36386 0.06993
 O80 O 0.72705 0.38545 0.04336
 O81 O 0.66859 0.38384 0.06012
 C82 C 0.63638 0.36774 0.06973
 Cr83 Cr 0.61745 0.30883 -0.00015
 Cr84 Cr 0.69148 0.30885 -0.00001
 Cr85 Cr 0.69151 0.38282 -0.00019
 O86 O 0.66681 0.33350 -0.00011
 C87 C 0.43836 0.87783 -0.31218
 C88 C 0.41754 0.89039 -0.33224
 C89 C 0.43020 0.91555 -0.37156
 C90 C 0.46392 0.92850 -0.39135
 C91 C 0.48460 0.91560 -0.37103
 C92 C 0.47187 0.89044 -0.33170
 C93 C 0.42541 0.85224 -0.27125
 C94 C 0.41458 0.83095 -0.23677
 C95 C 0.40170 0.80568 -0.19540
 C96 C 0.36625 0.78737 -0.18403
 C97 C 0.35375 0.76310 -0.14344
 C98 C 0.37662 0.75684 -0.11360
 C99 C 0.41222 0.77533 -0.12553
 C100 C 0.42463 0.79958 -0.16614
 H101 H 0.39156 0.88081 -0.31738
 H102 H 0.41362 0.92491 -0.38633
 H103 H 0.51065 0.92502 -0.38539
 H104 H 0.48821 0.88090 -0.31640
 H105 H 0.34827 0.79191 -0.20645
 H106 H 0.32621 0.74932 -0.13540
 H107 H 0.43053 0.77115 -0.10346
 H108 H 0.45213 0.81362 -0.17462
 C109 C 0.12158 0.56049 -0.31149
 C110 C 0.10906 0.58139 -0.33122
 C111 C 0.08389 0.56897 -0.37051
 C112 C 0.07080 0.53530 -0.39073
 C113 C 0.08379 0.51458 -0.37057
 C114 C 0.10895 0.52712 -0.33129
 C115 C 0.14717 0.57315 -0.27060
 C116 C 0.16848 0.58363 -0.23617
 C117 C 0.19376 0.59602 -0.19485
 C118 C 0.19990 0.62505 -0.16574
 C119 C 0.22417 0.63690 -0.12520
 C120 C 0.24266 0.61982 -0.11319
 C121 C 0.23637 0.59071 -0.14288
 C122 C 0.21207 0.57891 -0.18339
 H123 H 0.11867 0.60728 -0.31611
 H124 H 0.07467 0.58578 -0.38484
 H125 H 0.07451 0.48858 -0.38494
 H126 H 0.11848 0.51072 -0.31626
 H127 H 0.18586 0.63848 -0.17429
 H128 H 0.22839 0.65940 -0.10325
 H129 H 0.25015 0.57697 -0.13477
 H130 H 0.20751 0.55640 -0.20570
 C131 C 0.43920 0.56139 -0.31080
 C132 C 0.41829 0.52791 -0.33028
 C133 C 0.43074 0.51521 -0.36950
 C134 C 0.46434 0.53589 -0.38975
 C135 C 0.48512 0.56956 -0.37001
 C136 C 0.47261 0.58219 -0.33079
 C137 C 0.42654 0.57431 -0.27002
 C138 C 0.41604 0.58512 -0.23567
 C139 C 0.40364 0.59800 -0.19446
 C140 C 0.37457 0.57509 -0.16523
 C141 C 0.36270 0.58750 -0.12480
 C142 C 0.37981 0.62307 -0.11300
 C143 C 0.40896 0.64591 -0.14281
 C144 C 0.42076 0.63342 -0.18322
 H145 H 0.39239 0.51158 -0.31504
 H146 H 0.41409 0.48919 -0.38383
 H147 H 0.51109 0.58614 -0.38473
 H148 H 0.48902 0.60814 -0.31596
 H149 H 0.36112 0.54761 -0.17361
 H150 H 0.34017 0.56920 -0.10275
 H151 H 0.42272 0.67343 -0.13487
 H152 H 0.44331 0.65138 -0.20562
 C153 C 0.56181 0.12306 -0.31213
 C154 C 0.52832 0.11051 -0.33178
 C155 C 0.51566 0.08547 -0.37118
 C156 C 0.53638 0.07264 -0.39141
 C157 C 0.57007 0.08554 -0.37150
 C158 C 0.58266 0.11057 -0.33213
 C159 C 0.57467 0.14849 -0.27112
 C160 C 0.58545 0.16967 -0.23659
 C161 C 0.59829 0.19479 -0.19515
 C162 C 0.57533 0.20082 -0.16594
 C163 C 0.58770 0.22495 -0.12530
 C164 C 0.62329 0.24340 -0.11329
 C165 C 0.64618 0.23721 -0.14307
 C166 C 0.63372 0.21305 -0.18368
 H167 H 0.51196 0.11999 -0.31655
 H168 H 0.48964 0.07610 -0.38563
 H169 H 0.58668 0.07622 -0.38620
 H170 H 0.60861 0.12010 -0.31716
 H171 H 0.54784 0.18681 -0.17449
 H172 H 0.56937 0.22909 -0.10328
 H173 H 0.67371 0.25096 -0.13497
 H174 H 0.65172 0.20857 -0.20606
 C175 C 0.87829 0.43965 -0.31149
 C176 C 0.89092 0.47302 -0.33150
 C177 C 0.91608 0.48555 -0.37078
 C178 C 0.92907 0.46483 -0.39073
 C179 C 0.91598 0.43117 -0.37031
 C180 C 0.89081 0.41875 -0.33102
 C181 C 0.85269 0.42699 -0.27061
 C182 C 0.83139 0.41652 -0.23618
 C183 C 0.80611 0.40412 -0.19486
 C184 C 0.78780 0.42123 -0.18358
 C185 C 0.76350 0.40943 -0.14307
 C186 C 0.75721 0.38031 -0.11320
 C187 C 0.77570 0.36323 -0.12503
 C188 C 0.79997 0.37509 -0.16557
 H189 H 0.88139 0.48942 -0.31662
 H190 H 0.92536 0.51155 -0.38530
 H191 H 0.92520 0.41435 -0.38448
 H192 H 0.88120 0.39286 -0.31576
 H193 H 0.79236 0.44374 -0.20602
 H194 H 0.74972 0.42317 -0.13510
 H195 H 0.77149 0.34073 -0.10294
 H196 H 0.81402 0.36166 -0.17397
 C197 C 0.56076 0.43867 -0.31214
 C198 C 0.58168 0.47210 -0.33187
 C199 C 0.56924 0.48480 -0.37123
 C200 C 0.53553 0.46419 -0.39150
 C201 C 0.51480 0.43046 -0.37135
 C202 C 0.52736 0.41788 -0.33201
 C203 C 0.57344 0.42578 -0.27118
 C204 C 0.58392 0.41498 -0.23668
 C205 C 0.59631 0.40212 -0.19529
 C206 C 0.62535 0.42504 -0.16609
 C207 C 0.63720 0.41264 -0.12547
 C208 C 0.62009 0.37707 -0.11347
 C209 C 0.59095 0.35422 -0.14325
 C210 C 0.57917 0.36671 -0.18384
 H211 H 0.60760 0.48841 -0.31671
 H212 H 0.58606 0.51084 -0.38554
 H213 H 0.48877 0.41372 -0.38577
 H214 H 0.51094 0.39195 -0.31698
 H215 H 0.63881 0.45251 -0.17462
 H216 H 0.65971 0.43094 -0.10345
 H217 H 0.57719 0.32671 -0.13516
 H218 H 0.55665 0.34874 -0.20621
 C219 C 0.87738 0.43840 0.31252
 C220 C 0.88992 0.47185 0.33205
 C221 C 0.91498 0.48452 0.37151
 C222 C 0.92784 0.46384 0.39194
 C223 C 0.91495 0.43018 0.37216
 C224 C 0.88989 0.41758 0.33272
 C225 C 0.85194 0.42553 0.27143
 C226 C 0.83076 0.41476 0.23682
 C227 C 0.80563 0.40194 0.19529
 C228 C 0.79961 0.42487 0.16593
 C229 C 0.77547 0.41252 0.12521
 C230 C 0.75701 0.37696 0.11327
 C231 C 0.76320 0.35409 0.14321
 C232 C 0.78736 0.36654 0.18390
 H233 H 0.88042 0.48819 0.31666
 H234 H 0.92436 0.51053 0.38586
 H235 H 0.92429 0.41360 0.38701
 H236 H 0.88037 0.39165 0.31785
 H237 H 0.81362 0.45233 0.17442
 H238 H 0.77132 0.43083 0.10307
 H239 H 0.74944 0.32659 0.13516
 H240 H 0.79185 0.34856 0.20640
 C241 C 0.56069 0.12227 0.31188
 C242 C 0.52729 0.10963 0.33176
 C243 C 0.51474 0.08450 0.37111
 C244 C 0.53549 0.07153 0.39125
 C245 C 0.56920 0.08463 0.37096
 C246 C 0.58162 0.10977 0.33160
 C247 C 0.57335 0.14782 0.27090
 C248 C 0.58382 0.16910 0.23640
 C249 C 0.59620 0.19434 0.19499
 C250 C 0.57908 0.21262 0.18354
 C251 C 0.59086 0.23689 0.14295
 C252 C 0.61999 0.24317 0.11317
 C253 C 0.63709 0.22470 0.12517
 C254 C 0.62525 0.20046 0.16579
 H255 H 0.51086 0.11914 0.31673
 H256 H 0.48872 0.07521 0.38553
 H257 H 0.58603 0.07543 0.38527
 H258 H 0.60754 0.11938 0.31643
 H259 H 0.55655 0.20807 0.20591
 H260 H 0.57711 0.25065 0.13485
 H261 H 0.65961 0.22890 0.10315
 H262 H 0.63869 0.18643 0.17433
 C263 C 0.56178 0.43894 0.31184
 C264 C 0.58263 0.47228 0.33183
 C265 C 0.57005 0.48472 0.37122
 C266 C 0.53638 0.46393 0.39115
 C267 C 0.51566 0.43038 0.37092
 C268 C 0.52831 0.41800 0.33151
 C269 C 0.57464 0.42637 0.27082
 C270 C 0.58541 0.41598 0.23627
 C271 C 0.59825 0.40370 0.19483
 C272 C 0.63368 0.42085 0.18339
 C273 C 0.64615 0.40915 0.14279
 C274 C 0.62326 0.38009 0.11299
 C275 C 0.58767 0.36296 0.12497
 C276 C 0.57529 0.37472 0.16560
 H277 H 0.60858 0.48871 0.31685
 H278 H 0.58666 0.51065 0.38591
 H279 H 0.48963 0.41372 0.38539
 H280 H 0.51194 0.39215 0.31628
 H281 H 0.65168 0.44332 0.20579
 H282 H 0.67368 0.42293 0.13471
 H283 H 0.56933 0.34050 0.10293
 H284 H 0.54780 0.36125 0.17413
 C285 C 0.12248 0.56170 0.31252
 C286 C 0.10997 0.58251 0.33251
 C287 C 0.08492 0.56992 0.37196
 C288 C 0.07203 0.53627 0.39193
 C289 C 0.08489 0.51558 0.37171
 C290 C 0.10994 0.52825 0.33225
 C291 C 0.14793 0.57456 0.27143
 C292 C 0.16911 0.58533 0.23681
 C293 C 0.19424 0.59816 0.19528
 C294 C 0.21250 0.63356 0.18371
 C295 C 0.23667 0.64600 0.14301
 C296 C 0.24286 0.62314 0.11326
 C297 C 0.22441 0.58758 0.12538
 C298 C 0.20027 0.57522 0.16610
 H299 H 0.11949 0.60844 0.31749
 H300 H 0.07558 0.58650 0.38665
 H301 H 0.07551 0.48958 0.38621
 H302 H 0.11944 0.51191 0.31701
 H303 H 0.20802 0.65154 0.20606
 H304 H 0.25042 0.67351 0.13483
 H305 H 0.22855 0.56927 0.10338
 H306 H 0.18625 0.54776 0.17473
 C307 C 0.43927 0.87801 0.31054
 C308 C 0.41834 0.89056 0.33001
 C309 C 0.43077 0.91570 0.36924
 C310 C 0.46437 0.92864 0.38950
 C311 C 0.48517 0.91576 0.36976
 C312 C 0.47267 0.89062 0.33054
 C313 C 0.42662 0.85243 0.26974
 C314 C 0.41614 0.83113 0.23539
 C315 C 0.40373 0.80585 0.19417
 C316 C 0.37467 0.79970 0.16493
 C317 C 0.36280 0.77543 0.12449
 C318 C 0.37989 0.75695 0.11270
 C319 C 0.40904 0.76325 0.14251
 C320 C 0.42085 0.78755 0.18293
 H321 H 0.39244 0.88098 0.31476
 H322 H 0.41411 0.92506 0.38357
 H323 H 0.51114 0.92516 0.38449
 H324 H 0.48910 0.88110 0.31572
 H325 H 0.36123 0.81374 0.17331
 H326 H 0.34028 0.77121 0.10244
 H327 H 0.42279 0.74949 0.13457
 H328 H 0.44339 0.79212 0.20533
 C329 C 0.43837 0.56070 0.31189
 C330 C 0.47188 0.58161 0.33143
 C331 C 0.48461 0.56918 0.37078
 C332 C 0.46392 0.53560 0.39109
 C333 C 0.43021 0.51483 0.37129
 C334 C 0.41756 0.52733 0.33195
 C335 C 0.42544 0.57334 0.27095
 C336 C 0.41461 0.58380 0.23647
 C337 C 0.40173 0.59618 0.19509
 C338 C 0.42467 0.62521 0.16580
 C339 C 0.41225 0.63704 0.12520
 C340 C 0.37665 0.61994 0.11330
 C341 C 0.35379 0.59084 0.14316
 C342 C 0.36628 0.57906 0.18374
 H343 H 0.48822 0.60748 0.31614
 H344 H 0.51065 0.58582 0.38515
 H345 H 0.41363 0.48888 0.38605
 H346 H 0.39159 0.51092 0.31708
 H347 H 0.45217 0.63865 0.17427
 H348 H 0.43057 0.65954 0.10311
 H349 H 0.32624 0.57708 0.13514
 H350 H 0.34831 0.55655 0.20617
   
