data_POSCAR
  _audit_creation_date              2014-09-24
  _audit_creation_method            'ToBaCCo'
  _symmetry_space_group_name_H-M    'P1'
  _symmetry_Int_Tables_number       1
  _symmetry_cell_setting            triclinic
  loop_
  _symmetry_equiv_pos_as_xyz
 x,y,z
_cell_length_a 44.3041
_cell_length_b 48.4347
_cell_length_c 45.8680
_cell_angle_alpha 90.016300
_cell_angle_beta 90.302100
_cell_angle_gamma 90.146700
loop_
  _atom_site_label
  _atom_site_type_symbol
  _atom_site_fract_x
  _atom_site_fract_y
  _atom_site_fract_z
C1 C 0.25035 0.24924 0.25073
 C2 C 0.75027 0.74942 0.25031
 C3 C 0.74981 0.25214 0.75028
 C4 C 0.24974 0.75193 0.75036
 C5 C 0.03972 0.04248 0.00929
 H6 H 0.03987 0.04342 -0.01428
 C7 C 0.05728 0.06094 0.02551
 H8 H 0.07127 0.07581 0.01421
 C9 C 0.02140 0.02169 0.05250
 H10 H 0.00699 0.00670 0.06295
 C11 C 0.03863 0.03975 0.06958
 H12 H 0.03727 0.03842 0.09309
 N13 N 0.02253 0.02314 0.02291
 C14 C 0.01070 -0.04279 -0.04093
 H15 H -0.01364 -0.04466 -0.04090
 C16 C 0.02790 -0.05994 -0.05873
 H17 H 0.01661 -0.07520 -0.07221
 C18 C 0.05490 -0.02096 -0.02280
 H19 H 0.06538 -0.00591 -0.00860
 C20 C 0.07298 -0.03773 -0.04023
 H21 H 0.09724 -0.03501 -0.03963
 Zn22 Zn -0.00089 -0.00069 -0.00094
 N23 N 0.02433 -0.02347 -0.02380
 C24 C -0.02308 0.02012 -0.05486
 N25 N -0.02506 0.02186 -0.02533
 C26 C -0.04352 0.04055 -0.01240
 C27 C -0.06153 0.05800 -0.02931
 C28 C -0.04069 0.03715 -0.07259
 C29 C -0.01138 -0.04287 0.03959
 C30 C -0.02830 -0.06125 0.05639
 C31 C -0.07379 -0.04137 0.03622
 C32 C -0.05600 -0.02339 0.01980
 N33 N -0.02539 -0.02424 0.02199
 H34 H -0.00764 0.00575 -0.06478
 H35 H -0.04433 0.04178 0.01114
 H36 H -0.07648 0.07239 -0.01860
 H37 H -0.03857 0.03563 -0.09605
 H38 H 0.01301 -0.04340 0.04057
 H39 H -0.01671 -0.07560 0.07063
 H40 H -0.09810 -0.04057 0.03393
 H41 H -0.06675 -0.00903 0.00507
 C42 C 0.05948 -0.05740 -0.05870
 C43 C 0.05698 0.05966 0.05610
 C44 C -0.05997 -0.06061 0.05488
 C45 C -0.06032 0.05636 -0.05986
 C46 C 0.04539 0.54066 0.51212
 H47 H 0.04638 0.54201 0.48860
 C48 C 0.06353 0.55788 0.52928
 H49 H 0.07877 0.57221 0.51877
 C50 C 0.02430 0.52019 0.55431
 H51 H 0.00855 0.50591 0.56403
 C52 C 0.04203 0.53699 0.57228
 H53 H 0.03969 0.53538 0.59570
 N54 N 0.02653 0.52207 0.52480
 C55 C 0.01179 0.45774 0.45955
 H56 H -0.01261 0.45742 0.45870
 C57 C 0.02832 0.43910 0.44280
 H58 H 0.01641 0.42439 0.42916
 C59 C 0.05681 0.47668 0.47933
 H60 H 0.06786 0.49104 0.49391
 C61 C 0.07422 0.45839 0.46299
 H62 H 0.09858 0.45934 0.46474
 Zn63 Zn 0.00207 0.49987 0.50018
 N64 N 0.02618 0.47620 0.47715
 C65 C -0.01980 0.52265 0.44685
 N66 N -0.02096 0.52399 0.47644
 C67 C -0.03794 0.54337 0.49013
 C68 C -0.05528 0.56197 0.47397
 C69 C -0.03681 0.54084 0.42983
 C70 C -0.01016 0.45758 0.53972
 C71 C -0.02759 0.44032 0.55727
 C72 C -0.07237 0.46306 0.53909
 C73 C -0.05406 0.47988 0.52185
 N74 N -0.02352 0.47715 0.52282
 H75 H -0.00557 0.50761 0.43634
 H76 H -0.03812 0.54422 0.51370
 H77 H -0.06912 0.57685 0.48532
 H78 H -0.03544 0.53958 0.40631
 H79 H 0.01416 0.45564 0.53980
 H80 H -0.01645 0.42533 0.57111
 H81 H -0.09663 0.46547 0.53798
 H82 H -0.06433 0.49505 0.50772
 C83 C 0.05999 0.43926 0.44440
 C84 C 0.06204 0.55610 0.55981
 C85 C -0.05914 0.44307 0.55725
 C86 C -0.05496 0.56078 0.44338
 C87 C 0.54423 0.03952 0.51206
 H88 H 0.54510 0.04076 0.48852
 C89 C 0.56238 0.05688 0.52904
 H90 H 0.57753 0.07120 0.51838
 C91 C 0.52339 0.01922 0.55444
 H92 H 0.50774 0.00495 0.56431
 C93 C 0.54114 0.03615 0.57224
 H94 H 0.53891 0.03466 0.59569
 N95 N 0.52548 0.02095 0.52492
 C96 C 0.51074 -0.04361 0.45993
 H97 H 0.48633 -0.04398 0.45908
 C98 C 0.52731 -0.06220 0.44315
 H99 H 0.51544 -0.07694 0.42950
 C100 C 0.55572 -0.02457 0.47967
 H101 H 0.56673 -0.01018 0.49424
 C102 C 0.57316 -0.04281 0.46331
 H103 H 0.59752 -0.04178 0.46504
 Zn104 Zn 0.50098 -0.00138 0.50048
 N105 N 0.52509 -0.02511 0.47751
 C106 C 0.47905 0.02126 0.44710
 N107 N 0.47792 0.02267 0.47669
 C108 C 0.46103 0.04212 0.49035
 C109 C 0.44378 0.06077 0.47418
 C110 C 0.46212 0.03951 0.43006
 C111 C 0.48881 -0.04347 0.54031
 C112 C 0.47139 -0.06058 0.55804
 C113 C 0.42661 -0.03791 0.53979
 C114 C 0.44490 -0.02123 0.52238
 N115 N 0.47544 -0.02398 0.52330
 H116 H 0.49322 0.00616 0.43661
 H117 H 0.46087 0.04302 0.51392
 H118 H 0.43004 0.07574 0.48551
 H119 H 0.46350 0.03822 0.40654
 H120 H 0.51313 -0.04543 0.54035
 H121 H 0.48254 -0.07549 0.57197
 H122 H 0.40234 -0.03547 0.53872
 H123 H 0.43462 -0.00614 0.50816
 C124 C 0.55898 -0.06195 0.44471
 C125 C 0.56103 0.05527 0.55958
 C126 C 0.43985 -0.05779 0.55808
 C127 C 0.44411 0.05957 0.44358
 C128 C 0.53830 0.54332 0.00930
 H129 H 0.53842 0.54422 -0.01427
 C130 C 0.55596 0.56176 0.02546
 H131 H 0.56999 0.57656 0.01411
 C132 C 0.51999 0.52265 0.05257
 H133 H 0.50557 0.50770 0.06308
 C134 C 0.53733 0.54068 0.06959
 H135 H 0.53602 0.53937 0.09311
 N136 N 0.52108 0.52404 0.02298
 C137 C 0.50928 0.45783 -0.04050
 H138 H 0.48494 0.45596 -0.04046
 C139 C 0.52647 0.44056 -0.05818
 H140 H 0.51518 0.42522 -0.07154
 C141 C 0.55348 0.47976 -0.02252
 H142 H 0.56396 0.49490 -0.00843
 C143 C 0.57156 0.46288 -0.03983
 H144 H 0.59582 0.46559 -0.03924
 Zn145 Zn 0.49767 0.50011 -0.00077
 N146 N 0.52291 0.47726 -0.02351
 C147 C 0.47553 0.52065 -0.05480
 N148 N 0.47346 0.52252 -0.02529
 C149 C 0.45489 0.54121 -0.01250
 C150 C 0.43687 0.55853 -0.02955
 C151 C 0.45791 0.53755 -0.07267
 C152 C 0.48736 0.45802 0.03985
 C153 C 0.47055 0.43957 0.05666
 C154 C 0.42494 0.45929 0.03657
 C155 C 0.44262 0.47735 0.02013
 N156 N 0.47325 0.47660 0.02226
 H157 H 0.49105 0.50629 -0.06461
 H158 H 0.45402 0.54254 0.01103
 H159 H 0.42183 0.57293 -0.01895
 H160 H 0.46010 0.53593 -0.09611
 H161 H 0.51176 0.45757 0.04078
 H162 H 0.48222 0.42525 0.07087
 H163 H 0.40062 0.46001 0.03431
 H164 H 0.43180 0.49167 0.00542
 C165 C 0.55806 0.44309 -0.05815
 C166 C 0.55574 0.56050 0.05605
 C167 C 0.43888 0.44008 0.05518
 C168 C 0.43817 0.55675 -0.06009
 C169 C 0.22660 -0.19666 -0.19124
 C170 C 0.19696 -0.19057 -0.19935
 C171 C 0.18470 -0.20229 -0.22459
 C172 C 0.20162 -0.22082 -0.24115
 C173 C 0.23097 -0.22911 -0.23215
 C174 C 0.24360 -0.21515 -0.20770
 C175 C 0.17913 -0.17232 -0.18170
 C176 C 0.16419 -0.15734 -0.16660
 C177 C 0.14665 -0.14008 -0.14864
 C178 C 0.13164 -0.12553 -0.13314
 C179 C 0.11364 -0.10832 -0.11451
 C180 C 0.08637 -0.09742 -0.12477
 C181 C 0.06874 -0.08089 -0.10662
 C182 C 0.07819 -0.07503 -0.07793
 C183 C 0.10567 -0.08607 -0.06784
 C184 C 0.12325 -0.10262 -0.08602
 H185 H 0.23663 -0.18711 -0.17213
 H186 H 0.16203 -0.19704 -0.23158
 H187 H 0.19153 -0.22847 -0.26110
 H188 H 0.26669 -0.21891 -0.20099
 H189 H 0.07874 -0.10167 -0.14680
 H190 H 0.04791 -0.07239 -0.11516
 H191 H 0.11337 -0.08222 -0.04576
 H192 H 0.14428 -0.11104 -0.07783
 C193 C 0.18252 0.27609 0.29595
 C194 C 0.19590 0.29796 0.31117
 C195 C 0.22673 0.30318 0.30800
 C196 C 0.24389 0.28721 0.28894
 C197 C 0.23041 0.26623 0.27179
 C198 C 0.19964 0.26007 0.27685
 C199 C 0.17793 0.31532 0.32970
 C200 C 0.16289 0.33023 0.34482
 C201 C 0.14530 0.34805 0.36214
 C202 C 0.13032 0.36352 0.37668
 C203 C 0.11248 0.38223 0.39381
 C204 C 0.12087 0.38831 0.42256
 C205 C 0.10379 0.40681 0.43904
 C206 C 0.07805 0.41949 0.42696
 C207 C 0.06976 0.41316 0.39806
 C208 C 0.08688 0.39467 0.38161
 H209 H 0.15880 0.27139 0.29884
 H210 H 0.23749 0.31974 0.32011
 H211 H 0.26776 0.29165 0.28699
 H212 H 0.18858 0.24276 0.26641
 H213 H 0.14061 0.37877 0.43224
 H214 H 0.11053 0.41094 0.46135
 H215 H 0.05030 0.42282 0.38801
 H216 H 0.08025 0.39020 0.35933
 C217 C 0.72649 -0.19670 0.30760
 C218 C 0.69568 -0.20202 0.31078
 C219 C 0.68237 -0.22391 0.29554
 C220 C 0.69954 -0.23985 0.27640
 C221 C 0.73028 -0.23360 0.27134
 C222 C 0.74370 -0.21259 0.28850
 C223 C 0.67765 -0.18478 0.32938
 C224 C 0.66253 -0.17000 0.34458
 C225 C 0.64483 -0.15236 0.36199
 C226 C 0.62973 -0.13706 0.37662
 C227 C 0.61176 -0.11854 0.39385
 C228 C 0.58605 -0.10621 0.38174
 C229 C 0.56882 -0.08789 0.39828
 C230 C 0.57711 -0.08162 0.42720
 C231 C 0.60294 -0.09420 0.43920
 C232 C 0.62013 -0.11253 0.42262
 H233 H 0.73720 -0.18013 0.31972
 H234 H 0.65867 -0.22869 0.29844
 H235 H 0.68853 -0.25718 0.26596
 H236 H 0.76756 -0.20809 0.28656
 H237 H 0.57943 -0.11063 0.35945
 H238 H 0.54929 -0.07830 0.38830
 H239 H 0.60969 -0.09011 0.46152
 H240 H 0.63995 -0.12199 0.43224
 C241 C 0.72624 0.30633 -0.19276
 C242 C 0.69545 0.30951 -0.19845
 C243 C 0.68200 0.29496 -0.22142
 C244 C 0.69906 0.27667 -0.23814
 C245 C 0.72984 0.27185 -0.23159
 C246 C 0.74334 0.28808 -0.20943
 C247 C 0.67765 0.32765 -0.18065
 C248 C 0.66272 0.34259 -0.16549
 C249 C 0.64520 0.35986 -0.14753
 C250 C 0.63019 0.37446 -0.13208
 C251 C 0.61219 0.39176 -0.11356
 C252 C 0.58493 0.40261 -0.12391
 C253 C 0.56731 0.41928 -0.10589
 C254 C 0.57675 0.42532 -0.07724
 C255 C 0.60422 0.41432 -0.06705
 C256 C 0.62179 0.39764 -0.08511
 H257 H 0.73705 0.31791 -0.17537
 H258 H 0.65831 0.29784 -0.22651
 H259 H 0.68798 0.26673 -0.25639
 H260 H 0.76722 0.28620 -0.20471
 H261 H 0.57731 0.39824 -0.14592
 H262 H 0.54650 0.42774 -0.11450
 H263 H 0.61192 0.41831 -0.04500
 H264 H 0.64281 0.38926 -0.07685
 C265 C -0.19129 0.19788 -0.22638
 C266 C -0.19765 0.19423 -0.19683
 C267 C -0.22150 0.20865 -0.18419
 C268 C -0.23848 0.22721 -0.20079
 C269 C -0.23132 0.23244 -0.23031
 C270 C -0.20824 0.21641 -0.24305
 C271 C -0.17987 0.17558 -0.17944
 C272 C -0.16496 0.16019 -0.16462
 C273 C -0.14748 0.14240 -0.14705
 C274 C -0.13251 0.12734 -0.13191
 C275 C -0.11457 0.10949 -0.11375
 C276 C -0.10091 0.11984 -0.08842
 C277 C -0.08335 0.10257 -0.07082
 C278 C -0.07920 0.07468 -0.07837
 C279 C -0.09309 0.06446 -0.10386
 C280 C -0.11066 0.08177 -0.12141
 H281 H -0.17325 0.18638 -0.23657
 H282 H -0.22714 0.20541 -0.16149
 H283 H -0.25749 0.23695 -0.19036
 H284 H -0.20311 0.21855 -0.26599
 H285 H -0.10373 0.14129 -0.08233
 H286 H -0.07264 0.11114 -0.05155
 H287 H -0.09065 0.04301 -0.11005
 H288 H -0.12121 0.07353 -0.14093
 C289 C -0.22498 0.69540 0.30727
 C290 C -0.19411 0.70070 0.31028
 C291 C -0.18106 0.72262 0.29503
 C292 C -0.19855 0.73862 0.27605
 C293 C -0.22939 0.73239 0.27115
 C294 C -0.24251 0.71135 0.28833
 C295 C -0.17578 0.68340 0.32871
 C296 C -0.16042 0.66856 0.34376
 C297 C -0.14246 0.65083 0.36100
 C298 C -0.12715 0.63544 0.37546
 C299 C -0.10894 0.61680 0.39248
 C300 C -0.10632 0.58914 0.38407
 C301 C -0.08871 0.57094 0.40055
 C302 C -0.07347 0.58018 0.42574
 C303 C -0.07623 0.60806 0.43399
 C304 C -0.09384 0.62622 0.41746
 H305 H -0.23549 0.67881 0.31940
 H306 H -0.15731 0.72738 0.29780
 H307 H -0.18771 0.75597 0.26560
 H308 H -0.26640 0.70686 0.28652
 H309 H -0.11798 0.58160 0.36481
 H310 H -0.08738 0.54955 0.39383
 H311 H -0.06447 0.61589 0.45304
 H312 H -0.09563 0.64762 0.42412
 C313 C 0.31905 0.22229 0.29532
 C314 C 0.30597 0.20039 0.31058
 C315 C 0.27508 0.19518 0.30764
 C316 C 0.25755 0.21118 0.28875
 C317 C 0.27070 0.23219 0.27155
 C318 C 0.30156 0.23834 0.27638
 C319 C 0.32427 0.18302 0.32896
 C320 C 0.33957 0.16809 0.34397
 C321 C 0.35742 0.15024 0.36117
 C322 C 0.37261 0.13474 0.37561
 C323 C 0.39066 0.11596 0.39263
 C324 C 0.40582 0.12528 0.41762
 C325 C 0.42326 0.10699 0.43417
 C326 C 0.42577 0.07909 0.42592
 C327 C 0.41049 0.06996 0.40072
 C328 C 0.39305 0.08828 0.38422
 H329 H 0.34282 0.22699 0.29804
 H330 H 0.26454 0.17860 0.31979
 H331 H 0.23364 0.20674 0.28698
 H332 H 0.31242 0.25566 0.26591
 H333 H 0.40420 0.14668 0.42429
 H334 H 0.43506 0.11474 0.45323
 H335 H 0.41164 0.04856 0.39400
 H336 H 0.38135 0.08083 0.36495
 C337 C 0.31013 0.70049 -0.22654
 C338 C 0.30128 0.69400 -0.19819
 C339 C 0.27507 0.70560 -0.18681
 C340 C 0.25823 0.72433 -0.20330
 C341 C 0.26790 0.73297 -0.23137
 C342 C 0.29336 0.71921 -0.24314
 C343 C 0.31897 0.67533 -0.18074
 C344 C 0.33381 0.65996 -0.16583
 C345 C 0.35121 0.64222 -0.14811
 C346 C 0.36612 0.62724 -0.13283
 C347 C 0.38399 0.60950 -0.11448
 C348 C 0.39750 0.62000 -0.08913
 C349 C 0.41502 0.60284 -0.07136
 C350 C 0.41928 0.57493 -0.07875
 C351 C 0.40553 0.56456 -0.10424
 C352 C 0.38800 0.58175 -0.12196
 H353 H 0.32998 0.69102 -0.23589
 H354 H 0.26748 0.70004 -0.16517
 H355 H 0.23746 0.73183 -0.19392
 H356 H 0.30057 0.72319 -0.26526
 H357 H 0.39460 0.64147 -0.08318
 H358 H 0.42562 0.61153 -0.05210
 H359 H 0.40806 0.54309 -0.11030
 H360 H 0.37757 0.57339 -0.14149
 C361 C -0.19144 -0.22763 0.19292
 C362 C -0.19776 -0.19954 0.18973
 C363 C -0.22168 -0.18786 0.20510
 C364 C -0.23864 -0.20393 0.22432
 C365 C -0.23136 -0.23196 0.22938
 C366 C -0.20839 -0.24377 0.21212
 C367 C -0.17966 -0.18256 0.17086
 C368 C -0.16449 -0.16793 0.15549
 C369 C -0.14675 -0.15038 0.13791
 C370 C -0.13166 -0.13510 0.12318
 C371 C -0.11373 -0.11653 0.10587
 C372 C -0.12272 -0.08905 0.10236
 C373 C -0.10526 -0.07088 0.08580
 C374 C -0.07850 -0.07995 0.07251
 C375 C -0.06965 -0.10763 0.07616
 C376 C -0.08717 -0.12578 0.09273
 H377 H -0.17335 -0.23706 0.18066
 H378 H -0.22731 -0.16628 0.20218
 H379 H -0.25763 -0.19421 0.23480
 H380 H -0.20319 -0.26553 0.21399
 H381 H -0.14318 -0.08164 0.11254
 H382 H -0.11248 -0.04962 0.08373
 H383 H -0.04939 -0.11534 0.06591
 H384 H -0.08002 -0.14703 0.09527
 C385 C -0.22712 0.30649 0.69321
 C386 C -0.19633 0.30999 0.69884
 C387 C -0.18276 0.29567 0.72184
 C388 C -0.19966 0.27725 0.73865
 C389 C -0.23041 0.27209 0.73214
 C390 C -0.24407 0.28812 0.70997
 C391 C -0.17866 0.32815 0.68086
 C392 C -0.16382 0.34307 0.66553
 C393 C -0.14640 0.36025 0.64732
 C394 C -0.13144 0.37474 0.63163
 C395 C -0.11348 0.39185 0.61282
 C396 C -0.08881 0.38058 0.59811
 C397 C -0.07121 0.39718 0.57993
 C398 C -0.07809 0.42531 0.57621
 C399 C -0.10302 0.43641 0.59100
 C400 C -0.12058 0.41978 0.60919
 H401 H -0.23803 0.31789 0.67580
 H402 H -0.15907 0.29879 0.72687
 H403 H -0.18848 0.26748 0.75690
 H404 H -0.26794 0.28597 0.70528
 H405 H -0.08318 0.35896 0.60068
 H406 H -0.05242 0.38794 0.56855
 H407 H -0.10865 0.45806 0.58889
 H408 H -0.13959 0.42872 0.62053
 C409 C 0.27259 -0.19655 0.69188
 C410 C 0.30222 -0.19023 0.69993
 C411 C 0.31454 -0.20177 0.72520
 C412 C 0.29770 -0.22037 0.74183
 C413 C 0.26838 -0.22893 0.73286
 C414 C 0.25567 -0.21513 0.70840
 C415 C 0.32000 -0.17200 0.68214
 C416 C 0.33492 -0.15707 0.66689
 C417 C 0.35244 -0.13993 0.64872
 C418 C 0.36746 -0.12552 0.63301
 C419 C 0.38550 -0.10853 0.61412
 C420 C 0.41014 -0.11994 0.59948
 C421 C 0.42775 -0.10349 0.58116
 C422 C 0.42092 -0.07538 0.57723
 C423 C 0.39603 -0.06413 0.59197
 C424 C 0.37846 -0.08062 0.61030
 H425 H 0.26251 -0.18716 0.67274
 H426 H 0.33720 -0.19633 0.73215
 H427 H 0.30784 -0.22790 0.76179
 H428 H 0.23260 -0.21910 0.70171
 H429 H 0.41572 -0.14155 0.60220
 H430 H 0.44651 -0.11284 0.56983
 H431 H 0.39043 -0.04249 0.58970
 H432 H 0.35946 -0.07157 0.62158
 C433 C 0.27822 0.31197 0.20547
 C434 C 0.30214 0.30033 0.19006
 C435 C 0.30852 0.27225 0.19325
 C436 C 0.29165 0.25610 0.21249
 C437 C 0.26868 0.26787 0.22978
 C438 C 0.26134 0.29589 0.22472
 C439 C 0.32014 0.31736 0.17114
 C440 C 0.33520 0.33205 0.15574
 C441 C 0.35279 0.34970 0.13814
 C442 C 0.36775 0.36509 0.12341
 C443 C 0.38551 0.38378 0.10609
 C444 C 0.41211 0.37469 0.09289
 C445 C 0.42949 0.39297 0.07634
 C446 C 0.42048 0.42062 0.07277
 C447 C 0.39368 0.42952 0.08611
 C448 C 0.37635 0.41122 0.10266
 H449 H 0.27254 0.33355 0.20255
 H450 H 0.32661 0.26285 0.18097
 H451 H 0.29689 0.23434 0.21436
 H452 H 0.24234 0.30558 0.23522
 H453 H 0.41939 0.35348 0.09537
 H454 H 0.44978 0.38538 0.06603
 H455 H 0.38633 0.45074 0.08411
 H456 H 0.35587 0.41851 0.11289
 C457 C 0.22148 0.18663 0.20552
 C458 C 0.19726 0.19832 0.19038
 C459 C 0.19098 0.22640 0.19370
 C460 C 0.20828 0.24250 0.21282
 C461 C 0.23159 0.23068 0.22987
 C462 C 0.23879 0.20266 0.22466
 C463 C 0.17880 0.18135 0.17162
 C464 C 0.16333 0.16672 0.15637
 C465 C 0.14524 0.14918 0.13894
 C466 C 0.12982 0.13390 0.12435
 C467 C 0.11147 0.11536 0.10722
 C468 C 0.09646 0.12491 0.08228
 C469 C 0.07869 0.10684 0.06567
 C470 C 0.07569 0.07895 0.07381
 C471 C 0.09084 0.06959 0.09896
 C472 C 0.10860 0.08768 0.11552
 H473 H 0.22707 0.16505 0.20250
 H474 H 0.17265 0.23585 0.18162
 H475 H 0.20310 0.26426 0.21480
 H476 H 0.25799 0.19293 0.23496
 H477 H 0.09844 0.14632 0.07571
 H478 H 0.06701 0.11477 0.04665
 H479 H 0.08931 0.04818 0.10559
 H480 H 0.12018 0.08005 0.13475
 C481 C 0.22471 0.70535 0.68750
 C482 C 0.19854 0.69352 0.69886
 C483 C 0.18965 0.69992 0.72721
 C484 C 0.20632 0.71879 0.74383
 C485 C 0.23171 0.73278 0.73208
 C486 C 0.24144 0.72422 0.70402
 C487 C 0.18093 0.67474 0.68135
 C488 C 0.16617 0.65930 0.66636
 C489 C 0.14885 0.64151 0.64852
 C490 C 0.13402 0.62651 0.63311
 C491 C 0.11622 0.60877 0.61459
 C492 C 0.11196 0.58103 0.62203
 C493 C 0.09445 0.56386 0.60417
 C494 C 0.08097 0.57424 0.57858
 C495 C 0.08550 0.60215 0.57124
 C496 C 0.10300 0.61928 0.58915
 H497 H 0.23233 0.69986 0.66586
 H498 H 0.16983 0.69028 0.73654
 H499 H 0.19907 0.72271 0.76595
 H500 H 0.26218 0.73191 0.69465
 H501 H 0.12216 0.57266 0.64164
 H502 H 0.09171 0.54239 0.61021
 H503 H 0.07511 0.61084 0.55191
 H504 H 0.10610 0.64075 0.58323
 C505 C 0.72154 0.20829 0.68473
 C506 C 0.69780 0.19360 0.69734
 C507 C 0.69138 0.19718 0.72689
 C508 C 0.70817 0.21591 0.74358
 C509 C 0.73113 0.23220 0.73086
 C510 C 0.73836 0.22704 0.70134
 C511 C 0.68016 0.17479 0.67991
 C512 C 0.66536 0.15929 0.66502
 C513 C 0.64801 0.14140 0.64733
 C514 C 0.63313 0.12628 0.63208
 C515 C 0.61529 0.10840 0.61377
 C516 C 0.61116 0.08068 0.62141
 C517 C 0.59362 0.06337 0.60374
 C518 C 0.57997 0.07357 0.57816
 C519 C 0.58436 0.10144 0.57062
 C520 C 0.60190 0.11872 0.58833
 H521 H 0.72723 0.20511 0.66203
 H522 H 0.67342 0.18548 0.73706
 H523 H 0.70300 0.21799 0.76651
 H524 H 0.75730 0.23699 0.69093
 H525 H 0.62150 0.07246 0.64102
 H526 H 0.59098 0.04193 0.60993
 H527 H 0.57384 0.11000 0.55129
 H528 H 0.60489 0.14017 0.58226
 C529 C 0.72135 0.68682 0.20511
 C530 C 0.69715 0.69854 0.18994
 C531 C 0.69093 0.72663 0.19325
 C532 C 0.70826 0.74272 0.21236
 C533 C 0.73153 0.73087 0.22943
 C534 C 0.73869 0.70284 0.22424
 C535 C 0.67863 0.68159 0.17123
 C536 C 0.66308 0.66701 0.15600
 C537 C 0.64485 0.64955 0.13860
 C538 C 0.62930 0.63435 0.12406
 C539 C 0.61078 0.61591 0.10698
 C540 C 0.59575 0.62554 0.08209
 C541 C 0.57780 0.60757 0.06553
 C542 C 0.57462 0.57970 0.07370
 C543 C 0.58980 0.57025 0.09880
 C544 C 0.60774 0.58825 0.11530
 H545 H 0.72690 0.66523 0.20210
 H546 H 0.67262 0.73610 0.18115
 H547 H 0.70310 0.76448 0.21433
 H548 H 0.75787 0.69309 0.23456
 H549 H 0.59785 0.64693 0.07550
 H550 H 0.56611 0.61555 0.04655
 H551 H 0.58815 0.54886 0.10544
 H552 H 0.61934 0.58056 0.13449
   
