data_POSCAR
  _audit_creation_date              2014-09-24
  _audit_creation_method            'ToBaCCo'
  _symmetry_space_group_name_H-M    'P1'
  _symmetry_Int_Tables_number       1
  _symmetry_cell_setting            triclinic
  loop_
  _symmetry_equiv_pos_as_xyz
 x,y,z
_cell_length_a 32.4348
_cell_length_b 32.4349
_cell_length_c 32.4349
_cell_angle_alpha 77.003200
_cell_angle_beta 102.997300
_cell_angle_gamma 76.986500
loop_
  _atom_site_label
  _atom_site_type_symbol
  _atom_site_fract_x
  _atom_site_fract_y
  _atom_site_fract_z
O1 O 0.56596 0.48546 0.04073
 O2 O 0.44801 0.49961 0.03156
 O3 O 0.51514 0.43333 0.04130
 O4 O 0.49878 0.55171 0.03093
 O5 O 0.48354 0.56647 -0.04168
 O6 O 0.49992 0.44811 -0.03131
 O7 O 0.43273 0.51432 -0.04101
 O8 O 0.55069 0.50020 -0.03187
 Cu9 Cu 0.50849 0.49106 0.04341
 Cu10 Cu 0.49020 0.50874 -0.04375
 C11 C 0.57832 0.49083 0.00592
 C12 C 0.42031 0.50895 -0.00621
 C13 C 0.50991 0.42066 0.00668
 C14 C 0.48880 0.57915 -0.00706
 O15 O -0.04085 0.56748 0.48539
 O16 O -0.03171 0.44954 0.49951
 O17 O -0.03107 0.50032 0.55160
 O18 O -0.04144 0.51666 0.43324
 O19 O 0.03116 0.50141 0.44801
 O20 O 0.04154 0.48506 0.56636
 O21 O 0.04090 0.43424 0.51423
 O22 O 0.03172 0.55220 0.50012
 Cu23 Cu -0.04355 0.51002 0.49096
 Cu24 Cu 0.04362 0.49171 0.50864
 C25 C -0.00605 0.57990 0.49079
 C26 C 0.00608 0.42190 0.50889
 C27 C 0.00692 0.49032 0.57905
 C28 C -0.00682 0.51140 0.42056
 O29 O 0.49980 0.03132 0.55224
 O30 O 0.48569 0.04050 0.43429
 O31 O 0.43356 0.04108 0.48511
 O32 O 0.55193 0.03072 0.50146
 O33 O 0.56671 -0.04189 0.51670
 O34 O 0.44835 -0.03153 0.50033
 O35 O 0.50045 -0.03210 0.44956
 O36 O 0.51455 -0.04125 0.56751
 Cu37 Cu 0.49129 0.04319 0.49176
 Cu38 Cu 0.50899 -0.04398 0.51005
 C39 C 0.50914 -0.00645 0.57994
 C40 C 0.49105 0.00569 0.42193
 C41 C 0.42089 0.00646 0.49034
 C42 C 0.57938 -0.00727 0.51144
 C43 C 0.50667 -0.00942 -0.03934
 C44 C 0.49211 -0.03858 -0.01031
 C45 C 0.48505 -0.02859 0.02795
 C46 C 0.49309 0.00900 0.03875
 C47 C 0.50760 0.03819 0.00970
 C48 C 0.51469 0.02818 -0.02855
 H49 H 0.52459 0.05120 -0.05140
 H50 H 0.47515 -0.05160 0.05081
 C51 C -0.00968 0.50824 1.03833
 C52 C -0.03871 0.49369 1.00916
 C53 C -0.02791 0.48567 0.97156
 C54 C 0.01033 0.49276 0.96156
 C55 C 0.03938 0.50727 0.99075
 C56 C 0.02857 0.51531 1.02834
 H57 H 0.05143 0.52520 1.05136
 H58 H -0.05076 0.47577 0.94854
 C59 C 0.03833 0.00969 0.49242
 C60 C 0.00913 0.03875 0.50692
 C61 C -0.02846 0.02795 0.51496
 C62 C -0.03844 -0.01031 0.50790
 C63 C -0.00927 -0.03934 0.49334
 C64 C 0.02833 -0.02855 0.48532
 H65 H 0.05135 -0.05142 0.47543
 H66 H -0.05148 0.05081 0.52486
 N67 N -0.30310 0.47720 1.05184
 C68 C -0.28968 0.48403 1.01482
 N69 N -0.31946 0.49226 0.97503
 N70 N -0.36142 0.49382 0.97227
 C71 C -0.37502 0.48715 1.00924
 N72 N -0.34508 0.47875 1.04910
 C73 C -0.24484 0.48373 1.01741
 C74 C -0.20751 0.48410 1.01861
 C75 C -0.16347 0.48513 1.01871
 N76 N -0.13813 0.45533 1.00448
 N77 N -0.09809 0.45753 1.00243
 C78 C -0.08186 0.48949 1.01470
 N79 N -0.10749 0.51941 1.02878
 N80 N -0.14755 0.51720 1.03084
 N81 N 0.30393 0.52307 0.94802
 C82 C 0.29055 0.51618 0.98505
 N83 N 0.32039 0.50767 1.02486
 N84 N 0.36239 0.50587 1.02763
 C85 C 0.37605 0.51251 0.99065
 N86 N 0.34596 0.52128 0.95077
 C87 C 0.24565 0.51669 0.98246
 C88 C 0.20828 0.51646 0.98127
 C89 C 0.16422 0.51555 0.98119
 N90 N 0.13900 0.54532 0.99554
 N91 N 0.09894 0.54321 0.99760
 C92 C 0.08257 0.51137 0.98523
 N93 N 0.10809 0.48147 0.97104
 N94 N 0.14817 0.48359 0.96897
 N95 N 0.02497 -0.32020 0.49233
 C96 C -0.01485 -0.29038 0.48387
 N97 N -0.05187 -0.30377 0.47690
 N98 N -0.04910 -0.34579 0.47858
 C99 C -0.00920 -0.37585 0.48731
 N100 N 0.02776 -0.36219 0.49402
 C101 C -0.01748 -0.24552 0.48348
 C102 C -0.01869 -0.20816 0.48381
 C103 C -0.01881 -0.16412 0.48481
 N104 N -0.03096 -0.14817 0.51687
 N105 N -0.02891 -0.10810 0.51906
 C106 C -0.01482 -0.08250 0.48915
 N107 N -0.00252 -0.09876 0.45721
 N108 N -0.00456 -0.13880 0.45502
 N109 N 0.05194 0.30324 0.52274
 C110 C 0.01490 0.28986 0.51599
 N111 N -0.02489 0.31968 0.50772
 N112 N -0.02761 0.36165 0.50605
 C113 C 0.00938 0.37523 0.51264
 N114 N 0.04922 0.34524 0.52108
 C115 C 0.01745 0.24499 0.51642
 C116 C 0.01861 0.20764 0.51614
 C117 C 0.01868 0.16359 0.51521
 N118 N 0.00435 0.13836 0.54500
 N119 N 0.00229 0.09830 0.54288
 C120 C 0.01464 0.08194 0.51102
 N121 N 0.02880 0.10746 0.48111
 N122 N 0.03087 0.14754 0.48323
 N123 N 0.50763 0.02462 -0.32017
 C124 C 0.51611 -0.01520 -0.29035
 N125 N 0.52307 -0.05223 -0.30373
 N126 N 0.52137 -0.04948 -0.34574
 C127 C 0.51263 -0.00959 -0.37582
 N128 N 0.50593 0.02738 -0.36216
 C129 C 0.51651 -0.01779 -0.24549
 C130 C 0.51619 -0.01898 -0.20814
 C131 C 0.51519 -0.01905 -0.16410
 N132 N 0.48315 -0.03120 -0.14813
 N133 N 0.48096 -0.02911 -0.10807
 C134 C 0.51085 -0.01498 -0.08250
 N135 N 0.54277 -0.00267 -0.09878
 N136 N 0.54496 -0.00475 -0.13881
 N137 N 0.47721 0.05161 0.30331
 C138 C 0.48401 0.01459 0.28989
 N139 N 0.49230 -0.02521 0.31968
 N140 N 0.49395 -0.02797 0.36166
 C141 C 0.48732 0.00901 0.37527
 N142 N 0.47886 0.04887 0.34531
 C143 C 0.48359 0.01718 0.24503
 C144 C 0.48387 0.01838 0.20767
 C145 C 0.48480 0.01849 0.16360
 N146 N 0.45499 0.00423 0.13834
 N147 N 0.45710 0.00219 0.09827
 C148 C 0.48898 0.01451 0.08194
 N149 N 0.51892 0.02862 0.10749
 N150 N 0.51680 0.03066 0.14758
 N151 N 0.47357 -0.30214 -0.05404
 C152 C 0.48034 -0.28840 -0.01721
 N153 N 0.48895 -0.31798 0.02278
 N154 N 0.49096 -0.36009 0.02592
 C155 C 0.48438 -0.37402 -0.01084
 N156 N 0.47556 -0.34427 -0.05090
 C157 C 0.47988 -0.24350 -0.02016
 C158 C 0.48032 -0.20618 -0.02149
 C159 C 0.48163 -0.16226 -0.02152
 N160 N 0.45225 -0.13695 -0.00685
 N161 N 0.45499 -0.09718 -0.00437
 C162 C 0.48710 -0.08122 -0.01661
 N163 N 0.51658 -0.10680 -0.03116
 N164 N 0.51384 -0.14660 -0.03366
 N165 N 0.51004 0.31778 -0.02324
 C166 C 0.51870 0.28816 0.01674
 N167 N 0.52538 0.30188 0.05358
 N168 N 0.52327 0.34403 0.05047
 C169 C 0.51440 0.37382 0.01043
 N170 N 0.50791 0.35991 -0.02635
 C171 C 0.51930 0.24323 0.01964
 C172 C 0.51898 0.20589 0.02093
 C173 C 0.51778 0.16196 0.02092
 N174 N 0.48568 0.14615 0.03314
 N175 N 0.48303 0.10634 0.03062
 C176 C 0.51250 0.08087 0.01598
 N177 N 0.54450 0.09697 0.00364
 N178 N 0.54714 0.13677 0.00615
 N179 N -0.30190 -0.05420 0.52661
 C180 C -0.28819 -0.01737 0.51984
 N181 N -0.31779 0.02261 0.51125
 N182 N -0.35989 0.02574 0.50927
 C183 C -0.37380 -0.01104 0.51584
 N184 N -0.34403 -0.05109 0.52464
 C185 C -0.24330 -0.02029 0.52027
 C186 C -0.20598 -0.02159 0.51981
 C187 C -0.16209 -0.02159 0.51846
 N188 N -0.13680 -0.00689 0.54781
 N189 N -0.09704 -0.00437 0.54504
 C190 C -0.08107 -0.01663 0.51293
 N191 N -0.10663 -0.03121 0.48349
 N192 N -0.14641 -0.03373 0.48626
 N193 N 0.30210 0.05339 0.47480
 C194 C 0.28838 0.01656 0.48148
 N195 N 0.31801 -0.02343 0.49017
 N196 N 0.36014 -0.02655 0.49232
 C197 C 0.37406 0.01022 0.48583
 N198 N 0.34426 0.05028 0.47694
 C199 C 0.24345 0.01949 0.48086
 C200 C 0.20609 0.02080 0.48115
 C201 C 0.16214 0.02082 0.48233
 N202 N 0.13695 0.00609 0.45293
 N203 N 0.09714 0.00361 0.45555
 C204 C 0.08102 0.01594 0.48754
 N205 N 0.10649 0.03055 0.51704
 N206 N 0.14632 0.03303 0.51442
 N207 N -0.05372 0.52667 1.30182
 C208 C -0.01687 0.51994 1.28812
 N209 N 0.02310 0.51132 1.31772
 N210 N 0.02621 0.50929 1.35983
 C211 C -0.01057 0.51583 1.37374
 N212 N -0.05062 0.52465 1.34396
 C213 C -0.01977 0.52042 1.24322
 C214 C -0.02104 0.52000 1.20590
 C215 C -0.02101 0.51869 1.16200
 N216 N -0.00627 0.54804 1.13675
 N217 N -0.00374 0.54530 1.09699
 C218 C -0.01600 0.51323 1.08098
 N219 N -0.03061 0.48378 1.10650
 N220 N -0.03316 0.48652 1.14628
 N221 N -0.02290 0.49029 0.68195
 C222 C 0.01710 0.48161 0.71154
 N223 N 0.05392 0.47487 0.69780
 N224 N 0.05077 0.47696 0.65564
 C225 C 0.01071 0.48585 0.62588
 N226 N -0.02606 0.49239 0.63982
 C227 C 0.02006 0.48104 0.75647
 C228 C 0.02140 0.48137 0.79382
 C229 C 0.02146 0.48257 0.83777
 N230 N 0.03363 0.51470 0.85354
 N231 N 0.03117 0.51735 0.89337
 C232 C 0.01660 0.48784 0.91888
 N233 N 0.00431 0.45581 0.90281
 N234 N 0.00677 0.45316 0.86301
   
