data_POSCAR
  _audit_creation_date              2014-09-24
  _audit_creation_method            'ToBaCCo'
  _symmetry_space_group_name_H-M    'P1'
  _symmetry_Int_Tables_number       1
  _symmetry_cell_setting            triclinic
  loop_
  _symmetry_equiv_pos_as_xyz
 x,y,z
_cell_length_a 25.9767
_cell_length_b 18.7229
_cell_length_c 21.2543
_cell_angle_alpha 89.974200
_cell_angle_beta 90.049200
_cell_angle_gamma 89.831000
loop_
  _atom_site_label
  _atom_site_type_symbol
  _atom_site_fract_x
  _atom_site_fract_y
  _atom_site_fract_z
C1 C 0.21741 0.20555 0.21593
 C2 C 0.22095 0.28086 0.20705
 C3 C 0.25916 0.31926 0.23877
 C4 C 0.29544 0.28626 0.27797
 C5 C 0.29368 0.21073 0.28617
 C6 C 0.25539 0.17201 0.25369
 H7 H 0.25233 0.11527 0.26278
 H8 H 0.26225 0.37624 0.23031
 C9 C 0.79371 0.27801 0.22058
 C10 C 0.79020 0.20254 0.22919
 C11 C 0.75397 0.17468 0.27145
 C12 C 0.72107 0.21910 0.30655
 C13 C 0.72539 0.29429 0.29935
 C14 C 0.76041 0.32205 0.25562
 H15 H 0.76401 0.37959 0.25219
 H16 H 0.75043 0.11718 0.27556
 C17 C 0.71121 0.72038 0.71794
 C18 C 0.71647 0.79478 0.72566
 C19 C 0.75373 0.82175 0.76658
 C20 C 0.78714 0.77658 0.80069
 C21 C 0.78204 0.70121 0.79213
 C22 C 0.74434 0.67466 0.75096
 H23 H 0.74000 0.61738 0.74553
 H24 H 0.75750 0.87928 0.76986
 C25 C 0.28280 0.78466 0.71469
 C26 C 0.27816 0.71045 0.70334
 C27 C 0.23909 0.67195 0.73368
 C28 C 0.20361 0.70481 0.77507
 C29 C 0.20926 0.77949 0.78676
 C30 C 0.24786 0.81778 0.75541
 H31 H 0.25256 0.87416 0.76562
 H32 H 0.23540 0.61572 0.72257
 O33 O 1.05547 -0.10948 0.00734
 O34 O 0.95138 -0.02800 0.10185
 O35 O 0.95560 -0.11645 0.00624
 O36 O 1.05182 -0.02159 0.10175
 O37 O 1.04528 0.07159 0.03834
 O38 O 0.95138 -0.02493 -0.05940
 O39 O 0.94629 0.06086 0.03368
 O40 O 1.05180 -0.01747 -0.05747
 Cu41 Cu 1.00386 -0.07813 0.06093
 Cu42 Cu 0.99888 0.03158 -0.01808
 C43 C 1.07130 -0.07706 -0.04139
 C44 C 0.93098 0.03024 0.08348
 C45 C 0.93701 -0.08668 -0.04245
 C46 C 1.06422 0.04168 0.08679
 O47 O 0.55901 0.42899 0.48486
 O48 O 0.44585 0.50414 0.56374
 O49 O 0.46005 0.41931 0.46662
 O50 O 0.54423 0.51799 0.57641
 O51 O 0.54775 0.60678 0.50807
 O52 O 0.45752 0.51366 0.40410
 O53 O 0.44810 0.59790 0.50079
 O54 O 0.55764 0.51715 0.41582
 Cu55 Cu 0.50192 0.45813 0.52924
 Cu56 Cu 0.50269 0.56791 0.45043
 C57 C 0.57768 0.45992 0.43700
 C58 C 0.42874 0.56490 0.54739
 C59 C 0.44411 0.45037 0.41707
 C60 C 0.56084 0.57913 0.56024
 O61 O -0.05569 0.56026 -0.02141
 O62 O 0.05519 0.48464 0.06315
 O63 O 0.04278 0.57171 -0.03379
 O64 O -0.04518 0.47778 0.07342
 O65 O -0.04406 0.38458 0.00952
 O66 O 0.04667 0.47681 -0.09543
 O67 O 0.05567 0.39115 -0.00007
 O68 O -0.05309 0.46954 -0.08782
 Cu69 Cu -0.00009 0.53288 0.02707
 Cu70 Cu 0.00130 0.42105 -0.04977
 C71 C -0.07306 0.52792 -0.06934
 C72 C 0.07404 0.42479 0.04658
 C73 C 0.05922 0.54072 -0.08301
 C74 C -0.06031 0.41566 0.05879
 O75 O 0.55449 1.01318 0.44120
 O76 O 0.45803 0.91594 0.53507
 O77 O 0.45394 1.00340 0.43690
 O78 O 0.55760 0.92764 0.53489
 O79 O 0.54806 1.01660 0.60235
 O80 O 0.44887 1.09615 0.50065
 O81 O 0.44827 1.01035 0.59639
 O82 O 0.54796 1.10443 0.50681
 Cu83 Cu 0.50600 0.95563 0.48028
 Cu84 Cu 0.49756 1.06603 0.55811
 C85 C 0.56813 1.07501 0.45898
 C86 C 0.43703 0.94666 0.58178
 C87 C 0.43466 1.06372 0.45119
 C88 C 0.57033 0.95935 0.58526
 C89 C 1.18347 0.09012 0.17811
 C90 C 1.17654 0.16330 0.19113
 C91 C 1.12619 0.19059 0.18076
 C92 C 1.08922 0.15078 0.14736
 C93 C 1.10037 0.08112 0.12686
 C94 C 1.14627 0.05000 0.14733
 C95 C 1.18540 0.00882 0.11095
 C96 C 1.22624 0.05270 0.14440
 H97 H 1.11521 0.24317 0.19691
 H98 H 1.05239 0.17490 0.13638
 H99 H 1.18329 0.01933 0.05950
 H100 H 1.18605 -0.04856 0.12437
 H101 H 1.24783 0.08884 0.11242
 H102 H 1.25053 0.02035 0.17678
 C103 C 0.66444 0.70560 0.61506
 C104 C 0.66966 0.68898 0.67896
 C105 C 0.63405 0.64085 0.70545
 C106 C 0.59739 0.60614 0.66744
 C107 C 0.59552 0.61916 0.60219
 C108 C 0.62790 0.67186 0.57772
 C109 C 0.66379 0.66640 0.52318
 C110 C 0.70394 0.70251 0.56399
 H111 H 0.63575 0.62835 0.75517
 H112 H 0.57174 0.56757 0.68869
 H113 H 0.65095 0.69986 0.48287
 H114 H 0.67366 0.61021 0.51109
 H115 H 0.71466 0.75598 0.54583
 H116 H 0.73701 0.66719 0.57605
 C117 C -0.12070 0.28358 0.16949
 C118 C -0.17066 0.31080 0.17892
 C119 C -0.18423 0.37258 0.14389
 C120 C -0.14839 0.40653 0.10438
 C121 C -0.09812 0.37964 0.09851
 C122 C -0.08570 0.31629 0.12941
 C123 C -0.04165 0.30217 0.17274
 C124 C -0.07977 0.26669 0.21674
 H125 H -0.22273 0.39470 0.14639
 H126 H -0.15976 0.45422 0.07898
 H127 H -0.02472 0.35192 0.19229
 H128 H -0.01344 0.26427 0.15200
 H129 H -0.08520 0.29594 0.26178
 H130 H -0.07268 0.20849 0.22172
 C131 C 0.31409 0.89745 0.66377
 C132 C 0.32473 0.82931 0.68784
 C133 C 0.37667 0.80667 0.68708
 C134 C 0.41355 0.84455 0.65187
 C135 C 0.39983 0.90809 0.62059
 C136 C 0.35091 0.93639 0.63161
 C137 C 0.31209 0.96508 0.58624
 C138 C 0.27166 0.92258 0.62190
 H139 H 0.38807 0.75747 0.71000
 H140 H 0.45214 0.82323 0.64764
 H141 H 0.31849 0.94571 0.53739
 H142 H 0.30708 1.02383 0.59086
 H143 H 0.25437 0.87870 0.59382
 H144 H 0.24359 0.95687 0.64739
 C145 C -0.18721 0.64346 -0.10721
 C146 C -0.18727 0.64772 -0.17273
 C147 C -0.15485 0.59867 -0.20461
 C148 C -0.11941 0.55529 -0.17081
 C149 C -0.11593 0.56008 -0.10451
 C150 C -0.15268 0.60268 -0.07501
 C151 C -0.16512 0.63575 -0.01323
 C152 C -0.20475 0.68141 -0.04921
 H153 H -0.15432 0.59751 -0.25555
 H154 H -0.09256 0.52218 -0.19672
 H155 H -0.13252 0.66747 0.00582
 H156 H -0.18268 0.59703 0.02001
 H157 H -0.19520 0.73907 -0.04846
 H158 H -0.24528 0.66853 -0.03711
 C159 C 0.34529 1.20294 0.38336
 C160 C 0.32796 1.17331 0.32658
 C161 C 0.34815 1.10526 0.31040
 C162 C 0.38269 1.06896 0.35065
 C163 C 0.39720 1.09880 0.40889
 C164 C 0.37904 1.16721 0.42288
 C165 C 0.35255 1.19389 0.48056
 C166 C 0.31569 1.23343 0.43723
 H167 H 0.33832 1.08051 0.26597
 H168 H 0.39756 1.01738 0.33636
 H169 H 0.37747 1.23018 0.50851
 H170 H 0.33390 1.15039 0.50787
 H171 H 0.31991 1.29226 0.44065
 H172 H 0.27549 1.21334 0.43943
 C173 C 1.15720 -0.11452 -0.18031
 C174 C 1.17977 -0.18016 -0.16503
 C175 C 1.17478 -0.20420 -0.10237
 C176 C 1.14087 -0.16922 -0.06050
 C177 C 1.11255 -0.10865 -0.08024
 C178 C 1.12445 -0.07974 -0.13913
 C179 C 1.09003 -0.05530 -0.19127
 C180 C 1.12626 -0.09333 -0.23645
 H181 H 1.19429 -0.25242 -0.08721
 H182 H 1.13495 -0.19162 -0.01411
 H183 H 1.09035 0.00373 -0.19677
 H184 H 1.05112 -0.07978 -0.18902
 H185 H 1.14764 -0.05619 -0.26770
 H186 H 1.10838 -0.13976 -0.26057
 C187 C 0.67178 0.40550 0.31093
 C188 C 0.69607 0.34619 0.33826
 C189 C 0.69148 0.33835 0.40404
 C190 C 0.65452 0.37829 0.43746
 C191 C 0.62312 0.42862 0.40602
 C192 C 0.63597 0.44555 0.34393
 C193 C 0.60322 0.45635 0.28692
 C194 C 0.64317 0.41343 0.25043
 H195 H 0.71301 0.29723 0.42850
 H196 H 0.64837 0.36654 0.48677
 H197 H 0.60141 0.51336 0.27247
 H198 H 0.56533 0.42915 0.29065
 H199 H 0.66485 0.44618 0.21585
 H200 H 0.62853 0.36196 0.23174
 C201 C 0.87256 -0.22176 -0.14710
 C202 C 0.82360 -0.19178 -0.15802
 C203 C 0.81152 -0.12841 -0.12430
 C204 C 0.84811 -0.09487 -0.08567
 C205 C 0.89763 -0.12384 -0.07900
 C206 C 0.90837 -0.18893 -0.10792
 C207 C 0.95216 -0.20629 -0.15038
 C208 C 0.91343 -0.24169 -0.19355
 H209 H 0.77360 -0.10454 -0.12712
 H210 H 0.83800 -0.04563 -0.06187
 H211 H 0.97926 -0.24440 -0.12797
 H212 H 0.97030 -0.15802 -0.17118
 H213 H 0.91967 -0.30016 -0.19696
 H214 H 0.90873 -0.21383 -0.23943
 C215 C 0.32407 0.39991 0.32999
 C216 C 0.33650 0.33310 0.30438
 C217 C 0.38928 0.31419 0.30337
 C218 C 0.42520 0.35289 0.33969
 C219 C 0.40928 0.41330 0.37406
 C220 C 0.35963 0.43926 0.36361
 C221 C 0.31977 0.46590 0.40846
 C222 C 0.28049 0.42327 0.37083
 H223 H 0.40195 0.26648 0.27907
 H224 H 0.46461 0.33424 0.34280
 H225 H 0.31404 0.52458 0.40467
 H226 H 0.32563 0.44545 0.45709
 H227 H 0.25265 0.45759 0.34491
 H228 H 0.26286 0.37865 0.39761
 C229 C 0.17124 0.58870 -0.18702
 C230 C 0.16391 0.66228 -0.19806
 C231 C 0.11470 0.68991 -0.18229
 C232 C 0.08011 0.64986 -0.14559
 C233 C 0.09230 0.57984 -0.12702
 C234 C 0.13618 0.54843 -0.15286
 C235 C 0.17751 0.50601 -0.12145
 C236 C 0.21604 0.55002 -0.15860
 H237 H 0.10309 0.74303 -0.19635
 H238 H 0.04452 0.67411 -0.13025
 H239 H 0.17672 0.44891 -0.13569
 H240 H 0.17932 0.51551 -0.06984
 H241 H 0.23758 0.51801 -0.19393
 H242 H 0.24021 0.58521 -0.12860
 C243 C 0.63246 1.21124 0.35615
 C244 C 0.68289 1.18508 0.34968
 C245 C 0.69646 1.12512 0.38678
 C246 C 0.65919 1.08918 0.42305
 C247 C 0.60791 1.11341 0.42411
 C248 C 0.59627 1.17718 0.39336
 C249 C 0.55355 1.19387 0.34875
 C250 C 0.59319 1.23161 0.30807
 H251 H 0.73547 1.10461 0.38629
 H252 H 0.67013 1.04172 0.44906
 H253 H 0.52475 1.23081 0.36978
 H254 H 0.53716 1.14528 0.32639
 H255 H 0.58669 1.29016 0.30634
 H256 H 0.59981 1.20537 0.26186
 C257 C 0.16664 0.38697 0.17915
 C258 C 0.18927 0.32214 0.16137
 C259 C 0.18182 0.29950 0.09870
 C260 C 0.14572 0.33461 0.05969
 C261 C 0.11757 0.39402 0.08221
 C262 C 0.13175 0.42200 0.14067
 C263 C 0.09944 0.44458 0.19530
 C264 C 0.13798 0.40631 0.23750
 H265 H 0.20115 0.25208 0.08145
 H266 H 0.13802 0.31305 0.01338
 H267 H 0.06075 0.41934 0.19508
 H268 H 0.09940 0.50348 0.20175
 H269 H 0.12164 0.35902 0.26194
 H270 H 0.16032 0.44322 0.26797
 C271 C 0.63942 0.87494 0.72174
 C272 C 0.68312 0.84636 0.69274
 C273 C 0.69537 0.87029 0.63186
 C274 C 0.65921 0.91002 0.59694
 C275 C 0.61170 0.92940 0.62398
 C276 C 0.60449 0.91618 0.68810
 C277 C 0.55965 0.88404 0.72151
 C278 C 0.59802 0.83914 0.75855
 H279 H 0.73117 0.85415 0.61001
 H280 H 0.66728 0.92267 0.54821
 H281 H 0.53493 0.85187 0.68973
 H282 H 0.53885 0.92376 0.75097
 H283 H 0.59512 0.78106 0.74847
 H284 H 0.59958 0.85332 0.80928
 C285 C 0.82418 0.15665 0.12673
 C286 C 0.82133 0.15100 0.19219
 C287 C 0.85424 0.10152 0.22222
 C288 C 0.88856 0.05909 0.18683
 C289 C 0.89054 0.06544 0.12079
 C290 C 0.85851 0.11596 0.09201
 C291 C 0.82011 0.10546 0.04046
 C292 C 0.78268 0.15022 0.07876
 H293 H 0.85448 0.09732 0.27303
 H294 H 0.91446 0.02303 0.21117
 H295 H 0.80812 0.04876 0.03539
 H296 H 0.83223 0.13179 -0.00399
 H297 H 0.74895 0.11962 0.09621
 H298 H 0.77343 0.20249 0.05657
 C299 C 0.32809 0.69693 0.60245
 C300 C 0.31438 0.67102 0.66191
 C301 C 0.34060 0.61016 0.68442
 C302 C 0.37692 0.57460 0.64659
 C303 C 0.38816 0.59924 0.58538
 C304 C 0.36451 0.66255 0.56544
 C305 C 0.33484 0.67752 0.50666
 C306 C 0.29518 0.71544 0.54739
 H307 H 0.33308 0.59020 0.73135
 H308 H 0.39628 0.52797 0.66546
 H309 H 0.31995 0.62813 0.48413
 H310 H 0.35581 0.71426 0.47463
 H311 H 0.25721 0.68821 0.54853
 H312 H 0.29367 0.77398 0.53896
   
