data_POSCAR
  _audit_creation_date              2014-09-24
  _audit_creation_method            'ToBaCCo'
  _symmetry_space_group_name_H-M    'P1'
  _symmetry_Int_Tables_number       1
  _symmetry_cell_setting            triclinic
  loop_
  _symmetry_equiv_pos_as_xyz
 x,y,z
_cell_length_a 42.9811
_cell_length_b 39.8147
_cell_length_c 42.0216
_cell_angle_alpha 88.974600
_cell_angle_beta 89.734200
_cell_angle_gamma 89.850400
loop_
  _atom_site_label
  _atom_site_type_symbol
  _atom_site_fract_x
  _atom_site_fract_y
  _atom_site_fract_z
C1 C 0.24790 0.49320 1.00445
 C2 C 0.75274 0.50121 -0.00337
 C3 C -0.00147 0.25518 0.50278
 C4 C 1.00205 0.75274 0.50045
 C5 C 0.49955 -0.00848 0.25804
 C6 C 0.49887 0.00097 0.73981
 C7 C 0.29905 0.02904 0.45933
 H8 H 0.30187 0.04702 0.47810
 C9 C 0.32051 0.02811 0.43432
 H10 H 0.33989 0.04541 0.43419
 C11 C 0.27158 -0.01694 0.43823
 H12 H 0.25305 -0.03510 0.44021
 C13 C 0.29231 -0.01857 0.41266
 H14 H 0.28887 -0.03751 0.39486
 N15 N 0.27532 0.00655 0.46099
 C16 C 0.20275 0.04590 0.52258
 H17 H 0.20061 0.02498 0.53924
 C18 C 0.18141 0.07233 0.52353
 H19 H 0.16276 0.07118 0.54088
 C20 C 0.22852 0.07109 0.47834
 H21 H 0.24653 0.07017 0.46037
 C22 C 0.20792 0.09832 0.47870
 H23 H 0.21089 0.11844 0.46131
 Zn24 Zn 0.25026 0.00631 0.49816
 N25 N 0.22549 0.04554 0.50003
 C26 C 0.27849 0.02752 0.55567
 N27 N 0.27781 0.00353 0.53305
 C28 C 0.29882 -0.02204 0.53300
 C29 C 0.32182 -0.02417 0.55626
 C30 C 0.30118 0.02638 0.57943
 C31 C 0.20083 -0.03146 0.47513
 C32 C 0.17954 -0.05780 0.47402
 C33 C 0.20289 -0.08178 0.52145
 C34 C 0.22402 -0.05515 0.52144
 N35 N 0.22278 -0.03083 0.49831
 H36 H 0.26187 0.04793 0.55496
 H37 H 0.29810 -0.04039 0.51434
 H38 H 0.33878 -0.04427 0.55524
 H39 H 0.30139 0.04567 0.59726
 H40 H 0.19992 -0.01140 0.45745
 H41 H 0.16215 -0.05780 0.45545
 H42 H 0.20422 -0.10104 0.53993
 H43 H 0.24118 -0.05381 0.54007
 C44 C 0.18359 0.09897 0.50119
 C45 C 0.31756 0.00373 0.41075
 C46 C 0.18040 -0.08339 0.49740
 C47 C 0.32340 0.00040 0.57978
 C48 C 0.70063 0.02740 0.53592
 H49 H 0.69986 0.04661 0.51740
 C50 C 0.67853 0.02740 0.56039
 H51 H 0.66074 0.04669 0.56037
 C52 C 0.72371 -0.02223 0.55706
 H53 H 0.74094 -0.04191 0.55531
 C54 C 0.70210 -0.02315 0.58201
 H55 H 0.70342 -0.04327 0.59963
 N56 N 0.72251 0.00273 0.53458
 C57 C 0.79582 0.04251 0.47252
 H58 H 0.79580 0.02361 0.45433
 C59 C 0.81756 0.06845 0.47116
 H60 H 0.83385 0.06964 0.45145
 C61 C 0.77463 0.06345 0.52040
 H62 H 0.75832 0.06091 0.53994
 C63 C 0.79610 0.08978 0.52006
 H64 H 0.79607 0.10725 0.53951
 Zn65 Zn 0.74876 0.00230 0.49823
 N66 N 0.77494 0.04044 0.49686
 C67 C 0.72278 0.02713 0.44003
 N68 N 0.72239 0.00190 0.46231
 C69 C 0.70126 -0.02337 0.46103
 C70 C 0.67937 -0.02396 0.43665
 C71 C 0.70123 0.02754 0.41520
 C72 C 0.79736 -0.03680 0.52215
 C73 C 0.81958 -0.06242 0.52290
 C74 C 0.79556 -0.08623 0.47662
 C75 C 0.77390 -0.05994 0.47660
 N76 N 0.77522 -0.03587 0.49915
 H77 H 0.73919 0.04749 0.44192
 H78 H 0.70116 -0.04283 0.47932
 H79 H 0.66282 -0.04440 0.43607
 H80 H 0.70136 0.04828 0.39819
 H81 H 0.79811 -0.01714 0.53957
 H82 H 0.83718 -0.06254 0.54125
 H83 H 0.79467 -0.10473 0.45807
 H84 H 0.75661 -0.05839 0.45806
 C85 C 0.81819 0.09234 0.49536
 C86 C 0.67882 0.00165 0.58370
 C87 C 0.81906 -0.08737 0.49972
 C88 C 0.67891 0.00194 0.41351
 C89 C 0.48002 0.19370 1.03350
 H90 H 0.46258 0.19470 1.01502
 C91 C 0.47769 0.16988 1.05813
 H92 H 0.45814 0.15277 1.05863
 C93 C 0.52669 0.21487 1.05515
 H94 H 0.54615 0.23191 1.05356
 C95 C 0.52520 0.19152 1.08032
 H96 H 0.54356 0.19088 1.09788
 N97 N 0.50407 0.21580 1.03259
 C98 C 0.46932 0.30085 0.97657
 H99 H 0.48764 0.30295 0.95891
 C100 C 0.44449 0.32348 0.97596
 H101 H 0.44396 0.34311 0.95780
 C102 C 0.44840 0.27322 1.02223
 H103 H 0.45018 0.25387 1.04046
 C104 C 0.42318 0.29544 1.02260
 H105 H 0.40545 0.29252 1.04082
 Zn106 Zn 0.50533 0.24671 0.99784
 N107 N 0.47058 0.27600 0.99913
 C108 C 0.48207 0.22604 0.93806
 N109 N 0.50496 0.22151 0.95997
 C110 C 0.52699 0.19727 0.95646
 C111 C 0.52632 0.17612 0.93028
 C112 C 0.48070 0.20571 0.91139
 C113 C 0.54389 0.29364 1.02564
 C114 C 0.56863 0.31598 1.02802
 C115 C 0.58695 0.29820 0.97654
 C116 C 0.56205 0.27572 0.97540
 N117 N 0.54114 0.27395 0.99975
 H118 H 0.46441 0.24498 0.94144
 H119 H 0.54466 0.19386 0.97449
 H120 H 0.54349 0.15630 0.92858
 H121 H 0.46237 0.20999 0.89421
 H122 H 0.52663 0.29207 1.04443
 H123 H 0.57052 0.33090 1.04920
 H124 H 0.60271 0.30001 0.95643
 H125 H 0.55898 0.26040 0.95467
 C126 C 0.42089 0.32082 0.99908
 C127 C 0.50047 0.16858 1.08198
 C128 C 0.59038 0.31895 1.00305
 C129 C 0.50274 0.17996 0.90740
 C130 C 0.47161 0.80058 -0.03521
 H131 H 0.45353 0.79996 -0.01720
 C132 C 0.47019 0.82414 -0.06016
 H133 H 0.45100 0.84180 -0.06099
 C134 C 0.51912 0.77896 -0.05512
 H135 H 0.53845 0.76174 -0.05280
 C136 C 0.51859 0.80205 -0.08053
 H137 H 0.53722 0.80167 -0.09795
 N138 N 0.49562 0.77836 -0.03333
 C139 C 0.45645 0.69818 0.02613
 H140 H 0.47307 0.69799 0.04539
 C141 C 0.43138 0.67605 0.02702
 H142 H 0.42861 0.65955 0.04756
 C143 C 0.44007 0.72057 -0.02365
 H144 H 0.44394 0.73752 -0.04363
 C145 C 0.41496 0.69834 -0.02406
 H146 H 0.39989 0.69846 -0.04462
 Zn147 Zn 0.49572 0.74785 0.00173
 N148 N 0.46010 0.72016 0.00130
 C149 C 0.47280 0.77270 0.06048
 N150 N 0.49672 0.77345 0.03917
 C151 C 0.52193 0.79338 0.04355
 C152 C 0.52428 0.81275 0.07077
 C153 C 0.47411 0.79180 0.08796
 C154 C 0.53344 0.69936 -0.02609
 C155 C 0.55789 0.67643 -0.02841
 C156 C 0.57523 0.69292 0.02362
 C157 C 0.55061 0.71581 0.02479
 N158 N 0.53049 0.71880 0.00001
 H159 H 0.45251 0.75755 0.05615
 H160 H 0.54031 0.79402 0.02587
 H161 H 0.54445 0.82859 0.07376
 H162 H 0.45502 0.79061 0.10484
 H163 H 0.51673 0.70177 -0.04517
 H164 H 0.56012 0.66177 -0.04975
 H165 H 0.59052 0.69041 0.04392
 H166 H 0.54722 0.73055 0.04586
 C167 C 0.41030 0.67560 0.00153
 C168 C 0.49383 0.82500 -0.08337
 C169 C 0.57914 0.67281 -0.00326
 C170 C 0.50018 0.81204 0.09343
 C171 C 1.03543 0.47631 0.19798
 H172 H 1.01681 0.45809 0.19775
 C173 C 1.06102 0.47263 0.17778
 H174 H 1.06175 0.45158 0.16184
 C175 C 1.05613 0.52673 0.21811
 H176 H 1.05384 0.54811 0.23342
 C177 C 1.08217 0.52404 0.19825
 H178 H 1.10003 0.54313 0.19902
 N179 N 1.03347 0.50296 0.21766
 C180 C 0.96532 0.46639 0.28673
 H181 H 0.94726 0.48501 0.28303
 C182 C 0.96126 0.44093 0.30958
 H183 H 0.93961 0.43985 0.32280
 C184 C 1.01549 0.44574 0.27391
 H185 H 1.03692 0.44833 0.26055
 C186 C 1.01262 0.42013 0.29696
 H187 H 1.03208 0.40334 0.30107
 Zn188 Zn 0.99675 0.50648 0.24235
 N189 N 0.99209 0.46838 0.26949
 C190 C 0.94359 0.48318 0.21009
 N191 N 0.96310 0.50967 0.21356
 C192 C 0.96046 0.53774 0.19486
 C193 C 0.93688 0.54034 0.17218
 C194 C 0.91999 0.48450 0.18740
 C195 C 1.02191 0.54383 0.29086
 C196 C 1.02320 0.56806 0.31434
 C197 C 0.97584 0.59250 0.29349
 C198 C 0.97550 0.56775 0.27025
 N199 N 0.99827 0.54393 0.26951
 H200 H 0.94685 0.46054 0.22423
 H201 H 0.97676 0.55814 0.19756
 H202 H 0.93485 0.56325 0.15809
 H203 H 0.90540 0.46267 0.18451
 H204 H 1.03940 0.52426 0.29011
 H205 H 1.04218 0.56730 0.33119
 H206 H 0.95694 0.61049 0.29449
 H207 H 0.95633 0.56681 0.25377
 C208 C 0.98538 0.41777 0.31556
 C209 C 1.08479 0.49677 0.17761
 C210 C 0.99962 0.59244 0.31633
 C211 C 0.91629 0.51339 0.16804
 C212 C -0.03510 0.47552 0.80502
 H213 H -0.01707 0.45658 0.80696
 C214 C -0.06036 0.47475 0.82601
 H215 H -0.06142 0.45522 0.84424
 C216 C -0.05437 0.52510 0.78000
 H217 H -0.05167 0.54508 0.76251
 C218 C -0.08013 0.52517 0.80034
 H219 H -0.09734 0.54490 0.79767
 N220 N -0.03251 0.50050 0.78269
 C221 C 0.03010 0.46178 0.71023
 H222 H 0.04826 0.48053 0.71072
 C223 C 0.03192 0.43559 0.68868
 H224 H 0.05190 0.43412 0.67299
 C225 C -0.01793 0.44118 0.73030
 H226 H -0.03761 0.44383 0.74615
 C227 C -0.01717 0.41468 0.70895
 H228 H -0.03648 0.39730 0.70855
 Zn229 Zn 0.00413 0.50137 0.75770
 N230 N 0.00554 0.46400 0.73059
 C231 C 0.05915 0.47487 0.78585
 N232 N 0.03792 0.50023 0.78637
 C233 C 0.03888 0.52422 0.80896
 C234 C 0.06196 0.52337 0.83223
 C235 C 0.08266 0.47309 0.80861
 C236 C -0.01648 0.54369 0.70847
 C237 C -0.01606 0.57111 0.68733
 C238 C 0.02993 0.59139 0.71359
 C239 C 0.02853 0.56363 0.73437
 N240 N 0.00550 0.54052 0.73150
 H241 H 0.05762 0.45558 0.76821
 H242 H 0.02130 0.54371 0.80920
 H243 H 0.06190 0.54229 0.85042
 H244 H 0.09945 0.45281 0.80766
 H245 H -0.03417 0.52459 0.70633
 H246 H -0.03341 0.57279 0.66877
 H247 H 0.04845 0.60952 0.71616
 H248 H 0.04615 0.56034 0.75240
 C249 C 0.00794 0.41171 0.68762
 C250 C -0.08319 0.50000 0.82403
 C251 C 0.00750 0.59531 0.68959
 C252 C 0.08414 0.49740 0.83239
 C253 C 0.08404 0.19614 0.49981
 C254 C 0.08013 0.22237 0.47747
 C255 C 0.05317 0.24202 0.47828
 C256 C 0.02930 0.23493 0.50058
 C257 C 0.03538 0.20959 0.52368
 N258 N 0.06189 0.19105 0.52255
 C259 C 0.11145 0.17366 0.49942
 N260 N 0.12137 0.15947 0.52728
 C261 C 0.14499 0.13675 0.52855
 C262 C 0.15971 0.12621 0.50046
 C263 C 0.14997 0.14088 0.47148
 C264 C 0.12604 0.16466 0.47087
 H265 H 0.05162 0.26291 0.46164
 H266 H 0.01857 0.20414 0.54231
 H267 H 0.15199 0.12674 0.55153
 H268 H 0.15998 0.13312 0.44909
 H269 H 0.09794 0.22809 0.45993
 H270 H 0.11820 0.17470 0.44818
 C271 C 0.67893 0.57618 -0.00732
 C272 C 0.68282 0.55352 -0.03213
 C273 C 0.70705 0.53033 -0.03084
 C274 C 0.72817 0.52968 -0.00523
 C275 C 0.72312 0.55295 0.01926
 N276 N 0.69922 0.57534 0.01742
 C277 C 0.65304 0.60060 -0.00714
 N278 N 0.65698 0.63058 0.00732
 C279 C 0.63395 0.65400 0.00869
 C280 C 0.60471 0.64767 -0.00477
 C281 C 0.60011 0.61665 -0.01939
 C282 C 0.62414 0.59316 -0.02068
 H283 H 0.70933 0.51253 -0.04990
 H284 H 0.73724 0.55290 0.04042
 H285 H 0.63869 0.67764 0.01997
 H286 H 0.57775 0.61018 -0.02929
 H287 H 0.66742 0.55371 -0.05243
 H288 H 0.61980 0.56914 -0.03145
 C289 C 0.91871 -0.18436 0.49565
 C290 C 0.91597 -0.21886 0.50247
 C291 C 0.94273 -0.23893 0.50335
 C292 C 0.97251 -0.22482 0.49850
 C293 C 0.97355 -0.19052 0.48937
 N294 N 0.94729 -0.17156 0.48890
 C295 C 0.89199 -0.16083 0.49664
 N296 N 0.89792 -0.12784 0.50194
 C297 C 0.87509 -0.10428 0.50325
 C298 C 0.84391 -0.11330 0.49875
 C299 C 0.83716 -0.14710 0.49279
 C300 C 0.86109 -0.17098 0.49185
 H301 H 0.94031 -0.26548 0.50882
 H302 H 0.99500 -0.17836 0.48241
 H303 H 0.88140 -0.07842 0.50730
 H304 H 0.81339 -0.15505 0.48913
 H305 H 0.89370 -0.23018 0.50799
 H306 H 0.85540 -0.19680 0.48687
 C307 C 0.31986 0.41624 0.99851
 C308 C 0.31312 0.43697 0.97211
 C309 C 0.28971 0.46102 0.97433
 C310 C 0.27215 0.46448 1.00251
 C311 C 0.28071 0.44401 1.02883
 N312 N 0.30381 0.42079 1.02610
 C313 C 0.34510 0.39084 0.99773
 N314 N 0.35841 0.38055 1.02561
 C315 C 0.38221 0.35798 1.02672
 C316 C 0.39416 0.34447 0.99853
 C317 C 0.38033 0.35416 0.96961
 C318 C 0.35578 0.37710 0.96909
 H319 H 0.28528 0.47729 0.95391
 H320 H 0.26989 0.44689 1.05186
 H321 H 0.39222 0.35124 1.04954
 H322 H 0.38830 0.34370 0.94739
 H323 H 0.32627 0.43555 0.95019
 H324 H 0.34521 0.38353 0.94649
 C325 C 0.91639 0.19110 0.49769
 C326 C 0.91320 0.22525 0.50493
 C327 C 0.93964 0.24549 0.50628
 C328 C 0.96963 0.23205 0.50129
 C329 C 0.97130 0.19819 0.49202
 N330 N 0.94526 0.17903 0.49094
 C331 C 0.88979 0.16732 0.49676
 N332 N 0.89546 0.13557 0.48665
 C333 C 0.87308 0.11161 0.48568
 C334 C 0.84256 0.11882 0.49548
 C335 C 0.83603 0.15137 0.50600
 C336 C 0.85947 0.17563 0.50673
 H337 H 0.93676 0.27179 0.51176
 H338 H 0.99302 0.18667 0.48519
 H339 H 0.87943 0.08674 0.47793
 H340 H 0.81276 0.15815 0.51355
 H341 H 0.89082 0.23665 0.50936
 H342 H 0.85360 0.20021 0.51542
 C343 C 0.31153 0.57798 0.00181
 C344 C 0.29199 0.57313 -0.02427
 C345 C 0.27094 0.54649 -0.02367
 C346 C 0.26825 0.52522 0.00346
 C347 C 0.28866 0.53119 0.02894
 N348 N 0.30947 0.55675 0.02740
 C349 C 0.33601 0.60385 0.00126
 N350 N 0.36358 0.59683 0.01566
 C351 C 0.38743 0.61911 0.01591
 C352 C 0.38419 0.65103 0.00138
 C353 C 0.35568 0.65887 -0.01332
 C354 C 0.33165 0.63532 -0.01360
 H355 H 0.25787 0.54207 -0.04507
 H356 H 0.28848 0.51490 0.04983
 H357 H 0.40902 0.61148 0.02702
 H358 H 0.35170 0.68333 -0.02421
 H359 H 0.29399 0.58871 -0.04556
 H360 H 0.30976 0.64190 -0.02475
 C361 C 0.08512 -0.18455 0.49732
 C362 C 0.08247 -0.21045 0.47531
 C363 C 0.05638 -0.23131 0.47620
 C364 C 0.03216 -0.22588 0.49833
 C365 C 0.03719 -0.20108 0.52135
 N366 N 0.06279 -0.18121 0.52003
 C367 C 0.11135 -0.16055 0.49668
 N368 N 0.11930 -0.14503 0.52408
 C369 C 0.14184 -0.12119 0.52504
 C370 C 0.15736 -0.11102 0.49706
 C371 C 0.14962 -0.12671 0.46854
 C372 C 0.12676 -0.15154 0.46825
 H373 H 0.05582 -0.25182 0.45978
 H374 H 0.02016 -0.19696 0.53995
 H375 H 0.14688 -0.10943 0.54746
 H376 H 0.16114 -0.11961 0.44646
 H377 H 0.10057 -0.21502 0.45792
 H378 H 0.12056 -0.16260 0.44582
 C379 C 0.68789 0.41798 1.00541
 C380 C 0.69174 0.44011 1.03059
 C381 C 0.71372 0.46559 1.02800
 C382 C 0.73266 0.46915 1.00064
 C383 C 0.72824 0.44576 0.97616
 N384 N 0.70642 0.42120 0.97923
 C385 C 0.66296 0.39253 1.00598
 N386 N 0.66750 0.36268 0.99135
 C387 C 0.64499 0.33874 0.99037
 C388 C 0.61563 0.34445 1.00426
 C389 C 0.61048 0.37539 1.01897
 C390 C 0.63401 0.39930 1.02002
 H391 H 0.71546 0.48333 1.04715
 H392 H 0.74069 0.44775 0.95387
 H393 H 0.65019 0.31523 0.97896
 H394 H 0.58803 0.38157 1.02908
 H395 H 0.67761 0.43810 1.05192
 H396 H 0.62920 0.42323 1.03086
 C397 C 0.49410 0.06927 1.18326
 C398 C 0.47582 0.04038 1.18145
 C399 C 0.47700 0.01632 1.20578
 C400 C 0.49688 0.01997 1.23215
 C401 C 0.51193 0.05143 1.23453
 N402 N 0.51071 0.07446 1.21021
 C403 C 0.49536 0.09434 1.15678
 N404 N 0.50422 0.12643 1.16278
 C405 C 0.50612 0.15049 1.13943
 C406 C 0.49884 0.14278 1.10783
 C407 C 0.49017 0.10977 1.10108
 C408 C 0.48857 0.08553 1.12532
 H409 H 0.46195 -0.00498 1.20347
 H410 H 0.52471 0.05798 1.25558
 H411 H 0.51289 0.17569 1.14564
 H412 H 0.48519 0.10251 1.07692
 H413 H 0.46037 0.03629 1.16167
 H414 H 0.48275 0.06008 1.11912
 C415 C 0.01185 0.69469 0.58880
 C416 C 0.03355 0.69130 0.56409
 C417 C 0.03045 0.71081 0.53650
 C418 C 0.00543 0.73352 0.53269
 C419 C -0.01448 0.73775 0.55916
 N420 N -0.01123 0.71798 0.58571
 C421 C 0.01208 0.67170 0.61685
 N422 N -0.01546 0.66319 0.63091
 C423 C -0.01737 0.63986 0.65487
 C424 C 0.00953 0.62332 0.66587
 C425 C 0.03829 0.63273 0.65259
 C426 C 0.03968 0.65690 0.62819
 H427 H 0.04697 0.70721 0.51732
 H428 H -0.03274 0.75638 0.55903
 H429 H -0.03994 0.63385 0.66494
 H430 H 0.05961 0.62060 0.66029
 H431 H 0.05196 0.67275 0.56528
 H432 H 0.06209 0.66355 0.61812
 C433 C 0.49195 0.92208 -0.18708
 C434 C 0.46687 0.92749 -0.20785
 C435 C 0.46889 0.95229 -0.23160
 C436 C 0.49634 0.97124 -0.23597
 C437 C 0.52066 0.96520 -0.21415
 N438 N 0.51798 0.94112 -0.19099
 C439 C 0.49117 0.89663 -0.16082
 N440 N 0.51840 0.88798 -0.14635
 C441 C 0.51986 0.86527 -0.12186
 C442 C 0.49268 0.84974 -0.11027
 C443 C 0.46431 0.85839 -0.12467
 C444 C 0.46339 0.88182 -0.14973
 H445 H 0.44841 0.95691 -0.24582
 H446 H 0.54178 0.97990 -0.21547
 H447 H 0.54221 0.85985 -0.11116
 H448 H 0.44278 0.84687 -0.11672
 H449 H 0.44570 0.91302 -0.20605
 H450 H 0.44101 0.88834 -0.15967
 C451 C 0.98464 0.32518 0.42281
 C452 C 0.98142 0.33663 0.45401
 C453 C 0.98532 0.31441 0.47957
 C454 C 0.99396 0.28064 0.47475
 C455 C 0.99505 0.26987 0.44293
 N456 N 0.99112 0.29212 0.41826
 C457 C 0.98235 0.34844 0.39491
 N458 N 0.99660 0.34012 0.36710
 C459 C 0.99713 0.36121 0.34123
 C460 C 0.98299 0.39306 0.34252
 C461 C 0.96744 0.40164 0.37070
 C462 C 0.96675 0.37941 0.39664
 H463 H 0.98122 0.32414 0.50304
 H464 H 0.99974 0.24381 0.43776
 H465 H 1.00881 0.35313 0.31982
 H466 H 0.95644 0.42593 0.37316
 H467 H 0.97650 0.36263 0.45905
 H468 H 0.95419 0.38678 0.41774
 C469 C 0.50531 0.90203 0.19888
 C470 C 0.53281 0.91633 0.21006
 C471 C 0.53133 0.94352 0.23052
 C472 C 0.50251 0.95733 0.24017
 C473 C 0.47559 0.94032 0.22963
 N474 N 0.47770 0.91425 0.20940
 C475 C 0.50489 0.87648 0.17365
 N476 N 0.47785 0.87189 0.15757
 C477 C 0.47560 0.85086 0.13261
 C478 C 0.50183 0.83318 0.12205
 C479 C 0.52980 0.83676 0.13872
 C480 C 0.53141 0.85816 0.16462
 H481 H 0.55330 0.95346 0.23763
 H482 H 0.45251 0.94896 0.23576
 H483 H 0.45358 0.84894 0.12040
 H484 H 0.55040 0.82296 0.13175
 H485 H 0.55544 0.90792 0.20219
 H486 H 0.55323 0.86013 0.17710
 C487 C 0.00651 0.31167 0.59020
 C488 C -0.01530 0.28554 0.58913
 C489 C -0.01755 0.26627 0.56178
 C490 C 0.00126 0.27348 0.53490
 C491 C 0.02460 0.29796 0.53840
 N492 N 0.02602 0.31665 0.56502
 C493 C 0.00759 0.33571 0.61662
 N494 N 0.01919 0.36694 0.61046
 C495 C 0.01996 0.39119 0.63273
 C496 C 0.00848 0.38476 0.66357
 C497 C -0.00305 0.35248 0.67069
 C498 C -0.00352 0.32791 0.64736
 H499 H -0.03426 0.24607 0.56193
 H500 H 0.04070 0.30341 0.51911
 H501 H 0.02876 0.41573 0.62595
 H502 H -0.01152 0.34614 0.69434
 H503 H -0.03126 0.28061 0.60861
 H504 H -0.01221 0.30317 0.65354
 C505 C 0.49528 0.08328 0.80679
 C506 C 0.46861 0.06418 0.80077
 C507 C 0.46989 0.03879 0.77843
 C508 C 0.49742 0.03219 0.76124
 C509 C 0.52380 0.05155 0.76868
 N510 N 0.52198 0.07609 0.79073
 C511 C 0.49600 0.10940 0.83161
 N512 N 0.52411 0.12011 0.84228
 C513 C 0.52689 0.14291 0.86582
 C514 C 0.50026 0.15634 0.88042
 C515 C 0.47105 0.14617 0.86934
 C516 C 0.46880 0.12307 0.84490
 H517 H 0.44936 0.02360 0.77498
 H518 H 0.54626 0.04652 0.75818
 H519 H 0.54992 0.15048 0.87305
 H520 H 0.44980 0.15550 0.87996
 H521 H 0.44717 0.06760 0.81382
 H522 H 0.44590 0.11626 0.83679
 C523 C 0.99472 0.68301 0.42190
 C524 C 0.98945 0.67138 0.45310
 C525 C 0.99106 0.69359 0.47817
 C526 C 0.99865 0.72771 0.47278
 C527 C 1.00012 0.73886 0.44071
 N528 N 0.99889 0.71653 0.41653
 C529 C 0.99605 0.65943 0.39501
 N530 N 0.98871 0.67036 0.36505
 C531 C 0.98967 0.64966 0.33956
 C532 C 0.99878 0.61589 0.34346
 C533 C 1.00678 0.60438 0.37409
 C534 C 1.00562 0.62596 0.39973
 H535 H 0.98612 0.68361 0.50174
 H536 H 1.00351 0.76522 0.43502
 H537 H 0.98364 0.65966 0.31628
 H538 H 1.01361 0.57850 0.37836
 H539 H 0.98387 0.64536 0.45827
 H540 H 1.01263 0.61646 0.42289
 C541 C 1.18343 0.48859 0.08463
 C542 C 1.18925 0.45982 0.06673
 C543 C 1.21072 0.46131 0.04176
 C544 C 1.22730 0.49105 0.03469
 C545 C 1.22016 0.51943 0.05307
 N546 N 1.19886 0.51743 0.07701
 C547 C 1.15923 0.48948 0.10985
 N548 N 1.14655 0.51967 0.11749
 C549 C 1.12343 0.52268 0.13943
 C550 C 1.11145 0.49407 0.15514
 C551 C 1.12470 0.46274 0.14823
 C552 C 1.14860 0.46033 0.12575
 H553 H 1.21401 0.43927 0.02737
 H554 H 1.23035 0.54367 0.04781
 H555 H 1.11384 0.54733 0.14381
 H556 H 1.11668 0.44011 0.16030
 H557 H 1.17653 0.43676 0.07087
 H558 H 1.15862 0.43594 0.12121
 C559 C 0.57974 -0.00297 0.67694
 C560 C 0.57240 -0.03117 0.69599
 C561 C 0.54692 -0.03009 0.71661
 C562 C 0.52896 -0.00055 0.71946
 C563 C 0.53705 0.02691 0.69943
 N564 N 0.56190 0.02515 0.67937
 C565 C 0.60599 -0.00299 0.65387
 N566 N 0.61851 0.02689 0.64417
 C567 C 0.64197 0.02899 0.62238
 C568 C 0.65414 -0.00020 0.60865
 C569 C 0.64151 -0.03126 0.61826
 C570 C 0.61751 -0.03278 0.64071
 H571 H 0.54107 -0.05290 0.72957
 H572 H 0.52335 0.04975 0.69964
 H573 H 0.65112 0.05348 0.61589
 H574 H 0.64953 -0.05437 0.60775
 H575 H 0.58604 -0.05399 0.69512
 H576 H 0.60760 -0.05700 0.64677
 C577 C -0.18166 0.50221 0.91744
 C578 C -0.20247 0.52908 0.92061
 C579 C -0.22419 0.52864 0.94526
 C580 C -0.22625 0.50092 0.96660
 C581 C -0.20473 0.47452 0.96235
 N582 N -0.18357 0.47569 0.93820
 C583 C -0.15708 0.50251 0.89271
 N584 N -0.14623 0.47285 0.88141
 C585 C -0.12311 0.47138 0.85926
 C586 C -0.10922 0.50102 0.84740
 C587 C -0.11994 0.53181 0.85901
 C588 C -0.14376 0.53268 0.88156
 H589 H -0.23847 0.55078 0.94793
 H590 H -0.20445 0.45321 0.97870
 H591 H -0.11575 0.44708 0.85087
 H592 H -0.10936 0.55525 0.85133
 H593 H -0.20191 0.55051 0.90441
 H594 H -0.15090 0.55671 0.89078
 C595 C 0.41712 -0.00830 0.31925
 C596 C 0.43517 -0.03753 0.31666
 C597 C 0.46105 -0.03754 0.29666
 C598 C 0.46942 -0.00863 0.27866
 C599 C 0.45085 0.02033 0.28262
 N600 N 0.42573 0.01967 0.30240
 C601 C 0.39021 -0.00628 0.34135
 N602 N 0.38041 0.02449 0.35096
 C603 C 0.35686 0.02840 0.37231
 C604 C 0.34172 0.00020 0.38559
 C605 C 0.35091 -0.03171 0.37534
 C606 C 0.37485 -0.03505 0.35314
 H607 H 0.47529 -0.05999 0.29600
 H608 H 0.45643 0.04378 0.27062
 H609 H 0.35015 0.05353 0.37897
 H610 H 0.34017 -0.05424 0.38504
 H611 H 0.43031 -0.05993 0.33069
 H612 H 0.38107 -0.05998 0.34554
 C613 C 0.17760 0.49033 0.93016
 C614 C 0.19672 0.46221 0.93532
 C615 C 0.21939 0.46288 0.95887
 C616 C 0.22416 0.49198 0.97689
 C617 C 0.20349 0.51908 0.97158
 N618 N 0.18155 0.51781 0.94846
 C619 C 0.15344 0.49109 0.90519
 N620 N 0.14440 0.52126 0.89252
 C621 C 0.12246 0.52393 0.86939
 C622 C 0.10812 0.49504 0.85766
 C623 C 0.11676 0.46373 0.87077
 C624 C 0.13927 0.46164 0.89449
 H625 H 0.23269 0.44018 0.96306
 H626 H 0.20502 0.54143 0.98578
 H627 H 0.11662 0.54858 0.85991
 H628 H 0.10570 0.44087 0.86310
 H629 H 0.19454 0.43988 0.92123
 H630 H 0.14491 0.43725 0.90466
 C631 C 0.58076 0.00334 0.32019
 C632 C 0.58403 0.00796 0.28719
 C633 C 0.55797 0.00506 0.26766
 C634 C 0.52828 -0.00311 0.28028
 C635 C 0.52634 -0.00596 0.31388
 N636 N 0.55200 -0.00306 0.33224
 C637 C 0.60715 0.00408 0.34288
 N638 N 0.60140 -0.00552 0.37360
 C639 C 0.62377 -0.00634 0.39627
 C640 C 0.65441 0.00289 0.38867
 C641 C 0.66099 0.01331 0.35725
 C642 C 0.63751 0.01395 0.33429
 H643 H 0.56118 0.00881 0.24227
 H644 H 0.50481 -0.01064 0.32628
 H645 H 0.61741 -0.01383 0.42031
 H646 H 0.68436 0.02055 0.35033
 H647 H 0.60627 0.01317 0.27615
 H648 H 0.64337 0.02221 0.31040
 C649 C 0.82205 0.51263 0.07094
 C650 C 0.81684 0.53870 0.04878
 C651 C 0.79410 0.53497 0.02556
 C652 C 0.77592 0.50556 0.02435
 C653 C 0.78262 0.47980 0.04687
 N654 N 0.80481 0.48416 0.06933
 C655 C 0.84611 0.51491 0.09578
 N656 N 0.84153 0.49856 0.12411
 C657 C 0.86313 0.49839 0.14762
 C658 C 0.89176 0.51486 0.14311
 C659 C 0.89690 0.53188 0.11397
 C660 C 0.87415 0.53209 0.09038
 H661 H 0.79064 0.55515 0.00832
 H662 H 0.77111 0.45577 0.04638
 H663 H 0.85780 0.48539 0.16980
 H664 H 0.91881 0.54424 0.10895
 H665 H 0.82997 0.56183 0.04944
 H666 H 0.87896 0.54457 0.06780
 C667 C 0.42461 -0.00199 0.66952
 C668 C 0.44395 -0.03000 0.67453
 C669 C 0.46785 -0.02846 0.69673
 C670 C 0.47243 0.00054 0.71488
 C671 C 0.45389 0.02885 0.70720
 N672 N 0.43071 0.02672 0.68541
 C673 C 0.39827 -0.00244 0.64687
 N674 N 0.38758 0.02718 0.63438
 C675 C 0.36355 0.02878 0.61345
 C676 C 0.34867 -0.00072 0.60383
 C677 C 0.35891 -0.03146 0.61693
 C678 C 0.38353 -0.03244 0.63844
 H679 H 0.48255 -0.05032 0.70032
 H680 H 0.45772 0.05281 0.71814
 H681 H 0.35660 0.05302 0.60381
 H682 H 0.34767 -0.05476 0.61079
 H683 H 0.44108 -0.05279 0.66125
 H684 H 0.39044 -0.05643 0.64864
   
