data_POSCAR
  _audit_creation_date              2014-09-24
  _audit_creation_method            'ToBaCCo'
  _symmetry_space_group_name_H-M    'P1'
  _symmetry_Int_Tables_number       1
  _symmetry_cell_setting            triclinic
  loop_
  _symmetry_equiv_pos_as_xyz
 x,y,z
_cell_length_a 25.7573
_cell_length_b 24.6731
_cell_length_c 29.8627
_cell_angle_alpha 87.560400
_cell_angle_beta 85.334000
_cell_angle_gamma 97.730400
loop_
  _atom_site_label
  _atom_site_type_symbol
  _atom_site_fract_x
  _atom_site_fract_y
  _atom_site_fract_z
C1 C 0.29857 0.31367 0.19735
 C2 C 0.34136 0.30659 0.16665
 C3 C 0.37376 0.26667 0.17591
 C4 C 0.36236 0.23294 0.21573
 C5 C 0.31930 0.23850 0.24608
 C6 C 0.28739 0.27910 0.23696
 C7 C 0.26668 0.35457 0.18931
 C8 C 0.22402 0.36107 0.22043
 C9 C 0.21311 0.32586 0.25916
 C10 C 0.24398 0.28481 0.26741
 C11 C 0.23143 0.24887 0.30548
 C12 C 0.26239 0.20772 0.31426
 C13 C 0.30709 0.20353 0.28509
 H14 H 0.35008 0.33268 0.13609
 H15 H 0.38646 0.20136 0.22274
 H16 H 0.27544 0.38139 0.15922
 H17 H 0.17986 0.32988 0.28291
 H18 H 0.19741 0.25290 0.32837
 H19 H 0.33116 0.17181 0.29191
 C20 C 0.70134 -0.39631 0.27708
 C21 C 0.69362 -0.39725 0.23115
 C22 C 0.65718 -0.36687 0.21284
 C23 C 0.62670 -0.33750 0.24182
 C24 C 0.63281 -0.33782 0.28807
 C25 C 0.67092 -0.36665 0.30574
 C26 C 0.74071 -0.42286 0.29418
 C27 C 0.75088 -0.42028 0.33973
 C28 C 0.71924 -0.39174 0.36862
 C29 C 0.67980 -0.36433 0.35174
 C30 C 0.65065 -0.33259 0.37951
 C31 C 0.61217 -0.30446 0.36204
 C32 C 0.60285 -0.30791 0.31655
 H33 H 0.71810 -0.41956 0.20964
 H34 H 0.59802 -0.31424 0.22847
 H35 H 0.76427 -0.44481 0.27142
 H36 H 0.72627 -0.38874 0.40372
 H37 H 0.65832 -0.32896 0.41451
 H38 H 0.57419 -0.28489 0.30287
 C39 C 0.73953 0.28051 0.70175
 C40 C 0.70823 0.26347 0.74237
 C41 C 0.66925 0.21697 0.74434
 C42 C 0.66007 0.18983 0.70450
 C43 C 0.68874 0.20768 0.66370
 C44 C 0.72876 0.25279 0.66228
 C45 C 0.78243 0.32330 0.69996
 C46 C 0.81412 0.33882 0.65920
 C47 C 0.79992 0.31247 0.61998
 C48 C 0.75851 0.26953 0.62134
 C49 C 0.74777 0.24196 0.58220
 C50 C 0.70808 0.19661 0.58339
 C51 C 0.67857 0.18001 0.62442
 H52 H 0.71614 0.28444 0.77277
 H53 H 0.62925 0.15533 0.70456
 H54 H 0.79185 0.34337 0.73044
 H55 H 0.82144 0.32389 0.58773
 H56 H 0.77173 0.25517 0.55124
 H57 H 0.64806 0.14495 0.62596
 C58 C 0.30712 -0.21527 0.82968
 C59 C 0.34058 -0.20617 0.86436
 C60 C 0.38649 -0.16812 0.85752
 C61 C 0.39950 -0.13982 0.81555
 C62 C 0.36760 -0.15016 0.78012
 C63 C 0.32108 -0.18791 0.78712
 C64 C 0.25996 -0.25122 0.83707
 C65 C 0.22676 -0.26189 0.80217
 C66 C 0.24225 -0.23597 0.75916
 C67 C 0.28865 -0.19821 0.75159
 C68 C 0.30318 -0.17027 0.70929
 C69 C 0.34999 -0.13313 0.70210
 C70 C 0.38170 -0.12329 0.73785
 H71 H 0.33054 -0.22789 0.89690
 H72 H 0.43525 -0.11075 0.81019
 H73 H 0.25022 -0.27187 0.86997
 H74 H 0.21736 -0.24374 0.73188
 H75 H 0.27845 -0.17773 0.68190
 H76 H 0.41716 -0.09385 0.73311
 C77 C 0.79351 -0.22622 0.76764
 C78 C 0.78336 -0.22277 0.81426
 C79 C 0.73952 -0.19983 0.83133
 C80 C 0.70615 -0.17956 0.80204
 C81 C 0.71676 -0.18112 0.75550
 C82 C 0.76061 -0.20453 0.73803
 C83 C 0.83502 -0.25245 0.75035
 C84 C 0.84522 -0.25663 0.70365
 C85 C 0.81368 -0.23234 0.67412
 C86 C 0.77092 -0.20709 0.69110
 C87 C 0.73728 -0.18580 0.66210
 C88 C 0.69311 -0.16306 0.67962
 C89 C 0.68352 -0.16051 0.72635
 H90 H 0.80816 -0.23976 0.83730
 H91 H 0.67183 -0.16257 0.81564
 H92 H 0.85929 -0.26998 0.77360
 H93 H 0.82044 -0.23512 0.63810
 H94 H 0.74472 -0.18806 0.62602
 H95 H 0.65040 -0.14202 0.74030
 C96 C 0.25009 0.27962 0.80459
 C97 C 0.28303 0.26181 0.83584
 C98 C 0.31100 0.21792 0.82662
 C99 C 0.30795 0.19335 0.78522
 C100 C 0.27678 0.21187 0.75309
 C101 C 0.24718 0.25472 0.76297
 C102 C 0.21845 0.32034 0.81487
 C103 C 0.18402 0.33640 0.78408
 C104 C 0.18271 0.31271 0.74225
 C105 C 0.21356 0.27160 0.73169
 C106 C 0.20963 0.24548 0.69111
 C107 C 0.23888 0.20270 0.68129
 C108 C 0.27313 0.18678 0.71197
 H109 H 0.28520 0.28033 0.86804
 H110 H 0.32963 0.15945 0.77823
 H111 H 0.22013 0.33897 0.84702
 H112 H 0.15593 0.32465 0.71863
 H113 H 0.18314 0.25786 0.66742
 H114 H 0.29503 0.15312 0.70473
 C115 C 0.26659 -0.28246 0.24924
 C116 C 0.29661 -0.30417 0.21540
 C117 C 0.34886 -0.28110 0.20282
 C118 C 0.37171 -0.23707 0.22674
 C119 C 0.34246 -0.21656 0.26255
 C120 C 0.28923 -0.23879 0.27308
 C121 C 0.21381 -0.30399 0.25911
 C122 C 0.18232 -0.28255 0.29266
 C123 C 0.20508 -0.23882 0.31669
 C124 C 0.25846 -0.21750 0.30744
 C125 C 0.28164 -0.17570 0.33246
 C126 C 0.33513 -0.15445 0.32367
 C127 C 0.36523 -0.17438 0.28801
 H128 H 0.27770 -0.33746 0.19755
 H129 H 0.41227 -0.21917 0.21791
 H130 H 0.19733 -0.33786 0.24031
 H131 H 0.18209 -0.22178 0.34313
 H132 H 0.25788 -0.16007 0.35930
 H133 H 0.40627 -0.15795 0.28043
 C134 C 0.78276 0.22747 0.18184
 C135 C 0.76817 0.24769 0.14077
 C136 C 0.72265 0.22295 0.12263
 C137 C 0.69158 0.17775 0.14624
 C138 C 0.70538 0.15736 0.18747
 C139 C 0.75182 0.18158 0.20481
 C140 C 0.82664 0.25369 0.20123
 C141 C 0.84091 0.23381 0.24276
 C142 C 0.81144 0.18602 0.26390
 C143 C 0.76639 0.16099 0.24590
 C144 C 0.73396 0.11772 0.27006
 C145 C 0.68591 0.09581 0.25468
 C146 C 0.67242 0.11475 0.21265
 H147 H 0.79219 0.28281 0.12326
 H148 H 0.65576 0.15920 0.13307
 H149 H 0.84922 0.29006 0.18418
 H150 H 0.82075 0.17004 0.29610
 H151 H 0.74472 0.10336 0.30241
 H152 H 0.63588 0.09747 0.20003
 O153 O 0.31705 0.09592 0.45402
 O154 O 0.36865 0.01451 0.54205
 O155 O 0.37041 0.01480 0.45462
 O156 O 0.31458 0.09750 0.54188
 O157 O 0.23985 0.04104 0.54637
 O158 O 0.29655 -0.04311 0.46234
 O159 O 0.29376 -0.04162 0.55115
 O160 O 0.24309 0.03806 0.46094
 Cu161 Cu 0.35021 0.06136 0.49788
 Cu162 Cu 0.26115 -0.00780 0.50622
 C163 C 0.27131 0.08055 0.44234
 C164 C 0.34012 -0.02701 0.56177
 C165 C 0.34218 -0.02759 0.44299
 C166 C 0.26711 0.08404 0.55785
 O167 O 0.60670 0.02581 0.49487
 O168 O 0.56115 -0.11264 0.45721
 O169 O 0.58480 -0.07234 0.53366
 O170 O 0.58038 -0.01533 0.41847
 O171 O 0.66295 -0.02845 0.40261
 O172 O 0.66783 -0.08387 0.51819
 O173 O 0.64402 -0.12531 0.44260
 O174 O 0.68887 0.01288 0.47664
 Cu175 Cu 0.57488 -0.04226 0.47785
 Cu176 Cu 0.67415 -0.05762 0.45860
 C177 C 0.65578 0.04291 0.49143
 C178 C 0.59525 -0.14216 0.44311
 C179 C 0.62696 -0.08770 0.54552
 C180 C 0.62098 -0.01245 0.39090
 O181 O 0.49583 0.27855 0.00970
 O182 O 0.56910 0.25360 -0.09885
 O183 O 0.46914 0.25166 -0.07161
 O184 O 0.59411 0.28032 -0.01879
 O185 O 0.58836 0.19259 0.00237
 O186 O 0.46368 0.16460 -0.04883
 O187 O 0.56152 0.16609 -0.07688
 O188 O 0.49248 0.19102 0.03055
 Cu189 Cu 0.53216 0.27485 -0.04717
 Cu190 Cu 0.52568 0.16978 -0.02137
 C191 C 0.48419 0.23911 0.03925
 C192 C 0.57715 0.20488 -0.10616
 C193 C 0.44567 0.20283 -0.06975
 C194 C 0.61169 0.24131 0.00160
 O195 O 0.58367 0.67131 0.03896
 O196 O 0.50157 0.74545 -0.03041
 O197 O 0.60051 0.73278 -0.03531
 O198 O 0.48689 0.68808 0.04554
 O199 O 0.50385 0.76451 0.08100
 O200 O 0.62407 0.80301 0.00565
 O201 O 0.52551 0.82114 0.00401
 O202 O 0.59762 0.74354 0.08001
 Cu203 Cu 0.54131 0.70209 0.00061
 Cu204 Cu 0.56488 0.79113 0.04601
 C205 C 0.60248 0.69414 0.07253
 C206 C 0.50018 0.79604 -0.02551
 C207 C 0.63230 0.77464 -0.02795
 C208 C 0.47627 0.71863 0.07720
 O209 O 0.07032 0.45629 0.29229
 O210 O -0.05296 0.48865 0.35093
 O211 O -0.02016 0.40108 0.31921
 O212 O 0.03952 0.54196 0.32958
 O213 O 0.01424 0.56609 0.26343
 O214 O -0.04691 0.42343 0.25329
 O215 O -0.07905 0.51131 0.28482
 O216 O 0.04383 0.48068 0.22676
 Cu217 Cu 0.01193 0.46962 0.32954
 Cu218 Cu -0.01987 0.49774 0.25050
 C219 C 0.07784 0.46274 0.24962
 C220 C -0.08682 0.50611 0.32737
 C221 C -0.04359 0.38804 0.28476
 C222 C 0.03713 0.57785 0.29856
 O223 O 0.08691 0.59999 0.73453
 O224 O -0.00089 0.49685 0.68143
 O225 O 0.00879 0.60230 0.68430
 O226 O 0.07879 0.49399 0.73024
 O227 O 0.02265 0.48351 0.79098
 O228 O -0.04591 0.59253 0.74595
 O229 O -0.05785 0.48544 0.74151
 O230 O 0.03193 0.58802 0.79601
 Cu231 Cu 0.04885 0.54907 0.70149
 Cu232 Cu -0.01813 0.53622 0.77461
 C233 C 0.07470 0.61083 0.77486
 C234 C -0.04429 0.47420 0.70146
 C235 C -0.03049 0.61580 0.70753
 C236 C 0.06324 0.47123 0.76884
 C237 C 0.41992 0.25967 0.14468
 C238 C 0.46503 0.24260 0.15900
 C239 C 0.49514 0.23512 0.12097
 C240 C 0.46690 0.24881 0.08600
 O241 O 0.42101 0.26390 0.10003
 H242 H 0.47431 0.23510 0.19321
 H243 H 0.53274 0.21993 0.11880
 C244 C 0.65164 0.63605 0.16636
 C245 C 0.67140 0.60281 0.13469
 C246 C 0.65528 0.61988 0.09464
 C247 C 0.62810 0.66278 0.10465
 O248 O 0.62554 0.67245 0.14781
 H249 H 0.69355 0.56916 0.13982
 H250 H 0.66254 0.60323 0.06212
 C251 C 0.64036 0.19635 -0.21484
 C252 C 0.61704 0.14241 -0.20709
 C253 C 0.59266 0.13907 -0.16499
 C254 C 0.60170 0.19104 -0.14975
 O255 O 0.63125 0.22611 -0.17960
 H256 H 0.61851 0.10863 -0.22887
 H257 H 0.56973 0.10313 -0.14773
 C258 C 0.42154 0.84129 -0.10610
 C259 C 0.44398 0.89221 -0.09459
 C260 C 0.47507 0.88217 -0.06115
 C261 C 0.46985 0.82589 -0.05534
 O262 O 0.43720 0.80096 -0.08239
 H263 H 0.43865 0.93177 -0.10918
 H264 H 0.49992 0.91211 -0.04413
 C265 C 0.18874 0.40278 0.21342
 C266 C 0.18420 0.43113 0.17332
 C267 C 0.14272 0.45954 0.18179
 C268 C 0.12543 0.44673 0.22640
 O269 O 0.15322 0.41260 0.24552
 H270 H 0.20649 0.42940 0.14124
 H271 H 0.12594 0.48494 0.15795
 C272 C 0.17908 0.70205 0.80996
 C273 C 0.15397 0.68470 0.85199
 C274 C 0.11020 0.65026 0.84408
 C275 C 0.11170 0.64827 0.79803
 O276 O 0.15307 0.67985 0.77714
 H277 H 0.16523 0.69614 0.88476
 H278 H 0.08142 0.62793 0.86899
 C279 C -0.20591 0.55629 0.35400
 C280 C -0.19118 0.55214 0.39752
 C281 C -0.14518 0.52994 0.39403
 C282 C -0.13511 0.52261 0.34884
 O283 O -0.17178 0.53806 0.32481
 H284 H -0.21059 0.56447 0.42814
 H285 H -0.12089 0.52216 0.42086
 C286 C -0.14004 0.37837 0.65732
 C287 C -0.10589 0.39264 0.61888
 C288 C -0.06663 0.42938 0.63125
 C289 C -0.07855 0.43592 0.67619
 O290 O -0.12315 0.40516 0.69246
 H291 H -0.10762 0.37826 0.58533
 H292 H -0.03299 0.44931 0.60978
 C293 C 0.24655 0.16785 0.35287
 C294 C 0.19499 0.14730 0.36694
 C295 C 0.19756 0.11097 0.40202
 C296 C 0.25040 0.11257 0.40716
 O297 O 0.28038 0.14681 0.37728
 H298 H 0.15976 0.15702 0.35282
 H299 H 0.16489 0.08665 0.42184
 C300 C 0.69932 0.16433 0.54294
 C301 C 0.72520 0.17742 0.50058
 C302 C 0.71018 0.13431 0.47541
 C303 C 0.67560 0.09841 0.50363
 O304 O 0.66885 0.11621 0.54462
 H305 H 0.75314 0.21300 0.48925
 H306 H 0.72400 0.12882 0.44091
 C307 C 0.36570 -0.10321 0.65788
 C308 C 0.41712 -0.08350 0.64240
 C309 C 0.41416 -0.05374 0.60356
 C310 C 0.36131 -0.05758 0.59781
 O311 O 0.33166 -0.08789 0.63050
 H312 H 0.45262 -0.08924 0.65794
 H313 H 0.44658 -0.03097 0.58240
 C314 C 0.58649 -0.26586 0.38956
 C315 C 0.53375 -0.26029 0.39122
 C316 C 0.52885 -0.21459 0.41466
 C317 C 0.57911 -0.19550 0.42487
 O318 O 0.61397 -0.22660 0.40983
 H319 H 0.50313 -0.28513 0.37554
 H320 H 0.49357 -0.19574 0.42117
 C321 C 0.72537 0.79963 -0.12022
 C322 C 0.75771 0.82110 -0.08888
 C323 C 0.72663 0.81567 -0.04915
 C324 C 0.67841 0.79043 -0.05963
 O325 O 0.67749 0.78086 -0.10259
 H326 H 0.79833 0.83977 -0.09460
 H327 H 0.73774 0.82805 -0.01654
 C328 C 0.34155 0.19553 -0.13916
 C329 C 0.33750 0.14049 -0.12708
 C330 C 0.37438 0.13645 -0.09747
 C331 C 0.39854 0.18930 -0.09393
 O332 O 0.37855 0.22545 -0.11910
 H333 H 0.31138 0.10727 -0.13915
 H334 H 0.38405 0.09921 -0.08175
 C335 C 0.37671 0.70023 0.16550
 C336 C 0.36104 0.65323 0.14328
 C337 C 0.39698 0.65361 0.10738
 C338 C 0.43174 0.70051 0.11009
 O339 O 0.42016 0.72854 0.14538
 H340 H 0.32772 0.62188 0.15167
 H341 H 0.39738 0.62373 0.08190
 C342 C 0.70514 0.24489 0.08029
 C343 C 0.72323 0.29558 0.05889
 C344 C 0.69181 0.30056 0.02465
 C345 C 0.65740 0.25249 0.02750
 O346 O 0.66538 0.21886 0.06098
 H347 H 0.75376 0.32650 0.06815
 H348 H 0.69257 0.33571 0.00153
 C349 C -0.11493 0.71316 0.68813
 C350 C -0.09492 0.71051 0.64388
 C351 C -0.05855 0.67503 0.64523
 C352 C -0.05959 0.65807 0.68988
 O353 O -0.09328 0.68121 0.71581
 H354 H -0.10509 0.73165 0.61406
 H355 H -0.03532 0.66183 0.61695
 C356 C -0.11884 0.26389 0.26417
 C357 C -0.09795 0.24661 0.30284
 C358 C -0.06517 0.29057 0.31447
 C359 C -0.06820 0.33141 0.28232
 O360 O -0.10007 0.31539 0.25151
 H361 H -0.10585 0.20732 0.32130
 H362 H -0.04304 0.29313 0.34378
 C363 C 0.14702 0.37552 0.79597
 C364 C 0.12555 0.38157 0.83906
 C365 C 0.09046 0.41768 0.83443
 C366 C 0.09337 0.43138 0.78897
 O367 O 0.12747 0.40577 0.76548
 H368 H 0.13333 0.36095 0.87001
 H369 H 0.06597 0.43266 0.86101
 C370 C 0.13008 0.69260 0.30239
 C371 C 0.09389 0.70655 0.33534
 C372 C 0.05145 0.66679 0.33595
 C373 C 0.06434 0.63264 0.30283
 O374 O 0.11161 0.64792 0.28266
 H375 H 0.09825 0.73961 0.35796
 H376 H 0.01652 0.66163 0.35928
 C377 C 0.65689 -0.14209 0.64923
 C378 C 0.60524 -0.13560 0.66168
 C379 C 0.58692 -0.11466 0.62413
 C380 C 0.62858 -0.10990 0.59158
 O381 O 0.67098 -0.12669 0.60651
 H382 H 0.58318 -0.14529 0.69408
 H383 H 0.54796 -0.10398 0.62086
 C384 C 0.35779 -0.11205 0.35295
 C385 C 0.40794 -0.08300 0.34767
 C386 C 0.40981 -0.04776 0.38184
 C387 C 0.36092 -0.05823 0.40539
 O388 O 0.32958 -0.09692 0.38802
 H389 H 0.43915 -0.08598 0.32177
 H390 H 0.44234 -0.01733 0.38823
 C391 C 0.64908 0.05721 0.28541
 C392 C 0.59501 0.04805 0.28450
 C393 C 0.57658 0.01857 0.32372
 C394 C 0.62075 0.01173 0.34529
 O395 O 0.66446 0.03484 0.32219
 H396 H 0.57153 0.06392 0.25989
 H397 H 0.53590 0.00548 0.33590
 C398 C 0.23036 0.17132 0.64099
 C399 C 0.18193 0.15905 0.62440
 C400 C 0.18963 0.12455 0.59093
 C401 C 0.24225 0.11894 0.58916
 O402 O 0.26721 0.14705 0.61958
 H403 H 0.14496 0.17176 0.63659
 H404 H 0.16034 0.10530 0.57048
   
