data_POSCAR
  _audit_creation_date              2014-09-24
  _audit_creation_method            'ToBaCCo'
  _symmetry_space_group_name_H-M    'P1'
  _symmetry_Int_Tables_number       1
  _symmetry_cell_setting            triclinic
  loop_
  _symmetry_equiv_pos_as_xyz
 x,y,z
_cell_length_a 39.4256
_cell_length_b 39.4228
_cell_length_c 39.4230
_cell_angle_alpha 90.000000
_cell_angle_beta 90.000000
_cell_angle_gamma 90.000000
loop_
  _atom_site_label
  _atom_site_type_symbol
  _atom_site_fract_x
  _atom_site_fract_y
  _atom_site_fract_z
C1 C 0.25001 0.50002 1.00000
 C2 C 0.75000 0.50002 0.00000
 C3 C 0.00001 0.25001 0.50001
 C4 C 1.00001 0.75002 0.50000
 C5 C 0.50001 0.00002 0.25000
 C6 C 0.50001 0.00001 0.75000
 C7 C 0.30182 0.02582 0.45928
 H8 H 0.30261 0.04519 0.47870
 C9 C 0.32490 0.02673 0.43244
 H10 H 0.34349 0.04692 0.43108
 C11 C 0.27735 -0.02481 0.43784
 H12 H 0.25928 -0.04523 0.44042
 C13 C 0.30001 -0.02486 0.41058
 H14 H 0.29914 -0.04517 0.39208
 N15 N 0.27857 0.00040 0.46142
 C16 C 0.19820 0.04074 0.52580
 H17 H 0.19741 0.02132 0.54518
 C18 C 0.17512 0.06758 0.52672
 H19 H 0.15652 0.06894 0.54690
 C20 C 0.22267 0.06218 0.47517
 H21 H 0.24074 0.05960 0.45475
 C22 C 0.20001 0.08944 0.47513
 H23 H 0.20088 0.10793 0.45482
 Zn24 Zn 0.25001 0.00002 0.50000
 N25 N 0.22145 0.03860 0.50038
 C26 C 0.27735 0.02484 0.56216
 N27 N 0.27857 -0.00037 0.53858
 C28 C 0.30182 -0.02579 0.54073
 C29 C 0.32490 -0.02670 0.56757
 C30 C 0.30001 0.02489 0.58943
 C31 C 0.19820 -0.04071 0.47420
 C32 C 0.17512 -0.06755 0.47328
 C33 C 0.20001 -0.08941 0.52487
 C34 C 0.22267 -0.06214 0.52483
 N35 N 0.22145 -0.03856 0.49962
 H36 H 0.25928 0.04527 0.55958
 H37 H 0.30261 -0.04516 0.52130
 H38 H 0.34349 -0.04689 0.56892
 H39 H 0.29914 0.04520 0.60792
 H40 H 0.19741 -0.02129 0.45483
 H41 H 0.15652 -0.06891 0.45310
 H42 H 0.20088 -0.10790 0.54518
 H43 H 0.24074 -0.05957 0.54525
 C44 C 0.17598 0.09209 0.50109
 C45 C 0.32404 0.00111 0.40793
 C46 C 0.17598 -0.09205 0.49891
 C47 C 0.32404 -0.00108 0.59207
 C48 C 0.69820 0.02582 0.54073
 H49 H 0.69741 0.04519 0.52131
 C50 C 0.67512 0.02673 0.56757
 H51 H 0.65652 0.04691 0.56893
 C52 C 0.72267 -0.02482 0.56216
 H53 H 0.74074 -0.04524 0.55958
 C54 C 0.70001 -0.02486 0.58942
 H55 H 0.70088 -0.04517 0.60791
 N56 N 0.72145 0.00040 0.53858
 C57 C 0.80182 0.04074 0.47420
 H58 H 0.80261 0.02132 0.45483
 C59 C 0.82490 0.06758 0.47329
 H60 H 0.84349 0.06894 0.45310
 C61 C 0.77735 0.06217 0.52483
 H62 H 0.75928 0.05959 0.54525
 C63 C 0.80001 0.08944 0.52488
 H64 H 0.79914 0.10793 0.54519
 Zn65 Zn 0.75001 0.00002 0.50000
 N66 N 0.77857 0.03860 0.49962
 C67 C 0.72267 0.02485 0.43784
 N68 N 0.72145 -0.00037 0.46142
 C69 C 0.69820 -0.02578 0.45927
 C70 C 0.67512 -0.02669 0.43243
 C71 C 0.70001 0.02490 0.41058
 C72 C 0.80182 -0.04071 0.52580
 C73 C 0.82490 -0.06755 0.52671
 C74 C 0.80001 -0.08941 0.47512
 C75 C 0.77735 -0.06214 0.47517
 N76 N 0.77857 -0.03856 0.50038
 H77 H 0.74074 0.04527 0.44042
 H78 H 0.69741 -0.04516 0.47869
 H79 H 0.65652 -0.04688 0.43107
 H80 H 0.70088 0.04521 0.39209
 H81 H 0.80261 -0.02129 0.54517
 H82 H 0.84349 -0.06891 0.54690
 H83 H 0.79914 -0.10790 0.45481
 H84 H 0.75928 -0.05956 0.45475
 C85 C 0.82404 0.09209 0.49891
 C86 C 0.67598 0.00110 0.59207
 C87 C 0.82404 -0.09205 0.50109
 C88 C 0.67598 -0.00107 0.40793
 C89 C 0.47413 0.19821 1.04069
 H90 H 0.45479 0.19742 1.02124
 C91 C 0.47318 0.17513 1.06753
 H92 H 0.45300 0.15653 1.06886
 C93 C 0.52472 0.22269 1.06219
 H94 H 0.54514 0.24077 1.05964
 C95 C 0.52473 0.20003 1.08946
 H96 H 0.54501 0.20091 1.10798
 N97 N 0.49955 0.22147 1.03858
 C98 C 0.45935 0.30185 0.97410
 H99 H 0.47883 0.30264 0.95478
 C100 C 0.43251 0.32492 0.97312
 H101 H 0.43121 0.34352 0.95293
 C102 C 0.43778 0.27736 1.02467
 H103 H 0.44030 0.25928 1.04509
 C104 C 0.41051 0.30001 1.02464
 H105 H 0.39196 0.29913 1.04489
 Zn106 Zn 0.50000 0.25003 1.00000
 N107 N 0.46143 0.27859 0.99952
 C108 C 0.47529 0.22269 0.93780
 N109 N 0.50046 0.22147 0.96142
 C110 C 0.52588 0.19821 0.95931
 C111 C 0.52683 0.17513 0.93247
 C112 C 0.47528 0.20003 0.91053
 C113 C 0.54066 0.30185 1.02589
 C114 C 0.56750 0.32492 1.02687
 C115 C 0.58950 0.30001 0.97535
 C116 C 0.56223 0.27736 0.97532
 N117 N 0.53858 0.27859 1.00047
 H118 H 0.45487 0.24076 0.94035
 H119 H 0.54522 0.19742 0.97876
 H120 H 0.54701 0.15652 0.93114
 H121 H 0.45500 0.20091 0.89201
 H122 H 0.52118 0.30264 1.04520
 H123 H 0.56880 0.34352 1.04706
 H124 H 0.60805 0.29913 0.95510
 H125 H 0.55971 0.25928 0.95490
 C126 C 0.40793 0.32405 0.99867
 C127 C 0.49877 0.17600 1.09207
 C128 C 0.59207 0.32405 1.00132
 C129 C 0.50124 0.17599 0.90793
 C130 C 0.47413 0.80182 -0.04069
 H131 H 0.45479 0.80262 -0.02123
 C132 C 0.47318 0.82490 -0.06753
 H133 H 0.45300 0.84351 -0.06885
 C134 C 0.52472 0.77734 -0.06219
 H135 H 0.54514 0.75927 -0.05964
 C136 C 0.52473 0.80000 -0.08946
 H137 H 0.54501 0.79912 -0.10798
 N138 N 0.49955 0.77857 -0.03858
 C139 C 0.45935 0.69819 0.02590
 H140 H 0.47883 0.69739 0.04522
 C141 C 0.43251 0.67511 0.02689
 H142 H 0.43121 0.65651 0.04707
 C143 C 0.43778 0.72267 -0.02467
 H144 H 0.44030 0.74075 -0.04509
 C145 C 0.41051 0.70002 -0.02464
 H146 H 0.39196 0.70090 -0.04489
 Zn147 Zn 0.50000 0.75001 0.00001
 N148 N 0.46143 0.72144 0.00048
 C149 C 0.47529 0.77734 0.06220
 N150 N 0.50046 0.77857 0.03859
 C151 C 0.52588 0.80182 0.04069
 C152 C 0.52683 0.82490 0.06753
 C153 C 0.47528 0.80000 0.08947
 C154 C 0.54066 0.69819 -0.02589
 C155 C 0.56750 0.67511 -0.02687
 C156 C 0.58950 0.70002 0.02465
 C157 C 0.56223 0.72267 0.02468
 N158 N 0.53858 0.72144 -0.00047
 H159 H 0.45487 0.75927 0.05966
 H160 H 0.54522 0.80262 0.02124
 H161 H 0.54701 0.84351 0.06886
 H162 H 0.45500 0.79913 0.10799
 H163 H 0.52118 0.69739 -0.04520
 H164 H 0.56880 0.65651 -0.04706
 H165 H 0.60805 0.70090 0.04490
 H166 H 0.55971 0.74075 0.04510
 C167 C 0.40793 0.67598 0.00133
 C168 C 0.49877 0.82404 -0.09207
 C169 C 0.59207 0.67598 -0.00132
 C170 C 0.50124 0.82404 0.09208
 C171 C 1.04066 0.47412 0.19817
 H172 H 1.02118 0.45480 0.19738
 C173 C 1.06750 0.47313 0.17510
 H174 H 1.06880 0.45295 0.15649
 C175 C 1.06223 0.52468 0.22266
 H176 H 1.05971 0.54511 0.24073
 C177 C 1.08950 0.52465 0.20000
 H178 H 1.10805 0.54491 0.20088
 N179 N 1.03858 0.49954 0.22142
 C180 C 0.97413 0.45932 0.30181
 H181 H 0.95479 0.47877 0.30260
 C182 C 0.97319 0.43248 0.32489
 H183 H 0.95301 0.43116 0.34349
 C184 C 1.02472 0.43781 0.27732
 H185 H 1.04514 0.44036 0.25925
 C186 C 1.02473 0.41055 0.29998
 H187 H 1.04501 0.39203 0.29911
 Zn188 Zn 1.00000 0.50001 0.24999
 N189 N 0.99955 0.46143 0.27855
 C190 C 0.93778 0.47534 0.22266
 N191 N 0.96143 0.50048 0.22143
 C192 C 0.95935 0.52590 0.19817
 C193 C 0.93251 0.52689 0.17510
 C194 C 0.91051 0.47537 0.20000
 C195 C 1.02588 0.54070 0.30180
 C196 C 1.02683 0.56754 0.32488
 C197 C 0.97528 0.58948 0.29998
 C198 C 0.97529 0.56221 0.27732
 N199 N 1.00046 0.53859 0.27855
 H200 H 0.94030 0.45491 0.24073
 H201 H 0.97883 0.54522 0.19738
 H202 H 0.93121 0.54708 0.15649
 H203 H 0.89196 0.45511 0.20088
 H204 H 1.04522 0.52125 0.30260
 H205 H 1.04701 0.56887 0.34349
 H206 H 0.95500 0.60800 0.29911
 H207 H 0.95487 0.55966 0.25925
 C208 C 0.99877 0.40794 0.32402
 C209 C 1.09207 0.49868 0.17597
 C210 C 1.00124 0.59208 0.32402
 C211 C 0.90793 0.50134 0.17597
 C212 C -0.04065 0.47413 0.80183
 H213 H -0.02117 0.45481 0.80263
 C214 C -0.06749 0.47314 0.82490
 H215 H -0.06879 0.45296 0.84351
 C216 C -0.06222 0.52469 0.77734
 H217 H -0.05970 0.54512 0.75927
 C218 C -0.08949 0.52466 0.80000
 H219 H -0.10804 0.54492 0.79912
 N220 N -0.03857 0.49955 0.77858
 C221 C 0.02588 0.45933 0.69820
 H222 H 0.04522 0.47878 0.69740
 C223 C 0.02683 0.43249 0.67512
 H224 H 0.04701 0.43116 0.65651
 C225 C -0.02471 0.43782 0.72268
 H226 H -0.04513 0.44037 0.74075
 C227 C -0.02472 0.41056 0.70002
 H228 H -0.04500 0.39204 0.70090
 Zn229 Zn 0.00000 0.50002 0.75001
 N230 N 0.00046 0.46144 0.72145
 C231 C 0.06223 0.47535 0.77734
 N232 N 0.03858 0.50049 0.77858
 C233 C 0.04066 0.52591 0.80183
 C234 C 0.06750 0.52690 0.82490
 C235 C 0.08950 0.47538 0.80000
 C236 C -0.02587 0.54071 0.69819
 C237 C -0.02681 0.56755 0.67511
 C238 C 0.02473 0.58949 0.70002
 C239 C 0.02472 0.56222 0.72268
 N240 N -0.00045 0.53860 0.72145
 H241 H 0.05971 0.45492 0.75927
 H242 H 0.02118 0.54523 0.80263
 H243 H 0.06880 0.54709 0.84351
 H244 H 0.10805 0.45512 0.79912
 H245 H -0.04521 0.52126 0.69740
 H246 H -0.04699 0.56888 0.65651
 H247 H 0.04501 0.60801 0.70089
 H248 H 0.04514 0.55967 0.74075
 C249 C 0.00124 0.40795 0.67598
 C250 C -0.09207 0.49869 0.82403
 C251 C -0.00123 0.59209 0.67598
 C252 C 0.09207 0.50135 0.82403
 C253 C 0.03021 0.22832 0.49999
 C254 C 0.05431 0.20947 0.50004
 C255 C 0.08165 0.18637 0.50017
 C256 C 0.10429 0.16583 0.50032
 C257 C 0.13001 0.14092 0.50055
 C258 C 0.15131 0.11899 0.50078
 C259 C 0.72831 0.53022 -0.00019
 C260 C 0.70946 0.55432 -0.00034
 C261 C 0.68636 0.58166 -0.00052
 C262 C 0.66582 0.60430 -0.00069
 C263 C 0.64092 0.63002 -0.00089
 C264 C 0.61898 0.65132 -0.00108
 C265 C 0.96981 -0.22829 0.49998
 C266 C 0.94571 -0.20944 0.50003
 C267 C 0.91837 -0.18633 0.50016
 C268 C 0.89573 -0.16580 0.50031
 C269 C 0.87001 -0.14089 0.50054
 C270 C 0.84871 -0.11896 0.50077
 C271 C 0.27170 0.46981 0.99981
 C272 C 0.29055 0.44572 0.99966
 C273 C 0.31365 0.41838 0.99947
 C274 C 0.33419 0.39573 0.99931
 C275 C 0.35909 0.37002 0.99910
 C276 C 0.38102 0.34871 0.99891
 C277 C 0.96981 0.22832 0.50002
 C278 C 0.94571 0.20947 0.49997
 C279 C 0.91837 0.18636 0.49985
 C280 C 0.89573 0.16583 0.49969
 C281 C 0.87001 0.14092 0.49946
 C282 C 0.84871 0.11899 0.49923
 C283 C 0.27170 0.53022 0.00019
 C284 C 0.29055 0.55432 0.00034
 C285 C 0.31365 0.58166 0.00053
 C286 C 0.33419 0.60430 0.00069
 C287 C 0.35909 0.63002 0.00090
 C288 C 0.38102 0.65132 0.00109
 C289 C 0.03021 -0.22829 0.50001
 C290 C 0.05431 -0.20944 0.49996
 C291 C 0.08165 -0.18633 0.49984
 C292 C 0.10429 -0.16580 0.49968
 C293 C 0.13001 -0.14089 0.49946
 C294 C 0.15131 -0.11896 0.49922
 C295 C 0.72831 0.46981 1.00019
 C296 C 0.70946 0.44572 1.00034
 C297 C 0.68636 0.41837 1.00052
 C298 C 0.66582 0.39573 1.00069
 C299 C 0.64092 0.37002 1.00089
 C300 C 0.61898 0.34872 1.00108
 C301 C 0.49997 0.03022 1.22831
 C302 C 0.49988 0.05432 1.20946
 C303 C 0.49972 0.08166 1.18635
 C304 C 0.49954 0.10430 1.16581
 C305 C 0.49930 0.13002 1.14090
 C306 C 0.49907 0.15132 1.11897
 C307 C -0.00003 0.72833 0.53020
 C308 C -0.00012 0.70947 0.55429
 C309 C -0.00028 0.68637 0.58164
 C310 C -0.00046 0.66583 0.60428
 C311 C -0.00070 0.64092 0.62999
 C312 C -0.00093 0.61899 0.65130
 C313 C 0.49997 0.96981 -0.22831
 C314 C 0.49988 0.94571 -0.20945
 C315 C 0.49972 0.91837 -0.18635
 C316 C 0.49954 0.89573 -0.16581
 C317 C 0.49930 0.87002 -0.14090
 C318 C 0.49907 0.84871 -0.11897
 C319 C 0.99997 0.27171 0.46980
 C320 C 0.99988 0.29056 0.44571
 C321 C 0.99972 0.31367 0.41836
 C322 C 0.99954 0.33420 0.39572
 C323 C 0.99930 0.35911 0.37001
 C324 C 0.99907 0.38104 0.34870
 C325 C 0.50005 0.96982 0.22831
 C326 C 0.50014 0.94572 0.20946
 C327 C 0.50030 0.91838 0.18635
 C328 C 0.50047 0.89574 0.16581
 C329 C 0.50071 0.87002 0.14091
 C330 C 0.50095 0.84872 0.11898
 C331 C 0.00005 0.27171 0.53021
 C332 C 0.00014 0.29056 0.55430
 C333 C 0.00030 0.31367 0.58164
 C334 C 0.00047 0.33421 0.60428
 C335 C 0.00071 0.35912 0.63000
 C336 C 0.00095 0.38105 0.65131
 C337 C 0.50005 0.03022 0.77169
 C338 C 0.50014 0.05431 0.79054
 C339 C 0.50030 0.08165 0.81365
 C340 C 0.50047 0.10429 0.83419
 C341 C 0.50072 0.13001 0.85909
 C342 C 0.50095 0.15132 0.88102
 C343 C 1.00005 0.72832 0.46979
 C344 C 1.00014 0.70947 0.44570
 C345 C 1.00030 0.68636 0.41836
 C346 C 1.00047 0.66582 0.39572
 C347 C 1.00071 0.64092 0.37000
 C348 C 1.00095 0.61899 0.34869
 C349 C 1.22831 0.49983 0.03020
 C350 C 1.20946 0.49967 0.05430
 C351 C 1.18636 0.49949 0.08164
 C352 C 1.16582 0.49932 0.10428
 C353 C 1.14092 0.49912 0.13000
 C354 C 1.11898 0.49893 0.15130
 C355 C 0.53021 -0.00000 0.72831
 C356 C 0.55431 0.00005 0.70945
 C357 C 0.58165 0.00017 0.68635
 C358 C 0.60429 0.00032 0.66581
 C359 C 0.63001 0.00055 0.64091
 C360 C 0.65131 0.00079 0.61898
 C361 C -0.22831 0.49983 0.96980
 C362 C -0.20945 0.49968 0.94570
 C363 C -0.18635 0.49949 0.91836
 C364 C -0.16582 0.49933 0.89572
 C365 C -0.14091 0.49913 0.87000
 C366 C -0.11898 0.49894 0.84870
 C367 C 0.46981 0.00001 0.27170
 C368 C 0.44571 0.00006 0.29055
 C369 C 0.41837 0.00018 0.31365
 C370 C 0.39573 0.00033 0.33419
 C371 C 0.37001 0.00056 0.35909
 C372 C 0.34871 0.00079 0.38102
 C373 C 0.22831 0.50021 0.96980
 C374 C 0.20946 0.50036 0.94570
 C375 C 0.18636 0.50055 0.91836
 C376 C 0.16582 0.50071 0.89572
 C377 C 0.14092 0.50092 0.87000
 C378 C 0.11898 0.50111 0.84870
 C379 C 0.53021 0.00003 0.27170
 C380 C 0.55431 -0.00002 0.29055
 C381 C 0.58165 -0.00014 0.31365
 C382 C 0.60429 -0.00029 0.33419
 C383 C 0.63001 -0.00052 0.35909
 C384 C 0.65131 -0.00075 0.38102
 C385 C 0.77169 0.50020 0.03020
 C386 C 0.79055 0.50036 0.05430
 C387 C 0.81365 0.50054 0.08164
 C388 C 0.83418 0.50070 0.10428
 C389 C 0.85909 0.50091 0.13000
 C390 C 0.88102 0.50110 0.15130
 C391 C 0.46981 0.00002 0.72831
 C392 C 0.44571 -0.00003 0.70945
 C393 C 0.41837 -0.00015 0.68635
 C394 C 0.39573 -0.00030 0.66581
 C395 C 0.37001 -0.00053 0.64091
 C396 C 0.34871 -0.00076 0.61898
   
