data_POSCAR
  _audit_creation_date              2014-09-24
  _audit_creation_method            'ToBaCCo'
  _symmetry_space_group_name_H-M    'P1'
  _symmetry_Int_Tables_number       1
  _symmetry_cell_setting            triclinic
  loop_
  _symmetry_equiv_pos_as_xyz
 x,y,z
_cell_length_a 42.2776
_cell_length_b 43.0951
_cell_length_c 42.2315
_cell_angle_alpha 89.911500
_cell_angle_beta 89.966900
_cell_angle_gamma 97.554300
loop_
  _atom_site_label
  _atom_site_type_symbol
  _atom_site_fract_x
  _atom_site_fract_y
  _atom_site_fract_z
C1 C -0.07022 0.32588 -0.02638
 C2 C -0.08640 0.32664 0.00265
 C3 C -0.07121 0.32394 0.03195
 C4 C -0.03768 0.32300 0.03228
 C5 C -0.02064 0.32284 0.00328
 C6 C -0.03669 0.32515 -0.02596
 C7 C -0.01832 0.32932 -0.05380
 C8 C 0.01419 0.32723 -0.05353
 C9 C 0.02996 0.32096 -0.02539
 C10 C 0.01279 0.32094 0.00355
 C11 C -0.02025 0.32465 0.06077
 C12 C 0.01223 0.32246 0.06104
 C13 C 0.02900 0.31945 0.03276
 C14 C 0.06186 0.31631 0.03297
 C15 C 0.07832 0.31587 0.00429
 C16 C 0.06297 0.31730 -0.02509
 H17 H -0.02876 0.33497 -0.07611
 H18 H 0.02697 0.33139 -0.07564
 H19 H -0.03139 0.32831 0.08327
 H20 H 0.02423 0.32381 0.08372
 H21 H -0.11217 0.32546 0.00230
 H22 H 0.10309 0.31178 0.00505
 C23 C 0.45069 0.83044 0.52723
 C24 C 0.43433 0.82960 0.49836
 C25 C 0.45027 0.82930 0.46933
 C26 C 0.48392 0.83058 0.46897
 C27 C 0.50088 0.83101 0.49798
 C28 C 0.48436 0.83169 0.52717
 C29 C 0.50200 0.83402 0.55547
 C30 C 0.53478 0.83307 0.55529
 C31 C 0.55125 0.82976 0.52681
 C32 C 0.53439 0.83007 0.49780
 C33 C 0.50111 0.83187 0.44040
 C34 C 0.53389 0.83098 0.44023
 C35 C 0.55079 0.82874 0.46862
 C36 C 0.58372 0.82554 0.46862
 C37 C 0.59988 0.82484 0.49749
 C38 C 0.58418 0.82650 0.52652
 H39 H 0.49064 0.83664 0.57809
 H40 H 0.54711 0.83501 0.57778
 H41 H 0.48940 0.83362 0.41782
 H42 H 0.54585 0.83211 0.41752
 H43 H 0.40847 0.82743 0.49853
 H44 H 0.62477 0.82112 0.49739
 C45 C 1.06669 0.67607 0.02660
 C46 C 1.08285 0.67499 -0.00221
 C47 C 1.06714 0.67559 -0.03153
 C48 C 1.03340 0.67535 -0.03160
 C49 C 1.01675 0.67700 -0.00257
 C50 C 1.03330 0.67657 0.02658
 C51 C 1.01589 0.67581 0.05499
 C52 C 0.98335 0.67774 0.05489
 C53 C 0.96683 0.68048 0.02637
 C54 C 0.98337 0.67896 -0.00267
 C55 C 1.01541 0.67112 -0.05965
 C56 C 0.98284 0.67304 -0.05975
 C57 C 0.96668 0.67927 -0.03180
 C58 C 0.93377 0.68340 -0.03194
 C59 C 0.91796 0.68464 -0.00272
 C60 C 0.93399 0.68383 0.02619
 H61 H 1.02719 0.67337 0.07767
 H62 H 0.97123 0.67673 0.07750
 H63 H 1.02623 0.66570 -0.08183
 H64 H 0.97036 0.66899 -0.08201
 H65 H 1.10865 0.67642 -0.00156
 H66 H 0.89327 0.68896 -0.00223
 C67 C 0.41419 0.17767 0.47539
 C68 C 0.39833 0.17969 0.50428
 C69 C 0.41421 0.17842 0.53324
 C70 C 0.44686 0.17418 0.53349
 C71 C 0.46337 0.17247 0.50444
 C72 C 0.44685 0.17344 0.47533
 C73 C 0.46335 0.16984 0.44694
 C74 C 0.49594 0.16791 0.44701
 C75 C 0.51334 0.16963 0.47545
 C76 C 0.49667 0.17055 0.50451
 C77 C 0.46336 0.17129 0.56200
 C78 C 0.49594 0.16937 0.56207
 C79 C 0.51333 0.17035 0.53362
 C80 C 0.54689 0.17086 0.53350
 C81 C 0.56303 0.17037 0.50460
 C82 C 0.54692 0.17018 0.47563
 H83 H 0.45122 0.16846 0.42434
 H84 H 0.50735 0.16506 0.42445
 H85 H 0.45124 0.17048 0.58462
 H86 H 0.50736 0.16712 0.58472
 H87 H 0.37364 0.18405 0.50420
 H88 H 0.58886 0.17204 0.50462
 C89 C 0.72021 -0.06790 0.02543
 C90 C 0.73017 -0.07850 -0.00382
 C91 C 0.72554 -0.06280 -0.03220
 C92 C 0.71452 -0.03311 -0.03080
 C93 C 0.70491 -0.02144 -0.00142
 C94 C 0.70672 -0.03940 0.02669
 C95 C 0.69762 -0.02699 0.05558
 C96 C 0.68769 0.00240 0.05702
 C97 C 0.68773 0.02132 0.02994
 C98 C 0.69527 0.00905 0.00016
 C99 C 0.71640 -0.01334 -0.05739
 C100 C 0.70788 0.01664 -0.05563
 C101 C 0.69562 0.02805 -0.02756
 C102 C 0.68687 0.05898 -0.02542
 C103 C 0.67973 0.07023 0.00467
 C104 C 0.68141 0.05258 0.03221
 H105 H 0.69908 -0.03924 0.07775
 H106 H 0.68076 0.01053 0.07992
 H107 H 0.72638 -0.02015 -0.07952
 H108 H 0.71272 0.03107 -0.07639
 H109 H 0.73905 -0.10101 -0.00467
 H110 H 0.67342 0.09368 0.00709
 C111 C 0.18580 0.42388 0.47338
 C112 C 0.18674 0.40858 0.50256
 C113 C 0.18757 0.42492 0.53121
 C114 C 0.18661 0.45765 0.53089
 C115 C 0.18609 0.47363 0.50154
 C116 C 0.18520 0.45667 0.47269
 C117 C 0.18310 0.47288 0.44401
 C118 C 0.18373 0.50525 0.44352
 C119 C 0.18641 0.52273 0.47169
 C120 C 0.18666 0.50670 0.50104
 C121 C 0.18557 0.47473 0.55913
 C122 C 0.18609 0.50706 0.55866
 C123 C 0.18761 0.52365 0.52991
 C124 C 0.18932 0.55668 0.52922
 C125 C 0.18933 0.57209 0.50005
 C126 C 0.18819 0.55578 0.47137
 H127 H 0.18073 0.46067 0.42161
 H128 H 0.18181 0.51639 0.42076
 H129 H 0.18407 0.46323 0.58197
 H130 H 0.18504 0.51888 0.58114
 H131 H 0.18827 0.38365 0.50292
 H132 H 0.19149 0.59746 0.49965
 C133 C 0.31156 1.07126 0.03230
 C134 C 0.31166 1.08755 0.00341
 C135 C 0.31085 1.07232 -0.02604
 C136 C 0.31297 1.03967 -0.02670
 C137 C 0.31371 1.02275 0.00211
 C138 C 0.31362 1.03856 0.03160
 C139 C 0.31800 1.02162 0.05945
 C140 C 0.31884 0.98948 0.05875
 C141 C 0.31605 0.97291 0.03007
 C142 C 0.31492 0.98986 0.00139
 C143 C 0.31676 1.02386 -0.05535
 C144 C 0.31740 0.99173 -0.05603
 C145 C 0.31513 0.97402 -0.02802
 C146 C 0.31414 0.94103 -0.02861
 C147 C 0.31456 0.92464 -0.00001
 C148 C 0.31543 0.93997 0.02923
 H149 H 0.32146 1.03312 0.08216
 H150 H 0.32223 0.97785 0.08097
 H151 H 0.31985 1.03626 -0.07765
 H152 H 0.32029 0.98099 -0.07881
 H153 H 0.30832 1.11207 0.00389
 H154 H 0.31285 0.89931 -0.00047
 C155 C 0.80510 0.43746 0.47083
 C156 C 0.80534 0.42159 0.49974
 C157 C 0.80673 0.43752 0.52867
 C158 C 0.80846 0.47058 0.52882
 C159 C 0.80813 0.48702 0.49971
 C160 C 0.80725 0.47053 0.47063
 C161 C 0.80898 0.48756 0.44212
 C162 C 0.80918 0.51985 0.44207
 C163 C 0.80767 0.53642 0.47054
 C164 C 0.80825 0.52003 0.49966
 C165 C 0.81098 0.48769 0.55723
 C166 C 0.81095 0.51997 0.55719
 C167 C 0.80855 0.53648 0.52874
 C168 C 0.80703 0.56910 0.52853
 C169 C 0.80620 0.58485 0.49960
 C170 C 0.80621 0.56905 0.47069
 H171 H 0.81038 0.47610 0.41948
 H172 H 0.81066 0.53168 0.41941
 H173 H 0.81313 0.47631 0.57982
 H174 H 0.81302 0.53189 0.57977
 H175 H 0.80276 0.39621 0.49978
 H176 H 0.80414 0.60968 0.49961
 O177 O 0.22984 0.27529 0.21413
 O178 O 0.28677 0.25015 0.27172
 O179 O 0.27084 0.23514 0.21344
 O180 O 0.24644 0.29042 0.27217
 O181 O 0.20893 0.25400 0.28966
 O182 O 0.23384 0.19841 0.23127
 O183 O 0.24949 0.21366 0.28952
 O184 O 0.19279 0.23842 0.23160
 Cu185 Cu 0.26218 0.26638 0.24102
 Cu186 Cu 0.21752 0.22245 0.26224
 C187 C 0.20159 0.26102 0.21289
 C188 C 0.27776 0.22787 0.29077
 C189 C 0.25652 0.20733 0.21222
 C190 C 0.22372 0.28162 0.29118
 O191 O 0.77213 0.79884 0.23007
 O192 O 0.78808 0.73949 0.28838
 O193 O 0.80795 0.75516 0.23138
 O194 O 0.75126 0.78348 0.28728
 O195 O 0.71251 0.74981 0.26756
 O196 O 0.76885 0.72248 0.21080
 O197 O 0.74937 0.70621 0.26802
 O198 O 0.73211 0.76638 0.21059
 Cu199 Cu 0.78367 0.77258 0.26145
 Cu200 Cu 0.73678 0.73290 0.23725
 C201 C 0.74981 0.79259 0.21006
 C202 C 0.77149 0.71269 0.28824
 C203 C 0.79798 0.73443 0.21109
 C204 C 0.72224 0.77116 0.28728
 O205 O 0.78404 0.24664 0.23279
 O206 O 0.72393 0.21437 0.29138
 O207 O 0.74024 0.19871 0.23459
 O208 O 0.76773 0.26269 0.28958
 O209 O 0.73317 0.29109 0.26887
 O210 O 0.70523 0.22687 0.21431
 O211 O 0.68959 0.24326 0.27105
 O212 O 0.74943 0.27503 0.21216
 Cu213 Cu 0.75746 0.22776 0.26417
 Cu214 Cu 0.71591 0.26191 0.23945
 C215 C 0.77691 0.26610 0.21222
 C216 C 0.69662 0.22365 0.29151
 C217 C 0.71822 0.20192 0.21488
 C218 C 0.75485 0.28771 0.28891
 O219 O 0.28695 0.76406 0.21278
 O220 O 0.25801 0.70200 0.26987
 O221 O 0.24198 0.71676 0.21253
 O222 O 0.30303 0.74902 0.27006
 O223 O 0.26963 0.77930 0.28965
 O224 O 0.20869 0.74720 0.23204
 O225 O 0.22429 0.73198 0.28935
 O226 O 0.25331 0.79400 0.23252
 Cu227 Cu 0.27586 0.72994 0.23935
 Cu228 Cu 0.23564 0.76608 0.26300
 C229 C 0.27469 0.78946 0.21255
 C230 C 0.23635 0.70649 0.28956
 C231 C 0.21508 0.72690 0.21208
 C232 C 0.29670 0.76950 0.28986
 O233 O 0.77065 0.26422 0.71474
 O234 O 0.73989 0.20386 0.77298
 O235 O 0.72465 0.21781 0.71560
 O236 O 0.78606 0.25025 0.77265
 O237 O 0.75388 0.28263 0.79044
 O238 O 0.69172 0.24867 0.73502
 O239 O 0.70869 0.23619 0.79303
 O240 O 0.73714 0.29512 0.73288
 Cu241 Cu 0.75865 0.23093 0.74210
 Cu242 Cu 0.71952 0.26876 0.76470
 C243 C 0.75868 0.28975 0.71343
 C244 C 0.71956 0.21010 0.79335
 C245 C 0.69772 0.22785 0.71545
 C246 C 0.78042 0.27185 0.79147
 O247 O 0.30411 0.75463 0.72830
 O248 O 0.24320 0.72106 0.78523
 O249 O 0.26001 0.70677 0.72804
 O250 O 0.28643 0.76977 0.78515
 O251 O 0.25209 0.79842 0.76447
 O252 O 0.22549 0.73564 0.70805
 O253 O 0.20894 0.75015 0.76512
 O254 O 0.27002 0.78365 0.70777
 Cu255 Cu 0.27691 0.73520 0.75871
 Cu256 Cu 0.23577 0.76985 0.73421
 C257 C 0.29744 0.77456 0.70803
 C258 C 0.21581 0.73014 0.78528
 C259 C 0.23825 0.71056 0.70817
 C260 C 0.27329 0.79468 0.78490
 O261 O 0.24959 0.29572 0.73675
 O262 O 0.27222 0.23909 0.79478
 O263 O 0.28850 0.25418 0.73664
 O264 O 0.23211 0.27985 0.79451
 O265 O 0.19421 0.24442 0.77613
 O266 O 0.25059 0.21850 0.71867
 O267 O 0.23428 0.20345 0.77684
 O268 O 0.21166 0.26032 0.71836
 Cu269 Cu 0.26437 0.27077 0.76754
 Cu270 Cu 0.21885 0.22811 0.74573
 C271 C 0.22712 0.28768 0.71731
 C272 C 0.25710 0.21164 0.79592
 C273 C 0.27909 0.23213 0.71753
 C274 C 0.20352 0.26637 0.79535
 O275 O 0.75393 0.78668 0.70726
 O276 O 0.80987 0.75816 0.76424
 O277 O 0.79040 0.74231 0.70728
 O278 O 0.77514 0.80293 0.76422
 O279 O 0.73425 0.77139 0.78366
 O280 O 0.75129 0.70976 0.72816
 O281 O 0.76994 0.72672 0.78524
 O282 O 0.71479 0.75358 0.72729
 Cu283 Cu 0.78623 0.77580 0.73355
 Cu284 Cu 0.73860 0.73713 0.75812
 C285 C 0.72481 0.77458 0.70727
 C286 C 0.79927 0.73793 0.78489
 C287 C 0.77359 0.71564 0.70798
 C288 C 0.75238 0.79733 0.78385
 C289 C 0.29042 0.12378 0.11328
 C290 C 0.31372 0.13649 0.09113
 C291 C 0.32132 0.11864 0.06509
 C292 C 0.30623 0.08785 0.06046
 C293 C 0.28327 0.07532 0.08278
 C294 C 0.27561 0.09285 0.10883
 C295 C 0.28195 0.14420 0.13997
 C296 C 0.25848 0.13415 0.16282
 C297 C 0.25061 0.15450 0.18643
 C298 C 0.26597 0.18537 0.18804
 C299 C 0.28986 0.19538 0.16580
 C300 C 0.29782 0.17519 0.14184
 C301 C 0.32895 0.16716 0.09471
 C302 C 0.32120 0.18607 0.11951
 H303 H 0.34691 0.17686 0.07783
 H304 H 0.33345 0.20975 0.12101
 H305 H 0.33928 0.12877 0.04836
 H306 H 0.26991 0.05235 0.07934
 H307 H 0.23217 0.14606 0.20332
 H308 H 0.30198 0.21915 0.16675
 H309 H 0.25751 0.08194 0.12473
 H310 H 0.24567 0.11081 0.16275
 C311 C 0.79381 0.62554 0.61034
 C312 C 0.82040 0.63337 0.59008
 C313 C 0.82522 0.61417 0.56417
 C314 C 0.80372 0.58733 0.55782
 C315 C 0.77740 0.57956 0.57779
 C316 C 0.77257 0.59823 0.60388
 C317 C 0.78885 0.64734 0.63701
 C318 C 0.76327 0.64171 0.65859
 C319 C 0.75878 0.66356 0.68201
 C320 C 0.77965 0.69156 0.68458
 C321 C 0.80578 0.69691 0.66387
 C322 C 0.81054 0.67512 0.64026
 C323 C 0.84153 0.66073 0.59524
 C324 C 0.83661 0.68123 0.61968
 H325 H 0.86189 0.66669 0.57977
 H326 H 0.85335 0.70238 0.62233
 H327 H 0.84535 0.62042 0.54844
 H328 H 0.76017 0.55926 0.57278
 H329 H 0.73852 0.65872 0.69778
 H330 H 0.82228 0.71832 0.66580
 H331 H 0.75172 0.59121 0.61818
 H332 H 0.74627 0.62077 0.65765
 C333 C 0.73506 0.87596 0.10518
 C334 C 0.70386 0.88184 0.09734
 C335 C 0.69907 0.90143 0.07160
 C336 C 0.72486 0.91397 0.05243
 C337 C 0.75536 0.90605 0.05901
 C338 C 0.76054 0.88780 0.08528
 C339 C 0.73942 0.85597 0.13341
 C340 C 0.76971 0.85252 0.14573
 C341 C 0.77269 0.83267 0.17133
 C342 C 0.74568 0.81545 0.18496
 C343 C 0.71529 0.81950 0.17367
 C344 C 0.71197 0.84036 0.14860
 C345 C 0.67765 0.86714 0.11448
 C346 C 0.68156 0.84612 0.13895
 H347 H 0.65368 0.87123 0.10826
 H348 H 0.66049 0.83463 0.15086
 H349 H 0.67512 0.90589 0.06564
 H350 H 0.77550 0.91471 0.04411
 H351 H 0.79634 0.83004 0.17992
 H352 H 0.69430 0.80676 0.18470
 H353 H 0.78452 0.88261 0.08918
 H354 H 0.79132 0.86510 0.13606
 C355 C 0.20365 0.37147 0.61468
 C356 C 0.17682 0.36236 0.59515
 C357 C 0.17114 0.38043 0.56854
 C358 C 0.19216 0.40728 0.56071
 C359 C 0.21906 0.41588 0.57965
 C360 C 0.22465 0.39844 0.60643
 C361 C 0.20917 0.35128 0.64256
 C362 C 0.23449 0.35889 0.66402
 C363 C 0.23964 0.33857 0.68866
 C364 C 0.21973 0.31012 0.69267
 C365 C 0.19371 0.30284 0.67213
 C366 C 0.18821 0.32322 0.64731
 C367 C 0.15631 0.33488 0.60182
 C368 C 0.16207 0.31557 0.62713
 H369 H 0.13581 0.32786 0.58685
 H370 H 0.14584 0.29424 0.63090
 H371 H 0.15065 0.37338 0.55354
 H372 H 0.23605 0.43602 0.57340
 H373 H 0.25976 0.34496 0.70426
 H374 H 0.17792 0.28109 0.67520
 H375 H 0.24589 0.40614 0.61989
 H376 H 0.25074 0.38029 0.66214
 C377 C 0.86626 0.30632 0.11101
 C378 C 0.89231 0.28917 0.10708
 C379 C 0.91325 0.29552 0.08137
 C380 C 0.90925 0.31931 0.05939
 C381 C 0.88342 0.33642 0.06371
 C382 C 0.86242 0.33023 0.08913
 C383 C 0.84348 0.29765 0.13785
 C384 C 0.81593 0.31221 0.14291
 C385 C 0.79471 0.30230 0.16736
 C386 C 0.80047 0.27783 0.18761
 C387 C 0.82822 0.26368 0.18324
 C388 C 0.84948 0.27313 0.15843
 C389 C 0.89703 0.26534 0.12848
 C390 C 0.87621 0.25764 0.15371
 H391 H 0.91708 0.25230 0.12558
 H392 H 0.88082 0.23888 0.16947
 H393 H 0.93187 0.28082 0.07773
 H394 H 0.87961 0.35509 0.04750
 H395 H 0.77353 0.31369 0.17022
 H396 H 0.83286 0.24460 0.19860
 H397 H 0.84326 0.34434 0.09103
 H398 H 0.81001 0.33094 0.12802
 C399 C 0.38867 0.81466 0.60837
 C400 C 0.41275 0.79534 0.60285
 C401 C 0.43345 0.80119 0.57691
 C402 C 0.43118 0.82657 0.55662
 C403 C 0.40805 0.84631 0.56266
 C404 C 0.38709 0.84055 0.58823
 C405 C 0.36554 0.80616 0.63496
 C406 C 0.33912 0.82218 0.64089
 C407 C 0.31734 0.81226 0.66492
 C408 C 0.32153 0.78641 0.68394
 C409 C 0.34815 0.77076 0.67870
 C410 C 0.36977 0.78007 0.65418
 C411 C 0.41573 0.77000 0.62291
 C412 C 0.39494 0.76275 0.64823
 H413 H 0.43436 0.75541 0.61886
 H414 H 0.39816 0.74278 0.66294
 H415 H 0.45091 0.78551 0.57200
 H416 H 0.40585 0.86595 0.54714
 H417 H 0.29699 0.82473 0.66845
 H418 H 0.35147 0.75052 0.69299
 H419 H 0.36967 0.85642 0.59157
 H420 H 0.33443 0.84198 0.62684
 C421 C 0.12714 0.69072 0.10896
 C422 C 0.10489 0.71157 0.10181
 C423 C 0.08506 0.70640 0.07521
 C424 C 0.08622 0.68011 0.05594
 C425 C 0.10770 0.65906 0.06337
 C426 C 0.12790 0.66419 0.08956
 C427 C 0.14921 0.69821 0.13653
 C428 C 0.17387 0.68043 0.14424
 C429 C 0.19482 0.68937 0.16917
 C430 C 0.19147 0.71595 0.18734
 C431 C 0.16652 0.73334 0.18037
 C432 C 0.14581 0.72502 0.15492
 C433 C 0.10270 0.73763 0.12104
 C434 C 0.12248 0.74401 0.14723
 H435 H 0.08546 0.75342 0.11571
 H436 H 0.11992 0.76456 0.16128
 H437 H 0.06888 0.72305 0.06919
 H438 H 0.10904 0.63873 0.04863
 H439 H 0.21391 0.67558 0.17404
 H440 H 0.16394 0.75418 0.19398
 H441 H 0.14397 0.64723 0.09408
 H442 H 0.17787 0.65998 0.13091
 C443 C 0.60792 0.18776 0.61505
 C444 C 0.58492 0.20786 0.60802
 C445 C 0.56475 0.20183 0.58179
 C446 C 0.56647 0.17552 0.56270
 C447 C 0.58867 0.15519 0.57006
 C448 C 0.60912 0.16111 0.59595
 C449 C 0.63040 0.19624 0.64209
 C450 C 0.65565 0.17918 0.64963
 C451 C 0.67703 0.18909 0.67390
 C452 C 0.67360 0.21598 0.69154
 C453 C 0.64802 0.23262 0.68483
 C454 C 0.62680 0.22328 0.66005
 C455 C 0.58243 0.23410 0.62691
 C456 C 0.60272 0.24147 0.65255
 H457 H 0.56462 0.24931 0.62167
 H458 H 0.59996 0.26217 0.66630
 H459 H 0.54798 0.21792 0.57580
 H460 H 0.59042 0.13485 0.55544
 H461 H 0.69656 0.17581 0.67862
 H462 H 0.64532 0.25364 0.69810
 H463 H 0.62578 0.14470 0.60038
 H464 H 0.65978 0.15855 0.63669
 C465 C 0.69098 0.12158 0.89583
 C466 C 0.70026 0.13264 0.92634
 C467 C 0.69887 0.11182 0.95195
 C468 C 0.68696 0.07985 0.94835
 C469 C 0.67450 0.06991 0.91858
 C470 C 0.67704 0.09023 0.89255
 C471 C 0.69629 0.14393 0.86852
 C472 C 0.69356 0.13420 0.83665
 C473 C 0.70079 0.15577 0.81205
 C474 C 0.70981 0.18751 0.81873
 C475 C 0.71210 0.19753 0.85024
 C476 C 0.70659 0.17589 0.87509
 C477 C 0.71091 0.16444 0.93119
 C478 C 0.71307 0.18577 0.90624
 H479 H 0.71743 0.17304 0.95472
 H480 H 0.72125 0.21017 0.91124
 H481 H 0.70846 0.12055 0.97451
 H482 H 0.66267 0.04626 0.91534
 H483 H 0.69942 0.14767 0.78775
 H484 H 0.72008 0.22197 0.85536
 H485 H 0.66762 0.08118 0.87016
 H486 H 0.68703 0.10994 0.83038
 C487 C 0.20072 0.61585 0.38951
 C488 C 0.22186 0.59354 0.39522
 C489 C 0.21704 0.57331 0.42137
 C490 C 0.19111 0.57459 0.44180
 C491 C 0.16967 0.59601 0.43564
 C492 C 0.17426 0.61632 0.40978
 C493 C 0.20803 0.63853 0.36266
 C494 C 0.18981 0.66297 0.35630
 C495 C 0.19869 0.68457 0.33219
 C496 C 0.22573 0.68224 0.31353
 C497 C 0.24352 0.65748 0.31908
 C498 C 0.23516 0.63596 0.34365
 C499 C 0.24802 0.59196 0.37522
 C500 C 0.25438 0.61254 0.34985
 H501 H 0.26403 0.57470 0.37944
 H502 H 0.27512 0.61053 0.33526
 H503 H 0.23393 0.55706 0.42638
 H504 H 0.14959 0.59736 0.45129
 H505 H 0.18448 0.70341 0.32838
 H506 H 0.26461 0.65555 0.30497
 H507 H 0.15709 0.63243 0.40640
 H508 H 0.16901 0.66626 0.37003
 C509 C 0.29845 0.88421 0.88736
 C510 C 0.32426 0.88069 0.90782
 C511 C 0.32994 0.90002 0.93454
 C512 C 0.30980 0.92247 0.94168
 C513 C 0.28379 0.92535 0.92183
 C514 C 0.27831 0.90676 0.89487
 C515 C 0.29287 0.86282 0.85936
 C516 C 0.26879 0.86539 0.83685
 C517 C 0.26329 0.84383 0.81224
 C518 C 0.28160 0.81908 0.80929
 C519 C 0.30657 0.81707 0.83081
 C520 C 0.31246 0.83884 0.85559
 C521 C 0.34362 0.85730 0.90202
 C522 C 0.33760 0.83658 0.87672
 H523 H 0.36333 0.85452 0.91772
 H524 H 0.35284 0.81845 0.87370
 H525 H 0.34970 0.89726 0.95021
 H526 H 0.26736 0.94182 0.92750
 H527 H 0.24403 0.84617 0.79587
 H528 H 0.32118 0.79831 0.82856
 H529 H 0.25775 0.90993 0.88074
 H530 H 0.25375 0.88372 0.83790
 C531 C 0.78525 0.37930 0.38846
 C532 C 0.81189 0.37589 0.40788
 C533 C 0.81889 0.39563 0.43409
 C534 C 0.79931 0.41840 0.44167
 C535 C 0.77255 0.42125 0.42287
 C536 C 0.76572 0.40222 0.39644
 C537 C 0.77822 0.35740 0.36108
 C538 C 0.75308 0.35965 0.33966
 C539 C 0.74625 0.33756 0.31570
 C540 C 0.76427 0.31266 0.31239
 C541 C 0.79026 0.31098 0.33272
 C542 C 0.79745 0.33321 0.35683
 C543 C 0.83079 0.35226 0.40159
 C544 C 0.82350 0.33114 0.37685
 H545 H 0.85114 0.34959 0.41647
 H546 H 0.83844 0.31282 0.37341
 H547 H 0.83922 0.39295 0.44901
 H548 H 0.75662 0.43807 0.42897
 H549 H 0.72624 0.33960 0.30019
 H550 H 0.80465 0.29209 0.33012
 H551 H 0.74464 0.40538 0.38311
 H552 H 0.73821 0.37809 0.34111
 C553 C 0.11782 0.29818 0.89431
 C554 C 0.13107 0.31928 0.91788
 C555 C 0.11258 0.32607 0.94397
 C556 C 0.08060 0.31238 0.94716
 C557 C 0.06762 0.29149 0.92354
 C558 C 0.08579 0.28463 0.89748
 C559 C 0.13882 0.29058 0.86751
 C560 C 0.12821 0.26928 0.84327
 C561 C 0.14909 0.26194 0.81964
 C562 C 0.18105 0.27574 0.81935
 C563 C 0.19165 0.29761 0.84290
 C564 C 0.17092 0.30497 0.86694
 C565 C 0.16286 0.33317 0.91559
 C566 C 0.18234 0.32619 0.89067
 H567 H 0.17297 0.34945 0.93357
 H568 H 0.20687 0.33731 0.89019
 H569 H 0.12309 0.34243 0.96173
 H570 H 0.04367 0.27922 0.92584
 H571 H 0.14019 0.24509 0.80170
 H572 H 0.21628 0.30846 0.84297
 H573 H 0.07443 0.26816 0.88049
 H574 H 0.10402 0.25772 0.84227
 C575 C 0.63751 0.80402 0.38654
 C576 C 0.64874 0.82985 0.40603
 C577 C 0.63052 0.83749 0.43203
 C578 C 0.60139 0.81938 0.43935
 C579 C 0.59060 0.79350 0.42039
 C580 C 0.60818 0.78604 0.39416
 C581 C 0.65801 0.79619 0.35945
 C582 C 0.64854 0.77162 0.33811
 C583 C 0.66914 0.76417 0.31430
 C584 C 0.69973 0.78096 0.31102
 C585 C 0.70896 0.80624 0.33142
 C586 C 0.68833 0.81405 0.35540
 C587 C 0.67848 0.84732 0.40001
 C588 C 0.69798 0.83939 0.37545
 H589 H 0.68713 0.86705 0.41493
 H590 H 0.72106 0.85327 0.37220
 H591 H 0.63926 0.85714 0.44706
 H592 H 0.56866 0.77866 0.42626
 H593 H 0.66124 0.74471 0.29877
 H594 H 0.73238 0.81966 0.32891
 H595 H 0.59873 0.76569 0.38070
 H596 H 0.62545 0.75770 0.33947
 C597 C 0.88141 0.70437 0.88627
 C598 C 0.86709 0.68354 0.90967
 C599 C 0.88470 0.67620 0.93620
 C600 C 0.91684 0.68911 0.94006
 C601 C 0.93080 0.70995 0.91674
 C602 C 0.91352 0.71731 0.89022
 C603 C 0.86142 0.71235 0.85880
 C604 C 0.87323 0.73310 0.83442
 C605 C 0.85323 0.74082 0.81013
 C606 C 0.82098 0.72798 0.80936
 C607 C 0.80923 0.70661 0.83304
 C608 C 0.82906 0.69882 0.85766
 C609 C 0.83511 0.67046 0.90675
 C610 C 0.81650 0.67797 0.88134
 H611 H 0.82414 0.65443 0.92460
 H612 H 0.79176 0.66749 0.88040
 H613 H 0.87340 0.65996 0.95373
 H614 H 0.95487 0.72175 0.91958
 H615 H 0.86300 0.75729 0.79213
 H616 H 0.78437 0.69643 0.83272
 H617 H 0.92562 0.73368 0.87349
 H618 H 0.89770 0.74392 0.83379
 C619 C 0.36126 0.19787 0.39236
 C620 C 0.34985 0.17231 0.41224
 C621 C 0.36767 0.16525 0.43875
 C622 C 0.39667 0.18351 0.44600
 C623 C 0.40776 0.20900 0.42655
 C624 C 0.39049 0.21600 0.39994
 C625 C 0.34112 0.20513 0.36476
 C626 C 0.35049 0.22974 0.34334
 C627 C 0.33021 0.23654 0.31896
 C628 C 0.30008 0.21900 0.31517
 C629 C 0.29096 0.19376 0.33573
 C630 C 0.31118 0.18670 0.36035
 C631 C 0.32043 0.15442 0.40598
 C632 C 0.30142 0.16157 0.38073
 H633 H 0.31169 0.13486 0.42118
 H634 H 0.27860 0.14732 0.37723
 H635 H 0.35881 0.14584 0.45410
 H636 H 0.42972 0.22382 0.43229
 H637 H 0.33799 0.25603 0.30334
 H638 H 0.26785 0.17982 0.33292
 H639 H 0.40018 0.23603 0.38606
 H640 H 0.37323 0.24423 0.34509
 C641 C 0.73646 0.88453 0.88470
 C642 C 0.76127 0.88907 0.90734
 C643 C 0.75769 0.90675 0.93464
 C644 C 0.73046 0.92183 0.93902
 C645 C 0.70695 0.91909 0.91527
 C646 C 0.70976 0.90053 0.88859
 C647 C 0.73984 0.86288 0.85755
 C648 C 0.71445 0.85239 0.83690
 C649 C 0.71849 0.83108 0.81277
 C650 C 0.74810 0.82062 0.80820
 C651 C 0.77353 0.83096 0.82838
 C652 C 0.76932 0.85110 0.85362
 C653 C 0.78957 0.87610 0.90252
 C654 C 0.79386 0.85827 0.87573
 H655 H 0.80883 0.88006 0.91956
 H656 H 0.81631 0.84899 0.87291
 H657 H 0.77649 0.90938 0.95229
 H658 H 0.68547 0.93003 0.91809
 H659 H 0.69852 0.82281 0.79757
 H660 H 0.79616 0.82202 0.82533
 H661 H 0.69077 0.89890 0.87136
 H662 H 0.69112 0.85963 0.83963
 C663 C 0.19489 0.36477 0.39249
 C664 C 0.21730 0.39174 0.39768
 C665 C 0.21372 0.41136 0.42359
 C666 C 0.18780 0.40485 0.44434
 C667 C 0.16529 0.37855 0.43888
 C668 C 0.16863 0.35878 0.41325
 C669 C 0.20062 0.34346 0.36557
 C670 C 0.18077 0.31520 0.35936
 C671 C 0.18799 0.29547 0.33491
 C672 C 0.21500 0.30346 0.31581
 C673 C 0.23449 0.33191 0.32133
 C674 C 0.22773 0.35170 0.34613
 C675 C 0.24342 0.39870 0.37732
 C676 C 0.24841 0.37923 0.35200
 H677 H 0.26044 0.41945 0.38116
 H678 H 0.26914 0.38555 0.33709
 H679 H 0.23147 0.43141 0.42809
 H680 H 0.14523 0.37308 0.45482
 H681 H 0.17250 0.27371 0.33116
 H682 H 0.25555 0.33831 0.30687
 H683 H 0.15063 0.33883 0.41038
 H684 H 0.15986 0.30760 0.37338
 C685 C 0.28898 0.12680 0.89461
 C686 C 0.31257 0.13893 0.91669
 C687 C 0.32016 0.12058 0.94238
 C688 C 0.30487 0.08981 0.94660
 C689 C 0.28140 0.07797 0.92455
 C690 C 0.27370 0.09602 0.89891
 C691 C 0.28085 0.14759 0.86809
 C692 C 0.25726 0.13806 0.84523
 C693 C 0.24988 0.15870 0.82163
 C694 C 0.26587 0.18931 0.82007
 C695 C 0.28981 0.19882 0.84236
 C696 C 0.29728 0.17836 0.86629
 C697 C 0.32824 0.16946 0.91326
 C698 C 0.32079 0.18873 0.88860
 H699 H 0.34640 0.17872 0.93009
 H700 H 0.33344 0.21225 0.88716
 H701 H 0.33842 0.13020 0.95899
 H702 H 0.26788 0.05504 0.92781
 H703 H 0.23137 0.15069 0.80471
 H704 H 0.30239 0.22241 0.84145
 H705 H 0.25529 0.08558 0.88312
 H706 H 0.24403 0.11491 0.84525
 C707 C 0.79175 0.62479 0.38839
 C708 C 0.81858 0.63286 0.40823
 C709 C 0.82369 0.61399 0.43439
 C710 C 0.80224 0.58725 0.44142
 C711 C 0.77555 0.57940 0.42198
 C712 C 0.77043 0.59772 0.39566
 C713 C 0.78670 0.64607 0.36120
 C714 C 0.76106 0.64000 0.33979
 C715 C 0.75660 0.66129 0.31575
 C716 C 0.77754 0.68918 0.31236
 C717 C 0.80370 0.69497 0.33296
 C718 C 0.80846 0.67370 0.35717
 C719 C 0.83973 0.66008 0.40233
 C720 C 0.83466 0.68016 0.37748
 H721 H 0.86026 0.66624 0.41750
 H722 H 0.85145 0.70120 0.37425
 H723 H 0.84409 0.62036 0.44971
 H724 H 0.75833 0.55922 0.42754
 H725 H 0.73631 0.65612 0.30010
 H726 H 0.82025 0.71629 0.33042
 H727 H 0.74935 0.59062 0.38176
 H728 H 0.74403 0.61912 0.34130
 C729 C 0.12785 0.69084 0.88780
 C730 C 0.10100 0.70702 0.89100
 C731 C 0.08059 0.70130 0.91720
 C732 C 0.08613 0.67932 0.94062
 C733 C 0.11283 0.66325 0.93710
 C734 C 0.13320 0.66869 0.91109
 C735 C 0.14997 0.69885 0.86031
 C736 C 0.17788 0.68481 0.85552
 C737 C 0.19870 0.69444 0.83068
 C738 C 0.19220 0.71811 0.80976
 C739 C 0.16388 0.73145 0.81362
 C740 C 0.14296 0.72221 0.83877
 C741 C 0.09506 0.72942 0.86846
 C742 C 0.11554 0.73681 0.84289
 H743 H 0.07443 0.74174 0.87082
 H744 H 0.11008 0.75461 0.82635
 H745 H 0.06126 0.71527 0.92013
 H746 H 0.11783 0.64595 0.95440
 H747 H 0.22027 0.68360 0.82819
 H748 H 0.15857 0.74979 0.79765
 H749 H 0.15313 0.65551 0.90993
 H750 H 0.18443 0.66676 0.87095
 C751 C 0.60809 0.18569 0.39387
 C752 C 0.58466 0.20555 0.40011
 C753 C 0.56451 0.19998 0.42645
 C754 C 0.56655 0.17428 0.44638
 C755 C 0.58916 0.15415 0.43980
 C756 C 0.60966 0.15966 0.41385
 C757 C 0.63050 0.19370 0.36663
 C758 C 0.65626 0.17704 0.35986
 C759 C 0.67737 0.18644 0.33514
 C760 C 0.67313 0.21238 0.31629
 C761 C 0.64716 0.22868 0.32238
 C762 C 0.62624 0.21991 0.34758
 C763 C 0.58167 0.23104 0.38027
 C764 C 0.60177 0.23785 0.35435
 H765 H 0.56353 0.24605 0.38490
 H766 H 0.59855 0.25793 0.33979
 H767 H 0.54746 0.21597 0.43183
 H768 H 0.59118 0.13428 0.45506
 H769 H 0.69725 0.17347 0.33095
 H770 H 0.64387 0.24902 0.30821
 H771 H 0.62663 0.14343 0.41000
 H772 H 0.66094 0.15712 0.37373
 C773 C 0.86959 0.31139 0.89269
 C774 C 0.89585 0.29447 0.89636
 C775 C 0.91628 0.30012 0.92251
 C776 C 0.91122 0.32263 0.94550
 C777 C 0.88520 0.33952 0.94144
 C778 C 0.86488 0.33422 0.91542
 C779 C 0.84727 0.30333 0.86542
 C780 C 0.81993 0.31814 0.86018
 C781 C 0.79880 0.30842 0.83567
 C782 C 0.80441 0.28385 0.81555
 C783 C 0.83219 0.26972 0.81982
 C784 C 0.85345 0.27909 0.84461
 C785 C 0.90106 0.27130 0.87444
 C786 C 0.88035 0.26380 0.84913
 H787 H 0.92125 0.25841 0.87716
 H788 H 0.88519 0.24536 0.83313
 H789 H 0.93513 0.28563 0.92584
 H790 H 0.88062 0.35724 0.95841
 H791 H 0.77767 0.31990 0.83285
 H792 H 0.83684 0.25072 0.80443
 H793 H 0.84542 0.34799 0.91388
 H794 H 0.81405 0.33691 0.87500
 C795 C 0.38774 0.81102 0.38899
 C796 C 0.41149 0.79156 0.39539
 C797 C 0.43229 0.79812 0.42111
 C798 C 0.43040 0.82433 0.44031
 C799 C 0.40750 0.84410 0.43346
 C800 C 0.38648 0.83766 0.40810
 C801 C 0.36464 0.80195 0.36257
 C802 C 0.33866 0.81830 0.35576
 C803 C 0.31695 0.80801 0.33188
 C804 C 0.32073 0.78141 0.31390
 C805 C 0.34689 0.76536 0.32004
 C806 C 0.36848 0.77510 0.34442
 C807 C 0.41409 0.76541 0.37640
 C808 C 0.39326 0.75755 0.35126
 H809 H 0.43245 0.75068 0.38114
 H810 H 0.39619 0.73699 0.33738
 H811 H 0.44959 0.78245 0.42668
 H812 H 0.40561 0.86436 0.44815
 H813 H 0.29698 0.82084 0.32762
 H814 H 0.34988 0.74456 0.30652
 H815 H 0.36929 0.85364 0.40408
 H816 H 0.33429 0.83871 0.36896
 C817 C 0.30556 0.87892 0.11059
 C818 C 0.28392 0.90090 0.10557
 C819 C 0.28764 0.92109 0.07935
 C820 C 0.31309 0.92028 0.05823
 C821 C 0.33491 0.89902 0.06352
 C822 C 0.33132 0.87863 0.08939
 C823 C 0.29959 0.85653 0.13786
 C824 C 0.31841 0.83245 0.14379
 C825 C 0.31076 0.81114 0.16848
 C826 C 0.28442 0.81348 0.18811
 C827 C 0.26609 0.83790 0.18295
 C828 C 0.27317 0.85906 0.15787
 C829 C 0.25845 0.90236 0.12646
 C830 C 0.25334 0.88207 0.15219
 H831 H 0.24205 0.91936 0.12275
 H832 H 0.23313 0.88401 0.16753
 H833 H 0.27042 0.93716 0.07501
 H834 H 0.35462 0.89800 0.04732
 H835 H 0.32531 0.79253 0.17194
 H836 H 0.24549 0.83981 0.19779
 H837 H 0.34879 0.86272 0.09217
 H838 H 0.33871 0.82921 0.12929
 C839 C 0.79360 0.37742 0.61062
 C840 C 0.77276 0.40000 0.60484
 C841 C 0.77763 0.41997 0.57852
 C842 C 0.80343 0.41833 0.55801
 C843 C 0.82446 0.39649 0.56407
 C844 C 0.81975 0.37633 0.59007
 C845 C 0.78639 0.35530 0.63795
 C846 C 0.80436 0.33072 0.64462
 C847 C 0.79571 0.30983 0.66944
 C848 C 0.76914 0.31305 0.68848
 C849 C 0.75155 0.33788 0.68250
 C850 C 0.75968 0.35867 0.65729
 C851 C 0.74692 0.40224 0.62507
 C852 C 0.74068 0.38220 0.65087
 H853 H 0.73113 0.41968 0.62078
 H854 H 0.72024 0.38478 0.66568
 H855 H 0.76098 0.43647 0.57355
 H856 H 0.84440 0.39479 0.54832
 H857 H 0.80971 0.29090 0.67354
 H858 H 0.73081 0.34050 0.69687
 H859 H 0.83664 0.35993 0.59344
 H860 H 0.82482 0.32683 0.63064
 C861 C 0.68744 0.10935 0.11629
 C862 C 0.71115 0.08998 0.10949
 C863 C 0.70823 0.07062 0.08276
 C864 C 0.68154 0.06945 0.06290
 C865 C 0.65730 0.08745 0.07045
 C866 C 0.66010 0.10713 0.09686
 C867 C 0.69319 0.13209 0.14318
 C868 C 0.67288 0.15471 0.14991
 C869 C 0.68062 0.17691 0.17369
 C870 C 0.70850 0.17685 0.19166
 C871 C 0.72828 0.15378 0.18588
 C872 C 0.72121 0.13190 0.16152
 C873 C 0.73806 0.09060 0.12888
 C874 C 0.74276 0.11082 0.15460
 H875 H 0.75597 0.07545 0.12388
 H876 H 0.76417 0.11066 0.16868
 H877 H 0.72735 0.05720 0.07671
 H878 H 0.63654 0.08690 0.05533
 H879 H 0.66494 0.19446 0.17773
 H880 H 0.75007 0.15371 0.19940
 H881 H 0.64090 0.12073 0.10131
 H882 H 0.65142 0.15624 0.13654
 C883 C 0.20320 0.61863 0.60947
 C884 C 0.22476 0.59679 0.60352
 C885 C 0.21964 0.57603 0.57786
 C886 C 0.19300 0.57635 0.55816
 C887 C 0.17127 0.59742 0.56449
 C888 C 0.17614 0.61823 0.58986
 C889 C 0.21060 0.64169 0.63590
 C890 C 0.19176 0.66556 0.64252
 C891 C 0.20053 0.68743 0.66631
 C892 C 0.22811 0.68601 0.68442
 C893 C 0.24663 0.66186 0.67859
 C894 C 0.23833 0.64003 0.65430
 C895 C 0.25157 0.59614 0.62285
 C896 C 0.25808 0.61714 0.64782
 H897 H 0.26795 0.57928 0.61845
 H898 H 0.27929 0.61582 0.66191
 H899 H 0.23674 0.56004 0.57271
 H900 H 0.15064 0.59805 0.54940
 H901 H 0.18574 0.70575 0.67036
 H902 H 0.26813 0.66065 0.69226
 H903 H 0.15866 0.63398 0.59341
 H904 H 0.17048 0.66815 0.62927
 C905 C 0.88094 0.70417 0.10923
 C906 C 0.86956 0.67857 0.08949
 C907 C 0.88740 0.67148 0.06299
 C908 C 0.91628 0.68990 0.05547
 C909 C 0.92709 0.71569 0.07455
 C910 C 0.90989 0.72262 0.10123
 C911 C 0.86100 0.71122 0.13704
 C912 C 0.87081 0.73532 0.15881
 C913 C 0.85067 0.74209 0.18333
 C914 C 0.82023 0.72506 0.18688
 C915 C 0.81073 0.70018 0.16608
 C916 C 0.83091 0.69304 0.14141
 C917 C 0.84008 0.66075 0.09583
 C918 C 0.82101 0.66805 0.12100
 H919 H 0.83130 0.64121 0.08070
 H920 H 0.79810 0.65393 0.12450
 H921 H 0.87864 0.65191 0.04787
 H922 H 0.94884 0.73076 0.06853
 H923 H 0.85875 0.76127 0.19913
 H924 H 0.78743 0.68658 0.16880
 H925 H 0.91935 0.74289 0.11482
 H926 H 0.89380 0.74939 0.15725
 C927 C 0.36167 0.20044 0.61590
 C928 C 0.35012 0.17451 0.59664
 C929 C 0.36778 0.16692 0.57023
 C930 C 0.39673 0.18501 0.56243
 C931 C 0.40790 0.21093 0.58118
 C932 C 0.39080 0.21847 0.60771
 C933 C 0.34178 0.20816 0.64350
 C934 C 0.35142 0.23304 0.66446
 C935 C 0.33136 0.24024 0.68889
 C936 C 0.30121 0.22285 0.69315
 C937 C 0.29184 0.19736 0.67307
 C938 C 0.31185 0.18987 0.64845
 C939 C 0.32072 0.15677 0.60343
 C940 C 0.30190 0.16442 0.62863
 H941 H 0.31186 0.13694 0.58871
 H942 H 0.27908 0.15026 0.63255
 H943 H 0.35884 0.14718 0.55539
 H944 H 0.42982 0.22564 0.57499
 H945 H 0.33932 0.25991 0.70413
 H946 H 0.26873 0.18352 0.67629
 H947 H 0.40055 0.23880 0.62105
 H948 H 0.37419 0.24741 0.66232
 C949 C 0.11576 0.29418 0.11468
 C950 C 0.12658 0.32056 0.09566
 C951 C 0.10824 0.32843 0.06986
 C952 C 0.07932 0.31013 0.06235
 C953 C 0.06865 0.28400 0.08111
 C954 C 0.08642 0.27622 0.10710
 C955 C 0.13662 0.28591 0.14130
 C956 C 0.12795 0.26031 0.16174
 C957 C 0.14883 0.25270 0.18523
 C958 C 0.17890 0.27036 0.18908
 C959 C 0.18740 0.29646 0.16945
 C960 C 0.16655 0.30436 0.14575
 C961 C 0.15603 0.33841 0.10194
 C962 C 0.17566 0.33038 0.12632
 H963 H 0.16431 0.35861 0.08741
 H964 H 0.19846 0.34465 0.12985
 H965 H 0.11677 0.34838 0.05506
 H966 H 0.04676 0.26915 0.07519
 H967 H 0.14153 0.23256 0.20015
 H968 H 0.21044 0.31049 0.17235
 H969 H 0.07710 0.25567 0.12039
 H970 H 0.10529 0.24570 0.15989
 C971 C 0.63919 0.80643 0.60828
 C972 C 0.65048 0.83152 0.58781
 C973 C 0.63184 0.83881 0.56195
 C974 C 0.60226 0.82103 0.55575
 C975 C 0.59142 0.79587 0.57572
 C976 C 0.60940 0.78881 0.60181
 C977 C 0.66009 0.79892 0.63517
 C978 C 0.65057 0.77513 0.65741
 C979 C 0.67141 0.76792 0.68106
 C980 C 0.70235 0.78417 0.68333
 C981 C 0.71173 0.80868 0.66197
 C982 C 0.69081 0.81626 0.63811
 C983 C 0.68066 0.84854 0.59270
 C984 C 0.70052 0.84086 0.61709
 H985 H 0.68936 0.86771 0.57701
 H986 H 0.72390 0.85436 0.61946
 H987 H 0.64063 0.85787 0.54615
 H988 H 0.56916 0.78122 0.57072
 H989 H 0.66336 0.74907 0.69733
 H990 H 0.73543 0.82167 0.66368
 H991 H 0.59987 0.76898 0.61604
 H992 H 0.62721 0.76166 0.65693
   
