data_POSCAR
  _audit_creation_date              2014-09-24
  _audit_creation_method            'ToBaCCo'
  _symmetry_space_group_name_H-M    'P1'
  _symmetry_Int_Tables_number       1
  _symmetry_cell_setting            triclinic
  loop_
  _symmetry_equiv_pos_as_xyz
 x,y,z
_cell_length_a 35.3989
_cell_length_b 35.3989
_cell_length_c 35.3989
_cell_angle_alpha 89.999300
_cell_angle_beta 89.981400
_cell_angle_gamma 90.001500
loop_
  _atom_site_label
  _atom_site_type_symbol
  _atom_site_fract_x
  _atom_site_fract_y
  _atom_site_fract_z
Zn1 Zn 0.77993 0.72017 0.77987
 Zn2 Zn 0.77995 0.77995 0.72013
 Zn3 Zn 0.72019 0.72019 0.72011
 Zn4 Zn 0.72017 0.77993 0.77989
 O5 O 0.75006 0.75006 0.75000
 O6 O 0.82935 0.72791 0.77213
 O7 O 0.77223 0.77222 0.67070
 O8 O 0.72792 0.67077 0.72784
 O9 O 0.82937 0.77221 0.72786
 O10 O 0.77219 0.67075 0.77212
 O11 O 0.72794 0.72794 0.67069
 O12 O 0.67075 0.77220 0.77215
 O13 O 0.77220 0.82937 0.72787
 O14 O 0.67076 0.72793 0.72786
 O15 O 0.72791 0.82936 0.77216
 O16 O 0.72790 0.77218 0.82931
 O17 O 0.77218 0.72790 0.82929
 C18 C 0.84673 0.75006 0.74999
 C19 C 0.75009 0.75008 0.65333
 C20 C 0.75005 0.65339 0.74998
 C21 C 0.65339 0.75006 0.75001
 C22 C 0.75005 0.84673 0.75002
 C23 C 0.75003 0.75004 0.84667
 Zn24 Zn 0.22019 0.72018 0.72013
 Zn25 Zn 0.22017 0.77995 0.77988
 Zn26 Zn 0.27993 0.72019 0.77988
 Zn27 Zn 0.27994 0.77994 0.72011
 O28 O 0.25006 0.75006 0.75000
 O29 O 0.17076 0.72791 0.72788
 O30 O 0.22789 0.77221 0.82930
 O31 O 0.27220 0.67077 0.77215
 O32 O 0.17075 0.77221 0.77214
 O33 O 0.22792 0.67076 0.72788
 O34 O 0.27217 0.72793 0.82930
 O35 O 0.32937 0.77220 0.72784
 O36 O 0.22792 0.82937 0.77213
 O37 O 0.32935 0.72793 0.77214
 O38 O 0.27220 0.82936 0.72784
 O39 O 0.27221 0.77219 0.67069
 O40 O 0.22793 0.72791 0.67071
 C41 C 0.15339 0.75006 0.75001
 C42 C 0.25003 0.75007 0.84667
 C43 C 0.25006 0.65339 0.75002
 C44 C 0.34673 0.75006 0.74999
 C45 C 0.25006 0.84673 0.74998
 C46 C 0.25007 0.75005 0.65333
 Zn47 Zn 0.72018 0.22019 0.77989
 Zn48 Zn 0.77994 0.22018 0.72012
 Zn49 Zn 0.72018 0.27993 0.72012
 Zn50 Zn 0.77993 0.27995 0.77987
 O51 O 0.75006 0.25006 0.75000
 O52 O 0.72792 0.17077 0.77216
 O53 O 0.77221 0.22791 0.67070
 O54 O 0.67076 0.27219 0.72787
 O55 O 0.77220 0.17076 0.72787
 O56 O 0.67076 0.22792 0.77216
 O57 O 0.72793 0.27218 0.67070
 O58 O 0.77219 0.32937 0.77212
 O59 O 0.82936 0.22792 0.72785
 O60 O 0.72792 0.32936 0.72784
 O61 O 0.82936 0.27221 0.77212
 O62 O 0.77219 0.27222 0.82929
 O63 O 0.72791 0.22794 0.82931
 C64 C 0.75006 0.15339 0.75002
 C65 C 0.75007 0.25004 0.65333
 C66 C 0.65339 0.25006 0.75002
 C67 C 0.75005 0.34673 0.74998
 C68 C 0.84673 0.25006 0.74999
 C69 C 0.75005 0.25008 0.84667
 Zn70 Zn 0.27994 0.22019 0.72011
 Zn71 Zn 0.22017 0.22018 0.77987
 Zn72 Zn 0.27993 0.27994 0.77988
 Zn73 Zn 0.22019 0.27995 0.72013
 O74 O 0.25006 0.25007 0.75000
 O75 O 0.27220 0.17077 0.72784
 O76 O 0.22790 0.22791 0.82930
 O77 O 0.32936 0.27219 0.77214
 O78 O 0.22791 0.17076 0.77212
 O79 O 0.32936 0.22793 0.72784
 O80 O 0.27218 0.27219 0.82931
 O81 O 0.22793 0.32937 0.72788
 O82 O 0.17075 0.22792 0.77214
 O83 O 0.27220 0.32936 0.77216
 O84 O 0.17076 0.27222 0.72788
 O85 O 0.22793 0.27222 0.67070
 O86 O 0.27221 0.22794 0.67069
 C87 C 0.25006 0.15339 0.74998
 C88 C 0.25003 0.25004 0.84667
 C89 C 0.34673 0.25006 0.74999
 C90 C 0.25007 0.34673 0.75002
 C91 C 0.15339 0.25007 0.75001
 C92 C 0.25007 0.25008 0.65333
 Zn93 Zn 0.72007 0.72007 0.22013
 Zn94 Zn 0.77983 0.77983 0.22011
 Zn95 Zn 0.72007 0.77982 0.27990
 Zn96 Zn 0.77983 0.72006 0.27986
 O97 O 0.74995 0.74995 0.25000
 O98 O 0.72782 0.72781 0.17070
 O99 O 0.77208 0.82925 0.22786
 O100 O 0.67065 0.77208 0.27218
 O101 O 0.77210 0.77209 0.17069
 O102 O 0.67065 0.72782 0.22788
 O103 O 0.72781 0.82924 0.27216
 O104 O 0.77210 0.72779 0.32929
 O105 O 0.82925 0.77210 0.22784
 O106 O 0.72782 0.77207 0.32932
 O107 O 0.82925 0.72780 0.27210
 O108 O 0.77209 0.67064 0.27212
 O109 O 0.72780 0.67065 0.22786
 C110 C 0.74996 0.74995 0.15333
 C111 C 0.74994 0.84662 0.25001
 C112 C 0.65328 0.74995 0.25003
 C113 C 0.74996 0.74993 0.34667
 C114 C 0.84662 0.74995 0.24997
 C115 C 0.74994 0.65328 0.24998
 Zn116 Zn 0.27983 0.77983 0.22011
 Zn117 Zn 0.22007 0.72007 0.22013
 Zn118 Zn 0.27982 0.72008 0.27987
 Zn119 Zn 0.22006 0.77983 0.27989
 O120 O 0.24995 0.74995 0.25000
 O121 O 0.27209 0.77209 0.17069
 O122 O 0.22781 0.67065 0.22787
 O123 O 0.32925 0.72782 0.27212
 O124 O 0.22780 0.72781 0.17071
 O125 O 0.32925 0.77210 0.22783
 O126 O 0.27208 0.67065 0.27214
 O127 O 0.22781 0.77210 0.32931
 O128 O 0.17065 0.72781 0.22789
 O129 O 0.27208 0.72782 0.32930
 O130 O 0.17064 0.77209 0.27217
 O131 O 0.22780 0.82926 0.27214
 O132 O 0.27208 0.82926 0.22785
 C133 C 0.24994 0.74995 0.15333
 C134 C 0.24994 0.65328 0.25001
 C135 C 0.34662 0.74995 0.24997
 C136 C 0.24995 0.74996 0.34667
 C137 C 0.15328 0.74995 0.25003
 C138 C 0.24994 0.84662 0.24999
 Zn139 Zn 0.72007 0.27982 0.22012
 Zn140 Zn 0.77983 0.22006 0.22012
 Zn141 Zn 0.77983 0.27983 0.27986
 Zn142 Zn 0.72007 0.22007 0.27989
 O143 O 0.74995 0.24995 0.25000
 O144 O 0.72782 0.27207 0.17070
 O145 O 0.82925 0.22780 0.22785
 O146 O 0.77208 0.32925 0.27212
 O147 O 0.77210 0.22780 0.17070
 O148 O 0.72780 0.32924 0.22785
 O149 O 0.82925 0.27210 0.27211
 O150 O 0.72781 0.22781 0.32931
 O151 O 0.77209 0.17064 0.22787
 O152 O 0.77209 0.27210 0.32929
 O153 O 0.72781 0.17065 0.27216
 O154 O 0.67065 0.22780 0.27216
 O155 O 0.67065 0.27207 0.22787
 C156 C 0.74997 0.24993 0.15333
 C157 C 0.84662 0.24995 0.24998
 C158 C 0.74994 0.34662 0.24998
 C159 C 0.74996 0.24995 0.34667
 C160 C 0.74995 0.15328 0.25002
 C161 C 0.65328 0.24993 0.25002
 Zn162 Zn 0.22007 0.27983 0.22013
 Zn163 Zn 0.27983 0.22008 0.22011
 Zn164 Zn 0.27982 0.27983 0.27988
 Zn165 Zn 0.22006 0.22007 0.27988
 O166 O 0.24995 0.24995 0.25000
 O167 O 0.22781 0.27210 0.17070
 O168 O 0.32925 0.22782 0.22784
 O169 O 0.27208 0.32925 0.27214
 O170 O 0.27209 0.22782 0.17069
 O171 O 0.22780 0.32926 0.22787
 O172 O 0.32925 0.27209 0.27213
 O173 O 0.22780 0.22781 0.32930
 O174 O 0.27209 0.17065 0.22784
 O175 O 0.27207 0.27209 0.32930
 O176 O 0.22780 0.17065 0.27214
 O177 O 0.17064 0.22780 0.27215
 O178 O 0.17065 0.27209 0.22788
 C179 C 0.24995 0.24996 0.15333
 C180 C 0.34662 0.24995 0.24998
 C181 C 0.24994 0.34662 0.25001
 C182 C 0.24993 0.24995 0.34667
 C183 C 0.24994 0.15328 0.24999
 C184 C 0.15328 0.24994 0.25001
 C185 C -0.03816 0.75003 0.75001
 N186 N -0.01877 0.71699 0.74977
 N187 N 0.01888 0.71699 0.74978
 C188 C 0.03827 0.75003 0.75002
 N189 N 0.01888 0.78308 0.75025
 N190 N -0.01877 0.78308 0.75025
 C191 C -0.07869 0.75003 0.75000
 C192 C -0.11275 0.75005 0.74999
 C193 C 0.07881 0.75003 0.75002
 C194 C 0.11286 0.75005 0.75002
 C195 C 0.75003 -0.03815 0.75005
 N196 N 0.71699 -0.01876 0.75009
 N197 N 0.71699 0.01889 0.75009
 C198 C 0.75003 0.03828 0.75005
 N199 N 0.78308 0.01889 0.75001
 N200 N 0.78308 -0.01876 0.75001
 C201 C 0.75003 -0.07869 0.75004
 C202 C 0.75005 -0.11274 0.75002
 C203 C 0.75003 0.07882 0.75004
 C204 C 0.75005 0.11287 0.75002
 C205 C 0.75002 0.75001 -0.03822
 N206 N 0.74983 0.78304 -0.01881
 N207 N 0.74982 0.78303 0.01884
 C208 C 0.75000 0.74997 0.03822
 N209 N 0.75018 0.71693 0.01881
 N210 N 0.75019 0.71695 -0.01884
 C211 C 0.75001 0.75002 -0.07875
 C212 C 0.75002 0.75002 -0.11281
 C213 C 0.74998 0.74995 0.07875
 C214 C 0.74997 0.74994 0.11281
 C215 C 0.53828 0.75004 0.75001
 N216 N 0.51888 0.71699 0.75001
 N217 N 0.48123 0.71699 0.75000
 C218 C 0.46184 0.75004 0.75000
 N219 N 0.48123 0.78309 0.75000
 N220 N 0.51888 0.78309 0.75001
 C221 C 0.57881 0.75004 0.75001
 C222 C 0.61286 0.75005 0.75001
 C223 C 0.42131 0.75004 0.74999
 C224 C 0.38725 0.75006 0.74998
 C225 C 0.25007 -0.03815 0.74996
 N226 N 0.21703 -0.01876 0.75000
 N227 N 0.21702 0.01889 0.75000
 C228 C 0.25007 0.03828 0.74995
 N229 N 0.28312 0.01889 0.74991
 N230 N 0.28312 -0.01876 0.74991
 C231 C 0.25007 -0.07869 0.74996
 C232 C 0.25006 -0.11274 0.74997
 C233 C 0.25007 0.07882 0.74995
 C234 C 0.25005 0.11287 0.74996
 C235 C 0.24996 0.75002 -0.03822
 N236 N 0.24977 0.78306 -0.01881
 N237 N 0.24976 0.78305 0.01884
 C238 C 0.24993 0.74999 0.03822
 N239 N 0.25011 0.71695 0.01881
 N240 N 0.25013 0.71697 -0.01884
 C241 C 0.24997 0.75003 -0.07875
 C242 C 0.25000 0.75006 -0.11281
 C243 C 0.24992 0.74998 0.07875
 C244 C 0.24993 0.74996 0.11281
 C245 C -0.03816 0.25006 0.74999
 N246 N -0.01877 0.21702 0.74976
 N247 N 0.01888 0.21701 0.74976
 C248 C 0.03828 0.25006 0.75000
 N249 N 0.01889 0.28310 0.75024
 N250 N -0.01876 0.28311 0.75023
 C251 C -0.07869 0.25006 0.74999
 C252 C -0.11275 0.25005 0.74999
 C253 C 0.07881 0.25005 0.75001
 C254 C 0.11287 0.25006 0.75001
 C255 C 0.75003 0.53828 0.74998
 N256 N 0.78307 0.51889 0.75002
 N257 N 0.78307 0.48124 0.75002
 C258 C 0.75003 0.46185 0.74998
 N259 N 0.71698 0.48124 0.74994
 N260 N 0.71698 0.51889 0.74994
 C261 C 0.75002 0.57882 0.74997
 C262 C 0.75004 0.61287 0.74996
 C263 C 0.75003 0.42131 0.74997
 C264 C 0.75004 0.38726 0.74997
 C265 C 0.75003 0.25004 -0.03822
 N266 N 0.74985 0.28307 -0.01880
 N267 N 0.74984 0.28304 0.01885
 C268 C 0.75001 0.24998 0.03822
 N269 N 0.75018 0.21695 0.01880
 N270 N 0.75020 0.21698 -0.01885
 C271 C 0.75003 0.25007 -0.07875
 C272 C 0.75005 0.25008 -0.11281
 C273 C 0.74998 0.24995 0.07875
 C274 C 0.74998 0.24993 0.11281
 C275 C 0.53828 0.25005 0.75002
 N276 N 0.51888 0.21700 0.75001
 N277 N 0.48123 0.21700 0.75000
 C278 C 0.46184 0.25005 0.75000
 N279 N 0.48123 0.28309 0.75000
 N280 N 0.51888 0.28309 0.75001
 C281 C 0.57881 0.25004 0.75003
 C282 C 0.61287 0.25004 0.75001
 C283 C 0.42131 0.25004 0.74999
 C284 C 0.38725 0.25005 0.74999
 C285 C 0.25007 0.53828 0.75004
 N286 N 0.28311 0.51889 0.75008
 N287 N 0.28311 0.48124 0.75008
 C288 C 0.25006 0.46185 0.75004
 N289 N 0.21702 0.48124 0.75000
 N290 N 0.21702 0.51889 0.75001
 C291 C 0.25006 0.57882 0.75004
 C292 C 0.25005 0.61287 0.75003
 C293 C 0.25005 0.42131 0.75003
 C294 C 0.25006 0.38726 0.75004
 C295 C 0.24999 0.25000 -0.03822
 N296 N 0.24980 0.28303 -0.01882
 N297 N 0.24979 0.28302 0.01883
 C298 C 0.24996 0.24997 0.03822
 N299 N 0.25014 0.21693 0.01881
 N300 N 0.25016 0.21694 -0.01884
 C301 C 0.25001 0.25000 -0.07875
 C302 C 0.25002 0.25003 -0.11281
 C303 C 0.24994 0.24996 0.07875
 C304 C 0.24994 0.24995 0.11281
 C305 C -0.03827 0.74994 0.24998
 N306 N -0.01888 0.71689 0.24976
 N307 N 0.01877 0.71689 0.24978
 C308 C 0.03816 0.74994 0.25003
 N309 N 0.01877 0.78298 0.25025
 N310 N -0.01888 0.78298 0.25023
 C311 C -0.07880 0.74993 0.24996
 C312 C -0.11286 0.74995 0.24996
 C313 C 0.07870 0.74993 0.25004
 C314 C 0.11275 0.74994 0.25004
 C315 C 0.74993 -0.03827 0.25004
 N316 N 0.71688 -0.01888 0.25008
 N317 N 0.71688 0.01877 0.25008
 C318 C 0.74993 0.03816 0.25005
 N319 N 0.78297 0.01877 0.25001
 N320 N 0.78297 -0.01888 0.25001
 C321 C 0.74992 -0.07881 0.25003
 C322 C 0.74994 -0.11286 0.25001
 C323 C 0.74993 0.07870 0.25004
 C324 C 0.74994 0.11275 0.25002
 C325 C 0.75009 0.75004 0.53822
 N326 N 0.74990 0.78307 0.51880
 N327 N 0.74987 0.78304 0.48115
 C328 C 0.75004 0.74998 0.46178
 N329 N 0.75023 0.71695 0.48120
 N330 N 0.75025 0.71698 0.51885
 C331 C 0.75010 0.75007 0.57875
 C332 C 0.75011 0.75008 0.61281
 C333 C 0.75000 0.74994 0.42125
 C334 C 0.74998 0.74993 0.38719
 C335 C 0.53816 0.74993 0.25003
 N336 N 0.51877 0.71689 0.25002
 N337 N 0.48112 0.71689 0.25000
 C338 C 0.46173 0.74994 0.24999
 N339 N 0.48112 0.78298 0.25000
 N340 N 0.51877 0.78298 0.25002
 C341 C 0.57870 0.74993 0.25004
 C342 C 0.61275 0.74995 0.25004
 C343 C 0.42119 0.74993 0.24997
 C344 C 0.38714 0.74995 0.24996
 C345 C 0.24991 -0.03826 0.24998
 N346 N 0.21687 -0.01887 0.25003
 N347 N 0.21687 0.01878 0.25003
 C348 C 0.24991 0.03817 0.24998
 N349 N 0.28296 0.01878 0.24994
 N350 N 0.28296 -0.01887 0.24994
 C351 C 0.24991 -0.07880 0.24998
 C352 C 0.24992 -0.11285 0.24997
 C353 C 0.24991 0.07871 0.24998
 C354 C 0.24993 0.11276 0.24997
 C355 C 0.25004 0.75000 0.53822
 N356 N 0.24985 0.78304 0.51881
 N357 N 0.24983 0.78302 0.48116
 C358 C 0.24999 0.74997 0.46178
 N359 N 0.25018 0.71693 0.48119
 N360 N 0.25021 0.71695 0.51884
 C361 C 0.25006 0.75002 0.57875
 C362 C 0.25006 0.75004 0.61281
 C363 C 0.24997 0.74995 0.42125
 C364 C 0.24995 0.74996 0.38719
 C365 C -0.03827 0.24992 0.25000
 N366 N -0.01888 0.21687 0.24977
 N367 N 0.01877 0.21687 0.24978
 C368 C 0.03816 0.24991 0.25002
 N369 N 0.01877 0.28296 0.25026
 N370 N -0.01888 0.28296 0.25025
 C371 C -0.07880 0.24992 0.24999
 C372 C -0.11286 0.24994 0.24998
 C373 C 0.07870 0.24991 0.25002
 C374 C 0.11275 0.24992 0.25001
 C375 C 0.74994 0.53816 0.24997
 N376 N 0.78299 0.51877 0.25001
 N377 N 0.78299 0.48112 0.25000
 C378 C 0.74995 0.46173 0.24996
 N379 N 0.71690 0.48112 0.24992
 N380 N 0.71690 0.51877 0.24993
 C381 C 0.74994 0.57870 0.24998
 C382 C 0.74993 0.61275 0.24997
 C383 C 0.74994 0.42119 0.24996
 C384 C 0.74993 0.38714 0.24997
 C385 C 0.75006 0.25000 0.53822
 N386 N 0.74988 0.28303 0.51881
 N387 N 0.74987 0.28301 0.48116
 C388 C 0.75003 0.24996 0.46178
 N389 N 0.75021 0.21692 0.48119
 N390 N 0.75023 0.21694 0.51884
 C391 C 0.75005 0.25001 0.57875
 C392 C 0.75007 0.25003 0.61281
 C393 C 0.75001 0.24994 0.42125
 C394 C 0.74998 0.24994 0.38719
 C395 C 0.53816 0.24991 0.25002
 N396 N 0.51877 0.21687 0.25002
 N397 N 0.48112 0.21687 0.25001
 C398 C 0.46173 0.24992 0.25000
 N399 N 0.48113 0.28296 0.25001
 N400 N 0.51878 0.28296 0.25002
 C401 C 0.57870 0.24990 0.25002
 C402 C 0.61275 0.24991 0.25001
 C403 C 0.42119 0.24992 0.24999
 C404 C 0.38714 0.24994 0.24998
 C405 C 0.24992 0.53817 0.25004
 N406 N 0.28297 0.51878 0.25008
 N407 N 0.28297 0.48113 0.25008
 C408 C 0.24992 0.46174 0.25004
 N409 N 0.21688 0.48113 0.25000
 N410 N 0.21688 0.51878 0.25000
 C411 C 0.24992 0.57870 0.25003
 C412 C 0.24994 0.61276 0.25001
 C413 C 0.24992 0.42120 0.25003
 C414 C 0.24994 0.38715 0.25001
 C415 C 0.25002 0.25001 0.53822
 N416 N 0.24983 0.28305 0.51881
 N417 N 0.24980 0.28303 0.48115
 C418 C 0.24997 0.24997 0.46178
 N419 N 0.25016 0.21694 0.48119
 N420 N 0.25019 0.21696 0.51884
 C421 C 0.25005 0.25003 0.57875
 C422 C 0.25005 0.25006 0.61281
 C423 C 0.24994 0.24994 0.42125
 C424 C 0.24993 0.24994 0.38719
   
