data_POSCAR
  _audit_creation_date              2014-09-24
  _audit_creation_method            'ToBaCCo'
  _symmetry_space_group_name_H-M    'P1'
  _symmetry_Int_Tables_number       1
  _symmetry_cell_setting            triclinic
  loop_
  _symmetry_equiv_pos_as_xyz
 x,y,z
_cell_length_a 60.4710
_cell_length_b 59.0814
_cell_length_c 59.7854
_cell_angle_alpha 89.564600
_cell_angle_beta 90.081300
_cell_angle_gamma 89.705400
loop_
  _atom_site_label
  _atom_site_type_symbol
  _atom_site_fract_x
  _atom_site_fract_y
  _atom_site_fract_z
N1 N 0.18784 1.23088 0.16904
 N2 N 0.17221 1.23089 0.18426
 C3 C 0.15778 1.24772 0.17962
 C4 C 0.16468 1.25896 0.16036
 C5 C 0.18393 1.24767 0.15422
 H6 H 0.14327 1.25129 0.18951
 H7 H 0.19435 1.25116 0.13995
 Cu8 Cu 0.17197 1.20859 0.20838
 Cu9 Cu 0.21191 1.20883 0.16928
 Cu10 Cu 0.21203 1.16900 0.21212
 N11 N 0.17225 1.18605 0.23229
 N12 N 0.18796 1.17068 0.23369
 C13 C 0.18390 1.15693 0.25125
 C14 C 0.16444 1.16395 0.26151
 C15 C 0.15763 1.18261 0.24891
 H16 H 0.19429 1.14273 0.25589
 H17 H 0.14297 1.19279 0.25134
 N18 N 0.23493 1.17007 0.18871
 N19 N 0.23483 1.18519 0.17237
 C20 C 0.25214 1.18117 0.15880
 C21 C 0.26377 1.16258 0.16693
 C22 C 0.25234 1.15604 0.18597
 H23 H 0.25573 1.19079 0.14382
 H24 H 0.25631 1.14203 0.19699
 H25 H 0.19474 1.18354 0.18573
 H26 H 0.21159 1.20293 0.20340
 N27 N 0.81764 0.77036 0.16924
 N28 N 0.83111 0.76881 0.18644
 C29 C 0.84425 0.75054 0.18391
 C30 C 0.83879 0.74007 0.16398
 C31 C 0.82177 0.75320 0.15516
 H32 H 0.85693 0.74535 0.19565
 H33 H 0.81323 0.75079 0.13947
 Cu34 Cu 0.83059 0.79133 0.21001
 Cu35 Cu 0.79642 0.79503 0.16586
 Cu36 Cu 0.79046 0.83097 0.21112
 N37 N 0.82954 0.81413 0.23325
 N38 N 0.81362 0.82930 0.23383
 C39 C 0.81696 0.84312 0.25129
 C40 C 0.83614 0.83633 0.26239
 C41 C 0.84357 0.81774 0.25035
 H42 H 0.80635 0.85730 0.25521
 H43 H 0.85824 0.80771 0.25348
 N44 N 0.76926 0.83014 0.18606
 N45 N 0.77183 0.81680 0.16865
 C46 C 0.75516 0.82057 0.15413
 C47 C 0.74142 0.83722 0.16269
 C48 C 0.75093 0.84285 0.18300
 H49 H 0.75334 0.81196 0.13836
 H50 H 0.74503 0.85536 0.19467
 H51 H 0.81086 0.81907 0.18686
 H52 H 0.79214 0.79768 0.19997
 N53 N 0.81494 1.22778 -0.16869
 N54 N 0.83193 1.22517 -0.18209
 C55 C 0.84630 1.24214 -0.17876
 C56 C 0.83793 1.25619 -0.16229
 C57 C 0.81793 1.24647 -0.15634
 H58 H 0.86187 1.24384 -0.18745
 H59 H 0.80642 1.25239 -0.14386
 Cu60 Cu 0.83418 1.19954 -0.20215
 Cu61 Cu 0.79072 1.20622 -0.16761
 Cu62 Cu 0.79127 1.16374 -0.20714
 N63 N 0.83235 1.17799 -0.22648
 N64 N 0.81564 1.16403 -0.22837
 C65 C 0.81866 1.15105 -0.24651
 C66 C 0.83843 1.15717 -0.25672
 C67 C 0.84659 1.17441 -0.24337
 H68 H 0.80723 1.13813 -0.25173
 H69 H 0.86170 1.18381 -0.24565
 N70 N 0.76808 1.16643 -0.18417
 N71 N 0.76779 1.18272 -0.16921
 C72 C 0.75024 1.17980 -0.15568
 C73 C 0.73886 1.16069 -0.16238
 C74 C 0.75072 1.15270 -0.18054
 H75 H 0.74619 1.19069 -0.14184
 H76 H 0.74726 1.13772 -0.19017
 H77 H 0.80719 1.17830 -0.18022
 H78 H 0.79403 1.19799 -0.20104
 N79 N 0.18531 0.77217 -0.16914
 N80 N 0.17004 0.77252 -0.18480
 C81 C 0.15552 0.75577 -0.18079
 C82 C 0.16199 0.74429 -0.16154
 C83 C 0.18103 0.75522 -0.15464
 H84 H 0.14110 0.75247 -0.19090
 H85 H 0.19104 0.75123 -0.14015
 Cu86 Cu 0.17030 0.79519 -0.20855
 Cu87 Cu 0.20924 0.79410 -0.16834
 Cu88 Cu 0.21012 0.83467 -0.21051
 N89 N 0.17100 0.81807 -0.23210
 N90 N 0.18661 0.83342 -0.23279
 C91 C 0.18303 0.84731 -0.25037
 C92 C 0.16402 0.84039 -0.26144
 C93 C 0.15692 0.82167 -0.24924
 H94 H 0.19347 0.86151 -0.25451
 H95 H 0.14248 0.81149 -0.25236
 N96 N 0.23242 0.83313 -0.18646
 N97 N 0.23206 0.81769 -0.17041
 C98 C 0.24902 0.82140 -0.15631
 C99 C 0.26066 0.84013 -0.16377
 C100 C 0.24962 0.84707 -0.18298
 H101 H 0.25255 0.81125 -0.14162
 H102 H 0.25352 0.86150 -0.19341
 H103 H 0.19238 0.81978 -0.18489
 H104 H 0.20976 0.80062 -0.20236
 C105 C 0.53387 1.03003 -0.00487
 H106 H 0.53416 1.02945 0.01322
 C107 C 0.54949 1.04284 -0.01645
 H108 H 0.56155 1.05242 -0.00711
 C109 C 0.51787 1.01792 -0.03893
 H110 H 0.50590 1.00772 -0.04763
 C111 C 0.53321 1.03052 -0.05120
 H112 H 0.53282 1.02989 -0.06929
 N113 N 0.51847 1.01793 -0.01618
 C114 C 0.46649 1.00579 0.03282
 H115 H 0.46578 0.98751 0.03227
 C116 C 0.45174 1.01777 0.04627
 H117 H 0.43960 1.00853 0.05596
 C118 C 0.48254 1.03997 0.01990
 H119 H 0.49428 1.04858 0.00928
 C120 C 0.46807 1.05263 0.03310
 H121 H 0.46916 1.07092 0.03283
 Zn122 Zn 0.49960 0.99932 0.00107
 N123 N 0.48154 1.01698 0.02005
 C124 C 0.51823 0.98003 0.04070
 N125 N 0.51816 0.97979 0.01795
 C126 C 0.53279 0.96687 0.00637
 C127 C 0.54834 0.95351 0.01766
 C128 C 0.53355 0.96692 0.05269
 C129 C 0.46557 0.99467 -0.02997
 C130 C 0.44997 0.98355 -0.04305
 C131 C 0.46515 0.94779 -0.03033
 C132 C 0.48049 0.95962 -0.01746
 N133 N 0.48044 0.98265 -0.01755
 H134 H 0.50688 0.99087 0.04961
 H135 H 0.53258 0.96728 -0.01173
 H136 H 0.55982 0.94333 0.00809
 H137 H 0.53376 0.96781 0.07077
 H138 H 0.46573 1.01297 -0.02950
 H139 H 0.43835 0.99346 -0.05290
 H140 H 0.46511 0.92948 -0.02968
 H141 H 0.49206 0.95036 -0.00705
 C142 C 0.45233 1.04153 0.04646
 C143 C 0.54942 1.04304 -0.03994
 C144 C 0.44949 0.95979 -0.04321
 C145 C 0.54904 0.95362 0.04114
 C146 C -0.00852 0.53248 1.03000
 H147 H 0.00936 0.53292 1.02971
 C148 C -0.02023 0.54739 1.04361
 H149 H -0.01121 0.55938 1.05369
 C150 C -0.04192 0.51701 1.01624
 H151 H -0.05030 0.50545 1.00522
 C152 C -0.05430 0.53169 1.02955
 H153 H -0.07218 0.53094 1.02897
 N154 N -0.01944 0.51764 1.01674
 C155 C 0.02930 0.46524 1.00238
 H156 H 0.02904 0.46584 0.98429
 C157 C 0.04245 0.44925 1.01347
 H158 H 0.05259 0.43781 1.00376
 C159 C 0.01610 0.47935 1.03690
 H160 H 0.00536 0.49070 1.04595
 C161 C 0.02902 0.46361 1.04869
 H162 H 0.02811 0.46308 1.06677
 Zn163 Zn -0.00207 0.49959 0.99752
 N164 N 0.01654 0.47992 1.01416
 C165 C 0.03725 0.51947 0.98030
 N166 N 0.01476 0.51969 0.97972
 C167 C 0.00346 0.53546 0.96752
 C168 C 0.01479 0.55180 0.95514
 C169 C 0.04926 0.53553 0.96817
 C170 C -0.03224 0.46498 0.99015
 C171 C -0.04475 0.44963 0.97791
 C172 C -0.03197 0.46755 0.94388
 C173 C -0.01967 0.48257 0.95679
 N174 N -0.02009 0.48106 0.97950
 H175 H 0.04593 0.50720 0.99056
 H176 H -0.01443 0.53544 0.96763
 H177 H 0.00546 0.56411 0.94544
 H178 H 0.06713 0.53541 0.96925
 H179 H -0.03187 0.46386 1.00822
 H180 H -0.05391 0.43665 0.98673
 H181 H -0.03150 0.46905 0.92583
 H182 H -0.00951 0.49511 0.94862
 C183 C 0.04232 0.44819 1.03694
 C184 C -0.04345 0.54723 1.04339
 C185 C -0.04464 0.45071 0.95443
 C186 C 0.03801 0.55210 0.95550
 C187 C 1.02921 -0.00488 0.53295
 H188 H 1.02863 0.01342 0.53343
 C189 C 1.04244 -0.01683 0.54814
 H190 H 1.05192 -0.00758 0.56039
 C191 C 1.01662 -0.03909 0.51701
 H192 H 1.00623 -0.04771 0.50513
 C193 C 1.02959 -0.05174 0.53195
 H194 H 1.02937 -0.07003 0.53108
 N195 N 1.01673 -0.01609 0.51773
 C196 C 1.00392 0.03369 0.46501
 H197 H 0.98603 0.03361 0.46487
 C198 C 1.01541 0.04688 0.44949
 H199 H 1.00622 0.05722 0.43766
 C200 C 1.03756 0.02006 0.48055
 H201 H 1.04612 0.00915 0.49230
 C202 C 1.04972 0.03297 0.46529
 H203 H 1.06759 0.03183 0.46552
 Zn204 Zn 0.99814 0.00161 0.49899
 N205 N 1.01507 0.02064 0.48012
 C206 C 0.98003 0.04190 0.51746
 N207 N 0.97978 0.01889 0.51800
 C208 C 0.96750 0.00741 0.53332
 C209 C 0.95470 0.01910 0.54888
 C210 C 0.96747 0.05428 0.53271
 C211 C 0.99219 -0.02957 0.46480
 C212 C 0.98068 -0.04262 0.44935
 C213 C 0.94639 -0.02948 0.46551
 C214 C 0.95858 -0.01668 0.48069
 N215 N 0.98106 -0.01700 0.48009
 H216 H 0.99026 0.05073 0.50549
 H217 H 0.96796 -0.01090 0.53365
 H218 H 0.94543 0.00962 0.56124
 H219 H 0.96781 0.07259 0.53197
 H220 H 1.01007 -0.02925 0.46450
 H221 H 0.98989 -0.05263 0.43742
 H222 H 0.92851 -0.02860 0.46591
 H223 H 0.95003 -0.00612 0.49258
 C224 C 1.03864 0.04645 0.44934
 C225 C 1.04267 -0.04060 0.54784
 C226 C 0.95745 -0.04256 0.44944
 C227 C 0.95468 0.04287 0.54879
 C228 C 0.12397 0.30482 1.14655
 C229 C 0.13306 0.31380 1.12695
 C230 C 0.15274 0.30479 1.11852
 C231 C 0.16327 0.28679 1.12958
 C232 C 0.15426 0.27739 1.14934
 C233 C 0.13444 0.28683 1.15767
 C234 C 0.12202 0.33207 1.11534
 C235 C 0.11260 0.34723 1.10557
 C236 C 0.10137 0.36480 1.09407
 C237 C 0.09159 0.37961 1.08416
 C238 C 0.07962 0.39700 1.07218
 C239 C 0.06868 0.39175 1.05227
 C240 C 0.05668 0.40843 1.04076
 C241 C 0.05544 0.43064 1.04903
 C242 C 0.06656 0.43579 1.06904
 C243 C 0.07859 0.41906 1.08052
 H244 H 0.10871 0.31167 1.15322
 H245 H 0.15991 0.31162 1.10332
 H246 H 0.17842 0.28035 1.12241
 H247 H 0.12675 0.28043 1.17273
 H248 H 0.06929 0.37472 1.04571
 H249 H 0.04802 0.40383 1.02561
 H250 H 0.06611 0.45278 1.07569
 H251 H 0.08703 0.42332 1.09591
 C252 C -0.14994 0.69063 1.12532
 C253 C -0.13010 0.68208 1.13405
 C254 C -0.12058 0.69222 1.15278
 C255 C -0.13077 0.71094 1.16266
 C256 C -0.15066 0.71982 1.15389
 C257 C -0.16017 0.70933 1.13515
 C258 C -0.11928 0.66325 1.12346
 C259 C -0.11018 0.64768 1.11429
 C260 C -0.09946 0.62971 1.10321
 C261 C -0.09023 0.61462 1.09343
 C262 C -0.07910 0.59694 1.08137
 C263 C -0.06071 0.58594 1.09075
 C264 C -0.04931 0.56948 1.07857
 C265 C -0.05618 0.56382 1.05682
 C266 C -0.07489 0.57474 1.04769
 C267 C -0.08624 0.59120 1.05988
 H268 H -0.15746 0.68290 1.11081
 H269 H -0.10516 0.68579 1.15964
 H270 H -0.12284 0.71856 1.17694
 H271 H -0.17552 0.71549 1.12801
 H272 H -0.05505 0.59024 1.10738
 H273 H -0.03513 0.56119 1.08615
 H274 H -0.08040 0.57101 1.03088
 H275 H -0.10038 0.59970 1.05241
 C276 C -0.12215 0.30466 0.84724
 C277 C -0.13104 0.31462 0.86640
 C278 C -0.15024 0.30574 0.87600
 C279 C -0.16044 0.28689 0.86659
 C280 C -0.15156 0.27658 0.84741
 C281 C -0.13232 0.28580 0.83779
 C282 C -0.12019 0.33360 0.87654
 C283 C -0.11104 0.34930 0.88530
 C284 C -0.10024 0.36742 0.89592
 C285 C -0.09096 0.38264 0.90532
 C286 C -0.07980 0.40050 0.91698
 C287 C -0.08932 0.40989 0.93612
 C288 C -0.07806 0.42648 0.94811
 C289 C -0.05708 0.43389 0.94111
 C290 C -0.04780 0.42457 0.92164
 C291 C -0.05909 0.40797 0.90968
 H292 H -0.10728 0.31139 0.83967
 H293 H -0.15723 0.31327 0.89089
 H294 H -0.17511 0.28030 0.87460
 H295 H -0.12502 0.27854 0.82297
 H296 H -0.10535 0.40423 0.94191
 H297 H -0.08578 0.43352 0.96285
 H298 H -0.03156 0.42966 0.91598
 H299 H -0.05152 0.40073 0.89494
 C300 C 0.12288 0.69525 0.84891
 C301 C 0.12895 0.68853 0.87055
 C302 C 0.14589 0.69992 0.88170
 C303 C 0.15671 0.71798 0.87126
 C304 C 0.15071 0.72494 0.84949
 C305 C 0.13367 0.71331 0.83844
 C306 C 0.11761 0.67012 0.88138
 C307 C 0.10793 0.65480 0.89040
 C308 C 0.09639 0.63701 0.90099
 C309 C 0.08635 0.62199 0.91010
 C310 C 0.07414 0.60432 0.92116
 C311 C 0.08202 0.58201 0.92112
 C312 C 0.07023 0.56495 0.93216
 C313 C 0.05037 0.57003 0.94335
 C314 C 0.04256 0.59251 0.94317
 C315 C 0.05437 0.60951 0.93215
 H316 H 0.10978 0.68655 0.84015
 H317 H 0.15067 0.69492 0.89850
 H318 H 0.16957 0.72657 0.88042
 H319 H 0.12868 0.71802 0.82165
 H320 H 0.09728 0.57779 0.91260
 H321 H 0.07655 0.54778 0.93177
 H322 H 0.02753 0.59705 0.95191
 H323 H 0.04815 0.62674 0.93233
 C324 C 1.12275 0.15299 0.30635
 C325 C 1.13156 0.13361 0.31658
 C326 C 1.15142 0.12442 0.30877
 C327 C 1.16240 0.13450 0.29073
 C328 C 1.15366 0.15401 0.28007
 C329 C 1.13366 0.16313 0.28831
 C330 C 1.11998 0.12293 0.33481
 C331 C 1.11007 0.11392 0.34989
 C332 C 1.09824 0.10321 0.36729
 C333 C 1.08794 0.09388 0.38190
 C334 C 1.07542 0.08246 0.39901
 C335 C 1.08307 0.08179 0.42112
 C336 C 1.07105 0.07026 0.43757
 C337 C 1.05119 0.05925 0.43210
 C338 C 1.04362 0.06014 0.40984
 C339 C 1.05566 0.07166 0.39344
 H340 H 1.10735 0.16023 0.31225
 H341 H 1.15836 0.10935 0.31655
 H342 H 1.17764 0.12673 0.28520
 H343 H 1.12615 0.17804 0.28092
 H344 H 1.09835 0.09012 0.42562
 H345 H 1.07721 0.07007 0.45459
 H346 H 1.02861 0.05153 0.40499
 H347 H 1.04963 0.07198 0.37636
 C348 C 1.15281 -0.12005 0.69075
 C349 C 1.13329 -0.12905 0.68210
 C350 C 1.12413 -0.14837 0.69192
 C351 C 1.13432 -0.15859 0.71044
 C352 C 1.15394 -0.14961 0.71956
 C353 C 1.16307 -0.13020 0.70926
 C354 C 1.12240 -0.11819 0.66345
 C355 C 1.11307 -0.10897 0.64803
 C356 C 1.10191 -0.09804 0.63020
 C357 C 1.09215 -0.08858 0.61520
 C358 C 1.08020 -0.07713 0.59759
 C359 C 1.05925 -0.08475 0.59125
 C360 C 1.04719 -0.07311 0.57480
 C361 C 1.05593 -0.05362 0.56450
 C362 C 1.07715 -0.04628 0.57077
 C363 C 1.08918 -0.05796 0.58721
 H364 H 1.16005 -0.10506 0.68327
 H365 H 1.10899 -0.15548 0.68534
 H366 H 1.12658 -0.17344 0.71752
 H367 H 1.17807 -0.12257 0.71541
 H368 H 1.05210 -0.09951 0.59925
 H369 H 1.03080 -0.07902 0.57057
 H370 H 1.08443 -0.03152 0.56294
 H371 H 1.10540 -0.05194 0.59197
 C372 C 0.87632 -0.15195 0.30838
 C373 C 0.86689 -0.13272 0.31801
 C374 C 0.84706 -0.12398 0.30949
 C375 C 0.83675 -0.13428 0.29129
 C376 C 0.84618 -0.15358 0.28117
 C377 C 0.86610 -0.16232 0.29018
 C378 C 0.87787 -0.12165 0.33627
 C379 C 0.88730 -0.11224 0.35131
 C380 C 0.89865 -0.10102 0.36861
 C381 C 0.90862 -0.09125 0.38306
 C382 C 0.92089 -0.07932 0.39989
 C383 C 0.91337 -0.07872 0.42201
 C384 C 0.92528 -0.06686 0.43820
 C385 C 0.94488 -0.05548 0.43244
 C386 C 0.95229 -0.05626 0.41015
 C387 C 0.94037 -0.06810 0.39402
 H388 H 0.89172 -0.15886 0.31483
 H389 H 0.83961 -0.10905 0.31682
 H390 H 0.82150 -0.12685 0.28522
 H391 H 0.87408 -0.17708 0.28323
 H392 H 0.89832 -0.08737 0.42675
 H393 H 0.91928 -0.06679 0.45525
 H394 H 0.96709 -0.04738 0.40507
 H395 H 0.94629 -0.06839 0.37693
 C396 C 0.84738 0.12091 0.69309
 C397 C 0.86779 0.12882 0.68550
 C398 C 0.87834 0.14631 0.69686
 C399 C 0.86863 0.15578 0.71584
 C400 C 0.84810 0.14787 0.72389
 C401 C 0.83759 0.13031 0.71207
 C402 C 0.87820 0.11861 0.66641
 C403 C 0.88712 0.10984 0.65065
 C404 C 0.89782 0.09933 0.63250
 C405 C 0.90719 0.09012 0.61726
 C406 C 0.91865 0.07886 0.59940
 C407 C 0.93947 0.08645 0.59257
 C408 C 0.95106 0.07494 0.57591
 C409 C 0.94197 0.05563 0.56585
 C410 C 0.92090 0.04830 0.57265
 C411 C 0.90933 0.05984 0.58932
 H412 H 0.83906 0.10735 0.68442
 H413 H 0.89419 0.15255 0.69113
 H414 H 0.87747 0.16918 0.72413
 H415 H 0.82184 0.12359 0.71736
 H416 H 0.94688 0.10108 0.60035
 H417 H 0.96737 0.08083 0.57130
 H418 H 0.91334 0.03367 0.56504
 H419 H 0.89322 0.05382 0.59448
 C420 C 0.30921 1.11973 0.15478
 C421 C 0.32049 1.13040 0.13726
 C422 C 0.31347 1.15170 0.12965
 C423 C 0.29517 1.16225 0.13941
 C424 C 0.28357 1.15162 0.15695
 C425 C 0.29090 1.13025 0.16459
 C426 C 0.33894 1.11931 0.12670
 C427 C 0.35420 1.11001 0.11754
 C428 C 0.37180 1.09906 0.10644
 C429 C 0.38657 1.08961 0.09664
 C430 C 0.40385 1.07817 0.08456
 C431 C 0.41016 1.08602 0.06337
 C432 C 0.42619 1.07433 0.05113
 C433 C 0.43612 1.05458 0.05992
 C434 C 0.42990 1.04703 0.08139
 C435 C 0.41386 1.05875 0.09360
 H436 H 0.31444 1.10318 0.16075
 H437 H 0.32207 1.16011 0.11606
 H438 H 0.29022 1.17873 0.13315
 H439 H 0.28238 1.12141 0.17791
 H440 H 0.40244 1.10098 0.05616
 H441 H 0.43038 1.08042 0.03455
 H442 H 0.43743 1.03205 0.08873
 H443 H 0.40913 1.05253 0.10999
 C444 C 0.68967 1.12228 -0.15175
 C445 C 0.68189 1.13049 -0.13132
 C446 C 0.69240 1.14883 -0.12126
 C447 C 0.71076 1.15880 -0.13145
 C448 C 0.71893 1.15053 -0.15189
 C449 C 0.70804 1.13222 -0.16198
 C450 C 0.66356 1.11971 -0.12031
 C451 C 0.64847 1.11054 -0.11077
 C452 C 0.63112 1.09964 -0.09926
 C453 C 0.61659 1.09017 -0.08915
 C454 C 0.59959 1.07863 -0.07676
 C455 C 0.60507 1.06679 -0.05716
 C456 C 0.58873 1.05534 -0.04514
 C457 C 0.56664 1.05557 -0.05257
 C458 C 0.56127 1.06757 -0.07229
 C459 C 0.57766 1.07904 -0.08429
 H460 H 0.68166 1.10808 -0.15969
 H461 H 0.68654 1.15529 -0.10541
 H462 H 0.71864 1.17275 -0.12305
 H463 H 0.71364 1.12545 -0.17775
 H464 H 0.62201 1.06628 -0.05122
 H465 H 0.59347 1.04597 -0.03024
 H466 H 0.54439 1.06825 -0.07830
 H467 H 0.57324 1.08820 -0.09942
 C468 C 0.30491 0.85489 -0.12120
 C469 C 0.31674 0.87163 -0.13263
 C470 C 0.31042 0.87794 -0.15433
 C471 C 0.29229 0.86762 -0.16453
 C472 C 0.28018 0.85082 -0.15314
 C473 C 0.28679 0.84454 -0.13135
 C474 C 0.33506 0.88262 -0.12190
 C475 C 0.35020 0.89193 -0.11267
 C476 C 0.36764 0.90300 -0.10157
 C477 C 0.38226 0.91266 -0.09185
 C478 C 0.39930 0.92451 -0.07995
 C479 C 0.39402 0.94428 -0.06834
 C480 C 0.41036 0.95578 -0.05651
 C481 C 0.43228 0.94766 -0.05610
 C482 C 0.43746 0.92776 -0.06784
 C483 C 0.42106 0.91628 -0.07971
 H484 H 0.30959 0.84993 -0.10435
 H485 H 0.31945 0.89091 -0.16334
 H486 H 0.28789 0.87282 -0.18134
 H487 H 0.27785 0.83185 -0.12194
 H488 H 0.37722 0.95074 -0.06831
 H489 H 0.40576 0.97082 -0.04734
 H490 H 0.45421 0.92121 -0.06802
 H491 H 0.42533 0.90100 -0.08866
 C492 C 0.69329 0.84697 0.12277
 C493 C 0.68396 0.86683 0.13126
 C494 C 0.69314 0.87683 0.15025
 C495 C 0.71167 0.86711 0.16062
 C496 C 0.72135 0.84724 0.15209
 C497 C 0.71183 0.83722 0.13310
 C498 C 0.66531 0.87724 0.12017
 C499 C 0.64991 0.88610 0.11067
 C500 C 0.63217 0.89672 0.09927
 C501 C 0.61730 0.90602 0.08931
 C502 C 0.59995 0.91745 0.07710
 C503 C 0.57832 0.91791 0.08542
 C504 C 0.56167 0.92950 0.07367
 C505 C 0.56646 0.94075 0.05343
 C506 C 0.58824 0.94006 0.04519
 C507 C 0.60483 0.92850 0.05694
 H508 H 0.68632 0.83908 0.10808
 H509 H 0.68609 0.89226 0.15692
 H510 H 0.71855 0.87543 0.17508
 H511 H 0.71860 0.82185 0.12613
 H512 H 0.57435 0.90940 0.10100
 H513 H 0.54503 0.92953 0.08034
 H514 H 0.59258 0.94887 0.02987
 H515 H 0.62153 0.92835 0.05039
   
