data_POSCAR
  _audit_creation_date              2014-09-24
  _audit_creation_method            'ToBaCCo'
  _symmetry_space_group_name_H-M    'P1'
  _symmetry_Int_Tables_number       1
  _symmetry_cell_setting            triclinic
  loop_
  _symmetry_equiv_pos_as_xyz
 x,y,z
_cell_length_a 32.3057
_cell_length_b 32.8569
_cell_length_c 33.7039
_cell_angle_alpha 90.362400
_cell_angle_beta 90.714400
_cell_angle_gamma 89.977200
loop_
  _atom_site_label
  _atom_site_type_symbol
  _atom_site_fract_x
  _atom_site_fract_y
  _atom_site_fract_z
C1 C 0.14508 0.15202 0.21329
 C2 C 0.17502 0.13242 0.18982
 C3 C 0.19606 0.15302 0.15963
 C4 C 0.18461 0.19348 0.15150
 C5 C 0.15311 0.21300 0.17279
 C6 C 0.13486 0.19284 0.20481
 H7 H 0.18494 0.10206 0.19781
 H8 H 0.19864 0.20944 0.12707
 H9 H 0.11040 0.20792 0.22099
 C10 C -0.16280 0.84462 0.21615
 C11 C -0.19987 0.85892 0.19877
 C12 C -0.21869 0.83820 0.16684
 C13 C -0.19981 0.80330 0.15127
 C14 C -0.16203 0.78952 0.16704
 C15 C -0.14418 0.80965 0.19981
 H16 H -0.21558 0.88508 0.21124
 H17 H -0.21354 0.78797 0.12577
 H18 H -0.11476 0.79881 0.21134
 C19 C -0.14122 0.13404 -0.20235
 C20 C -0.12676 0.17283 -0.19097
 C21 C -0.14564 0.19466 -0.16023
 C22 C -0.18114 0.17887 -0.14239
 C23 C -0.19580 0.13976 -0.15258
 C24 C -0.17481 0.11739 -0.18190
 H25 H -0.09955 0.18551 -0.20475
 H26 H -0.19525 0.19581 -0.11840
 H27 H -0.18741 0.08847 -0.19175
 C28 C 0.16923 0.82329 -0.21258
 C29 C 0.15273 0.78769 -0.19652
 C30 C 0.17484 0.76599 -0.16754
 C31 C 0.21347 0.78041 -0.15417
 C32 C 0.22966 0.81745 -0.16821
 C33 C 0.20727 0.83819 -0.19817
 H34 H 0.12308 0.77638 -0.20718
 H35 H 0.22895 0.76421 -0.13036
 H36 H 0.21954 0.86574 -0.21100
 C37 C 0.17764 1.19046 0.76217
 C38 C 0.16066 1.22660 0.77755
 C39 C 0.17920 1.24596 0.81045
 C40 C 0.21523 1.22970 0.82752
 C41 C 0.23197 1.19342 0.81283
 C42 C 0.21301 1.17369 0.78042
 H43 H 0.13253 1.23905 0.76463
 H44 H 0.22923 1.24434 0.85329
 H45 H 0.22610 1.14557 0.76919
 C46 C 0.84305 0.83948 0.78884
 C47 C 0.85804 0.80704 0.81230
 C48 C 0.83626 0.79287 0.84551
 C49 C 0.79903 0.81245 0.85548
 C50 C 0.78266 0.84350 0.83174
 C51 C 0.80419 0.85651 0.79826
 H52 H 0.88716 0.79285 0.80483
 H53 H 0.78128 0.80245 0.88068
 H54 H 0.79180 0.88189 0.78154
 C55 C 0.15374 0.84948 1.20296
 C56 C 0.18592 0.86673 1.18055
 C57 C 0.19705 0.85048 1.14366
 C58 C 0.17551 0.81688 1.12832
 C59 C 0.14428 0.79828 1.15034
 C60 C 0.13413 0.81397 1.18792
 H61 H 0.20324 0.89259 1.19195
 H62 H 0.18364 0.80460 1.09952
 H63 H 0.10876 0.80018 1.20365
 C64 C 0.84961 1.15442 1.22129
 C65 C 0.86910 1.18496 1.19890
 C66 C 0.84750 1.20676 1.16932
 C67 C 0.80604 1.19617 1.16131
 C68 C 0.78660 1.16438 1.18143
 C69 C 0.80794 1.14465 1.21231
 H70 H 0.90015 1.19436 1.20705
 H71 H 0.78915 1.21101 1.13754
 H72 H 0.79300 1.11959 1.22715
 O73 O 0.44329 0.93624 0.92973
 O74 O 0.39628 0.97458 0.96438
 C75 C 0.40572 0.94686 0.93850
 O76 O 0.55796 0.94466 1.07427
 O77 O 0.60171 0.98420 1.03767
 C78 C 0.59459 0.95767 1.06496
 O79 O 0.44156 0.93770 1.06913
 O80 O 0.39513 0.97388 1.03122
 C81 C 0.40409 0.94689 1.05793
 O82 O 0.56030 0.94435 0.92893
 O83 O 0.60262 0.98265 0.96937
 C84 C 0.59678 0.95636 0.94114
 Zr85 Zr 0.50047 0.96104 0.95027
 O86 O 0.50748 0.89700 0.95132
 O87 O 0.49684 0.95995 0.88753
 Zr88 Zr 0.49911 0.96135 1.05053
 O89 O 0.50566 0.89724 1.04871
 O90 O 0.49459 0.96000 1.11308
 O91 O 0.46297 0.95209 0.99955
 O92 O 0.53597 0.95511 1.00124
 O93 O 0.55421 1.08624 0.93019
 O94 O 0.59986 1.04923 0.96819
 C95 C 0.59141 1.07575 0.94109
 O96 O 0.43693 1.08761 1.06668
 O97 O 0.39321 1.04500 1.03197
 C98 C 0.40028 1.07495 1.05634
 O99 O 0.55359 1.08598 1.07422
 O100 O 0.59948 1.05058 1.03574
 C101 C 0.59092 1.07686 1.06310
 O102 O 0.43748 1.08457 0.93041
 O103 O 0.39334 1.04373 0.96499
 C104 C 0.40063 1.07218 0.93955
 Zr105 Zr 0.49639 1.06429 0.95058
 O106 O 0.49822 1.12871 0.95105
 O107 O 0.49287 1.06388 0.88782
 Zr108 Zr 0.49567 1.06433 1.05119
 O109 O 0.49836 1.12857 1.05446
 O110 O 0.48987 1.06158 1.11364
 Zr111 Zr 0.43632 1.01074 0.99928
 Zr112 Zr 0.55876 1.01503 1.00186
 O113 O 0.53136 1.07309 1.00159
 O114 O 0.45892 1.07099 1.00009
 O115 O 0.53515 1.01400 0.94334
 O116 O 0.46129 1.01176 1.05729
 O117 O 0.46278 1.01139 0.94246
 O118 O 0.53406 1.01415 1.05938
 H119 H 0.55590 0.93219 1.00172
 H120 H 0.44216 1.01153 1.08005
 H121 H 0.54913 1.09767 1.00199
 H122 H 0.44459 1.01074 0.91859
 H123 H 0.51461 0.98008 1.12390
 H124 H 0.51597 1.05029 1.12460
 H125 H 0.48097 1.13908 1.03247
 H126 H 0.47354 1.13855 0.96532
 H127 H 0.51711 1.04856 0.87807
 H128 H 0.51828 0.97873 0.87773
 H129 H 0.48384 0.88575 0.96605
 H130 H 0.48115 0.88600 1.03458
 O131 O -0.09052 0.43798 0.06361
 O132 O -0.04730 0.39456 0.03022
 C133 C -0.07781 0.40184 0.05387
 O134 O -0.07857 0.55532 -0.07461
 O135 O -0.04636 0.59924 -0.03106
 C136 C -0.06952 0.59160 -0.06185
 O137 O -0.08394 0.44122 -0.07220
 O138 O -0.04387 0.39631 -0.03678
 C139 C -0.07222 0.40461 -0.06303
 O140 O -0.08814 0.55163 0.07141
 O141 O -0.04831 0.59780 0.03816
 C142 C -0.07683 0.58854 0.06330
 Zr143 Zr -0.06556 0.49548 0.04954
 O144 O -0.13095 0.49535 0.05211
 O145 O -0.06141 0.49235 0.11205
 Zr146 Zr -0.06193 0.49818 -0.05060
 O147 O -0.12733 0.50261 -0.05160
 O148 O -0.06203 0.49457 -0.11329
 O149 O -0.07148 0.46056 -0.00212
 O150 O -0.07184 0.53223 0.00011
 O151 O 0.05598 0.55338 0.08043
 O152 O 0.02025 0.59848 0.04113
 C153 C 0.04557 0.59018 0.07012
 O154 O 0.06673 0.44304 -0.06618
 O155 O 0.02648 0.39723 -0.03317
 C156 C 0.05541 0.40609 -0.05797
 O157 O 0.06203 0.55774 -0.06514
 O158 O 0.02198 0.60069 -0.02779
 C159 C 0.04958 0.59381 -0.05459
 O160 O 0.06190 0.43829 0.07283
 O161 O 0.02472 0.39506 0.03216
 C162 C 0.05235 0.40215 0.05950
 Zr163 Zr 0.03885 0.49630 0.05473
 O164 O 0.10412 0.50155 0.05750
 O165 O 0.03660 0.49042 0.11716
 Zr166 Zr 0.04303 0.49948 -0.04538
 O167 O 0.10822 0.50448 -0.04010
 O168 O 0.04733 0.49712 -0.10798
 Zr169 Zr -0.01077 0.43701 -0.00012
 Zr170 Zr -0.01228 0.55781 0.00395
 O171 O 0.04797 0.53343 0.00623
 O172 O 0.04941 0.46167 0.00374
 O173 O -0.01418 0.53201 0.06100
 O174 O -0.00876 0.46400 -0.05653
 O175 O -0.01334 0.46011 0.05813
 O176 O -0.00956 0.53504 -0.05461
 H177 H -0.09600 0.55078 -0.00095
 H178 H -0.00783 0.44658 -0.08060
 H179 H 0.07177 0.55240 0.00798
 H180 H -0.01404 0.44076 0.08055
 H181 H -0.03961 0.51249 -0.12254
 H182 H 0.02976 0.51917 -0.11880
 H183 H 0.11852 0.47948 -0.02707
 H184 H 0.11571 0.47907 0.04144
 H185 H 0.01525 0.50961 0.12671
 H186 H -0.09029 0.49124 0.12153
 H187 H -0.14144 0.50468 0.02608
 H188 H -0.13828 0.47831 -0.03805
 O189 O 1.08854 -0.08076 0.55636
 O190 O 1.04853 -0.04643 0.60134
 C191 C 1.07817 -0.07136 0.59243
 O192 O 1.07302 0.06889 0.44858
 O193 O 1.03855 0.02685 0.40490
 C194 C 1.06219 0.05775 0.41288
 O195 O 1.08289 0.06139 0.55954
 O196 O 1.04728 0.02112 0.60281
 C197 C 1.07400 0.04930 0.59509
 O198 O 1.07815 -0.08565 0.44465
 O199 O 1.04046 -0.04459 0.40273
 C200 C 1.06652 -0.07383 0.40947
 Zr201 Zr 1.06242 -0.06188 0.50138
 O202 O 1.12742 -0.05888 0.49466
 O203 O 1.06581 -0.12604 0.50528
 Zr204 Zr 1.06016 0.04069 0.50347
 O205 O 1.12519 0.03691 0.49698
 O206 O 1.06542 0.10463 0.50819
 O207 O 1.07047 -0.01086 0.53783
 O208 O 1.06757 -0.00984 0.46740
 O209 O 0.93797 -0.08754 0.44766
 O210 O 0.97174 -0.04588 0.40420
 C211 C 0.94691 -0.07555 0.41214
 O212 O 0.93552 0.05879 0.56189
 O213 O 0.97601 0.02050 0.60390
 C214 C 0.94796 0.04781 0.59700
 O215 O 0.93145 0.06020 0.45062
 O216 O 0.96995 0.02421 0.40565
 C217 C 0.94162 0.05050 0.41463
 O218 O 0.93307 -0.08046 0.55926
 O219 O 0.97620 -0.04690 0.60311
 C220 C 0.94520 -0.07079 0.59499
 Zr221 Zr 0.95799 -0.06449 0.50365
 O222 O 0.89293 -0.07034 0.49928
 O223 O 0.96243 -0.12856 0.50902
 Zr224 Zr 0.95523 0.03851 0.50542
 O225 O 0.88972 0.03604 0.50398
 O226 O 0.95367 0.10285 0.50917
 Zr227 Zr 1.01072 -0.01258 0.56243
 Zr228 Zr 1.00668 -0.01078 0.44450
 O229 O 0.94775 -0.01283 0.47034
 O230 O 0.94958 -0.01345 0.53985
 O231 O 1.00905 -0.07056 0.46704
 O232 O 1.00874 0.04660 0.53880
 O233 O 1.01144 -0.07121 0.53705
 O234 O 1.00614 0.04817 0.46952
 H235 H 1.09056 -0.00887 0.44823
 H236 H 1.00900 0.07060 0.55674
 H237 H 0.92273 -0.01358 0.45304
 H238 H 1.01218 -0.09487 0.55513
 H239 H 1.03712 0.11562 0.50494
 H240 H 0.96876 0.11359 0.48611
 H241 H 0.88069 0.02193 0.52824
 H242 H 0.88109 -0.04587 0.51201
 H243 H 0.97403 -0.13938 0.48406
 H244 H 1.04476 -0.13728 0.48670
 H245 H 1.13870 -0.04287 0.51728
 H246 H 1.13719 0.02858 0.52284
 C247 C 1.11850 0.08860 0.24135
 C248 C 1.12638 0.13077 0.24479
 C249 C 1.11715 0.15049 0.28099
 C250 C 1.10307 0.12806 0.31359
 C251 C 1.09546 0.08590 0.30934
 C252 C 1.10260 0.06667 0.27296
 C253 C 1.08160 0.06339 0.34175
 C254 C 1.07685 0.08196 0.37905
 C255 C 1.08514 0.12375 0.38333
 C256 C 1.09763 0.14673 0.35075
 H257 H 1.12371 0.18263 0.28485
 H258 H 1.09666 0.03442 0.26913
 H259 H 1.07537 0.03117 0.33814
 H260 H 1.10353 0.17897 0.35473
 H261 H 1.12367 0.07246 0.21374
 H262 H 1.08125 0.13879 0.41172
 C263 C 0.85248 -0.09236 0.25307
 C264 C 0.85529 -0.13507 0.24910
 C265 C 0.87616 -0.15714 0.27905
 C266 C 0.89312 -0.13721 0.31232
 C267 C 0.89112 -0.09433 0.31508
 C268 C 0.87081 -0.07221 0.28533
 C269 C 0.90918 -0.07431 0.34774
 C270 C 0.92754 -0.09678 0.37847
 C271 C 0.92818 -0.13939 0.37636
 C272 C 0.91158 -0.15951 0.34319
 H273 H 0.87747 -0.19009 0.27767
 H274 H 0.86892 -0.03932 0.28708
 H275 H 0.90837 -0.04134 0.34968
 H276 H 0.91302 -0.19243 0.34176
 H277 H 0.83769 -0.07406 0.23036
 H278 H 0.94246 -0.15698 0.39992
 C279 C 0.87906 0.06975 0.76568
 C280 C 0.87646 0.11266 0.76557
 C281 C 0.88985 0.13370 0.73175
 C282 C 0.90370 0.11241 0.69831
 C283 C 0.90672 0.06950 0.69921
 C284 C 0.89471 0.04852 0.73316
 C285 C 0.92122 0.04831 0.66593
 C286 C 0.93096 0.06945 0.63127
 C287 C 0.92667 0.11191 0.63015
 C288 C 0.91366 0.13333 0.66360
 H289 H 0.88690 0.16653 0.73022
 H290 H 0.89680 0.01562 0.73436
 H291 H 0.92435 0.01544 0.66670
 H292 H 0.91118 0.16619 0.66227
 H293 H 0.87011 0.05244 0.79143
 H294 H 0.93458 0.12862 0.60369
 C295 C 1.10554 -0.14308 0.76021
 C296 C 1.14684 -0.15521 0.75526
 C297 C 1.16657 -0.14748 0.71920
 C298 C 1.14509 -0.12831 0.68805
 C299 C 1.10369 -0.11565 0.69346
 C300 C 1.08424 -0.12307 0.72969
 C301 C 1.08228 -0.09632 0.66236
 C302 C 1.10124 -0.09061 0.62547
 C303 C 1.14221 -0.10375 0.62028
 C304 C 1.16410 -0.12207 0.65142
 H305 H 1.19831 -0.15728 0.71514
 H306 H 1.05246 -0.11375 0.73428
 H307 H 1.05057 -0.08658 0.66658
 H308 H 1.19576 -0.13168 0.64673
 H309 H 1.08993 -0.14881 0.78788
 H310 H 1.15750 -0.09945 0.59220
 C311 C 0.22760 1.09118 1.13146
 C312 C 0.22837 1.13359 1.13861
 C313 C 0.26294 1.15592 1.12556
 C314 C 0.29645 1.13621 1.10756
 C315 C 0.29491 1.09379 1.10056
 C316 C 0.26017 1.07168 1.11222
 C317 C 0.32853 1.07406 1.08279
 C318 C 0.36437 1.09598 1.07345
 C319 C 0.36593 1.13802 1.08104
 C320 C 0.33203 1.15808 1.09747
 H321 H 0.26525 1.18827 1.13162
 H322 H 0.25841 1.03915 1.10695
 H323 H 0.32739 1.04148 1.07743
 H324 H 0.33390 1.19058 1.10284
 H325 H 0.20119 1.07292 1.13959
 H326 H 0.39329 1.15542 1.07387
 C327 C 0.29798 0.80950 0.86445
 C328 C 0.26607 0.83445 0.84900
 C329 C 0.27024 0.87704 0.85317
 C330 C 0.30417 0.89406 0.87357
 C331 C 0.33592 0.86864 0.88859
 C332 C 0.33270 0.82643 0.88345
 C333 C 0.36982 0.88589 0.90919
 C334 C 0.37122 0.92803 0.91624
 C335 C 0.33923 0.95288 0.90167
 C336 C 0.30623 0.93616 0.88011
 H337 H 0.24575 0.89715 0.84308
 H338 H 0.35674 0.80643 0.89469
 H339 H 0.39436 0.86661 0.92069
 H340 H 0.28209 0.95612 0.86897
 H341 H 0.29685 0.77674 0.86098
 H342 H 0.34017 0.98548 0.90643
 C343 C 0.70869 0.82823 1.14161
 C344 C 0.74257 0.85406 1.14906
 C345 C 0.73953 0.89546 1.13954
 C346 C 0.70319 0.91101 1.12245
 C347 C 0.66895 0.88500 1.11540
 C348 C 0.67199 0.84366 1.12519
 C349 C 0.63265 0.90067 1.09796
 C350 C 0.63089 0.94162 1.08641
 C351 C 0.66512 0.96711 1.09350
 C352 C 0.70083 0.95204 1.11174
 H353 H 0.76583 0.91540 1.14475
 H354 H 0.64616 0.82324 1.11986
 H355 H 0.60645 0.88082 1.09210
 H356 H 0.72682 0.97232 1.11692
 H357 H 0.71049 0.79623 1.14899
 H358 H 0.66422 0.99883 1.08489
 C359 C 0.76655 1.08076 0.87250
 C360 C 0.76900 1.12303 0.86566
 C361 C 0.73497 1.14775 0.87600
 C362 C 0.69881 1.13032 0.89112
 C363 C 0.69737 1.08799 0.89806
 C364 C 0.73141 1.06358 0.88899
 C365 C 0.66182 1.07059 0.91388
 C366 C 0.62702 1.09462 0.92189
 C367 C 0.62785 1.13641 0.91375
 C368 C 0.66374 1.15428 0.89885
 H369 H 0.73550 1.18014 0.87015
 H370 H 0.73076 1.03109 0.89434
 H371 H 0.66106 1.03818 0.91979
 H372 H 0.66410 1.18674 0.89342
 H373 H 0.79241 1.06083 0.86631
 H374 H 0.60126 1.15535 0.92007
 C375 C 0.12877 0.28503 0.18495
 C376 C 0.13666 0.25266 0.15864
 C377 C 0.12762 0.25757 0.11808
 C378 C 0.11071 0.29399 0.10385
 C379 C 0.10309 0.32666 0.13030
 C380 C 0.11244 0.32187 0.17085
 C381 C 0.08544 0.36298 0.11575
 C382 C 0.07431 0.36618 0.07537
 C383 C 0.08228 0.33341 0.04958
 C384 C 0.10059 0.29784 0.06357
 H385 H 0.13274 0.23250 0.09764
 H386 H 0.10670 0.34641 0.19169
 H387 H 0.07900 0.38799 0.13588
 H388 H 0.10624 0.27307 0.04294
 H389 H 0.13551 0.28188 0.21633
 H390 H 0.07422 0.33531 0.01835
 C391 C -0.08375 0.23098 -0.13312
 C392 C -0.12581 0.23195 -0.14417
 C393 C -0.14878 0.26773 -0.13809
 C394 C -0.12987 0.30218 -0.12084
 C395 C -0.08780 0.30038 -0.10884
 C396 C -0.06495 0.26480 -0.11541
 C397 C -0.06928 0.33405 -0.09015
 C398 C -0.09188 0.36998 -0.08395
 C399 C -0.13325 0.37210 -0.09709
 C400 C -0.15224 0.33832 -0.11509
 H401 H -0.18120 0.26866 -0.14677
 H402 H -0.03263 0.26302 -0.10654
 H403 H -0.03717 0.33237 -0.08058
 H404 H -0.18442 0.34038 -0.12430
 H405 H -0.06568 0.20353 -0.13726
 H406 H -0.15118 0.39956 -0.09253
 C407 C 0.17938 0.69310 -0.14693
 C408 C 0.15661 0.72941 -0.14941
 C409 C 0.11691 0.73131 -0.13305
 C410 C 0.10026 0.69744 -0.11382
 C411 C 0.12320 0.66081 -0.11177
 C412 C 0.16265 0.65891 -0.12859
 C413 C 0.10645 0.62689 -0.09262
 C414 C 0.06745 0.62939 -0.07472
 C415 C 0.04517 0.66612 -0.07656
 C416 C 0.06130 0.69975 -0.09617
 H417 H 0.09950 0.75951 -0.13439
 H418 H 0.18074 0.63117 -0.12718
 H419 H 0.12399 0.59879 -0.09113
 H420 H 0.04336 0.72760 -0.09739
 H421 H 0.21007 0.69121 -0.15938
 H422 H 0.01489 0.66868 -0.06331
 C423 C -0.09866 0.75988 0.13667
 C424 C -0.14009 0.75534 0.14801
 C425 C -0.16062 0.71844 0.14046
 C426 C -0.13995 0.68623 0.12177
 C427 C -0.09847 0.69130 0.10975
 C428 C -0.07806 0.72820 0.11745
 C429 C -0.07808 0.65938 0.09033
 C430 C -0.09831 0.62211 0.08359
 C431 C -0.13922 0.61708 0.09633
 C432 C -0.16000 0.64900 0.11498
 H433 H -0.19250 0.71478 0.14950
 H434 H -0.04624 0.73255 0.10859
 H435 H -0.04633 0.66332 0.08099
 H436 H -0.19170 0.64454 0.12414
 H437 H -0.08249 0.78830 0.14208
 H438 H -0.15539 0.58861 0.09127
 C439 C 1.14922 0.19191 0.69280
 C440 C 1.15827 0.16990 0.72742
 C441 C 1.14930 0.12808 0.72857
 C442 C 1.13132 0.10843 0.69552
 C443 C 1.12301 0.13068 0.66051
 C444 C 1.13205 0.17241 0.65949
 C445 C 1.10535 0.11092 0.62734
 C446 C 1.09475 0.06950 0.62912
 C447 C 1.10267 0.04779 0.66419
 C448 C 1.12119 0.06698 0.69698
 H449 H 1.15578 0.11106 0.75540
 H450 H 1.12573 0.18997 0.63299
 H451 H 1.09878 0.12799 0.60055
 H452 H 1.12724 0.04950 0.72358
 H453 H 1.15613 0.22412 0.69134
 H454 H 1.09479 0.01582 0.66612
 C455 C 0.91084 -0.14484 0.75987
 C456 C 0.86710 -0.14496 0.75736
 C457 C 0.84818 -0.12913 0.72275
 C458 C 0.87219 -0.11474 0.69130
 C459 C 0.91584 -0.11423 0.69480
 C460 C 0.93478 -0.12918 0.72929
 C461 C 0.93979 -0.09923 0.66356
 C462 C 0.92063 -0.08643 0.62817
 C463 C 0.87729 -0.08792 0.62461
 C464 C 0.85324 -0.10145 0.65605
 H465 H 0.81481 -0.12986 0.71919
 H466 H 0.96819 -0.12897 0.73257
 H467 H 0.97324 -0.09840 0.66635
 H468 H 0.81985 -0.10181 0.65266
 H469 H 0.92695 -0.15519 0.78629
 H470 H 0.86193 -0.07782 0.59765
 C471 C 1.14284 -0.08869 0.24303
 C472 C 1.14059 -0.13148 0.23865
 C473 C 1.12437 -0.15421 0.27040
 C474 C 1.11136 -0.13476 0.30547
 C475 C 1.11282 -0.09187 0.30844
 C476 C 1.12871 -0.06923 0.27716
 C477 C 1.09828 -0.07225 0.34264
 C478 C 1.08365 -0.09494 0.37465
 C479 C 1.08378 -0.13760 0.37230
 C480 C 1.09706 -0.15738 0.33778
 H481 H 1.12334 -0.18713 0.26871
 H482 H 1.13010 -0.03632 0.27901
 H483 H 1.09868 -0.03931 0.34458
 H484 H 1.09604 -0.19032 0.33630
 H485 H 1.15359 -0.06961 0.21923
 H486 H 1.07241 -0.15553 0.39673
 C487 C 0.91466 0.12755 0.24955
 C488 C 0.87156 0.13430 0.25212
 C489 C 0.85118 0.12153 0.28670
 C490 C 0.87343 0.10402 0.31831
 C491 C 0.91642 0.09715 0.31488
 C492 C 0.93664 0.10874 0.28029
 C493 C 0.93858 0.07928 0.34633
 C494 C 0.91854 0.06963 0.38176
 C495 C 0.87602 0.07744 0.38531
 C496 C 0.85352 0.09403 0.35367
 H497 H 0.81841 0.12734 0.29025
 H498 H 0.96958 0.10363 0.27711
 H499 H 0.97151 0.07366 0.34360
 H500 H 0.82062 0.09932 0.35697
 H501 H 0.93148 0.13547 0.22313
 H502 H 0.86001 0.06989 0.41234
 C503 C 0.17403 0.32046 -0.17567
 C504 C 0.15907 0.28087 -0.17029
 C505 C 0.12667 0.27398 -0.14392
 C506 C 0.10950 0.30642 -0.12251
 C507 C 0.12450 0.34640 -0.12805
 C508 C 0.15662 0.35313 -0.15492
 C509 C 0.10724 0.37886 -0.10652
 C510 C 0.07533 0.37184 -0.07932
 C511 C 0.06116 0.33178 -0.07384
 C512 C 0.07794 0.29946 -0.09531
 H513 H 0.11561 0.24320 -0.13946
 H514 H 0.16859 0.38352 -0.15948
 H515 H 0.11855 0.40950 -0.11112
 H516 H 0.06621 0.26899 -0.09063
 H517 H 0.19939 0.32594 -0.19566
 H518 H 0.03665 0.32531 -0.05319
 C519 C -0.09016 0.23742 0.14037
 C520 C -0.13309 0.23835 0.14789
 C521 C -0.15631 0.27168 0.13339
 C522 C -0.13734 0.30309 0.11240
 C523 C -0.09453 0.30120 0.10468
 C524 C -0.07127 0.26823 0.11870
 C525 C -0.07555 0.33282 0.08387
 C526 C -0.09863 0.36698 0.07207
 C527 C -0.14108 0.36878 0.08016
 C528 C -0.16042 0.33685 0.09975
 H529 H -0.18890 0.27456 0.14003
 H530 H -0.03837 0.26631 0.11305
 H531 H -0.04257 0.33166 0.07831
 H532 H -0.19327 0.33889 0.10559
 H533 H -0.07113 0.21203 0.14971
 H534 H -0.15929 0.39498 0.07133
 C535 C -0.15475 0.75766 -0.09057
 C536 C -0.14864 0.75959 -0.13195
 C537 C -0.12760 0.72710 -0.15053
 C538 C -0.11363 0.69353 -0.12863
 C539 C -0.11886 0.69279 -0.08708
 C540 C -0.13940 0.72503 -0.06837
 C541 C -0.10389 0.65958 -0.06510
 C542 C -0.08556 0.62636 -0.08452
 C543 C -0.08164 0.62677 -0.12590
 C544 C -0.09503 0.66033 -0.14776
 H545 H -0.12394 0.72666 -0.18244
 H546 H -0.14383 0.72491 -0.03656
 H547 H -0.10723 0.65910 -0.03312
 H548 H -0.09106 0.66022 -0.17964
 H549 H -0.16984 0.78222 -0.07481
 H550 H -0.06730 0.60142 -0.14120
 C551 C 0.10068 0.76886 0.09592
 C552 C 0.12099 0.76377 0.13261
 C553 C 0.12068 0.72541 0.15087
 C554 C 0.10127 0.69208 0.13189
 C555 C 0.08100 0.69764 0.09490
 C556 C 0.08051 0.73621 0.07739
 C557 C 0.06227 0.66441 0.07551
 C558 C 0.06416 0.62518 0.09197
 C559 C 0.08440 0.61990 0.12877
 C560 C 0.10252 0.65309 0.14869
 H561 H 0.13670 0.72132 0.17902
 H562 H 0.06518 0.74097 0.04901
 H563 H 0.04708 0.66905 0.04702
 H564 H 0.11799 0.64816 0.17696
 H565 H 0.10064 0.79824 0.08150
 H566 H 0.08618 0.59009 0.14221
 C567 C 0.30721 1.19285 0.82970
 C568 C 0.26797 1.17510 0.83290
 C569 C 0.26267 1.14068 0.85664
 C570 C 0.29644 1.12415 0.87749
 C571 C 0.33615 1.14175 0.87378
 C572 C 0.34122 1.17606 0.84973
 C573 C 0.37003 1.12484 0.89425
 C574 C 0.36471 1.09088 0.91891
 C575 C 0.32484 1.07432 0.92305
 C576 C 0.29111 1.09057 0.90229
 H577 H 0.23213 1.12737 0.85937
 H578 H 0.37136 1.19006 0.84667
 H579 H 0.40045 1.13824 0.89102
 H580 H 0.26085 1.07693 0.90571
 H581 H 0.31145 1.21962 0.81161
 H582 H 0.31968 1.04842 0.94206
 C583 C 0.22576 0.88206 1.08235
 C584 C 0.23166 0.86854 1.12145
 C585 C 0.27079 0.87250 1.13962
 C586 C 0.30377 0.88993 1.11906
 C587 C 0.29741 0.90449 1.08005
 C588 C 0.25828 0.90024 1.06190
 C589 C 0.33025 0.92303 1.05997
 C590 C 0.36959 0.92630 1.07813
 C591 C 0.37566 0.91078 1.11654
 C592 C 0.34301 0.89305 1.13692
 H593 H 0.27556 0.86162 1.16965
 H594 H 0.25285 0.91097 1.03195
 H595 H 0.32529 0.93461 1.03023
 H596 H 0.34847 0.88188 1.16671
 H597 H 0.19574 0.87919 1.06793
 H598 H 0.40556 0.91316 1.13127
 C599 C 0.71400 1.13857 1.19302
 C600 C 0.74571 1.14939 1.16690
 C601 C 0.73884 1.14518 1.12588
 C602 C 0.70108 1.13076 1.11091
 C603 C 0.66911 1.11997 1.13714
 C604 C 0.67590 1.12411 1.17824
 C605 C 0.63161 1.10423 1.12165
 C606 C 0.62671 1.09843 1.08049
 C607 C 0.65857 1.11002 1.05495
 C608 C 0.69528 1.12626 1.06996
 H609 H 0.76339 1.15232 1.10541
 H610 H 0.65193 1.11590 1.19891
 H611 H 0.60726 1.09482 1.14145
 H612 H 0.71949 1.13447 1.04953
 H613 H 0.71859 1.14158 1.22478
 H614 H 0.65525 1.10588 1.02313
 C615 C 0.70629 0.85576 0.82496
 C616 C 0.74423 0.86402 0.84407
 C617 C 0.74527 0.88992 0.87719
 C618 C 0.70867 0.90698 0.89175
 C619 C 0.67020 0.89791 0.87319
 C620 C 0.66946 0.87254 0.83946
 C621 C 0.63335 0.91400 0.88901
 C622 C 0.63478 0.93919 0.92300
 C623 C 0.67359 0.94836 0.94044
 C624 C 0.70999 0.93245 0.92506
 H625 H 0.77463 0.89617 0.89194
 H626 H 0.64040 0.86523 0.82470
 H627 H 0.60382 0.90686 0.87505
 H628 H 0.73922 0.93985 0.93946
 H629 H 0.70512 0.83552 0.79949
 H630 H 0.67604 0.96770 0.96652
   
