data_POSCAR
  _audit_creation_date              2014-09-24
  _audit_creation_method            'ToBaCCo'
  _symmetry_space_group_name_H-M    'P1'
  _symmetry_Int_Tables_number       1
  _symmetry_cell_setting            triclinic
  loop_
  _symmetry_equiv_pos_as_xyz
 x,y,z
_cell_length_a 37.1582
_cell_length_b 38.0020
_cell_length_c 38.0146
_cell_angle_alpha 89.524700
_cell_angle_beta 90.143500
_cell_angle_gamma 89.824600
loop_
  _atom_site_label
  _atom_site_type_symbol
  _atom_site_fract_x
  _atom_site_fract_y
  _atom_site_fract_z
N1 N 0.59028 0.68384 0.60706
 N2 N 0.57968 0.67217 0.63795
 C3 C 0.55149 0.69155 0.64880
 C4 C 0.54390 0.71668 0.62322
 C5 C 0.56909 0.71094 0.59709
 H6 H 0.53742 0.68738 0.67330
 H7 H 0.57216 0.72567 0.57284
 Cu8 Cu 0.60345 0.63269 0.66107
 Cu9 Cu 0.63123 0.66354 0.58257
 Cu10 Cu 0.66684 0.58666 0.61775
 N11 N 0.61902 0.58641 0.67701
 N12 N 0.64414 0.56874 0.66043
 C13 C 0.64979 0.53790 0.67723
 C14 C 0.62675 0.53592 0.70588
 C15 C 0.60755 0.56731 0.70475
 H16 H 0.66863 0.51806 0.66864
 H17 H 0.58684 0.57587 0.72268
 N18 N 0.68590 0.60930 0.57482
 N19 N 0.67269 0.63896 0.56183
 C20 C 0.69197 0.64842 0.53337
 C21 C 0.71844 0.62340 0.52800
 C22 C 0.71372 0.59891 0.55471
 H23 H 0.68700 0.67170 0.51756
 H24 H 0.72983 0.57566 0.55958
 H25 H 0.62099 0.61377 0.60272
 H26 H 0.65715 0.63971 0.62491
 N27 N 0.91807 0.31839 0.10362
 N28 N 0.92948 0.32976 0.13420
 C29 C 0.95513 0.30775 0.14650
 C30 C 0.96052 0.28127 0.12208
 C31 C 0.93642 0.28911 0.09513
 H32 H 0.96856 0.31068 0.17150
 H33 H 0.93152 0.27412 0.07160
 Cu34 Cu 0.90995 0.37256 0.15453
 Cu35 Cu 0.87783 0.34025 0.07877
 Cu36 Cu 0.84092 0.41528 0.11572
 N37 N 0.88998 0.41541 0.17432
 N38 N 0.86290 0.43191 0.15909
 C39 C 0.85502 0.46103 0.17749
 C40 C 0.87856 0.46306 0.20568
 C41 C 0.90037 0.43362 0.20282
 H42 H 0.83438 0.47990 0.17033
 H43 H 0.92239 0.42623 0.22000
 N44 N 0.82257 0.39432 0.07191
 N45 N 0.83681 0.36590 0.05779
 C46 C 0.81727 0.35694 0.02938
 C47 C 0.78941 0.38086 0.02534
 C48 C 0.79372 0.40429 0.05269
 H49 H 0.82239 0.33414 0.01333
 H50 H 0.77619 0.42610 0.05890
 H51 H 0.88646 0.39058 0.09717
 H52 H 0.85409 0.36271 0.12239
 N53 N 0.41255 0.18570 -0.11202
 N54 N 0.42714 0.17069 -0.13958
 C55 C 0.45634 0.18921 -0.14940
 C56 C 0.46034 0.21724 -0.12671
 C57 C 0.43199 0.21418 -0.10334
 H58 H 0.47413 0.18220 -0.17068
 H59 H 0.42621 0.23102 -0.08127
 Cu60 Cu 0.40791 0.12716 -0.15844
 Cu61 Cu 0.37067 0.16616 -0.08822
 Cu62 Cu 0.33604 0.08851 -0.12134
 N63 N 0.38817 0.08362 -0.17680
 N64 N 0.36006 0.06869 -0.16210
 C65 C 0.35257 0.03862 -0.17900
 C66 C 0.37732 0.03436 -0.20579
 C67 C 0.39954 0.06347 -0.20360
 H68 H 0.33119 0.02077 -0.17181
 H69 H 0.42242 0.06940 -0.22007
 N70 N 0.31545 0.11261 -0.08034
 N71 N 0.32846 0.14229 -0.06784
 C72 C 0.30938 0.15144 -0.03924
 C73 C 0.28321 0.12626 -0.03335
 C74 C 0.28786 0.10207 -0.05996
 H75 H 0.31480 0.17414 -0.02315
 H76 H 0.27257 0.07829 -0.06393
 H77 H 0.38051 0.11440 -0.10153
 H78 H 0.35010 0.14021 -0.13127
 N79 N 0.08651 0.81626 0.39314
 N80 N 0.07290 0.83045 0.36441
 C81 C 0.04671 0.80946 0.35204
 C82 C 0.04354 0.78051 0.37433
 C83 C 0.06935 0.78589 0.40016
 H84 H 0.03128 0.81491 0.32849
 H85 H 0.07590 0.76861 0.42197
 Cu86 Cu 0.09108 0.87452 0.34515
 Cu87 Cu 0.12622 0.83755 0.41857
 Cu88 Cu 0.16214 0.91403 0.38341
 N89 N 0.11286 0.91669 0.32526
 N90 N 0.14072 0.93183 0.34008
 C91 C 0.15079 0.95968 0.32036
 C92 C 0.12800 0.96217 0.29159
 C93 C 0.10427 0.93442 0.29559
 H94 H 0.17313 0.97674 0.32649
 H95 H 0.08287 0.92725 0.27776
 N96 N 0.18013 0.89207 0.42713
 N97 N 0.16645 0.86292 0.44052
 C98 C 0.18439 0.85456 0.47027
 C99 C 0.21064 0.87964 0.47590
 C100 C 0.20710 0.90304 0.44803
 H101 H 0.17858 0.83207 0.48686
 H102 H 0.22314 0.92625 0.44320
 H103 H 0.11685 0.88885 0.40240
 H104 H 0.14805 0.86211 0.37475
 C105 C 0.09673 0.12181 0.15698
 C106 C 0.06892 0.14681 0.15663
 C107 C 0.06607 0.17142 0.12902
 C108 C 0.09172 0.17153 0.10195
 C109 C 0.12035 0.14738 0.10248
 C110 C 0.12272 0.12223 0.12995
 C111 C 0.09875 0.09613 0.18365
 C112 C 0.12631 0.07078 0.18354
 C113 C 0.15263 0.07188 0.15713
 C114 C 0.15095 0.09735 0.13029
 C115 C 0.17689 0.09813 0.10362
 C116 C 0.17506 0.12345 0.07654
 C117 C 0.14656 0.14783 0.07595
 H118 H 0.04893 0.14668 0.17737
 H119 H 0.08958 0.19075 0.08081
 H120 H 0.07901 0.09604 0.20451
 H121 H 0.17397 0.05234 0.15710
 H122 H 0.19881 0.07922 0.10404
 H123 H 0.14437 0.16673 0.05463
 C124 C 0.40602 0.87582 0.65813
 C125 C 0.43280 0.84985 0.65602
 C126 C 0.43248 0.82527 0.62861
 C127 C 0.40500 0.82680 0.60317
 C128 C 0.37778 0.85235 0.60516
 C129 C 0.37832 0.87704 0.63269
 C130 C 0.40646 0.90059 0.68527
 C131 C 0.37944 0.92640 0.68746
 C132 C 0.35209 0.92767 0.66194
 C133 C 0.35125 0.90307 0.63467
 C134 C 0.32371 0.90399 0.60941
 C135 C 0.32266 0.87908 0.58234
 C136 C 0.34998 0.85358 0.58014
 H137 H 0.45425 0.84913 0.67537
 H138 H 0.40448 0.80768 0.58217
 H139 H 0.42762 0.89967 0.70496
 H140 H 0.33185 0.94815 0.66285
 H141 H 0.30267 0.92374 0.61107
 H142 H 0.35000 0.83505 0.55871
 C143 C 0.91066 0.61954 0.34204
 C144 C 0.93784 0.64503 0.34260
 C145 C 0.93833 0.67086 0.36875
 C146 C 0.91103 0.67154 0.39419
 C147 C 0.88361 0.64624 0.39395
 C148 C 0.88347 0.62001 0.36789
 C149 C 0.91008 0.59373 0.31594
 C150 C 0.88256 0.56851 0.31511
 C151 C 0.85579 0.56875 0.34113
 C152 C 0.85605 0.59437 0.36754
 C153 C 0.82922 0.59496 0.39344
 C154 C 0.82905 0.62124 0.41924
 C155 C 0.85626 0.64683 0.41926
 H156 H 0.95884 0.64473 0.32284
 H157 H 0.91073 0.69210 0.41372
 H158 H 0.93075 0.59353 0.29585
 H159 H 0.83506 0.54884 0.34114
 H160 H 0.80799 0.57548 0.39308
 H161 H 0.85636 0.66694 0.43933
 C162 C 0.59561 0.37755 -0.15894
 C163 C 0.56920 0.35126 -0.15742
 C164 C 0.56986 0.32575 -0.13048
 C165 C 0.59690 0.32698 -0.10466
 C166 C 0.62350 0.35303 -0.10587
 C167 C 0.62297 0.37842 -0.13313
 C168 C 0.59521 0.40291 -0.18592
 C169 C 0.62206 0.42872 -0.18770
 C170 C 0.64921 0.42961 -0.16199
 C171 C 0.64981 0.40464 -0.13458
 C172 C 0.67681 0.40534 -0.10866
 C173 C 0.67736 0.38009 -0.08145
 C174 C 0.65070 0.35398 -0.08033
 H175 H 0.54792 0.35102 -0.17688
 H176 H 0.59746 0.30725 -0.08388
 H177 H 0.57428 0.40243 -0.20585
 H178 H 0.66955 0.44995 -0.16314
 H179 H 0.69770 0.42504 -0.11017
 H180 H 0.65102 0.33455 -0.05928
 C181 C 0.00411 0.24544 0.15544
 C182 C -0.01611 0.25211 0.12478
 C183 C -0.01246 0.22761 0.09709
 C184 C 0.01355 0.20061 0.09878
 C185 C 0.03599 0.19684 0.12844
 C186 C 0.02908 0.21823 0.15734
 C187 C 0.05467 0.23910 0.17893
 C188 C 0.02760 0.26907 0.17679
 H189 H -0.02811 0.23012 0.07320
 H190 H 0.01704 0.18350 0.07639
 H191 H 0.08028 0.24478 0.16494
 H192 H 0.05783 0.22804 0.20593
 H193 H 0.03748 0.29215 0.16149
 H194 H 0.01550 0.27536 0.20271
 C195 C 0.49785 0.75333 0.65466
 C196 C 0.51556 0.74406 0.62381
 C197 C 0.50494 0.76286 0.59307
 C198 C 0.47778 0.78923 0.59436
 C199 C 0.46087 0.79799 0.62651
 C200 C 0.47245 0.77913 0.65600
 C201 C 0.46619 0.77432 0.69439
 C202 C 0.49510 0.74526 0.69298
 H203 H 0.51719 0.75711 0.56798
 H204 H 0.47039 0.80296 0.57033
 H205 H 0.43876 0.76424 0.70013
 H206 H 0.47462 0.79756 0.70990
 H207 H 0.48422 0.71851 0.69818
 H208 H 0.52017 0.75187 0.70746
 C209 C 1.01845 0.72515 0.39696
 C210 C 1.02019 0.75162 0.37101
 C211 C 0.99762 0.74752 0.34123
 C212 C 0.97175 0.72049 0.34003
 C213 C 0.96724 0.69737 0.36879
 C214 C 0.99252 0.69901 0.39601
 C215 C 0.98838 0.69846 0.43504
 C216 C 1.01679 0.72714 0.43619
 H217 H 0.99885 0.76566 0.31921
 H218 H 0.95400 0.71886 0.31747
 H219 H 0.99761 0.67317 0.44691
 H220 H 0.96166 0.70783 0.44407
 H221 H 1.04225 0.71822 0.44889
 H222 H 1.00626 0.75284 0.44551
 C223 C 0.51363 0.24650 -0.15465
 C224 C 0.48998 0.24316 -0.12621
 C225 C 0.49617 0.26490 -0.09687
 C226 C 0.52252 0.29149 -0.09812
 C227 C 0.54272 0.29744 -0.12894
 C228 C 0.53902 0.27313 -0.15618
 C229 C 0.53410 0.27786 -0.19496
 C230 C 0.50645 0.24848 -0.19324
 H231 H 0.48012 0.26216 -0.07332
 H232 H 0.52601 0.30838 -0.07556
 H233 H 0.55866 0.27059 -0.20989
 H234 H 0.52182 0.30353 -0.20244
 H235 H 0.51526 0.22427 -0.20703
 H236 H 0.47859 0.25739 -0.19943
 C237 C 0.10079 -0.00892 0.23828
 C238 C 0.12935 -0.01212 0.26220
 C239 C 0.15947 0.00983 0.25676
 C240 C 0.15871 0.03654 0.23078
 C241 C 0.12756 0.04237 0.21027
 C242 C 0.09974 0.01780 0.21326
 C243 C 0.05994 0.02217 0.21686
 C244 C 0.06114 -0.00730 0.24415
 H245 H 0.18318 0.00722 0.27315
 H246 H 0.18180 0.05362 0.22783
 H247 H 0.04532 0.01484 0.19247
 H248 H 0.05189 0.04773 0.22842
 H249 H 0.04734 -0.03160 0.23531
 H250 H 0.05410 0.00146 0.27112
 C251 C 0.64672 0.47893 -0.27035
 C252 C 0.62314 0.50790 -0.26996
 C253 C 0.59540 0.50727 -0.24445
 C254 C 0.59435 0.48077 -0.21830
 C255 C 0.62131 0.45476 -0.21658
 C256 C 0.64593 0.45323 -0.24422
 C257 C 0.68584 0.44910 -0.24394
 C258 C 0.68688 0.47730 -0.27251
 H259 H 0.57504 0.52763 -0.24375
 H260 H 0.57357 0.48166 -0.19839
 H261 H 0.69442 0.42276 -0.25333
 H262 H 0.69850 0.45766 -0.21894
 H263 H 0.69627 0.46708 -0.29823
 H264 H 0.69992 0.50210 -0.26392
 C265 C 0.35259 0.97944 0.76717
 C266 C 0.38006 1.00445 0.76963
 C267 C 0.41043 0.99972 0.74786
 C268 C 0.41067 0.97354 0.72177
 C269 C 0.38032 0.95204 0.71643
 C270 C 0.35250 0.95423 0.74107
 C271 C 0.31250 0.95584 0.73723
 C272 C 0.31264 0.98344 0.76599
 H273 H 0.43343 1.01696 0.74992
 H274 H 0.43374 0.97141 0.70454
 H275 H 0.29939 0.93085 0.74543
 H276 H 0.30331 0.96680 0.71159
 H277 H 0.29966 0.97419 0.79068
 H278 H 0.30402 1.00998 0.75665
 C279 C 0.85338 0.51628 0.23557
 C280 C 0.88113 0.49162 0.23177
 C281 C 0.91184 0.49560 0.25333
 C282 C 0.91245 0.52095 0.28019
 C283 C 0.88214 0.54233 0.28659
 C284 C 0.85367 0.54073 0.26246
 C285 C 0.81391 0.53801 0.26755
 C286 C 0.81364 0.51139 0.23790
 H287 H 0.93500 0.47861 0.25022
 H288 H 0.93600 0.52279 0.29691
 H289 H 0.79974 0.56294 0.26066
 H290 H 0.80623 0.52608 0.29320
 H291 H 0.79948 0.52114 0.21393
 H292 H 0.80611 0.48440 0.24662
 C293 C 0.25170 0.15350 0.01802
 C294 C 0.25758 0.12446 -0.00366
 C295 C 0.23866 0.09328 0.00445
 C296 C 0.21205 0.09292 0.03078
 C297 C 0.20322 0.12386 0.04913
 C298 C 0.22498 0.15337 0.04345
 C299 C 0.21592 0.19117 0.03663
 C300 C 0.24542 0.19129 0.00898
 H301 H 0.24356 0.06939 -0.01007
 H302 H 0.19732 0.06885 0.03577
 H303 H 0.22216 0.20805 0.05957
 H304 H 0.18880 0.19517 0.02490
 H305 H 0.26871 0.20805 0.01620
 H306 H 0.23517 0.19510 -0.01830
 C307 C 0.76412 0.59287 0.49016
 C308 C 0.74602 0.62337 0.50006
 C309 C 0.75574 0.65451 0.48163
 C310 C 0.78274 0.65402 0.45525
 C311 C 0.80032 0.62227 0.44605
 C312 C 0.78931 0.59227 0.46426
 C313 C 0.79668 0.55398 0.46873
 C314 C 0.76800 0.55454 0.49791
 H315 H 0.74309 0.67935 0.48788
 H316 H 0.78965 0.67839 0.44198
 H317 H 0.82435 0.54876 0.47869
 H318 H 0.78853 0.53855 0.44535
 H319 H 0.77928 0.54934 0.52456
 H320 H 0.74326 0.53960 0.49126
 C321 C 0.73654 0.40863 -0.00547
 C322 C 0.75950 0.37973 -0.00041
 C323 C 0.75222 0.34917 -0.02002
 C324 C 0.72538 0.34934 -0.04624
 C325 C 0.70563 0.38020 -0.05398
 C326 C 0.71057 0.40904 -0.03179
 C327 C 0.71677 0.44714 -0.03962
 C328 C 0.74495 0.44667 -0.01055
 H329 H 0.76770 0.32535 -0.01582
 H330 H 0.72100 0.32571 -0.06139
 H331 H 0.69290 0.46360 -0.03330
 H332 H 0.72873 0.45204 -0.06595
 H333 H 0.73712 0.46262 0.01260
 H334 H 0.77280 0.45109 -0.02023
 C335 C 0.24169 0.85230 0.52812
 C336 C 0.23650 0.88117 0.50552
 C337 C 0.25701 0.91164 0.51220
 C338 C 0.28457 0.91117 0.53777
 C339 C 0.29273 0.88007 0.55668
 C340 C 0.26928 0.85159 0.55271
 C341 C 0.27585 0.81317 0.54748
 C342 C 0.24542 0.81399 0.52065
 H343 H 0.25278 0.93545 0.49694
 H344 H 0.30067 0.93457 0.54148
 H345 H 0.26940 0.79738 0.57137
 H346 H 0.30221 0.80717 0.53520
 H347 H 0.22146 0.79878 0.52927
 H348 H 0.25447 0.80885 0.49330
   
