data_POSCAR
  _audit_creation_date              2014-09-24
  _audit_creation_method            'ToBaCCo'
  _symmetry_space_group_name_H-M    'P1'
  _symmetry_Int_Tables_number       1
  _symmetry_cell_setting            triclinic
  loop_
  _symmetry_equiv_pos_as_xyz
 x,y,z
_cell_length_a 29.2955
_cell_length_b 29.3231
_cell_length_c 39.7580
_cell_angle_alpha 90.014700
_cell_angle_beta 89.316000
_cell_angle_gamma 90.107000
loop_
  _atom_site_label
  _atom_site_type_symbol
  _atom_site_fract_x
  _atom_site_fract_y
  _atom_site_fract_z
C1 C 0.00016 0.50138 0.98329
 C2 C 0.00130 0.50155 1.01756
 C3 C -0.00032 0.54468 1.03719
 C4 C 0.00430 0.45857 1.03721
 C5 C -0.00281 0.45820 0.96387
 C6 C 0.00207 0.54429 0.96345
 C7 C 0.03332 0.55374 1.06091
 C8 C 0.03261 0.59416 1.07945
 C9 C -0.00221 0.62722 1.07510
 C10 C -0.03638 0.61688 1.05119
 C11 C -0.03549 0.57626 1.03280
 C12 C 0.03956 0.42715 1.03113
 C13 C 0.04158 0.38659 1.04951
 C14 C 0.00870 0.37698 1.07459
 C15 C -0.02606 0.40894 1.08100
 C16 C -0.02812 0.44939 1.06256
 C17 C -0.03818 0.42678 0.96999
 C18 C -0.04000 0.38588 0.95197
 C19 C -0.00668 0.37584 0.92733
 C20 C 0.02811 0.40785 0.92080
 C21 C 0.02989 0.44869 0.93881
 C22 C -0.03173 0.55327 0.93967
 C23 C -0.03063 0.59359 0.92101
 C24 C 0.00451 0.62564 0.92559
 C25 C 0.03874 0.61626 0.94910
 C26 C 0.03767 0.57582 0.96771
 H27 H 0.06096 0.52980 1.06455
 H28 H 0.06131 0.59973 1.09573
 H29 H -0.06562 0.63856 1.04741
 H30 H -0.06265 0.56923 1.01528
 H31 H 0.06550 0.43407 1.01218
 H32 H 0.06920 0.36300 1.04441
 H33 H -0.05549 0.47328 1.06769
 H34 H -0.06420 0.43384 0.98884
 H35 H -0.06706 0.36181 0.95769
 H36 H 0.05378 0.40147 0.90156
 H37 H 0.05719 0.47270 0.93351
 H38 H -0.05939 0.52929 0.93595
 H39 H -0.05775 0.60005 0.90337
 H40 H 0.06666 0.63991 0.95277
 H41 H 0.06465 0.56906 0.98540
 H42 H -0.05215 0.40231 1.09989
 C43 C 0.49963 -0.00273 0.48265
 C44 C 0.49959 -0.00241 0.51694
 C45 C 0.45643 -0.00425 0.53691
 C46 C 0.54265 -0.00003 0.53623
 C47 C 0.54270 -0.00541 0.46263
 C48 C 0.45656 -0.00031 0.46338
 C49 C 0.44726 0.02952 0.56103
 C50 C 0.40640 0.02884 0.57947
 C51 C 0.37402 -0.00586 0.57433
 C52 C 0.38376 -0.04024 0.55066
 C53 C 0.42468 -0.03954 0.53222
 C54 C 0.57433 0.03525 0.53067
 C55 C 0.61497 0.03670 0.54871
 C56 C 0.62450 0.00308 0.57284
 C57 C 0.59227 -0.03168 0.57877
 C58 C 0.55169 -0.03309 0.56073
 C59 C 0.57416 -0.04072 0.46780
 C60 C 0.61479 -0.04242 0.44906
 C61 C 0.62445 -0.00915 0.42451
 C62 C 0.59246 0.02567 0.41900
 C63 C 0.55194 0.02741 0.43781
 C64 C 0.44690 -0.03389 0.43937
 C65 C 0.40627 -0.03246 0.42140
 C66 C 0.37462 0.00284 0.42690
 C67 C 0.38480 0.03697 0.45053
 C68 C 0.42548 0.03550 0.46851
 H69 H 0.47153 0.05678 0.56524
 H70 H 0.40026 0.05533 0.59795
 H71 H 0.35941 -0.06727 0.54600
 H72 H 0.43148 -0.06636 0.51412
 H73 H 0.56762 0.06155 0.51226
 H74 H 0.63922 0.06375 0.54345
 H75 H 0.52747 -0.06033 0.56562
 H76 H 0.56719 -0.06697 0.48634
 H77 H 0.63841 -0.07008 0.45347
 H78 H 0.59914 0.05208 0.40055
 H79 H 0.52805 0.05484 0.43337
 H80 H 0.47065 -0.06154 0.43483
 H81 H 0.39979 -0.05877 0.40294
 H82 H 0.36101 0.06445 0.45546
 H83 H 0.43269 0.06219 0.48653
 H84 H 0.59826 -0.05758 0.59761
 C85 C 0.09698 0.00597 0.26155
 H86 H 0.09906 0.00750 0.23439
 C87 C 0.13678 0.00739 0.28049
 H88 H 0.16971 0.00984 0.26792
 C89 C 0.05153 0.00123 0.31122
 H90 H 0.01826 -0.00057 0.32313
 C91 C 0.09052 0.00257 0.33111
 H92 H 0.08719 0.00132 0.35826
 N93 N 0.05547 0.00231 0.27707
 C94 C -0.03276 -0.06008 0.20221
 H95 H -0.06010 -0.03536 0.20141
 C96 C -0.03504 -0.09959 0.18265
 H97 H -0.06410 -0.10532 0.16658
 C98 C 0.03813 -0.08344 0.22465
 H99 H 0.06616 -0.07752 0.24149
 C100 C 0.03717 -0.12337 0.20553
 H101 H 0.06471 -0.14780 0.20745
 Zn102 Zn 0.00345 0.00082 0.24929
 N103 N 0.00365 -0.05256 0.22245
 C104 C 0.00563 0.05107 0.18787
 N105 N 0.00555 0.05376 0.22207
 C106 C 0.00849 0.09466 0.23809
 C107 C 0.01041 0.13513 0.21963
 C108 C 0.00750 0.09077 0.16845
 C109 C -0.05876 -0.03738 0.29540
 C110 C -0.09877 -0.04049 0.31475
 C111 C -0.12228 0.03238 0.29254
 C112 C -0.08185 0.03416 0.27362
 N113 N -0.05085 -0.00024 0.27562
 H114 H 0.00438 0.01827 0.17558
 H115 H 0.00910 0.09574 0.26528
 H116 H 0.01231 0.16756 0.23260
 H117 H 0.00721 0.08844 0.14126
 H118 H -0.03391 -0.06460 0.29606
 H119 H -0.10476 -0.07009 0.33050
 H120 H -0.14677 0.05990 0.29083
 H121 H -0.07559 0.06281 0.25714
 C122 C 0.00029 -0.13148 0.18433
 C123 C 0.13351 0.00547 0.31557
 C124 C -0.13075 -0.00523 0.31332
 C125 C 0.00972 0.13315 0.18451
 C126 C -0.00967 0.09515 0.76253
 H127 H -0.01052 0.09667 0.73535
 C128 C -0.01134 0.13531 0.78137
 H129 H -0.01332 0.16795 0.76871
 C130 C -0.00625 0.05076 0.81231
 H131 H -0.00484 0.01777 0.82430
 C132 C -0.00788 0.09013 0.83210
 H133 H -0.00722 0.08735 0.85927
 N134 N -0.00651 0.05400 0.77815
 C135 C 0.05790 -0.03559 0.70396
 H136 H 0.03322 -0.06305 0.70320
 C137 C 0.09779 -0.03806 0.68444
 H138 H 0.10385 -0.06740 0.66844
 C139 C 0.08067 0.03593 0.72614
 H140 H 0.07433 0.06432 0.74282
 C141 C 0.12097 0.03479 0.70704
 H142 H 0.14528 0.06256 0.70882
 Zn143 Zn -0.00430 0.00145 0.75049
 N144 N 0.04987 0.00125 0.72401
 C145 C -0.05259 0.00230 0.68868
 N146 N -0.05646 0.00282 0.72285
 C147 C -0.09796 0.00580 0.73844
 C148 C -0.13782 0.00712 0.71956
 C149 C -0.09163 0.00357 0.66885
 C150 C 0.03268 -0.05962 0.79692
 C151 C 0.03535 -0.09923 0.81631
 C152 C -0.03701 -0.12346 0.79377
 C153 C -0.03836 -0.08340 0.77481
 N154 N -0.00400 -0.05225 0.77695
 H155 H -0.01934 0.00105 0.67672
 H156 H -0.09999 0.00689 0.76562
 H157 H -0.17073 0.00904 0.73219
 H158 H -0.08834 0.00279 0.64169
 H159 H 0.05990 -0.03467 0.79768
 H160 H 0.06461 -0.10481 0.83219
 H161 H -0.06447 -0.14809 0.79193
 H162 H -0.06661 -0.07758 0.75818
 C163 C 0.12954 -0.00248 0.68597
 C164 C -0.01020 0.13276 0.81646
 C165 C 0.00014 -0.13139 0.81472
 C166 C -0.13460 0.00579 0.68446
 C167 C -0.00289 -0.24973 0.13016
 C168 C -0.02787 -0.25337 0.10064
 C169 C -0.02795 -0.29414 0.08238
 C170 C -0.00273 -0.33276 0.09314
 C171 C 0.02212 -0.32791 0.12344
 C172 C 0.02195 -0.28706 0.14151
 C173 C -0.00243 -0.20770 0.14885
 C174 C -0.00147 -0.17279 0.16485
 H175 H -0.04694 -0.22440 0.09142
 H176 H -0.04613 -0.29366 0.05892
 H177 H 0.04026 -0.35591 0.13472
 H178 H 0.04102 -0.28477 0.16465
 C179 C 0.01178 0.25155 0.13049
 C180 C 0.02159 0.25148 0.09595
 C181 C 0.02098 0.29231 0.07777
 C182 C 0.01043 0.33373 0.09395
 C183 C 0.00093 0.33344 0.12873
 C184 C 0.00161 0.29261 0.14684
 C185 C 0.01154 0.20951 0.14916
 C186 C 0.01092 0.17455 0.16511
 H187 H 0.02938 0.21986 0.08302
 H188 H 0.02789 0.29137 0.05097
 H189 H -0.00670 0.36483 0.14198
 H190 H -0.00592 0.29306 0.17359
 C191 C 0.24768 -0.00563 0.63049
 C192 C 0.26560 0.03519 0.61774
 C193 C 0.30657 0.03508 0.59938
 C194 C 0.33023 -0.00594 0.59352
 C195 C 0.31179 -0.04687 0.60627
 C196 C 0.27079 -0.04667 0.62467
 C197 C 0.20587 -0.00517 0.64985
 C198 C 0.17099 -0.00422 0.66623
 H199 H 0.24793 0.06713 0.62203
 H200 H 0.31953 0.06704 0.58948
 H201 H 0.32945 -0.07891 0.60251
 H202 H 0.25728 -0.07846 0.63452
 C203 C -0.25075 0.00576 0.62870
 C204 C -0.26786 -0.03560 0.61659
 C205 C -0.30827 -0.03644 0.59827
 C206 C -0.33216 0.00416 0.59182
 C207 C -0.31450 0.04564 0.60389
 C208 C -0.27407 0.04639 0.62224
 C209 C -0.20961 0.00631 0.64812
 C210 C -0.17533 0.00630 0.66459
 H211 H -0.25002 -0.06723 0.62137
 H212 H -0.32064 -0.06880 0.58891
 H213 H -0.33237 0.07738 0.59966
 H214 H -0.26119 0.07859 0.63160
 C215 C 0.00484 -0.24944 0.86900
 C216 C -0.00639 -0.29064 0.85337
 C217 C -0.00618 -0.33130 0.87169
 C218 C 0.00528 -0.33129 0.90596
 C219 C 0.01686 -0.28972 0.92140
 C220 C 0.01659 -0.24906 0.90302
 C221 C 0.00368 -0.20757 0.85016
 C222 C 0.00228 -0.17271 0.83414
 H223 H -0.01543 -0.29133 0.82703
 H224 H -0.01464 -0.36282 0.85899
 H225 H 0.02528 -0.28853 0.94784
 H226 H 0.02520 -0.21732 0.91539
 C227 C -0.01003 0.24994 0.87194
 C228 C -0.05062 0.27341 0.87891
 C229 C -0.04966 0.31423 0.89710
 C230 C -0.00800 0.33213 0.90849
 C231 C 0.03256 0.30809 0.90153
 C232 C 0.03150 0.26730 0.88338
 C233 C -0.01076 0.20843 0.85265
 C234 C -0.01079 0.17383 0.83627
 H235 H -0.08295 0.26034 0.87007
 H236 H -0.08137 0.33220 0.90174
 H237 H 0.06506 0.32064 0.91038
 H238 H 0.06311 0.24935 0.87819
 C239 C -0.24976 -0.01052 0.36770
 C240 C -0.24980 -0.02114 0.40202
 C241 C -0.29076 -0.02117 0.42047
 C242 C -0.33220 -0.01046 0.40479
 C243 C -0.33180 -0.00023 0.37021
 C244 C -0.29085 -0.00026 0.35183
 C245 C -0.20756 -0.00930 0.34883
 C246 C -0.17242 -0.00772 0.33277
 H247 H -0.21815 -0.02898 0.41458
 H248 H -0.28989 -0.02865 0.44713
 H249 H -0.36321 0.00754 0.35734
 H250 H -0.29121 0.00792 0.32526
 C251 C 0.24967 0.00555 0.37131
 C252 C 0.26618 -0.03569 0.38396
 C253 C 0.30666 -0.03653 0.40219
 C254 C 0.33122 0.00394 0.40801
 C255 C 0.31416 0.04531 0.39540
 C256 C 0.27366 0.04605 0.37714
 C257 C 0.20850 0.00606 0.35193
 C258 C 0.17420 0.00602 0.33547
 H259 H 0.24782 -0.06723 0.37966
 H260 H 0.31855 -0.06879 0.41198
 H261 H 0.33256 0.07693 0.39914
 H262 H 0.26125 0.07815 0.36735
   
