data_POSCAR
  _audit_creation_date              2014-09-24
  _audit_creation_method            'ToBaCCo'
  _symmetry_space_group_name_H-M    'P1'
  _symmetry_Int_Tables_number       1
  _symmetry_cell_setting            triclinic
  loop_
  _symmetry_equiv_pos_as_xyz
 x,y,z
_cell_length_a 30.2481
_cell_length_b 28.7261
_cell_length_c 26.4578
_cell_angle_alpha 90.109200
_cell_angle_beta 90.017100
_cell_angle_gamma 112.037200
loop_
  _atom_site_label
  _atom_site_type_symbol
  _atom_site_fract_x
  _atom_site_fract_y
  _atom_site_fract_z
O1 O 0.00199 0.36919 0.04921
 O2 O 0.08525 0.36773 -0.05188
 O3 O 0.00122 0.36844 -0.05094
 O4 O 0.08680 0.36856 0.04846
 O5 O 0.05588 0.28551 0.04964
 O6 O -0.02732 0.28539 -0.05105
 O7 O 0.05915 0.28501 -0.04693
 O8 O -0.02958 0.28621 0.04733
 Cu9 Cu 0.04684 0.37697 -0.00125
 Cu10 Cu 0.01126 0.27720 -0.00038
 C11 C -0.02768 0.32776 0.06562
 C12 C 0.08639 0.32604 -0.06648
 C13 C -0.02672 0.32666 -0.06865
 C14 C 0.08524 0.32694 0.06634
 O15 O 0.58968 0.87919 0.45970
 O16 O 0.49337 0.87365 0.54740
 O17 O 0.57744 0.87446 0.56068
 O18 O 0.49937 0.87533 0.45392
 O19 O 0.47239 0.79240 0.45056
 O20 O 0.55610 0.79249 0.55142
 O21 O 0.46859 0.79073 0.54751
 O22 O 0.55991 0.79658 0.45276
 Cu23 Cu 0.54440 0.88416 0.50471
 Cu24 Cu 0.51210 0.78478 0.50032
 C25 C 0.59075 0.83903 0.44063
 C26 C 0.46392 0.83107 0.56137
 C27 C 0.57991 0.83308 0.57420
 C28 C 0.47038 0.83377 0.43655
 O29 O 0.91117 0.63244 -0.04718
 O30 O 0.99658 0.62762 0.05014
 O31 O 0.91246 0.63299 0.04929
 O32 O 0.99541 0.62725 -0.05029
 O33 O 1.03234 0.70963 -0.04629
 O34 O 0.94536 0.71587 0.04825
 O35 O 1.02962 0.71053 0.05007
 O36 O 0.94729 0.71492 -0.05098
 Cu37 Cu 0.95102 0.62164 0.00047
 Cu38 Cu 0.99184 0.72107 0.00005
 C39 C 0.91426 0.67448 -0.06525
 C40 C 1.02733 0.66839 0.06693
 C41 C 0.91405 0.67544 0.06477
 C42 C 1.02853 0.66747 -0.06464
 O43 O 0.41659 0.12496 0.44829
 O44 O 0.50297 0.12890 0.54797
 O45 O 0.41555 0.12426 0.54893
 O46 O 0.50377 0.12929 0.45096
 O47 O 0.52898 0.21217 0.45083
 O48 O 0.44075 0.20713 0.54807
 O49 O 0.52828 0.21177 0.54919
 O50 O 0.44158 0.20780 0.45063
 Cu51 Cu 0.45647 0.11830 0.49900
 Cu52 Cu 0.48744 0.21803 0.49976
 C53 C 0.41496 0.16590 0.43217
 C54 C 0.53075 0.17112 0.56496
 C55 C 0.41369 0.16501 0.56551
 C56 C 0.53172 0.17169 0.43471
 O57 O 0.74533 0.00618 -0.05107
 O58 O 0.78618 -0.05761 0.04811
 O59 O 0.74537 0.00705 0.04853
 O60 O 0.78764 -0.05713 -0.04968
 O61 O 0.85824 0.00502 -0.04928
 O62 O 0.81566 0.06969 0.04796
 O63 O 0.85688 0.00430 0.04866
 O64 O 0.81555 0.06895 -0.04948
 Cu65 Cu 0.75887 -0.03151 -0.00109
 Cu66 Cu 0.84366 0.04334 -0.00046
 C67 C 0.77368 0.04839 -0.06718
 C68 C 0.82851 -0.03798 0.06483
 C69 C 0.77357 0.04932 0.06496
 C70 C 0.83017 -0.03728 -0.06576
 O71 O 0.28223 0.42999 0.54871
 O72 O 0.24379 0.49921 0.45197
 O73 O 0.28182 0.43082 0.45009
 O74 O 0.24200 0.49587 0.54962
 O75 O 0.31348 0.55648 0.55085
 O76 O 0.35360 0.49086 0.45158
 O77 O 0.31555 0.55929 0.45225
 O78 O 0.35381 0.49040 0.54967
 Cu79 Cu 0.25536 0.45784 0.49982
 Cu80 Cu 0.34126 0.53035 0.50114
 C81 C 0.32466 0.44838 0.56551
 C82 C 0.27288 0.54132 0.43618
 C83 C 0.32454 0.44930 0.43440
 C84 C 0.27081 0.53746 0.56682
 O85 O 0.25263 0.99209 -0.05087
 O86 O 0.21337 1.05906 0.04710
 O87 O 0.25338 0.99255 0.04557
 O88 O 0.21302 1.05901 -0.05185
 O89 O 0.14126 0.99905 -0.05071
 O90 O 0.18216 0.93148 0.04607
 O91 O 0.14204 0.99825 0.04759
 O92 O 0.18086 0.93207 -0.05239
 Cu93 Cu 0.24005 1.03205 -0.00254
 Cu94 Cu 0.15438 0.95919 -0.00229
 C95 C 0.22384 0.95018 -0.06755
 C96 C 0.17105 1.04020 0.06394
 C97 C 0.22513 0.95010 0.06133
 C98 C 0.17025 1.04070 -0.06765
 O99 O 0.71908 0.56996 0.55023
 O100 O 0.75649 0.50281 0.45082
 O101 O 0.72055 0.57122 0.45338
 O102 O 0.75640 0.50246 0.55177
 O103 O 0.68458 0.44240 0.54975
 O104 O 0.64825 0.51194 0.45221
 O105 O 0.68467 0.44268 0.45132
 O106 O 0.64686 0.51047 0.54957
 Cu107 Cu 0.74585 0.54211 0.50168
 Cu108 Cu 0.65896 0.47057 0.50060
 C109 C 0.67634 0.55213 0.56598
 C110 C 0.72651 0.46190 0.43346
 C111 C 0.67809 0.55381 0.43687
 C112 C 0.72624 0.46136 0.56823
 C113 C 0.17413 0.17617 0.17504
 C114 C 0.15733 0.21259 0.15832
 C115 C 0.17624 0.26207 0.17659
 C116 C 0.21463 0.27584 0.21171
 C117 C 0.23012 0.23834 0.23107
 C118 C 0.20934 0.18830 0.21309
 C119 C 0.22320 0.15129 0.23469
 C120 C 0.25815 0.16347 0.27201
 C121 C 0.28256 0.21355 0.28730
 C122 C 0.26700 0.25102 0.26798
 C123 C 0.23914 0.32593 0.22690
 C124 C 0.27396 0.33808 0.26428
 C125 C 0.28770 0.30105 0.28599
 C126 C 0.32271 0.31321 0.32419
 C127 C 0.33959 0.27687 0.34090
 C128 C 0.32093 0.22741 0.32252
 H129 H 0.20619 0.11222 0.22382
 H130 H 0.26454 0.13270 0.28944
 H131 H 0.23283 0.35673 0.20944
 H132 H 0.29100 0.37717 0.27510
 H133 H 0.12933 0.20216 0.13001
 H134 H 0.36749 0.28740 0.36932
 C135 C 0.68589 0.69416 0.33151
 C136 C 0.66809 0.72987 0.34803
 C137 C 0.68598 0.77916 0.32969
 C138 C 0.71980 0.79165 0.28967
 C139 C 0.73881 0.75580 0.27314
 C140 C 0.72272 0.70739 0.29522
 C141 C 0.74357 0.67336 0.28006
 C142 C 0.77864 0.68608 0.24296
 C143 C 0.79256 0.73227 0.21753
 C144 C 0.77371 0.76818 0.23415
 C145 C 0.73412 0.83806 0.26462
 C146 C 0.76889 0.85056 0.22712
 C147 C 0.78943 0.81634 0.21164
 C148 C 0.82530 0.82901 0.17424
 C149 C 0.84287 0.79313 0.15749
 C150 C 0.82547 0.74418 0.17668
 H151 H 0.73316 0.63647 0.29680
 H152 H 0.79511 0.65936 0.23510
 H153 H 0.71788 0.86488 0.27275
 H154 H 0.77921 0.88732 0.21008
 H155 H 0.64153 0.71955 0.37782
 H156 H 0.86845 0.80282 0.12676
 C157 C 0.83411 0.26943 0.17557
 C158 C 0.81514 0.22043 0.15643
 C159 C 0.77021 0.18607 0.17064
 C160 C 0.74191 0.20203 0.20389
 C161 C 0.76133 0.25069 0.22593
 C162 C 0.80703 0.28501 0.21095
 C163 C 0.82351 0.33384 0.23115
 C164 C 0.79811 0.34734 0.26835
 C165 C 0.75282 0.31429 0.28380
 C166 C 0.73450 0.26525 0.26266
 C167 C 0.69409 0.17196 0.21403
 C168 C 0.66866 0.18549 0.25113
 C169 C 0.68960 0.23031 0.27853
 C170 C 0.66623 0.24207 0.32013
 C171 C 0.68359 0.29122 0.33894
 C172 C 0.72533 0.32821 0.32015
 H173 H 0.85607 0.36279 0.21864
 H174 H 0.81539 0.38384 0.28531
 H175 H 0.67531 0.13811 0.19286
 H176 H 0.63193 0.16100 0.25718
 H177 H 0.83670 0.20824 0.13085
 H178 H 0.66433 0.30079 0.36919
 C179 C 0.32883 0.76643 0.33102
 C180 C 0.31317 0.71670 0.34805
 C181 C 0.27378 0.67851 0.32659
 C182 C 0.25069 0.68990 0.28432
 C183 C 0.26472 0.74038 0.26765
 C184 C 0.30455 0.77860 0.29025
 C185 C 0.31930 0.82750 0.27055
 C186 C 0.29353 0.83961 0.23285
 C187 C 0.25408 0.80262 0.20977
 C188 C 0.23914 0.75251 0.22782
 C189 C 0.21558 0.65219 0.25652
 C190 C 0.19010 0.66416 0.21826
 C191 C 0.19882 0.71436 0.20590
 C192 C 0.17016 0.72767 0.17061
 C193 C 0.18646 0.77708 0.15243
 C194 C 0.22894 0.81407 0.16940
 H195 H 0.35122 0.85734 0.28343
 H196 H 0.30478 0.87873 0.22281
 H197 H 0.20816 0.61286 0.26313
 H198 H 0.16474 0.63341 0.19730
 H199 H 0.33074 0.70802 0.38038
 H200 H 0.16601 0.78693 0.12363
 C201 C 0.66557 0.24070 0.67949
 C202 C 0.68283 0.28986 0.66091
 C203 C 0.72494 0.32664 0.67935
 C204 C 0.75295 0.31254 0.71479
 C205 C 0.73474 0.26358 0.73583
 C206 C 0.68945 0.22885 0.72051
 C207 C 0.66870 0.18417 0.74797
 C208 C 0.69454 0.17057 0.78448
 C209 C 0.74257 0.20045 0.79401
 C210 C 0.76195 0.24896 0.77190
 C211 C 0.79870 0.34535 0.72943
 C212 C 0.82460 0.33175 0.76594
 C213 C 0.80801 0.28305 0.78628
 C214 C 0.83530 0.26744 0.82124
 C215 C 0.81631 0.21861 0.84050
 C216 C 0.77112 0.18446 0.82672
 H217 H 0.63180 0.15989 0.74245
 H218 H 0.67594 0.13684 0.80574
 H219 H 0.81589 0.38171 0.71229
 H220 H 0.85763 0.36047 0.77785
 H221 H 0.66318 0.29962 0.63119
 H222 H 0.83798 0.20640 0.86588
 C223 C 0.32121 0.76247 0.66496
 C224 C 0.30730 0.71199 0.65107
 C225 C 0.27025 0.67391 0.67563
 C226 C 0.24832 0.68639 0.71818
 C227 C 0.26022 0.73755 0.73145
 C228 C 0.29724 0.77577 0.70532
 C229 C 0.30960 0.82580 0.72110
 C230 C 0.28438 0.83843 0.75905
 C231 C 0.24840 0.80135 0.78626
 C232 C 0.23539 0.75040 0.77155
 C233 C 0.21694 0.64935 0.74964
 C234 C 0.19262 0.66204 0.78863
 C235 C 0.19796 0.71214 0.79713
 C236 C 0.16904 0.72571 0.83205
 C237 C 0.18421 0.77606 0.84764
 C238 C 0.22481 0.81353 0.82761
 H239 H 0.33907 0.85622 0.70487
 H240 H 0.29319 0.87793 0.76594
 H241 H 0.21191 0.61025 0.74547
 H242 H 0.17147 0.63227 0.81341
 H243 H 0.32443 0.70246 0.61882
 H244 H 0.16449 0.78637 0.87690
 C245 C 0.17329 0.17512 0.82384
 C246 C 0.15698 0.21174 0.84125
 C247 C 0.17673 0.26166 0.82428
 C248 C 0.21582 0.27538 0.78986
 C249 C 0.22977 0.23738 0.76871
 C250 C 0.20809 0.18712 0.78550
 C251 C 0.22083 0.14982 0.76266
 C252 C 0.25540 0.16184 0.72500
 C253 C 0.28064 0.21199 0.71068
 C254 C 0.26631 0.24983 0.73146
 C255 C 0.24281 0.32564 0.77722
 C256 C 0.27667 0.33762 0.73889
 C257 C 0.28798 0.30010 0.71465
 C258 C 0.32195 0.31198 0.67550
 C259 C 0.33770 0.27524 0.65736
 C260 C 0.31872 0.22564 0.67515
 H261 H 0.20314 0.11066 0.77276
 H262 H 0.26082 0.13095 0.70650
 H263 H 0.23980 0.35666 0.79780
 H264 H 0.29522 0.37688 0.72962
 H265 H 0.12895 0.20107 0.86945
 H266 H 0.36515 0.28568 0.62851
 C267 C 0.68107 0.68955 0.67526
 C268 C 0.66002 0.72375 0.66292
 C269 C 0.67734 0.77292 0.68188
 C270 C 0.71721 0.78810 0.71532
 C271 C 0.73688 0.75243 0.73079
 C272 C 0.71958 0.70352 0.70962
 C273 C 0.74134 0.66989 0.72330
 C274 C 0.77796 0.68318 0.75874
 C275 C 0.79311 0.72981 0.78362
 C276 C 0.77441 0.76585 0.76709
 C277 C 0.73932 0.83790 0.73238
 C278 C 0.77593 0.85104 0.76795
 C279 C 0.79300 0.81523 0.78688
 C280 C 0.82931 0.82802 0.82384
 C281 C 0.84590 0.79169 0.84149
 C282 C 0.82721 0.74217 0.82354
 H283 H 0.73012 0.63267 0.70704
 H284 H 0.79483 0.65664 0.76542
 H285 H 0.72969 0.86780 0.71774
 H286 H 0.79116 0.88986 0.78010
 H287 H 0.63004 0.71196 0.63697
 H288 H 0.87184 0.80162 0.87193
 C289 C 0.15530 0.06831 0.10167
 C290 C 0.10871 0.05596 0.11714
 C291 C 0.10943 0.09444 0.14794
 C292 C 0.15648 0.12686 0.14940
 O293 O 0.18435 0.11130 0.12123
 H294 H 0.07775 0.02372 0.10588
 H295 H 0.07933 0.09892 0.16636
 C296 C 0.66087 0.58106 0.60274
 C297 C 0.61440 0.56932 0.61824
 C298 C 0.61570 0.60816 0.64871
 C299 C 0.66292 0.64022 0.64979
 O300 O 0.69032 0.62409 0.62164
 H301 H 0.58322 0.53717 0.60735
 H302 H 0.58585 0.61310 0.66721
 C303 C 0.84370 0.93595 0.10061
 C304 C 0.88951 0.95067 0.11956
 C305 C 0.88879 0.91248 0.15063
 C306 C 0.84255 0.87804 0.14870
 O307 O 0.81521 0.89197 0.11832
 H308 H 0.91996 0.98437 0.11075
 H309 H 0.91836 0.90969 0.17171
 C310 C 0.34044 0.41988 0.60274
 C311 C 0.38717 0.43192 0.61769
 C312 C 0.38653 0.39348 0.64830
 C313 C 0.33941 0.36138 0.65026
 O314 O 0.31138 0.37708 0.62249
 H315 H 0.41815 0.46393 0.60616
 H316 H 0.41674 0.38875 0.66620
 C317 C 0.94116 0.32726 0.10802
 C318 C 0.95727 0.35211 0.15290
 C319 C 0.91943 0.33431 0.18510
 C320 C 0.88231 0.30151 0.15672
 O321 O 0.89621 0.29614 0.11035
 H322 H 0.99329 0.37696 0.16213
 H323 H 0.92002 0.34220 0.22514
 C324 C 0.42227 0.82843 0.59125
 C325 C 0.40125 0.86336 0.58807
 C326 C 0.36028 0.84375 0.61539
 C327 C 0.36024 0.79914 0.63492
 O328 O 0.39722 0.78913 0.61887
 H329 H 0.41288 0.89742 0.56581
 H330 H 0.33284 0.85921 0.61879
 C331 C 0.06115 0.66769 0.10628
 C332 C 0.05053 0.63527 0.14667
 C333 C 0.09008 0.65243 0.17686
 C334 C 0.12274 0.69297 0.15152
 O335 O 0.10440 0.70264 0.10927
 H336 H 0.01695 0.60503 0.15479
 H337 H 0.09321 0.63857 0.21413
 C338 C 0.56719 0.17320 0.60233
 C339 C 0.58049 0.13352 0.61355
 C340 C 0.61856 0.15286 0.64519
 C341 C 0.62488 0.20272 0.65222
 O342 O 0.59413 0.21518 0.62526
 H343 H 0.56585 0.09580 0.59828
 H344 H 0.64049 0.13335 0.65916
 C345 C 0.75850 0.07406 0.89285
 C346 C 0.73021 0.05055 0.85248
 C347 C 0.73026 0.08858 0.82165
 C348 C 0.75712 0.13253 0.84664
 O349 O 0.77515 0.12340 0.88926
 H350 H 0.71415 0.01063 0.84494
 H351 H 0.71459 0.08439 0.78435
 C352 C 0.25636 0.57034 0.40018
 C353 C 0.20907 0.55996 0.38933
 C354 C 0.20895 0.59833 0.35925
 C355 C 0.25637 0.62881 0.35256
 O356 O 0.28509 0.61225 0.37845
 H357 H 0.17826 0.52950 0.40384
 H358 H 0.17774 0.60448 0.34599
 C359 C 0.24023 0.92289 0.89881
 C360 C 0.28770 0.93438 0.88779
 C361 C 0.28868 0.89528 0.85932
 C362 C 0.24152 0.86372 0.85279
 O363 O 0.21222 0.88003 0.87800
 H364 H 0.31819 0.96568 0.90178
 H365 H 0.32038 0.88948 0.84719
 C366 C 0.73937 0.43713 0.39076
 C367 C 0.76086 0.46157 0.34743
 C368 C 0.75895 0.42434 0.31444
 C369 C 0.73818 0.37989 0.34089
 O370 O 0.72494 0.38785 0.38677
 H371 H 0.77316 0.50140 0.33964
 H372 H 0.76920 0.42922 0.27504
 C373 C 0.11671 0.32472 0.89466
 C374 C 0.13284 0.36034 0.85727
 C375 C 0.15579 0.34106 0.82380
 C376 C 0.15522 0.29680 0.84517
 O377 O 0.12967 0.28618 0.88724
 H378 H 0.12518 0.39401 0.85268
 H379 H 0.16887 0.35670 0.78713
 C380 C 0.62871 0.84099 0.40508
 C381 C 0.67064 0.88174 0.39845
 C382 C 0.69774 0.86507 0.36751
 C383 C 0.66974 0.81569 0.35624
 O384 O 0.62820 0.80102 0.37995
 H385 H 0.68134 0.91814 0.41654
 H386 H 0.73455 0.88566 0.35726
 C387 C 0.88000 0.67621 0.90024
 C388 C 0.83814 0.63624 0.89012
 C389 C 0.81262 0.65504 0.85963
 C390 C 0.84156 0.70471 0.85116
 O391 O 0.88207 0.71777 0.87703
 H392 H 0.82618 0.59881 0.90593
 H393 H 0.77612 0.63529 0.84769
 C394 C 0.38287 0.16582 0.39084
 C395 C 0.37537 0.13627 0.34828
 C396 C 0.35049 0.15459 0.31614
 C397 C 0.34304 0.19275 0.34243
 O398 O 0.36394 0.20021 0.38724
 H399 H 0.38953 0.10761 0.34019
 H400 H 0.34157 0.14325 0.27726
 C401 C 0.84691 0.93529 0.89698
 C402 C 0.89363 0.94841 0.88162
 C403 C 0.89346 0.91011 0.85085
 C404 C 0.84659 0.87717 0.84942
 O405 O 0.81837 0.89216 0.87748
 H406 H 0.92423 0.98105 0.89283
 H407 H 0.92379 0.90613 0.83240
 C408 C 0.34074 0.42114 0.39715
 C409 C 0.38765 0.43296 0.38315
 C410 C 0.38728 0.39442 0.35266
 C411 C 0.34013 0.36247 0.34991
 O412 O 0.31185 0.37840 0.37700
 H413 H 0.41855 0.46482 0.39529
 H414 H 0.41767 0.38955 0.33535
 C415 C 0.15502 0.06746 0.89702
 C416 C 0.10860 0.05414 0.88020
 C417 C 0.10915 0.09256 0.84952
 C418 C 0.15589 0.12583 0.84930
 O419 O 0.18375 0.11088 0.87812
 H420 H 0.07783 0.02128 0.89038
 H421 H 0.07912 0.09634 0.83024
 C422 C 0.66347 0.58367 0.40062
 C423 C 0.61732 0.57281 0.38439
 C424 C 0.61954 0.61267 0.35511
 C425 C 0.66691 0.64428 0.35541
 O426 O 0.69355 0.62701 0.38324
 H427 H 0.58577 0.54063 0.39413
 H428 H 0.59019 0.61851 0.33647
 C429 C 0.06126 0.66604 0.89910
 C430 C 0.05476 0.62716 0.86581
 C431 C 0.09351 0.64384 0.83462
 C432 C 0.12254 0.69055 0.85321
 O433 O 0.10184 0.70425 0.89146
 H434 H 0.02397 0.59247 0.86236
 H435 H 0.09788 0.62475 0.80091
 C436 C 0.56853 0.17415 0.39765
 C437 C 0.58225 0.13473 0.38637
 C438 C 0.62017 0.15428 0.35467
 C439 C 0.62597 0.20397 0.34767
 O440 O 0.59509 0.21617 0.37472
 H441 H 0.56792 0.09703 0.40154
 H442 H 0.64228 0.13504 0.34049
 C443 C 0.94243 0.32553 0.88854
 C444 C 0.95874 0.34944 0.84339
 C445 C 0.92082 0.33147 0.81119
 C446 C 0.88359 0.29943 0.83983
 O447 O 0.89739 0.29471 0.88637
 H448 H 0.99485 0.37390 0.83410
 H449 H 0.92136 0.33876 0.77105
 C450 C 0.43155 0.83301 0.40294
 C451 C 0.41326 0.87026 0.40198
 C452 C 0.37231 0.85092 0.37440
 C453 C 0.36950 0.80389 0.35885
 O454 O 0.40484 0.79255 0.37752
 H455 H 0.42621 0.90560 0.42225
 H456 H 0.34642 0.86812 0.36874
 C457 C 0.24339 0.92120 0.09558
 C458 C 0.29106 0.92935 0.10039
 C459 C 0.29251 0.89097 0.12956
 C460 C 0.24563 0.86300 0.14210
 O461 O 0.21571 0.88076 0.12023
 H462 H 0.32092 0.95797 0.08207
 H463 H 0.32392 0.88301 0.13821
 C464 C 0.73873 0.43608 0.61055
 C465 C 0.76064 0.46012 0.65401
 C466 C 0.75878 0.42257 0.68636
 C467 C 0.73761 0.37840 0.65937
 O468 O 0.72408 0.38677 0.61383
 H469 H 0.77335 0.49992 0.66227
 H470 H 0.76953 0.42704 0.72565
 C471 C 0.75800 0.07523 0.10463
 C472 C 0.72973 0.05188 0.14494
 C473 C 0.72964 0.09004 0.17570
 C474 C 0.75633 0.13396 0.15074
 O475 O 0.77446 0.12462 0.10816
 H476 H 0.71389 0.01201 0.15259
 H477 H 0.71408 0.08594 0.21303
 C478 C 0.25418 0.56482 0.60450
 C479 C 0.20725 0.55182 0.61865
 C480 C 0.20680 0.58999 0.64907
 C481 C 0.25378 0.62299 0.65236
 O482 O 0.28234 0.60794 0.62451
 H483 H 0.17670 0.51985 0.60598
 H484 H 0.17547 0.59449 0.66437
 C485 C 0.87793 0.67762 0.10078
 C486 C 0.83526 0.63838 0.10915
 C487 C 0.81001 0.65738 0.13982
 C488 C 0.83973 0.70654 0.14949
 O489 O 0.88062 0.71911 0.12463
 H490 H 0.82295 0.60130 0.09234
 H491 H 0.77328 0.63829 0.15126
 C492 C 0.38083 0.16438 0.60627
 C493 C 0.37197 0.13366 0.64793
 C494 C 0.34680 0.15166 0.68009
 C495 C 0.34047 0.19081 0.65465
 O496 O 0.36237 0.19914 0.61039
 H497 H 0.38545 0.10441 0.65556
 H498 H 0.33706 0.13945 0.71856
 C499 C 0.11653 0.32580 0.10791
 C500 C 0.12335 0.35448 0.15102
 C501 C 0.14703 0.33499 0.18339
 C502 C 0.15456 0.29710 0.15673
 O503 O 0.13467 0.29074 0.11143
 H504 H 0.10944 0.38332 0.15920
 H505 H 0.15530 0.34551 0.22257
 C506 C 0.61028 0.83141 0.61687
 C507 C 0.61644 0.85933 0.66049
 C508 C 0.64274 0.84178 0.69167
 C509 C 0.65232 0.80576 0.66389
 O510 O 0.63145 0.79879 0.61898
 H511 H 0.60120 0.88692 0.66954
 H512 H 0.65165 0.85244 0.73071
   
