data_POSCAR
  _audit_creation_date              2014-09-24
  _audit_creation_method            'ToBaCCo'
  _symmetry_space_group_name_H-M    'P1'
  _symmetry_Int_Tables_number       1
  _symmetry_cell_setting            triclinic
  loop_
  _symmetry_equiv_pos_as_xyz
 x,y,z
_cell_length_a 41.4000
_cell_length_b 41.7573
_cell_length_c 40.6844
_cell_angle_alpha 89.480800
_cell_angle_beta 89.736000
_cell_angle_gamma 89.726400
loop_
  _atom_site_label
  _atom_site_type_symbol
  _atom_site_fract_x
  _atom_site_fract_y
  _atom_site_fract_z
C1 C 0.33576 0.36130 1.39380
 N2 N 0.34996 0.33451 1.40652
 C3 C 0.37607 0.32080 1.39182
 N4 N 0.38802 0.33439 1.36390
 C5 C 0.37438 0.36121 1.35068
 N6 N 0.34820 0.37451 1.36573
 C7 C 1.16565 0.64602 0.87923
 N8 N 1.15192 0.67458 0.88711
 C9 C 1.12865 0.68805 0.86784
 N10 N 1.11907 0.67240 0.84037
 C11 C 1.13217 0.64357 0.83239
 N12 N 1.15542 0.63071 0.85189
 C13 C 0.68004 -0.13715 0.11652
 N14 N 0.66708 -0.16515 0.10633
 C15 C 0.63948 -0.17689 0.12004
 N16 N 0.62520 -0.16045 0.14501
 C17 C 0.63801 -0.13246 0.15571
 N18 N 0.66517 -0.12094 0.14112
 C19 C -0.16424 1.12944 -0.38599
 N20 N -0.15062 1.11573 -0.35887
 C21 C -0.12359 1.12857 -0.34541
 N22 N -0.11058 1.15550 -0.35892
 C23 C -0.12419 1.16979 -0.38563
 N24 N -0.15088 1.15639 -0.39899
 C25 C 0.66295 0.61370 0.62897
 N26 N 0.65003 0.63998 0.61400
 C27 C 0.62327 0.65463 0.62632
 N28 N 0.60925 0.64237 0.65394
 C29 C 0.62159 0.61587 0.66905
 N30 N 0.64860 0.60171 0.65656
 C31 C 0.81580 0.37221 0.13799
 N32 N 0.82897 0.38264 0.16634
 C33 C 0.85528 0.36807 0.17942
 N34 N 0.86911 0.34295 0.16360
 C35 C 0.85622 0.33202 0.13506
 N36 N 0.82937 0.34665 0.12273
 C37 C 0.33151 0.13835 0.85664
 N38 N 0.34361 0.16600 0.86899
 C39 C 0.37083 0.17923 0.85587
 N40 N 0.38614 0.16448 0.83052
 C41 C 0.37446 0.13682 0.81821
 N42 N 0.34715 0.12413 0.83122
 C43 C 0.17517 0.86463 0.36687
 N44 N 0.15961 0.83927 0.38070
 C45 C 0.13084 0.82930 0.36916
 N46 N 0.11747 0.84467 0.34316
 C47 C 0.13224 0.87033 0.32895
 N48 N 0.16117 0.88038 0.34099
 Zn49 Zn 0.02267 1.00867 -0.04132
 Zn50 Zn 0.02926 1.04177 0.02367
 Zn51 Zn -0.03538 1.03579 -0.00796
 Zn52 Zn -0.00298 0.97826 0.02011
 O53 O 0.00347 1.01614 -0.00143
 O54 O 0.06034 1.02932 -0.04548
 O55 O 0.00961 1.07830 0.03534
 O56 O -0.04489 1.04128 -0.05052
 O57 O 0.06521 1.05358 0.00239
 O58 O -0.00173 1.02153 -0.07556
 O59 O -0.03757 1.07432 0.01051
 O60 O -0.04474 0.96976 0.02803
 O61 O 0.04216 1.02293 0.06142
 O62 O -0.06832 1.01387 0.00925
 O63 O 0.01649 0.97674 0.05909
 O64 O 0.01330 0.94506 -0.00160
 O65 O 0.03189 0.96694 -0.04767
 C66 C 0.07588 1.04727 -0.02614
 C67 C -0.01806 1.08963 0.02840
 C68 C -0.02949 1.03461 -0.07664
 C69 C -0.06985 0.98668 0.02326
 C70 C 0.03500 0.99589 0.07392
 C71 C 0.02752 0.94268 -0.02914
 Zn72 Zn 0.49770 -0.05225 0.47706
 Zn73 Zn 0.52384 -0.02103 0.53623
 Zn74 Zn 0.53570 0.00904 0.46946
 Zn75 Zn 0.46950 0.00843 0.49963
 O76 O 0.50695 -0.01387 0.49548
 O77 O 0.50916 -0.08604 0.50187
 O78 O 0.56338 -0.00495 0.53980
 O79 O 0.54582 -0.01206 0.43170
 O80 O 0.52763 -0.06272 0.54657
 O81 O 0.51836 -0.05691 0.43946
 O82 O 0.57332 0.01661 0.49084
 O83 O 0.47218 0.04704 0.48198
 O84 O 0.50022 -0.00378 0.56856
 O85 O 0.52008 0.04842 0.45774
 O86 O 0.45798 0.01492 0.54124
 O87 O 0.43583 -0.00979 0.48023
 O88 O 0.45589 -0.05696 0.46654
 C89 C 0.52132 -0.08774 0.53039
 C90 C 0.58202 0.00993 0.52014
 C91 C 0.53704 -0.03967 0.42211
 C92 C 0.49339 0.06181 0.46530
 C93 C 0.47280 0.00989 0.56800
 C94 C 0.43255 -0.03717 0.46757
 Zn95 Zn 1.02269 0.50854 0.46223
 Zn96 Zn 0.96544 0.48147 0.49646
 Zn97 Zn 1.03015 0.48125 0.53049
 Zn98 Zn 0.99315 0.54251 0.51805
 O99 O 1.00300 0.50327 0.50197
 O100 O 1.00246 0.48878 0.42971
 O101 O 0.96590 0.44471 0.51830
 O102 O 1.06934 0.47242 0.51193
 O103 O 0.95869 0.47043 0.45467
 O104 O 1.06259 0.49313 0.46215
 O105 O 1.01322 0.44299 0.54342
 O106 O 1.01060 0.54840 0.55696
 O107 O 0.92986 0.50270 0.50992
 O108 O 1.03800 0.50387 0.56764
 O109 O 0.95090 0.54905 0.52403
 O110 O 1.00680 0.57484 0.49272
 O111 O 1.02659 0.54947 0.44965
 C112 C 0.97592 0.47381 0.42901
 C113 C 0.98622 0.43028 0.53644
 C114 C 1.08006 0.47883 0.48321
 C115 C 1.02833 0.53171 0.57584
 C116 C 0.92664 0.53100 0.52059
 C117 C 1.01998 0.57522 0.46455
 Zn118 Zn 0.46926 0.49374 0.97025
 Zn119 Zn 0.46052 0.52722 1.03531
 Zn120 Zn 0.49184 0.46240 1.03146
 Zn121 Zn 0.52615 0.51912 1.00472
 O122 O 0.48680 0.50076 1.01052
 O123 O 0.43136 0.51301 0.96649
 O124 O 0.44870 0.50892 1.07419
 O125 O 0.47492 0.42967 1.00975
 O126 O 0.42352 0.53756 1.01396
 O127 O 0.46083 0.45236 0.96267
 O128 O 0.47311 0.46182 1.07078
 O129 O 0.55839 0.49562 1.02113
 O130 O 0.48016 0.56451 1.04575
 O131 O 0.53313 0.45191 1.03822
 O132 O 0.52850 0.55718 1.02354
 O133 O 0.53659 0.52566 0.96249
 O134 O 0.49369 0.50777 0.93646
 C135 C 0.41397 0.52993 0.98538
 C136 C 0.45583 0.48167 1.08652
 C137 C 0.46307 0.42783 0.98118
 C138 C 0.55884 0.46770 1.03358
 C139 C 0.50867 0.57426 1.03965
 C140 C 0.52153 0.52038 0.93603
 C141 C 1.26695 0.37244 0.45231
 C142 C 1.25061 0.39939 0.43897
 C143 C 1.26412 0.41390 0.41043
 C144 C 1.29247 0.40164 0.39595
 C145 C 1.30809 0.37449 0.40910
 C146 C 1.29500 0.36034 0.43767
 C147 C 1.24913 0.44047 0.39613
 C148 C 1.22048 0.45257 0.40885
 C149 C 1.20542 0.43856 0.43668
 C150 C 1.22116 0.41205 0.45254
 C151 C 1.20677 0.39899 0.48123
 C152 C 1.17757 0.41061 0.49339
 C153 C 1.16125 0.43553 0.47748
 C154 C 1.17501 0.45000 0.44899
 C155 C 1.15727 0.47489 0.43352
 C156 C 1.12710 0.48431 0.44533
 C157 C 1.11332 0.46966 0.47313
 C158 C 1.13087 0.44562 0.48953
 H159 H 1.25852 0.35975 0.47381
 H160 H 1.30204 0.41319 0.37402
 H161 H 1.30620 0.33945 0.44883
 H162 H 1.25951 0.45192 0.37454
 H163 H 1.21079 0.47313 0.39611
 H164 H 1.21747 0.37960 0.49504
 H165 H 1.16740 0.39956 0.51530
 H166 H 1.16551 0.48724 0.41175
 H167 H 1.11430 0.50314 0.43223
 H168 H 1.12042 0.43402 0.51100
 C169 C 0.23068 0.63783 0.94201
 C170 C 0.24615 0.60900 0.93252
 C171 C 0.23261 0.59201 0.90593
 C172 C 0.20543 0.60383 0.88934
 C173 C 0.19109 0.63310 0.89809
 C174 C 0.20370 0.64957 0.92509
 C175 C 0.24654 0.56347 0.89544
 C176 C 0.27474 0.55207 0.90953
 C177 C 0.29028 0.56888 0.93486
 C178 C 0.27496 0.59691 0.94772
 C179 C 0.28915 0.61193 0.97505
 C180 C 0.31796 0.60075 0.98851
 C181 C 0.33423 0.57469 0.97487
 C182 C 0.32070 0.55853 0.94769
 C183 C 0.33873 0.53323 0.93370
 C184 C 0.36860 0.52429 0.94629
 C185 C 0.38179 0.53998 0.97335
 C186 C 0.36429 0.56503 0.98782
 H187 H 0.23927 0.65238 0.96183
 H188 H 0.19601 0.59034 0.86887
 H189 H 0.19326 0.67211 0.93287
 H190 H 0.23583 0.55000 0.87564
 H191 H 0.28358 0.52968 0.90005
 H192 H 0.27843 0.63238 0.98687
 H193 H 0.32798 0.61312 1.00941
 H194 H 0.33103 0.52033 0.91235
 H195 H 0.38150 0.50484 0.93454
 H196 H 0.37442 0.57753 1.00859
 C197 C -0.24289 0.86614 0.06897
 C198 C -0.23077 0.89660 0.07734
 C199 C -0.25044 0.91649 0.09722
 C200 C -0.27969 0.90512 0.11026
 C201 C -0.29102 0.87441 0.10263
 C202 C -0.27258 0.85545 0.08113
 C203 C -0.24084 0.94767 0.10409
 C204 C -0.21231 0.95984 0.09119
 C205 C -0.19149 0.94075 0.07190
 C206 C -0.20007 0.90813 0.06632
 C207 C -0.17724 0.88787 0.05101
 C208 C -0.14724 0.89924 0.04098
 C209 C -0.13935 0.93145 0.04448
 C210 C -0.16181 0.95292 0.05896
 C211 C -0.15381 0.98583 0.05943
 C212 C -0.12421 0.99658 0.04727
 C213 C -0.10144 0.97497 0.03482
 C214 C -0.10911 0.94241 0.03342
 H215 H -0.23031 0.85029 0.05245
 H216 H -0.29384 0.92063 0.12607
 H217 H -0.28065 0.83184 0.07412
 H218 H -0.25574 0.96299 0.11935
 H219 H -0.20650 0.98402 0.09798
 H220 H -0.18137 0.86265 0.04766
 H221 H -0.13019 0.88267 0.02996
 H222 H -0.17024 1.00395 0.06823
 H223 H -0.11887 1.02194 0.04812
 H224 H -0.09179 0.92572 0.02304
 C225 C 0.76695 0.11631 0.55437
 C226 C 0.74975 0.09052 0.56881
 C227 C 0.76173 0.07762 0.59879
 C228 C 0.78986 0.08999 0.61324
 C229 C 0.80647 0.11565 0.59861
 C230 C 0.79464 0.12853 0.56903
 C231 C 0.74549 0.05258 0.61441
 C232 C 0.71717 0.04037 0.60145
 C233 C 0.70388 0.05259 0.57193
 C234 C 0.72091 0.07750 0.55487
 C235 C 0.70854 0.08850 0.52444
 C236 C 0.68009 0.07644 0.51160
 C237 C 0.66250 0.05312 0.52852
 C238 C 0.67410 0.04079 0.55891
 C239 C 0.65498 0.01755 0.57530
 C240 C 0.62568 0.00746 0.56227
 C241 C 0.61421 0.01983 0.53236
 C242 C 0.63305 0.04241 0.51537
 H243 H 0.75949 0.12800 0.53195
 H244 H 0.79856 0.07981 0.63617
 H245 H 0.80679 0.14836 0.55700
 H246 H 0.75461 0.04243 0.63719
 H247 H 0.70640 0.02104 0.61524
 H248 H 0.72042 0.10643 0.50963
 H249 H 0.67154 0.08581 0.48825
 H250 H 0.66151 0.00706 0.59861
 H251 H 0.61177 -0.01007 0.57601
 H252 H 0.62440 0.05233 0.49229
 C253 C 0.38966 0.24946 0.44571
 C254 C 0.41564 0.23355 0.42990
 C255 C 0.42902 0.24830 0.40148
 C256 C 0.41629 0.27737 0.38929
 C257 C 0.38988 0.29245 0.40481
 C258 C 0.37712 0.27817 0.43337
 C259 C 0.45481 0.23379 0.38507
 C260 C 0.46735 0.20457 0.39577
 C261 C 0.45450 0.18847 0.42351
 C262 C 0.42839 0.20339 0.44104
 C263 C 0.41552 0.18744 0.46885
 C264 C 0.42688 0.15767 0.47869
 C265 C 0.45167 0.14251 0.46153
 C266 C 0.46640 0.15769 0.43406
 C267 C 0.49205 0.14102 0.41822
 C268 C 0.50161 0.11029 0.42869
 C269 C 0.48590 0.09519 0.45508
 C270 C 0.46139 0.11184 0.47165
 H271 H 0.37809 0.24040 0.46759
 H272 H 0.42683 0.28792 0.36730
 H273 H 0.35699 0.28898 0.44635
 H274 H 0.46528 0.24502 0.36340
 H275 H 0.48701 0.19501 0.38142
 H276 H 0.39621 0.19706 0.48358
 H277 H 0.41581 0.14619 0.49992
 H278 H 0.50502 0.15085 0.39750
 H279 H 0.52078 0.09803 0.41559
 H280 H 0.44940 0.10069 0.49255
 C281 C 0.88442 0.24286 0.56210
 C282 C 0.91047 0.25901 0.57696
 C283 C 0.92619 0.24350 0.60360
 C284 C 0.91513 0.21373 0.61555
 C285 C 0.88831 0.19862 0.60135
 C286 C 0.87361 0.21345 0.57413
 C287 C 0.95267 0.25792 0.61845
 C288 C 0.96382 0.28761 0.60770
 C289 C 0.94857 0.30445 0.58177
 C290 C 0.92126 0.28998 0.56635
 C291 C 0.90514 0.30723 0.54129
 C292 C 0.91522 0.33737 0.53147
 C293 C 0.94186 0.35165 0.54592
 C294 C 0.95929 0.33551 0.57102
 C295 C 0.98659 0.35134 0.58415
 C296 C 0.99561 0.38195 0.57302
 C297 C 0.97769 0.39780 0.54867
 C298 C 0.95096 0.38226 0.53523
 H299 H 0.87171 0.25211 0.54103
 H300 H 0.92727 0.20265 0.63633
 H301 H 0.85325 0.20253 0.56198
 H302 H 0.96491 0.24615 0.63876
 H303 H 0.98424 0.29701 0.62070
 H304 H 0.88408 0.29844 0.52896
 H305 H 0.90184 0.34973 0.51228
 H306 H 1.00160 0.34074 0.60290
 H307 H 1.01653 0.39329 0.58367
 H308 H 0.93704 0.39397 0.51602
 C309 C 0.08212 0.76462 -0.13808
 C310 C 0.08906 0.77921 -0.10768
 C311 C 0.10831 0.76175 -0.08498
 C312 C 0.12174 0.73203 -0.09347
 C313 C 0.11511 0.71796 -0.12395
 C314 C 0.09463 0.73445 -0.14584
 C315 C 0.11403 0.77392 -0.05377
 C316 C 0.10035 0.80274 -0.04414
 C317 C 0.08129 0.82123 -0.06593
 C318 C 0.07710 0.81016 -0.09877
 C319 C 0.06198 0.83079 -0.12178
 C320 C 0.05076 0.86094 -0.11281
 C321 C 0.05280 0.87115 -0.08032
 C322 C 0.06712 0.85094 -0.05620
 C323 C 0.06612 0.86102 -0.02312
 C324 C 0.05268 0.89048 -0.01469
 C325 C 0.04030 0.91113 -0.03884
 C326 C 0.04040 0.90139 -0.07169
 H327 H 0.06636 0.77555 -0.15602
 H328 H 0.13687 0.71956 -0.07577
 H329 H 0.08852 0.72433 -0.16942
 H330 H 0.12891 0.76078 -0.03636
 H331 H 0.10624 0.81059 -0.01974
 H332 H 0.05959 0.82473 -0.14735
 H333 H 0.03988 0.87623 -0.13142
 H334 H 0.07469 0.84630 -0.00305
 H335 H 0.05248 0.89741 0.01092
 H336 H 0.03016 0.91705 -0.09037
 C337 C 0.62945 0.74866 1.07158
 C338 C 0.60059 0.73554 1.08454
 C339 C 0.58440 0.75289 1.10952
 C340 C 0.59733 0.78170 1.12143
 C341 C 0.62629 0.79421 1.10851
 C342 C 0.64191 0.77726 1.08332
 C343 C 0.55535 0.74145 1.12247
 C344 C 0.54183 0.71319 1.11115
 C345 C 0.55713 0.69481 1.08656
 C346 C 0.58728 0.70595 1.07343
 C347 C 0.60342 0.68694 1.04993
 C348 C 0.59062 0.65829 1.03934
 C349 C 0.56113 0.64735 1.05142
 C350 C 0.54363 0.66540 1.07493
 C351 C 0.51343 0.65306 1.08566
 C352 C 0.50175 0.62383 1.07399
 C353 C 0.51973 0.60591 1.05137
 C354 C 0.54928 0.61812 1.04008
 H355 H 0.64302 0.73776 1.05200
 H356 H 0.58456 0.79440 1.14070
 H357 H 0.66412 0.78598 1.07234
 H358 H 0.54279 0.75457 1.14157
 H359 H 0.51944 0.70614 1.12261
 H360 H 0.62648 0.69314 1.03945
 H361 H 0.60409 0.64447 1.02143
 H362 H 0.49816 0.66539 1.10296
 H363 H 0.47875 0.61508 1.08302
 H364 H 0.56335 0.60474 1.02228
 C365 C 0.42632 0.37181 1.27453
 C366 C 0.41252 0.39891 1.25873
 C367 C 0.38634 0.41439 1.27474
 C368 C 0.37407 0.40235 1.30477
 C369 C 0.38763 0.37494 1.31959
 C370 C 0.41404 0.36015 1.30421
 C371 C 0.37241 0.44170 1.26062
 C372 C 0.38371 0.45401 1.23084
 C373 C 0.40935 0.43922 1.21359
 C374 C 0.42378 0.41102 1.22768
 C375 C 0.44866 0.39548 1.21000
 C376 C 0.45914 0.40689 1.17976
 C377 C 0.44558 0.43434 1.16581
 C378 C 0.42078 0.45127 1.18246
 C379 C 0.40855 0.47944 1.16703
 C380 C 0.42009 0.48965 1.13622
 C381 C 0.44403 0.47218 1.11971
 C382 C 0.45676 0.44470 1.13496
 H383 H 0.44677 0.35894 1.26484
 H384 H 0.35379 0.41428 1.31645
 H385 H 0.42538 0.33917 1.31504
 H386 H 0.35244 0.45373 1.27273
 H387 H 0.37142 0.47503 1.22171
 H388 H 0.46038 0.37394 1.21851
 H389 H 0.47812 0.39389 1.16706
 H390 H 0.39012 0.49416 1.17807
 H391 H 0.40992 0.51109 1.12513
 H392 H 0.47561 0.43109 1.12272
 C393 C 0.62483 -0.07049 0.22198
 C394 C 0.60293 -0.08594 0.24365
 C395 C 0.59134 -0.11651 0.23445
 C396 C 0.60163 -0.13084 0.20508
 C397 C 0.62420 -0.11569 0.18457
 C398 C 0.63529 -0.08521 0.19312
 C399 C 0.57001 -0.13304 0.25489
 C400 C 0.56083 -0.12064 0.28501
 C401 C 0.57255 -0.09088 0.29597
 C402 C 0.59282 -0.07258 0.27440
 C403 C 0.60226 -0.04167 0.28436
 C404 C 0.59295 -0.02937 0.31464
 C405 C 0.57445 -0.04751 0.33659
 C406 C 0.56437 -0.07870 0.32771
 C407 C 0.54695 -0.09674 0.35130
 C408 C 0.53885 -0.08394 0.38166
 C409 C 0.54780 -0.05271 0.39004
 C410 C 0.56596 -0.03466 0.36742
 H411 H 0.63513 -0.04742 0.22698
 H412 H 0.59289 -0.15446 0.19887
 H413 H 0.65267 -0.07278 0.17772
 H414 H 0.56064 -0.15615 0.24775
 H415 H 0.54403 -0.13496 0.29898
 H416 H 0.61659 -0.02603 0.26906
 H417 H 0.60066 -0.00547 0.32110
 H418 H 0.53958 -0.12110 0.34743
 H419 H 0.52529 -0.09883 0.39868
 H420 H 0.57332 -0.01060 0.37368
 C421 C -0.06077 1.10429 -0.28270
 C422 C -0.07945 1.08965 -0.25755
 C423 C -0.11334 1.08788 -0.26224
 C424 C -0.12747 1.09923 -0.29154
 C425 C -0.10857 1.11402 -0.31590
 C426 C -0.07522 1.11649 -0.31113
 C427 C -0.13304 1.07547 -0.23736
 C428 C -0.12009 1.06596 -0.20734
 C429 C -0.08656 1.06753 -0.20134
 C430 C -0.06577 1.07776 -0.22754
 C431 C -0.03204 1.07545 -0.22297
 C432 C -0.01903 1.06491 -0.19336
 C433 C -0.03897 1.05719 -0.16676
 C434 C -0.07304 1.05883 -0.17015
 C435 C -0.09211 1.05262 -0.14185
 C436 C -0.07787 1.04483 -0.11174
 C437 C -0.04425 1.04240 -0.10882
 C438 C -0.02495 1.04832 -0.13657
 H439 H -0.03510 1.10781 -0.28064
 H440 H -0.15341 1.09779 -0.29478
 H441 H -0.06014 1.12804 -0.32952
 H442 H -0.15892 1.07376 -0.24085
 H443 H -0.13699 1.05669 -0.18947
 H444 H -0.01494 1.08087 -0.24225
 H445 H 0.00702 1.06342 -0.19106
 H446 H -0.11807 1.05460 -0.14186
 H447 H -0.09332 1.04058 -0.09060
 H448 H 0.00113 1.04703 -0.13440
 C449 C 1.12683 0.58123 0.76538
 C450 C 1.10167 0.59325 0.74520
 C451 C 1.08661 0.62233 0.75476
 C452 C 1.09657 0.63851 0.78305
 C453 C 1.12159 0.62634 0.80260
 C454 C 1.13650 0.59751 0.79348
 C455 C 1.06166 0.63533 0.73605
 C456 C 1.05129 0.62036 0.70778
 C457 C 1.06555 0.59152 0.69684
 C458 C 1.09108 0.57762 0.71592
 C459 C 1.10524 0.54872 0.70495
 C460 C 1.09520 0.53411 0.67620
 C461 C 1.07066 0.54752 0.65713
 C462 C 1.05531 0.57629 0.66728
 C463 C 1.03045 0.58881 0.64716
 C464 C 1.02185 0.57390 0.61810
 C465 C 1.03740 0.54582 0.60779
 C466 C 1.06158 0.53246 0.62771
 H467 H 1.13967 0.55936 0.76023
 H468 H 1.08470 0.66072 0.78980
 H469 H 1.15591 0.58739 0.80805
 H470 H 1.05000 0.65750 0.74329
 H471 H 1.03196 0.63235 0.69501
 H472 H 1.12440 0.53668 0.71796
 H473 H 1.10699 0.51209 0.66872
 H474 H 1.01711 0.61024 0.65283
 H475 H 1.00280 0.58470 0.60351
 H476 H 1.07376 0.51071 0.62005
 C477 C 0.73002 0.55399 0.61077
 C478 C 0.75122 0.57206 0.59046
 C479 C 0.74276 0.60440 0.58376
 C480 C 0.71375 0.61739 0.59581
 C481 C 0.69301 0.59917 0.61576
 C482 C 0.70156 0.56747 0.62333
 C483 C 0.76339 0.62383 0.56529
 C484 C 0.79288 0.61227 0.55410
 C485 C 0.80265 0.58036 0.56026
 C486 C 0.78077 0.55947 0.57724
 C487 C 0.78897 0.52668 0.57994
 C488 C 0.81799 0.51490 0.56750
 C489 C 0.84050 0.53538 0.55288
 C490 C 0.83342 0.56852 0.54958
 C491 C 0.85787 0.58864 0.53658
 C492 C 0.88779 0.57624 0.52704
 C493 C 0.89429 0.54340 0.52951
 C494 C 0.87038 0.52299 0.54212
 H495 H 0.73514 0.52964 0.61811
 H496 H 0.70771 0.64214 0.59023
 H497 H 0.68610 0.55292 0.63890
 H498 H 0.75688 0.64848 0.55980
 H499 H 0.80719 0.62884 0.53982
 H500 H 0.77299 0.50927 0.59089
 H501 H 0.82314 0.48951 0.56996
 H502 H 0.85514 0.61424 0.53454
 H503 H 0.90601 0.59251 0.51768
 H504 H 0.87551 0.49760 0.54473
 C505 C 0.74978 0.43167 1.12600
 C506 C 0.73105 0.41737 1.10126
 C507 C 0.74097 0.38705 1.08942
 C508 C 0.76982 0.37289 1.10046
 C509 C 0.78807 0.38726 1.12529
 C510 C 0.77744 0.41665 1.13806
 C511 C 0.72165 0.37068 1.06721
 C512 C 0.69191 0.38310 1.05767
 C513 C 0.68115 0.41327 1.06877
 C514 C 0.70215 0.43162 1.08890
 C515 C 0.69390 0.46375 1.09553
 C516 C 0.66522 0.47705 1.08420
 C517 C 0.64312 0.45848 1.06715
 C518 C 0.65036 0.42605 1.05988
 C519 C 0.62604 0.40749 1.04498
 C520 C 0.59615 0.42096 1.03699
 C521 C 0.58995 0.45336 1.04281
 C522 C 0.61354 0.47207 1.05769
 H523 H 0.74289 0.45382 1.13758
 H524 H 0.77713 0.34986 1.09071
 H525 H 0.79064 0.42845 1.15740
 H526 H 0.72915 0.34757 1.05784
 H527 H 0.67825 0.36901 1.04059
 H528 H 0.70978 0.47962 1.10848
 H529 H 0.65996 0.50193 1.08954
 H530 H 0.62902 0.38228 1.04027
 H531 H 0.57793 0.40610 1.02578
 H532 H 0.60843 0.49704 1.06282
 C533 C 0.26084 1.08426 -0.13458
 C534 C 0.24292 1.09854 -0.10892
 C535 C 0.25636 1.12569 -0.09349
 C536 C 0.28571 1.13879 -0.10472
 C537 C 0.30268 1.12492 -0.13104
 C538 C 0.28998 1.09719 -0.14534
 C539 C 0.24041 1.13970 -0.06697
 C540 C 0.21148 1.12725 -0.05515
 C541 C 0.19684 1.10055 -0.06997
 C542 C 0.21235 1.08660 -0.09794
 C543 C 0.19645 1.06167 -0.11452
 C544 C 0.16689 1.05013 -0.10374
 C545 C 0.15209 1.06252 -0.07580
 C546 C 0.16690 1.08764 -0.05819
 C547 C 0.15116 1.09849 -0.02934
 C548 C 0.12183 1.08532 -0.01901
 C549 C 0.10706 1.06104 -0.03702
 C550 C 0.12241 1.04978 -0.06541
 H551 H 0.25335 1.06273 -0.14668
 H552 H 0.29520 1.15989 -0.09286
 H553 H 0.30241 1.08526 -0.16531
 H554 H 0.25049 1.16048 -0.05504
 H555 H 0.20078 1.13970 -0.03473
 H556 H 0.20581 1.05095 -0.13658
 H557 H 0.15555 1.03109 -0.11743
 H558 H 0.16105 1.11676 -0.01387
 H559 H 0.11062 1.09435 0.00318
 H560 H 0.11142 1.03073 -0.07935
 C561 C 0.25205 -0.13933 0.41360
 C562 C 0.26786 -0.11096 0.40379
 C563 C 0.25121 -0.08964 0.38239
 C564 C 0.22093 -0.09798 0.36936
 C565 C 0.20568 -0.12660 0.37904
 C566 C 0.22156 -0.14673 0.40177
 C567 C 0.26473 -0.05996 0.37455
 C568 C 0.29387 -0.05059 0.38836
 C569 C 0.31148 -0.07131 0.40937
 C570 C 0.29920 -0.10271 0.41540
 C571 C 0.31895 -0.12513 0.43214
 C572 C 0.34911 -0.11673 0.44393
 C573 C 0.36028 -0.08544 0.44064
 C574 C 0.34133 -0.06203 0.42398
 C575 C 0.35271 -0.03013 0.42341
 C576 C 0.38199 -0.02218 0.43810
 C577 C 0.40117 -0.04575 0.45316
 C578 C 0.39027 -0.07738 0.45420
 H579 H 0.26214 -0.15582 0.43137
 H580 H 0.20890 -0.08165 0.35248
 H581 H 0.21070 -0.16885 0.41035
 H582 H 0.25230 -0.04348 0.35815
 H583 H 0.30267 -0.02729 0.38116
 H584 H 0.31219 -0.14985 0.43545
 H585 H 0.36358 -0.13482 0.45633
 H586 H 0.33908 -0.01066 0.41267
 H587 H 0.38991 0.00251 0.43725
 H588 H 0.40480 -0.09560 0.46636
 C589 C 0.61038 -0.27975 0.56501
 C590 C 0.58697 -0.26034 0.58070
 C591 C 0.57638 -0.26972 0.61251
 C592 C 0.58738 -0.29849 0.62687
 C593 C 0.61082 -0.31750 0.61110
 C594 C 0.62232 -0.30747 0.58014
 C595 C 0.55534 -0.25000 0.63013
 C596 C 0.54559 -0.22051 0.61741
 C597 C 0.55538 -0.21022 0.58578
 C598 C 0.57460 -0.23144 0.56634
 C599 C 0.58030 -0.22336 0.53306
 C600 C 0.56884 -0.19483 0.51960
 C601 C 0.55248 -0.17265 0.53904
 C602 C 0.54613 -0.17966 0.57263
 C603 C 0.53176 -0.15531 0.59192
 C604 C 0.52379 -0.12553 0.57817
 C605 C 0.52898 -0.11939 0.54472
 C606 C 0.54299 -0.14317 0.52519
 H607 H 0.62090 -0.27345 0.54156
 H608 H 0.57856 -0.30528 0.65108
 H609 H 0.64056 -0.32119 0.56719
 H610 H 0.54695 -0.25707 0.65440
 H611 H 0.52941 -0.20664 0.63255
 H612 H 0.59271 -0.23923 0.51643
 H613 H 0.57354 -0.18975 0.49384
 H614 H 0.52758 -0.15813 0.61796
 H615 H 0.51337 -0.10723 0.59374
 H616 H 0.54774 -0.13817 0.49941
 C617 C 1.10346 0.76899 0.43283
 C618 C 1.08585 0.74685 0.41390
 C619 C 1.08364 0.75249 0.37955
 C620 C 1.09721 0.78010 0.36531
 C621 C 1.11471 0.80154 0.38446
 C622 C 1.11789 0.79566 0.41818
 C623 C 1.06856 0.73021 0.35950
 C624 C 1.05688 0.70166 0.37255
 C625 C 1.05876 0.69484 0.40654
 C626 C 1.07148 0.71875 0.42774
 C627 C 1.06910 0.71397 0.46204
 C628 C 1.05641 0.68595 0.47521
 C629 C 1.04665 0.66121 0.45480
 C630 C 1.04805 0.66504 0.42015
 C631 C 1.03984 0.63842 0.40061
 C632 C 1.03056 0.60940 0.41503
 C633 C 1.02850 0.60618 0.44924
 C634 C 1.03614 0.63233 0.46896
 H635 H 1.10762 0.76571 0.45878
 H636 H 1.09527 0.78425 0.33903
 H637 H 1.13160 0.81183 0.43336
 H638 H 1.06651 0.73451 0.33327
 H639 H 1.04567 0.68564 0.35544
 H640 H 1.07609 0.73193 0.47945
 H641 H 1.05500 0.68331 0.50172
 H642 H 1.04156 0.63884 0.37417
 H643 H 1.02503 0.58935 0.39935
 H644 H 1.03519 0.62976 0.49550
 C645 C -0.13210 1.26664 0.07456
 C646 C -0.10466 1.25028 0.08691
 C647 C -0.08946 1.26303 0.11504
 C648 C -0.10229 1.29012 0.13079
 C649 C -0.13020 1.30549 0.11883
 C650 C -0.14452 1.29358 0.09022
 C651 C -0.06162 1.24859 0.12750
 C652 C -0.04847 1.22159 0.11283
 C653 C -0.06304 1.20747 0.08522
 C654 C -0.09190 1.22178 0.07237
 C655 C -0.10753 1.20669 0.04594
 C656 C -0.09557 1.17863 0.03253
 C657 C -0.06735 1.16461 0.04447
 C658 C -0.05023 1.17902 0.07053
 C659 C -0.02109 1.16413 0.08081
 C660 C -0.01036 1.13561 0.06667
 C661 C -0.02818 1.12093 0.04187
 C662 C -0.05643 1.13588 0.03062
 H663 H -0.14454 1.25951 0.05267
 H664 H -0.09041 1.29907 0.15255
 H665 H -0.16577 1.30489 0.07976
 H666 H -0.04982 1.25826 0.14896
 H667 H -0.02715 1.21189 0.12434
 H668 H -0.12971 1.21545 0.03542
 H669 H -0.10872 1.16769 0.01260
 H670 H -0.00592 1.17385 0.09965
 H671 H 0.01175 1.12473 0.07564
 H672 H -0.07022 1.12500 0.01109
 C673 C 0.41085 0.26027 0.85690
 C674 C 0.40560 0.27046 0.88957
 C675 C 0.38971 0.24906 0.91150
 C676 C 0.37789 0.21961 0.90035
 C677 C 0.38294 0.21021 0.86778
 C678 C 0.39986 0.23059 0.84638
 C679 C 0.38589 0.25706 0.94449
 C680 C 0.39819 0.28554 0.95648
 C681 C 0.41388 0.30778 0.93557
 C682 C 0.41613 0.30083 0.90129
 C683 C 0.42805 0.32476 0.87975
 C684 C 0.43833 0.35413 0.89137
 C685 C 0.43817 0.36049 0.92494
 C686 C 0.42669 0.33715 0.94764
 C687 C 0.42905 0.34402 0.98155
 C688 C 0.44131 0.37319 0.99221
 C689 C 0.45122 0.39664 0.96957
 C690 C 0.44960 0.39012 0.93594
 H691 H 0.42411 0.27428 0.83908
 H692 H 0.36535 0.20366 0.91722
 H693 H 0.40432 0.22374 0.82113
 H694 H 0.37364 0.24091 0.96137
 H695 H 0.39403 0.28996 0.98221
 H696 H 0.42871 0.32192 0.85346
 H697 H 0.44689 0.37192 0.87387
 H698 H 0.42237 0.32706 1.00048
 H699 H 0.44261 0.37757 1.01837
 H700 H 0.45781 0.40795 0.91828
 C701 C 0.55749 0.59573 0.73243
 C702 C 0.57532 0.57972 0.75730
 C703 C 0.60913 0.57628 0.75253
 C704 C 0.62391 0.58714 0.72331
 C705 C 0.60583 0.60296 0.69904
 C706 C 0.57262 0.60733 0.70402
 C707 C 0.62811 0.56246 0.77712
 C708 C 0.61452 0.55292 0.80691
 C709 C 0.58102 0.55588 0.81292
 C710 C 0.56091 0.56783 0.78703
 C711 C 0.52707 0.56701 0.79153
 C712 C 0.51336 0.55606 0.82074
 C713 C 0.53272 0.54646 0.84704
 C714 C 0.56685 0.54678 0.84377
 C715 C 0.58539 0.53877 0.87186
 C716 C 0.57056 0.53036 0.90158
 C717 C 0.53686 0.52909 0.90429
 C718 C 0.51807 0.53695 0.87681
 H719 H 0.53200 0.60060 0.73464
 H720 H 0.64975 0.58420 0.71994
 H721 H 0.55816 0.61972 0.68573
 H722 H 0.65392 0.55953 0.77356
 H723 H 0.63088 0.54241 0.82452
 H724 H 0.51039 0.57389 0.77245
 H725 H 0.48726 0.55566 0.82296
 H726 H 0.61139 0.53974 0.87199
 H727 H 0.58561 0.52465 0.92256
 H728 H 0.49195 0.53659 0.87888
 C729 C 0.43856 0.11024 0.75760
 C730 C 0.42092 0.09020 0.73632
 C731 C 0.38735 0.08673 0.74229
 C732 C 0.37268 0.10147 0.76935
 C733 C 0.39053 0.12102 0.79023
 C734 C 0.42346 0.12555 0.78395
 C735 C 0.36842 0.06883 0.72108
 C736 C 0.38179 0.05519 0.69320
 C737 C 0.41502 0.05815 0.68596
 C738 C 0.43521 0.07425 0.70890
 C739 C 0.46897 0.07339 0.70392
 C740 C 0.48246 0.05856 0.67667
 C741 C 0.46287 0.04506 0.65274
 C742 C 0.42881 0.04515 0.65672
 C743 C 0.40989 0.03324 0.63068
 C744 C 0.42432 0.02158 0.60216
 C745 C 0.45793 0.02077 0.59887
 C746 C 0.47714 0.03212 0.62442
 H747 H 0.46383 0.11532 0.75398
 H748 H 0.34701 0.09833 0.77367
 H749 H 0.43769 0.14079 0.79963
 H750 H 0.34280 0.06580 0.72576
 H751 H 0.36555 0.04160 0.67819
 H752 H 0.48574 0.08330 0.72122
 H753 H 0.50852 0.05834 0.67391
 H754 H 0.38387 0.03379 0.63100
 H755 H 0.40906 0.01321 0.58247
 H756 H 0.50321 0.03217 0.62162
 C757 C 0.07275 0.88739 0.26073
 C758 C 0.08770 0.91214 0.24236
 C759 C 0.11708 0.92468 0.25448
 C760 C 0.13155 0.91148 0.28291
 C761 C 0.11691 0.88597 0.29996
 C762 C 0.08715 0.87461 0.28876
 C763 C 0.13195 0.95014 0.23802
 C764 C 0.11844 0.96340 0.20970
 C765 C 0.08969 0.95120 0.19615
 C766 C 0.07443 0.92473 0.21247
 C767 C 0.04690 0.91106 0.19791
 C768 C 0.03446 0.92284 0.16867
 C769 C 0.04856 0.94893 0.15280
 C770 C 0.07602 0.96397 0.16640
 C771 C 0.08855 0.99106 0.14944
 C772 C 0.07492 1.00184 0.11986
 C773 C 0.04853 0.98599 0.10613
 C774 C 0.03534 0.95976 0.12303
 H775 H 0.04971 0.87739 0.25442
 H776 H 0.15433 0.92087 0.29150
 H777 H 0.07473 0.85541 0.30157
 H778 H 0.15434 0.95998 0.24714
 H779 H 0.13166 0.98281 0.19849
 H780 H 0.03470 0.89047 0.20797
 H781 H 0.01351 0.91123 0.15829
 H782 H 0.10875 1.00454 0.15838
 H783 H 0.08546 1.02235 0.10743
 H784 H 0.01461 0.94755 0.11293
 C785 C 0.85506 0.40073 0.26528
 C786 C 0.88820 0.40087 0.27347
 C787 C 0.91069 0.39014 0.24948
 C788 C 0.89994 0.37827 0.21922
 C789 C 0.86702 0.37853 0.21166
 C790 C 0.84481 0.38996 0.23483
 C791 C 0.94374 0.39194 0.25559
 C792 C 0.95507 0.40531 0.28447
 C793 C 0.93360 0.41640 0.30900
 C794 C 0.89971 0.41231 0.30420
 C795 C 0.87845 0.41933 0.33042
 C796 C 0.88972 0.43149 0.35978
 C797 C 0.92241 0.43794 0.36390
 C798 C 0.94484 0.43097 0.33845
 C799 C 0.97747 0.43965 0.34328
 C800 C 0.98732 0.45389 0.37244
 C801 C 0.96516 0.45965 0.39785
 C802 C 0.93274 0.45155 0.39341
 H803 H 0.83650 0.40988 0.28134
 H804 H 0.91725 0.36996 0.20107
 H805 H 0.81922 0.39054 0.22939
 H806 H 0.96108 0.38357 0.23752
 H807 H 0.98092 0.40586 0.28728
 H808 H 0.85288 0.41479 0.32938
 H809 H 0.87252 0.43638 0.37931
 H810 H 0.99582 0.43651 0.32469
 H811 H 1.01252 0.46014 0.37522
 H812 H 0.91534 0.45635 0.41277
   
