data_POSCAR
  _audit_creation_date              2014-09-24
  _audit_creation_method            'ToBaCCo'
  _symmetry_space_group_name_H-M    'P1'
  _symmetry_Int_Tables_number       1
  _symmetry_cell_setting            triclinic
  loop_
  _symmetry_equiv_pos_as_xyz
 x,y,z
_cell_length_a 29.5197
_cell_length_b 29.5894
_cell_length_c 29.4615
_cell_angle_alpha 92.243900
_cell_angle_beta 91.784700
_cell_angle_gamma 89.087200
loop_
  _atom_site_label
  _atom_site_type_symbol
  _atom_site_fract_x
  _atom_site_fract_y
  _atom_site_fract_z
Zn1 Zn 0.79443 0.70333 0.76872
 Zn2 Zn 0.79498 0.77234 0.69739
 Zn3 Zn 0.72056 0.70485 0.69776
 Zn4 Zn 0.72614 0.77914 0.76926
 O5 O 0.75903 0.73993 0.73327
 O6 O 0.85326 0.70674 0.75716
 O7 O 0.78200 0.76263 0.63799
 O8 O 0.72686 0.64586 0.70763
 O9 O 0.85417 0.75913 0.70552
 O10 O 0.78112 0.64460 0.76089
 O11 O 0.72877 0.71066 0.63830
 O12 O 0.66640 0.77464 0.75861
 O13 O 0.78958 0.83203 0.70779
 O14 O 0.66207 0.71841 0.70685
 O15 O 0.73878 0.83731 0.76128
 O16 O 0.73596 0.77036 0.82865
 O17 O 0.78932 0.71679 0.82818
 C18 C 0.87458 0.73099 0.73070
 C19 C 0.75448 0.73598 0.61710
 C20 C 0.75270 0.62418 0.73455
 C21 C 0.64330 0.74826 0.73236
 C22 C 0.76552 0.85574 0.73487
 C23 C 0.76352 0.74444 0.84947
 Zn24 Zn 0.22107 0.70217 0.70202
 Zn25 Zn 0.22608 0.77672 0.77326
 Zn26 Zn 0.29527 0.70167 0.77260
 Zn27 Zn 0.29457 0.77064 0.70116
 O28 O 0.25925 0.73781 0.73724
 O29 O 0.16247 0.71592 0.71039
 O30 O 0.23576 0.76768 0.83260
 O31 O 0.28231 0.64278 0.76541
 O32 O 0.16642 0.77218 0.76214
 O33 O 0.22741 0.64333 0.71278
 O34 O 0.29032 0.71530 0.83199
 O35 O 0.35387 0.75810 0.70905
 O36 O 0.23849 0.83503 0.76567
 O37 O 0.35400 0.70559 0.76062
 O38 O 0.28864 0.83036 0.71156
 O39 O 0.28168 0.76033 0.64183
 O40 O 0.22969 0.70715 0.64254
 C41 C 0.14351 0.74594 0.73558
 C42 C 0.26393 0.74230 0.85333
 C43 C 0.25358 0.62201 0.73970
 C44 C 0.37482 0.73014 0.73402
 C45 C 0.26481 0.85379 0.73910
 C46 C 0.25494 0.73275 0.62114
 Zn47 Zn 0.72276 0.21015 0.79631
 Zn48 Zn 0.79156 0.20035 0.72458
 Zn49 Zn 0.72607 0.27868 0.72483
 Zn50 Zn 0.79994 0.27457 0.79581
 O51 O 0.76009 0.24094 0.76037
 O52 O 0.72816 0.14991 0.78859
 O53 O 0.78005 0.20742 0.66512
 O54 O 0.66637 0.27514 0.73393
 O55 O 0.77863 0.14297 0.73487
 O56 O 0.66415 0.22297 0.78565
 O57 O 0.73343 0.26690 0.66536
 O58 O 0.79422 0.33416 0.78770
 O59 O 0.85187 0.20439 0.73329
 O60 O 0.73966 0.33690 0.73481
 O61 O 0.85785 0.26051 0.78500
 O62 O 0.79289 0.26740 0.85524
 O63 O 0.73352 0.22250 0.85563
 C64 C 0.75220 0.12539 0.76214
 C65 C 0.75598 0.23634 0.64418
 C66 C 0.64429 0.25058 0.75956
 C67 C 0.76819 0.35661 0.76156
 C68 C 0.87582 0.23071 0.75886
 C69 C 0.76386 0.24591 0.87647
 Zn70 Zn 0.29217 0.19841 0.73339
 Zn71 Zn 0.22262 0.20821 0.80425
 Zn72 Zn 0.30023 0.27268 0.80458
 Zn73 Zn 0.22720 0.27690 0.73292
 O74 O 0.26054 0.23904 0.76884
 O75 O 0.27917 0.14106 0.74342
 O76 O 0.23338 0.22011 0.86376
 O77 O 0.35830 0.25920 0.79340
 O78 O 0.22779 0.14781 0.79625
 O79 O 0.35229 0.20269 0.74211
 O80 O 0.29318 0.26459 0.86390
 O81 O 0.24057 0.33504 0.74324
 O82 O 0.16395 0.22138 0.79292
 O83 O 0.29423 0.33248 0.79703
 O84 O 0.16749 0.27336 0.74109
 O85 O 0.23535 0.26537 0.67358
 O86 O 0.28129 0.20542 0.67400
 C87 C 0.25223 0.12336 0.77008
 C88 C 0.26403 0.24296 0.88488
 C89 C 0.37622 0.22943 0.76717
 C90 C 0.26854 0.35486 0.77050
 C91 C 0.14477 0.24903 0.76634
 C92 C 0.25788 0.23458 0.65276
 Zn93 Zn 0.69894 0.72929 0.19828
 Zn94 Zn 0.77684 0.79301 0.19768
 Zn95 Zn 0.70783 0.80374 0.26934
 Zn96 Zn 0.77245 0.72483 0.26934
 O97 O 0.73900 0.76277 0.23365
 O98 O 0.70540 0.73707 0.13883
 O99 O 0.77212 0.85333 0.20539
 O100 O 0.64738 0.79948 0.26127
 O101 O 0.76559 0.78091 0.13831
 O102 O 0.64117 0.74295 0.21001
 O103 O 0.72115 0.86102 0.25860
 O104 O 0.76515 0.73676 0.32867
 O105 O 0.83548 0.77949 0.20847
 O106 O 0.71955 0.79698 0.32888
 O107 O 0.83205 0.72773 0.26050
 O108 O 0.75859 0.66679 0.25945
 O109 O 0.70471 0.66958 0.20591
 C110 C 0.73461 0.75827 0.11752
 C111 C 0.74808 0.87821 0.23153
 C112 C 0.62333 0.77261 0.23639
 C113 C 0.74317 0.76772 0.34984
 C114 C 0.85469 0.75175 0.23491
 C115 C 0.73038 0.64711 0.23235
 Zn116 Zn 0.27650 0.78808 0.20142
 Zn117 Zn 0.19915 0.72362 0.20187
 Zn118 Zn 0.27341 0.71890 0.27239
 Zn119 Zn 0.20818 0.79746 0.27346
 O120 O 0.23932 0.75700 0.23728
 O121 O 0.26531 0.77616 0.14208
 O122 O 0.20448 0.66386 0.20973
 O123 O 0.33312 0.72259 0.26314
 O124 O 0.20591 0.73124 0.14246
 O125 O 0.33523 0.77535 0.21198
 O126 O 0.25939 0.66071 0.26223
 O127 O 0.22004 0.79005 0.33269
 O128 O 0.14135 0.73797 0.21303
 O129 O 0.26651 0.73047 0.33199
 O130 O 0.14790 0.79371 0.26508
 O131 O 0.22118 0.85488 0.26367
 O132 O 0.27121 0.84835 0.20956
 C133 C 0.23476 0.75299 0.12123
 C134 C 0.23048 0.64119 0.23572
 C135 C 0.35516 0.74762 0.23792
 C136 C 0.24424 0.76109 0.35339
 C137 C 0.12370 0.76771 0.23945
 C138 C 0.24745 0.87269 0.23643
 Zn139 Zn 0.70439 0.30067 0.22584
 Zn140 Zn 0.77362 0.22590 0.22305
 Zn141 Zn 0.77962 0.29892 0.29592
 Zn142 Zn 0.70620 0.23088 0.29640
 O143 O 0.74097 0.26410 0.26029
 O144 O 0.70819 0.28808 0.16595
 O145 O 0.83333 0.23399 0.22982
 O146 O 0.77236 0.35803 0.28675
 O147 O 0.76105 0.23414 0.16427
 O148 O 0.71736 0.35935 0.23418
 O149 O 0.83812 0.28648 0.28539
 O150 O 0.71935 0.24045 0.35582
 O151 O 0.76366 0.16699 0.23193
 O152 O 0.77238 0.29252 0.35543
 O153 O 0.71305 0.17155 0.28571
 O154 O 0.64671 0.24286 0.28896
 O155 O 0.64590 0.29642 0.23847
 C156 C 0.73335 0.26031 0.14407
 C157 C 0.85667 0.25976 0.25649
 C158 C 0.74597 0.37975 0.26034
 C159 C 0.74685 0.26711 0.37669
 C160 C 0.73751 0.14817 0.25872
 C161 C 0.62543 0.27120 0.26469
 Zn162 Zn 0.20324 0.29264 0.23409
 Zn163 Zn 0.27401 0.21900 0.23269
 Zn164 Zn 0.28004 0.29446 0.30270
 Zn165 Zn 0.20841 0.22539 0.30735
 O166 O 0.24139 0.25794 0.26913
 O167 O 0.20809 0.27937 0.17452
 O168 O 0.33382 0.22406 0.24230
 O169 O 0.27150 0.35273 0.29163
 O170 O 0.26326 0.22768 0.17345
 O171 O 0.21432 0.35240 0.24133
 O172 O 0.33845 0.28194 0.29212
 O173 O 0.22402 0.23564 0.36577
 O174 O 0.26197 0.16077 0.24093
 O175 O 0.27439 0.28995 0.36281
 O176 O 0.21373 0.16564 0.29681
 O177 O 0.14916 0.23810 0.30292
 O178 O 0.14466 0.28565 0.24661
 C179 C 0.23470 0.25280 0.15293
 C180 C 0.35709 0.25146 0.26725
 C181 C 0.24370 0.37365 0.26598
 C182 C 0.25087 0.26374 0.38534
 C183 C 0.23651 0.14213 0.26842
 C184 C 0.12608 0.26286 0.27638
 C185 C -0.05533 0.68315 0.72924
 C186 C -0.07581 0.72628 0.72947
 C187 C -0.04867 0.76479 0.72980
 C188 C -0.00125 0.76029 0.73091
 C189 C 0.01916 0.71666 0.72956
 C190 C -0.00821 0.67832 0.72854
 C191 C 0.06656 0.71216 0.73006
 C192 C 0.09379 0.75065 0.73387
 C193 C 0.07330 0.79379 0.73633
 C194 C 0.02614 0.79862 0.73418
 H195 H -0.06446 0.79814 0.73068
 H196 H 0.00684 0.64466 0.72787
 H197 H 0.08230 0.67878 0.72873
 H198 H 0.01111 0.83227 0.73561
 H199 H -0.07591 0.65314 0.72903
 H200 H 0.09389 0.82381 0.73919
 C201 C 0.79830 -0.07356 0.70636
 C202 C 0.76856 -0.09431 0.73529
 C203 C 0.74159 -0.06696 0.76419
 C204 C 0.74415 -0.01962 0.76403
 C205 C 0.77409 0.00072 0.73468
 C206 C 0.80105 -0.02653 0.70607
 C207 C 0.77656 0.04798 0.73430
 C208 C 0.74946 0.07547 0.76291
 C209 C 0.71985 0.05487 0.79207
 C210 C 0.71722 0.00776 0.79262
 H211 H 0.71848 -0.08242 0.78668
 H212 H 0.82421 -0.01148 0.68337
 H213 H 0.79960 0.06329 0.71164
 H214 H 0.69407 -0.00723 0.81536
 H215 H 0.81949 -0.09370 0.68376
 H216 H 0.69860 0.07517 0.81447
 C217 C 0.80762 0.74255 -0.07703
 C218 C 0.76571 0.74655 -0.10048
 C219 C 0.72592 0.75240 -0.07589
 C220 C 0.72789 0.75371 -0.02819
 C221 C 0.77038 0.75098 -0.00481
 C222 C 0.81004 0.74540 -0.02956
 C223 C 0.77243 0.75337 0.04288
 C224 C 0.73244 0.75658 0.06748
 C225 C 0.69034 0.75794 0.04403
 C226 C 0.68808 0.75718 -0.00344
 H227 H 0.69343 0.75489 -0.09390
 H228 H 0.84284 0.74288 -0.01222
 H229 H 0.80497 0.75169 0.06089
 H230 H 0.65522 0.75894 -0.02078
 H231 H 0.83863 0.73805 -0.09552
 H232 H 0.65920 0.76043 0.06253
 C233 C 0.57259 0.79535 0.73351
 C234 C 0.59356 0.75244 0.73158
 C235 C 0.56683 0.71358 0.72951
 C236 C 0.51942 0.71751 0.73019
 C237 C 0.49847 0.76088 0.73095
 C238 C 0.52537 0.79957 0.73249
 C239 C 0.45103 0.76479 0.73094
 C240 C 0.42445 0.72599 0.73223
 C241 C 0.44551 0.68315 0.73264
 C242 C 0.49262 0.67887 0.73091
 H243 H 0.58299 0.68040 0.72865
 H244 H 0.50992 0.83305 0.73346
 H245 H 0.43482 0.79794 0.73128
 H246 H 0.50811 0.64542 0.73071
 H247 H 0.59282 0.82563 0.73511
 H248 H 0.42539 0.65293 0.73364
 C249 C 0.29721 -0.07508 0.71112
 C250 C 0.26771 -0.09620 0.74000
 C251 C 0.24102 -0.06918 0.76950
 C252 C 0.24370 -0.02180 0.77001
 C253 C 0.27345 -0.00110 0.74074
 C254 C 0.30006 -0.02802 0.71149
 C255 C 0.27610 0.04619 0.74108
 C256 C 0.24933 0.07339 0.77028
 C257 C 0.21986 0.05244 0.79933
 C258 C 0.21708 0.00529 0.79920
 H259 H 0.21810 -0.08491 0.79197
 H260 H 0.32307 -0.01269 0.68884
 H261 H 0.29900 0.06174 0.71845
 H262 H 0.19406 -0.00997 0.82189
 H263 H 0.31818 -0.09494 0.68808
 H264 H 0.19886 0.07251 0.82217
 C265 C 0.30811 0.74138 -0.07322
 C266 C 0.26609 0.74421 -0.09666
 C267 C 0.22616 0.74849 -0.07210
 C268 C 0.22810 0.74938 -0.02442
 C269 C 0.27066 0.74783 -0.00103
 C270 C 0.31045 0.74385 -0.02575
 C271 C 0.27265 0.74981 0.04665
 C272 C 0.23261 0.75146 0.07120
 C273 C 0.19049 0.75165 0.04774
 C274 C 0.18823 0.75127 0.00029
 H275 H 0.19361 0.75004 -0.09013
 H276 H 0.34331 0.74225 -0.00840
 H277 H 0.30523 0.74905 0.06468
 H278 H 0.15534 0.75210 -0.01707
 H279 H 0.33921 0.73807 -0.09171
 H280 H 0.15931 0.75297 0.06621
 C281 C -0.05338 0.18359 0.75596
 C282 C -0.07440 0.22646 0.75865
 C283 C -0.04760 0.26530 0.76205
 C284 C -0.00014 0.26142 0.76258
 C285 C 0.02080 0.21807 0.76151
 C286 C -0.00613 0.17938 0.75802
 C287 C 0.06829 0.21421 0.76363
 C288 C 0.09501 0.25310 0.76484
 C289 C 0.07397 0.29595 0.76433
 C290 C 0.02675 0.30013 0.76391
 H291 H -0.06373 0.29849 0.76357
 H292 H 0.00933 0.14591 0.75675
 H293 H 0.08450 0.18106 0.76334
 H294 H 0.01127 0.33359 0.76434
 H295 H -0.07360 0.15331 0.75341
 H296 H 0.09418 0.32623 0.76519
 C297 C 0.71801 0.55128 0.70623
 C298 C 0.74977 0.57425 0.73487
 C299 C 0.77884 0.54911 0.76343
 C300 C 0.77634 0.50176 0.76323
 C301 C 0.74434 0.47915 0.73420
 C302 C 0.71532 0.50422 0.70591
 C303 C 0.74189 0.43186 0.73384
 C304 C 0.77103 0.40658 0.76216
 C305 C 0.80272 0.42943 0.79097
 C306 C 0.80535 0.47658 0.79150
 H307 H 0.80353 0.56629 0.78569
 H308 H 0.69057 0.48742 0.68345
 H309 H 0.71724 0.41480 0.71145
 H310 H 0.83011 0.49333 0.81399
 H311 H 0.69519 0.56970 0.68389
 H312 H 0.82557 0.41086 0.81315
 C313 C 0.80747 0.24677 -0.04978
 C314 C 0.76555 0.24806 -0.07353
 C315 C 0.72534 0.25157 -0.04929
 C316 C 0.72701 0.25422 -0.00159
 C317 C 0.76934 0.25146 0.02206
 C318 C 0.80935 0.24780 -0.00233
 C319 C 0.77098 0.25281 0.06970
 C320 C 0.73105 0.25866 0.09406
 C321 C 0.68928 0.26285 0.07042
 C322 C 0.68718 0.25999 0.02291
 H323 H 0.69294 0.25321 -0.06758
 H324 H 0.84208 0.24603 0.01527
 H325 H 0.80338 0.25023 0.08789
 H326 H 0.65450 0.26256 0.00535
 H327 H 0.83876 0.24408 -0.06802
 H328 H 0.65820 0.26740 0.08876
 C329 C 0.57275 0.29662 0.75657
 C330 C 0.59448 0.25425 0.75941
 C331 C 0.56842 0.21533 0.76297
 C332 C 0.52098 0.21861 0.76352
 C333 C 0.49940 0.26160 0.76229
 C334 C 0.52558 0.30037 0.75864
 C335 C 0.45202 0.26499 0.76440
 C336 C 0.42591 0.22584 0.76578
 C337 C 0.44747 0.18323 0.76544
 C338 C 0.49471 0.17965 0.76502
 H339 H 0.58508 0.18247 0.76459
 H340 H 0.50959 0.33353 0.75724
 H341 H 0.43535 0.29790 0.76397
 H342 H 0.51066 0.14643 0.76558
 H343 H 0.59240 0.32696 0.75388
 H344 H 0.42772 0.15276 0.76642
 C345 C 0.21913 0.54874 0.71221
 C346 C 0.25063 0.57210 0.74081
 C347 C 0.27932 0.54737 0.77013
 C348 C 0.27667 0.50003 0.77071
 C349 C 0.24495 0.47707 0.74165
 C350 C 0.21631 0.50172 0.71263
 C351 C 0.24242 0.42981 0.74194
 C352 C 0.27122 0.40486 0.77091
 C353 C 0.30257 0.42805 0.79982
 C354 C 0.30527 0.47520 0.79972
 H355 H 0.30378 0.56484 0.79241
 H356 H 0.19178 0.48464 0.69014
 H357 H 0.21803 0.41250 0.71945
 H358 H 0.32980 0.49222 0.82226
 H359 H 0.19660 0.56682 0.68930
 H360 H 0.32516 0.40975 0.82248
 C361 C 0.30811 0.24375 -0.04153
 C362 C 0.26602 0.24421 -0.06506
 C363 C 0.22595 0.24596 -0.04053
 C364 C 0.22790 0.24777 0.00719
 C365 C 0.27043 0.24597 0.03060
 C366 C 0.31031 0.24397 0.00592
 C367 C 0.27235 0.24672 0.07828
 C368 C 0.23244 0.25109 0.10287
 C369 C 0.19044 0.25416 0.07942
 C370 C 0.18811 0.25185 0.03193
 H371 H 0.19339 0.24692 -0.05858
 H372 H 0.34318 0.24294 0.02330
 H373 H 0.30490 0.24498 0.09629
 H374 H 0.15527 0.25364 0.01457
 H375 H 0.33932 0.24236 -0.05995
 H376 H 0.15934 0.25754 0.09792
 C377 C -0.07494 0.70419 0.23626
 C378 C -0.09560 0.74721 0.23583
 C379 C -0.06856 0.78584 0.23653
 C380 C -0.02112 0.78157 0.23808
 C381 C -0.00055 0.73803 0.23695
 C382 C -0.02777 0.69957 0.23611
 C383 C 0.04686 0.73373 0.23696
 C384 C 0.07398 0.77235 0.23995
 C385 C 0.05336 0.81540 0.24267
 C386 C 0.00615 0.82002 0.24109
 H387 H -0.08449 0.81913 0.23687
 H388 H -0.01258 0.66598 0.23564
 H389 H 0.06271 0.70042 0.23543
 H390 H -0.00902 0.85362 0.24240
 H391 H -0.09542 0.67410 0.23578
 H392 H 0.07385 0.84551 0.24492
 C393 C 0.78068 -0.05165 0.20079
 C394 C 0.75154 -0.07189 0.23070
 C395 C 0.72567 -0.04405 0.26010
 C396 C 0.72878 0.00316 0.25972
 C397 C 0.75812 0.02320 0.22955
 C398 C 0.78393 -0.00455 0.20021
 C399 C 0.76108 0.07057 0.22925
 C400 C 0.73502 0.09815 0.25879
 C401 C 0.70603 0.07761 0.28865
 C402 C 0.70295 0.03066 0.28911
 H403 H 0.70306 -0.05905 0.28340
 H404 H 0.80662 0.01014 0.17682
 H405 H 0.78357 0.08585 0.20603
 H406 H 0.68029 0.01585 0.31248
 H407 H 0.80103 -0.07222 0.17777
 H408 H 0.68554 0.09788 0.31180
 C409 C 0.74794 0.69279 0.54292
 C410 C 0.75225 0.73440 0.56708
 C411 C 0.75394 0.77449 0.54324
 C412 C 0.75082 0.77309 0.49556
 C413 C 0.74788 0.73089 0.47144
 C414 C 0.74645 0.69096 0.49544
 C415 C 0.74600 0.72939 0.42377
 C416 C 0.74522 0.76957 0.39990
 C417 C 0.74669 0.81137 0.42409
 C418 C 0.75012 0.81312 0.47156
 H419 H 0.75660 0.80674 0.56186
 H420 H 0.74382 0.65838 0.47751
 H421 H 0.74425 0.69705 0.40520
 H422 H 0.75196 0.84576 0.48948
 H423 H 0.74656 0.66160 0.56085
 H424 H 0.74616 0.84266 0.40617
 C425 C 0.55146 0.81806 0.24014
 C426 C 0.57354 0.77571 0.23801
 C427 C 0.54779 0.73614 0.23690
 C428 C 0.50032 0.73879 0.23804
 C429 C 0.47824 0.78158 0.23848
 C430 C 0.50413 0.82099 0.23972
 C431 C 0.43070 0.78416 0.23788
 C432 C 0.40504 0.74464 0.23869
 C433 C 0.42724 0.70241 0.23994
 C434 C 0.47452 0.69943 0.23895
 H435 H 0.56479 0.70337 0.23588
 H436 H 0.48778 0.85405 0.24048
 H437 H 0.41364 0.81689 0.23757
 H438 H 0.49090 0.66640 0.23904
 H439 H 0.57086 0.84887 0.24102
 H440 H 0.40790 0.67165 0.24061
 C441 C 0.27895 -0.05643 0.20636
 C442 C 0.25042 -0.07737 0.23633
 C443 C 0.22471 -0.05018 0.26651
 C444 C 0.22748 -0.00291 0.26689
 C445 C 0.25628 0.01777 0.23667
 C446 C 0.28184 -0.00931 0.20652
 C447 C 0.25908 0.06511 0.23718
 C448 C 0.23347 0.09216 0.26762
 C449 C 0.20493 0.07108 0.29747
 C450 C 0.20195 0.02403 0.29710
 H451 H 0.20255 -0.06575 0.28985
 H452 H 0.30411 0.00595 0.18310
 H453 H 0.28126 0.08082 0.21396
 H454 H 0.17969 0.00872 0.32050
 H455 H 0.29913 -0.07649 0.18276
 H456 H 0.18481 0.09097 0.32125
 C457 C 0.24905 0.68845 0.54750
 C458 C 0.25310 0.73039 0.57111
 C459 C 0.25495 0.77010 0.54672
 C460 C 0.25216 0.76802 0.49904
 C461 C 0.24940 0.72552 0.47546
 C462 C 0.24789 0.68595 0.50001
 C463 C 0.24766 0.72340 0.42776
 C464 C 0.24676 0.76328 0.40342
 C465 C 0.24819 0.80535 0.42711
 C466 C 0.25154 0.80772 0.47454
 H467 H 0.25742 0.80260 0.56489
 H468 H 0.24541 0.65314 0.48252
 H469 H 0.24595 0.69086 0.40957
 H470 H 0.25326 0.84056 0.49206
 H471 H 0.24758 0.65752 0.56586
 H472 H 0.24758 0.83642 0.40881
 C473 C -0.07420 0.25331 0.21019
 C474 C -0.09366 0.25939 0.25293
 C475 C -0.06550 0.26581 0.29185
 C476 C -0.01820 0.26558 0.28818
 C477 C 0.00107 0.26069 0.24483
 C478 C -0.02724 0.25456 0.20608
 C479 C 0.04832 0.26132 0.24106
 C480 C 0.07654 0.26474 0.28019
 C481 C 0.05726 0.26843 0.32315
 C482 C 0.01022 0.26959 0.32711
 H483 H -0.08039 0.27006 0.32496
 H484 H -0.01306 0.25041 0.17266
 H485 H 0.06321 0.25772 0.20790
 H486 H -0.00391 0.27300 0.36060
 H487 H -0.09545 0.24852 0.17979
 H488 H 0.07870 0.27097 0.35364
 C489 C 0.69620 0.57417 0.20276
 C490 C 0.72751 0.59716 0.23187
 C491 C 0.75624 0.57204 0.26075
 C492 C 0.75379 0.52477 0.26062
 C493 C 0.72218 0.50201 0.23126
 C494 C 0.69355 0.52702 0.20246
 C495 C 0.71975 0.45467 0.23124
 C496 C 0.74855 0.42969 0.26022
 C497 C 0.77987 0.45282 0.28922
 C498 C 0.78246 0.49989 0.28942
 H499 H 0.78060 0.58921 0.28339
 H500 H 0.66911 0.51014 0.17972
 H501 H 0.69542 0.43736 0.20867
 H502 H 0.80689 0.51682 0.31214
 H503 H 0.67366 0.59262 0.18018
 H504 H 0.80245 0.43453 0.31189
 C505 C 0.75232 0.19254 0.57009
 C506 C 0.75406 0.23441 0.59413
 C507 C 0.75394 0.27448 0.57011
 C508 C 0.75253 0.27276 0.52242
 C509 C 0.74932 0.23050 0.49844
 C510 C 0.74929 0.19059 0.52262
 C511 C 0.74665 0.22889 0.45074
 C512 C 0.74904 0.26882 0.42674
 C513 C 0.75364 0.31047 0.45077
 C514 C 0.75470 0.31253 0.49825
 H515 H 0.75591 0.30685 0.58858
 H516 H 0.74725 0.15791 0.50482
 H517 H 0.74372 0.19660 0.43225
 H518 H 0.75754 0.34515 0.51606
 H519 H 0.75236 0.16133 0.58814
 H520 H 0.75551 0.34156 0.43273
 C521 C 0.55451 0.31778 0.26696
 C522 C 0.57581 0.27503 0.26680
 C523 C 0.54944 0.23605 0.26764
 C524 C 0.50199 0.23969 0.26772
 C525 C 0.48081 0.28295 0.26901
 C526 C 0.50739 0.32177 0.26877
 C527 C 0.43339 0.28661 0.26982
 C528 C 0.40686 0.24761 0.26741
 C529 C 0.42808 0.20482 0.26495
 C530 C 0.47531 0.20085 0.26577
 H531 H 0.56583 0.20297 0.26684
 H532 H 0.49173 0.35515 0.26940
 H533 H 0.41707 0.31971 0.27113
 H534 H 0.49094 0.16746 0.26441
 H535 H 0.57446 0.34815 0.26630
 H536 H 0.40804 0.17441 0.26316
 C537 C 0.19507 0.56839 0.20688
 C538 C 0.22700 0.59121 0.23547
 C539 C 0.25562 0.56591 0.26423
 C540 C 0.25247 0.51869 0.26457
 C541 C 0.22026 0.49605 0.23578
 C542 C 0.19174 0.52126 0.20703
 C543 C 0.21723 0.44866 0.23626
 C544 C 0.24611 0.42367 0.26518
 C545 C 0.27795 0.44683 0.29361
 C546 C 0.28108 0.49379 0.29332
 H547 H 0.28042 0.58291 0.28651
 H548 H 0.16683 0.50455 0.18469
 H549 H 0.19255 0.43134 0.21412
 H550 H 0.30595 0.51062 0.31561
 H551 H 0.17256 0.58697 0.18438
 H552 H 0.30064 0.42864 0.31626
 C553 C 0.25456 0.19059 0.57898
 C554 C 0.25677 0.23254 0.60279
 C555 C 0.25805 0.27246 0.57864
 C556 C 0.25741 0.27048 0.53096
 C557 C 0.25364 0.22815 0.50722
 C558 C 0.25236 0.18842 0.53153
 C559 C 0.25135 0.22627 0.45959
 C560 C 0.25440 0.26595 0.43532
 C561 C 0.25979 0.30767 0.45907
 C562 C 0.26070 0.31001 0.50657
 H563 H 0.26042 0.30487 0.59699
 H564 H 0.24985 0.15569 0.51386
 H565 H 0.24776 0.19391 0.44134
 H566 H 0.26400 0.34267 0.52420
 H567 H 0.25358 0.15952 0.59717
 H568 H 0.26212 0.33859 0.44083
   
