data_POSCAR
  _audit_creation_date              2014-09-24
  _audit_creation_method            'ToBaCCo'
  _symmetry_space_group_name_H-M    'P1'
  _symmetry_Int_Tables_number       1
  _symmetry_cell_setting            triclinic
  loop_
  _symmetry_equiv_pos_as_xyz
 x,y,z
_cell_length_a 12.7976
_cell_length_b 12.9047
_cell_length_c 12.7964
_cell_angle_alpha 89.945500
_cell_angle_beta 90.466100
_cell_angle_gamma 120.194000
loop_
  _atom_site_label
  _atom_site_type_symbol
  _atom_site_fract_x
  _atom_site_fract_y
  _atom_site_fract_z
O1 O 0.32494 0.46755 0.33466
 O2 O 0.14502 0.50520 0.36443
 C3 C 0.10633 0.57628 0.38458
 O4 O 0.13814 0.67201 0.33386
 O5 O 0.35703 0.85128 0.36599
 C6 C 0.46802 0.89065 0.38643
 O7 O 0.53228 0.85853 0.33642
 O8 O 0.49352 0.64166 0.36696
 C9 C 0.42184 0.53153 0.38605
 O10 O 0.29819 0.47933 0.12620
 O11 O 0.11264 0.50612 0.15557
 C12 C 0.11115 0.58867 0.10255
 O13 O 0.17639 0.69881 0.12556
 O14 O 0.38967 0.88327 0.15798
 C15 C 0.47483 0.88536 0.10613
 O16 O 0.52049 0.82066 0.12808
 O17 O 0.49280 0.60927 0.15875
 C18 C 0.40938 0.52471 0.10561
 Cr19 Cr 0.22444 0.49626 0.24545
 Cr20 Cr 0.26771 0.77204 0.24606
 Cr21 Cr 0.50301 0.73008 0.24770
 O22 O 0.33175 0.66614 0.24700
 O23 O 0.50693 0.35919 0.63299
 O24 O 0.46738 0.14198 0.66307
 C25 C 0.53151 0.10981 0.61290
 O26 O 0.64246 0.14896 0.63332
 O27 O 0.86154 0.32761 0.66600
 C28 C 0.89372 0.42356 0.61551
 O29 O 0.85532 0.49483 0.63583
 O30 O 0.67574 0.53303 0.66559
 C31 C 0.57886 0.46932 0.61408
 O32 O 0.50744 0.39112 0.84122
 O33 O 0.47906 0.17942 0.87151
 C34 C 0.52436 0.11435 0.89322
 O35 O 0.60929 0.11618 0.84121
 O36 O 0.82270 0.30009 0.87418
 C37 C 0.88818 0.41010 0.89734
 O38 O 0.88734 0.49318 0.84473
 O39 O 0.70209 0.52058 0.87406
 C40 C 0.59091 0.47542 0.89454
 Cr41 Cr 0.49696 0.27036 0.75205
 Cr42 Cr 0.73162 0.22753 0.75348
 Cr43 Cr 0.77587 0.50370 0.75480
 O44 O 0.66813 0.33387 0.75286
 C45 C 0.52827 -0.02115 0.47116
 C46 C 0.47119 0.02175 0.52807
 H47 H 0.62280 0.00940 0.48671
 H48 H 0.37666 -0.00879 0.51254
 C49 C 1.01954 0.54847 0.46996
 C50 C 0.98059 0.45139 0.53019
 H51 H 0.98725 0.61046 0.48360
 H52 H 1.01284 0.38937 0.51653
 C53 C 0.45033 0.47202 0.47073
 C54 C 0.55054 0.52905 0.52943
 H55 H 0.38652 0.37807 0.48475
 H56 H 0.61438 0.62300 0.51543
 C57 C 0.52390 -0.03271 1.01659
 C58 C 0.47516 0.03230 0.98269
 H59 H 0.60101 -0.02722 0.97688
 H60 H 0.39809 0.02686 1.02242
 C61 C 1.03762 0.55914 1.01896
 C62 C 0.96453 0.44025 0.98434
 H63 H 1.03657 0.63093 0.97561
 H64 H 0.96493 0.36772 1.02694
 C65 C 0.44281 0.47604 1.01617
 C66 C 0.55752 0.52406 0.98403
 H67 H 0.37081 0.39981 0.97507
 H68 H 0.62952 0.60027 1.02514
   
