data_POSCAR
  _audit_creation_date              2014-09-24
  _audit_creation_method            'ToBaCCo'
  _symmetry_space_group_name_H-M    'P1'
  _symmetry_Int_Tables_number       1
  _symmetry_cell_setting            triclinic
  loop_
  _symmetry_equiv_pos_as_xyz
 x,y,z
_cell_length_a 59.0661
_cell_length_b 31.9329
_cell_length_c 23.7085
_cell_angle_alpha 90.339900
_cell_angle_beta 89.899700
_cell_angle_gamma 90.026900
loop_
  _atom_site_label
  _atom_site_type_symbol
  _atom_site_fract_x
  _atom_site_fract_y
  _atom_site_fract_z
O1 O 0.73644 0.28957 0.55816
 O2 O 0.77704 0.25681 0.44871
 O3 O 0.73724 0.29305 0.44823
 O4 O 0.77565 0.25307 0.55815
 O5 O 0.76001 0.19047 0.54959
 O6 O 0.72000 0.23167 0.44514
 O7 O 0.75959 0.19589 0.44082
 O8 O 0.72024 0.22724 0.55437
 Cu9 Cu 0.75823 0.27939 0.50370
 Cu10 Cu 0.73826 0.20513 0.49707
 C11 C 0.72149 0.26397 0.57505
 C12 C 0.77534 0.22072 0.42627
 C13 C 0.72185 0.26926 0.42867
 C14 C 0.77464 0.21467 0.57158
 O15 O 0.27740 0.76054 0.45049
 O16 O 0.23693 0.79383 0.55988
 O17 O 0.27602 0.75675 0.55993
 O18 O 0.23766 0.79679 0.44992
 O19 O 0.22041 0.73541 0.44685
 O20 O 0.26007 0.69437 0.55195
 O21 O 0.22044 0.73181 0.55608
 O22 O 0.25995 0.69953 0.44321
 Cu23 Cu 0.25865 0.78323 0.50546
 Cu24 Cu 0.23850 0.70910 0.49919
 C25 C 0.27565 0.72437 0.42841
 C26 C 0.22178 0.76858 0.57671
 C27 C 0.27483 0.71843 0.57363
 C28 C 0.22231 0.77294 0.43026
 O29 O 0.26029 0.30461 -0.55564
 O30 O 0.22062 0.26763 -0.44674
 O31 O 0.26031 0.30365 -0.44570
 O32 O 0.22063 0.26832 -0.55600
 O33 O 0.23745 0.20659 -0.55811
 O34 O 0.27687 0.24163 -0.44735
 O35 O 0.23723 0.20565 -0.44791
 O36 O 0.27709 0.24285 -0.55618
 Cu37 Cu 0.23881 0.29229 -0.50091
 Cu38 Cu 0.25875 0.21789 -0.50258
 C39 C 0.27566 0.28021 -0.57393
 C40 C 0.22210 0.23030 -0.42902
 C41 C 0.27546 0.27872 -0.42811
 C42 C 0.22219 0.23133 -0.57565
 O43 O -0.24066 0.80427 -0.55469
 O44 O -0.28025 0.76944 -0.44383
 O45 O -0.24071 0.80739 -0.44575
 O46 O -0.28009 0.76789 -0.55328
 O47 O -0.26270 0.70665 -0.55293
 O48 O -0.22462 0.74506 -0.44063
 O49 O -0.26359 0.70757 -0.44285
 O50 O -0.22307 0.74334 -0.55016
 Cu51 Cu -0.26217 0.79341 -0.49942
 Cu52 Cu -0.24183 0.71942 -0.49654
 C53 C -0.22486 0.77988 -0.57050
 C54 C -0.27882 0.73235 -0.42494
 C55 C -0.22591 0.78312 -0.42512
 C56 C -0.27806 0.73069 -0.57167
 O57 O -0.03072 0.93013 0.10738
 O58 O -0.05583 0.96680 0.05281
 C59 C -0.05109 0.94083 0.09294
 O60 O 0.03252 1.07965 0.09610
 O61 O 0.05750 1.03775 0.04734
 C62 C 0.05288 1.06774 0.08267
 O63 O -0.03083 1.07571 0.10318
 O64 O -0.05585 1.03647 0.05099
 C65 C -0.05118 1.06411 0.08953
 O66 O 0.03257 0.92634 0.10086
 O67 O 0.05752 0.96580 0.04907
 C68 C 0.05291 0.93750 0.08638
 Zr69 Zr 0.00078 0.94921 0.07341
 O70 O 0.00291 0.95038 0.16249
 O71 O -0.00174 0.88305 0.07342
 Zr72 Zr 0.00071 1.05498 0.07091
 O73 O 0.00191 1.05281 0.15994
 O74 O -0.00119 1.12115 0.07066
 O75 O -0.01943 1.00229 0.08336
 O76 O 0.02046 1.00238 0.08239
 O77 O 0.03232 0.92274 -0.09574
 O78 O 0.05733 0.96392 -0.04641
 C79 C 0.05267 0.93428 -0.08214
 O80 O -0.03103 1.06927 -0.10617
 O81 O -0.05608 1.03509 -0.04835
 C82 C -0.05138 1.05946 -0.09028
 O83 O 0.03219 1.07618 -0.09863
 O84 O 0.05727 1.03642 -0.04805
 C85 C 0.05256 1.06501 -0.08481
 O86 O -0.03095 0.92896 -0.10322
 O87 O -0.05604 0.96467 -0.04668
 C88 C -0.05130 0.93911 -0.08767
 Zr89 Zr 0.00067 0.94660 -0.06842
 O90 O 0.00353 0.94168 -0.15718
 O91 O -0.00249 0.88067 -0.06282
 Zr92 Zr 0.00062 1.05260 -0.07086
 O93 O 0.00325 1.05487 -0.15982
 O94 O -0.00108 1.11859 -0.06518
 Zr95 Zr -0.03324 1.00078 0.00154
 Zr96 Zr 0.03452 1.00090 0.00081
 O97 O 0.02024 0.99949 -0.08043
 O98 O -0.01943 0.99938 -0.08064
 O99 O 0.02106 0.93973 0.00250
 O100 O -0.01926 1.06136 -0.00010
 O101 O -0.01917 0.94025 0.00280
 O102 O 0.02097 1.06190 -0.00042
 H103 H 0.03064 1.00305 0.11555
 H104 H -0.02961 1.08576 -0.00080
 H105 H 0.03027 0.99903 -0.11397
 H106 H -0.02960 0.91592 0.00330
 H107 H 0.00883 1.13102 0.03998
 H108 H -0.00129 1.12884 -0.10453
 H109 H -0.00680 1.03284 -0.17516
 H110 H -0.00660 0.96300 -0.17354
 H111 H 0.01148 0.86983 -0.04518
 H112 H 0.01135 0.87188 0.05206
 H113 H -0.00679 0.97369 0.17584
 H114 H 0.00214 1.08232 0.17309
 O115 O 0.46879 0.43100 0.10752
 O116 O 0.44384 0.46771 0.05249
 C117 C 0.44847 0.44192 0.09291
 O118 O 0.53278 0.57940 0.09380
 O119 O 0.55750 0.53671 0.04555
 C120 C 0.55305 0.56701 0.08050
 O121 O 0.46951 0.57651 0.10125
 O122 O 0.44422 0.53739 0.04972
 C123 C 0.44908 0.56517 0.08790
 O124 O 0.53205 0.42605 0.10126
 O125 O 0.55719 0.46439 0.04859
 C126 C 0.55244 0.43658 0.08645
 Zr127 Zr 0.50040 0.44935 0.07346
 O128 O 0.50259 0.45172 0.16250
 O129 O 0.49752 0.38326 0.07509
 Zr130 Zr 0.50090 0.55497 0.06902
 O131 O 0.50217 0.55355 0.15808
 O132 O 0.49937 0.62116 0.06759
 O133 O 0.48047 0.50284 0.08249
 O134 O 0.52041 0.50216 0.08132
 O135 O 0.53165 0.42028 -0.09499
 O136 O 0.55695 0.46164 -0.04681
 C137 C 0.55208 0.43164 -0.08184
 O138 O 0.46910 0.56796 -0.10837
 O139 O 0.44390 0.53517 -0.04945
 C140 C 0.44871 0.55896 -0.09192
 O141 O 0.53230 0.57425 -0.10067
 O142 O 0.55729 0.53451 -0.04975
 C143 C 0.55264 0.56307 -0.08667
 O144 O 0.46837 0.42494 -0.09945
 O145 O 0.44365 0.46508 -0.04753
 C146 C 0.44812 0.43705 -0.08572
 Zr147 Zr 0.50016 0.44536 -0.06847
 O148 O 0.50260 0.44283 -0.15756
 O149 O 0.49722 0.37935 -0.06467
 Zr150 Zr 0.50067 0.55118 -0.07272
 O151 O 0.50319 0.55250 -0.16171
 O152 O 0.49926 0.61724 -0.06836
 Zr153 Zr 0.46660 0.50085 0.00073
 Zr154 Zr 0.53441 0.49959 -0.00030
 O155 O 0.52007 0.49771 -0.08143
 O156 O 0.48026 0.49826 -0.08150
 O157 O 0.52054 0.43876 0.00256
 O158 O 0.48092 0.56110 -0.00201
 O159 O 0.48040 0.44014 0.00311
 O160 O 0.52113 0.56078 -0.00254
 H161 H 0.53061 0.50296 0.11444
 H162 H 0.47070 0.58568 -0.00305
 H163 H 0.53015 0.49680 -0.11487
 H164 H 0.46999 0.41582 0.00433
 H165 H 0.50933 0.63052 0.03652
 H166 H 0.49902 0.62708 -0.10791
 H167 H 0.49412 0.52879 -0.17624
 H168 H 0.48967 0.45866 -0.17311
 H169 H 0.51009 0.36880 -0.04224
 H170 H 0.51055 0.37153 0.05406
 H171 H 0.49263 0.47479 0.17542
 H172 H 0.50251 0.58316 0.17079
 C173 C 0.32360 0.32433 0.31580
 N174 N 0.32490 0.28476 0.33611
 N175 N 0.30908 0.27019 0.37095
 C176 C 0.29144 0.29476 0.38719
 N177 N 0.29007 0.33429 0.36656
 N178 N 0.30581 0.34875 0.33135
 C179 C 0.34164 0.34091 0.27958
 N180 N 0.33908 0.37801 0.25264
 N181 N 0.35581 0.39355 0.22127
 C182 C 0.37575 0.37272 0.21613
 N183 N 0.37828 0.33562 0.24303
 N184 N 0.36150 0.31993 0.27402
 C185 C 0.39450 0.39039 0.18326
 N186 N 0.41565 0.37416 0.18771
 N187 N 0.43284 0.39061 0.15890
 C188 C 0.42946 0.42368 0.12423
 N189 N 0.40828 0.43979 0.11950
 N190 N 0.39112 0.42355 0.14870
 C191 C -0.17564 0.82320 0.31719
 N192 N -0.17319 0.78571 0.34316
 N193 N -0.18912 0.77155 0.37802
 C194 C -0.20804 0.79445 0.38841
 N195 N -0.21056 0.83188 0.36226
 N196 N -0.19467 0.84593 0.32712
 C197 C -0.15757 0.83953 0.28080
 N198 N -0.16075 0.87479 0.25006
 N199 N -0.14405 0.89021 0.21849
 C200 C -0.12352 0.87109 0.21685
 N201 N -0.12037 0.83582 0.24751
 N202 N -0.13710 0.82026 0.27877
 C203 C -0.10484 0.88875 0.18365
 N204 N -0.08348 0.87373 0.18956
 N205 N -0.06638 0.89027 0.16054
 C206 C -0.07003 0.92227 0.12424
 N207 N -0.09141 0.93716 0.11807
 N208 N -0.10850 0.92079 0.14740
 C209 C 0.67529 0.68680 0.30951
 N210 N 0.69339 0.66296 0.32403
 N211 N 0.70844 0.67698 0.36153
 C212 C 0.70595 0.71540 0.38561
 N213 N 0.68796 0.73930 0.37072
 N214 N 0.67289 0.72522 0.33349
 C215 C 0.65805 0.67086 0.27034
 N216 N 0.63839 0.69214 0.26315
 N217 N 0.62223 0.67702 0.22963
 C218 C 0.62520 0.64020 0.20173
 N219 N 0.64496 0.61908 0.20844
 N220 N 0.66108 0.63410 0.24225
 C221 C 0.60685 0.62260 0.16728
 N222 N 0.61028 0.58791 0.13500
 N223 N 0.59325 0.57082 0.10610
 C224 C 0.57217 0.58767 0.10867
 N225 N 0.56878 0.62249 0.14068
 N226 N 0.58583 0.63973 0.16927
 C227 C 0.17566 1.18953 0.30842
 N228 N 0.19321 1.16478 0.32411
 N229 N 0.20845 1.17848 0.36128
 C230 C 0.20678 1.21755 0.38392
 N231 N 0.18936 1.24246 0.36767
 N232 N 0.17404 1.22865 0.33080
 C233 C 0.15820 1.17363 0.26979
 N234 N 0.13856 1.19500 0.26260
 N235 N 0.12224 1.17961 0.22975
 C236 C 0.12502 1.14243 0.20256
 N237 N 0.14476 1.12127 0.20926
 N238 N 0.16102 1.13652 0.24242
 C239 C 0.10658 1.12444 0.16869
 N240 N 0.11009 1.08974 0.13649
 N241 N 0.09308 1.07226 0.10797
 C242 C 0.07191 1.08868 0.11090
 N243 N 0.06842 1.12349 0.14289
 N244 N 0.08546 1.14114 0.17109
 C245 C 0.67406 0.30491 -0.30585
 N246 N 0.69266 0.32827 -0.31758
 N247 N 0.70792 0.31488 -0.35497
 C248 C 0.70521 0.27753 -0.38176
 N249 N 0.68672 0.25394 -0.36962
 N250 N 0.67138 0.26745 -0.33245
 C251 C 0.65663 0.32094 -0.26711
 N252 N 0.63628 0.30144 -0.26269
 N253 N 0.62003 0.31738 -0.22997
 C254 C 0.62358 0.35326 -0.20025
 N255 N 0.64401 0.37249 -0.20418
 N256 N 0.66022 0.35669 -0.23713
 C257 C 0.60526 0.37214 -0.16677
 N258 N 0.60924 0.40621 -0.13370
 N259 N 0.59237 0.42466 -0.10564
 C260 C 0.57089 0.40983 -0.10988
 N261 N 0.56694 0.37563 -0.14269
 N262 N 0.58382 0.35705 -0.17051
 C263 C 0.17516 0.80947 -0.30669
 N264 N 0.19285 0.83412 -0.32182
 N265 N 0.20809 0.82061 -0.35916
 C266 C 0.20630 0.78182 -0.38258
 N267 N 0.18875 0.75694 -0.36689
 N268 N 0.17340 0.77059 -0.32981
 C269 C 0.15771 0.82549 -0.26798
 N270 N 0.13781 0.80479 -0.26141
 N271 N 0.12151 0.82061 -0.22874
 C272 C 0.12457 0.85757 -0.20115
 N273 N 0.14457 0.87802 -0.20722
 N274 N 0.16081 0.86234 -0.24017
 C275 C 0.10617 0.87616 -0.16763
 N276 N 0.10989 0.91074 -0.13534
 N277 N 0.09293 0.92878 -0.10711
 C278 C 0.07161 0.91306 -0.11048
 N279 N 0.06792 0.87838 -0.14257
 N280 N 0.08490 0.86018 -0.17049
 C281 C 0.32343 0.66963 -0.31745
 N282 N 0.31369 0.64515 -0.35760
 N283 N 0.29775 0.66054 -0.39124
 C284 C 0.29125 0.70117 -0.38659
 N285 N 0.30103 0.72575 -0.34655
 N286 N 0.31671 0.71013 -0.31220
 C287 C 0.34166 0.65296 -0.28235
 N288 N 0.34478 0.66691 -0.22871
 N289 N 0.36158 0.65179 -0.19735
 C290 C 0.37607 0.62284 -0.21897
 N291 N 0.37303 0.60916 -0.27271
 N292 N 0.35600 0.62369 -0.30367
 C293 C 0.39496 0.60691 -0.18544
 N294 N 0.41476 0.59637 -0.21092
 N295 N 0.43199 0.58168 -0.18083
 C296 C 0.42990 0.57629 -0.12434
 N297 N 0.41004 0.58650 -0.09885
 N298 N 0.39292 0.60194 -0.12883
 C299 C -0.17683 1.16667 -0.31857
 N300 N -0.18616 1.14212 -0.35926
 N301 N -0.20207 1.15722 -0.39326
 C302 C -0.20895 1.19763 -0.38842
 N303 N -0.19957 1.22227 -0.34783
 N304 N -0.18393 1.20693 -0.31315
 C305 C -0.15863 1.15039 -0.28298
 N306 N -0.15591 1.16422 -0.22914
 N307 N -0.13911 1.14958 -0.19736
 C308 C -0.12422 1.12122 -0.21872
 N309 N -0.12687 1.10764 -0.27264
 N310 N -0.14389 1.12169 -0.30404
 C311 C -0.10529 1.10589 -0.18476
 N312 N -0.08526 1.09631 -0.20977
 N313 N -0.06798 1.08216 -0.17933
 C314 C -0.07025 1.07640 -0.12295
 N315 N -0.09034 1.08566 -0.09792
 N316 N -0.10751 1.10056 -0.12824
 C317 C 0.67466 0.68912 -0.31022
 N318 N 0.69241 0.66489 -0.32645
 N319 N 0.70760 0.67914 -0.36322
 C320 C 0.70571 0.71826 -0.38492
 N321 N 0.68810 0.74271 -0.36812
 N322 N 0.67280 0.72832 -0.33163
 C323 C 0.65728 0.67243 -0.27208
 N324 N 0.63734 0.69288 -0.26472
 N325 N 0.62111 0.67660 -0.23246
 C326 C 0.62428 0.63945 -0.20607
 N327 N 0.64432 0.61922 -0.21292
 N328 N 0.66049 0.63535 -0.24550
 C329 C 0.60596 0.62059 -0.17283
 N330 N 0.60978 0.58621 -0.14075
 N331 N 0.59289 0.56823 -0.11242
 C332 C 0.57154 0.58380 -0.11556
 N333 N 0.56776 0.61822 -0.14752
 N334 N 0.58466 0.63636 -0.17547
 C335 C 0.17468 1.18652 -0.31233
 N336 N 0.19303 1.16297 -0.32619
 N337 N 0.20829 1.17706 -0.36296
 C338 C 0.20581 1.21529 -0.38694
 N339 N 0.18757 1.23896 -0.37270
 N340 N 0.17226 1.22478 -0.33620
 C341 C 0.15727 1.17029 -0.27397
 N342 N 0.13723 1.19063 -0.26793
 N343 N 0.12099 1.17508 -0.23510
 C344 C 0.12424 1.13876 -0.20680
 N345 N 0.14437 1.11859 -0.21239
 N346 N 0.16057 1.13402 -0.24551
 C347 C 0.10591 1.12074 -0.17278
 N348 N 0.10969 1.08701 -0.13949
 N349 N 0.09278 1.06973 -0.11049
 C350 C 0.07146 1.08540 -0.11404
 N351 N 0.06772 1.11921 -0.14718
 N352 N 0.08465 1.13665 -0.17585
 C353 C 0.32381 0.32105 -0.31254
 N354 N 0.30547 0.34496 -0.32480
 N355 N 0.28987 0.33130 -0.36106
 C356 C 0.29197 0.29313 -0.38607
 N357 N 0.31018 0.26908 -0.37337
 N358 N 0.32584 0.28283 -0.33740
 C359 C 0.34164 0.33681 -0.27491
 N360 N 0.36159 0.31599 -0.27050
 N361 N 0.37819 0.33102 -0.23827
 C362 C 0.37542 0.36730 -0.20896
 N363 N 0.35539 0.38797 -0.21294
 N364 N 0.33883 0.37306 -0.24548
 C365 C 0.39407 0.38456 -0.17519
 N366 N 0.39073 0.41807 -0.14066
 N367 N 0.40788 0.43440 -0.11141
 C368 C 0.42901 0.41797 -0.11592
 N369 N 0.43233 0.38443 -0.15038
 N370 N 0.41517 0.36794 -0.17932
 C371 C -0.17732 0.83036 -0.31415
 N372 N -0.18414 0.78985 -0.31039
 N373 N -0.19984 0.77473 -0.34535
 C374 C -0.20955 0.79984 -0.38449
 N375 N -0.20297 0.84047 -0.38760
 N376 N -0.18700 0.85536 -0.35339
 C377 C -0.15896 0.84644 -0.27868
 N378 N -0.14432 0.87521 -0.29953
 N379 N -0.12716 0.88919 -0.26831
 C380 C -0.12429 0.87548 -0.21476
 N381 N -0.13909 0.84703 -0.19358
 N382 N -0.15602 0.83243 -0.22523
 C383 C -0.10526 0.89088 -0.18101
 N384 N -0.10743 0.89714 -0.12456
 N385 N -0.09023 0.91250 -0.09456
 C386 C -0.07014 0.92130 -0.11984
 N387 N -0.06793 0.91457 -0.17612
 N388 N -0.08524 0.89998 -0.20626
 C389 C 0.32473 0.68336 0.31353
 N390 N 0.32712 0.72052 0.34098
 N391 N 0.31124 0.73398 0.37667
 C392 C 0.29242 0.71068 0.38642
 N393 N 0.28996 0.67360 0.35878
 N394 N 0.30579 0.66025 0.32284
 C395 C 0.34275 0.66765 0.27628
 N396 N 0.33962 0.63244 0.24487
 N397 N 0.35629 0.61734 0.21273
 C398 C 0.37673 0.63676 0.21111
 N399 N 0.37984 0.67203 0.24239
 N400 N 0.36313 0.68725 0.27428
 C401 C 0.39540 0.61914 0.17755
 N402 N 0.41673 0.63450 0.18292
 N403 N 0.43382 0.61755 0.15400
 C404 C 0.43017 0.58479 0.11841
 N405 N 0.40881 0.56963 0.11274
 N406 N 0.39175 0.58641 0.14190
 C407 C -0.17643 1.18091 0.31322
 N408 N -0.19460 1.15646 0.32523
 N409 N -0.21044 1.16962 0.36127
 C410 C -0.20877 1.20785 0.38638
 N411 N -0.19074 1.23252 0.37371
 N412 N -0.17483 1.21923 0.33796
 C413 C -0.15832 1.16538 0.27612
 N414 N -0.13829 1.18609 0.27264
 N415 N -0.12145 1.17098 0.24108
 C416 C -0.12408 1.13474 0.21158
 N417 N -0.14419 1.11423 0.21464
 N418 N -0.16097 1.12920 0.24650
 C419 C -0.10527 1.11729 0.17842
 N420 N -0.10864 1.08400 0.14355
 N421 N -0.09144 1.06742 0.11468
 C422 C -0.07022 1.08332 0.11993
 N423 N -0.06685 1.11663 0.15478
 N424 N -0.08408 1.13339 0.18336
 C425 C 0.67448 0.31546 0.31395
 N426 N 0.69290 0.33868 0.32821
 N427 N 0.70816 0.32393 0.36440
 C428 C 0.70560 0.28533 0.38732
 N429 N 0.68728 0.26204 0.37266
 N430 N 0.67198 0.27687 0.33680
 C431 C 0.65705 0.33215 0.27609
 N432 N 0.63701 0.31182 0.27001
 N433 N 0.62079 0.32746 0.23740
 C434 C 0.62405 0.36387 0.20929
 N435 N 0.64418 0.38406 0.21493
 N436 N 0.66037 0.36854 0.24789
 C437 C 0.60574 0.38176 0.17523
 N438 N 0.60956 0.41517 0.14132
 N439 N 0.59267 0.43214 0.11206
 C440 C 0.57134 0.41648 0.11595
 N441 N 0.56756 0.38302 0.14973
 N442 N 0.58447 0.36588 0.17864
 C443 C 0.17518 0.81838 0.31446
 N444 N 0.19343 0.84193 0.32916
 N445 N 0.20863 0.82744 0.36572
 C446 C 0.20615 0.78881 0.38859
 N447 N 0.18801 0.76521 0.37350
 N448 N 0.17278 0.77976 0.33726
 C449 C 0.15781 0.83472 0.27626
 N450 N 0.13795 0.81388 0.26963
 N451 N 0.12172 0.82920 0.23677
 C452 C 0.12481 0.86579 0.20897
 N453 N 0.14475 0.88649 0.21515
 N454 N 0.16095 0.87129 0.24836
 C455 C 0.10646 0.88336 0.17482
 N456 N 0.11008 0.91711 0.14141
 N457 N 0.09311 0.93385 0.11220
 C458 C 0.07190 0.91760 0.11565
 N459 N 0.06832 0.88379 0.14891
 N460 N 0.08530 0.86688 0.17776
   
