data_POSCAR
  _audit_creation_date              2014-09-24
  _audit_creation_method            'ToBaCCo'
  _symmetry_space_group_name_H-M    'P1'
  _symmetry_Int_Tables_number       1
  _symmetry_cell_setting            triclinic
  loop_
  _symmetry_equiv_pos_as_xyz
 x,y,z
_cell_length_a 47.7832
_cell_length_b 47.5871
_cell_length_c 17.5531
_cell_angle_alpha 89.826900
_cell_angle_beta 89.977300
_cell_angle_gamma 120.558100
loop_
  _atom_site_label
  _atom_site_type_symbol
  _atom_site_fract_x
  _atom_site_fract_y
  _atom_site_fract_z
C1 C 0.16882 0.47148 0.50701
 C2 C 0.18503 0.48105 0.43678
 C3 C 0.21916 0.49648 0.43590
 C4 C 0.23675 0.49979 0.50376
 C5 C 0.21982 0.49404 0.57384
 C6 C 0.18593 0.47965 0.57575
 C7 C 0.27071 0.50478 0.50116
 C8 C 0.28837 0.50833 0.56904
 C9 C 0.31594 0.50512 0.56871
 C10 C 0.32819 0.50156 0.49958
 C11 C 0.31238 0.49938 0.43105
 C12 C 0.28381 0.50089 0.43198
 H13 H 0.14270 0.46112 0.50858
 H14 H 0.23127 0.50375 0.38142
 H15 H 0.23183 0.49812 0.62798
 H16 H 0.28031 0.51170 0.62371
 H17 H 0.34997 0.49984 0.49945
 H18 H 0.27131 0.49693 0.37849
 C19 C 0.45385 -0.34422 0.50147
 C20 C 0.46387 -0.32502 0.43481
 C21 C 0.47059 -0.29264 0.43926
 C22 C 0.46468 -0.28040 0.50672
 C23 C 0.45340 -0.30093 0.57136
 C24 C 0.45024 -0.33199 0.57155
 C25 C 0.47185 -0.24581 0.51115
 C26 C 0.47881 -0.22950 0.58197
 C27 C 0.48656 -0.19698 0.58641
 C28 C 0.48893 -0.17985 0.51961
 C29 C 0.48269 -0.19506 0.44851
 C30 C 0.47306 -0.22825 0.44477
 H31 H 0.45299 -0.36733 0.49996
 H32 H 0.47981 -0.27728 0.38939
 H33 H 0.44682 -0.29289 0.62215
 H34 H 0.47928 -0.24131 0.63421
 H35 H 0.49504 -0.15461 0.52318
 H36 H 0.46710 -0.23987 0.38964
 C37 C 1.32692 0.81818 0.53016
 C38 C 1.32049 0.80496 0.45676
 C39 C 1.29987 0.77089 0.44861
 C40 C 1.28268 0.75094 0.51248
 C41 C 1.29015 0.76575 0.58556
 C42 C 1.31249 0.79892 0.59400
 C43 C 1.25405 0.71665 0.50304
 C44 C 1.23943 0.69622 0.56754
 C45 C 1.20705 0.67031 0.56519
 C46 C 1.19123 0.66127 0.49451
 C47 C 1.20703 0.67767 0.42766
 C48 C 1.23793 0.70577 0.43205
 H49 H 1.34421 0.84394 0.53848
 H50 H 1.29566 0.76081 0.39197
 H51 H 1.27782 0.75265 0.63660
 H52 H 1.25165 0.70208 0.62181
 H53 H 1.16669 0.64052 0.49098
 H54 H 1.24797 0.71954 0.38024
 C55 C 0.82091 0.49437 0.49328
 C56 C 0.80455 0.49157 0.42524
 C57 C 0.77727 0.49520 0.42592
 C58 C 0.76763 0.50454 0.49282
 C59 C 0.78552 0.50850 0.56044
 C60 C 0.81149 0.50262 0.56085
 C61 C 0.74035 0.51175 0.49052
 C62 C 0.72410 0.51178 0.55779
 C63 C 0.70041 0.52117 0.55702
 C64 C 0.69127 0.52802 0.48614
 C65 C 0.70546 0.52612 0.41809
 C66 C 0.73062 0.51921 0.42090
 H67 H 0.84232 0.49199 0.49304
 H68 H 0.76424 0.49110 0.37304
 H69 H 0.78044 0.51716 0.61246
 H70 H 0.73069 0.50572 0.61147
 H71 H 0.67132 0.53263 0.48285
 H72 H 0.74255 0.52027 0.36787
 C73 C 0.53365 0.34147 0.48899
 C74 C 0.53190 0.32541 0.42064
 C75 C 0.52464 0.29292 0.42272
 C76 C 0.51599 0.27513 0.49142
 C77 C 0.51502 0.29100 0.55844
 C78 C 0.52458 0.32436 0.55877
 C79 C 0.50622 0.23969 0.49321
 C80 C 0.50893 0.22540 0.56146
 C81 C 0.49559 0.19149 0.56796
 C82 C 0.48263 0.17233 0.50238
 C83 C 0.48201 0.18604 0.43232
 C84 C 0.49308 0.21955 0.42822
 H85 H 0.53851 0.36631 0.48628
 H86 H 0.52503 0.28163 0.36971
 H87 H 0.50712 0.27751 0.61123
 H88 H 0.52007 0.24041 0.61090
 H89 H 0.47493 0.14663 0.50431
 H90 H 0.49065 0.22932 0.37461
 C91 C 0.64996 0.20859 0.48197
 C92 C 0.66725 0.22246 0.41454
 C93 C 0.70068 0.24515 0.41772
 C94 C 0.71759 0.25250 0.48746
 C95 C 0.69986 0.23655 0.55405
 C96 C 0.66613 0.21515 0.55185
 C97 C 0.75376 0.27485 0.49068
 C98 C 0.76872 0.29107 0.55918
 C99 C 0.80271 0.30850 0.56670
 C100 C 0.82173 0.31231 0.50219
 C101 C 0.80770 0.29889 0.43194
 C102 C 0.77377 0.27946 0.42672
 H103 H 0.62432 0.19033 0.47921
 H104 H 0.71324 0.25613 0.36497
 H105 H 0.71210 0.23977 0.60788
 H106 H 0.75400 0.28899 0.60797
 H107 H 0.84788 0.32816 0.50492
 H108 H 0.76349 0.26781 0.37292
 O109 O 0.95702 0.42058 0.13376
 O110 O 0.92088 0.42559 0.05722
 C111 C 0.92759 0.41161 0.11184
 O112 O 1.04190 0.56734 0.13633
 O113 O 1.08094 0.56289 0.07031
 C114 C 1.07201 0.57670 0.12096
 O115 O 0.95172 0.51261 0.14044
 O116 O 0.91836 0.46935 0.06357
 C117 C 0.92344 0.48867 0.12038
 O118 O 1.04880 0.46907 0.13226
 O119 O 1.08414 0.51620 0.06840
 C120 C 1.07789 0.49289 0.11640
 Zr121 Zr 1.00280 0.45923 0.09378
 O122 O 1.00418 0.45863 0.21432
 O123 O 1.00421 0.41565 0.08665
 Zr124 Zr 0.99820 0.52797 0.09367
 O125 O 0.99824 0.53247 0.21342
 O126 O 0.99363 0.56958 0.07995
 O127 O 0.97176 0.47736 0.10675
 O128 O 1.02846 0.50921 0.10990
 O129 O 1.05219 0.47095 -0.12799
 O130 O 1.08597 0.51696 -0.05986
 C131 C 1.08083 0.49418 -0.10811
 O132 O 0.95471 0.51701 -0.14344
 O133 O 0.91943 0.47189 -0.07332
 C134 C 0.92565 0.49354 -0.12607
 O135 O 1.04469 0.56906 -0.13436
 O136 O 1.08242 0.56364 -0.06517
 C137 C 1.07443 0.57778 -0.11746
 O138 O 0.96250 0.42329 -0.14315
 O139 O 0.92338 0.42696 -0.07592
 C140 C 0.93248 0.41373 -0.12746
 Zr141 Zr 1.00566 0.46136 -0.09688
 O142 O 1.01057 0.46447 -0.21701
 O143 O 1.00574 0.41692 -0.09735
 Zr144 Zr 1.00035 0.52968 -0.09601
 O145 O 1.00149 0.53506 -0.21580
 O146 O 0.99676 0.57178 -0.08112
 Zr147 Zr 0.95328 0.46717 -0.00529
 Zr148 Zr 1.05063 0.52200 0.00165
 O149 O 1.03127 0.51132 -0.10919
 O150 O 0.97452 0.47946 -0.11442
 O151 O 1.03378 0.47154 0.00059
 O152 O 0.96997 0.51740 -0.00273
 O153 O 0.97612 0.43932 -0.00372
 O154 O 1.02851 0.55073 0.00065
 H155 H 1.04212 0.51656 0.15629
 H156 H 0.95360 0.52433 -0.00250
 H157 H 1.04617 0.51911 -0.15357
 H158 H 0.96260 0.41518 -0.00478
 H159 H 0.99152 0.57624 0.13205
 H160 H 0.99586 0.57949 -0.13306
 H161 H 1.00926 0.52104 -0.23703
 H162 H 0.99221 0.46615 -0.23771
 H163 H 1.01991 0.41791 -0.05509
 H164 H 1.00369 0.40838 0.13986
 H165 H 0.98569 0.46052 0.23322
 H166 H 0.99900 0.51366 0.23487
 O167 O 0.43680 0.46173 0.14513
 O168 O 0.42813 0.49682 0.07299
 C169 C 0.42062 0.47611 0.12853
 O170 O 0.58061 0.55555 0.12172
 O171 O 0.58502 0.51671 0.05445
 C172 C 0.59566 0.54017 0.10412
 O173 O 0.51277 0.57198 0.13610
 O174 O 0.46446 0.54926 0.07102
 C175 C 0.48453 0.56849 0.12246
 O176 O 0.50128 0.43952 0.12900
 O177 O 0.54791 0.46211 0.05642
 C178 C 0.52867 0.44221 0.10857
 Zr179 Zr 0.47910 0.46624 0.09451
 O180 O 0.48189 0.46386 0.21447
 O181 O 0.44312 0.41629 0.08832
 Zr182 Zr 0.53483 0.54747 0.08711
 O183 O 0.54182 0.55198 0.20642
 O184 O 0.56804 0.59769 0.06960
 O185 O 0.48619 0.51294 0.10884
 O186 O 0.52779 0.50117 0.10322
 O187 O 0.49536 0.43677 -0.13615
 O188 O 0.54494 0.46117 -0.07610
 C189 C 0.52371 0.44030 -0.12358
 O190 O 0.50385 0.56453 -0.15216
 O191 O 0.46107 0.54754 -0.06894
 C192 C 0.47717 0.56284 -0.12958
 O193 O 0.57464 0.55171 -0.14805
 O194 O 0.58243 0.51534 -0.07877
 C195 C 0.59066 0.53711 -0.13218
 O196 O 0.43165 0.46019 -0.13754
 O197 O 0.42596 0.49666 -0.06370
 C198 C 0.41679 0.47568 -0.11866
 Zr199 Zr 0.47503 0.46416 -0.09498
 O200 O 0.47304 0.45947 -0.21500
 O201 O 0.43784 0.41467 -0.08342
 Zr202 Zr 0.53089 0.54533 -0.10218
 O203 O 0.53488 0.55013 -0.22198
 O204 O 0.56248 0.59648 -0.09456
 Zr205 Zr 0.46901 0.51593 0.00035
 Zr206 Zr 0.54093 0.49566 -0.00779
 O207 O 0.52318 0.49875 -0.11545
 O208 O 0.48174 0.51042 -0.11150
 O209 O 0.49470 0.45302 -0.00213
 O210 O 0.51529 0.55817 -0.00581
 O211 O 0.45183 0.46553 0.00264
 O212 O 0.55892 0.54635 -0.01045
 H213 H 0.53893 0.49852 0.14787
 H214 H 0.51627 0.57948 -0.00682
 H215 H 0.53237 0.49523 -0.16259
 H216 H 0.42802 0.45033 0.00498
 H217 H 0.57538 0.60721 0.12095
 H218 H 0.58407 0.60038 -0.07883
 H219 H 0.51957 0.52837 -0.24299
 H220 H 0.47376 0.47910 -0.23626
 H221 H 0.44712 0.40319 -0.05552
 H222 H 0.43853 0.40827 0.14162
 H223 H 0.48259 0.48347 0.23539
 H224 H 0.52065 0.53666 0.23015
 O225 O 0.43101 -0.05325 -0.12465
 O226 O 0.44692 -0.08227 -0.04994
 C227 C 0.42855 -0.08038 -0.10168
 O228 O 0.57267 0.05564 -0.13727
 O229 O 0.55710 0.08794 -0.07535
 C230 C 0.57502 0.08355 -0.12387
 O231 O 0.53733 -0.03412 -0.13121
 O232 O 0.49783 -0.07326 -0.05433
 C233 C 0.51908 -0.06411 -0.10917
 O234 O 0.46190 0.03609 -0.13248
 O235 O 0.50518 0.07896 -0.07269
 C236 C 0.48094 0.06704 -0.11997
 Zr237 Zr 0.46295 -0.00473 -0.08953
 O238 O 0.45984 -0.00569 -0.20987
 O239 O 0.41509 -0.01369 -0.07689
 Zr240 Zr 0.53969 0.00881 -0.09313
 O241 O 0.53982 0.00928 -0.21373
 O242 O 0.58622 0.01354 -0.09166
 O243 O 0.49066 -0.02696 -0.10260
 O244 O 0.51117 0.02941 -0.11014
 O245 O 0.46673 0.04395 0.13292
 O246 O 0.50720 0.08236 0.05672
 C247 C 0.48535 0.07387 0.10962
 O248 O 0.53909 -0.02756 0.15238
 O249 O 0.49896 -0.06977 0.08391
 C250 C 0.52008 -0.05845 0.13860
 O251 O 0.57644 0.06278 0.12651
 O252 O 0.55907 0.09146 0.05494
 C253 C 0.57827 0.08972 0.10435
 O254 O 0.43601 -0.04600 0.15082
 O255 O 0.44898 -0.07888 0.08268
 C256 C 0.43277 -0.07424 0.13545
 Zr257 Zr 0.46597 0.00055 0.10046
 O258 O 0.46634 0.00588 0.22021
 O259 O 0.41784 -0.00889 0.09181
 Zr260 Zr 0.54275 0.01380 0.09708
 O261 O 0.54938 0.02132 0.21589
 O262 O 0.58868 0.01734 0.08866
 Zr263 Zr 0.48531 -0.04370 0.01071
 Zr264 Zr 0.52034 0.05270 -0.00382
 O265 O 0.51473 0.03529 0.10889
 O266 O 0.49413 -0.02088 0.11817
 O267 O 0.46920 0.02592 0.00119
 O268 O 0.53635 -0.01622 0.00618
 O269 O 0.44878 -0.03140 0.01006
 O270 O 0.55767 0.04136 -0.00265
 H271 H 0.51562 0.04235 -0.15759
 H272 H 0.54831 -0.02817 0.00841
 H273 H 0.52062 0.05059 0.15217
 H274 H 0.42567 -0.04897 0.01312
 H275 H 0.60131 0.03430 -0.06594
 H276 H 0.60401 0.03870 0.06524
 H277 H 0.52768 0.00834 0.23953
 H278 H 0.47458 -0.00762 0.24263
 H279 H 0.41044 -0.00936 0.14478
 H280 H 0.40614 -0.01660 -0.12909
 H281 H 0.46801 -0.01983 -0.22830
 H282 H 0.51962 -0.01034 -0.23073
 C283 C 1.13622 0.44663 0.36280
 C284 C 1.16659 0.47560 0.36986
 C285 C 1.17594 0.50011 0.31365
 C286 C 1.15350 0.49728 0.25764
 C287 C 1.12254 0.46869 0.25463
 C288 C 1.11471 0.44302 0.30523
 C289 C 1.09898 0.46680 0.20437
 C290 C 1.10513 0.49362 0.15862
 C291 C 1.13641 0.52155 0.15919
 C292 C 1.16049 0.52326 0.20792
 H293 H 1.19905 0.52270 0.31815
 H294 H 1.09121 0.42077 0.30290
 H295 H 1.07515 0.44490 0.20410
 H296 H 1.18405 0.54544 0.20917
 H297 H 1.12878 0.42673 0.40300
 H298 H 1.14190 0.54254 0.12421
 C299 C 0.49477 0.68173 0.31640
 C300 C 0.46904 0.66213 0.36692
 C301 C 0.44936 0.62859 0.35044
 C302 C 0.45638 0.61459 0.28883
 C303 C 0.48365 0.63408 0.24212
 C304 C 0.50219 0.66776 0.25528
 C305 C 0.49237 0.61930 0.18485
 C306 C 0.47359 0.58546 0.17328
 C307 C 0.44591 0.56669 0.21801
 C308 C 0.43722 0.58104 0.27520
 H309 H 0.42839 0.61314 0.38574
 H310 H 0.52303 0.68317 0.21968
 H311 H 0.51403 0.63380 0.15078
 H312 H 0.41624 0.56570 0.31054
 H313 H 0.51082 0.70750 0.32680
 H314 H 0.43220 0.54055 0.21177
 C315 C 0.33606 -0.14275 0.39776
 C316 C 0.33403 -0.17338 0.39428
 C317 C 0.34816 -0.18005 0.33142
 C318 C 0.36713 -0.15507 0.27846
 C319 C 0.37012 -0.12407 0.28604
 C320 C 0.35358 -0.11860 0.34410
 C321 C 0.39061 -0.09843 0.23744
 C322 C 0.40909 -0.10269 0.18153
 C323 C 0.40534 -0.13383 0.17233
 C324 C 0.38449 -0.15981 0.22028
 H325 H 0.34697 -0.20336 0.32744
 H326 H 0.35517 -0.09515 0.34984
 H327 H 0.39287 -0.07476 0.24506
 H328 H 0.38262 -0.18331 0.21311
 H329 H 0.32416 -0.13723 0.44297
 H330 H 0.41889 -0.13802 0.12893
 C331 C 0.82620 0.51302 0.29552
 C332 C 0.81899 0.48949 0.35256
 C333 C 0.83001 0.46739 0.34463
 C334 C 0.85011 0.47030 0.28333
 C335 C 0.85914 0.49553 0.22889
 C336 C 0.84615 0.51604 0.23410
 C337 C 0.88224 0.50079 0.17265
 C338 C 0.89598 0.48092 0.17035
 C339 C 0.88578 0.45503 0.22211
 C340 C 0.86289 0.44962 0.27814
 H341 H 0.82434 0.44910 0.38836
 H342 H 0.85256 0.53530 0.19264
 H343 H 0.89037 0.52090 0.13269
 H344 H 0.85619 0.43014 0.31915
 H345 H 0.81807 0.53042 0.30099
 H346 H 0.89677 0.43998 0.22147
 C347 C 0.50497 0.32372 0.29810
 C348 C 0.53173 0.34060 0.34696
 C349 C 0.55552 0.37298 0.32957
 C350 C 0.55156 0.38891 0.26650
 C351 C 0.52333 0.37230 0.22096
 C352 C 0.50074 0.33944 0.23580
 C353 C 0.51716 0.38935 0.16442
 C354 C 0.53900 0.42268 0.15231
 C355 C 0.56801 0.43846 0.19398
 C356 C 0.57431 0.42173 0.25074
 H357 H 0.57627 0.38609 0.36690
 H358 H 0.47911 0.32627 0.20116
 H359 H 0.49458 0.37721 0.13269
 H360 H 0.59614 0.43488 0.28471
 H361 H 0.48624 0.29883 0.31077
 H362 H 0.58458 0.46432 0.18670
 C363 C 0.62128 0.20444 0.32250
 C364 C 0.65146 0.20796 0.34124
 C365 C 0.66370 0.19191 0.29758
 C366 C 0.64466 0.17003 0.24049
 C367 C 0.61368 0.16554 0.22386
 C368 C 0.60276 0.18382 0.26317
 C369 C 0.59316 0.14100 0.17292
 C370 C 0.60256 0.11987 0.14195
 C371 C 0.63373 0.12519 0.15670
 C372 C 0.65490 0.15052 0.20449
 H373 H 0.68667 0.19402 0.31308
 H374 H 0.57905 0.18061 0.25135
 H375 H 0.56884 0.13643 0.16285
 H376 H 0.67853 0.15360 0.21679
 H377 H 0.61145 0.21647 0.35616
 H378 H 0.64124 0.10903 0.13317
 C379 C 0.52041 0.19159 -0.30828
 C380 C 0.49506 0.17641 -0.36201
 C381 C 0.46912 0.14475 -0.34578
 C382 C 0.46986 0.12747 -0.28227
 C383 C 0.49671 0.14181 -0.23242
 C384 C 0.52125 0.17435 -0.24427
 C385 C 0.49921 0.12278 -0.17434
 C386 C 0.47536 0.08952 -0.16711
 C387 C 0.44746 0.07659 -0.21319
 C388 C 0.44473 0.09539 -0.27014
 H389 H 0.44820 0.13320 -0.38317
 H390 H 0.54182 0.18599 -0.20597
 H391 H 0.52057 0.13324 -0.13834
 H392 H 0.42366 0.08429 -0.30708
 H393 H 0.54090 0.21587 -0.31805
 H394 H 0.42832 0.05131 -0.20791
 C395 C 0.67989 0.50226 -0.31228
 C396 C 0.68555 0.52327 -0.37486
 C397 C 0.67530 0.54625 -0.36873
 C398 C 0.65834 0.54704 -0.30450
 C399 C 0.65122 0.52462 -0.24440
 C400 C 0.66270 0.50278 -0.24818
 C401 C 0.63148 0.52344 -0.18353
 C402 C 0.61801 0.54377 -0.18361
 C403 C 0.62735 0.56757 -0.24117
 C404 C 0.64739 0.56925 -0.30084
 H405 H 0.68072 0.56395 -0.41376
 H406 H 0.65750 0.48537 -0.20261
 H407 H 0.62486 0.50521 -0.13918
 H408 H 0.65309 0.58698 -0.34593
 H409 H 0.68676 0.48384 -0.31427
 H410 H 0.61786 0.58395 -0.24234
 C411 C 0.80604 0.33713 -0.31347
 C412 C 0.81817 0.32271 -0.36368
 C413 C 0.84767 0.32440 -0.34545
 C414 C 0.86632 0.34278 -0.28392
 C415 C 0.85540 0.35956 -0.23777
 C416 C 0.82469 0.35567 -0.25142
 C417 C 0.87614 0.38110 -0.18167
 C418 C 0.90778 0.38648 -0.17338
 C419 C 0.91718 0.36766 -0.21606
 C420 C 0.89659 0.34591 -0.27058
 H421 H 0.85661 0.31181 -0.38027
 H422 H 0.81573 0.36810 -0.21623
 H423 H 0.86843 0.39497 -0.14800
 H424 H 0.90501 0.33273 -0.30482
 H425 H 0.78343 0.33639 -0.32511
 H426 H 0.94110 0.37068 -0.20956
 C427 C 0.46738 -0.19305 -0.28355
 C428 C 0.49187 -0.18045 -0.33944
 C429 C 0.51982 -0.14990 -0.32848
 C430 C 0.52219 -0.13079 -0.26566
 C431 C 0.49652 -0.14256 -0.21202
 C432 C 0.46972 -0.17424 -0.22004
 C433 C 0.49714 -0.12164 -0.15476
 C434 C 0.52229 -0.08882 -0.15320
 C435 C 0.54888 -0.07841 -0.20309
 C436 C 0.54891 -0.09924 -0.25849
 H437 H 0.53885 -0.14026 -0.37134
 H438 H 0.44986 -0.18379 -0.17943
 H439 H 0.47706 -0.13018 -0.11525
 H440 H 0.56899 -0.09005 -0.29842
 H441 H 0.44563 -0.21663 -0.29133
 H442 H 0.56905 -0.05349 -0.20200
 C443 C 0.34004 0.52486 -0.30118
 C444 C 0.33011 0.50159 -0.35943
 C445 C 0.33465 0.47482 -0.35060
 C446 C 0.35068 0.47222 -0.28670
 C447 C 0.36190 0.49641 -0.22966
 C448 C 0.35582 0.52227 -0.23658
 C449 C 0.38071 0.49537 -0.16940
 C450 C 0.38969 0.47136 -0.16773
 C451 C 0.37663 0.44638 -0.22235
 C452 C 0.35706 0.44664 -0.28091
 H453 H 0.32650 0.45648 -0.39488
 H454 H 0.36431 0.54109 -0.19349
 H455 H 0.39066 0.51489 -0.12787
 H456 H 0.34831 0.42775 -0.32389
 H457 H 0.33660 0.54557 -0.30693
 H458 H 0.38286 0.42745 -0.22207
 C459 C 1.20252 0.64706 -0.30608
 C460 C 1.18940 0.65590 -0.36724
 C461 C 1.15797 0.65109 -0.35931
 C462 C 1.13973 0.63720 -0.29319
 C463 C 1.15178 0.62570 -0.23489
 C464 C 1.18351 0.63118 -0.24150
 C465 C 1.13145 0.60818 -0.17279
 C466 C 1.09964 0.60295 -0.16836
 C467 C 1.08973 0.61782 -0.22316
 C468 C 1.10929 0.63426 -0.28534
 H469 H 1.14799 0.65926 -0.40389
 H470 H 1.19351 0.62304 -0.19708
 H471 H 1.13968 0.59728 -0.13073
 H472 H 1.10013 0.64382 -0.32858
 H473 H 1.22677 0.65068 -0.30996
 H474 H 1.06579 0.61501 -0.22091
 C475 C 0.86029 0.53839 -0.36215
 C476 C 0.83159 0.50823 -0.37090
 C477 C 0.82544 0.48206 -0.32274
 C478 C 0.84866 0.48560 -0.26847
 C479 C 0.87824 0.51567 -0.26265
 C480 C 0.88340 0.54216 -0.30819
 C481 C 0.90274 0.51837 -0.21391
 C482 C 0.89822 0.49146 -0.17043
 C483 C 0.86801 0.46229 -0.17321
 C484 C 0.84353 0.45928 -0.22224
 H485 H 0.80346 0.45860 -0.33040
 H486 H 0.90587 0.56541 -0.30421
 H487 H 0.92569 0.54124 -0.21141
 H488 H 0.82091 0.43613 -0.22529
 H489 H 0.86548 0.55857 -0.39980
 H490 H 0.86363 0.44144 -0.13926
 C491 C 0.49811 0.32238 -0.31921
 C492 C 0.52292 0.33976 -0.37357
 C493 C 0.54535 0.37311 -0.35982
 C494 C 0.54254 0.38875 -0.29487
 C495 C 0.51627 0.37136 -0.24400
 C496 C 0.49459 0.33810 -0.25599
 C497 C 0.51138 0.38783 -0.18385
 C498 C 0.53295 0.42131 -0.17279
 C499 C 0.56026 0.43787 -0.22027
 C500 C 0.56499 0.42180 -0.28108
 H501 H 0.56539 0.38688 -0.39890
 H502 H 0.47440 0.32434 -0.21733
 H503 H 0.49011 0.37502 -0.14762
 H504 H 0.58550 0.43553 -0.31894
 H505 H 0.47982 0.29703 -0.32771
 H506 H 0.57659 0.46382 -0.21377
 C507 C 0.61823 0.19387 -0.36034
 C508 C 0.64808 0.19662 -0.37944
 C509 C 0.65920 0.17919 -0.33684
 C510 C 0.63998 0.15796 -0.27829
 C511 C 0.60971 0.15494 -0.26027
 C512 C 0.59936 0.17345 -0.30078
 C513 C 0.58955 0.13219 -0.20502
 C514 C 0.59867 0.11147 -0.17015
 C515 C 0.62899 0.11500 -0.18746
 C516 C 0.64972 0.13841 -0.24020
 H517 H 0.68192 0.18071 -0.35220
 H518 H 0.57615 0.17122 -0.28832
 H519 H 0.56588 0.12905 -0.19303
 H520 H 0.67278 0.14031 -0.25343
 H521 H 0.60926 0.20711 -0.39256
 H522 H 0.63631 0.09909 -0.16126
 C523 C 1.13875 0.44507 -0.34538
 C524 C 1.16873 0.47416 -0.35544
 C525 C 1.17859 0.49929 -0.30113
 C526 C 1.15673 0.49697 -0.24413
 C527 C 1.12613 0.46809 -0.23765
 C528 C 1.11805 0.44178 -0.28600
 C529 C 1.10288 0.46671 -0.18725
 C530 C 1.10864 0.49443 -0.14610
 C531 C 1.13963 0.52264 -0.14947
 C532 C 1.16367 0.52376 -0.19758
 H533 H 1.20142 0.52202 -0.30853
 H534 H 1.09475 0.41939 -0.28116
 H535 H 1.07929 0.44454 -0.18436
 H536 H 1.18696 0.54617 -0.20163
 H537 H 1.13095 0.42499 -0.38487
 H538 H 1.14477 0.54427 -0.11794
 C539 C 0.46077 0.66860 -0.29040
 C540 C 0.44770 0.65122 -0.35904
 C541 C 0.43624 0.61736 -0.35845
 C542 C 0.44250 0.60268 -0.29672
 C543 C 0.45829 0.62123 -0.23127
 C544 C 0.46583 0.65370 -0.22734
 C545 C 0.46790 0.60751 -0.17313
 C546 C 0.46262 0.57591 -0.18154
 C547 C 0.44605 0.55736 -0.24550
 C548 C 0.43542 0.57036 -0.30198
 H549 H 0.42365 0.60241 -0.40731
 H550 H 0.47760 0.66822 -0.17730
 H551 H 0.48105 0.62190 -0.12395
 H552 H 0.42323 0.55572 -0.35162
 H553 H 0.47004 0.69454 -0.28658
 H554 H 0.44216 0.53302 -0.25274
 C555 C 0.31410 -0.16014 -0.31705
 C556 C 0.32108 -0.18494 -0.33127
 C557 C 0.34321 -0.18800 -0.28454
 C558 C 0.36098 -0.16417 -0.22939
 C559 C 0.35581 -0.13762 -0.22024
 C560 C 0.33119 -0.13673 -0.26149
 C561 C 0.37687 -0.11120 -0.17448
 C562 C 0.40323 -0.11075 -0.13789
 C563 C 0.40635 -0.13851 -0.14149
 C564 C 0.38556 -0.16495 -0.18746
 H565 H 0.34890 -0.20691 -0.29631
 H566 H 0.32671 -0.11673 -0.25454
 H567 H 0.37367 -0.09027 -0.17046
 H568 H 0.38960 -0.18530 -0.19275
 H569 H 0.29727 -0.15741 -0.35328
 H570 H 0.42577 -0.13915 -0.11168
 C571 C 0.46298 -0.18723 0.32181
 C572 C 0.48692 -0.17564 0.37872
 C573 C 0.51457 -0.14439 0.37095
 C574 C 0.51763 -0.12429 0.30925
 C575 C 0.49295 -0.13568 0.25353
 C576 C 0.46598 -0.16740 0.25961
 C577 C 0.49505 -0.11469 0.19455
 C578 C 0.52102 -0.08215 0.19186
 C579 C 0.54598 -0.07158 0.24611
 C580 C 0.54442 -0.09253 0.30394
 H581 H 0.53339 -0.13543 0.41407
 H582 H 0.44680 -0.17653 0.21744
 H583 H 0.47562 -0.12322 0.15320
 H584 H 0.56362 -0.08351 0.34605
 H585 H 0.44144 -0.21118 0.32683
 H586 H 0.56632 -0.04676 0.24525
 C587 C 0.32986 0.51256 0.29422
 C588 C 0.32511 0.49349 0.35952
 C589 C 0.33505 0.47032 0.35867
 C590 C 0.35189 0.46800 0.29604
 C591 C 0.35804 0.48835 0.23190
 C592 C 0.34609 0.50990 0.23066
 C593 C 0.37780 0.48832 0.17261
 C594 C 0.39313 0.46975 0.17920
 C595 C 0.38498 0.44806 0.24103
 C596 C 0.36431 0.44697 0.29852
 H597 H 0.33095 0.45509 0.40837
 H598 H 0.35058 0.52573 0.18202
 H599 H 0.38352 0.50490 0.12491
 H600 H 0.35951 0.43097 0.34699
 H601 H 0.32235 0.53053 0.29373
 H602 H 0.39582 0.43297 0.24708
 C603 C 1.20110 0.65149 0.30073
 C604 C 1.18994 0.66545 0.35421
 C605 C 1.15978 0.66316 0.34291
 C606 C 1.13999 0.64538 0.28141
 C607 C 1.15042 0.62966 0.23015
 C608 C 1.18147 0.63368 0.23911
 C609 C 1.12897 0.60885 0.17370
 C610 C 1.09710 0.60331 0.16882
 C611 C 1.08797 0.62081 0.21734
 C612 C 1.10915 0.64161 0.27292
 H613 H 1.15108 0.67382 0.38437
 H614 H 1.19001 0.62194 0.20037
 H615 H 1.13643 0.59559 0.13684
 H616 H 1.10091 0.65375 0.31124
 H617 H 1.22420 0.65282 0.30910
 H618 H 1.06381 0.61746 0.21451
 C619 C 0.44445 0.13312 0.36810
 C620 C 0.47175 0.16480 0.36385
 C621 C 0.49236 0.17358 0.30002
 C622 C 0.48766 0.14997 0.24541
 C623 C 0.46173 0.11746 0.25408
 C624 C 0.43947 0.10966 0.31375
 C625 C 0.45967 0.09289 0.20604
 C626 C 0.48335 0.10032 0.14951
 C627 C 0.50743 0.13320 0.13744
 C628 C 0.50968 0.15774 0.18515
 H629 H 0.51356 0.19787 0.29638
 H630 H 0.41919 0.08500 0.32073
 H631 H 0.44068 0.06778 0.21554
 H632 H 0.52948 0.18257 0.17690
 H633 H 0.42802 0.12596 0.41627
 H634 H 0.52567 0.13987 0.09350
 C635 C 0.68338 0.50509 0.28776
 C636 C 0.69223 0.52918 0.34390
 C637 C 0.68527 0.55421 0.33203
 C638 C 0.66777 0.55398 0.26756
 C639 C 0.65741 0.52867 0.21343
 C640 C 0.66618 0.50486 0.22300
 C641 C 0.63669 0.52638 0.15372
 C642 C 0.62489 0.54810 0.15000
 C643 C 0.63751 0.57462 0.20077
 C644 C 0.65888 0.57764 0.25863
 H645 H 0.69227 0.57305 0.37470
 H646 H 0.65847 0.48524 0.18223
 H647 H 0.62775 0.50621 0.11411
 H648 H 0.66699 0.59750 0.29890
 H649 H 0.68832 0.48545 0.29591
 H650 H 0.62946 0.59217 0.19856
 C651 C 0.85929 0.30995 0.36856
 C652 C 0.82922 0.30860 0.36404
 C653 C 0.82293 0.32278 0.30100
 C654 C 0.84758 0.34107 0.24762
 C655 C 0.87863 0.34457 0.25636
 C656 C 0.88376 0.32774 0.31516
 C657 C 0.90446 0.36630 0.20913
 C658 C 0.89968 0.38472 0.15335
 C659 C 0.86810 0.37923 0.14184
 C660 C 0.84237 0.35776 0.18868
 H661 H 0.79993 0.32208 0.29727
 H662 H 0.90724 0.32975 0.32228
 H663 H 0.92852 0.36993 0.21817
 H664 H 0.81872 0.35525 0.18075
 H665 H 0.86452 0.29890 0.41633
 H666 H 0.86350 0.39283 0.09907
   
