data_POSCAR
  _audit_creation_date              2014-09-24
  _audit_creation_method            'ToBaCCo'
  _symmetry_space_group_name_H-M    'P1'
  _symmetry_Int_Tables_number       1
  _symmetry_cell_setting            triclinic
  loop_
  _symmetry_equiv_pos_as_xyz
 x,y,z
_cell_length_a 31.6559
_cell_length_b 30.9075
_cell_length_c 89.8386
_cell_angle_alpha 84.766600
_cell_angle_beta 91.222600
_cell_angle_gamma 121.926200
loop_
  _atom_site_label
  _atom_site_type_symbol
  _atom_site_fract_x
  _atom_site_fract_y
  _atom_site_fract_z
C1 C -0.02031 0.10213 0.51770
 H2 H 0.01770 0.11224 0.51602
 C3 C -0.03061 0.13019 0.52667
 H4 H -0.00021 0.16182 0.53191
 C5 C -0.10632 0.04632 0.51370
 H6 H -0.13564 0.01295 0.50882
 C7 C -0.11834 0.07313 0.52270
 H8 H -0.15703 0.06055 0.52455
 N9 N -0.05802 0.06071 0.51160
 C10 C -0.02549 -0.05988 0.51175
 H11 H -0.02422 -0.06439 0.50000
 C12 C -0.02283 -0.09401 0.52251
 H13 H -0.01922 -0.12447 0.51895
 C14 C -0.03519 -0.01702 0.53070
 H15 H -0.04076 0.01242 0.53394
 C16 C -0.03276 -0.05018 0.54177
 H17 H -0.03569 -0.04519 0.55340
 Zn18 Zn -0.04224 0.01972 0.50151
 N19 N -0.03210 -0.02260 0.51599
 C20 C 0.05063 0.05172 0.48674
 N21 N 0.01555 0.06334 0.48912
 C22 C 0.01894 0.10581 0.48196
 C23 C 0.05734 0.13726 0.47148
 C24 C 0.08977 0.08219 0.47629
 C25 C -0.12576 -0.07295 0.49304
 C26 C -0.16181 -0.10430 0.48328
 C27 C -0.13662 -0.02953 0.46610
 C28 C -0.10142 0.00020 0.47626
 N29 N -0.09555 -0.02189 0.48923
 H30 H 0.04766 0.01810 0.49259
 H31 H -0.00899 0.11468 0.48415
 H32 H 0.05884 0.17048 0.46578
 H33 H 0.11620 0.07125 0.47409
 H34 H -0.12188 -0.08966 0.50368
 H35 H -0.18546 -0.14421 0.48725
 H36 H -0.13629 -0.00940 0.45560
 H37 H -0.07745 0.04096 0.47348
 C38 C -0.02740 -0.08988 0.53775
 C39 C -0.08023 0.11517 0.52951
 C40 C -0.16730 -0.08353 0.46913
 C41 C 0.09275 0.12495 0.46825
 C42 C 1.15498 0.08373 0.14220
 H43 H 1.16126 0.12150 0.14279
 C44 C 1.18504 0.07709 0.13276
 H45 H 1.21506 0.11030 0.12635
 C46 C 1.10813 -0.00511 0.14998
 H47 H 1.07784 -0.03704 0.15663
 C48 C 1.13708 -0.01361 0.14052
 H49 H 1.12826 -0.05232 0.13989
 N50 N 1.11693 0.04287 0.15038
 C51 C 0.99797 0.07309 0.15350
 H52 H 0.99533 0.07510 0.16537
 C53 C 0.96379 0.07577 0.14394
 H54 H 0.93494 0.08004 0.14850
 C55 C 1.03705 0.06225 0.13319
 H56 H 1.06500 0.05606 0.12903
 C57 C 1.00346 0.06423 0.12330
 H58 H 1.00648 0.06036 0.11157
 Zn59 Zn 1.07577 0.05679 0.16134
 N60 N 1.03368 0.06644 0.14800
 C61 C 1.11022 0.15573 0.17095
 N62 N 1.11772 0.11620 0.17122
 C63 C 1.15485 0.11651 0.17920
 C64 C 1.18473 0.15649 0.18791
 C65 C 1.13906 0.19639 0.17962
 C66 C 0.99688 -0.04325 0.17111
 C67 C 0.96198 -0.08185 0.18148
 C68 C 1.00504 -0.02724 0.20114
 C69 C 1.03903 0.01010 0.19045
 N70 N 1.03421 0.00182 0.17573
 H71 H 1.08109 0.15523 0.16435
 H72 H 1.16006 0.08463 0.17917
 H73 H 1.21269 0.15488 0.19467
 H74 H 1.13187 0.22697 0.17961
 H75 H 0.99312 -0.04846 0.15930
 H76 H 0.93151 -0.11681 0.17759
 H77 H 1.00917 -0.01954 0.21277
 H78 H 1.06820 0.04633 0.19394
 C79 C 0.96593 0.07051 0.12866
 C80 C 1.17562 0.02776 0.13154
 C81 C 0.96531 -0.07350 0.19668
 C82 C 1.17632 0.19659 0.18845
 C83 C 0.05814 0.91527 0.85418
 H84 H 0.02506 0.87724 0.85476
 C85 C 0.09965 0.92402 0.86222
 H86 H 0.09816 0.89251 0.86907
 C87 C 0.09935 1.00285 0.84492
 H88 H 0.09895 1.03340 0.83818
 C89 C 0.14158 1.01348 0.85300
 H90 H 0.17358 1.05227 0.85240
 N91 N 0.05848 0.95448 0.84587
 C92 C -0.09354 0.92100 0.84651
 H93 H -0.10337 0.91572 0.83492
 C94 C -0.12630 0.92091 0.85674
 H95 H -0.16082 0.91591 0.85262
 C96 C -0.03432 0.93846 0.86523
 H97 H 0.00178 0.94592 0.86851
 C98 C -0.06541 0.93953 0.87574
 H99 H -0.05284 0.94572 0.88708
 Zn100 Zn -0.00164 0.93773 0.83642
 N101 N -0.04846 0.92989 0.85088
 C102 C -0.07227 0.83656 0.82848
 N103 N -0.02421 0.87668 0.82720
 C104 C 0.01020 0.87574 0.81867
 C105 C -0.00356 0.83422 0.81050
 C106 C -0.08781 0.79438 0.82034
 C107 C 0.01743 1.03564 0.82611
 C108 C 0.01793 1.07250 0.81572
 C109 C -0.00117 1.01559 0.79648
 C110 C -0.00127 0.97996 0.80719
 N111 N 0.00745 0.99022 0.82173
 H112 H -0.09890 0.83764 0.83549
 H113 H 0.04817 0.90813 0.81788
 H114 H 0.02403 0.83512 0.80334
 H115 H -0.12643 0.76324 0.82115
 H116 H 0.02315 1.04242 0.83780
 H117 H 0.02419 1.10768 0.81949
 H118 H -0.00882 1.00635 0.78500
 H119 H -0.00998 0.94346 0.80391
 C120 C -0.11208 0.93168 0.87161
 C121 C 0.14183 0.97373 0.86184
 C122 C 0.00750 1.06213 0.80073
 C123 C -0.05332 0.79327 0.81105
 C124 C 0.42040 -0.00832 -0.00144
 C125 C 0.44502 -0.00037 -0.01515
 C126 C 0.49271 0.00672 -0.01517
 C127 C 0.51484 0.00313 -0.00168
 C128 C 0.48825 -0.00681 0.01189
 C129 C 0.44194 -0.01100 0.01212
 C130 C 0.56535 0.00974 -0.00166
 C131 C 0.59569 0.02703 0.01085
 C132 C 0.64205 0.03134 0.01133
 C133 C 0.65961 0.02084 -0.00118
 C134 C 0.63130 0.00553 -0.01403
 C135 C 0.58374 -0.00121 -0.01404
 H136 H 0.38491 -0.01093 -0.00134
 H137 H 0.51210 0.01473 -0.02578
 H138 H 0.50297 -0.01191 0.02242
 H139 H 0.58392 0.03789 0.02030
 H140 H 0.69501 0.02324 -0.00074
 H141 H 0.56145 -0.01481 -0.02377
 C142 C -0.07979 0.56205 0.67347
 C143 C -0.08758 0.52912 0.68630
 C144 C -0.08508 0.48561 0.68515
 C145 C -0.07340 0.47536 0.67134
 C146 C -0.06455 0.50981 0.65863
 C147 C -0.06878 0.55254 0.65954
 C148 C -0.07184 0.42820 0.67018
 C149 C -0.08453 0.40381 0.65684
 C150 C -0.08497 0.35852 0.65590
 C151 C -0.07396 0.33654 0.66852
 C152 C -0.06150 0.35977 0.68194
 C153 C -0.05929 0.40614 0.68258
 H154 H -0.08109 0.59603 0.67442
 H155 H -0.09355 0.45933 0.69505
 H156 H -0.05492 0.50334 0.64793
 H157 H -0.09557 0.41886 0.64723
 H158 H -0.07408 0.30167 0.66779
 H159 H -0.04859 0.42434 0.69289
 C160 C 0.63977 0.64536 0.33256
 C161 C 0.62540 0.62134 0.31929
 C162 C 0.57970 0.57481 0.31905
 C163 C 0.54652 0.55377 0.33160
 C164 C 0.56175 0.57912 0.34479
 C165 C 0.60874 0.62422 0.34547
 C166 C 0.49558 0.50687 0.33069
 C167 C 0.46960 0.47395 0.34360
 C168 C 0.42071 0.43178 0.34281
 C169 C 0.39872 0.42082 0.32883
 C170 C 0.42402 0.45218 0.31584
 C171 C 0.47178 0.49549 0.31687
 H172 H 0.67519 0.68119 0.33275
 H173 H 0.56977 0.55598 0.30885
 H174 H 0.53716 0.56425 0.35457
 H175 H 0.48677 0.48122 0.35436
 H176 H 0.36196 0.38708 0.32801
 H177 H 0.48946 0.52075 0.30682
 C178 C -0.10700 0.18792 0.56354
 C179 C -0.13742 0.13476 0.56284
 C180 C -0.13010 0.11145 0.55139
 C181 C -0.09197 0.14079 0.54046
 C182 C -0.06282 0.19421 0.54082
 C183 C -0.07039 0.21758 0.55222
 C184 C -0.11088 0.21176 0.57662
 C185 C -0.10824 0.25878 0.57484
 C186 C -0.10894 0.28234 0.58734
 C187 C -0.11182 0.25957 0.60189
 C188 C -0.11505 0.21220 0.60360
 C189 C -0.11480 0.18853 0.59113
 C190 C -0.10912 0.28583 0.61530
 C191 C -0.13599 0.25730 0.62856
 C192 C -0.12928 0.28117 0.64163
 C193 C -0.09610 0.33418 0.64170
 C194 C -0.07111 0.36322 0.62831
 C195 C -0.07734 0.33927 0.61525
 H196 H -0.16622 0.11106 0.57134
 H197 H -0.15286 0.07018 0.55149
 H198 H -0.03346 0.21779 0.53246
 H199 H -0.04620 0.25858 0.55253
 H200 H -0.10561 0.27730 0.56377
 H201 H -0.10710 0.31842 0.58561
 H202 H -0.11613 0.19407 0.61460
 H203 H -0.11591 0.15280 0.59285
 H204 H -0.16169 0.21631 0.62892
 H205 H -0.14953 0.25808 0.65178
 H206 H -0.04504 0.40413 0.62812
 H207 H -0.05561 0.36239 0.60531
 C208 C 0.85165 0.81914 0.22922
 C209 C 0.86988 0.80156 0.21866
 C210 C 0.90653 0.83621 0.20795
 C211 C 0.92601 0.88903 0.20777
 C212 C 0.90762 0.90638 0.21832
 C213 C 0.87091 0.87190 0.22890
 C214 C 0.81343 0.78332 0.24082
 C215 C 0.77461 0.79013 0.24456
 C216 C 0.74183 0.76055 0.25659
 C217 C 0.74709 0.72346 0.26519
 C218 C 0.78435 0.71477 0.26100
 C219 C 0.81724 0.74445 0.24891
 C220 C 0.71574 0.69647 0.27897
 C221 C 0.69554 0.64383 0.28271
 C222 C 0.66614 0.61914 0.29580
 C223 C 0.65692 0.64679 0.30545
 C224 C 0.67736 0.69940 0.30171
 C225 C 0.70640 0.72391 0.28865
 H226 H 0.85552 0.76106 0.21863
 H227 H 0.92019 0.82186 0.19996
 H228 H 0.92140 0.94677 0.21833
 H229 H 0.85810 0.88668 0.23701
 H230 H 0.77012 0.81906 0.23832
 H231 H 0.71276 0.76729 0.25934
 H232 H 0.78945 0.68663 0.26746
 H233 H 0.84700 0.73858 0.24632
 H234 H 0.70200 0.62171 0.27543
 H235 H 0.65101 0.57859 0.29846
 H236 H 0.67037 0.72157 0.30882
 H237 H 0.72204 0.76463 0.28620
 C238 C 0.25649 -0.00499 -0.10769
 C239 C 0.23801 -0.04367 -0.11750
 C240 C 0.20217 -0.04933 -0.12781
 C241 C 0.18442 -0.01610 -0.12867
 C242 C 0.20481 0.02433 -0.11949
 C243 C 0.24034 0.02972 -0.10906
 C244 C 0.28926 -0.00339 -0.09535
 C245 C 0.32739 0.04344 -0.09058
 C246 C 0.35511 0.04435 -0.07812
 C247 C 0.34530 -0.00155 -0.07018
 C248 C 0.30837 -0.04828 -0.07528
 C249 C 0.28060 -0.04920 -0.08765
 C250 C 0.37160 -0.00105 -0.05623
 C251 C 0.34523 -0.03658 -0.04391
 C252 C 0.36924 -0.03630 -0.03070
 C253 C 0.42023 -0.00030 -0.02938
 C254 C 0.44679 0.03529 -0.04169
 C255 C 0.42269 0.03496 -0.05497
 H256 H 0.25048 -0.07031 -0.11699
 H257 H 0.18755 -0.08037 -0.13493
 H258 H 0.19141 0.05019 -0.11984
 H259 H 0.25328 0.05956 -0.10158
 H260 H 0.33543 0.07942 -0.09636
 H261 H 0.38313 0.08099 -0.07444
 H262 H 0.30043 -0.08432 -0.06957
 H263 H 0.25114 -0.08597 -0.09086
 H264 H 0.30571 -0.06431 -0.04441
 H265 H 0.34785 -0.06462 -0.02149
 H266 H 0.48602 0.06380 -0.04098
 H267 H 0.44411 0.06261 -0.06429
 C268 C -0.03143 0.80205 0.57248
 C269 C 0.00248 0.81975 0.56025
 C270 C 0.00362 0.85444 0.54883
 C271 C -0.02907 0.87210 0.54946
 C272 C -0.06364 0.85341 0.56152
 C273 C -0.06485 0.81883 0.57286
 C274 C -0.03217 0.76660 0.58496
 C275 C -0.03946 0.77308 0.59977
 C276 C -0.04377 0.73810 0.61151
 C277 C -0.04069 0.69583 0.60877
 C278 C -0.03150 0.69023 0.59405
 C279 C -0.02735 0.72528 0.58223
 C280 C -0.04878 0.65715 0.62127
 C281 C -0.01777 0.63731 0.62291
 C282 C -0.02449 0.60270 0.63520
 C283 C -0.06251 0.58720 0.64603
 C284 C -0.09436 0.60594 0.64409
 C285 C -0.08751 0.64054 0.63189
 H286 H 0.02886 0.80770 0.55969
 H287 H 0.03078 0.86837 0.53969
 H288 H -0.09015 0.86528 0.56213
 H289 H -0.09230 0.80490 0.58191
 H290 H -0.04206 0.80521 0.60229
 H291 H -0.04969 0.74403 0.62279
 H292 H -0.02918 0.65785 0.59162
 H293 H -0.02200 0.71913 0.57093
 H294 H 0.01251 0.64966 0.61491
 H295 H 0.00085 0.58920 0.63645
 H296 H -0.12474 0.59377 0.65203
 H297 H -0.11268 0.65429 0.63074
 C298 C 0.25352 0.30146 0.22171
 C299 C 0.27966 0.28929 0.21220
 C300 C 0.25505 0.25677 0.20099
 C301 C 0.20392 0.23610 0.19900
 C302 C 0.17836 0.25028 0.20804
 C303 C 0.20287 0.28249 0.21931
 C304 C 0.27798 0.33043 0.23478
 C305 C 0.25342 0.31321 0.24887
 C306 C 0.27745 0.33763 0.26149
 C307 C 0.32658 0.38019 0.26034
 C308 C 0.35073 0.39825 0.24615
 C309 C 0.32675 0.37347 0.23352
 C310 C 0.35302 0.40368 0.27402
 C311 C 0.40360 0.42036 0.27559
 C312 C 0.42718 0.43797 0.28899
 C313 C 0.40057 0.43880 0.30115
 C314 C 0.35058 0.42386 0.29945
 C315 C 0.32714 0.40679 0.28601
 H316 H 0.31862 0.30308 0.21386
 H317 H 0.27575 0.24682 0.19409
 H318 H 0.13887 0.23463 0.20684
 H319 H 0.18196 0.29167 0.22639
 H320 H 0.21616 0.27956 0.25023
 H321 H 0.25804 0.32194 0.27225
 H322 H 0.38827 0.43139 0.24482
 H323 H 0.34637 0.38782 0.22276
 H324 H 0.42451 0.41787 0.26669
 H325 H 0.46566 0.44889 0.29008
 H326 H 0.32949 0.42489 0.30860
 H327 H 0.28851 0.39538 0.28508
 C328 C 0.79791 -0.05079 -0.09793
 C329 C 0.77577 -0.08376 -0.10924
 C330 C 0.80517 -0.08958 -0.11932
 C331 C 0.85750 -0.06346 -0.11811
 C332 C 0.87899 -0.03112 -0.10646
 C333 C 0.84967 -0.02464 -0.09664
 C334 C 0.76764 -0.04315 -0.08740
 C335 C 0.78125 0.00660 -0.08477
 C336 C 0.75587 0.01442 -0.07387
 C337 C 0.71680 -0.02736 -0.06514
 C338 C 0.70200 -0.07729 -0.06818
 C339 C 0.72703 -0.08509 -0.07929
 C340 C 0.69381 -0.01856 -0.05238
 C341 C 0.64283 -0.05115 -0.04851
 C342 C 0.62222 -0.04337 -0.03615
 C343 C 0.65213 -0.00275 -0.02742
 C344 C 0.70285 0.03016 -0.03145
 C345 C 0.72345 0.02217 -0.04368
 H346 H 0.73576 -0.10451 -0.11038
 H347 H 0.78633 -0.11603 -0.12771
 H348 H 0.91887 -0.00849 -0.10523
 H349 H 0.86756 0.00094 -0.08796
 H350 H 0.81201 0.03951 -0.09107
 H351 H 0.76739 0.05334 -0.07213
 H352 H 0.67243 -0.11033 -0.06160
 H353 H 0.71610 -0.12381 -0.08109
 H354 H 0.61881 -0.08260 -0.05505
 H355 H 0.58310 -0.06971 -0.03328
 H356 H 0.72682 0.06232 -0.02513
 H357 H 0.76299 0.04753 -0.04611
 C358 C 0.26061 0.00609 0.09940
 C359 C 0.24540 -0.02389 0.11321
 C360 C 0.21786 -0.01700 0.12370
 C361 C 0.20465 0.01971 0.12051
 C362 C 0.21921 0.04888 0.10655
 C363 C 0.24702 0.04233 0.09617
 C364 C 0.29048 -0.00004 0.08826
 C365 C 0.33146 0.04337 0.08072
 C366 C 0.35778 0.03822 0.06947
 C367 C 0.34355 -0.01045 0.06543
 C368 C 0.30323 -0.05401 0.07320
 C369 C 0.27711 -0.04885 0.08458
 C370 C 0.36923 -0.01509 0.05262
 C371 C 0.34163 -0.04804 0.04166
 C372 C 0.36535 -0.04806 0.02871
 C373 C 0.41717 -0.01536 0.02651
 C374 C 0.44498 0.01591 0.03778
 C375 C 0.42125 0.01613 0.05068
 H376 H 0.25564 -0.05193 0.11599
 H377 H 0.20764 -0.03979 0.13439
 H378 H 0.20855 0.07646 0.10352
 H379 H 0.25735 0.06520 0.08548
 H380 H 0.34284 0.08142 0.08344
 H381 H 0.38832 0.07250 0.06359
 H382 H 0.29170 -0.09198 0.07037
 H383 H 0.24551 -0.08290 0.09018
 H384 H 0.30146 -0.07226 0.04281
 H385 H 0.34306 -0.07295 0.02028
 H386 H 0.48491 0.04177 0.03635
 H387 H 0.44349 0.04152 0.05901
 C388 C 0.74397 0.82476 0.43542
 C389 C 0.76047 0.87679 0.43452
 C390 C 0.78789 0.90672 0.44594
 C391 C 0.80097 0.88596 0.45868
 C392 C 0.78136 0.83238 0.45971
 C393 C 0.75341 0.80255 0.44829
 C394 C 0.72019 0.79470 0.42251
 C395 C 0.67731 0.74525 0.42447
 C396 C 0.65684 0.71633 0.41224
 C397 C 0.67953 0.73607 0.39794
 C398 C 0.72202 0.78567 0.39598
 C399 C 0.74195 0.81480 0.40811
 C400 C 0.66024 0.70483 0.38508
 C401 C 0.69303 0.70076 0.37590
 C402 C 0.67590 0.67346 0.36333
 C403 C 0.62565 0.65020 0.35948
 C404 C 0.59255 0.65337 0.36889
 C405 C 0.60966 0.68017 0.38163
 H406 H 0.75236 0.89454 0.42485
 H407 H 0.79751 0.94598 0.44461
 H408 H 0.78995 0.81287 0.46868
 H409 H 0.74136 0.76241 0.44920
 H410 H 0.65981 0.72901 0.43546
 H411 H 0.62413 0.67808 0.41401
 H412 H 0.73993 0.80182 0.38503
 H413 H 0.77529 0.85259 0.40632
 H414 H 0.73205 0.71874 0.37848
 H415 H 0.70217 0.67069 0.35658
 H416 H 0.55376 0.63645 0.36619
 H417 H 0.58376 0.68303 0.38853
 C418 C -0.00882 0.16467 0.76875
 C419 C -0.04247 0.11150 0.76942
 C420 C -0.03693 0.07854 0.77978
 C421 C 0.00242 0.09787 0.78974
 C422 C 0.03604 0.15110 0.78917
 C423 C 0.03064 0.18420 0.77871
 C424 C -0.01497 0.19903 0.75749
 C425 C 0.02615 0.23945 0.74908
 C426 C 0.01935 0.26846 0.73748
 C427 C -0.02870 0.25755 0.73409
 C428 C -0.06948 0.21860 0.74294
 C429 C -0.06270 0.18969 0.75450
 C430 C -0.03688 0.28454 0.72089
 C431 C -0.07659 0.25674 0.71150
 C432 C -0.08437 0.28132 0.69892
 C433 C -0.05264 0.33433 0.69539
 C434 C -0.01297 0.36234 0.70479
 C435 C -0.00502 0.33762 0.71739
 H436 H -0.07284 0.09523 0.76177
 H437 H -0.06387 0.03779 0.78008
 H438 H 0.06682 0.16702 0.79669
 H439 H 0.05697 0.22505 0.77849
 H440 H 0.06332 0.24728 0.75107
 H441 H 0.05143 0.29800 0.73078
 H442 H -0.10681 0.21006 0.74081
 H443 H -0.09496 0.15952 0.76100
 H444 H -0.10136 0.21571 0.71378
 H445 H -0.11558 0.25882 0.69200
 H446 H 0.01225 0.40320 0.70228
 H447 H 0.02574 0.36003 0.72446
 C448 C 0.85748 0.06696 0.09825
 C449 C 0.87091 0.03029 0.09839
 C450 C 0.90592 0.03150 0.10832
 C451 C 0.92807 0.06917 0.11841
 C452 C 0.91413 0.10544 0.11847
 C453 C 0.87941 0.10459 0.10839
 C454 C 0.82172 0.06632 0.08721
 C455 C 0.83208 0.11151 0.07871
 C456 C 0.80089 0.10982 0.06720
 C457 C 0.75851 0.06298 0.06410
 C458 C 0.74714 0.01817 0.07304
 C459 C 0.77847 0.01981 0.08444
 C460 C 0.72812 0.05986 0.05097
 C461 C 0.67596 0.02791 0.05192
 C462 C 0.64782 0.02037 0.03913
 C463 C 0.67131 0.04437 0.02511
 C464 C 0.72328 0.07797 0.02427
 C465 C 0.75138 0.08574 0.03707
 H466 H 0.85504 0.00122 0.09059
 H467 H 0.91559 0.00276 0.10814
 H468 H 0.93083 0.13497 0.12612
 H469 H 0.86951 0.13316 0.10854
 H470 H 0.86533 0.14782 0.08057
 H471 H 0.81031 0.14498 0.06056
 H472 H 0.71504 -0.01855 0.07083
 H473 H 0.76939 -0.01551 0.09093
 H474 H 0.65702 0.00787 0.06251
 H475 H 0.60786 -0.00596 0.04010
 H476 H 0.74228 0.09738 0.01363
 H477 H 0.79153 0.11027 0.03597
 C478 C 0.20079 0.21053 0.43207
 C479 C 0.21479 0.19483 0.44546
 C480 C 0.17989 0.16704 0.45727
 C481 C 0.13051 0.15490 0.45595
 C482 C 0.11679 0.17091 0.44258
 C483 C 0.15145 0.19841 0.43082
 C484 C 0.23701 0.23969 0.41937
 C485 C 0.22201 0.22888 0.40464
 C486 C 0.25401 0.25915 0.39253
 C487 C 0.30188 0.30090 0.39484
 C488 C 0.31794 0.31036 0.40955
 C489 C 0.28573 0.28004 0.42172
 C490 C 0.33348 0.33572 0.38187
 C491 C 0.38445 0.35345 0.38074
 C492 C 0.41321 0.38506 0.36814
 C493 C 0.39149 0.39968 0.35651
 C494 C 0.34083 0.38296 0.35792
 C495 C 0.31220 0.35130 0.37039
 H496 H 0.25250 0.20344 0.44672
 H497 H 0.19161 0.15544 0.46748
 H498 H 0.07890 0.16154 0.44111
 H499 H 0.13966 0.21061 0.42075
 H500 H 0.18516 0.19729 0.40247
 H501 H 0.24106 0.25029 0.38131
 H502 H 0.35460 0.34244 0.41164
 H503 H 0.29823 0.28943 0.43295
 H504 H 0.40172 0.34187 0.38942
 H505 H 0.45207 0.39707 0.36734
 H506 H 0.32326 0.39460 0.34936
 H507 H 0.27331 0.33925 0.37113
 C508 C -0.09269 0.68264 0.77937
 C509 C -0.12342 0.70163 0.78179
 C510 C -0.11198 0.73566 0.79262
 C511 C -0.06932 0.75171 0.80116
 C512 C -0.03981 0.73098 0.79918
 C513 C -0.05151 0.69660 0.78844
 C514 C -0.10087 0.65212 0.76660
 C515 C -0.09611 0.60926 0.76817
 C516 C -0.09964 0.58345 0.75574
 C517 C -0.10744 0.60033 0.74145
 C518 C -0.11326 0.64260 0.74002
 C519 C -0.11024 0.66798 0.75245
 C520 C -0.10660 0.57626 0.72793
 C521 C -0.13672 0.57286 0.71579
 C522 C -0.13165 0.55601 0.70241
 C523 C -0.09692 0.54143 0.70096
 C524 C -0.06864 0.54219 0.71329
 C525 C -0.07320 0.55971 0.72661
 H526 H -0.15561 0.69114 0.77503
 H527 H -0.13517 0.75130 0.79383
 H528 H -0.00695 0.74241 0.80570
 H529 H -0.02699 0.68283 0.78675
 H530 H -0.08929 0.59598 0.77900
 H531 H -0.09581 0.55055 0.75731
 H532 H -0.11819 0.65747 0.72918
 H533 H -0.11317 0.70146 0.75086
 H534 H -0.16367 0.58407 0.71651
 H535 H -0.15435 0.55506 0.69311
 H536 H -0.04132 0.53152 0.71238
 H537 H -0.04893 0.56240 0.73563
   
