data_POSCAR
  _audit_creation_date              2014-09-24
  _audit_creation_method            'ToBaCCo'
  _symmetry_space_group_name_H-M    'P1'
  _symmetry_Int_Tables_number       1
  _symmetry_cell_setting            triclinic
  loop_
  _symmetry_equiv_pos_as_xyz
 x,y,z
_cell_length_a 20.3671
_cell_length_b 20.7478
_cell_length_c 31.4432
_cell_angle_alpha 83.538400
_cell_angle_beta 85.264400
_cell_angle_gamma 93.538200
loop_
  _atom_site_label
  _atom_site_type_symbol
  _atom_site_fract_x
  _atom_site_fract_y
  _atom_site_fract_z
C1 C 0.02233 0.31304 0.97656
 C2 C 0.02944 0.30599 1.01991
 C3 C -0.00017 0.35739 1.03648
 N4 N -0.02468 0.39553 1.00470
 C5 C -0.01087 0.36872 0.96807
 C6 C -0.00323 0.37093 1.07966
 C7 C -0.02142 0.43219 1.09035
 C8 C -0.05132 0.44317 1.12991
 C9 C -0.05073 0.50933 1.12989
 C10 C -0.02053 0.53690 1.09033
 N11 N -0.00469 0.48957 1.06580
 C12 C -0.00190 0.60383 1.07931
 C13 C 0.00186 0.63163 1.03595
 C14 C 0.03312 0.69135 1.01886
 C15 C 0.02563 0.69784 0.97561
 C16 C -0.00912 0.64157 0.96770
 N17 N -0.02375 0.60135 1.00454
 C18 C -0.02681 0.62724 0.92722
 C19 C -0.04767 0.56372 0.91972
 C20 C -0.07981 0.54873 0.88456
 C21 C -0.08076 0.48235 0.88483
 C22 C -0.04848 0.45873 0.91990
 N23 N -0.02998 0.50852 0.94164
 C24 C -0.02808 0.39478 0.92739
 H25 H 0.04169 0.28198 0.95383
 H26 H 0.05595 0.26883 1.03659
 H27 H 0.00226 0.50625 0.96570
 H28 H -0.06964 0.40710 1.15650
 H29 H -0.06861 0.53446 1.15643
 H30 H 0.06109 0.72559 1.03505
 H31 H 0.04576 0.73829 0.95254
 H32 H -0.10026 0.45492 0.86079
 H33 H 0.02467 0.49606 1.03665
 H34 H -0.09823 0.58245 0.86030
 C35 C 0.31282 0.06989 0.49656
 C36 C 0.32062 0.05089 0.45610
 C37 C 0.37417 0.01261 0.45542
 N38 N 0.39951 0.00813 0.49391
 C39 C 0.36247 0.04349 0.51889
 C40 C 0.39806 -0.01926 0.42048
 C41 C 0.45804 -0.05038 0.42014
 C42 C 0.47558 -0.09556 0.39286
 C43 C 0.53999 -0.10775 0.39854
 C44 C 0.56046 -0.07023 0.42971
 N45 N 0.50969 -0.03548 0.44263
 C46 C 0.62672 -0.06092 0.44060
 C47 C 0.64292 -0.02688 0.47553
 C48 C 0.70611 -0.00760 0.48509
 C49 C 0.69942 0.01764 0.52360
 C50 C 0.63275 0.01112 0.53725
 N51 N 0.59854 -0.01600 0.50790
 C52 C 0.60426 0.02567 0.57728
 C53 C 0.53519 0.02329 0.58710
 C54 C 0.50364 0.01823 0.62828
 C55 C 0.43786 0.02541 0.62389
 C56 C 0.43107 0.03430 0.58016
 N57 N 0.49045 0.03219 0.55792
 C58 C 0.37258 0.05077 0.56186
 H59 H 0.27574 0.10063 0.50793
 H60 H 0.29066 0.06467 0.43019
 H61 H 0.50123 0.04546 0.52505
 H62 H 0.44579 -0.11604 0.37005
 H63 H 0.56875 -0.13823 0.37973
 H64 H 0.75282 -0.01187 0.46715
 H65 H 0.73955 0.03760 0.53967
 H66 H 0.39958 0.02541 0.64990
 H67 H 0.51282 0.00328 0.46078
 H68 H 0.52587 0.01129 0.65841
 C69 C 0.15579 -0.01126 0.25587
 H70 H 0.15326 0.00455 0.22210
 C71 C 0.21597 -0.00612 0.27372
 H72 H 0.25881 0.01461 0.25306
 C73 C 0.10138 -0.05635 0.32308
 H74 H 0.05645 -0.07623 0.34199
 C75 C 0.16089 -0.05236 0.34231
 H76 H 0.16081 -0.06936 0.37611
 N77 N 0.10015 -0.03616 0.28051
 C78 C -0.01786 -0.12021 0.18806
 H79 H -0.05837 -0.08909 0.18544
 C80 C -0.01622 -0.17476 0.16561
 H81 H -0.05534 -0.18496 0.14550
 C82 C 0.07966 -0.14775 0.21992
 H83 H 0.11623 -0.13833 0.24184
 C84 C 0.08284 -0.20278 0.19849
 H85 H 0.12274 -0.23410 0.20359
 Zn86 Zn 0.02259 -0.04118 0.25147
 N87 N 0.02928 -0.10824 0.21506
 C88 C 0.01186 0.05128 0.17664
 N89 N 0.01844 0.04172 0.21962
 C90 C 0.02759 0.09289 0.24239
 C91 C 0.02904 0.15637 0.22257
 C92 C 0.01331 0.11452 0.15529
 C93 C -0.09188 -0.11665 0.29050
 C94 C -0.14985 -0.13078 0.31781
 C95 C -0.12762 -0.03083 0.34816
 C96 C -0.06998 -0.01868 0.32032
 N97 N -0.05368 -0.06075 0.29158
 H98 H 0.00676 0.01024 0.15861
 H99 H 0.03599 0.08456 0.27594
 H100 H 0.03547 0.19557 0.24209
 H101 H 0.00884 0.12124 0.12104
 H102 H -0.07789 -0.15046 0.26827
 H103 H -0.17995 -0.17479 0.31539
 H104 H -0.13946 0.00355 0.37059
 H105 H -0.03852 0.02453 0.32184
 C106 C 0.03378 -0.21762 0.17168
 C107 C 0.21948 -0.02714 0.31750
 C108 C -0.16884 -0.08722 0.34683
 C109 C 0.02247 0.16812 0.17835
 C110 C -0.04534 0.16873 0.76252
 H111 H -0.05394 0.17136 0.72889
 C112 C -0.04401 0.22501 0.78280
 H113 H -0.05232 0.27085 0.76465
 C114 C -0.02219 0.10570 0.82653
 H115 H -0.01237 0.05916 0.84302
 C116 C -0.02154 0.16098 0.84839
 H117 H -0.01099 0.15683 0.88174
 N118 N -0.03245 0.11102 0.78408
 C119 C 0.06868 0.01369 0.68404
 H120 H 0.03893 -0.03160 0.68527
 C121 C 0.12706 0.02430 0.65676
 H122 H 0.14069 -0.01296 0.63695
 C123 C 0.08912 0.11447 0.71073
 H124 H 0.07565 0.14908 0.73245
 C125 C 0.14740 0.12728 0.68378
 H126 H 0.17617 0.17246 0.68491
 Zn127 Zn -0.02580 0.04083 0.75064
 N128 N 0.05085 0.05841 0.71056
 C129 C -0.10269 0.02036 0.68034
 N130 N -0.10358 0.03511 0.72150
 C131 C -0.16017 0.05090 0.74274
 C132 C -0.21814 0.05470 0.72214
 C133 C -0.16001 0.02214 0.65884
 C134 C 0.03934 -0.06769 0.78258
 C135 C 0.04404 -0.12996 0.80330
 C136 C -0.06873 -0.12941 0.83372
 C137 C -0.07176 -0.06732 0.81159
 N138 N -0.01857 -0.03851 0.78581
 H139 H -0.05750 0.00862 0.66362
 H140 H -0.15981 0.06248 0.77541
 H141 H -0.26232 0.06878 0.73925
 H142 H -0.15812 0.01172 0.62580
 H143 H 0.08184 -0.04334 0.76326
 H144 H 0.09009 -0.15300 0.79941
 H145 H -0.11194 -0.15277 0.85308
 H146 H -0.11714 -0.04300 0.81393
 C147 C 0.16787 0.08148 0.65674
 C148 C -0.03065 0.22175 0.82596
 C149 C -0.01078 -0.16201 0.82852
 C150 C -0.21818 0.04085 0.67954
 N151 N 0.05576 -0.33427 0.17239
 N152 N 0.04427 -0.38400 0.14715
 C153 C 0.01537 -0.35915 0.11240
 C154 C 0.00701 -0.29347 0.11524
 C155 C 0.03293 -0.27997 0.15309
 H156 H -0.01656 -0.26013 0.09336
 H157 H 0.07633 -0.34011 0.20180
 H158 H 0.05959 -0.43095 0.15360
 N159 N 0.05181 0.28737 0.17459
 N160 N 0.04369 0.34328 0.14734
 C161 C 0.01433 0.32555 0.11311
 C162 C 0.00333 0.25795 0.11786
 C163 C 0.02657 0.23602 0.15704
 H164 H -0.02213 0.22889 0.09698
 H165 H 0.07471 0.28723 0.20308
 H166 H 0.06058 0.39008 0.15252
 N167 N 0.28040 0.13807 0.63562
 N168 N 0.33381 0.12996 0.61061
 C169 C 0.32151 0.07894 0.58891
 C170 C 0.25737 0.05327 0.60046
 C171 C 0.23272 0.09197 0.63060
 H172 H 0.23379 0.01049 0.58989
 H173 H 0.27854 0.17319 0.65686
 H174 H 0.37858 0.15779 0.60949
 N175 N -0.31930 0.09643 0.66197
 N176 N -0.36466 0.09341 0.63448
 C177 C -0.35299 0.04449 0.61067
 C178 C -0.29741 0.01511 0.62365
 C179 C -0.27747 0.04974 0.65615
 H180 H -0.27512 -0.02603 0.61159
 H181 H -0.31635 0.13112 0.68350
 H182 H -0.40253 0.12497 0.63184
 N183 N 0.02679 -0.27391 0.82800
 N184 N 0.02151 -0.32931 0.85354
 C185 C -0.01583 -0.32187 0.88979
 C186 C -0.03615 -0.25899 0.88700
 C187 C -0.00753 -0.23009 0.84730
 H188 H -0.06533 -0.23688 0.91102
 H189 H 0.05366 -0.26654 0.79788
 H190 H 0.04477 -0.37090 0.84667
 N191 N 0.00547 0.33881 0.82417
 N192 N 0.00705 0.38360 0.85075
 C193 C -0.01962 0.35715 0.88996
 C194 C -0.03829 0.29193 0.88833
 C195 C -0.02173 0.28251 0.84584
 H196 H -0.06191 0.25692 0.91399
 H197 H 0.02390 0.34677 0.79188
 H198 H 0.02667 0.43142 0.84204
 N199 N -0.26491 -0.15878 0.38453
 N200 N -0.32210 -0.15094 0.41047
 C201 C -0.32248 -0.08767 0.41647
 C202 C -0.26624 -0.05412 0.39466
 C203 C -0.23151 -0.10005 0.37501
 H204 H -0.25387 -0.00225 0.39187
 H205 H -0.25118 -0.20320 0.37537
 H206 H -0.35627 -0.18872 0.42413
 N207 N 0.34286 -0.00569 0.31433
 N208 N 0.38901 -0.00355 0.34133
 C209 C 0.36078 -0.01869 0.38173
 C210 C 0.29337 -0.03157 0.38034
 C211 C 0.28366 -0.02219 0.33686
 H212 H 0.25684 -0.04481 0.40737
 H213 H 0.35280 0.00416 0.28108
 H214 H 0.43900 0.00912 0.33209
   
