data_POSCAR
  _audit_creation_date              2014-09-24
  _audit_creation_method            'ToBaCCo'
  _symmetry_space_group_name_H-M    'P1'
  _symmetry_Int_Tables_number       1
  _symmetry_cell_setting            triclinic
  loop_
  _symmetry_equiv_pos_as_xyz
 x,y,z
_cell_length_a 57.3852
_cell_length_b 57.3318
_cell_length_c 58.3087
_cell_angle_alpha 92.642900
_cell_angle_beta 92.186100
_cell_angle_gamma 87.932500
loop_
  _atom_site_label
  _atom_site_type_symbol
  _atom_site_fract_x
  _atom_site_fract_y
  _atom_site_fract_z
N1 N 0.30143 0.22818 0.22823
 N2 N 0.28976 0.24546 0.21852
 C3 C 0.30184 0.25239 0.20083
 C4 C 0.32219 0.23868 0.19930
 C5 C 0.32126 0.22351 0.21706
 H6 H 0.29609 0.26623 0.18976
 H7 H 0.33405 0.21008 0.22164
 Cu8 Cu 0.25988 0.25718 0.22990
 Cu9 Cu 0.29000 0.21278 0.25443
 Cu10 Cu 0.23751 0.23393 0.27591
 N11 N 0.23081 0.26931 0.24276
 N12 N 0.22220 0.26016 0.26072
 C13 C 0.20226 0.27184 0.26612
 C14 C 0.19801 0.28938 0.25073
 C15 C 0.21660 0.28718 0.23614
 H16 H 0.19178 0.26788 0.28035
 H17 H 0.21965 0.29778 0.22179
 N18 N 0.25558 0.20750 0.28896
 N19 N 0.27559 0.19948 0.28080
 C20 C 0.28351 0.18136 0.29314
 C21 C 0.26774 0.17772 0.30993
 C22 C 0.25025 0.19469 0.30670
 H23 H 0.29962 0.17158 0.29012
 H24 H 0.23460 0.19735 0.31634
 H25 H 0.25493 0.22009 0.24775
 H26 H 0.27089 0.24150 0.26709
 N27 N 0.71520 -0.24343 0.22244
 N28 N 0.72524 -0.26269 0.21393
 C29 C 0.71332 -0.26978 0.19467
 C30 C 0.69466 -0.25411 0.19081
 C31 C 0.69656 -0.23759 0.20896
 H32 H 0.71797 -0.28524 0.18434
 H33 H 0.68532 -0.22241 0.21230
 Cu34 Cu 0.75286 -0.27670 0.22889
 Cu35 Cu 0.72692 -0.22741 0.25046
 Cu36 Cu 0.77664 -0.25145 0.27708
 N37 N 0.78108 -0.28963 0.24370
 N38 N 0.79029 -0.27974 0.26250
 C39 C 0.80957 -0.29215 0.26903
 C40 C 0.81275 -0.31101 0.25345
 C41 C 0.79418 -0.30869 0.23760
 H42 H 0.82037 -0.28763 0.28404
 H43 H 0.79037 -0.31992 0.22266
 N44 N 0.76024 -0.22290 0.28913
 N45 N 0.74137 -0.21376 0.27894
 C46 C 0.73429 -0.19450 0.29118
 C47 C 0.74939 -0.19126 0.31009
 C48 C 0.76565 -0.20968 0.30816
 H49 H 0.71925 -0.18362 0.28657
 H50 H 0.78028 -0.21332 0.31979
 H51 H 0.76136 -0.23877 0.24731
 H52 H 0.74280 -0.25641 0.26506
 N53 N 0.71496 0.25250 0.79247
 N54 N 0.72600 0.27026 0.80215
 C55 C 0.71480 0.27803 0.82104
 C56 C 0.69564 0.26435 0.82342
 C57 C 0.69638 0.24832 0.80486
 H58 H 0.72034 0.29250 0.83222
 H59 H 0.68433 0.23462 0.80055
 Cu60 Cu 0.75408 0.28148 0.78937
 Cu61 Cu 0.72563 0.23597 0.76469
 Cu62 Cu 0.77141 0.25973 0.73786
 N63 N 0.77686 0.29696 0.77211
 N64 N 0.78374 0.28837 0.75214
 C65 C 0.79973 0.30233 0.74427
 C66 C 0.80314 0.32085 0.76018
 C67 C 0.78815 0.31672 0.77764
 H68 H 0.80812 0.29908 0.72811
 H69 H 0.78557 0.32712 0.79331
 N70 N 0.75648 0.23082 0.72625
 N71 N 0.73901 0.22183 0.73649
 C72 C 0.73264 0.20224 0.72464
 C73 C 0.74677 0.19859 0.70595
 C74 C 0.76169 0.21716 0.70761
 H75 H 0.71874 0.19142 0.72938
 H76 H 0.77541 0.22053 0.69615
 H77 H 0.76031 0.24490 0.76699
 H78 H 0.73936 0.26572 0.75245
 N79 N 0.27849 -0.24238 0.77533
 N80 N 0.26693 -0.25923 0.78368
 C81 C 0.27798 -0.26604 0.80319
 C82 C 0.29752 -0.25268 0.80734
 C83 C 0.29720 -0.23787 0.78918
 H84 H 0.27212 -0.27960 0.81365
 H85 H 0.30967 -0.22481 0.78610
 Cu86 Cu 0.23861 -0.27055 0.76812
 Cu87 Cu 0.26843 -0.22731 0.74729
 Cu88 Cu 0.21862 -0.24751 0.71863
 N89 N 0.21114 -0.28225 0.75134
 N90 N 0.20337 -0.27318 0.73212
 C91 C 0.18439 -0.28455 0.72416
 C92 C 0.17989 -0.30188 0.73918
 C93 C 0.19739 -0.29976 0.75624
 H94 H 0.17477 -0.28047 0.70849
 H95 H 0.20010 -0.31015 0.77115
 N96 N 0.23660 -0.22170 0.70779
 N97 N 0.25562 -0.21417 0.71871
 C98 C 0.26394 -0.19659 0.70729
 C99 C 0.24950 -0.19270 0.68817
 C100 C 0.23233 -0.20903 0.68907
 H101 H 0.27946 -0.18736 0.71254
 H102 H 0.21768 -0.21144 0.67711
 H103 H 0.23322 -0.23372 0.74888
 H104 H 0.25138 -0.25578 0.73229
 N105 N 0.70266 -0.22394 0.78336
 N106 N 0.71079 -0.24401 0.79085
 C107 C 0.69772 -0.25012 0.80817
 C108 C 0.68041 -0.23296 0.81175
 C109 C 0.68418 -0.21661 0.79561
 H110 H 0.70050 -0.26600 0.81733
 H111 H 0.67432 -0.20049 0.79296
 Cu112 Cu 0.73757 -0.26025 0.77715
 Cu113 Cu 0.71641 -0.20890 0.75813
 Cu114 Cu 0.76462 -0.23693 0.73385
 N115 N 0.76514 -0.27534 0.76383
 N116 N 0.77555 -0.26621 0.74688
 C117 C 0.79400 -0.28005 0.74099
 C118 C 0.79540 -0.29904 0.75505
 C119 C 0.77665 -0.29530 0.76935
 H120 H 0.80552 -0.27631 0.72750
 H121 H 0.77165 -0.30619 0.78284
 N122 N 0.75095 -0.20715 0.72310
 N123 N 0.73267 -0.19645 0.73244
 C124 C 0.72742 -0.17677 0.72132
 C125 C 0.74312 -0.17490 0.70406
 C126 C 0.75780 -0.19455 0.70578
 H127 H 0.71314 -0.16473 0.72549
 H128 H 0.77224 -0.19951 0.69505
 H129 H 0.73012 -0.23902 0.74216
 H130 H 0.74971 -0.22321 0.76345
 N131 N 0.28630 0.23776 0.77883
 N132 N 0.27708 0.25665 0.78896
 C133 C 0.29050 0.26273 0.80757
 C134 C 0.30919 0.24678 0.80929
 C135 C 0.30585 0.23117 0.79065
 H136 H 0.28687 0.27768 0.81899
 H137 H 0.31679 0.21614 0.78590
 Cu138 Cu 0.24852 0.27161 0.77682
 Cu139 Cu 0.27234 0.22307 0.75109
 Cu140 Cu 0.22207 0.24980 0.72842
 N141 N 0.22072 0.28681 0.76329
 N142 N 0.21048 0.27811 0.74444
 C143 C 0.19193 0.29191 0.73870
 C144 C 0.19035 0.31042 0.75480
 C145 C 0.20900 0.30652 0.77018
 H146 H 0.18054 0.28863 0.72382
 H147 H 0.21383 0.31730 0.78517
 N148 N 0.23641 0.22105 0.71462
 N149 N 0.25560 0.21088 0.72315
 C150 C 0.26110 0.19187 0.70973
 C151 C 0.24457 0.18995 0.69182
 C152 C 0.22919 0.20880 0.69558
 H153 H 0.27619 0.18044 0.71266
 H154 H 0.21381 0.21330 0.68526
 H155 H 0.25662 0.25340 0.73923
 H156 H 0.23855 0.23487 0.75663
 N157 N 0.27318 -0.24369 0.20617
 N158 N 0.26231 -0.26050 0.19458
 C159 C 0.27392 -0.26645 0.17547
 C160 C 0.29320 -0.25261 0.17493
 C161 C 0.29208 -0.23833 0.19477
 H162 H 0.26865 -0.27992 0.16296
 H163 H 0.30427 -0.22525 0.20073
 Cu164 Cu 0.23424 -0.27346 0.20552
 Cu165 Cu 0.26214 -0.23037 0.23532
 Cu166 Cu 0.21712 -0.25865 0.25889
 N167 N 0.21212 -0.29174 0.22073
 N168 N 0.20551 -0.28593 0.24159
 C169 C 0.19008 -0.30134 0.24786
 C170 C 0.18680 -0.31779 0.22994
 C171 C 0.20117 -0.31108 0.21299
 H172 H 0.18197 -0.30061 0.26431
 H173 H 0.20338 -0.31944 0.19619
 N174 N 0.23120 -0.23068 0.27361
 N175 N 0.24831 -0.21981 0.26464
 C176 C 0.25387 -0.20127 0.27855
 C177 C 0.23955 -0.20039 0.29722
 C178 C 0.22542 -0.21938 0.29343
 H179 H 0.26719 -0.18917 0.27516
 H180 H 0.21193 -0.22468 0.30431
 H181 H 0.24919 -0.26189 0.24367
 H182 H 0.22770 -0.23977 0.23185
 N183 N 0.71973 0.23133 0.23238
 N184 N 0.73005 0.24753 0.22164
 C185 C 0.71682 0.25321 0.20302
 C186 C 0.69708 0.23989 0.20197
 C187 C 0.69961 0.22617 0.22096
 H188 H 0.72134 0.26600 0.19106
 H189 H 0.68765 0.21350 0.22626
 Cu190 Cu 0.75966 0.25977 0.23314
 Cu191 Cu 0.73312 0.21814 0.26039
 Cu192 Cu 0.78626 0.23926 0.28069
 N193 N 0.78966 0.27121 0.24456
 N194 N 0.79989 0.26307 0.26321
 C195 C 0.81999 0.27402 0.26769
 C196 C 0.82265 0.29002 0.25094
 C197 C 0.80298 0.28768 0.23651
 H198 H 0.83157 0.27078 0.28232
 H199 H 0.79856 0.29732 0.22137
 N200 N 0.76982 0.21518 0.29604
 N201 N 0.74960 0.20709 0.28842
 C202 C 0.74307 0.19083 0.30265
 C203 C 0.76001 0.18860 0.32010
 C204 C 0.77668 0.20434 0.31525
 H205 H 0.72711 0.18141 0.30050
 H206 H 0.79281 0.20749 0.32485
 H207 H 0.75173 0.24691 0.27128
 H208 H 0.76731 0.22389 0.25340
 C209 C 0.26827 0.06153 0.51594
 C210 C 0.26850 0.06249 0.49248
 C211 C 0.26090 0.04116 0.48352
 N212 N 0.25589 0.02729 0.50066
 C213 C 0.26042 0.03969 0.52050
 C214 C 0.25725 0.03534 0.45990
 C215 C 0.25310 0.01234 0.45127
 C216 C 0.24507 0.00654 0.42907
 C217 C 0.24491 -0.01744 0.42702
 C218 C 0.25273 -0.02563 0.44806
 N219 N 0.25775 -0.00738 0.46272
 C220 C 0.25625 -0.04948 0.45278
 C221 C 0.25845 -0.05756 0.47530
 C222 C 0.26424 -0.08038 0.48076
 C223 C 0.26286 -0.08126 0.50414
 C224 C 0.25632 -0.05894 0.51217
 N225 N 0.25356 -0.04451 0.49452
 C226 C 0.25170 -0.05249 0.53526
 C227 C 0.24846 -0.02899 0.54334
 C228 C 0.23938 -0.02204 0.56438
 C229 C 0.24071 0.00186 0.56650
 C230 C 0.25048 0.00887 0.54667
 N231 N 0.25519 -0.01003 0.53265
 C232 C 0.25601 0.03211 0.54257
 H233 H 0.27313 0.07541 0.52821
 H234 H 0.27362 0.07722 0.48309
 H235 H 0.26493 -0.01022 0.51797
 H236 H 0.24001 0.01834 0.41565
 H237 H 0.23969 -0.02767 0.41175
 H238 H 0.26881 -0.09492 0.46910
 H239 H 0.26621 -0.09659 0.51408
 H240 H 0.23519 0.01282 0.58105
 H241 H 0.26636 -0.00845 0.47867
 H242 H 0.23267 -0.03305 0.57701
 C243 C 0.74273 0.07298 0.49611
 C244 C 0.74411 0.07454 0.51967
 C245 C 0.75268 0.05303 0.52675
 N246 N 0.75669 0.03845 0.50834
 C247 C 0.75057 0.05059 0.48959
 C248 C 0.75797 0.04761 0.54980
 C249 C 0.76326 0.02463 0.55674
 C250 C 0.77264 0.01908 0.57816
 C251 C 0.77368 -0.00489 0.57865
 C252 C 0.76502 -0.01334 0.55747
 N253 N 0.75862 0.00475 0.54425
 C254 C 0.76204 -0.03723 0.55137
 C255 C 0.75847 -0.04581 0.52846
 C256 C 0.75296 -0.06858 0.52196
 C257 C 0.75253 -0.07010 0.49840
 C258 C 0.75773 -0.04820 0.49131
 N259 N 0.76145 -0.03341 0.50970
 C260 C 0.76024 -0.04252 0.46826
 C261 C 0.76220 -0.01936 0.46140
 C262 C 0.76930 -0.01338 0.44003
 C263 C 0.76732 0.01055 0.43956
 C264 C 0.75909 0.01855 0.46066
 N265 N 0.75597 0.00021 0.47386
 C266 C 0.75345 0.04220 0.46668
 H267 H 0.73678 0.08681 0.48505
 H268 H 0.73941 0.08980 0.53036
 H269 H 0.74751 0.00084 0.48933
 H270 H 0.77800 0.03106 0.59210
 H271 H 0.78001 -0.01495 0.59300
 H272 H 0.74970 -0.08267 0.53301
 H273 H 0.74887 -0.08557 0.48772
 H274 H 0.77137 0.02088 0.42524
 H275 H 0.74919 0.00361 0.52869
 H276 H 0.77512 -0.02507 0.42614
 C277 C 0.51709 0.27312 0.07784
 C278 C 0.49318 0.27361 0.07791
 C279 C 0.48547 0.26707 0.05581
 N280 N 0.50384 0.26249 0.04229
 C281 C 0.52320 0.26625 0.05570
 C282 C 0.46190 0.26406 0.04881
 C283 C 0.45439 0.26031 0.02559
 C284 C 0.43256 0.25257 0.01842
 C285 C 0.43157 0.25258 -0.00517
 C286 C 0.45283 0.26027 -0.01178
 N287 N 0.46662 0.26503 0.00707
 C288 C 0.45846 0.26390 -0.03471
 C289 C 0.48152 0.26646 -0.04161
 C290 C 0.48756 0.27247 -0.06330
 C291 C 0.51148 0.27145 -0.06340
 C292 C 0.51923 0.26491 -0.04175
 N293 N 0.50090 0.26178 -0.02849
 C294 C 0.54282 0.26048 -0.03504
 C295 C 0.55042 0.25694 -0.01206
 C296 C 0.57236 0.24813 -0.00546
 C297 C 0.57335 0.24863 0.01816
 C298 C 0.55198 0.25770 0.02534
 N299 N 0.53813 0.26281 0.00682
 C300 C 0.54629 0.26218 0.04856
 H301 H 0.52866 0.27721 0.09245
 H302 H 0.48267 0.27816 0.09259
 H303 H 0.52229 0.27217 0.00712
 H304 H 0.41870 0.24756 0.02908
 H305 H 0.41681 0.24756 -0.01619
 H306 H 0.47596 0.27695 -0.07762
 H307 H 0.52195 0.27500 -0.07780
 H308 H 0.58817 0.24302 0.02882
 H309 H 0.48234 0.27350 0.00738
 H310 H 0.58628 0.24207 -0.01649
 C311 C 0.48215 0.74912 0.07121
 C312 C 0.50608 0.74874 0.07234
 C313 C 0.51311 0.75452 0.05091
 N314 N 0.49433 0.75848 0.03676
 C315 C 0.47538 0.75513 0.04912
 C316 C 0.53646 0.75752 0.04516
 C317 C 0.54327 0.76031 0.02243
 C318 C 0.56479 0.76806 0.01660
 C319 C 0.56510 0.76697 -0.00699
 C320 C 0.54375 0.75860 -0.01493
 N321 N 0.53057 0.75451 0.00312
 C322 C 0.53749 0.75381 -0.03831
 C323 C 0.51425 0.75055 -0.04632
 C324 C 0.50761 0.74333 -0.06856
 C325 C 0.48368 0.74413 -0.06970
 C326 C 0.47651 0.75174 -0.04810
 N327 N 0.49521 0.75571 -0.03386
 C328 C 0.45308 0.75642 -0.04230
 C329 C 0.44610 0.76103 -0.01950
 C330 C 0.42432 0.77011 -0.01351
 C331 C 0.42403 0.77080 0.01008
 C332 C 0.44564 0.76216 0.01787
 N333 N 0.45895 0.75614 -0.00027
 C334 C 0.45206 0.75892 0.04118
 H335 H 0.47102 0.74552 0.08511
 H336 H 0.51704 0.74479 0.08728
 H337 H 0.47484 0.74686 0.00036
 H338 H 0.57888 0.77379 0.02814
 H339 H 0.57946 0.77174 -0.01713
 H340 H 0.51883 0.73822 -0.08256
 H341 H 0.47280 0.73976 -0.08474
 H342 H 0.40951 0.77690 0.02033
 H343 H 0.51498 0.74580 0.00234
 H344 H 0.41006 0.77558 -0.02494
 C345 C 0.07345 0.50014 0.24714
 C346 C 0.07467 0.47618 0.24577
 C347 C 0.05286 0.46898 0.23792
 N348 N 0.03842 0.48771 0.23437
 C349 C 0.05094 0.50677 0.24008
 C350 C 0.04698 0.44553 0.23292
 C351 C 0.02384 0.43863 0.22803
 C352 C 0.01777 0.41694 0.21858
 C353 C -0.00619 0.41658 0.21803
 C354 C -0.01412 0.43805 0.22714
 N355 N 0.00429 0.45137 0.23323
 C356 C -0.03778 0.44425 0.23095
 C357 C -0.04587 0.46750 0.23552
 C358 C -0.06815 0.47404 0.24233
 C359 C -0.06936 0.49800 0.24344
 C360 C -0.04778 0.50527 0.23733
 N361 N -0.03348 0.48662 0.23242
 C362 C -0.04202 0.52875 0.23501
 C363 C -0.01899 0.53566 0.23198
 C364 C -0.01313 0.55739 0.22490
 C365 C 0.01082 0.55776 0.22568
 C366 C 0.01894 0.53623 0.23318
 N367 N 0.00066 0.52287 0.23700
 C368 C 0.04267 0.53006 0.23773
 H369 H 0.08754 0.51139 0.25263
 H370 H 0.08990 0.46531 0.25002
 H371 H 0.00153 0.50712 0.24518
 H372 H 0.02941 0.40276 0.21286
 H373 H -0.01659 0.40206 0.21180
 H374 H -0.08211 0.46274 0.24603
 H375 H -0.08443 0.50882 0.24816
 H376 H 0.02109 0.57230 0.22138
 H377 H 0.00364 0.46708 0.24285
 H378 H -0.02489 0.57160 0.21989
 C379 C 0.06445 0.49148 0.73059
 C380 C 0.06457 0.51543 0.73163
 C381 C 0.04238 0.52323 0.73759
 N382 N 0.02877 0.50490 0.74036
 C383 C 0.04220 0.48547 0.73602
 C384 C 0.03544 0.54688 0.74175
 C385 C 0.01197 0.55446 0.74467
 C386 C 0.00498 0.57651 0.75315
 C387 C -0.01900 0.57744 0.75204
 C388 C -0.02604 0.55594 0.74294
 N389 N -0.00705 0.54205 0.73842
 C390 C -0.04950 0.55018 0.73790
 C391 C -0.05669 0.52699 0.73383
 C392 C -0.07900 0.52075 0.72657
 C393 C -0.07912 0.49680 0.72622
 C394 C -0.05687 0.48923 0.73317
 N395 N -0.04323 0.50770 0.73792
 C396 C -0.04986 0.46569 0.73628
 C397 C -0.02637 0.45829 0.74054
 C398 C -0.01934 0.43650 0.74820
 C399 C 0.00464 0.43556 0.74871
 C400 C 0.01161 0.45681 0.74139
 N401 N -0.00739 0.47055 0.73638
 C402 C 0.03503 0.46241 0.73825
 H403 H 0.07911 0.47984 0.72647
 H404 H 0.07934 0.52589 0.72844
 H405 H -0.00742 0.48619 0.72807
 H406 H 0.01601 0.59053 0.75938
 H407 H -0.03001 0.59232 0.75728
 H408 H -0.09370 0.53223 0.72214
 H409 H -0.09391 0.48619 0.72146
 H410 H 0.01568 0.42083 0.75378
 H411 H -0.00707 0.52610 0.72921
 H412 H -0.03034 0.42263 0.75279
 C413 C 0.37568 0.22295 0.16470
 C414 C 0.37622 0.24148 0.14950
 C415 C 0.35837 0.25917 0.15112
 C416 C 0.34099 0.25824 0.16736
 C417 C 0.34074 0.23976 0.18228
 C418 C 0.35829 0.22219 0.18072
 C419 C 0.35785 0.27774 0.13649
 C420 C 0.37451 0.27914 0.12003
 C421 C 0.39262 0.26196 0.11753
 C422 C 0.39367 0.24297 0.13272
 C423 C 0.41216 0.22614 0.13067
 C424 C 0.42883 0.22753 0.11422
 C425 C 0.42782 0.24562 0.09904
 C426 C 0.40974 0.26314 0.10038
 C427 C 0.40953 0.28099 0.08429
 C428 C 0.42651 0.28128 0.06779
 C429 C 0.44421 0.26393 0.06674
 C430 C 0.44482 0.24617 0.08240
 H431 H 0.38828 0.20858 0.16463
 H432 H 0.32768 0.27209 0.16834
 H433 H 0.35861 0.20751 0.19174
 H434 H 0.34430 0.29137 0.13771
 H435 H 0.37271 0.29412 0.10956
 H436 H 0.41442 0.21158 0.14163
 H437 H 0.44266 0.21416 0.11332
 H438 H 0.39644 0.29489 0.08378
 H439 H 0.42581 0.29509 0.05568
 H440 H 0.45849 0.23264 0.08144
 C441 C 0.66120 0.72614 0.13767
 C442 C 0.64294 0.74332 0.13611
 C443 C 0.64248 0.76154 0.15336
 C444 C 0.65956 0.76233 0.17127
 C445 C 0.67759 0.74511 0.17268
 C446 C 0.67808 0.72706 0.15554
 C447 C 0.62493 0.77897 0.15278
 C448 C 0.60768 0.77880 0.13547
 C449 C 0.60721 0.76106 0.11785
 C450 C 0.62517 0.74303 0.11813
 C451 C 0.62473 0.72531 0.10047
 C452 C 0.60744 0.72509 0.08320
 C453 C 0.58982 0.74243 0.08270
 C454 C 0.58937 0.76073 0.09995
 C455 C 0.57100 0.77789 0.09849
 C456 C 0.55398 0.77676 0.08076
 C457 C 0.55462 0.75860 0.06397
 C458 C 0.57258 0.74151 0.06497
 H459 H 0.66306 0.71164 0.12541
 H460 H 0.65854 0.77654 0.18409
 H461 H 0.69151 0.71336 0.15569
 H462 H 0.62449 0.79297 0.16592
 H463 H 0.59489 0.79296 0.13649
 H464 H 0.63757 0.71119 0.09941
 H465 H 0.60785 0.71110 0.07004
 H466 H 0.56917 0.79244 0.11069
 H467 H 0.54021 0.79018 0.08011
 H468 H 0.57303 0.72744 0.05189
 C469 C 0.66255 0.28659 -0.12427
 C470 C 0.64516 0.26985 -0.12281
 C471 C 0.64475 0.25126 -0.13970
 C472 C 0.66115 0.24959 -0.15702
 C473 C 0.67830 0.26627 -0.15819
 C474 C 0.67874 0.28477 -0.14162
 C475 C 0.62797 0.23433 -0.13929
 C476 C 0.61139 0.23538 -0.12256
 C477 C 0.61091 0.25349 -0.10530
 C478 C 0.62820 0.27092 -0.10531
 C479 C 0.62800 0.28878 -0.08778
 C480 C 0.61147 0.28976 -0.07097
 C481 C 0.59440 0.27311 -0.07086
 C482 C 0.59376 0.25472 -0.08800
 C483 C 0.57587 0.23838 -0.08707
 C484 C 0.55953 0.24033 -0.06991
 C485 C 0.56038 0.25852 -0.05316
 C486 C 0.57786 0.27483 -0.05365
 H487 H 0.66415 0.30143 -0.11240
 H488 H 0.66047 0.23509 -0.16956
 H489 H 0.69156 0.29809 -0.14198
 H490 H 0.62760 0.22005 -0.15215
 H491 H 0.59920 0.22152 -0.12365
 H492 H 0.64050 0.30236 -0.08643
 H493 H 0.61205 0.30381 -0.05788
 H494 H 0.57385 0.22392 -0.09933
 H495 H 0.54609 0.22755 -0.06968
 H496 H 0.57844 0.28896 -0.04064
 C497 C 0.33124 0.72709 -0.13941
 C498 C 0.34864 0.74396 -0.13598
 C499 C 0.34872 0.76200 -0.15179
 C500 C 0.33204 0.76301 -0.17000
 C501 C 0.31496 0.74617 -0.17317
 C502 C 0.31478 0.72824 -0.15765
 C503 C 0.36545 0.77903 -0.14947
 C504 C 0.38238 0.77858 -0.13189
 C505 C 0.38325 0.76100 -0.11566
 C506 C 0.36594 0.74353 -0.11758
 C507 C 0.36649 0.72628 -0.10101
 C508 C 0.38340 0.72589 -0.08335
 C509 C 0.40054 0.74253 -0.08144
 C510 C 0.40083 0.76034 -0.09755
 C511 C 0.41883 0.77667 -0.09483
 C512 C 0.43559 0.77529 -0.07695
 C513 C 0.43508 0.75770 -0.06121
 C514 C 0.41751 0.74139 -0.06347
 H515 H 0.32988 0.71262 -0.12846
 H516 H 0.33247 0.77714 -0.18165
 H517 H 0.30199 0.71482 -0.15959
 H518 H 0.36554 0.79291 -0.16149
 H519 H 0.39451 0.79248 -0.13149
 H520 H 0.35396 0.71276 -0.10107
 H521 H 0.38308 0.71229 -0.07105
 H522 H 0.42064 0.79067 -0.10623
 H523 H 0.44910 0.78805 -0.07535
 H524 H 0.41720 0.72773 -0.05123
 C525 C 0.14145 0.32222 0.26540
 C526 C 0.14021 0.34040 0.24971
 C527 C 0.15845 0.34116 0.23405
 C528 C 0.17707 0.32456 0.23442
 C529 C 0.17813 0.30678 0.25021
 C530 C 0.16004 0.30582 0.26559
 C531 C 0.15814 0.35854 0.21810
 C532 C 0.14015 0.37534 0.21726
 C533 C 0.12158 0.37554 0.23250
 C534 C 0.12164 0.35780 0.24904
 C535 C 0.10321 0.35815 0.26446
 C536 C 0.08543 0.37518 0.26389
 C537 C 0.08512 0.39254 0.24794
 C538 C 0.10305 0.39298 0.23187
 C539 C 0.10161 0.41096 0.21590
 C540 C 0.08340 0.42778 0.21622
 C541 C 0.06606 0.42730 0.23236
 C542 C 0.06691 0.40959 0.24808
 H543 H 0.12838 0.32004 0.27780
 H544 H 0.19081 0.32570 0.22235
 H545 H 0.16004 0.29233 0.27794
 H546 H 0.17203 0.35921 0.20608
 H547 H 0.14148 0.38809 0.20444
 H548 H 0.10199 0.34553 0.27742
 H549 H 0.07175 0.37477 0.27617
 H550 H 0.11419 0.41262 0.20291
 H551 H 0.08284 0.44131 0.20382
 H552 H 0.05340 0.40924 0.26056
 C553 C 0.12744 0.66608 0.71718
 C554 C 0.12536 0.64903 0.73373
 C555 C 0.14208 0.64884 0.75223
 C556 C 0.15989 0.66509 0.75398
 C557 C 0.16181 0.68193 0.73742
 C558 C 0.14525 0.68211 0.71903
 C559 C 0.14108 0.63239 0.76900
 C560 C 0.12394 0.61589 0.76781
 C561 C 0.10687 0.61516 0.74973
 C562 C 0.10743 0.63217 0.73251
 C563 C 0.09004 0.63176 0.71469
 C564 C 0.07287 0.61526 0.71352
 C565 C 0.07227 0.59841 0.72992
 C566 C 0.08922 0.59802 0.74829
 C567 C 0.08780 0.58033 0.76437
 C568 C 0.07037 0.56394 0.76219
 C569 C 0.05381 0.56454 0.74401
 C570 C 0.05477 0.58183 0.72797
 H571 H 0.11570 0.66752 0.70244
 H572 H 0.17227 0.66430 0.76840
 H573 H 0.14583 0.69463 0.70578
 H574 H 0.15379 0.63219 0.78324
 H575 H 0.12458 0.60395 0.78155
 H576 H 0.08906 0.64407 0.70128
 H577 H 0.05992 0.61567 0.69950
 H578 H 0.09990 0.57850 0.77878
 H579 H 0.06978 0.55065 0.77475
 H580 H 0.04191 0.58222 0.71386
 C581 C -0.13374 0.65429 0.27117
 C582 C -0.13285 0.63603 0.25400
 C583 C -0.15073 0.63595 0.23657
 C584 C -0.16856 0.65340 0.23649
 C585 C -0.16926 0.67147 0.25364
 C586 C -0.15154 0.67156 0.27094
 C587 C -0.15085 0.61844 0.21918
 C588 C -0.13358 0.60090 0.21857
 C589 C -0.11530 0.60009 0.23546
 C590 C -0.11492 0.61794 0.25350
 C591 C -0.09665 0.61710 0.27041
 C592 C -0.07935 0.59957 0.26979
 C593 C -0.07944 0.58212 0.25236
 C594 C -0.09736 0.58203 0.23490
 C595 C -0.09647 0.56382 0.21760
 C596 C -0.07860 0.54666 0.21776
 C597 C -0.06109 0.54697 0.23508
 C598 C -0.06158 0.56472 0.25233
 H599 H -0.12097 0.65587 0.28511
 H600 H -0.18185 0.65264 0.22285
 H601 H -0.15115 0.68499 0.28457
 H602 H -0.16450 0.61828 0.20580
 H603 H -0.13516 0.58818 0.20450
 H604 H -0.09512 0.62980 0.28451
 H605 H -0.06570 0.59970 0.28317
 H606 H -0.10920 0.56226 0.20364
 H607 H -0.07836 0.53306 0.20423
 H608 H -0.04796 0.56491 0.26575
 C609 C -0.16497 0.37534 0.77575
 C610 C -0.14997 0.37685 0.75721
 C611 C -0.15113 0.35910 0.73951
 C612 C -0.16675 0.34086 0.74045
 C613 C -0.18149 0.33948 0.75905
 C614 C -0.18032 0.35708 0.77661
 C615 C -0.13658 0.35947 0.72094
 C616 C -0.12052 0.37684 0.71963
 C617 C -0.11841 0.39483 0.73689
 C618 C -0.13374 0.39513 0.75575
 C619 C -0.13233 0.41369 0.77249
 C620 C -0.11622 0.43101 0.77125
 C621 C -0.10071 0.43058 0.75342
 C622 C -0.10150 0.41254 0.73593
 C623 C -0.08503 0.41286 0.71842
 C624 C -0.06860 0.43024 0.71847
 C625 C -0.06804 0.44786 0.73582
 C626 C -0.08419 0.44806 0.75317
 H627 H -0.16518 0.38781 0.79012
 H628 H -0.16706 0.32765 0.72660
 H629 H -0.19121 0.35698 0.79132
 H630 H -0.13747 0.34602 0.70727
 H631 H -0.11008 0.37569 0.70465
 H632 H -0.14358 0.41550 0.78686
 H633 H -0.11577 0.44484 0.78457
 H634 H -0.08406 0.39979 0.70460
 H635 H -0.05609 0.42984 0.70499
 H636 H -0.08358 0.46167 0.76671
 C637 C 0.28689 0.12361 0.34180
 C638 C 0.27150 0.12414 0.36027
 C639 C 0.25477 0.14291 0.36172
 C640 C 0.25374 0.16028 0.34545
 C641 C 0.26910 0.15945 0.32727
 C642 C 0.28565 0.14093 0.32569
 C643 C 0.23903 0.14430 0.37939
 C644 C 0.23925 0.12735 0.39562
 C645 C 0.25540 0.10817 0.39494
 C646 C 0.27203 0.10671 0.37716
 C647 C 0.28866 0.08793 0.37692
 C648 C 0.28890 0.07099 0.39317
 C649 C 0.27259 0.07190 0.41029
 C650 C 0.25554 0.09043 0.41149
 C651 C 0.23922 0.09023 0.42914
 C652 C 0.23995 0.07247 0.44477
 C653 C 0.25689 0.05440 0.44343
 C654 C 0.27321 0.05421 0.42621
 H655 H 0.29999 0.10996 0.33907
 H656 H 0.24091 0.17451 0.34711
 H657 H 0.29765 0.13953 0.31180
 H658 H 0.22626 0.15867 0.38064
 H659 H 0.22648 0.12995 0.40862
 H660 H 0.30195 0.08578 0.36439
 H661 H 0.30201 0.05690 0.39224
 H662 H 0.22548 0.10334 0.43130
 H663 H 0.22709 0.07273 0.45792
 H664 H 0.28633 0.04013 0.42519
 C665 C 0.72900 0.14313 0.67262
 C666 C 0.74443 0.14166 0.65418
 C667 C 0.76082 0.15949 0.65327
 C668 C 0.76149 0.17788 0.67007
 C669 C 0.74603 0.17909 0.68819
 C670 C 0.72985 0.16146 0.68921
 C671 C 0.77652 0.15896 0.63560
 C672 C 0.77645 0.14111 0.61870
 C673 C 0.76054 0.12288 0.61873
 C674 C 0.74417 0.12321 0.63672
 C675 C 0.72808 0.10513 0.63660
 C676 C 0.72792 0.08734 0.61965
 C677 C 0.74376 0.08669 0.60212
 C678 C 0.76037 0.10437 0.60133
 C679 C 0.77613 0.10266 0.58312
 C680 C 0.77526 0.08431 0.56655
 C681 C 0.75873 0.06710 0.56749
 C682 C 0.74305 0.06835 0.58530
 H683 H 0.71604 0.13041 0.67488
 H684 H 0.77417 0.19124 0.66887
 H685 H 0.71763 0.16164 0.70288
 H686 H 0.78908 0.17255 0.63479
 H687 H 0.78919 0.14222 0.60576
 H688 H 0.71517 0.10415 0.64940
 H689 H 0.71520 0.07387 0.62031
 H690 H 0.78943 0.11509 0.58112
 H691 H 0.78760 0.08348 0.55291
 H692 H 0.73024 0.05496 0.58599
 C693 C 0.27154 -0.14108 0.65784
 C694 C 0.25717 -0.14052 0.63758
 C695 C 0.23985 -0.15753 0.63448
 C696 C 0.23746 -0.17445 0.65088
 C697 C 0.25199 -0.17483 0.67077
 C698 C 0.26895 -0.15789 0.67401
 C699 C 0.22495 -0.15761 0.61505
 C700 C 0.22660 -0.14104 0.59861
 C701 C 0.24347 -0.12366 0.60083
 C702 C 0.25926 -0.12362 0.62047
 C703 C 0.27670 -0.10679 0.62229
 C704 C 0.27848 -0.09033 0.60582
 C705 C 0.26296 -0.08977 0.58690
 C706 C 0.24517 -0.10635 0.58404
 C707 C 0.22974 -0.10468 0.56454
 C708 C 0.23201 -0.08737 0.54877
 C709 C 0.24966 -0.07123 0.55179
 C710 C 0.26513 -0.07256 0.57083
 H711 H 0.28487 -0.12867 0.66196
 H712 H 0.22423 -0.18736 0.64798
 H713 H 0.28033 -0.15732 0.68922
 H714 H 0.21172 -0.17061 0.61253
 H715 H 0.21439 -0.14251 0.58419
 H716 H 0.28953 -0.10590 0.63622
 H717 H 0.29216 -0.07776 0.60801
 H718 H 0.21556 -0.11625 0.56104
 H719 H 0.21979 -0.08642 0.53418
 H720 H 0.27880 -0.05999 0.57316
 C721 C 0.72815 -0.13824 0.34587
 C722 C 0.74602 -0.13567 0.36314
 C723 C 0.76507 -0.15212 0.36261
 C724 C 0.76609 -0.17007 0.34538
 C725 C 0.74827 -0.17227 0.32834
 C726 C 0.72932 -0.15616 0.32889
 C727 C 0.78309 -0.15063 0.37926
 C728 C 0.78270 -0.13322 0.39660
 C729 C 0.76419 -0.11635 0.39797
 C730 C 0.74562 -0.11748 0.38085
 C731 C 0.72735 -0.10032 0.38193
 C732 C 0.72707 -0.08277 0.39910
 C733 C 0.74484 -0.08155 0.41600
 C734 C 0.76367 -0.09830 0.41582
 C735 C 0.78113 -0.09621 0.43362
 C736 C 0.77991 -0.07822 0.45054
 C737 C 0.76134 -0.06179 0.45038
 C738 C 0.74385 -0.06353 0.43311
 H739 H 0.71287 -0.12682 0.34496
 H740 H 0.78093 -0.18225 0.34532
 H741 H 0.71511 -0.15731 0.31623
 H742 H 0.79772 -0.16314 0.37893
 H743 H 0.79739 -0.13346 0.40863
 H744 H 0.71292 -0.09978 0.36962
 H745 H 0.71268 -0.06998 0.39915
 H746 H 0.79596 -0.10816 0.43507
 H747 H 0.79359 -0.07704 0.46384
 H748 H 0.72942 -0.05077 0.43307
 C749 C 0.62591 0.78516 -0.15610
 C750 C 0.62608 0.76907 -0.13837
 C751 C 0.64468 0.75212 -0.13755
 C752 C 0.66225 0.75159 -0.15372
 C753 C 0.66183 0.76770 -0.17112
 C754 C 0.64345 0.78443 -0.17208
 C755 C 0.64571 0.73572 -0.12061
 C756 C 0.62865 0.73558 -0.10439
 C757 C 0.60971 0.75201 -0.10437
 C758 C 0.60850 0.76916 -0.12154
 C759 C 0.58980 0.78588 -0.12126
 C760 C 0.57281 0.78584 -0.10497
 C761 C 0.57361 0.76917 -0.08831
 C762 C 0.59199 0.75194 -0.08770
 C763 C 0.59173 0.73535 -0.07040
 C764 C 0.57407 0.73602 -0.05454
 C765 C 0.55614 0.75313 -0.05533
 C766 C 0.55602 0.76969 -0.07219
 H767 H 0.61245 0.79851 -0.15830
 H768 H 0.67635 0.73859 -0.15255
 H769 H 0.64235 0.79702 -0.18536
 H770 H 0.65992 0.72274 -0.11987
 H771 H 0.63096 0.72229 -0.09199
 H772 H 0.58773 0.79945 -0.13339
 H773 H 0.55882 0.79906 -0.10546
 H774 H 0.60478 0.72153 -0.06863
 H775 H 0.57435 0.72307 -0.04156
 H776 H 0.54212 0.78302 -0.07270
 C777 C 0.36385 0.22810 -0.15652
 C778 C 0.36554 0.24581 -0.13885
 C779 C 0.34805 0.26392 -0.13865
 C780 C 0.32988 0.26414 -0.15550
 C781 C 0.32849 0.24648 -0.17291
 C782 C 0.34570 0.22849 -0.17315
 C783 C 0.34869 0.28179 -0.12165
 C784 C 0.36629 0.28220 -0.10466
 C785 C 0.38416 0.26463 -0.10397
 C786 C 0.38386 0.24618 -0.12142
 C787 C 0.40190 0.22876 -0.12089
 C788 C 0.41956 0.22921 -0.10397
 C789 C 0.42005 0.24693 -0.08682
 C790 C 0.40239 0.26492 -0.08645
 C791 C 0.40377 0.28239 -0.06845
 C792 C 0.42192 0.28196 -0.05182
 C793 C 0.43924 0.26422 -0.05251
 C794 C 0.43820 0.24671 -0.06998
 H795 H 0.37618 0.21357 -0.15807
 H796 H 0.31684 0.27825 -0.15491
 H797 H 0.34527 0.21448 -0.18620
 H798 H 0.33538 0.29570 -0.12143
 H799 H 0.36533 0.29671 -0.09232
 H800 H 0.40302 0.21442 -0.13340
 H801 H 0.43303 0.21545 -0.10432
 H802 H 0.39116 0.29664 -0.06661
 H803 H 0.42250 0.29559 -0.03833
 H804 H 0.45160 0.23287 -0.07037
 C805 C 0.32887 0.72785 0.12358
 C806 C 0.34576 0.74523 0.12325
 C807 C 0.34489 0.76346 0.14052
 C808 C 0.32777 0.76411 0.15717
 C809 C 0.31119 0.74674 0.15721
 C810 C 0.31198 0.72866 0.14023
 C811 C 0.36113 0.78098 0.14119
 C812 C 0.37844 0.78085 0.12521
 C813 C 0.38022 0.76309 0.10769
 C814 C 0.36346 0.74510 0.10655
 C815 C 0.36495 0.72760 0.08875
 C816 C 0.38228 0.72742 0.07280
 C817 C 0.39890 0.74456 0.07385
 C818 C 0.39820 0.76271 0.09125
 C819 C 0.41567 0.77961 0.09146
 C820 C 0.43295 0.77837 0.07519
 C821 C 0.43345 0.76034 0.05824
 C822 C 0.41635 0.74356 0.05757
 H823 H 0.32821 0.71322 0.11136
 H824 H 0.32741 0.77833 0.17004
 H825 H 0.29966 0.71481 0.13979
 H826 H 0.36052 0.79499 0.15431
 H827 H 0.39017 0.79509 0.12711
 H828 H 0.35289 0.71366 0.08652
 H829 H 0.38270 0.71358 0.05949
 H830 H 0.41666 0.79397 0.10397
 H831 H 0.44607 0.79152 0.07584
 H832 H 0.41682 0.72958 0.04439
 C833 C 0.64227 0.22358 0.16721
 C834 C 0.64014 0.24109 0.15080
 C835 C 0.65739 0.25823 0.15168
 C836 C 0.67574 0.25775 0.16833
 C837 C 0.67756 0.24031 0.18445
 C838 C 0.66061 0.22327 0.18365
 C839 C 0.65633 0.27585 0.13596
 C840 C 0.63857 0.27690 0.11919
 C841 C 0.62093 0.26030 0.11744
 C842 C 0.62164 0.24215 0.13359
 C843 C 0.60381 0.22574 0.13203
 C844 C 0.58600 0.22683 0.11530
 C845 C 0.58516 0.24423 0.09936
 C846 C 0.60257 0.26125 0.10009
 C847 C 0.60082 0.27844 0.08332
 C848 C 0.58259 0.27865 0.06677
 C849 C 0.56554 0.26186 0.06634
 C850 C 0.56690 0.24466 0.08262
 H851 H 0.63015 0.20975 0.16784
 H852 H 0.68852 0.27121 0.16869
 H853 H 0.66150 0.20941 0.19566
 H854 H 0.66946 0.28902 0.13659
 H855 H 0.63922 0.29114 0.10787
 H856 H 0.60297 0.21172 0.14358
 H857 H 0.57272 0.21383 0.11482
 H858 H 0.61322 0.29198 0.08236
 H859 H 0.58175 0.29203 0.05421
 H860 H 0.55371 0.23155 0.08214
 C861 C -0.17216 0.64599 0.77075
 C862 C -0.15394 0.64443 0.75501
 C863 C -0.15324 0.66224 0.73902
 C864 C -0.16994 0.68078 0.73911
 C865 C -0.18789 0.68222 0.75494
 C866 C -0.18870 0.66445 0.77067
 C867 C -0.13585 0.66156 0.72294
 C868 C -0.11904 0.64358 0.72225
 C869 C -0.11881 0.62540 0.73781
 C870 C -0.13648 0.62589 0.75456
 C871 C -0.13602 0.60792 0.77037
 C872 C -0.11904 0.59008 0.76988
 C873 C -0.10183 0.58926 0.75363
 C874 C -0.10143 0.60680 0.73726
 C875 C -0.08357 0.60489 0.72104
 C876 C -0.06694 0.58652 0.72130
 C877 C -0.06750 0.56947 0.73760
 C878 C -0.08495 0.57091 0.75374
 H879 H -0.17430 0.63322 0.78340
 H880 H -0.16875 0.69403 0.72663
 H881 H -0.20210 0.66455 0.78320
 H882 H -0.13522 0.67514 0.71065
 H883 H -0.10632 0.64459 0.70928
 H884 H -0.14852 0.60711 0.78358
 H885 H -0.11940 0.57673 0.78243
 H886 H -0.08190 0.61720 0.70787
 H887 H -0.05352 0.58558 0.70867
 H888 H -0.08528 0.55769 0.76644
 C889 C -0.12081 0.32124 0.26381
 C890 C -0.12185 0.33907 0.24775
 C891 C -0.14136 0.33980 0.23210
 C892 C -0.15917 0.32372 0.23304
 C893 C -0.15811 0.30651 0.24941
 C894 C -0.13859 0.30536 0.26457
 C895 C -0.14317 0.35671 0.21565
 C896 C -0.12616 0.37316 0.21442
 C897 C -0.10655 0.37352 0.22981
 C898 C -0.10436 0.35619 0.24678
 C899 C -0.08497 0.35679 0.26245
 C900 C -0.06843 0.37377 0.26180
 C901 C -0.07035 0.39079 0.24550
 C902 C -0.08923 0.39084 0.22905
 C903 C -0.09001 0.40842 0.21267
 C904 C -0.07315 0.42541 0.21313
 C905 C -0.05501 0.42548 0.22981
 C906 C -0.05352 0.40799 0.24576
 H907 H -0.10652 0.31895 0.27609
 H908 H -0.17402 0.32492 0.22108
 H909 H -0.13688 0.29215 0.27723
 H910 H -0.15801 0.35733 0.20359
 H911 H -0.12915 0.38560 0.20127
 H912 H -0.08211 0.34452 0.27576
 H913 H -0.05399 0.37364 0.27435
 H914 H -0.10338 0.40968 0.19929
 H915 H -0.07437 0.43874 0.20052
 H916 H -0.03936 0.40804 0.25864
 C917 C 0.15615 0.36547 0.77389
 C918 C 0.13887 0.36782 0.75604
 C919 C 0.13894 0.35062 0.73779
 C920 C 0.15567 0.33214 0.73751
 C921 C 0.17270 0.33009 0.75527
 C922 C 0.17268 0.34697 0.77343
 C923 C 0.12232 0.35186 0.71980
 C924 C 0.10542 0.36974 0.71946
 C925 C 0.10444 0.38735 0.73718
 C926 C 0.12157 0.38650 0.75570
 C927 C 0.12087 0.40439 0.77318
 C928 C 0.10403 0.42237 0.77275
 C929 C 0.08711 0.42331 0.75502
 C930 C 0.08695 0.40583 0.73696
 C931 C 0.06914 0.40761 0.71951
 C932 C 0.05250 0.42596 0.72003
 C933 C 0.05298 0.44310 0.73782
 C934 C 0.07027 0.44170 0.75530
 H935 H 0.15741 0.37751 0.78856
 H936 H 0.15530 0.31938 0.72325
 H937 H 0.18541 0.34599 0.78754
 H938 H 0.12234 0.33877 0.70577
 H939 H 0.09340 0.36925 0.70484
 H940 H 0.13322 0.40515 0.78753
 H941 H 0.10425 0.43570 0.78656
 H942 H 0.06741 0.39513 0.70525
 H943 H 0.03912 0.42681 0.70643
 H944 H 0.07048 0.45496 0.76918
 C945 C 0.15778 0.62591 0.21034
 C946 C 0.14053 0.62392 0.22683
 C947 C 0.13909 0.64162 0.24456
 C948 C 0.15422 0.66038 0.24552
 C949 C 0.17109 0.66214 0.22898
 C950 C 0.17270 0.64467 0.21146
 C951 C 0.12249 0.64067 0.26128
 C952 C 0.10704 0.62261 0.26081
 C953 C 0.10750 0.60459 0.24348
 C954 C 0.12464 0.60515 0.22627
 C955 C 0.12525 0.58699 0.20906
 C956 C 0.10961 0.56906 0.20846
 C957 C 0.09270 0.56838 0.22489
 C958 C 0.09136 0.58605 0.24272
 C959 C 0.07373 0.58442 0.25892
 C960 C 0.05822 0.56619 0.25730
 C961 C 0.05969 0.54900 0.23960
 C962 C 0.07698 0.55012 0.22348
 H963 H 0.16027 0.61335 0.19628
 H964 H 0.15253 0.67378 0.25910
 H965 H 0.18564 0.64531 0.19851
 H966 H 0.12137 0.65414 0.27491
 H967 H 0.09486 0.62339 0.27443
 H968 H 0.13764 0.58605 0.19563
 H969 H 0.11073 0.55557 0.19485
 H970 H 0.07128 0.59694 0.27302
 H971 H 0.04488 0.56552 0.26989
 H972 H 0.07799 0.53680 0.20969
 C973 C 0.72590 -0.12182 0.66981
 C974 C 0.74428 -0.12088 0.65438
 C975 C 0.76246 -0.13823 0.65583
 C976 C 0.76210 -0.15554 0.67210
 C977 C 0.74369 -0.15627 0.68718
 C978 C 0.72568 -0.13917 0.68582
 C979 C 0.78091 -0.13835 0.64097
 C980 C 0.78166 -0.12187 0.62435
 C981 C 0.76392 -0.10433 0.62194
 C982 C 0.74512 -0.10357 0.63749
 C983 C 0.72781 -0.08554 0.63561
 C984 C 0.72844 -0.06917 0.61889
 C985 C 0.74623 -0.07003 0.60325
 C986 C 0.76431 -0.08754 0.60450
 C987 C 0.78184 -0.08760 0.58798
 C988 C 0.78119 -0.07115 0.57102
 C989 C 0.76317 -0.05416 0.56992
 C990 C 0.74586 -0.05352 0.58618
 H991 H 0.71120 -0.10963 0.66987
 H992 H 0.77629 -0.16848 0.67289
 H993 H 0.71107 -0.13917 0.69699
 H994 H 0.79493 -0.15150 0.64207
 H995 H 0.79657 -0.12337 0.61367
 H996 H 0.71342 -0.08345 0.64691
 H997 H 0.71468 -0.05573 0.61808
 H998 H 0.79617 -0.10023 0.58743
 H999 H 0.79473 -0.07178 0.55853
 H1000 H 0.73188 -0.04032 0.58524
 C1001 C 0.22050 -0.16597 0.35083
 C1002 C 0.23846 -0.14981 0.35488
 C1003 C 0.25678 -0.15057 0.33919
 C1004 C 0.25705 -0.16699 0.32053
 C1005 C 0.23920 -0.18296 0.31690
 C1006 C 0.22095 -0.18217 0.33223
 C1007 C 0.27483 -0.13498 0.34216
 C1008 C 0.27517 -0.11847 0.36033
 C1009 C 0.25740 -0.11690 0.37649
 C1010 C 0.23881 -0.13296 0.37382
 C1011 C 0.22128 -0.13172 0.39024
 C1012 C 0.22170 -0.11535 0.40851
 C1013 C 0.23949 -0.09947 0.41122
 C1014 C 0.25761 -0.09988 0.39528
 C1015 C 0.27512 -0.08311 0.39888
 C1016 C 0.27459 -0.06692 0.41750
 C1017 C 0.25673 -0.06686 0.43312
 C1018 C 0.23920 -0.08310 0.42988
 H1019 H 0.20572 -0.16659 0.36157
 H1020 H 0.27138 -0.16736 0.30896
 H1021 H 0.20669 -0.19397 0.32988
 H1022 H 0.28891 -0.13550 0.33025
 H1023 H 0.28983 -0.10724 0.36123
 H1024 H 0.20690 -0.14328 0.38963
 H1025 H 0.20786 -0.11512 0.42067
 H1026 H 0.28944 -0.08188 0.38766
 H1027 H 0.28823 -0.05434 0.41978
 H1028 H 0.22525 -0.08288 0.44194
 C1029 C 0.77803 0.16050 0.37596
 C1030 C 0.76277 0.14167 0.37647
 C1031 C 0.74599 0.13907 0.35813
 C1032 C 0.74502 0.15443 0.33996
 C1033 C 0.76057 0.17270 0.33956
 C1034 C 0.77690 0.17561 0.35786
 C1035 C 0.73027 0.12109 0.35788
 C1036 C 0.73079 0.10546 0.37539
 C1037 C 0.74728 0.10707 0.39397
 C1038 C 0.76363 0.12542 0.39446
 C1039 C 0.78044 0.12675 0.41277
 C1040 C 0.78132 0.11084 0.43001
 C1041 C 0.76550 0.09299 0.42987
 C1042 C 0.74812 0.09083 0.41198
 C1043 C 0.73239 0.07240 0.41294
 C1044 C 0.73411 0.05685 0.43072
 C1045 C 0.75144 0.05910 0.44809
 C1046 C 0.76708 0.07719 0.44760
 H1047 H 0.79104 0.16420 0.38928
 H1048 H 0.73227 0.15185 0.32599
 H1049 H 0.78892 0.18974 0.35842
 H1050 H 0.71738 0.11902 0.34392
 H1051 H 0.71804 0.09213 0.37367
 H1052 H 0.79347 0.13981 0.41428
 H1053 H 0.79463 0.11254 0.44363
 H1054 H 0.71851 0.06946 0.40032
 H1055 H 0.72186 0.04293 0.43093
 H1056 H 0.78058 0.07883 0.46105
 C1057 C 0.22683 0.15785 0.63584
 C1058 C 0.24170 0.13759 0.63571
 C1059 C 0.25774 0.13505 0.65461
 C1060 C 0.25853 0.15201 0.67279
 C1061 C 0.24362 0.17194 0.67265
 C1062 C 0.22783 0.17460 0.65395
 C1063 C 0.27300 0.11561 0.65532
 C1064 C 0.27295 0.09862 0.63759
 C1065 C 0.25742 0.10027 0.61830
 C1066 C 0.24131 0.11993 0.61749
 C1067 C 0.22529 0.12123 0.59855
 C1068 C 0.22517 0.10421 0.58086
 C1069 C 0.24099 0.08524 0.58115
 C1070 C 0.25740 0.08290 0.59981
 C1071 C 0.27319 0.06328 0.59901
 C1072 C 0.27259 0.04692 0.58053
 C1073 C 0.25635 0.04948 0.56228
 C1074 C 0.24050 0.06858 0.56274
 H1075 H 0.21432 0.16152 0.62215
 H1076 H 0.27081 0.14952 0.68710
 H1077 H 0.21620 0.18982 0.65303
 H1078 H 0.28526 0.11354 0.66976
 H1079 H 0.28532 0.08426 0.63968
 H1080 H 0.21238 0.13518 0.59683
 H1081 H 0.21254 0.10602 0.56668
 H1082 H 0.28638 0.06008 0.61222
 H1083 H 0.28499 0.03221 0.58036
 H1084 H 0.22783 0.07047 0.54860
   
