data_POSCAR
  _audit_creation_date              2014-09-24
  _audit_creation_method            'ToBaCCo'
  _symmetry_space_group_name_H-M    'P1'
  _symmetry_Int_Tables_number       1
  _symmetry_cell_setting            triclinic
  loop_
  _symmetry_equiv_pos_as_xyz
 x,y,z
_cell_length_a 42.1392
_cell_length_b 43.8543
_cell_length_c 43.5991
_cell_angle_alpha 90.643700
_cell_angle_beta 89.081300
_cell_angle_gamma 90.009500
loop_
  _atom_site_label
  _atom_site_type_symbol
  _atom_site_fract_x
  _atom_site_fract_y
  _atom_site_fract_z
C1 C 0.75130 0.61809 1.03368
 C2 C 0.76739 0.63472 1.01108
 C3 C 0.79646 0.64862 1.01759
 C4 C 0.80936 0.64669 1.04721
 C5 C 0.79288 0.62954 1.06956
 C6 C 0.76399 0.61483 1.06319
 C7 C 0.75316 0.63737 0.98054
 C8 C 0.72345 0.65139 0.97776
 C9 C 0.70756 0.65046 0.94984
 C10 C 0.72199 0.63589 0.92433
 C11 C 0.75207 0.62247 0.92652
 C12 C 0.76760 0.62327 0.95487
 H13 H 0.72879 0.60822 1.02757
 H14 H 0.80832 0.66087 0.99938
 H15 H 0.71222 0.66211 0.99767
 H16 H 0.79007 0.61171 0.95755
 H17 H 0.80270 0.62762 1.09232
 H18 H 0.70998 0.63537 0.90253
 C19 C 0.74234 0.39822 0.45003
 C20 C 0.75746 0.38537 0.47520
 C21 C 0.78746 0.37196 0.47116
 C22 C 0.80266 0.37161 0.44231
 C23 C 0.78735 0.38487 0.41725
 C24 C 0.75697 0.39804 0.42086
 C25 C 0.74193 0.38594 0.50582
 C26 C 0.71252 0.37155 0.51051
 C27 C 0.69868 0.37044 0.53995
 C28 C 0.71354 0.38579 0.56438
 C29 C 0.74264 0.40095 0.55985
 C30 C 0.75699 0.40024 0.53059
 H31 H 0.71911 0.40852 0.45326
 H32 H 0.79891 0.36160 0.49055
 H33 H 0.70120 0.35997 0.49150
 H34 H 0.77974 0.41127 0.52690
 H35 H 0.79902 0.38458 0.39502
 H36 H 0.70268 0.38538 0.58699
 C37 C 0.24117 -0.10935 -0.04489
 C38 C 0.25908 -0.12135 -0.02105
 C39 C 0.28971 -0.13260 -0.02723
 C40 C 0.30266 -0.13227 -0.05726
 C41 C 0.28432 -0.11983 -0.08079
 C42 C 0.25394 -0.10780 -0.07485
 C43 C 0.24596 -0.12191 0.01061
 C44 C 0.21671 -0.13608 0.01690
 C45 C 0.20481 -0.13779 0.04730
 C46 C 0.22256 -0.12429 0.07096
 C47 C 0.25144 -0.10949 0.06492
 C48 C 0.26324 -0.10886 0.03463
 H49 H 0.21740 -0.10129 -0.03975
 H50 H 0.30252 -0.14229 -0.00843
 H51 H 0.20430 -0.14642 -0.00204
 H52 H 0.28604 -0.09863 0.02945
 H53 H 0.29389 -0.11909 -0.10402
 H54 H 0.21386 -0.12524 0.09449
 C55 C 0.23569 0.11265 0.53426
 C56 C 0.25167 0.12658 0.50967
 C57 C 0.28179 0.13942 0.51413
 C58 C 0.29616 0.13816 0.54284
 C59 C 0.27993 0.12402 0.56728
 C60 C 0.24997 0.11066 0.56302
 C61 C 0.23789 0.12597 0.47876
 C62 C 0.20810 0.13907 0.47338
 C63 C 0.19531 0.13833 0.44371
 C64 C 0.21233 0.12347 0.41991
 C65 C 0.24211 0.11025 0.42510
 C66 C 0.25466 0.11165 0.45460
 H67 H 0.21263 0.10236 0.53067
 H68 H 0.29415 0.15019 0.49512
 H69 H 0.19519 0.14956 0.49236
 H70 H 0.27751 0.10131 0.45892
 H71 H 0.29019 0.12426 0.58987
 H72 H 0.20202 0.12194 0.39736
 C73 C 0.11548 0.53117 0.24915
 C74 C 0.12839 0.50567 0.26355
 C75 C 0.13948 0.50846 0.29361
 C76 C 0.13792 0.53652 0.30922
 C77 C 0.12543 0.56207 0.29428
 C78 C 0.11334 0.55958 0.26434
 C79 C 0.12951 0.47595 0.24724
 C80 C 0.14357 0.47359 0.21791
 C81 C 0.14384 0.44559 0.20187
 C82 C 0.12909 0.42014 0.21527
 C83 C 0.11505 0.42215 0.24474
 C84 C 0.11547 0.45019 0.26053
 H85 H 0.10648 0.52856 0.22609
 H86 H 0.14940 0.48877 0.30481
 H87 H 0.15378 0.49376 0.20761
 H88 H 0.10428 0.45215 0.28303
 H89 H 0.12617 0.58379 0.30603
 H90 H 0.12825 0.39892 0.20238
 C91 C -0.11124 -0.05222 0.24231
 C92 C -0.12678 -0.02724 0.25596
 C93 C -0.14024 -0.02994 0.28537
 C94 C -0.13828 -0.05742 0.30155
 C95 C -0.12188 -0.08227 0.28763
 C96 C -0.10799 -0.07972 0.25823
 C97 C -0.12826 0.00198 0.23958
 C98 C -0.14191 0.00337 0.21055
 C99 C -0.14207 0.03072 0.19407
 C100 C -0.12821 0.05699 0.20741
 C101 C -0.11470 0.05588 0.23672
 C102 C -0.11515 0.02831 0.25267
 H103 H -0.10180 -0.04990 0.21923
 H104 H -0.15247 -0.01044 0.29553
 H105 H -0.15238 -0.01709 0.20081
 H106 H -0.10471 0.02713 0.27519
 H107 H -0.12011 -0.10398 0.29893
 H108 H -0.12979 0.07870 0.19614
 C109 C 0.39602 0.46224 0.74043
 C110 C 0.38380 0.48709 0.75716
 C111 C 0.37287 0.48297 0.78742
 C112 C 0.37428 0.45421 0.80138
 C113 C 0.38678 0.42940 0.78398
 C114 C 0.39745 0.43331 0.75351
 C115 C 0.38355 0.51763 0.74322
 C116 C 0.36829 0.52237 0.71528
 C117 C 0.36778 0.55142 0.70218
 C118 C 0.38456 0.57530 0.71643
 C119 C 0.40006 0.57095 0.74423
 C120 C 0.39893 0.54202 0.75783
 H121 H 0.40472 0.46555 0.71716
 H122 H 0.36338 0.50243 0.80011
 H123 H 0.35591 0.50363 0.70430
 H124 H 0.40987 0.53804 0.77968
 H125 H 0.38839 0.40698 0.79363
 H126 H 0.38586 0.59750 0.70587
 C127 C 0.61774 1.04638 0.73818
 C128 C 0.63179 1.02297 0.75480
 C129 C 0.64228 1.02890 0.78468
 C130 C 0.63932 1.05820 0.79804
 C131 C 0.62530 1.08150 0.78057
 C132 C 0.61391 1.07557 0.75108
 C133 C 0.63450 0.99216 0.74085
 C134 C 0.64621 0.98861 0.71067
 C135 C 0.64507 0.96021 0.69583
 C136 C 0.63318 0.93490 0.71178
 C137 C 0.62233 0.93777 0.74222
 C138 C 0.62292 0.96662 0.75666
 H139 H 0.60986 1.04166 0.71510
 H140 H 0.65303 1.01058 0.79739
 H141 H 0.65531 1.00820 0.69838
 H142 H 0.61295 0.96969 0.77952
 H143 H 0.62282 1.10452 0.78924
 H144 H 0.63274 0.91271 0.70059
 C145 C -0.04430 0.24890 -0.10702
 C146 C -0.01900 0.26419 -0.12128
 C147 C -0.02389 0.29325 -0.13353
 C148 C -0.05386 0.30737 -0.13164
 C149 C -0.07908 0.29144 -0.11723
 C150 C -0.07435 0.26263 -0.10443
 C151 C 0.01301 0.25039 -0.12181
 C152 C 0.01796 0.22088 -0.13382
 C153 C 0.04811 0.20709 -0.13304
 C154 C 0.07338 0.22383 -0.12006
 C155 C 0.06852 0.25314 -0.10747
 C156 C 0.03840 0.26641 -0.10896
 H157 H -0.04033 0.22640 -0.09786
 H158 H -0.00408 0.30491 -0.14442
 H159 H -0.00186 0.20866 -0.14370
 H160 H 0.03444 0.28902 -0.09933
 H161 H -0.10276 0.30081 -0.11595
 H162 H 0.09730 0.21514 -0.12100
 C163 C 0.53736 0.24123 0.13119
 C164 C 0.51112 0.25821 0.14187
 C165 C 0.51599 0.28706 0.15541
 C166 C 0.54695 0.29867 0.15857
 C167 C 0.57279 0.28146 0.14728
 C168 C 0.56818 0.25292 0.13311
 C169 C 0.47870 0.24619 0.13702
 C170 C 0.47140 0.21582 0.14439
 C171 C 0.44154 0.20342 0.13747
 C172 C 0.41939 0.22155 0.12238
 C173 C 0.42648 0.25181 0.11449
 C174 C 0.45588 0.26421 0.12264
 H175 H 0.53362 0.21932 0.12004
 H176 H 0.49566 0.30038 0.16299
 H177 H 0.48932 0.20193 0.15493
 H178 H 0.46163 0.28742 0.11632
 H179 H 0.59655 0.29038 0.14993
 H180 H 0.39635 0.21207 0.11711
 C181 C 1.03023 0.74543 0.63415
 C182 C 1.00624 0.76194 0.64935
 C183 C 1.01213 0.79191 0.65932
 C184 C 1.04209 0.80554 0.65450
 C185 C 1.06597 0.78830 0.63893
 C186 C 1.05995 0.75864 0.62811
 C187 C 0.97457 0.74789 0.65298
 C188 C 0.97155 0.71884 0.66596
 C189 C 0.94235 0.70336 0.66550
 C190 C 0.91642 0.71702 0.65124
 C191 C 0.91929 0.74585 0.63774
 C192 C 0.94818 0.76157 0.63959
 H193 H 1.02538 0.72222 0.62699
 H194 H 0.99324 0.80452 0.67091
 H195 H 0.99234 0.70808 0.67526
 H196 H 0.95079 0.78355 0.62869
 H197 H 1.08951 0.79727 0.63499
 H198 H 0.89397 0.70501 0.65057
 C199 C 0.44535 0.73558 0.38574
 C200 C 0.47039 0.75347 0.37435
 C201 C 0.46448 0.78362 0.36546
 C202 C 0.43373 0.79596 0.36808
 C203 C 0.40917 0.77798 0.38035
 C204 C 0.41461 0.74760 0.38896
 C205 C 0.50307 0.74110 0.37331
 C206 C 0.50973 0.71327 0.35824
 C207 C 0.54082 0.70181 0.35693
 C208 C 0.56486 0.71761 0.37253
 C209 C 0.55859 0.74518 0.38799
 C210 C 0.52762 0.75712 0.38778
 H211 H 0.45005 0.71246 0.39297
 H212 H 0.48402 0.79741 0.35714
 H213 H 0.49090 0.70108 0.34671
 H214 H 0.52223 0.77875 0.39880
 H215 H 0.38594 0.78812 0.38359
 H216 H 0.58864 0.70830 0.37312
 C217 C 0.39847 -0.03731 0.29862
 H218 H 0.38433 -0.02206 0.31282
 C219 C 0.41366 -0.06195 0.31211
 H220 H 0.41109 -0.06507 0.33661
 C221 C 0.41969 -0.05117 0.24985
 H222 H 0.42191 -0.04706 0.22557
 C223 C 0.43541 -0.07605 0.26242
 H224 H 0.44943 -0.09096 0.24759
 N225 N 0.40067 -0.03303 0.26778
 C226 C 0.38240 0.04626 0.21160
 H227 H 0.35772 0.04157 0.20698
 C228 C 0.39682 0.07201 0.19926
 H229 H 0.38256 0.08692 0.18553
 C230 C 0.42942 0.03335 0.23758
 H231 H 0.44164 0.01850 0.25312
 C232 C 0.44488 0.05900 0.22564
 H233 H 0.46919 0.06367 0.23191
 Zn234 Zn 0.37432 -0.00335 0.24917
 N235 N 0.39859 0.02782 0.23068
 C236 C 0.34882 0.04570 0.28409
 N237 N 0.34690 0.01502 0.27937
 C238 C 0.32657 -0.00232 0.29639
 C239 C 0.30700 0.01120 0.31890
 C240 C 0.32952 0.06013 0.30608
 C241 C 0.36626 -0.02998 0.19121
 C242 C 0.35027 -0.04305 0.16657
 C243 C 0.30152 -0.03964 0.19624
 C244 C 0.31846 -0.02653 0.22032
 N245 N 0.35036 -0.02221 0.21756
 H246 H 0.36562 0.05915 0.27112
 H247 H 0.32584 -0.02675 0.29273
 H248 H 0.29109 -0.00290 0.33238
 H249 H 0.33207 0.08445 0.30973
 H250 H 0.39139 -0.02546 0.18904
 H251 H 0.36375 -0.04953 0.14621
 H252 H 0.27615 -0.04297 0.19884
 H253 H 0.30595 -0.01965 0.24102
 C254 C 0.42852 0.07884 0.20634
 C255 C 0.43143 -0.08241 0.29368
 C256 C 0.31733 -0.04779 0.16881
 C257 C 0.30806 0.04286 0.32367
 C258 C 0.07414 1.04221 0.77693
 H259 H 0.05929 1.02315 0.77048
 C260 C 0.06097 1.06735 0.79281
 H261 H 0.03588 1.06761 0.79858
 C262 C 0.12500 1.06530 0.77760
 H263 H 0.14999 1.06431 0.77160
 C264 C 0.11299 1.09055 0.79339
 H265 H 0.12888 1.10917 0.79882
 N266 N 0.10579 1.04154 0.77023
 C267 C 0.10061 0.97479 0.70282
 H268 H 0.11255 0.99081 0.68804
 C269 C 0.08689 0.94890 0.68983
 H270 H 0.08762 0.94613 0.66513
 C271 C 0.08594 0.95862 0.75272
 H272 H 0.08667 0.96210 0.77730
 C273 C 0.07213 0.93211 0.74063
 H274 H 0.06194 0.91543 0.75604
 Zn275 Zn 0.12780 1.00890 0.75085
 N276 N 0.10070 0.97882 0.73380
 C277 C 0.17046 0.96419 0.77243
 N278 N 0.15335 0.98944 0.78043
 C279 C 0.15241 0.99989 0.80993
 C280 C 0.16906 0.98495 0.83268
 C281 C 0.18746 0.94842 0.79458
 C282 C 0.13732 1.04538 0.69991
 C283 C 0.15365 1.05978 0.67610
 C284 C 0.20196 1.03583 0.69267
 C285 C 0.18462 1.02183 0.71626
 N286 N 0.15282 1.02651 0.71916
 H287 H 0.17048 0.95602 0.74892
 H288 H 0.13837 1.01964 0.81615
 H289 H 0.16832 0.99439 0.85569
 H290 H 0.20078 0.92823 0.78790
 H291 H 0.11210 1.04914 0.70309
 H292 H 0.14076 1.07455 0.66093
 H293 H 0.22725 1.03195 0.69130
 H294 H 0.19664 1.00740 0.73230
 C295 C 0.07382 0.92638 0.70891
 C296 C 0.08074 1.09149 0.80194
 C297 C 0.18632 1.05494 0.67197
 C298 C 0.18645 0.95845 0.82528
 C299 C 0.58857 0.53407 0.28120
 H300 H 0.58324 0.51125 0.28873
 C301 C 0.57424 0.55903 0.29627
 H302 H 0.55779 0.55514 0.31517
 C303 C 0.61775 0.56722 0.24889
 H304 H 0.63554 0.57081 0.23130
 C305 C 0.60372 0.59260 0.26291
 H306 H 0.61005 0.61494 0.25453
 N307 N 0.61026 0.53855 0.25818
 C308 C 0.60913 0.46656 0.19435
 H309 H 0.62436 0.47924 0.17909
 C310 C 0.59289 0.44144 0.18271
 H311 H 0.59555 0.43574 0.15856
 C312 C 0.58915 0.45693 0.24433
 H313 H 0.58880 0.46233 0.26857
 C314 C 0.57263 0.43129 0.23363
 H315 H 0.55955 0.41770 0.25002
 Zn316 Zn 0.63389 0.50540 0.24038
 N317 N 0.60714 0.47393 0.22472
 C318 C 0.67323 0.46046 0.26496
 N319 N 0.65961 0.48806 0.27080
 C320 C 0.66331 0.50258 0.29822
 C321 C 0.68105 0.48913 0.32122
 C322 C 0.69106 0.44610 0.28739
 C323 C 0.64511 0.53470 0.18438
 C324 C 0.66267 0.54778 0.16062
 C325 C 0.71071 0.53216 0.18553
 C326 C 0.69213 0.51936 0.20897
 N327 N 0.65991 0.52083 0.20797
 H328 H 0.66978 0.44937 0.24298
 H329 H 0.65242 0.52458 0.30235
 H330 H 0.68352 0.50101 0.34297
 H331 H 0.70090 0.42393 0.28200
 H332 H 0.61947 0.53614 0.18444
 H333 H 0.65010 0.55954 0.14285
 H334 H 0.73634 0.53101 0.18670
 H335 H 0.70347 0.50863 0.22811
 C336 C 0.57474 0.42307 0.20235
 C337 C 0.58248 0.58879 0.28771
 C338 C 0.69601 0.54639 0.16083
 C339 C 0.69511 0.46045 0.31616
 C340 C 0.89214 0.46969 0.79945
 H341 H 0.88215 0.48927 0.81133
 C342 C 0.90454 0.44580 0.81644
 H343 H 0.90405 0.44753 0.84122
 C344 C 0.90561 0.44415 0.75294
 H345 H 0.90584 0.44326 0.72826
 C346 C 0.91834 0.41977 0.76905
 H347 H 0.92804 0.40037 0.75648
 N348 N 0.89168 0.46797 0.76826
 C349 C 0.88655 0.53764 0.70026
 H350 H 0.86625 0.52830 0.68862
 C351 C 0.90229 0.56257 0.68773
 H352 H 0.89429 0.57172 0.66620
 C353 C 0.91983 0.53884 0.74358
 H354 H 0.92587 0.52988 0.76575
 C355 C 0.93599 0.56426 0.73204
 H356 H 0.95502 0.57414 0.74520
 Zn357 Zn 0.86793 0.49793 0.74700
 N358 N 0.89517 0.52655 0.72791
 C359 C 0.84616 0.55007 0.77971
 N360 N 0.84192 0.51946 0.77613
 C361 C 0.82147 0.50392 0.79472
 C362 C 0.80544 0.51897 0.81881
 C363 C 0.83092 0.56589 0.80365
 C364 C 0.85847 0.46649 0.69148
 C365 C 0.84178 0.45267 0.66775
 C366 C 0.79286 0.46464 0.69481
 C367 C 0.81059 0.47820 0.71819
 N368 N 0.84285 0.47872 0.71625
 H369 H 0.86200 0.56226 0.76450
 H370 H 0.81857 0.47958 0.79156
 H371 H 0.78989 0.50618 0.83393
 H372 H 0.83496 0.59015 0.80623
 H373 H 0.88399 0.46833 0.68960
 H374 H 0.85476 0.44321 0.64821
 H375 H 0.76731 0.46404 0.69731
 H376 H 0.79846 0.48838 0.73775
 C377 C 0.92653 0.57690 0.70411
 C378 C 0.91664 0.41982 0.80117
 C379 C 0.80857 0.45178 0.66902
 C380 C 0.81093 0.55012 0.82407
 C381 C 0.30821 0.40309 -0.03136
 H382 H 0.32044 0.39111 -0.01359
 C383 C 0.32577 0.41515 -0.05580
 H384 H 0.35128 0.41233 -0.05624
 C385 C 0.26057 0.42208 -0.05178
 H386 H 0.23521 0.42490 -0.05026
 C387 C 0.27722 0.43451 -0.07667
 H388 H 0.26432 0.44636 -0.09422
 N389 N 0.27596 0.40520 -0.03062
 C390 C 0.19999 0.39488 0.03524
 H391 H 0.18939 0.37561 0.02368
 C392 C 0.18397 0.40829 0.06009
 H393 H 0.16090 0.39951 0.06690
 C394 C 0.24377 0.42806 0.04202
 H395 H 0.26745 0.43506 0.03520
 C396 C 0.22866 0.44194 0.06740
 H397 H 0.24068 0.46019 0.07937
 Zn398 Zn 0.25257 0.38052 -0.00220
 N399 N 0.22954 0.40455 0.02694
 C400 C 0.28266 0.35773 0.05055
 N401 N 0.28138 0.35538 0.01944
 C402 C 0.30103 0.33605 0.00354
 C403 C 0.32327 0.31846 0.01888
 C404 C 0.30463 0.34069 0.06677
 C405 C 0.19882 0.36978 -0.03847
 C406 C 0.17605 0.35285 -0.05405
 C407 C 0.20309 0.30682 -0.03961
 C408 C 0.22547 0.32470 -0.02433
 N409 N 0.22313 0.35567 -0.02412
 H410 H 0.26683 0.37298 0.06294
 H411 H 0.29981 0.33474 -0.02121
 H412 H 0.33918 0.30399 0.00555
 H413 H 0.30548 0.34308 0.09151
 H414 H 0.19626 0.39421 -0.03683
 H415 H 0.15676 0.36459 -0.06504
 H416 H 0.20597 0.28233 -0.03980
 H417 H 0.24443 0.31365 -0.01239
 C418 C 0.19863 0.43138 0.07718
 C419 C 0.31000 0.42968 -0.07974
 C420 C 0.17775 0.32096 -0.05452
 C421 C 0.32520 0.32067 0.05101
 C422 C 0.79929 0.10088 1.02041
 H423 H 0.80825 0.10862 0.99847
 C424 C 0.82026 0.08853 1.04143
 H425 H 0.84526 0.08679 1.03551
 C426 C 0.75648 0.09600 1.05587
 H427 H 0.73201 0.10002 1.06213
 C428 C 0.77646 0.08295 1.07730
 H429 H 0.76686 0.07738 1.09972
 N430 N 0.76826 0.10547 1.02834
 C431 C 0.69217 0.11715 0.96634
 H432 H 0.67953 0.13327 0.98086
 C433 C 0.67726 0.10540 0.94051
 H434 H 0.65285 0.11167 0.93659
 C435 C 0.73940 0.09030 0.95348
 H436 H 0.76392 0.08521 0.95833
 C437 C 0.72546 0.07829 0.92703
 H438 H 0.73933 0.06376 0.91169
 Zn439 Zn 0.74425 0.13183 1.00329
 N440 N 0.72288 0.10996 0.97208
 C441 C 0.77268 0.16280 0.95328
 N442 N 0.77314 0.15913 0.98420
 C443 C 0.79539 0.17318 1.00166
 C444 C 0.81931 0.19060 0.98790
 C445 C 0.79604 0.18015 0.93860
 C446 C 0.68941 0.13904 1.04078
 C447 C 0.66651 0.15476 1.05814
 C448 C 0.69507 0.20153 1.04861
 C449 C 0.71741 0.18488 1.03132
 N450 N 0.71434 0.15416 1.02783
 H451 H 0.75455 0.15184 0.93982
 H452 H 0.79505 0.17010 1.02625
 H453 H 0.83680 0.20144 1.00228
 H454 H 0.79572 0.18231 0.91388
 H455 H 0.68682 0.11476 1.03693
 H456 H 0.64667 0.14233 1.06797
 H457 H 0.69773 0.22601 1.05020
 H458 H 0.73693 0.19668 1.02034
 C459 C 0.69441 0.08677 0.91970
 C460 C 0.80901 0.08004 1.07050
 C461 C 0.66922 0.18636 1.06243
 C462 C 0.82025 0.19354 0.95581
 C463 C 0.27802 0.58351 0.53804
 H464 H 0.28313 0.57618 0.51472
 C465 C 0.29555 0.57163 0.56222
 H466 H 0.31404 0.55503 0.55739
 C467 C 0.24905 0.61525 0.57272
 H468 H 0.23190 0.63308 0.57695
 C469 C 0.26554 0.60374 0.59739
 H470 H 0.25944 0.61201 0.62020
 N471 N 0.25561 0.60533 0.54364
 C472 C 0.18575 0.59479 0.48034
 H473 H 0.17023 0.60510 0.49731
 C474 C 0.17231 0.57936 0.45564
 H475 H 0.14677 0.57728 0.45506
 C476 C 0.23744 0.58525 0.46050
 H477 H 0.26281 0.58844 0.46206
 C478 C 0.22493 0.57006 0.43501
 H479 H 0.24087 0.56141 0.41722
 Zn480 Zn 0.23553 0.62583 0.51102
 N481 N 0.21777 0.59811 0.48207
 C482 C 0.25894 0.66095 0.46213
 N483 N 0.26626 0.64951 0.48999
 C484 C 0.29532 0.65405 0.50232
 C485 C 0.31846 0.67058 0.48640
 C486 C 0.28145 0.67746 0.44530
 C487 C 0.17996 0.63930 0.54531
 C488 C 0.15664 0.65755 0.55913
 C489 C 0.18210 0.70180 0.53726
 C490 C 0.20490 0.68261 0.52363
 N491 N 0.20338 0.65191 0.52775
 H492 H 0.23568 0.65682 0.45278
 H493 H 0.30062 0.64486 0.52456
 H494 H 0.34148 0.67391 0.49661
 H495 H 0.27496 0.68552 0.42295
 H496 H 0.17990 0.61498 0.54926
 H497 H 0.13877 0.64695 0.57358
 H498 H 0.18366 0.72620 0.53395
 H499 H 0.22402 0.69232 0.51012
 C500 C 0.19192 0.56810 0.43171
 C501 C 0.29003 0.58250 0.59223
 C502 C 0.15740 0.68926 0.55497
 C503 C 0.31178 0.68258 0.45750
 C504 C 0.80650 0.86747 0.47648
 H505 H 0.81622 0.85512 0.49541
 C506 C 0.82660 0.87610 0.45237
 H507 H 0.85149 0.86996 0.45290
 C508 C 0.76251 0.88993 0.45234
 H509 H 0.73746 0.89488 0.45208
 C510 C 0.78183 0.89921 0.42780
 H511 H 0.77101 0.91073 0.40882
 N512 N 0.77482 0.87334 0.47551
 C513 C 0.69934 0.87237 0.54410
 H514 H 0.69096 0.84964 0.53882
 C515 C 0.68404 0.88947 0.56690
 H516 H 0.66411 0.87929 0.57890
 C517 C 0.73793 0.91111 0.53698
 H518 H 0.75958 0.91879 0.52586
 C519 C 0.72340 0.92902 0.56004
 H520 H 0.73382 0.95070 0.56646
 Zn521 Zn 0.74724 0.85441 0.50468
 N522 N 0.72585 0.88321 0.52984
 C523 C 0.77269 0.83666 0.56103
 N524 N 0.77143 0.82907 0.53072
 C525 C 0.78905 0.80559 0.51889
 C526 C 0.80950 0.78931 0.53762
 C527 C 0.79280 0.82108 0.58049
 C528 C 0.69233 0.84844 0.47051
 C529 C 0.66684 0.83406 0.45641
 C530 C 0.68926 0.78543 0.46979
 C531 C 0.71432 0.80079 0.48386
 N532 N 0.71550 0.83181 0.48384
 H533 H 0.75891 0.85554 0.57013
 H534 H 0.78829 0.80040 0.49460
 H535 H 0.82428 0.77171 0.52729
 H536 H 0.79404 0.82802 0.60437
 H537 H 0.69305 0.87304 0.47168
 H538 H 0.64902 0.84794 0.44569
 H539 H 0.68856 0.76074 0.47004
 H540 H 0.73243 0.78786 0.49513
 C541 C 0.69622 0.91811 0.57544
 C542 C 0.81424 0.89152 0.42728
 C543 C 0.66487 0.80211 0.45629
 C544 C 0.81173 0.79727 0.56887
 C545 C -0.03051 0.29072 0.38862
 H546 H -0.00697 0.30008 0.38528
 C547 C -0.05451 0.30873 0.40204
 H548 H -0.04900 0.33170 0.40957
 C549 C -0.06649 0.24977 0.38192
 H550 H -0.07152 0.22718 0.37331
 C551 C -0.09095 0.26674 0.39566
 H552 H -0.11443 0.25683 0.39767
 N553 N -0.03701 0.26202 0.37827
 C554 C 0.03990 0.19757 0.36480
 H555 H 0.03353 0.19030 0.34194
 C556 C 0.06365 0.18214 0.38007
 H557 H 0.07525 0.16288 0.36887
 C558 C 0.03309 0.23201 0.40668
 H559 H 0.02102 0.25152 0.41679
 C560 C 0.05730 0.21745 0.42268
 H561 H 0.06339 0.22569 0.44531
 Zn562 Zn -0.00586 0.24116 0.35395
 N563 N 0.02502 0.22189 0.37822
 C564 C 0.04695 0.27181 0.32822
 N565 N 0.01472 0.27005 0.32845
 C566 C -0.00306 0.29008 0.31246
 C567 C 0.01159 0.31329 0.29567
 C568 C 0.06256 0.29448 0.31158
 C569 C -0.03565 0.18505 0.34533
 C570 C -0.04875 0.16049 0.32944
 C571 C -0.04072 0.18785 0.28217
 C572 C -0.02761 0.21197 0.29905
 N573 N -0.02552 0.21021 0.33009
 H574 H 0.06066 0.25602 0.34147
 H575 H -0.02867 0.28846 0.31340
 H576 H -0.00289 0.32942 0.28350
 H577 H 0.08814 0.29591 0.31265
 H578 H -0.03308 0.18393 0.36994
 H579 H -0.05652 0.14063 0.34206
 H580 H -0.04144 0.18961 0.25749
 H581 H -0.01871 0.23185 0.28728
 C582 C 0.07298 0.19221 0.40914
 C583 C -0.08542 0.29691 0.40498
 C584 C -0.05159 0.16164 0.29749
 C585 C 0.04481 0.31569 0.29505
 C586 C 1.04685 0.76359 0.08563
 H587 H 1.02582 0.75769 0.07299
 C588 C 1.07255 0.77755 0.07058
 H589 H 1.07096 0.78189 0.04631
 C590 C 1.07452 0.76439 0.13252
 H591 H 1.07501 0.75934 0.15673
 C592 C 1.10067 0.77806 0.11845
 H593 H 1.12126 0.78344 0.13206
 N594 N 1.04818 0.75775 0.11617
 C595 C 0.97825 0.69174 0.11494
 H596 H 0.99304 0.67766 0.12896
 C597 C 0.95303 0.67839 0.09947
 H598 H 0.94903 0.65409 0.10156
 C599 C 0.96435 0.74049 0.09660
 H600 H 0.96843 0.76485 0.09640
 C601 C 0.93863 0.72806 0.08081
 H602 H 0.92324 0.74330 0.06865
 Zn603 Zn 1.01444 0.74015 0.13900
 N604 N 0.98334 0.72231 0.11348
 C605 C 0.96667 0.76438 0.17847
 N606 N 0.99447 0.77076 0.16360
 C607 C 1.00738 0.79915 0.16486
 C608 C 0.99226 0.82249 0.18140
 C609 C 0.95053 0.78721 0.19510
 C610 C 1.05239 0.68955 0.14925
 C611 C 1.06685 0.66646 0.16571
 C612 C 1.04022 0.68520 0.21166
 C613 C 1.02636 0.70810 0.19428
 N614 N 1.03247 0.70967 0.16363
 H615 H 0.95676 0.74166 0.17694
 H616 H 1.02939 0.80393 0.15287
 H617 H 1.00372 0.84452 0.18243
 H618 H 0.92819 0.78187 0.20644
 H619 H 1.05693 0.69146 0.12486
 H620 H 1.08255 0.65060 0.15377
 H621 H 1.03418 0.68411 0.23579
 H622 H 1.01055 0.72441 0.20526
 C623 C 0.93253 0.69653 0.08245
 C624 C 1.09983 0.78526 0.08725
 C625 C 1.06100 0.66404 0.19734
 C626 C 0.96299 0.81689 0.19628
 C627 C 0.52581 0.29330 0.58519
 H628 H 0.50203 0.30260 0.58549
 C629 C 0.55073 0.30953 0.57133
 H630 H 0.54596 0.33124 0.56073
 C631 C 0.56151 0.25490 0.60064
 H632 H 0.56605 0.23412 0.61278
 C633 C 0.58689 0.27016 0.58694
 H634 H 0.61035 0.26021 0.58800
 N635 N 0.53177 0.26694 0.60026
 C636 C 0.44776 0.21320 0.62257
 H637 H 0.45175 0.21212 0.64698
 C638 C 0.42253 0.19733 0.60989
 H639 H 0.40692 0.18462 0.62499
 C640 C 0.46279 0.23255 0.57390
 H641 H 0.47864 0.24638 0.56014
 C642 C 0.43752 0.21702 0.56016
 H643 H 0.43392 0.21899 0.53573
 Zn644 Zn 0.50005 0.24992 0.62628
 N645 N 0.46721 0.23042 0.60465
 C646 C 0.45076 0.28633 0.65199
 N647 N 0.48269 0.28175 0.65100
 C648 C 0.50269 0.30032 0.66675
 C649 C 0.49063 0.32413 0.68504
 C650 C 0.43770 0.30968 0.67013
 C651 C 0.52701 0.19319 0.63682
 C652 C 0.54077 0.16973 0.65331
 C653 C 0.53594 0.20090 0.69919
 C654 C 0.52227 0.22384 0.68177
 N655 N 0.51844 0.21973 0.65109
 H656 H 0.43526 0.27205 0.63857
 H657 H 0.52804 0.29658 0.66507
 H658 H 0.50681 0.33868 0.69754
 H659 H 0.41227 0.31309 0.67013
 H660 H 0.52350 0.19049 0.61242
 H661 H 0.54834 0.14936 0.64104
 H662 H 0.53908 0.20456 0.72357
 H663 H 0.51483 0.24487 0.69281
 C664 C 0.41729 0.19882 0.57820
 C665 C 0.58192 0.29859 0.57331
 C666 C 0.54523 0.17337 0.68503
 C667 C 0.45773 0.32871 0.68727
 C668 C 0.47083 0.78148 0.91086
 H669 H 0.49092 0.77624 0.92491
 C670 C 0.44367 0.79482 0.92432
 H671 H 0.44334 0.79945 0.94873
 C672 C 0.44637 0.78061 0.86233
 H673 H 0.44717 0.77442 0.83829
 C674 C 0.41890 0.79361 0.87476
 H675 H 0.39900 0.79776 0.85994
 N676 N 0.47178 0.77504 0.88024
 C677 C 0.54415 0.70829 0.87713
 H678 H 0.53263 0.69678 0.85840
 C679 C 0.56881 0.69344 0.89157
 H680 H 0.57535 0.67099 0.88321
 C681 C 0.55189 0.75262 0.90756
 H682 H 0.54611 0.77615 0.91274
 C683 C 0.57700 0.73852 0.92267
 H684 H 0.59001 0.75122 0.93981
 Zn685 Zn 0.50663 0.75693 0.85882
 N686 N 0.53629 0.73749 0.88489
 C687 C 0.55886 0.79356 0.84049
 N688 N 0.52771 0.78739 0.83539
 C689 C 0.51097 0.80376 0.81483
 C690 C 0.52515 0.82809 0.79941
 C691 C 0.57386 0.81788 0.82581
 C692 C 0.47021 0.70606 0.84790
 C693 C 0.45809 0.68101 0.83214
 C694 C 0.48393 0.69911 0.78589
 C695 C 0.49589 0.72382 0.80270
 N696 N 0.48919 0.72648 0.83323
 H697 H 0.57216 0.77992 0.85621
 H698 H 0.48648 0.79824 0.81058
 H699 H 0.51134 0.84117 0.78345
 H700 H 0.59863 0.82234 0.83028
 H701 H 0.46516 0.70894 0.87217
 H702 H 0.44305 0.66506 0.84434
 H703 H 0.48971 0.69684 0.76167
 H704 H 0.51106 0.74038 0.79158
 C705 C 0.58594 0.70862 0.91452
 C706 C 0.41728 0.80120 0.90600
 C707 C 0.46552 0.67696 0.80086
 C708 C 0.55668 0.83591 0.80547
 C709 C 0.42625 -0.17226 0.35939
 C710 C 0.44287 -0.15618 0.33871
 C711 C 0.43168 -0.12579 0.32954
 C712 C 0.44497 -0.11094 0.30594
 H713 H 0.46356 -0.16588 0.32727
 H714 H 0.41087 -0.11646 0.34113
 H715 H 0.40476 -0.16226 0.36915
 H716 H 0.46459 -0.12151 0.29342
 C717 C 0.94250 0.33652 0.85534
 C718 C 0.91673 0.35432 0.85938
 C719 C 0.91222 0.38406 0.84446
 C720 C 0.92608 0.39203 0.81780
 H721 H 0.89795 0.34810 0.87521
 H722 H 0.89394 0.39848 0.85457
 H723 H 0.96221 0.34537 0.84190
 H724 H 0.94200 0.37625 0.80607
 C725 C 0.05221 1.17770 0.85376
 C726 C 0.07812 1.16036 0.85777
 C727 C 0.08560 1.13151 0.84138
 C728 C 0.06792 1.11775 0.81992
 H729 H 0.09618 1.16735 0.87365
 H730 H 0.10839 1.12171 0.84685
 H731 H 0.03319 1.16877 0.83991
 H732 H 0.04418 1.12553 0.81518
 C733 C 0.54786 0.67346 0.33913
 C734 C 0.57637 0.66875 0.32577
 C735 C 0.58593 0.64164 0.30753
 C736 C 0.56975 0.61532 0.30548
 H737 H 0.59426 0.68640 0.32708
 H738 H 0.60899 0.64350 0.29648
 H739 H 0.52883 0.65725 0.33582
 H740 H 0.54794 0.61229 0.31852
 C741 C 0.55364 0.32922 0.17188
 C742 C 0.53416 0.34456 0.19123
 C743 C 0.54308 0.37449 0.20468
 C744 C 0.56129 0.39450 0.18934
 H745 H 0.51241 0.33416 0.19946
 H746 H 0.53403 0.37980 0.22743
 H747 H 0.57675 0.33879 0.16657
 H748 H 0.56759 0.38932 0.16566
 C749 C 0.04689 0.83561 0.66563
 C750 C 0.07301 0.85240 0.65992
 C751 C 0.07843 0.88364 0.67176
 C752 C 0.06396 0.89621 0.69652
 H753 H 0.09153 0.84415 0.64465
 H754 H 0.09763 0.89580 0.66054
 H755 H 0.02783 0.84599 0.67903
 H756 H 0.04697 0.88310 0.70976
 C757 C 0.93840 0.67203 0.67737
 C758 C 0.95746 0.65913 0.69793
 C759 C 0.95144 0.62813 0.70968
 C760 C 0.93928 0.60591 0.69203
 H761 H 0.97611 0.67224 0.70858
 H762 H 0.95623 0.62427 0.73361
 H763 H 0.91783 0.65946 0.66961
 H764 H 0.93547 0.61034 0.66797
 C765 C 0.43264 0.17149 0.14447
 C766 C 0.44655 0.15430 0.16561
 C767 C 0.43371 0.12383 0.17250
 C768 C 0.44403 0.10749 0.19612
 H769 H 0.46592 0.16310 0.17909
 H770 H 0.41474 0.11525 0.15838
 H771 H 0.41232 0.16216 0.13261
 H772 H 0.46405 0.11587 0.20907
 C773 C 0.36257 0.45142 -0.16816
 C774 C 0.36570 0.42640 -0.15086
 C775 C 0.35176 0.42277 -0.11976
 C776 C 0.32649 0.43829 -0.10872
 H777 H 0.37987 0.40731 -0.15872
 H778 H 0.36101 0.40391 -0.10685
 H779 H 0.35078 0.47109 -0.15797
 H780 H 0.31523 0.45519 -0.12281
 C781 C 0.84628 0.94097 0.33046
 C782 C 0.84903 0.91797 0.35025
 C783 C 0.82958 0.91723 0.37864
 C784 C 0.83497 0.89627 0.39999
 H785 H 0.86534 0.89935 0.34597
 H786 H 0.81045 0.93352 0.38167
 H787 H 0.83106 0.95991 0.33734
 H788 H 0.85537 0.88138 0.39710
 C789 C 0.84227 0.03120 1.16577
 C790 C 0.84568 0.05322 1.14491
 C791 C 0.82487 0.05449 1.11818
 C792 C 0.83195 0.07259 1.09459
 H793 H 0.86342 0.07087 1.14743
 H794 H 0.80281 0.04179 1.11861
 H795 H 0.82662 0.01231 1.16029
 H796 H 0.85499 0.08359 1.09357
 C797 C 0.34915 0.55649 0.67407
 C798 C 0.33639 0.58375 0.66802
 C799 C 0.31638 0.59093 0.64163
 C800 C 0.31051 0.57247 0.61759
 H801 H 0.33930 0.60242 0.68415
 H802 H 0.30670 0.61378 0.64209
 H803 H 0.34436 0.53702 0.65941
 H804 H 0.32202 0.55049 0.61545
 C805 C 0.15038 0.53911 0.34077
 C806 C 0.13783 0.55872 0.36144
 C807 C 0.15021 0.56497 0.39238
 C808 C 0.17883 0.55641 0.40238
 H809 H 0.11684 0.57152 0.35562
 H810 H 0.13557 0.58008 0.40630
 H811 H 0.16956 0.52413 0.34698
 H812 H 0.19452 0.54322 0.38752
 C813 C 0.65071 0.06292 0.82808
 C814 C 0.64749 0.08911 0.84423
 C815 C 0.65975 0.09471 0.87535
 C816 C 0.68119 0.07748 0.88965
 H817 H 0.63444 0.10809 0.83535
 H818 H 0.65184 0.11585 0.88593
 H819 H 0.66230 0.04389 0.83883
 H820 H 0.69144 0.05772 0.87822
 C821 C 0.65664 0.95707 0.66378
 C822 C 0.64139 0.93937 0.64357
 C823 C 0.65327 0.93111 0.61256
 C824 C 0.68337 0.93469 0.60271
 H825 H 0.61902 0.92908 0.65037
 H826 H 0.63675 0.91855 0.59849
 H827 H 0.67751 0.96982 0.65700
 H828 H 0.69994 0.94804 0.61597
 C829 C 0.15820 0.44218 0.17073
 C830 C 0.18169 0.45997 0.15987
 C831 C 0.19746 0.45442 0.12975
 C832 C 0.18238 0.44213 0.10572
 H833 H 0.19203 0.47729 0.17447
 H834 H 0.22238 0.46007 0.12802
 H835 H 0.15050 0.42283 0.15711
 H836 H 0.15724 0.43730 0.10790
 C837 C -0.16656 0.35545 0.43862
 C838 C -0.14451 0.36310 0.41753
 C839 C -0.11505 0.34550 0.41151
 C840 C -0.11267 0.31542 0.41638
 H841 H -0.14769 0.38343 0.40408
 H842 H -0.09614 0.35721 0.39937
 H843 H -0.16188 0.33699 0.45420
 H844 H -0.13290 0.30319 0.42566
 C845 C 0.33275 0.85555 0.93487
 C846 C 0.35388 0.84435 0.95473
 C847 C 0.38427 0.83027 0.94459
 C848 C 0.38734 0.81487 0.91796
 H849 H 0.35021 0.84637 0.97921
 H850 H 0.40398 0.83211 0.96006
 H851 H 0.33941 0.85555 0.91076
 H852 H 0.36682 0.81252 0.90348
 C853 C 1.17659 0.84683 0.05559
 C854 C 1.15647 0.83299 0.03618
 C855 C 1.12817 0.81606 0.04722
 C856 C 1.12796 0.80067 0.07366
 H857 H 1.15931 0.83487 0.01163
 H858 H 1.10756 0.81618 0.03280
 H859 H 1.17061 0.84628 0.07985
 H860 H 1.14945 0.80008 0.08695
 C861 C 0.66936 0.35231 0.54499
 C862 C 0.66422 0.33719 0.57117
 C863 C 0.63672 0.31736 0.57776
 C864 C 0.60898 0.31780 0.56303
 H865 H 0.68211 0.33773 0.58870
 H866 H 0.63924 0.30293 0.59755
 H867 H 0.65321 0.34960 0.52609
 H868 H 0.60502 0.33420 0.54514
 C869 C 0.32750 0.15275 0.54723
 C870 C 0.34866 0.14162 0.56684
 C871 C 0.37848 0.15677 0.57582
 C872 C 0.38995 0.18288 0.56424
 H873 H 0.34338 0.12054 0.57856
 H874 H 0.39107 0.14580 0.59412
 H875 H 0.33279 0.17291 0.53405
 H876 H 0.37926 0.19315 0.54450
 C877 C 0.83797 0.66100 0.05574
 C878 C 0.85525 0.68013 0.03820
 C879 C 0.88465 0.69495 0.04912
 C880 C 0.90407 0.68181 0.06916
 H881 H 0.84714 0.68729 0.01607
 H882 H 0.89060 0.71677 0.03930
 H883 H 0.84603 0.65694 0.07882
 H884 H 0.89903 0.65872 0.07636
 C885 C 0.67594 0.66479 0.94761
 C886 C 0.65277 0.65154 0.93158
 C887 C 0.62136 0.66514 0.92618
 C888 C 0.61519 0.69519 0.92734
 H889 H 0.65678 0.62910 0.92162
 H890 H 0.60353 0.64937 0.91816
 H891 H 0.67154 0.68573 0.96033
 H892 H 0.63288 0.71089 0.93588
 C893 C 0.16421 0.15209 0.43627
 C894 C 0.14917 0.17353 0.45333
 C895 C 0.11977 0.18882 0.44323
 C896 C 0.09928 0.17576 0.42384
 H897 H 0.15997 0.18248 0.47387
 H898 H 0.11579 0.21191 0.45141
 H899 H 0.15453 0.14564 0.41430
 H900 H 0.10314 0.15244 0.41633
 C901 C 0.59873 0.10060 0.73409
 C902 C 0.57606 0.09569 0.71334
 C903 C 0.56074 0.11994 0.69557
 C904 C 0.56038 0.14955 0.70369
 H905 H 0.56844 0.07266 0.70824
 H906 H 0.54807 0.11235 0.67552
 H907 H 0.60621 0.12360 0.73954
 H908 H 0.57038 0.15675 0.72528
 C909 C 1.09917 0.58410 0.24885
 C910 C 1.09333 0.61193 0.26110
 C911 C 1.07780 0.63704 0.24458
 C912 C 1.07641 0.63876 0.21391
 H913 H 1.09828 0.61700 0.28480
 H914 H 1.06857 0.65540 0.25882
 H915 H 1.09153 0.57956 0.22567
 H916 H 1.08808 0.62150 0.19988
 C917 C 0.90896 0.89359 0.24447
 C918 C 0.93177 0.89643 0.22282
 C919 C 0.94933 0.87105 0.20767
 C920 C 0.94498 0.84121 0.21304
 H921 H 0.93890 0.91892 0.21549
 H922 H 0.96630 0.87809 0.19032
 H923 H 0.90293 0.87137 0.25330
 H924 H 0.92690 0.83393 0.22921
 C925 C 0.41139 0.40795 0.73505
 C926 C 0.40302 0.37870 0.73872
 C927 C 0.41607 0.35355 0.71959
 C928 C 0.44513 0.35407 0.70657
 H929 H 0.38422 0.37286 0.75479
 H930 H 0.40155 0.33328 0.71768
 H931 H 0.42773 0.41392 0.71665
 H932 H 0.46087 0.37303 0.71121
 C933 C 0.41571 0.59767 0.75871
 C934 C 0.43690 0.59580 0.78122
 C935 C 0.45015 0.62284 0.79683
 C936 C 0.45379 0.65014 0.78362
 H937 H 0.44375 0.57395 0.79016
 H938 H 0.45805 0.61959 0.82007
 H939 H 0.40892 0.61994 0.75058
 H940 H 0.44929 0.65277 0.75941
 C941 C -0.10125 0.08317 0.25221
 C942 C -0.09000 0.10771 0.23737
 C943 C -0.07642 0.13486 0.25293
 C944 C -0.06481 0.13457 0.28143
 H945 H -0.09102 0.10865 0.21264
 H946 H -0.07573 0.15557 0.23974
 H947 H -0.10043 0.08245 0.27696
 H948 H -0.06509 0.11359 0.29420
 C949 C 0.09854 0.39595 0.25915
 C950 C 0.10567 0.36674 0.25267
 C951 C 0.09002 0.34073 0.26801
 C952 C 0.05998 0.34149 0.27871
 H953 H 0.12533 0.36134 0.23731
 H954 H 0.10358 0.31983 0.26907
 H955 H 0.08104 0.40106 0.27695
 H956 H 0.04553 0.36144 0.27471
 C957 C 0.60874 0.91052 0.75731
 C958 C 0.60750 0.90693 0.78779
 C959 C 0.59399 0.87955 0.80251
 C960 C 0.57097 0.86256 0.78998
 H961 H 0.61828 0.92371 0.80273
 H962 H 0.60202 0.87460 0.82538
 H963 H 0.60079 0.89216 0.74250
 H964 H 0.56063 0.86949 0.76857
 C965 C 0.74875 0.59813 0.08680
 C966 C 0.72256 0.58092 0.08312
 C967 C 0.70511 0.56522 0.10806
 C968 C 0.71579 0.56076 0.13651
 H969 H 0.71180 0.57832 0.06099
 H970 H 0.68209 0.55639 0.10187
 H971 H 0.75901 0.59958 0.10935
 H972 H 0.73981 0.56699 0.14228
 C973 C 0.23297 1.09489 0.58829
 C974 C 0.24822 1.08045 0.61072
 C975 C 0.23212 1.06408 0.63603
 C976 C 0.20278 1.07088 0.64637
 H977 H 0.27385 1.07888 0.60988
 H978 H 0.24585 1.04652 0.64681
 H979 H 0.20736 1.09369 0.58720
 H980 H 0.18980 1.08903 0.63556
 C981 C 0.23641 0.90597 0.89940
 C982 C 0.21341 0.92687 0.90357
 C983 C 0.19618 0.94228 0.87878
 C984 C 0.20405 0.94125 0.84877
 H985 H 0.20657 0.93395 0.92655
 H986 H 0.17595 0.95566 0.88643
 H987 H 0.24385 0.89937 0.87644
 H988 H 0.22361 0.92722 0.84070
 C989 C 0.74001 0.41246 0.39512
 C990 C 0.74623 0.40630 0.36537
 C991 C 0.72897 0.42009 0.33961
 C992 C 0.71285 0.44649 0.34173
 H993 H 0.76347 0.38902 0.35903
 H994 H 0.73107 0.40805 0.31796
 H995 H 0.72063 0.42762 0.40127
 H996 H 0.71286 0.45909 0.36320
 C997 C 0.75945 0.41627 0.58542
 C998 C 0.74465 0.42716 0.61079
 C999 C 0.76118 0.44205 0.63666
 C1000 C 0.79170 0.43690 0.64323
 H1001 H 0.71902 0.42674 0.61243
 H1002 H 0.74699 0.45715 0.65103
 H1003 H 0.78475 0.41964 0.58247
 H1004 H 0.80549 0.42141 0.62885
 C1005 C 0.26903 -0.09614 0.09106
 C1006 C 0.29031 -0.07354 0.08810
 C1007 C 0.30827 -0.06026 0.11390
 C1008 C 0.29896 -0.06159 0.14345
 H1009 H 0.29575 -0.06436 0.06572
 H1010 H 0.32930 -0.04748 0.10763
 H1011 H 0.26370 -0.10520 0.11353
 H1012 H 0.27632 -0.07172 0.14944
 C1013 C 0.26027 0.09400 0.40055
 C1014 C 0.25821 0.10097 0.37078
 C1015 C 0.27759 0.08599 0.34647
 C1016 C 0.28782 0.05707 0.34795
 H1017 H 0.24379 0.12005 0.36390
 H1018 H 0.28226 0.09913 0.32603
 H1019 H 0.27731 0.07705 0.40753
 H1020 H 0.28030 0.04294 0.36694
 C1021 C 0.76561 0.60641 0.89922
 C1022 C 0.79687 0.60317 0.89411
 C1023 C 0.81045 0.58808 0.86642
 C1024 C 0.79590 0.56556 0.85096
 H1025 H 0.81350 0.61372 0.90963
 H1026 H 0.83435 0.59464 0.85985
 H1027 H 0.74919 0.59849 0.88200
 H1028 H 0.77348 0.55667 0.85943
 C1029 C 0.08535 0.74169 0.61120
 C1030 C 0.07915 0.71935 0.59084
 C1031 C 0.10367 0.70050 0.57532
 C1032 C 0.13357 0.70958 0.56986
 H1033 H 0.05490 0.71318 0.58598
 H1034 H 0.09594 0.67843 0.56695
 H1035 H 0.10969 0.74797 0.61572
 H1036 H 0.14058 0.73276 0.57524
 C1037 C 0.59474 0.23482 1.11962
 C1038 C 0.62163 0.24742 1.10869
 C1039 C 0.64742 0.23026 1.09282
 C1040 C 0.64375 0.20261 1.07984
 H1041 H 0.62530 0.27174 1.11085
 H1042 H 0.66998 0.24187 1.09098
 H1043 H 0.59101 0.21051 1.11744
 H1044 H 0.62116 0.19104 1.08163
 C1045 C 0.89850 0.24743 0.91111
 C1046 C 0.90204 0.22764 0.93405
 C1047 C 0.87536 0.21296 0.95065
 C1048 C 0.84598 0.21012 0.93953
 H1049 H 0.92552 0.22288 0.94248
 H1050 H 0.88111 0.20245 0.97219
 H1051 H 0.87495 0.25446 0.90466
 H1052 H 0.84098 0.21807 0.91671
 C1053 C 0.38942 0.72849 0.40323
 C1054 C 0.35823 0.73382 0.40025
 C1055 C 0.33292 0.71588 0.41556
 C1056 C 0.33727 0.69964 0.44109
 H1057 H 0.35026 0.75143 0.38504
 H1058 H 0.30954 0.71813 0.40608
 H1059 H 0.39713 0.70893 0.41605
 H1060 H 0.36043 0.69962 0.45145
 C1061 C 0.58542 0.76092 0.40312
 C1062 C 0.58197 0.78221 0.42525
 C1063 C 0.60902 0.79791 0.43971
 C1064 C 0.63812 0.78572 0.44190
 H1065 H 0.55860 0.78950 0.43277
 H1066 H 0.60394 0.81984 0.45028
 H1067 H 0.60908 0.75430 0.39566
 H1068 H 0.64231 0.76246 0.43432
 C1069 C 0.09460 0.27079 -0.09327
 C1070 C 0.11958 0.25757 -0.08003
 C1071 C 0.14528 0.27457 -0.06470
 C1072 C 0.15271 0.30367 -0.07073
 H1073 H 0.12059 0.23299 -0.07838
 H1074 H 0.15856 0.26203 -0.04800
 H1075 H 0.09188 0.29531 -0.09210
 H1076 H 0.13940 0.31595 -0.08765
 C1077 C 0.40365 0.27073 0.09757
 C1078 C 0.38385 0.25873 0.07684
 C1079 C 0.36128 0.27679 0.05890
 C1080 C 0.34882 0.30336 0.06867
 H1081 H 0.38527 0.23467 0.07120
 H1082 H 0.35317 0.26643 0.03780
 H1083 H 0.40469 0.29522 0.10090
 H1084 H 0.35469 0.31207 0.09122
 C1085 C 0.89303 0.75950 0.62042
 C1086 C 0.87258 0.74256 0.60417
 C1087 C 0.84813 0.75570 0.58433
 C1088 C 0.83506 0.78317 0.58945
 H1089 H 0.87536 0.71804 0.60309
 H1090 H 0.84002 0.74148 0.56560
 H1091 H 0.89248 0.78411 0.61880
 H1092 H 0.84116 0.79585 0.60998
   
