data_POSCAR
  _audit_creation_date              2014-09-24
  _audit_creation_method            'ToBaCCo'
  _symmetry_space_group_name_H-M    'P1'
  _symmetry_Int_Tables_number       1
  _symmetry_cell_setting            triclinic
  loop_
  _symmetry_equiv_pos_as_xyz
 x,y,z
_cell_length_a 35.6313
_cell_length_b 27.0062
_cell_length_c 16.8344
_cell_angle_alpha 89.932100
_cell_angle_beta 89.951400
_cell_angle_gamma 90.056400
loop_
  _atom_site_label
  _atom_site_type_symbol
  _atom_site_fract_x
  _atom_site_fract_y
  _atom_site_fract_z
O1 O 0.73678 0.31064 0.57470
 O2 O 0.79842 0.25736 0.42124
 O3 O 0.73706 0.31043 0.42059
 O4 O 0.79807 0.25753 0.57539
 O5 O 0.76397 0.18906 0.57550
 O6 O 0.70298 0.24195 0.42070
 O7 O 0.76434 0.18889 0.42134
 O8 O 0.70268 0.24217 0.57481
 Cu9 Cu 0.77103 0.29089 0.49795
 Cu10 Cu 0.73006 0.20861 0.49807
 C11 C 0.70911 0.28560 0.60006
 C12 C 0.79203 0.21392 0.39600
 C13 C 0.70947 0.28533 0.39518
 C14 C 0.79153 0.21418 0.60100
 O15 O 0.20274 0.74257 0.42580
 O16 O 0.26426 0.68898 0.57921
 O17 O 0.20307 0.74239 0.57990
 O18 O 0.26385 0.68911 0.42506
 O19 O 0.29817 0.75739 0.42470
 O20 O 0.23738 0.81068 0.57954
 O21 O 0.29856 0.75725 0.57885
 O22 O 0.23706 0.81085 0.42544
 Cu23 Cu 0.23003 0.70887 0.50255
 Cu24 Cu 0.27126 0.79093 0.50212
 C25 C 0.20930 0.78596 0.40033
 C26 C 0.29203 0.71385 0.60431
 C27 C 0.20971 0.78574 0.60519
 C28 C 0.29149 0.71407 0.39933
 O29 O 0.23629 0.18926 -0.58059
 O30 O 0.29752 0.24259 -0.42664
 O31 O 0.23623 0.18940 -0.42644
 O32 O 0.29766 0.24252 -0.58078
 O33 O 0.26358 0.31091 -0.58107
 O34 O 0.20215 0.25779 -0.42673
 O35 O 0.26343 0.31099 -0.42693
 O36 O 0.20221 0.25764 -0.58088
 Cu37 Cu 0.27036 0.20905 -0.50363
 Cu38 Cu 0.22941 0.29123 -0.50399
 C39 C 0.20866 0.21422 -0.60606
 C40 C 0.29101 0.28597 -0.40134
 C41 C 0.20862 0.21445 -0.40107
 C42 C 0.29125 0.28591 -0.60633
 O43 O -0.23716 0.81077 -0.57458
 O44 O -0.29842 0.75708 -0.42062
 O45 O -0.23716 0.81048 -0.42048
 O46 O -0.29835 0.75727 -0.57477
 O47 O -0.26412 0.68900 -0.57492
 O48 O -0.20296 0.74219 -0.42063
 O49 O -0.26421 0.68880 -0.42078
 O50 O -0.20293 0.74249 -0.57473
 Cu51 Cu -0.27123 0.79078 -0.49759
 Cu52 Cu -0.23011 0.70873 -0.49778
 C53 C -0.20947 0.78590 -0.60001
 C54 C -0.29190 0.71367 -0.39531
 C55 C -0.20949 0.78552 -0.39515
 C56 C -0.29179 0.71395 -0.60030
 N57 N 0.03964 1.08825 -0.08502
 N58 N 0.06600 1.12140 -0.10016
 N59 N -0.03931 1.05344 -0.13926
 N60 N -0.06568 1.06181 -0.19256
 N61 N -0.03933 1.08819 -0.08473
 N62 N -0.06574 1.12124 -0.09949
 N63 N 0.03956 1.05347 -0.13952
 N64 N 0.06582 1.06194 -0.19314
 C65 C 0.08224 1.10403 -0.16723
 C66 C -0.08208 1.10382 -0.16639
 N67 N -0.03942 0.91228 -0.08350
 N68 N -0.06592 0.87921 -0.09773
 N69 N 0.03951 0.94686 -0.13869
 N70 N 0.06602 0.93842 -0.19173
 N71 N 0.03955 0.91234 -0.08364
 N72 N 0.06612 0.87940 -0.09777
 N73 N -0.03937 0.94682 -0.13852
 N74 N -0.06580 0.93826 -0.19161
 Mn75 Mn 0.00010 1.00014 -0.13974
 C76 C -0.08227 0.89636 -0.16483
 C77 C 0.08251 0.89661 -0.16485
 N78 N -0.03930 1.08855 0.08673
 N79 N -0.06575 1.12162 0.10115
 N80 N 0.03963 1.05405 0.14148
 N81 N 0.06612 1.06255 0.19444
 N82 N 0.03968 1.08857 0.08643
 N83 N 0.06624 1.12158 0.10049
 N84 N -0.03925 1.05401 0.14175
 N85 N -0.06563 1.06256 0.19502
 Mn86 Mn 0.00017 1.08895 0.00085
 C87 C -0.08207 1.10445 0.16836
 C88 C 0.08262 1.10440 0.16752
 N89 N 0.03959 0.91266 0.08774
 N90 N 0.06599 0.87959 0.10252
 N91 N -0.03930 0.94737 0.14247
 N92 N -0.06576 0.93904 0.19572
 N93 N -0.03937 0.91265 0.08789
 N94 N -0.06590 0.87967 0.10256
 N95 N 0.03958 0.94741 0.14229
 N96 N 0.06594 0.93901 0.19560
 Mn97 Mn 0.00009 0.91192 0.00212
 Mn98 Mn 0.00016 1.00071 0.14275
 Cl99 Cl 0.00013 1.00044 0.00150
 C100 C 0.08234 0.89698 0.16944
 C101 C -0.08225 0.89708 0.16947
 N102 N 0.53939 0.58780 -0.08637
 N103 N 0.56594 0.62083 -0.10064
 N104 N 0.46047 0.55337 -0.14147
 N105 N 0.43412 0.56198 -0.19473
 N106 N 0.46042 0.58787 -0.08653
 N107 N 0.43400 0.62098 -0.10098
 N108 N 0.53934 0.55330 -0.14131
 N109 N 0.56583 0.56183 -0.19440
 C110 C 0.58232 0.60368 -0.16768
 C111 C 0.41770 0.60388 -0.16814
 N112 N 0.46023 0.41197 -0.08730
 N113 N 0.43376 0.37895 -0.10208
 N114 N 0.53923 0.44668 -0.14185
 N115 N 0.56562 0.43829 -0.19517
 N116 N 0.53919 0.41189 -0.08723
 N117 N 0.56559 0.37881 -0.10197
 N118 N 0.46036 0.44675 -0.14193
 N119 N 0.43402 0.43842 -0.19530
 Mn120 Mn 0.49985 0.50003 -0.14238
 C121 C 0.41751 0.39641 -0.16908
 C122 C 0.58197 0.39622 -0.16894
 N123 N 0.46031 0.58743 0.08491
 N124 N 0.43394 0.62053 0.09967
 N125 N 0.53915 0.55261 0.13968
 N126 N 0.56541 0.56105 0.19321
 N127 N 0.53927 0.58740 0.08506
 N128 N 0.56565 0.62053 0.10002
 N129 N 0.46028 0.55266 0.13955
 N130 N 0.43392 0.56107 0.19290
 Mn131 Mn 0.49985 0.58819 -0.00073
 C132 C 0.41757 0.60312 0.16666
 C133 C 0.58186 0.60313 0.16711
 N134 N 0.53907 0.41149 0.08417
 N135 N 0.56563 0.37854 0.09830
 N136 N 0.46015 0.44603 0.13908
 N137 N 0.43372 0.43744 0.19230
 N138 N 0.46009 0.41152 0.08415
 N139 N 0.43359 0.37844 0.09856
 N140 N 0.53903 0.44598 0.13912
 N141 N 0.56553 0.43753 0.19208
 Mn142 Mn 0.49964 0.41115 -0.00155
 Mn143 Mn 0.49965 0.49931 0.14010
 Cl144 Cl 0.49975 0.49967 -0.00114
 C145 C 0.58202 0.39573 0.16528
 C146 C 0.41724 0.39556 0.16568
 C147 C 0.31530 0.30673 0.34067
 C148 C 0.33749 0.32596 0.29613
 C149 C 0.36441 0.34937 0.24724
 C150 C 0.38814 0.37007 0.20837
 C151 C -0.18416 0.80808 0.34401
 C152 C -0.16199 0.82750 0.29972
 C153 C -0.13508 0.85103 0.25105
 C154 C -0.11135 0.87174 0.21226
 C155 C 0.68301 0.69199 0.34340
 C156 C 0.66098 0.67272 0.29873
 C157 C 0.63427 0.64929 0.24955
 C158 C 0.61073 0.62858 0.21032
 C159 C 0.18466 1.19331 0.34115
 C160 C 0.16249 1.17401 0.29687
 C161 C 0.13555 1.15055 0.24836
 C162 C 0.11178 1.12983 0.20983
 C163 C 0.68372 0.30758 -0.34398
 C164 C 0.66154 0.32682 -0.29962
 C165 C 0.63465 0.35021 -0.25079
 C166 C 0.61098 0.37085 -0.21185
 C167 C 0.18450 0.80780 -0.33867
 C168 C 0.16236 0.82712 -0.29434
 C169 C 0.13544 0.85057 -0.24579
 C170 C 0.11166 0.87125 -0.20722
 C171 C 0.31605 0.69292 -0.34289
 C172 C 0.33818 0.67360 -0.29849
 C173 C 0.36503 0.65013 -0.24969
 C174 C 0.38870 0.62939 -0.21085
 C175 C -0.18332 1.19235 -0.34251
 C176 C -0.16131 1.17318 -0.29774
 C177 C -0.13459 1.14984 -0.24854
 C178 C -0.11101 1.12920 -0.20940
 C179 C 0.68415 0.69270 -0.34234
 C180 C 0.66203 0.67337 -0.29783
 C181 C 0.63516 0.64988 -0.24902
 C182 C 0.61143 0.62915 -0.21024
 C183 C 0.18338 1.19260 -0.34454
 C184 C 0.16135 1.17345 -0.29962
 C185 C 0.13464 1.15013 -0.25011
 C186 C 0.11110 1.12949 -0.21063
 C187 C 0.31619 0.30791 -0.34505
 C188 C 0.33823 0.32712 -0.30038
 C189 C 0.36497 0.35046 -0.25125
 C190 C 0.38856 0.37107 -0.21211
 C191 C -0.18419 0.80752 -0.33907
 C192 C -0.16202 0.82679 -0.29472
 C193 C -0.13510 0.85020 -0.24603
 C194 C -0.11137 0.87090 -0.20733
 C195 C 0.31656 0.69208 0.34283
 C196 C 0.33851 0.67278 0.29806
 C197 C 0.36517 0.64932 0.24886
 C198 C 0.38870 0.62859 0.20971
 C199 C -0.18391 1.19311 0.34317
 C200 C -0.16173 1.17390 0.29873
 C201 C -0.13482 1.15054 0.24990
 C202 C -0.11112 1.12989 0.21105
 C203 C 0.68419 0.30724 0.33903
 C204 C 0.66199 0.32644 0.29470
 C205 C 0.63501 0.34978 0.24615
 C206 C 0.61121 0.37040 0.20759
 C207 C 0.18396 0.80807 0.34442
 C208 C 0.16181 0.82741 0.30009
 C209 C 0.13497 0.85088 0.25129
 C210 C 0.11132 0.87158 0.21237
   
