data_POSCAR
  _audit_creation_date              2014-09-24
  _audit_creation_method            'ToBaCCo'
  _symmetry_space_group_name_H-M    'P1'
  _symmetry_Int_Tables_number       1
  _symmetry_cell_setting            triclinic
  loop_
  _symmetry_equiv_pos_as_xyz
 x,y,z
_cell_length_a 36.6503
_cell_length_b 15.5775
_cell_length_c 13.4860
_cell_angle_alpha 92.600700
_cell_angle_beta 90.160000
_cell_angle_gamma 90.287400
loop_
  _atom_site_label
  _atom_site_type_symbol
  _atom_site_fract_x
  _atom_site_fract_y
  _atom_site_fract_z
C1 C 0.71640 0.21750 0.52333
 C2 C 0.72349 0.21900 0.41977
 C3 C 0.75881 0.20415 0.38349
 C4 C 0.78799 0.18394 0.44653
 C5 C 0.78038 0.17510 0.54940
 C6 C 0.74478 0.18945 0.58484
 H7 H 0.74004 0.18028 0.66263
 H8 H 0.76272 0.20388 0.30391
 C9 C 0.22097 0.74224 0.56780
 C10 C 0.21495 0.73808 0.46449
 C11 C 0.24044 0.69636 0.40258
 C12 C 0.27202 0.66032 0.44136
 C13 C 0.27904 0.66603 0.54525
 C14 C 0.25241 0.70568 0.60757
 H15 H 0.25548 0.70854 0.68741
 H16 H 0.23642 0.69407 0.32284
 C17 C 0.28142 0.30327 -0.55118
 C18 C 0.28790 0.29892 -0.44870
 C19 C 0.26135 0.26242 -0.38890
 C20 C 0.22768 0.23267 -0.42801
 C21 C 0.22226 0.23067 -0.53361
 C22 C 0.24942 0.26785 -0.59292
 H23 H 0.24695 0.26679 -0.67289
 H24 H 0.26608 0.26279 -0.30942
 C25 C -0.22750 0.88587 -0.53812
 C26 C -0.23230 0.88124 -0.43509
 C27 C -0.26538 0.85071 -0.39813
 C28 C -0.29447 0.82457 -0.46227
 C29 C -0.29028 0.83582 -0.56665
 C30 C -0.25638 0.86333 -0.60216
 H31 H -0.25254 0.86991 -0.68124
 H32 H -0.26687 0.84205 -0.31916
 N33 N 0.03286 0.85485 -0.18163
 N34 N 0.06250 0.84051 -0.23502
 N35 N -0.04597 0.82116 -0.10189
 N36 N -0.07878 0.78511 -0.10092
 N37 N -0.04363 0.87454 -0.17411
 N38 N -0.07457 0.87684 -0.22350
 N39 N 0.03053 0.80008 -0.11067
 N40 N 0.05830 0.74633 -0.11473
 C41 C 0.07783 0.77206 -0.19299
 C42 C -0.09617 0.82046 -0.17785
 N43 N -0.03689 0.90455 0.17576
 N44 N -0.06545 0.91186 0.23491
 N45 N 0.03466 0.81873 0.10179
 N46 N 0.06001 0.76016 0.11371
 N47 N 0.03934 0.88418 0.16548
 N48 N 0.06794 0.87190 0.22260
 N49 N -0.04135 0.83971 0.11111
 N50 N -0.07293 0.80106 0.12475
 Mn51 Mn -0.00565 0.81876 0.00010
 C52 C -0.08753 0.84649 0.20247
 C53 C 0.08048 0.79421 0.18937
 N54 N -0.03536 1.05577 -0.18715
 N55 N -0.06248 1.06835 -0.24906
 N56 N 0.04517 1.10287 -0.13301
 N57 N 0.07108 1.15476 -0.16381
 N58 N 0.04052 1.03762 -0.19712
 N59 N 0.06248 1.04413 -0.27361
 N60 N -0.03112 1.12231 -0.12484
 N61 N -0.05491 1.18298 -0.14413
 Mn62 Mn -0.00135 0.95524 -0.18580
 C63 C -0.07452 1.14761 -0.22102
 C64 C 0.08189 1.11614 -0.25095
 N65 N 0.04815 1.06783 0.15332
 N66 N 0.07701 1.07882 0.21159
 N67 N -0.02780 1.13954 0.08993
 N68 N -0.05707 1.18908 0.09405
 N69 N -0.02803 1.08689 0.16341
 N70 N -0.05710 1.09959 0.21923
 N71 N 0.04909 1.12146 0.08095
 N72 N 0.07869 1.17001 0.08768
 Mn73 Mn 0.00581 0.98598 0.16569
 Mn74 Mn 0.00888 1.12280 -0.02147
 Cl75 Cl 0.00201 0.97091 -0.01037
 C76 C 0.09585 1.14266 0.16934
 C77 C -0.07481 1.16395 0.17607
 N78 N 0.54215 0.66932 -0.08230
 N79 N 0.56752 0.72902 -0.08981
 N80 N 0.46913 0.59252 -0.17199
 N81 N 0.43970 0.58810 -0.22942
 N82 N 0.46604 0.65587 -0.10482
 N83 N 0.43476 0.69590 -0.11485
 N84 N 0.54592 0.60859 -0.15243
 N85 N 0.57399 0.62574 -0.20981
 C86 C 0.58719 0.70101 -0.16944
 C87 C 0.41876 0.65387 -0.19308
 N88 N 0.47622 0.34969 -0.10160
 N89 N 0.44816 0.29664 -0.11342
 N90 N 0.55208 0.42267 -0.15104
 N91 N 0.57975 0.40727 -0.21203
 N92 N 0.55232 0.36846 -0.07905
 N93 N 0.58029 0.31573 -0.08844
 N94 N 0.47585 0.40731 -0.16991
 N95 N 0.44756 0.39485 -0.22968
 Mn96 Mn 0.51076 0.50778 -0.16286
 C97 C 0.43077 0.32512 -0.19403
 C98 C 0.59718 0.34067 -0.17140
 N99 N 0.45695 0.66365 0.10574
 N100 N 0.42615 0.70747 0.10459
 N101 N 0.53013 0.62195 0.20130
 N102 N 0.54883 0.64683 0.28100
 N103 N 0.53324 0.67797 0.13194
 N104 N 0.55477 0.74241 0.16258
 N105 N 0.45523 0.60425 0.17147
 N106 N 0.42349 0.60550 0.21650
 Mn107 Mn 0.49986 0.66778 0.01243
 C108 C 0.40564 0.67007 0.17413
 C109 C 0.56442 0.72102 0.25548
 N110 N 0.54400 0.37863 0.13536
 N111 N 0.57595 0.34295 0.15350
 N112 N 0.46163 0.42163 0.17473
 N113 N 0.43082 0.41037 0.22253
 N114 N 0.46742 0.35790 0.10999
 N115 N 0.44047 0.30110 0.11211
 N116 N 0.53722 0.44030 0.20235
 N117 N 0.56409 0.44874 0.26689
 Mn118 Mn 0.51025 0.36246 0.01624
 Mn119 Mn 0.49589 0.52178 0.18796
 Cl120 Cl 0.50439 0.51494 0.01316
 C121 C 0.58780 0.38738 0.23666
 C122 C 0.41787 0.33497 0.18285
 C123 C 0.30856 0.34395 0.38504
 C124 C 0.32800 0.29906 0.31717
 C125 C 0.36027 0.33910 0.27316
 C126 C 0.38344 0.29513 0.21391
 H127 H 0.32202 0.23163 0.30105
 H128 H 0.36628 0.40568 0.29448
 H129 H 0.31601 0.41005 0.40382
 H130 H 0.37765 0.22902 0.19047
 C131 C -0.19174 0.90970 0.41980
 C132 C -0.17661 0.86240 0.34595
 C133 C -0.13975 0.88138 0.31008
 C134 C -0.12412 0.82971 0.24110
 H135 H -0.19108 0.80678 0.31411
 H136 H -0.12528 0.93751 0.34056
 H137 H -0.17643 0.96268 0.45436
 H138 H -0.13881 0.77400 0.21047
 C139 C 0.68229 0.82107 0.36054
 C140 C 0.64642 0.82823 0.37647
 C141 C 0.62017 0.80060 0.29855
 C142 C 0.58749 0.77199 0.32465
 H143 H 0.63597 0.85041 0.44807
 H144 H 0.62906 0.79237 0.22208
 H145 H 0.69092 0.80782 0.28441
 H146 H 0.58029 0.77236 0.40262
 C147 C 0.19260 1.18545 0.42049
 C148 C 0.17893 1.20181 0.33077
 C149 C 0.14598 1.15686 0.29166
 C150 C 0.13015 1.18092 0.20794
 H151 H 0.18992 1.25323 0.28837
 H152 H 0.13392 1.10599 0.33321
 H153 H 0.17897 1.13646 0.46142
 H154 H 0.14215 1.23237 0.16725
 C155 C 0.68213 0.24496 -0.43703
 C156 C 0.67459 0.25857 -0.33988
 C157 C 0.64000 0.29872 -0.30619
 C158 C 0.63057 0.29941 -0.21041
 H159 H 0.69411 0.24501 -0.28277
 H160 H 0.62234 0.32812 -0.35949
 H161 H 0.66060 0.26104 -0.48763
 H162 H 0.64733 0.26577 -0.15854
 C163 C 0.19393 0.78417 -0.36588
 C164 C 0.17033 0.73781 -0.31527
 C165 C 0.13695 0.77790 -0.27503
 C166 C 0.11264 0.73346 -0.22439
 H167 H 0.17392 0.66893 -0.31193
 H168 H 0.13144 0.84434 -0.29058
 H169 H 0.18946 0.85244 -0.37234
 H170 H 0.11846 0.66823 -0.20481
 C171 C 0.31268 0.63604 -0.41697
 C172 C 0.32689 0.65949 -0.32802
 C173 C 0.36414 0.63306 -0.30045
 C174 C 0.38150 0.67424 -0.22516
 H175 H 0.31287 0.70415 -0.27786
 H176 H 0.37773 0.58217 -0.34338
 H177 H 0.32999 0.59666 -0.46506
 H178 H 0.36781 0.72617 -0.18424
 C179 C -0.19346 1.15151 -0.38008
 C180 C -0.15939 1.18282 -0.37525
 C181 C -0.13247 1.14583 -0.30879
 C182 C -0.10400 1.19096 -0.27263
 H183 H -0.15092 1.23393 -0.42219
 H184 H -0.13547 1.07879 -0.29181
 H185 H -0.20241 1.11229 -0.32014
 H186 H -0.10196 1.25942 -0.28271
 C187 C 0.67580 0.77760 -0.42452
 C188 C 0.66451 0.78341 -0.32979
 C189 C 0.63355 0.73152 -0.29568
 C190 C 0.61867 0.74874 -0.20666
 H191 H 0.67660 0.82981 -0.27717
 H192 H 0.62244 0.68038 -0.34414
 H193 H 0.66073 0.73452 -0.47507
 H194 H 0.62914 0.80189 -0.16011
 C195 C 0.20118 1.21012 -0.35718
 C196 C 0.16498 1.21469 -0.36994
 C197 C 0.13949 1.18666 -0.29351
 C198 C 0.10737 1.15292 -0.32117
 H199 H 0.15332 1.23899 -0.43679
 H200 H 0.14786 1.18761 -0.21630
 H201 H 0.21070 1.19425 -0.28396
 H202 H 0.10085 1.14463 -0.39953
 C203 C 0.32216 0.33428 -0.40391
 C204 C 0.34097 0.29413 -0.33494
 C205 C 0.37623 0.32912 -0.29897
 C206 C 0.39592 0.28937 -0.23155
 H207 H 0.33099 0.23407 -0.30748
 H208 H 0.38619 0.38864 -0.32803
 H209 H 0.33346 0.39253 -0.43263
 H210 H 0.38580 0.23069 -0.20098
 C211 C -0.20156 0.90214 -0.36705
 C212 C -0.18803 0.84548 -0.30523
 C213 C -0.15180 0.86163 -0.26089
 C214 C -0.13459 0.80507 -0.20579
 H215 H -0.20165 0.78446 -0.29598
 H216 H -0.13771 0.92017 -0.27931
 H217 H -0.18651 0.96088 -0.37830
 H218 H -0.14828 0.74730 -0.18350
 C219 C 0.29902 0.62414 0.37072
 C220 C 0.31465 0.67305 0.30399
 C221 C 0.34809 0.64354 0.25466
 C222 C 0.36856 0.69583 0.20201
 H223 H 0.30532 0.73822 0.29499
 H224 H 0.35793 0.57978 0.26950
 H225 H 0.30949 0.56050 0.38217
 H226 H 0.35896 0.75906 0.18451
 C227 C -0.17758 1.16165 0.40569
 C228 C -0.16433 1.18912 0.31973
 C229 C -0.12770 1.16188 0.28624
 C230 C -0.11100 1.19521 0.20843
 H231 H -0.17923 1.23419 0.27642
 H232 H -0.11399 1.11291 0.32697
 H233 H -0.15989 1.12111 0.44741
 H234 H -0.12423 1.24445 0.16720
 C235 C 0.69428 0.22909 0.34536
 C236 C 0.67734 0.30368 0.33621
 C237 C 0.64494 0.31060 0.27231
 C238 C 0.62284 0.37741 0.28743
 H239 H 0.68570 0.35864 0.38337
 H240 H 0.63785 0.25917 0.21876
 H241 H 0.68666 0.17367 0.29821
 H242 H 0.62972 0.42617 0.34452
 C243 C 0.18247 0.77903 0.42120
 C244 C 0.16446 0.74473 0.34266
 C245 C 0.13210 0.78753 0.30400
 C246 C 0.11277 0.75192 0.22880
 H247 H 0.17307 0.68406 0.30804
 H248 H 0.12394 0.84896 0.33775
 H249 H 0.17226 0.83773 0.45703
 H250 H 0.12077 0.69037 0.19520
   
