data_POSCAR
  _audit_creation_date              2014-09-24
  _audit_creation_method            'ToBaCCo'
  _symmetry_space_group_name_H-M    'P1'
  _symmetry_Int_Tables_number       1
  _symmetry_cell_setting            triclinic
  loop_
  _symmetry_equiv_pos_as_xyz
 x,y,z
_cell_length_a 27.2036
_cell_length_b 27.1878
_cell_length_c 48.4025
_cell_angle_alpha 89.898500
_cell_angle_beta 92.932100
_cell_angle_gamma 89.997800
loop_
  _atom_site_label
  _atom_site_type_symbol
  _atom_site_fract_x
  _atom_site_fract_y
  _atom_site_fract_z
C1 C -0.00291 0.39361 1.02538
 C2 C -0.00052 0.36854 1.00032
 C3 C 0.00190 0.39387 0.97533
 C4 C 0.00209 0.44581 0.97508
 C5 C -0.00044 0.47182 1.00037
 C6 C -0.00302 0.44565 1.02568
 C7 C -0.00562 0.47220 1.05049
 C8 C -0.00573 0.52340 1.05047
 C9 C -0.00313 0.55009 1.02564
 C10 C -0.00039 0.52406 1.00035
 C11 C 0.00474 0.47236 0.95026
 C12 C 0.00494 0.52356 0.95023
 C13 C 0.00239 0.55017 0.97504
 C14 C 0.00252 0.60221 0.97530
 C15 C -0.00031 0.62739 1.00030
 C16 C -0.00318 0.60213 1.02533
 H17 H -0.00764 0.45350 1.07017
 H18 H -0.00783 0.54198 1.07014
 H19 H 0.00673 0.45370 0.93060
 H20 H 0.00707 0.54219 0.93054
 H21 H -0.00052 0.32857 1.00021
 H22 H -0.00027 0.66738 1.00028
 C23 C 0.39997 0.01033 0.52652
 C24 C 0.37176 0.01055 0.50160
 C25 C 0.39389 0.01085 0.47621
 C26 C 0.44572 0.01088 0.47543
 C27 C 0.47483 0.01082 0.50063
 C28 C 0.45188 0.01062 0.52631
 C29 C 0.48137 0.01060 0.55102
 C30 C 0.53252 0.01072 0.55055
 C31 C 0.55610 0.01074 0.52533
 C32 C 0.52696 0.01077 0.50013
 C33 C 0.46917 0.01084 0.45022
 C34 C 0.52032 0.01062 0.44972
 C35 C 0.54986 0.01056 0.47443
 C36 C 0.60174 0.01018 0.47417
 C37 C 0.63004 0.01030 0.49905
 C38 C 0.60802 0.01060 0.52451
 H39 H 0.46509 0.01050 0.57097
 H40 H 0.55351 0.01071 0.57017
 H41 H 0.44812 0.01088 0.43062
 H42 H 0.53656 0.01051 0.42976
 H43 H 0.33188 0.01028 0.50198
 H44 H 0.66993 0.00997 0.49854
 C45 C 0.07812 0.00111 0.26350
 H46 H 0.08191 0.00036 0.24136
 C47 C 0.12004 0.00365 0.28144
 H48 H 0.15628 0.00462 0.27316
 C49 C 0.02641 0.00129 0.30149
 H50 H -0.01001 0.00120 0.30933
 C51 C 0.06721 0.00388 0.32008
 H52 H 0.06197 0.00514 0.34211
 N53 N 0.03247 -0.00085 0.27378
 C54 C -0.06354 -0.07279 0.21102
 H55 H -0.09426 -0.04747 0.21039
 C56 C -0.06434 -0.11342 0.19341
 H57 H -0.09570 -0.11941 0.17910
 C58 C 0.01563 -0.09508 0.22975
 H59 H 0.04673 -0.08786 0.24391
 C60 C 0.01633 -0.13618 0.21247
 H61 H 0.04819 -0.16014 0.21315
 Zn62 Zn -0.02356 -0.00450 0.24885
 N63 N -0.02338 -0.06364 0.22816
 C64 C -0.02057 0.04274 0.19684
 N65 N -0.02167 0.05029 0.22459
 C66 C -0.01948 0.09653 0.23538
 C67 C -0.01751 0.13750 0.21793
 C68 C -0.01860 0.08254 0.17873
 C69 C -0.08932 -0.04377 0.28527
 C70 C -0.12875 -0.04438 0.30261
 C71 C -0.15325 0.03562 0.28495
 C72 C -0.11330 0.03474 0.26789
 N73 N -0.08154 -0.00401 0.26895
 H74 H -0.02079 0.00589 0.18861
 H75 H -0.01934 0.10152 0.25756
 H76 H -0.01610 0.17419 0.22661
 H77 H -0.01795 0.07609 0.15666
 H78 H -0.06375 -0.07426 0.28551
 H79 H -0.13357 -0.07540 0.31630
 H80 H -0.17740 0.06732 0.28475
 H81 H -0.10712 0.06553 0.25439
 C82 C -0.02369 -0.14492 0.19382
 C83 C 0.11442 0.00477 0.31000
 C84 C -0.16049 -0.00397 0.30279
 C85 C -0.01726 0.13031 0.18932
 C86 C 0.01910 0.09615 0.76422
 H87 H 0.01907 0.10123 0.74205
 C88 C 0.01702 0.13703 0.78165
 H89 H 0.01564 0.17377 0.77295
 C90 C 0.02004 0.04218 0.80279
 H91 H 0.02025 0.00529 0.81104
 C92 C 0.01797 0.08190 0.82088
 H93 H 0.01723 0.07535 0.84294
 N94 N 0.02127 0.04986 0.77504
 C95 C 0.08933 -0.04389 0.71454
 H96 H 0.06377 -0.07439 0.71427
 C97 C 0.12892 -0.04442 0.69731
 H98 H 0.13387 -0.07538 0.68367
 C99 C 0.11317 0.03454 0.73194
 H100 H 0.10689 0.06527 0.74540
 C101 C 0.15327 0.03550 0.71499
 H102 H 0.17743 0.06719 0.71524
 Zn103 Zn 0.02334 -0.00484 0.75083
 N104 N 0.08142 -0.00421 0.73083
 C105 C -0.02649 0.00099 0.69814
 N106 N -0.03262 -0.00120 0.72585
 C107 C -0.07830 0.00069 0.73608
 C108 C -0.12018 0.00322 0.71810
 C109 C -0.06724 0.00356 0.67951
 C110 C 0.06332 -0.07317 0.78878
 C111 C 0.06409 -0.11377 0.80649
 C112 C -0.01653 -0.13657 0.78743
 C113 C -0.01581 -0.09549 0.77004
 N114 N 0.02318 -0.06403 0.77160
 H115 H 0.00996 0.00095 0.69033
 H116 H -0.08215 -0.00010 0.75821
 H117 H -0.15644 0.00413 0.72635
 H118 H -0.06195 0.00486 0.65749
 H119 H 0.09402 -0.04783 0.78938
 H120 H 0.09542 -0.11974 0.82084
 H121 H -0.04839 -0.16052 0.78678
 H122 H -0.04689 -0.08827 0.75586
 C123 C 0.16067 -0.00401 0.69720
 C124 C 0.01665 0.12971 0.81025
 C125 C 0.02345 -0.14527 0.80612
 C126 C -0.11448 0.00438 0.68955
 C127 C -0.01156 -0.31094 0.09243
 C128 C -0.03682 -0.33256 0.11739
 C129 C -0.03956 -0.30043 0.13890
 C130 C -0.01676 -0.24994 0.13327
 C131 C -0.04315 -0.23186 0.10637
 C132 C -0.04042 -0.26388 0.08493
 C133 C 0.03886 -0.29307 0.10406
 C134 C 0.03613 -0.26101 0.12552
 C135 C -0.00856 -0.34458 0.06893
 C136 C -0.00605 -0.37044 0.04884
 C137 C -0.01958 -0.21455 0.15597
 C138 C -0.02162 -0.18369 0.17373
 H139 H -0.05119 -0.36976 0.11811
 H140 H -0.05629 -0.31010 0.15805
 H141 H -0.06239 -0.19695 0.10435
 H142 H -0.05731 -0.25638 0.06455
 H143 H 0.07366 -0.30468 0.09617
 H144 H 0.06859 -0.24515 0.13602
 C145 C -0.00864 0.30443 0.09184
 C146 C -0.00670 0.25084 0.08209
 C147 C -0.00843 0.21746 0.10297
 C148 C -0.01195 0.24078 0.13163
 C149 C -0.05731 0.27441 0.12900
 C150 C -0.05557 0.30792 0.10806
 C151 C 0.03399 0.30935 0.11371
 C152 C 0.03225 0.27585 0.13466
 C153 C -0.00672 0.33940 0.06882
 C154 C -0.00501 0.36591 0.04890
 C155 C -0.01381 0.20374 0.15362
 C156 C -0.01536 0.17126 0.17054
 H157 H -0.00417 0.24003 0.06062
 H158 H -0.00739 0.17807 0.09936
 H159 H -0.08799 0.27221 0.14244
 H160 H -0.08474 0.33442 0.10355
 H161 H 0.06287 0.33679 0.11286
 H162 H 0.05964 0.27457 0.15176
 C163 C 0.31858 0.00593 0.59576
 C164 C 0.29101 0.05420 0.60046
 C165 C 0.26085 0.05230 0.62205
 C166 C 0.26119 0.00230 0.63684
 C167 C 0.31552 -0.00752 0.64526
 C168 C 0.34575 -0.00560 0.62362
 C169 C 0.27826 -0.03338 0.59246
 C170 C 0.24813 -0.03529 0.61403
 C171 C 0.35007 0.00786 0.57208
 C172 C 0.37390 0.00916 0.55177
 C173 C 0.22770 0.00018 0.65962
 C174 C 0.19816 -0.00169 0.67733
 H175 H 0.29493 0.08705 0.58798
 H176 H 0.23894 0.08352 0.62806
 H177 H 0.32902 -0.01523 0.66632
 H178 H 0.38517 -0.01167 0.62612
 H179 H 0.27380 -0.05770 0.57474
 H180 H 0.21788 -0.06124 0.61477
 C181 C -0.29599 0.00941 0.59088
 C182 C -0.30244 0.04988 0.61249
 C183 C -0.26714 0.04917 0.63357
 C184 C -0.22895 0.00807 0.63090
 C185 C -0.20839 0.01561 0.60227
 C186 C -0.24356 0.01631 0.58128
 C187 C -0.29438 -0.03890 0.60738
 C188 C -0.25911 -0.03960 0.62843
 C189 C -0.33302 0.01005 0.56778
 C190 C -0.36158 0.01039 0.54789
 C191 C -0.19014 0.00716 0.65308
 C192 C -0.15651 0.00609 0.67028
 H193 H -0.33214 0.07660 0.61138
 H194 H -0.26658 0.07530 0.65052
 H195 H -0.16952 0.02004 0.59879
 H196 H -0.23481 0.02135 0.55981
 H197 H -0.31886 -0.06975 0.60297
 H198 H -0.25337 -0.07106 0.64206
 C199 C 0.01106 -0.31090 0.90802
 C200 C -0.03933 -0.29287 0.89639
 C201 C -0.03654 -0.26089 0.87483
 C202 C 0.01635 -0.25006 0.86699
 C203 C 0.03895 -0.30066 0.86149
 C204 C 0.03616 -0.33271 0.88310
 C205 C 0.04012 -0.26394 0.91535
 C206 C 0.04290 -0.23200 0.89381
 C207 C 0.00800 -0.34447 0.93161
 C208 C 0.00544 -0.37031 0.95176
 C209 C 0.01923 -0.21476 0.84418
 C210 C 0.02132 -0.18398 0.82632
 H211 H -0.07413 -0.30431 0.90435
 H212 H -0.06897 -0.24493 0.86431
 H213 H 0.05559 -0.31046 0.84235
 H214 H 0.05039 -0.36997 0.88248
 H215 H 0.05710 -0.25644 0.93570
 H216 H 0.06228 -0.19716 0.89572
 C217 C 0.00774 0.30339 0.90763
 C218 C 0.03939 0.32013 0.88396
 C219 C 0.04118 0.28669 0.86303
 C220 C 0.01113 0.23991 0.86788
 C221 C -0.04108 0.25816 0.87284
 C222 C -0.04286 0.29154 0.89374
 C223 C 0.02912 0.25344 0.91685
 C224 C 0.03090 0.22014 0.89600
 C225 C 0.00579 0.33827 0.93061
 C226 C 0.00409 0.36477 0.95048
 C227 C 0.01304 0.20297 0.84591
 C228 C 0.01465 0.17057 0.82901
 H229 H 0.05857 0.35513 0.88365
 H230 H 0.06189 0.29303 0.84477
 H231 H -0.07375 0.24606 0.86093
 H232 H -0.07706 0.30804 0.89974
 H233 H 0.04183 0.24496 0.93796
 H234 H 0.04514 0.18315 0.89925
 C235 C -0.31733 0.00585 0.40475
 C236 C -0.26582 -0.01447 0.41246
 C237 C -0.23592 -0.01636 0.39081
 C238 C -0.26034 0.00224 0.36349
 C239 C -0.27839 0.05433 0.36984
 C240 C -0.30837 0.05622 0.39154
 C241 C -0.33735 -0.02677 0.38086
 C242 C -0.30734 -0.02867 0.35914
 C243 C -0.34860 0.00776 0.42852
 C244 C -0.37229 0.00904 0.44888
 C245 C -0.22710 0.00014 0.34060
 C246 C -0.19776 -0.00170 0.32279
 H247 H -0.25386 -0.02638 0.43315
 H248 H -0.19836 -0.02990 0.39297
 H249 H -0.26861 0.08682 0.35826
 H250 H -0.32426 0.09033 0.39856
 H251 H -0.37203 -0.04650 0.38098
 H252 H -0.31630 -0.05004 0.34064
 C253 C 0.29605 0.00978 0.40858
 C254 C 0.31602 -0.00335 0.38041
 C255 C 0.28069 -0.00405 0.35934
 C256 C 0.22898 0.00846 0.36858
 C257 C 0.23446 0.05858 0.38296
 C258 C 0.26972 0.05927 0.40398
 C259 C 0.25479 -0.02750 0.41286
 C260 C 0.21958 -0.02820 0.39186
 C261 C 0.33313 0.01041 0.43166
 C262 C 0.36178 0.01071 0.45150
 C263 C 0.19014 0.00757 0.34642
 C264 C 0.15648 0.00649 0.32924
 H265 H 0.35445 -0.01133 0.37729
 H266 H 0.28882 -0.01262 0.33816
 H267 H 0.21266 0.09074 0.37709
 H268 H 0.27811 0.09203 0.41612
 H269 H 0.25338 -0.05137 0.43081
 H270 H 0.18803 -0.05266 0.39184
   
