data_POSCAR
  _audit_creation_date              2014-09-24
  _audit_creation_method            'ToBaCCo'
  _symmetry_space_group_name_H-M    'P1'
  _symmetry_Int_Tables_number       1
  _symmetry_cell_setting            triclinic
  loop_
  _symmetry_equiv_pos_as_xyz
 x,y,z
_cell_length_a 33.0815
_cell_length_b 33.2233
_cell_length_c 24.9942
_cell_angle_alpha 89.903900
_cell_angle_beta 90.886700
_cell_angle_gamma 90.043500
loop_
  _atom_site_label
  _atom_site_type_symbol
  _atom_site_fract_x
  _atom_site_fract_y
  _atom_site_fract_z
C1 C 1.27885 0.21053 0.26383
 C2 C 1.24514 0.23014 0.24161
 C3 C 1.21235 0.20762 0.22253
 C4 C 1.21340 0.16558 0.22540
 C5 C 1.24663 0.14610 0.24950
 C6 C 1.27927 0.16860 0.27088
 C7 C 1.24472 0.27434 0.23948
 C8 C 1.27770 0.29457 0.21771
 C9 C 1.28157 0.33656 0.22176
 C10 C 1.25038 0.35815 0.24674
 C11 C 1.21732 0.33797 0.26947
 C12 C 1.21425 0.29611 0.26476
 H13 H 1.30481 0.22832 0.27628
 H14 H 1.18637 0.22268 0.20473
 H15 H 1.30158 0.27697 0.19992
 H16 H 1.18955 0.28031 0.28359
 H17 H 1.24607 0.11360 0.25322
 H18 H 1.25166 0.39070 0.24894
 C19 C 0.78280 -0.29272 0.27061
 C20 C 0.74773 -0.27396 0.25069
 C21 C 0.71494 -0.29726 0.23342
 C22 C 0.71608 -0.33916 0.23745
 C23 C 0.75115 -0.35789 0.25769
 C24 C 0.78535 -0.33505 0.27335
 C25 C 0.74495 -0.22992 0.24646
 C26 C 0.77365 -0.20812 0.21776
 C27 C 0.76919 -0.16652 0.21089
 C28 C 0.73616 -0.14663 0.23318
 C29 C 0.70723 -0.16831 0.26196
 C30 C 0.71209 -0.20987 0.26893
 H31 H 0.80837 -0.27422 0.28261
 H32 H 0.68868 -0.28264 0.21562
 H33 H 0.79901 -0.22352 0.20001
 H34 H 0.69039 -0.22664 0.29221
 H35 H 0.75143 -0.39037 0.26176
 H36 H 0.73302 -0.11436 0.22819
 C37 C 0.78068 0.20630 -0.23014
 C38 C 0.74876 0.22677 -0.25552
 C39 C 0.71564 0.20508 -0.27579
 C40 C 0.71351 0.16327 -0.26937
 C41 C 0.74557 0.14290 -0.24374
 C42 C 0.77909 0.16444 -0.22411
 C43 C 0.74763 0.27100 -0.25533
 C44 C 0.77986 0.29405 -0.27456
 C45 C 0.77860 0.33651 -0.27226
 C46 C 0.74661 0.35461 -0.24420
 C47 C 0.71419 0.33159 -0.22539
 C48 C 0.71410 0.29010 -0.23367
 H49 H 0.80620 0.22295 -0.21376
 H50 H 0.69125 0.22088 -0.29628
 H51 H 0.80449 0.27872 -0.29403
 H52 H 0.68863 0.27229 -0.22046
 H53 H 0.74455 0.11046 -0.23930
 H54 H 0.74676 0.38677 -0.23700
 C55 C 1.28080 -0.28419 -0.21508
 C56 C 1.24813 -0.26370 -0.23816
 C57 C 1.21476 -0.28516 -0.25814
 C58 C 1.21408 -0.32732 -0.25521
 C59 C 1.24723 -0.34772 -0.23204
 C60 C 1.28018 -0.32620 -0.21001
 C61 C 1.24822 -0.21962 -0.23754
 C62 C 1.27846 -0.19794 -0.26366
 C63 C 1.27978 -0.15585 -0.25999
 C64 C 1.25199 -0.13588 -0.22743
 C65 C 1.22133 -0.15750 -0.20225
 C66 C 1.21933 -0.19929 -0.20775
 H67 H 1.30661 -0.26716 -0.20025
 H68 H 1.18965 -0.26909 -0.27656
 H69 H 1.30033 -0.21377 -0.28767
 H70 H 1.19568 -0.21605 -0.18797
 H71 H 1.24653 -0.38029 -0.22936
 H72 H 1.25306 -0.10339 -0.22371
 C73 C 0.20273 0.27615 0.72925
 C74 C 0.22468 0.24519 0.75426
 C75 C 0.20409 0.21224 0.77618
 C76 C 0.16145 0.20995 0.77361
 C77 C 0.14001 0.24191 0.74870
 C78 C 0.16054 0.27432 0.72540
 C79 C 0.26931 0.24641 0.75352
 C80 C 0.29031 0.27966 0.77442
 C81 C 0.33221 0.28458 0.76641
 C82 C 0.35275 0.25426 0.73780
 C83 C 0.33176 0.22096 0.71633
 C84 C 0.29038 0.21657 0.72626
 H85 H 0.21860 0.30109 0.71097
 H86 H 0.22145 0.18914 0.79681
 H87 H 0.27368 0.30146 0.79758
 H88 H 0.27403 0.19106 0.70967
 H89 H 0.10734 0.24076 0.74505
 H90 H 0.38461 0.25757 0.72936
 C91 C 0.69756 0.77756 0.71195
 C92 C 0.71901 0.74963 0.74304
 C93 C 0.69820 0.72266 0.77565
 C94 C 0.65574 0.72400 0.77845
 C95 C 0.63450 0.75208 0.74625
 C96 C 0.65500 0.77917 0.71244
 C97 C 0.76350 0.74982 0.74214
 C98 C 0.78477 0.78296 0.76289
 C99 C 0.82712 0.78436 0.76114
 C100 C 0.84813 0.75192 0.73857
 C101 C 0.82702 0.71860 0.71785
 C102 C 0.78469 0.71763 0.71977
 H103 H 0.71449 0.79737 0.68604
 H104 H 0.71516 0.70060 0.79881
 H105 H 0.76831 0.80733 0.78138
 H106 H 0.76831 0.69193 0.70384
 H107 H 0.60205 0.75459 0.75054
 H108 H 0.88088 0.75230 0.73783
 C109 C 0.71017 0.27978 0.23407
 C110 C 0.72895 0.24841 0.26265
 C111 C 0.70543 0.21720 0.28331
 C112 C 0.66352 0.21676 0.27498
 C113 C 0.64505 0.24725 0.24428
 C114 C 0.66840 0.27854 0.22259
 C115 C 0.77339 0.24651 0.26764
 C116 C 0.79539 0.27861 0.28974
 C117 C 0.83767 0.27690 0.29305
 C118 C 0.85809 0.24298 0.27378
 C119 C 0.83632 0.21061 0.25128
 C120 C 0.79397 0.21274 0.24834
 H121 H 0.72839 0.30408 0.21832
 H122 H 0.71981 0.19296 0.30561
 H123 H 0.77967 0.30498 0.30417
 H124 H 0.77702 0.18863 0.22926
 H125 H 0.61275 0.24614 0.23653
 H126 H 0.89083 0.24214 0.27537
 C127 C 0.20865 0.77707 0.23028
 C128 C 0.22936 0.74596 0.25643
 C129 C 0.20811 0.71814 0.28706
 C130 C 0.16584 0.72096 0.29265
 C131 C 0.14519 0.75188 0.26431
 C132 C 0.16622 0.77965 0.23199
 C133 C 0.27372 0.74360 0.25423
 C134 C 0.29709 0.77269 0.28065
 C135 C 0.33930 0.76971 0.28205
 C136 C 0.35835 0.73802 0.25527
 C137 C 0.33510 0.70866 0.22849
 C138 C 0.29273 0.71151 0.22825
 H139 H 0.22581 0.79931 0.20838
 H140 H 0.22519 0.69535 0.30872
 H141 H 0.28239 0.79716 0.30138
 H142 H 0.27463 0.68862 0.20838
 H143 H 0.11245 0.75270 0.26434
 H144 H 0.39102 0.73569 0.25628
 N145 N 1.03695 0.03739 0.10297
 N146 N 1.06467 0.04460 0.14020
 N147 N 0.95159 0.06617 0.06439
 N148 N 0.92891 0.09688 0.07834
 N149 N 0.95242 0.03878 0.10241
 N150 N 0.93051 0.05077 0.14329
 N151 N 1.03641 0.06620 0.06683
 N152 N 1.06383 0.09376 0.07865
 C153 C 1.08110 0.07994 0.12462
 C154 C 0.91504 0.08666 0.12707
 N155 N 0.95176 0.04011 -0.08892
 N156 N 0.92515 0.04849 -0.12703
 N157 N 1.03638 0.06860 -0.04872
 N158 N 1.06010 0.09921 -0.06035
 N159 N 1.03653 0.04182 -0.08733
 N160 N 1.06049 0.05380 -0.12619
 N161 N 0.95145 0.06777 -0.05140
 N162 N 0.92447 0.09585 -0.06326
 Mn163 Mn 0.99391 0.06744 0.00781
 C164 C 0.90837 0.08331 -0.11061
 C165 C 1.07584 0.08922 -0.10811
 N166 N 0.95145 -0.04831 0.09866
 N167 N 0.91948 -0.05275 0.12900
 N168 N 1.03653 -0.07618 0.06212
 N169 N 1.06173 -0.10593 0.07226
 N170 N 1.03658 -0.05018 0.10158
 N171 N 1.06186 -0.06217 0.14015
 N172 N 0.95175 -0.07568 0.06085
 N173 N 0.92015 -0.09964 0.06469
 Mn174 Mn 0.99441 -0.00564 0.10200
 C175 C 0.90001 -0.08475 0.10704
 C176 C 1.07815 -0.09655 0.12034
 N177 N 1.03707 -0.04502 -0.08864
 N178 N 1.06812 -0.04888 -0.12058
 N179 N 0.95206 -0.07420 -0.05385
 N180 N 0.92809 -0.10427 -0.06737
 N181 N 0.95245 -0.04682 -0.09173
 N182 N 0.92897 -0.05814 -0.13237
 N183 N 1.03719 -0.07340 -0.05202
 N184 N 1.06872 -0.09721 -0.05758
 Mn185 Mn 0.99445 -0.00249 -0.08960
 Mn186 Mn 0.99435 -0.07513 0.00427
 Cl187 Cl 0.99427 -0.00386 0.00617
 C188 C 1.08756 -0.08136 -0.10039
 C189 C 0.91304 -0.09368 -0.11593
 N190 N 1.07110 0.54344 0.56864
 N191 N 1.10078 0.56810 0.58141
 N192 N 1.04286 0.45766 0.60453
 N193 N 1.04721 0.42594 0.63607
 N194 N 1.07159 0.45875 0.56890
 N195 N 1.09630 0.42792 0.57544
 N196 N 1.04407 0.54240 0.60648
 N197 N 1.05534 0.56619 0.64651
 C198 C 1.09044 0.58284 0.62955
 C199 C 1.08056 0.40735 0.61709
 N200 N 0.92906 0.45810 0.56122
 N201 N 0.89682 0.43696 0.57328
 N202 N 0.95640 0.54279 0.60163
 N203 N 0.94776 0.56981 0.63832
 N204 N 0.92877 0.54271 0.56327
 N205 N 0.90053 0.56969 0.57314
 N206 N 0.95498 0.45852 0.60168
 N207 N 0.94023 0.43802 0.64256
 Mn208 Mn 0.99965 0.50033 0.60413
 C209 C 0.90416 0.42426 0.62370
 C210 C 0.91271 0.58632 0.62023
 N211 N 1.07363 0.45973 0.45442
 N212 N 1.10587 0.43861 0.44279
 N213 N 1.04527 0.54511 0.41571
 N214 N 1.05118 0.57531 0.38237
 N215 N 1.07294 0.54475 0.45395
 N216 N 1.09868 0.57475 0.44748
 N217 N 1.04835 0.46092 0.41340
 N218 N 1.06394 0.44148 0.37224
 Mn219 Mn 1.07251 0.50169 0.51155
 C220 C 1.09991 0.42751 0.39153
 C221 C 1.08441 0.59365 0.40296
 N222 N 0.93050 0.54333 0.44769
 N223 N 0.89986 0.56647 0.43323
 N224 N 0.96021 0.45896 0.41041
 N225 N 0.95383 0.43068 0.37421
 N226 N 0.93149 0.45871 0.44616
 N227 N 0.90493 0.43008 0.43534
 N228 N 0.95829 0.54330 0.41071
 N229 N 0.94702 0.56639 0.37004
 Mn230 Mn 0.92977 0.50074 0.50455
 Mn231 Mn 1.00300 0.50199 0.41211
 Cl232 Cl 1.00117 0.50113 0.50811
 C233 C 0.91081 0.58111 0.38521
 C234 C 0.91914 0.41298 0.39022
 N235 N 0.56547 0.04421 0.55018
 N236 N 0.59642 0.06725 0.56326
 N237 N 0.53720 -0.04005 0.59083
 N238 N 0.54180 -0.07044 0.62446
 N239 N 0.56567 -0.04027 0.55471
 N240 N 0.59066 -0.07065 0.56310
 N241 N 0.53849 0.04438 0.58817
 N242 N 0.55101 0.06730 0.62835
 C243 C 0.58676 0.08230 0.61152
 C244 C 0.57522 -0.08923 0.60649
 N245 N 0.42340 -0.04158 0.55025
 N246 N 0.39148 -0.06242 0.56435
 N247 N 0.45087 0.04503 0.58500
 N248 N 0.44426 0.07569 0.61727
 N249 N 0.42256 0.04297 0.54777
 N250 N 0.39588 0.07197 0.55425
 N251 N 0.44967 -0.03929 0.59013
 N252 N 0.43552 -0.05808 0.63269
 Mn253 Mn 0.49412 0.00256 0.58906
 C254 C 0.39935 -0.07267 0.61559
 C255 C 0.40986 0.09275 0.59732
 N256 N 0.56637 -0.04263 0.43962
 N257 N 0.59661 -0.06696 0.42912
 N258 N 0.53742 0.04087 0.39749
 N259 N 0.54457 0.06789 0.36011
 N260 N 0.56560 0.04190 0.43504
 N261 N 0.59275 0.06978 0.42409
 N262 N 0.53930 -0.04341 0.40071
 N263 N 0.55070 -0.06827 0.36259
 Mn264 Mn 0.56608 0.00082 0.49495
 C265 C 0.58608 -0.08355 0.38160
 C266 C 0.57927 0.08563 0.37706
 N267 N 0.42329 0.04017 0.43302
 N268 N 0.39481 0.06659 0.42187
 N269 N 0.45253 -0.04507 0.39927
 N270 N 0.44929 -0.07734 0.36889
 N271 N 0.42430 -0.04462 0.43555
 N272 N 0.40091 -0.07667 0.43063
 N273 N 0.45022 0.03924 0.39505
 N274 N 0.44026 0.06468 0.35628
 Mn275 Mn 0.42309 -0.00079 0.49153
 Mn276 Mn 0.49481 -0.00205 0.39758
 Cl277 Cl 0.49455 0.00017 0.49336
 C278 C 0.40609 0.08206 0.37449
 C279 C 0.41711 -0.09702 0.38911
 N280 N 0.57143 0.53995 0.05456
 N281 N 0.60160 0.56371 0.06857
 N282 N 0.54583 0.45293 0.08694
 N283 N 0.55472 0.42345 0.12060
 N284 N 0.57339 0.45566 0.04997
 N285 N 0.60162 0.42818 0.05779
 N286 N 0.54513 0.53726 0.09321
 N287 N 0.55720 0.55902 0.13474
 C288 C 0.59200 0.57623 0.11814
 C289 C 0.58963 0.40775 0.10168
 N290 N 0.43024 0.45257 0.05018
 N291 N 0.39879 0.43071 0.06370
 N292 N 0.45775 0.53608 0.09347
 N293 N 0.45017 0.56191 0.13206
 N294 N 0.42890 0.53685 0.05679
 N295 N 0.40084 0.56330 0.06966
 N296 N 0.45808 0.45193 0.08834
 N297 N 0.44577 0.42972 0.12889
 Mn298 Mn 0.50172 0.49448 0.09091
 C299 C 0.40901 0.41630 0.11240
 C300 C 0.41448 0.57863 0.11688
 N301 N 0.57114 0.46010 -0.06450
 N302 N 0.59933 0.43351 -0.07482
 N303 N 0.54051 0.54574 -0.09689
 N304 N 0.54445 0.57792 -0.12749
 N305 N 0.56938 0.54452 -0.06034
 N306 N 0.59394 0.57552 -0.06566
 N307 N 0.54376 0.46117 -0.10303
 N308 N 0.55309 0.43551 -0.14134
 Mn309 Mn 0.57161 0.50008 -0.00518
 C310 C 0.58744 0.41798 -0.12230
 C311 C 0.57780 0.59664 -0.10721
 N312 N 0.42730 0.54092 -0.05805
 N313 N 0.39800 0.56708 -0.06569
 N314 N 0.45635 0.45810 -0.10218
 N315 N 0.44919 0.43091 -0.13968
 N316 N 0.42864 0.45648 -0.06511
 N317 N 0.40171 0.42827 -0.07667
 N318 N 0.45329 0.54248 -0.09714
 N319 N 0.44185 0.56959 -0.13310
 Mn320 Mn 0.42854 0.49671 -0.00415
 Mn321 Mn 0.49850 0.50188 -0.10052
 Cl322 Cl 0.50005 0.49822 -0.00466
 C323 C 0.40782 0.58525 -0.11194
 C324 C 0.41519 0.41234 -0.12298
 C325 C 1.14978 0.12406 0.23516
 C326 C 1.17943 0.14215 0.20273
 C327 C 1.17578 0.14005 0.14705
 C328 C 1.14359 0.11985 0.12296
 C329 C 1.11389 0.10122 0.15377
 C330 C 1.11629 0.10385 0.21058
 C331 C 1.15209 0.12676 0.29150
 C332 C 1.12191 0.11028 0.32305
 C333 C 1.08867 0.09148 0.29922
 C334 C 1.08556 0.08852 0.24365
 H335 H 1.17696 0.14191 0.31161
 H336 H 1.12402 0.11264 0.36619
 H337 H 1.06492 0.07947 0.32393
 H338 H 1.05838 0.07502 0.22745
 H339 H 1.19815 0.15423 0.12199
 H340 H 1.14206 0.11846 0.07966
 C341 C 1.13895 0.65565 0.73248
 C342 C 1.18028 0.64962 0.71987
 C343 C 1.19025 0.62199 0.68023
 C344 C 1.16050 0.60102 0.65241
 C345 C 1.11930 0.60690 0.66260
 C346 C 1.10809 0.63480 0.70279
 C347 C 1.12762 0.68163 0.77426
 C348 C 1.08699 0.68860 0.78489
 C349 C 1.05694 0.66992 0.75427
 C350 C 1.06721 0.64334 0.71355
 H351 H 1.14995 0.69654 0.79932
 H352 H 1.07876 0.70881 0.81684
 H353 H 1.02545 0.67597 0.76222
 H354 H 1.04273 0.63023 0.69050
 H355 H 1.22157 0.61701 0.66996
 H356 H 1.17013 0.57981 0.62231
 C357 C 0.63810 0.15038 0.71694
 C358 C 0.67911 0.14090 0.70650
 C359 C 0.68805 0.11217 0.66779
 C360 C 0.65750 0.09386 0.63815
 C361 C 0.61672 0.10363 0.64578
 C362 C 0.60659 0.13229 0.68549
 C363 C 0.62775 0.17740 0.75804
 C364 C 0.58755 0.18792 0.76634
 C365 C 0.55700 0.17184 0.73400
 C366 C 0.56626 0.14438 0.69386
 H367 H 0.65052 0.19041 0.78431
 H368 H 0.58010 0.20888 0.79779
 H369 H 0.52591 0.18063 0.74010
 H370 H 0.54151 0.13341 0.66931
 H371 H 0.71917 0.10471 0.65919
 H372 H 0.66607 0.07180 0.60854
 C373 C 0.64106 0.64435 0.22527
 C374 C 0.68240 0.63677 0.21418
 C375 C 0.69222 0.60888 0.17469
 C376 C 0.66228 0.58975 0.14491
 C377 C 0.62124 0.59787 0.15306
 C378 C 0.61017 0.62551 0.19354
 C379 C 0.62976 0.67031 0.26713
 C380 C 0.58923 0.67939 0.27559
 C381 C 0.55924 0.66266 0.24293
 C382 C 0.56943 0.63598 0.20228
 H383 H 0.65206 0.68363 0.29381
 H384 H 0.58107 0.69972 0.30746
 H385 H 0.52787 0.67030 0.24922
 H386 H 0.54506 0.62434 0.17759
 H387 H 0.72352 0.60289 0.16531
 H388 H 0.67152 0.56853 0.11459
 C389 C 0.80254 -0.14582 0.12469
 C390 C 0.79971 -0.14372 0.18107
 C391 C 0.82696 -0.12003 0.21037
 C392 C 0.85825 -0.10010 0.18509
 C393 C 0.86313 -0.10297 0.12959
 C394 C 0.83402 -0.12457 0.09840
 C395 C 0.77424 -0.16803 0.09386
 C396 C 0.77641 -0.16879 0.03823
 C397 C 0.80623 -0.14698 0.01232
 C398 C 0.83455 -0.12477 0.04183
 H399 H 0.74996 -0.18457 0.11238
 H400 H 0.75444 -0.18585 0.01507
 H401 H 0.80721 -0.14694 -0.03097
 H402 H 0.85581 -0.10705 0.01950
 H403 H 0.82471 -0.11800 0.25350
 H404 H 0.87972 -0.08340 0.20957
 C405 C 0.79993 0.39675 0.67473
 C406 C 0.80885 0.36020 0.70288
 C407 C 0.84954 0.34750 0.70628
 C408 C 0.88054 0.36968 0.68314
 C409 C 0.87229 0.40576 0.65653
 C410 C 0.83216 0.42076 0.65494
 C411 C 0.75983 0.40878 0.66184
 C412 C 0.75183 0.44593 0.63797
 C413 C 0.78344 0.47152 0.62505
 C414 C 0.82325 0.45907 0.63295
 H415 H 0.73418 0.38943 0.66859
 H416 H 0.72093 0.45490 0.62951
 H417 H 0.77711 0.50071 0.60753
 H418 H 0.84691 0.47982 0.62186
 H419 H 0.85781 0.32032 0.72777
 H420 H 0.91110 0.35799 0.68478
 C421 C 0.29720 -0.10130 0.67305
 C422 C 0.30933 -0.13269 0.70838
 C423 C 0.35052 -0.14194 0.71441
 C424 C 0.37961 -0.12121 0.68551
 C425 C 0.36838 -0.09009 0.65064
 C426 C 0.32714 -0.07831 0.64651
 C427 C 0.25596 -0.09257 0.66268
 C428 C 0.24467 -0.05958 0.63139
 C429 C 0.27404 -0.03476 0.60974
 C430 C 0.31485 -0.04385 0.61713
 H431 H 0.23199 -0.11115 0.67814
 H432 H 0.21298 -0.05296 0.62448
 H433 H 0.26517 -0.00849 0.58672
 H434 H 0.33644 -0.02304 0.60059
 H435 H 0.36020 -0.16578 0.74132
 H436 H 0.41100 -0.13020 0.68941
 C437 C 0.33709 0.38822 0.22520
 C438 C 0.31575 0.35591 0.19970
 C439 C 0.32879 0.34291 0.14923
 C440 C 0.36002 0.36211 0.12310
 C441 C 0.37967 0.39514 0.14597
 C442 C 0.36805 0.40904 0.19710
 C443 C 0.33023 0.39898 0.27896
 C444 C 0.34934 0.43217 0.30212
 C445 C 0.37640 0.45490 0.27269
 C446 C 0.38597 0.44345 0.22082
 H447 H 0.31097 0.38131 0.30406
 H448 H 0.34313 0.44025 0.34312
 H449 H 0.39070 0.48104 0.29053
 H450 H 0.40741 0.46198 0.19993
 H451 H 0.31333 0.31885 0.12804
 H452 H 0.36820 0.35168 0.08363
 C453 C 0.84637 0.12896 -0.22624
 C454 C 0.81292 0.14332 -0.19739
 C455 C 0.81240 0.13950 -0.14168
 C456 C 0.84417 0.12085 -0.11423
 C457 C 0.87733 0.10553 -0.14174
 C458 C 0.87926 0.11046 -0.19820
 C459 C 0.84804 0.13319 -0.28239
 C460 C 0.88177 0.12026 -0.31027
 C461 C 0.91453 0.10340 -0.28284
 C462 C 0.91356 0.09874 -0.22741
 H463 H 0.82344 0.14671 -0.30512
 H464 H 0.88271 0.12380 -0.35329
 H465 H 0.94098 0.09414 -0.30459
 H466 H 0.94036 0.08680 -0.20799
 H467 H 0.78707 0.15093 -0.11934
 H468 H 0.84245 0.11760 -0.07118
 C469 C 0.83685 0.60983 0.27232
 C470 C 0.82054 0.64590 0.29429
 C471 C 0.83845 0.66162 0.34126
 C472 C 0.86861 0.64072 0.36890
 C473 C 0.88272 0.60382 0.35024
 C474 C 0.86721 0.58805 0.30140
 C475 C 0.82508 0.59579 0.22098
 C476 C 0.83967 0.55945 0.20129
 C477 C 0.86674 0.53665 0.23171
 C478 C 0.88062 0.55074 0.28116
 H479 H 0.80508 0.61302 0.19513
 H480 H 0.82989 0.54893 0.16222
 H481 H 0.87757 0.50819 0.21654
 H482 H 0.90192 0.53207 0.30297
 H483 H 0.82705 0.68890 0.35930
 H484 H 0.88016 0.65290 0.40633
 C485 C 0.33153 0.16544 0.34446
 C486 C 0.31228 0.14952 0.29726
 C487 C 0.32771 0.11389 0.27495
 C488 C 0.36078 0.09423 0.29783
 C489 C 0.37973 0.10936 0.34378
 C490 C 0.36643 0.14591 0.36618
 C491 C 0.31545 0.19828 0.37337
 C492 C 0.33624 0.21468 0.41712
 C493 C 0.37223 0.19748 0.43516
 C494 C 0.38677 0.16283 0.41088
 H495 H 0.28633 0.21120 0.36360
 H496 H 0.32388 0.24035 0.43788
 H497 H 0.38810 0.21013 0.46941
 H498 H 0.41416 0.14946 0.42719
 H499 H 0.31451 0.10121 0.23879
 H500 H 0.37050 0.06590 0.28088
 C501 C 0.32855 0.66605 -0.13348
 C502 C 0.31252 0.65372 -0.18426
 C503 C 0.33044 0.62112 -0.21068
 C504 C 0.36387 0.60146 -0.18873
 C505 C 0.38001 0.61315 -0.13920
 C506 C 0.36315 0.64614 -0.11168
 C507 C 0.30926 0.69542 -0.10172
 C508 C 0.32570 0.70722 -0.05249
 C509 C 0.36108 0.68958 -0.03312
 C510 C 0.37956 0.65909 -0.06206
 H511 H 0.28082 0.70891 -0.11368
 H512 H 0.31073 0.73003 -0.02910
 H513 H 0.37387 0.69906 0.00494
 H514 H 0.40678 0.64576 -0.04526
 H515 H 0.31899 0.61118 -0.24933
 H516 H 0.37605 0.57564 -0.20945
 C517 C 1.19544 -0.11531 -0.12556
 C518 C 1.18890 -0.13636 -0.17419
 C519 C 1.15014 -0.13797 -0.19731
 C520 C 1.11778 -0.11938 -0.17293
 C521 C 1.12330 -0.09899 -0.12460
 C522 C 1.16220 -0.09619 -0.10064
 C523 C 1.23400 -0.11330 -0.10076
 C524 C 1.23978 -0.09190 -0.05326
 C525 C 1.20740 -0.07237 -0.02957
 C526 C 1.16885 -0.07451 -0.05281
 H527 H 1.25987 -0.12821 -0.11773
 H528 H 1.26953 -0.09046 -0.03472
 H529 H 1.21210 -0.05579 0.00725
 H530 H 1.14441 -0.05913 -0.03309
 H531 H 1.14492 -0.15387 -0.23462
 H532 H 1.08804 -0.12136 -0.19156
 C533 C 1.20086 0.38250 0.34799
 C534 C 1.18802 0.36040 0.30246
 C535 C 1.14717 0.36120 0.28686
 C536 C 1.11918 0.38367 0.31552
 C537 C 1.13146 0.40730 0.35934
 C538 C 1.17340 0.40881 0.37364
 C539 C 1.24059 0.37875 0.36884
 C540 C 1.25465 0.40414 0.40928
 C541 C 1.22945 0.43367 0.42951
 C542 C 1.18933 0.43622 0.41189
 H543 H 1.26084 0.35582 0.35448
 H544 H 1.28544 0.40142 0.42414
 H545 H 1.24092 0.45453 0.45931
 H546 H 1.17189 0.46085 0.42734
 H547 H 1.13686 0.34412 0.25238
 H548 H 1.08760 0.38233 0.30355
 C549 C 0.63257 -0.15788 0.28229
 C550 C 0.67392 -0.14705 0.28887
 C551 C 0.68469 -0.11665 0.32494
 C552 C 0.65565 -0.09718 0.35467
 C553 C 0.61466 -0.10736 0.34964
 C554 C 0.60271 -0.13840 0.31376
 C555 C 0.62015 -0.18740 0.24488
 C556 C 0.57973 -0.19902 0.24062
 C557 C 0.55092 -0.18135 0.27304
 C558 C 0.56212 -0.15131 0.30927
 H559 H 0.64140 -0.20161 0.21846
 H560 H 0.57074 -0.22202 0.21218
 H561 H 0.51967 -0.19089 0.27001
 H562 H 0.53876 -0.13898 0.33410
 H563 H 0.71612 -0.10827 0.33080
 H564 H 0.66548 -0.07351 0.38167
 C565 C 0.66499 0.33727 -0.14825
 C566 C 0.67963 0.35088 -0.19838
 C567 C 0.65978 0.38263 -0.22493
 C568 C 0.62716 0.40209 -0.20184
 C569 C 0.61318 0.39002 -0.15184
 C570 C 0.63058 0.35617 -0.12596
 C571 C 0.68425 0.30613 -0.11881
 C572 C 0.66762 0.29144 -0.07172
 C573 C 0.63247 0.30835 -0.05186
 C574 C 0.61447 0.34094 -0.07799
 H575 H 0.71237 0.29293 -0.13138
 H576 H 0.68233 0.26708 -0.05020
 H577 H 0.61970 0.29685 -0.01525
 H578 H 0.58750 0.35369 -0.06084
 H579 H 0.67013 0.39296 -0.26351
 H580 H 0.61420 0.42813 -0.22180
 C581 C 1.15233 0.13646 -0.20487
 C582 C 1.14031 0.17776 -0.20171
 C583 C 1.10678 0.18737 -0.17029
 C584 C 1.08710 0.15828 -0.14034
 C585 C 1.09939 0.11800 -0.14086
 C586 C 1.13237 0.10670 -0.17315
 C587 C 1.18191 0.12343 -0.24127
 C588 C 1.19421 0.08332 -0.24270
 C589 C 1.17695 0.05515 -0.20876
 C590 C 1.14621 0.06652 -0.17445
 H591 H 1.19519 0.14375 -0.26987
 H592 H 1.21723 0.07404 -0.27041
 H593 H 1.18699 0.02415 -0.20964
 H594 H 1.13359 0.04352 -0.14906
 H595 H 1.09668 0.21824 -0.16645
 H596 H 1.06175 0.16753 -0.11633
 C597 C 1.11169 0.70036 0.35723
 C598 C 1.14503 0.69152 0.32332
 C599 C 1.15785 0.65108 0.31972
 C600 C 1.13818 0.62025 0.34644
 C601 C 1.10442 0.62812 0.37728
 C602 C 1.09065 0.66817 0.38287
 C603 C 1.10051 0.74031 0.36983
 C604 C 1.06745 0.74816 0.40216
 C605 C 1.04549 0.71663 0.42402
 C606 C 1.05715 0.67696 0.41512
 H607 H 1.11773 0.76594 0.35649
 H608 H 1.05913 0.77895 0.41082
 H609 H 1.01991 0.72296 0.44914
 H610 H 1.04014 0.65331 0.43437
 H611 H 1.18247 0.64259 0.29401
 H612 H 1.14888 0.58963 0.34185
 C613 C 0.62412 0.15156 0.26612
 C614 C 0.63964 0.18346 0.29786
 C615 C 0.63574 0.18205 0.35348
 C616 C 0.61629 0.14998 0.37803
 C617 C 0.60020 0.11816 0.34782
 C618 C 0.60462 0.11832 0.29124
 C619 C 0.62888 0.15131 0.21007
 C620 C 0.61497 0.11906 0.17935
 C621 C 0.59675 0.08624 0.20379
 C622 C 0.59188 0.08556 0.25910
 H623 H 0.64371 0.17576 0.18952
 H624 H 0.61887 0.11927 0.13643
 H625 H 0.58673 0.06093 0.17980
 H626 H 0.57902 0.05864 0.27600
 H627 H 0.64812 0.20599 0.37816
 H628 H 0.61354 0.15019 0.42118
 C629 C 0.64522 0.68961 -0.13372
 C630 C 0.63464 0.69670 -0.18849
 C631 C 0.60232 0.67495 -0.21120
 C632 C 0.58393 0.64376 -0.18347
 C633 C 0.59587 0.63375 -0.13101
 C634 C 0.62511 0.65855 -0.10443
 C635 C 0.67301 0.71487 -0.10617
 C636 C 0.68180 0.70918 -0.05205
 C637 C 0.66212 0.67933 -0.02356
 C638 C 0.63363 0.65474 -0.04897
 H639 H 0.68723 0.74021 -0.12548
 H640 H 0.70317 0.72882 -0.03175
 H641 H 0.66816 0.67587 0.01891
 H642 H 0.61740 0.63435 -0.02360
 H643 H 0.59299 0.68009 -0.25242
 H644 H 0.56097 0.62632 -0.20434
 C645 C 0.84256 -0.14095 -0.22346
 C646 C 0.84950 -0.18232 -0.21196
 C647 C 0.87655 -0.19276 -0.17078
 C648 C 0.89619 -0.16344 -0.14065
 C649 C 0.88958 -0.12228 -0.15011
 C650 C 0.86199 -0.11064 -0.19151
 C651 C 0.81696 -0.12903 -0.26631
 C652 C 0.80893 -0.08846 -0.27590
 C653 C 0.82613 -0.05906 -0.24316
 C654 C 0.85231 -0.06987 -0.20130
 H655 H 0.80314 -0.15084 -0.29297
 H656 H 0.78900 -0.07980 -0.30869
 H657 H 0.81920 -0.02764 -0.25028
 H658 H 0.86410 -0.04591 -0.17652
 H659 H 0.88203 -0.22412 -0.16109
 H660 H 0.91707 -0.17334 -0.10951
 C661 C 0.87420 0.34330 0.28209
 C662 C 0.86037 0.31159 0.31505
 C663 C 0.86565 0.31408 0.37053
 C664 C 0.88465 0.34727 0.39379
 C665 C 0.89900 0.37900 0.36231
 C666 C 0.89326 0.37759 0.30583
 C667 C 0.86858 0.34202 0.22601
 C668 C 0.88081 0.37405 0.19402
 C669 C 0.89838 0.40800 0.21717
 C670 C 0.90439 0.41001 0.27245
 H671 H 0.85449 0.31642 0.20651
 H672 H 0.87620 0.37273 0.15108
 H673 H 0.90716 0.43306 0.19216
 H674 H 0.91701 0.43754 0.28841
 H675 H 0.85469 0.29020 0.39609
 H676 H 0.88842 0.34804 0.43692
 C677 C 0.36155 -0.19760 0.36911
 C678 C 0.36298 -0.20013 0.31255
 C679 C 0.38489 -0.17159 0.28392
 C680 C 0.40326 -0.13931 0.31000
 C681 C 0.40037 -0.13454 0.36560
 C682 C 0.38087 -0.16484 0.39608
 C683 C 0.34179 -0.22740 0.39946
 C684 C 0.34141 -0.22528 0.45513
 C685 C 0.36110 -0.19392 0.48160
 C686 C 0.38093 -0.16415 0.45263
 H687 H 0.32705 -0.25287 0.38053
 H688 H 0.32627 -0.24841 0.47789
 H689 H 0.36137 -0.19288 0.52490
 H690 H 0.39705 -0.14148 0.47529
 H691 H 0.38635 -0.17340 0.24070
 H692 H 0.41854 -0.11694 0.28605
 C693 C 0.33644 0.35828 -0.21128
 C694 C 0.35324 0.31857 -0.21215
 C695 C 0.39165 0.31270 -0.18814
 C696 C 0.41129 0.34349 -0.16010
 C697 C 0.39332 0.38124 -0.15438
 C698 C 0.35596 0.38921 -0.18066
 C699 C 0.30246 0.36897 -0.24337
 C700 C 0.28596 0.40751 -0.24130
 C701 C 0.30355 0.43672 -0.20870
 C702 C 0.33849 0.42798 -0.17914
 H703 H 0.28898 0.34816 -0.27165
 H704 H 0.25967 0.41490 -0.26571
 H705 H 0.29069 0.46666 -0.20744
 H706 H 0.35209 0.45213 -0.15612
 H707 H 0.40586 0.28334 -0.18814
 H708 H 0.44032 0.33734 -0.14114
 C709 C 1.15457 -0.18051 0.14820
 C710 C 1.14538 -0.19003 0.20244
 C711 C 1.11552 -0.16723 0.22814
 C712 C 1.09618 -0.13509 0.20235
 C713 C 1.10543 -0.12473 0.14965
 C714 C 1.13572 -0.14677 0.12268
 C715 C 1.17968 -0.20555 0.11711
 C716 C 1.18920 -0.19542 0.06469
 C717 C 1.17358 -0.16061 0.04162
 C718 C 1.14713 -0.13642 0.07011
 H719 H 1.19134 -0.23380 0.13220
 H720 H 1.20872 -0.21479 0.04179
 H721 H 1.18135 -0.15283 0.00102
 H722 H 1.13576 -0.10960 0.05051
 H723 H 1.10769 -0.17362 0.26923
 H724 H 1.07265 -0.11909 0.22319
 C725 C 1.14114 0.30940 0.63838
 C726 C 1.13820 0.30572 0.69475
 C727 C 1.11434 0.33295 0.72281
 C728 C 1.09507 0.36478 0.69650
 C729 C 1.09875 0.37037 0.64110
 C730 C 1.12073 0.34150 0.61110
 C731 C 1.16331 0.28121 0.60839
 C732 C 1.16520 0.28427 0.55289
 C733 C 1.14442 0.31477 0.52608
 C734 C 1.12203 0.34282 0.55458
 H735 H 1.17893 0.25627 0.62736
 H736 H 1.18230 0.26243 0.53049
 H737 H 1.14525 0.31644 0.48284
 H738 H 1.10502 0.36453 0.53137
 H739 H 1.11160 0.33025 0.76581
 H740 H 1.07812 0.38604 0.72011
 C741 C 0.59595 -0.19654 0.65616
 C742 C 0.63410 -0.19044 0.68280
 C743 C 0.65159 -0.15170 0.68065
 C744 C 0.63210 -0.11978 0.65541
 C745 C 0.59383 -0.12464 0.63236
 C746 C 0.57522 -0.16299 0.63254
 C747 C 0.57926 -0.23538 0.64846
 C748 C 0.54173 -0.24054 0.62324
 C749 C 0.52050 -0.20746 0.60351
 C750 C 0.53721 -0.16906 0.60734
 H751 H 0.59542 -0.26231 0.66010
 H752 H 0.52929 -0.27048 0.61832
 H753 H 0.49145 -0.21170 0.58379
 H754 H 0.52043 -0.14438 0.58953
 H755 H 0.68006 -0.14516 0.70080
 H756 H 0.64667 -0.09054 0.65518
 C757 C 0.66390 0.32019 0.13648
 C758 C 0.64916 0.30990 0.18784
 C759 C 0.61588 0.33058 0.20763
 C760 C 0.59761 0.36141 0.17849
 C761 C 0.61212 0.37379 0.12847
 C762 C 0.64640 0.35318 0.10712
 C763 C 0.69527 0.29763 0.11314
 C764 C 0.71179 0.30909 0.06466
 C765 C 0.69677 0.34245 0.03763
 C766 C 0.66398 0.36365 0.05760
 H767 H 0.70723 0.27069 0.13173
 H768 H 0.73625 0.29185 0.04782
 H769 H 0.70980 0.35127 -0.00010
 H770 H 0.65347 0.38778 0.03265
 H771 H 0.60411 0.32315 0.24664
 H772 H 0.57193 0.37621 0.19621
 C773 C 0.84931 0.13560 0.23559
 C774 C 0.85768 0.17679 0.22489
 C775 C 0.88455 0.18658 0.18426
 C776 C 0.90230 0.15682 0.15361
 C777 C 0.89388 0.11589 0.16196
 C778 C 0.86676 0.10491 0.20312
 C779 C 0.82410 0.12423 0.27809
 C780 C 0.81455 0.08391 0.28685
 C781 C 0.82981 0.05422 0.25359
 C782 C 0.85557 0.06445 0.21206
 H783 H 0.81179 0.14629 0.30512
 H784 H 0.79495 0.07568 0.31939
 H785 H 0.82171 0.02304 0.26007
 H786 H 0.86586 0.04032 0.18686
 H787 H 0.89113 0.21779 0.17516
 H788 H 0.92300 0.16616 0.12278
 C789 C 0.86768 0.65445 0.72868
 C790 C 0.84925 0.68400 0.69553
 C791 C 0.85067 0.68001 0.63992
 C792 C 0.87090 0.64788 0.61669
 C793 C 0.89018 0.61847 0.64828
 C794 C 0.88766 0.62094 0.70505
 C795 C 0.86573 0.65704 0.78497
 C796 C 0.88241 0.62703 0.81741
 C797 C 0.90067 0.59368 0.79455
 C798 C 0.90302 0.59034 0.73907
 H799 H 0.85100 0.68201 0.80439
 H800 H 0.88059 0.62935 0.86050
 H801 H 0.91274 0.57001 0.81996
 H802 H 0.91598 0.56301 0.72373
 H803 H 0.83628 0.70225 0.61424
 H804 H 0.87205 0.64635 0.57344
 C805 C 0.33833 0.18230 0.62875
 C806 C 0.35240 0.19130 0.68140
 C807 C 0.38564 0.17040 0.70237
 C808 C 0.40380 0.13969 0.67358
 C809 C 0.38950 0.12823 0.62250
 C810 C 0.35656 0.15040 0.59900
 C811 C 0.30685 0.20508 0.60463
 C812 C 0.29169 0.19543 0.55410
 C813 C 0.30848 0.16400 0.52563
 C814 C 0.34123 0.14259 0.54677
 H815 H 0.29377 0.23084 0.62424
 H816 H 0.26715 0.21281 0.53661
 H817 H 0.29684 0.15689 0.48604
 H818 H 0.35411 0.12093 0.52030
 H819 H 0.39696 0.17710 0.74229
 H820 H 0.42887 0.12398 0.69255
 C821 C 0.37288 0.64224 0.23224
 C822 C 0.35498 0.67404 0.20237
 C823 C 0.35501 0.67253 0.14641
 C824 C 0.37369 0.64094 0.11975
 C825 C 0.39283 0.60969 0.14812
 C826 C 0.39140 0.60945 0.20504
 C827 C 0.37173 0.64183 0.28871
 C828 C 0.38806 0.60979 0.31783
 C829 C 0.40512 0.57731 0.29144
 C830 C 0.40648 0.57679 0.23571
 H831 H 0.35783 0.66596 0.31087
 H832 H 0.38690 0.60987 0.36108
 H833 H 0.41701 0.55216 0.31429
 H834 H 0.41846 0.55003 0.21743
 H835 H 0.34095 0.69640 0.12314
 H836 H 0.37396 0.64138 0.07642
   
