data_POSCAR
  _audit_creation_date              2014-09-24
  _audit_creation_method            'ToBaCCo'
  _symmetry_space_group_name_H-M    'P1'
  _symmetry_Int_Tables_number       1
  _symmetry_cell_setting            triclinic
  loop_
  _symmetry_equiv_pos_as_xyz
 x,y,z
_cell_length_a 26.6684
_cell_length_b 26.3437
_cell_length_c 26.6375
_cell_angle_alpha 80.300100
_cell_angle_beta 84.597400
_cell_angle_gamma 82.508600
loop_
  _atom_site_label
  _atom_site_type_symbol
  _atom_site_fract_x
  _atom_site_fract_y
  _atom_site_fract_z
C1 C 0.55179 0.49655 0.03082
 C2 C 0.52428 0.54521 0.01128
 C3 C 0.47593 0.54442 -0.00645
 C4 C 0.45233 0.49877 -0.00232
 C5 C 0.47855 0.45159 0.02090
 C6 C 0.52725 0.45132 0.03644
 H7 H 0.54765 0.41380 0.04967
 H8 H 0.45321 0.58073 -0.01867
 C9 C -0.00071 0.44389 0.51243
 C10 C 0.00457 0.47871 0.54608
 C11 C 0.00683 0.53123 0.52607
 C12 C 0.00496 0.55049 0.47335
 C13 C 0.00316 0.51447 0.43934
 C14 C -0.00076 0.46228 0.45979
 H15 H -0.00299 0.43503 0.43405
 H16 H 0.00846 0.55763 0.55275
 C17 C 0.49083 -0.00575 0.44905
 C18 C 0.45005 0.00690 0.48429
 C19 C 0.46011 0.01444 0.53302
 C20 C 0.51005 0.01176 0.54741
 C21 C 0.55134 -0.00137 0.51173
 C22 C 0.54058 -0.00874 0.46287
 H23 H 0.57127 -0.02077 0.43612
 H24 H 0.42834 0.02631 0.55865
 O25 O 0.47138 0.00976 -0.07577
 O26 O 0.45407 -0.02025 0.06413
 O27 O 0.44261 0.06403 -0.00098
 O28 O 0.48381 -0.07412 -0.00804
 O29 O 0.56223 -0.06177 0.00254
 O30 O 0.52252 0.07816 -0.00106
 O31 O 0.53162 -0.00176 0.06966
 O32 O 0.55149 0.01975 -0.07049
 Cu33 Cu 0.45503 -0.00624 -0.00637
 Cu34 Cu 0.55013 0.00974 0.00016
 C35 C 0.51449 0.01930 -0.09707
 C36 C 0.48960 -0.01518 0.09081
 C37 C 0.47555 0.09438 0.00075
 C38 C 0.52977 -0.09184 -0.00156
 O39 O -0.07301 0.52940 0.99092
 O40 O 0.06336 0.54219 0.96142
 O41 O -0.00724 0.51639 0.91342
 O42 O -0.00034 0.55383 1.03988
 O43 O 0.01438 0.47114 1.07342
 O44 O 0.01550 0.43476 0.94582
 O45 O 0.08243 0.46132 0.99852
 O46 O -0.05354 0.44675 1.02188
 Cu47 Cu -0.00655 0.54370 0.97317
 Cu48 Cu 0.01635 0.44515 1.01293
 C49 C -0.08646 0.48571 1.01163
 C50 C 0.09613 0.50417 0.97556
 C51 C 0.00464 0.46928 0.90777
 C52 C 0.00802 0.51871 1.07815
 O53 O -0.00311 -0.04722 0.43314
 O54 O -0.01207 0.07911 0.47556
 O55 O 0.06076 0.01899 0.43840
 O56 O -0.07545 0.01245 0.47215
 O57 O -0.05874 -0.02819 0.54924
 O58 O 0.07688 -0.01757 0.51691
 O59 O 0.00083 0.04090 0.55452
 O60 O 0.01588 -0.08578 0.51034
 Cu61 Cu -0.00907 0.01971 0.44695
 Cu62 Cu 0.01063 -0.02661 0.54055
 C63 C 0.00741 -0.08818 0.46468
 C64 C -0.00741 0.08164 0.52200
 C65 C 0.09203 0.00278 0.47232
 C66 C -0.09033 -0.00976 0.51616
 C67 C -0.30873 0.50776 1.01756
 C68 C -0.29297 0.46980 1.05673
 C69 C -0.32620 0.44137 1.08965
 C70 C -0.37790 0.45185 1.08158
 C71 C -0.39596 0.49002 1.04058
 C72 C -0.36017 0.51867 1.00842
 O73 O -0.27051 0.52961 0.99031
 C74 C -0.22985 0.50465 1.01280
 C75 C -0.24169 0.46746 1.05344
 C76 C -0.20513 0.43514 1.08123
 C77 C -0.15414 0.44139 1.06664
 C78 C -0.14065 0.47992 1.02534
 C79 C -0.17923 0.51225 0.99818
 H80 H -0.31280 0.41196 1.12049
 H81 H -0.40392 0.43051 1.10809
 H82 H -0.37154 0.54696 0.97588
 H83 H -0.21547 0.40579 1.11274
 H84 H -0.12514 0.41655 1.08791
 H85 H -0.17007 0.54160 0.96617
 C86 C 0.31510 0.48503 0.99239
 C87 C 0.30407 0.51962 0.94912
 C88 C 0.34051 0.54668 0.91929
 C89 C 0.39017 0.53802 0.93496
 C90 C 0.40294 0.50289 0.98013
 C91 C 0.36400 0.47631 1.00895
 O92 O 0.27474 0.46483 1.01664
 C93 C 0.23735 0.48719 0.98804
 C94 C 0.25313 0.52139 0.94644
 C95 C 0.21957 0.55129 0.91316
 C96 C 0.16774 0.54550 0.92313
 C97 C 0.15069 0.50981 0.96536
 C98 C 0.18622 0.48008 0.99806
 H99 H 0.33097 0.57397 0.88544
 H100 H 0.41880 0.55873 0.91156
 H101 H 0.36965 0.45325 1.04572
 H102 H 0.23271 0.57857 0.88111
 H103 H 0.14094 0.56853 0.89782
 H104 H 0.17427 0.45323 1.03111
 C105 C 0.02431 -0.31114 0.46777
 C106 C -0.00503 -0.28773 0.42874
 C107 C -0.03176 -0.31547 0.40256
 C108 C -0.02815 -0.36949 0.41735
 C109 C 0.00290 -0.39515 0.45700
 C110 C 0.02955 -0.36463 0.48215
 O111 O 0.04353 -0.27782 0.49054
 C112 C 0.02586 -0.23224 0.46538
 C113 C -0.00364 -0.23605 0.42680
 C114 C -0.02743 -0.19285 0.39691
 C115 C -0.02133 -0.14384 0.40797
 C116 C 0.00735 -0.13915 0.44893
 C117 C 0.03192 -0.18410 0.47741
 H118 H -0.05600 -0.29606 0.37305
 H119 H -0.05144 -0.39076 0.39925
 H120 H 0.05428 -0.38171 0.51202
 H121 H -0.05078 -0.19674 0.36698
 H122 H -0.04076 -0.10976 0.38611
 H123 H 0.05367 -0.18183 0.50914
 C124 C 0.01277 0.29892 0.51812
 C125 C -0.02129 0.28453 0.55847
 C126 C -0.04943 0.32028 0.58612
 C127 C -0.04233 0.37282 0.57121
 C128 C -0.00659 0.38825 0.53024
 C129 C 0.02159 0.35033 0.50388
 O130 O 0.03279 0.26016 0.49407
 C131 C 0.01107 0.22025 0.51978
 C132 C -0.02189 0.23268 0.56003
 C133 C -0.04932 0.19633 0.59124
 C134 C -0.04284 0.14545 0.57996
 C135 C -0.01053 0.13283 0.53738
 C136 C 0.01707 0.17061 0.50729
 H137 H -0.07699 0.30839 0.61692
 H138 H -0.06527 0.40152 0.59085
 H139 H 0.04883 0.36069 0.47221
 H140 H -0.07517 0.20688 0.62262
 H141 H -0.06426 0.11653 0.60298
 H142 H 0.04189 0.16177 0.47452
 C143 C 0.49576 0.01973 -0.31374
 C144 C 0.53514 0.04733 -0.30978
 C145 C 0.56552 0.06715 -0.35188
 C146 C 0.55567 0.05700 -0.39984
 C147 C 0.51692 0.02604 -0.40488
 C148 C 0.48545 0.00893 -0.36088
 O149 O 0.47227 0.00309 -0.26902
 C150 C 0.49753 0.02037 -0.23605
 C151 C 0.53654 0.04749 -0.25894
 C152 C 0.56954 0.06654 -0.23119
 C153 C 0.56199 0.05716 -0.17768
 C154 C 0.52169 0.02966 -0.15327
 C155 C 0.48884 0.01138 -0.18310
 H156 H 0.59598 0.08928 -0.34794
 H157 H 0.57854 0.07310 -0.43300
 H158 H 0.45583 -0.01510 -0.36250
 H159 H 0.60042 0.08715 -0.24999
 H160 H 0.58742 0.07138 -0.15531
 H161 H 0.45828 -0.01046 -0.16561
 C162 C 0.50027 -0.00573 0.30679
 C163 C 0.46630 -0.03982 0.30324
 C164 C 0.44014 -0.06515 0.34579
 C165 C 0.44916 -0.05459 0.39387
 C166 C 0.48286 -0.01829 0.39831
 C167 C 0.50917 0.00592 0.35401
 O168 O 0.52140 0.01401 0.26191
 C169 C 0.50019 -0.00790 0.22924
 C170 C 0.46594 -0.04092 0.25247
 C171 C 0.43826 -0.06665 0.22509
 C172 C 0.44619 -0.05788 0.17161
 C173 C 0.48184 -0.02450 0.14692
 C174 C 0.50933 0.00060 0.17633
 H175 H 0.41391 -0.09216 0.34214
 H176 H 0.42973 -0.07435 0.42761
 H177 H 0.53519 0.03364 0.35623
 H178 H 0.41120 -0.09213 0.24416
 H179 H 0.42490 -0.07732 0.14948
 H180 H 0.53625 0.02684 0.15853
 C181 C 0.53477 -0.31202 -0.01296
 C182 C 0.56279 -0.30755 0.02639
 C183 C 0.58013 -0.35001 0.06138
 C184 C 0.56769 -0.39893 0.05591
 C185 C 0.53992 -0.40553 0.01457
 C186 C 0.52406 -0.36044 -0.02062
 O187 O 0.51765 -0.26659 -0.03916
 C188 C 0.53537 -0.23260 -0.01588
 C189 C 0.56397 -0.25566 0.02400
 C190 C 0.58529 -0.22717 0.05425
 C191 C 0.57609 -0.17282 0.04343
 C192 C 0.54481 -0.14828 0.00401
 C193 C 0.52457 -0.17869 -0.02636
 H194 H 0.60044 -0.34535 0.09332
 H195 H 0.57765 -0.43091 0.08575
 H196 H 0.50360 -0.36234 -0.05331
 H197 H 0.60750 -0.24610 0.08557
 H198 H 0.59129 -0.14991 0.06728
 H199 H 0.50019 -0.16094 -0.05637
 C200 C 0.46667 0.31816 -0.00701
 C201 C 0.43954 0.29804 0.03671
 C202 C 0.42343 0.32630 0.07612
 C203 C 0.43572 0.37729 0.07013
 C204 C 0.46072 0.40004 0.02408
 C205 C 0.47689 0.36975 -0.01484
 O206 O 0.48402 0.28297 -0.03672
 C207 C 0.46707 0.23986 -0.01146
 C208 C 0.43887 0.24724 0.03328
 C209 C 0.41861 0.20704 0.06640
 C210 C 0.42839 0.15708 0.05326
 C211 C 0.45924 0.14813 0.00862
 C212 C 0.47858 0.19015 -0.02444
 H213 H 0.40430 0.30890 0.11122
 H214 H 0.42622 0.39908 0.10145
 H215 H 0.49913 0.38513 -0.04881
 H216 H 0.39683 0.21373 0.10155
 H217 H 0.41416 0.12492 0.07910
 H218 H 0.50293 0.18401 -0.05830
 C219 C -0.30868 -0.00196 0.50258
 C220 C -0.29723 -0.02857 0.54984
 C221 C -0.33374 -0.04887 0.58559
 C222 C -0.38422 -0.04065 0.57236
 C223 C -0.39750 -0.01170 0.52429
 C224 C -0.35839 0.00660 0.48859
 O225 O -0.26862 0.01443 0.47421
 C226 C -0.23098 -0.00218 0.50422
 C227 C -0.24638 -0.02868 0.55095
 C228 C -0.21299 -0.04904 0.58830
 C229 C -0.16161 -0.04208 0.57680
 C230 C -0.14475 -0.01516 0.52861
 C231 C -0.18026 0.00518 0.49198
 H232 H -0.32377 -0.07025 0.62236
 H233 H -0.41286 -0.05719 0.59948
 H234 H -0.36657 0.02913 0.45175
 H235 H -0.22598 -0.06964 0.62488
 H236 H -0.13501 -0.05802 0.60531
 H237 H -0.16883 0.02586 0.45486
 C238 C 0.30993 -0.00345 0.48767
 C239 C 0.29751 0.02847 0.44308
 C240 C 0.33265 0.05553 0.41102
 C241 C 0.38270 0.04898 0.42533
 C242 C 0.39667 0.01513 0.47049
 C243 C 0.35947 -0.01093 0.50233
 O244 O 0.27074 -0.02460 0.51333
 C245 C 0.23276 -0.00570 0.48429
 C246 C 0.24712 0.02675 0.44072
 C247 C 0.21316 0.05090 0.40509
 C248 C 0.16223 0.04165 0.41510
 C249 C 0.14629 0.00909 0.46034
 C250 C 0.18240 -0.01517 0.49515
 H251 H 0.32190 0.08095 0.37643
 H252 H 0.41066 0.06999 0.40123
 H253 H 0.36902 -0.03674 0.53712
 H254 H 0.22534 0.07630 0.37107
 H255 H 0.13511 0.06076 0.38817
 H256 H 0.17159 -0.04015 0.53003
 C257 C -0.00971 0.51852 1.29802
 C258 C 0.02662 0.54988 1.27667
 C259 C 0.05682 0.57062 1.30602
 C260 C 0.04917 0.55858 1.35944
 C261 C 0.01052 0.52792 1.38250
 C262 C -0.01925 0.50774 1.35086
 O263 O -0.03175 0.49952 1.26376
 C264 C -0.00909 0.51953 1.21973
 C265 C 0.02643 0.55128 1.22535
 C266 C 0.05472 0.57603 1.18394
 C267 C 0.04650 0.56707 1.13493
 C268 C 0.01158 0.53284 1.12865
 C269 C -0.01680 0.50902 1.17162
 H270 H 0.08617 0.59403 1.28847
 H271 H 0.07357 0.57285 1.38283
 H272 H -0.04865 0.48375 1.36689
 H273 H 0.08248 0.60084 1.18920
 H274 H 0.06869 0.58503 1.10214
 H275 H -0.04346 0.48249 1.16769
 C276 C -0.01116 0.47680 0.68915
 C277 C 0.02177 0.43393 0.70585
 C278 C 0.04992 0.40374 0.67260
 C279 C 0.04396 0.41849 0.62008
 C280 C 0.00929 0.46193 0.60195
 C281 C -0.01872 0.49123 0.63739
 O282 O -0.03171 0.50233 0.72636
 C283 C -0.01144 0.47493 0.76755
 C284 C 0.02115 0.43236 0.75724
 C285 C 0.04720 0.39894 0.79485
 C286 C 0.03984 0.41027 0.84491
 C287 C 0.00767 0.45493 0.85616
 C288 C -0.01867 0.48737 0.81681
 H289 H 0.07654 0.37087 0.68645
 H290 H 0.06691 0.39662 0.59351
 H291 H -0.04507 0.52489 0.62495
 H292 H 0.07280 0.36577 0.78587
 H293 H 0.06058 0.38529 0.87450
 H294 H -0.04330 0.52183 0.82408
   
