data_POSCAR
  _audit_creation_date              2014-09-24
  _audit_creation_method            'ToBaCCo'
  _symmetry_space_group_name_H-M    'P1'
  _symmetry_Int_Tables_number       1
  _symmetry_cell_setting            triclinic
  loop_
  _symmetry_equiv_pos_as_xyz
 x,y,z
_cell_length_a 17.0118
_cell_length_b 16.9736
_cell_length_c 16.9657
_cell_angle_alpha 108.104100
_cell_angle_beta 84.504900
_cell_angle_gamma 95.247000
loop_
  _atom_site_label
  _atom_site_type_symbol
  _atom_site_fract_x
  _atom_site_fract_y
  _atom_site_fract_z
O1 O 0.58318 0.57360 0.09018
 O2 O 0.37759 0.52215 0.03098
 O3 O 0.48068 0.45468 0.09440
 O4 O 0.48634 0.63983 0.02441
 O5 O 0.53348 0.56688 -0.10033
 O6 O 0.51663 0.37936 -0.03361
 O7 O 0.42085 0.45182 -0.09611
 O8 O 0.62597 0.49573 -0.03439
 Cu9 Cu 0.47651 0.55478 0.07250
 Cu10 Cu 0.52795 0.46596 -0.07901
 C11 C 0.63939 0.54213 0.03841
 C12 C 0.36417 0.47938 -0.04299
 C13 C 0.49934 0.38601 0.04245
 C14 C 0.51334 0.63533 -0.04914
 O15 O -0.09353 0.59751 0.54303
 O16 O -0.03737 0.38329 0.49877
 O17 O -0.03312 0.51404 0.62646
 O18 O -0.08984 0.46723 0.41159
 O19 O 0.03191 0.50501 0.37313
 O20 O 0.08761 0.55433 0.58769
 O21 O 0.08435 0.42067 0.45987
 O22 O 0.02693 0.63517 0.50113
 Cu23 Cu -0.07576 0.48704 0.52389
 Cu24 Cu 0.07001 0.53262 0.47688
 C25 C -0.04370 0.65245 0.52813
 C26 C 0.03319 0.36570 0.47284
 C27 C 0.03736 0.54112 0.64319
 C28 C -0.03849 0.47884 0.35601
 O29 O 0.50951 0.03347 0.63139
 O30 O 0.50968 0.10266 0.44568
 O31 O 0.40984 0.09873 0.56755
 O32 O 0.61525 0.03989 0.51055
 O33 O 0.57237 -0.08765 0.44207
 O34 O 0.36730 -0.02551 0.48964
 O35 O 0.47491 -0.02559 0.37106
 O36 O 0.46117 -0.09065 0.55966
 Cu37 Cu 0.51647 0.08121 0.54585
 Cu38 Cu 0.46524 -0.07028 0.45827
 C39 C 0.48247 -0.03977 0.62772
 C40 C 0.49098 0.05043 0.37727
 C41 C 0.35374 0.04704 0.53675
 C42 C 0.62876 -0.03411 0.46789
 C43 C 0.49254 -0.02508 -0.08588
 C44 C 0.50154 -0.07571 -0.03524
 C45 C 0.49856 -0.03987 0.05136
 C46 C 0.49323 0.04590 0.08884
 C47 C 0.49683 0.09805 0.03712
 C48 C 0.49328 0.06128 -0.04911
 H49 H 0.49114 0.10057 -0.08840
 H50 H 0.50080 -0.07952 0.09026
 C51 C -0.02687 0.49383 1.07394
 C52 C -0.07603 0.52451 1.02892
 C53 C -0.04616 0.53713 0.95371
 C54 C 0.03276 0.52373 0.92397
 C55 C 0.08237 0.49359 0.96918
 C56 C 0.05229 0.48066 1.04442
 H57 H 0.08992 0.45651 1.07844
 H58 H -0.08387 0.56132 0.91980
 C59 C 0.07005 0.03739 0.51878
 C60 C 0.02176 0.08303 0.48782
 C61 C -0.05652 0.05289 0.47189
 C62 C -0.08631 -0.02340 0.48224
 C63 C -0.03763 -0.06932 0.51271
 C64 C 0.04044 -0.03887 0.52896
 H65 H 0.07763 -0.07320 0.55328
 H66 H -0.09357 0.08730 0.44753
 C67 C -0.27905 0.55778 1.06347
 C68 C -0.25746 0.60484 1.14138
 C69 C -0.17782 0.59914 1.13916
 C70 C -0.15713 0.54848 1.06025
 O71 O -0.21826 0.52407 1.01390
 H72 H -0.29538 0.63840 1.19368
 H73 H -0.13943 0.62791 1.18902
 C74 C 0.28656 0.46392 0.93357
 C75 C 0.26499 0.41805 0.85515
 C76 C 0.18505 0.42191 0.85813
 C77 C 0.16390 0.47055 0.93780
 O78 O 0.22518 0.49509 0.98410
 H79 H 0.30302 0.38630 0.80200
 H80 H 0.14678 0.39354 0.80808
 C81 C -0.06720 -0.26810 0.53928
 C82 C -0.14104 -0.24114 0.57165
 C83 C -0.13995 -0.16212 0.56755
 C84 C -0.06615 -0.14731 0.53125
 O85 O -0.02141 -0.21102 0.51562
 H86 H -0.18980 -0.27501 0.59529
 H87 H -0.18740 -0.12048 0.58837
 C88 C 0.05583 0.28102 0.46017
 C89 C 0.12790 0.25136 0.42496
 C90 C 0.12488 0.17224 0.42927
 C91 C 0.05162 0.16010 0.46814
 O92 O 0.00922 0.22569 0.48573
 H93 H 0.17674 0.28367 0.39958
 H94 H 0.17072 0.12875 0.40704
 C95 C 0.47482 -0.06390 -0.30048
 C96 C 0.43713 -0.13755 -0.29458
 C97 C 0.43826 -0.13337 -0.21320
 C98 C 0.47910 -0.05876 -0.17585
 O99 O 0.49974 -0.01581 -0.22862
 H100 H 0.40934 -0.18682 -0.34295
 H101 H 0.41086 -0.17862 -0.18440
 C102 C 0.48363 0.07853 0.30519
 C103 C 0.44188 0.14524 0.30825
 C104 C 0.43882 0.14236 0.22740
 C105 C 0.48197 0.07603 0.18112
 O106 O 0.50685 0.03568 0.22850
 H107 H 0.41290 0.18751 0.36246
 H108 H 0.40700 0.18254 0.20501
 C109 C 0.52266 -0.28906 -0.07435
 C110 C 0.56687 -0.28124 -0.14425
 C111 C 0.56470 -0.19992 -0.14000
 C112 C 0.51746 -0.16481 -0.06889
 O113 O 0.49334 -0.21863 -0.02822
 H114 H 0.59919 -0.32834 -0.19087
 H115 H 0.59536 -0.16953 -0.18259
 C116 C 0.50536 0.31411 0.07097
 C117 C 0.54577 0.31692 0.13836
 C118 C 0.54885 0.23608 0.13528
 C119 C 0.50699 0.19013 0.06815
 O120 O 0.48294 0.23765 0.02755
 H121 H 0.57415 0.37093 0.18105
 H122 H 0.58012 0.21349 0.17567
 C123 C -0.28924 -0.05833 0.44999
 C124 C -0.26684 -0.13549 0.40117
 C125 C -0.18694 -0.13270 0.40533
 C126 C -0.16695 -0.05432 0.45712
 O127 O -0.22871 -0.00872 0.48341
 H128 H -0.30440 -0.18773 0.36756
 H129 H -0.14803 -0.18209 0.37540
 C130 C 0.27208 0.07182 0.55367
 C131 C 0.24974 0.14918 0.60199
 C132 C 0.17011 0.14687 0.59627
 C133 C 0.15035 0.06848 0.54439
 O134 O 0.21189 0.02256 0.51923
 H135 H 0.28717 0.20124 0.63612
 H136 H 0.13121 0.19643 0.62552
 C137 C -0.06069 0.46475 1.27116
 C138 C -0.13200 0.42818 1.24125
 C139 C -0.12886 0.43241 1.16203
 C140 C -0.05634 0.47260 1.15026
 O141 O -0.01449 0.49106 1.21603
 H142 H -0.18049 0.40223 1.27352
 H143 H -0.17424 0.40960 1.11838
 C144 C 0.06145 0.55427 0.72724
 C145 C 0.13332 0.59088 0.75563
 C146 C 0.13260 0.58543 0.83422
 C147 C 0.06085 0.54450 0.84712
 O148 O 0.01719 0.52675 0.78270
 H149 H 0.18061 0.61777 0.72278
 H150 H 0.17885 0.60828 0.87683
   
