data_POSCAR
  _audit_creation_date              2014-09-24
  _audit_creation_method            'ToBaCCo'
  _symmetry_space_group_name_H-M    'P1'
  _symmetry_Int_Tables_number       1
  _symmetry_cell_setting            triclinic
  loop_
  _symmetry_equiv_pos_as_xyz
 x,y,z
_cell_length_a 36.0445
_cell_length_b 36.1770
_cell_length_c 48.8655
_cell_angle_alpha 90.155600
_cell_angle_beta 89.361300
_cell_angle_gamma 89.946400
loop_
  _atom_site_label
  _atom_site_type_symbol
  _atom_site_fract_x
  _atom_site_fract_y
  _atom_site_fract_z
C1 C -0.00058 0.50277 0.98689
 C2 C 0.00014 0.50286 1.01478
 C3 C 0.00203 0.53780 1.03075
 C4 C -0.00090 0.46802 1.03079
 C5 C 0.00037 0.46783 0.97085
 C6 C -0.00236 0.53760 0.97092
 C7 C 0.03060 0.56341 1.02621
 C8 C 0.03171 0.59641 1.04113
 C9 C 0.00434 0.60449 1.06123
 C10 C -0.02385 0.57806 1.06595
 C11 C -0.02483 0.54517 1.05096
 C12 C 0.02705 0.46076 1.04977
 C13 C 0.02684 0.42792 1.06472
 C14 C -0.00152 0.40172 1.06113
 C15 C -0.02990 0.40940 1.04242
 C16 C -0.02968 0.44232 1.02750
 C17 C -0.02758 0.46060 0.95185
 C18 C -0.02740 0.42772 0.93682
 C19 C 0.00095 0.40146 0.94034
 C20 C 0.02931 0.40909 0.95908
 C21 C 0.02911 0.44205 0.97410
 C22 C -0.03088 0.56343 0.97547
 C23 C -0.03188 0.59627 0.96047
 C24 C -0.00456 0.60372 0.94044
 C25 C 0.02355 0.57742 0.93564
 C26 C 0.02453 0.54466 0.95066
 H27 H 0.05205 0.55786 1.01105
 H28 H 0.05413 0.61549 1.03675
 H29 H -0.04547 0.58260 1.08116
 H30 H -0.04697 0.52559 1.05488
 H31 H 0.04936 0.48037 1.05272
 H32 H 0.04905 0.42304 1.07900
 H33 H -0.05191 0.44775 1.01333
 H34 H -0.04986 0.48027 0.94893
 H35 H -0.04959 0.42288 0.92251
 H36 H 0.05169 0.38962 0.96219
 H37 H 0.05134 0.44745 0.98829
 H38 H -0.05232 0.55816 0.99066
 H39 H -0.05405 0.61577 0.96459
 H40 H 0.04495 0.58213 0.92033
 H41 H 0.04662 0.52496 0.94673
 H42 H -0.05230 0.38999 1.03927
 C43 C 0.49997 -0.00682 0.48580
 C44 C 0.50020 -0.00682 0.51370
 C45 C 0.46530 -0.00876 0.53013
 C46 C 0.53532 -0.00442 0.52924
 C47 C 0.53487 -0.00875 0.46936
 C48 C 0.46484 -0.00440 0.47027
 C49 C 0.45811 0.01794 0.55035
 C50 C 0.42533 0.01673 0.56582
 C51 C 0.39911 -0.01142 0.56151
 C52 C 0.40669 -0.03853 0.54150
 C53 C 0.43955 -0.03730 0.52606
 C54 C 0.56044 0.02463 0.52471
 C55 C 0.59330 0.02666 0.53957
 C56 C 0.60151 -0.00013 0.55943
 C57 C 0.57599 -0.02888 0.56413
 C58 C 0.54319 -0.03090 0.54925
 C59 C 0.56067 -0.03729 0.47331
 C60 C 0.59354 -0.03852 0.45786
 C61 C 0.60106 -0.01141 0.43798
 C62 C 0.57480 0.01674 0.43378
 C63 C 0.54201 0.01796 0.44925
 C64 C 0.45702 -0.03087 0.45014
 C65 C 0.42422 -0.02885 0.43527
 C66 C 0.39864 -0.00010 0.44009
 C67 C 0.40680 0.02668 0.46007
 C68 C 0.43966 0.02464 0.47492
 H69 H 0.47772 0.04006 0.55392
 H70 H 0.42052 0.03798 0.58109
 H71 H 0.38725 -0.06072 0.53774
 H72 H 0.44492 -0.05860 0.51091
 H73 H 0.55452 0.04578 0.50974
 H74 H 0.61219 0.04929 0.53552
 H75 H 0.52402 -0.05336 0.55318
 H76 H 0.55534 -0.05861 0.48837
 H77 H 0.61301 -0.06071 0.46153
 H78 H 0.57957 0.03801 0.41860
 H79 H 0.52236 0.04008 0.44578
 H80 H 0.47623 -0.05334 0.44612
 H81 H 0.41895 -0.04988 0.42000
 H82 H 0.38787 0.04931 0.46422
 H83 H 0.44554 0.04579 0.48998
 H84 H 0.58130 -0.04992 0.57931
 C85 C 0.07944 0.00874 0.25877
 H86 H 0.08118 0.01020 0.23668
 C87 C 0.11169 0.01059 0.27425
 H88 H 0.13819 0.01338 0.26382
 C89 C 0.04252 0.00348 0.29898
 H90 H 0.01550 0.00116 0.30857
 C91 C 0.07408 0.00523 0.31528
 H92 H 0.07085 0.00387 0.33731
 N93 N 0.04580 0.00465 0.27124
 C94 C -0.02337 -0.04880 0.21007
 H95 H -0.04644 -0.02969 0.20935
 C96 C -0.02363 -0.08076 0.19396
 H97 H -0.04705 -0.08590 0.18082
 C98 C 0.03481 -0.06535 0.22852
 H99 H 0.05725 -0.05965 0.24234
 C100 C 0.03569 -0.09763 0.21280
 H101 H 0.05914 -0.11614 0.21459
 Zn102 Zn 0.00374 0.00189 0.24844
 N103 N 0.00575 -0.04150 0.22668
 C104 C 0.00376 0.04234 0.19840
 N105 N 0.00396 0.04468 0.22619
 C106 C 0.00514 0.07796 0.23913
 C107 C 0.00500 0.11070 0.22409
 C108 C 0.00361 0.07441 0.18254
 C109 C -0.04622 -0.02999 0.28601
 C110 C -0.07867 -0.03294 0.30177
 C111 C -0.09934 0.02516 0.28302
 C112 C -0.06653 0.02699 0.26765
 N113 N -0.04055 -0.00013 0.26965
 H114 H 0.00373 0.01567 0.18844
 H115 H 0.00586 0.07900 0.26125
 H116 H 0.00556 0.13685 0.23490
 H117 H 0.00314 0.07191 0.16046
 H118 H -0.02541 -0.05152 0.28683
 H119 H -0.08248 -0.05684 0.31478
 H120 H -0.11951 0.04717 0.28114
 H121 H -0.06207 0.05001 0.25401
 C122 C 0.00624 -0.10568 0.19517
 C123 C 0.10931 0.00854 0.30293
 C124 C -0.10573 -0.00503 0.30046
 C125 C 0.00398 0.10922 0.19538
 C126 C -0.00511 0.07800 0.76072
 H127 H -0.00578 0.07906 0.73860
 C128 C -0.00503 0.11072 0.77591
 H129 H -0.00560 0.13689 0.76523
 C130 C -0.00377 0.04234 0.80129
 H131 H -0.00373 0.01566 0.81112
 C132 C -0.00368 0.07439 0.81730
 H133 H -0.00326 0.07186 0.83936
 N134 N -0.00390 0.04471 0.77351
 C135 C 0.04644 -0.03000 0.71341
 H136 H 0.02567 -0.05152 0.71251
 C137 C 0.07890 -0.03295 0.69764
 H138 H 0.08276 -0.05686 0.68454
 C139 C 0.06663 0.02700 0.73198
 H140 H 0.06213 0.05003 0.74571
 C141 C 0.09945 0.02516 0.71661
 H142 H 0.11957 0.04718 0.71857
 Zn143 Zn -0.00358 0.00191 0.75110
 N144 N 0.04071 -0.00012 0.72988
 C145 C -0.04238 0.00344 0.70056
 N146 N -0.04565 0.00464 0.72831
 C147 C -0.07930 0.00874 0.74079
 C148 C -0.11156 0.01058 0.72531
 C149 C -0.07393 0.00518 0.68427
 C150 C 0.02364 -0.04869 0.78930
 C151 C 0.02391 -0.08054 0.80540
 C152 C -0.03541 -0.09743 0.78658
 C153 C -0.03455 -0.06527 0.77087
 N154 N -0.00551 -0.04145 0.77272
 H155 H -0.01535 0.00112 0.69096
 H156 H -0.08105 0.01022 0.76289
 H157 H -0.13806 0.01338 0.73576
 H158 H -0.07071 0.00380 0.66224
 H159 H 0.04669 -0.02960 0.79003
 H160 H 0.04734 -0.08562 0.81855
 H161 H -0.05888 -0.11592 0.78480
 H162 H -0.05701 -0.05961 0.75706
 C163 C 0.10590 -0.00504 0.69905
 C164 C -0.00406 0.10921 0.80462
 C165 C -0.00596 -0.10540 0.80422
 C166 C -0.10918 0.00850 0.69663
 N167 N -0.02090 -0.32412 0.10893
 C168 C 0.00612 -0.29887 0.10426
 N169 N 0.03263 -0.30616 0.08512
 N170 N 0.03208 -0.33777 0.07106
 C171 C 0.00503 -0.36338 0.07557
 N172 N -0.02143 -0.35570 0.09487
 C173 C 0.00665 -0.26492 0.11949
 C174 C 0.00685 -0.23654 0.13248
 C175 C 0.00691 -0.20294 0.14815
 N176 N 0.03555 -0.19505 0.16492
 N177 N 0.03536 -0.16411 0.17977
 C178 C 0.00654 -0.13994 0.17844
 N179 N -0.02208 -0.14802 0.16155
 N180 N -0.02191 -0.17896 0.14669
 N181 N 0.02646 0.32779 0.10882
 C182 C -0.00068 0.30240 0.10531
 N183 N -0.02819 0.30948 0.08737
 N184 N -0.02851 0.34103 0.07335
 C185 C -0.00135 0.36664 0.07677
 N186 N 0.02613 0.35931 0.09480
 C187 C -0.00030 0.26853 0.12052
 C188 C 0.00029 0.24025 0.13350
 C189 C 0.00120 0.20681 0.14921
 N190 N 0.00101 0.17341 0.13659
 N191 N 0.00196 0.14241 0.15124
 C192 C 0.00317 0.14368 0.17903
 N193 N 0.00337 0.17730 0.19153
 N194 N 0.00242 0.20829 0.17689
 N195 N 0.30679 -0.03960 0.58804
 C196 C 0.29989 -0.01332 0.60727
 N197 N 0.32546 0.01344 0.61156
 N198 N 0.35697 0.01393 0.59707
 C199 C 0.36410 -0.01230 0.57774
 N200 N 0.33833 -0.03909 0.57355
 C201 C 0.26588 -0.01347 0.62280
 C202 C 0.23749 -0.01282 0.63607
 C203 C 0.20396 -0.01110 0.65213
 N204 N 0.19766 0.01793 0.66912
 N205 N 0.16654 0.01978 0.68402
 C206 C 0.14056 -0.00732 0.68249
 N207 N 0.14705 -0.03641 0.66540
 N208 N 0.17819 -0.03827 0.65048
 N209 N -0.32467 -0.02212 0.60880
 C210 C -0.30009 0.00558 0.60437
 N211 N -0.30763 0.03145 0.58520
 N212 N -0.33886 0.02964 0.57090
 C213 C -0.36367 0.00192 0.57526
 N214 N -0.35588 -0.02391 0.59452
 C215 C -0.26657 0.00746 0.61988
 C216 C -0.23860 0.00862 0.63315
 C217 C -0.20554 0.00949 0.64922
 N218 N -0.17167 0.00670 0.63706
 N219 N -0.14105 0.00665 0.65210
 C220 C -0.14317 0.00937 0.67983
 N221 N -0.17724 0.01225 0.69186
 N222 N -0.20786 0.01230 0.67685
 N223 N -0.03268 -0.30424 0.91499
 C224 C -0.00621 -0.29738 0.89575
 N225 N 0.02072 -0.32286 0.89112
 N226 N 0.02119 -0.35424 0.90530
 C227 C -0.00525 -0.36134 0.92463
 N228 N -0.03220 -0.33564 0.92918
 C229 C -0.00667 -0.26365 0.88038
 C230 C -0.00681 -0.23546 0.86728
 C231 C -0.00679 -0.20209 0.85148
 N232 N -0.03539 -0.19433 0.83467
 N233 N -0.03515 -0.16358 0.81973
 C234 C -0.00630 -0.13948 0.82101
 N235 N 0.02229 -0.14744 0.83794
 N236 N 0.02206 -0.17818 0.85289
 N237 N 0.02770 0.30922 0.91368
 C238 C 0.00023 0.30220 0.89569
 N239 N -0.02693 0.32763 0.89228
 N240 N -0.02665 0.35912 0.90645
 C241 C 0.00080 0.36639 0.92455
 N242 N 0.02797 0.34074 0.92786
 C243 C -0.00010 0.26837 0.88029
 C244 C -0.00064 0.24012 0.86716
 C245 C -0.00148 0.20672 0.85128
 N246 N -0.00265 0.20825 0.82360
 N247 N -0.00355 0.17728 0.80881
 C248 C -0.00333 0.14365 0.82114
 N249 N -0.00217 0.14232 0.84892
 N250 N -0.00128 0.17329 0.86373
 N251 N -0.30656 -0.03959 0.41132
 C252 C -0.29971 -0.01330 0.39221
 N253 N -0.32533 0.01346 0.38803
 N254 N -0.35684 0.01396 0.40252
 C255 C -0.36392 -0.01228 0.42174
 N256 N -0.33810 -0.03908 0.42582
 C257 C -0.26569 -0.01345 0.37668
 C258 C -0.23731 -0.01279 0.36341
 C259 C -0.20378 -0.01108 0.34736
 N260 N -0.19753 0.01795 0.33048
 N261 N -0.16642 0.01979 0.31559
 C262 C -0.14038 -0.00731 0.31702
 N263 N -0.14682 -0.03639 0.33400
 N264 N -0.17795 -0.03825 0.34891
 N265 N 0.30773 0.03149 0.41446
 C266 C 0.30023 0.00563 0.39518
 N267 N 0.32487 -0.02207 0.39063
 N268 N 0.35607 -0.02387 0.40491
 C269 C 0.36382 0.00196 0.42427
 N270 N 0.33896 0.02968 0.42875
 C271 C 0.26671 0.00752 0.37967
 C272 C 0.23874 0.00868 0.36641
 C273 C 0.20567 0.00955 0.35034
 N274 N 0.17181 0.00677 0.36249
 N275 N 0.14119 0.00672 0.34746
 C276 C 0.14331 0.00942 0.31974
 N277 N 0.17737 0.01229 0.30771
 N278 N 0.20799 0.01234 0.32273
   
