data_POSCAR
  _audit_creation_date              2014-09-24
  _audit_creation_method            'ToBaCCo'
  _symmetry_space_group_name_H-M    'P1'
  _symmetry_Int_Tables_number       1
  _symmetry_cell_setting            triclinic
  loop_
  _symmetry_equiv_pos_as_xyz
 x,y,z
_cell_length_a 24.7394
_cell_length_b 25.0184
_cell_length_c 24.9144
_cell_angle_alpha 90.519400
_cell_angle_beta 90.547000
_cell_angle_gamma 89.835200
loop_
  _atom_site_label
  _atom_site_type_symbol
  _atom_site_fract_x
  _atom_site_fract_y
  _atom_site_fract_z
C1 C 0.00149 0.44913 0.20999
 C2 C 0.05170 0.45304 0.24585
 C3 C 0.05301 0.49750 0.27771
 C4 C 0.00313 0.53437 0.27118
 C5 C -0.04626 0.45294 0.24816
 C6 C -0.04592 0.49742 0.27998
 C7 C 0.00017 0.50157 0.17834
 C8 C 0.00102 0.54627 0.21050
 H9 H 0.08497 0.42461 0.24394
 H10 H 0.00387 0.57042 0.29754
 H11 H -0.07967 0.42479 0.24733
 H12 H -0.00165 0.50322 0.13481
 C13 C 0.00607 0.44608 0.78437
 C14 C -0.03952 0.44842 0.74729
 C15 C -0.03908 0.49467 0.71403
 C16 C 0.00726 0.52980 0.72387
 C17 C 0.05402 0.44904 0.75138
 C18 C 0.05476 0.49524 0.71805
 C19 C 0.00450 0.49602 0.81514
 C20 C 0.00521 0.54235 0.78131
 H21 H -0.07411 0.42168 0.74902
 H22 H 0.00787 0.56545 0.69743
 H23 H 0.08828 0.42185 0.75492
 H24 H 0.00240 0.49831 0.85867
 C25 C 0.21895 -0.00031 0.44113
 C26 C 0.25575 0.04838 0.44580
 C27 C 0.28702 0.04926 0.49102
 C28 C 0.27914 0.00041 0.52767
 C29 C 0.25656 -0.04859 0.44540
 C30 C 0.28780 -0.04873 0.49066
 C31 C 0.18623 -0.00026 0.49327
 C32 C 0.21792 0.00011 0.53861
 H33 H 0.25402 0.08152 0.41789
 H34 H 0.30514 0.00075 0.56429
 H35 H 0.25509 -0.08218 0.41743
 H36 H 0.14234 -0.00086 0.49424
 C37 C 0.77052 -0.00580 0.43634
 C38 C 0.73283 -0.04972 0.43912
 C39 C 0.70115 -0.04906 0.48663
 C40 C 0.71240 -0.00410 0.52258
 C41 C 0.73647 0.04490 0.44214
 C42 C 0.70618 0.04595 0.48746
 C43 C 0.80456 -0.00835 0.48821
 C44 C 0.77365 -0.00735 0.53344
 H45 H 0.73399 -0.08400 0.41195
 H46 H 0.68712 -0.00318 0.55926
 H47 H 0.73957 0.07883 0.41538
 H48 H 0.84845 -0.00986 0.48913
 C49 C 0.44158 0.22239 1.00383
 C50 C 0.44568 0.25583 1.05166
 C51 C 0.49331 0.28814 1.05339
 C52 C 0.52804 0.28108 1.00617
 C53 C 0.44482 0.25871 0.95879
 C54 C 0.49252 0.29097 0.95955
 C55 C 0.49144 0.19088 1.00254
 C56 C 0.53937 0.22348 1.00385
 H57 H 0.41813 0.25321 1.08534
 H58 H 0.56476 0.30669 1.00726
 H59 H 0.41730 0.25731 0.92444
 H60 H 0.49257 0.14749 0.99988
 C61 C 0.44496 0.77830 1.00832
 C62 C 0.44851 0.73939 0.96085
 C63 C 0.49403 0.70865 0.96154
 C64 C 0.53160 0.71935 1.01019
 C65 C 0.44933 0.74335 1.05812
 C66 C 0.49479 0.71256 1.05927
 C67 C 0.49451 0.80928 1.00730
 C68 C 0.54211 0.77656 1.00835
 H69 H 0.42048 0.73997 0.92697
 H70 H 0.56840 0.69372 1.01111
 H71 H 0.42110 0.74557 1.09126
 H72 H 0.49557 0.85258 1.00436
 B73 B 0.99116 1.05126 0.02244
 B74 B 0.99142 1.05084 -0.04505
 B75 B 1.04639 1.03013 -0.01063
 B76 B 1.02508 0.99686 0.04359
 B77 B 0.95714 0.99698 0.04253
 B78 B 0.93604 1.03048 -0.01209
 B79 B 0.99155 0.94197 -0.04557
 B80 B 0.99129 0.94223 0.02210
 B81 B 0.93633 0.96302 -0.01238
 B82 B 0.95744 0.99643 -0.06664
 B83 B 1.02565 0.99631 -0.06587
 B84 B 1.04629 0.96293 -0.01091
 B85 B 0.56060 0.49976 0.47472
 B86 B 0.56068 0.50004 0.54221
 B87 B 0.53926 0.55412 0.50873
 B88 B 0.50529 0.53326 0.45372
 B89 B 0.50551 0.46578 0.45306
 B90 B 0.53980 0.44541 0.50819
 B91 B 0.45058 0.50002 0.54174
 B92 B 0.45013 0.49974 0.47391
 B93 B 0.47150 0.44515 0.50780
 B94 B 0.50593 0.46639 0.56293
 B95 B 0.50571 0.53357 0.56296
 B96 B 0.47136 0.55436 0.50834
 C97 C 0.99772 1.30433 0.13169
 N98 N 1.04372 1.27503 0.12736
 N99 N 1.04197 1.22497 0.10868
 C100 C 0.99411 1.20250 0.09428
 N101 N 0.94811 1.23180 0.09852
 N102 N 0.94986 1.28186 0.11721
 C103 C 0.99923 1.35687 0.15525
 C104 C 1.00038 1.39966 0.17788
 C105 C 0.99246 1.14914 0.07282
 C106 C 0.99151 1.10515 0.05279
 C107 C 0.99525 0.69681 0.14689
 N108 N 0.96092 0.70707 0.10541
 N109 N 0.95952 0.75530 0.08305
 C110 C 0.99234 0.79492 0.10145
 N111 N 1.02668 0.78471 0.14295
 N112 N 1.02808 0.73644 0.16532
 C113 C 0.99744 0.64425 0.17019
 C114 C 0.99916 0.59983 0.18895
 C115 C 0.99183 0.84647 0.07605
 C116 C 0.99148 0.88903 0.05346
 C117 C 1.00171 1.30514 -0.14135
 N118 N 1.04705 1.27469 -0.13902
 N119 N 1.04439 1.22398 -0.12358
 C120 C 0.99620 1.20212 -0.11079
 N121 N 0.95087 1.23259 -0.11296
 N122 N 0.95353 1.28331 -0.12841
 C123 C 1.00381 1.35761 -0.16309
 C124 C 1.00516 1.40002 -0.18528
 C125 C 0.99368 1.14841 -0.09244
 C126 C 0.99214 1.10423 -0.07427
 C127 C 0.99758 0.69211 -0.16150
 N128 N 0.95878 0.70625 -0.12599
 N129 N 0.95671 0.75587 -0.10626
 C130 C 0.99326 0.79289 -0.12158
 N131 N 1.03205 0.77879 -0.15713
 N132 N 1.03412 0.72914 -0.17688
 C133 C 1.00035 0.63843 -0.18193
 C134 C 1.00266 0.59330 -0.19902
 C135 C 0.99246 0.84540 -0.09821
 C136 C 0.99194 0.88862 -0.07664
 C137 C 1.13936 0.99848 0.29604
 N138 N 1.13010 0.95156 0.26990
 N139 N 1.10998 0.95122 0.22009
 C140 C 1.09897 0.99780 0.19476
 N141 N 1.10816 1.04472 0.22090
 N142 N 1.12828 1.04506 0.27071
 C143 C 1.16396 0.99890 0.34839
 C144 C 1.18703 0.99926 0.39122
 C145 C 1.07625 0.99743 0.14163
 C146 C 1.05550 0.99715 0.09773
 C147 C 1.15324 0.99774 -0.31077
 N148 N 1.13138 0.95211 -0.29164
 N149 N 1.10870 0.95149 -0.24330
 C150 C 1.10722 0.99647 -0.21250
 N151 N 1.12911 1.04210 -0.23160
 N152 N 1.15180 1.04271 -0.27994
 C153 C 1.17654 0.99867 -0.36351
 C154 C 1.19559 0.99938 -0.40798
 C155 C 1.08091 0.99625 -0.16123
 C156 C 1.05765 0.99617 -0.11885
 C157 C 0.84711 0.99389 0.29246
 N158 N 0.86417 1.04042 0.27109
 N159 N 0.88284 1.04140 0.22120
 C160 C 0.88435 0.99599 0.19122
 N161 N 0.86737 0.94944 0.21261
 N162 N 0.84871 0.94846 0.26250
 C163 C 0.82375 0.99350 0.34441
 C164 C 0.80144 0.99355 0.38690
 C165 C 0.90609 0.99671 0.13862
 C166 C 0.92657 0.99708 0.09529
 C167 C 0.83657 0.99315 -0.31520
 N168 N 0.83941 1.03952 -0.28674
 N169 N 0.86040 1.04014 -0.23731
 C170 C 0.87895 0.99436 -0.21492
 N171 N 0.87605 0.94799 -0.24335
 N172 N 0.85506 0.94737 -0.29277
 C173 C 0.81478 0.99266 -0.36853
 C174 C 0.79633 0.99249 -0.41334
 C175 C 0.90378 0.99537 -0.16294
 C176 C 0.92619 0.99604 -0.11998
 C177 C 1.29842 1.14578 -0.00016
 N178 N 1.28749 1.10416 -0.03375
 N179 N 1.23790 1.08348 -0.03634
 C180 C 1.19766 1.10400 -0.00570
 N181 N 1.20861 1.14558 0.02791
 N182 N 1.25817 1.16624 0.03050
 C183 C 1.35111 1.16980 0.00128
 C184 C 1.39408 1.19256 0.00250
 C185 C 1.14454 1.08109 -0.00788
 C186 C 1.10062 1.06036 -0.00938
 C187 C 0.68814 1.15847 -0.00501
 N188 N 0.72998 1.17750 0.02514
 N189 N 0.77859 1.15433 0.02278
 C190 C 0.78699 1.11141 -0.00985
 N191 N 0.74517 1.09243 -0.04000
 N192 N 0.69659 1.11558 -0.03764
 C193 C 0.63519 1.18268 -0.00171
 C194 C 0.59044 1.20220 0.00097
 C195 C 0.83901 1.08520 -0.01124
 C196 C 0.88203 1.06213 -0.01202
 C197 C 1.29981 0.85529 0.00263
 N198 N 1.26659 0.85251 0.04544
 N199 N 1.21613 0.87080 0.04199
 C200 C 1.19738 0.89178 -0.00456
 N201 N 1.23061 0.89467 -0.04735
 N202 N 1.28108 0.87638 -0.04390
 C203 C 1.35237 0.83208 0.00520
 C204 C 1.39526 0.80966 0.00693
 C205 C 1.14401 0.91293 -0.00769
 C206 C 1.09998 0.93289 -0.00968
 C207 C 0.69011 0.83841 -0.00360
 N208 N 0.69985 0.87666 -0.04044
 N209 N 0.74861 0.89877 -0.04361
 C210 C 0.78904 0.88318 -0.01011
 N211 N 0.77935 0.84488 0.02670
 N212 N 0.73058 0.82276 0.02987
 C213 C 0.63730 0.81580 0.00073
 C214 C 0.59269 0.79727 0.00439
 C215 C 0.84054 0.90883 -0.01184
 C216 C 0.88316 0.93170 -0.01261
 C217 C 0.81250 0.51753 0.36000
 N218 N 0.80560 0.49700 0.40969
 N219 N 0.75629 0.49340 0.43052
 C220 C 0.71222 0.50964 0.40214
 N221 N 0.71910 0.53032 0.35253
 N222 N 0.76841 0.53394 0.33171
 C223 C 0.86473 0.51569 0.33497
 C224 C 0.90695 0.51016 0.31154
 C225 C 0.65902 0.50497 0.42449
 C226 C 0.61504 0.50162 0.44480
 C227 C 0.19693 0.51651 0.35671
 N228 N 0.20441 0.49833 0.40740
 N229 N 0.25402 0.49491 0.42858
 C230 C 0.29782 0.50903 0.39959
 N231 N 0.29036 0.52734 0.34896
 N232 N 0.24075 0.53077 0.32780
 C233 C 0.14416 0.51482 0.33175
 C234 C 0.10129 0.50961 0.30862
 C235 C 0.35133 0.50464 0.42243
 C236 C 0.39552 0.50149 0.44323
 C237 C 0.81756 0.52021 0.64556
 N238 N 0.80696 0.50329 0.59472
 N239 N 0.75613 0.49943 0.57704
 C240 C 0.71440 0.51167 0.60987
 N241 N 0.72494 0.52886 0.66063
 N242 N 0.77579 0.53273 0.67830
 C243 C 0.87128 0.51673 0.66706
 C244 C 0.91476 0.50901 0.68764
 C245 C 0.65996 0.50630 0.59080
 C246 C 0.61519 0.50232 0.57204
 C247 C 0.19698 0.51877 0.64906
 N248 N 0.24001 0.52959 0.68149
 N249 N 0.29016 0.52604 0.66273
 C250 C 0.29872 0.51094 0.61112
 N251 N 0.25571 0.50036 0.57862
 N252 N 0.20559 0.50391 0.59739
 C253 C 0.14393 0.51560 0.67122
 C254 C 0.10084 0.50850 0.69195
 C255 C 0.35243 0.50591 0.59089
 C256 C 0.39663 0.50218 0.57155
 C257 C 0.52019 0.64036 0.20218
 N258 N 0.50294 0.58983 0.21085
 N259 N 0.50019 0.57109 0.26060
 C260 C 0.51398 0.60252 0.30316
 N261 N 0.53147 0.65297 0.29453
 N262 N 0.53424 0.67171 0.24476
 C263 C 0.51640 0.66283 0.14970
 C264 C 0.50907 0.68400 0.10710
 C265 C 0.50987 0.58238 0.35645
 C266 C 0.50683 0.56308 0.40030
 C267 C 0.52115 0.63664 0.81821
 N268 N 0.50150 0.58724 0.80703
 N269 N 0.49874 0.56955 0.75651
 C270 C 0.51490 0.60099 0.71566
 N271 N 0.53482 0.65030 0.72679
 N272 N 0.53758 0.66798 0.77734
 C273 C 0.51696 0.65853 0.87122
 C274 C 0.50910 0.67962 0.91400
 C275 C 0.51076 0.58199 0.66152
 C276 C 0.50758 0.56330 0.61702
 C277 C 0.51785 0.35683 0.19759
 N278 N 0.52838 0.32459 0.24003
 N279 N 0.52626 0.34366 0.29018
 C280 C 0.51302 0.39556 0.29962
 N281 N 0.50263 0.42784 0.25721
 N282 N 0.50475 0.40875 0.20708
 C283 C 0.51435 0.33465 0.14393
 C284 C 0.50721 0.31410 0.10024
 C285 C 0.50964 0.41630 0.35377
 C286 C 0.50706 0.43580 0.39831
 C287 C 0.51843 0.35963 0.81747
 N288 N 0.53042 0.32744 0.77501
 N289 N 0.52844 0.34617 0.72504
 C290 C 0.51386 0.39762 0.71580
 N291 N 0.50202 0.42986 0.75824
 N292 N 0.50400 0.41113 0.80819
 C293 C 0.51450 0.33762 0.87065
 C294 C 0.50692 0.31707 0.91372
 C295 C 0.51047 0.41789 0.66183
 C296 C 0.50777 0.43698 0.61745
 C297 C 0.63869 0.80882 0.51864
 N298 N 0.67400 0.76844 0.52859
 N299 N 0.65736 0.71786 0.52775
 C300 C 0.60501 0.70627 0.51639
 N301 N 0.56966 0.74663 0.50673
 N302 N 0.58630 0.79718 0.50755
 C303 C 0.65822 0.86200 0.51209
 C304 C 0.67694 0.90505 0.50230
 C305 C 0.58703 0.65217 0.51333
 C306 C 0.56881 0.60780 0.51064
 C307 C 0.64129 0.19127 0.51904
 N308 N 0.58882 0.20254 0.50778
 N309 N 0.57183 0.25305 0.50648
 C310 C 0.60689 0.29371 0.51579
 N311 N 0.65931 0.28249 0.52732
 N312 N 0.67630 0.23195 0.52864
 C313 C 0.66117 0.13792 0.51312
 C314 C 0.68015 0.09460 0.50387
 C315 C 0.58849 0.34769 0.51248
 C316 C 0.56988 0.39196 0.50978
 C317 C 0.36152 0.80778 0.51671
 N318 N 0.41241 0.79785 0.49936
 N319 N 0.43175 0.74805 0.49824
 C320 C 0.40070 0.70649 0.51393
 N321 N 0.34986 0.71639 0.53143
 N322 N 0.33051 0.76621 0.53256
 C323 C 0.33852 0.86052 0.51238
 C324 C 0.31700 0.90329 0.50502
 C325 C 0.42157 0.65278 0.51159
 C326 C 0.44123 0.60859 0.50964
 C327 C 0.36111 0.19273 0.51649
 N328 N 0.33011 0.23498 0.53173
 N329 N 0.34962 0.28460 0.53036
 C330 C 0.40064 0.29361 0.51321
 N331 N 0.43170 0.25137 0.49812
 N332 N 0.41219 0.20177 0.49949
 C333 C 0.33797 0.14007 0.51242
 C334 C 0.31633 0.09732 0.50526
 C335 C 0.42170 0.34709 0.51071
 C336 C 0.44142 0.39112 0.50877
   
