data_POSCAR
  _audit_creation_date              2014-09-24
  _audit_creation_method            'ToBaCCo'
  _symmetry_space_group_name_H-M    'P1'
  _symmetry_Int_Tables_number       1
  _symmetry_cell_setting            triclinic
  loop_
  _symmetry_equiv_pos_as_xyz
 x,y,z
_cell_length_a 27.0054
_cell_length_b 28.0107
_cell_length_c 27.4453
_cell_angle_alpha 86.491300
_cell_angle_beta 95.569100
_cell_angle_gamma 93.268900
loop_
  _atom_site_label
  _atom_site_type_symbol
  _atom_site_fract_x
  _atom_site_fract_y
  _atom_site_fract_z
C1 C 0.31052 0.33290 0.23355
 H2 H 0.31146 0.33679 0.27261
 C3 C 0.34253 0.36180 0.20578
 H4 H 0.36682 0.38902 0.22340
 C5 C 0.27655 0.29387 0.16281
 H6 H 0.25040 0.26799 0.14576
 C7 C 0.30965 0.32014 0.13430
 H8 H 0.30891 0.31342 0.09579
 N9 N 0.27835 0.29968 0.21180
 C10 C 0.16981 0.26743 0.32009
 H11 H 0.16893 0.22871 0.32271
 C12 C 0.14198 0.29166 0.35006
 H13 H 0.11970 0.27160 0.37583
 C14 C 0.19941 0.34091 0.28316
 H15 H 0.22131 0.36007 0.25670
 C16 C 0.17210 0.36656 0.31243
 H17 H 0.17356 0.40532 0.30873
 Zn18 Zn 0.23985 0.25735 0.25186
 N19 N 0.19888 0.29222 0.28833
 C20 C 0.28241 0.21682 0.34427
 N21 N 0.28597 0.22243 0.29503
 C22 C 0.32384 0.20367 0.27443
 C23 C 0.35836 0.17612 0.30293
 C24 C 0.31629 0.18954 0.37421
 C25 C 0.14859 0.21401 0.20977
 C26 C 0.11883 0.18339 0.17936
 C27 C 0.19345 0.15356 0.15325
 C28 C 0.22172 0.18367 0.18506
 N29 N 0.19920 0.21388 0.21197
 H30 H 0.25340 0.23316 0.36065
 H31 H 0.32759 0.21036 0.23577
 H32 H 0.38753 0.16044 0.28574
 H33 H 0.31262 0.18462 0.41317
 H34 H 0.13103 0.23825 0.23102
 H35 H 0.07865 0.18353 0.17838
 H36 H 0.21216 0.13081 0.13113
 H37 H 0.26175 0.18393 0.18681
 C38 C 0.14398 0.34182 0.34708
 C39 C 0.34386 0.35416 0.15581
 C40 C 0.14134 0.15368 0.14957
 C41 C 0.35468 0.16879 0.35341
 C42 C 0.82117 0.82422 0.23754
 H43 H 0.82040 0.83145 0.27572
 C44 C 0.85391 0.85106 0.20890
 H45 H 0.87606 0.88050 0.22508
 C46 C 0.79027 0.77923 0.16990
 H47 H 0.76601 0.75063 0.15497
 C48 C 0.82347 0.80409 0.14040
 H49 H 0.82422 0.79346 0.10322
 N50 N 0.78955 0.78968 0.21750
 C51 C 0.67462 0.76979 0.31994
 H52 H 0.67212 0.73109 0.32410
 C53 C 0.64473 0.79659 0.34543
 H54 H 0.61927 0.77863 0.36958
 C55 C 0.71056 0.84066 0.28318
 H56 H 0.73525 0.85776 0.25803
 C57 C 0.68157 0.86882 0.30818
 H58 H 0.68474 0.90748 0.30288
 Zn59 Zn 0.74667 0.75275 0.25761
 N60 N 0.70739 0.79209 0.29025
 C61 C 0.78659 0.71667 0.35241
 N62 N 0.78754 0.71517 0.30301
 C63 C 0.81857 0.68645 0.28362
 C64 C 0.84821 0.65567 0.31405
 C65 C 0.81599 0.68661 0.38429
 C66 C 0.66959 0.73437 0.18443
 C67 C 0.63821 0.70706 0.15216
 C68 C 0.67364 0.63556 0.19133
 C69 C 0.70391 0.66415 0.22323
 N70 N 0.70247 0.71271 0.21828
 H71 H 0.76288 0.74082 0.36721
 H72 H 0.81933 0.68670 0.24426
 H73 H 0.87175 0.63202 0.29806
 H74 H 0.81461 0.68747 0.42353
 H75 H 0.66863 0.77300 0.18185
 H76 H 0.61283 0.72467 0.12472
 H77 H 0.67625 0.59703 0.19456
 H78 H 0.72907 0.64743 0.25128
 C79 C 0.64840 0.84664 0.33969
 C80 C 0.85668 0.84047 0.15969
 C81 C 0.64133 0.65715 0.15449
 C82 C 0.84627 0.65488 0.36491
 C83 C 0.83071 0.29945 0.73491
 H84 H 0.84643 0.27956 0.76716
 C85 C 0.86203 0.32801 0.70633
 H86 H 0.90187 0.32934 0.71630
 C87 C 0.76002 0.32117 0.68180
 H88 H 0.72021 0.31774 0.67229
 C89 C 0.79000 0.35055 0.65240
 H90 H 0.77319 0.36996 0.62023
 N91 N 0.78076 0.29625 0.72205
 C92 C 0.66869 0.26841 0.82682
 H93 H 0.66633 0.22972 0.83089
 C94 C 0.63891 0.29492 0.85283
 H95 H 0.61387 0.27663 0.87718
 C96 C 0.70469 0.33966 0.79099
 H97 H 0.73050 0.35708 0.76708
 C98 C 0.67556 0.36749 0.81622
 H99 H 0.67910 0.40618 0.81159
 Zn100 Zn 0.73906 0.25456 0.75899
 N101 N 0.70044 0.29099 0.79618
 C102 C 0.77751 0.20751 0.84995
 N103 N 0.77911 0.21179 0.80048
 C104 C 0.80923 0.18459 0.77810
 C105 C 0.83780 0.15053 0.80497
 C106 C 0.80514 0.17330 0.87839
 C107 C 0.64747 0.20923 0.71914
 C108 C 0.61888 0.17750 0.68910
 C109 C 0.69190 0.16561 0.64787
 C110 C 0.71897 0.19767 0.67842
 N111 N 0.69703 0.21751 0.71439
 H112 H 0.75502 0.23065 0.86763
 H113 H 0.81129 0.18923 0.73907
 H114 H 0.85963 0.12852 0.78501
 H115 H 0.80446 0.17214 0.91784
 H116 H 0.63008 0.22617 0.74682
 H117 H 0.57987 0.16989 0.69411
 H118 H 0.71011 0.14890 0.62035
 H119 H 0.75772 0.20633 0.67366
 C120 C 0.64175 0.34504 0.84699
 C121 C 0.84165 0.35425 0.66474
 C122 C 0.64166 0.15449 0.65402
 C123 C 0.83505 0.14283 0.85600
 C124 C 0.29000 0.85342 0.70925
 H125 H 0.27017 0.87048 0.73509
 C126 C 0.31898 0.88164 0.67790
 H127 H 0.32045 0.92028 0.67906
 C128 C 0.31410 0.78266 0.67684
 H129 H 0.31203 0.74398 0.67677
 C130 C 0.34339 0.80943 0.64490
 H131 H 0.36398 0.79138 0.62016
 N132 N 0.28665 0.80489 0.70687
 C133 C 0.20426 0.78204 0.83205
 H134 H 0.22216 0.74978 0.84595
 C135 C 0.17672 0.80590 0.86257
 H136 H 0.17336 0.79154 0.89971
 C137 C 0.18279 0.83729 0.76561
 H138 H 0.18384 0.84831 0.72725
 C139 C 0.15660 0.86343 0.79545
 H140 H 0.13842 0.89515 0.78004
 Zn141 Zn 0.24463 0.76409 0.74462
 N142 N 0.20766 0.79854 0.78477
 C143 C 0.32080 0.74208 0.81827
 N144 N 0.28651 0.72244 0.78456
 C145 C 0.28268 0.67437 0.77907
 C146 C 0.31272 0.64388 0.80950
 C147 C 0.35186 0.71283 0.84931
 C148 C 0.19934 0.73092 0.65344
 C149 C 0.17060 0.69835 0.62455
 C150 C 0.13749 0.66258 0.69774
 C151 C 0.16697 0.69568 0.72525
 N152 N 0.19873 0.72758 0.70310
 H153 H 0.32348 0.78048 0.82140
 H154 H 0.25638 0.65945 0.75118
 H155 H 0.30884 0.60558 0.80546
 H156 H 0.37845 0.72857 0.87665
 H157 H 0.22333 0.75762 0.63618
 H158 H 0.17326 0.69964 0.58536
 H159 H 0.11420 0.63573 0.71599
 H160 H 0.16658 0.69430 0.76469
 C161 C 0.15411 0.84829 0.84495
 C162 C 0.34485 0.85952 0.64438
 C163 C 0.14082 0.66262 0.64709
 C164 C 0.34730 0.66316 0.84532
 C165 C 0.03268 -0.04511 -0.03683
 C166 C 0.06203 -0.00397 -0.01049
 C167 C 0.03495 0.02067 0.01774
 C168 C -0.02038 0.00381 0.01550
 C169 C 0.00742 -0.07522 0.00289
 C170 C -0.02018 -0.05017 0.03006
 C171 C -0.01031 -0.01929 -0.06671
 C172 C -0.03813 0.00654 -0.03976
 H173 H 0.10134 0.00450 -0.01321
 H174 H -0.04192 0.02458 0.03855
 H175 H 0.00934 -0.11379 0.00755
 H176 H -0.01492 -0.01635 -0.10630
 C177 C 0.03193 0.45391 0.46883
 C178 C 0.06597 0.48838 0.50026
 C179 C 0.04153 0.51455 0.52964
 C180 C -0.01524 0.50515 0.52439
 C181 C 0.00066 0.42443 0.50495
 C182 C -0.02320 0.45082 0.53458
 C183 C -0.00547 0.48772 0.44044
 C184 C -0.03020 0.51385 0.46946
 H185 H 0.10587 0.49266 0.49832
 H186 H -0.03541 0.52713 0.54759
 H187 H -0.00262 0.38565 0.50640
 H188 H -0.00925 0.49509 0.40127
 C189 C 0.53838 -0.03575 0.45724
 C190 C 0.56949 -0.00785 0.49770
 C191 C 0.54186 0.01767 0.52483
 C192 C 0.48595 0.01437 0.50899
 C193 C 0.49942 -0.06539 0.48511
 C194 C 0.47187 -0.03926 0.51144
 C195 C 0.50978 0.00381 0.42738
 C196 C 0.48221 0.02944 0.45426
 H197 H 0.60957 -0.00372 0.50236
 H198 H 0.46347 0.03559 0.53080
 H199 H 0.49537 -0.10412 0.48540
 H200 H 0.51164 0.01119 0.38837
 C201 C 0.53044 0.46391 -0.03707
 C202 C 0.56207 0.49961 -0.00452
 C203 C 0.53502 0.52615 0.02207
 C204 C 0.47878 0.51465 0.01499
 C205 C 0.49976 0.43415 -0.00108
 C206 C 0.47270 0.46010 0.02571
 C207 C 0.49342 0.49627 -0.06752
 C208 C 0.46603 0.52272 -0.04080
 H209 H 0.60174 0.50675 -0.00398
 H210 H 0.45793 0.53626 0.03785
 H211 H 0.49985 0.39543 0.00317
 H212 H 0.49152 0.50002 -0.10717
 C213 C 0.04741 -0.08921 -0.11238
 C214 C 0.07687 -0.11340 -0.14051
 C215 C 0.12537 -0.12487 -0.12297
 C216 C 0.14375 -0.11294 -0.07476
 C217 C 0.11227 -0.09149 -0.04458
 C218 C 0.06487 -0.07556 -0.06496
 C219 C 0.12964 -0.08708 0.00519
 N220 N 0.17679 -0.09808 0.02167
 N221 N 0.20773 -0.11375 -0.00794
 C222 C 0.19298 -0.12124 -0.05557
 H223 H 0.01012 -0.08253 -0.12816
 H224 H 0.06125 -0.12367 -0.17646
 H225 H 0.10636 -0.07549 0.03152
 H226 H 0.22008 -0.13333 -0.07788
 C227 C 0.04929 0.42043 0.38755
 C228 C 0.07676 0.39469 0.35888
 C229 C 0.11649 0.36846 0.37986
 C230 C 0.12843 0.36740 0.43122
 C231 C 0.09998 0.39301 0.46097
 C232 C 0.06088 0.42195 0.43875
 C233 C 0.11186 0.38831 0.51216
 N234 N 0.15050 0.36219 0.53148
 N235 N 0.17821 0.34000 0.50331
 C236 C 0.16858 0.34177 0.45392
 H237 H 0.01841 0.43836 0.36834
 H238 H 0.06654 0.39493 0.31969
 H239 H 0.09071 0.40437 0.53739
 H240 H 0.19252 0.32317 0.43294
 C241 C 0.61734 -0.07238 0.43491
 C242 C 0.64314 -0.09988 0.40648
 C243 C 0.61858 -0.12409 0.36760
 C244 C 0.56670 -0.12056 0.35677
 C245 C 0.53983 -0.09239 0.38555
 C246 C 0.56561 -0.06704 0.42516
 C247 C 0.48788 -0.09102 0.37342
 N248 N 0.46537 -0.11511 0.33526
 N249 N 0.49093 -0.14071 0.30809
 C250 C 0.54077 -0.14420 0.31748
 H251 H 0.63916 -0.05620 0.46497
 H252 H 0.68288 -0.10286 0.41541
 H253 H 0.46443 -0.07131 0.39351
 H254 H 0.55964 -0.16535 0.29403
 C255 C 0.61033 0.43196 -0.06325
 C256 C 0.63625 0.40413 -0.09124
 C257 C 0.61127 0.37422 -0.12532
 C258 C 0.55858 0.37225 -0.13141
 C259 C 0.53158 0.40018 -0.10240
 C260 C 0.55780 0.43182 -0.06840
 C261 C 0.47906 0.39497 -0.10861
 N262 N 0.45594 0.36582 -0.14237
 N263 N 0.48142 0.34117 -0.17049
 C264 C 0.53185 0.34347 -0.16627
 H265 H 0.63291 0.45263 -0.03695
 H266 H 0.67659 0.40546 -0.08567
 H267 H 0.45564 0.41327 -0.08707
 H268 H 0.55048 0.32291 -0.19041
 C269 C -0.05831 0.06985 -0.10420
 C270 C -0.08925 0.10202 -0.13044
 C271 C -0.13761 0.10868 -0.11766
 C272 C -0.15496 0.07919 -0.07752
 C273 C -0.12248 0.04664 -0.05015
 C274 C -0.07382 0.04160 -0.06408
 C275 C -0.14101 0.01820 -0.01134
 N276 N -0.18906 0.02019 -0.00180
 N277 N -0.22030 0.04812 -0.02909
 C278 C -0.20528 0.07684 -0.06695
 H279 H -0.02099 0.06784 -0.11502
 H280 H -0.07337 0.12403 -0.15945
 H281 H -0.11829 -0.00626 0.01102
 H282 H -0.23355 0.09591 -0.08940
 C283 C -0.04223 0.59043 0.42174
 C284 C -0.07206 0.62440 0.39640
 C285 C -0.12393 0.62064 0.39706
 C286 C -0.14608 0.58230 0.42502
 C287 C -0.11554 0.54786 0.45117
 C288 C -0.06333 0.55168 0.44862
 C289 C -0.13866 0.50957 0.47739
 N290 N -0.18893 0.50614 0.47741
 N291 N -0.21764 0.53816 0.45257
 C292 C -0.19804 0.57588 0.42617
 H293 H -0.00234 0.59373 0.41942
 H294 H -0.05460 0.65333 0.37505
 H295 H -0.11739 0.48219 0.49754
 H296 H -0.22338 0.60008 0.40605
 C297 C 0.40005 0.06247 0.43201
 C298 C 0.36920 0.09627 0.40779
 C299 C 0.38935 0.13737 0.38363
 C300 C 0.44182 0.14581 0.38642
 C301 C 0.47318 0.11115 0.41071
 C302 C 0.45182 0.06868 0.43241
 C303 C 0.52506 0.12059 0.41311
 N304 N 0.54394 0.16211 0.39257
 N305 N 0.51449 0.19483 0.37004
 C306 C 0.46416 0.18821 0.36639
 H307 H 0.38337 0.03031 0.44900
 H308 H 0.32920 0.08942 0.40630
 H309 H 0.55076 0.09575 0.43171
 H310 H 0.44216 0.21646 0.34857
 C311 C 0.45512 0.59158 -0.10154
 C312 C 0.42696 0.62556 -0.12907
 C313 C 0.37742 0.63084 -0.12077
 C314 C 0.35654 0.60309 -0.08236
 C315 C 0.38519 0.56849 -0.05401
 C316 C 0.43478 0.56160 -0.06470
 C317 C 0.36235 0.54140 -0.01686
 N318 N 0.31479 0.54871 -0.00844
 N319 N 0.28818 0.58133 -0.03486
 C320 C 0.30740 0.60877 -0.07152
 H321 H 0.49313 0.58811 -0.10979
 H322 H 0.44348 0.64692 -0.15815
 H323 H 0.38167 0.51490 0.00588
 H324 H 0.28420 0.63492 -0.09165
 C325 C -0.09783 -0.09438 0.04911
 C326 C -0.12718 -0.12189 0.08015
 C327 C -0.11016 -0.13321 0.12951
 C328 C -0.06057 -0.11698 0.14645
 C329 C -0.03196 -0.08659 0.11509
 C330 C -0.05106 -0.07514 0.06628
 C331 C 0.01620 -0.07035 0.13286
 N332 N 0.03568 -0.08559 0.17808
 N333 N 0.01042 -0.11648 0.20636
 C334 C -0.03647 -0.13323 0.19189
 H335 H -0.11182 -0.08824 0.01103
 H336 H -0.16430 -0.13315 0.06524
 H337 H 0.03876 -0.04640 0.11081
 H338 H -0.05345 -0.16038 0.21544
 C339 C -0.09347 0.39398 0.55276
 C340 C -0.12675 0.37156 0.58358
 C341 C -0.12528 0.38296 0.63267
 C342 C -0.09021 0.41883 0.65061
 C343 C -0.05520 0.44070 0.61961
 C344 C -0.05724 0.42842 0.56995
 C345 C -0.01851 0.47315 0.64012
 N346 N -0.01895 0.48510 0.68719
 N347 N -0.05339 0.46649 0.71538
 C348 C -0.08905 0.43388 0.69872
 H349 H -0.09608 0.38430 0.51494
 H350 H -0.15327 0.34424 0.56918
 H351 H 0.01089 0.48864 0.61965
 H352 H -0.11628 0.42030 0.72317
 C353 C 0.44527 -0.05841 0.59415
 C354 C 0.41473 -0.08308 0.62638
 C355 C 0.37335 -0.11158 0.60865
 C356 C 0.36096 -0.11314 0.55734
 C357 C 0.39205 -0.08802 0.52462
 C358 C 0.43523 -0.06166 0.54342
 C359 C 0.37829 -0.08943 0.47396
 N360 N 0.33637 -0.11476 0.45744
 N361 N 0.30719 -0.13846 0.48815
 C362 C 0.31790 -0.13840 0.53746
 H363 H 0.47802 -0.03800 0.60894
 H364 H 0.42436 -0.08119 0.66549
 H365 H 0.39992 -0.06999 0.44741
 H366 H 0.29228 -0.15752 0.56055
 C367 C 0.39095 0.42630 0.04757
 C368 C 0.36012 0.40135 0.07910
 C369 C 0.37918 0.38234 0.12519
 C370 C 0.43115 0.38917 0.13936
 C371 C 0.46184 0.41747 0.10827
 C372 C 0.44127 0.43634 0.06217
 C373 C 0.51284 0.42443 0.12353
 N374 N 0.53207 0.40314 0.16632
 N375 N 0.50386 0.37504 0.19455
 C376 C 0.45434 0.36695 0.18237
 H377 H 0.37543 0.43654 0.01085
 H378 H 0.32098 0.39596 0.06674
 H379 H 0.53769 0.44612 0.10160
 H380 H 0.43414 0.34232 0.20597
 C381 C 0.09623 0.04130 0.08681
 C382 C 0.12135 0.07303 0.11878
 C383 C 0.11121 0.12170 0.11546
 C384 C 0.07464 0.13852 0.07862
 C385 C 0.04787 0.10568 0.04695
 C386 C 0.05892 0.05664 0.05121
 C387 C 0.01251 0.12359 0.01053
 N388 N 0.00468 0.17108 0.00587
 N389 N 0.03030 0.20198 0.03488
 C390 C 0.06521 0.18746 0.07074
 H391 H 0.10626 0.00428 0.08982
 H392 H 0.14946 0.05946 0.14620
 H393 H -0.00835 0.10055 -0.01476
 H394 H 0.08575 0.21454 0.09193
 C395 C 0.05360 0.59823 0.55416
 C396 C 0.07786 0.63413 0.58198
 C397 C 0.11624 0.62337 0.61840
 C398 C 0.13063 0.57543 0.62681
 C399 C 0.10529 0.53882 0.59918
 C400 C 0.06723 0.55065 0.56179
 C401 C 0.11831 0.49128 0.61076
 N402 N 0.15597 0.48161 0.64568
 N403 N 0.18133 0.51623 0.67003
 C404 C 0.17006 0.56275 0.66178
 H405 H 0.02440 0.60778 0.52591
 H406 H 0.06659 0.67062 0.57511
 H407 H 0.09835 0.46169 0.59310
 H408 H 0.19219 0.58925 0.68254
 C409 C 0.55407 0.09874 0.55602
 C410 C 0.57836 0.13198 0.58703
 C411 C 0.61381 0.11751 0.62483
 C412 C 0.62322 0.06830 0.63318
 C413 C 0.59824 0.03443 0.60189
 C414 C 0.56464 0.05022 0.56205
 C415 C 0.60714 -0.01434 0.61218
 N416 N 0.63970 -0.02779 0.65065
 N417 N 0.66366 0.00412 0.67967
 C418 C 0.65649 0.05163 0.67235
 H419 H 0.52811 0.11128 0.52602
 H420 H 0.57057 0.16948 0.58059
 H421 H 0.58802 -0.04196 0.59056
 H422 H 0.67640 0.07581 0.69755
 C423 C 0.55171 0.56068 0.10313
 C424 C 0.57821 0.59168 0.13521
 C425 C 0.61188 0.62735 0.11813
 C426 C 0.61782 0.63269 0.06722
 C427 C 0.58989 0.60184 0.03447
 C428 C 0.55828 0.56430 0.05307
 C429 C 0.59450 0.60975 -0.01607
 N430 N 0.62697 0.64449 -0.03220
 N431 N 0.65500 0.67190 -0.00127
 C432 C 0.65175 0.66708 0.04779
 H433 H 0.52718 0.53262 0.11779
 H434 H 0.57309 0.58728 0.17393
 H435 H 0.57235 0.58899 -0.04296
 H436 H 0.67596 0.69004 0.07093
   
