data_POSCAR
  _audit_creation_date              2014-09-24
  _audit_creation_method            'ToBaCCo'
  _symmetry_space_group_name_H-M    'P1'
  _symmetry_Int_Tables_number       1
  _symmetry_cell_setting            triclinic
  loop_
  _symmetry_equiv_pos_as_xyz
 x,y,z
_cell_length_a 32.2692
_cell_length_b 32.0381
_cell_length_c 32.5720
_cell_angle_alpha 89.845300
_cell_angle_beta 90.593200
_cell_angle_gamma 90.324300
loop_
  _atom_site_label
  _atom_site_type_symbol
  _atom_site_fract_x
  _atom_site_fract_y
  _atom_site_fract_z
N1 N 0.16817 1.25740 0.14539
 N2 N 0.14021 1.25805 0.17438
 C3 C 0.11308 1.28885 0.16624
 C4 C 0.12494 1.30920 0.13041
 C5 C 0.16000 1.28782 0.11803
 H6 H 0.08628 1.29555 0.18468
 H7 H 0.17627 1.29157 0.08940
 Cu8 Cu 0.14029 1.21595 0.21761
 Cu9 Cu 0.20976 1.21378 0.14228
 Cu10 Cu 0.21657 1.14512 0.22454
 N11 N 0.14128 1.17426 0.26114
 N12 N 0.17154 1.14713 0.26399
 C13 C 0.16348 1.12025 0.29472
 C14 C 0.12616 1.13113 0.31268
 C15 C 0.11295 1.16551 0.29000
 H16 H 0.18161 1.09262 0.30087
 H17 H 0.08441 1.18251 0.29375
 N18 N 0.25838 1.14798 0.18079
 N19 N 0.25538 1.17371 0.14919
 C20 C 0.28611 1.16559 0.12283
 C21 C 0.30982 1.13336 0.13855
 C22 C 0.29108 1.12271 0.17518
 H23 H 0.28959 1.18019 0.09309
 H24 H 0.29946 1.09698 0.19508
 H25 H 0.18111 1.16733 0.17719
 H26 H 0.21367 1.20671 0.20492
 N27 N 0.82634 0.73926 0.14335
 N28 N 0.85577 0.74025 0.17153
 C29 C 0.88381 0.71058 0.16313
 C30 C 0.87092 0.68935 0.12821
 C31 C 0.83444 0.70873 0.11637
 H32 H 0.91273 0.70632 0.17963
 H33 H 0.81635 0.70246 0.08892
 Cu34 Cu 0.85627 0.78264 0.21430
 Cu35 Cu 0.78361 0.78182 0.14027
 Cu36 Cu 0.77869 0.85201 0.22073
 N37 N 0.85509 0.82425 0.25768
 N38 N 0.82443 0.85084 0.26029
 C39 C 0.83235 0.87758 0.29119
 C40 C 0.86995 0.86710 0.30962
 C41 C 0.88352 0.83316 0.28694
 H42 H 0.81377 0.90479 0.29728
 H43 H 0.91227 0.81647 0.29109
 N44 N 0.73588 0.84828 0.17715
 N45 N 0.73804 0.82190 0.14620
 C46 C 0.70711 0.83009 0.11937
 C47 C 0.68413 0.86300 0.13418
 C48 C 0.70348 0.87390 0.17075
 H49 H 0.70323 0.81529 0.08978
 H50 H 0.69590 0.90022 0.18991
 H51 H 0.81290 0.82948 0.17332
 H52 H 0.78218 0.79024 0.20280
 N53 N 0.82450 1.25129 -0.14634
 N54 N 0.85313 1.25137 -0.17476
 C55 C 0.88035 1.28245 -0.16688
 C56 C 0.86805 1.30307 -0.13173
 C57 C 0.83274 1.28197 -0.11933
 H58 H 0.90817 1.28848 -0.18419
 H59 H 0.81587 1.28685 -0.09125
 Cu60 Cu 0.85427 1.20769 -0.21613
 Cu61 Cu 0.78127 1.20866 -0.14341
 Cu62 Cu 0.78936 1.12614 -0.21144
 N63 N 0.85492 1.16412 -0.25771
 N64 N 0.82900 1.13245 -0.25579
 C65 C 0.83768 1.10526 -0.28581
 C66 C 0.87087 1.12059 -0.30831
 C67 C 0.88111 1.15803 -0.28903
 H68 H 0.82143 1.07601 -0.29029
 H69 H 0.90784 1.17752 -0.29491
 N70 N 0.74496 1.12994 -0.17052
 N71 N 0.74131 1.16188 -0.14534
 C72 C 0.70941 1.15451 -0.11995
 C73 C 0.69192 1.11626 -0.12976
 C74 C 0.71551 1.10142 -0.16174
 H75 H 0.70065 1.17448 -0.09482
 H76 H 0.71273 1.07108 -0.17599
 H77 H 0.81819 1.16324 -0.16691
 H78 H 0.78237 1.18931 -0.20420
 N79 N 0.16688 0.74962 -0.13998
 N80 N 0.14457 0.74214 -0.17320
 C81 C 0.12145 0.70760 -0.16705
 C82 C 0.12998 0.69248 -0.12800
 C83 C 0.15869 0.72022 -0.11163
 H84 H 0.09822 0.69575 -0.18824
 H85 H 0.17042 0.72071 -0.08040
 Cu86 Cu 0.14341 0.78266 -0.21779
 Cu87 Cu 0.19971 0.80057 -0.13358
 Cu88 Cu 0.22099 0.85154 -0.22541
 N89 N 0.14505 0.82260 -0.26279
 N90 N 0.17565 0.84962 -0.26559
 C91 C 0.16798 0.87583 -0.29706
 C92 C 0.13021 0.86495 -0.31518
 C93 C 0.11660 0.83101 -0.29209
 H94 H 0.18669 0.90315 -0.30343
 H95 H 0.08760 0.81429 -0.29558
 N96 N 0.25257 0.86158 -0.17422
 N97 N 0.24354 0.84322 -0.13906
 C98 C 0.26793 0.85926 -0.10923
 C99 C 0.29295 0.88968 -0.12628
 C100 C 0.28292 0.88988 -0.16767
 H101 H 0.26680 0.85042 -0.07720
 H102 H 0.29580 0.91009 -0.19100
 H103 H 0.17853 0.83911 -0.18136
 H104 H 0.21394 0.79503 -0.19315
 C105 C 0.44890 0.98199 -0.02517
 C106 C 0.47318 1.00250 0.00459
 C107 C 0.45424 1.02752 0.03418
 C108 C 0.41109 1.03277 0.03353
 C109 C 0.38703 1.01165 0.00408
 C110 C 0.40573 0.98651 -0.02554
 C111 C 0.51848 0.99851 0.00396
 C112 C 0.54151 1.02143 -0.02466
 C113 C 0.58467 1.01696 -0.02642
 C114 C 0.60458 0.98950 0.00085
 C115 C 0.58179 0.96643 0.02957
 C116 C 0.53868 0.97148 0.03142
 H117 H 0.46358 0.96260 -0.04798
 H118 H 0.47302 1.04345 0.05711
 H119 H 0.52590 1.04293 -0.04531
 H120 H 0.52089 0.95411 0.05383
 H121 H 0.35361 1.01504 0.00400
 H122 H 0.63795 0.98602 -0.00033
 C123 C -0.02901 0.45278 0.97094
 C124 C -0.00266 0.47523 0.99735
 C125 C 0.02331 0.45397 1.02492
 C126 C 0.02345 0.41025 1.02588
 C127 C -0.00395 0.38794 1.00033
 C128 C -0.03054 0.40898 0.97294
 C129 C -0.00234 0.52103 0.99679
 C130 C -0.02796 0.54305 1.02350
 C131 C -0.02542 0.58673 1.02575
 C132 C 0.00206 0.60819 0.99998
 C133 C 0.02746 0.58638 0.97283
 C134 C 0.02505 0.54269 0.97120
 H135 H -0.04861 0.46937 0.94922
 H136 H 0.04372 0.47142 1.04530
 H137 H -0.04940 0.52616 1.04293
 H138 H 0.04472 0.52561 0.95042
 H139 H -0.00437 0.35412 1.00159
 H140 H 0.00400 0.64196 1.00133
 C141 C 0.97123 -0.02815 0.45508
 C142 C 0.99791 -0.00135 0.47680
 C143 C 1.02428 0.02576 0.45552
 C144 C 1.02484 0.02556 0.41247
 C145 C 0.99743 -0.00075 0.39088
 C146 C 0.97027 -0.02739 0.41199
 C147 C 0.99893 -0.00205 0.52184
 C148 C 1.02644 -0.02860 0.54258
 C149 C 1.02891 -0.02821 0.58560
 C150 C 1.00298 -0.00160 0.60769
 C151 C 0.97526 0.02501 0.58713
 C152 C 0.97311 0.02442 0.54409
 H153 H 0.95116 -0.04942 0.47165
 H154 H 1.04475 0.04661 0.47244
 H155 H 1.04601 -0.04941 0.52527
 H156 H 0.95148 0.04456 0.52796
 H157 H 0.99733 -0.00059 0.35759
 H158 H 1.00447 -0.00150 0.64096
 C159 C 0.12108 0.36711 1.07881
 C160 C 0.10241 0.33956 1.10790
 C161 C 0.05902 0.34024 1.11186
 C162 C 0.03431 0.36356 1.08527
 C163 C 0.05183 0.38758 1.05402
 C164 C 0.09554 0.38987 1.05066
 C165 C 0.16432 0.37454 1.07837
 C166 C 0.18215 0.39990 1.04844
 C167 C 0.15741 0.41901 1.01878
 C168 C 0.11449 0.41431 1.01985
 H169 H 0.18468 0.36212 1.10186
 H170 H 0.21536 0.40488 1.04837
 H171 H 0.17146 0.43829 0.99534
 H172 H 0.09646 0.43022 0.99650
 H173 H 0.04338 0.32048 1.13387
 H174 H 0.00094 0.36212 1.08856
 C175 C -0.08018 0.62725 1.12199
 C176 C -0.10469 0.65921 1.10384
 C177 C -0.10381 0.66484 1.06116
 C178 C -0.07831 0.64077 1.03670
 C179 C -0.05233 0.61045 1.05395
 C180 C -0.05274 0.60368 1.09706
 C181 C -0.08267 0.61766 1.16424
 C182 C -0.05680 0.58781 1.18202
 C183 C -0.02810 0.56687 1.15820
 C184 C -0.02595 0.57462 1.11615
 H185 H -0.10501 0.63250 1.18382
 H186 H -0.05890 0.58104 1.21452
 H187 H -0.00763 0.54422 1.17232
 H188 H -0.00295 0.55781 1.09900
 H189 H -0.12215 0.68898 1.04654
 H190 H -0.07851 0.64624 1.00385
 C191 C -0.12664 0.36635 0.91568
 C192 C -0.10777 0.33441 0.89226
 C193 C -0.06464 0.32978 0.89430
 C194 C -0.04045 0.35462 0.92008
 C195 C -0.05846 0.38469 0.94531
 C196 C -0.10204 0.39058 0.94356
 C197 C -0.16932 0.37520 0.91173
 C198 C -0.18789 0.40486 0.93669
 C199 C -0.16443 0.42632 0.96591
 C200 C -0.12195 0.41935 0.96946
 H201 H -0.18863 0.35995 0.88894
 H202 H -0.22071 0.41106 0.93349
 H203 H -0.17917 0.44878 0.98569
 H204 H -0.10513 0.43654 0.99283
 H205 H -0.04943 0.30574 0.87675
 H206 H -0.00723 0.34986 0.92083
 C207 C 0.12490 0.63208 0.92279
 C208 C 0.10603 0.66072 0.89509
 C209 C 0.06272 0.66185 0.89181
 C210 C 0.03807 0.63691 0.91671
 C211 C 0.05581 0.60985 0.94565
 C212 C 0.09958 0.60693 0.94878
 C213 C 0.16836 0.62756 0.92501
 C214 C 0.18650 0.60029 0.95328
 C215 C 0.16186 0.57704 0.97979
 C216 C 0.11882 0.58027 0.97774
 H217 H 0.18867 0.64451 0.90462
 H218 H 0.21988 0.59724 0.95470
 H219 H 0.17616 0.55623 1.00194
 H220 H 0.10096 0.56177 0.99908
 H221 H 0.04768 0.68351 0.87095
 H222 H 0.00467 0.63934 0.91395
 C223 C 1.12208 0.08103 0.37179
 C224 C 1.10336 0.10834 0.34230
 C225 C 1.05980 0.11024 0.34050
 C226 C 1.03532 0.08343 0.36362
 C227 C 1.05313 0.05373 0.38972
 C228 C 1.09686 0.05226 0.39413
 C229 C 1.16486 0.08305 0.38151
 C230 C 1.18293 0.05456 0.40862
 C231 C 1.15881 0.02395 0.42722
 C232 C 1.11616 0.02279 0.42029
 H233 H 1.18457 0.10746 0.36956
 H234 H 1.21581 0.05634 0.41533
 H235 H 1.17309 0.00156 0.44783
 H236 H 1.09860 -0.00126 0.43580
 H237 H 1.04396 0.13080 0.31921
 H238 H 1.00191 0.08535 0.36046
 C239 C 1.12589 -0.08507 0.62555
 C240 C 1.10727 -0.11219 0.65507
 C241 C 1.06371 -0.11366 0.65692
 C242 C 1.03930 -0.08650 0.63396
 C243 C 1.05716 -0.05692 0.60789
 C244 C 1.10078 -0.05605 0.60323
 C245 C 1.16842 -0.08750 0.61582
 C246 C 1.18645 -0.05928 0.58857
 C247 C 1.16254 -0.02853 0.56986
 C248 C 1.12007 -0.02692 0.57687
 H249 H 1.18790 -0.11203 0.62788
 H250 H 1.21915 -0.06138 0.58183
 H251 H 1.17680 -0.00639 0.54911
 H252 H 1.10262 -0.00282 0.56125
 H253 H 1.04789 -0.13405 0.67822
 H254 H 1.00594 -0.08799 0.63726
 C255 C 0.87356 -0.08345 0.36912
 C256 C 0.89253 -0.11024 0.33986
 C257 C 0.93612 -0.11172 0.33898
 C258 C 0.96033 -0.08496 0.36277
 C259 C 0.94224 -0.05568 0.38864
 C260 C 0.89851 -0.05466 0.39211
 C261 C 0.83081 -0.08600 0.37799
 C262 C 0.81246 -0.05787 0.40476
 C263 C 0.83627 -0.02716 0.42390
 C264 C 0.87893 -0.02560 0.41794
 H265 H 0.81135 -0.11055 0.36565
 H266 H 0.77958 -0.06002 0.41077
 H267 H 0.82177 -0.00504 0.44421
 H268 H 0.89630 -0.00157 0.43393
 H269 H 0.95216 -0.13189 0.31791
 H270 H 0.99376 -0.08654 0.36032
 C271 C 0.91927 0.11991 0.63189
 C272 C 0.89333 0.09933 0.66102
 C273 C 0.89244 0.05537 0.66128
 C274 C 0.91893 0.03231 0.63695
 C275 C 0.94726 0.05195 0.61107
 C276 C 0.94765 0.09610 0.60817
 C277 C 0.91621 0.16319 0.62382
 C278 C 0.94338 0.18305 0.59698
 C279 C 0.97359 0.16026 0.57696
 C280 C 0.97566 0.11716 0.58218
 H281 H 0.89197 0.18191 0.63685
 H282 H 0.94084 0.21629 0.59157
 H283 H 0.99491 0.17593 0.55654
 H284 H 0.99922 0.10060 0.56550
 H285 H 0.87299 0.03811 0.68226
 H286 H 0.91786 -0.00146 0.63897
 C287 C 0.37209 1.12871 0.09139
 C288 C 0.34149 1.10931 0.11611
 C289 C 0.33794 1.06570 0.11612
 C290 C 0.36196 1.04152 0.09028
 C291 C 0.39035 1.06006 0.06353
 C292 C 0.39604 1.10400 0.06415
 C293 C 0.37957 1.17214 0.09319
 C294 C 0.40831 1.19106 0.06733
 C295 C 0.43014 1.16723 0.03931
 C296 C 0.42416 1.12413 0.03757
 H297 H 0.36381 1.19176 0.11493
 H298 H 0.41356 1.22441 0.06895
 H299 H 0.45205 1.18218 0.01898
 H300 H 0.44173 1.10697 0.01522
 H301 H 0.31487 1.05019 0.13475
 H302 H 0.35736 1.00799 0.09013
 C303 C 0.62968 1.06707 -0.12373
 C304 C 0.66094 1.09260 -0.10552
 C305 C 0.66479 1.09379 -0.06265
 C306 C 0.63957 1.06933 -0.03790
 C307 C 0.60966 1.04261 -0.05503
 C308 C 0.60452 1.04109 -0.09832
 C309 C 0.62233 1.06718 -0.16654
 C310 C 0.59269 1.04070 -0.18410
 C311 C 0.56974 1.01377 -0.15951
 C312 C 0.57549 1.01383 -0.11704
 H313 H 0.63883 1.08807 -0.18679
 H314 H 0.58757 1.04100 -0.21700
 H315 H 0.54714 0.99293 -0.17340
 H316 H 0.55711 0.99223 -0.09920
 H317 H 0.68841 1.11297 -0.04805
 H318 H 0.64374 1.07097 -0.00488
 C319 C 0.32292 0.96086 -0.10678
 C320 C 0.32296 0.91658 -0.10392
 C321 C 0.35149 0.89692 -0.07767
 C322 C 0.37934 0.92007 -0.05399
 C323 C 0.37954 0.96371 -0.05570
 C324 C 0.35213 0.98449 -0.08313
 C325 C 0.29365 0.98245 -0.13130
 C326 C 0.29473 1.02587 -0.13432
 C327 C 0.32459 1.04870 -0.11282
 C328 C 0.35301 1.02837 -0.08735
 H329 H 0.26929 0.96638 -0.14792
 H330 H 0.27226 1.04190 -0.15346
 H331 H 0.32550 1.08237 -0.11559
 H332 H 0.37573 1.04729 -0.07119
 H333 H 0.35182 0.86320 -0.07505
 H334 H 0.40003 0.90381 -0.03306
 C335 C 0.62152 0.86899 0.08612
 C336 C 0.65299 0.88768 0.11087
 C337 C 0.65758 0.93120 0.11059
 C338 C 0.63343 0.95598 0.08485
 C339 C 0.60385 0.93819 0.05838
 C340 C 0.59741 0.89434 0.05894
 C341 C 0.61321 0.82572 0.08796
 C342 C 0.58350 0.80753 0.06217
 C343 C 0.56148 0.83196 0.03421
 C344 C 0.56827 0.87493 0.03246
 H345 H 0.62906 0.80565 0.10966
 H346 H 0.57761 0.77428 0.06381
 H347 H 0.53880 0.81756 0.01394
 H348 H 0.55056 0.89259 0.01013
 H349 H 0.68136 0.94620 0.12917
 H350 H 0.63858 0.98944 0.08483
   
