data_POSCAR
  _audit_creation_date              2014-09-24
  _audit_creation_method            'ToBaCCo'
  _symmetry_space_group_name_H-M    'P1'
  _symmetry_Int_Tables_number       1
  _symmetry_cell_setting            triclinic
  loop_
  _symmetry_equiv_pos_as_xyz
 x,y,z
_cell_length_a 40.5966
_cell_length_b 40.5918
_cell_length_c 40.7324
_cell_angle_alpha 83.533100
_cell_angle_beta 96.992000
_cell_angle_gamma 103.739300
loop_
  _atom_site_label
  _atom_site_type_symbol
  _atom_site_fract_x
  _atom_site_fract_y
  _atom_site_fract_z
C1 C 0.55228 0.55300 -0.00030
 C2 C 0.55755 0.51995 0.00494
 C3 C 0.52962 0.49198 0.00578
 C4 C 0.49594 0.49668 -0.00005
 C5 C 0.49119 0.53028 -0.00601
 C6 C 0.51917 0.55822 -0.00542
 C7 C 0.46603 0.46678 0.00009
 C8 C 0.43420 0.46986 0.00843
 C9 C 0.40608 0.44209 0.00784
 C10 C 0.40967 0.41045 0.00031
 C11 C 0.44114 0.40669 -0.00733
 C12 C 0.46892 0.43477 -0.00814
 H13 H 0.57394 0.57466 -0.00040
 H14 H 0.53441 0.46672 0.01122
 H15 H 0.46586 0.53501 -0.01135
 H16 H 0.43097 0.49367 0.01563
 H17 H 0.38803 0.38882 0.00039
 H18 H 0.49258 0.43138 -0.01542
 C19 C -0.00383 0.57979 0.44678
 C20 C 0.00223 0.58911 0.47939
 C21 C 0.00511 0.56446 0.50598
 C22 C 0.00083 0.52995 0.50028
 C23 C -0.00621 0.52097 0.46723
 C24 C -0.00774 0.54582 0.44066
 C25 C 0.00410 0.50344 0.52843
 C26 C 0.01526 0.47415 0.52343
 C27 C 0.01713 0.44862 0.54922
 C28 C 0.00933 0.45258 0.58077
 C29 C -0.00092 0.48177 0.58652
 C30 C -0.00407 0.50685 0.56043
 H31 H -0.00531 0.59900 0.42617
 H32 H 0.01116 0.57243 0.53093
 H33 H -0.01053 0.49467 0.46188
 H34 H 0.02261 0.47088 0.49954
 H35 H 0.01107 0.43287 0.60081
 H36 H -0.01326 0.52862 0.56522
 C37 C 0.58110 -0.00590 0.55257
 C38 C 0.54732 -0.00964 0.55893
 C39 C 0.52208 -0.00780 0.53261
 C40 C 0.53047 -0.00065 0.49953
 C41 C 0.56481 0.00346 0.49354
 C42 C 0.58986 0.00030 0.51992
 C43 C 0.50352 0.00290 0.47168
 C44 C 0.50620 -0.00522 0.43943
 C45 C 0.48071 -0.00187 0.41361
 C46 C 0.45182 0.00856 0.41984
 C47 C 0.44858 0.01634 0.45164
 C48 C 0.47452 0.01424 0.47720
 H49 H 0.60055 -0.00759 0.57308
 H50 H 0.49596 -0.01196 0.53825
 H51 H 0.57234 0.00960 0.46857
 H52 H 0.52774 -0.01454 0.43426
 H53 H 0.43178 0.01047 0.39999
 H54 H 0.47180 0.02153 0.50131
 O55 O 0.46148 -0.02034 -0.06625
 O56 O 0.45874 -0.02531 0.02444
 O57 O 0.45610 0.02189 -0.02430
 O58 O 0.46297 -0.06741 -0.01785
 O59 O 0.51917 -0.05082 -0.01115
 O60 O 0.51226 0.03870 -0.01749
 O61 O 0.51492 -0.00863 0.03101
 O62 O 0.51765 -0.00356 -0.05929
 Cu63 Cu 0.45414 -0.02438 -0.02163
 Cu64 Cu 0.52165 -0.00431 -0.01351
 C65 C 0.49016 -0.01148 -0.07799
 C66 C 0.48644 -0.01788 0.04302
 C67 C 0.48296 0.04537 -0.02193
 C68 C 0.49220 -0.07419 -0.01369
 O69 O -0.05124 0.52037 1.01141
 O70 O 0.03836 0.51347 1.01839
 O71 O -0.00887 0.51672 0.96945
 O72 O -0.00406 0.51827 1.05999
 O73 O -0.02090 0.46214 1.06559
 O74 O -0.02560 0.46058 0.97468
 O75 O 0.02150 0.45735 1.02385
 O76 O -0.06789 0.46421 1.01676
 Cu77 Cu -0.00468 0.52285 1.01423
 Cu78 Cu -0.02481 0.45540 1.02073
 C79 C -0.07466 0.49341 1.01319
 C80 C 0.04502 0.48419 1.02226
 C81 C -0.01809 0.48845 0.95674
 C82 C -0.01206 0.49059 1.07805
 O83 O 0.01799 -0.01655 0.47085
 O84 O 0.02916 0.07587 0.47465
 O85 O 0.06955 0.03559 0.47096
 O86 O -0.02275 0.02407 0.47331
 O87 O -0.01616 0.01705 0.52816
 O88 O 0.07646 0.02849 0.52580
 O89 O 0.03594 0.06865 0.52949
 O90 O 0.02468 -0.02348 0.52569
 Cu91 Cu 0.02276 0.03040 0.46691
 Cu92 Cu 0.03086 0.02192 0.53282
 C93 C 0.01971 -0.03556 0.49767
 C94 C 0.03439 0.08781 0.50279
 C95 C 0.08859 0.03395 0.49790
 C96 C -0.03503 0.01891 0.50109
 C97 C -0.41006 0.51517 1.00836
 C98 C -0.38118 0.51169 1.01060
 C99 C -0.34648 0.50840 1.01238
 C100 C -0.33877 0.48180 0.99794
 C101 C -0.30487 0.47961 0.99822
 C102 C -0.27823 0.50406 1.01295
 C103 C -0.28630 0.53050 1.02770
 C104 C -0.32020 0.53265 1.02737
 C105 C -0.24217 0.50227 1.01258
 C106 C -0.21864 0.50957 1.04061
 C107 C -0.18464 0.50814 1.04014
 C108 C -0.17367 0.49946 1.01168
 C109 C -0.19685 0.49214 0.98367
 C110 C -0.23089 0.49352 0.98409
 C111 C -0.13872 0.49766 1.01148
 C112 C -0.10945 0.49591 1.01187
 H113 H -0.35892 0.46293 0.98622
 H114 H -0.29951 0.45871 0.98705
 H115 H -0.26636 0.54995 1.03885
 H116 H -0.32587 0.55349 1.03840
 H117 H -0.22662 0.51595 1.06304
 H118 H -0.16693 0.51369 1.06202
 H119 H -0.18862 0.48541 0.96151
 H120 H -0.24827 0.48822 0.96198
 C121 C 0.37321 0.44638 1.01394
 C122 C 0.34547 0.45015 1.01812
 C123 C 0.31214 0.45477 1.02207
 C124 C 0.28798 0.42798 1.03604
 C125 C 0.25505 0.43194 1.03827
 C126 C 0.24583 0.46279 1.02650
 C127 C 0.27048 0.48974 1.01295
 C128 C 0.30337 0.48571 1.01073
 C129 C 0.21042 0.46655 1.02742
 C130 C 0.20417 0.49723 1.03539
 C131 C 0.17077 0.50100 1.03519
 C132 C 0.14320 0.47421 1.02701
 C133 C 0.14916 0.44352 1.01931
 C134 C 0.18250 0.43968 1.01952
 C135 C 0.10878 0.47827 1.02586
 C136 C 0.07977 0.48124 1.02445
 H137 H 0.29448 0.40391 1.04489
 H138 H 0.23680 0.41088 1.04922
 H139 H 0.26408 0.51363 1.00326
 H140 H 0.32182 0.50656 0.99969
 H141 H 0.22510 0.51824 1.04195
 H142 H 0.16645 0.52486 1.04124
 H143 H 0.12801 0.42265 1.01282
 H144 H 0.18642 0.41594 1.01279
 C145 C 0.00524 -0.37777 0.48491
 C146 C 0.00736 -0.34828 0.48874
 C147 C 0.00933 -0.31292 0.49205
 C148 C 0.03801 -0.28823 0.48317
 C149 C 0.03911 -0.25371 0.48443
 C150 C 0.01144 -0.24341 0.49456
 C151 C -0.01709 -0.26846 0.50389
 C152 C -0.01813 -0.30298 0.50258
 C153 C 0.01211 -0.20668 0.49482
 C154 C -0.00069 -0.19489 0.52075
 C155 C -0.00001 -0.16029 0.52090
 C156 C 0.01338 -0.13706 0.49514
 C157 C 0.02605 -0.14855 0.46918
 C158 C 0.02542 -0.18311 0.46899
 C159 C 0.01487 -0.10134 0.49569
 C160 C 0.01669 -0.07134 0.49639
 H161 H 0.05939 -0.29564 0.47491
 H162 H 0.06162 -0.23507 0.47755
 H163 H -0.03894 -0.26134 0.51141
 H164 H -0.04057 -0.32187 0.50927
 H165 H -0.01075 -0.21233 0.54117
 H166 H -0.00971 -0.15164 0.54122
 H167 H 0.03647 -0.13078 0.44910
 H168 H 0.03500 -0.19144 0.44843
 C169 C 0.02543 0.41752 0.54290
 C170 C 0.03113 0.39089 0.53759
 C171 C 0.03651 0.35848 0.53134
 C172 C 0.01810 0.34178 0.50431
 C173 C 0.02128 0.30919 0.49945
 C174 C 0.04290 0.29281 0.52167
 C175 C 0.06188 0.31012 0.54837
 C176 C 0.05866 0.34274 0.55318
 C177 C 0.04435 0.25724 0.51784
 C178 C 0.04482 0.23358 0.54583
 C179 C 0.04421 0.19962 0.54219
 C180 C 0.04317 0.18882 0.51058
 C181 C 0.04325 0.21224 0.48259
 C182 C 0.04386 0.24625 0.48617
 C183 C 0.04076 0.15345 0.50698
 C184 C 0.03814 0.12359 0.50466
 H185 H 0.00071 0.35366 0.48738
 H186 H 0.00596 0.29638 0.47895
 H187 H 0.07905 0.29835 0.56565
 H188 H 0.07299 0.35544 0.57421
 H189 H 0.04466 0.24109 0.57048
 H190 H 0.04398 0.18166 0.56401
 H191 H 0.04247 0.20413 0.45800
 H192 H 0.04387 0.26394 0.46419
 C193 C 0.53881 -0.01372 -0.40736
 C194 C 0.53206 -0.01603 -0.37906
 C195 C 0.52459 -0.01764 -0.34522
 C196 C 0.50047 -0.00097 -0.33735
 C197 C 0.49459 -0.00081 -0.30426
 C198 C 0.51288 -0.01725 -0.27859
 C199 C 0.53667 -0.03441 -0.28682
 C200 C 0.54249 -0.03455 -0.31992
 C201 C 0.50786 -0.01576 -0.24333
 C202 C 0.53602 -0.01074 -0.21914
 C203 C 0.53147 -0.00915 -0.18597
 C204 C 0.49878 -0.01253 -0.17646
 C205 C 0.47057 -0.01745 -0.20030
 C206 C 0.47506 -0.01901 -0.23357
 C207 C 0.49443 -0.01162 -0.14207
 C208 C 0.49186 -0.01124 -0.11296
 H209 H 0.48662 0.01238 -0.35674
 H210 H 0.47641 0.01295 -0.29869
 H211 H 0.55079 -0.04770 -0.26766
 H212 H 0.56123 -0.04752 -0.32574
 H213 H 0.56162 -0.00760 -0.22594
 H214 H 0.55349 -0.00532 -0.16771
 H215 H 0.44513 -0.02027 -0.19317
 H216 H 0.45287 -0.02324 -0.25156
 C217 C 0.48400 -0.00866 0.38038
 C218 C 0.48584 -0.01338 0.35203
 C219 C 0.48708 -0.01787 0.31770
 C220 C 0.45731 -0.03261 0.29856
 C221 C 0.45775 -0.03461 0.26459
 C222 C 0.48801 -0.02177 0.24926
 C223 C 0.51798 -0.00763 0.26887
 C224 C 0.51747 -0.00566 0.30285
 C225 C 0.48800 -0.02201 0.21282
 C226 C 0.50619 0.00637 0.19425
 C227 C 0.50545 0.00666 0.15983
 C228 C 0.48656 -0.02135 0.14348
 C229 C 0.46852 -0.04980 0.16171
 C230 C 0.46920 -0.05015 0.19617
 C231 C 0.48582 -0.02074 0.10800
 C232 C 0.48573 -0.01970 0.07830
 H233 H 0.43357 -0.04188 0.30975
 H234 H 0.43418 -0.04524 0.25013
 H235 H 0.54176 0.00205 0.25789
 H236 H 0.54065 0.00587 0.31742
 H237 H 0.52046 0.02863 0.20624
 H238 H 0.51947 0.02884 0.14595
 H239 H 0.45392 -0.07168 0.14930
 H240 H 0.45524 -0.07250 0.20981
 C241 C 0.51435 -0.40943 -0.00893
 C242 C 0.51082 -0.38058 -0.01123
 C243 C 0.50744 -0.34592 -0.01308
 C244 C 0.48110 -0.33805 0.00151
 C245 C 0.47885 -0.30417 0.00119
 C246 C 0.50298 -0.27770 -0.01372
 C247 C 0.52915 -0.28593 -0.02863
 C248 C 0.53136 -0.31982 -0.02826
 C249 C 0.50116 -0.24164 -0.01335
 C250 C 0.50790 -0.21849 -0.04145
 C251 C 0.50644 -0.18449 -0.04097
 C252 C 0.49829 -0.17315 -0.01244
 C253 C 0.49153 -0.19596 0.01563
 C254 C 0.49295 -0.22999 0.01521
 C255 C 0.49647 -0.13821 -0.01221
 C256 C 0.49471 -0.10895 -0.01252
 H257 H 0.46249 -0.35806 0.01339
 H258 H 0.45816 -0.29869 0.01248
 H259 H 0.54836 -0.26612 -0.03992
 H260 H 0.55200 -0.32562 -0.03941
 H261 H 0.51388 -0.22676 -0.06393
 H262 H 0.51156 -0.16707 -0.06290
 H263 H 0.48523 -0.18744 0.03786
 H264 H 0.48809 -0.24708 0.03738
 C265 C 0.44529 0.37368 -0.01334
 C266 C 0.44897 0.34587 -0.01744
 C267 C 0.45352 0.31246 -0.02133
 C268 C 0.42652 0.28807 -0.03514
 C269 C 0.43046 0.25510 -0.03734
 C270 C 0.46151 0.24609 -0.02569
 C271 C 0.48865 0.27095 -0.01228
 C272 C 0.48464 0.30388 -0.01010
 C273 C 0.46527 0.21067 -0.02659
 C274 C 0.49580 0.20435 -0.03475
 C275 C 0.49959 0.17096 -0.03458
 C276 C 0.47296 0.14348 -0.02625
 C277 C 0.44243 0.14950 -0.01836
 C278 C 0.43858 0.18283 -0.01854
 C279 C 0.47703 0.10908 -0.02521
 C280 C 0.48000 0.08008 -0.02392
 H281 H 0.40231 0.29442 -0.04390
 H282 H 0.40924 0.23667 -0.04817
 H283 H 0.51270 0.26472 -0.00269
 H284 H 0.50566 0.32251 0.00081
 H285 H 0.51666 0.22522 -0.04143
 H286 H 0.52331 0.16659 -0.04078
 H287 H 0.42170 0.12842 -0.01175
 H288 H 0.41497 0.18682 -0.01166
 C289 C -0.37718 0.00319 0.51411
 C290 C -0.34782 0.00523 0.51000
 C291 C -0.31260 0.00714 0.50628
 C292 C -0.30268 -0.02123 0.49765
 C293 C -0.26823 -0.02008 0.49593
 C294 C -0.24322 0.00950 0.50286
 C295 C -0.25351 0.03804 0.51111
 C296 C -0.28797 0.03682 0.51285
 C297 C -0.20651 0.01042 0.50211
 C298 C -0.18443 0.03976 0.48885
 C299 C -0.14977 0.04082 0.48874
 C300 C -0.13670 0.01263 0.50188
 C301 C -0.15846 -0.01673 0.51500
 C302 C -0.19314 -0.01786 0.51512
 C303 C -0.10092 0.01405 0.50199
 C304 C -0.07087 0.01585 0.50181
 H305 H -0.32153 -0.04437 0.49260
 H306 H -0.26115 -0.04230 0.48909
 H307 H -0.23486 0.06103 0.51701
 H308 H -0.29534 0.05884 0.51981
 H309 H -0.19400 0.06177 0.47829
 H310 H -0.13317 0.06365 0.47842
 H311 H -0.14859 -0.03866 0.52532
 H312 H -0.20939 -0.04063 0.52591
 C313 C 0.41775 0.02479 0.45843
 C314 C 0.39134 0.03061 0.46409
 C315 C 0.35913 0.03610 0.47068
 C316 C 0.34204 0.01656 0.49664
 C317 C 0.30956 0.01986 0.50163
 C318 C 0.29371 0.04274 0.48063
 C319 C 0.31144 0.06285 0.45506
 C320 C 0.34394 0.05950 0.45011
 C321 C 0.25820 0.04430 0.48441
 C322 C 0.23479 0.04646 0.45623
 C323 C 0.20083 0.04584 0.45969
 C324 C 0.18978 0.04310 0.49131
 C325 C 0.21295 0.04153 0.51952
 C326 C 0.24698 0.04215 0.51612
 C327 C 0.15436 0.04056 0.49459
 C328 C 0.12444 0.03782 0.49656
 H329 H 0.35348 -0.00179 0.51257
 H330 H 0.29642 0.00367 0.52122
 H331 H 0.30008 0.08098 0.43875
 H332 H 0.35694 0.07472 0.42990
 H333 H 0.24247 0.04760 0.43151
 H334 H 0.18305 0.04689 0.43770
 H335 H 0.20465 0.03941 0.54411
 H336 H 0.26447 0.04084 0.53827
 C337 C -0.01155 0.53722 1.40881
 C338 C -0.01394 0.53006 1.38055
 C339 C -0.01570 0.52220 1.34671
 C340 C -0.04075 0.53124 1.32303
 C341 C -0.04124 0.52531 1.28980
 C342 C -0.01659 0.51031 1.27980
 C343 C 0.00814 0.50080 1.30391
 C344 C 0.00858 0.50676 1.33712
 C345 C -0.01602 0.50559 1.24425
 C346 C -0.00868 0.47600 1.23480
 C347 C -0.00753 0.47205 1.20129
 C348 C -0.01366 0.49762 1.17687
 C349 C -0.02105 0.52707 1.18603
 C350 C -0.02223 0.53106 1.21945
 C351 C -0.01250 0.49391 1.14233
 C352 C -0.01197 0.49181 1.11312
 H353 H -0.05966 0.54321 1.33018
 H354 H -0.06087 0.53249 1.27192
 H355 H 0.02770 0.48961 1.29696
 H356 H 0.02820 0.49985 1.35523
 H357 H -0.00414 0.45579 1.25328
 H358 H -0.00190 0.44908 1.19446
 H359 H -0.02577 0.54706 1.16733
 H360 H -0.02742 0.55436 1.22593
 C361 C -0.00772 0.48577 0.61955
 C362 C -0.01243 0.48810 0.64778
 C363 C -0.01693 0.48982 0.68201
 C364 C -0.00201 0.51946 0.69773
 C365 C -0.00402 0.52015 0.73167
 C366 C -0.02093 0.49110 0.75038
 C367 C -0.03647 0.46166 0.73417
 C368 C -0.03441 0.46104 0.70024
 C369 C -0.02128 0.49107 0.78682
 C370 C -0.05061 0.47476 0.80254
 C371 C -0.05046 0.47397 0.83699
 C372 C -0.02102 0.48943 0.85616
 C373 C 0.00820 0.50586 0.84074
 C374 C 0.00811 0.50669 0.80634
 C375 C -0.02060 0.48850 0.89165
 C376 C -0.01972 0.48816 0.92138
 H377 H 0.01167 0.54186 0.68388
 H378 H 0.00780 0.54334 0.74332
 H379 H -0.04928 0.43876 0.74792
 H380 H -0.04581 0.43785 0.68839
 H381 H -0.07373 0.46282 0.78817
 H382 H -0.07327 0.46129 0.84866
 H383 H 0.03116 0.51785 0.85535
 H384 H 0.03125 0.51898 0.79509
   
