data_POSCAR
  _audit_creation_date              2014-09-24
  _audit_creation_method            'ToBaCCo'
  _symmetry_space_group_name_H-M    'P1'
  _symmetry_Int_Tables_number       1
  _symmetry_cell_setting            triclinic
  loop_
  _symmetry_equiv_pos_as_xyz
 x,y,z
_cell_length_a 40.7944
_cell_length_b 35.8642
_cell_length_c 37.6509
_cell_angle_alpha 92.516300
_cell_angle_beta 96.837300
_cell_angle_gamma 97.204500
loop_
  _atom_site_label
  _atom_site_type_symbol
  _atom_site_fract_x
  _atom_site_fract_y
  _atom_site_fract_z
N1 N 0.24508 0.23238 0.14721
 N2 N 0.22184 0.25460 0.14224
 C3 C 0.22930 0.27842 0.11683
 C4 C 0.25885 0.27063 0.10547
 C5 C 0.26817 0.24133 0.12523
 H6 H 0.21486 0.30039 0.10808
 H7 H 0.29044 0.22804 0.12414
 Cu8 Cu 0.18532 0.25183 0.17102
 Cu9 Cu 0.24441 0.19453 0.18268
 Cu10 Cu 0.18507 0.19641 0.24096
 N11 N 0.15719 0.25830 0.20828
 N12 N 0.15665 0.23609 0.23514
 C13 C 0.13614 0.24757 0.25762
 C14 C 0.12338 0.27877 0.24418
 C15 C 0.13721 0.28484 0.21286
 H16 H 0.13188 0.23510 0.28256
 H17 H 0.13370 0.30745 0.19527
 N18 N 0.21660 0.15893 0.24226
 N19 N 0.23949 0.15854 0.22028
 C20 C 0.25873 0.13173 0.22945
 C21 C 0.24740 0.11456 0.25860
 C22 C 0.22065 0.13232 0.26598
 H23 H 0.28008 0.12597 0.21669
 H24 H 0.20615 0.12721 0.28793
 H25 H 0.19419 0.18876 0.18844
 H26 H 0.22188 0.22687 0.21708
 N27 N 0.74626 -0.26852 0.23718
 N28 N 0.75493 -0.30164 0.24472
 C29 C 0.73572 -0.32854 0.22297
 C30 C 0.71396 -0.31129 0.20018
 C31 C 0.72131 -0.27315 0.20985
 H32 H 0.73815 -0.35821 0.22313
 H33 H 0.70948 -0.25053 0.19793
 Cu34 Cu 0.79241 -0.30655 0.27970
 Cu35 Cu 0.76882 -0.22232 0.26341
 Cu36 Cu 0.82434 -0.23482 0.33807
 N37 N 0.83712 -0.30359 0.30432
 N38 N 0.85011 -0.27564 0.32752
 C39 C 0.88168 -0.28062 0.33956
 C40 C 0.88854 -0.31335 0.32251
 C41 C 0.85970 -0.32716 0.30054
 H42 H 0.89841 -0.26155 0.35860
 H43 H 0.85558 -0.35219 0.28261
 N44 N 0.80374 -0.18839 0.33171
 N45 N 0.78459 -0.18268 0.30212
 C46 C 0.77507 -0.14819 0.30528
 C47 C 0.78841 -0.13184 0.33863
 C48 C 0.80632 -0.15808 0.35479
 H49 H 0.75821 -0.13663 0.28562
 H50 H 0.82013 -0.15536 0.38135
 H51 H 0.81334 -0.23948 0.28464
 H52 H 0.77638 -0.25083 0.30891
 N53 N 0.67314 0.28134 0.84507
 N54 N 0.69771 0.30581 0.86103
 C55 C 0.68615 0.32756 0.88541
 C56 C 0.65249 0.31593 0.88486
 C57 C 0.64499 0.28638 0.85908
 H58 H 0.70118 0.35010 0.90225
 H59 H 0.62090 0.27011 0.85087
 Cu60 Cu 0.74265 0.30695 0.84891
 Cu61 Cu 0.68064 0.24539 0.80744
 Cu62 Cu 0.74818 0.27825 0.76391
 N63 N 0.78276 0.31964 0.82712
 N64 N 0.78436 0.31138 0.79305
 C65 C 0.81345 0.32863 0.78428
 C66 C 0.83103 0.34785 0.81489
 C67 C 0.81085 0.34117 0.84153
 H68 H 0.82127 0.32708 0.75785
 H69 H 0.81534 0.35284 0.86890
 N70 N 0.71400 0.23561 0.74412
 N71 N 0.68851 0.22339 0.76103
 C72 C 0.67053 0.19344 0.74226
 C73 C 0.68548 0.18602 0.71216
 C74 C 0.71300 0.21324 0.71409
 H75 H 0.64859 0.17766 0.75040
 H76 H 0.73128 0.21599 0.69546
 H77 H 0.73301 0.25171 0.80734
 H78 H 0.70897 0.29012 0.79132
 N79 N 0.34445 -0.19850 0.81246
 N80 N 0.34555 -0.23469 0.81556
 C81 C 0.37247 -0.23948 0.83840
 C82 C 0.38882 -0.20428 0.85047
 C83 C 0.37028 -0.17888 0.83369
 H84 H 0.37918 -0.26644 0.84630
 H85 H 0.37523 -0.14848 0.83646
 Cu86 Cu 0.31015 -0.27148 0.79142
 Cu87 Cu 0.30930 -0.18006 0.78119
 Cu88 Cu 0.26207 -0.24691 0.72015
 N89 N 0.26715 -0.30018 0.77446
 N90 N 0.24845 -0.29172 0.74576
 C91 C 0.21958 -0.31535 0.74148
 C92 C 0.22014 -0.33908 0.76958
 C93 C 0.25082 -0.32879 0.78977
 H94 H 0.19898 -0.31374 0.72089
 H95 H 0.26027 -0.34027 0.81445
 N96 N 0.26865 -0.19284 0.71142
 N97 N 0.28419 -0.16745 0.73627
 C98 C 0.28499 -0.13318 0.72318
 C99 C 0.26975 -0.13714 0.68826
 C100 C 0.25966 -0.17535 0.68149
 H101 H 0.29807 -0.10757 0.73706
 H102 H 0.24749 -0.18943 0.65651
 H103 H 0.27303 -0.22606 0.77088
 H104 H 0.31016 -0.22491 0.74632
 N105 N 0.75605 -0.24097 0.82388
 N106 N 0.77015 -0.27214 0.82308
 C107 C 0.75978 -0.29403 0.84873
 C108 C 0.73771 -0.27609 0.86621
 C109 C 0.73584 -0.24255 0.84982
 H110 H 0.76679 -0.32165 0.85346
 H111 H 0.72018 -0.22146 0.85572
 Cu112 Cu 0.79933 -0.28407 0.78736
 Cu113 Cu 0.76276 -0.20182 0.78908
 Cu114 Cu 0.80706 -0.22361 0.72278
 N115 N 0.83485 -0.28396 0.75715
 N116 N 0.83802 -0.26011 0.73188
 C117 C 0.86408 -0.26670 0.71480
 C118 C 0.87773 -0.29662 0.73006
 C119 C 0.85853 -0.30692 0.75682
 H120 H 0.87206 -0.25128 0.69261
 H121 H 0.86140 -0.32957 0.77453
 N122 N 0.78696 -0.17748 0.72419
 N123 N 0.77203 -0.16754 0.75154
 C124 C 0.76306 -0.13299 0.74693
 C125 C 0.77244 -0.12118 0.71471
 C126 C 0.78736 -0.15008 0.70089
 H127 H 0.74999 -0.11799 0.76513
 H128 H 0.79854 -0.15062 0.67626
 H129 H 0.76655 -0.25079 0.76087
 H130 H 0.80577 -0.22656 0.78695
 N131 N 0.25303 0.21041 0.74093
 N132 N 0.24090 0.23372 0.76253
 C133 C 0.26378 0.24402 0.79137
 C134 C 0.29120 0.22563 0.78783
 C135 C 0.28353 0.20474 0.75561
 H136 H 0.25962 0.26080 0.81459
 H137 H 0.29810 0.18474 0.74486
 Cu138 Cu 0.19386 0.24291 0.75473
 Cu139 Cu 0.22665 0.18227 0.69875
 Cu140 Cu 0.14422 0.18082 0.69594
 N141 N 0.14965 0.25291 0.73393
 N142 N 0.13018 0.22766 0.71199
 C143 C 0.10140 0.24083 0.70169
 C144 C 0.10273 0.27637 0.71781
 C145 C 0.13372 0.28332 0.73820
 H146 H 0.08141 0.22600 0.68289
 H147 H 0.14399 0.30859 0.75455
 N148 N 0.16301 0.14479 0.66725
 N149 N 0.19537 0.14673 0.66703
 C150 C 0.20162 0.12156 0.64200
 C151 C 0.17153 0.10271 0.62597
 C152 C 0.14747 0.11798 0.64269
 H153 H 0.22616 0.11757 0.63565
 H154 H 0.12075 0.11142 0.63631
 H155 H 0.19576 0.22396 0.70445
 H156 H 0.19493 0.18635 0.73756
 N157 N 0.34832 -0.30571 0.17317
 N158 N 0.32201 -0.32741 0.15670
 C159 C 0.32957 -0.34200 0.12561
 C160 C 0.36237 -0.32864 0.12255
 C161 C 0.37359 -0.30590 0.15325
 H162 H 0.31222 -0.36007 0.10632
 H163 H 0.39792 -0.28965 0.16000
 Cu164 Cu 0.27979 -0.33285 0.17647
 Cu165 Cu 0.34645 -0.27655 0.21779
 Cu166 Cu 0.26687 -0.25321 0.21873
 N167 N 0.23623 -0.32631 0.19004
 N168 N 0.23091 -0.29381 0.20427
 C169 C 0.19862 -0.29537 0.20888
 C170 C 0.18311 -0.33113 0.19794
 C171 C 0.20763 -0.35022 0.18621
 H172 H 0.18765 -0.27273 0.22088
 H173 H 0.20479 -0.37906 0.17542
 N174 N 0.30647 -0.22510 0.24763
 N175 N 0.33664 -0.23508 0.24886
 C176 C 0.35689 -0.21440 0.27540
 C177 C 0.33827 -0.19054 0.29170
 C178 C 0.30662 -0.19790 0.27335
 H179 H 0.38260 -0.21797 0.28342
 H180 H 0.28472 -0.18632 0.28001
 H181 H 0.29760 -0.29270 0.23080
 H182 H 0.30395 -0.26697 0.18962
 N183 N 0.64472 0.28677 0.21845
 N184 N 0.66752 0.31607 0.21786
 C185 C 0.65548 0.34060 0.19531
 C186 C 0.62356 0.32572 0.18075
 C187 C 0.61750 0.29148 0.19589
 H188 H 0.66910 0.36706 0.18958
 H189 H 0.59471 0.27200 0.19157
 Cu190 Cu 0.71157 0.31923 0.24508
 Cu191 Cu 0.65143 0.24694 0.25123
 Cu192 Cu 0.73348 0.24056 0.28154
 N193 N 0.75804 0.31223 0.25742
 N194 N 0.76622 0.28029 0.26929
 C195 C 0.79947 0.28120 0.27211
 C196 C 0.81288 0.31570 0.26185
 C197 C 0.78600 0.33491 0.25286
 H198 H 0.81292 0.25844 0.28090
 H199 H 0.78663 0.36247 0.24219
 N200 N 0.69663 0.20358 0.29173
 N201 N 0.66513 0.20523 0.27966
 C202 C 0.64592 0.17744 0.29344
 C203 C 0.66653 0.15800 0.31554
 C204 C 0.69834 0.17528 0.31382
 H205 H 0.61899 0.17316 0.28955
 H206 H 0.72094 0.16864 0.32884
 H207 H 0.69369 0.27075 0.28483
 H208 H 0.69907 0.25126 0.23917
 C209 C 0.25680 -0.02078 0.45437
 C210 C 0.27353 -0.04930 0.46636
 C211 C 0.29093 -0.07178 0.44239
 C212 C 0.27532 -0.05830 0.50458
 C213 C 0.23458 -0.00400 0.47718
 C214 C 0.26078 -0.00409 0.41937
 C215 C 0.27443 -0.08755 0.40933
 C216 C 0.29118 -0.10737 0.38614
 C217 C 0.32473 -0.11209 0.39559
 C218 C 0.34104 -0.09700 0.42912
 C219 C 0.32418 -0.07718 0.45238
 C220 C 0.26230 -0.09389 0.51443
 C221 C 0.26140 -0.10079 0.55066
 C222 C 0.27344 -0.07214 0.57742
 C223 C 0.28772 -0.03706 0.56734
 C224 C 0.28882 -0.03034 0.53133
 C225 C 0.24262 0.03336 0.49101
 C226 C 0.22360 0.04798 0.51540
 C227 C 0.19577 0.02576 0.52555
 C228 C 0.18705 -0.01126 0.51061
 C229 C 0.20646 -0.02608 0.48674
 C230 C 0.23287 0.00530 0.39772
 C231 C 0.23657 0.02286 0.36577
 C232 C 0.26818 0.03099 0.35464
 C233 C 0.29613 0.02162 0.37623
 C234 C 0.29251 0.00475 0.40852
 H235 H 0.24859 -0.08427 0.40137
 H236 H 0.27781 -0.11890 0.36066
 H237 H 0.36672 -0.10038 0.43752
 H238 H 0.33730 -0.06537 0.47789
 H239 H 0.25197 -0.11587 0.49407
 H240 H 0.25062 -0.12820 0.55772
 H241 H 0.29965 -0.00297 0.52420
 H242 H 0.26433 0.05068 0.48393
 H243 H 0.23073 0.07662 0.52651
 H244 H 0.16596 -0.02916 0.51823
 H245 H 0.20000 -0.05502 0.47623
 H246 H 0.20819 -0.00082 0.40564
 H247 H 0.21468 0.03002 0.34967
 H248 H 0.32092 0.02840 0.36883
 H249 H 0.31460 -0.00074 0.42533
 H250 H 0.29821 -0.01467 0.58715
 C251 C 0.71620 0.04210 0.51793
 C252 C 0.73495 0.01329 0.52061
 C253 C 0.74273 -0.00258 0.55586
 C254 C 0.74724 -0.00406 0.48872
 C255 C 0.70261 0.05481 0.48297
 C256 C 0.70590 0.06046 0.55001
 C257 C 0.76972 0.01438 0.58027
 C258 C 0.77583 0.00049 0.61427
 C259 C 0.75565 -0.03125 0.62369
 C260 C 0.72898 -0.04848 0.59910
 C261 C 0.72209 -0.03370 0.56573
 C262 C 0.76211 0.01862 0.46390
 C263 C 0.77130 0.00248 0.43271
 C264 C 0.76692 -0.03680 0.42626
 C265 C 0.75416 -0.05958 0.45207
 C266 C 0.74425 -0.04342 0.48286
 C267 C 0.67932 0.03068 0.45928
 C268 C 0.66562 0.04344 0.42689
 C269 C 0.67543 0.08034 0.41759
 C270 C 0.69901 0.10420 0.44123
 C271 C 0.71209 0.09173 0.47389
 C272 C 0.67352 0.05116 0.55849
 C273 C 0.66319 0.06911 0.58809
 C274 C 0.68509 0.09691 0.60969
 C275 C 0.71749 0.10634 0.60081
 C276 C 0.72781 0.08825 0.57119
 H277 H 0.78569 0.03863 0.57315
 H278 H 0.79654 0.01410 0.63298
 H279 H 0.71299 -0.07278 0.60612
 H280 H 0.70064 -0.04650 0.54758
 H281 H 0.76629 0.04895 0.46842
 H282 H 0.78188 0.02074 0.41369
 H283 H 0.73342 -0.06193 0.50145
 H284 H 0.67155 0.00217 0.46610
 H285 H 0.64771 0.02437 0.40902
 H286 H 0.70691 0.13278 0.43470
 H287 H 0.72990 0.11074 0.49197
 H288 H 0.65624 0.03003 0.54210
 H289 H 0.63791 0.06135 0.59357
 H290 H 0.73488 0.12767 0.61681
 H291 H 0.75279 0.09608 0.56460
 H292 H 0.75069 -0.08996 0.44780
 C293 C 0.45401 0.30843 -0.02880
 C294 C 0.44885 0.31453 0.00588
 C295 C 0.41477 0.31196 0.01642
 C296 C 0.47715 0.32329 0.03487
 C297 C 0.48758 0.31690 -0.04040
 C298 C 0.42669 0.29056 -0.05603
 C299 C 0.39124 0.33299 -0.00041
 C300 C 0.35942 0.33123 0.01016
 C301 C 0.35062 0.30856 0.03798
 C302 C 0.37429 0.28756 0.05474
 C303 C 0.40610 0.28941 0.04420
 C304 C 0.48172 0.35776 0.05500
 C305 C 0.50889 0.36645 0.08169
 C306 C 0.53139 0.34034 0.08927
 C307 C 0.52609 0.30532 0.06988
 C308 C 0.49936 0.29700 0.04263
 C309 C 0.50105 0.28942 -0.05971
 C310 C 0.53304 0.29704 -0.06968
 C311 C 0.55214 0.33228 -0.06053
 C312 C 0.53815 0.36014 -0.04214
 C313 C 0.50614 0.35256 -0.03238
 C314 C 0.41305 0.25310 -0.05321
 C315 C 0.38934 0.23491 -0.08027
 C316 C 0.37842 0.25415 -0.11024
 C317 C 0.39109 0.29210 -0.11236
 C318 C 0.41555 0.31003 -0.08569
 H319 H 0.39765 0.35113 -0.02147
 H320 H 0.34194 0.34774 -0.00349
 H321 H 0.36831 0.26989 0.07629
 H322 H 0.42395 0.27309 0.05763
 H323 H 0.46463 0.37820 0.04953
 H324 H 0.51212 0.39346 0.09656
 H325 H 0.49592 0.27007 0.02756
 H326 H 0.48707 0.26179 -0.06644
 H327 H 0.54308 0.27512 -0.08401
 H328 H 0.55172 0.38791 -0.03538
 H329 H 0.49585 0.37455 -0.01845
 H330 H 0.42154 0.23766 -0.03055
 H331 H 0.37977 0.20567 -0.07798
 H332 H 0.38312 0.30733 -0.13537
 H333 H 0.42596 0.33895 -0.08824
 H334 H 0.54307 0.28476 0.07526
 C335 C 0.55971 0.71891 -0.01055
 C336 C 0.55261 0.70408 0.02072
 C337 C 0.57907 0.69320 0.04724
 C338 C 0.51787 0.69765 0.02966
 C339 C 0.53535 0.73948 -0.03131
 C340 C 0.59146 0.71470 -0.02530
 C341 C 0.57563 0.65729 0.06076
 C342 C 0.59962 0.64759 0.08711
 C343 C 0.62720 0.67392 0.10082
 C344 C 0.63049 0.70993 0.08740
 C345 C 0.60672 0.71943 0.06065
 C346 C 0.49263 0.67692 0.00543
 C347 C 0.46060 0.66806 0.01484
 C348 C 0.45320 0.67944 0.04890
 C349 C 0.47844 0.70059 0.07295
 C350 C 0.51049 0.70946 0.06349
 C351 C 0.52547 0.77181 -0.01568
 C352 C 0.50175 0.79077 -0.03455
 C353 C 0.48720 0.77734 -0.06917
 C354 C 0.49719 0.74501 -0.08481
 C355 C 0.52151 0.72652 -0.06620
 C356 C 0.60889 0.74497 -0.04059
 C357 C 0.63796 0.74037 -0.05577
 C358 C 0.65020 0.70546 -0.05583
 C359 C 0.63254 0.67513 -0.04079
 C360 C 0.60340 0.67964 -0.02602
 H361 H 0.55429 0.63681 0.05092
 H362 H 0.59609 0.61981 0.09728
 H363 H 0.65148 0.73073 0.09758
 H364 H 0.60950 0.74748 0.05091
 H365 H 0.49796 0.66672 -0.02049
 H366 H 0.44198 0.65184 -0.00453
 H367 H 0.52967 0.72521 0.08270
 H368 H 0.53604 0.78219 0.01123
 H369 H 0.49423 0.81535 -0.02167
 H370 H 0.48631 0.73420 -0.11149
 H371 H 0.52891 0.70157 -0.07857
 H372 H 0.60001 0.77219 -0.04078
 H373 H 0.65091 0.76414 -0.06741
 H374 H 0.64060 0.64754 -0.04118
 H375 H 0.58980 0.65542 -0.01572
 H376 H 0.47356 0.70980 0.09937
 C377 C 0.02374 0.49001 0.25506
 C378 C -0.00765 0.49339 0.26272
 C379 C -0.03360 0.45974 0.26097
 C380 C -0.01677 0.53063 0.27422
 C381 C 0.04526 0.52257 0.24294
 C382 C 0.03749 0.45363 0.25914
 C383 C -0.03629 0.43150 0.23322
 C384 C -0.06006 0.39975 0.23180
 C385 C -0.08264 0.39638 0.25712
 C386 C -0.08112 0.42514 0.28393
 C387 C -0.05651 0.45633 0.28616
 C388 C -0.04720 0.54179 0.26025
 C389 C -0.05706 0.57512 0.27337
 C390 C -0.03673 0.59803 0.30076
 C391 C -0.00587 0.58727 0.31419
 C392 C 0.00392 0.55383 0.30112
 C393 C 0.07965 0.52882 0.25456
 C394 C 0.09967 0.55924 0.24282
 C395 C 0.08557 0.58426 0.21975
 C396 C 0.05138 0.57763 0.20754
 C397 C 0.03155 0.54681 0.21858
 C398 C 0.03444 0.43424 0.29042
 C399 C 0.04665 0.39985 0.29442
 C400 C 0.06254 0.38415 0.26730
 C401 C 0.06619 0.40397 0.23629
 C402 C 0.05382 0.43842 0.23225
 H403 H -0.01993 0.43394 0.21258
 H404 H -0.06120 0.37809 0.21055
 H405 H -0.09839 0.42294 0.30371
 H406 H -0.05524 0.47768 0.30771
 H407 H -0.06356 0.52439 0.23951
 H408 H -0.08093 0.58267 0.26237
 H409 H 0.02730 0.54551 0.31273
 H410 H 0.09097 0.51043 0.27304
 H411 H 0.12602 0.56383 0.25254
 H412 H 0.04000 0.59606 0.18915
 H413 H 0.00540 0.54191 0.20807
 H414 H 0.02254 0.44582 0.31186
 H415 H 0.04378 0.38596 0.31896
 H416 H 0.07846 0.39272 0.21501
 H417 H 0.05659 0.45297 0.20797
 H418 H 0.01039 0.60397 0.33539
 C419 C 0.02635 0.50304 0.73624
 C420 C -0.00502 0.50879 0.74186
 C421 C -0.02758 0.47815 0.75534
 C422 C -0.01676 0.54629 0.73770
 C423 C 0.05442 0.53414 0.74279
 C424 C 0.03432 0.46425 0.72901
 C425 C -0.06066 0.46832 0.73942
 C426 C -0.08240 0.44220 0.75494
 C427 C -0.07147 0.42630 0.78695
 C428 C -0.03805 0.43517 0.80199
 C429 C -0.01638 0.46079 0.78637
 C430 C -0.00939 0.56745 0.70844
 C431 C -0.02295 0.60085 0.70242
 C432 C -0.04445 0.61376 0.72540
 C433 C -0.05124 0.59302 0.75508
 C434 C -0.03753 0.55970 0.76120
 C435 C 0.06030 0.55450 0.77612
 C436 C 0.09017 0.57806 0.78603
 C437 C 0.11444 0.58224 0.76253
 C438 C 0.10768 0.56405 0.72820
 C439 C 0.07802 0.53963 0.71857
 C440 C 0.06199 0.45121 0.74803
 C441 C 0.06821 0.41410 0.74197
 C442 C 0.04687 0.38941 0.71684
 C443 C 0.01980 0.40297 0.69711
 C444 C 0.01368 0.43995 0.70308
 H445 H -0.06979 0.48152 0.71554
 H446 H -0.10810 0.43591 0.74298
 H447 H -0.02884 0.42303 0.82644
 H448 H 0.00892 0.46822 0.79933
 H449 H 0.00599 0.55746 0.68947
 H450 H -0.01731 0.61571 0.67908
 H451 H -0.04359 0.54408 0.78404
 H452 H 0.04270 0.55025 0.79543
 H453 H 0.09489 0.59193 0.81262
 H454 H 0.12624 0.56675 0.70983
 H455 H 0.07405 0.52386 0.69289
 H456 H 0.07834 0.46946 0.76813
 H457 H 0.08937 0.40451 0.75738
 H458 H 0.00327 0.38526 0.67683
 H459 H -0.00739 0.44961 0.68755
 H460 H -0.06761 0.60225 0.77334
 C461 C 0.27788 0.29034 0.07959
 C462 C 0.26739 0.31835 0.05890
 C463 C 0.29302 0.32900 0.03975
 C464 C 0.31732 0.30668 0.05034
 O465 O 0.30800 0.28323 0.07450
 H466 H 0.24403 0.32982 0.05805
 H467 H 0.29382 0.35086 0.02088
 C468 C 0.69012 0.67146 0.17289
 C469 C 0.68316 0.63307 0.16523
 C470 C 0.65840 0.62858 0.13714
 C471 C 0.65219 0.66457 0.12960
 O472 O 0.67147 0.69061 0.15125
 H473 H 0.69461 0.61093 0.17849
 H474 H 0.64669 0.60221 0.12357
 C475 C 0.62963 0.33194 -0.09313
 C476 C 0.63828 0.36377 -0.07044
 C477 C 0.61030 0.36868 -0.05535
 C478 C 0.58654 0.33938 -0.06991
 O479 O 0.59834 0.31701 -0.09284
 H480 H 0.66215 0.38127 -0.06537
 H481 H 0.60797 0.39066 -0.03558
 C482 C 0.41893 0.80412 -0.12352
 C483 C 0.43080 0.83923 -0.10735
 C484 C 0.45818 0.83409 -0.08453
 C485 C 0.46108 0.79624 -0.08875
 O486 O 0.43728 0.77803 -0.11243
 H487 H 0.42051 0.86532 -0.11137
 H488 H 0.47422 0.85544 -0.06716
 C489 C 0.10180 0.30233 0.26094
 C490 C 0.08787 0.29430 0.29175
 C491 C 0.07088 0.32368 0.29840
 C492 C 0.07578 0.34765 0.27114
 O493 O 0.09449 0.33451 0.24833
 H494 H 0.08994 0.27004 0.30756
 H495 H 0.05670 0.32686 0.32059
 C496 C 0.19434 0.63470 0.77799
 C497 C 0.19519 0.61674 0.80975
 C498 C 0.16497 0.59556 0.80830
 C499 C 0.14801 0.60161 0.77560
 O500 O 0.16574 0.62530 0.75697
 H501 H 0.21513 0.61923 0.83174
 H502 H 0.15644 0.57731 0.82840
 C503 C -0.08209 0.67039 0.32523
 C504 C -0.05288 0.68396 0.34669
 C505 C -0.03124 0.65889 0.34050
 C506 C -0.04895 0.63193 0.31564
 O507 O -0.07970 0.63907 0.30648
 H508 H -0.04791 0.70895 0.36467
 H509 H -0.00573 0.66037 0.35275
 C510 C -0.13817 0.37053 0.81867
 C511 C -0.12101 0.38434 0.85139
 C512 C -0.09315 0.40563 0.84366
 C513 C -0.09535 0.40379 0.80675
 O514 O -0.12271 0.38239 0.79139
 H515 H -0.12792 0.37965 0.87786
 H516 H -0.07412 0.42181 0.86270
 C517 C 0.26256 0.08633 0.27987
 C518 C 0.29165 0.07256 0.27400
 C519 C 0.29775 0.04942 0.30113
 C520 C 0.27180 0.05071 0.32143
 O521 O 0.25040 0.07302 0.30846
 H522 H 0.30692 0.07912 0.25293
 H523 H 0.31863 0.03362 0.30553
 C524 C 0.67480 0.15458 0.68506
 C525 C 0.64595 0.12993 0.68451
 C526 C 0.64567 0.10504 0.65614
 C527 C 0.67446 0.11622 0.64126
 O528 O 0.69222 0.14636 0.65893
 H529 H 0.62736 0.12990 0.70274
 H530 H 0.62680 0.08131 0.64791
 C531 C 0.26910 -0.10712 0.66299
 C532 C 0.27336 -0.06938 0.67353
 C533 C 0.27468 -0.05106 0.64280
 C534 C 0.27144 -0.07900 0.61565
 O535 O 0.26771 -0.11316 0.62790
 H536 H 0.27577 -0.05673 0.70049
 H537 H 0.27793 -0.02087 0.64075
 C538 C 0.78259 -0.09546 0.35447
 C539 C 0.77626 -0.06491 0.33505
 C540 C 0.77104 -0.03794 0.35965
 C541 C 0.77412 -0.05428 0.39222
 O542 O 0.78119 -0.08923 0.38909
 H543 H 0.77522 -0.06277 0.30636
 H544 H 0.76438 -0.01029 0.35423
 C545 C 0.71817 0.70871 -0.10600
 C546 C 0.72336 0.67630 -0.08904
 C547 C 0.69903 0.67099 -0.06729
 C548 C 0.68057 0.70052 -0.07265
 O549 O 0.69238 0.72361 -0.09603
 H550 H 0.74239 0.65842 -0.09237
 H551 H 0.69531 0.64812 -0.04980
 C552 C 0.31930 0.22220 -0.18468
 C553 C 0.33473 0.19020 -0.18170
 C554 C 0.35829 0.19764 -0.15270
 C555 C 0.35584 0.23384 -0.14037
 O556 O 0.33212 0.24892 -0.15972
 H557 H 0.32915 0.16433 -0.19843
 H558 H 0.37572 0.17921 -0.14225
 C559 C 0.38097 0.66510 0.09219
 C560 C 0.36827 0.64364 0.06124
 C561 C 0.39347 0.64606 0.04035
 C562 C 0.41978 0.66893 0.06016
 O563 O 0.41209 0.68042 0.09165
 H564 H 0.34362 0.62814 0.05462
 H565 H 0.39247 0.63246 0.01398
 C566 C 0.60067 0.34318 0.15534
 C567 C 0.60373 0.38113 0.14979
 C568 C 0.57761 0.38541 0.12483
 C569 C 0.56074 0.34965 0.11669
 O570 O 0.57472 0.32394 0.13522
 H571 H 0.62263 0.40307 0.16255
 H572 H 0.57204 0.41136 0.11334
 C573 C -0.09564 0.68619 0.72009
 C574 C -0.07706 0.69744 0.69322
 C575 C -0.05469 0.67234 0.69183
 C576 C -0.06127 0.64748 0.71795
 O577 O -0.08605 0.65608 0.73519
 H578 H -0.07959 0.72088 0.67642
 H579 H -0.03609 0.67231 0.67364
 C580 C -0.15195 0.32800 0.25876
 C581 C -0.12922 0.30376 0.25271
 C582 C -0.10019 0.32633 0.25051
 C583 C -0.10730 0.36258 0.25599
 O584 O -0.13873 0.36374 0.26094
 H585 H -0.13349 0.27333 0.24973
 H586 H -0.07652 0.31750 0.24606
 C587 C 0.07689 0.30143 0.71231
 C588 C 0.04563 0.29015 0.69406
 C589 C 0.03000 0.32143 0.69351
 C590 C 0.05291 0.34979 0.71136
 O591 O 0.08140 0.33755 0.72304
 H592 H 0.03539 0.26241 0.68242
 H593 H 0.00479 0.32296 0.68160
 C594 C 0.14833 0.65413 0.20043
 C595 C 0.12262 0.67575 0.19789
 C596 C 0.09518 0.65200 0.20340
 C597 C 0.10637 0.61777 0.20946
 O598 O 0.13868 0.61900 0.20763
 H599 H 0.12386 0.70537 0.19298
 H600 H 0.07029 0.65916 0.20429
 C601 C 0.76794 -0.08554 0.69823
 C602 C 0.76819 -0.05155 0.71692
 C603 C 0.76472 -0.02601 0.69131
 C604 C 0.76201 -0.04661 0.65906
 O605 O 0.76403 -0.08269 0.66315
 H606 H 0.77109 -0.04603 0.74569
 H607 H 0.76353 0.00381 0.69553
 C608 C 0.34754 -0.16671 0.32492
 C609 C 0.37857 -0.16075 0.34471
 C610 C 0.37481 -0.13887 0.37423
 C611 C 0.34164 -0.13327 0.37016
 O612 O 0.32528 -0.15012 0.34019
 H613 H 0.40104 -0.17147 0.33865
 H614 H 0.39400 -0.12866 0.39603
 C615 C 0.65744 0.12861 0.33985
 C616 C 0.62748 0.10550 0.33691
 C617 C 0.63026 0.08304 0.36527
 C618 C 0.66158 0.09461 0.38353
 O619 O 0.67802 0.12216 0.36804
 H620 H 0.60626 0.10510 0.31663
 H621 H 0.61139 0.06162 0.37230
 C622 C 0.16659 0.07436 0.59589
 C623 C 0.13713 0.05161 0.58421
 C624 C 0.14394 0.02973 0.55613
 C625 C 0.17698 0.04113 0.55267
 O626 O 0.19070 0.06817 0.57681
 H627 H 0.11363 0.05094 0.59496
 H628 H 0.12674 0.00847 0.53988
   
