data_POSCAR
  _audit_creation_date              2014-09-24
  _audit_creation_method            'ToBaCCo'
  _symmetry_space_group_name_H-M    'P1'
  _symmetry_Int_Tables_number       1
  _symmetry_cell_setting            triclinic
  loop_
  _symmetry_equiv_pos_as_xyz
 x,y,z
_cell_length_a 49.6385
_cell_length_b 49.5977
_cell_length_c 23.5100
_cell_angle_alpha 89.884400
_cell_angle_beta 90.067400
_cell_angle_gamma 119.978400
loop_
  _atom_site_label
  _atom_site_type_symbol
  _atom_site_fract_x
  _atom_site_fract_y
  _atom_site_fract_z
C1 C 0.50010 0.99919 0.47267
 C2 C 0.50015 0.99911 0.53058
 C3 C 0.48486 0.96974 0.56394
 C4 C 0.51547 1.02842 0.56398
 C5 C 0.51409 1.02857 0.43932
 C6 C 0.48607 0.96990 0.43922
 C7 C 0.45310 0.94798 0.55698
 C8 C 0.43897 0.92086 0.59001
 C9 C 0.45644 0.91536 0.63057
 C10 C 0.48807 0.93707 0.63771
 C11 C 0.50215 0.96412 0.60474
 C12 C 0.49821 1.03396 0.60486
 C13 C 0.51232 1.06099 0.63770
 C14 C 0.54388 1.08271 0.63034
 C15 C 0.56132 1.07732 0.58984
 C16 C 0.54721 1.05022 0.55690
 C17 C 0.53692 1.03420 0.39845
 C18 C 0.54980 1.06127 0.36555
 C19 C 0.53988 1.08295 0.37286
 C20 C 0.51703 1.07748 0.41339
 C21 C 0.50409 1.05034 0.44639
 C22 C 0.49606 0.94809 0.44610
 C23 C 0.48314 0.92109 0.41290
 C24 C 0.46031 0.91579 0.37236
 C25 C 0.45039 0.93749 0.36527
 C26 C 0.46325 0.96443 0.39836
 H27 H 0.43925 0.95219 0.52648
 H28 H 0.41442 0.90443 0.58422
 H29 H 0.50190 0.93330 0.66906
 H30 H 0.52660 0.98071 0.61095
 H31 H 0.47378 1.01734 0.61118
 H32 H 0.49865 1.06486 0.66912
 H33 H 0.56105 1.04608 0.52635
 H34 H 0.54478 1.01760 0.39213
 H35 H 0.56734 1.06518 0.33410
 H36 H 0.50901 1.09400 0.41906
 H37 H 0.48609 1.04614 0.47694
 H38 H 0.51406 0.95218 0.47663
 H39 H 0.49116 0.90456 0.41840
 H40 H 0.43287 0.93370 0.33382
 H41 H 0.45539 0.98105 0.39219
 H42 H 0.58582 1.09387 0.58413
 C43 C -0.00049 0.50051 0.46928
 C44 C -0.00042 0.50051 0.52719
 C45 C 0.02894 0.51447 0.56045
 C46 C -0.02969 0.48653 0.56069
 C47 C -0.02985 0.48517 0.43600
 C48 C 0.02878 0.51580 0.43578
 C49 C 0.05065 0.50440 0.55336
 C50 C 0.07777 0.51732 0.58626
 C51 C 0.08328 0.54021 0.62674
 C52 C 0.06166 0.55018 0.63409
 C53 C 0.03460 0.53733 0.60128
 C54 C -0.03521 0.46370 0.60166
 C55 C -0.06217 0.45084 0.63470
 C56 C -0.08385 0.46077 0.62745
 C57 C -0.07848 0.48362 0.58683
 C58 C -0.05146 0.49655 0.55368
 C59 C -0.03547 0.50242 0.39508
 C60 C -0.06250 0.48828 0.36220
 C61 C -0.08416 0.45665 0.36956
 C62 C -0.07868 0.43922 0.41020
 C63 C -0.05158 0.45339 0.44316
 C64 C 0.05058 0.54757 0.44273
 C65 C 0.07765 0.56167 0.40968
 C66 C 0.08301 0.54419 0.36921
 C67 C 0.06129 0.51260 0.36199
 C68 C 0.03429 0.49851 0.39494
 H69 H 0.04642 0.48638 0.52285
 H70 H 0.09424 0.50925 0.58057
 H71 H 0.06561 0.56775 0.66549
 H72 H 0.01806 0.54524 0.60762
 H73 H -0.01862 0.45582 0.60793
 H74 H -0.06601 0.43330 0.66622
 H75 H -0.04734 0.51455 0.52306
 H76 H -0.01890 0.52689 0.38871
 H77 H -0.06634 0.50202 0.33073
 H78 H -0.09512 0.41466 0.41605
 H79 H -0.04738 0.43955 0.47375
 H80 H 0.04647 0.56144 0.47325
 H81 H 0.09420 0.58619 0.41529
 H82 H 0.06513 0.49891 0.33059
 H83 H 0.01768 0.47406 0.38871
 H84 H -0.09500 0.49165 0.58120
 C85 C 0.49973 0.49973 0.47303
 C86 C 0.49974 0.49974 0.53094
 C87 C 0.48575 0.51510 0.56420
 C88 C 0.51375 0.48442 0.56444
 C89 C 0.51507 0.48572 0.43975
 C90 C 0.48441 0.51373 0.43952
 C91 C 0.49574 0.54688 0.55701
 C92 C 0.48281 0.56105 0.58991
 C93 C 0.45994 0.54363 0.63051
 C94 C 0.45004 0.51200 0.63793
 C95 C 0.46293 0.49785 0.60511
 C96 C 0.53658 0.50169 0.60527
 C97 C 0.54949 0.48758 0.63829
 C98 C 0.53960 0.45595 0.63115
 C99 C 0.51672 0.43849 0.59062
 C100 C 0.50376 0.45264 0.55753
 C101 C 0.49782 0.46288 0.39893
 C102 C 0.51197 0.45003 0.36602
 C103 C 0.54357 0.45999 0.37326
 C104 C 0.56099 0.48285 0.41376
 C105 C 0.54683 0.49576 0.44678
 C106 C 0.45264 0.50371 0.44648
 C107 C 0.43849 0.51662 0.41326
 C108 C 0.45592 0.53945 0.37261
 C109 C 0.48751 0.54939 0.36543
 C110 C 0.50165 0.53654 0.39854
 H111 H 0.51374 0.56071 0.52643
 H112 H 0.49087 0.58560 0.58402
 H113 H 0.43249 0.49826 0.66937
 H114 H 0.45507 0.47339 0.61151
 H115 H 0.54442 0.52616 0.61145
 H116 H 0.56705 0.50134 0.66966
 H117 H 0.48575 0.43879 0.52701
 H118 H 0.47337 0.45499 0.39264
 H119 H 0.49832 0.43249 0.33459
 H120 H 0.58552 0.49090 0.41938
 H121 H 0.56067 0.51377 0.47729
 H122 H 0.43881 0.48572 0.47711
 H123 H 0.41397 0.50859 0.41884
 H124 H 0.50116 0.56691 0.33389
 H125 H 0.52610 0.54442 0.39231
 H126 H 0.50866 0.41394 0.58495
 O127 O 0.37917 0.66810 -0.06667
 O128 O 0.38063 0.72082 -0.04915
 C129 C 0.36129 0.72542 -0.07681
 O130 O 0.33236 0.71105 -0.06707
 O131 O 0.27967 0.65980 -0.04960
 C132 C 0.27514 0.63586 -0.07707
 O133 O 0.28949 0.62127 -0.06707
 O134 O 0.34066 0.61976 -0.04906
 C135 C 0.36463 0.63916 -0.07652
 O136 O 0.38027 0.65929 0.04636
 O137 O 0.37916 0.71071 0.06387
 C138 C 0.36473 0.72522 0.07367
 O139 O 0.34091 0.72088 0.04597
 O140 O 0.28949 0.66835 0.06344
 C141 C 0.27496 0.63941 0.07332
 O142 O 0.27938 0.61993 0.04586
 O143 O 0.33185 0.62099 0.06388
 C144 C 0.36075 0.63539 0.07391
 Cr145 Cr 0.37807 0.68886 -0.00141
 Cr146 Cr 0.31147 0.68915 -0.00181
 Cr147 Cr 0.31122 0.62223 -0.00160
 O148 O 0.33359 0.66675 -0.00161
 O149 O 0.62093 0.33189 -0.06466
 O150 O 0.61980 0.27932 -0.04687
 C151 C 0.63924 0.27487 -0.07440
 O152 O 0.66816 0.28938 -0.06460
 O153 O 0.72069 0.34079 -0.04719
 C154 C 0.72506 0.36468 -0.07483
 O155 O 0.71057 0.37912 -0.06495
 O156 O 0.65923 0.38030 -0.04714
 C157 C 0.63533 0.36083 -0.07460
 O158 O 0.61973 0.34057 0.04834
 O159 O 0.62117 0.28929 0.06610
 C160 C 0.63572 0.27490 0.07601
 O161 O 0.65962 0.27942 0.04844
 O162 O 0.71086 0.33211 0.06586
 C163 C 0.72525 0.36105 0.07562
 O164 O 0.72070 0.38045 0.04801
 O165 O 0.66807 0.37904 0.06583
 C166 C 0.63916 0.36449 0.07582
 Cr167 Cr 0.62215 0.31114 0.00072
 Cr168 Cr 0.68896 0.31129 0.00062
 Cr169 Cr 0.68878 0.37799 0.00044
 O170 O 0.66663 0.33347 0.00060
 C171 C 0.41860 0.84174 -0.26662
 C172 C 0.42942 0.85134 -0.20507
 C173 C 0.41747 0.82707 -0.16781
 C174 C 0.39584 0.79551 -0.19565
 C175 C 0.41527 0.79245 -0.24331
 C176 C 0.42724 0.81678 -0.28064
 C177 C 0.38293 0.82418 -0.26373
 C178 C 0.37096 0.79986 -0.22639
 C179 C 0.43177 0.86821 -0.30610
 C180 C 0.44328 0.89059 -0.33712
 C181 C 0.38315 0.76965 -0.15481
 C182 C 0.37304 0.74908 -0.11989
 H183 H 0.44511 0.87515 -0.19189
 H184 H 0.42293 0.83009 -0.12272
 H185 H 0.41923 0.77291 -0.24741
 H186 H 0.44146 0.81807 -0.31675
 H187 H 0.36838 0.83028 -0.28884
 H188 H 0.34614 0.78511 -0.21952
 C189 C 0.15923 0.57703 -0.26721
 C190 C 0.14938 0.57701 -0.20535
 C191 C 0.17358 0.58930 -0.16803
 C192 C 0.20532 0.60044 -0.19613
 C193 C 0.20778 0.62338 -0.24253
 C194 C 0.18353 0.61107 -0.27993
 C195 C 0.17759 0.55967 -0.26583
 C196 C 0.20184 0.57199 -0.22844
 C197 C 0.13284 0.56377 -0.30675
 C198 C 0.11055 0.55294 -0.33784
 C199 C 0.23109 0.61356 -0.15523
 C200 C 0.25158 0.62398 -0.12024
 H201 H 0.12547 0.56811 -0.19201
 H202 H 0.17039 0.59093 -0.12274
 H203 H 0.22688 0.64717 -0.24579
 H204 H 0.18187 0.62431 -0.31523
 H205 H 0.17207 0.53954 -0.29197
 H206 H 0.21710 0.56240 -0.22254
 C207 C 0.42372 0.58201 -0.26573
 C208 C 0.44150 0.61772 -0.26357
 C209 C 0.42915 0.62968 -0.22635
 C210 C 0.40023 0.60474 -0.19500
 C211 C 0.41064 0.58350 -0.16685
 C212 C 0.42297 0.57157 -0.20399
 C213 C 0.38996 0.57293 -0.27938
 C214 C 0.37761 0.58489 -0.24217
 C215 C 0.43701 0.56886 -0.30508
 C216 C 0.44786 0.55736 -0.33601
 C217 C 0.38707 0.61740 -0.15430
 C218 C 0.37659 0.62748 -0.11948
 H219 H 0.46195 0.63232 -0.28905
 H220 H 0.43902 0.65453 -0.21997
 H221 H 0.40851 0.57828 -0.12165
 H222 H 0.43140 0.55613 -0.19059
 H223 H 0.37694 0.55844 -0.31515
 H224 H 0.35400 0.58063 -0.24605
 C225 C 0.58265 0.15873 -0.26384
 C226 C 0.57536 0.14866 -0.20138
 C227 C 0.58715 0.17290 -0.16418
 C228 C 0.60511 0.20489 -0.19300
 C229 C 0.58220 0.20561 -0.23604
 C230 C 0.57039 0.18133 -0.27330
 C231 C 0.61821 0.17905 -0.26651
 C232 C 0.63002 0.20334 -0.22923
 C233 C 0.56965 0.13231 -0.30327
 C234 C 0.55829 0.10999 -0.33429
 C235 C 0.61764 0.23070 -0.15224
 C236 C 0.62763 0.25124 -0.11739
 H237 H 0.56208 0.12458 -0.18755
 H238 H 0.58397 0.16956 -0.11850
 H239 H 0.57586 0.22362 -0.23720
 H240 H 0.55392 0.17855 -0.30640
 H241 H 0.63279 0.17478 -0.29517
 H242 H 0.65474 0.21987 -0.22596
 C243 C 0.84052 0.42384 -0.26580
 C244 C 0.81599 0.38994 -0.27881
 C245 C 0.79185 0.37758 -0.24119
 C246 C 0.79463 0.40033 -0.19431
 C247 C 0.79825 0.42906 -0.22603
 C248 C 0.82239 0.44143 -0.26364
 C249 C 0.85050 0.42343 -0.20416
 C250 C 0.82641 0.41108 -0.16662
 C251 C 0.86678 0.43716 -0.30559
 C252 C 0.88899 0.44802 -0.33689
 C253 C 0.76898 0.38715 -0.15320
 C254 C 0.74856 0.37665 -0.11809
 H255 H 0.81743 0.37683 -0.31445
 H256 H 0.77261 0.35387 -0.24461
 H257 H 0.78317 0.43879 -0.21958
 H258 H 0.82799 0.46175 -0.28942
 H259 H 0.87443 0.43208 -0.19112
 H260 H 0.82971 0.40916 -0.12144
 C261 C 0.57594 0.41768 -0.26457
 C262 C 0.60852 0.42414 -0.28137
 C263 C 0.62093 0.41223 -0.24399
 C264 C 0.59951 0.39506 -0.19352
 C265 C 0.56885 0.37029 -0.22044
 C266 C 0.55645 0.38220 -0.25781
 C267 C 0.57962 0.43060 -0.20405
 C268 C 0.59200 0.41872 -0.16674
 C269 C 0.56259 0.43078 -0.30410
 C270 C 0.55171 0.44225 -0.33519
 C271 C 0.61274 0.38245 -0.15265
 C272 C 0.62328 0.37243 -0.11770
 H273 H 0.62075 0.43688 -0.31930
 H274 H 0.64377 0.41478 -0.24989
 H275 H 0.55788 0.34559 -0.21105
 H276 H 0.53486 0.36770 -0.28044
 H277 H 0.57308 0.44762 -0.19157
 H278 H 0.59606 0.42557 -0.12232
 C279 C 0.84132 0.41824 0.26543
 C280 C 0.81657 0.42722 0.27896
 C281 C 0.79230 0.41526 0.24161
 C282 C 0.79520 0.39550 0.19443
 C283 C 0.79926 0.37057 0.22578
 C284 C 0.82353 0.38253 0.26313
 C285 C 0.85103 0.42877 0.20375
 C286 C 0.82681 0.41683 0.16647
 C287 C 0.86773 0.43140 0.30493
 C288 C 0.89005 0.44291 0.33597
 C289 C 0.76940 0.38282 0.15359
 C290 C 0.74887 0.37274 0.11867
 H291 H 0.81796 0.44166 0.31476
 H292 H 0.77290 0.41944 0.24540
 H293 H 0.78437 0.34572 0.21928
 H294 H 0.82944 0.36794 0.28863
 H295 H 0.87487 0.44427 0.19050
 H296 H 0.82991 0.42210 0.12130
 C297 C 0.57679 0.15892 0.26650
 C298 C 0.61075 0.18330 0.27934
 C299 C 0.62309 0.20755 0.24184
 C300 C 0.60025 0.20501 0.19523
 C301 C 0.57172 0.20147 0.22730
 C302 C 0.55937 0.17722 0.26479
 C303 C 0.57694 0.14905 0.20474
 C304 C 0.58926 0.17325 0.16732
 C305 C 0.56350 0.13253 0.30616
 C306 C 0.55264 0.11023 0.33734
 C307 C 0.61340 0.23078 0.15424
 C308 C 0.62384 0.25130 0.11920
 H309 H 0.62392 0.18169 0.31478
 H310 H 0.64683 0.22671 0.24516
 H311 H 0.56209 0.21669 0.22117
 H312 H 0.53918 0.17166 0.29078
 H313 H 0.56813 0.12511 0.19153
 H314 H 0.59100 0.17004 0.12207
 C315 C 0.58248 0.42326 0.26665
 C316 C 0.57421 0.42523 0.20445
 C317 C 0.58603 0.41297 0.16693
 C318 C 0.60500 0.39990 0.19520
 C319 C 0.58300 0.37634 0.23932
 C320 C 0.57115 0.38862 0.27691
 C321 C 0.61812 0.43929 0.26782
 C322 C 0.62997 0.42700 0.23023
 C323 C 0.56945 0.43649 0.30641
 C324 C 0.55805 0.44729 0.33767
 C325 C 0.61755 0.38680 0.15411
 C326 C 0.62755 0.37638 0.11903
 H327 H 0.56027 0.43539 0.19103
 H328 H 0.58221 0.41262 0.12139
 H329 H 0.57727 0.35217 0.24096
 H330 H 0.55527 0.37498 0.31075
 H331 H 0.63275 0.45855 0.29574
 H332 H 0.65475 0.43574 0.22594
 C333 C 0.15892 0.58292 0.26308
 C334 C 0.18223 0.57170 0.27411
 C335 C 0.20648 0.58349 0.23676
 C336 C 0.20501 0.60534 0.19207
 C337 C 0.20268 0.63039 0.22644
 C338 C 0.17842 0.61859 0.26380
 C339 C 0.14891 0.57443 0.20088
 C340 C 0.17312 0.58620 0.16359
 C341 C 0.13253 0.56994 0.30261
 C342 C 0.11025 0.55859 0.33372
 C343 C 0.23080 0.61784 0.15123
 C344 C 0.25133 0.62782 0.11633
 H345 H 0.17992 0.55593 0.30829
 H346 H 0.22494 0.57783 0.23892
 H347 H 0.21868 0.65519 0.22190
 H348 H 0.17365 0.63328 0.29127
 H349 H 0.12489 0.56038 0.18728
 H350 H 0.16982 0.58224 0.11807
 C351 C 0.42355 0.84035 0.26519
 C352 C 0.42249 0.85041 0.20384
 C353 C 0.41022 0.82640 0.16615
 C354 C 0.40017 0.79463 0.19341
 C355 C 0.37762 0.79131 0.24113
 C356 C 0.38992 0.81537 0.27889
 C357 C 0.44159 0.82272 0.26183
 C358 C 0.42930 0.79867 0.22407
 C359 C 0.43679 0.86654 0.30515
 C360 C 0.44760 0.88868 0.33657
 C361 C 0.38706 0.76905 0.15215
 C362 C 0.37663 0.74868 0.11696
 H363 H 0.43068 0.87433 0.19110
 H364 H 0.40789 0.82976 0.12114
 H365 H 0.35411 0.77179 0.24497
 H366 H 0.37694 0.81646 0.31509
 H367 H 0.46217 0.82858 0.28694
 H368 H 0.43934 0.78391 0.21683
 C369 C 0.41709 0.57627 0.26548
 C370 C 0.42812 0.57738 0.20413
 C371 C 0.41635 0.58969 0.16645
 C372 C 0.39467 0.59972 0.19372
 C373 C 0.41394 0.62224 0.24144
 C374 C 0.42574 0.60991 0.27920
 C375 C 0.38143 0.55820 0.26212
 C376 C 0.36963 0.57054 0.22437
 C377 C 0.43008 0.56299 0.30542
 C378 C 0.44145 0.55216 0.33683
 C379 C 0.38218 0.61288 0.15246
 C380 C 0.37225 0.62338 0.11725
 H381 H 0.44383 0.56921 0.19138
 H382 H 0.42198 0.59206 0.12144
 H383 H 0.41793 0.64577 0.24530
 H384 H 0.43984 0.62287 0.31540
 H385 H 0.36675 0.53759 0.28723
 H386 H 0.34484 0.56049 0.21713
   
