data_POSCAR
  _audit_creation_date              2014-09-24
  _audit_creation_method            'ToBaCCo'
  _symmetry_space_group_name_H-M    'P1'
  _symmetry_Int_Tables_number       1
  _symmetry_cell_setting            triclinic
  loop_
  _symmetry_equiv_pos_as_xyz
 x,y,z
_cell_length_a 20.6939
_cell_length_b 20.8612
_cell_length_c 20.7367
_cell_angle_alpha 87.091600
_cell_angle_beta 86.637200
_cell_angle_gamma 86.755200
loop_
  _atom_site_label
  _atom_site_type_symbol
  _atom_site_fract_x
  _atom_site_fract_y
  _atom_site_fract_z
Si1 Si 0.77765 0.58992 0.99293
 Si2 Si 0.75350 0.35156 0.51762
 Si3 Si 0.24258 -0.15178 0.02463
 Si4 Si 0.28842 0.09674 0.49883
 Si5 Si 0.10089 0.49739 0.28295
 Si6 Si -0.14634 0.02637 0.25303
 Si7 Si 0.35045 0.51993 0.74892
 Si8 Si 0.60032 0.99372 0.78645
 Si9 Si 0.01906 0.25583 -0.15532
 Si10 Si 0.49222 0.27812 0.10079
 Si11 Si 0.99677 0.78739 0.59669
 Si12 Si 0.52538 0.74863 0.34670
 C13 C 0.50564 -0.06475 0.27539
 H14 H 0.51301 -0.01824 0.29374
 C15 C 0.53369 -0.12003 0.30510
 H16 H 0.56429 -0.11447 0.34450
 C17 C 0.45167 -0.12782 0.20577
 H18 H 0.41741 -0.13090 0.16894
 C19 C 0.47822 -0.18446 0.23480
 H20 H 0.46422 -0.23050 0.21996
 N21 N 0.46228 -0.06986 0.22961
 C22 C 0.38955 0.11869 0.15734
 H23 H 0.33913 0.10714 0.16163
 C24 C 0.40577 0.17972 0.13480
 H25 H 0.36724 0.21298 0.11956
 C26 C 0.49955 0.08832 0.17429
 H27 H 0.53559 0.05271 0.19093
 C28 C 0.51794 0.14986 0.15255
 H29 H 0.56857 0.16073 0.15062
 Zn30 Zn 0.40097 -0.00047 0.21770
 N31 N 0.43595 0.07432 0.17665
 C32 C 0.37443 0.08452 0.31719
 N33 N 0.36821 0.02258 0.30194
 C34 C 0.34480 -0.02131 0.34717
 C35 C 0.32345 -0.00229 0.40925
 C36 C 0.35371 0.10530 0.37775
 C37 C 0.34168 -0.01303 0.10144
 C38 C 0.30622 -0.04375 0.05831
 C39 C 0.25774 -0.10527 0.14843
 C40 C 0.29308 -0.07213 0.19026
 N41 N 0.33575 -0.02846 0.16604
 H42 H 0.39545 0.11872 0.28270
 H43 H 0.34306 -0.07106 0.33543
 H44 H 0.30313 -0.03692 0.44419
 H45 H 0.35662 0.15558 0.38734
 H46 H 0.37800 0.01910 0.08241
 H47 H 0.31567 -0.03439 0.00689
 H48 H 0.22836 -0.14386 0.16773
 H49 H 0.29033 -0.08524 0.24132
 C50 C 0.47037 0.19656 0.13337
 C51 C 0.51533 -0.18064 0.28855
 C52 C 0.26593 -0.09234 0.08160
 C53 C 0.32735 0.06205 0.42434
 C54 C 0.05316 1.06308 0.81104
 H55 H 0.03563 1.01803 0.83119
 C56 C 0.02431 1.12106 0.83180
 H57 H -0.01540 1.11979 0.86804
 C58 C 0.12812 1.11884 0.74150
 H59 H 0.16863 1.11817 0.70639
 C60 C 0.10067 1.17808 0.76115
 H61 H 0.12075 1.22228 0.74162
 N62 N 0.10565 1.06276 0.76845
 C63 C 0.08905 0.86108 0.74520
 H64 H 0.11999 0.84245 0.78257
 C65 C 0.05673 0.81816 0.71055
 H66 H 0.06331 0.76708 0.72161
 C67 C 0.04649 0.94943 0.68158
 H68 H 0.04552 1.00027 0.66825
 C69 C 0.01440 0.90828 0.64517
 H70 H -0.01153 0.92817 0.60429
 Zn71 Zn 0.14838 0.98106 0.75225
 N72 N 0.08607 0.92501 0.72784
 C73 C 0.22311 0.89050 0.82812
 N74 N 0.18816 0.94772 0.82844
 C75 C 0.17697 0.97963 0.88401
 C76 C 0.19591 0.95147 0.94285
 C77 C 0.24277 0.86046 0.88615
 C78 C 0.19644 0.96912 0.62279
 C79 C 0.22625 0.99462 0.56590
 C80 C 0.29271 1.05426 0.63066
 C81 C 0.26074 1.02847 0.68639
 N82 N 0.21019 0.99061 0.68119
 H83 H 0.23302 0.86670 0.78317
 H84 H 0.15134 1.02609 0.88348
 H85 H 0.18434 0.97667 0.98677
 H86 H 0.26771 0.81370 0.88489
 H87 H 0.15825 0.93678 0.61928
 H88 H 0.20914 0.98304 0.51975
 H89 H 0.32847 1.08911 0.63580
 H90 H 0.27155 1.04415 0.73334
 C91 C 0.02135 0.84175 0.65816
 C92 C 0.04929 1.17931 0.80806
 C93 C 0.27193 1.04079 0.56972
 C94 C 0.22728 0.89026 0.94465
 C95 C 0.54906 0.55810 0.29880
 H96 H 0.52562 0.51400 0.31247
 C97 C 0.52236 0.61626 0.32118
 H98 H 0.47773 0.61592 0.35088
 C99 C 0.63740 0.61073 0.24612
 H100 H 0.68302 0.60817 0.21801
 C101 C 0.61221 0.67017 0.26771
 H102 H 0.63819 0.71311 0.25535
 N103 N 0.60636 0.55597 0.26321
 C104 C 0.59525 0.35069 0.24152
 H105 H 0.63433 0.33292 0.27087
 C106 C 0.56185 0.30713 0.20877
 H107 H 0.57549 0.25638 0.21363
 C108 C 0.53478 0.43847 0.19342
 H109 H 0.52748 0.48977 0.18410
 C110 C 0.50175 0.39685 0.15844
 H111 H 0.46915 0.41723 0.12303
 Zn112 Zn 0.64676 0.47334 0.24744
 N113 N 0.58327 0.41512 0.23092
 C114 C 0.73215 0.39101 0.32135
 N115 N 0.69116 0.44432 0.32202
 C116 C 0.67612 0.47514 0.37771
 C117 C 0.69820 0.44967 0.43633
 C118 C 0.75546 0.36389 0.37916
 C119 C 0.67842 0.46809 0.11398
 C120 C 0.70780 0.49161 0.05609
 C121 C 0.79375 0.52774 0.11647
 C122 C 0.76178 0.50507 0.17367
 N123 N 0.70299 0.47958 0.17164
 H124 H 0.74440 0.36793 0.27636
 H125 H 0.64436 0.51794 0.37761
 H126 H 0.68283 0.47296 0.48059
 H127 H 0.78563 0.32003 0.37784
 H128 H 0.63281 0.44614 0.11244
 H129 H 0.68337 0.48892 0.01158
 H130 H 0.83818 0.55206 0.11936
 H131 H 0.78107 0.51286 0.21984
 C132 C 0.51707 0.33055 0.16409
 C133 C 0.55521 0.67282 0.30761
 C134 C 0.76309 0.52656 0.05786
 C135 C 0.73639 0.39223 0.43772
 C136 C 1.00517 0.44279 0.77203
 H137 H 1.01303 0.48912 0.79051
 C138 C 1.03055 0.38703 0.80319
 H139 H 1.06000 0.39213 0.84353
 C140 C 0.95178 0.38071 0.70109
 H141 H 0.91861 0.37821 0.66322
 C142 C 0.97557 0.32366 0.73159
 H143 H 0.96139 0.27796 0.71609
 N144 N 0.96332 0.43854 0.72471
 C145 C 0.89370 0.62724 0.64894
 H146 H 0.84369 0.61471 0.64908
 C147 C 0.91030 0.68832 0.62689
 H148 H 0.87268 0.72067 0.60803
 C149 C 1.00189 0.59937 0.67527
 H150 H 1.03707 0.56465 0.69508
 C151 C 1.02072 0.66079 0.65360
 H152 H 1.07092 0.67245 0.65499
 Zn153 Zn 0.90298 0.50852 0.71115
 N154 N 0.93894 0.58416 0.67294
 C155 C 0.86008 0.59162 0.80847
 N156 N 0.86550 0.52869 0.79393
 C157 C 0.84943 0.48157 0.83913
 C158 C 0.82537 0.49755 0.90128
 C159 C 0.83582 0.60946 0.86902
 C160 C 0.85092 0.49252 0.59215
 C161 C 0.81740 0.45990 0.54890
 C162 C 0.76105 0.40603 0.63959
 C163 C 0.79459 0.44091 0.68131
 N164 N 0.84034 0.48129 0.65702
 H165 H 0.87417 0.62867 0.77332
 H166 H 0.85582 0.43165 0.82717
 H167 H 0.81142 0.46010 0.93657
 H168 H 0.82927 0.66010 0.87840
 H169 H 0.88923 0.52270 0.57374
 H170 H 0.83005 0.46577 0.49760
 H171 H 0.72881 0.37031 0.65973
 H172 H 0.78802 0.43162 0.73293
 C173 C 0.97415 0.70631 0.63003
 C174 C 1.01112 0.32684 0.78647
 C175 C 0.77469 0.41357 0.57275
 C176 C 0.81821 0.56236 0.91615
 C177 C 0.28059 0.50094 -0.06207
 H178 H 0.29964 0.50729 -0.01547
 C179 C 0.31154 0.52717 -0.11790
 H180 H 0.35281 0.55528 -0.11257
 C181 C 0.20765 0.45093 -0.12494
 H182 H 0.16895 0.41883 -0.12779
 C183 C 0.23779 0.47574 -0.18213
 H184 H 0.22186 0.46272 -0.22831
 N185 N 0.23218 0.46060 -0.06683
 C186 C 0.15032 0.39451 0.12096
 H187 H 0.14951 0.34493 0.10825
 C188 C 0.12869 0.41143 0.18259
 H189 H 0.10888 0.37453 0.21501
 C190 C 0.17972 0.50099 0.09330
 H191 H 0.20093 0.53523 0.05853
 C192 C 0.15819 0.52018 0.15520
 H193 H 0.16064 0.56988 0.16705
 Zn194 Zn 0.21603 0.40146 0.00313
 N195 N 0.17587 0.43870 0.07784
 C196 C 0.31011 0.36313 0.09043
 N197 N 0.29763 0.36353 0.02676
 C198 C 0.34400 0.34269 -0.01805
 C199 C 0.40508 0.31881 0.00132
 C200 C 0.36934 0.33928 0.11160
 C201 C 0.09629 0.35425 -0.01573
 C202 C 0.05222 0.32264 -0.04897
 C203 C 0.14168 0.26187 -0.10098
 C204 C 0.18432 0.29394 -0.06562
 N205 N 0.16107 0.34057 -0.02549
 H206 H 0.27449 0.38134 0.12567
 H207 H 0.33396 0.34534 -0.06875
 H208 H 0.44135 0.30142 -0.03424
 H209 H 0.37696 0.33745 0.16292
 H210 H 0.07884 0.39352 0.01376
 H211 H 0.00129 0.33771 -0.04411
 H212 H 0.16103 0.22846 -0.13631
 H213 H 0.23600 0.28521 -0.07413
 C214 C 0.13364 0.47454 0.20100
 C215 C 0.29323 0.51038 -0.17877
 C216 C 0.07506 0.27807 -0.09426
 C217 C 0.41758 0.31684 0.06709
 C218 C 0.82695 0.06996 1.05967
 H219 H 0.85212 0.05882 1.01406
 C220 C 0.85198 0.04574 1.11746
 H221 H 0.89627 0.01550 1.11582
 C222 C 0.74034 0.12522 1.11710
 H223 H 0.69708 0.15667 1.11688
 C224 C 0.76266 0.10005 1.17627
 H225 H 0.73635 0.11196 1.22112
 N226 N 0.77353 0.11100 1.06034
 C227 C 0.74945 0.08558 0.85966
 H228 H 0.78792 0.11493 0.84046
 C229 C 0.71556 0.05179 0.81708
 H230 H 0.72786 0.05626 0.76569
 C231 C 0.68339 0.04704 0.94880
 H232 H 0.66879 0.04808 0.99972
 C233 C 0.64781 0.01340 0.90801
 H234 H 0.60628 -0.01155 0.92824
 Zn235 Zn 0.75162 0.15094 0.97890
 N236 N 0.72997 0.08596 0.92361
 C237 C 0.82388 0.22416 0.88252
 N238 N 0.82369 0.19691 0.94354
 C239 C 0.87693 0.19763 0.97904
 C240 C 0.93518 0.21866 0.95090
 C241 C 0.88140 0.24589 0.85235
 C242 C 0.61926 0.19226 0.96979
 C243 C 0.56136 0.21982 0.99628
 C244 C 0.62390 0.28754 1.05676
 C245 C 0.68066 0.25744 1.03044
 N246 N 0.67715 0.20758 0.99138
 H247 H 0.78033 0.22572 0.85594
 H248 H 0.87540 0.17971 1.02872
 H249 H 0.97793 0.21418 0.97876
 H250 H 0.88150 0.26339 0.80249
 H251 H 0.61711 0.15483 0.93632
 H252 H 0.51570 0.20167 0.98448
 H253 H 0.62789 0.32368 1.09158
 H254 H 0.72725 0.26972 1.04592
 C255 C 0.66211 0.01791 0.84110
 C256 C 0.81977 0.06080 1.17655
 C257 C 0.56365 0.26488 1.04348
 C258 C 0.93833 0.24138 0.88625
 C259 C 0.30992 0.55411 0.55727
 H260 H 0.32832 0.53674 0.51108
 C261 C 0.33177 0.52449 0.61434
 H262 H 0.36677 0.48420 0.61121
 C263 C 0.24394 0.62950 0.61665
 H264 H 0.20996 0.67059 0.61770
 C265 C 0.26472 0.60127 0.67503
 H266 H 0.24695 0.62117 0.72035
 N267 N 0.26887 0.60728 0.55917
 C268 C 0.24546 0.59597 0.35590
 H269 H 0.28070 0.62935 0.33724
 C270 C 0.21205 0.56258 0.31270
 H271 H 0.22203 0.57062 0.26127
 C272 C 0.18515 0.54896 0.44506
 H273 H 0.17251 0.54651 0.49645
 C274 C 0.15003 0.51574 0.40372
 H275 H 0.11067 0.48774 0.42405
 Zn276 Zn 0.25276 0.65144 0.47846
 N277 N 0.22938 0.59068 0.42051
 C278 C 0.32843 0.73041 0.39149
 N279 N 0.32917 0.69194 0.44642
 C280 C 0.38526 0.67800 0.47672
 C281 C 0.44416 0.69795 0.44880
 C282 C 0.38640 0.75188 0.36214
 C283 C 0.12279 0.69785 0.46755
 C284 C 0.06535 0.72729 0.49301
 C285 C 0.12915 0.79293 0.55448
 C286 C 0.18543 0.76162 0.52846
 N287 N 0.18095 0.71175 0.48961
 H288 H 0.28314 0.74207 0.36892
 H289 H 0.38517 0.64912 0.52131
 H290 H 0.48866 0.68333 0.47176
 H291 H 0.38473 0.78008 0.31718
 H292 H 0.11988 0.65991 0.43471
 H293 H 0.01931 0.71033 0.48078
 H294 H 0.13370 0.82806 0.59020
 H295 H 0.23221 0.77255 0.54455
 C296 C 0.16200 0.52404 0.33670
 C297 C 0.31095 0.54968 0.67390
 C298 C 0.06837 0.77232 0.54011
 C299 C 0.44534 0.73362 0.38984
 C300 C 0.77265 1.01033 0.43850
 H301 H 0.78776 1.02099 0.48566
 C302 C 0.80298 1.03856 0.38312
 H303 H 0.83862 1.07310 0.38910
 C304 C 0.71121 0.94900 0.37396
 H305 H 0.67698 0.91244 0.37020
 C306 C 0.74210 0.97452 0.31746
 H307 H 0.73074 0.95757 0.27126
 N308 N 0.73037 0.96374 0.43297
 C309 C 0.65363 0.89300 0.62331
 H310 H 0.65533 0.84335 0.61033
 C311 C 0.63200 0.90865 0.68552
 H312 H 0.61496 0.87073 0.71846
 C313 C 0.67647 1.00129 0.59571
 H314 H 0.69498 1.03694 0.56087
 C315 C 0.65528 1.01909 0.65821
 H316 H 0.65572 1.06890 0.67050
 Zn317 Zn 0.71668 0.90380 0.50356
 N318 N 0.67572 0.93878 0.57978
 C319 C 0.81484 0.87261 0.58850
 N320 N 0.80021 0.86969 0.52568
 C321 C 0.84562 0.84803 0.48033
 C322 C 0.90754 0.82559 0.49851
 C323 C 0.87517 0.85062 0.60849
 C324 C 0.59897 0.85035 0.48609
 C325 C 0.55618 0.81617 0.45356
 C326 C 0.64775 0.75894 0.40124
 C327 C 0.68905 0.79327 0.43606
 N328 N 0.66413 0.83976 0.47564
 H329 H 0.77997 0.89182 0.62396
 H330 H 0.83403 0.84849 0.43013
 H331 H 0.94278 0.80683 0.46269
 H332 H 0.88441 0.85112 0.65934
 H333 H 0.57999 0.88899 0.51572
 H334 H 0.50473 0.82874 0.45902
 H335 H 0.66846 0.72580 0.36633
 H336 H 0.74086 0.78637 0.42737
 C337 C 0.63358 0.97208 0.70411
 C338 C 0.79215 1.01604 0.32217
 C339 C 0.58066 0.77244 0.40803
 C340 C 0.92208 0.82643 0.56357
 C341 C -0.05659 0.28172 0.50359
 H342 H -0.01016 0.30026 0.51185
 C343 C -0.11338 0.31279 0.52827
 H344 H -0.10913 0.35357 0.55723
 C345 C -0.11782 0.21046 0.44969
 H346 H -0.11975 0.17297 0.41609
 C347 C -0.17583 0.24045 0.47324
 H348 H -0.22155 0.22501 0.45833
 N349 N -0.05993 0.23408 0.46199
 C350 C 0.12969 0.15560 0.39490
 H351 H 0.11747 0.15659 0.34485
 C352 C 0.19037 0.13111 0.41184
 H353 H 0.22298 0.11184 0.37427
 C354 C 0.10073 0.18090 0.50330
 H355 H 0.06564 0.20110 0.53840
 C356 C 0.16169 0.15663 0.52251
 H357 H 0.17270 0.15658 0.57291
 Zn358 Zn 0.01156 0.21938 0.40310
 N359 N 0.08643 0.18035 0.44008
 C360 C 0.09584 0.31680 0.36856
 N361 N 0.03322 0.30109 0.36598
 C362 C -0.01276 0.34479 0.34363
 C363 C 0.00436 0.40658 0.32125
 C364 C 0.11485 0.37704 0.34642
 C365 C -0.01376 0.10078 0.36344
 C366 C -0.04769 0.05693 0.33247
 C367 C -0.07941 0.14161 0.25495
 C368 C -0.04465 0.18428 0.28766
 N369 N -0.01461 0.16348 0.34209
 H370 H 0.13171 0.28283 0.38785
 H371 H -0.06268 0.33191 0.34371
 H372 H -0.03197 0.44053 0.30214
 H373 H 0.16555 0.38731 0.34673
 H374 H 0.00840 0.08606 0.40815
 H375 H -0.05197 0.00913 0.35455
 H376 H -0.10704 0.15957 0.21451
 H377 H -0.04586 0.23465 0.27250
 C378 C 0.20760 0.13238 0.47602
 C379 C -0.17360 0.29525 0.50883
 C380 C -0.08318 0.07785 0.27926
 C381 C 0.06907 0.42269 0.32256
 C382 C 1.04913 0.83100 0.08055
 H383 H 1.00567 0.86236 0.08124
 C384 C 1.10771 0.85427 0.05540
 H385 H 1.10846 0.90353 0.03672
 C386 C 1.10123 0.72998 0.10767
 H387 H 1.09863 0.68197 0.12956
 C388 C 1.16095 0.75114 0.08163
 H389 H 1.20395 0.71918 0.08325
 N390 N 1.04692 0.77021 0.10705
 C391 C 0.84787 0.70754 0.12120
 H392 H 0.83399 0.71941 0.17045
 C393 C 0.80518 0.67589 0.08637
 H394 H 0.75820 0.66548 0.10874
 C395 C 0.92929 0.69933 0.03633
 H396 H 0.97861 0.70656 0.01842
 C397 C 0.88964 0.66305 0.00189
 H398 H 0.90989 0.64206 -0.04180
 Zn399 Zn 0.96764 0.74818 0.15203
 N400 N 0.90832 0.71946 0.09559
 C401 C 0.87189 0.84841 0.17609
 N402 N 0.93153 0.82378 0.19200
 C403 C 0.96954 0.85770 0.22779
 C404 C 0.94804 0.91873 0.24810
 C405 C 0.84743 0.90711 0.19820
 C406 C 0.96831 0.61833 0.19439
 C407 C 0.99637 0.56231 0.22269
 C408 C 1.05487 0.62783 0.28935
 C409 C 1.02608 0.68286 0.25937
 N410 N 0.98585 0.67723 0.21072
 H411 H 0.84391 0.82511 0.14311
 H412 H 1.01816 0.83930 0.23706
 H413 H 0.98076 0.94617 0.27271
 H414 H 0.80026 0.92557 0.18373
 H415 H 0.93746 0.61392 0.15495
 H416 H 0.98671 0.51626 0.20446
 H417 H 1.09047 0.63360 0.32436
 H418 H 1.04023 0.72974 0.27111
 C419 C 0.82697 0.65044 0.02745
 C420 C 1.16450 0.81436 0.05596
 C421 C 1.04274 0.56697 0.26811
 C422 C 0.88589 0.94370 0.23358
 C423 C 0.56301 0.30422 0.55304
 H424 H 0.51652 0.31927 0.53442
 C425 C 0.61962 0.32725 0.52281
 H426 H 0.61577 0.35939 0.48057
 C427 C 0.62347 0.24581 0.63219
 H428 H 0.62514 0.21442 0.67502
 C429 C 0.68138 0.26818 0.60357
 H430 H 0.72692 0.25404 0.62480
 N431 N 0.56552 0.26608 0.60804
 C432 C 0.36290 0.24210 0.59440
 H433 H 0.34422 0.27858 0.62663
 C434 C 0.31962 0.20845 0.56142
 H435 H 0.26813 0.21950 0.56866
 C436 C 0.45199 0.17933 0.54974
 H437 H 0.50332 0.16597 0.54813
 C438 C 0.41049 0.14389 0.51698
 H439 H 0.43055 0.10363 0.49002
 Zn440 Zn 0.48437 0.24899 0.65205
 N441 N 0.42742 0.22486 0.59038
 C442 C 0.39493 0.32463 0.73006
 N443 N 0.45111 0.32491 0.69258
 C444 C 0.48203 0.38038 0.67915
 C445 C 0.45385 0.43901 0.69889
 C446 C 0.36510 0.38238 0.75096
 C447 C 0.47185 0.12042 0.69887
 C448 C 0.49689 0.06318 0.72767
 C449 C 0.55997 0.12562 0.79303
 C450 C 0.53437 0.18173 0.76228
 N451 N 0.49508 0.17779 0.71258
 H452 H 0.37175 0.27988 0.74118
 H453 H 0.52742 0.37996 0.65081
 H454 H 0.47750 0.48298 0.68484
 H455 H 0.31907 0.38121 0.77815
 H456 H 0.43826 0.11791 0.66151
 H457 H 0.48384 0.01778 0.71044
 H458 H 0.59621 0.12976 0.82772
 H459 H 0.55112 0.22789 0.77345
 C460 C 0.34341 0.15702 0.52447
 C461 C 0.67937 0.31117 0.54962
 C462 C 0.54454 0.06553 0.77228
 C463 C 0.39379 0.44061 0.73353
 C464 C 0.43233 0.77852 1.00527
 H465 H 0.47890 0.79729 1.01255
 C466 C 0.37593 0.80851 1.03228
 H467 H 0.38086 0.84900 1.06151
 C468 C 0.37020 0.70720 0.95258
 H469 H 0.36786 0.66943 0.91923
 C470 C 0.31244 0.73634 0.97831
 H471 H 0.26642 0.72061 0.96455
 N472 N 0.42829 0.73149 0.96312
 C473 C 0.61863 0.65574 0.89213
 H474 H 0.60718 0.66123 0.84185
 C475 C 0.67886 0.62934 0.90793
 H476 H 0.71116 0.61240 0.86910
 C477 C 0.58817 0.67142 1.00232
 H478 H 0.55256 0.68846 1.03867
 C479 C 0.64931 0.64620 1.02031
 H480 H 0.65967 0.64220 1.07089
 Zn481 Zn 0.49961 0.71736 0.90312
 N482 N 0.57448 0.67611 0.93878
 C483 C 0.58673 0.81425 0.87382
 N484 N 0.52400 0.79987 0.86838
 C485 C 0.48024 0.84478 0.84401
 C486 C 0.50005 0.90570 0.82152
 C487 C 0.60836 0.87355 0.85162
 C488 C 0.48804 0.59983 0.84674
 C489 C 0.45817 0.55593 0.81167
 C490 C 0.39672 0.64427 0.76068
 C491 C 0.42933 0.68691 0.79539
 N492 N 0.47240 0.66399 0.83921
 H493 H 0.62085 0.78008 0.89551
 H494 H 0.42995 0.83373 0.84256
 H495 H 0.46536 0.94047 0.80094
 H496 H 0.65917 0.88248 0.85426
 H497 H 0.51958 0.58180 0.88394
 H498 H 0.46779 0.50502 0.82215
 H499 H 0.35877 0.66301 0.73024
 H500 H 0.41626 0.73772 0.79119
 C501 C 0.69583 0.62574 0.97239
 C502 C 0.31506 0.79067 1.01473
 C503 C 0.40955 0.57792 0.77073
 C504 C 0.56511 0.91996 0.82494
   
