data_POSCAR
  _audit_creation_date              2014-09-24
  _audit_creation_method            'ToBaCCo'
  _symmetry_space_group_name_H-M    'P1'
  _symmetry_Int_Tables_number       1
  _symmetry_cell_setting            triclinic
  loop_
  _symmetry_equiv_pos_as_xyz
 x,y,z
_cell_length_a 33.4517
_cell_length_b 33.4768
_cell_length_c 33.5102
_cell_angle_alpha 90.390800
_cell_angle_beta 89.679400
_cell_angle_gamma 89.309400
loop_
  _atom_site_label
  _atom_site_type_symbol
  _atom_site_fract_x
  _atom_site_fract_y
  _atom_site_fract_z
C1 C 0.57436 0.39816 -0.01539
 C2 C 0.60324 0.42692 -0.01524
 C3 C 0.58403 0.46290 -0.00625
 N4 N 0.54452 0.45690 -0.00069
 C5 C 0.53846 0.41745 -0.00655
 C6 C 0.60334 0.49985 -0.00073
 C7 C 0.58284 0.53665 0.00545
 C8 C 0.60062 0.57175 0.01817
 C9 C 0.57144 0.60100 0.01802
 C10 C 0.53650 0.58310 0.00523
 N11 N 0.54382 0.54395 -0.00257
 C12 C 0.49982 0.60357 -0.00117
 C13 C 0.46292 0.58421 -0.00671
 C14 C 0.42706 0.60327 -0.01582
 C15 C 0.39828 0.57442 -0.01596
 C16 C 0.41744 0.53867 -0.00697
 N17 N 0.45683 0.54481 -0.00104
 C18 C 0.39810 0.50180 -0.00185
 C19 C 0.41838 0.46507 0.00420
 C20 C 0.40020 0.43007 0.01623
 C21 C 0.42940 0.40080 0.01632
 C22 C 0.46467 0.41867 0.00435
 N23 N 0.45759 0.45776 -0.00324
 C24 C 0.50147 0.39822 -0.00150
 H25 H 0.57931 0.36659 -0.02095
 H26 H 0.63484 0.42187 -0.02062
 H27 H 0.47720 0.47711 -0.01708
 H28 H 0.63156 0.57594 0.02634
 H29 H 0.57559 0.63204 0.02606
 H30 H 0.42209 0.63477 -0.02129
 H31 H 0.36677 0.57929 -0.02158
 H32 H 0.42505 0.36980 0.02398
 H33 H 0.52462 0.52454 -0.01697
 H34 H 0.36904 0.42593 0.02381
 C35 C -0.00170 0.57601 0.60313
 C36 C 0.00042 0.60473 0.57429
 C37 C 0.00094 0.58488 0.53776
 N38 N -0.00071 0.54504 0.54357
 C39 C -0.00229 0.53945 0.58343
 C40 C 0.00167 0.60387 0.50015
 C41 C 0.00061 0.58368 0.46280
 C42 C -0.00463 0.60257 0.42638
 C43 C -0.00474 0.57327 0.39756
 C44 C 0.00044 0.53706 0.41690
 N45 N 0.00434 0.54376 0.45659
 C46 C 0.00128 0.49946 0.39723
 C47 C 0.00053 0.46204 0.41645
 C48 C -0.00028 0.42543 0.39681
 C49 C -0.00240 0.39676 0.42573
 C50 C -0.00271 0.41670 0.46215
 N51 N -0.00093 0.45652 0.45630
 C52 C -0.00329 0.39779 0.49971
 C53 C -0.00212 0.41791 0.53699
 C54 C 0.00342 0.39895 0.57327
 C55 C 0.00355 0.42820 0.60215
 C56 C -0.00192 0.46443 0.58291
 N57 N -0.00603 0.45780 0.54325
 C58 C -0.00287 0.50200 0.60262
 H59 H -0.00242 0.58148 0.63500
 H60 H 0.00124 0.63664 0.57963
 H61 H -0.01406 0.47887 0.52220
 H62 H -0.00853 0.63423 0.42109
 H63 H -0.00872 0.57816 0.36593
 H64 H 0.00032 0.41991 0.36495
 H65 H -0.00335 0.36485 0.42047
 H66 H 0.00775 0.42328 0.63375
 H67 H 0.01209 0.52267 0.47771
 H68 H 0.00751 0.36729 0.57845
 C69 C 0.39860 -0.01626 0.57402
 C70 C 0.42743 -0.01622 0.60299
 C71 C 0.46322 -0.00717 0.58414
 N72 N 0.45704 -0.00144 0.54474
 C73 C 0.41766 -0.00726 0.53840
 C74 C 0.50015 -0.00177 0.60368
 C75 C 0.53676 0.00450 0.58336
 C76 C 0.57173 0.01712 0.60137
 C77 C 0.60081 0.01727 0.57223
 C78 C 0.58294 0.00471 0.53707
 N79 N 0.54398 -0.00322 0.54423
 C80 C 0.60334 -0.00142 0.50034
 C81 C 0.58397 -0.00686 0.46332
 C82 C 0.60315 -0.01584 0.42745
 C83 C 0.57422 -0.01592 0.39858
 C84 C 0.53832 -0.00704 0.41768
 N85 N 0.54442 -0.00123 0.45715
 C86 C 0.50126 -0.00192 0.39829
 C87 C 0.46449 0.00397 0.41861
 C88 C 0.42912 0.01602 0.40065
 C89 C 0.40002 0.01602 0.42981
 C90 C 0.41836 0.00397 0.46484
 N91 N 0.45757 -0.00358 0.45766
 C92 C 0.39822 -0.00203 0.50148
 H93 H 0.36712 -0.02183 0.57873
 H94 H 0.42253 -0.02174 0.63442
 H95 H 0.47729 -0.01745 0.47708
 H96 H 0.57597 0.02507 0.63242
 H97 H 0.63174 0.02533 0.57654
 H98 H 0.63476 -0.02127 0.42254
 H99 H 0.57915 -0.02146 0.36706
 H100 H 0.36881 0.02368 0.42557
 H101 H 0.52476 -0.01748 0.52472
 H102 H 0.42463 0.02369 0.36966
 O103 O 0.46761 0.00003 -0.05500
 O104 O 0.46764 0.00034 0.05507
 O105 O 0.46775 0.05524 0.00023
 O106 O 0.46753 -0.05485 -0.00017
 O107 O 0.53364 -0.05578 -0.00056
 O108 O 0.53386 0.05431 -0.00016
 O109 O 0.53374 -0.00059 0.05468
 O110 O 0.53371 -0.00091 -0.05540
 Cu111 Cu 0.46098 0.00029 0.00007
 Cu112 Cu 0.54039 -0.00083 -0.00040
 C113 C 0.50065 -0.00049 -0.07379
 C114 C 0.50070 -0.00011 0.07347
 C115 C 0.50085 0.07336 0.00008
 C116 C 0.50054 -0.07390 -0.00041
 O117 O -0.05602 0.53382 1.00074
 O118 O 0.05409 0.53420 1.00000
 O119 O -0.00106 0.53436 0.94549
 O120 O -0.00089 0.53362 1.05525
 O121 O 0.00014 0.46754 1.05436
 O122 O -0.00003 0.46828 0.94461
 O123 O 0.05511 0.46813 0.99911
 O124 O -0.05499 0.46775 0.99985
 Cu125 Cu -0.00107 0.54068 1.00046
 Cu126 Cu 0.00016 0.46124 0.99940
 C127 C -0.07409 0.50072 1.00040
 C128 C 0.07318 0.50123 0.99944
 C129 C -0.00060 0.50144 0.92654
 C130 C -0.00034 0.50046 1.07332
 O131 O 0.00032 -0.05542 0.46740
 O132 O -0.00074 0.05455 0.46786
 O133 O 0.05486 -0.00057 0.46773
 O134 O -0.05527 -0.00030 0.46768
 O135 O -0.05567 -0.00010 0.53368
 O136 O 0.05445 -0.00036 0.53373
 O137 O -0.00114 0.05477 0.53386
 O138 O -0.00008 -0.05523 0.53341
 Cu139 Cu -0.00017 -0.00045 0.46100
 Cu140 Cu -0.00065 -0.00021 0.54033
 C141 C 0.00029 -0.07388 0.50033
 C142 C -0.00113 0.07322 0.50092
 C143 C 0.07324 -0.00051 0.50074
 C144 C -0.07405 -0.00016 0.50067
 C145 C -0.27675 0.50008 1.00031
 N146 N -0.25565 0.46643 0.99095
 N147 N -0.21581 0.46654 0.99109
 C148 C -0.19588 0.50031 1.00061
 N149 N -0.21698 0.53396 1.00997
 N150 N -0.25682 0.53385 1.00983
 C151 C -0.31962 0.49999 1.00002
 C152 C -0.35566 0.49992 0.99970
 C153 C -0.15299 0.50046 1.00062
 C154 C -0.11696 0.50058 1.00057
 C155 C 0.27585 0.50166 0.99860
 N156 N 0.25579 0.46763 1.00650
 N157 N 0.21595 0.46756 1.00664
 C158 C 0.19498 0.50153 0.99888
 N159 N 0.21505 0.53557 0.99098
 N160 N 0.25489 0.53563 0.99084
 C161 C 0.31873 0.50172 0.99845
 C162 C 0.35477 0.50176 0.99832
 C163 C 0.15209 0.50146 0.99904
 C164 C 0.11605 0.50137 0.99921
 C165 C 0.00164 -0.27632 0.49974
 N166 N -0.00130 -0.25599 0.46500
 N167 N -0.00148 -0.21618 0.46507
 C168 C 0.00126 -0.19553 0.49989
 N169 N 0.00420 -0.21587 0.53463
 N170 N 0.00439 -0.25568 0.53456
 C171 C 0.00170 -0.31914 0.49972
 C172 C 0.00170 -0.35514 0.49985
 C173 C 0.00096 -0.15269 0.50000
 C174 C 0.00067 -0.11670 0.50014
 C175 C -0.00288 0.27566 0.50056
 N176 N 0.01028 0.25547 0.53299
 N177 N 0.01056 0.21566 0.53316
 C178 C -0.00231 0.19487 0.50092
 N179 N -0.01547 0.21507 0.46850
 N180 N -0.01575 0.25487 0.46833
 C181 C -0.00307 0.31848 0.50031
 C182 C -0.00318 0.35448 0.50006
 C183 C -0.00190 0.15203 0.50104
 C184 C -0.00155 0.11604 0.50104
 C185 C 0.50048 -0.00108 -0.27641
 N186 N 0.53445 0.00692 -0.25610
 N187 N 0.53450 0.00705 -0.21631
 C188 C 0.50057 -0.00083 -0.19559
 N189 N 0.46659 -0.00883 -0.21591
 N190 N 0.46655 -0.00896 -0.25569
 C191 C 0.50042 -0.00128 -0.31929
 C192 C 0.50032 -0.00148 -0.35532
 C193 C 0.50061 -0.00071 -0.15269
 C194 C 0.50063 -0.00061 -0.11667
 C195 C 0.50082 -0.00099 0.27607
 N196 N 0.50014 0.03407 0.25601
 N197 N 0.50009 0.03431 0.21622
 C198 C 0.50073 -0.00050 0.19526
 N199 N 0.50142 -0.03557 0.21532
 N200 N 0.50146 -0.03581 0.25510
 C201 C 0.50093 -0.00127 0.31895
 C202 C 0.50106 -0.00154 0.35497
 C203 C 0.50071 -0.00027 0.15236
 C204 C 0.50070 -0.00015 0.11635
 C205 C 0.50009 -0.27652 -0.00061
 N206 N 0.46701 -0.25560 -0.01159
 N207 N 0.46710 -0.21579 -0.01156
 C208 C 0.50028 -0.19568 -0.00055
 N209 N 0.53335 -0.21660 0.01044
 N210 N 0.53326 -0.25642 0.01041
 C211 C 0.50001 -0.31939 -0.00074
 C212 C 0.49993 -0.35543 -0.00091
 C213 C 0.50037 -0.15279 -0.00053
 C214 C 0.50046 -0.11677 -0.00049
 C215 C 0.50123 0.27599 -0.00058
 N216 N 0.53544 0.25492 -0.00776
 N217 N 0.53537 0.21511 -0.00753
 C218 C 0.50111 0.19515 -0.00011
 N219 N 0.46690 0.21622 0.00708
 N220 N 0.46696 0.25604 0.00685
 C221 C 0.50130 0.31887 -0.00088
 C222 C 0.50136 0.35489 -0.00115
 C223 C 0.50102 0.15226 0.00004
 C224 C 0.50094 0.11624 0.00010
 C225 C -0.27674 -0.00045 0.50061
 N226 N -0.25590 -0.00806 0.46651
 N227 N -0.21606 -0.00792 0.46652
 C228 C -0.19586 -0.00017 0.50063
 N229 N -0.21670 0.00744 0.53474
 N230 N -0.25655 0.00730 0.53473
 C231 C -0.31961 -0.00072 0.50060
 C232 C -0.35566 -0.00101 0.50051
 C233 C -0.15297 -0.00011 0.50066
 C234 C -0.11693 -0.00011 0.50066
 C235 C 0.27594 -0.00131 0.50103
 N236 N 0.25558 -0.03410 0.51256
 N237 N 0.21574 -0.03393 0.51248
 C238 C 0.19506 -0.00095 0.50087
 N239 N 0.21542 0.03185 0.48933
 N240 N 0.25526 0.03167 0.48941
 C241 C 0.31883 -0.00151 0.50115
 C242 C 0.35487 -0.00172 0.50129
 C243 C 0.15216 -0.00076 0.50080
 C244 C 0.11612 -0.00064 0.50076
 C245 C 0.00059 0.49954 1.27535
 N246 N -0.00294 0.53443 1.25530
 N247 N -0.00318 0.53458 1.21555
 C248 C 0.00010 0.49983 1.19470
 N249 N 0.00364 0.46493 1.21475
 N250 N 0.00387 0.46478 1.25451
 C251 C 0.00085 0.49941 1.31807
 C252 C 0.00106 0.49938 1.35400
 C253 C -0.00009 0.50000 1.15196
 C254 C -0.00023 0.50019 1.11604
 C255 C -0.00192 0.50202 0.72450
 N256 N -0.00293 0.53694 0.74524
 N257 N -0.00261 0.53689 0.78500
 C258 C -0.00126 0.50192 0.80515
 N259 N -0.00025 0.46700 0.78441
 N260 N -0.00057 0.46705 0.74465
 C261 C -0.00227 0.50205 0.68178
 C262 C -0.00256 0.50204 0.64585
 C263 C -0.00097 0.50184 0.84789
 C264 C -0.00077 0.50170 0.88382
   
