data_POSCAR
  _audit_creation_date              2014-09-24
  _audit_creation_method            'ToBaCCo'
  _symmetry_space_group_name_H-M    'P1'
  _symmetry_Int_Tables_number       1
  _symmetry_cell_setting            triclinic
  loop_
  _symmetry_equiv_pos_as_xyz
 x,y,z
_cell_length_a 35.1139
_cell_length_b 35.1136
_cell_length_c 29.7447
_cell_angle_alpha 89.953700
_cell_angle_beta 89.953900
_cell_angle_gamma 89.936800
loop_
  _atom_site_label
  _atom_site_type_symbol
  _atom_site_fract_x
  _atom_site_fract_y
  _atom_site_fract_z
O1 O -0.03689 0.31132 0.04294
 O2 O 0.03783 0.31107 -0.04447
 O3 O -0.03666 0.31107 -0.04461
 O4 O 0.03757 0.31150 0.04312
 O5 O 0.03755 0.24851 0.04333
 O6 O -0.03635 0.24809 -0.04404
 O7 O 0.03779 0.24810 -0.04389
 O8 O -0.03657 0.24834 0.04314
 Cu9 Cu 0.00045 0.31763 -0.00080
 Cu10 Cu 0.00063 0.24193 -0.00033
 C11 C -0.04946 0.27978 0.05759
 C12 C 0.05054 0.27946 -0.05873
 C13 C -0.04917 0.27943 -0.05890
 C14 C 0.05019 0.27999 0.05785
 O15 O 0.53686 0.81076 0.45594
 O16 O 0.46256 0.81106 0.54376
 O17 O 0.53706 0.81075 0.54351
 O18 O 0.46237 0.81083 0.45616
 O19 O 0.46247 0.74785 0.45651
 O20 O 0.53680 0.74777 0.54350
 O21 O 0.46263 0.74807 0.54376
 O22 O 0.53663 0.74778 0.45627
 Cu23 Cu 0.49972 0.81723 0.49983
 Cu24 Cu 0.49962 0.74154 0.50003
 C25 C 0.54941 0.77915 0.44149
 C26 C 0.44993 0.77954 0.55838
 C27 C 0.54966 0.77916 0.55803
 C28 C 0.44971 0.77926 0.44178
 O29 O 1.03852 0.68984 0.04371
 O30 O 0.96395 0.68998 -0.04375
 O31 O 1.03844 0.68996 -0.04390
 O32 O 0.96403 0.68981 0.04382
 O33 O 0.96412 0.75279 0.04372
 O34 O 1.03819 0.75293 -0.04365
 O35 O 0.96403 0.75296 -0.04350
 O36 O 1.03828 0.75282 0.04361
 Cu37 Cu 1.00125 0.68352 -0.00004
 Cu38 Cu 1.00116 0.75919 0.00006
 C39 C 1.05110 0.72139 0.05825
 C40 C 0.95128 0.72157 -0.05818
 C41 C 1.05099 0.72155 -0.05840
 C42 C 0.95139 0.72136 0.05836
 O43 O 0.53703 0.18797 0.54427
 O44 O 0.46281 0.18793 0.45651
 O45 O 0.53728 0.18819 0.45670
 O46 O 0.46255 0.18790 0.54409
 O47 O 0.46253 0.25089 0.54397
 O48 O 0.53690 0.25117 0.45695
 O49 O 0.46278 0.25091 0.45675
 O50 O 0.53666 0.25095 0.54415
 Cu51 Cu 0.49994 0.18161 0.50039
 Cu52 Cu 0.49969 0.25731 0.50046
 C53 C 0.54949 0.21954 0.55881
 C54 C 0.45016 0.21949 0.44201
 C55 C 0.54981 0.21982 0.44227
 C56 C 0.44982 0.21944 0.55858
 O57 O 0.68868 -0.03675 0.04298
 O58 O 0.68888 0.03797 -0.04444
 O59 O 0.68870 -0.03651 -0.04459
 O60 O 0.68868 0.03772 0.04314
 O61 O 0.75166 0.03741 0.04301
 O62 O 0.75168 -0.03649 -0.04436
 O63 O 0.75185 0.03764 -0.04420
 O64 O 0.75166 -0.03671 0.04284
 Cu65 Cu 0.68234 0.00062 -0.00074
 Cu66 Cu 0.75804 0.00045 -0.00068
 C67 C 0.72022 -0.04945 0.05747
 C68 C 0.72049 0.05053 -0.05888
 C69 C 0.72028 -0.04915 -0.05908
 C70 C 0.72025 0.05020 0.05769
 O71 O 0.18904 0.46293 0.54466
 O72 O 0.18887 0.53724 0.45684
 O73 O 0.18916 0.46275 0.45709
 O74 O 0.18899 0.53744 0.54445
 O75 O 0.25197 0.53733 0.54421
 O76 O 0.25214 0.46300 0.45721
 O77 O 0.25185 0.53716 0.45695
 O78 O 0.25202 0.46315 0.54444
 Cu79 Cu 0.18263 0.50009 0.50077
 Cu80 Cu 0.25832 0.50017 0.50070
 C81 C 0.22063 0.45037 0.55916
 C82 C 0.22040 0.54984 0.44225
 C83 C 0.22077 0.45016 0.44260
 C84 C 0.22054 0.55010 0.55888
 O85 O 0.30996 0.96267 -0.04515
 O86 O 0.31020 1.03726 0.04230
 O87 O 0.31028 0.96278 0.04243
 O88 O 0.30993 1.03720 -0.04528
 O89 O 0.24696 1.03705 -0.04476
 O90 O 0.24730 0.96297 0.04260
 O91 O 0.24722 1.03712 0.04247
 O92 O 0.24699 0.96287 -0.04463
 Cu93 Cu 0.31647 0.99998 -0.00147
 Cu94 Cu 0.24080 1.00001 -0.00105
 C95 C 0.27835 0.95004 -0.05944
 C96 C 0.27866 1.04989 0.05696
 C97 C 0.27877 0.95021 0.05713
 C98 C 0.27830 1.04983 -0.05961
 O99 O 0.81204 0.53685 0.54407
 O100 O 0.81185 0.46263 0.45633
 O101 O 0.81195 0.53710 0.45650
 O102 O 0.81173 0.46236 0.54388
 O103 O 0.74875 0.46278 0.54374
 O104 O 0.74897 0.53715 0.45674
 O105 O 0.74886 0.46303 0.45655
 O106 O 0.74905 0.53692 0.54394
 Cu107 Cu 0.81828 0.49972 0.50020
 Cu108 Cu 0.74258 0.50000 0.50025
 C109 C 0.78050 0.54953 0.55861
 C110 C 0.78025 0.45019 0.44183
 C111 C 0.78040 0.54984 0.44206
 C112 C 0.78011 0.44983 0.55834
 O113 O 0.22192 0.27377 0.30762
 O114 O 0.24244 0.19030 0.23656
 O115 O 0.27399 0.22122 0.30722
 O116 O 0.19042 0.24285 0.23696
 O117 O 0.22629 0.27863 0.19276
 O118 O 0.30986 0.25699 0.26301
 O119 O 0.27831 0.22607 0.19235
 O120 O 0.25780 0.30954 0.26342
 Cu121 Cu 0.22858 0.22843 0.27655
 Cu122 Cu 0.27169 0.27141 0.22343
 C123 C 0.23668 0.30566 0.29774
 C124 C 0.26353 0.19418 0.20221
 C125 C 0.30595 0.23576 0.29722
 C126 C 0.19433 0.26409 0.20275
 O127 O 0.69061 0.74243 0.26271
 O128 O 0.77460 0.72196 0.19248
 O129 O 0.74324 0.69046 0.26297
 O130 O 0.72197 0.77394 0.19220
 O131 O 0.75736 0.80993 0.23657
 O132 O 0.77863 0.72645 0.30734
 O133 O 0.80998 0.75795 0.23684
 O134 O 0.72600 0.77841 0.30707
 Cu135 Cu 0.72903 0.72857 0.22311
 Cu136 Cu 0.77156 0.77182 0.27643
 C137 C 0.69421 0.76358 0.29699
 C138 C 0.80639 0.73678 0.20257
 C139 C 0.76424 0.69444 0.29734
 C140 C 0.73636 0.80595 0.20220
 O141 O 0.80980 0.24265 0.23651
 O142 O 0.72634 0.22170 0.30742
 O143 O 0.75752 0.19045 0.23669
 O144 O 0.77860 0.27394 0.30719
 O145 O 0.74272 0.30980 0.26307
 O146 O 0.72164 0.22631 0.19258
 O147 O 0.69046 0.25756 0.26330
 O148 O 0.77392 0.27850 0.19238
 Cu149 Cu 0.77169 0.22856 0.27640
 Cu150 Cu 0.72856 0.27166 0.22338
 C151 C 0.80588 0.26383 0.20225
 C152 C 0.69439 0.23637 0.29756
 C153 C 0.73630 0.19436 0.20250
 C154 C 0.76395 0.30588 0.29725
 O155 O 0.27325 0.77817 0.30696
 O156 O 0.18976 0.75741 0.23614
 O157 O 0.22099 0.72595 0.30682
 O158 O 0.24204 0.80961 0.23632
 O159 O 0.27792 0.77384 0.19209
 O160 O 0.25686 0.69018 0.26260
 O161 O 0.22564 0.72165 0.19192
 O162 O 0.30912 0.74241 0.26273
 Cu163 Cu 0.22789 0.77138 0.27602
 Cu164 Cu 0.27099 0.72840 0.22288
 C165 C 0.30520 0.76351 0.29703
 C166 C 0.19369 0.73635 0.20181
 C167 C 0.23570 0.69403 0.29688
 C168 C 0.26324 0.80576 0.20206
 O169 O 0.69028 0.25666 0.73737
 O170 O 0.77408 0.27758 0.80744
 O171 O 0.74257 0.30887 0.73698
 O172 O 0.72177 0.22539 0.80792
 O173 O 0.75742 0.18949 0.76358
 O174 O 0.77821 0.27298 0.69264
 O175 O 0.80972 0.24168 0.76309
 O176 O 0.72593 0.22076 0.69304
 Cu177 Cu 0.72857 0.27074 0.77690
 Cu178 Cu 0.77141 0.22760 0.72361
 C179 C 0.69404 0.23547 0.70314
 C180 C 0.80597 0.26290 0.79731
 C181 C 0.76364 0.30495 0.70263
 C182 C 0.73637 0.19343 0.79796
 O183 O 0.30927 0.74336 0.73770
 O184 O 0.22560 0.72247 0.80823
 O185 O 0.25708 0.69106 0.73772
 O186 O 0.27770 0.77486 0.80812
 O187 O 0.24193 0.81052 0.76366
 O188 O 0.22130 0.72673 0.69329
 O189 O 0.18981 0.75814 0.76380
 O190 O 0.27350 0.77902 0.69325
 Cu191 Cu 0.27102 0.72934 0.77742
 Cu192 Cu 0.22803 0.77220 0.72402
 C193 C 0.30543 0.76441 0.70332
 C194 C 0.19366 0.73708 0.79817
 C195 C 0.23601 0.69484 0.70337
 C196 C 0.26299 0.80675 0.79802
 O197 O 0.18962 0.24229 0.76393
 O198 O 0.27315 0.22107 0.69320
 O199 O 0.24161 0.18967 0.76365
 O200 O 0.22118 0.27370 0.69347
 O201 O 0.25714 0.30907 0.73790
 O202 O 0.27756 0.22503 0.80808
 O203 O 0.30910 0.25644 0.73763
 O204 O 0.22557 0.27765 0.80835
 Cu205 Cu 0.22776 0.22812 0.72408
 Cu206 Cu 0.27097 0.27061 0.77747
 C207 C 0.19357 0.26326 0.79831
 C208 C 0.30515 0.23546 0.70324
 C209 C 0.26275 0.19324 0.79794
 C210 C 0.23601 0.30549 0.70359
 O211 O 0.74343 0.69043 0.73712
 O212 O 0.72206 0.77428 0.80702
 O213 O 0.69088 0.74250 0.73671
 O214 O 0.77462 0.72224 0.80742
 O215 O 0.81023 0.75794 0.76284
 O216 O 0.72649 0.77820 0.69213
 O217 O 0.75766 0.80998 0.76244
 O218 O 0.77903 0.72613 0.69253
 Cu219 Cu 0.72916 0.72876 0.77656
 Cu220 Cu 0.77195 0.77166 0.72299
 C221 C 0.76454 0.69421 0.70279
 C222 C 0.73654 0.80620 0.79677
 C223 C 0.69462 0.76349 0.70226
 C224 C 0.80648 0.73697 0.79731
 C225 C 0.27827 0.07970 0.08994
 C226 C 0.27673 0.10527 0.11692
 C227 C 0.27355 0.13576 0.14763
 C228 C 0.26964 0.16221 0.17303
 C229 C 0.78007 0.57930 0.59157
 C230 C 0.77846 0.60490 0.61845
 C231 C 0.77510 0.63549 0.64892
 C232 C 0.77097 0.66208 0.67404
 C233 C 0.72068 0.92067 0.09038
 C234 C 0.72235 0.89504 0.11729
 C235 C 0.72577 0.86448 0.14788
 C236 C 0.72992 0.83796 0.17318
 C237 C 0.22115 0.42055 0.59214
 C238 C 0.22275 0.39492 0.61905
 C239 C 0.22598 0.36429 0.64957
 C240 C 0.22990 0.33767 0.67476
 C241 C 0.92064 0.27934 0.09048
 C242 C 0.89499 0.27769 0.11736
 C243 C 0.86441 0.27430 0.14792
 C244 C 0.83788 0.27019 0.17321
 C245 C 0.42015 0.77919 0.59141
 C246 C 0.39457 0.77769 0.61838
 C247 C 0.36402 0.77453 0.64902
 C248 C 0.33749 0.77061 0.67432
 C249 C 0.07931 0.72178 0.08944
 C250 C 0.10484 0.72324 0.11648
 C251 C 0.13529 0.72635 0.14724
 C252 C 0.16173 0.73023 0.17266
 C253 C 0.57925 0.22005 0.59179
 C254 C 0.60483 0.22171 0.61869
 C255 C 0.63538 0.22507 0.64919
 C256 C 0.66194 0.22915 0.67435
 C257 C 0.72102 0.07881 0.90998
 C258 C 0.72266 0.10441 0.88302
 C259 C 0.72601 0.13493 0.85237
 C260 C 0.73008 0.16143 0.82703
 C261 C 0.22080 0.57956 0.40914
 C262 C 0.22233 0.60507 0.38207
 C263 C 0.22552 0.63553 0.35132
 C264 C 0.22947 0.66201 0.32593
 C265 C 0.27783 0.92173 0.90950
 C266 C 0.27628 0.89607 0.88264
 C267 C 0.27307 0.86545 0.85213
 C268 C 0.26914 0.83887 0.82692
 C269 C 0.77968 0.42045 0.40885
 C270 C 0.77796 0.39490 0.38193
 C271 C 0.77452 0.36439 0.35137
 C272 C 0.77036 0.33789 0.32615
 C273 C 0.07884 0.27890 0.91015
 C274 C 0.10446 0.27723 0.88322
 C275 C 0.13502 0.27382 0.85261
 C276 C 0.16154 0.26968 0.82732
 C277 C 0.57921 0.77858 0.40849
 C278 C 0.60483 0.77694 0.38158
 C279 C 0.63543 0.77367 0.35103
 C280 C 0.66204 0.76972 0.32584
 C281 C 0.92140 0.72210 0.90894
 C282 C 0.89575 0.72372 0.88208
 C283 C 0.86514 0.72697 0.85154
 C284 C 0.83858 0.73089 0.82629
 C285 C 0.42045 0.21997 0.40898
 C286 C 0.39493 0.22164 0.38200
 C287 C 0.36445 0.22506 0.35138
 C288 C 0.33796 0.22924 0.32612
 C289 C 0.72078 0.92109 0.90796
 C290 C 0.72247 0.89549 0.88108
 C291 C 0.72590 0.86492 0.85061
 C292 C 0.73008 0.83834 0.82549
 C293 C 0.22134 0.42030 0.40970
 C294 C 0.22304 0.39468 0.38279
 C295 C 0.22641 0.36415 0.35217
 C296 C 0.23045 0.33766 0.32684
 C297 C 0.27775 0.07810 0.90926
 C298 C 0.27615 0.10375 0.88237
 C299 C 0.27288 0.13440 0.85188
 C300 C 0.26891 0.16104 0.82674
 C301 C 0.77995 0.57972 0.40914
 C302 C 0.77828 0.60535 0.38224
 C303 C 0.77485 0.63591 0.35164
 C304 C 0.77069 0.66243 0.32635
 C305 C 0.07915 0.72204 0.91034
 C306 C 0.10467 0.72360 0.88327
 C307 C 0.13514 0.72685 0.85254
 C308 C 0.16163 0.73084 0.82719
 C309 C 0.57969 0.22045 0.40936
 C310 C 0.60532 0.22224 0.38246
 C311 C 0.63588 0.22576 0.35188
 C312 C 0.66238 0.22996 0.32659
 C313 C 0.92101 0.27878 0.90821
 C314 C 0.89536 0.27700 0.88142
 C315 C 0.86473 0.27350 0.85105
 C316 C 0.83811 0.26931 0.82600
 C317 C 0.41985 0.77878 0.40888
 C318 C 0.39423 0.77714 0.38198
 C319 C 0.36370 0.77381 0.35138
 C320 C 0.33720 0.76977 0.32607
 C321 C 0.27840 0.92043 0.09015
 C322 C 0.27685 0.89485 0.11713
 C323 C 0.27358 0.86433 0.14778
 C324 C 0.26955 0.83781 0.17308
 C325 C 0.77950 0.41989 0.59117
 C326 C 0.77772 0.39419 0.61798
 C327 C 0.77422 0.36356 0.64845
 C328 C 0.77003 0.33699 0.67366
 C329 C 0.72073 0.07991 0.09071
 C330 C 0.72240 0.10544 0.11768
 C331 C 0.72579 0.13590 0.14829
 C332 C 0.72992 0.16238 0.17356
 C333 C 0.22098 0.57998 0.59177
 C334 C 0.22258 0.60561 0.61865
 C335 C 0.22585 0.63619 0.64921
 C336 C 0.22983 0.66274 0.67445
 C337 C 0.92153 0.72179 0.09128
 C338 C 0.89586 0.72338 0.11814
 C339 C 0.86521 0.72663 0.14861
 C340 C 0.83858 0.73060 0.17376
 C341 C 0.41993 0.21986 0.59149
 C342 C 0.39428 0.22151 0.61838
 C343 C 0.36371 0.22491 0.64896
 C344 C 0.33718 0.22904 0.67424
 C345 C 0.07988 0.27965 0.09090
 C346 C 0.10540 0.27807 0.11790
 C347 C 0.13586 0.27472 0.14854
 C348 C 0.16233 0.27058 0.17383
 C349 C 0.57959 0.77862 0.59085
 C350 C 0.60528 0.77695 0.61766
 C351 C 0.63592 0.77363 0.64813
 C352 C 0.66251 0.76964 0.67332
   
