data_POSCAR
  _audit_creation_date              2014-09-24
  _audit_creation_method            'ToBaCCo'
  _symmetry_space_group_name_H-M    'P1'
  _symmetry_Int_Tables_number       1
  _symmetry_cell_setting            triclinic
  loop_
  _symmetry_equiv_pos_as_xyz
 x,y,z
_cell_length_a 55.7816
_cell_length_b 55.5541
_cell_length_c 58.1125
_cell_angle_alpha 89.986300
_cell_angle_beta 89.985200
_cell_angle_gamma 90.067400
loop_
  _atom_site_label
  _atom_site_type_symbol
  _atom_site_fract_x
  _atom_site_fract_y
  _atom_site_fract_z
C1 C 0.05072 0.30295 -0.02148
 C2 C 0.06298 0.30278 -0.00051
 C3 C 0.05060 0.30296 0.02038
 C4 C 0.02528 0.30344 0.02055
 C5 C 0.01259 0.30365 -0.00061
 C6 C 0.02535 0.30343 -0.02175
 C7 C 0.01238 0.30351 -0.04252
 C8 C -0.01257 0.30363 -0.04253
 C9 C -0.02559 0.30367 -0.02177
 C10 C -0.01289 0.30376 -0.00061
 C11 C 0.01232 0.30353 0.04131
 C12 C -0.01263 0.30364 0.04131
 C13 C -0.02562 0.30366 0.02055
 C14 C -0.05099 0.30341 0.02033
 C15 C -0.06329 0.30336 -0.00062
 C16 C -0.05096 0.30343 -0.02156
 H17 H 0.02145 0.30341 -0.05899
 H18 H -0.02161 0.30362 -0.05902
 H19 H 0.02139 0.30345 0.05778
 H20 H -0.02168 0.30364 0.05780
 H21 H 0.08244 0.30218 -0.00039
 H22 H -0.08278 0.30295 -0.00063
 C23 C 0.44864 0.80701 0.52090
 C24 C 0.43641 0.80696 0.49993
 C25 C 0.44880 0.80699 0.47905
 C26 C 0.47413 0.80722 0.47891
 C27 C 0.48676 0.80727 0.50010
 C28 C 0.47397 0.80718 0.52121
 C29 C 0.48684 0.80705 0.54202
 C30 C 0.51181 0.80683 0.54210
 C31 C 0.52484 0.80675 0.52138
 C32 C 0.51221 0.80708 0.50019
 C33 C 0.48716 0.80718 0.45819
 C34 C 0.51213 0.80703 0.45827
 C35 C 0.52500 0.80689 0.47908
 C36 C 0.55033 0.80635 0.47939
 C37 C 0.56256 0.80603 0.50036
 C38 C 0.55017 0.80615 0.52125
 H39 H 0.47770 0.80704 0.55845
 H40 H 0.52082 0.80665 0.55860
 H41 H 0.47814 0.80720 0.44169
 H42 H 0.52127 0.80695 0.44184
 H43 H 0.41695 0.80656 0.49987
 H44 H 0.58201 0.80536 0.50042
 C45 C 1.05097 0.69504 -0.01998
 C46 C 1.06319 0.69517 0.00099
 C47 C 1.05077 0.69506 0.02189
 C48 C 1.02539 0.69471 0.02199
 C49 C 1.01281 0.69457 0.00076
 C50 C 1.02565 0.69472 -0.02032
 C51 C 1.01283 0.69474 -0.04116
 C52 C 0.98787 0.69480 -0.04131
 C53 C 0.97479 0.69482 -0.02063
 C54 C 0.98735 0.69460 0.00060
 C55 C 1.01225 0.69468 0.04268
 C56 C 0.98728 0.69469 0.04251
 C57 C 0.97449 0.69474 0.02166
 C58 C 0.94916 0.69513 0.02128
 C59 C 0.93699 0.69534 0.00028
 C60 C 0.94945 0.69526 -0.02057
 H61 H 1.02201 0.69480 -0.05758
 H62 H 0.97890 0.69490 -0.05783
 H63 H 1.02118 0.69472 0.05922
 H64 H 0.97808 0.69474 0.05891
 H65 H 1.08266 0.69566 0.00100
 H66 H 0.91754 0.69589 0.00016
 C67 C 0.44960 0.19499 0.47908
 C68 C 0.43732 0.19514 0.50003
 C69 C 0.44967 0.19498 0.52094
 C70 C 0.47501 0.19455 0.52111
 C71 C 0.48768 0.19440 0.49993
 C72 C 0.47493 0.19460 0.47881
 C73 C 0.48785 0.19461 0.45802
 C74 C 0.51281 0.19459 0.45797
 C75 C 0.52580 0.19454 0.47871
 C76 C 0.51313 0.19434 0.49988
 C77 C 0.48800 0.19447 0.54185
 C78 C 0.51296 0.19440 0.54180
 C79 C 0.52588 0.19442 0.52100
 C80 C 0.55121 0.19472 0.52073
 C81 C 0.56349 0.19490 0.49978
 C82 C 0.55113 0.19487 0.47888
 H83 H 0.47873 0.19472 0.44157
 H84 H 0.52186 0.19468 0.44149
 H85 H 0.47894 0.19452 0.55833
 H86 H 0.52207 0.19441 0.55824
 H87 H 0.41787 0.19568 0.50007
 H88 H 0.58294 0.19537 0.49975
 C89 C 0.69318 0.05054 0.02031
 C90 C 0.69340 0.06290 -0.00062
 C91 C 0.69336 0.05053 -0.02156
 C92 C 0.69296 0.02505 -0.02175
 C93 C 0.69274 0.01231 -0.00057
 C94 C 0.69282 0.02511 0.02055
 C95 C 0.69274 0.01217 0.04135
 C96 C 0.69278 -0.01288 0.04142
 C97 C 0.69288 -0.02599 0.02069
 C98 C 0.69276 -0.01328 -0.00050
 C99 C 0.69299 0.01197 -0.04248
 C100 C 0.69299 -0.01308 -0.04242
 C101 C 0.69298 -0.02609 -0.02163
 C102 C 0.69339 -0.05157 -0.02135
 C103 C 0.69349 -0.06388 -0.00038
 C104 C 0.69330 -0.05147 0.02054
 H105 H 0.69273 0.02132 0.05779
 H106 H 0.69280 -0.02193 0.05793
 H107 H 0.69308 0.02103 -0.05898
 H108 H 0.69308 -0.02220 -0.05889
 H109 H 0.69393 0.08245 -0.00055
 H110 H 0.69404 -0.08344 -0.00033
 C111 C 0.19288 0.44858 0.52075
 C112 C 0.19299 0.43641 0.49972
 C113 C 0.19294 0.44898 0.47890
 C114 C 0.19262 0.47442 0.47890
 C115 C 0.19249 0.48697 0.50016
 C116 C 0.19262 0.47401 0.52120
 C117 C 0.19270 0.48681 0.54208
 C118 C 0.19284 0.51188 0.54230
 C119 C 0.19287 0.52508 0.52165
 C120 C 0.19258 0.51253 0.50039
 C121 C 0.19262 0.48763 0.45825
 C122 C 0.19266 0.51269 0.45847
 C123 C 0.19274 0.52550 0.47935
 C124 C 0.19318 0.55093 0.47980
 C125 C 0.19345 0.56309 0.50083
 C126 C 0.19338 0.55052 0.52165
 H127 H 0.19274 0.47753 0.55846
 H128 H 0.19298 0.52083 0.55884
 H129 H 0.19265 0.47867 0.44171
 H130 H 0.19272 0.52197 0.44209
 H131 H 0.19346 0.41688 0.49956
 H132 H 0.19406 0.58262 0.50100
 C133 C 0.30769 1.05173 0.02083
 C134 C 0.30765 1.06412 -0.00010
 C135 C 0.30772 1.05178 -0.02105
 C136 C 0.30796 1.02631 -0.02130
 C137 C 0.30804 1.01351 -0.00016
 C138 C 0.30793 1.02625 0.02102
 C139 C 0.30788 1.01316 0.04177
 C140 C 0.30775 0.98810 0.04172
 C141 C 0.30766 0.97514 0.02095
 C142 C 0.30790 0.98793 -0.00019
 C143 C 0.30792 1.01329 -0.04208
 C144 C 0.30777 0.98824 -0.04211
 C145 C 0.30766 0.97517 -0.02136
 C146 C 0.30712 0.94969 -0.02114
 C147 C 0.30693 0.93734 -0.00018
 C148 C 0.30715 0.94972 0.02073
 H149 H 0.30787 1.02221 0.05826
 H150 H 0.30764 0.97896 0.05818
 H151 H 0.30793 1.02239 -0.05855
 H152 H 0.30767 0.97916 -0.05859
 H153 H 0.30723 1.08368 -0.00008
 H154 H 0.30629 0.91779 -0.00009
 C155 C 0.80726 0.55090 0.52076
 C156 C 0.80702 0.56328 0.49984
 C157 C 0.80720 0.55094 0.47891
 C158 C 0.80777 0.52551 0.47866
 C159 C 0.80804 0.51273 0.49981
 C160 C 0.80780 0.52547 0.52096
 C161 C 0.80791 0.51244 0.54172
 C162 C 0.80806 0.48737 0.54170
 C163 C 0.80812 0.47439 0.52093
 C164 C 0.80821 0.48717 0.49979
 C165 C 0.80786 0.51253 0.45789
 C166 C 0.80805 0.48746 0.45788
 C167 C 0.80814 0.47444 0.47863
 C168 C 0.80794 0.44900 0.47884
 C169 C 0.80786 0.43661 0.49976
 C170 C 0.80789 0.44895 0.52069
 H171 H 0.80779 0.52154 0.55819
 H172 H 0.80805 0.47824 0.55816
 H173 H 0.80772 0.52167 0.44143
 H174 H 0.80804 0.47836 0.44140
 H175 H 0.80635 0.58281 0.49986
 H176 H 0.80745 0.41707 0.49974
 O177 O 0.24092 0.27309 0.22086
 O178 O 0.28716 0.25364 0.26207
 O179 O 0.27392 0.24012 0.22096
 O180 O 0.25416 0.28660 0.26197
 O181 O 0.22853 0.26078 0.27732
 O182 O 0.24829 0.21431 0.23631
 O183 O 0.26153 0.22782 0.27742
 O184 O 0.21529 0.24727 0.23621
 Cu185 Cu 0.26663 0.26597 0.23992
 Cu186 Cu 0.23583 0.23494 0.25836
 C187 C 0.22036 0.26334 0.22148
 C188 C 0.28210 0.23757 0.27680
 C189 C 0.26432 0.21942 0.22160
 C190 C 0.23813 0.28148 0.27667
 O191 O 0.75228 0.78700 0.23706
 O192 O 0.77174 0.74056 0.27825
 O193 O 0.78529 0.75407 0.23723
 O194 O 0.73874 0.77353 0.27811
 O195 O 0.71323 0.74769 0.26264
 O196 O 0.75978 0.72822 0.22175
 O197 O 0.74623 0.71472 0.26277
 O198 O 0.72677 0.76116 0.22159
 Cu199 Cu 0.76458 0.76640 0.25923
 Cu200 Cu 0.73392 0.73534 0.24063
 C201 C 0.73636 0.78187 0.22226
 C202 C 0.76217 0.71985 0.27755
 C203 C 0.78034 0.73797 0.22249
 C204 C 0.71818 0.76377 0.27738
 O205 O 0.78669 0.24634 0.23656
 O206 O 0.74013 0.22752 0.27780
 O207 O 0.75334 0.21367 0.23679
 O208 O 0.77349 0.26019 0.27759
 O209 O 0.74818 0.28614 0.26207
 O210 O 0.72803 0.23962 0.22126
 O211 O 0.71482 0.25347 0.26227
 O212 O 0.76138 0.27229 0.22104
 Cu213 Cu 0.76597 0.23432 0.25875
 Cu214 Cu 0.73555 0.26550 0.24009
 C215 C 0.78183 0.26237 0.22173
 C216 C 0.71966 0.23744 0.27709
 C217 C 0.73740 0.21884 0.22204
 C218 C 0.76411 0.28096 0.27683
 O219 O 0.25185 0.71452 0.26306
 O220 O 0.27158 0.76099 0.22199
 O221 O 0.28503 0.74738 0.26299
 O222 O 0.23840 0.72813 0.22204
 O223 O 0.21300 0.75401 0.23756
 O224 O 0.25964 0.77325 0.27852
 O225 O 0.24619 0.78687 0.23751
 O226 O 0.22646 0.74039 0.27859
 Cu227 Cu 0.26427 0.73514 0.24095
 Cu228 Cu 0.23376 0.76624 0.25961
 C229 C 0.23595 0.71967 0.27787
 C230 C 0.26211 0.78172 0.22272
 C231 C 0.28015 0.76345 0.27776
 C232 C 0.21789 0.73794 0.22278
 O233 O 0.77330 0.25945 0.72163
 O234 O 0.75365 0.21289 0.76267
 O235 O 0.74015 0.22657 0.72169
 O236 O 0.78682 0.24576 0.76260
 O237 O 0.76143 0.27160 0.77820
 O238 O 0.71476 0.25240 0.73729
 O239 O 0.72827 0.23873 0.77827
 O240 O 0.74792 0.28528 0.73722
 Cu241 Cu 0.76604 0.23356 0.74057
 Cu242 Cu 0.73554 0.26461 0.75932
 C243 C 0.76381 0.28017 0.72239
 C244 C 0.73776 0.21800 0.77750
 C245 C 0.71963 0.23636 0.72248
 C246 C 0.78195 0.26180 0.77741
 O247 O 0.28537 0.74830 0.73736
 O248 O 0.23894 0.72872 0.77837
 O249 O 0.25222 0.71540 0.73722
 O250 O 0.27205 0.76164 0.77849
 O251 O 0.24656 0.78758 0.76321
 O252 O 0.22673 0.74134 0.72195
 O253 O 0.21345 0.75465 0.76310
 O254 O 0.25989 0.77423 0.72208
 Cu255 Cu 0.26472 0.73590 0.75940
 Cu256 Cu 0.23409 0.76707 0.74104
 C257 C 0.28042 0.76446 0.72270
 C258 C 0.21842 0.73850 0.77777
 C259 C 0.23624 0.72062 0.72252
 C260 C 0.26253 0.78236 0.77792
 O261 O 0.25229 0.28553 0.73745
 O262 O 0.27251 0.23925 0.77844
 O263 O 0.28575 0.25305 0.73740
 O264 O 0.23901 0.27169 0.77847
 O265 O 0.21384 0.24554 0.76296
 O266 O 0.26058 0.22690 0.72190
 O267 O 0.24734 0.21310 0.76293
 O268 O 0.22712 0.25938 0.72193
 Cu269 Cu 0.26493 0.26502 0.75950
 Cu270 Cu 0.23468 0.23359 0.74086
 C271 C 0.23642 0.28021 0.72266
 C272 C 0.26322 0.21841 0.77770
 C273 C 0.28100 0.23694 0.72262
 C274 C 0.21859 0.26164 0.77775
 O275 O 0.78421 0.75187 0.76411
 O276 O 0.73789 0.77119 0.72291
 O277 O 0.75090 0.78450 0.76416
 O278 O 0.77119 0.73853 0.72289
 O279 O 0.74576 0.71235 0.73800
 O280 O 0.72547 0.75833 0.77927
 O281 O 0.71246 0.74501 0.73802
 O282 O 0.75879 0.72570 0.77923
 Cu283 Cu 0.76361 0.76416 0.74199
 Cu284 Cu 0.73305 0.73271 0.76015
 C285 C 0.77927 0.73565 0.77873
 C286 C 0.71741 0.76125 0.72341
 C287 C 0.73488 0.77912 0.77878
 C288 C 0.76179 0.71773 0.72338
 C289 C 0.30666 0.06500 0.04063
 C290 C 0.30539 0.07705 0.05784
 C291 C 0.30336 0.09184 0.07807
 C292 C 0.29399 0.08226 0.09845
 C293 C 0.29082 0.09702 0.11771
 C294 C 0.29696 0.12158 0.11679
 C295 C 0.30673 0.13092 0.09632
 C296 C 0.30988 0.11614 0.07710
 C297 C 0.29240 0.13764 0.13676
 C298 C 0.30890 0.15579 0.14272
 C299 C 0.30392 0.17172 0.16074
 C300 C 0.28245 0.16969 0.17304
 C301 C 0.26612 0.15145 0.16750
 C302 C 0.27105 0.13551 0.14951
 C303 C 0.27662 0.18695 0.19064
 C304 C 0.27127 0.20165 0.20500
 H305 H 0.28889 0.06346 0.09938
 H306 H 0.28352 0.08923 0.13330
 H307 H 0.31132 0.14981 0.09494
 H308 H 0.31702 0.12377 0.06136
 H309 H 0.32561 0.15772 0.13342
 H310 H 0.31668 0.18578 0.16487
 H311 H 0.24937 0.14982 0.17682
 H312 H 0.25784 0.12197 0.14515
 C313 C 0.80605 0.56491 0.54166
 C314 C 0.80462 0.57692 0.55888
 C315 C 0.80241 0.59160 0.57915
 C316 C 0.80840 0.61604 0.57822
 C317 C 0.80508 0.63068 0.59752
 C318 C 0.79567 0.62104 0.61802
 C319 C 0.79005 0.59635 0.61889
 C320 C 0.79340 0.58174 0.59956
 C321 C 0.79092 0.63690 0.63808
 C322 C 0.76971 0.63428 0.65095
 C323 C 0.76458 0.65002 0.66904
 C324 C 0.78058 0.66855 0.67456
 C325 C 0.80193 0.67107 0.66214
 C326 C 0.80710 0.65535 0.64402
 C327 C 0.77452 0.68561 0.69225
 C328 C 0.76897 0.70015 0.70669
 H329 H 0.81526 0.62388 0.56246
 H330 H 0.80925 0.64966 0.59618
 H331 H 0.78303 0.58835 0.63450
 H332 H 0.78870 0.56283 0.60045
 H333 H 0.75674 0.62050 0.64660
 H334 H 0.74793 0.64801 0.67845
 H335 H 0.81444 0.68537 0.66626
 H336 H 0.82370 0.65765 0.63462
 C337 C 0.69436 0.93529 0.04036
 C338 C 0.69566 0.92332 0.05763
 C339 C 0.69770 0.90865 0.07794
 C340 C 0.69113 0.88435 0.07715
 C341 C 0.69425 0.86970 0.09647
 C342 C 0.70406 0.87916 0.11687
 C343 C 0.71029 0.90372 0.11760
 C344 C 0.70713 0.91835 0.09824
 C345 C 0.70858 0.86325 0.13695
 C346 C 0.72995 0.86539 0.14965
 C347 C 0.73485 0.84956 0.16775
 C348 C 0.71845 0.83143 0.17345
 C349 C 0.69695 0.82941 0.16120
 C350 C 0.69202 0.84521 0.14307
 C351 C 0.72423 0.81426 0.19115
 C352 C 0.72952 0.79961 0.20558
 H353 H 0.68396 0.87663 0.06147
 H354 H 0.68962 0.85081 0.09524
 H355 H 0.71762 0.91159 0.13312
 H356 H 0.71228 0.93714 0.09903
 H357 H 0.74321 0.87885 0.14517
 H358 H 0.75162 0.85120 0.17703
 H359 H 0.68414 0.81542 0.16545
 H360 H 0.67529 0.84329 0.13381
 C361 C 0.19389 0.43433 0.54153
 C362 C 0.19515 0.42215 0.55866
 C363 C 0.19715 0.40730 0.57884
 C364 C 0.19155 0.38278 0.57759
 C365 C 0.19464 0.36801 0.59683
 C366 C 0.20344 0.37758 0.61760
 C367 C 0.20867 0.40234 0.61879
 C368 C 0.20555 0.41709 0.59952
 C369 C 0.20795 0.36159 0.63763
 C370 C 0.22883 0.36440 0.65095
 C371 C 0.23378 0.34854 0.66900
 C372 C 0.21793 0.32972 0.67404
 C373 C 0.19690 0.32703 0.66116
 C374 C 0.19191 0.34286 0.64308
 C375 C 0.22386 0.31255 0.69167
 C376 C 0.22932 0.29791 0.70605
 H377 H 0.18517 0.37500 0.56163
 H378 H 0.19078 0.34898 0.59526
 H379 H 0.21520 0.41029 0.63461
 H380 H 0.20993 0.43606 0.60066
 H381 H 0.24170 0.37841 0.64699
 H382 H 0.25019 0.35069 0.67877
 H383 H 0.18451 0.31251 0.66490
 H384 H 0.17556 0.34042 0.63332
 C385 C 0.93576 0.30245 0.04012
 C386 C 0.92375 0.30125 0.05734
 C387 C 0.90905 0.29934 0.07761
 C388 C 0.88505 0.30659 0.07686
 C389 C 0.87035 0.30362 0.09613
 C390 C 0.87945 0.29328 0.11643
 C391 C 0.90371 0.28637 0.11712
 C392 C 0.91840 0.28938 0.09782
 C393 C 0.86345 0.28894 0.13645
 C394 C 0.86496 0.26730 0.14895
 C395 C 0.84907 0.26263 0.16702
 C396 C 0.83151 0.27951 0.17289
 C397 C 0.83011 0.30127 0.16082
 C398 C 0.84597 0.30598 0.14273
 C399 C 0.81429 0.27400 0.19058
 C400 C 0.79961 0.26894 0.20503
 H401 H 0.87760 0.31420 0.06125
 H402 H 0.85168 0.30880 0.09492
 H403 H 0.91131 0.27862 0.13258
 H404 H 0.93696 0.28370 0.09858
 H405 H 0.87797 0.25368 0.14435
 H406 H 0.85022 0.24566 0.17615
 H407 H 0.81657 0.31446 0.16521
 H408 H 0.84455 0.32292 0.13362
 C409 C 0.43456 0.80604 0.54175
 C410 C 0.42249 0.80482 0.55892
 C411 C 0.40772 0.80289 0.57913
 C412 C 0.38351 0.80933 0.57809
 C413 C 0.36877 0.80629 0.59733
 C414 C 0.37807 0.79671 0.61789
 C415 C 0.40254 0.79063 0.61887
 C416 C 0.41726 0.79370 0.59960
 C417 C 0.36208 0.79226 0.63788
 C418 C 0.36418 0.77092 0.65077
 C419 C 0.34828 0.76606 0.66878
 C420 C 0.33011 0.78246 0.67419
 C421 C 0.32813 0.80394 0.66176
 C422 C 0.34401 0.80884 0.64373
 C423 C 0.31287 0.77668 0.69177
 C424 C 0.29817 0.77136 0.70611
 H425 H 0.37592 0.81632 0.56229
 H426 H 0.34995 0.81081 0.59591
 H427 H 0.41028 0.78348 0.63452
 H428 H 0.43598 0.78866 0.60058
 H429 H 0.37767 0.75765 0.64651
 H430 H 0.34988 0.74931 0.67820
 H431 H 0.31412 0.81676 0.66580
 H432 H 0.34213 0.82555 0.63431
 C433 C 0.06391 0.69611 0.04174
 C434 C 0.07585 0.69740 0.05899
 C435 C 0.09051 0.69944 0.07926
 C436 C 0.08116 0.70959 0.09938
 C437 C 0.09584 0.71277 0.11866
 C438 C 0.12009 0.70584 0.11803
 C439 C 0.12920 0.69528 0.09783
 C440 C 0.11450 0.69214 0.07859
 C441 C 0.13610 0.71038 0.13800
 C442 C 0.15357 0.69341 0.14444
 C443 C 0.16946 0.69832 0.16245
 C444 C 0.16809 0.72023 0.17427
 C445 C 0.15053 0.73705 0.16825
 C446 C 0.13461 0.73217 0.15027
 C447 C 0.18535 0.72594 0.19186
 C448 C 0.20007 0.73118 0.20620
 H449 H 0.06261 0.71531 0.10009
 H450 H 0.08823 0.72068 0.13404
 H451 H 0.14786 0.69008 0.09667
 H452 H 0.12195 0.68438 0.06305
 H453 H 0.15498 0.67636 0.13552
 H454 H 0.18301 0.68518 0.16696
 H455 H 0.14940 0.75412 0.17719
 H456 H 0.12160 0.74574 0.14553
 C457 C 0.56525 0.19567 0.54160
 C458 C 0.57730 0.19686 0.55878
 C459 C 0.59206 0.19875 0.57899
 C460 C 0.58262 0.20820 0.59939
 C461 C 0.59734 0.21121 0.61865
 C462 C 0.62173 0.20481 0.61774
 C463 C 0.63093 0.19497 0.59725
 C464 C 0.61619 0.19199 0.57802
 C465 C 0.63775 0.20918 0.63772
 C466 C 0.65560 0.19241 0.64368
 C467 C 0.67151 0.19721 0.66170
 C468 C 0.66978 0.21878 0.67401
 C469 C 0.65184 0.23538 0.66848
 C470 C 0.63591 0.23062 0.65048
 C471 C 0.68706 0.22443 0.69159
 C472 C 0.70180 0.22962 0.70592
 H473 H 0.56395 0.21350 0.60032
 H474 H 0.58967 0.21857 0.63425
 H475 H 0.64969 0.19019 0.59587
 H476 H 0.62371 0.18479 0.56227
 H477 H 0.65730 0.17562 0.63436
 H478 H 0.68535 0.18424 0.66583
 H479 H 0.65043 0.25221 0.67780
 H480 H 0.62260 0.24404 0.64612
 C481 C 0.69453 0.06381 0.95865
 C482 C 0.69594 0.07584 0.94143
 C483 C 0.69813 0.09058 0.92117
 C484 C 0.70790 0.08104 0.90096
 C485 C 0.71122 0.09576 0.88169
 C486 C 0.70481 0.12025 0.88241
 C487 C 0.69464 0.12955 0.90271
 C488 C 0.69135 0.11481 0.92195
 C489 C 0.70948 0.13627 0.86243
 C490 C 0.69287 0.15415 0.85614
 C491 C 0.69792 0.17004 0.83810
 C492 C 0.71960 0.16826 0.82611
 C493 C 0.73606 0.15029 0.83198
 C494 C 0.73104 0.13438 0.84999
 C495 C 0.72547 0.18550 0.80849
 C496 C 0.73084 0.20020 0.79411
 H497 H 0.71322 0.06231 0.90018
 H498 H 0.71884 0.08801 0.86624
 H499 H 0.68984 0.14839 0.90394
 H500 H 0.68390 0.12241 0.93756
 H501 H 0.67599 0.15588 0.86520
 H502 H 0.68505 0.18390 0.83371
 H503 H 0.75297 0.14884 0.82290
 H504 H 0.74435 0.12105 0.85461
 C505 C 0.19421 0.56517 0.45902
 C506 C 0.19547 0.57735 0.44189
 C507 C 0.19745 0.59221 0.42170
 C508 C 0.20622 0.58254 0.40113
 C509 C 0.20931 0.59731 0.38186
 C510 C 0.20366 0.62197 0.38295
 C511 C 0.19449 0.63141 0.40362
 C512 C 0.19144 0.61662 0.42286
 C513 C 0.20811 0.63800 0.36293
 C514 C 0.19181 0.65640 0.35730
 C515 C 0.19671 0.67230 0.33923
 C516 C 0.21791 0.66999 0.32655
 C517 C 0.23403 0.65149 0.33176
 C518 C 0.22917 0.63558 0.34980
 C519 C 0.22370 0.68722 0.30890
 C520 C 0.22902 0.70191 0.29451
 H521 H 0.21093 0.56366 0.40006
 H522 H 0.21613 0.58946 0.36612
 H523 H 0.19030 0.65037 0.40513
 H524 H 0.18476 0.62431 0.43875
 H525 H 0.17531 0.65854 0.36690
 H526 H 0.18411 0.68656 0.33535
 H527 H 0.25057 0.64964 0.32214
 H528 H 0.24222 0.62182 0.35390
 C529 C 0.30594 0.93640 0.95909
 C530 C 0.30453 0.92436 0.94188
 C531 C 0.30234 0.90958 0.92166
 C532 C 0.30880 0.88527 0.92257
 C533 C 0.30551 0.87051 0.90336
 C534 C 0.29564 0.87987 0.88294
 C535 C 0.28955 0.90443 0.88209
 C536 C 0.29287 0.91918 0.90133
 C537 C 0.29096 0.86384 0.86298
 C538 C 0.26955 0.86597 0.85034
 C539 C 0.26452 0.85007 0.83233
 C540 C 0.28082 0.83188 0.82666
 C541 C 0.30235 0.82985 0.83886
 C542 C 0.30741 0.84573 0.85690
 C543 C 0.27492 0.81469 0.80902
 C544 C 0.26952 0.80005 0.79460
 H545 H 0.31601 0.87763 0.93826
 H546 H 0.31005 0.85162 0.90469
 H547 H 0.28218 0.91223 0.86655
 H548 H 0.28781 0.93798 0.90045
 H549 H 0.25637 0.87948 0.85480
 H550 H 0.24773 0.85170 0.82310
 H551 H 0.31508 0.81583 0.83463
 H552 H 0.32417 0.84382 0.86611
 C553 C 0.80694 0.43496 0.45794
 C554 C 0.80568 0.42292 0.44073
 C555 C 0.80367 0.40818 0.42047
 C556 C 0.80991 0.38381 0.42145
 C557 C 0.80676 0.36910 0.40218
 C558 C 0.79727 0.37857 0.38165
 C559 C 0.79140 0.40319 0.38074
 C560 C 0.79458 0.41788 0.40004
 C561 C 0.79268 0.36260 0.36164
 C562 C 0.77142 0.36492 0.34879
 C563 C 0.76642 0.34904 0.33077
 C564 C 0.78258 0.33067 0.32530
 C565 C 0.80397 0.32846 0.33769
 C566 C 0.80902 0.34432 0.35574
 C567 C 0.77664 0.31344 0.30771
 C568 C 0.77119 0.29874 0.29338
 H569 H 0.81682 0.37609 0.43723
 H570 H 0.81112 0.35017 0.40355
 H571 H 0.78432 0.41106 0.36511
 H572 H 0.78969 0.43672 0.39911
 H573 H 0.75833 0.37857 0.35310
 H574 H 0.74973 0.35081 0.32138
 H575 H 0.81660 0.31428 0.33361
 H576 H 0.82565 0.34225 0.36513
 C577 C 0.06400 0.30188 0.95875
 C578 C 0.07604 0.30059 0.94156
 C579 C 0.09079 0.29859 0.92134
 C580 C 0.11469 0.30622 0.92202
 C581 C 0.12947 0.30319 0.90281
 C582 C 0.12053 0.29240 0.88265
 C583 C 0.09637 0.28510 0.88203
 C584 C 0.08161 0.28817 0.90126
 C585 C 0.13661 0.28804 0.86270
 C586 C 0.13542 0.26620 0.85049
 C587 C 0.15137 0.26154 0.83248
 C588 C 0.16869 0.27864 0.82639
 C589 C 0.16978 0.30058 0.83816
 C590 C 0.15384 0.30528 0.85619
 C591 C 0.18598 0.27317 0.80876
 C592 C 0.20073 0.26816 0.79438
 H593 H 0.12202 0.31417 0.93753
 H594 H 0.14806 0.30867 0.90397
 H595 H 0.08889 0.27699 0.86668
 H596 H 0.06313 0.28219 0.90056
 H597 H 0.12260 0.25243 0.85527
 H598 H 0.15047 0.24443 0.82358
 H599 H 0.18312 0.31394 0.83360
 H600 H 0.15501 0.32237 0.86507
 C601 C 0.56439 0.80529 0.45854
 C602 C 0.57643 0.80403 0.44135
 C603 C 0.59113 0.80204 0.42111
 C604 C 0.61530 0.80874 0.42200
 C605 C 0.62998 0.80569 0.40273
 C606 C 0.62067 0.79584 0.38228
 C607 C 0.59624 0.78950 0.38145
 C608 C 0.58159 0.79258 0.40075
 C609 C 0.63661 0.79140 0.36226
 C610 C 0.63462 0.76993 0.34955
 C611 C 0.65048 0.76509 0.33151
 C612 C 0.66849 0.78164 0.32589
 C613 C 0.67036 0.80324 0.33815
 C614 C 0.65452 0.80811 0.35621
 C615 C 0.68570 0.77590 0.30829
 C616 C 0.70040 0.77062 0.29395
 H617 H 0.62290 0.81594 0.43771
 H618 H 0.64876 0.81042 0.40404
 H619 H 0.58849 0.78214 0.36589
 H620 H 0.56289 0.78734 0.39989
 H621 H 0.62126 0.75655 0.35397
 H622 H 0.64898 0.74825 0.32223
 H623 H 0.68425 0.81617 0.33396
 H624 H 0.65631 0.82492 0.36549
 C625 C 0.93560 0.69650 0.95846
 C626 C 0.92369 0.69795 0.94121
 C627 C 0.90909 0.70017 0.92091
 C628 C 0.90963 0.72146 0.90805
 C629 C 0.89452 0.72421 0.88904
 C630 C 0.87862 0.70569 0.88266
 C631 C 0.87849 0.68420 0.89550
 C632 C 0.89362 0.68149 0.91451
 C633 C 0.86167 0.70918 0.86323
 C634 C 0.83776 0.70127 0.86504
 C635 C 0.82145 0.70565 0.84727
 C636 C 0.82879 0.71791 0.82745
 C637 C 0.85262 0.72550 0.82531
 C638 C 0.86897 0.72116 0.84307
 C639 C 0.81161 0.72362 0.80980
 C640 C 0.79697 0.72886 0.79540
 H641 H 0.92143 0.73609 0.91294
 H642 H 0.89482 0.74109 0.87973
 H643 H 0.86667 0.66952 0.89087
 H644 H 0.89306 0.66494 0.92436
 H645 H 0.83149 0.69231 0.88046
 H646 H 0.80301 0.69983 0.84917
 H647 H 0.85850 0.73504 0.81004
 H648 H 0.88732 0.72720 0.84104
 C649 C 0.43557 0.19606 0.45821
 C650 C 0.42355 0.19733 0.44103
 C651 C 0.40884 0.19931 0.42079
 C652 C 0.38466 0.19267 0.42171
 C653 C 0.36997 0.19574 0.40245
 C654 C 0.37930 0.20555 0.38199
 C655 C 0.40373 0.21183 0.38112
 C656 C 0.41839 0.20873 0.40041
 C657 C 0.36336 0.21000 0.36196
 C658 C 0.36540 0.23144 0.34920
 C659 C 0.34957 0.23627 0.33115
 C660 C 0.33154 0.21975 0.32556
 C661 C 0.32960 0.19818 0.33787
 C662 C 0.34541 0.19331 0.35595
 C663 C 0.31439 0.22547 0.30789
 C664 C 0.29977 0.23073 0.29348
 H665 H 0.37705 0.18549 0.43744
 H666 H 0.35118 0.19105 0.40378
 H667 H 0.41149 0.21916 0.36554
 H668 H 0.43710 0.21393 0.39952
 H669 H 0.37879 0.24479 0.35360
 H670 H 0.35113 0.25308 0.32182
 H671 H 0.31570 0.18527 0.33370
 H672 H 0.34358 0.17653 0.36527
 C673 C 0.69451 0.93512 0.95889
 C674 C 0.69588 0.92311 0.94166
 C675 C 0.69802 0.90843 0.92137
 C676 C 0.71850 0.91018 0.90757
 C677 C 0.72126 0.89506 0.88853
 C678 C 0.70354 0.87794 0.88307
 C679 C 0.68283 0.87659 0.89685
 C680 C 0.68011 0.89174 0.91588
 C681 C 0.70712 0.86099 0.86360
 C682 C 0.70089 0.83655 0.86590
 C683 C 0.70544 0.82031 0.84807
 C684 C 0.71622 0.82825 0.82769
 C685 C 0.72212 0.85259 0.82506
 C686 C 0.71759 0.86887 0.84288
 C687 C 0.72222 0.81120 0.80997
 C688 C 0.72774 0.79668 0.79550
 H689 H 0.73253 0.92295 0.91175
 H690 H 0.73756 0.89632 0.87848
 H691 H 0.66875 0.86379 0.89292
 H692 H 0.66418 0.89024 0.92646
 H693 H 0.69313 0.82985 0.88174
 H694 H 0.70095 0.80148 0.85034
 H695 H 0.73049 0.85892 0.80935
 H696 H 0.72232 0.88761 0.84048
 C697 C 0.19415 0.43512 0.45790
 C698 C 0.19560 0.42319 0.44062
 C699 C 0.19784 0.40855 0.42032
 C700 C 0.20798 0.41811 0.40027
 C701 C 0.21138 0.40346 0.38097
 C702 C 0.20469 0.37902 0.38151
 C703 C 0.19416 0.36971 0.40165
 C704 C 0.19079 0.38438 0.42091
 C705 C 0.20947 0.36306 0.36153
 C706 C 0.19277 0.34533 0.35497
 C707 C 0.19792 0.32947 0.33695
 C708 C 0.21977 0.33114 0.32523
 C709 C 0.23632 0.34897 0.33136
 C710 C 0.23122 0.36484 0.34936
 C711 C 0.22572 0.31393 0.30762
 C712 C 0.23114 0.29925 0.29327
 H713 H 0.21351 0.43680 0.39963
 H714 H 0.21928 0.41122 0.36565
 H715 H 0.18914 0.35091 0.40274
 H716 H 0.18307 0.37676 0.43640
 H717 H 0.17577 0.34369 0.36382
 H718 H 0.18498 0.31573 0.33236
 H719 H 0.25336 0.35033 0.32249
 H720 H 0.24459 0.37806 0.35418
 C721 C 0.30672 0.06509 0.95917
 C722 C 0.30544 0.07710 0.94193
 C723 C 0.30340 0.09178 0.92164
 C724 C 0.30941 0.11622 0.92259
 C725 C 0.30621 0.13087 0.90329
 C726 C 0.29688 0.12126 0.88275
 C727 C 0.29125 0.09657 0.88185
 C728 C 0.29448 0.08194 0.90119
 C729 C 0.29221 0.13715 0.86269
 C730 C 0.27102 0.13457 0.84978
 C731 C 0.26593 0.15038 0.83173
 C732 C 0.28194 0.16893 0.82628
 C733 C 0.30327 0.17140 0.83873
 C734 C 0.30840 0.15561 0.85681
 C735 C 0.27590 0.18609 0.80866
 C736 C 0.27037 0.20072 0.79430
 H737 H 0.31619 0.12404 0.93839
 H738 H 0.31038 0.14985 0.90464
 H739 H 0.28430 0.08859 0.86621
 H740 H 0.28976 0.06304 0.90028
 H741 H 0.25803 0.12078 0.85408
 H742 H 0.24929 0.14841 0.82229
 H743 H 0.31578 0.18571 0.83467
 H744 H 0.32499 0.15787 0.86624
 C745 C 0.80592 0.56503 0.45803
 C746 C 0.80443 0.57713 0.44087
 C747 C 0.80214 0.59196 0.42069
 C748 C 0.80917 0.61613 0.42146
 C749 C 0.80580 0.63096 0.40230
 C750 C 0.79529 0.62181 0.38210
 C751 C 0.78861 0.59738 0.38139
 C752 C 0.79202 0.58257 0.40057
 C753 C 0.79053 0.63793 0.36222
 C754 C 0.76881 0.63623 0.35002
 C755 C 0.76375 0.65222 0.33209
 C756 C 0.78032 0.67007 0.32608
 C757 C 0.80215 0.67166 0.33784
 C758 C 0.80725 0.65570 0.35579
 C759 C 0.77444 0.68735 0.30851
 C760 C 0.76908 0.70207 0.29417
 H761 H 0.81690 0.62362 0.43700
 H762 H 0.81081 0.64975 0.40353
 H763 H 0.78074 0.58973 0.36600
 H764 H 0.78651 0.56387 0.39980
 H765 H 0.75543 0.62299 0.35475
 H766 H 0.74673 0.65091 0.32319
 H767 H 0.81511 0.68542 0.33333
 H768 H 0.82424 0.65727 0.36467
 C769 C 0.06506 0.69612 0.95919
 C770 C 0.07710 0.69742 0.94200
 C771 C 0.09179 0.69947 0.92175
 C772 C 0.11604 0.69312 0.92270
 C773 C 0.13069 0.69627 0.90342
 C774 C 0.12128 0.70587 0.88291
 C775 C 0.09678 0.71186 0.88203
 C776 C 0.08215 0.70868 0.90134
 C777 C 0.13717 0.71042 0.86287
 C778 C 0.13494 0.73178 0.85003
 C779 C 0.15074 0.73672 0.83196
 C780 C 0.16892 0.72039 0.82643
 C781 C 0.17105 0.69890 0.83883
 C782 C 0.15527 0.69393 0.85693
 C783 C 0.18606 0.72625 0.80878
 C784 C 0.20069 0.73160 0.79439
 H785 H 0.12371 0.68611 0.93846
 H786 H 0.14953 0.69181 0.90476
 H787 H 0.08895 0.71902 0.86642
 H788 H 0.06340 0.71365 0.90043
 H789 H 0.12143 0.74500 0.85438
 H790 H 0.14903 0.75349 0.82257
 H791 H 0.18508 0.68615 0.83471
 H792 H 0.15727 0.67721 0.86631
 C793 C 0.56511 0.19602 0.45797
 C794 C 0.57713 0.19738 0.44077
 C795 C 0.59188 0.19948 0.42055
 C796 C 0.61576 0.19182 0.42117
 C797 C 0.63053 0.19497 0.40197
 C798 C 0.62162 0.20590 0.38188
 C799 C 0.59748 0.21322 0.38131
 C800 C 0.58272 0.21003 0.40053
 C801 C 0.63771 0.21041 0.36196
 C802 C 0.63657 0.23235 0.34989
 C803 C 0.65255 0.23715 0.33193
 C804 C 0.66984 0.22011 0.32573
 C805 C 0.67087 0.19808 0.33736
 C806 C 0.65491 0.19323 0.35535
 C807 C 0.68712 0.22570 0.30813
 C808 C 0.70185 0.23081 0.29374
 H809 H 0.62307 0.18377 0.43663
 H810 H 0.64911 0.18947 0.40309
 H811 H 0.59002 0.22144 0.36601
 H812 H 0.56426 0.21604 0.39988
 H813 H 0.62378 0.24608 0.35476
 H814 H 0.65168 0.25433 0.32314
 H815 H 0.68420 0.18476 0.33271
 H816 H 0.65605 0.17607 0.36411
 C817 C 0.93582 0.30252 0.95865
 C818 C 0.92384 0.30135 0.94141
 C819 C 0.90917 0.29949 0.92114
 C820 C 0.88504 0.30627 0.92203
 C821 C 0.87037 0.30330 0.90275
 C822 C 0.87964 0.29344 0.88230
 C823 C 0.90403 0.28702 0.88147
 C824 C 0.91869 0.29003 0.90078
 C825 C 0.86368 0.28906 0.86227
 C826 C 0.86556 0.26760 0.84954
 C827 C 0.84967 0.26282 0.83152
 C828 C 0.83175 0.27942 0.82592
 C829 C 0.83000 0.30101 0.83820
 C830 C 0.84586 0.30583 0.85625
 C831 C 0.81450 0.27375 0.80832
 C832 C 0.79978 0.26854 0.79398
 H833 H 0.87747 0.31348 0.93775
 H834 H 0.85161 0.30808 0.90406
 H835 H 0.91175 0.27965 0.86590
 H836 H 0.93735 0.28472 0.89992
 H837 H 0.87885 0.25418 0.85396
 H838 H 0.85109 0.24598 0.82222
 H839 H 0.81617 0.31398 0.83402
 H840 H 0.84416 0.32263 0.86554
 C841 C 0.43485 0.80591 0.45812
 C842 C 0.42284 0.80459 0.44092
 C843 C 0.40809 0.80250 0.42071
 C844 C 0.41733 0.79220 0.40061
 C845 C 0.40256 0.78893 0.38141
 C846 C 0.37832 0.79593 0.38210
 C847 C 0.36933 0.80663 0.40228
 C848 C 0.38412 0.80985 0.42144
 C849 C 0.36222 0.79129 0.36222
 C850 C 0.34476 0.80827 0.35575
 C851 C 0.32879 0.80328 0.33782
 C852 C 0.33007 0.78130 0.32611
 C853 C 0.34762 0.76448 0.33217
 C854 C 0.36361 0.76943 0.35007
 C855 C 0.31276 0.77553 0.30860
 C856 C 0.29799 0.77026 0.29431
 H857 H 0.43586 0.78642 0.39987
 H858 H 0.41007 0.78090 0.36605
 H859 H 0.35069 0.81188 0.40348
 H860 H 0.37675 0.81771 0.43697
 H861 H 0.34342 0.82537 0.36458
 H862 H 0.31526 0.81643 0.33328
 H863 H 0.34868 0.74735 0.32332
 H864 H 0.37661 0.75585 0.35484
 C865 C 0.30593 0.93567 0.04162
 C866 C 0.30449 0.92364 0.05883
 C867 C 0.30227 0.90892 0.07910
 C868 C 0.29248 0.91852 0.09928
 C869 C 0.28912 0.90383 0.11857
 C870 C 0.29550 0.87934 0.11788
 C871 C 0.30568 0.86998 0.09761
 C872 C 0.30901 0.88469 0.07836
 C873 C 0.29075 0.86336 0.13787
 C874 C 0.30733 0.84547 0.14422
 C875 C 0.30221 0.82961 0.16225
 C876 C 0.28048 0.83142 0.17418
 C877 C 0.26406 0.84940 0.16825
 C878 C 0.26915 0.86529 0.15024
 C879 C 0.27452 0.81419 0.19177
 C880 C 0.26909 0.79949 0.20612
 H881 H 0.28720 0.93726 0.10002
 H882 H 0.28150 0.91162 0.13400
 H883 H 0.31045 0.85114 0.09642
 H884 H 0.31646 0.87705 0.06277
 H885 H 0.32423 0.84372 0.13521
 H886 H 0.31504 0.81574 0.16670
 H887 H 0.24712 0.85086 0.17727
 H888 H 0.25587 0.87862 0.14557
 C889 C 0.80678 0.43486 0.54157
 C890 C 0.80542 0.42276 0.55875
 C891 C 0.80329 0.40794 0.57896
 C892 C 0.79363 0.41743 0.59924
 C893 C 0.79035 0.40265 0.61848
 C894 C 0.79669 0.37815 0.61764
 C895 C 0.80675 0.36889 0.59728
 C896 C 0.80999 0.38370 0.57807
 C897 C 0.79204 0.36206 0.63758
 C898 C 0.80861 0.34410 0.64375
 C899 C 0.80358 0.32817 0.66176
 C900 C 0.78195 0.32998 0.67384
 C901 C 0.76553 0.34803 0.66809
 C902 C 0.77053 0.36398 0.65011
 C903 C 0.77609 0.31271 0.69143
 C904 C 0.77074 0.29798 0.70579
 H905 H 0.78837 0.43618 0.60011
 H906 H 0.78282 0.41036 0.63398
 H907 H 0.81148 0.35005 0.59596
 H908 H 0.81735 0.37613 0.56241
 H909 H 0.82544 0.34235 0.63462
 H910 H 0.81642 0.31426 0.66606
 H911 H 0.74867 0.34950 0.67724
 H912 H 0.75725 0.37737 0.64558
 C913 C 0.69423 0.06462 0.04119
 C914 C 0.69552 0.07668 0.05838
 C915 C 0.69758 0.09145 0.07861
 C916 C 0.69136 0.11582 0.07761
 C917 C 0.69455 0.13055 0.09685
 C918 C 0.70405 0.12110 0.11738
 C919 C 0.70990 0.09648 0.11833
 C920 C 0.70668 0.08177 0.09905
 C921 C 0.70868 0.13710 0.13737
 C922 C 0.72995 0.13479 0.15019
 C923 C 0.73499 0.15070 0.16818
 C924 C 0.71885 0.16909 0.17364
 C925 C 0.69744 0.17128 0.16128
 C926 C 0.69236 0.15539 0.14327
 C927 C 0.72482 0.18634 0.19120
 C928 C 0.73030 0.20105 0.20551
 H929 H 0.68444 0.12352 0.06183
 H930 H 0.69020 0.14949 0.09546
 H931 H 0.71699 0.08862 0.13396
 H932 H 0.71156 0.06292 0.10000
 H933 H 0.74303 0.12112 0.14588
 H934 H 0.75169 0.14893 0.17755
 H935 H 0.68482 0.18547 0.16536
 H936 H 0.67571 0.15745 0.13390
 C937 C 0.19476 0.56437 0.54266
 C938 C 0.19634 0.57627 0.55994
 C939 C 0.19873 0.59088 0.58026
 C940 C 0.21975 0.58977 0.59335
 C941 C 0.22272 0.60488 0.61237
 C942 C 0.20469 0.62138 0.61853
 C943 C 0.18345 0.62208 0.60546
 C944 C 0.18052 0.60693 0.58645
 C945 C 0.20845 0.63834 0.63796
 C946 C 0.20135 0.66256 0.63602
 C947 C 0.20600 0.67886 0.65379
 C948 C 0.21775 0.67119 0.67376
 C949 C 0.22453 0.64707 0.67603
 C950 C 0.21991 0.63073 0.65827
 C951 C 0.22375 0.68833 0.69142
 C952 C 0.22922 0.70294 0.70584
 H953 H 0.23401 0.57750 0.58863
 H954 H 0.23941 0.60414 0.62185
 H955 H 0.16914 0.63436 0.60993
 H956 H 0.16418 0.60793 0.57643
 H957 H 0.19281 0.66907 0.62049
 H958 H 0.20080 0.69753 0.65179
 H959 H 0.23365 0.64094 0.69141
 H960 H 0.22533 0.61215 0.66039
 C961 C 0.93502 0.69616 0.04208
 C962 C 0.92290 0.69742 0.05921
 C963 C 0.90808 0.69942 0.07938
 C964 C 0.91750 0.70893 0.09976
 C965 C 0.90272 0.71205 0.11898
 C966 C 0.87831 0.70570 0.11802
 C967 C 0.86913 0.69579 0.09755
 C968 C 0.88392 0.69270 0.07837
 C969 C 0.86224 0.71020 0.13794
 C970 C 0.84430 0.69350 0.14393
 C971 C 0.82836 0.69842 0.16190
 C972 C 0.83016 0.72005 0.17412
 C973 C 0.84820 0.73658 0.16856
 C974 C 0.86416 0.73170 0.15062
 C975 C 0.81288 0.72582 0.19165
 C976 C 0.79815 0.73112 0.20595
 H977 H 0.93618 0.71419 0.10072
 H978 H 0.91038 0.71946 0.13457
 H979 H 0.85035 0.69105 0.09615
 H980 H 0.87642 0.68546 0.06263
 H981 H 0.84256 0.67667 0.13469
 H982 H 0.81445 0.68551 0.16606
 H983 H 0.84966 0.75345 0.17781
 H984 H 0.87755 0.74506 0.14623
 C985 C 0.43570 0.19609 0.54185
 C986 C 0.42368 0.19741 0.55905
 C987 C 0.40893 0.19946 0.57927
 C988 C 0.41804 0.21016 0.59924
 C989 C 0.40328 0.21330 0.61846
 C990 C 0.37918 0.20578 0.61794
 C991 C 0.37032 0.19469 0.59789
 C992 C 0.38511 0.19159 0.57870
 C993 C 0.36308 0.21023 0.63785
 C994 C 0.34600 0.19292 0.64455
 C995 C 0.33003 0.19769 0.66254
 C996 C 0.33094 0.21979 0.67407
 C997 C 0.34811 0.23696 0.66778
 C998 C 0.36409 0.23223 0.64982
 C999 C 0.31363 0.22531 0.69166
 C1000 C 0.29887 0.23038 0.70602
 H1001 H 0.43647 0.21632 0.59986
 H1002 H 0.41070 0.22163 0.63373
 H1003 H 0.35178 0.18901 0.59681
 H1004 H 0.37784 0.18340 0.56328
 H1005 H 0.34496 0.17572 0.63585
 H1006 H 0.31681 0.18427 0.66726
 H1007 H 0.34887 0.25418 0.67650
 H1008 H 0.37678 0.24605 0.64488
 C1009 C 0.06454 0.30180 0.04131
 C1010 C 0.07646 0.30044 0.05856
 C1011 C 0.09103 0.29834 0.07888
 C1012 C 0.10670 0.31695 0.08504
 C1013 C 0.12176 0.31436 0.10411
 C1014 C 0.12136 0.29307 0.11725
 C1015 C 0.10526 0.27464 0.11111
 C1016 C 0.09023 0.27727 0.09204
 C1017 C 0.13824 0.28971 0.13675
 C1018 C 0.13077 0.27815 0.15709
 C1019 C 0.14705 0.27387 0.17491
 C1020 C 0.17097 0.28112 0.17267
 C1021 C 0.17848 0.29298 0.15268
 C1022 C 0.16224 0.29728 0.13485
 C1023 C 0.18809 0.27542 0.19036
 C1024 C 0.20269 0.27017 0.20480
 H1025 H 0.10746 0.33334 0.07496
 H1026 H 0.13374 0.32898 0.10856
 H1027 H 0.10476 0.25791 0.12066
 H1028 H 0.07826 0.26270 0.08734
 H1029 H 0.11235 0.27237 0.15918
 H1030 H 0.14106 0.26465 0.19031
 H1031 H 0.19700 0.29852 0.15071
 H1032 H 0.16864 0.30591 0.11930
 C1033 C 0.56407 0.80480 0.54219
 C1034 C 0.57600 0.80325 0.55942
 C1035 C 0.59062 0.80091 0.57969
 C1036 C 0.58135 0.79004 0.59951
 C1037 C 0.59598 0.78661 0.61877
 C1038 C 0.62013 0.79401 0.61843
 C1039 C 0.62915 0.80527 0.59853
 C1040 C 0.61450 0.80866 0.57930
 C1041 C 0.63609 0.78926 0.63838
 C1042 C 0.65323 0.80640 0.64532
 C1043 C 0.66905 0.80135 0.66335
 C1044 C 0.66794 0.77915 0.67469
 C1045 C 0.65071 0.76214 0.66815
 C1046 C 0.63488 0.76715 0.65015
 C1047 C 0.68509 0.77335 0.69234
 C1048 C 0.69971 0.76807 0.70674
 H1049 H 0.56289 0.78396 0.59999
 H1050 H 0.58844 0.77815 0.63392
 H1051 H 0.64773 0.81084 0.59758
 H1052 H 0.62190 0.81696 0.56399
 H1053 H 0.65443 0.82368 0.63678
 H1054 H 0.68233 0.81464 0.66826
 H1055 H 0.64979 0.74484 0.67672
 H1056 H 0.62214 0.75345 0.64501
   
