data_POSCAR
  _audit_creation_date              2014-09-24
  _audit_creation_method            'ToBaCCo'
  _symmetry_space_group_name_H-M    'P1'
  _symmetry_Int_Tables_number       1
  _symmetry_cell_setting            triclinic
  loop_
  _symmetry_equiv_pos_as_xyz
 x,y,z
_cell_length_a 20.0678
_cell_length_b 20.1516
_cell_length_c 23.8705
_cell_angle_alpha 89.684200
_cell_angle_beta 91.439900
_cell_angle_gamma 88.297800
loop_
  _atom_site_label
  _atom_site_type_symbol
  _atom_site_fract_x
  _atom_site_fract_y
  _atom_site_fract_z
C1 C 1.24810 0.23925 0.24423
 C2 C 0.74956 -0.24691 0.24408
 C3 C 0.74701 0.27364 -0.25390
 C4 C 1.24809 -0.23409 -0.25617
 C5 C 0.25351 0.24351 0.75081
 C6 C 0.74359 0.71571 0.75272
 C7 C 0.75048 0.24425 0.25301
 C8 C 0.24695 0.76720 0.25194
 O9 O 1.11894 0.07988 0.03047
 O10 O 0.86481 -0.06961 0.03016
 O11 O 0.91738 0.13202 0.03637
 O12 O 1.06819 -0.12271 0.03616
 O13 O 0.88157 0.04029 0.06584
 O14 O 1.10988 -0.03182 0.06421
 O15 O 0.95667 -0.10907 0.06190
 O16 O 1.02932 0.11606 0.06434
 C17 C 1.08956 0.10446 0.07073
 C18 C 0.89656 -0.10028 0.06810
 C19 C 0.88901 0.10013 0.07334
 C20 C 1.10147 -0.09169 0.07216
 O21 O 1.11939 -0.07519 -0.04072
 O22 O 0.86313 0.08863 -0.04043
 O23 O 1.06522 0.12976 -0.04621
 O24 O 0.91492 -0.11661 -0.04931
 O25 O 0.87520 -0.02136 -0.07469
 O26 O 1.10404 0.03716 -0.07572
 O27 O 1.02876 -0.10934 -0.07544
 O28 O 0.95304 0.11907 -0.07477
 Co29 Co 1.10129 0.00292 -0.00559
 Co30 Co 0.88322 0.00916 -0.00470
 Co31 Co 0.99130 0.11288 -0.00520
 Co32 Co 0.99198 -0.10300 -0.00674
 O33 O 0.99203 0.00532 -0.00560
 C34 C 1.08948 -0.10335 -0.07948
 C35 C 0.89216 0.11488 -0.07990
 C36 C 1.09598 0.09778 -0.08255
 C37 C 0.88052 -0.08133 -0.08333
 O38 O 1.13598 0.58263 0.53508
 O39 O 0.90617 0.40982 0.53341
 O40 O 0.92679 0.61596 0.53765
 O41 O 1.11297 0.37780 0.51859
 O42 O 0.90499 0.51952 0.56567
 O43 O 1.13874 0.46716 0.55787
 O44 O 1.00508 0.37824 0.55614
 O45 O 1.04184 0.61119 0.56799
 C46 C 1.10301 0.60710 0.57396
 C47 C 0.94593 0.38210 0.56808
 C48 C 0.90352 0.57952 0.57431
 C49 C 1.13740 0.40618 0.56007
 O50 O 1.14821 0.43993 0.44492
 O51 O 0.88081 0.56588 0.45782
 O52 O 1.07731 0.63750 0.46084
 O53 O 0.95182 0.36842 0.45144
 O54 O 0.90564 0.45852 0.42415
 O55 O 1.12343 0.55237 0.42471
 O56 O 1.05824 0.39763 0.41430
 O57 O 0.96580 0.61647 0.42988
 Co58 Co 1.12537 0.50928 0.49101
 Co59 Co 0.91064 0.48942 0.49485
 Co60 Co 1.00448 0.60817 0.49851
 Co61 Co 1.03048 0.39233 0.48559
 O62 O 1.01770 0.49996 0.49243
 C63 C 1.11695 0.41151 0.40650
 C64 C 0.90641 0.60366 0.42310
 C65 C 1.11191 0.61276 0.42304
 C66 C 0.91510 0.39889 0.41660
 O67 O 0.62158 0.03343 0.57815
 O68 O 0.39460 -0.03137 0.56833
 O69 O 0.46922 0.11392 0.57208
 O70 O 0.54562 -0.11481 0.57007
 O71 O 0.37893 0.08074 0.53640
 O72 O 0.63758 -0.07812 0.54321
 O73 O 0.43391 -0.12346 0.53830
 O74 O 0.58124 0.12557 0.54717
 C75 C 0.60988 0.09325 0.58603
 C76 C 0.40156 -0.09206 0.57408
 C77 C 0.40850 0.10948 0.57531
 C78 C 0.60630 -0.11053 0.57793
 O79 O 0.62656 -0.03076 0.43659
 O80 O 0.39615 0.03814 0.42978
 O81 O 0.54437 0.11698 0.43651
 O82 O 0.47412 -0.10820 0.42937
 O83 O 0.38239 -0.07264 0.46062
 O84 O 0.63613 0.07950 0.47172
 O85 O 0.58715 -0.12256 0.46229
 O86 O 0.43110 0.12958 0.46105
 Co87 Co 0.61837 0.00113 0.50706
 Co88 Co 0.40022 0.00367 0.49921
 Co89 Co 0.50655 0.11004 0.50408
 Co90 Co 0.50996 -0.10576 0.50011
 O91 O 0.50886 0.00223 0.50267
 C92 C 0.61716 -0.08989 0.42669
 C93 C 0.40147 0.09833 0.42347
 C94 C 0.60548 0.11079 0.43348
 C95 C 0.41327 -0.10062 0.42227
 O96 O 0.60982 0.56544 0.04588
 O97 O 0.34988 0.43813 0.05178
 O98 O 0.40823 0.63549 0.04189
 O99 O 0.54992 0.36793 0.04795
 O100 O 0.36899 0.54820 0.07587
 O101 O 0.59286 0.45557 0.07744
 O102 O 0.44109 0.39592 0.08433
 O103 O 0.52101 0.61452 0.07376
 C104 C 0.58095 0.60106 0.08131
 C105 C 0.38184 0.41105 0.09151
 C106 C 0.37888 0.60783 0.08070
 C107 C 0.58232 0.39643 0.08507
 O108 O 0.59648 0.41221 -0.03312
 O109 O 0.35435 0.58462 -0.03411
 O110 O 0.56135 0.61930 -0.03346
 O111 O 0.39018 0.37964 -0.02193
 O112 O 0.36103 0.47064 -0.06029
 O113 O 0.59237 0.52441 -0.06283
 O114 O 0.49935 0.37989 -0.05630
 O115 O 0.44723 0.61440 -0.06526
 Co116 Co 0.58636 0.49021 0.00707
 Co117 Co 0.36984 0.50935 0.00804
 Co118 Co 0.48365 0.60884 0.00449
 Co119 Co 0.47073 0.39259 0.01332
 O120 O 0.47778 0.50039 0.00797
 C121 C 0.55909 0.38130 -0.06614
 C122 C 0.38614 0.61212 -0.07138
 C123 C 0.59009 0.58512 -0.06954
 C124 C 0.36642 0.40967 -0.06383
 C125 C 1.20594 0.19779 0.20476
 C126 C 1.14037 0.18735 0.20875
 C127 C 1.10040 0.15802 0.16279
 C128 C 1.12741 0.12353 0.12084
 H129 H 1.11325 0.20592 0.24423
 H130 H 1.04708 0.16826 0.16238
 H131 H 1.23254 0.17867 0.16923
 H132 H 1.17972 0.10929 0.12159
 C133 C 1.20901 0.72620 0.70116
 C134 C 1.23737 0.67687 0.67173
 C135 C 1.20226 0.64112 0.62676
 C136 C 1.13575 0.63816 0.62222
 H137 H 1.28984 0.66445 0.67863
 H138 H 1.23310 0.61608 0.59633
 H139 H 1.15861 0.74329 0.69047
 H140 H 1.10409 0.66008 0.65359
 C141 C 0.70437 0.21981 0.71972
 C142 C 0.64974 0.23514 0.68800
 C143 C 0.61778 0.19062 0.64674
 C144 C 0.63673 0.12748 0.63597
 H145 H 0.63090 0.28608 0.68741
 H146 H 0.57878 0.21403 0.62061
 H147 H 0.72461 0.16955 0.71958
 H148 H 0.67397 0.10136 0.66186
 C149 C 0.70214 0.71174 0.20886
 C150 C 0.72505 0.66387 0.17458
 C151 C 0.68414 0.62708 0.13341
 C152 C 0.61775 0.63352 0.12714
 H153 H 0.77822 0.65284 0.17445
 H154 H 0.71129 0.59441 0.10556
 H155 H 0.64976 0.72583 0.20839
 H156 H 0.58898 0.66510 0.15451
 C157 C 0.79085 -0.20706 0.20377
 C158 C 0.76306 -0.16080 0.16883
 C159 C 0.79832 -0.12680 0.12342
 C160 C 0.86427 -0.13141 0.11592
 H161 H 0.71013 -0.14946 0.17150
 H162 H 0.76754 -0.09711 0.09432
 H163 H 0.84270 -0.22188 0.19989
 H164 H 0.89662 -0.15912 0.14499
 C165 C 0.77669 0.31155 0.69777
 C166 C 0.84124 0.31522 0.68609
 C167 C 0.86098 0.35046 0.63504
 C168 C 0.92424 0.34921 0.61938
 H169 H 0.87936 0.29148 0.71272
 H170 H 0.82319 0.37653 0.60935
 H171 H 0.74097 0.33683 0.66950
 H172 H 0.96188 0.32296 0.64509
 C173 C 0.29429 -0.19081 0.71106
 C174 C 0.27253 -0.13694 0.68205
 C175 C 0.31522 -0.09947 0.64460
 C176 C 0.36574 -0.12795 0.61696
 H177 H 0.22140 -0.11913 0.68577
 H178 H 0.30035 -0.04830 0.63566
 H179 H 0.34568 -0.20791 0.70745
 H180 H 0.37753 -0.18045 0.62185
 C181 C 0.28631 0.28568 0.20758
 C182 C 0.33781 0.32174 0.22536
 C183 C 0.37659 0.35880 0.18467
 C184 C 0.34642 0.38952 0.14079
 H185 H 0.35597 0.31815 0.26839
 H186 H 0.43047 0.35681 0.18900
 H187 H 0.27154 0.28859 0.16356
 H188 H 0.29252 0.39520 0.13893
 C189 C 0.79799 0.24291 -0.21190
 C190 C 0.84008 0.19178 -0.22236
 C191 C 0.88058 0.15963 -0.17657
 C192 C 0.85392 0.14579 -0.12701
 H193 H 0.84534 0.17364 -0.26466
 H194 H 0.93151 0.14406 -0.18479
 H195 H 0.79843 0.26206 -0.16944
 H196 H 0.80123 0.15591 -0.12105
 C197 C 0.79464 0.70766 0.28080
 C198 C 0.84592 0.73082 0.31124
 C199 C 0.88742 0.69001 0.35095
 C200 C 0.86498 0.63790 0.37938
 H201 H 0.85922 0.78218 0.30627
 H202 H 0.93694 0.70754 0.36043
 H203 H 0.78204 0.65598 0.28494
 H204 H 0.81402 0.62271 0.37344
 C205 C 0.29602 0.19260 0.27631
 C206 C 0.27427 0.14264 0.30751
 C207 C 0.31786 0.10483 0.34722
 C208 C 0.36629 0.13352 0.37725
 H209 H 0.22219 0.13004 0.30525
 H210 H 0.30429 0.05443 0.35673
 H211 H 0.34880 0.20247 0.27736
 H212 H 0.37612 0.18565 0.37147
 C213 C 0.28808 0.71981 -0.21653
 C214 C 0.33938 0.74074 -0.18476
 C215 C 0.37739 0.69786 -0.14447
 C216 C 0.35011 0.64797 -0.11689
 H217 H 0.35581 0.79114 -0.18928
 H218 H 0.42772 0.71202 -0.13357
 H219 H 0.27222 0.66915 -0.21234
 H220 H 0.29800 0.63721 -0.12368
 C221 C 1.20128 -0.19234 -0.22064
 C222 C 1.14627 -0.21691 -0.19815
 C223 C 1.10380 -0.17980 -0.15876
 C224 C 1.12818 -0.13412 -0.12416
 H225 H 1.13127 -0.26651 -0.20888
 H226 H 1.05290 -0.19522 -0.15457
 H227 H 1.21583 -0.14244 -0.21044
 H228 H 1.18043 -0.12236 -0.12494
 C229 C 1.20846 0.28015 0.28570
 C230 C 1.16043 0.32486 0.27048
 C231 C 1.12233 0.36104 0.31308
 C232 C 1.15296 0.38613 0.35820
 H233 H 1.14527 0.33060 0.22682
 H234 H 1.06865 0.36580 0.30767
 H235 H 1.22002 0.27281 0.33001
 H236 H 1.20699 0.38542 0.36104
 C237 C 0.71094 -0.20079 0.28297
 C238 C 0.66909 -0.22475 0.32073
 C239 C 0.63676 -0.18611 0.36575
 C240 C 0.64723 -0.12215 0.37761
 H241 H 0.65960 -0.27740 0.32037
 H242 H 0.60419 -0.21379 0.39215
 H243 H 0.72219 -0.14866 0.28280
 H244 H 0.67920 -0.09278 0.35222
 C245 C 0.70585 0.32390 -0.22093
 C246 C 0.66288 0.30567 -0.18226
 C247 C 0.63748 0.35328 -0.14070
 C248 C 0.58487 0.33856 -0.11068
 H249 H 0.64946 0.25409 -0.17904
 H250 H 0.66218 0.39984 -0.13412
 H251 H 0.71967 0.37558 -0.22234
 H252 H 0.55797 0.29392 -0.12019
 C253 C 1.20422 0.20031 -0.21942
 C254 C 1.22355 0.14490 -0.19096
 C255 C 1.17967 0.10617 -0.15538
 C256 C 1.12918 0.13368 -0.12727
 H257 H 1.27467 0.12656 -0.19292
 H258 H 1.19516 0.05513 -0.14656
 H259 H 1.15286 0.21816 -0.21763
 H260 H 1.11669 0.18605 -0.13226
 C261 C 1.20772 0.72786 0.28960
 C262 C 1.22900 0.66579 0.31196
 C263 C 1.19403 0.62865 0.35067
 C264 C 1.14175 0.65301 0.38352
 H265 H 1.27463 0.64274 0.29711
 H266 H 1.21265 0.57822 0.35804
 H267 H 1.16151 0.74998 0.30431
 H268 H 1.12750 0.70519 0.38246
 C269 C 0.70585 0.20414 0.29022
 C270 C 0.65312 0.23034 0.31658
 C271 C 0.61458 0.19234 0.35703
 C272 C 0.64253 0.14469 0.39007
 H273 H 0.63655 0.28098 0.30797
 H274 H 0.56302 0.20778 0.36262
 H275 H 0.72082 0.15292 0.29879
 H276 H 0.69538 0.13281 0.38810
 C277 C 0.69599 0.67511 -0.21313
 C278 C 0.71387 0.61809 -0.18674
 C279 C 0.67098 0.58470 -0.14615
 C280 C 0.62655 0.61752 -0.11452
 H281 H 0.76206 0.59490 -0.19466
 H282 H 0.68084 0.53220 -0.13873
 H283 H 0.64738 0.69739 -0.20527
 H284 H 0.61991 0.67084 -0.11844
 C285 C 0.79391 -0.25629 -0.20541
 C286 C 0.78776 -0.19651 -0.18189
 C287 C 0.83743 -0.17334 -0.14054
 C288 C 0.83841 -0.10906 -0.12801
 H289 H 0.74554 -0.16387 -0.19282
 H290 H 0.87218 -0.20846 -0.12008
 H291 H 0.83583 -0.28845 -0.19227
 H292 H 0.80439 -0.07468 -0.15026
 C293 C 0.79526 0.28693 0.28951
 C294 C 0.83180 0.26073 0.33261
 C295 C 0.87662 0.29833 0.36990
 C296 C 0.87632 0.36467 0.37310
 H297 H 0.82899 0.20812 0.34144
 H298 H 0.90813 0.26915 0.39882
 H299 H 0.80220 0.33785 0.27715
 H300 H 0.84348 0.39512 0.34639
 C301 C 0.29327 -0.19601 0.28691
 C302 C 0.27121 -0.14873 0.32603
 C303 C 0.31065 -0.11880 0.36762
 C304 C 0.37995 -0.12754 0.37575
 H305 H 0.21834 -0.13610 0.32619
 H306 H 0.28393 -0.08683 0.39633
 H307 H 0.34544 -0.21141 0.28787
 H308 H 0.40919 -0.15562 0.34616
 C309 C 0.28441 0.28849 -0.20514
 C310 C 0.33270 0.26839 -0.16855
 C311 C 0.35555 0.30848 -0.12019
 C312 C 0.34292 0.37396 -0.11396
 H313 H 0.35403 0.21864 -0.17185
 H314 H 0.38508 0.28192 -0.08823
 H315 H 0.25954 0.33604 -0.19857
 H316 H 0.31686 0.40288 -0.14636
 C317 C 1.20133 -0.19101 0.21818
 C318 C 1.21630 -0.12840 0.19630
 C319 C 1.17952 -0.09552 0.15313
 C320 C 1.13268 -0.12552 0.11736
 H321 H 1.25907 -0.10301 0.21315
 H322 H 1.19285 -0.04485 0.14435
 H323 H 1.15576 -0.21355 0.20355
 H324 H 1.12294 -0.17775 0.12155
 C325 C 1.21616 0.28717 0.70744
 C326 C 1.18774 0.26251 0.66082
 C327 C 1.15776 0.30363 0.61466
 C328 C 1.16707 0.36890 0.60801
 H329 H 1.18738 0.20918 0.65541
 H330 H 1.12867 0.27760 0.58339
 H331 H 1.21377 0.34017 0.71419
 H332 H 1.19672 0.39639 0.63773
 C333 C 0.70427 -0.23056 0.71910
 C334 C 0.64839 -0.24405 0.68956
 C335 C 0.61254 -0.19694 0.65105
 C336 C 0.64222 -0.14919 0.62239
 H337 H 0.62684 -0.29239 0.69374
 H338 H 0.56062 -0.20679 0.64189
 H339 H 0.72623 -0.18258 0.71388
 H340 H 0.69517 -0.14179 0.62799
 C341 C 0.70883 0.28502 0.21000
 C342 C 0.68493 0.34727 0.21784
 C343 C 0.64893 0.38619 0.17319
 C344 C 0.61281 0.35825 0.13219
 H345 H 0.69528 0.37259 0.25679
 H346 H 0.65225 0.43972 0.17464
 H347 H 0.69841 0.26141 0.17022
 H348 H 0.60535 0.30529 0.13240
 C349 C 0.79575 0.19801 0.21990
 C350 C 0.77292 0.14513 0.19222
 C351 C 0.81278 0.10694 0.15194
 C352 C 0.85814 0.13516 0.12008
 H353 H 0.72226 0.12985 0.19794
 H354 H 0.79865 0.05634 0.14385
 H355 H 0.84689 0.21216 0.21437
 H356 H 0.86866 0.18726 0.12467
 C357 C 0.78175 0.67460 0.71009
 C358 C 0.82911 0.70285 0.67964
 C359 C 0.86486 0.67166 0.63288
 C360 C 0.86840 0.60647 0.62301
 H361 H 0.84013 0.75440 0.68726
 H362 H 0.89071 0.70506 0.60576
 H363 H 0.76658 0.62457 0.70127
 H364 H 0.84529 0.57181 0.65073
 C365 C 0.30476 0.20097 0.71984
 C366 C 0.35759 0.22601 0.69478
 C367 C 0.39773 0.18747 0.65438
 C368 C 0.37074 0.14279 0.61968
 H369 H 0.37112 0.27671 0.70302
 H370 H 0.44917 0.20084 0.64964
 H371 H 0.29267 0.14986 0.71151
 H372 H 0.31796 0.13332 0.62095
 C373 C 0.28190 0.72500 0.21246
 C374 C 0.33106 0.74811 0.17664
 C375 C 0.36081 0.71068 0.13398
 C376 C 0.35258 0.64255 0.12592
 H377 H 0.34543 0.79933 0.18027
 H378 H 0.39293 0.73682 0.10608
 H379 H 0.26115 0.67716 0.20343
 H380 H 0.32548 0.61396 0.15574
   
