data_POSCAR
  _audit_creation_date              2014-09-24
  _audit_creation_method            'ToBaCCo'
  _symmetry_space_group_name_H-M    'P1'
  _symmetry_Int_Tables_number       1
  _symmetry_cell_setting            triclinic
  loop_
  _symmetry_equiv_pos_as_xyz
 x,y,z
_cell_length_a 16.3802
_cell_length_b 16.3789
_cell_length_c 16.4662
_cell_angle_alpha 94.378500
_cell_angle_beta 85.660800
_cell_angle_gamma 93.797500
loop_
  _atom_site_label
  _atom_site_type_symbol
  _atom_site_fract_x
  _atom_site_fract_y
  _atom_site_fract_z
C1 C 0.44719 0.95010 -0.69777
 C2 C 0.38592 0.97387 -0.63747
 C3 C 0.40847 0.99397 -0.55767
 C4 C 0.49173 1.00418 -0.54013
 C5 C 0.55206 0.98777 -0.60373
 C6 C 0.53048 0.95470 -0.68064
 C7 C 0.51539 1.03017 -0.45556
 C8 C 0.59184 1.01281 -0.42960
 C9 C 0.61301 1.03461 -0.34977
 C10 C 0.55370 1.06742 -0.29181
 C11 C 0.47713 1.08543 -0.31693
 C12 C 0.46068 1.07070 -0.39901
 H13 H 0.43039 0.92862 -0.75841
 H14 H 0.36038 1.00371 -0.51004
 H15 H 0.61613 0.99792 -0.59306
 H16 H 0.63548 0.98030 -0.47021
 H17 H 0.56766 1.08136 -0.22882
 H18 H 0.40324 1.08942 -0.41742
 C19 C -0.69750 1.55792 0.06023
 C20 C -0.68170 1.47435 0.06152
 C21 C -0.60311 1.44955 0.03523
 C22 C -0.54232 1.50471 0.00166
 C23 C -0.56233 1.58645 -0.00428
 C24 C -0.63795 1.61478 0.02710
 C25 C -0.45822 1.47797 -0.02669
 C26 C -0.39216 1.53694 -0.03751
 C27 C -0.31406 1.51420 -0.06654
 C28 C -0.29907 1.43074 -0.07731
 C29 C -0.36182 1.37042 -0.06077
 C30 C -0.44185 1.39408 -0.04061
 H31 H -0.75712 1.57787 0.08304
 H32 H -0.58962 1.38733 0.04322
 H33 H -0.52028 1.62883 -0.03576
 H34 H -0.40004 1.60120 -0.02294
 H35 H -0.23772 1.41276 -0.09638
 H36 H -0.48966 1.34612 -0.03338
 C37 C -0.07238 0.29355 0.54129
 C38 C -0.09238 0.32551 0.46834
 C39 C -0.08130 0.41058 0.46121
 C40 C -0.03731 0.46146 0.51700
 C41 C -0.02101 0.42955 0.59027
 C42 C -0.04357 0.34794 0.60547
 C43 C -0.00373 0.54494 0.49572
 C44 C 0.01830 0.60571 0.55673
 C45 C 0.05963 0.68004 0.53631
 C46 C 0.06976 0.69754 0.45353
 C47 C 0.04249 0.64029 0.39223
 C48 C 0.01091 0.56293 0.41327
 H49 H -0.08466 0.22891 0.55012
 H50 H -0.10107 0.43616 0.40792
 H51 H 0.01092 0.46699 0.63611
 H52 H 0.00567 0.59449 0.62024
 H53 H 0.09746 0.75632 0.43656
 H54 H -0.00308 0.51767 0.36429
 O55 O -0.17683 0.96508 -0.13794
 O56 O 0.23005 1.06569 -0.06535
 O57 O 0.01655 1.13091 -0.18297
 O58 O 0.07586 0.92883 -0.22033
 O59 O 0.07519 0.81553 -0.14566
 O60 O -0.02718 1.21204 -0.06973
 O61 O 0.15399 1.06154 -0.17801
 O62 O -0.06263 1.00958 -0.21675
 Zr63 Zr 0.03382 1.01983 -0.13552
 O64 O 0.10776 0.95697 -0.06958
 O65 O -0.06745 1.05889 -0.06724
 C66 C -0.14102 0.99075 -0.20454
 C67 C 0.22204 1.07474 -0.14172
 C68 C -0.01048 1.19795 -0.14814
 C69 C 0.08723 0.85267 -0.21328
 H70 H 0.10431 1.14760 -0.06267
 O71 O 0.07296 1.09902 -0.04162
 H72 H -0.05399 0.88298 -0.14366
 O73 O -0.03543 0.91897 -0.09676
 O74 O 0.18193 1.03162 0.14603
 O75 O -0.22079 0.92391 0.06794
 O76 O 0.05802 1.22656 0.06451
 O77 O 0.15287 0.82332 -0.01633
 O78 O -0.05139 0.76701 -0.05578
 O79 O -0.14626 1.17009 0.01273
 O80 O -0.06347 1.07201 0.22906
 O81 O -0.01633 0.86005 0.18584
 O82 O -0.06957 1.17968 0.14790
 O83 O 0.02739 0.77975 0.07144
 O84 O 0.17798 1.16011 0.06286
 O85 O -0.22042 1.05029 -0.02413
 O86 O -0.17114 0.83332 -0.05311
 O87 O 0.22888 0.94193 0.02111
 O88 O 0.06636 0.99143 0.22596
 O89 O -0.15117 0.93785 0.18520
 Zr90 Zr 0.14152 1.03483 0.02864
 Zr91 Zr -0.13368 0.95896 -0.02317
 Zr92 Zr -0.02900 1.13412 0.02892
 Zr93 Zr 0.03529 0.86051 -0.02462
 Zr94 Zr -0.02832 0.97587 0.14279
 O95 O -0.06678 0.89486 0.04833
 O96 O 0.04220 1.07630 0.10222
 C97 C 0.14482 1.01017 0.21413
 C98 C -0.21719 0.92107 0.14559
 C99 C 0.13563 1.22543 0.07377
 C100 C 0.21958 0.86260 0.00504
 C101 C -0.12906 0.76798 -0.06318
 C102 C -0.21154 1.12977 -0.01180
 C103 C -0.07822 1.14703 0.21788
 C104 C 0.00860 0.79215 0.14954
 H105 H -0.14940 1.05747 0.10593
 O106 O -0.10025 1.03753 0.07388
 H107 H 0.10623 0.90565 0.10527
 O108 O 0.07268 0.93618 0.07230
 N109 N 0.17577 1.00605 0.35747
 N110 N 0.24036 0.99556 0.39888
 C111 C 0.30431 0.98125 0.34360
 C112 C 0.27649 0.98411 0.26699
 N113 N 0.19689 1.00045 0.27824
 H114 H 0.31101 0.97800 0.20836
 N115 N -0.35702 0.86648 0.15007
 N116 N -0.42738 0.87907 0.19246
 C117 C -0.40954 0.92550 0.26064
 C118 C -0.32457 0.93946 0.25910
 N119 N -0.29442 0.90187 0.18871
 H120 H -0.28901 0.97993 0.29995
 N121 N -0.17140 1.01099 -0.34480
 N122 N -0.23636 1.02307 -0.38481
 C123 C -0.30219 1.02284 -0.32990
 C124 C -0.27562 1.00977 -0.25522
 N125 N -0.19413 1.00215 -0.26708
 H126 H -0.31181 1.00642 -0.19761
 N127 N 0.29226 1.16738 -0.23551
 N128 N 0.36277 1.17536 -0.27981
 C129 C 0.41042 1.11657 -0.26019
 C130 C 0.36587 1.07164 -0.20213
 N131 N 0.29272 1.10519 -0.18900
 H132 H 0.38103 1.01453 -0.17959
 N133 N 0.13443 1.36800 0.12332
 N134 N 0.18097 1.43688 0.11898
 C135 C 0.25535 1.41648 0.08596
 C136 C 0.25274 1.33132 0.07135
 N137 N 0.17593 1.30386 0.09499
 H138 H 0.29849 1.29415 0.03864
 N139 N 0.36288 0.82499 -0.00752
 N140 N 0.40216 0.75700 -0.00429
 C141 C 0.34642 0.69798 0.02182
 C142 C 0.27213 0.73293 0.03555
 N143 N 0.28459 0.81136 0.01617
 H144 H 0.21290 0.70326 0.05239
 N145 N -0.12855 0.62898 -0.12310
 N146 N -0.17481 0.55972 -0.12362
 C147 C -0.24721 0.57710 -0.08386
 C148 C -0.24409 0.66041 -0.05980
 N149 N -0.16893 0.69010 -0.08555
 H150 H -0.28905 0.69483 -0.02252
 N151 N -0.35213 1.15356 -0.04512
 N152 N -0.39392 1.21700 -0.06038
 C153 C -0.34141 1.28429 -0.05588
 C154 C -0.26726 1.26025 -0.03608
 N155 N -0.27612 1.17898 -0.02952
 H156 H -0.21213 1.29860 -0.02540
 N157 N -0.15562 1.25943 0.27634
 N158 N -0.16223 1.30813 0.34379
 C159 C -0.11921 1.27713 0.39988
 C160 C -0.08652 1.20555 0.36385
 N161 N -0.10965 1.19816 0.28622
 H162 H -0.04101 1.17022 0.38715
 N163 N -0.03548 1.33739 -0.17865
 N164 N -0.04430 1.37838 -0.24344
 C165 C -0.03853 1.32455 -0.30993
 C166 C -0.02588 1.24900 -0.28366
 N167 N -0.02377 1.25978 -0.20168
 H168 H -0.01785 1.19202 -0.32042
 N169 N 0.15212 0.84424 -0.34901
 N170 N 0.14144 0.80195 -0.41943
 C171 C 0.09059 0.73625 -0.40312
 C172 C 0.07213 0.73892 -0.31913
 N173 N 0.11145 0.80757 -0.28791
 H174 H 0.02701 0.70102 -0.28531
 N175 N 0.03297 0.65094 0.17663
 N176 N 0.04445 0.60883 0.24016
 C177 C 0.04148 0.66229 0.30692
 C178 C 0.02638 0.73793 0.28246
 N179 N 0.02098 0.72832 0.20120
 H180 H 0.01825 0.79424 0.32033
   
