data_POSCAR
  _audit_creation_date              2014-09-24
  _audit_creation_method            'ToBaCCo'
  _symmetry_space_group_name_H-M    'P1'
  _symmetry_Int_Tables_number       1
  _symmetry_cell_setting            triclinic
  loop_
  _symmetry_equiv_pos_as_xyz
 x,y,z
_cell_length_a 26.8684
_cell_length_b 26.8965
_cell_length_c 72.5679
_cell_angle_alpha 84.533900
_cell_angle_beta 92.762300
_cell_angle_gamma 120.069000
loop_
  _atom_site_label
  _atom_site_type_symbol
  _atom_site_fract_x
  _atom_site_fract_y
  _atom_site_fract_z
C1 C 0.00204 0.11804 0.52217
 H2 H 0.04449 0.12318 0.52135
 C3 C -0.00769 0.15062 0.53380
 H4 H 0.02736 0.18095 0.54199
 C5 C -0.09588 0.07093 0.51291
 H6 H -0.13008 0.03955 0.50481
 C7 C -0.10756 0.10266 0.52448
 H8 H -0.15083 0.09548 0.52536
 N9 N -0.04195 0.07840 0.51229
 C10 C -0.00394 -0.05961 0.50774
 H11 H -0.00150 -0.05978 0.49291
 C12 C -0.00031 -0.10193 0.51959
 H13 H 0.00525 -0.13464 0.51391
 C14 C -0.01691 -0.01862 0.53334
 H15 H -0.02484 0.01283 0.53871
 C16 C -0.01337 -0.05986 0.54561
 H17 H -0.01809 -0.05956 0.56034
 Zn18 Zn -0.02337 0.03380 0.49842
 N19 N -0.01217 -0.01909 0.51478
 C20 C 0.09072 0.07792 0.48474
 N21 N 0.04431 0.08554 0.48489
 C22 C 0.04381 0.13074 0.47491
 C23 C 0.09023 0.16918 0.46360
 C24 C 0.13816 0.11545 0.47353
 C25 C -0.13384 -0.05413 0.48859
 C26 C -0.17591 -0.09067 0.47656
 C27 C -0.11321 -0.03381 0.45080
 C28 C -0.07244 0.00131 0.46328
 N29 N -0.08312 -0.00945 0.48180
 H30 H 0.09054 0.04217 0.49295
 H31 H 0.00650 0.13593 0.47539
 H32 H 0.08868 0.20407 0.45530
 H33 H 0.17431 0.10831 0.47303
 H34 H -0.14079 -0.06246 0.50339
 H35 H -0.21548 -0.12703 0.48215
 H36 H -0.10336 -0.02537 0.43613
 H37 H -0.03157 0.03597 0.45810
 C38 C -0.00541 -0.10211 0.53870
 C39 C -0.06307 0.14237 0.53516
 C40 C -0.16514 -0.08068 0.45748
 C41 C 0.13749 0.16106 0.46272
 C42 C 1.15869 0.06299 0.14322
 H43 H 1.16407 0.10557 0.14346
 C44 C 1.19385 0.05438 0.13197
 H45 H 1.22641 0.09043 0.12347
 C46 C 1.10843 -0.03638 0.15359
 H47 H 1.07487 -0.07159 0.16197
 C48 C 1.14268 -0.04692 0.14244
 H49 H 1.13522 -0.09033 0.14214
 N50 N 1.11624 0.01774 0.15344
 C51 C 0.97709 0.05547 0.15658
 H52 H 0.97300 0.05519 0.17135
 C53 C 0.93722 0.06025 0.14448
 H54 H 0.90249 0.06398 0.14992
 C55 C 1.02520 0.04761 0.13141
 H56 H 1.05836 0.04101 0.12633
 C57 C 0.98653 0.05243 0.11890
 H58 H 0.99048 0.04998 0.10427
 Zn59 Zn 1.06813 0.03440 0.16670
 N60 N 1.01984 0.04901 0.14988
 C61 C 1.10847 0.14553 0.17983
 N62 N 1.11631 0.09925 0.17996
 C63 C 1.15881 0.09653 0.19017
 C64 C 1.19401 0.14034 0.20143
 C65 C 1.14276 0.19038 0.19098
 C66 C 0.97712 -0.07778 0.17686
 C67 C 0.93731 -0.12242 0.18896
 C68 C 0.98679 -0.06513 0.21453
 C69 C 1.02539 -0.02165 0.20200
 N70 N 1.01992 -0.02850 0.18353
 H71 H 1.07486 0.14712 0.17146
 H72 H 1.16421 0.05935 0.18993
 H73 H 1.22661 0.13691 0.20992
 H74 H 1.13526 0.22629 0.19129
 H75 H 0.97294 -0.08165 0.16208
 H76 H 0.90254 -0.16093 0.18354
 H77 H 0.99083 -0.05866 0.22916
 H78 H 1.05858 0.01816 0.20707
 C79 C 0.94182 0.05820 0.12548
 C80 C 1.18527 -0.00115 0.13137
 C81 C 0.94204 -0.11567 0.20796
 C82 C 1.18541 0.18727 0.20204
 C83 C 0.04331 0.91245 0.85834
 H84 H 0.00601 0.86991 0.85783
 C85 C 0.08968 0.92050 0.86969
 H86 H 0.08812 0.88407 0.87800
 C87 C 0.09023 1.01222 0.84852
 H88 H 0.09008 1.04778 0.84029
 C89 C 0.13763 1.02220 0.85976
 H90 H 0.17376 1.06553 0.86028
 N91 N 0.04383 0.95814 0.84834
 C92 C -0.13432 0.91941 0.84447
 H93 H -0.14120 0.92078 0.82966
 C94 C -0.17649 0.91374 0.85646
 H95 H -0.21607 0.91044 0.85087
 C96 C -0.07302 0.92553 0.86985
 H97 H -0.03215 0.93184 0.87507
 C98 C -0.11391 0.91973 0.88227
 H99 H -0.10426 0.92116 0.89696
 Zn100 Zn -0.02377 0.94213 0.83475
 N101 N -0.08361 0.92556 0.85132
 C102 C -0.09618 0.83244 0.82022
 N103 N -0.04227 0.87897 0.82088
 C104 C 0.00177 0.88344 0.81102
 C105 C -0.00789 0.84120 0.79936
 C106 C -0.10778 0.78909 0.80863
 C107 C -0.00433 1.05497 0.82541
 C108 C -0.00070 1.10089 0.81356
 C109 C -0.01361 1.04575 0.78754
 C110 C -0.01717 1.00098 0.79982
 N111 N -0.01251 1.00621 0.81839
 H112 H -0.13041 0.82953 0.82831
 H113 H 0.04419 0.92082 0.81187
 H114 H 0.02719 0.84603 0.79118
 H115 H -0.15104 0.75293 0.80772
 H116 H -0.00192 1.05760 0.84024
 H117 H 0.00481 1.13917 0.81923
 H118 H -0.01827 1.04073 0.77281
 H119 H -0.02503 0.96161 0.79446
 C120 C -0.16582 0.91449 0.87554
 C121 C 0.13692 0.97593 0.87060
 C122 C -0.00574 1.09594 0.79445
 C123 C -0.06324 0.79400 0.79797
 C124 C 0.38933 -0.01452 0.00076
 C125 C 0.41628 -0.00755 -0.01601
 C126 C 0.46879 -0.00669 -0.01615
 C127 C 0.49402 -0.01490 0.00056
 C128 C 0.46546 -0.02293 0.01737
 C129 C 0.41399 -0.02169 0.01744
 C130 C 0.54967 -0.01502 0.00045
 C131 C 0.58762 0.00248 0.01571
 C132 C 0.63919 0.00143 0.01568
 C133 C 0.65453 -0.01504 0.00022
 C134 C 0.61814 -0.03152 -0.01514
 C135 C 0.56555 -0.03255 -0.01494
 H136 H 0.34904 -0.01435 0.00084
 H137 H 0.48973 0.00078 -0.02931
 H138 H 0.48261 -0.03049 0.03046
 H139 H 0.57776 0.01737 0.02761
 H140 H 0.69492 -0.01502 0.00012
 H141 H 0.53729 -0.04741 -0.02676
 C142 C -0.06264 0.60097 0.66674
 C143 C -0.07491 0.56478 0.68302
 C144 C -0.07691 0.51178 0.68290
 C145 C -0.06443 0.49533 0.66658
 C146 C -0.05112 0.53310 0.65033
 C147 C -0.05122 0.58508 0.65039
 C148 C -0.06443 0.43968 0.66656
 C149 C -0.07688 0.41073 0.65024
 C150 C -0.07496 0.35968 0.65015
 C151 C -0.06277 0.33576 0.66643
 C152 C -0.05132 0.36312 0.68278
 C153 C -0.05116 0.41523 0.68283
 H154 H -0.06148 0.64186 0.66684
 H155 H -0.08819 0.48381 0.69558
 H156 H -0.03988 0.52293 0.63765
 H157 H -0.08808 0.42745 0.63754
 H158 H -0.06170 0.29598 0.66635
 H159 H -0.03990 0.43667 0.69551
 C160 C 0.65554 0.67027 0.33331
 C161 C 0.64006 0.63844 0.31784
 C162 C 0.58841 0.58585 0.31780
 C163 C 0.55052 0.56543 0.33307
 C164 C 0.56656 0.59887 0.34846
 C165 C 0.61923 0.65041 0.34866
 C166 C 0.49478 0.50970 0.33295
 C167 C 0.46956 0.47625 0.34965
 C168 C 0.41698 0.42461 0.34950
 C169 C 0.38995 0.40467 0.33272
 C170 C 0.41460 0.43653 0.31605
 C171 C 0.46614 0.48922 0.31613
 H172 H 0.69599 0.71062 0.33340
 H173 H 0.57844 0.56108 0.30590
 H174 H 0.53836 0.58550 0.36029
 H175 H 0.49055 0.48968 0.36282
 H176 H 0.34961 0.36421 0.33263
 H177 H 0.48329 0.51396 0.30305
 C178 C -0.08265 0.22725 0.57578
 C179 C -0.07211 0.20269 0.59456
 C180 C -0.07345 0.23031 0.60911
 C181 C -0.08521 0.27994 0.60352
 C182 C -0.14177 0.25270 0.59253
 C183 C -0.14042 0.22492 0.57791
 C184 C -0.03740 0.29164 0.57459
 C185 C -0.03875 0.31932 0.58917
 C186 C -0.07963 0.19722 0.56040
 C187 C -0.07385 0.17225 0.54847
 C188 C -0.08517 0.30945 0.61952
 C189 C -0.08209 0.33289 0.63323
 H190 H -0.06437 0.16657 0.59630
 H191 H -0.06688 0.21783 0.62329
 H192 H -0.17940 0.25508 0.59591
 H193 H -0.17688 0.20351 0.56875
 H194 H -0.00709 0.31361 0.56325
 H195 H -0.00961 0.36500 0.59032
 C196 C 0.82248 0.77483 0.24699
 C197 C 0.83797 0.80455 0.26510
 C198 C 0.79988 0.77364 0.27903
 C199 C 0.74983 0.71587 0.27356
 C200 C 0.77840 0.68440 0.26627
 C201 C 0.81668 0.71547 0.25228
 C202 C 0.76107 0.76237 0.24249
 C203 C 0.72287 0.73137 0.25646
 C204 C 0.86409 0.80988 0.23224
 C205 C 0.89924 0.84210 0.22078
 C206 C 0.70924 0.68412 0.28885
 C207 C 0.67703 0.66145 0.30186
 H208 H 0.87571 0.84633 0.26684
 H209 H 0.80500 0.78896 0.29269
 H210 H 0.76929 0.64156 0.27159
 H211 H 0.84036 0.69925 0.24560
 H212 H 0.74864 0.77648 0.22945
 H213 H 0.67772 0.71893 0.25539
 C214 C 0.25726 -0.00654 -0.08965
 C215 C 0.27417 -0.05334 -0.08926
 C216 C 0.30964 -0.05142 -0.07493
 C217 C 0.32472 -0.00288 -0.06240
 C218 C 0.26659 -0.01229 -0.05623
 C219 C 0.23120 -0.01421 -0.07053
 C220 C 0.31452 0.05065 -0.08981
 C221 C 0.35007 0.05258 -0.07545
 C222 C 0.21766 -0.00979 -0.10473
 C223 C 0.18225 -0.01496 -0.11640
 C224 C 0.36139 -0.00191 -0.04664
 C225 C 0.38824 -0.00333 -0.03301
 H226 H 0.25971 -0.08509 -0.09938
 H227 H 0.32556 -0.08150 -0.07278
 H228 H 0.25429 -0.01696 -0.04186
 H229 H 0.18863 -0.02052 -0.06839
 H230 H 0.32612 0.08634 -0.10026
 H231 H 0.39215 0.08992 -0.07359
 C232 C -0.01391 0.77313 0.57775
 C233 C -0.02707 0.78627 0.59644
 C234 C -0.03307 0.74671 0.61058
 C235 C -0.02534 0.69769 0.60472
 C236 C 0.03399 0.72781 0.59540
 C237 C 0.04001 0.76756 0.58119
 C238 C -0.06271 0.71185 0.57477
 C239 C -0.06873 0.67216 0.58896
 C240 C -0.00839 0.81643 0.56283
 C241 C -0.00591 0.85311 0.55136
 C242 C -0.03262 0.65566 0.62030
 C243 C -0.04026 0.62262 0.63373
 H244 H -0.03129 0.82351 0.59841
 H245 H -0.04244 0.75009 0.62465
 H246 H 0.06811 0.71863 0.59955
 H247 H 0.07929 0.79243 0.57316
 H248 H -0.08999 0.70058 0.56257
 H249 H -0.10117 0.62691 0.58892
 C250 C 0.27641 0.29754 0.24191
 C251 C 0.34080 0.31711 0.24204
 C252 C 0.37005 0.34877 0.25646
 C253 C 0.33205 0.35775 0.26934
 C254 C 0.28346 0.29686 0.27535
 C255 C 0.25428 0.26528 0.26097
 C256 C 0.27375 0.35320 0.24221
 C257 C 0.30307 0.38493 0.25666
 C258 C 0.24456 0.26190 0.22674
 C259 C 0.21780 0.22944 0.21504
 C260 C 0.36305 0.39016 0.28521
 C261 C 0.38731 0.41325 0.29894
 H262 H 0.36162 0.30715 0.23168
 H263 H 0.41593 0.36592 0.25845
 H264 H 0.27279 0.28001 0.28969
 H265 H 0.21865 0.22141 0.26300
 H266 H 0.25098 0.36652 0.23198
 H267 H 0.30543 0.42544 0.25882
 C268 C 0.73573 -0.07662 -0.08627
 C269 C 0.72583 -0.02511 -0.09015
 C270 C 0.69831 -0.01821 -0.07616
 C271 C 0.68340 -0.06349 -0.05965
 C272 C 0.74071 -0.05980 -0.05382
 C273 C 0.76814 -0.06669 -0.06778
 C274 C 0.67582 -0.12882 -0.08197
 C275 C 0.64824 -0.12190 -0.06794
 C276 C 0.76720 -0.08284 -0.10102
 C277 C 0.79692 -0.08536 -0.11241
 C278 C 0.65559 -0.05489 -0.04432
 C279 C 0.63651 -0.04546 -0.03123
 H280 H 0.73904 0.00329 -0.10280
 H281 H 0.68796 0.01610 -0.07682
 H282 H 0.75822 -0.05250 -0.03991
 H283 H 0.80914 -0.06529 -0.06580
 H284 H 0.65674 -0.16762 -0.08930
 H285 H 0.60552 -0.15478 -0.06326
 C286 C 0.27610 -0.02049 0.09151
 C287 C 0.27676 -0.07738 0.09195
 C288 C 0.30601 -0.07985 0.07751
 C289 C 0.33162 -0.02518 0.06410
 C290 C 0.36882 0.02442 0.07623
 C291 C 0.33963 0.02688 0.09064
 C292 C 0.25143 -0.01442 0.07247
 C293 C 0.28055 -0.01689 0.05809
 C294 C 0.24433 -0.01664 0.10667
 C295 C 0.21761 -0.01093 0.11837
 C296 C 0.36256 -0.02667 0.04825
 C297 C 0.38677 -0.02559 0.03453
 H298 H 0.25616 -0.11250 0.10265
 H299 H 0.31049 -0.11709 0.07582
 H300 H 0.41413 0.05482 0.07376
 H301 H 0.35995 0.05940 0.10051
 H302 H 0.21418 -0.00880 0.07044
 H303 H 0.26821 -0.01338 0.04376
 C304 C 0.73763 0.81329 0.41978
 C305 C 0.67299 0.79278 0.41881
 C306 C 0.64523 0.75824 0.40478
 C307 C 0.68496 0.74776 0.39318
 C308 C 0.71367 0.72352 0.40719
 C309 C 0.74133 0.75794 0.42116
 C310 C 0.76091 0.84248 0.40047
 C311 C 0.73329 0.80811 0.38652
 C312 C 0.76930 0.85104 0.43452
 C313 C 0.79916 0.88336 0.44589
 C314 C 0.65697 0.71132 0.37785
 C315 C 0.63775 0.68276 0.36476
 H316 H 0.65104 0.80426 0.42828
 H317 H 0.59947 0.74012 0.40224
 H318 H 0.71218 0.68274 0.40625
 H319 H 0.76354 0.74664 0.43220
 H320 H 0.79600 0.88646 0.39797
 H321 H 0.74472 0.82267 0.37207
 C322 C -0.01425 0.21220 0.75541
 C323 C -0.02319 0.18798 0.73646
 C324 C -0.02911 0.22163 0.72233
 C325 C -0.02555 0.27635 0.72846
 C326 C 0.03217 0.30700 0.73869
 C327 C 0.03812 0.27320 0.75288
 C328 C -0.06564 0.22118 0.75772
 C329 C -0.07158 0.25492 0.74355
 C330 C -0.00877 0.17438 0.77031
 C331 C -0.00628 0.14018 0.78177
 C332 C -0.03278 0.31115 0.71288
 C333 C -0.04039 0.33656 0.69945
 H334 H -0.02469 0.14784 0.73433
 H335 H -0.03570 0.21027 0.70810
 H336 H 0.06529 0.35128 0.73513
 H337 H 0.07634 0.28850 0.76150
 H338 H -0.09468 0.20282 0.76948
 H339 H -0.10571 0.26547 0.74316
 C340 C 0.82200 0.04788 0.08649
 C341 C 0.79088 0.08215 0.08799
 C342 C 0.75250 0.07484 0.07399
 C343 C 0.74920 0.03402 0.05994
 C344 C 0.73564 -0.02214 0.07150
 C345 C 0.77386 -0.01486 0.08544
 C346 C 0.84942 0.06660 0.06717
 C347 C 0.81121 0.05932 0.05324
 C348 C 0.86371 0.05455 0.10123
 C349 C 0.89894 0.05755 0.11268
 C350 C 0.70853 0.02507 0.04466
 C351 C 0.67625 0.01546 0.03165
 H352 H 0.79826 0.10960 0.09904
 H353 H 0.72698 0.09600 0.07305
 H354 H 0.69906 -0.06399 0.06899
 H355 H 0.76999 -0.05047 0.09487
 H356 H 0.89496 0.08420 0.06466
 H357 H 0.82403 0.07067 0.03879
 C358 C 0.25799 0.26424 0.42307
 C359 C 0.31415 0.26236 0.42277
 C360 C 0.34972 0.29607 0.40843
 C361 C 0.32549 0.32821 0.39586
 C362 C 0.31245 0.36202 0.40887
 C363 C 0.27695 0.32838 0.42318
 C364 C 0.23101 0.24751 0.40393
 C365 C 0.26641 0.28105 0.38966
 C366 C 0.21835 0.22777 0.43812
 C367 C 0.18289 0.19743 0.44975
 C368 C 0.36215 0.36398 0.38011
 C369 C 0.38897 0.39230 0.36649
 H370 H 0.32505 0.23697 0.43292
 H371 H 0.39110 0.29956 0.40629
 H372 H 0.32973 0.40831 0.40705
 H373 H 0.26383 0.34587 0.43361
 H374 H 0.18781 0.21225 0.40176
 H375 H 0.25351 0.27449 0.37527
 C376 C -0.08264 0.68954 0.75735
 C377 C -0.03883 0.66859 0.75892
 C378 C -0.04015 0.63951 0.74436
 C379 C -0.08517 0.63422 0.72964
 C380 C -0.07128 0.69633 0.72411
 C381 C -0.06996 0.72534 0.73865
 C382 C -0.14109 0.63519 0.75479
 C383 C -0.14242 0.60603 0.74019
 C384 C -0.07967 0.72262 0.77273
 C385 C -0.07394 0.75337 0.78465
 C386 C -0.08510 0.60474 0.71365
 C387 C -0.08203 0.58440 0.69994
 H388 H -0.00947 0.67578 0.77050
 H389 H -0.01195 0.62177 0.74345
 H390 H -0.06328 0.71584 0.70998
 H391 H -0.06083 0.76968 0.73695
 H392 H -0.17801 0.62087 0.76366
 H393 H -0.18048 0.56671 0.73653
   
