data_POSCAR
  _audit_creation_date              2014-09-24
  _audit_creation_method            'ToBaCCo'
  _symmetry_space_group_name_H-M    'P1'
  _symmetry_Int_Tables_number       1
  _symmetry_cell_setting            triclinic
  loop_
  _symmetry_equiv_pos_as_xyz
 x,y,z
_cell_length_a 54.5429
_cell_length_b 54.5628
_cell_length_c 54.4497
_cell_angle_alpha 89.976700
_cell_angle_beta 90.034900
_cell_angle_gamma 89.985600
loop_
  _atom_site_label
  _atom_site_type_symbol
  _atom_site_fract_x
  _atom_site_fract_y
  _atom_site_fract_z
C1 C 0.19097 0.16136 0.18861
 C2 C 0.18041 0.15142 0.20989
 C3 C 0.15922 0.16188 0.22062
 C4 C 0.14902 0.18288 0.20928
 C5 C 0.15939 0.19295 0.18797
 C6 C 0.18039 0.18211 0.17756
 C7 C 0.21195 0.15067 0.17819
 C8 C 0.22266 0.16024 0.15655
 C9 C 0.21166 0.18112 0.14575
 C10 C 0.19075 0.19199 0.15603
 C11 C 0.18006 0.21268 0.14507
 C12 C 0.15903 0.22356 0.15525
 C13 C 0.14883 0.21357 0.17674
 H14 H 0.18949 0.13601 0.21849
 H15 H 0.13228 0.19098 0.21619
 H16 H 0.21907 0.13414 0.18654
 H17 H 0.21975 0.18974 0.12979
 H18 H 0.18823 0.22045 0.12868
 H19 H 0.13242 0.22164 0.18453
 C20 C -0.18802 0.84083 0.19322
 C21 C -0.17686 0.85146 0.21386
 C22 C -0.15527 0.84146 0.22424
 C23 C -0.14526 0.82022 0.21322
 C24 C -0.15622 0.80946 0.19256
 C25 C -0.17762 0.81984 0.18247
 C26 C -0.20938 0.85107 0.18313
 C27 C -0.22069 0.84081 0.16212
 C28 C -0.20990 0.81969 0.15163
 C29 C -0.18858 0.80927 0.16158
 C30 C -0.17808 0.78834 0.15092
 C31 C -0.15664 0.77792 0.16076
 C32 C -0.14585 0.78860 0.18163
 H33 H -0.18580 0.86705 0.22227
 H34 H -0.12825 0.81244 0.21986
 H35 H -0.21636 0.86780 0.19119
 H36 H -0.21841 0.81056 0.13619
 H37 H -0.18670 0.78005 0.13503
 H38 H -0.12913 0.78089 0.18913
 C39 C -0.19295 0.15646 -0.19010
 C40 C -0.18196 0.14628 -0.21104
 C41 C -0.16119 0.15723 -0.22168
 C42 C -0.15154 0.17872 -0.21121
 C43 C -0.16239 0.18916 -0.19033
 C44 C -0.18319 0.17799 -0.17974
 C45 C -0.21359 0.14540 -0.17947
 C46 C -0.22488 0.15540 -0.15833
 C47 C -0.21478 0.17708 -0.14825
 C48 C -0.19414 0.18829 -0.15873
 C49 C -0.18413 0.20958 -0.14831
 C50 C -0.16333 0.22078 -0.15865
 C51 C -0.15262 0.21045 -0.17974
 H52 H -0.18969 0.12988 -0.21918
 H53 H -0.13534 0.18711 -0.21908
 H54 H -0.22124 0.12945 -0.18845
 H55 H -0.22213 0.18486 -0.13153
 H56 H -0.19269 0.21761 -0.13225
 H57 H -0.13639 0.21876 -0.18766
 C58 C 0.19163 0.84057 -0.19069
 C59 C 0.18166 0.85180 -0.21161
 C60 C 0.16038 0.84240 -0.22313
 C61 C 0.14950 0.82114 -0.21299
 C62 C 0.15932 0.80975 -0.19208
 C63 C 0.18046 0.81946 -0.18088
 C64 C 0.21252 0.85033 -0.17926
 C65 C 0.22246 0.83925 -0.15816
 C66 C 0.21129 0.81807 -0.14860
 C67 C 0.19038 0.80812 -0.15980
 C68 C 0.17908 0.78716 -0.15010
 C69 C 0.15796 0.77734 -0.16117
 C70 C 0.14826 0.78872 -0.18222
 H71 H 0.19006 0.86857 -0.21806
 H72 H 0.13384 0.81266 -0.22173
 H73 H 0.22122 0.86647 -0.18693
 H74 H 0.21862 0.80957 -0.13216
 H75 H 0.18648 0.77872 -0.13366
 H76 H 0.13216 0.78108 -0.19104
 C77 C 0.16154 1.19073 0.81138
 C78 C 0.15166 1.18018 0.79005
 C79 C 0.16215 1.15900 0.77935
 C80 C 0.18315 1.14882 0.79072
 C81 C 0.19323 1.15925 0.81200
 C82 C 0.18239 1.18027 0.82236
 C83 C 0.15084 1.21171 0.82174
 C84 C 0.16051 1.22258 0.84326
 C85 C 0.18150 1.21173 0.85399
 C86 C 0.19237 1.19079 0.84377
 C87 C 0.21299 1.18006 0.85483
 C88 C 0.22384 1.15897 0.84474
 C89 C 0.21385 1.14872 0.82326
 H90 H 0.13624 1.18925 0.78144
 H91 H 0.19126 1.13208 0.78384
 H92 H 0.13544 1.21993 0.81229
 H93 H 0.18898 1.21874 0.87101
 H94 H 0.22078 1.18828 0.87120
 H95 H 0.22191 1.13229 0.81553
 C96 C 0.84120 0.81194 0.80672
 C97 C 0.85171 0.82321 0.78607
 C98 C 0.84161 0.84484 0.77588
 C99 C 0.82043 0.85477 0.78708
 C100 C 0.80979 0.84368 0.80773
 C101 C 0.82025 0.82224 0.81763
 C102 C 0.85169 0.79069 0.81681
 C103 C 0.84158 0.77929 0.83784
 C104 C 0.82038 0.78990 0.84839
 C105 C 0.80979 0.81116 0.83851
 C106 C 0.78880 0.82148 0.84923
 C107 C 0.77818 0.84285 0.83945
 C108 C 0.78879 0.85380 0.81864
 H109 H 0.86845 0.81548 0.77876
 H110 H 0.81141 0.87067 0.77935
 H111 H 0.86844 0.78384 0.80868
 H112 H 0.81134 0.78129 0.86382
 H113 H 0.78058 0.81276 0.86511
 H114 H 0.78095 0.87048 0.81120
 C115 C 0.15620 0.80715 1.19059
 C116 C 0.14586 0.81807 1.21149
 C117 C 0.15663 0.83892 1.22217
 C118 C 0.17808 0.84872 1.21175
 C119 C 0.18864 0.83798 1.19089
 C120 C 0.17768 0.81707 1.18029
 C121 C 0.14532 0.78644 1.17992
 C122 C 0.15546 0.77524 1.15880
 C123 C 0.17711 0.78548 1.14880
 C124 C 0.18817 0.80618 1.15934
 C125 C 0.20943 0.81634 1.14899
 C126 C 0.22040 0.83725 1.15935
 C127 C 0.20989 0.84791 1.18037
 H128 H 0.12950 0.81022 1.21959
 H129 H 0.18632 0.86500 1.21964
 H130 H 0.12940 0.77867 1.18885
 H131 H 0.18500 0.77820 1.13210
 H132 H 0.21722 0.80821 1.13260
 H133 H 0.21840 0.86383 1.18867
 C134 C 0.84024 1.19223 1.19013
 C135 C 0.85148 1.18245 1.21114
 C136 C 0.84210 1.16127 1.22284
 C137 C 0.82087 1.15026 1.21276
 C138 C 0.80948 1.15986 1.19175
 C139 C 0.81921 1.18089 1.18035
 C140 C 0.84981 1.21322 1.17871
 C141 C 0.83872 1.22294 1.15751
 C142 C 0.81774 1.21147 1.14786
 C143 C 0.80794 1.19053 1.15910
 C144 C 0.78710 1.17903 1.14938
 C145 C 0.77735 1.15793 1.16054
 C146 C 0.78865 1.14851 1.18177
 H147 H 0.86705 1.19213 1.21874
 H148 H 0.81358 1.13348 1.22044
 H149 H 0.86620 1.22173 1.18605
 H150 H 0.80889 1.21899 1.13169
 H151 H 0.77833 1.18662 1.13320
 H152 H 0.78144 1.13206 1.19029
 O153 O 0.46558 0.95133 0.96086
 O154 O 0.43875 0.97480 0.98313
 C155 C 0.44353 0.95773 0.96728
 O156 O 0.53457 0.95365 1.04846
 O157 O 0.56130 0.97594 1.02488
 C158 C 0.55659 0.96014 1.04202
 O159 O 0.46553 0.95108 1.04592
 O160 O 0.43873 0.97469 1.02371
 C161 C 0.44350 0.95752 1.03947
 O162 O 0.53459 0.95392 0.95847
 O163 O 0.56132 0.97606 0.98221
 C164 C 0.55661 0.96037 0.96496
 Zr165 Zr 0.50006 0.96520 0.97241
 O166 O 0.50299 0.92650 0.97247
 O167 O 0.49723 0.96524 0.93363
 Zr168 Zr 0.50003 0.96504 1.03454
 O169 O 0.50295 0.92635 1.03440
 O170 O 0.49718 0.96498 1.07331
 O171 O 0.47822 0.96029 1.00344
 O172 O 0.52135 0.96067 1.00348
 O173 O 0.53441 1.03874 0.95871
 O174 O 0.56124 1.01655 0.98231
 C175 C 0.55645 1.03235 0.96517
 O176 O 0.46537 1.04087 1.04607
 O177 O 0.43864 1.01727 1.02379
 C178 C 0.44336 1.03441 1.03959
 O179 O 0.53440 1.03853 1.04861
 O180 O 0.56122 1.01643 1.02496
 C181 C 0.55644 1.03217 1.04214
 O182 O 0.46541 1.04106 0.96109
 O183 O 0.43866 1.01737 0.98323
 C184 C 0.44339 1.03456 0.96748
 Zr185 Zr 0.49993 1.02721 0.97254
 O186 O 0.50270 1.06591 0.97266
 O187 O 0.49710 1.02725 0.93376
 Zr188 Zr 0.49991 1.02705 1.03468
 O189 O 0.50268 1.06575 1.03482
 O190 O 0.49704 1.02680 1.07346
 Zr191 Zr 0.46362 0.99607 1.00350
 Zr192 Zr 0.53635 0.99619 1.00357
 O193 O 0.52120 1.03165 1.00364
 O194 O 0.47809 1.03190 1.00360
 O195 O 0.52182 0.99626 0.96768
 O196 O 0.47868 0.99600 1.03908
 O197 O 0.47871 0.99618 0.96795
 O198 O 0.52180 0.99607 1.03944
 H199 H 0.53258 0.94640 1.00346
 H200 H 0.46747 0.99595 1.05340
 H201 H 0.53235 1.04599 1.00368
 H202 H 0.46754 0.99620 0.95360
 H203 H 0.51080 0.97503 1.07980
 H204 H 0.51085 1.01695 1.07990
 H205 H 0.48911 1.07220 1.02464
 H206 H 0.48900 1.07231 0.98267
 H207 H 0.51083 1.01733 0.92729
 H208 H 0.51077 0.97544 0.92720
 H209 H 0.48921 0.92002 0.98232
 H210 H 0.48930 0.91992 1.02434
 O211 O 0.03954 0.53432 -0.04843
 O212 O 0.01739 0.56118 -0.02488
 C213 C 0.03320 0.55636 -0.04198
 O214 O -0.04812 0.46565 -0.04608
 O215 O -0.02462 0.43882 -0.02378
 C216 C -0.04174 0.44361 -0.03960
 O217 O -0.04539 0.53466 -0.04862
 O218 O -0.02313 0.56135 -0.02496
 C219 C -0.03889 0.55666 -0.04216
 O220 O 0.04173 0.46532 -0.04588
 O221 O 0.01798 0.43865 -0.02370
 C222 C 0.03520 0.44333 -0.03943
 Zr223 Zr 0.02790 0.49987 -0.03457
 O224 O 0.02773 0.49700 -0.07335
 O225 O 0.06662 0.50256 -0.03462
 Zr226 Zr -0.03412 0.50011 -0.03465
 O227 O -0.03406 0.49725 -0.07343
 O228 O -0.07282 0.50311 -0.03465
 O229 O -0.00302 0.52181 -0.03944
 O230 O -0.00318 0.47870 -0.03908
 O231 O 0.04160 0.46538 0.03908
 O232 O 0.01794 0.43868 0.01685
 C233 C 0.03508 0.44338 0.03267
 O234 O -0.04541 0.53470 0.04140
 O235 O -0.02315 0.56138 0.01773
 C236 C -0.03889 0.55669 0.03493
 O237 O -0.04814 0.46572 0.03900
 O238 O -0.02465 0.43884 0.01681
 C239 C -0.04175 0.44367 0.03261
 O240 O 0.03943 0.53436 0.04144
 O241 O 0.01735 0.56121 0.01776
 C242 C 0.03310 0.55640 0.03494
 Zr243 Zr 0.02786 0.49991 0.02758
 O244 O 0.02773 0.49710 0.06636
 O245 O 0.06658 0.50260 0.02762
 Zr246 Zr -0.03418 0.50015 0.02748
 O247 O -0.03432 0.49734 0.06626
 O248 O -0.07288 0.50316 0.02723
 Zr249 Zr -0.00300 0.53636 -0.00357
 Zr250 Zr -0.00326 0.46366 -0.00350
 O251 O -0.00324 0.47876 0.03205
 O252 O -0.00308 0.52185 0.03232
 O253 O 0.03261 0.47807 -0.00346
 O254 O -0.03856 0.52144 -0.00361
 O255 O 0.03245 0.52115 -0.00351
 O256 O -0.03903 0.47833 -0.00357
 H257 H -0.00320 0.46749 -0.05339
 H258 H -0.05281 0.53270 -0.00364
 H259 H -0.00328 0.46759 0.04640
 H260 H 0.04681 0.53226 -0.00349
 H261 H -0.07932 0.48947 -0.02461
 H262 H -0.07936 0.48935 0.01742
 H263 H -0.02402 0.51079 0.07272
 H264 H 0.01788 0.51089 0.07279
 H265 H 0.07299 0.48890 0.01761
 H266 H 0.07302 0.48904 -0.02435
 H267 H 0.01802 0.51088 -0.07982
 H268 H -0.02394 0.51083 -0.07987
 O269 O 0.95831 0.04629 0.53466
 O270 O 0.98197 0.02409 0.56143
 C271 C 0.96481 0.03984 0.55671
 O272 O 0.96063 -0.04095 0.46548
 O273 O 0.98273 -0.01733 0.43861
 C274 C 0.96699 -0.03448 0.44340
 O275 O 0.95832 -0.03857 0.53460
 O276 O 0.98197 -0.01642 0.56141
 C277 C 0.96482 -0.03218 0.55666
 O278 O 0.96058 0.04881 0.46553
 O279 O 0.98271 0.02525 0.43864
 C280 C 0.96693 0.04236 0.44344
 Zr281 Zr 0.97212 0.03493 0.50006
 O282 O 0.93341 0.03497 0.49729
 O283 O 0.97226 0.07362 0.50293
 Zr284 Zr 0.97210 -0.02708 0.50002
 O285 O 0.93338 -0.02696 0.49723
 O286 O 0.97208 -0.06578 0.50285
 O287 O 0.96736 0.00390 0.52191
 O288 O 0.96757 0.00394 0.47873
 O289 O 1.04552 0.04878 0.46536
 O290 O 1.02324 0.02523 0.43857
 C291 C 1.03904 0.04234 0.44331
 O292 O 1.04807 -0.03861 0.53445
 O293 O 1.02455 -0.01643 0.56133
 C294 C 1.04166 -0.03222 0.55653
 O295 O 1.04544 -0.04098 0.46532
 O296 O 1.02322 -0.01734 0.43854
 C297 C 1.03896 -0.03452 0.44327
 O298 O 1.04814 0.04624 0.53452
 O299 O 1.02457 0.02405 0.56136
 C300 C 1.04173 0.03979 0.55659
 Zr301 Zr 1.03415 0.03490 0.49995
 O302 O 1.07285 0.03489 0.49704
 O303 O 1.03406 0.07359 0.50283
 Zr304 Zr 1.03414 -0.02711 0.49991
 O305 O 1.07284 -0.02701 0.49699
 O306 O 1.03417 -0.06581 0.50274
 Zr307 Zr 1.00321 0.00386 0.53642
 Zr308 Zr 1.00304 0.00394 0.46356
 O309 O 1.03858 0.00391 0.47860
 O310 O 1.03899 0.00387 0.52179
 O311 O 1.00308 0.03973 0.47814
 O312 O 1.00317 -0.03161 0.52128
 O313 O 1.00319 0.03937 0.52135
 O314 O 1.00307 -0.03188 0.47811
 H315 H 0.95323 0.00395 0.46754
 H316 H 1.00319 -0.04594 0.53247
 H317 H 1.05286 0.00391 0.46736
 H318 H 1.00322 0.05365 0.53257
 H319 H 0.98215 -0.07222 0.48920
 H320 H 1.02404 -0.07224 0.48912
 H321 H 1.07932 -0.01714 0.51078
 H322 H 1.07933 0.02477 0.51065
 H323 H 1.02410 0.08005 0.48909
 H324 H 0.98215 0.08006 0.48915
 H325 H 0.92699 0.02483 0.51091
 H326 H 0.92698 -0.01707 0.51103
 C327 C 1.12346 0.15562 0.27923
 C328 C 1.12644 0.13071 0.28433
 C329 C 1.14037 0.11613 0.26856
 C330 C 1.15126 0.12633 0.24770
 C331 C 1.14840 0.15151 0.24204
 C332 C 1.13427 0.16594 0.25837
 C333 C 1.11501 0.12002 0.30562
 C334 C 1.10538 0.11088 0.32331
 C335 C 1.09407 0.09995 0.34388
 C336 C 1.08437 0.09039 0.36131
 C337 C 1.07275 0.07868 0.38195
 C338 C 1.05472 0.06088 0.37802
 C339 C 1.04366 0.04916 0.39797
 C340 C 1.05052 0.05509 0.42220
 C341 C 1.06857 0.07315 0.42594
 C342 C 1.07961 0.08484 0.40593
 H343 H 1.11286 0.16714 0.29146
 H344 H 1.14261 0.09674 0.27223
 H345 H 1.16094 0.11399 0.23558
 H346 H 1.13215 0.18547 0.25580
 H347 H 1.04927 0.05598 0.35953
 H348 H 1.02981 0.03540 0.39437
 H349 H 1.07428 0.07818 0.44431
 H350 H 1.09356 0.09860 0.40917
 C351 C 0.88205 -0.15041 0.28167
 C352 C 0.87897 -0.12541 0.28618
 C353 C 0.86453 -0.11136 0.27035
 C354 C 0.85320 -0.12219 0.25005
 C355 C 0.85610 -0.14750 0.24503
 C356 C 0.87080 -0.16137 0.26137
 C357 C 0.89070 -0.11412 0.30698
 C358 C 0.90051 -0.10452 0.32433
 C359 C 0.91196 -0.09312 0.34457
 C360 C 0.92170 -0.08324 0.36180
 C361 C 0.93329 -0.07127 0.38230
 C362 C 0.92659 -0.07739 0.40634
 C363 C 0.93761 -0.06552 0.42625
 C364 C 0.95548 -0.04731 0.42236
 C365 C 0.96215 -0.04139 0.39808
 C366 C 0.95112 -0.05330 0.37823
 H367 H 0.89305 -0.16153 0.29395
 H368 H 0.86220 -0.09190 0.27356
 H369 H 0.84309 -0.11026 0.23786
 H370 H 0.87302 -0.18094 0.25928
 H371 H 0.91280 -0.09127 0.40969
 H372 H 0.93203 -0.07055 0.44466
 H373 H 0.97587 -0.02752 0.39439
 H374 H 0.95644 -0.04842 0.35969
 C375 C 0.86471 0.11001 0.73422
 C376 C 0.87298 0.12488 0.71499
 C377 C 0.87005 0.15033 0.71639
 C378 C 0.85892 0.16088 0.73696
 C379 C 0.85055 0.14608 0.75640
 C380 C 0.85357 0.12052 0.75478
 C381 C 0.88460 0.11401 0.69392
 C382 C 0.89441 0.10478 0.67637
 C383 C 0.90598 0.09387 0.65594
 C384 C 0.91597 0.08447 0.63860
 C385 C 0.92805 0.07317 0.61801
 C386 C 0.92191 0.08002 0.59402
 C387 C 0.93378 0.06915 0.57403
 C388 C 0.95201 0.05127 0.57781
 C389 C 0.95798 0.04446 0.60205
 C390 C 0.94607 0.05535 0.62197
 H391 H 0.86698 0.09030 0.73336
 H392 H 0.87635 0.16201 0.70159
 H393 H 0.85659 0.18058 0.73754
 H394 H 0.84762 0.10867 0.76959
 H395 H 0.90798 0.09380 0.59075
 H396 H 0.92872 0.07483 0.55566
 H397 H 0.97187 0.03073 0.60567
 H398 H 0.95096 0.04989 0.64048
 C399 C 1.11476 -0.13637 0.72977
 C400 C 1.12956 -0.12235 0.71428
 C401 C 1.15455 -0.12003 0.71933
 C402 C 1.16475 -0.13163 0.73983
 C403 C 1.15011 -0.14591 0.75585
 C404 C 1.12484 -0.14804 0.75027
 C405 C 1.11901 -0.11024 0.69330
 C406 C 1.10997 -0.10013 0.67582
 C407 C 1.09912 -0.08833 0.65547
 C408 C 1.08963 -0.07830 0.63818
 C409 C 1.07801 -0.06639 0.61765
 C410 C 1.08418 -0.07305 0.59362
 C411 C 1.07250 -0.06184 0.57369
 C412 C 1.05444 -0.04381 0.57757
 C413 C 1.04851 -0.03714 0.60184
 C414 C 1.06022 -0.04837 0.62171
 H415 H 1.09530 -0.13811 0.72614
 H416 H 1.16624 -0.10936 0.70731
 H417 H 1.18435 -0.13000 0.74236
 H418 H 1.11235 -0.15779 0.76219
 H419 H 1.09792 -0.08700 0.59028
 H420 H 1.07752 -0.06741 0.55529
 H421 H 1.03475 -0.02331 0.60552
 H422 H 1.05531 -0.04309 0.64024
 C423 C 0.26923 1.14011 1.10996
 C424 C 0.28543 1.12664 1.12453
 C425 C 0.28104 1.12436 1.14969
 C426 C 0.26048 1.13541 1.16028
 C427 C 0.24374 1.14911 1.14587
 C428 C 0.24866 1.15124 1.12043
 C429 C 0.30644 1.11499 1.11361
 C430 C 0.32394 1.10515 1.10437
 C431 C 0.34432 1.09351 1.09347
 C432 C 0.36162 1.08346 1.08410
 C433 C 0.38217 1.07132 1.07284
 C434 C 0.40612 1.07739 1.07975
 C435 C 0.42607 1.06546 1.06892
 C436 C 0.42229 1.04724 1.05101
 C437 C 0.39810 1.04133 1.04415
 C438 C 0.37821 1.05329 1.05500
 H439 H 0.27235 1.14181 1.09038
 H440 H 0.29360 1.11411 1.16121
 H441 H 0.25846 1.13384 1.17997
 H442 H 0.23620 1.16056 1.10812
 H443 H 0.40939 1.09133 1.09354
 H444 H 0.44441 1.07048 1.07463
 H445 H 0.39449 1.02744 1.03041
 H446 H 0.35974 1.04846 1.04951
 C447 C 0.28373 0.84485 0.87453
 C448 C 0.28567 0.87027 0.87735
 C449 C 0.26703 0.88554 0.86853
 C450 C 0.24650 0.87547 0.85694
 C451 C 0.24435 0.84993 0.85403
 C452 C 0.26320 0.83473 0.86295
 C453 C 0.30672 0.88074 0.88935
 C454 C 0.32425 0.88972 0.89939
 C455 C 0.34464 0.90051 0.91113
 C456 C 0.36195 0.90995 0.92113
 C457 C 0.38247 0.92153 0.93303
 C458 C 0.37845 0.93927 0.95113
 C459 C 0.39830 0.95093 0.96238
 C460 C 0.42252 0.94501 0.95565
 C461 C 0.42636 0.92700 0.93755
 C462 C 0.40645 0.91537 0.92631
 H463 H 0.29809 0.83286 0.88124
 H464 H 0.26831 0.90524 0.87069
 H465 H 0.23215 0.88762 0.85057
 H466 H 0.26220 0.81503 0.86073
 H467 H 0.35995 0.94418 0.95647
 H468 H 0.39463 0.96465 0.97627
 H469 H 0.44473 0.92198 0.93192
 H470 H 0.40976 0.90167 0.91230
 C471 C 0.73129 0.85942 1.11630
 C472 C 0.71549 0.87328 1.13091
 C473 C 0.72059 0.87629 1.15586
 C474 C 0.74149 0.86559 1.16619
 C475 C 0.75785 0.85153 1.15173
 C476 C 0.75219 0.84864 1.12651
 C477 C 0.69418 0.88462 1.12019
 C478 C 0.67647 0.89416 1.11101
 C479 C 0.65590 0.90538 1.10001
 C480 C 0.63848 0.91501 1.09038
 C481 C 0.61787 0.92655 1.07858
 C482 C 0.59393 0.91966 1.08471
 C483 C 0.57394 0.93064 1.07294
 C484 C 0.57767 0.94868 1.05482
 C485 C 0.60184 0.95556 1.04890
 C486 C 0.62177 0.94456 1.06071
 H487 H 0.72763 0.85716 1.09687
 H488 H 0.70834 0.88685 1.16741
 H489 H 0.74407 0.86773 1.18576
 H490 H 0.76432 0.83901 1.11414
 H491 H 0.59071 0.90573 1.09852
 H492 H 0.55561 0.92491 1.07796
 H493 H 0.60542 0.96940 1.03510
 H494 H 0.64022 0.95004 1.05582
 C495 C 0.72984 1.10720 0.86077
 C496 C 0.71324 1.12099 0.87454
 C497 C 0.71695 1.14615 0.87737
 C498 C 0.73721 1.15753 0.86656
 C499 C 0.75434 1.14392 0.85256
 C500 C 0.75012 1.11845 0.84988
 C501 C 0.69251 1.10929 0.88592
 C502 C 0.67522 1.09945 0.89554
 C503 C 0.65504 1.08793 0.90692
 C504 C 0.63786 1.07810 0.91675
 C505 C 0.61742 1.06640 0.92864
 C506 C 0.62150 1.04848 0.94657
 C507 C 0.60169 1.03732 0.95838
 C508 C 0.57745 1.04396 0.95240
 C509 C 0.57355 1.06191 0.93423
 C510 C 0.59341 1.07304 0.92246
 H511 H 0.72726 1.08762 0.85865
 H512 H 0.70407 1.15707 0.88785
 H513 H 0.73869 1.17718 0.86855
 H514 H 0.76292 1.10673 0.84031
 H515 H 0.64002 1.04319 0.95149
 H516 H 0.60539 1.02355 0.97223
 H517 H 0.55516 1.06746 0.92917
 H518 H 0.59005 1.08690 0.90860
 C519 C 0.13436 0.26665 0.10638
 C520 C 0.12570 0.28612 0.12068
 C521 C 0.12801 0.28522 0.14626
 C522 C 0.13888 0.26491 0.15753
 C523 C 0.14762 0.24522 0.14332
 C524 C 0.14526 0.24634 0.11761
 C525 C 0.11430 0.30692 0.10909
 C526 C 0.10467 0.32428 0.09935
 C527 C 0.09329 0.34452 0.08793
 C528 C 0.08345 0.36175 0.07818
 C529 C 0.07156 0.38226 0.06656
 C530 C 0.07776 0.40622 0.07328
 C531 C 0.06600 0.42614 0.06220
 C532 C 0.04782 0.42233 0.04423
 C533 C 0.04181 0.39813 0.03754
 C534 C 0.05361 0.37826 0.04864
 H535 H 0.13259 0.26712 0.08657
 H536 H 0.12141 0.30022 0.15750
 H537 H 0.14071 0.26472 0.17734
 H538 H 0.15150 0.23133 0.10620
 H539 H 0.09164 0.40951 0.08713
 H540 H 0.07109 0.44448 0.06779
 H541 H 0.02795 0.39450 0.02376
 H542 H 0.04867 0.35979 0.04330
 C543 C -0.14018 0.26585 -0.11088
 C544 C -0.13182 0.28509 -0.12567
 C545 C -0.13392 0.28342 -0.15124
 C546 C -0.14425 0.26257 -0.16199
 C547 C -0.15263 0.24309 -0.14728
 C548 C -0.15053 0.24499 -0.12159
 C549 C -0.12080 0.30636 -0.11461
 C550 C -0.11140 0.32404 -0.10525
 C551 C -0.10020 0.34457 -0.09418
 C552 C -0.09043 0.36195 -0.08465
 C553 C -0.07850 0.38251 -0.07317
 C554 C -0.08455 0.40646 -0.08009
 C555 C -0.07270 0.42639 -0.06912
 C556 C -0.05459 0.42259 -0.05108
 C557 C -0.04875 0.39840 -0.04419
 C558 C -0.06062 0.37853 -0.05517
 H559 H -0.13855 0.26690 -0.09108
 H560 H -0.12753 0.29822 -0.16286
 H561 H -0.14589 0.26177 -0.18179
 H562 H -0.15651 0.23017 -0.10979
 H563 H -0.09837 0.40974 -0.09401
 H564 H -0.07767 0.44474 -0.07486
 H565 H -0.03495 0.39476 -0.03034
 H566 H -0.05580 0.36006 -0.04968
 C567 C 0.14847 0.71495 -0.13176
 C568 C 0.12289 0.71393 -0.13013
 C569 C 0.10876 0.73353 -0.13876
 C570 C 0.12015 0.75411 -0.14894
 C571 C 0.14586 0.75536 -0.15060
 C572 C 0.15991 0.73552 -0.14192
 C573 C 0.11112 0.69292 -0.11935
 C574 C 0.10120 0.67543 -0.11018
 C575 C 0.08954 0.65508 -0.09925
 C576 C 0.07957 0.63781 -0.08974
 C577 C 0.06765 0.61733 -0.07812
 C578 C 0.04960 0.62140 -0.06034
 C579 C 0.03828 0.60158 -0.04870
 C580 C 0.04489 0.57735 -0.05469
 C581 C 0.06296 0.57347 -0.07274
 C582 C 0.07425 0.59334 -0.08435
 H583 H 0.15958 0.69985 -0.12516
 H584 H 0.08894 0.73298 -0.13750
 H585 H 0.10885 0.76922 -0.15515
 H586 H 0.17971 0.73582 -0.14321
 H587 H 0.04435 0.63990 -0.05538
 H588 H 0.02444 0.60527 -0.03494
 H589 H 0.06849 0.55509 -0.07780
 H590 H 0.08822 0.59000 -0.09809
 C591 C -0.13314 0.73372 0.11237
 C592 C -0.12383 0.71473 0.12692
 C593 C -0.12529 0.71631 0.15253
 C594 C -0.13599 0.73683 0.16357
 C595 C -0.14539 0.75604 0.14910
 C596 C -0.14386 0.75424 0.12336
 C597 C -0.11269 0.69370 0.11553
 C598 C -0.10334 0.67618 0.10582
 C599 C -0.09238 0.65579 0.09427
 C600 C -0.08301 0.63847 0.08425
 C601 C -0.07180 0.61791 0.07208
 C602 C -0.07877 0.59398 0.07814
 C603 C -0.06805 0.57403 0.06613
 C604 C -0.05019 0.57777 0.04784
 C605 C -0.04326 0.60194 0.04197
 C606 C -0.05401 0.62183 0.05401
 H607 H -0.13204 0.73272 0.09253
 H608 H -0.11818 0.70169 0.16397
 H609 H -0.13717 0.73755 0.18341
 H610 H -0.15063 0.76886 0.11174
 H611 H -0.09254 0.59074 0.09211
 H612 H -0.07381 0.55570 0.07113
 H613 H -0.02956 0.60552 0.02804
 H614 H -0.04847 0.64029 0.04918
 C615 C 1.11640 0.14018 0.73137
 C616 C 1.13099 0.12627 0.71559
 C617 C 1.15590 0.12326 0.72072
 C618 C 1.16621 0.13403 0.74160
 C619 C 1.15178 0.14817 0.75793
 C620 C 1.12660 0.15102 0.75226
 C621 C 1.12029 0.11492 0.69426
 C622 C 1.11110 0.10539 0.67654
 C623 C 1.10006 0.09420 0.65595
 C624 C 1.09038 0.08462 0.63851
 C625 C 1.07851 0.07315 0.61789
 C626 C 1.06062 0.05522 0.62184
 C627 C 1.04874 0.04429 0.60191
 C628 C 1.05460 0.05118 0.57768
 C629 C 1.07274 0.06914 0.57391
 C630 C 1.08459 0.08005 0.59390
 H631 H 1.09700 0.14243 0.72769
 H632 H 1.16743 0.11266 0.70848
 H633 H 1.18575 0.13189 0.74420
 H634 H 1.11424 0.16070 0.76437
 H635 H 1.05577 0.04974 0.64034
 H636 H 1.03492 0.03051 0.60553
 H637 H 1.07771 0.07488 0.55553
 H638 H 1.09841 0.09393 0.59064
 C639 C 0.86061 -0.10694 0.73047
 C640 C 0.87447 -0.12071 0.71392
 C641 C 0.87740 -0.14585 0.71770
 C642 C 0.86660 -0.15724 0.73799
 C643 C 0.85251 -0.14367 0.75507
 C644 C 0.84973 -0.11821 0.75078
 C645 C 0.88583 -0.10899 0.69315
 C646 C 0.89542 -0.09916 0.67581
 C647 C 0.90677 -0.08764 0.65558
 C648 C 0.91656 -0.07781 0.63835
 C649 C 0.92840 -0.06613 0.61783
 C650 C 0.92218 -0.07277 0.59380
 C651 C 0.93391 -0.06166 0.57387
 C652 C 0.95209 -0.04375 0.57773
 C653 C 0.95811 -0.03712 0.60199
 C654 C 0.94634 -0.04825 0.62188
 H655 H 0.85841 -0.08738 0.72784
 H656 H 0.88795 -0.15674 0.70485
 H657 H 0.86867 -0.17688 0.73951
 H658 H 0.84008 -0.10651 0.76354
 H659 H 0.90831 -0.08659 0.59047
 H660 H 0.92881 -0.06720 0.55547
 H661 H 0.97196 -0.02339 0.60567
 H662 H 0.95129 -0.04297 0.64041
 C663 C 1.10911 -0.13542 0.26609
 C664 C 1.12389 -0.12696 0.28531
 C665 C 1.14936 -0.12973 0.28398
 C666 C 1.16004 -0.14087 0.26349
 C667 C 1.14534 -0.14941 0.24405
 C668 C 1.11974 -0.14658 0.24559
 C669 C 1.11291 -0.11527 0.30629
 C670 C 1.10363 -0.10541 0.32377
 C671 C 1.09271 -0.09374 0.34414
 C672 C 1.08333 -0.08367 0.36145
 C673 C 1.07209 -0.07151 0.38201
 C674 C 1.07898 -0.07759 0.40601
 C675 C 1.06818 -0.06564 0.42598
 C676 C 1.05033 -0.04738 0.42218
 C677 C 1.04348 -0.04146 0.39794
 C678 C 1.05430 -0.05346 0.37803
 H679 H 1.08938 -0.13329 0.26689
 H680 H 1.16097 -0.12328 0.29878
 H681 H 1.17977 -0.14305 0.26296
 H682 H 1.10796 -0.15266 0.23078
 H683 H 1.09273 -0.09155 0.40930
 H684 H 1.07388 -0.07065 0.44436
 H685 H 1.02978 -0.02755 0.39431
 H686 H 1.04883 -0.04861 0.35952
 C687 C 0.89058 0.14469 0.26897
 C688 C 0.87712 0.13076 0.28572
 C689 C 0.85208 0.12707 0.28189
 C690 C 0.84050 0.13714 0.26132
 C691 C 0.85377 0.15124 0.24399
 C692 C 0.87911 0.15485 0.24838
 C693 C 0.88907 0.11999 0.30669
 C694 C 0.89908 0.11080 0.32416
 C695 C 0.91080 0.09984 0.34450
 C696 C 0.92078 0.09029 0.36179
 C697 C 0.93267 0.07864 0.38231
 C698 C 0.95067 0.06083 0.37826
 C699 C 0.96193 0.04914 0.39813
 C700 C 0.95530 0.05511 0.42240
 C701 C 0.93729 0.07318 0.42628
 C702 C 0.92605 0.08484 0.40635
 H703 H 0.91007 0.14748 0.27165
 H704 H 0.84142 0.11646 0.29488
 H705 H 0.82093 0.13449 0.25973
 H706 H 0.89061 0.16457 0.23548
 H707 H 0.95593 0.05589 0.35972
 H708 H 0.97574 0.03536 0.39444
 H709 H 0.93174 0.07823 0.44468
 H710 H 0.91212 0.09860 0.40969
 C711 C 0.11315 0.26928 -0.13895
 C712 C 0.12702 0.28533 -0.12461
 C713 C 0.15195 0.28081 -0.12097
 C714 C 0.16303 0.26026 -0.13155
 C715 C 0.14935 0.24366 -0.14611
 C716 C 0.12412 0.24872 -0.14961
 C717 C 0.11557 0.30634 -0.11348
 C718 C 0.10585 0.32384 -0.10412
 C719 C 0.09431 0.34423 -0.09314
 C720 C 0.08431 0.36154 -0.08374
 C721 C 0.07218 0.38210 -0.07249
 C722 C 0.07831 0.40603 -0.07939
 C723 C 0.06636 0.42599 -0.06861
 C724 C 0.04805 0.42225 -0.05077
 C725 C 0.04210 0.39808 -0.04392
 C726 C 0.05409 0.37817 -0.05471
 H727 H 0.09374 0.27249 -0.14170
 H728 H 0.16292 0.29327 -0.11004
 H729 H 0.18256 0.25814 -0.12892
 H730 H 0.11231 0.23636 -0.15965
 H731 H 0.09229 0.40927 -0.09314
 H732 H 0.07141 0.44432 -0.07432
 H733 H 0.02816 0.39449 -0.03022
 H734 H 0.04921 0.35972 -0.04923
 C735 C -0.13897 0.26661 0.10806
 C736 C -0.13037 0.28626 0.12214
 C737 C -0.13202 0.28533 0.14778
 C738 C -0.14216 0.26479 0.15930
 C739 C -0.15079 0.24490 0.14530
 C740 C -0.14913 0.24607 0.11954
 C741 C -0.11956 0.30722 0.11030
 C742 C -0.11035 0.32468 0.10035
 C743 C -0.09937 0.34500 0.08869
 C744 C -0.08980 0.36225 0.07873
 C745 C -0.07812 0.38272 0.06686
 C746 C -0.06034 0.37865 0.04881
 C747 C -0.04862 0.39846 0.03755
 C748 C -0.05454 0.42269 0.04423
 C749 C -0.07258 0.42658 0.06229
 C750 C -0.08426 0.40671 0.07353
 H751 H -0.13769 0.26710 0.08821
 H752 H -0.12545 0.30045 0.15885
 H753 H -0.14346 0.26456 0.17914
 H754 H -0.15531 0.23092 0.10828
 H755 H -0.05545 0.36015 0.04351
 H756 H -0.03487 0.39476 0.02370
 H757 H -0.07759 0.44496 0.06788
 H758 H -0.09800 0.41007 0.08750
 C759 C -0.12254 0.72081 -0.15605
 C760 C -0.12550 0.71564 -0.13111
 C761 C -0.13942 0.73134 -0.11645
 C762 C -0.15033 0.75219 -0.12661
 C763 C -0.14752 0.75791 -0.15182
 C764 C -0.13337 0.74166 -0.16633
 C765 C -0.11410 0.69433 -0.12046
 C766 C -0.10454 0.67662 -0.11130
 C767 C -0.09332 0.65604 -0.10031
 C768 C -0.08372 0.63861 -0.09068
 C769 C -0.07223 0.61798 -0.07886
 C770 C -0.05425 0.62184 -0.06094
 C771 C -0.04333 0.60191 -0.04909
 C772 C -0.05026 0.57775 -0.05502
 C773 C -0.06826 0.57406 -0.07319
 C774 C -0.07916 0.59406 -0.08500
 H775 H -0.11193 0.70864 -0.16764
 H776 H -0.14165 0.72762 -0.09703
 H777 H -0.16001 0.76424 -0.11420
 H778 H -0.13126 0.74429 -0.18589
 H779 H -0.04875 0.64028 -0.05604
 H780 H -0.02952 0.60546 -0.03525
 H781 H -0.07402 0.55575 -0.07821
 H782 H -0.09307 0.59087 -0.09885
 C783 C 0.10756 0.72971 0.13952
 C784 C 0.12149 0.71321 0.12577
 C785 C 0.14664 0.71706 0.12301
 C786 C 0.15787 0.73738 0.13387
 C787 C 0.14413 0.75441 0.14785
 C788 C 0.11867 0.75004 0.15046
 C789 C 0.10992 0.69243 0.11434
 C790 C 0.10016 0.67511 0.10469
 C791 C 0.08869 0.65492 0.09328
 C792 C 0.07889 0.63774 0.08344
 C793 C 0.06719 0.61731 0.07153
 C794 C 0.07380 0.59331 0.07772
 C795 C 0.06265 0.57346 0.06593
 C796 C 0.04472 0.57738 0.04773
 C797 C 0.03813 0.60161 0.04174
 C798 C 0.04930 0.62141 0.05356
 H799 H 0.08798 0.72701 0.14158
 H800 H 0.15766 0.70426 0.11254
 H801 H 0.17753 0.73898 0.13193
 H802 H 0.10684 0.76275 0.16000
 H803 H 0.08763 0.58993 0.09161
 H804 H 0.06816 0.55508 0.07101
 H805 H 0.02438 0.60533 0.02787
 H806 H 0.04404 0.63992 0.04864
 C807 C 0.26685 1.13436 0.89373
 C808 C 0.28631 1.12559 0.87948
 C809 C 0.28544 1.12782 0.85388
 C810 C 0.26516 1.13872 0.84256
 C811 C 0.24548 1.14756 0.85673
 C812 C 0.24657 1.14528 0.88245
 C813 C 0.30707 1.11415 0.89111
 C814 C 0.32439 1.10448 0.90088
 C815 C 0.34461 1.09305 0.91232
 C816 C 0.36182 1.08317 0.92207
 C817 C 0.38231 1.07122 0.93368
 C818 C 0.40629 1.07741 0.92700
 C819 C 0.42619 1.06558 0.93805
 C820 C 0.42235 1.04736 0.95595
 C821 C 0.39814 1.04138 0.96262
 C822 C 0.37828 1.05324 0.95155
 H823 H 0.26730 1.13265 0.91355
 H824 H 0.30042 1.12114 0.84268
 H825 H 0.26499 1.14049 0.82275
 H826 H 0.23158 1.15161 0.89382
 H827 H 0.40961 1.09131 0.91318
 H828 H 0.44456 1.07066 0.93247
 H829 H 0.39448 1.02749 0.97636
 H830 H 0.35979 1.04832 0.95687
 C831 C 0.28255 0.84331 1.12853
 C832 C 0.28466 0.86878 1.12629
 C833 C 0.26587 0.88393 1.13496
 C834 C 0.24501 0.87370 1.14578
 C835 C 0.24267 0.84812 1.14806
 C836 C 0.26170 0.83303 1.13933
 C837 C 0.30599 0.87941 1.11497
 C838 C 0.32372 0.88854 1.10543
 C839 C 0.34430 0.89950 1.09421
 C840 C 0.36172 0.90911 1.08458
 C841 C 0.38231 0.92090 1.07303
 C842 C 0.37837 0.93878 1.05503
 C843 C 0.39826 0.95059 1.04403
 C844 C 0.42245 0.94469 1.05091
 C845 C 0.42622 0.92656 1.06893
 C846 C 0.40626 0.91477 1.07991
 H847 H 0.29702 0.83141 1.12192
 H848 H 0.26727 0.90367 1.13325
 H849 H 0.23054 0.88578 1.15201
 H850 H 0.26056 0.81329 1.14109
 H851 H 0.35990 0.94367 1.04956
 H852 H 0.39465 0.96440 1.03020
 H853 H 0.44456 0.92155 1.07466
 H854 H 0.40951 0.90096 1.09384
 C855 C 0.73281 1.13099 1.11429
 C856 C 0.71426 1.12212 1.12964
 C857 C 0.71627 1.12497 1.15511
 C858 C 0.73676 1.13664 1.16519
 C859 C 0.75551 1.14562 1.14990
 C860 C 0.75330 1.14267 1.12432
 C861 C 0.69323 1.11006 1.11921
 C862 C 0.67571 1.09998 1.11025
 C863 C 0.65533 1.08822 1.09948
 C864 C 0.63803 1.07821 1.09004
 C865 C 0.61751 1.06631 1.07846
 C866 C 0.62153 1.04829 1.06063
 C867 C 0.60168 1.03707 1.04894
 C868 C 0.57746 1.04374 1.05492
 C869 C 0.57362 1.06175 1.07303
 C870 C 0.59353 1.07296 1.08468
 H871 H 0.73148 1.12881 1.09455
 H872 H 0.70199 1.11822 1.16716
 H873 H 0.73781 1.13889 1.18492
 H874 H 0.76758 1.14908 1.11210
 H875 H 0.64003 1.04301 1.05566
 H876 H 0.60534 1.02326 1.03514
 H877 H 0.55525 1.06733 1.07809
 H878 H 0.59022 1.08690 1.09845
 C879 C 0.71634 0.87376 0.84768
 C880 C 0.71474 0.87520 0.87329
 C881 C 0.73377 0.86596 0.88784
 C882 C 0.75436 0.85535 0.87686
 C883 C 0.75619 0.85388 0.85112
 C884 C 0.73693 0.86318 0.83665
 C885 C 0.69367 0.88629 0.88466
 C886 C 0.67612 0.89563 0.89433
 C887 C 0.65571 0.90662 0.90583
 C888 C 0.63837 0.91603 0.91580
 C889 C 0.61781 0.92730 0.92791
 C890 C 0.62176 0.94508 0.94600
 C891 C 0.60186 0.95588 0.95800
 C892 C 0.57768 0.94904 0.95206
 C893 C 0.57391 0.93121 0.93376
 C894 C 0.59386 0.92042 0.92179
 H895 H 0.70169 0.88081 0.83624
 H896 H 0.73275 0.86705 0.90768
 H897 H 0.76902 0.84866 0.88848
 H898 H 0.73768 0.86204 0.81681
 H899 H 0.64022 0.95055 0.95087
 H900 H 0.60547 0.96957 0.97194
 H901 H 0.55557 0.92551 0.92872
 H902 H 0.59061 0.90667 0.90781
   
