data_POSCAR
  _audit_creation_date              2014-09-24
  _audit_creation_method            'ToBaCCo'
  _symmetry_space_group_name_H-M    'P1'
  _symmetry_Int_Tables_number       1
  _symmetry_cell_setting            triclinic
  loop_
  _symmetry_equiv_pos_as_xyz
 x,y,z
_cell_length_a 47.5096
_cell_length_b 48.3163
_cell_length_c 68.7106
_cell_angle_alpha 89.898300
_cell_angle_beta 90.076400
_cell_angle_gamma 120.136500
loop_
  _atom_site_label
  _atom_site_type_symbol
  _atom_site_fract_x
  _atom_site_fract_y
  _atom_site_fract_z
C1 C -0.01883 0.48931 1.25208
 C2 C 0.01422 0.50361 1.25193
 C3 C 0.03413 0.51152 1.26999
 C4 C 0.03226 0.51298 1.23325
 C5 C -0.03750 0.47934 1.23360
 C6 C -0.03805 0.48287 1.27026
 C7 C 0.06174 0.54185 1.27199
 C8 C 0.08126 0.54979 1.28856
 C9 C 0.07385 0.52761 1.30398
 C10 C 0.04576 0.49694 1.30167
 C11 C 0.02660 0.48898 1.28486
 C12 C 0.03275 0.53730 1.22181
 C13 C 0.05048 0.54673 1.20448
 C14 C 0.06769 0.53175 1.19823
 C15 C 0.06691 0.50720 1.20964
 C16 C 0.04957 0.49811 1.22713
 C17 C -0.03825 0.45486 1.22229
 C18 C -0.05600 0.44543 1.20494
 C19 C -0.07310 0.46053 1.19848
 C20 C -0.07209 0.48519 1.20992
 C21 C -0.05471 0.49427 1.22740
 C22 C -0.06503 0.45232 1.27345
 C23 C -0.08385 0.44586 1.29022
 C24 C -0.07615 0.46984 1.30418
 C25 C -0.04920 0.50049 1.30099
 C26 C -0.03051 0.50704 1.28407
 H27 H 0.06801 0.55981 1.26078
 H28 H 0.10108 0.57421 1.28942
 H29 H 0.03915 0.47802 1.31220
 H30 H 0.00604 0.46497 1.28337
 H31 H 0.01967 0.54914 1.22644
 H32 H 0.05061 0.56560 1.19587
 H33 H 0.04950 0.47941 1.23588
 H34 H -0.02533 0.44288 1.22703
 H35 H -0.05670 0.42597 1.19677
 H36 H -0.08439 0.49780 1.20528
 H37 H -0.05424 0.51329 1.23597
 H38 H -0.07138 0.43334 1.26298
 H39 H -0.10424 0.42193 1.29240
 H40 H -0.04299 0.51952 1.31139
 H41 H -0.01029 0.53100 1.28171
 H42 H 0.08024 0.49552 1.20519
 C43 C 0.51047 0.49131 1.24568
 C44 C 0.49695 0.51048 1.24567
 C45 C 0.48821 0.52020 1.26420
 C46 C 0.48953 0.52234 1.22745
 C47 C 0.51759 0.47926 1.22746
 C48 C 0.51937 0.48169 1.26423
 C49 C 0.46667 0.49720 1.27748
 C50 C 0.45892 0.50667 1.29492
 C51 C 0.47224 0.53933 1.29929
 C52 C 0.49337 0.56226 1.28580
 C53 C 0.50119 0.55277 1.26840
 C54 C 0.45880 0.51940 1.22517
 C55 C 0.45095 0.52993 1.20820
 C56 C 0.47351 0.54333 1.19287
 C57 C 0.50462 0.54692 1.19535
 C58 C 0.51271 0.53702 1.21258
 C59 C 0.54824 0.48206 1.22508
 C60 C 0.55580 0.47140 1.20810
 C61 C 0.53304 0.45801 1.19286
 C62 C 0.50201 0.45453 1.19546
 C63 C 0.49420 0.46455 1.21270
 C64 C 0.54098 0.50477 1.27743
 C65 C 0.54860 0.49540 1.29499
 C66 C 0.53508 0.46277 1.29956
 C67 C 0.51397 0.43975 1.28611
 C68 C 0.50628 0.44915 1.26860
 H69 H 0.45584 0.47193 1.27431
 H70 H 0.44211 0.48845 1.30486
 H71 H 0.50425 0.58758 1.28883
 H72 H 0.51774 0.57084 1.25829
 H73 H 0.44065 0.50866 1.23654
 H74 H 0.42716 0.52769 1.20719
 H75 H 0.53692 0.54043 1.21419
 H76 H 0.56654 0.49281 1.23637
 H77 H 0.57954 0.47356 1.20701
 H78 H 0.48384 0.44454 1.18408
 H79 H 0.47004 0.46122 1.21440
 H80 H 0.55188 0.53002 1.27413
 H81 H 0.56540 0.51367 1.30489
 H82 H 0.50295 0.41446 1.28929
 H83 H 0.48967 0.43101 1.25855
 H84 H 0.52263 0.55693 1.18390
 C85 C 0.51052 1.01945 1.25286
 C86 C 0.49215 0.98686 1.25263
 C87 C 0.48275 0.96784 1.27094
 C88 C 0.48092 0.96838 1.23413
 C89 C 0.52287 1.03856 1.23470
 C90 C 0.51901 1.03792 1.27132
 C91 C 0.50628 0.97126 1.28455
 C92 C 0.49720 0.95282 1.30152
 C93 C 0.46424 0.92991 1.30524
 C94 C 0.44086 0.92661 1.29126
 C95 C 0.45005 0.94526 1.27439
 C96 C 0.48496 0.94183 1.23135
 C97 C 0.47480 0.92427 1.21411
 C98 C 0.46075 0.93311 1.19905
 C99 C 0.45622 0.95945 1.20202
 C100 C 0.46565 0.97651 1.21950
 C101 C 0.51626 1.06322 1.23101
 C102 C 0.52717 1.08120 1.21394
 C103 C 0.54527 1.07516 1.19997
 C104 C 0.55222 1.05049 1.20406
 C105 C 0.54138 1.03265 1.22125
 C106 C 0.49487 1.03408 1.28455
 C107 C 0.50319 1.05209 1.30166
 C108 C 0.53597 1.07496 1.30588
 C109 C 0.55995 1.07865 1.29230
 C110 C 0.55153 1.06044 1.27530
 H111 H 0.53182 0.98795 1.28189
 H112 H 0.51649 0.95570 1.31116
 H113 H 0.41513 0.91051 1.29349
 H114 H 0.43149 0.94231 1.26407
 H115 H 0.49619 0.93474 1.24253
 H116 H 0.47780 0.90360 1.21270
 H117 H 0.46130 0.99627 1.22151
 H118 H 0.50192 1.06810 1.24121
 H119 H 0.51985 1.09880 1.21149
 H120 H 0.56709 1.04547 1.19445
 H121 H 0.54748 1.01422 1.22409
 H122 H 0.46947 1.01742 1.28148
 H123 H 0.48349 1.04891 1.31100
 H124 H 0.58558 1.09469 1.29494
 H125 H 0.57056 1.06369 1.26529
 H126 H 0.44577 0.96725 1.19078
 C127 C 1.02138 0.50869 0.74825
 C128 C 0.98813 0.49192 0.74822
 C129 C 0.96899 0.48352 0.72978
 C130 C 0.96906 0.48119 0.76668
 C131 C 1.04042 0.52006 0.76661
 C132 C 1.04073 0.51658 0.73001
 C133 C 0.97565 0.50657 0.71529
 C134 C 0.95750 0.49820 0.69809
 C135 C 0.93141 0.46685 0.69525
 C136 C 0.92419 0.44413 0.71010
 C137 C 0.94291 0.45231 0.72705
 C138 C 0.94300 0.48661 0.76959
 C139 C 0.92489 0.47676 0.78677
 C140 C 0.93271 0.46167 0.80166
 C141 C 0.95865 0.45594 0.79856
 C142 C 0.97615 0.46500 0.78114
 C143 C 1.06449 0.51225 0.77062
 C144 C 1.08222 0.52212 0.78792
 C145 C 1.07647 0.54030 0.80181
 C146 C 1.05246 0.54850 0.79738
 C147 C 1.03494 0.53874 0.77996
 C148 C 1.03609 0.49275 0.71666
 C149 C 1.05467 0.50065 0.69964
 C150 C 1.07885 0.53266 0.69561
 C151 C 1.08340 0.55629 0.70938
 C152 C 1.06469 0.54830 0.72629
 H153 H 0.99497 0.53108 0.71726
 H154 H 0.96417 0.51635 0.68699
 H155 H 0.90378 0.42003 0.70883
 H156 H 0.93693 0.43421 0.73813
 H157 H 0.93670 0.49859 0.75854
 H158 H 0.90454 0.48077 0.78824
 H159 H 0.99548 0.45962 0.77903
 H160 H 1.06905 0.49777 0.76050
 H161 H 1.09932 0.51399 0.79061
 H162 H 1.04780 0.56351 0.80692
 H163 H 1.01705 0.54578 0.77687
 H164 H 1.01825 0.46794 0.71952
 H165 H 1.05075 0.48120 0.69016
 H166 H 1.10045 0.58139 0.70693
 H167 H 1.06858 0.56710 0.73639
 H168 H 0.96580 0.44476 0.80966
 C169 C 0.49272 0.51121 0.75432
 C170 C 0.50685 0.49252 0.75437
 C171 C 0.51377 0.48074 0.73595
 C172 C 0.51648 0.48294 0.77274
 C173 C 0.48281 0.52056 0.77263
 C174 C 0.48605 0.52318 0.73584
 C175 C 0.48977 0.46532 0.72161
 C176 C 0.49730 0.45605 0.70401
 C177 C 0.52869 0.46084 0.70066
 C178 C 0.55211 0.47477 0.71553
 C179 C 0.54481 0.48482 0.73287
 C180 C 0.50812 0.45093 0.77546
 C181 C 0.51714 0.44140 0.79241
 C182 C 0.53430 0.46356 0.80730
 C183 C 0.54293 0.49576 0.80443
 C184 C 0.53468 0.50543 0.78720
 C185 C 0.49110 0.55253 0.77541
 C186 C 0.48197 0.56185 0.79236
 C187 C 0.46476 0.53952 0.80719
 C188 C 0.45615 0.50736 0.80424
 C189 C 0.46449 0.49789 0.78700
 C190 C 0.51022 0.53866 0.72160
 C191 C 0.50289 0.54794 0.70391
 C192 C 0.47152 0.54312 0.70035
 C193 C 0.44794 0.52919 0.71513
 C194 C 0.45505 0.51913 0.73257
 H195 H 0.46535 0.46107 0.72386
 H196 H 0.47862 0.44568 0.69295
 H197 H 0.57619 0.47792 0.71387
 H198 H 0.56357 0.49612 0.74385
 H199 H 0.49455 0.43320 0.76440
 H200 H 0.51090 0.41664 0.79367
 H201 H 0.54227 0.53046 0.78524
 H202 H 0.50474 0.57039 0.76441
 H203 H 0.48818 0.58659 0.79368
 H204 H 0.44324 0.48942 0.81530
 H205 H 0.45694 0.47289 0.78499
 H206 H 0.53461 0.54290 0.72400
 H207 H 0.52170 0.55831 0.69293
 H208 H 0.42388 0.52603 0.71330
 H209 H 0.43615 0.50778 0.74346
 H210 H 0.55582 0.51356 0.81554
 C211 C 0.48551 -0.02134 0.74756
 C212 C 0.50291 0.01141 0.74763
 C213 C 0.51189 0.03048 0.72921
 C214 C 0.51390 0.03006 0.76616
 C215 C 0.47307 -0.04031 0.76585
 C216 C 0.47795 -0.04032 0.72926
 C217 C 0.54350 0.05658 0.72688
 C218 C 0.55219 0.07526 0.71003
 C219 C 0.52974 0.06789 0.69473
 C220 C 0.49799 0.04170 0.69716
 C221 C 0.48899 0.02377 0.71435
 C222 C 0.52928 0.02225 0.78090
 C223 C 0.53873 0.03956 0.79830
 C224 C 0.53453 0.06617 0.80107
 C225 C 0.52044 0.07473 0.78585
 C226 C 0.50992 0.05669 0.76878
 C227 C 0.45485 -0.03404 0.77936
 C228 C 0.44377 -0.05188 0.79655
 C229 C 0.44977 -0.07721 0.80045
 C230 C 0.46742 -0.08374 0.78644
 C231 C 0.47893 -0.06550 0.76949
 C232 C 0.44605 -0.06503 0.72576
 C233 C 0.43844 -0.08371 0.70900
 C234 C 0.46255 -0.07812 0.69503
 C235 C 0.49466 -0.05312 0.69870
 C236 C 0.50230 -0.03486 0.71572
 H237 H 0.56153 0.06267 0.73821
 H238 H 0.57650 0.09575 0.70922
 H239 H 0.47995 0.03472 0.68578
 H240 H 0.46411 0.00448 0.71597
 H241 H 0.53370 0.00251 0.77905
 H242 H 0.54901 0.03171 0.80959
 H243 H 0.49867 0.06363 0.75753
 H244 H 0.44916 -0.01531 0.77658
 H245 H 0.42935 -0.04646 0.80631
 H246 H 0.47391 -0.10197 0.78881
 H247 H 0.49296 -0.07078 0.75928
 H248 H 0.42681 -0.06968 0.73598
 H249 H 0.41319 -0.10163 0.70676
 H250 H 0.51444 -0.04839 0.68895
 H251 H 0.52732 -0.01657 0.71838
 H252 H 0.51772 0.09559 0.78693
 O253 O 0.38191 0.67029 0.98504
 O254 O 0.37697 0.72118 0.97883
 C255 C 0.36034 0.73456 0.97546
 O256 O 0.33594 0.72954 0.98579
 O257 O 0.28461 0.67435 0.97908
 C258 C 0.27059 0.64471 0.97537
 O259 O 0.27537 0.62531 0.98545
 O260 O 0.33174 0.63116 0.97778
 C261 C 0.36201 0.64703 0.97441
 O262 O 0.37956 0.67939 1.02379
 O263 O 0.37817 0.73195 1.01736
 C264 C 0.35692 0.73344 1.02785
 O265 O 0.32667 0.71684 1.02453
 O266 O 0.27350 0.66288 1.01768
 C267 C 0.27190 0.63994 1.02773
 O268 O 0.28869 0.62692 1.02388
 O269 O 0.34354 0.62892 1.01610
 C270 C 0.36654 0.64955 1.02667
 Cr271 Cr 0.37756 0.69982 1.00126
 Cr272 Cr 0.30607 0.69523 1.00177
 Cr273 Cr 0.31055 0.62963 1.00083
 O274 O 0.33138 0.67494 1.00126
 O275 O 0.61831 0.32960 0.98359
 O276 O 0.62135 0.27761 0.97749
 C277 C 0.63796 0.26446 0.97351
 O278 O 0.66322 0.26975 0.98299
 O279 O 0.71438 0.32454 0.97631
 C280 C 0.72875 0.35423 0.97284
 O281 O 0.72504 0.37376 0.98338
 O282 O 0.66860 0.36859 0.97614
 C283 C 0.63822 0.35294 0.97294
 O284 O 0.62159 0.32077 1.02242
 O285 O 0.62183 0.26790 1.01608
 C286 C 0.64320 0.26528 1.02582
 O287 O 0.67326 0.28096 1.02174
 O288 O 0.72656 0.33511 1.01512
 C289 C 0.72849 0.35792 1.02546
 O290 O 0.71219 0.37155 1.02179
 O291 O 0.65786 0.37095 1.01450
 C292 C 0.63505 0.35060 1.02527
 Cr293 Cr 0.62240 0.29987 0.99986
 Cr294 Cr 0.69351 0.30333 0.99907
 Cr295 Cr 0.69016 0.36961 0.99897
 O296 O 0.66863 0.32413 0.99927
 O297 O 0.65018 0.38369 0.51721
 O298 O 0.70391 0.38301 0.52396
 C299 C 0.71980 0.36887 0.52729
 O300 O 0.71710 0.34583 0.51692
 O301 O 0.66286 0.29179 0.52286
 C302 C 0.63270 0.27691 0.52668
 O303 O 0.61189 0.28063 0.51712
 O304 O 0.61202 0.33337 0.52346
 C305 C 0.62646 0.36296 0.52725
 O306 O 0.66076 0.38305 0.47868
 O307 O 0.71626 0.38615 0.48528
 C308 C 0.72061 0.36679 0.47493
 O309 O 0.70604 0.33699 0.47824
 O310 O 0.65367 0.28201 0.48425
 C311 C 0.62891 0.27739 0.47448
 O312 O 0.61305 0.29136 0.47832
 O313 O 0.61039 0.34315 0.48460
 C314 C 0.63064 0.36738 0.47472
 Cr315 Cr 0.68198 0.38229 0.50128
 Cr316 Cr 0.68405 0.31499 0.50059
 Cr317 Cr 0.61352 0.31301 0.50086
 O318 O 0.65980 0.33669 0.50092
 O319 O 0.35149 0.61703 0.51474
 O320 O 0.29660 0.61558 0.52113
 C321 C 0.28060 0.62945 0.52492
 O322 O 0.28336 0.65296 0.51499
 O323 O 0.33687 0.70714 0.52077
 C324 C 0.36707 0.72288 0.52441
 O325 O 0.38803 0.72002 0.51446
 O326 O 0.38906 0.66769 0.52087
 C327 C 0.37503 0.63811 0.52476
 O328 O 0.34114 0.61773 0.47608
 O329 O 0.28506 0.61321 0.48241
 C330 C 0.27952 0.63236 0.47262
 O331 O 0.29320 0.66203 0.47627
 O332 O 0.34531 0.71746 0.48201
 C333 C 0.37010 0.72263 0.47207
 O334 O 0.38656 0.70919 0.47576
 O335 O 0.39099 0.65830 0.48209
 C336 C 0.37122 0.63391 0.47221
 Cr337 Cr 0.31936 0.61760 0.49859
 Cr338 Cr 0.31562 0.68411 0.49850
 Cr339 Cr 0.38694 0.68786 0.49828
 O340 O 0.34062 0.66320 0.49843
 C341 C 0.44760 0.56841 0.35292
 C342 C 0.45387 0.54290 0.35269
 C343 C 0.46194 0.53351 0.33532
 C344 C 0.46394 0.54944 0.31779
 C345 C 0.45785 0.57505 0.31804
 C346 C 0.44976 0.58442 0.33539
 C347 C 0.43824 0.57795 0.37127
 C348 C 0.45019 0.61040 0.37559
 C349 C 0.44041 0.61929 0.39250
 C350 C 0.41842 0.59592 0.40548
 C351 C 0.40689 0.56349 0.40131
 C352 C 0.41669 0.55461 0.38442
 C353 C 0.40673 0.60525 0.42295
 C354 C 0.37381 0.58766 0.42839
 C355 C 0.36245 0.59680 0.44446
 C356 C 0.38373 0.62377 0.45554
 C357 C 0.41675 0.64124 0.45021
 C358 C 0.42811 0.63209 0.43409
 H359 H 0.45288 0.53040 0.36600
 H360 H 0.46700 0.51402 0.33565
 H361 H 0.45872 0.58747 0.30472
 H362 H 0.44453 0.60379 0.33501
 H363 H 0.46713 0.62897 0.36587
 H364 H 0.44950 0.64445 0.39520
 H365 H 0.39022 0.54493 0.41113
 H366 H 0.40681 0.52940 0.38143
 H367 H 0.35662 0.56718 0.41994
 H368 H 0.33684 0.58285 0.44807
 H369 H 0.43380 0.66213 0.45842
 H370 H 0.45368 0.64593 0.43039
 C371 C 0.43656 0.87171 0.35631
 C372 C 0.41743 0.86113 0.33942
 C373 C 0.42636 0.88023 0.32273
 C374 C 0.45494 0.91062 0.32232
 C375 C 0.47400 0.92103 0.33944
 C376 C 0.46488 0.90191 0.35614
 C377 C 0.42714 0.85109 0.37393
 C378 C 0.45086 0.84928 0.38523
 C379 C 0.44191 0.82924 0.40150
 C380 C 0.40901 0.81046 0.40684
 C381 C 0.38532 0.81250 0.39566
 C382 C 0.39428 0.83261 0.37942
 C383 C 0.39939 0.78841 0.42379
 C384 C 0.37424 0.78448 0.43629
 C385 C 0.36479 0.76324 0.45200
 C386 C 0.38037 0.74552 0.45560
 C387 C 0.40567 0.74962 0.44317
 C388 C 0.41502 0.77076 0.42743
 H389 H 0.39585 0.83763 0.33890
 H390 H 0.41136 0.87013 0.30995
 H391 H 0.49542 0.94453 0.34043
 H392 H 0.47980 0.91106 0.36907
 H393 H 0.47634 0.86295 0.38129
 H394 H 0.46079 0.82852 0.40994
 H395 H 0.35975 0.79812 0.39925
 H396 H 0.37545 0.83375 0.37117
 H397 H 0.36201 0.79804 0.43404
 H398 H 0.34530 0.76076 0.46133
 H399 H 0.41807 0.73622 0.44544
 H400 H 0.43412 0.77284 0.41790
 C401 C 0.13239 0.55412 0.35462
 C402 C 0.14498 0.56990 0.33689
 C403 C 0.12575 0.56105 0.32015
 C404 C 0.09298 0.53565 0.32035
 C405 C 0.08095 0.51923 0.33826
 C406 C 0.10023 0.52850 0.35506
 C407 C 0.15272 0.56479 0.37257
 C408 C 0.15056 0.54259 0.38662
 C409 C 0.16999 0.55286 0.40335
 C410 C 0.19218 0.58556 0.40639
 C411 C 0.19427 0.60770 0.39233
 C412 C 0.17468 0.59748 0.37574
 C413 C 0.21336 0.59670 0.42398
 C414 C 0.22129 0.62596 0.43284
 C415 C 0.24252 0.63735 0.44870
 C416 C 0.25602 0.61956 0.45630
 C417 C 0.24750 0.58992 0.44782
 C418 C 0.22654 0.57869 0.43178
 H419 H 0.17006 0.58898 0.33581
 H420 H 0.13771 0.57350 0.30693
 H421 H 0.05594 0.50042 0.33999
 H422 H 0.08951 0.51612 0.36857
 H423 H 0.13417 0.51720 0.38458
 H424 H 0.16743 0.53516 0.41397
 H425 H 0.21140 0.63301 0.39399
 H426 H 0.17666 0.61534 0.36543
 H427 H 0.21105 0.64014 0.42755
 H428 H 0.24834 0.66013 0.45504
 H429 H 0.25768 0.57576 0.45327
 H430 H 0.22137 0.55629 0.42518
 C431 C 0.55839 0.43386 0.35382
 C432 C 0.55242 0.45956 0.35321
 C433 C 0.54483 0.46891 0.33563
 C434 C 0.54301 0.45277 0.31826
 C435 C 0.54883 0.42699 0.31888
 C436 C 0.55645 0.41766 0.33645
 C437 C 0.56715 0.42429 0.37241
 C438 C 0.55475 0.39181 0.37693
 C439 C 0.56393 0.38288 0.39410
 C440 C 0.58576 0.40622 0.40713
 C441 C 0.59774 0.43868 0.40276
 C442 C 0.58854 0.44761 0.38561
 C443 C 0.59682 0.39680 0.42489
 C444 C 0.62963 0.41408 0.43059
 C445 C 0.64044 0.40476 0.44688
 C446 C 0.61869 0.37789 0.45791
 C447 C 0.58577 0.36078 0.45234
 C448 C 0.57496 0.37012 0.43600
 H449 H 0.55326 0.47221 0.36639
 H450 H 0.53995 0.48853 0.33567
 H451 H 0.54809 0.41440 0.30570
 H452 H 0.56146 0.39813 0.33637
 H453 H 0.53792 0.37327 0.36718
 H454 H 0.55451 0.35769 0.39696
 H455 H 0.61430 0.45722 0.41261
 H456 H 0.59874 0.47283 0.38247
 H457 H 0.64717 0.43445 0.42218
 H458 H 0.66599 0.41844 0.45068
 H459 H 0.56836 0.33999 0.46050
 H460 H 0.54946 0.35653 0.43209
 C461 C 0.56192 0.13165 0.35744
 C462 C 0.58154 0.14275 0.34077
 C463 C 0.57310 0.12419 0.32392
 C464 C 0.54455 0.09381 0.32309
 C465 C 0.52486 0.08295 0.33995
 C466 C 0.53349 0.10156 0.35683
 C467 C 0.57110 0.15157 0.37531
 C468 C 0.54731 0.15332 0.38653
 C469 C 0.55613 0.17276 0.40305
 C470 C 0.58893 0.19092 0.40871
 C471 C 0.61266 0.18891 0.39760
 C472 C 0.60384 0.16943 0.38112
 C473 C 0.59850 0.21234 0.42592
 C474 C 0.62326 0.21538 0.43850
 C475 C 0.63297 0.23630 0.45432
 C476 C 0.61806 0.25459 0.45800
 C477 C 0.59302 0.25127 0.44555
 C478 C 0.58340 0.23043 0.42969
 H479 H 0.60319 0.16622 0.34059
 H480 H 0.58851 0.13466 0.31132
 H481 H 0.50337 0.05946 0.34060
 H482 H 0.51816 0.09205 0.36958
 H483 H 0.52192 0.14009 0.38234
 H484 H 0.53723 0.17349 0.41143
 H485 H 0.63817 0.20286 0.40144
 H486 H 0.62270 0.16830 0.37295
 H487 H 0.63503 0.20143 0.43617
 H488 H 0.65221 0.23815 0.46367
 H489 H 0.58113 0.26511 0.44789
 H490 H 0.56459 0.22900 0.42012
 C491 C 0.86498 0.44555 0.35594
 C492 C 0.89908 0.46440 0.35716
 C493 C 0.91822 0.47292 0.34034
 C494 C 0.90367 0.46264 0.32196
 C495 C 0.86959 0.44448 0.32070
 C496 C 0.85047 0.43612 0.33747
 C497 C 0.84458 0.43484 0.37381
 C498 C 0.81761 0.40370 0.37495
 C499 C 0.79840 0.39333 0.39169
 C500 C 0.80575 0.41374 0.40779
 C501 C 0.83270 0.44492 0.40668
 C502 C 0.85192 0.45535 0.38987
 C503 C 0.78521 0.40236 0.42558
 C504 C 0.77718 0.42260 0.43585
 C505 C 0.75669 0.41129 0.45210
 C506 C 0.74371 0.37946 0.45838
 C507 C 0.75223 0.35944 0.44831
 C508 C 0.77279 0.37078 0.43216
 H509 H 0.91104 0.47175 0.37117
 H510 H 0.94446 0.48671 0.34174
 H511 H 0.85769 0.43673 0.30670
 H512 H 0.82426 0.42222 0.33597
 H513 H 0.81152 0.38713 0.36297
 H514 H 0.77756 0.36933 0.39193
 H515 H 0.83918 0.46114 0.41888
 H516 H 0.87236 0.47957 0.38939
 H517 H 0.78605 0.44695 0.43104
 H518 H 0.75049 0.42730 0.45948
 H519 H 0.74289 0.33487 0.45283
 H520 H 0.77900 0.35475 0.42482
 C521 C 0.55940 0.42775 1.14000
 C522 C 0.52702 0.41167 1.14671
 C523 C 0.51843 0.42139 1.16378
 C524 C 0.54184 0.44784 1.17443
 C525 C 0.57400 0.46438 1.16743
 C526 C 0.58272 0.45427 1.15062
 C527 C 0.56904 0.41660 1.12230
 C528 C 0.59445 0.43847 1.11022
 C529 C 0.60469 0.42785 1.09428
 C530 C 0.58935 0.39510 1.08965
 C531 C 0.56328 0.37334 1.10138
 C532 C 0.55351 0.38388 1.11757
 C533 C 0.60085 0.38364 1.07294
 C534 C 0.59901 0.35365 1.07370
 C535 C 0.60976 0.34285 1.05812
 C536 C 0.62333 0.36205 1.04155
 C537 C 0.62560 0.39213 1.04076
 C538 C 0.61415 0.40265 1.05617
 H539 H 0.50818 0.39152 1.13880
 H540 H 0.49349 0.40776 1.16875
 H541 H 0.59264 0.48529 1.17490
 H542 H 0.60799 0.46705 1.14621
 H543 H 0.60663 0.46391 1.11306
 H544 H 0.62510 0.44540 1.08582
 H545 H 0.55031 0.34801 1.09812
 H546 H 0.53416 0.36617 1.12658
 H547 H 0.58977 0.33860 1.08648
 H548 H 0.60807 0.31969 1.05919
 H549 H 0.63572 0.40727 1.02806
 H550 H 0.61541 0.42556 1.05478
 C551 C 0.87173 0.43148 1.14499
 C552 C 0.86083 0.44167 1.16092
 C553 C 0.87856 0.45084 1.17827
 C554 C 0.90790 0.45049 1.18000
 C555 C 0.91883 0.44040 1.16394
 C556 C 0.90079 0.43075 1.14667
 C557 C 0.85268 0.42158 1.12670
 C558 C 0.84511 0.39266 1.11761
 C559 C 0.82584 0.38269 1.10082
 C560 C 0.81410 0.40169 1.09261
 C561 C 0.82253 0.43108 1.10151
 C562 C 0.84136 0.44076 1.11844
 C563 C 0.79251 0.39064 1.07518
 C564 C 0.76715 0.39751 1.07331
 C565 C 0.74675 0.38719 1.05707
 C566 C 0.75081 0.36932 1.04238
 C567 C 0.77593 0.36216 1.04423
 C568 C 0.79669 0.37289 1.06039
 H569 H 0.83825 0.44202 1.16005
 H570 H 0.86895 0.45774 1.19042
 H571 H 0.94158 0.44036 1.16457
 H572 H 0.90983 0.42326 1.13450
 H573 H 0.85335 0.37733 1.12381
 H574 H 0.81947 0.35972 1.09458
 H575 H 0.81467 0.44673 1.09538
 H576 H 0.84729 0.46340 1.12504
 H577 H 0.76262 0.41041 1.08458
 H578 H 0.72735 0.39275 1.05620
 H579 H 0.77974 0.34853 1.03310
 H580 H 0.81622 0.36753 1.06117
 C581 C 0.57482 0.12849 1.14700
 C582 C 0.56965 0.14164 1.16385
 C583 C 0.56031 0.12435 1.18123
 C584 C 0.55580 0.09315 1.18239
 C585 C 0.56171 0.08038 1.16539
 C586 C 0.57100 0.09778 1.14799
 C587 C 0.58397 0.14678 1.12846
 C588 C 0.60757 0.14677 1.11615
 C589 C 0.61664 0.16467 1.09894
 C590 C 0.60225 0.18289 1.09365
 C591 C 0.57839 0.18257 1.10586
 C592 C 0.56935 0.16472 1.12305
 C593 C 0.61255 0.20278 1.07573
 C594 C 0.58955 0.20502 1.06396
 C595 C 0.59942 0.22491 1.04760
 C596 C 0.63254 0.24300 1.04261
 C597 C 0.65548 0.24032 1.05420
 C598 C 0.64560 0.22044 1.07056
 H599 H 0.57330 0.16564 1.16369
 H600 H 0.55788 0.13628 1.19387
 H601 H 0.55767 0.05629 1.16502
 H602 H 0.57435 0.08680 1.13515
 H603 H 0.61945 0.13338 1.11999
 H604 H 0.63487 0.16418 1.08973
 H605 H 0.56710 0.19662 1.10231
 H606 H 0.55079 0.16488 1.13210
 H607 H 0.56386 0.19135 1.06741
 H608 H 0.58108 0.22630 1.03897
 H609 H 0.68120 0.25399 1.05083
 H610 H 0.66395 0.21955 1.07947
 C611 C 0.44616 0.57333 1.14019
 C612 C 0.42311 0.54668 1.15087
 C613 C 0.43216 0.53664 1.16760
 C614 C 0.46440 0.55338 1.17448
 C615 C 0.48756 0.57992 1.16377
 C616 C 0.47862 0.58959 1.14677
 C617 C 0.43613 0.58444 1.12260
 C618 C 0.45126 0.61718 1.11793
 C619 C 0.44103 0.62766 1.10188
 C620 C 0.41489 0.60580 1.09024
 C621 C 0.39996 0.57303 1.09480
 C622 C 0.41065 0.56249 1.11060
 C623 C 0.40284 0.61716 1.07371
 C624 C 0.38943 0.59823 1.05695
 C625 C 0.37732 0.60856 1.04175
 C626 C 0.37905 0.63838 1.04273
 C627 C 0.39279 0.65754 1.05927
 C628 C 0.40419 0.64692 1.07466
 H629 H 0.39778 0.53377 1.14655
 H630 H 0.41372 0.51565 1.17513
 H631 H 0.51254 0.59368 1.16865
 H632 H 0.49726 0.60985 1.13881
 H633 H 0.47065 0.63494 1.12690
 H634 H 0.45368 0.65302 1.09866
 H635 H 0.37951 0.55540 1.08642
 H636 H 0.39878 0.53703 1.11340
 H637 H 0.38853 0.57551 1.05542
 H638 H 0.36711 0.59347 1.02906
 H639 H 0.39408 0.68050 1.06049
 H640 H 0.41352 0.66188 1.08745
 C641 C 0.12452 0.56213 1.14561
 C642 C 0.12712 0.58464 1.15953
 C643 C 0.10837 0.57476 1.17648
 C644 C 0.08694 0.54215 1.18004
 C645 C 0.08427 0.51957 1.16625
 C646 C 0.10267 0.52946 1.14915
 C647 C 0.14484 0.57270 1.12766
 C648 C 0.15708 0.55407 1.11968
 C649 C 0.17670 0.56429 1.10308
 C650 C 0.18500 0.59364 1.09415
 C651 C 0.17261 0.61219 1.10207
 C652 C 0.15263 0.60176 1.11852
 C653 C 0.20691 0.60509 1.07688
 C654 C 0.20249 0.62265 1.06203
 C655 C 0.22358 0.63401 1.04607
 C656 C 0.24928 0.62767 1.04446
 C657 C 0.25352 0.60985 1.05916
 C658 C 0.23275 0.59889 1.07523
 H659 H 0.14413 0.60991 1.15755
 H660 H 0.11112 0.59259 1.18703
 H661 H 0.06762 0.49429 1.16860
 H662 H 0.09951 0.51148 1.13862
 H663 H 0.15199 0.53177 1.12643
 H664 H 0.18531 0.54909 1.09723
 H665 H 0.17877 0.63510 1.09578
 H666 H 0.14324 0.61651 1.12403
 H667 H 0.18254 0.62740 1.06260
 H668 H 0.21957 0.64751 1.03491
 H669 H 0.27333 0.60487 1.05843
 H670 H 0.23739 0.58607 1.08655
 C671 C 0.43138 0.87889 1.14544
 C672 C 0.45849 0.88270 1.15599
 C673 C 0.46830 0.90072 1.17308
 C674 C 0.45084 0.91484 1.18042
 C675 C 0.42374 0.91108 1.16987
 C676 C 0.41437 0.89365 1.15252
 C677 C 0.42058 0.85908 1.12740
 C678 C 0.38739 0.84122 1.12249
 C679 C 0.37718 0.82199 1.10589
 C680 C 0.39977 0.81942 1.09392
 C681 C 0.43299 0.83742 1.09876
 C682 C 0.44327 0.85724 1.11512
 C683 C 0.38867 0.79761 1.07675
 C684 C 0.40826 0.80496 1.06001
 C685 C 0.39812 0.78400 1.04416
 C686 C 0.36784 0.75565 1.04451
 C687 C 0.34803 0.74842 1.06103
 C688 C 0.35847 0.76893 1.07705
 H689 H 0.47198 0.87134 1.15127
 H690 H 0.48971 0.90357 1.18049
 H691 H 0.40936 0.92117 1.17511
 H692 H 0.39375 0.89185 1.14468
 H693 H 0.36905 0.84154 1.13166
 H694 H 0.35146 0.80911 1.10249
 H695 H 0.45117 0.83585 1.09012
 H696 H 0.46909 0.87107 1.11811
 H697 H 0.43132 0.82706 1.05900
 H698 H 0.41371 0.79022 1.03150
 H699 H 0.32472 0.72647 1.06174
 H700 H 0.34302 0.76191 1.08979
 C701 C 0.55377 0.43362 0.64620
 C702 C 0.52177 0.41661 0.65346
 C703 C 0.51366 0.42523 0.67109
 C704 C 0.53714 0.45158 0.68178
 C705 C 0.56892 0.46905 0.67427
 C706 C 0.57721 0.45996 0.65690
 C707 C 0.56290 0.42357 0.62785
 C708 C 0.58764 0.44621 0.61571
 C709 C 0.59741 0.43657 0.59912
 C710 C 0.58221 0.40407 0.59389
 C711 C 0.55674 0.38157 0.60567
 C712 C 0.54751 0.39111 0.62251
 C713 C 0.59332 0.39357 0.57655
 C714 C 0.59167 0.36364 0.57648
 C715 C 0.60199 0.35365 0.56033
 C716 C 0.61501 0.37361 0.54403
 C717 C 0.61721 0.40367 0.54405
 C718 C 0.60609 0.41338 0.56004
 H719 H 0.50280 0.39657 0.64553
 H720 H 0.48903 0.41086 0.67643
 H721 H 0.58758 0.48993 0.68176
 H722 H 0.60224 0.47342 0.65208
 H723 H 0.59965 0.47150 0.61901
 H724 H 0.61737 0.45467 0.59063
 H725 H 0.54383 0.35641 0.60197
 H726 H 0.52870 0.37281 0.63153
 H727 H 0.58293 0.34802 0.58904
 H728 H 0.60048 0.33053 0.56076
 H729 H 0.62698 0.41939 0.53157
 H730 H 0.60723 0.43629 0.55931
 C731 C 0.55811 0.12626 0.64239
 C732 C 0.52537 0.10933 0.64842
 C733 C 0.51625 0.09078 0.66537
 C734 C 0.53937 0.08761 0.67652
 C735 C 0.57194 0.10379 0.67016
 C736 C 0.58124 0.12323 0.65361
 C737 C 0.56817 0.14727 0.62472
 C738 C 0.59582 0.15325 0.61389
 C739 C 0.60604 0.17400 0.59792
 C740 C 0.58833 0.18864 0.59178
 C741 C 0.56012 0.18189 0.60225
 C742 C 0.55055 0.16203 0.61862
 C743 C 0.59941 0.21108 0.57477
 C744 C 0.59199 0.23588 0.57357
 C745 C 0.60221 0.25676 0.55768
 C746 C 0.62109 0.25414 0.54297
 C747 C 0.62906 0.22995 0.54409
 C748 C 0.61784 0.20827 0.55961
 H749 H 0.50651 0.11021 0.64009
 H750 H 0.49102 0.07933 0.66978
 H751 H 0.59053 0.10154 0.67789
 H752 H 0.60679 0.13618 0.64987
 H753 H 0.60977 0.14192 0.61763
 H754 H 0.62821 0.17880 0.59064
 H755 H 0.54516 0.19184 0.59787
 H756 H 0.52949 0.15876 0.62661
 H757 H 0.57876 0.23972 0.58504
 H758 H 0.59611 0.27555 0.55711
 H759 H 0.64342 0.22745 0.53273
 H760 H 0.62345 0.18917 0.55953
 C761 C 0.87240 0.44035 0.64302
 C762 C 0.88730 0.47183 0.65023
 C763 C 0.90625 0.48038 0.66712
 C764 C 0.91154 0.45791 0.67706
 C765 C 0.89729 0.42664 0.66959
 C766 C 0.87770 0.41789 0.65298
 C767 C 0.85104 0.43082 0.62545
 C768 C 0.84868 0.40682 0.61284
 C769 C 0.82769 0.39703 0.59684
 C770 C 0.80899 0.41147 0.59266
 C771 C 0.81195 0.43601 0.60501
 C772 C 0.83233 0.44525 0.62128
 C773 C 0.78623 0.40075 0.57572
 C774 C 0.75719 0.40188 0.57646
 C775 C 0.73593 0.39199 0.56060
 C776 C 0.74272 0.37992 0.54381
 C777 C 0.77137 0.37833 0.54302
 C778 C 0.79310 0.38902 0.55869
 H779 H 0.88445 0.49006 0.64283
 H780 H 0.91630 0.50457 0.67248
 H781 H 0.90125 0.40875 0.67651
 H782 H 0.86632 0.39328 0.64818
 H783 H 0.86310 0.39551 0.61525
 H784 H 0.82584 0.37773 0.58794
 H785 H 0.79857 0.44827 0.60214
 H786 H 0.83292 0.46342 0.63073
 H787 H 0.75048 0.40991 0.58941
 H788 H 0.71376 0.39308 0.56163
 H789 H 0.77725 0.36937 0.53014
 H790 H 0.81545 0.38840 0.55729
 C791 C 0.44702 0.56980 0.64537
 C792 C 0.42346 0.54359 0.65613
 C793 C 0.43155 0.53471 0.67369
 C794 C 0.46326 0.55225 0.68132
 C795 C 0.48684 0.57850 0.67059
 C796 C 0.47893 0.58692 0.65277
 C797 C 0.43812 0.57954 0.62677
 C798 C 0.45360 0.61191 0.62115
 C799 C 0.44460 0.62116 0.60406
 C800 C 0.41926 0.59847 0.59229
 C801 C 0.40397 0.56606 0.59780
 C802 C 0.41353 0.55670 0.61465
 C803 C 0.40834 0.60867 0.57468
 C804 C 0.39564 0.58852 0.55832
 C805 C 0.38455 0.59788 0.54212
 C806 C 0.38668 0.62791 0.54171
 C807 C 0.39972 0.64824 0.55784
 C808 C 0.41002 0.63860 0.57421
 H809 H 0.39849 0.53006 0.65120
 H810 H 0.41281 0.51391 0.68121
 H811 H 0.51141 0.59294 0.67601
 H812 H 0.49799 0.60686 0.64482
 H813 H 0.47231 0.63036 0.63013
 H814 H 0.45757 0.64626 0.60016
 H815 H 0.38411 0.54782 0.58935
 H816 H 0.40146 0.53147 0.61816
 H817 H 0.39450 0.56560 0.55790
 H818 H 0.37478 0.58187 0.52978
 H819 H 0.40121 0.67137 0.55798
 H820 H 0.41871 0.65449 0.58662
 C821 C 0.43735 0.86522 0.64345
 C822 C 0.42009 0.85255 0.66084
 C823 C 0.42836 0.87107 0.67771
 C824 C 0.45461 0.90291 0.67791
 C825 C 0.47241 0.91522 0.66050
 C826 C 0.46372 0.89676 0.64352
 C827 C 0.42761 0.84560 0.62534
 C828 C 0.45106 0.84831 0.61180
 C829 C 0.44175 0.82959 0.59493
 C830 C 0.40877 0.80742 0.59125
 C831 C 0.38537 0.80478 0.60479
 C832 C 0.39462 0.82376 0.62150
 C833 C 0.39875 0.78680 0.57356
 C834 C 0.36908 0.77803 0.56418
 C835 C 0.35891 0.75746 0.54816
 C836 C 0.37840 0.74558 0.54091
 C837 C 0.40840 0.75487 0.54994
 C838 C 0.41835 0.77505 0.56615
 H839 H 0.40033 0.82801 0.66156
 H840 H 0.41473 0.85966 0.69077
 H841 H 0.49213 0.93972 0.65951
 H842 H 0.47723 0.90758 0.63032
 H843 H 0.47670 0.86458 0.61434
 H844 H 0.46044 0.83265 0.58473
 H845 H 0.35981 0.78767 0.60266
 H846 H 0.37579 0.82136 0.63136
 H847 H 0.35366 0.78713 0.56916
 H848 H 0.33579 0.75095 0.54140
 H849 H 0.42379 0.74583 0.54478
 H850 H 0.44106 0.78077 0.57316
 C851 C 0.13584 0.55842 0.64372
 C852 C 0.14773 0.57714 0.66056
 C853 C 0.12919 0.56862 0.67757
 C854 C 0.09798 0.54093 0.67836
 C855 C 0.08645 0.52197 0.66137
 C856 C 0.10509 0.53064 0.64434
 C857 C 0.15554 0.56801 0.62559
 C858 C 0.15707 0.54505 0.61381
 C859 C 0.17628 0.55432 0.59701
 C860 C 0.19433 0.58674 0.59161
 C861 C 0.19250 0.60963 0.60329
 C862 C 0.17332 0.60038 0.62006
 C863 C 0.21548 0.59682 0.57408
 C864 C 0.21764 0.62123 0.56191
 C865 C 0.23848 0.63157 0.54585
 C866 C 0.25763 0.61770 0.54155
 C867 C 0.25512 0.59297 0.55358
 C868 C 0.23430 0.58267 0.56965
 H869 H 0.17175 0.59822 0.66072
 H870 H 0.14027 0.58337 0.69025
 H871 H 0.06238 0.50111 0.66070
 H872 H 0.09502 0.51597 0.63148
 H873 H 0.14387 0.51996 0.61776
 H874 H 0.17691 0.53608 0.58821
 H875 H 0.20637 0.63483 0.59966
 H876 H 0.17233 0.61860 0.62869
 H877 H 0.20310 0.63229 0.56477
 H878 H 0.23969 0.65057 0.53686
 H879 H 0.26959 0.58183 0.55074
 H880 H 0.23351 0.56411 0.57889
 C881 C 0.43729 0.57014 0.85948
 C882 C 0.41813 0.53871 0.85244
 C883 C 0.42692 0.52882 0.83555
 C884 C 0.45562 0.54978 0.82546
 C885 C 0.47532 0.58088 0.83286
 C886 C 0.46607 0.59104 0.84944
 C887 C 0.42691 0.58131 0.87686
 C888 C 0.44998 0.60496 0.88931
 C889 C 0.44012 0.61633 0.90507
 C890 C 0.40688 0.60385 0.90913
 C891 C 0.38385 0.57959 0.89698
 C892 C 0.39369 0.56884 0.88095
 C893 C 0.39612 0.61609 0.92580
 C894 C 0.36667 0.61640 0.92478
 C895 C 0.35575 0.62648 0.94061
 C896 C 0.37443 0.63744 0.95764
 C897 C 0.40433 0.63827 0.95859
 C898 C 0.41488 0.62731 0.94294
 H899 H 0.39618 0.52157 0.85992
 H900 H 0.41079 0.50484 0.83029
 H901 H 0.49800 0.59759 0.82586
 H902 H 0.48134 0.61555 0.85412
 H903 H 0.47579 0.61479 0.88696
 H904 H 0.45868 0.63528 0.91386
 H905 H 0.35804 0.56870 0.89980
 H906 H 0.37505 0.55104 0.87163
 H907 H 0.35197 0.60901 0.91172
 H908 H 0.33278 0.62604 0.93946
 H909 H 0.41900 0.64644 0.97168
 H910 H 0.43738 0.62700 0.94450
 C911 C 0.12920 0.56800 0.85530
 C912 C 0.14262 0.56229 0.83869
 C913 C 0.12544 0.55331 0.82116
 C914 C 0.09414 0.54983 0.81961
 C915 C 0.08098 0.55592 0.83642
 C916 C 0.09822 0.56477 0.85396
 C917 C 0.14770 0.57764 0.87388
 C918 C 0.14746 0.60118 0.88575
 C919 C 0.16584 0.61108 0.90285
 C920 C 0.18494 0.59771 0.90847
 C921 C 0.18473 0.57377 0.89678
 C922 C 0.16630 0.56383 0.87970
 C923 C 0.20584 0.60942 0.92609
 C924 C 0.20952 0.58812 0.93835
 C925 C 0.23023 0.59945 0.95449
 C926 C 0.24764 0.63234 0.95875
 C927 C 0.24361 0.65357 0.94661
 C928 C 0.22300 0.64225 0.93048
 H929 H 0.16684 0.56542 0.83910
 H930 H 0.13764 0.55050 0.80870
 H931 H 0.05669 0.55254 0.83649
 H932 H 0.08694 0.56845 0.86662
 H933 H 0.13361 0.61249 0.88160
 H934 H 0.16515 0.62928 0.91167
 H935 H 0.19942 0.56321 0.90059
 H936 H 0.16665 0.54532 0.87103
 H937 H 0.19632 0.56264 0.93550
 H938 H 0.23271 0.58245 0.96357
 H939 H 0.25679 0.67908 0.94938
 H940 H 0.22113 0.65935 0.92116
 C941 C 0.41969 0.86889 0.85319
 C942 C 0.42540 0.90037 0.85258
 C943 C 0.43455 0.91787 0.83520
 C944 C 0.43878 0.90459 0.81791
 C945 C 0.43225 0.87269 0.81862
 C946 C 0.42270 0.85515 0.83591
 C947 C 0.41131 0.85058 0.87179
 C948 C 0.42335 0.82986 0.87573
 C949 C 0.41538 0.81232 0.89301
 C950 C 0.39550 0.81531 0.90700
 C951 C 0.38364 0.83623 0.90318
 C952 C 0.39138 0.85359 0.88576
 C953 C 0.38699 0.79628 0.92533
 C954 C 0.35580 0.78341 0.93360
 C955 C 0.34740 0.76410 0.95023
 C956 C 0.36987 0.75697 0.95882
 C957 C 0.40122 0.77034 0.95081
 C958 C 0.40975 0.78995 0.93438
 H959 H 0.42382 0.91192 0.86568
 H960 H 0.44003 0.94246 0.83579
 H961 H 0.43336 0.86052 0.80570
 H962 H 0.41740 0.83059 0.83566
 H963 H 0.43921 0.82731 0.86551
 H964 H 0.42454 0.79607 0.89527
 H965 H 0.36855 0.83939 0.91370
 H966 H 0.38140 0.86908 0.88314
 H967 H 0.33752 0.78742 0.92691
 H968 H 0.32297 0.75393 0.95600
 H969 H 0.41919 0.76556 0.95723
 H970 H 0.43422 0.80006 0.92872
 C971 C 0.56200 0.43223 0.85932
 C972 C 0.58114 0.46375 0.85238
 C973 C 0.57223 0.47389 0.83560
 C974 C 0.54346 0.45309 0.82552
 C975 C 0.52377 0.42191 0.83284
 C976 C 0.53310 0.41151 0.84932
 C977 C 0.57253 0.42077 0.87654
 C978 C 0.54957 0.39696 0.88898
 C979 C 0.55956 0.38527 0.90456
 C980 C 0.59284 0.39756 0.90845
 C981 C 0.61576 0.42197 0.89632
 C982 C 0.60578 0.43306 0.88047
 C983 C 0.60373 0.38496 0.92491
 C984 C 0.63305 0.38447 0.92362
 C985 C 0.64409 0.37402 0.93925
 C986 C 0.62567 0.36289 0.95636
 C987 C 0.59589 0.36226 0.95758
 C988 C 0.58522 0.37357 0.94212
 H989 H 0.60317 0.48076 0.85985
 H990 H 0.58836 0.49794 0.83039
 H991 H 0.50103 0.40532 0.82585
 H992 H 0.51784 0.38694 0.85393
 H993 H 0.52374 0.38726 0.88676
 H994 H 0.54108 0.36623 0.91335
 H995 H 0.64160 0.43272 0.89902
 H996 H 0.62434 0.45096 0.87114
 H997 H 0.64755 0.39199 0.91049
 H998 H 0.66696 0.37431 0.93790
 H999 H 0.58141 0.35397 0.97073
 H1000 H 0.56282 0.37401 0.94389
 C1001 C 0.87648 0.43225 0.85498
 C1002 C 0.89115 0.41527 0.84776
 C1003 C 0.90912 0.42463 0.83051
 C1004 C 0.91373 0.45178 0.82018
 C1005 C 0.89978 0.46925 0.82768
 C1006 C 0.88111 0.45941 0.84467
 C1007 C 0.85592 0.42131 0.87289
 C1008 C 0.85380 0.44333 0.88531
 C1009 C 0.83346 0.43285 0.90163
 C1010 C 0.81521 0.40009 0.90626
 C1011 C 0.81804 0.37818 0.89413
 C1012 C 0.83770 0.38857 0.87757
 C1013 C 0.79298 0.38867 0.92345
 C1014 C 0.76424 0.35862 0.92308
 C1015 C 0.74370 0.34746 0.93923
 C1016 C 0.75084 0.36639 0.95597
 C1017 C 0.77900 0.39669 0.95634
 C1018 C 0.80009 0.40756 0.94035
 H1019 H 0.88885 0.39465 0.85541
 H1020 H 0.91896 0.41017 0.82516
 H1021 H 0.90327 0.49068 0.82048
 H1022 H 0.86990 0.47292 0.84948
 H1023 H 0.86787 0.46878 0.88251
 H1024 H 0.83174 0.45052 0.91040
 H1025 H 0.80507 0.35283 0.89736
 H1026 H 0.83810 0.37070 0.86830
 H1027 H 0.75724 0.34371 0.91023
 H1028 H 0.72182 0.32419 0.93849
 H1029 H 0.78507 0.41163 0.96916
 H1030 H 0.82218 0.43055 0.94140
 C1031 C 0.56459 0.12127 0.85462
 C1032 C 0.57988 0.10436 0.84827
 C1033 C 0.57051 0.08694 0.83090
 C1034 C 0.54480 0.08495 0.81961
 C1035 C 0.52903 0.10124 0.82621
 C1036 C 0.53912 0.11953 0.84321
 C1037 C 0.57527 0.14082 0.87287
 C1038 C 0.55334 0.14616 0.88373
 C1039 C 0.56362 0.16559 0.90027
 C1040 C 0.59593 0.17946 0.90695
 C1041 C 0.61762 0.17331 0.89643
 C1042 C 0.60761 0.15478 0.87950
 C1043 C 0.60701 0.20062 0.92453
 C1044 C 0.63968 0.22531 0.92645
 C1045 C 0.64989 0.24537 0.94272
 C1046 C 0.62750 0.24199 0.95709
 C1047 C 0.59496 0.21770 0.95532
 C1048 C 0.58493 0.19685 0.93943
 H1049 H 0.59910 0.10433 0.85670
 H1050 H 0.58383 0.07536 0.82632
 H1051 H 0.50863 0.09988 0.81836
 H1052 H 0.52700 0.13258 0.84717
 H1053 H 0.52803 0.13536 0.87957
 H1054 H 0.54611 0.17001 0.90756
 H1055 H 0.64249 0.18275 0.90118
 H1056 H 0.62559 0.15191 0.87153
 H1057 H 0.65742 0.22980 0.91523
 H1058 H 0.67508 0.26426 0.94376
 H1059 H 0.57740 0.21461 0.96640
 H1060 H 0.55985 0.17774 0.93897
   
