data_POSCAR
  _audit_creation_date              2014-09-24
  _audit_creation_method            'ToBaCCo'
  _symmetry_space_group_name_H-M    'P1'
  _symmetry_Int_Tables_number       1
  _symmetry_cell_setting            triclinic
  loop_
  _symmetry_equiv_pos_as_xyz
 x,y,z
_cell_length_a 50.6997
_cell_length_b 50.0002
_cell_length_c 48.0424
_cell_angle_alpha 89.459000
_cell_angle_beta 92.618000
_cell_angle_gamma 88.733100
loop_
  _atom_site_label
  _atom_site_type_symbol
  _atom_site_fract_x
  _atom_site_fract_y
  _atom_site_fract_z
C1 C 0.22384 0.50502 1.04394
 H2 H 0.23430 0.52349 1.04181
 C3 C 0.20312 0.50355 1.06222
 H4 H 0.19817 0.52129 1.07377
 C5 C 0.21601 0.46088 1.02880
 H6 H 0.22077 0.44453 1.01519
 C7 C 0.19527 0.45855 1.04655
 H8 H 0.18537 0.43963 1.04713
 N9 N 0.22937 0.48401 1.02727
 C10 C 0.27414 0.52959 0.97063
 H11 H 0.26223 0.52395 0.95249
 C12 C 0.29378 0.54843 0.96787
 H13 H 0.29635 0.55766 0.94772
 C14 C 0.28702 0.52266 1.01825
 H15 H 0.28505 0.51154 1.03745
 C16 C 0.30679 0.54157 1.01646
 H17 H 0.31985 0.54508 1.03447
 Zn18 Zn 0.25088 0.48576 0.99636
 N19 N 0.27142 0.51681 0.99542
 C20 C 0.21075 0.50641 0.96045
 N21 N 0.22682 0.48455 0.96516
 C22 C 0.22270 0.46138 0.95114
 C23 C 0.20144 0.45952 0.93175
 C24 C 0.18948 0.50552 0.94103
 C25 C 0.28151 0.44305 1.02102
 C26 C 0.30158 0.42340 1.02195
 C27 C 0.30755 0.43138 0.97296
 C28 C 0.28777 0.45122 0.97309
 N29 N 0.27505 0.45648 0.99682
 H30 H 0.21389 0.52425 0.97262
 H31 H 0.23502 0.44390 0.95602
 H32 H 0.19801 0.44077 0.92123
 H33 H 0.17642 0.52286 0.93821
 H34 H 0.27171 0.44818 1.03983
 H35 H 0.30687 0.41312 1.04142
 H36 H 0.31771 0.42759 0.95399
 H37 H 0.28279 0.46279 0.95437
 C38 C 0.31087 0.55407 0.99077
 C39 C 0.18753 0.48044 1.06285
 C40 C 0.31484 0.41746 0.99769
 C41 C 0.18430 0.48168 0.92683
 C42 C 0.78868 0.52686 -0.06323
 H43 H 0.78205 0.54684 -0.05810
 C44 C 0.80932 0.52328 -0.08129
 H45 H 0.81831 0.54067 -0.09015
 C46 C 0.78686 0.48002 -0.05568
 H47 H 0.77865 0.46333 -0.04478
 C48 C 0.80743 0.47556 -0.07349
 H49 H 0.81452 0.45528 -0.07671
 N50 N 0.77832 0.50536 -0.05044
 C51 C 0.73197 0.55698 0.00007
 H52 H 0.74233 0.55204 0.01958
 C53 C 0.71267 0.57736 -0.00071
 H54 H 0.70850 0.58793 0.01822
 C55 C 0.72372 0.54870 -0.04796
 H56 H 0.72770 0.53707 -0.06621
 C57 C 0.70449 0.56919 -0.04976
 H58 H 0.69363 0.57305 -0.06937
 Zn59 Zn 0.75647 0.50975 -0.01985
 N60 N 0.73645 0.54242 -0.02311
 C61 C 0.76936 0.50900 0.03940
 N62 N 0.77892 0.50913 0.01333
 C63 C 0.80540 0.50919 0.00975
 C64 C 0.82329 0.50918 0.03260
 C65 C 0.78669 0.50876 0.06298
 C66 C 0.71645 0.47924 -0.04389
 C67 C 0.69528 0.46190 -0.04485
 C68 C 0.70697 0.44836 0.00256
 C69 C 0.72816 0.46581 0.00249
 N70 N 0.73186 0.48160 -0.02017
 H71 H 0.74828 0.50917 0.04197
 H72 H 0.81291 0.50941 -0.01089
 H73 H 0.84425 0.50898 0.02912
 H74 H 0.77880 0.50878 0.08355
 H75 H 0.72020 0.49135 -0.06195
 H76 H 0.68304 0.46077 -0.06384
 H77 H 0.70350 0.43714 0.02136
 H78 H 0.74097 0.46729 0.02092
 C79 C 0.69812 0.58310 -0.02566
 C80 C 0.81950 0.49740 -0.08587
 C81 C 0.68969 0.44685 -0.02109
 C82 C 0.81405 0.50905 0.05965
 C83 C -0.03375 0.26925 0.44587
 H84 H -0.04940 0.25896 0.45576
 C85 C -0.04007 0.28865 0.42538
 H86 H -0.06065 0.29188 0.41905
 C87 C 0.01178 0.27775 0.44310
 H88 H 0.03186 0.27425 0.45112
 C89 C 0.00646 0.29693 0.42222
 H90 H 0.02294 0.30795 0.41489
 N91 N -0.00820 0.26452 0.45460
 C92 C -0.03621 0.22275 0.52399
 H93 H -0.02708 0.23566 0.53938
 C94 C -0.05494 0.20447 0.53205
 H95 H -0.06051 0.20381 0.55353
 C96 C -0.03891 0.20662 0.47772
 H97 H -0.03186 0.20705 0.45681
 C98 C -0.05788 0.18827 0.48479
 H99 H -0.06541 0.17458 0.46916
 Zn100 Zn 0.00032 0.24398 0.48707
 N101 N -0.02846 0.22332 0.49726
 C102 C -0.01083 0.28634 0.52137
 N103 N 0.00898 0.26902 0.51503
 C104 C 0.03394 0.27164 0.52617
 C105 C 0.03971 0.29260 0.54440
 C106 C -0.00599 0.30739 0.53957
 C107 C 0.03628 0.21323 0.45582
 C108 C 0.05422 0.19205 0.45218
 C109 C 0.05600 0.18425 0.50196
 C110 C 0.03784 0.20534 0.50461
 N111 N 0.02838 0.21932 0.48175
 H112 H -0.03033 0.28413 0.51168
 H113 H 0.04956 0.25810 0.52024
 H114 H 0.05971 0.29468 0.55286
 H115 H -0.02192 0.32137 0.54370
 H116 H 0.02782 0.22397 0.43782
 H117 H 0.05994 0.18706 0.43139
 H118 H 0.06271 0.17288 0.52032
 H119 H 0.03059 0.21007 0.52485
 C120 C -0.06574 0.18672 0.51238
 C121 C -0.01991 0.30348 0.41354
 C122 C 0.06406 0.17709 0.47543
 C123 C 0.01961 0.31093 0.55110
 C124 C 1.01479 0.73176 0.52825
 H125 H 1.03299 0.74018 0.52171
 C126 C 1.01536 0.71337 0.55037
 H127 H 1.03400 0.70806 0.56114
 C128 C 0.96853 0.72707 0.52120
 H129 H 0.95050 0.73194 0.50912
 C130 C 0.96813 0.70899 0.54344
 H131 H 0.94969 0.69999 0.54848
 N132 N 0.99158 0.73816 0.51418
 C133 C 0.95765 0.79910 0.45728
 H134 H 0.96718 0.79317 0.43854
 C135 C 0.94077 0.82150 0.45674
 H136 H 0.93675 0.83208 0.43719
 C137 C 0.95235 0.79297 0.50565
 H138 H 0.95790 0.78249 0.52488
 C139 C 0.93566 0.81555 0.50615
 H140 H 0.92838 0.82201 0.52588
 Zn141 Zn 0.99080 0.75958 0.48160
 N142 N 0.96308 0.78535 0.48146
 C143 C 0.96394 0.73395 0.43605
 N144 N 0.98707 0.73600 0.45129
 C145 C 1.00796 0.71927 0.44713
 C146 C 1.00619 0.69959 0.42682
 C147 C 0.96124 0.71439 0.41557
 C148 C 1.02837 0.79460 0.50219
 C149 C 1.04804 0.81354 0.50078
 C150 C 1.05382 0.80124 0.45287
 C151 C 1.03417 0.78230 0.45528
 N152 N 1.02173 0.77957 0.47961
 H153 H 0.94725 0.74681 0.44039
 H154 H 1.02595 0.72104 0.45992
 H155 H 1.02318 0.68663 0.42373
 H156 H 0.94246 0.71253 0.40418
 H157 H 1.01754 0.79262 0.52096
 H158 H 1.05235 0.82600 0.51866
 H159 H 1.06307 0.80375 0.43316
 H160 H 1.02792 0.77082 0.43730
 C161 C 0.93005 0.83046 0.48154
 C162 C 0.99182 0.70169 0.55807
 C163 C 1.06061 0.81746 0.47569
 C164 C 0.98248 0.69669 0.41096
 C165 C 0.45206 -0.04252 0.28295
 H166 H 0.45995 -0.05878 0.27099
 C167 C 0.43394 -0.04786 0.30323
 H168 H 0.42746 -0.06815 0.30612
 C169 C 0.45223 0.00329 0.29519
 H170 H 0.46026 0.02298 0.29259
 C171 C 0.43409 -0.00113 0.31561
 H172 H 0.42824 0.01534 0.32860
 N173 N 0.46097 -0.01728 0.27951
 C174 C 0.52346 -0.04790 0.23166
 H175 H 0.53921 -0.03917 0.24420
 C176 C 0.52944 -0.06710 0.21178
 H177 H 0.54984 -0.07353 0.21038
 C178 C 0.47802 -0.04940 0.21832
 H179 H 0.45814 -0.04155 0.22024
 C180 C 0.48297 -0.06903 0.19868
 H181 H 0.46647 -0.07557 0.18560
 Zn182 Zn 0.48980 -0.01010 0.25730
 N183 N 0.49809 -0.03939 0.23444
 C184 C 0.52808 -0.02258 0.29938
 N185 N 0.51798 -0.00231 0.28281
 C186 C 0.52495 0.02348 0.28724
 C187 C 0.54249 0.02972 0.30936
 C188 C 0.54590 -0.01728 0.32155
 C189 C 0.45781 0.02996 0.22820
 C190 C 0.45337 0.05045 0.20837
 C191 C 0.49987 0.04863 0.19925
 C192 C 0.50332 0.02799 0.21882
 N193 N 0.48253 0.01926 0.23300
 H194 H 0.52153 -0.04278 0.29595
 H195 H 0.51596 0.03942 0.27449
 H196 H 0.54743 0.05039 0.31299
 H197 H 0.55315 -0.03356 0.33503
 H198 H 0.44145 0.02221 0.23921
 H199 H 0.43360 0.05869 0.20446
 H200 H 0.51663 0.05513 0.18795
 H201 H 0.52263 0.01868 0.22265
 C202 C 0.50910 -0.07797 0.19459
 C203 C 0.42511 -0.02709 0.32023
 C204 C 0.47462 0.06000 0.19370
 C205 C 0.55289 0.00923 0.32707
 C206 C 0.54206 -0.00831 0.73346
 H207 H 0.53353 -0.02784 0.73541
 C208 C 0.56003 -0.00365 0.71295
 H209 H 0.56539 -0.01980 0.69929
 C210 C 0.54350 0.03704 0.74733
 H211 H 0.53613 0.05304 0.76003
 C212 C 0.56129 0.04267 0.72677
 H213 H 0.56804 0.06291 0.72424
 N214 N 0.53410 0.01192 0.75004
 C215 C 0.48946 -0.03710 0.80580
 H216 H 0.46989 -0.02852 0.80162
 C217 C 0.49332 -0.05786 0.82533
 H218 H 0.47656 -0.06529 0.83600
 C219 C 0.53539 -0.03629 0.79866
 H220 H 0.55183 -0.02712 0.78900
 C221 C 0.54018 -0.05681 0.81830
 H222 H 0.56027 -0.06372 0.82313
 Zn223 Zn 0.50488 0.00508 0.77176
 N224 N 0.51037 -0.02672 0.79301
 C225 C 0.47025 0.02652 0.73168
 N226 N 0.47614 0.00320 0.74554
 C227 C 0.46498 -0.02016 0.73747
 C228 C 0.44763 -0.02063 0.71393
 C229 C 0.45297 0.02699 0.70834
 C230 C 0.52026 0.03959 0.81447
 C231 C 0.51703 0.05838 0.83541
 C232 C 0.47077 0.06258 0.82118
 C233 C 0.47494 0.04388 0.80033
 N234 N 0.49940 0.03283 0.79740
 H235 H 0.47991 0.04467 0.73815
 H236 H 0.47067 -0.03863 0.74822
 H237 H 0.43986 -0.03954 0.70693
 H238 H 0.44888 0.04580 0.69745
 H239 H 0.53935 0.03000 0.81208
 H240 H 0.53375 0.06315 0.84916
 H241 H 0.45114 0.07104 0.82345
 H242 H 0.45846 0.03763 0.78707
 C243 C 0.51902 -0.06753 0.83222
 C244 C 0.56939 0.02224 0.70899
 C245 C 0.49196 0.06991 0.83914
 C246 C 0.44204 0.00309 0.69862
 C247 C 0.21915 -0.03287 0.51244
 C248 C 0.23401 -0.00970 0.51098
 C249 C 0.22124 0.01539 0.50859
 C250 C 0.19354 0.01744 0.50727
 C251 C 0.17877 -0.00601 0.50772
 C252 C 0.19150 -0.03119 0.51056
 C253 C 0.26293 -0.01188 0.51071
 C254 C 0.27538 -0.00922 0.48548
 C255 C 0.30291 -0.01199 0.48465
 C256 C 0.31791 -0.01704 0.50952
 C257 C 0.30567 -0.01903 0.53516
 C258 C 0.27800 -0.01681 0.53546
 H259 H 0.22913 -0.05226 0.51421
 H260 H 0.23288 0.03327 0.50760
 H261 H 0.26354 -0.00553 0.46641
 H262 H 0.26814 -0.01810 0.55495
 H263 H 0.15738 -0.00466 0.50683
 H264 H 0.33920 -0.01900 0.50892
 C265 C 0.77462 -0.01275 0.52132
 C266 C 0.75982 0.01115 0.51860
 C267 C 0.77253 0.03544 0.51513
 C268 C 0.80017 0.03601 0.51494
 C269 C 0.81491 0.01195 0.51793
 C270 C 0.80227 -0.01263 0.52067
 C271 C 0.73091 0.01049 0.51859
 C272 C 0.71823 0.00968 0.54381
 C273 C 0.69065 0.00819 0.54397
 C274 C 0.67581 0.00745 0.51856
 C275 C 0.68853 0.00729 0.49316
 C276 C 0.71612 0.00914 0.49337
 H277 H 0.76445 -0.03149 0.52301
 H278 H 0.76091 0.05386 0.51279
 H279 H 0.72985 0.01008 0.56331
 H280 H 0.72617 0.00911 0.47392
 H281 H 0.83625 0.01236 0.51752
 H282 H 0.65456 0.00549 0.51864
 C283 C 0.53990 0.28854 1.02083
 C284 C 0.51559 0.27635 1.02408
 C285 C 0.49289 0.29211 1.02784
 C286 C 0.49431 0.32006 1.02856
 C287 C 0.51882 0.33212 1.02590
 C288 C 0.54176 0.31654 1.02180
 C289 C 0.51373 0.24706 1.02366
 C290 C 0.50974 0.23297 1.04841
 C291 C 0.50715 0.20510 1.04817
 C292 C 0.50804 0.19152 1.02278
 C293 C 0.51223 0.20542 0.99787
 C294 C 0.51532 0.23325 0.99852
 H295 H 0.55726 0.27618 1.01743
 H296 H 0.47410 0.28258 1.03016
 H297 H 0.50873 0.24372 1.06783
 H298 H 0.51830 0.24428 0.97943
 H299 H 0.51993 0.35371 1.02675
 H300 H 0.50650 0.16993 1.02256
 C301 C 0.51927 0.70177 0.00762
 C302 C 0.49610 0.71732 0.00975
 C303 C 0.47190 0.70485 0.01279
 C304 C 0.47061 0.67685 0.01309
 C305 C 0.49394 0.66143 0.01124
 C306 C 0.51843 0.67373 0.00895
 C307 C 0.49728 0.74668 0.00947
 C308 C 0.50010 0.76058 -0.01565
 C309 C 0.50096 0.78865 -0.01607
 C310 C 0.49977 0.80259 0.00913
 C311 C 0.49654 0.78883 0.03430
 C312 C 0.49507 0.76085 0.03430
 H313 H 0.53801 0.71154 0.00602
 H314 H 0.45403 0.71695 0.01436
 H315 H 0.50126 0.74954 -0.03489
 H316 H 0.49248 0.75009 0.05365
 H317 H 0.49306 0.63980 0.01195
 H318 H 0.49997 0.82427 0.00901
 C319 C 0.99902 0.52478 0.27656
 C320 C 1.00115 0.50403 0.25735
 C321 C 1.00093 0.47735 0.26645
 C322 C 0.99779 0.47128 0.29462
 C323 C 0.99520 0.49217 0.31368
 C324 C 0.99643 0.51905 0.30500
 C325 C 1.00427 0.51019 0.22774
 C326 C 1.02945 0.50941 0.21686
 C327 C 1.03244 0.51417 0.18839
 C328 C 1.01001 0.51990 0.17096
 C329 C 0.98467 0.52112 0.18169
 C330 C 0.98199 0.51620 0.21025
 H331 H 1.00030 0.54529 0.26936
 H332 H 1.00304 0.46135 0.25158
 H333 H 1.04659 0.50458 0.23044
 H334 H 0.96265 0.51703 0.21896
 H335 H 0.99296 0.48737 0.33547
 H336 H 1.01234 0.52320 0.14889
 C337 C 0.00954 0.52833 0.69765
 C338 C 0.00418 0.50612 0.71425
 C339 C 0.00159 0.48089 0.70216
 C340 C 0.00491 0.47758 0.67353
 C341 C 0.01042 0.49997 0.65706
 C342 C 0.01242 0.52548 0.66890
 C343 C 0.00236 0.50904 0.74451
 C344 C -0.02222 0.50880 0.75668
 C345 C -0.02386 0.51090 0.78572
 C346 C -0.00045 0.51247 0.80247
 C347 C 0.02419 0.51304 0.79030
 C348 C 0.02543 0.51162 0.76129
 H349 H 0.01156 0.54779 0.70718
 H350 H -0.00233 0.46374 0.71518
 H351 H -0.04001 0.50695 0.74352
 H352 H 0.04443 0.51183 0.75180
 H353 H 0.01225 0.49767 0.63482
 H354 H -0.00137 0.51415 0.82488
 C355 C 0.10303 0.14781 0.49046
 C356 C 0.11775 0.12380 0.48893
 C357 C 0.11042 0.10459 0.46875
 C358 C 0.08901 0.11012 0.44991
 C359 C 0.07452 0.13410 0.45153
 C360 C 0.08111 0.15296 0.47206
 C361 C 0.12430 0.08003 0.46802
 C362 C 0.14549 0.07446 0.48717
 C363 C 0.15330 0.09401 0.50680
 C364 C 0.13937 0.11852 0.50758
 C365 C 0.17476 0.08859 0.52559
 C366 C 0.18809 0.06387 0.52529
 C367 C 0.18009 0.04405 0.50637
 C368 C 0.15884 0.04954 0.48722
 H369 H 0.10841 0.16238 0.50618
 H370 H 0.08317 0.09568 0.43425
 H371 H 0.05757 0.13752 0.43730
 H372 H 0.11843 0.06516 0.45280
 H373 H 0.14514 0.13333 0.52291
 H374 H 0.18107 0.10336 0.54070
 H375 H 0.20432 0.05996 0.54033
 H376 H 0.15275 0.03442 0.47237
 C377 C 0.65584 0.59836 -0.00573
 C378 C 0.63279 0.61442 -0.00652
 C379 C 0.62880 0.63441 -0.02740
 C380 C 0.64793 0.63775 -0.04730
 C381 C 0.67063 0.62125 -0.04669
 C382 C 0.67480 0.60151 -0.02586
 C383 C 0.60563 0.65042 -0.02823
 C384 C 0.58622 0.64633 -0.00875
 C385 C 0.59016 0.62603 0.01184
 C386 C 0.61349 0.61041 0.01298
 C387 C 0.57062 0.62153 0.03093
 C388 C 0.54730 0.63692 0.02967
 C389 C 0.54316 0.65728 0.00950
 C390 C 0.56280 0.66200 -0.00962
 H391 H 0.65869 0.58282 0.01008
 H392 H 0.64519 0.65288 -0.06352
 H393 H 0.68501 0.62393 -0.06242
 H394 H 0.60258 0.66582 -0.04417
 H395 H 0.61648 0.59492 0.02885
 H396 H 0.57334 0.60606 0.04681
 H397 H 0.53260 0.63317 0.04481
 H398 H 0.55965 0.67756 -0.02536
 C399 C 0.89355 -0.14053 0.49981
 C400 C 0.87980 -0.11589 0.50094
 C401 C 0.88700 -0.09438 0.48375
 C402 C 0.90792 -0.09774 0.46600
 C403 C 0.92171 -0.12214 0.46528
 C404 C 0.91468 -0.14386 0.48204
 C405 C 0.87328 -0.06980 0.48465
 C406 C 0.85254 -0.06633 0.50266
 C407 C 0.84546 -0.08770 0.52008
 C408 C 0.85908 -0.11239 0.51905
 C409 C 0.82477 -0.08401 0.53815
 C410 C 0.81103 -0.05949 0.53872
 C411 C 0.81772 -0.03822 0.52123
 C412 C 0.83864 -0.04182 0.50333
 H413 H 0.88770 -0.15709 0.51268
 H414 H 0.91382 -0.08139 0.45286
 H415 H 0.93827 -0.12378 0.45191
 H416 H 0.87877 -0.05336 0.47135
 H417 H 0.85358 -0.12883 0.53234
 H418 H 0.81913 -0.10011 0.55176
 H419 H 0.79517 -0.05714 0.55292
 H420 H 0.84371 -0.02576 0.48937
 C421 C 0.35821 0.40028 1.01811
 C422 C 0.38034 0.38294 1.01758
 C423 C 0.38101 0.36244 0.99751
 C424 C 0.35963 0.35975 0.97824
 C425 C 0.33798 0.37750 0.97850
 C426 C 0.33711 0.39786 0.99837
 C427 C 0.40324 0.34532 0.99665
 C428 C 0.42509 0.34887 1.01511
 C429 C 0.42455 0.36955 1.03498
 C430 C 0.40204 0.38623 1.03632
 C431 C 0.44675 0.37349 1.05286
 C432 C 0.46941 0.35733 1.05084
 C433 C 0.47008 0.33669 1.03125
 C434 C 0.44774 0.33240 1.01362
 H435 H 0.35777 0.41623 1.03323
 H436 H 0.35984 0.34420 0.96269
 H437 H 0.32185 0.37537 0.96317
 H438 H 0.40374 0.32960 0.98125
 H439 H 0.40163 0.40210 1.05155
 H440 H 0.44670 0.38927 1.06816
 H441 H 0.48642 0.36084 1.06468
 H442 H 0.44831 0.31671 0.99821
 C443 C 0.89388 0.15929 0.50423
 C444 C 0.87840 0.13740 0.51089
 C445 C 0.88567 0.12124 0.53446
 C446 C 0.90773 0.12779 0.55146
 C447 C 0.92296 0.14967 0.54475
 C448 C 0.91646 0.16531 0.52087
 C449 C 0.87109 0.09852 0.54034
 C450 C 0.84931 0.09176 0.52299
 C451 C 0.84150 0.10841 0.49996
 C452 C 0.85611 0.13111 0.49405
 C453 C 0.81942 0.10181 0.48296
 C454 C 0.80558 0.07860 0.48831
 C455 C 0.81371 0.06152 0.51059
 C456 C 0.83544 0.06837 0.52805
 H457 H 0.88860 0.17144 0.48593
 H458 H 0.91352 0.11570 0.56965
 H459 H 0.94040 0.15380 0.55772
 H460 H 0.87695 0.08589 0.55815
 H461 H 0.85038 0.14362 0.47611
 H462 H 0.81308 0.11439 0.46531
 H463 H 0.78894 0.07358 0.47456
 H464 H 0.84160 0.05537 0.54546
 C465 C 0.34207 0.58993 0.00663
 C466 C 0.36546 0.60411 0.00373
 C467 C 0.38166 0.59838 -0.01878
 C468 C 0.37389 0.57920 -0.03838
 C469 C 0.35052 0.56544 -0.03551
 C470 C 0.33453 0.57043 -0.01291
 C471 C 0.40549 0.61172 -0.02126
 C472 C 0.41326 0.63097 -0.00172
 C473 C 0.39675 0.63734 0.02034
 C474 C 0.37303 0.62375 0.02303
 C475 C 0.40435 0.65716 0.03939
 C476 C 0.42819 0.67032 0.03677
 C477 C 0.44498 0.66360 0.01534
 C478 C 0.43734 0.64396 -0.00390
 H479 H 0.32976 0.59398 0.02403
 H480 H 0.38604 0.57462 -0.05577
 H481 H 0.34532 0.55026 -0.05060
 H482 H 0.41802 0.60703 -0.03835
 H483 H 0.36053 0.62838 0.04016
 H484 H 0.39192 0.66242 0.05635
 H485 H 0.43380 0.68541 0.05182
 H486 H 0.45011 0.63896 -0.02069
 C487 C 0.09783 -0.15466 0.49425
 C488 C 0.11337 -0.13185 0.49285
 C489 C 0.10992 -0.11416 0.46975
 C490 C 0.09157 -0.12002 0.44808
 C491 C 0.07625 -0.14281 0.44961
 C492 C 0.07892 -0.16009 0.47285
 C493 C 0.12460 -0.09074 0.46885
 C494 C 0.14285 -0.08489 0.49063
 C495 C 0.14685 -0.10297 0.51335
 C496 C 0.13199 -0.12626 0.51438
 C497 C 0.16561 -0.09740 0.53474
 C498 C 0.18022 -0.07409 0.53370
 C499 C 0.17599 -0.05579 0.51152
 C500 C 0.15725 -0.06126 0.49004
 H501 H 0.10018 -0.16803 0.51213
 H502 H 0.08873 -0.10674 0.43019
 H503 H 0.06160 -0.14642 0.43303
 H504 H 0.12172 -0.07702 0.45129
 H505 H 0.13481 -0.13994 0.53198
 H506 H 0.16902 -0.11107 0.55223
 H507 H 0.19464 -0.07012 0.55040
 H508 H 0.15422 -0.04729 0.47273
 C509 C 0.66450 0.40665 0.99408
 C510 C 0.64076 0.39283 0.99576
 C511 C 0.61735 0.40356 0.98246
 C512 C 0.61804 0.42777 0.96769
 C513 C 0.64160 0.44149 0.96636
 C514 C 0.66508 0.43121 0.97953
 C515 C 0.59351 0.39016 0.98444
 C516 C 0.59264 0.36627 0.99982
 C517 C 0.61601 0.35538 1.01303
 C518 C 0.63996 0.36865 1.01080
 C519 C 0.61492 0.33153 1.02850
 C520 C 0.59087 0.31879 1.03116
 C521 C 0.56747 0.32961 1.01833
 C522 C 0.56864 0.35327 1.00243
 H523 H 0.68245 0.39832 1.00412
 H524 H 0.60025 0.43633 0.95751
 H525 H 0.64123 0.46059 0.95553
 H526 H 0.57557 0.39851 0.97432
 H527 H 0.65787 0.36037 1.02104
 H528 H 0.63260 0.32290 1.03881
 H529 H 0.59049 0.30073 1.04373
 H530 H 0.55085 0.36157 0.99201
 C531 C 0.48810 0.10221 1.17057
 C532 C 0.48648 0.12027 1.14802
 C533 C 0.46713 0.11691 1.12625
 C534 C 0.44904 0.09620 1.12806
 C535 C 0.45076 0.07834 1.15067
 C536 C 0.47066 0.08083 1.17173
 C537 C 0.46662 0.13385 1.10277
 C538 C 0.48525 0.15406 1.10078
 C539 C 0.50391 0.15805 1.12308
 C540 C 0.50438 0.14116 1.14655
 C541 C 0.52222 0.17852 1.12124
 C542 C 0.52264 0.19436 1.09719
 C543 C 0.50487 0.18991 1.07451
 C544 C 0.48593 0.16996 1.07660
 H545 H 0.50331 0.10439 1.18695
 H546 H 0.43399 0.09342 1.11167
 H547 H 0.43721 0.06191 1.15114
 H548 H 0.45214 0.13094 1.08581
 H549 H 0.51905 0.14388 1.16338
 H550 H 0.53656 0.18193 1.13818
 H551 H 0.53746 0.20954 1.09592
 H552 H 0.47199 0.16664 1.05925
 C553 C 0.00982 0.65892 0.57946
 C554 C 0.00843 0.63774 0.59868
 C555 C -0.01065 0.63879 0.61926
 C556 C -0.02789 0.66104 0.62032
 C557 C -0.02673 0.68175 0.60073
 C558 C -0.00802 0.68079 0.58008
 C559 C -0.01263 0.61732 0.63799
 C560 C 0.00380 0.59454 0.63599
 C561 C 0.02286 0.59347 0.61541
 C562 C 0.02526 0.61521 0.59710
 C563 C 0.03883 0.57041 0.61312
 C564 C 0.03562 0.54841 0.63070
 C565 C 0.01664 0.54921 0.65109
 C566 C 0.00100 0.57251 0.65384
 H567 H 0.02406 0.65790 0.56331
 H568 H -0.04262 0.66217 0.63595
 H569 H -0.04057 0.69850 0.60158
 H570 H -0.02734 0.61809 0.65368
 H571 H 0.03979 0.61432 0.58123
 H572 H 0.05355 0.56924 0.59749
 H573 H 0.04802 0.53071 0.62839
 H574 H -0.01394 0.57315 0.66928
 C575 C 0.50798 0.89052 -0.14205
 C576 C 0.51129 0.87335 -0.11877
 C577 C 0.53059 0.87892 -0.09754
 C578 C 0.54682 0.90102 -0.10040
 C579 C 0.54353 0.91786 -0.12370
 C580 C 0.52386 0.91304 -0.14450
 C581 C 0.53304 0.86265 -0.07357
 C582 C 0.51648 0.84080 -0.07056
 C583 C 0.49781 0.83467 -0.09221
 C584 C 0.49531 0.85099 -0.11616
 C585 C 0.48159 0.81257 -0.08932
 C586 C 0.48330 0.79712 -0.06490
 C587 C 0.50114 0.80357 -0.04287
 C588 C 0.51795 0.82527 -0.04600
 H589 H 0.49291 0.88655 -0.15813
 H590 H 0.56177 0.90553 -0.08439
 H591 H 0.55582 0.93523 -0.12502
 H592 H 0.54754 0.86723 -0.05709
 H593 H 0.48067 0.84654 -0.13253
 H594 H 0.46725 0.80750 -0.10573
 H595 H 0.47001 0.78063 -0.06283
 H596 H 0.53194 0.83021 -0.02918
 C597 C 0.99256 0.33420 0.37602
 C598 C 0.98826 0.35805 0.36067
 C599 C 0.96522 0.37374 0.36436
 C600 C 0.94620 0.36458 0.38214
 C601 C 0.95049 0.34076 0.39726
 C602 C 0.97418 0.32558 0.39530
 C603 C 0.96187 0.39864 0.35080
 C604 C 0.98131 0.40801 0.33353
 C605 C 1.00375 0.39169 0.32869
 C606 C 1.00707 0.36679 0.34225
 C607 C 1.02287 0.40088 0.31093
 C608 C 1.02031 0.42642 0.29893
 C609 C 0.99874 0.44323 0.30468
 C610 C 0.97904 0.43373 0.32161
 H611 H 1.01029 0.32240 0.37271
 H612 H 0.92830 0.37628 0.38506
 H613 H 0.93586 0.33554 0.41195
 H614 H 0.94447 0.41097 0.35421
 H615 H 1.02461 0.35459 0.33908
 H616 H 1.04009 0.38857 0.30682
 H617 H 1.03572 0.43348 0.28598
 H618 H 0.96223 0.44660 0.32587
 C619 C 0.49577 0.88513 0.16360
 C620 C 0.50040 0.86849 0.14088
 C621 C 0.52417 0.87048 0.12687
 C622 C 0.54338 0.88823 0.13660
 C623 C 0.53883 0.90447 0.15949
 C624 C 0.51467 0.90378 0.17300
 C625 C 0.52825 0.85490 0.10323
 C626 C 0.50897 0.83703 0.09368
 C627 C 0.48566 0.83420 0.10844
 C628 C 0.48146 0.85005 0.13183
 C629 C 0.46678 0.81574 0.09937
 C630 C 0.47071 0.80054 0.07561
 C631 C 0.49336 0.80384 0.06032
 C632 C 0.51252 0.82203 0.06950
 H633 H 0.47755 0.88297 0.17424
 H634 H 0.56179 0.88993 0.12619
 H635 H 0.55382 0.91869 0.16531
 H636 H 0.54631 0.85680 0.09218
 H637 H 0.46335 0.84821 0.14281
 H638 H 0.44889 0.81320 0.11052
 H639 H 0.45575 0.78663 0.06873
 H640 H 0.53014 0.82441 0.05783
 C641 C 0.00746 0.34325 0.58828
 C642 C 0.01141 0.36720 0.60274
 C643 C 0.03368 0.38271 0.59756
 C644 C 0.05199 0.37361 0.57858
 C645 C 0.04786 0.34979 0.56421
 C646 C 0.02537 0.33462 0.56855
 C647 C 0.03703 0.40726 0.61101
 C648 C 0.01835 0.41654 0.62953
 C649 C -0.00357 0.40070 0.63524
 C650 C -0.00689 0.37612 0.62183
 C651 C -0.02202 0.40988 0.65403
 C652 C -0.01902 0.43470 0.66674
 C653 C 0.00236 0.45086 0.66076
 C654 C 0.02110 0.44155 0.64224
 H655 H -0.00977 0.33152 0.59205
 H656 H 0.06921 0.38520 0.57441
 H657 H 0.06180 0.34372 0.54893
 H658 H 0.05395 0.41932 0.60676
 H659 H -0.02390 0.36415 0.62594
 H660 H -0.03890 0.39797 0.65869
 H661 H -0.03375 0.44156 0.68084
 H662 H 0.03784 0.45377 0.63782
 C663 C 0.50590 0.10852 0.86892
 C664 C 0.50278 0.12492 0.89216
 C665 C 0.48127 0.12100 0.90939
 C666 C 0.46293 0.10124 0.90270
 C667 C 0.46612 0.08509 0.87948
 C668 C 0.48776 0.08835 0.86259
 C669 C 0.47863 0.13664 0.93321
 C670 C 0.49719 0.15618 0.94004
 C671 C 0.51832 0.16058 0.92245
 C672 C 0.52100 0.14491 0.89863
 C673 C 0.53662 0.18041 0.92920
 C674 C 0.53431 0.19538 0.95342
 C675 C 0.51378 0.19066 0.97139
 C676 C 0.49512 0.17118 0.96439
 H677 H 0.52248 0.11135 0.85581
 H678 H 0.44631 0.09801 0.91563
 H679 H 0.45204 0.06952 0.87516
 H680 H 0.46231 0.13339 0.94660
 H681 H 0.53740 0.14806 0.88532
 H682 H 0.55289 0.18412 0.91592
 H683 H 0.54898 0.21020 0.95851
 H684 H 0.47902 0.16769 0.97798
 C685 C 0.99109 0.64926 0.39698
 C686 C 0.98900 0.62833 0.37788
 C687 C 0.97503 0.63255 0.35202
 C688 C 0.96338 0.65774 0.34578
 C689 C 0.96573 0.67858 0.36489
 C690 C 0.97970 0.67461 0.39061
 C691 C 0.97311 0.61161 0.33281
 C692 C 0.98525 0.58661 0.33907
 C693 C 0.99921 0.58251 0.36498
 C694 C 1.00086 0.60331 0.38426
 C695 C 1.01160 0.55773 0.37111
 C696 C 1.01046 0.53720 0.35169
 C697 C 0.99664 0.54088 0.32582
 C698 C 0.98392 0.56571 0.31975
 H699 H 1.00145 0.64572 0.41696
 H700 H 0.95264 0.66138 0.32604
 H701 H 0.95694 0.69795 0.35936
 H702 H 0.96243 0.61483 0.31294
 H703 H 1.01161 0.60012 0.40410
 H704 H 1.02252 0.55433 0.39080
 H705 H 1.02095 0.51856 0.35675
 H706 H 0.97298 0.56878 0.30002
 C707 C 1.16016 0.49560 0.10147
 C708 C 1.13615 0.49543 0.11509
 C709 C 1.11533 0.47950 0.10466
 C710 C 1.11896 0.46353 0.08142
 C711 C 1.14284 0.46350 0.06822
 C712 C 1.16391 0.47968 0.07770
 C713 C 1.09104 0.47990 0.11741
 C714 C 1.08728 0.49583 0.14075
 C715 C 1.10826 0.51118 0.15189
 C716 C 1.13256 0.51098 0.13891
 C717 C 1.10443 0.52659 0.17571
 C718 C 1.07993 0.52712 0.18802
 C719 C 1.05882 0.51253 0.17650
 C720 C 1.06272 0.49674 0.15300
 H721 H 1.17602 0.50763 0.11000
 H722 H 1.10313 0.45129 0.07312
 H723 H 1.14392 0.45174 0.04952
 H724 H 1.07500 0.46791 0.10906
 H725 H 1.14856 0.52303 0.14722
 H726 H 1.12030 0.53838 0.18467
 H727 H 1.07724 0.53943 0.20615
 H728 H 1.04656 0.48515 0.14428
 C729 C 0.60636 0.01058 0.67814
 C730 C 0.61985 0.01440 0.65360
 C731 C 0.61247 0.03602 0.63548
 C732 C 0.59233 0.05395 0.64271
 C733 C 0.57906 0.05005 0.66724
 C734 C 0.58562 0.02809 0.68488
 C735 C 0.62504 0.03910 0.61025
 C736 C 0.64504 0.02095 0.60303
 C737 C 0.65297 -0.00016 0.62162
 C738 C 0.64026 -0.00335 0.64671
 C739 C 0.67340 -0.01787 0.61473
 C740 C 0.68576 -0.01487 0.58956
 C741 C 0.67765 0.00564 0.57071
 C742 C 0.65725 0.02351 0.57750
 H743 H 0.61170 -0.00626 0.69179
 H744 H 0.58648 0.07069 0.62915
 H745 H 0.56296 0.06364 0.67188
 H746 H 0.61912 0.05545 0.59617
 H747 H 0.64609 -0.01979 0.66073
 H748 H 0.67979 -0.03408 0.62876
 H749 H 0.70143 -0.02884 0.58456
 H750 H 0.65115 0.03950 0.56305
 C751 C -0.15169 0.50780 0.87425
 C752 C -0.12774 0.50480 0.86082
 C753 C -0.10774 0.48723 0.87224
 C754 C -0.11216 0.47264 0.89654
 C755 C -0.13601 0.47565 0.90968
 C756 C -0.15594 0.49334 0.89884
 C757 C -0.08352 0.48472 0.85941
 C758 C -0.07900 0.49949 0.83521
 C759 C -0.09916 0.51667 0.82344
 C760 C -0.12338 0.51925 0.83633
 C761 C -0.09465 0.53115 0.79905
 C762 C -0.07032 0.52891 0.78663
 C763 C -0.04999 0.51226 0.79842
 C764 C -0.05455 0.49748 0.82269
 H765 H -0.16699 0.52135 0.86561
 H766 H -0.09705 0.45911 0.90559
 H767 H -0.13859 0.46461 0.92883
 H768 H -0.06813 0.47142 0.86837
 H769 H -0.13873 0.53262 0.82743
 H770 H -0.10986 0.54438 0.78970
 H771 H -0.06718 0.54067 0.76808
 H772 H -0.03908 0.48436 0.83175
 C773 C 0.38816 -0.01457 0.35100
 C774 C 0.37419 -0.01839 0.37523
 C775 C 0.38043 -0.04072 0.39279
 C776 C 0.40007 -0.05916 0.38546
 C777 C 0.41396 -0.05514 0.36138
 C778 C 0.40844 -0.03265 0.34414
 C779 C 0.36728 -0.04401 0.41761
 C780 C 0.34799 -0.02523 0.42514
 C781 C 0.34134 -0.00322 0.40727
 C782 C 0.35446 0.00005 0.38243
 C783 C 0.32182 0.01534 0.41470
 C784 C 0.30919 0.01229 0.43973
 C785 C 0.31598 -0.00923 0.45786
 C786 C 0.33536 -0.02801 0.45037
 H787 H 0.38352 0.00268 0.33769
 H788 H 0.40509 -0.07640 0.39864
 H789 H 0.42970 -0.06918 0.35679
 H790 H 0.37228 -0.06099 0.43122
 H791 H 0.34956 0.01711 0.36891
 H792 H 0.31643 0.03229 0.40125
 H793 H 0.29440 0.02705 0.44521
 H794 H 0.34044 -0.04485 0.46411
 C795 C 0.15229 0.50006 0.88973
 C796 C 0.12842 0.49874 0.87385
 C797 C 0.11188 0.47661 0.87718
 C798 C 0.11981 0.45593 0.89583
 C799 C 0.14370 0.45731 0.91136
 C800 C 0.16001 0.47946 0.90869
 C801 C 0.08768 0.47555 0.86190
 C802 C 0.07998 0.49610 0.84298
 C803 C 0.09680 0.51793 0.83917
 C804 C 0.12079 0.51921 0.85480
 C805 C 0.08942 0.53802 0.81960
 C806 C 0.06570 0.53643 0.80380
 C807 C 0.04876 0.51504 0.80773
 C808 C 0.05586 0.49502 0.82749
 H809 H 0.16488 0.51711 0.88738
 H810 H 0.10743 0.43881 0.89859
 H811 H 0.14909 0.44136 0.92609
 H812 H 0.07493 0.45867 0.86463
 H813 H 0.13356 0.53607 0.85205
 H814 H 0.10211 0.55481 0.81631
 H815 H 0.06047 0.55195 0.78852
 H816 H 0.04291 0.47832 0.83024
 C817 C 0.59231 0.00003 0.35942
 C818 C 0.60725 0.00506 0.38406
 C819 C 0.59920 0.02575 0.40189
 C820 C 0.57669 0.04145 0.39443
 C821 C 0.56204 0.03643 0.36976
 C822 C 0.56954 0.01554 0.35221
 C823 C 0.61364 0.03028 0.42696
 C824 C 0.63619 0.01454 0.43430
 C825 C 0.64456 -0.00573 0.41611
 C826 C 0.62998 -0.01042 0.39120
 C827 C 0.66736 -0.02110 0.42318
 C828 C 0.68170 -0.01655 0.44810
 C829 C 0.67337 0.00324 0.46654
 C830 C 0.65053 0.01872 0.45955
 H831 H 0.59835 -0.01596 0.34584
 H832 H 0.57025 0.05742 0.40779
 H833 H 0.54440 0.04846 0.36477
 H834 H 0.60731 0.04598 0.44076
 H835 H 0.63628 -0.02616 0.37743
 H836 H 0.67408 -0.03667 0.40948
 H837 H 0.69913 -0.02885 0.45325
 H838 H 0.64415 0.03415 0.47362
 C839 C 0.85529 0.52543 0.08372
 C840 C 0.87515 0.52339 0.10494
 C841 C 0.87286 0.50477 0.12698
 C842 C 0.85024 0.48915 0.12782
 C843 C 0.83056 0.49122 0.10646
 C844 C 0.83320 0.50893 0.08393
 C845 C 0.89349 0.50164 0.14737
 C846 C 0.91645 0.51671 0.14578
 C847 C 0.91833 0.53581 0.12409
 C848 C 0.89762 0.53914 0.10395
 C849 C 0.94119 0.55085 0.12249
 C850 C 0.96240 0.54648 0.14164
 C851 C 0.96118 0.52701 0.16281
 C852 C 0.93786 0.51251 0.16506
 H853 H 0.85727 0.53947 0.06665
 H854 H 0.84807 0.47486 0.14461
 H855 H 0.81376 0.47826 0.10700
 H856 H 0.89193 0.48706 0.16405
 H857 H 0.89929 0.55351 0.08709
 H858 H 0.94286 0.56572 0.10614
 H859 H 0.97990 0.55828 0.13979
 H860 H 0.93674 0.49729 0.18116
 C861 C 0.40388 -0.01249 0.66778
 C862 C 0.38932 -0.01189 0.64212
 C863 C 0.39776 0.00423 0.62000
 C864 C 0.42067 0.01912 0.62367
 C865 C 0.43497 0.01843 0.64912
 C866 C 0.42665 0.00293 0.67155
 C867 C 0.38314 0.00540 0.59456
 C868 C 0.36009 -0.00930 0.59084
 C869 C 0.35167 -0.02567 0.61272
 C870 C 0.36636 -0.02690 0.63825
 C871 C 0.32854 -0.04032 0.60873
 C872 C 0.31376 -0.03849 0.58343
 C873 C 0.32184 -0.02201 0.56166
 C874 C 0.34516 -0.00757 0.56558
 H875 H 0.39724 -0.02447 0.68490
 H876 H 0.42752 0.03139 0.60686
 H877 H 0.45278 0.02994 0.65118
 H878 H 0.38962 0.01791 0.57772
 H879 H 0.35983 -0.03932 0.65512
 H880 H 0.32180 -0.05307 0.62520
 H881 H 0.29603 -0.05006 0.58087
 H882 H 0.35139 0.00560 0.54920
   
