data_POSCAR
  _audit_creation_date              2014-09-24
  _audit_creation_method            'ToBaCCo'
  _symmetry_space_group_name_H-M    'P1'
  _symmetry_Int_Tables_number       1
  _symmetry_cell_setting            triclinic
  loop_
  _symmetry_equiv_pos_as_xyz
 x,y,z
_cell_length_a 48.0806
_cell_length_b 39.3604
_cell_length_c 26.1530
_cell_angle_alpha 90.341800
_cell_angle_beta 90.000800
_cell_angle_gamma 89.440000
loop_
  _atom_site_label
  _atom_site_type_symbol
  _atom_site_fract_x
  _atom_site_fract_y
  _atom_site_fract_z
C1 C 1.27406 0.21356 0.26334
 C2 C 1.25063 0.23053 0.24334
 C3 C 1.22774 0.21148 0.22674
 C4 C 1.22814 0.17584 0.22938
 C5 C 1.25159 0.15934 0.25021
 C6 C 1.27487 0.17775 0.26804
 C7 C 1.24986 0.26834 0.24083
 C8 C 1.27254 0.28629 0.22090
 C9 C 1.27218 0.32221 0.21781
 C10 C 1.24833 0.33966 0.23657
 C11 C 1.22570 0.32212 0.25771
 C12 C 1.22656 0.28647 0.25894
 H13 H 1.29083 0.22886 0.27818
 H14 H 1.20987 0.22444 0.21044
 H15 H 1.28979 0.27170 0.20534
 H16 H 1.20947 0.27273 0.27583
 H17 H 1.25171 0.13188 0.25113
 H18 H 1.24753 0.36712 0.23672
 C19 C 0.77315 -0.28810 0.26686
 C20 C 0.74987 -0.27035 0.24778
 C21 C 0.72672 -0.28865 0.23068
 C22 C 0.72672 -0.32431 0.23180
 C23 C 0.75000 -0.34164 0.25176
 C24 C 0.77357 -0.32400 0.26998
 C25 C 0.74977 -0.23255 0.24583
 C26 C 0.77273 -0.21524 0.22575
 C27 C 0.77289 -0.17954 0.22344
 C28 C 0.74983 -0.16116 0.24251
 C29 C 0.72673 -0.17794 0.26322
 C30 C 0.72681 -0.21370 0.26416
 H31 H 0.79020 -0.27339 0.28198
 H32 H 0.70901 -0.27509 0.21488
 H33 H 0.79018 -0.22971 0.21058
 H34 H 0.70936 -0.22693 0.28071
 H35 H 0.74979 -0.36911 0.25144
 H36 H 0.74988 -0.13365 0.24132
 C37 C 0.77329 0.21437 -0.23193
 C38 C 0.75013 0.23168 -0.25228
 C39 C 0.72729 0.21281 -0.26997
 C40 C 0.72755 0.17705 -0.26809
 C41 C 0.75089 0.16031 -0.24717
 C42 C 0.77380 0.17870 -0.22863
 C43 C 0.74970 0.26952 -0.25427
 C44 C 0.77283 0.28731 -0.27288
 C45 C 0.77287 0.32327 -0.27518
 C46 C 0.74902 0.34086 -0.25681
 C47 C 0.72592 0.32351 -0.23719
 C48 C 0.72634 0.28784 -0.23684
 H49 H 0.79057 0.22884 -0.21698
 H50 H 0.70961 0.22602 -0.28647
 H51 H 0.79012 0.27262 -0.28805
 H52 H 0.70884 0.27425 -0.22111
 H53 H 0.75118 0.13283 -0.24513
 H54 H 0.74850 0.36832 -0.25585
 C55 C 1.27292 -0.28546 -0.23769
 C56 C 1.24959 -0.26808 -0.25718
 C57 C 1.22673 -0.28666 -0.27475
 C58 C 1.22712 -0.32229 -0.27372
 C59 C 1.25045 -0.33932 -0.25351
 C60 C 1.27369 -0.32132 -0.23473
 C61 C 1.24919 -0.23038 -0.25912
 C62 C 1.27210 -0.21292 -0.27884
 C63 C 1.27213 -0.17725 -0.28080
 C64 C 1.24896 -0.15904 -0.26195
 C65 C 1.22590 -0.17604 -0.24161
 C66 C 1.22609 -0.21179 -0.24091
 H67 H 1.28970 -0.27049 -0.22211
 H68 H 1.20896 -0.27334 -0.29078
 H69 H 1.28968 -0.22722 -0.29389
 H70 H 1.20867 -0.22518 -0.22456
 H71 H 1.25053 -0.36680 -0.25395
 H72 H 1.24894 -0.13153 -0.26290
 C73 C 0.22037 0.27773 0.74136
 C74 C 0.23515 0.25135 0.76505
 C75 C 0.22104 0.22576 0.79117
 C76 C 0.19191 0.22724 0.79606
 C77 C 0.17743 0.25395 0.77160
 C78 C 0.19140 0.27866 0.74342
 C79 C 0.26554 0.25102 0.76247
 C80 C 0.28023 0.27892 0.78149
 C81 C 0.30907 0.28122 0.77430
 C82 C 0.32283 0.25440 0.74855
 C83 C 0.30829 0.22629 0.72957
 C84 C 0.27957 0.22448 0.73728
 H85 H 0.23143 0.29678 0.71981
 H86 H 0.23306 0.20607 0.81001
 H87 H 0.26868 0.29959 0.79932
 H88 H 0.26795 0.20336 0.72164
 H89 H 0.15493 0.25490 0.77222
 H90 H 0.34526 0.25454 0.74470
 C91 C 0.71896 0.77455 0.73684
 C92 C 0.73393 0.74857 0.76134
 C93 C 0.72023 0.71963 0.77887
 C94 C 0.69159 0.71574 0.77078
 C95 C 0.67698 0.74199 0.74574
 C96 C 0.69030 0.77134 0.72766
 C97 C 0.76444 0.74997 0.76324
 C98 C 0.77778 0.77877 0.78292
 C99 C 0.80677 0.78115 0.78038
 C100 C 0.82227 0.75437 0.75873
 C101 C 0.80914 0.72591 0.73760
 C102 C 0.78017 0.72358 0.74084
 H103 H 0.73029 0.79584 0.72155
 H104 H 0.73238 0.69948 0.79631
 H105 H 0.76558 0.79957 0.79885
 H106 H 0.76968 0.70219 0.72341
 H107 H 0.65455 0.74063 0.74370
 H108 H 0.84475 0.75596 0.75771
 C109 C 0.71912 0.27591 0.22857
 C110 C 0.73393 0.25013 0.25351
 C111 C 0.71992 0.22407 0.27850
 C112 C 0.69090 0.22415 0.27978
 C113 C 0.67608 0.24978 0.25429
 C114 C 0.69004 0.27550 0.22803
 C115 C 0.76418 0.25057 0.25434
 C116 C 0.77790 0.27562 0.28253
 C117 C 0.80689 0.27500 0.28586
 C118 C 0.82196 0.24985 0.25930
 C119 C 0.80830 0.22514 0.23003
 C120 C 0.77925 0.22529 0.22837
 H121 H 0.73026 0.29562 0.20860
 H122 H 0.73163 0.20452 0.29837
 H123 H 0.76596 0.29476 0.30319
 H124 H 0.76833 0.20630 0.20614
 H125 H 0.65354 0.24969 0.25498
 H126 H 0.84447 0.24953 0.26147
 C127 C 0.21814 0.77393 0.24170
 C128 C 0.23304 0.74793 0.26631
 C129 C 0.21927 0.71886 0.28328
 C130 C 0.19068 0.71487 0.27453
 C131 C 0.17618 0.74119 0.24945
 C132 C 0.18956 0.77061 0.23179
 C133 C 0.26359 0.74927 0.26829
 C134 C 0.27704 0.77816 0.28751
 C135 C 0.30605 0.78050 0.28460
 C136 C 0.32142 0.75355 0.26313
 C137 C 0.30819 0.72508 0.24230
 C138 C 0.27924 0.72278 0.24593
 H139 H 0.22952 0.79528 0.22669
 H140 H 0.23138 0.69865 0.30065
 H141 H 0.26491 0.79909 0.30326
 H142 H 0.26870 0.70137 0.22867
 H143 H 0.15377 0.73980 0.24685
 H144 H 0.34391 0.75507 0.26177
 O145 O 1.04098 0.05330 0.10229
 O146 O 1.07114 0.02390 0.05004
 C147 C 1.06595 0.04504 0.08722
 O148 O 0.96105 -0.06614 0.08434
 O149 O 0.93075 -0.03042 0.04293
 C150 C 0.93604 -0.05601 0.07253
 O151 O 1.03877 -0.06626 0.08708
 O152 O 1.07030 -0.03395 0.04318
 C153 C 1.06390 -0.05855 0.07374
 O154 O 0.96342 0.06015 0.09580
 O155 O 0.93174 0.02994 0.04857
 C156 C 0.93832 0.05361 0.08091
 Zr157 Zr 1.00165 0.03880 0.07252
 O158 O 0.99899 0.03481 0.15305
 O159 O 1.00384 0.09244 0.07537
 Zr160 Zr 1.00028 -0.04614 0.06306
 O161 O 0.99959 -0.04459 0.14380
 O162 O 1.00169 -0.09987 0.06256
 O163 O 1.02612 -0.00498 0.07741
 O164 O 0.97640 -0.00330 0.07735
 O165 O 0.96173 0.06604 -0.07818
 O166 O 0.93109 0.03195 -0.03571
 C167 C 0.93661 0.05696 -0.06609
 O168 O 1.03951 -0.05696 -0.09602
 O169 O 1.07042 -0.02875 -0.04472
 C170 C 1.06467 -0.04952 -0.08184
 O171 O 0.96163 -0.05757 -0.09218
 O172 O 0.93107 -0.02750 -0.04145
 C173 C 0.93671 -0.04951 -0.07708
 O174 O 1.03960 0.06246 -0.08140
 O175 O 1.07078 0.02912 -0.03717
 C176 C 1.06462 0.05406 -0.06753
 Zr177 Zr 1.00080 0.04499 -0.05597
 O178 O 0.99846 0.05035 -0.13634
 O179 O 1.00163 0.09809 -0.04361
 Zr180 Zr 1.00057 -0.04015 -0.06630
 O181 O 0.99761 -0.03426 -0.14658
 O182 O 1.00287 -0.09360 -0.07511
 Zr183 Zr 1.04251 -0.00184 0.00285
 Zr184 Zr 0.95924 0.00021 0.00365
 O185 O 0.97634 0.00331 -0.07021
 O186 O 1.02575 0.00241 -0.07141
 O187 O 0.97657 0.04899 0.00922
 O188 O 1.02432 -0.05018 -0.00251
 O189 O 1.02549 0.04744 0.00872
 O190 O 0.97574 -0.04945 -0.00236
 H191 H 0.96357 -0.00394 0.10698
 H192 H 1.03619 -0.07083 -0.00538
 H193 H 0.96373 0.00499 -0.10008
 H194 H 1.03781 0.06738 0.01154
 H195 H 0.99015 -0.10750 0.03348
 H196 H 0.98861 -0.10345 -0.05251
 H197 H 1.01476 -0.02304 -0.15834
 H198 H 1.01300 0.03541 -0.15138
 H199 H 1.00182 0.10856 -0.07797
 H200 H 1.00411 0.09884 0.11209
 H201 H 1.01344 0.01827 0.16384
 H202 H 0.99900 -0.06858 0.15500
 O203 O 1.04054 0.55952 0.59130
 O204 O 1.07057 0.52662 0.54364
 C205 C 1.06545 0.54998 0.57773
 O206 O 0.96070 0.43995 0.59408
 O207 O 0.93018 0.47310 0.54857
 C208 C 0.93563 0.44928 0.58126
 O209 O 1.03842 0.44009 0.59614
 O210 O 1.06972 0.46889 0.54652
 C211 C 1.06345 0.44662 0.58091
 O212 O 0.96298 0.56622 0.58498
 O213 O 0.93112 0.53261 0.54371
 C214 C 0.93776 0.55817 0.57262
 Zr215 Zr 1.00120 0.54365 0.56387
 O216 O 0.99889 0.54694 0.64456
 O217 O 1.00348 0.59698 0.55577
 Zr218 Zr 0.99989 0.45849 0.56947
 O219 O 0.99942 0.46595 0.64952
 O220 O 1.00125 0.40505 0.57784
 O221 O 1.02564 0.50047 0.57626
 O222 O 0.97608 0.50214 0.57650
 O223 O 0.96113 0.56005 0.41087
 O224 O 0.93055 0.52893 0.45833
 C225 C 0.93607 0.55198 0.42463
 O226 O 1.03862 0.43557 0.41285
 O227 O 1.06963 0.46758 0.45837
 C228 C 1.06384 0.44435 0.42478
 O229 O 0.96092 0.43206 0.42495
 O230 O 0.93006 0.46872 0.46408
 C231 C 0.93597 0.44184 0.43730
 O232 O 1.03883 0.55323 0.40399
 O233 O 1.06985 0.52445 0.45503
 C234 C 1.06393 0.54505 0.41794
 Zr235 Zr 0.99999 0.53991 0.43541
 O236 O 0.99671 0.53981 0.35474
 O237 O 1.00193 0.59350 0.43906
 Zr238 Zr 0.99961 0.45465 0.43976
 O239 O 0.99509 0.45688 0.35926
 O240 O 1.00192 0.40117 0.43318
 Zr241 Zr 1.04177 0.49771 0.50145
 Zr242 Zr 0.95847 0.50001 0.50296
 O243 O 0.97519 0.49740 0.42867
 O244 O 1.02471 0.49633 0.42711
 O245 O 0.97581 0.54888 0.49979
 O246 O 1.02361 0.44936 0.50455
 O247 O 1.02508 0.54721 0.49869
 O248 O 0.97527 0.45034 0.50553
 H249 H 0.96350 0.50365 0.60646
 H250 H 1.03547 0.42865 0.50494
 H251 H 0.96204 0.49652 0.39952
 H252 H 1.03788 0.56676 0.49728
 H253 H 0.98865 0.39536 0.55179
 H254 H 0.99960 0.39216 0.46808
 H255 H 1.01346 0.46245 0.34463
 H256 H 1.00928 0.52167 0.34181
 H257 H 1.00230 0.60138 0.40315
 H258 H 1.00397 0.60653 0.59091
 H259 H 1.01202 0.52978 0.65832
 H260 H 0.99879 0.44295 0.66464
 O261 O 0.54045 0.05569 0.60083
 O262 O 0.57087 0.02563 0.54990
 C263 C 0.56550 0.04718 0.58650
 O264 O 0.46078 -0.06396 0.58415
 O265 O 0.43064 -0.02871 0.54143
 C266 C 0.43583 -0.05398 0.57167
 O267 O 0.53856 -0.06403 0.58805
 O268 O 0.57027 -0.03238 0.54349
 C269 C 0.56375 -0.05663 0.57456
 O270 O 0.46272 0.06244 0.59280
 O271 O 0.43147 0.03125 0.54601
 C272 C 0.43770 0.05520 0.57806
 Zr273 Zr 0.50126 0.04093 0.57065
 O274 O 0.49815 0.03802 0.65123
 O275 O 0.50340 0.09458 0.57186
 Zr276 Zr 0.50011 -0.04416 0.56323
 O277 O 0.49905 -0.04169 0.64392
 O278 O 0.50146 -0.09787 0.56454
 O279 O 0.52577 -0.00281 0.57710
 O280 O 0.47610 -0.00122 0.57608
 O281 O 0.46244 0.06688 0.41860
 O282 O 0.43167 0.03289 0.46082
 C283 C 0.43730 0.05772 0.43022
 O284 O 0.54006 -0.05683 0.40513
 O285 O 0.57070 -0.02808 0.45627
 C286 C 0.56516 -0.04930 0.41958
 O287 O 0.46212 -0.05747 0.40775
 O288 O 0.43134 -0.02682 0.45722
 C289 C 0.43713 -0.04930 0.42235
 O290 O 0.54024 0.06292 0.41710
 O291 O 0.57100 0.02948 0.46222
 C292 C 0.56513 0.05405 0.43112
 Zr293 Zr 0.50122 0.04568 0.44201
 O294 O 0.49932 0.04991 0.36143
 O295 O 0.50211 0.09891 0.45306
 Zr296 Zr 0.50095 -0.03959 0.43367
 O297 O 0.49840 -0.03425 0.35325
 O298 O 0.50326 -0.09309 0.42570
 Zr299 Zr 0.54250 -0.00059 0.50273
 Zr300 Zr 0.45927 0.00145 0.50200
 O301 O 0.47676 0.00383 0.42837
 O302 O 0.52618 0.00290 0.42806
 O303 O 0.47651 0.05033 0.50665
 O304 O 0.52435 -0.04897 0.49812
 O305 O 0.52553 0.04879 0.50710
 O306 O 0.47587 -0.04822 0.49749
 H307 H 0.46315 -0.00161 0.60555
 H308 H 0.53617 -0.06969 0.49588
 H309 H 0.46429 0.00516 0.39826
 H310 H 0.53792 0.06869 0.50961
 H311 H 0.49047 -0.10589 0.53499
 H312 H 0.48926 -0.10278 0.44898
 H313 H 0.51576 -0.02348 0.34154
 H314 H 0.51422 0.03519 0.34715
 H315 H 0.50268 0.10901 0.41846
 H316 H 0.50348 0.10146 0.60838
 H317 H 0.51240 0.02143 0.66272
 H318 H 0.49843 -0.06554 0.65572
 O319 O 0.53906 0.55930 0.09515
 O320 O 0.56931 0.52783 0.04588
 C321 C 0.56405 0.55012 0.08146
 O322 O 0.45879 0.43910 0.08403
 O323 O 0.42872 0.47405 0.04058
 C324 C 0.43384 0.44900 0.07137
 O325 O 0.53641 0.43925 0.08925
 O326 O 0.56824 0.47001 0.04359
 C327 C 0.56160 0.44643 0.07563
 O328 O 0.46145 0.56624 0.08720
 O329 O 0.42997 0.53421 0.04223
 C330 C 0.43635 0.55871 0.07334
 Zr331 Zr 0.49984 0.54431 0.06557
 O332 O 0.49681 0.54420 0.14630
 O333 O 0.50226 0.59788 0.06254
 Zr334 Zr 0.49812 0.45902 0.06358
 O335 O 0.49703 0.46458 0.14394
 O336 O 0.49791 0.40555 0.07067
 O337 O 0.52401 0.50055 0.07487
 O338 O 0.47440 0.50244 0.07371
 O339 O 0.46090 0.56608 -0.08717
 O340 O 0.42991 0.53344 -0.04290
 C341 C 0.43571 0.55741 -0.07489
 O342 O 0.53826 0.44193 -0.09380
 O343 O 0.56891 0.47178 -0.04423
 C344 C 0.56336 0.44981 -0.07987
 O345 O 0.46045 0.44258 -0.09181
 O346 O 0.42949 0.47438 -0.04441
 C347 C 0.43543 0.45147 -0.07863
 O348 O 0.53881 0.55898 -0.09307
 O349 O 0.56943 0.52841 -0.04354
 C350 C 0.56378 0.54994 -0.07956
 Zr351 Zr 0.49978 0.54559 -0.06288
 O352 O 0.49736 0.55034 -0.14326
 O353 O 0.50185 0.59884 -0.05316
 Zr354 Zr 0.49920 0.45996 -0.06595
 O355 O 0.49690 0.46184 -0.14678
 O356 O 0.50087 0.40620 -0.06855
 Zr357 Zr 0.54083 0.50066 0.00042
 Zr358 Zr 0.45765 0.50317 -0.00050
 O359 O 0.47531 0.50350 -0.07414
 O360 O 0.52434 0.50212 -0.07427
 O361 O 0.47503 0.55210 0.00127
 O362 O 0.52255 0.45229 -0.00108
 O363 O 0.52438 0.55031 0.00151
 O364 O 0.47395 0.45329 -0.00192
 H365 H 0.46138 0.50273 0.10310
 H366 H 0.53443 0.43161 -0.00229
 H367 H 0.46301 0.50430 -0.10453
 H368 H 0.53736 0.56971 0.00186
 H369 H 0.50126 0.39609 0.03612
 H370 H 0.48566 0.39777 -0.04665
 H371 H 0.51395 0.47295 -0.15929
 H372 H 0.50705 0.53031 -0.15799
 H373 H 0.50254 0.60842 -0.08807
 H374 H 0.50237 0.60599 0.09850
 H375 H 0.51062 0.52746 0.15897
 H376 H 0.49590 0.44125 0.15775
 C377 C 1.15897 0.11795 0.17279
 C378 C 1.15396 0.14688 0.20325
 C379 C 1.17661 0.16573 0.22158
 C380 C 1.20416 0.15573 0.20993
 C381 C 1.20872 0.12648 0.17946
 C382 C 1.18621 0.10759 0.16065
 C383 C 1.13520 0.09833 0.15275
 C384 C 1.14018 0.06983 0.12141
 C385 C 1.11750 0.05186 0.10122
 C386 C 1.08992 0.06218 0.11223
 C387 C 1.08543 0.09053 0.14468
 C388 C 1.10796 0.10878 0.16472
 C389 C 1.19036 0.07869 0.12961
 C390 C 1.16776 0.06019 0.11027
 C391 C 1.12639 0.15640 0.21463
 C392 C 1.10381 0.13768 0.19577
 H393 H 1.21126 0.07040 0.11992
 H394 H 1.17194 0.03824 0.08618
 H395 H 1.12220 0.17862 0.23816
 H396 H 1.08290 0.14606 0.20529
 H397 H 1.17285 0.18796 0.24535
 H398 H 1.22977 0.11878 0.16967
 H399 H 1.12135 0.03017 0.07640
 H400 H 1.06441 0.09900 0.15325
 C401 C 1.15828 0.62190 0.66511
 C402 C 1.15321 0.64961 0.69801
 C403 C 1.17579 0.66775 0.71793
 C404 C 1.20329 0.65821 0.70542
 C405 C 1.20798 0.63022 0.67252
 C406 C 1.18553 0.61206 0.65208
 C407 C 1.13458 0.60297 0.64360
 C408 C 1.13961 0.57558 0.61010
 C409 C 1.11698 0.55797 0.58920
 C410 C 1.08942 0.56758 0.60162
 C411 C 1.08488 0.59500 0.63574
 C412 C 1.10735 0.61282 0.65665
 C413 C 1.18974 0.58441 0.61861
 C414 C 1.16718 0.56652 0.59792
 C415 C 1.12565 0.65864 0.71025
 C416 C 1.10312 0.64054 0.68999
 H417 H 1.21066 0.57658 0.60816
 H418 H 1.17137 0.54547 0.57209
 H419 H 1.12144 0.67992 0.73565
 H420 H 1.08220 0.64841 0.70033
 H421 H 1.17202 0.68906 0.74353
 H422 H 1.22905 0.62299 0.66217
 H423 H 1.12086 0.53701 0.56301
 H424 H 1.06386 0.60283 0.64556
 C425 C 0.65836 0.11974 0.67370
 C426 C 0.65332 0.14899 0.70342
 C427 C 0.67596 0.16764 0.72230
 C428 C 0.70355 0.15715 0.71189
 C429 C 0.70813 0.12756 0.68214
 C430 C 0.68562 0.10886 0.66282
 C431 C 0.63460 0.10030 0.65313
 C432 C 0.63963 0.07144 0.62258
 C433 C 0.61699 0.05360 0.60196
 C434 C 0.58939 0.06439 0.61177
 C435 C 0.58484 0.09312 0.64341
 C436 C 0.60734 0.11125 0.66387
 C437 C 0.68981 0.07962 0.63252
 C438 C 0.66724 0.06129 0.61270
 C439 C 0.62571 0.15902 0.71356
 C440 C 0.60315 0.14048 0.69420
 H441 H 0.71074 0.07092 0.62379
 H442 H 0.67146 0.03905 0.58923
 H443 H 0.62149 0.18149 0.73652
 H444 H 0.58223 0.14925 0.70277
 H445 H 0.67214 0.19009 0.74556
 H446 H 0.72919 0.11944 0.67331
 H447 H 0.62090 0.03160 0.57779
 H448 H 0.56382 0.10195 0.65107
 C449 C 0.65729 0.62048 0.17083
 C450 C 0.65242 0.64854 0.20316
 C451 C 0.67516 0.66650 0.22303
 C452 C 0.70264 0.65644 0.21104
 C453 C 0.70708 0.62809 0.17869
 C454 C 0.68449 0.61011 0.15834
 C455 C 0.63345 0.60178 0.14927
 C456 C 0.63831 0.57411 0.11624
 C457 C 0.61558 0.55685 0.09502
 C458 C 0.58804 0.56707 0.10658
 C459 C 0.58364 0.59469 0.14043
 C460 C 0.60625 0.61220 0.16165
 C461 C 0.68852 0.58213 0.12542
 C462 C 0.66585 0.56448 0.10469
 C463 C 0.62489 0.65810 0.21482
 C464 C 0.60222 0.64023 0.19449
 H465 H 0.70939 0.57387 0.11541
 H466 H 0.66991 0.54318 0.07925
 H467 H 0.62082 0.67965 0.23977
 H468 H 0.58135 0.64857 0.20435
 H469 H 0.67153 0.68807 0.24819
 H470 H 0.72810 0.62042 0.16863
 H471 H 0.61937 0.53572 0.06909
 H472 H 0.56266 0.60302 0.14955
 C473 C 0.84255 -0.12746 0.15802
 C474 C 0.81539 -0.11666 0.14625
 C475 C 0.79272 -0.13372 0.16779
 C476 C 0.79704 -0.16150 0.20081
 C477 C 0.82450 -0.17205 0.21192
 C478 C 0.84732 -0.15508 0.19072
 C479 C 0.86648 -0.10941 0.13581
 C480 C 0.89364 -0.12006 0.14783
 C481 C 0.91632 -0.10263 0.12696
 C482 C 0.91201 -0.07464 0.09430
 C483 C 0.88449 -0.06447 0.08263
 C484 C 0.86170 -0.08177 0.10320
 C485 C 0.87482 -0.16506 0.20169
 C486 C 0.89756 -0.14786 0.18064
 C487 C 0.81146 -0.08901 0.11316
 C488 C 0.83420 -0.07189 0.09200
 H489 H 0.87881 -0.18632 0.22685
 H490 H 0.91840 -0.15638 0.19023
 H491 H 0.79062 -0.08047 0.10361
 H492 H 0.83022 -0.05066 0.06676
 H493 H 0.77173 -0.12567 0.15837
 H494 H 0.82811 -0.19313 0.23763
 H495 H 0.93728 -0.11084 0.13632
 H496 H 0.88073 -0.04302 0.05769
 C497 C 0.84213 0.37716 0.66550
 C498 C 0.81540 0.39154 0.66239
 C499 C 0.79264 0.37371 0.68213
 C500 C 0.79613 0.34125 0.70479
 C501 C 0.82346 0.32733 0.70692
 C502 C 0.84637 0.34519 0.68770
 C503 C 0.86615 0.39593 0.64489
 C504 C 0.89296 0.38169 0.64845
 C505 C 0.91570 0.39955 0.62861
 C506 C 0.91174 0.43129 0.60467
 C507 C 0.88460 0.44514 0.60156
 C508 C 0.86179 0.42764 0.62180
 C509 C 0.87355 0.33177 0.69055
 C510 C 0.89641 0.34971 0.67138
 C511 C 0.81190 0.42345 0.63920
 C512 C 0.83466 0.44114 0.61918
 H513 H 0.87720 0.30716 0.70775
 H514 H 0.91696 0.33835 0.67435
 H515 H 0.79136 0.43485 0.63638
 H516 H 0.83098 0.46560 0.60152
 H517 H 0.77212 0.38480 0.67755
 H518 H 0.82737 0.30325 0.72545
 H519 H 0.93637 0.38842 0.63090
 H520 H 0.88120 0.46952 0.58343
 C521 C 0.34201 -0.12503 0.65573
 C522 C 0.31493 -0.11433 0.64320
 C523 C 0.29216 -0.13141 0.66418
 C524 C 0.29633 -0.15910 0.69736
 C525 C 0.32370 -0.16953 0.70933
 C526 C 0.34661 -0.15255 0.68868
 C527 C 0.36604 -0.10702 0.63402
 C528 C 0.39313 -0.11761 0.64673
 C529 C 0.41591 -0.10026 0.62622
 C530 C 0.41174 -0.07242 0.59327
 C531 C 0.38432 -0.06224 0.58099
 C532 C 0.36144 -0.07948 0.60115
 C533 C 0.37402 -0.16247 0.70040
 C534 C 0.39688 -0.14530 0.67979
 C535 C 0.31117 -0.08678 0.60988
 C536 C 0.33403 -0.06966 0.58922
 H537 H 0.37786 -0.18367 0.72577
 H538 H 0.41766 -0.15375 0.68990
 H539 H 0.29039 -0.07832 0.59977
 H540 H 0.33020 -0.04851 0.56375
 H541 H 0.27121 -0.12348 0.65417
 H542 H 0.32713 -0.19056 0.73522
 H543 H 0.43682 -0.10843 0.63603
 H544 H 0.38070 -0.04087 0.55582
 C545 C 0.34063 0.37592 0.15515
 C546 C 0.31377 0.38992 0.15185
 C547 C 0.29124 0.37223 0.17285
 C548 C 0.29512 0.34022 0.19670
 C549 C 0.32256 0.32669 0.19895
 C550 C 0.34523 0.34446 0.17868
 C551 C 0.36444 0.39464 0.13363
 C552 C 0.39138 0.38089 0.13783
 C553 C 0.41397 0.39888 0.11777
 C554 C 0.40980 0.43033 0.09309
 C555 C 0.38249 0.44356 0.08892
 C556 C 0.35979 0.42592 0.10939
 C557 C 0.37252 0.33145 0.18190
 C558 C 0.39517 0.34937 0.16196
 C559 C 0.30995 0.42133 0.12727
 C560 C 0.33252 0.43894 0.10631
 H561 H 0.37642 0.30721 0.20010
 H562 H 0.41584 0.33841 0.16542
 H563 H 0.28931 0.43242 0.12419
 H564 H 0.32858 0.46304 0.08773
 H565 H 0.27059 0.38301 0.16840
 H566 H 0.32676 0.30301 0.21846
 H567 H 0.43476 0.38820 0.12099
 H568 H 0.37890 0.46770 0.07018
 C569 C 0.84340 0.12739 -0.15857
 C570 C 0.81623 0.11679 -0.14775
 C571 C 0.79363 0.13350 -0.17097
 C572 C 0.79797 0.16075 -0.20477
 C573 C 0.82544 0.17104 -0.21507
 C574 C 0.84821 0.15441 -0.19214
 C575 C 0.86726 0.10979 -0.13434
 C576 C 0.89444 0.12020 -0.14541
 C577 C 0.91708 0.10313 -0.12269
 C578 C 0.91268 0.07576 -0.08906
 C579 C 0.88513 0.06596 -0.07818
 C580 C 0.86241 0.08281 -0.10077
 C581 C 0.87572 0.16418 -0.20211
 C582 C 0.89842 0.14738 -0.17921
 C583 C 0.81224 0.08973 -0.11378
 C584 C 0.83491 0.07305 -0.09070
 H585 H 0.87977 0.18499 -0.22793
 H586 H 0.91926 0.15572 -0.18811
 H587 H 0.79139 0.08133 -0.10500
 H588 H 0.83087 0.05227 -0.06484
 H589 H 0.77263 0.12567 -0.16210
 H590 H 0.82909 0.19172 -0.24134
 H591 H 0.93806 0.11104 -0.13147
 H592 H 0.88129 0.04503 -0.05246
 C593 C 0.84275 0.62300 0.33406
 C594 C 0.84690 0.65437 0.31029
 C595 C 0.82401 0.67187 0.28926
 C596 C 0.79683 0.65818 0.29118
 C597 C 0.79345 0.62625 0.31523
 C598 C 0.81618 0.60881 0.33681
 C599 C 0.86672 0.60468 0.35672
 C600 C 0.86245 0.57357 0.38135
 C601 C 0.88520 0.55646 0.40338
 C602 C 0.91221 0.57005 0.40047
 C603 C 0.91611 0.60117 0.37508
 C604 C 0.89340 0.61869 0.35346
 C605 C 0.81276 0.57751 0.36158
 C606 C 0.83547 0.56024 0.38354
 C607 C 0.87393 0.66760 0.30780
 C608 C 0.89677 0.65005 0.32888
 H609 H 0.79233 0.56627 0.36414
 H610 H 0.83187 0.53623 0.40236
 H611 H 0.87749 0.69176 0.28940
 H612 H 0.91722 0.66120 0.32610
 H613 H 0.82783 0.69551 0.26964
 H614 H 0.77300 0.61539 0.31957
 H615 H 0.88188 0.53248 0.42250
 H616 H 0.93671 0.61202 0.37283
 C617 C 0.34398 0.12730 0.33691
 C618 C 0.34804 0.15826 0.31192
 C619 C 0.32519 0.17493 0.28926
 C620 C 0.29814 0.16079 0.29079
 C621 C 0.29486 0.12934 0.31622
 C622 C 0.31753 0.11273 0.33935
 C623 C 0.36790 0.10975 0.36104
 C624 C 0.36370 0.07897 0.38658
 C625 C 0.38642 0.06237 0.40943
 C626 C 0.41340 0.07608 0.40654
 C627 C 0.41722 0.10704 0.38061
 C628 C 0.39450 0.12404 0.35800
 C629 C 0.31417 0.08185 0.36529
 C630 C 0.33683 0.06530 0.38855
 C631 C 0.37497 0.17185 0.30981
 C632 C 0.39778 0.15503 0.33234
 H633 H 0.29384 0.07034 0.36765
 H634 H 0.33329 0.04155 0.40812
 H635 H 0.37847 0.19571 0.29052
 H636 H 0.41814 0.16641 0.32968
 H637 H 0.32896 0.19823 0.26873
 H638 H 0.27450 0.11822 0.32040
 H639 H 0.38310 0.03853 0.42893
 H640 H 0.43778 0.11797 0.37823
 C641 C 0.34273 0.62713 -0.16819
 C642 C 0.31629 0.61251 -0.16618
 C643 C 0.29362 0.62945 -0.18869
 C644 C 0.29693 0.66129 -0.21293
 C645 C 0.32396 0.67542 -0.21420
 C646 C 0.34680 0.65843 -0.19221
 C647 C 0.36662 0.60934 -0.14452
 C648 C 0.39319 0.62375 -0.14703
 C649 C 0.41586 0.60663 -0.12456
 C650 C 0.41197 0.57551 -0.09921
 C651 C 0.38507 0.56158 -0.09700
 C652 C 0.36240 0.57828 -0.11976
 C653 C 0.37371 0.67209 -0.19392
 C654 C 0.39650 0.65503 -0.17183
 C655 C 0.31292 0.58130 -0.14118
 C656 C 0.33556 0.56451 -0.11829
 H657 H 0.37719 0.69621 -0.21249
 H658 H 0.41686 0.66648 -0.17406
 H659 H 0.29259 0.56975 -0.13918
 H660 H 0.33203 0.54053 -0.09934
 H661 H 0.27325 0.61830 -0.18488
 H662 H 0.32771 0.69902 -0.23399
 H663 H 0.43639 0.61770 -0.12635
 H664 H 0.38177 0.53756 -0.07796
 C665 C 1.15691 -0.12015 -0.17740
 C666 C 1.15182 -0.14851 -0.20875
 C667 C 1.17441 -0.16661 -0.22989
 C668 C 1.20195 -0.15647 -0.21999
 C669 C 1.20660 -0.12777 -0.18867
 C670 C 1.18417 -0.10960 -0.16718
 C671 C 1.13325 -0.10137 -0.15435
 C672 C 1.13837 -0.07340 -0.12225
 C673 C 1.11585 -0.05614 -0.09943
 C674 C 1.08829 -0.06662 -0.10852
 C675 C 1.08358 -0.09445 -0.14157
 C676 C 1.10599 -0.11201 -0.16434
 C677 C 1.18844 -0.08127 -0.13527
 C678 C 1.16595 -0.06351 -0.11315
 C679 C 1.12423 -0.15825 -0.21811
 C680 C 1.10172 -0.14031 -0.19634
 H681 H 1.20937 -0.07286 -0.12707
 H682 H 1.17019 -0.04194 -0.08853
 H683 H 1.11999 -0.18004 -0.24230
 H684 H 1.08079 -0.14881 -0.20436
 H685 H 1.17060 -0.18842 -0.25432
 H686 H 1.22768 -0.12002 -0.18021
 H687 H 1.11983 -0.03474 -0.07428
 H688 H 1.06256 -0.10294 -0.14875
 C689 C 1.15637 0.37534 0.32642
 C690 C 1.15145 0.34700 0.29497
 C691 C 1.17412 0.32992 0.27211
 C692 C 1.20159 0.34104 0.28043
 C693 C 1.20601 0.36974 0.31188
 C694 C 1.18351 0.38690 0.33503
 C695 C 1.13264 0.39310 0.35117
 C696 C 1.13761 0.42119 0.38308
 C697 C 1.11505 0.43781 0.40688
 C698 C 1.08755 0.42663 0.39896
 C699 C 1.08301 0.39843 0.36650
 C700 C 1.10548 0.38154 0.34266
 C701 C 1.18761 0.41523 0.36705
 C702 C 1.16508 0.43205 0.39066
 C703 C 1.12396 0.33622 0.28727
 C704 C 1.10140 0.35320 0.31063
 H705 H 1.20844 0.42441 0.37407
 H706 H 1.16921 0.45372 0.41515
 H707 H 1.11984 0.31442 0.26306
 H708 H 1.08057 0.34397 0.30369
 H709 H 1.17041 0.30808 0.24768
 H710 H 1.22701 0.37823 0.31929
 H711 H 1.11897 0.45949 0.43151
 H712 H 1.06205 0.38945 0.36004
 C713 C 0.65767 -0.12136 0.32652
 C714 C 0.65259 -0.14996 0.29567
 C715 C 0.67519 -0.16829 0.27492
 C716 C 0.70276 -0.15814 0.28465
 C717 C 0.70739 -0.12919 0.31548
 C718 C 0.68493 -0.11080 0.33663
 C719 C 0.63397 -0.10229 0.34909
 C720 C 0.63907 -0.07405 0.38066
 C721 C 0.61650 -0.05646 0.40293
 C722 C 0.58891 -0.06686 0.39374
 C723 C 0.58427 -0.09502 0.36125
 C724 C 0.60671 -0.11290 0.33909
 C725 C 0.68918 -0.08221 0.36805
 C726 C 0.66667 -0.06419 0.38972
 C727 C 0.62498 -0.15969 0.28636
 C728 C 0.60246 -0.14148 0.30763
 H729 H 0.71011 -0.07377 0.37619
 H730 H 0.67091 -0.04242 0.41394
 H731 H 0.62074 -0.18166 0.26256
 H732 H 0.58154 -0.14997 0.29960
 H733 H 0.67135 -0.19026 0.25085
 H734 H 0.72847 -0.12138 0.32382
 H735 H 0.62046 -0.03483 0.42764
 H736 H 0.56324 -0.10348 0.35398
 C737 C 0.65637 0.37855 -0.17273
 C738 C 0.65150 0.35054 -0.20491
 C739 C 0.67426 0.33268 -0.22606
 C740 C 0.70175 0.34275 -0.21539
 C741 C 0.70615 0.37103 -0.18308
 C742 C 0.68356 0.38895 -0.16161
 C743 C 0.63253 0.39719 -0.14989
 C744 C 0.63744 0.42489 -0.11718
 C745 C 0.61475 0.44221 -0.09494
 C746 C 0.58721 0.43209 -0.10520
 C747 C 0.58273 0.40437 -0.13863
 C748 C 0.60532 0.38677 -0.16089
 C749 C 0.68761 0.41695 -0.12891
 C750 C 0.66497 0.43458 -0.10706
 C751 C 0.62395 0.34095 -0.21514
 C752 C 0.60128 0.35875 -0.19357
 H753 H 0.70849 0.42524 -0.11997
 H754 H 0.66906 0.45592 -0.08191
 H755 H 0.61987 0.31943 -0.23995
 H756 H 0.58041 0.35040 -0.20240
 H757 H 0.67061 0.31116 -0.25114
 H758 H 0.72716 0.37870 -0.17390
 H759 H 0.61861 0.46348 -0.06948
 H760 H 0.56174 0.39615 -0.14679
 C761 C 1.14331 0.15314 -0.13157
 C762 C 1.16893 0.14327 -0.15285
 C763 C 1.18603 0.16815 -0.17450
 C764 C 1.17710 0.20256 -0.17623
 C765 C 1.15197 0.21180 -0.15170
 C766 C 1.13497 0.18737 -0.13005
 C767 C 1.12428 0.12711 -0.11235
 C768 C 1.09828 0.13731 -0.09310
 C769 C 1.07952 0.11271 -0.07808
 C770 C 1.08632 0.07801 -0.08209
 C771 C 1.11287 0.06780 -0.09921
 C772 C 1.13194 0.09254 -0.11523
 C773 C 1.10925 0.19659 -0.10850
 C774 C 1.09114 0.17189 -0.09038
 C775 C 1.17631 0.10857 -0.15390
 C776 C 1.15816 0.08364 -0.13534
 H777 H 1.10276 0.22302 -0.10685
 H778 H 1.07115 0.17988 -0.07511
 H779 H 1.19607 0.10055 -0.17009
 H780 H 1.16446 0.05718 -0.13768
 H781 H 1.20510 0.16015 -0.19323
 H782 H 1.14544 0.23820 -0.14932
 H783 H 1.05933 0.12060 -0.06349
 H784 H 1.11816 0.04101 -0.10169
 C785 C 1.14406 0.63126 0.32547
 C786 C 1.16770 0.64095 0.35322
 C787 C 1.18417 0.66755 0.33490
 C788 C 1.17647 0.68532 0.29007
 C789 C 1.15330 0.67379 0.26176
 C790 C 1.13704 0.64711 0.27932
 C791 C 1.12542 0.60533 0.34643
 C792 C 1.10110 0.59701 0.31960
 C793 C 1.08203 0.57505 0.34188
 C794 C 1.08682 0.56190 0.39101
 C795 C 1.11204 0.56881 0.41629
 C796 C 1.13135 0.59093 0.39428
 C797 C 1.11325 0.63689 0.25241
 C798 C 1.09555 0.61222 0.27225
 C799 C 1.17362 0.62492 0.39996
 C800 C 1.15571 0.60039 0.42021
 H801 H 1.10782 0.64879 0.21646
 H802 H 1.07692 0.60578 0.25113
 H803 H 1.19182 0.63207 0.42177
 H804 H 1.16059 0.58941 0.45708
 H805 H 1.20161 0.67591 0.35781
 H806 H 1.14780 0.68550 0.22570
 H807 H 1.06276 0.56954 0.32205
 H808 H 1.11577 0.55888 0.45428
 C809 C 0.64342 0.14970 0.35732
 C810 C 0.66582 0.13892 0.32662
 C811 C 0.68218 0.16342 0.30253
 C812 C 0.67582 0.19821 0.30873
 C813 C 0.65401 0.20849 0.34114
 C814 C 0.63759 0.18439 0.36522
 C815 C 0.62492 0.12430 0.37974
 C816 C 0.60179 0.13542 0.40814
 C817 C 0.58307 0.11157 0.42596
 C818 C 0.58722 0.07688 0.41566
 C819 C 0.61106 0.06557 0.38937
 C820 C 0.62995 0.08950 0.37049
 C821 C 0.61489 0.19439 0.39560
 C822 C 0.59720 0.17024 0.41669
 C823 C 0.67074 0.10394 0.31936
 C824 C 0.65313 0.07962 0.34103
 H825 H 0.61037 0.22110 0.40208
 H826 H 0.57945 0.17891 0.43892
 H827 H 0.68804 0.09531 0.29596
 H828 H 0.65732 0.05294 0.33371
 H829 H 0.69902 0.15553 0.27745
 H830 H 0.64946 0.23531 0.34662
 H831 H 0.56477 0.11999 0.44699
 H832 H 0.61411 0.03868 0.38172
 C833 C 0.64469 0.63337 -0.17532
 C834 C 0.66846 0.64319 -0.14807
 C835 C 0.68512 0.66927 -0.16749
 C836 C 0.67740 0.68643 -0.21283
 C837 C 0.65415 0.67472 -0.24064
 C838 C 0.63773 0.64852 -0.22204
 C839 C 0.62581 0.60816 -0.15320
 C840 C 0.60138 0.59975 -0.17959
 C841 C 0.58211 0.57856 -0.15635
 C842 C 0.58681 0.56626 -0.10670
 C843 C 0.61210 0.57318 -0.08173
 C844 C 0.63164 0.59455 -0.10476
 C845 C 0.61382 0.63818 -0.24845
 C846 C 0.59592 0.61415 -0.22754
 C847 C 0.67429 0.62791 -0.10073
 C848 C 0.65615 0.60406 -0.07936
 H849 H 0.60845 0.64953 -0.28483
 H850 H 0.57719 0.60761 -0.24831
 H851 H 0.69261 0.63517 -0.07932
 H852 H 0.66097 0.59368 -0.04208
 H853 H 0.70265 0.67782 -0.14500
 H854 H 0.64865 0.68600 -0.27702
 H855 H 0.56280 0.57293 -0.17594
 H856 H 0.61573 0.56381 -0.04338
 C857 C 0.85449 -0.13542 -0.16548
 C858 C 0.83294 -0.14777 -0.13461
 C859 C 0.81616 -0.17404 -0.15339
 C860 C 0.82128 -0.18802 -0.20218
 C861 C 0.84203 -0.17413 -0.23343
 C862 C 0.85892 -0.14814 -0.21510
 C863 C 0.87381 -0.11015 -0.14446
 C864 C 0.89641 -0.09964 -0.17430
 C865 C 0.91622 -0.07822 -0.15261
 C866 C 0.91355 -0.06734 -0.10158
 C867 C 0.89006 -0.07654 -0.07289
 C868 C 0.87027 -0.09849 -0.09397
 C869 C 0.88096 -0.13578 -0.24462
 C870 C 0.89948 -0.11196 -0.22446
 C871 C 0.82948 -0.13465 -0.08488
 C872 C 0.84781 -0.11035 -0.06492
 H873 H 0.88442 -0.14536 -0.28305
 H874 H 0.91674 -0.10380 -0.24786
 H875 H 0.81288 -0.14383 -0.06076
 H876 H 0.84483 -0.10150 -0.02596
 H877 H 0.80019 -0.18476 -0.12927
 H878 H 0.84566 -0.18451 -0.27139
 H879 H 0.93423 -0.07091 -0.17482
 H880 H 0.88811 -0.06835 -0.03341
 C881 C 0.85511 0.34759 0.36695
 C882 C 0.83240 0.35902 0.33775
 C883 C 0.81560 0.33507 0.31305
 C884 C 0.82178 0.30015 0.31720
 C885 C 0.84370 0.28918 0.34874
 C886 C 0.86066 0.31275 0.37318
 C887 C 0.87436 0.37246 0.38903
 C888 C 0.89800 0.36073 0.41528
 C889 C 0.91752 0.38413 0.43219
 C890 C 0.91353 0.41895 0.42323
 C891 C 0.88916 0.43078 0.39937
 C892 C 0.86958 0.40737 0.38124
 C893 C 0.88379 0.30211 0.40183
 C894 C 0.90225 0.32577 0.42245
 C895 C 0.82773 0.39412 0.33213
 C896 C 0.84597 0.41792 0.35369
 H897 H 0.88811 0.27528 0.40704
 H898 H 0.92034 0.31660 0.44308
 H899 H 0.81018 0.40325 0.30995
 H900 H 0.84198 0.44473 0.34757
 H901 H 0.79871 0.34354 0.28865
 H902 H 0.84812 0.26225 0.35271
 H903 H 0.93620 0.37528 0.45143
 H904 H 0.88623 0.45774 0.39275
 C905 C 0.35448 -0.13597 0.33651
 C906 C 0.33281 -0.14766 0.36770
 C907 C 0.31578 -0.17393 0.34965
 C908 C 0.32074 -0.18854 0.30120
 C909 C 0.34159 -0.17524 0.26956
 C910 C 0.35877 -0.14932 0.28723
 C911 C 0.37403 -0.11070 0.35683
 C912 C 0.39674 -0.10086 0.32673
 C913 C 0.41670 -0.07934 0.34778
 C914 C 0.41402 -0.06760 0.39839
 C915 C 0.39044 -0.07621 0.42730
 C916 C 0.37054 -0.09831 0.40692
 C917 C 0.38094 -0.13763 0.25740
 C918 C 0.39971 -0.11386 0.27692
 C919 C 0.32945 -0.13387 0.41706
 C920 C 0.34797 -0.10953 0.43631
 H921 H 0.38431 -0.14771 0.21923
 H922 H 0.41705 -0.10622 0.25330
 H923 H 0.31277 -0.14253 0.44144
 H924 H 0.34504 -0.10012 0.47498
 H925 H 0.29974 -0.18417 0.37409
 H926 H 0.34511 -0.18605 0.23184
 H927 H 0.43477 -0.07251 0.32538
 H928 H 0.38848 -0.06739 0.46647
 C929 C 0.35642 0.36344 -0.17128
 C930 C 0.33265 0.35386 -0.14405
 C931 C 0.31617 0.32747 -0.16326
 C932 C 0.32396 0.30983 -0.20846
 C933 C 0.34751 0.32084 -0.23582
 C934 C 0.36370 0.34746 -0.21752
 C935 C 0.37481 0.38954 -0.14982
 C936 C 0.39908 0.39804 -0.17645
 C937 C 0.41778 0.42043 -0.15401
 C938 C 0.41278 0.43372 -0.10483
 C939 C 0.38769 0.42657 -0.07954
 C940 C 0.36864 0.40409 -0.10187
 C941 C 0.38754 0.35770 -0.24401
 C942 C 0.40495 0.38268 -0.22382
 C943 C 0.32650 0.36992 -0.09715
 C944 C 0.34426 0.39454 -0.07630
 H945 H 0.39317 0.34572 -0.28002
 H946 H 0.42358 0.38927 -0.24470
 H947 H 0.30818 0.36279 -0.07576
 H948 H 0.33918 0.40561 -0.03938
 H949 H 0.29851 0.31928 -0.14095
 H950 H 0.35316 0.30908 -0.27198
 H951 H 0.43695 0.42627 -0.17386
 H952 H 0.38386 0.43674 -0.04153
 C953 C 1.14139 -0.15582 0.15335
 C954 C 1.16507 -0.14526 0.18017
 C955 C 1.18172 -0.16971 0.20497
 C956 C 1.17444 -0.20455 0.20386
 C957 C 1.15112 -0.21433 0.17450
 C958 C 1.13450 -0.19028 0.14989
 C959 C 1.12292 -0.13031 0.12972
 C960 C 1.09877 -0.14118 0.10464
 C961 C 1.08031 -0.11704 0.08530
 C962 C 1.08569 -0.08221 0.09067
 C963 C 1.11052 -0.07135 0.11374
 C964 C 1.12918 -0.09557 0.13413
 C965 C 1.11070 -0.20016 0.12278
 C966 C 1.09304 -0.17596 0.10063
 C967 C 1.17107 -0.11036 0.18287
 C968 C 1.15346 -0.08595 0.16020
 H969 H 1.10533 -0.22676 0.11964
 H970 H 1.07451 -0.18451 0.08100
 H971 H 1.18932 -0.10179 0.20334
 H972 H 1.15864 -0.05932 0.16388
 H973 H 1.19924 -0.16114 0.22748
 H974 H 1.14591 -0.24088 0.16983
 H975 H 1.06135 -0.12531 0.06671
 H976 H 1.11461 -0.04443 0.11771
 C977 C 1.14160 0.35150 0.66371
 C978 C 1.16513 0.36278 0.69043
 C979 C 1.18208 0.33884 0.71555
 C980 C 1.17530 0.30408 0.71405
 C981 C 1.15225 0.29327 0.68543
 C982 C 1.13518 0.31681 0.66071
 C983 C 1.12279 0.37647 0.63981
 C984 C 1.09870 0.36496 0.61519
 C985 C 1.08000 0.38862 0.59536
 C986 C 1.08516 0.42356 0.59957
 C987 C 1.10985 0.43505 0.62233
 C988 C 1.12870 0.41136 0.64341
 C989 C 1.11137 0.30630 0.63421
 C990 C 1.09334 0.33004 0.61193
 C991 C 1.17073 0.39778 0.69249
 C992 C 1.15287 0.42165 0.66923
 H993 H 1.10634 0.27957 0.63157
 H994 H 1.07485 0.32103 0.59267
 H995 H 1.18887 0.40684 0.71280
 H996 H 1.15775 0.44840 0.67229
 H997 H 1.19987 0.34724 0.73753
 H998 H 1.14735 0.26647 0.68316
 H999 H 1.06110 0.37991 0.57699
 H1000 H 1.11375 0.46207 0.62533
 C1001 C 0.64147 -0.15461 0.65168
 C1002 C 0.66557 -0.14427 0.67739
 C1003 C 0.68244 -0.16889 0.70131
 C1004 C 0.67499 -0.20368 0.70035
 C1005 C 0.65126 -0.21324 0.67195
 C1006 C 0.63439 -0.18901 0.64833
 C1007 C 0.62279 -0.12892 0.62905
 C1008 C 0.59824 -0.13956 0.60512
 C1009 C 0.57968 -0.11525 0.58660
 C1010 C 0.58539 -0.08047 0.59154
 C1011 C 0.61058 -0.06985 0.61352
 C1012 C 0.62932 -0.09423 0.63318
 C1013 C 0.61014 -0.19866 0.62238
 C1014 C 0.59228 -0.17428 0.60125
 C1015 C 0.67179 -0.10943 0.67992
 C1016 C 0.65401 -0.08485 0.65810
 H1017 H 0.60461 -0.22522 0.61935
 H1018 H 0.57344 -0.18265 0.58248
 H1019 H 0.69036 -0.10103 0.69954
 H1020 H 0.65940 -0.05827 0.66155
 H1021 H 0.70027 -0.16048 0.72309
 H1022 H 0.64588 -0.23974 0.66733
 H1023 H 0.56047 -0.12336 0.56875
 H1024 H 0.61494 -0.04297 0.61708
 C1025 C 0.64007 0.34964 0.15205
 C1026 C 0.66363 0.36042 0.17912
 C1027 C 0.68065 0.33601 0.20287
 C1028 C 0.67397 0.30128 0.19956
 C1029 C 0.65094 0.29098 0.17049
 C1030 C 0.63373 0.31500 0.14722
 C1031 C 0.62108 0.37506 0.12991
 C1032 C 0.59688 0.36404 0.10516
 C1033 C 0.57800 0.38810 0.08708
 C1034 C 0.58316 0.42292 0.09313
 C1035 C 0.60795 0.43396 0.11596
 C1036 C 0.62693 0.40987 0.13537
 C1037 C 0.60984 0.30502 0.12054
 C1038 C 0.59161 0.32920 0.09997
 C1039 C 0.66917 0.39536 0.18304
 C1040 C 0.65118 0.41968 0.16133
 H1041 H 0.60488 0.27834 0.11650
 H1042 H 0.57304 0.32059 0.08056
 H1043 H 0.68736 0.40399 0.20363
 H1044 H 0.65600 0.44637 0.16577
 H1045 H 0.69838 0.34404 0.22534
 H1046 H 0.64610 0.26422 0.16691
 H1047 H 0.55904 0.37978 0.06854
 H1048 H 0.61183 0.46091 0.12027
 C1049 C 0.85922 0.15122 0.15456
 C1050 C 0.86625 0.18573 0.15243
 C1051 C 0.84870 0.20979 0.17520
 C1052 C 0.82467 0.19958 0.20126
 C1053 C 0.81733 0.16500 0.20174
 C1054 C 0.83465 0.14060 0.17836
 C1055 C 0.87852 0.12568 0.13318
 C1056 C 0.87192 0.09098 0.13592
 C1057 C 0.89109 0.06674 0.11726
 C1058 C 0.91681 0.07747 0.09801
 C1059 C 0.92277 0.11221 0.09470
 C1060 C 0.90370 0.13645 0.11193
 C1061 C 0.82841 0.10578 0.17960
 C1062 C 0.84668 0.08138 0.15849
 C1063 C 0.89115 0.19552 0.12907
 C1064 C 0.90967 0.17121 0.10930
 H1065 H 0.80945 0.09730 0.19764
 H1066 H 0.84129 0.05477 0.16079
 H1067 H 0.89665 0.22211 0.12712
 H1068 H 0.92901 0.17965 0.09254
 H1069 H 0.85408 0.23645 0.17375
 H1070 H 0.79884 0.15703 0.22191
 H1071 H 0.88658 0.03985 0.11938
 H1072 H 0.94244 0.12032 0.07876
 C1073 C 0.85941 0.65284 0.65745
 C1074 C 0.86451 0.68767 0.65181
 C1075 C 0.84742 0.71118 0.67704
 C1076 C 0.82574 0.70026 0.70892
 C1077 C 0.82041 0.66523 0.71336
 C1078 C 0.83728 0.64133 0.68758
 C1079 C 0.87814 0.62800 0.63253
 C1080 C 0.87346 0.59304 0.63861
 C1081 C 0.89227 0.56956 0.61667
 C1082 C 0.91583 0.58132 0.59058
 C1083 C 0.91979 0.61629 0.58390
 C1084 C 0.90098 0.63977 0.60454
 C1085 C 0.83291 0.60619 0.69210
 C1086 C 0.85064 0.58245 0.66787
 C1087 C 0.88700 0.69839 0.62197
 C1088 C 0.90505 0.67479 0.59889
 H1089 H 0.81584 0.59696 0.71504
 H1090 H 0.84674 0.55561 0.67286
 H1091 H 0.89102 0.72524 0.61730
 H1092 H 0.92254 0.68403 0.57706
 H1093 H 0.85118 0.73809 0.67221
 H1094 H 0.80373 0.65663 0.73781
 H1095 H 0.88939 0.54251 0.62182
 H1096 H 0.93788 0.62516 0.56327
 C1097 C 0.35731 0.15082 0.65290
 C1098 C 0.36105 0.18531 0.64167
 C1099 C 0.34381 0.20954 0.66490
 C1100 C 0.32347 0.19973 0.70037
 C1101 C 0.31916 0.16498 0.70985
 C1102 C 0.33619 0.14031 0.68619
 C1103 C 0.37667 0.12545 0.63111
 C1104 C 0.37350 0.09090 0.64310
 C1105 C 0.39295 0.06710 0.62409
 C1106 C 0.41563 0.07828 0.59505
 C1107 C 0.41819 0.11270 0.58265
 C1108 C 0.39869 0.13643 0.60027
 C1109 C 0.33323 0.10549 0.69644
 C1110 C 0.35150 0.08118 0.67506
 C1111 C 0.38263 0.19509 0.60897
 C1112 C 0.40126 0.17102 0.58875
 H1113 H 0.31694 0.09702 0.72184
 H1114 H 0.34876 0.05466 0.68453
 H1115 H 0.38558 0.22165 0.59999
 H1116 H 0.41808 0.17961 0.56463
 H1117 H 0.34677 0.23623 0.65662
 H1118 H 0.30351 0.15732 0.73717
 H1119 H 0.39116 0.04040 0.63339
 H1120 H 0.43562 0.12098 0.55966
 C1121 C 0.35809 0.65246 0.16049
 C1122 C 0.36290 0.68734 0.15467
 C1123 C 0.34593 0.71068 0.18050
 C1124 C 0.32465 0.69955 0.21313
 C1125 C 0.31958 0.66448 0.21773
 C1126 C 0.33635 0.64073 0.19139
 C1127 C 0.37674 0.62781 0.13495
 C1128 C 0.37239 0.59279 0.14125
 C1129 C 0.39116 0.56951 0.11873
 C1130 C 0.41434 0.58152 0.09181
 C1131 C 0.41797 0.61652 0.08491
 C1132 C 0.39920 0.63981 0.10615
 C1133 C 0.33228 0.60555 0.19609
 C1134 C 0.34994 0.58198 0.17130
 C1135 C 0.38500 0.69829 0.12405
 C1136 C 0.40296 0.67487 0.10034
 H1137 H 0.31552 0.59614 0.21962
 H1138 H 0.34630 0.55510 0.17647
 H1139 H 0.38879 0.72518 0.11923
 H1140 H 0.42016 0.68429 0.07790
 H1141 H 0.34947 0.73763 0.17557
 H1142 H 0.30319 0.65573 0.24271
 H1143 H 0.38857 0.54242 0.12406
 H1144 H 0.43580 0.62556 0.06371
   
