data_POSCAR
  _audit_creation_date              2014-09-24
  _audit_creation_method            'ToBaCCo'
  _symmetry_space_group_name_H-M    'P1'
  _symmetry_Int_Tables_number       1
  _symmetry_cell_setting            triclinic
  loop_
  _symmetry_equiv_pos_as_xyz
 x,y,z
_cell_length_a 36.9174
_cell_length_b 36.9172
_cell_length_c 20.6263
_cell_angle_alpha 89.985200
_cell_angle_beta 89.984900
_cell_angle_gamma 119.911600
loop_
  _atom_site_label
  _atom_site_type_symbol
  _atom_site_fract_x
  _atom_site_fract_y
  _atom_site_fract_z
C1 C 0.43576 0.86999 0.53348
 C2 C 0.43465 0.86989 0.46704
 C3 C 0.45521 0.91138 0.44755
 N4 N 0.46868 0.93667 0.49994
 C5 C 0.45686 0.91155 0.55257
 C6 C 0.46221 0.92486 0.38230
 C7 C 0.48466 0.96715 0.36197
 C8 C 0.49654 0.97959 0.29832
 C9 C 0.51807 1.02245 0.29798
 C10 C 0.51894 1.03542 0.36150
 N11 N 0.49787 1.00140 0.39998
 C12 C 0.53897 1.07789 0.38133
 C13 C 0.54559 1.09163 0.44660
 C14 C 0.56665 1.13321 0.46580
 C15 C 0.56771 1.13332 0.53221
 C16 C 0.54715 1.09180 0.55181
 N17 N 0.53377 1.06654 0.49933
 C18 C 0.54013 1.07829 0.61722
 C19 C 0.51766 1.03589 0.63745
 C20 C 0.50569 1.02318 0.70110
 C21 C 0.48425 0.98032 0.70117
 C22 C 0.48350 0.96762 0.63763
 N23 N 0.50453 1.00172 0.59929
 C24 C 0.46350 0.92526 0.61769
 H25 H 0.42229 0.84255 0.56417
 H26 H 0.42053 0.84234 0.43661
 H27 H 0.51220 1.00166 0.55104
 H28 H 0.49077 0.95985 0.25635
 H29 H 0.53197 1.04188 0.25567
 H30 H 0.58012 1.16067 0.43513
 H31 H 0.58179 1.16088 0.56261
 H32 H 0.47033 0.96074 0.74333
 H33 H 0.49022 1.00156 0.44821
 H34 H 0.51136 1.04278 0.74323
 C35 C -0.13326 0.43260 0.46701
 C36 C -0.13315 0.43371 0.53342
 C37 C -0.09157 0.45485 0.55262
 N38 N -0.06648 0.46668 0.49990
 C39 C -0.09175 0.45322 0.44742
 C40 C -0.07783 0.46153 0.61790
 C41 C -0.03536 0.48158 0.63774
 C42 C -0.02241 0.48249 0.70127
 C43 C 0.02046 0.50397 0.70093
 C44 C 0.03291 0.51578 0.63727
 N45 N -0.00135 0.50257 0.59924
 C46 C 0.07519 0.53816 0.61692
 C47 C 0.08868 0.54516 0.55167
 C48 C 0.13017 0.56567 0.53218
 C49 C 0.13006 0.56461 0.46574
 C50 C 0.08850 0.54359 0.44665
 N51 N 0.06339 0.53177 0.49928
 C52 C 0.07479 0.53702 0.38153
 C53 C 0.03243 0.51703 0.36161
 C54 C 0.01973 0.51633 0.29809
 C55 C -0.02314 0.49484 0.29816
 C56 C -0.03584 0.48280 0.36178
 N57 N -0.00166 0.49593 0.39994
 C58 C -0.07823 0.46024 0.38201
 H59 H -0.16082 0.41846 0.43661
 H60 H -0.16061 0.42022 0.56408
 H61 H -0.00160 0.48819 0.44815
 H62 H -0.04184 0.46864 0.74359
 H63 H 0.04019 0.50975 0.74292
 H64 H 0.15772 0.57973 0.56261
 H65 H 0.15750 0.57806 0.43504
 H66 H -0.04274 0.48919 0.25604
 H67 H -0.00150 0.51016 0.55098
 H68 H 0.03929 0.53031 0.25594
 C69 C 0.56698 0.43497 0.46864
 C70 C 0.56906 0.43700 0.53499
 C71 C 0.54734 0.45683 0.55458
 N72 N 0.53224 0.46696 0.50222
 C73 C 0.54418 0.45373 0.44958
 C74 C 0.54044 0.46353 0.61990
 C75 C 0.51730 0.48286 0.63984
 C76 C 0.50471 0.48301 0.70327
 C77 C 0.48327 0.50447 0.70327
 C78 C 0.48313 0.51707 0.63985
 N79 N 0.50449 0.50424 0.60167
 C80 C 0.46382 0.54023 0.61990
 C81 C 0.45711 0.54710 0.55458
 C82 C 0.43726 0.56881 0.53499
 C83 C 0.43520 0.56670 0.46864
 C84 C 0.45396 0.54390 0.44959
 N85 N 0.46721 0.53198 0.50222
 C86 C 0.45916 0.53546 0.38443
 C87 C 0.48023 0.51415 0.36415
 C88 C 0.48958 0.51079 0.30002
 C89 C 0.51106 0.48934 0.30002
 C90 C 0.51442 0.48000 0.36415
 N91 N 0.49488 0.49463 0.40278
 C92 C 0.53576 0.45895 0.38442
 H93 H 0.58086 0.42137 0.43797
 H94 H 0.58451 0.42490 0.56537
 H95 H 0.48968 0.48942 0.45201
 H96 H 0.51009 0.46876 0.74531
 H97 H 0.46904 0.50986 0.74531
 H98 H 0.42517 0.58427 0.56537
 H99 H 0.42160 0.58058 0.43797
 H100 H 0.52340 0.48207 0.25746
 H101 H 0.51299 0.51273 0.55379
 H102 H 0.48230 0.52312 0.25746
 O103 O 0.39453 0.66895 -0.07468
 O104 O 0.39633 0.73949 -0.05347
 C105 C 0.37045 0.74515 -0.08649
 O106 O 0.33152 0.72566 -0.07509
 O107 O 0.26084 0.65702 -0.05468
 C108 C 0.25544 0.62560 -0.08770
 O109 O 0.27499 0.60621 -0.07605
 O110 O 0.34352 0.60403 -0.05439
 C111 C 0.37522 0.63012 -0.08678
 O112 O 0.39580 0.65638 0.05411
 O113 O 0.39387 0.72506 0.07527
 C114 C 0.37455 0.74468 0.08683
 O115 O 0.34316 0.73933 0.05375
 O116 O 0.27443 0.66875 0.07419
 C117 C 0.25481 0.62983 0.08559
 O118 O 0.26037 0.60388 0.05259
 O119 O 0.33077 0.60551 0.07427
 C120 C 0.36957 0.62478 0.08659
 Cr121 Cr 0.39289 0.69635 0.00028
 Cr122 Cr 0.30361 0.69656 -0.00046
 Cr123 Cr 0.30354 0.60715 -0.00088
 O124 O 0.33335 0.66669 -0.00036
 O125 O 0.60426 0.34324 -0.05434
 O126 O 0.60645 0.27473 -0.07596
 C127 C 0.62589 0.25526 -0.08777
 O128 O 0.65726 0.26057 -0.05466
 O129 O 0.72586 0.33122 -0.07514
 C130 C 0.74527 0.37012 -0.08672
 O131 O 0.73972 0.39605 -0.05362
 O132 O 0.66917 0.39424 -0.07475
 C133 C 0.63034 0.37493 -0.08679
 O134 O 0.60581 0.33055 0.07434
 O135 O 0.60416 0.26014 0.05274
 C136 C 0.63015 0.25470 0.08583
 O137 O 0.66905 0.27424 0.07425
 O138 O 0.73960 0.34293 0.05375
 C139 C 0.74486 0.37425 0.08690
 O140 O 0.72532 0.39364 0.07519
 O141 O 0.65665 0.39557 0.05405
 C142 C 0.62508 0.36936 0.08660
 Cr143 Cr 0.60741 0.30329 -0.00080
 Cr144 Cr 0.69682 0.30336 -0.00045
 Cr145 Cr 0.69660 0.39263 0.00019
 O146 O 0.66694 0.33310 -0.00036
 C147 C 0.41754 0.83628 -0.23962
 C148 C 0.37464 0.81385 -0.22660
 C149 C 0.35923 0.78407 -0.17697
 C150 C 0.44702 0.89353 -0.33207
 C151 C 0.42970 0.79899 -0.15340
 C152 C 0.44500 0.82874 -0.20303
 C153 C 0.43348 0.86732 -0.29007
 C154 C 0.38661 0.77636 -0.13962
 H155 H 0.35312 0.81946 -0.25466
 H156 H 0.32591 0.76721 -0.16777
 H157 H 0.45165 0.79384 -0.12573
 H158 H 0.47828 0.84595 -0.21272
 C159 C 0.16455 0.58152 -0.24106
 C160 C 0.18708 0.56112 -0.22790
 C161 C 0.21684 0.57554 -0.17827
 C162 C 0.10710 0.55352 -0.33314
 C163 C 0.20172 0.63103 -0.15503
 C164 C 0.17200 0.61654 -0.20466
 C165 C 0.13342 0.56628 -0.29134
 C166 C 0.22441 0.61061 -0.14106
 H167 H 0.18153 0.53396 -0.25581
 H168 H 0.23374 0.55910 -0.16891
 H169 H 0.20677 0.65812 -0.12747
 H170 H 0.15471 0.63255 -0.21445
 C171 C 0.42037 0.58420 -0.24017
 C172 C 0.38531 0.55644 -0.20404
 C173 C 0.37049 0.57136 -0.15434
 C174 C 0.44894 0.55544 -0.33262
 C175 C 0.42577 0.64204 -0.17692
 C176 C 0.44051 0.62701 -0.22662
 C177 C 0.43590 0.56866 -0.29063
 C178 C 0.39063 0.61436 -0.14002
 H179 H 0.36951 0.52322 -0.21413
 H180 H 0.34336 0.54918 -0.12703
 H181 H 0.44199 0.67530 -0.16730
 H182 H 0.46769 0.64877 -0.25431
 C183 C 0.58248 0.16539 -0.24260
 C184 C 0.61732 0.17257 -0.20594
 C185 C 0.63157 0.20192 -0.15577
 C186 C 0.55470 0.10840 -0.33540
 C187 C 0.57618 0.21719 -0.17896
 C188 C 0.56200 0.18781 -0.22912
 C189 C 0.56741 0.13456 -0.29334
 C190 C 0.61108 0.22450 -0.14151
 H191 H 0.63337 0.15534 -0.21594
 H192 H 0.65854 0.20678 -0.12805
 H193 H 0.55970 0.23403 -0.16940
 H194 H 0.53497 0.18245 -0.25720
 C195 C 0.83540 0.41683 -0.24130
 C196 C 0.81306 0.37397 -0.22797
 C197 C 0.78364 0.35870 -0.17783
 C198 C 0.89221 0.44605 -0.33444
 C199 C 0.79875 0.42922 -0.15432
 C200 C 0.82814 0.44439 -0.20446
 C201 C 0.86616 0.43262 -0.29218
 C202 C 0.77621 0.38618 -0.14025
 H203 H 0.81847 0.35236 -0.25619
 H204 H 0.76683 0.32540 -0.16843
 H205 H 0.79380 0.45125 -0.12649
 H206 H 0.84531 0.47764 -0.21436
 C207 C 0.58438 0.42004 -0.24018
 C208 C 0.55662 0.38501 -0.20398
 C209 C 0.57155 0.37020 -0.15429
 C210 C 0.55563 0.44862 -0.33262
 C211 C 0.64224 0.42542 -0.17700
 C212 C 0.62720 0.44015 -0.22670
 C213 C 0.56884 0.43556 -0.29063
 C214 C 0.61456 0.39032 -0.14004
 H215 H 0.52340 0.36923 -0.21402
 H216 H 0.54937 0.34310 -0.12692
 H217 H 0.67551 0.44162 -0.16744
 H218 H 0.64896 0.46730 -0.25444
 C219 C 0.83471 0.41775 0.24176
 C220 C 0.82766 0.38299 0.20500
 C221 C 0.79832 0.36871 0.15481
 C222 C 0.89167 0.44561 0.33462
 C223 C 0.78283 0.42393 0.17817
 C224 C 0.81219 0.43813 0.22836
 C225 C 0.86552 0.43284 0.29253
 C226 C 0.77563 0.38910 0.14062
 H227 H 0.84497 0.36701 0.21494
 H228 H 0.79355 0.34180 0.12701
 H229 H 0.76590 0.44033 0.16868
 H230 H 0.81745 0.46510 0.25651
 C231 C 0.58365 0.16459 0.24045
 C232 C 0.55603 0.17175 0.20359
 C233 C 0.57113 0.20113 0.15342
 C234 C 0.55448 0.10783 0.33366
 C235 C 0.64172 0.21641 0.17692
 C236 C 0.62651 0.18701 0.22710
 C237 C 0.56791 0.13387 0.29138
 C238 C 0.61418 0.22375 0.13934
 H239 H 0.52278 0.15454 0.21351
 H240 H 0.54906 0.20601 0.12559
 H241 H 0.67501 0.23328 0.16752
 H242 H 0.64816 0.18167 0.25533
 C243 C 0.58033 0.41471 0.24132
 C244 C 0.56017 0.37195 0.22739
 C245 C 0.57478 0.35711 0.17724
 C246 C 0.55171 0.44308 0.33425
 C247 C 0.62997 0.42789 0.15497
 C248 C 0.61527 0.44262 0.20513
 C249 C 0.56482 0.43005 0.29211
 C250 C 0.60980 0.38494 0.14026
 H251 H 0.53306 0.35008 0.25511
 H252 H 0.55855 0.32388 0.16734
 H253 H 0.65701 0.45017 0.12761
 H254 H 0.63108 0.47580 0.21550
 C255 C 0.16371 0.58295 0.23876
 C256 C 0.18621 0.62584 0.22572
 C257 C 0.21598 0.64119 0.17606
 C258 C 0.10651 0.55353 0.33129
 C259 C 0.20088 0.57066 0.15250
 C260 C 0.17115 0.55543 0.20216
 C261 C 0.13270 0.56706 0.28926
 C262 C 0.22359 0.61374 0.13871
 H263 H 0.18067 0.64741 0.25379
 H264 H 0.23290 0.67450 0.16684
 H265 H 0.20596 0.54866 0.12484
 H266 H 0.15389 0.52216 0.21187
 C267 C 0.41870 0.83556 0.24021
 C268 C 0.43900 0.81291 0.22714
 C269 C 0.42456 0.78318 0.17749
 C270 C 0.44677 0.89297 0.33235
 C271 C 0.36925 0.79852 0.15405
 C272 C 0.38376 0.82823 0.20370
 C273 C 0.43396 0.86666 0.29053
 C274 C 0.38957 0.77572 0.14016
 H275 H 0.46609 0.81837 0.25514
 H276 H 0.44091 0.76618 0.16820
 H277 H 0.34222 0.79357 0.12640
 H278 H 0.36783 0.84561 0.21343
 C279 C 0.41488 0.57999 0.24132
 C280 C 0.44279 0.61497 0.20519
 C281 C 0.42807 0.62967 0.15504
 C282 C 0.44326 0.55139 0.33426
 C283 C 0.35730 0.57442 0.17717
 C284 C 0.37212 0.55981 0.22732
 C285 C 0.43022 0.56449 0.29212
 C286 C 0.38514 0.60948 0.14026
 H287 H 0.47596 0.63080 0.21562
 H288 H 0.45036 0.65675 0.12773
 H289 H 0.32408 0.55817 0.16721
 H290 H 0.35026 0.53267 0.25499
   
