data_POSCAR
  _audit_creation_date              2014-09-24
  _audit_creation_method            'ToBaCCo'
  _symmetry_space_group_name_H-M    'P1'
  _symmetry_Int_Tables_number       1
  _symmetry_cell_setting            triclinic
  loop_
  _symmetry_equiv_pos_as_xyz
 x,y,z
_cell_length_a 32.2244
_cell_length_b 32.2781
_cell_length_c 32.2442
_cell_angle_alpha 80.022400
_cell_angle_beta 99.588900
_cell_angle_gamma 97.538000
loop_
  _atom_site_label
  _atom_site_type_symbol
  _atom_site_fract_x
  _atom_site_fract_y
  _atom_site_fract_z
C1 C 0.59202 0.54069 -0.00177
 C2 C 0.58384 0.58153 0.00095
 C3 C 0.54323 0.59013 0.00427
 C4 C 0.50961 0.55716 0.00504
 C5 C 0.51748 0.51558 0.00213
 C6 C 0.55884 0.50725 -0.00133
 C7 C 0.56583 0.46577 -0.00426
 C8 C 0.53298 0.43315 -0.00364
 C9 C 0.49180 0.44070 -0.00018
 C10 C 0.48392 0.48227 0.00269
 C11 C 0.46839 0.56458 0.00868
 C12 C 0.43555 0.53197 0.00920
 C13 C 0.44255 0.49056 0.00611
 C14 C 0.40935 0.45715 0.00637
 C15 C 0.41760 0.41633 0.00368
 C16 C 0.45822 0.40779 0.00048
 H17 H 0.59685 0.45818 -0.00715
 H18 H 0.54018 0.40187 -0.00596
 H19 H 0.46115 0.59576 0.01128
 H20 H 0.40455 0.53952 0.01221
 H21 H 0.60949 0.60702 0.00049
 H22 H 0.39205 0.39076 0.00402
 C23 C 0.00173 0.59339 0.45555
 C24 C 0.00453 0.58550 0.41493
 C25 C 0.00560 0.54437 0.40725
 C26 C 0.00380 0.50996 0.44097
 C27 C 0.00104 0.51770 0.48239
 C28 C 0.00002 0.55960 0.48973
 C29 C -0.00269 0.56658 0.53103
 C30 C -0.00438 0.53304 0.56449
 C31 C -0.00355 0.49124 0.55791
 C32 C -0.00080 0.48349 0.51651
 C33 C 0.00460 0.46807 0.43447
 C34 C 0.00287 0.43456 0.46793
 C35 C 0.00017 0.44158 0.50920
 C36 C -0.00159 0.40780 0.54341
 C37 C -0.00434 0.41578 0.58402
 C38 C -0.00533 0.45692 0.59161
 H39 H -0.00347 0.59812 0.53788
 H40 H -0.00631 0.54021 0.59563
 H41 H 0.00652 0.46083 0.40335
 H42 H 0.00361 0.40300 0.46111
 H43 H 0.00576 0.61180 0.38894
 H44 H -0.00561 0.38962 0.61010
 C45 C 0.54330 0.00492 0.59107
 C46 C 0.58443 0.00339 0.58333
 C47 C 0.59254 0.00124 0.54255
 C48 C 0.55883 0.00054 0.50830
 C49 C 0.51695 0.00222 0.51576
 C50 C 0.50908 0.00446 0.55729
 C51 C 0.46726 0.00612 0.56387
 C52 C 0.43387 0.00551 0.53041
 C53 C 0.44096 0.00319 0.48905
 C54 C 0.48285 0.00157 0.48163
 C55 C 0.56580 -0.00182 0.46684
 C56 C 0.53237 -0.00242 0.43342
 C57 C 0.49066 -0.00072 0.44011
 C58 C 0.45648 -0.00123 0.40640
 C59 C 0.41538 0.00030 0.41410
 C60 C 0.40729 0.00244 0.45485
 H61 H 0.45998 0.00794 0.59506
 H62 H 0.40236 0.00687 0.53728
 H63 H 0.59727 -0.00323 0.45987
 H64 H 0.53955 -0.00429 0.40220
 H65 H 0.61051 0.00375 0.60946
 H66 H 0.38932 -0.00017 0.38802
 O67 O 0.47076 -0.00201 -0.06610
 O68 O 0.46153 -0.01297 0.04763
 O69 O 0.46169 0.04948 -0.01476
 O70 O 0.47062 -0.06465 -0.00346
 O71 O 0.54018 -0.05248 0.01192
 O72 O 0.53126 0.06169 0.00061
 O73 O 0.53110 -0.00077 0.06303
 O74 O 0.54032 0.01017 -0.05073
 Cu75 Cu 0.45914 -0.00880 -0.01077
 Cu76 Cu 0.54275 0.00585 0.00771
 C77 C 0.50713 0.00562 -0.07757
 C78 C 0.49470 -0.00823 0.07446
 C79 C 0.49490 0.07478 -0.00846
 C80 C 0.50693 -0.07780 0.00589
 O81 O -0.05071 0.53875 0.98703
 O82 O 0.06368 0.53057 0.99800
 O83 O 0.00102 0.52941 0.93584
 O84 O 0.01194 0.54002 1.04915
 O85 O 0.00026 0.47054 1.06598
 O86 O -0.01065 0.45992 0.95264
 O87 O 0.05198 0.46109 1.01482
 O88 O -0.06238 0.46926 1.00384
 Cu89 Cu 0.00766 0.54170 0.99081
 Cu90 Cu -0.00637 0.45819 1.01100
 C91 C -0.07581 0.50541 0.99386
 C92 C 0.07710 0.49441 1.00802
 C93 C -0.00642 0.49284 0.92515
 C94 C 0.00766 0.50712 1.07665
 O95 O -0.01347 -0.04781 0.45914
 O96 O -0.00505 0.06500 0.46902
 O97 O 0.04726 0.01343 0.45904
 O98 O -0.06587 0.00382 0.46897
 O99 O -0.05012 -0.01236 0.53888
 O100 O 0.06302 -0.00278 0.52895
 O101 O 0.01071 0.04878 0.53893
 O102 O 0.00227 -0.06400 0.52906
 Cu103 Cu -0.01089 0.01023 0.45697
 Cu104 Cu 0.00805 -0.00923 0.54102
 C105 C -0.00659 -0.07488 0.49239
 C106 C 0.00389 0.07587 0.50569
 C107 C 0.07419 0.00657 0.49227
 C108 C -0.07704 -0.00547 0.50564
 C109 C -0.20185 0.51552 0.98888
 C110 C -0.21902 0.55348 0.96904
 C111 C -0.26212 0.55797 0.97005
 C112 C -0.28782 0.52447 0.99090
 C113 C -0.27085 0.48625 1.01014
 C114 C -0.22776 0.48173 1.00906
 C115 C -0.21150 0.44325 1.02859
 C116 C -0.23706 0.41019 1.04862
 C117 C -0.27915 0.41465 1.04975
 C118 C -0.29601 0.45218 1.03082
 C119 C -0.27849 0.59632 0.95019
 C120 C -0.25302 0.62926 0.92988
 C121 C -0.21089 0.62485 0.92887
 C122 C -0.19391 0.58748 0.94818
 C123 C -0.33140 0.52970 0.99325
 C124 C -0.36741 0.53455 0.99547
 C125 C -0.15730 0.51170 0.98968
 C126 C -0.12015 0.50875 0.99111
 H127 H -0.17895 0.43827 1.02853
 H128 H -0.22411 0.38097 1.06337
 H129 H -0.29886 0.38890 1.06539
 H130 H -0.32890 0.45417 1.03260
 H131 H -0.31109 0.60125 0.95009
 H132 H -0.26606 0.65835 0.91483
 H133 H -0.19124 0.65053 0.91304
 H134 H -0.16097 0.58554 0.94651
 C135 C 0.20309 0.48358 1.01370
 C136 C 0.21961 0.44510 1.03285
 C137 C 0.26270 0.44025 1.03223
 C138 C 0.28904 0.47390 1.01245
 C139 C 0.27270 0.51261 0.99386
 C140 C 0.22963 0.51749 0.99457
 C141 C 0.21401 0.55646 0.97574
 C142 C 0.24019 0.58966 0.95675
 C143 C 0.28227 0.58484 0.95597
 C144 C 0.29849 0.54681 0.97421
 C145 C 0.27843 0.40141 1.05140
 C146 C 0.25233 0.36832 1.07066
 C147 C 0.21021 0.37308 1.07128
 C148 C 0.19386 0.41094 1.05264
 C149 C 0.33266 0.46837 1.01058
 C150 C 0.36870 0.46335 1.00875
 C151 C 0.15857 0.48781 1.01255
 C152 C 0.12144 0.49099 1.01091
 H153 H 0.18150 0.56173 0.97556
 H154 H 0.22774 0.61926 0.94253
 H155 H 0.30247 0.61070 0.94113
 H156 H 0.33138 0.54455 0.97269
 H157 H 0.31099 0.39619 1.05174
 H158 H 0.26488 0.33884 1.08517
 H159 H 0.19007 0.34728 1.08629
 H160 H 0.16090 0.41314 1.05398
 C161 C -0.00567 -0.19858 0.47978
 C162 C 0.02280 -0.20827 0.45466
 C163 C 0.02446 -0.25095 0.44993
 C164 C -0.00227 -0.28369 0.47043
 C165 C -0.03054 -0.27404 0.49577
 C166 C -0.03228 -0.23133 0.50042
 C167 C -0.06082 -0.22243 0.52586
 C168 C -0.08684 -0.25482 0.54620
 C169 C -0.08510 -0.29659 0.54171
 C170 C -0.05735 -0.30628 0.51681
 C171 C 0.05313 -0.25987 0.42463
 C172 C 0.07946 -0.22754 0.40462
 C173 C 0.07788 -0.18580 0.40927
 C174 C 0.04994 -0.17608 0.43396
 C175 C -0.00079 -0.32723 0.46533
 C176 C 0.00040 -0.36336 0.46097
 C177 C -0.00720 -0.15495 0.48459
 C178 C -0.00758 -0.11850 0.48830
 H179 H -0.06330 -0.19043 0.53032
 H180 H -0.10847 -0.24746 0.56557
 H181 H -0.10536 -0.32164 0.55760
 H182 H -0.05714 -0.33924 0.51428
 H183 H 0.05555 -0.29185 0.42006
 H184 H 0.10121 -0.23492 0.38540
 H185 H 0.09837 -0.16079 0.39364
 H186 H 0.04990 -0.14312 0.43661
 C187 C 0.00401 0.19963 0.51865
 C188 C -0.02369 0.20944 0.54451
 C189 C -0.02488 0.25215 0.54944
 C190 C 0.00156 0.28478 0.52841
 C191 C 0.02909 0.27500 0.50238
 C192 C 0.03036 0.23227 0.49752
 C193 C 0.05815 0.22323 0.47137
 C194 C 0.08392 0.25552 0.45055
 C195 C 0.08265 0.29731 0.45526
 C196 C 0.05563 0.30713 0.48086
 C197 C -0.05278 0.26120 0.57549
 C198 C -0.07881 0.22897 0.59602
 C199 C -0.07769 0.18720 0.59117
 C200 C -0.05051 0.17736 0.56576
 C201 C 0.00045 0.32836 0.53361
 C202 C -0.00049 0.36452 0.53801
 C203 C 0.00507 0.15597 0.51364
 C204 C 0.00512 0.11950 0.50982
 H205 H 0.06024 0.19121 0.46672
 H206 H 0.10498 0.24805 0.43065
 H207 H 0.10271 0.32227 0.43901
 H208 H 0.05578 0.34011 0.48353
 H209 H -0.05481 0.29321 0.58025
 H210 H -0.09997 0.23646 0.61581
 H211 H -0.09796 0.16228 0.60720
 H212 H -0.05081 0.14439 0.56298
 C213 C 0.51862 0.00831 -0.20243
 C214 C 0.51176 0.04461 -0.23333
 C215 C 0.51625 0.04414 -0.27637
 C216 C 0.52766 0.00740 -0.28820
 C217 C 0.53432 -0.02897 -0.25734
 C218 C 0.52977 -0.02852 -0.21433
 C219 C 0.53660 -0.06529 -0.18405
 C220 C 0.54761 -0.10143 -0.19592
 C221 C 0.55207 -0.10185 -0.23796
 C222 C 0.54554 -0.06614 -0.26845
 C223 C 0.50919 0.08078 -0.30671
 C224 C 0.49807 0.11689 -0.29486
 C225 C 0.49372 0.11736 -0.25278
 C226 C 0.50044 0.08172 -0.22222
 C227 C 0.53291 0.00703 -0.33197
 C228 C 0.53759 0.00625 -0.36814
 C229 C 0.51429 0.00867 -0.15839
 C230 C 0.51091 0.00795 -0.12159
 H231 H 0.53351 -0.06654 -0.15094
 H232 H 0.55270 -0.12925 -0.17234
 H233 H 0.56062 -0.13000 -0.24703
 H234 H 0.54937 -0.06804 -0.30076
 H235 H 0.51216 0.08191 -0.33984
 H236 H 0.49279 0.14464 -0.31847
 H237 H 0.48509 0.14549 -0.24374
 H238 H 0.49667 0.08359 -0.18989
 C239 C 0.48232 -0.00849 0.19863
 C240 C 0.46291 0.02501 0.20803
 C241 C 0.45799 0.02643 0.25073
 C242 C 0.47258 -0.00560 0.28379
 C243 C 0.49228 -0.03891 0.27445
 C244 C 0.49711 -0.04039 0.23171
 C245 C 0.51681 -0.07403 0.22312
 C246 C 0.53140 -0.10530 0.25583
 C247 C 0.52675 -0.10381 0.29762
 C248 C 0.50743 -0.07108 0.30701
 C249 C 0.43844 0.06020 0.25935
 C250 C 0.42426 0.09171 0.22671
 C251 C 0.42913 0.09037 0.18496
 C252 C 0.44817 0.05748 0.17553
 C253 C 0.46717 -0.00430 0.32733
 C254 C 0.46246 -0.00302 0.36337
 C255 C 0.48715 -0.00984 0.15493
 C256 C 0.49080 -0.00986 0.11834
 H257 H 0.52117 -0.07651 0.19111
 H258 H 0.54643 -0.13080 0.24870
 H259 H 0.53817 -0.12815 0.32292
 H260 H 0.50456 -0.07126 0.34001
 H261 H 0.43396 0.06265 0.29132
 H262 H 0.40942 0.11733 0.23387
 H263 H 0.41810 0.11495 0.15974
 H264 H 0.45122 0.05785 0.14255
 C265 C 0.51792 -0.20356 0.01125
 C266 C 0.55607 -0.22047 0.03083
 C267 C 0.56080 -0.26351 0.03014
 C268 C 0.52736 -0.28941 0.00988
 C269 C 0.48898 -0.27268 -0.00917
 C270 C 0.48423 -0.22965 -0.00843
 C271 C 0.44560 -0.21364 -0.02774
 C272 C 0.41261 -0.23938 -0.04723
 C273 C 0.41729 -0.28142 -0.04802
 C274 C 0.45498 -0.29803 -0.02931
 C275 C 0.59931 -0.27963 0.04975
 C276 C 0.63218 -0.25397 0.06951
 C277 C 0.62754 -0.21190 0.07021
 C278 C 0.59000 -0.19517 0.05113
 C279 C 0.53269 -0.33303 0.00811
 C280 C 0.53744 -0.36912 0.00642
 C281 C 0.51378 -0.15911 0.01030
 C282 C 0.51057 -0.12205 0.00877
 H283 H 0.44044 -0.18114 -0.02793
 H284 H 0.38326 -0.22663 -0.06181
 H285 H 0.39158 -0.30129 -0.06323
 H286 H 0.45714 -0.33088 -0.03083
 H287 H 0.60442 -0.31216 0.05006
 H288 H 0.66141 -0.26682 0.08437
 H289 H 0.65317 -0.19211 0.08562
 H290 H 0.58789 -0.16227 0.05255
 C291 C 0.48258 0.19938 -0.00887
 C292 C 0.45556 0.20894 0.01783
 C293 C 0.45099 0.25179 0.01954
 C294 C 0.47351 0.28485 -0.00539
 C295 C 0.50057 0.27530 -0.03203
 C296 C 0.50509 0.23243 -0.03380
 C297 C 0.53231 0.22367 -0.06067
 C298 C 0.55447 0.25632 -0.08507
 C299 C 0.55007 0.29823 -0.08331
 C300 C 0.52347 0.30780 -0.05716
 C301 C 0.42377 0.26055 0.04644
 C302 C 0.40173 0.22792 0.07097
 C303 C 0.40621 0.18602 0.06932
 C304 C 0.43278 0.17645 0.04314
 C305 C 0.46869 0.32860 -0.00363
 C306 C 0.46424 0.36474 -0.00190
 C307 C 0.48745 0.15553 -0.01016
 C308 C 0.49109 0.11882 -0.01014
 H309 H 0.53674 0.19156 -0.06310
 H310 H 0.57516 0.24906 -0.10545
 H311 H 0.56737 0.32348 -0.10232
 H312 H 0.52108 0.34088 -0.05687
 H313 H 0.41922 0.29263 0.04883
 H314 H 0.38105 0.23519 0.09136
 H315 H 0.38898 0.16079 0.08839
 H316 H 0.43519 0.14336 0.04298
 C317 C -0.20118 -0.00552 0.51827
 C318 C -0.21191 0.02633 0.53859
 C319 C -0.25473 0.02775 0.54333
 C320 C -0.28659 -0.00262 0.52766
 C321 C -0.27592 -0.03429 0.50712
 C322 C -0.23306 -0.03579 0.50248
 C323 C -0.22313 -0.06778 0.48192
 C324 C -0.25466 -0.09743 0.46632
 C325 C -0.29658 -0.09592 0.47080
 C326 C -0.30727 -0.06479 0.49094
 C327 C -0.26468 0.05984 0.56378
 C328 C -0.23322 0.08973 0.57903
 C329 C -0.19135 0.08839 0.57433
 C330 C -0.18062 0.05712 0.55440
 C331 C -0.33027 -0.00132 0.53281
 C332 C -0.36649 -0.00016 0.53725
 C333 C -0.15740 -0.00680 0.51347
 C334 C -0.12081 -0.00688 0.50975
 H335 H -0.19097 -0.07021 0.47766
 H336 H -0.24652 -0.12168 0.45066
 H337 H -0.32096 -0.11900 0.45859
 H338 H -0.34032 -0.06490 0.49364
 H339 H -0.29681 0.06222 0.56817
 H340 H -0.24139 0.11407 0.59455
 H341 H -0.16703 0.11170 0.58620
 H342 H -0.14760 0.05741 0.55153
 C343 C 0.19846 0.00742 0.47970
 C344 C 0.21031 -0.02698 0.46398
 C345 C 0.25320 -0.02797 0.45917
 C346 C 0.28398 0.00540 0.47017
 C347 C 0.27218 0.03966 0.48612
 C348 C 0.22926 0.04070 0.49084
 C349 C 0.21819 0.07532 0.50675
 C350 C 0.24866 0.10796 0.51775
 C351 C 0.29064 0.10691 0.51320
 C352 C 0.30245 0.07324 0.49758
 C353 C 0.26428 -0.06265 0.44335
 C354 C 0.23388 -0.09546 0.43266
 C355 C 0.19195 -0.09453 0.43741
 C356 C 0.18011 -0.06076 0.45284
 C357 C 0.32771 0.00451 0.46495
 C358 C 0.36396 0.00365 0.46046
 C359 C 0.15460 0.00834 0.48445
 C360 C 0.11798 0.00818 0.48816
 H361 H 0.18594 0.07751 0.51088
 H362 H 0.23965 0.13419 0.52989
 H363 H 0.31419 0.13233 0.52182
 H364 H 0.33549 0.07382 0.49464
 H365 H 0.29650 -0.06483 0.43911
 H366 H 0.24292 -0.12176 0.42064
 H367 H 0.16845 -0.12011 0.42911
 H368 H 0.14709 -0.06149 0.45596
 C369 C 0.01209 0.52089 1.20112
 C370 C -0.00696 0.55483 1.21009
 C371 C -0.00747 0.55955 1.25301
 C372 C 0.01107 0.53032 1.28673
 C373 C 0.03057 0.49669 1.27778
 C374 C 0.03102 0.49191 1.23484
 C375 C 0.05048 0.45791 1.22668
 C376 C 0.06904 0.42946 1.25999
 C377 C 0.06869 0.43419 1.30196
 C378 C 0.04975 0.46738 1.31094
 C379 C -0.02679 0.59368 1.26117
 C380 C -0.04508 0.62231 1.22789
 C381 C -0.04459 0.61768 1.18593
 C382 C -0.02580 0.58440 1.17694
 C383 C 0.00962 0.53474 1.33051
 C384 C 0.00792 0.53893 1.36662
 C385 C 0.01156 0.51555 1.15721
 C386 C 0.01030 0.51150 1.12053
 H387 H 0.05161 0.45298 1.19455
 H388 H 0.08380 0.40363 1.25318
 H389 H 0.08320 0.41205 1.32772
 H390 H 0.05042 0.46985 1.34408
 H391 H -0.02795 0.59866 1.29328
 H392 H -0.05970 0.64823 1.23471
 H393 H -0.05884 0.64001 1.16018
 H394 H -0.02620 0.58218 1.14377
 C395 C -0.01141 0.47961 0.80044
 C396 C -0.02847 0.51001 0.76699
 C397 C -0.02815 0.50556 0.72393
 C398 C -0.01067 0.47082 0.71460
 C399 C 0.00597 0.44018 0.74805
 C400 C 0.00559 0.44458 0.79108
 C401 C 0.02252 0.41359 0.82396
 C402 C 0.03930 0.37923 0.81460
 C403 C 0.03966 0.37492 0.77252
 C404 C 0.02324 0.40493 0.73951
 C405 C -0.04542 0.53631 0.69104
 C406 C -0.06239 0.57056 0.70040
 C407 C -0.06263 0.57495 0.74249
 C408 C -0.04592 0.54511 0.77553
 C409 C -0.00932 0.46668 0.67072
 C410 C -0.00771 0.46265 0.63456
 C411 C -0.01062 0.48465 0.84448
 C412 C -0.00919 0.48853 0.88123
 H413 H 0.02293 0.41552 0.85720
 H414 H 0.05209 0.35583 0.84014
 H415 H 0.05273 0.34816 0.76541
 H416 H 0.02421 0.40015 0.70730
 H417 H -0.04608 0.53417 0.65783
 H418 H -0.07546 0.59380 0.67484
 H419 H -0.07587 0.60161 0.74959
 H420 H -0.04688 0.54984 0.80776
   
