data_POSCAR
  _audit_creation_date              2014-09-24
  _audit_creation_method            'ToBaCCo'
  _symmetry_space_group_name_H-M    'P1'
  _symmetry_Int_Tables_number       1
  _symmetry_cell_setting            triclinic
  loop_
  _symmetry_equiv_pos_as_xyz
 x,y,z
_cell_length_a 18.7696
_cell_length_b 30.8258
_cell_length_c 18.9660
_cell_angle_alpha 90.199300
_cell_angle_beta 89.797100
_cell_angle_gamma 89.873200
loop_
  _atom_site_label
  _atom_site_type_symbol
  _atom_site_fract_x
  _atom_site_fract_y
  _atom_site_fract_z
N1 N 0.12413 0.04625 0.07498
 N2 N 0.16722 0.07968 0.08302
 N3 N 0.07507 -0.04482 0.12500
 N4 N 0.08294 -0.07807 0.16801
 N5 N 0.12494 -0.04508 0.07622
 N6 N 0.16812 -0.07853 0.08466
 N7 N 0.07429 0.04648 0.12377
 N8 N 0.08204 0.08007 0.16639
 C9 C 0.14023 0.10023 0.14027
 C10 C 0.14127 -0.09855 0.14220
 N11 N -0.12743 -0.04550 0.07523
 N12 N -0.17019 -0.07907 0.08341
 N13 N -0.07908 0.04636 0.12311
 N14 N -0.08725 0.08038 0.16497
 N15 N -0.12823 0.04575 0.07405
 N16 N -0.17330 0.08145 0.08220
 N17 N -0.07836 -0.04499 0.12442
 N18 N -0.08631 -0.07820 0.16747
 Mn19 Mn -0.00203 0.00076 0.12493
 C20 C -0.14386 -0.09889 0.14123
 C21 C -0.14507 0.10130 0.13933
 N22 N 0.12622 -0.04604 -0.07563
 N23 N 0.17135 -0.08170 -0.08358
 N24 N 0.07618 0.04460 -0.12618
 N25 N 0.08412 0.07784 -0.16923
 N26 N 0.12520 0.04519 -0.07691
 N27 N 0.16787 0.07882 -0.08507
 N28 N 0.07703 -0.04679 -0.12464
 N29 N 0.08524 -0.08087 -0.16633
 Mn30 Mn 0.12598 0.00008 -0.00032
 C31 C 0.14313 -0.10166 -0.14058
 C32 C 0.14160 0.09864 -0.14293
 N33 N -0.12699 0.04460 -0.07786
 N34 N -0.17004 0.07809 -0.08627
 N35 N -0.07650 -0.04721 -0.12524
 N36 N -0.08369 -0.08126 -0.16713
 N37 N -0.12642 -0.04663 -0.07659
 N38 N -0.17097 -0.08239 -0.08502
 N39 N -0.07725 0.04418 -0.12676
 N40 N -0.08503 0.07740 -0.16981
 Mn41 Mn -0.12812 -0.00044 -0.00130
 Mn42 Mn -0.00013 -0.00132 -0.12659
 Cl43 Cl -0.00107 -0.00023 -0.00083
 C44 C -0.14320 0.09798 -0.14392
 C45 C -0.14168 -0.10224 -0.14187
 N46 N 0.62716 0.54585 0.57615
 N47 N 0.67063 0.57912 0.58417
 N48 N 0.57753 0.45474 0.62528
 N49 N 0.58543 0.42128 0.66781
 N50 N 0.62697 0.45452 0.57608
 N51 N 0.66991 0.42090 0.58375
 N52 N 0.57769 0.54608 0.62533
 N53 N 0.58612 0.57951 0.66819
 C54 C 0.64433 0.59960 0.64183
 C55 C 0.64333 0.40074 0.64126
 N56 N 0.37458 0.45490 0.57710
 N57 N 0.33158 0.42141 0.58507
 N58 N 0.42416 0.54625 0.62599
 N59 N 0.41585 0.57966 0.66901
 N60 N 0.37464 0.54622 0.57723
 N61 N 0.33122 0.57960 0.58568
 N62 N 0.42408 0.45491 0.62590
 N63 N 0.41614 0.42142 0.66844
 Mn64 Mn 0.50087 0.50050 0.62649
 C65 C 0.35815 0.40107 0.64232
 C66 C 0.35764 0.59991 0.64315
 N67 N 0.62685 0.45415 0.42420
 N68 N 0.67004 0.42063 0.41582
 N69 N 0.57747 0.54549 0.37556
 N70 N 0.58545 0.57888 0.33290
 N71 N 0.62702 0.54549 0.42430
 N72 N 0.67013 0.57890 0.41618
 N73 N 0.57732 0.45419 0.37544
 N74 N 0.58539 0.42070 0.33253
 Mn75 Mn 0.62787 0.50000 0.50018
 C76 C 0.64349 0.40030 0.35838
 C77 C 0.64351 0.59915 0.35890
 N78 N 0.37458 0.54608 0.42538
 N79 N 0.33147 0.57963 0.41757
 N80 N 0.42391 0.45460 0.37607
 N81 N 0.41558 0.42122 0.33312
 N82 N 0.37445 0.45475 0.42523
 N83 N 0.33105 0.42147 0.41713
 N84 N 0.42405 0.54590 0.37622
 N85 N 0.41599 0.57931 0.33356
 Mn86 Mn 0.37369 0.50049 0.50125
 Mn87 Mn 0.50069 0.50004 0.37498
 Cl88 Cl 0.50078 0.50026 0.50073
 C89 C 0.35799 0.59981 0.36002
 C90 C 0.35743 0.40111 0.35943
 C91 C 0.16893 0.13953 0.16896
 C92 C 0.19275 0.17265 0.19304
 C93 C 0.22098 0.21224 0.22175
 C94 C 0.25114 0.24327 0.17694
 C95 C 0.27851 0.28179 0.20487
 C96 C 0.27578 0.28941 0.27770
 C97 C 0.24559 0.25839 0.32250
 C98 C 0.21822 0.21986 0.29457
 C99 C 0.30424 0.32893 0.30646
 C100 C 0.32833 0.36195 0.33061
 H101 H 0.25348 0.23768 0.12055
 H102 H 0.30180 0.30557 0.16979
 H103 H 0.24328 0.26396 0.37890
 H104 H 0.19497 0.19607 0.32966
 C105 C 0.82784 0.86179 0.16998
 C106 C 0.80443 0.82860 0.19400
 C107 C 0.77677 0.78889 0.22254
 C108 C 0.78963 0.77814 0.29307
 C109 C 0.76293 0.73944 0.32075
 C110 C 0.72333 0.71136 0.27797
 C111 C 0.71048 0.72210 0.20743
 C112 C 0.73718 0.76080 0.17975
 C113 C 0.69560 0.67165 0.30648
 C114 C 0.67205 0.63848 0.33038
 H115 H 0.82023 0.79963 0.32657
 H116 H 0.77311 0.73143 0.37538
 H117 H 0.67987 0.70062 0.17393
 H118 H 0.72699 0.76881 0.12512
 C119 C 0.82846 0.13732 0.82733
 C120 C 0.80495 0.17055 0.80346
 C121 C 0.77713 0.21033 0.77521
 C122 C 0.70393 0.21908 0.77892
 C123 C 0.67695 0.25787 0.75176
 C124 C 0.72307 0.28805 0.72082
 C125 C 0.79626 0.27929 0.71707
 C126 C 0.82324 0.24050 0.74423
 C127 C 0.69528 0.32792 0.69288
 C128 C 0.67175 0.36125 0.66939
 H129 H 0.66783 0.19598 0.80282
 H130 H 0.62026 0.26433 0.75489
 H131 H 0.83237 0.30241 0.69322
 H132 H 0.87994 0.23405 0.74116
 C133 C 0.16824 0.86236 0.83299
 C134 C 0.19162 0.82902 0.80886
 C135 C 0.21975 0.78920 0.78039
 C136 C 0.20635 0.77779 0.71012
 C137 C 0.23404 0.73916 0.68241
 C138 C 0.27520 0.71180 0.72488
 C139 C 0.28852 0.72319 0.79517
 C140 C 0.26083 0.76182 0.82288
 C141 C 0.30406 0.67221 0.69626
 C142 C 0.32842 0.63914 0.67215
 H143 H 0.17465 0.79875 0.67682
 H144 H 0.22348 0.73066 0.62796
 H145 H 0.32034 0.70228 0.82844
 H146 H 0.27151 0.77035 0.87729
 C147 C 0.17005 0.13802 0.82831
 C148 C 0.19384 0.17123 0.80451
 C149 C 0.22219 0.21098 0.77639
 C150 C 0.29484 0.22039 0.78333
 C151 C 0.32233 0.25909 0.75628
 C152 C 0.27729 0.28858 0.72219
 C153 C 0.20464 0.27917 0.71523
 C154 C 0.17715 0.24047 0.74228
 C155 C 0.30564 0.32838 0.69424
 C156 C 0.32951 0.36163 0.67068
 H157 H 0.33016 0.19785 0.80964
 H158 H 0.37860 0.26601 0.76193
 H159 H 0.16932 0.30172 0.68894
 H160 H 0.12087 0.23356 0.73665
 C161 C 0.83386 0.86176 0.83132
 C162 C 0.81086 0.82842 0.80701
 C163 C 0.78288 0.78860 0.77855
 C164 C 0.74410 0.76043 0.82191
 C165 C 0.71637 0.72189 0.79427
 C166 C 0.72730 0.71132 0.72313
 C167 C 0.76620 0.73945 0.67978
 C168 C 0.79393 0.77800 0.70743
 C169 C 0.69826 0.67180 0.69458
 C170 C 0.67374 0.63879 0.67061
 H171 H 0.73519 0.76830 0.87697
 H172 H 0.68634 0.70041 0.82828
 H173 H 0.77494 0.73163 0.62468
 H174 H 0.82381 0.79954 0.67340
 C175 C 0.16994 0.86217 0.17113
 C176 C 0.19379 0.82904 0.19521
 C177 C 0.22210 0.78938 0.22374
 C178 C 0.26223 0.76135 0.18084
 C179 C 0.28957 0.72276 0.20848
 C180 C 0.27689 0.71200 0.27914
 C181 C 0.23676 0.74002 0.32204
 C182 C 0.20941 0.77862 0.29440
 C183 C 0.30523 0.67233 0.30762
 C184 C 0.32915 0.63917 0.33150
 H185 H 0.27234 0.76933 0.12613
 H186 H 0.32056 0.70134 0.17483
 H187 H 0.22665 0.73205 0.37676
 H188 H 0.17843 0.80004 0.32805
 C189 C 0.82983 0.13725 0.16608
 C190 C 0.80657 0.17056 0.19064
 C191 C 0.77867 0.21034 0.21976
 C192 C 0.82479 0.24086 0.24986
 C193 C 0.79763 0.27956 0.27799
 C194 C 0.72423 0.28789 0.27614
 C195 C 0.67813 0.25736 0.24605
 C196 C 0.70528 0.21868 0.21793
 C197 C 0.69617 0.32767 0.30512
 C198 C 0.67234 0.36089 0.32940
 H199 H 0.88162 0.23476 0.25155
 H200 H 0.83376 0.30293 0.30114
 H201 H 0.62129 0.26345 0.24434
 H202 H 0.66913 0.19532 0.19477
   
