data_POSCAR
  _audit_creation_date              2014-09-24
  _audit_creation_method            'ToBaCCo'
  _symmetry_space_group_name_H-M    'P1'
  _symmetry_Int_Tables_number       1
  _symmetry_cell_setting            triclinic
  loop_
  _symmetry_equiv_pos_as_xyz
 x,y,z
_cell_length_a 40.2320
_cell_length_b 39.4825
_cell_length_c 40.4926
_cell_angle_alpha 90.350500
_cell_angle_beta 90.380100
_cell_angle_gamma 92.775500
loop_
  _atom_site_label
  _atom_site_type_symbol
  _atom_site_fract_x
  _atom_site_fract_y
  _atom_site_fract_z
C1 C 0.18614 0.24428 0.22806
 C2 C 0.20775 0.22435 0.24622
 C3 C 0.23640 0.21200 0.23170
 C4 C 0.24352 0.22011 0.19874
 C5 C 0.22214 0.23945 0.17996
 C6 C 0.19355 0.25159 0.19486
 H7 H 0.20210 0.21819 0.27158
 H8 H 0.26614 0.21173 0.18780
 H9 H 0.17662 0.26589 0.18026
 C10 C 0.69854 0.70904 0.74530
 C11 C 0.72621 0.68885 0.74215
 C12 C 0.74686 0.69147 0.71437
 C13 C 0.73977 0.71480 0.68959
 C14 C 0.71228 0.73519 0.69217
 C15 C 0.69198 0.73231 0.72023
 H16 H 0.73213 0.67138 0.76153
 H17 H 0.75489 0.71608 0.66762
 H18 H 0.67078 0.74792 0.72234
 C19 C 0.32874 0.76730 0.72309
 C20 C 0.31026 0.79168 0.73938
 C21 C 0.28394 0.80756 0.72326
 C22 C 0.27677 0.79834 0.69016
 C23 C 0.29494 0.77407 0.67362
 C24 C 0.32070 0.75856 0.69028
 H25 H 0.31668 0.79793 0.76465
 H26 H 0.25652 0.80930 0.67707
 H27 H 0.33522 0.74052 0.67717
 C28 C 0.81249 0.27768 0.26540
 C29 C 0.81974 0.25332 0.24108
 C30 C 0.79777 0.24558 0.21469
 C31 C 0.76818 0.26279 0.21237
 C32 C 0.76033 0.28739 0.23580
 C33 C 0.78258 0.29487 0.26204
 H34 H 0.84254 0.24017 0.24241
 H35 H 0.75110 0.25708 0.19217
 H36 H 0.77592 0.31382 0.27979
 C37 C 0.78072 0.73372 0.24804
 C38 C 0.76615 0.74673 0.27648
 C39 C 0.74232 0.72720 0.29422
 C40 C 0.73299 0.69432 0.28291
 C41 C 0.74728 0.68089 0.25433
 C42 C 0.77094 0.70097 0.23702
 H43 H 0.77378 0.77190 0.28511
 H44 H 0.71544 0.67875 0.29697
 H45 H 0.78158 0.69139 0.21459
 C46 C 0.30068 0.24142 -0.25650
 C47 C 0.28247 0.25640 -0.23105
 C48 C 0.25259 0.24107 -0.21953
 C49 C 0.24057 0.21045 -0.23376
 C50 C 0.25794 0.19507 -0.25922
 C51 C 0.28793 0.21054 -0.27038
 H52 H 0.29147 0.27981 -0.21952
 H53 H 0.21763 0.19842 -0.22495
 H54 H 0.30106 0.19832 -0.28997
 C55 C 0.69838 0.25297 -0.22046
 C56 C 0.71063 0.24239 -0.18960
 C57 C 0.73949 0.25792 -0.17532
 C58 C 0.75659 0.28415 -0.19233
 C59 C 0.74521 0.29503 -0.22306
 C60 C 0.71642 0.27924 -0.23702
 H61 H 0.69758 0.22261 -0.17594
 H62 H 0.77924 0.29580 -0.18201
 H63 H 0.70777 0.28846 -0.26041
 C64 C 0.17341 0.79453 0.28729
 C65 C 0.18493 0.82752 0.27943
 C66 C 0.21768 0.83936 0.28701
 C67 C 0.23885 0.81711 0.30310
 C68 C 0.22742 0.78414 0.31184
 C69 C 0.19467 0.77310 0.30371
 H70 H 0.16816 0.84352 0.26666
 H71 H 0.26379 0.82577 0.31008
 H72 H 0.18604 0.74742 0.30926
 C73 C 0.49990 0.45133 0.49917
 C74 C 0.46871 0.46279 0.50830
 C75 C 0.45166 0.48486 0.48795
 C76 C 0.46634 0.49564 0.45824
 C77 C 0.49738 0.48434 0.44862
 C78 C 0.51405 0.46211 0.46915
 H79 H 0.45807 0.45503 0.53168
 H80 H 0.45310 0.51196 0.44191
 H81 H 0.53787 0.45313 0.46164
 C82 C -0.01599 -0.07389 0.96635
 C83 C -0.04798 -0.06415 0.97441
 C84 C -0.06203 -0.03597 0.95968
 C85 C -0.04325 -0.01757 0.93593
 C86 C -0.01180 -0.02819 0.92613
 C87 C 0.00171 -0.05619 0.94174
 H88 H -0.06147 -0.07814 0.99323
 H89 H -0.05381 0.00375 0.92373
 H90 H 0.02640 -0.06360 0.93531
 C91 C 1.01495 0.55001 1.02187
 C92 C 1.02904 0.51846 1.02481
 C93 C 1.02793 0.49528 0.99853
 C94 C 1.01163 0.50324 0.96907
 C95 C 0.99604 0.53426 0.96610
 C96 C 0.99788 0.55747 0.99267
 H97 H 1.04195 0.51212 1.04730
 H98 H 1.01139 0.48546 0.94859
 H99 H 0.98643 0.58155 0.99052
 C100 C 0.52724 0.07203 0.47666
 C101 C 0.55211 0.05435 0.49264
 C102 C 0.56412 0.02440 0.47888
 C103 C 0.54994 0.01222 0.44886
 C104 C 0.52526 0.02968 0.43244
 C105 C 0.51389 0.05937 0.44674
 H106 H 0.56269 0.06497 0.51516
 H107 H 0.55777 -0.01105 0.43807
 H108 H 0.49482 0.07294 0.43436
 C109 C -0.00748 0.03651 0.50090
 C110 C -0.03666 0.02272 0.48580
 C111 C -0.05384 -0.00630 0.49861
 C112 C -0.04049 -0.02153 0.52686
 C113 C -0.01169 -0.00777 0.54273
 C114 C 0.00486 0.02106 0.52931
 H115 H -0.04556 0.03499 0.46398
 H116 H -0.05246 -0.04420 0.53684
 H117 H 0.02659 0.03233 0.54173
 C118 C 0.45550 0.56880 0.02940
 C119 C 0.46909 0.55148 0.05617
 C120 C 0.45581 0.51940 0.06560
 C121 C 0.42877 0.50459 0.04764
 C122 C 0.41496 0.52137 0.02070
 C123 C 0.42846 0.55347 0.01186
 H124 H 0.48997 0.56296 0.06975
 H125 H 0.41894 0.47954 0.05404
 H126 H 0.41731 0.56700 -0.00817
 C127 C 0.51074 -0.03553 -0.00400
 C128 C 0.48566 -0.02103 0.01487
 C129 C 0.49345 -0.00205 0.04344
 C130 C 0.52679 0.00395 0.05258
 C131 C 0.55230 -0.00839 0.03313
 C132 C 0.54429 -0.02859 0.00522
 H133 H 0.45970 -0.02673 0.00924
 H134 H 0.53295 0.01913 0.07436
 H135 H 0.56419 -0.03862 -0.00920
 C136 C 1.05931 0.43702 0.54587
 C137 C 1.07417 0.46355 0.52700
 C138 C 1.07248 0.49751 0.53756
 C139 C 1.05751 0.50430 0.56796
 C140 C 1.04483 0.47811 0.58789
 C141 C 1.04482 0.44466 0.57643
 H142 H 1.08582 0.45791 0.50368
 H143 H 1.05717 0.53009 0.57723
 H144 H 1.03366 0.42472 0.59155
 C145 C 0.42764 0.02583 0.19994
 H146 H 0.44385 0.02831 0.22128
 C147 C 0.44149 0.02496 0.16839
 H148 H 0.46829 0.02660 0.16599
 C149 C 0.37325 0.02183 0.17717
 H150 H 0.34668 0.02083 0.18052
 C151 C 0.38601 0.02091 0.14525
 H152 H 0.36874 0.01850 0.12470
 N153 N 0.39402 0.02395 0.20381
 C154 C 0.33475 0.06891 0.28051
 H155 H 0.33365 0.04873 0.29848
 C156 C 0.31563 0.09714 0.28487
 H157 H 0.29972 0.09839 0.30624
 C158 C 0.35567 0.09069 0.22991
 H159 H 0.37116 0.08791 0.20845
 C160 C 0.33673 0.11919 0.23313
 H161 H 0.33801 0.13831 0.21407
 Zn162 Zn 0.37547 0.02511 0.24692
 N163 N 0.35395 0.06606 0.25321
 C164 C 0.41433 0.04629 0.30214
 N165 N 0.40938 0.02132 0.27912
 C166 C 0.42827 -0.00635 0.27893
 C167 C 0.45264 -0.01015 0.30316
 C168 C 0.43830 0.04348 0.32682
 C169 C 0.31264 -0.00564 0.23662
 C170 C 0.28588 -0.02889 0.24075
 C171 C 0.32008 -0.06122 0.27685
 C172 C 0.34631 -0.03727 0.27198
 N173 N 0.34225 -0.01022 0.25191
 H174 H 0.39968 0.06846 0.30151
 H175 H 0.42416 -0.02564 0.26005
 H176 H 0.46687 -0.03271 0.30294
 H177 H 0.44177 0.06374 0.34480
 H178 H 0.30937 0.01675 0.22200
 H179 H 0.26280 -0.02457 0.22798
 H180 H 0.32371 -0.08224 0.29329
 H181 H 0.36955 -0.04010 0.28484
 C182 C 0.31600 0.12238 0.26064
 C183 C 0.42058 0.02235 0.14048
 C184 C 0.28926 -0.05702 0.26129
 C185 C 0.45764 0.01484 0.32771
 C186 C 0.06518 -0.02723 0.70514
 H187 H 0.05663 -0.02575 0.73028
 C188 C 0.04180 -0.03087 0.67964
 H189 H 0.01560 -0.03161 0.68562
 C190 C 0.10938 -0.02788 0.66687
 H191 H 0.13582 -0.02723 0.66206
 C192 C 0.08675 -0.03078 0.64047
 H193 H 0.09590 -0.03214 0.61543
 N194 N 0.09832 -0.02494 0.69844
 C195 C 0.18046 -0.04963 0.76500
 H196 H 0.18057 -0.02835 0.78184
 C197 C 0.20376 -0.07435 0.76918
 H198 H 0.22186 -0.07125 0.78897
 C199 C 0.15690 -0.07906 0.71872
 H200 H 0.13850 -0.08094 0.69917
 C201 C 0.17993 -0.10432 0.72190
 H202 H 0.17878 -0.12544 0.70471
 Zn203 Zn 0.12842 -0.01608 0.73459
 N204 N 0.15782 -0.05211 0.73988
 C205 C 0.08586 0.01774 0.77674
 N206 N 0.10320 -0.01080 0.77359
 C207 C 0.10151 -0.03537 0.79696
 C208 C 0.08126 -0.03199 0.82458
 C209 C 0.06521 0.02210 0.80388
 C210 C 0.17019 0.03903 0.75493
 C211 C 0.19057 0.06846 0.75195
 C212 C 0.17770 0.06907 0.69367
 C213 C 0.15720 0.03987 0.69785
 N214 N 0.15432 0.02499 0.72802
 H215 H 0.08754 0.03683 0.75769
 H216 H 0.11532 -0.05797 0.79387
 H217 H 0.08031 -0.05204 0.84266
 H218 H 0.05115 0.04469 0.80515
 H219 H 0.16684 0.02751 0.77888
 H220 H 0.20321 0.07893 0.77366
 H221 H 0.17965 0.08042 0.66946
 H222 H 0.14379 0.02932 0.67683
 C223 C 0.20395 -0.10202 0.74728
 C224 C 0.05247 -0.03193 0.64680
 C225 C 0.19482 0.08359 0.72092
 C226 C 0.06238 -0.00311 0.82821
 C227 C 0.55496 0.45231 0.20471
 H228 H 0.55379 0.43246 0.22304
 C229 C 0.52940 0.45428 0.18139
 H230 H 0.50921 0.43525 0.18186
 C231 C 0.58278 0.50126 0.18280
 H232 H 0.60316 0.52007 0.18392
 C233 C 0.55764 0.50431 0.15912
 H234 H 0.55942 0.52540 0.14222
 N235 N 0.58101 0.47554 0.20503
 C236 C 0.66110 0.42802 0.25991
 H237 H 0.66725 0.44727 0.27838
 C238 C 0.67933 0.39872 0.25837
 H239 H 0.69921 0.39543 0.27603
 C240 C 0.62800 0.40923 0.21420
 H241 H 0.60854 0.41364 0.19649
 C242 C 0.64534 0.37954 0.21194
 H243 H 0.63879 0.36160 0.19240
 Zn244 Zn 0.61239 0.47331 0.24024
 N245 N 0.63577 0.43260 0.23818
 C246 C 0.59240 0.45664 0.30666
 N247 N 0.58800 0.47654 0.27982
 C248 C 0.56613 0.50169 0.28027
 C249 C 0.54847 0.50855 0.30878
 C250 C 0.57522 0.46274 0.33592
 C251 C 0.64508 0.53361 0.26380
 C252 C 0.66745 0.56165 0.26294
 C253 C 0.68772 0.54149 0.21074
 C254 C 0.66480 0.51380 0.21254
 N255 N 0.64376 0.51063 0.23860
 H256 H 0.60973 0.43661 0.30572
 H257 H 0.56300 0.51701 0.25852
 H258 H 0.53128 0.52875 0.30818
 H259 H 0.57967 0.44725 0.35730
 H260 H 0.62886 0.53032 0.28477
 H261 H 0.66802 0.57949 0.28335
 H262 H 0.70376 0.54387 0.18945
 H263 H 0.66349 0.49497 0.19299
 C264 C 0.67132 0.37387 0.23427
 C265 C 0.53021 0.48082 0.15835
 C266 C 0.68903 0.56601 0.23608
 C267 C 0.55330 0.48941 0.33736
 C268 C 0.94304 0.52131 0.73028
 H269 H 0.94003 0.54284 0.74646
 C270 C 0.97077 0.52043 0.70997
 H271 H 0.98864 0.54176 0.71058
 C272 C 0.92232 0.46812 0.70947
 H273 H 0.90345 0.44772 0.70952
 C274 C 0.94973 0.46621 0.68861
 H275 H 0.95161 0.44424 0.67276
 N276 N 0.91922 0.49575 0.72926
 C277 C 0.82985 0.54628 0.75783
 H278 H 0.82150 0.53134 0.77878
 C279 C 0.81315 0.57514 0.74898
 H280 H 0.79199 0.58210 0.76342
 C281 C 0.86828 0.55562 0.71443
 H282 H 0.88960 0.54787 0.70078
 C283 C 0.85226 0.58449 0.70463
 H284 H 0.86162 0.59826 0.68337
 Zn285 Zn 0.88213 0.50114 0.75677
 N286 N 0.85755 0.53776 0.74125
 C287 C 0.89378 0.54181 0.81374
 N288 N 0.89931 0.51126 0.79965
 C289 C 0.92002 0.48940 0.81412
 C290 C 0.93621 0.49807 0.84389
 C291 C 0.90944 0.55149 0.84334
 C292 C 0.83799 0.45353 0.72717
 C293 C 0.81759 0.42405 0.72431
 C294 C 0.82992 0.41149 0.78126
 C295 C 0.85001 0.44133 0.78305
 N296 N 0.85404 0.46136 0.75605
 H297 H 0.87812 0.55937 0.80160
 H298 H 0.92473 0.46563 0.80200
 H299 H 0.95319 0.48068 0.85460
 H300 H 0.90456 0.57597 0.85390
 H301 H 0.84132 0.47018 0.70620
 H302 H 0.80513 0.41867 0.70101
 H303 H 0.82768 0.39571 0.80293
 H304 H 0.86256 0.44826 0.80594
 C305 C 0.82479 0.59515 0.72246
 C306 C 0.97425 0.49279 0.68847
 C307 C 0.81354 0.40230 0.75149
 C308 C 0.93140 0.52978 0.85856
 C309 C 0.17806 0.40954 0.01177
 H310 H 0.19706 0.41076 0.03083
 C311 C 0.14722 0.42286 0.01771
 H312 H 0.14260 0.43474 0.04131
 C313 C 0.16057 0.39164 -0.04186
 H314 H 0.16581 0.37917 -0.06493
 C315 C 0.12965 0.40565 -0.03733
 H316 H 0.11111 0.40380 -0.05686
 N317 N 0.18356 0.39282 -0.01697
 C318 C 0.25218 0.31841 0.01738
 H319 H 0.27171 0.32132 -0.00077
 C320 C 0.25526 0.29560 0.04333
 H321 H 0.27747 0.28132 0.04513
 C322 C 0.19972 0.33388 0.03714
 H323 H 0.17759 0.34792 0.03426
 C324 C 0.20189 0.31163 0.06357
 H325 H 0.18152 0.30929 0.08088
 Zn326 Zn 0.22335 0.36936 -0.01974
 N327 N 0.22513 0.33766 0.01523
 C328 C 0.28255 0.40038 0.00801
 N329 N 0.25988 0.40158 -0.01698
 C330 C 0.26229 0.42632 -0.04017
 C331 C 0.28889 0.45043 -0.03943
 C332 C 0.30956 0.42393 0.00967
 C333 C 0.19929 0.31998 -0.06394
 C334 C 0.19774 0.30027 -0.09264
 C335 C 0.24774 0.33029 -0.11154
 C336 C 0.24822 0.34960 -0.08249
 N337 N 0.22396 0.34437 -0.05960
 H338 H 0.27978 0.38124 0.02683
 H339 H 0.24355 0.42718 -0.05939
 H340 H 0.29005 0.46984 -0.05816
 H341 H 0.32748 0.42195 0.02950
 H342 H 0.18068 0.31596 -0.04501
 H343 H 0.17795 0.28090 -0.09536
 H344 H 0.26705 0.33506 -0.12963
 H345 H 0.26803 0.36860 -0.07825
 C346 C 0.23009 0.29244 0.06712
 C347 C 0.12247 0.42031 -0.00680
 C348 C 0.22211 0.30538 -0.11697
 C349 C 0.31321 0.44929 -0.01441
 C350 C 0.70815 0.07007 -0.00253
 H351 H 0.71854 0.07022 -0.02700
 C352 C 0.67940 0.04975 0.00381
 H353 H 0.66772 0.03505 -0.01612
 C354 C 0.71171 0.08701 0.05356
 H355 H 0.72473 0.10046 0.07335
 C356 C 0.68329 0.06698 0.06098
 H357 H 0.67445 0.06671 0.08614
 N358 N 0.72357 0.08855 0.02218
 C359 C 0.77072 0.17885 -0.01292
 H360 H 0.77901 0.18638 0.01153
 C361 C 0.76999 0.20336 -0.03750
 H362 H 0.77680 0.22939 -0.03100
 C363 C 0.75262 0.13598 -0.05091
 H364 H 0.74693 0.10957 -0.05638
 C365 C 0.75157 0.15975 -0.07634
 H366 H 0.74459 0.15118 -0.10097
 Zn367 Zn 0.76493 0.11337 0.01478
 N368 N 0.76185 0.14584 -0.01976
 C369 C 0.81699 0.08481 -0.02281
 N370 N 0.79644 0.08136 0.00366
 C371 C 0.79695 0.05382 0.02351
 C372 C 0.81838 0.02803 0.01690
 C373 C 0.83908 0.05952 -0.03028
 C374 C 0.75790 0.15920 0.06770
 C375 C 0.76617 0.17596 0.09728
 C376 C 0.81695 0.14587 0.09944
 C377 C 0.80771 0.12967 0.06973
 N378 N 0.77844 0.13630 0.05465
 H379 H 0.81625 0.10707 -0.03816
 H380 H 0.78048 0.05188 0.04450
 H381 H 0.81845 0.00661 0.03342
 H382 H 0.85508 0.06238 -0.05157
 H383 H 0.73478 0.16411 0.05522
 H384 H 0.74899 0.19350 0.10735
 H385 H 0.84041 0.14023 0.11083
 H386 H 0.82395 0.11175 0.05882
 C387 C 0.76045 0.19399 -0.06980
 C388 C 0.66680 0.04782 0.03602
 C389 C 0.79594 0.16922 0.11376
 C390 C 0.83962 0.03048 -0.01046
 C391 C 0.21251 0.57934 0.46736
 H392 H 0.22978 0.56991 0.44954
 C393 C 0.18090 0.56320 0.47079
 H394 H 0.17379 0.54137 0.45555
 C395 C 0.20075 0.61884 0.50948
 H396 H 0.20853 0.64002 0.52509
 C397 C 0.16892 0.60410 0.51312
 H398 H 0.15273 0.61418 0.53164
 N399 N 0.22180 0.60666 0.48666
 C400 C 0.24363 0.64925 0.41941
 H401 H 0.22307 0.63101 0.42265
 C402 C 0.24352 0.67124 0.39250
 H403 H 0.22307 0.66918 0.37498
 C404 C 0.29407 0.67566 0.43922
 H405 H 0.31260 0.67879 0.45857
 C406 C 0.29512 0.69787 0.41254
 H407 H 0.31496 0.71732 0.41142
 Zn408 Zn 0.26487 0.62851 0.48293
 N409 N 0.26850 0.65208 0.44234
 C410 C 0.33000 0.60459 0.47913
 N411 N 0.29797 0.59610 0.48733
 C412 C 0.28943 0.56513 0.50014
 C413 C 0.31344 0.54119 0.50475
 C414 C 0.35478 0.58142 0.48328
 C415 C 0.25385 0.69050 0.51331
 C416 C 0.25653 0.71585 0.53743
 C417 C 0.29459 0.68190 0.56769
 C418 C 0.29111 0.65709 0.54294
 N419 N 0.27075 0.66171 0.51660
 H420 H 0.33655 0.62942 0.46958
 H421 H 0.26403 0.55905 0.50728
 H422 H 0.30587 0.51665 0.51463
 H423 H 0.38010 0.58898 0.47682
 H424 H 0.23786 0.69351 0.49205
 H425 H 0.24211 0.73802 0.53442
 H426 H 0.31092 0.67769 0.58844
 H427 H 0.30444 0.63405 0.54493
 C428 C 0.26920 0.69634 0.38920
 C429 C 0.15864 0.57600 0.49365
 C430 C 0.27702 0.71174 0.56520
 C431 C 0.34666 0.54921 0.49627
 C432 C 0.69963 0.91311 0.52276
 H433 H 0.71534 0.90668 0.54335
 C434 C 0.67609 0.93749 0.52679
 H435 H 0.67371 0.94914 0.55083
 C436 C 0.68398 0.90498 0.46665
 H437 H 0.68765 0.89262 0.44316
 C438 C 0.66024 0.92950 0.46951
 H439 H 0.64584 0.93558 0.44790
 N440 N 0.70305 0.89735 0.49314
 C441 C 0.69969 0.82609 0.53457
 H442 H 0.68085 0.82994 0.51609
 C443 C 0.69089 0.80897 0.56336
 H444 H 0.66559 0.79879 0.56599
 C445 C 0.75491 0.83617 0.55407
 H446 H 0.77948 0.84781 0.55095
 C447 C 0.74722 0.81874 0.58332
 H448 H 0.76618 0.81678 0.60221
 Zn449 Zn 0.73669 0.86574 0.49136
 N450 N 0.73116 0.83941 0.53032
 C451 C 0.80824 0.87741 0.49504
 N452 N 0.77829 0.89106 0.48928
 C453 C 0.77659 0.92379 0.47929
 C454 C 0.80541 0.94414 0.47481
 C455 C 0.83785 0.89728 0.49158
 C456 C 0.70067 0.82251 0.44603
 C457 C 0.69640 0.80062 0.41894
 C458 C 0.75482 0.80948 0.40698
 C459 C 0.75796 0.83129 0.43426
 N460 N 0.73115 0.83717 0.45339
 H461 H 0.80925 0.85102 0.50173
 H462 H 0.75281 0.93416 0.47402
 H463 H 0.80331 0.97008 0.46684
 H464 H 0.86152 0.88619 0.49620
 H465 H 0.67940 0.82811 0.46082
 H466 H 0.67178 0.78971 0.41356
 H467 H 0.77672 0.80482 0.39262
 H468 H 0.78198 0.84314 0.44030
 C469 C 0.71465 0.80537 0.58834
 C470 C 0.65607 0.94621 0.49993
 C471 C 0.72374 0.79358 0.39911
 C472 C 0.83650 0.93099 0.48099
 C473 C 0.04246 0.20430 0.42912
 H474 H 0.06285 0.22320 0.42990
 C475 C 0.04518 0.17375 0.44588
 H476 H 0.06783 0.16983 0.45951
 C477 C -0.01204 0.18774 0.41113
 H478 H -0.03447 0.19345 0.39790
 C479 C -0.01034 0.15671 0.42748
 H480 H -0.03154 0.13883 0.42611
 N481 N 0.01429 0.21069 0.41201
 C482 C 0.04485 0.28450 0.33664
 H483 H 0.02828 0.30463 0.34175
 C484 C 0.06725 0.28763 0.31047
 H485 H 0.06790 0.31060 0.29607
 C486 C 0.06384 0.23032 0.34963
 H487 H 0.06217 0.20777 0.36459
 C488 C 0.08654 0.23234 0.32369
 H489 H 0.10199 0.21115 0.31924
 Zn490 Zn 0.01313 0.25378 0.39127
 N491 N 0.04392 0.25642 0.35594
 C492 C 0.04697 0.31339 0.41882
 N493 N 0.02452 0.28706 0.42407
 C494 C 0.00966 0.28264 0.45389
 C495 C 0.01741 0.30491 0.47999
 C496 C 0.05488 0.33678 0.44413
 C497 C -0.04157 0.24150 0.34821
 C498 C -0.07206 0.24776 0.33320
 C499 C -0.07761 0.29494 0.37061
 C500 C -0.04710 0.28768 0.38498
 N501 N -0.02975 0.26132 0.37365
 H502 H 0.05889 0.31632 0.39515
 H503 H -0.00804 0.26149 0.45745
 H504 H 0.00529 0.30089 0.50353
 H505 H 0.07278 0.35760 0.43967
 H506 H -0.02707 0.22099 0.33932
 H507 H -0.08084 0.23140 0.31316
 H508 H -0.09038 0.31649 0.37981
 H509 H -0.03702 0.30359 0.40479
 C510 C 0.08869 0.26140 0.30379
 C511 C 0.01860 0.14928 0.44521
 C512 C -0.09054 0.27497 0.34420
 C513 C 0.04028 0.33238 0.47526
 C514 C -0.01968 0.70634 0.09287
 H515 H -0.03627 0.72295 0.08045
 C516 C -0.01346 0.67472 0.07915
 H517 H -0.02542 0.66734 0.05604
 C518 C 0.01701 0.69670 0.13745
 H519 H 0.02929 0.70537 0.15991
 C520 C 0.02368 0.66491 0.12483
 H521 H 0.04053 0.64962 0.13845
 N522 N -0.00433 0.71672 0.12145
 C523 C -0.06106 0.79175 0.17251
 H524 H -0.04231 0.81221 0.17497
 C525 C -0.09188 0.79428 0.18768
 H526 H -0.09647 0.81679 0.20197
 C527 C -0.07681 0.73686 0.15212
 H528 H -0.07065 0.71437 0.13861
 C529 C -0.10792 0.73830 0.16692
 H530 H -0.12556 0.71689 0.16418
 Zn531 Zn -0.01088 0.76066 0.13802
 N532 N -0.05413 0.76334 0.15522
 C533 C -0.02876 0.81266 0.09516
 N534 N -0.00418 0.79166 0.10297
 C535 C 0.02409 0.79108 0.08473
 C536 C 0.02867 0.81274 0.05774
 C537 C -0.02525 0.83462 0.06852
 C538 C 0.01264 0.75391 0.20222
 C539 C 0.03578 0.75578 0.22803
 C540 C 0.07163 0.79180 0.19416
 C541 C 0.04773 0.78932 0.16902
 N542 N 0.01936 0.76978 0.17314
 H543 H -0.05147 0.81210 0.10922
 H544 H 0.04296 0.77354 0.09099
 H545 H 0.05145 0.81210 0.04377
 H546 H -0.04553 0.85061 0.06271
 H547 H -0.01027 0.73870 0.20487
 H548 H 0.02996 0.74240 0.25063
 H549 H 0.09453 0.80644 0.18968
 H550 H 0.05245 0.80205 0.14590
 C551 C -0.11566 0.76717 0.18527
 C552 C 0.00880 0.65365 0.09503
 C553 C 0.06619 0.77417 0.22389
 C554 C 0.00377 0.83495 0.04938
 C555 C 0.50694 0.18795 0.60744
 H556 H 0.50449 0.18028 0.63295
 C557 C 0.50635 0.16345 0.58225
 H558 H 0.50320 0.13686 0.58847
 C559 C 0.51435 0.23189 0.56819
 H560 H 0.51837 0.25843 0.56261
 C561 C 0.51342 0.20843 0.54239
 H562 H 0.51667 0.21742 0.51737
 N563 N 0.51061 0.22148 0.59997
 C564 C 0.46914 0.28051 0.67954
 H565 H 0.49049 0.29762 0.68424
 C566 C 0.43982 0.28430 0.69698
 H567 H 0.43931 0.30414 0.71544
 C568 C 0.44478 0.23366 0.64980
 H569 H 0.44678 0.21429 0.63105
 C570 C 0.41478 0.23661 0.66668
 H571 H 0.39395 0.21929 0.66063
 Zn572 Zn 0.51206 0.25477 0.63395
 N573 N 0.47119 0.25543 0.65664
 C574 C 0.54728 0.31745 0.61573
 N575 N 0.51836 0.29811 0.61439
 C576 C 0.49169 0.30819 0.59687
 C577 C 0.49397 0.33772 0.57826
 C578 C 0.55074 0.34720 0.59718
 C579 C 0.53832 0.23657 0.69560
 C580 C 0.56297 0.23031 0.71884
 C581 C 0.60446 0.24142 0.67694
 C582 C 0.57891 0.24678 0.65425
 N583 N 0.54662 0.24538 0.66417
 H584 H 0.56795 0.30960 0.63044
 H585 H 0.46895 0.29241 0.59633
 H586 H 0.47273 0.34429 0.56353
 H587 H 0.57412 0.36194 0.59798
 H588 H 0.51253 0.23442 0.70282
 H589 H 0.55581 0.22417 0.74390
 H590 H 0.63009 0.24342 0.66892
 H591 H 0.58485 0.25257 0.62883
 C592 C 0.41201 0.26232 0.69058
 C593 C 0.50927 0.17376 0.54922
 C594 C 0.59651 0.23333 0.70975
 C595 C 0.52403 0.35727 0.57763
 C596 C 0.51872 0.72310 0.94225
 H597 H 0.53925 0.74182 0.94340
 C598 C 0.51392 0.69998 0.96795
 H599 H 0.53114 0.70108 0.98859
 C600 C 0.47206 0.69873 0.91330
 H601 H 0.45550 0.69853 0.89223
 C602 C 0.46638 0.67507 0.93842
 H603 H 0.44545 0.65693 0.93617
 N604 N 0.49839 0.72162 0.91525
 C605 C 0.56122 0.76060 0.83499
 H606 H 0.54740 0.78163 0.82620
 C607 C 0.58983 0.75135 0.81836
 H608 H 0.59770 0.76567 0.79688
 C609 C 0.56646 0.71562 0.87273
 H610 H 0.55694 0.70106 0.89335
 C611 C 0.59521 0.70569 0.85707
 H612 H 0.60749 0.68412 0.86678
 Zn613 Zn 0.50867 0.75269 0.88065
 N614 N 0.54999 0.74257 0.86150
 C615 C 0.53629 0.81936 0.89832
 N616 N 0.50967 0.79673 0.89947
 C617 C 0.48092 0.80468 0.91442
 C618 C 0.47727 0.83705 0.92718
 C619 C 0.53392 0.85209 0.91156
 C620 C 0.46975 0.71954 0.83051
 C621 C 0.44500 0.71625 0.80611
 C622 C 0.43384 0.77521 0.81424
 C623 C 0.45867 0.77731 0.83849
 N624 N 0.47559 0.74952 0.84672
 H625 H 0.55911 0.81226 0.88679
 H626 H 0.46039 0.78599 0.91548
 H627 H 0.45388 0.84301 0.93840
 H628 H 0.55493 0.87022 0.91009
 H629 H 0.48404 0.69797 0.83690
 H630 H 0.44038 0.69183 0.79433
 H631 H 0.42090 0.79778 0.80832
 H632 H 0.46445 0.80136 0.85051
 C633 C 0.60705 0.72317 0.82907
 C634 C 0.48772 0.67520 0.96604
 C635 C 0.42639 0.74429 0.79785
 C636 C 0.50377 0.86133 0.92544
 N637 N 0.11276 0.28722 0.25194
 N638 N 0.13821 0.28273 0.23217
 C639 C 0.15562 0.25684 0.24357
 C640 C 0.14033 0.24438 0.27194
 C641 C 0.11320 0.26429 0.27649
 H642 H 0.14792 0.22372 0.28718
 H643 H 0.09541 0.30566 0.24820
 H644 H 0.14355 0.29769 0.21153
 N645 N 0.65038 0.68134 0.81576
 N646 N 0.67421 0.67769 0.79393
 C647 C 0.67599 0.70504 0.77414
 C648 C 0.65208 0.72714 0.78412
 C649 C 0.63621 0.71119 0.81059
 H650 H 0.64674 0.75128 0.77337
 H651 H 0.64361 0.66287 0.83308
 H652 H 0.68800 0.65604 0.79220
 N653 N 0.39483 0.71555 0.75073
 N654 N 0.36928 0.72154 0.73130
 C655 C 0.35694 0.75145 0.74000
 C656 C 0.37560 0.76497 0.76628
 C657 C 0.39955 0.74151 0.77235
 H658 H 0.37241 0.78882 0.77884
 H659 H 0.40887 0.69412 0.74858
 H660 H 0.36053 0.70508 0.71257
 N661 N -0.14459 0.30430 0.34022
 N662 N -0.17133 0.30521 0.31818
 C663 C -0.16555 0.28418 0.29259
 C664 C -0.13495 0.26974 0.29812
 C665 C -0.12265 0.28283 0.32800
 H666 H -0.12266 0.25216 0.28239
 H667 H -0.14310 0.31767 0.36252
 H668 H -0.19202 0.31953 0.32229
 N669 N -0.16112 0.79645 0.21473
 N670 N -0.18835 0.78765 0.23133
 C671 C -0.19280 0.75358 0.23053
 C672 C -0.16736 0.74024 0.21252
 C673 C -0.14764 0.76816 0.20306
 H674 H -0.16283 0.71375 0.20850
 H675 H -0.15215 0.82148 0.21169
 H676 H -0.20343 0.80487 0.24290
 N677 N 0.37337 0.29448 0.72593
 N678 N 0.34255 0.28853 0.74082
 C679 C 0.33109 0.25685 0.73252
 C680 C 0.35443 0.24230 0.71211
 C681 C 0.38054 0.26641 0.70885
 H682 H 0.35344 0.21691 0.70193
 H683 H 0.38746 0.31731 0.72774
 H684 H 0.33090 0.30672 0.75479
 N685 N 0.61969 0.20935 0.76151
 N686 N 0.64815 0.21492 0.78102
 C687 C 0.66823 0.23858 0.76605
 C688 C 0.65305 0.24769 0.73646
 C689 C 0.62289 0.22926 0.73479
 H690 H 0.66153 0.26659 0.71885
 H691 H 0.59950 0.19297 0.76748
 H692 H 0.65149 0.20310 0.80366
 N693 N 0.09332 0.75158 0.27489
 N694 N 0.12161 0.75669 0.29136
 C695 C 0.13952 0.78227 0.27709
 C696 C 0.12173 0.79393 0.25044
 C697 C 0.09259 0.77378 0.24967
 H698 H 0.12960 0.81359 0.23334
 H699 H 0.07550 0.73245 0.28055
 H700 H 0.12834 0.74265 0.31191
 N701 N 0.28011 0.16245 0.29095
 N702 N 0.25909 0.18599 0.28336
 C703 C 0.25842 0.18965 0.25024
 C704 C 0.28022 0.16756 0.23635
 C705 C 0.29338 0.15072 0.26287
 H706 H 0.28454 0.16285 0.21043
 H707 H 0.28504 0.15466 0.31501
 H708 H 0.24556 0.19908 0.30079
 N709 N 0.82274 0.65156 0.69427
 N710 N 0.80247 0.67682 0.69234
 C711 C 0.77535 0.66934 0.71075
 C712 C 0.77860 0.63781 0.72501
 C713 C 0.80899 0.62722 0.71387
 H714 H 0.76096 0.62429 0.74077
 H715 H 0.84586 0.65170 0.68274
 H716 H 0.80771 0.69901 0.67908
 N717 N 0.78051 0.35655 0.72028
 N718 N 0.76268 0.32847 0.72695
 C719 C 0.76293 0.32358 0.75985
 C720 C 0.78179 0.34981 0.77472
 C721 C 0.79248 0.37038 0.74881
 H722 H 0.78627 0.35371 0.80085
 H723 H 0.78452 0.36551 0.69638
 H724 H 0.75106 0.31280 0.70902
 N725 N 0.22866 -0.07418 0.26079
 N726 N 0.20881 -0.10302 0.26788
 C727 C 0.22884 -0.12739 0.27831
 C728 C 0.26168 -0.11428 0.27822
 C729 C 0.26053 -0.08120 0.26682
 H730 H 0.28387 -0.12738 0.28429
 H731 H 0.21948 -0.05127 0.25299
 H732 H 0.18290 -0.10383 0.26630
 N733 N 0.24674 -0.13349 0.77845
 N734 N 0.26909 -0.15851 0.77168
 C735 C 0.26523 -0.16788 0.73964
 C736 C 0.24020 -0.14897 0.72577
 C737 C 0.22943 -0.12783 0.75062
 H738 H 0.23135 -0.14940 0.70052
 H739 H 0.24413 -0.12198 0.80150
 H740 H 0.28529 -0.16772 0.78931
 N741 N 0.67776 0.31343 0.21740
 N742 N 0.70095 0.29090 0.21783
 C743 C 0.72851 0.30474 0.23269
 C744 C 0.72230 0.33764 0.24249
 C745 C 0.68986 0.34231 0.23195
 H746 H 0.73946 0.35604 0.25416
 H747 H 0.65401 0.30873 0.20735
 H748 H 0.69761 0.26638 0.20817
 N749 N 0.74081 0.59767 0.21682
 N750 N 0.75611 0.62767 0.22170
 C751 C 0.73804 0.64587 0.24277
 C752 C 0.71002 0.62629 0.25169
 C753 C 0.71267 0.59592 0.23471
 H754 H 0.69015 0.63334 0.26782
 H755 H 0.75012 0.57864 0.20200
 H756 H 0.77894 0.63490 0.21116
 N757 N 0.23226 0.12400 0.68907
 N758 N 0.24923 0.15305 0.69442
 C759 C 0.24451 0.16286 0.72592
 C760 C 0.22386 0.13877 0.74130
 C761 C 0.21658 0.11458 0.71712
 H762 H 0.21496 0.13903 0.76645
 H763 H 0.23171 0.11094 0.66655
 H764 H 0.26307 0.16615 0.67643
 N765 N 0.25237 0.24255 0.09640
 N766 N 0.25020 0.22863 0.12594
 C767 C 0.22983 0.24668 0.14483
 C768 C 0.21833 0.27308 0.12622
 C769 C 0.23333 0.26968 0.09571
 H770 H 0.20228 0.29275 0.13409
 H771 H 0.26641 0.23318 0.07710
 H772 H 0.26230 0.20686 0.13256
 N773 N 0.67368 0.78711 0.63164
 N774 N 0.67307 0.76897 0.65892
 C775 C 0.70385 0.75826 0.66490
 C776 C 0.72504 0.77050 0.64026
 C777 C 0.70486 0.78848 0.61956
 H778 H 0.75120 0.76621 0.63722
 H779 H 0.65288 0.79821 0.62163
 H780 H 0.65150 0.76333 0.67240
 N781 N 0.69402 0.74725 0.36578
 N782 N 0.69893 0.72981 0.33842
 C783 C 0.72803 0.74084 0.32499
 C784 C 0.74220 0.76648 0.34488
 C785 C 0.71991 0.76982 0.37056
 H786 H 0.76563 0.78051 0.34129
 H787 H 0.67339 0.74312 0.38097
 H788 H 0.68228 0.71093 0.32918
 N789 N 0.19341 0.26792 -0.15966
 N790 N 0.20137 0.25113 -0.18656
 C791 C 0.23418 0.25667 -0.19222
 C792 C 0.24756 0.27816 -0.16784
 C793 C 0.22095 0.28457 -0.14754
 H794 H 0.27330 0.28685 -0.16458
 H795 H 0.16934 0.26807 -0.15021
 H796 H 0.18431 0.23650 -0.20080
 N797 N 0.77669 0.25039 -0.09469
 N798 N 0.77129 0.26701 -0.12225
 C799 C 0.75145 0.24743 -0.14231
 C800 C 0.74395 0.21686 -0.12658
 C801 C 0.76040 0.21974 -0.09637
 H802 H 0.72858 0.19557 -0.13575
 H803 H 0.79162 0.26013 -0.07536
 H804 H 0.78074 0.29164 -0.12665
 N805 N 0.29369 0.74139 0.35186
 N806 N 0.28272 0.76470 0.33175
 C807 C 0.24921 0.76132 0.33010
 C808 C 0.23858 0.73439 0.34984
 C809 C 0.26747 0.72256 0.36336
 H810 H 0.21325 0.72595 0.35534
 H811 H 0.31877 0.73882 0.35767
 H812 H 0.29815 0.78254 0.31961
 N813 N 0.26908 0.76994 0.58845
 N814 N 0.27358 0.78614 0.61688
 C815 C 0.28700 0.76510 0.63880
 C816 C 0.29136 0.73414 0.62350
 C817 C 0.27945 0.73810 0.59155
 H818 H 0.30076 0.71159 0.63453
 H819 H 0.25929 0.78099 0.56740
 H820 H 0.26784 0.81135 0.62084
 N821 N 0.82675 0.17476 0.16791
 N822 N 0.82719 0.19465 0.19431
 C823 C 0.80538 0.21916 0.18981
 C824 C 0.79051 0.21445 0.15896
 C825 C 0.80463 0.18599 0.14585
 H826 H 0.77202 0.22964 0.14757
 H827 H 0.84075 0.15329 0.16578
 H828 H 0.84157 0.19053 0.21531
 N829 N 0.55658 0.39978 0.54323
 N830 N 0.55023 0.42409 0.52210
 C831 C 0.51707 0.42754 0.52077
 C832 C 0.50176 0.40441 0.54199
 C833 C 0.52757 0.38709 0.55566
 H834 H 0.47535 0.40012 0.54608
 H835 H 0.58036 0.39146 0.54805
 H836 H 0.56844 0.43787 0.50886
 N837 N 0.02800 0.85427 -0.00503
 N838 N 0.02275 0.87823 -0.02694
 C839 C -0.00139 0.89772 -0.01562
 C840 C -0.01149 0.88579 0.01495
 C841 C 0.00735 0.85804 0.02073
 H842 H -0.03009 0.89591 0.03086
 H843 H 0.04471 0.83515 -0.00842
 H844 H 0.03483 0.88028 -0.04963
 N845 N 0.04351 0.60287 0.08988
 N846 N 0.04499 0.57577 0.07085
 C847 C 0.01987 0.57556 0.04863
 C848 C 0.00159 0.60399 0.05387
 C849 C 0.01739 0.62072 0.08033
 H850 H -0.01998 0.61149 0.04019
 H851 H 0.06105 0.60921 0.10826
 H852 H 0.06387 0.55863 0.07252
 N853 N 0.49845 0.15572 0.49079
 N854 N 0.50311 0.12912 0.47179
 C855 C 0.51633 0.10469 0.49017
 C856 C 0.51993 0.11638 0.52251
 C857 C 0.50848 0.14892 0.52175
 H858 H 0.53045 0.10361 0.54340
 H859 H 0.48880 0.17820 0.48236
 H860 H 0.49832 0.12856 0.44642
 N861 N 0.04910 0.10535 0.47677
 N862 N 0.04224 0.07604 0.49141
 C863 C 0.00959 0.06763 0.48749
 C864 C -0.00491 0.09292 0.46945
 C865 C 0.02096 0.11660 0.46319
 H866 H -0.03086 0.09422 0.46270
 H867 H 0.07294 0.11697 0.47606
 H868 H 0.05993 0.06195 0.50343
 N869 N 0.49584 0.65210 1.02312
 N870 N 0.48757 0.62420 1.03964
 C871 C 0.46932 0.60288 1.01975
 C872 C 0.46583 0.61815 0.98922
 C873 C 0.48306 0.64932 0.99229
 H874 H 0.45334 0.60764 0.96748
 H875 H 0.50967 0.67273 1.03323
 H876 H 0.49402 0.62038 1.06430
 N877 N 0.46963 0.91090 0.93547
 N878 N 0.47137 0.93963 0.95556
 C879 C 0.50180 0.94188 0.96994
 C880 C 0.52034 0.91526 0.95837
 C881 C 0.49891 0.89601 0.93776
 H882 H 0.54460 0.90831 0.96694
 H883 H 0.44832 0.90184 0.92275
 H884 H 0.45176 0.95569 0.95857
 N885 N 0.04877 0.34677 0.53489
 N886 N 0.05423 0.37412 0.55342
 C887 C 0.05773 0.40147 0.53370
 C888 C 0.05492 0.39079 0.50099
 C889 C 0.04877 0.35594 0.50291
 H890 H 0.05474 0.40637 0.47910
 H891 H 0.04470 0.32233 0.54421
 H892 H 0.05499 0.37380 0.57919
 N893 N 0.37011 0.49713 0.52094
 N894 N 0.39769 0.48040 0.51891
 C895 C 0.41849 0.49643 0.49747
 C896 C 0.40334 0.52470 0.48548
 C897 C 0.37267 0.52428 0.50090
 H898 H 0.41318 0.54294 0.46782
 H899 H 0.35015 0.48996 0.53612
 H900 H 0.40165 0.45804 0.53168
 N901 N 0.85634 -0.02928 -0.00690
 N902 N 0.88384 -0.04762 -0.01488
 C903 C 0.90594 -0.02671 -0.03072
 C904 C 0.89255 0.00514 -0.03368
 C905 C 0.86192 0.00263 -0.01773
 H906 H 0.90454 0.02788 -0.04374
 H907 H 0.83546 -0.03930 0.00548
 H908 H 0.88544 -0.07339 -0.00994
 N909 N 0.62856 0.01567 0.07457
 N910 N 0.59860 0.00052 0.07366
 C911 C 0.58714 0.00051 0.04237
 C912 C 0.61094 0.01632 0.02233
 C913 C 0.63676 0.02611 0.04387
 H914 H 0.60844 0.02256 -0.00352
 H915 H 0.64258 0.01932 0.09619
 H916 H 0.58583 -0.00863 0.09440
 N917 N 0.09905 0.57852 0.50744
 N918 N 0.07498 0.55633 0.52084
 C919 C 0.08638 0.52479 0.51941
 C920 C 0.11742 0.52603 0.50422
 C921 C 0.12498 0.56032 0.49848
 H922 H 0.13452 0.50573 0.50290
 H923 H 0.09816 0.60491 0.50804
 H924 H 0.05305 0.56387 0.53172
 N925 N 0.07368 0.42742 0.02928
 N926 N 0.04781 0.44666 0.03028
 C927 C 0.04633 0.46417 0.00188
 C928 C 0.07214 0.45517 -0.01841
 C929 C 0.08918 0.43225 0.00022
 H930 H 0.08011 0.46711 -0.04120
 H931 H 0.08157 0.41276 0.04896
 H932 H 0.03291 0.44951 0.05106
 N933 N 0.63098 0.99514 0.52888
 N934 N 0.60532 1.01686 0.52300
 C935 C 0.59044 1.00755 0.49408
 C936 C 0.60631 0.97967 0.48142
 C937 C 0.63149 0.97283 0.50360
 H938 H 0.60087 0.96611 0.45866
 H939 H 0.64729 0.99744 0.54899
 H940 H 0.59977 1.03661 0.53892
 N941 N 0.87003 0.97703 0.45306
 N942 N 0.90058 0.99455 0.45795
 C943 C 0.91578 0.98086 0.48427
 C944 C 0.89526 0.95391 0.49593
 C945 C 0.86701 0.95272 0.47609
 H946 H 0.89898 0.93815 0.51723
 H947 H 0.85266 0.98271 0.43489
 H948 H 0.90858 1.01520 0.44366
 N949 N 0.35184 0.49440 -0.03871
 N950 N 0.37842 0.51318 -0.02954
 C951 C 0.38642 0.50550 0.00184
 C952 C 0.36378 0.48059 0.01301
 C953 C 0.34212 0.47424 -0.01341
 H954 H 0.36291 0.46920 0.03723
 H955 H 0.34119 0.49518 -0.06225
 H956 H 0.39108 0.53041 -0.04500
 N957 N 0.52108 0.52722 0.37393
 N958 N 0.50657 0.52588 0.40305
 C959 C 0.51176 0.49563 0.41683
 C960 C 0.53063 0.47687 0.39552
 C961 C 0.53574 0.49771 0.36830
 H962 H 0.53820 0.45118 0.39881
 H963 H 0.52091 0.54832 0.35855
 H964 H 0.49348 0.54559 0.41321
 N965 N 0.02304 0.02820 0.86438
 N966 N 0.00346 0.02156 0.88988
 C967 C 0.00676 -0.01085 0.89904
 C968 C 0.02947 -0.02541 0.87836
 C969 C 0.03924 0.00008 0.85652
 H970 H 0.03680 -0.05139 0.87853
 H971 H 0.02504 0.05177 0.85286
 H972 H -0.01162 0.03921 0.90081
 N973 N -0.00329 -0.04738 0.62206
 N974 N -0.02008 -0.04103 0.59486
 C975 C -0.00024 -0.02251 0.57432
 C976 C 0.03083 -0.01723 0.58928
 C977 C 0.02772 -0.03324 0.61959
 H978 H 0.05218 -0.00245 0.58025
 H979 H -0.01332 -0.06068 0.64217
 H980 H -0.04519 -0.04815 0.59141
 N981 N 0.47265 0.46697 0.13577
 N982 N 0.45329 0.47709 0.11164
 C983 C 0.46991 0.50140 0.09424
 C984 C 0.50141 0.50689 0.10810
 C985 C 0.50227 0.48450 0.13446
 H986 H 0.52096 0.52457 0.09995
 H987 H 0.46498 0.44885 0.15310
 H988 H 0.42877 0.46791 0.10799
 N989 N 0.41726 0.02474 0.07855
 N990 N 0.43642 0.01835 0.05312
 C991 C 0.46647 0.00999 0.06444
 C992 C 0.46648 0.01128 0.09864
 C993 C 0.43460 0.02036 0.10674
 H994 H 0.48624 0.00439 0.11517
 H995 H 0.39267 0.03172 0.07626
 H996 H 0.42877 0.01949 0.02847
 N997 N 1.03025 0.51315 0.66788
 N998 N 1.04849 0.50943 0.64128
 C999 C 1.03305 0.48627 0.62123
 C1000 C 1.00372 0.47444 0.63575
 C1001 C 1.00256 0.49259 0.66524
 H1002 H 0.98492 0.45701 0.62519
 H1003 H 1.03680 0.52991 0.68712
 H1004 H 1.07098 0.52294 0.63686
 N1005 N 0.95572 0.57364 0.89779
 N1006 N 0.97281 0.57485 0.92573
 C1007 C 0.97840 0.54295 0.93527
 C1008 C 0.96435 0.52042 0.91204
 C1009 C 0.94996 0.54094 0.88876
 H1010 H 0.96387 0.49301 0.91251
 H1011 H 0.94884 0.59511 0.88501
 H1012 H 0.98086 0.59739 0.93751
 N1013 N 0.50936 -0.00808 0.35218
 N1014 N 0.52707 -0.00426 0.37967
 C1015 C 0.51203 0.01751 0.39991
 C1016 C 0.48349 0.02786 0.38438
 C1017 C 0.48274 0.01124 0.35416
 H1018 H 0.46560 0.04504 0.39371
 H1019 H 0.51620 -0.02293 0.33215
 H1020 H 0.54958 -0.01569 0.38368
   
