data_POSCAR
  _audit_creation_date              2014-09-24
  _audit_creation_method            'ToBaCCo'
  _symmetry_space_group_name_H-M    'P1'
  _symmetry_Int_Tables_number       1
  _symmetry_cell_setting            triclinic
  loop_
  _symmetry_equiv_pos_as_xyz
 x,y,z
_cell_length_a 51.0253
_cell_length_b 51.0808
_cell_length_c 16.0060
_cell_angle_alpha 89.971500
_cell_angle_beta 90.068000
_cell_angle_gamma 120.002400
loop_
  _atom_site_label
  _atom_site_type_symbol
  _atom_site_fract_x
  _atom_site_fract_y
  _atom_site_fract_z
C1 C 0.24409 0.48764 0.53859
 C2 C 0.24379 0.48773 0.45354
 C3 C 0.21906 0.48804 0.40524
 C4 C 0.26774 0.48634 0.40527
 C5 C 0.26928 0.48817 0.58645
 C6 C 0.21861 0.48574 0.58736
 C7 C 0.20302 0.46572 0.34501
 C8 C 0.17892 0.46509 0.30161
 C9 C 0.17002 0.48670 0.31805
 C10 C 0.18701 0.50966 0.37694
 C11 C 0.21143 0.51051 0.41888
 C12 C 0.26796 0.45908 0.39870
 C13 C 0.29127 0.45810 0.35564
 C14 C 0.31506 0.48456 0.32074
 C15 C 0.31469 0.51179 0.32715
 C16 C 0.29086 0.51253 0.36781
 C17 C 0.29913 0.51190 0.57631
 C18 C 0.32292 0.51141 0.61813
 C19 C 0.31724 0.48748 0.67239
 C20 C 0.28717 0.46434 0.68493
 C21 C 0.26343 0.46469 0.64225
 C22 C 0.22183 0.51145 0.62825
 C23 C 0.19716 0.51041 0.66919
 C24 C 0.16931 0.48332 0.67253
 C25 C 0.16649 0.45728 0.63442
 C26 C 0.19089 0.45859 0.59106
 H27 H 0.20875 0.44833 0.33269
 H28 H 0.16692 0.44712 0.25663
 H29 H 0.18165 0.52720 0.39101
 H30 H 0.22428 0.52869 0.46250
 H31 H 0.25018 0.43869 0.42731
 H32 H 0.29120 0.43690 0.35168
 H33 H 0.29088 0.53370 0.37239
 H34 H 0.30402 0.53073 0.53561
 H35 H 0.34576 0.52980 0.60799
 H36 H 0.28201 0.44562 0.72639
 H37 H 0.24052 0.44628 0.65144
 H38 H 0.24316 0.53253 0.62597
 H39 H 0.19984 0.53070 0.69863
 H40 H 0.14516 0.43619 0.63607
 H41 H 0.18817 0.43856 0.55991
 H42 H 0.33274 0.53241 0.30025
 C43 C 0.51018 -0.24512 0.54411
 C44 C 0.51051 -0.24468 0.45907
 C45 C 0.51255 -0.26819 0.41041
 C46 C 0.51014 -0.22002 0.41106
 C47 C 0.51161 -0.21973 0.59227
 C48 C 0.50982 -0.27016 0.59237
 C49 C 0.53984 -0.26850 0.40656
 C50 C 0.54136 -0.29136 0.36269
 C51 C 0.51538 -0.31462 0.32419
 C52 C 0.48814 -0.31414 0.32779
 C53 C 0.48690 -0.29072 0.36925
 C54 C 0.53382 -0.20235 0.35583
 C55 C 0.53425 -0.17832 0.31283
 C56 C 0.51101 -0.17149 0.32449
 C57 C 0.48689 -0.18978 0.37818
 C58 C 0.48631 -0.21400 0.42032
 C59 C 0.48534 -0.22259 0.62872
 C60 C 0.48616 -0.19793 0.66907
 C61 C 0.51353 -0.17045 0.67617
 C62 C 0.54003 -0.16800 0.64223
 C63 C 0.53899 -0.19237 0.59949
 C64 C 0.48731 -0.30027 0.57851
 C65 C 0.48826 -0.32384 0.62002
 C66 C 0.51133 -0.31780 0.67839
 C67 C 0.53298 -0.28738 0.69513
 C68 C 0.53227 -0.26389 0.65231
 H69 H 0.55984 -0.25113 0.43788
 H70 H 0.56256 -0.29140 0.36089
 H71 H 0.46790 -0.33178 0.29810
 H72 H 0.46571 -0.29065 0.37158
 H73 H 0.55230 -0.20678 0.34733
 H74 H 0.55312 -0.16472 0.27183
 H75 H 0.46734 -0.22798 0.46055
 H76 H 0.46407 -0.24364 0.62362
 H77 H 0.46550 -0.20034 0.69522
 H78 H 0.56135 -0.14698 0.64671
 H79 H 0.55944 -0.18990 0.57161
 H80 H 0.46908 -0.30559 0.53496
 H81 H 0.47079 -0.34679 0.60612
 H82 H 0.55101 -0.28160 0.73985
 H83 H 0.54971 -0.24079 0.66470
 H84 H 0.46842 -0.18541 0.38763
 C85 C 1.24279 0.75611 0.54181
 C86 C 1.24500 0.75512 0.45692
 C87 C 1.26933 0.78098 0.41081
 C88 C 1.22257 0.72936 0.40565
 C89 C 1.21609 0.73277 0.58920
 C90 C 1.26743 0.78094 0.59101
 C91 C 1.26699 0.80668 0.39463
 C92 C 1.28987 0.83110 0.35099
 C93 C 1.31618 0.83079 0.32573
 C94 C 1.31834 0.80483 0.34277
 C95 C 1.29476 0.77989 0.38294
 C96 C 1.20809 0.73471 0.33869
 C97 C 1.18486 0.71063 0.29508
 C98 C 1.17559 0.68063 0.31747
 C99 C 1.19112 0.67529 0.38192
 C100 C 1.21460 0.69946 0.42506
 C101 C 1.22043 0.72056 0.66305
 C102 C 1.19575 0.69758 0.70582
 C103 C 1.16612 0.68564 0.67442
 C104 C 1.16180 0.69872 0.60198
 C105 C 1.18638 0.72256 0.56148
 C106 C 1.29709 0.78610 0.58674
 C107 C 1.32057 0.81045 0.62886
 C108 C 1.31479 0.82967 0.67902
 C109 C 1.28462 0.82332 0.68685
 C110 C 1.26125 0.79930 0.64284
 H111 H 1.24732 0.80769 0.41545
 H112 H 1.28726 0.85057 0.33946
 H113 H 1.33798 0.80346 0.32374
 H114 H 1.29666 0.76000 0.39429
 H115 H 1.21390 0.75753 0.32211
 H116 H 1.17353 0.71559 0.24554
 H117 H 1.22592 0.69484 0.47540
 H118 H 1.24303 0.72835 0.68676
 H119 H 1.20014 0.68842 0.76169
 H120 H 1.13937 0.69084 0.57680
 H121 H 1.18218 0.73259 0.50723
 H122 H 1.30212 0.77133 0.55023
 H123 H 1.34323 0.81398 0.62226
 H124 H 1.27905 0.83732 0.72519
 H125 H 1.23838 0.79534 0.64806
 H126 H 1.18480 0.65246 0.40007
 C127 C 0.75760 0.51347 0.54537
 C128 C 0.75761 0.51353 0.46038
 C129 C 0.78218 0.51328 0.41197
 C130 C 0.73372 0.51516 0.41224
 C131 C 0.73258 0.51290 0.59412
 C132 C 0.78300 0.51452 0.59286
 C133 C 0.80193 0.53851 0.36413
 C134 C 0.82588 0.53884 0.32087
 C135 C 0.83053 0.51395 0.32518
 C136 C 0.81017 0.48840 0.37148
 C137 C 0.78600 0.48795 0.41361
 C138 C 0.73353 0.54245 0.40637
 C139 C 0.71025 0.54360 0.36338
 C140 C 0.68645 0.51727 0.32780
 C141 C 0.68681 0.49002 0.33345
 C142 C 0.71062 0.48912 0.37401
 C143 C 0.70264 0.48960 0.58245
 C144 C 0.67890 0.49004 0.62445
 C145 C 0.68463 0.51342 0.68120
 C146 C 0.71493 0.53595 0.69573
 C147 C 0.73857 0.53574 0.65234
 C148 C 0.78204 0.48763 0.61615
 C149 C 0.80672 0.48844 0.65655
 C150 C 0.83233 0.51626 0.67814
 C151 C 0.83253 0.54320 0.65740
 C152 C 0.80836 0.54229 0.61362
 H153 H 0.79912 0.55816 0.36158
 H154 H 0.84115 0.55883 0.28565
 H155 H 0.81285 0.46870 0.37498
 H156 H 0.77036 0.46789 0.44794
 H157 H 0.75130 0.56274 0.43550
 H158 H 0.71035 0.56483 0.35996
 H159 H 0.71057 0.46792 0.37793
 H160 H 0.69758 0.47112 0.54023
 H161 H 0.65607 0.47194 0.61226
 H162 H 0.72047 0.55427 0.73909
 H163 H 0.76149 0.55384 0.66304
 H164 H 0.76242 0.46600 0.60127
 H165 H 0.80542 0.46718 0.67198
 H166 H 0.85176 0.56509 0.67238
 H167 H 0.80945 0.56326 0.59567
 H168 H 0.66878 0.46951 0.30598
 C169 C 0.48935 0.24490 0.54520
 C170 C 0.48914 0.24487 0.46020
 C171 C 0.48922 0.26962 0.41188
 C172 C 0.48718 0.21928 0.41192
 C173 C 0.48964 0.22028 0.59389
 C174 C 0.48826 0.26919 0.59268
 C175 C 0.46397 0.26392 0.36357
 C176 C 0.46342 0.28744 0.32039
 C177 C 0.48809 0.31709 0.32527
 C178 C 0.51367 0.32253 0.37206
 C179 C 0.51435 0.29891 0.41409
 C180 C 0.45973 0.19191 0.40643
 C181 C 0.45824 0.16746 0.36292
 C182 C 0.48438 0.16988 0.32642
 C183 C 0.51179 0.19738 0.33169
 C184 C 0.51303 0.22211 0.37279
 C185 C 0.51250 0.21305 0.58147
 C186 C 0.51163 0.18861 0.62312
 C187 C 0.48827 0.17127 0.68028
 C188 C 0.46623 0.17962 0.69561
 C189 C 0.46686 0.20374 0.65257
 C190 C 0.51513 0.29507 0.61653
 C191 C 0.51426 0.31895 0.65637
 C192 C 0.48636 0.31679 0.67685
 C193 C 0.45943 0.29008 0.65557
 C194 C 0.46042 0.26683 0.61231
 H195 H 0.44446 0.24137 0.36059
 H196 H 0.44341 0.28252 0.28479
 H197 H 0.53321 0.34502 0.37598
 H198 H 0.53444 0.30352 0.44874
 H199 H 0.43959 0.18949 0.43621
 H200 H 0.43690 0.14642 0.35982
 H201 H 0.53433 0.24318 0.37638
 H202 H 0.53095 0.22621 0.53888
 H203 H 0.52937 0.18341 0.61033
 H204 H 0.44795 0.16711 0.73932
 H205 H 0.44908 0.20897 0.66388
 H206 H 0.53681 0.29705 0.60236
 H207 H 0.53551 0.33889 0.67224
 H208 H 0.43749 0.28747 0.66968
 H209 H 0.43946 0.24701 0.59382
 H210 H 0.53216 0.19976 0.30354
 C211 C 0.75481 0.24448 0.54392
 C212 C 0.75492 0.24412 0.45889
 C213 C 0.72999 0.21951 0.41050
 C214 C 0.78054 0.26773 0.41062
 C215 C 0.77930 0.26958 0.59250
 C216 C 0.73081 0.21896 0.59170
 C217 C 0.73610 0.20186 0.35551
 C218 C 0.71256 0.17786 0.31216
 C219 C 0.68247 0.17107 0.32325
 C220 C 0.67656 0.18936 0.37665
 C221 C 0.70015 0.21354 0.41914
 C222 C 0.80816 0.26807 0.40684
 C223 C 0.83257 0.29094 0.36298
 C224 C 0.82986 0.31418 0.32445
 C225 C 0.80213 0.31369 0.32807
 C226 C 0.77745 0.29027 0.36950
 C227 C 0.78667 0.29962 0.57880
 C228 C 0.81106 0.32328 0.62048
 C229 C 0.82820 0.31740 0.67883
 C230 C 0.81966 0.28704 0.69544
 C231 C 0.79557 0.26345 0.65247
 C232 C 0.70721 0.22159 0.62769
 C233 C 0.68337 0.19681 0.66778
 C234 C 0.68345 0.16945 0.67510
 C235 C 0.70769 0.16723 0.64158
 C236 C 0.73101 0.19170 0.59909
 H237 H 0.75903 0.20627 0.34749
 H238 H 0.71788 0.16425 0.27140
 H239 H 0.65370 0.18501 0.38566
 H240 H 0.69509 0.22751 0.45919
 H241 H 0.81077 0.25070 0.43811
 H242 H 0.85381 0.29098 0.36116
 H243 H 0.75618 0.29017 0.37175
 H244 H 0.77368 0.30481 0.53518
 H245 H 0.81639 0.34618 0.60669
 H246 H 0.83199 0.28138 0.74015
 H247 H 0.79008 0.24041 0.66472
 H248 H 0.70683 0.24254 0.62247
 H249 H 0.66498 0.19906 0.69360
 H250 H 0.70814 0.14631 0.64622
 H251 H 0.74914 0.18941 0.57157
 H252 H 0.79954 0.33133 0.29836
 N253 N 0.96926 0.53006 0.09096
 N254 N 0.94684 0.53555 0.10292
 N255 N 1.03247 0.54223 0.14859
 N256 N 1.05585 0.55626 0.19943
 N257 N 1.03290 0.56086 0.09138
 N258 N 1.05655 0.58812 0.10178
 N259 N 0.96872 0.51120 0.14760
 N260 N 0.94584 0.50316 0.19936
 C261 C 0.93245 0.51854 0.17068
 C262 C 1.07059 0.58484 0.16945
 N263 N 1.03163 0.46752 0.08839
 N264 N 1.05452 0.46265 0.09925
 N265 N 0.96784 0.45445 0.14567
 N266 N 0.94499 0.43969 0.19763
 N267 N 0.96810 0.43613 0.08858
 N268 N 0.94568 0.40827 0.10086
 N269 N 1.03166 0.48569 0.14646
 N270 N 1.05471 0.49396 0.19782
 Mn271 Mn 1.00012 0.49836 0.14805
 C272 C 1.06868 0.47937 0.16774
 C273 C 0.93144 0.41095 0.16886
 N274 N 1.03306 0.56152 -0.08815
 N275 N 1.05569 0.58928 -0.09980
 N276 N 0.96846 0.51191 -0.14626
 N277 N 0.94542 0.50404 -0.19747
 N278 N 0.96942 0.53089 -0.08939
 N279 N 0.94736 0.53693 -0.10132
 N280 N 1.03215 0.54353 -0.14807
 N281 N 1.05383 0.55870 -0.20309
 Mn282 Mn 1.00118 0.54616 0.00125
 C283 C 1.06841 0.58709 -0.17155
 C284 C 0.93256 0.51988 -0.16870
 N285 N 0.96793 0.43676 -0.09159
 N286 N 0.94492 0.40918 -0.10319
 N287 N 1.03180 0.48687 -0.14877
 N288 N 1.05461 0.49493 -0.20091
 N289 N 1.03139 0.46797 -0.09236
 N290 N 1.05358 0.46225 -0.10543
 N291 N 0.96792 0.45534 -0.14829
 N292 N 0.94476 0.44098 -0.19964
 Mn293 Mn 0.99979 0.45179 -0.00178
 Mn294 Mn 1.00007 0.49938 -0.14887
 Cl295 Cl 1.00029 0.49892 -0.00038
 C296 C 0.93069 0.41224 -0.17074
 C297 C 1.06789 0.47933 -0.17308
 N298 N 0.47047 0.43846 0.08960
 N299 N 0.46552 0.41078 0.10163
 N300 N 0.45676 0.48870 0.14539
 N301 N 0.44181 0.49667 0.19698
 N302 N 0.43851 0.46993 0.08839
 N303 N 0.41055 0.46423 0.10038
 N304 N 0.48877 0.45690 0.14711
 N305 N 0.49696 0.44233 0.19950
 C306 C 0.48225 0.41362 0.17031
 C307 C 0.41305 0.48119 0.16807
 N308 N 0.53172 0.56342 0.08908
 N309 N 0.53725 0.59129 0.10149
 N310 N 0.54515 0.51329 0.14750
 N311 N 0.55992 0.50543 0.20026
 N312 N 0.56362 0.53196 0.09076
 N313 N 0.59154 0.53771 0.10410
 N314 N 0.51298 0.54504 0.14582
 N315 N 0.50480 0.55978 0.19757
 Mn316 Mn 0.50091 0.50098 0.14747
 C317 C 0.52016 0.58856 0.16912
 C318 C 0.58880 0.52088 0.17236
 N319 N 0.43890 0.46994 -0.09185
 N320 N 0.41118 0.46500 -0.10398
 N321 N 0.48960 0.45656 -0.14702
 N322 N 0.49786 0.44178 -0.19837
 N323 N 0.47058 0.43819 -0.09074
 N324 N 0.46487 0.41027 -0.10328
 N325 N 0.45736 0.48819 -0.14930
 N326 N 0.44276 0.49632 -0.20183
 Mn327 Mn 0.45431 0.45383 -0.00114
 C328 C 0.41402 0.48166 -0.17276
 C329 C 0.48219 0.41297 -0.17028
 N330 N 0.56394 0.53160 -0.08954
 N331 N 0.59174 0.53660 -0.10037
 N332 N 0.51359 0.54461 -0.14873
 N333 N 0.50497 0.55901 -0.20046
 N334 N 0.53189 0.56311 -0.09134
 N335 N 0.53644 0.59068 -0.10286
 N336 N 0.54569 0.51297 -0.14676
 N337 N 0.56045 0.50457 -0.19762
 Mn338 Mn 0.54810 0.54784 -0.00032
 Mn339 Mn 0.50157 0.50058 -0.14895
 Cl340 Cl 0.50123 0.50081 -0.00070
 C341 C 0.58910 0.51951 -0.16795
 C342 C 0.51946 0.58769 -0.17112
 N343 N 0.43593 -0.03160 0.09081
 N344 N 0.40806 -0.05393 0.10362
 N345 N 0.48658 0.03189 0.14688
 N346 N 0.49475 0.05469 0.19907
 N347 N 0.46788 0.03170 0.09012
 N348 N 0.46240 0.05405 0.10293
 N349 N 0.45448 -0.03202 0.14703
 N350 N 0.43990 -0.05504 0.19854
 C351 C 0.41102 -0.06838 0.17076
 C352 C 0.47945 0.06824 0.17086
 N353 N 0.56101 0.03146 0.08912
 N354 N 0.58876 0.05426 0.10043
 N355 N 0.51075 -0.03206 0.14701
 N356 N 0.50253 -0.05489 0.19907
 N357 N 0.52908 -0.03212 0.08959
 N358 N 0.53397 -0.05493 0.10124
 N359 N 0.54272 0.03155 0.14659
 N360 N 0.55742 0.05447 0.19829
 Mn361 Mn 0.49862 -0.00017 0.14785
 C362 C 0.58607 0.06837 0.16873
 C363 C 0.51720 -0.06890 0.16972
 N364 N 0.46775 0.03156 -0.09030
 N365 N 0.46321 0.05461 -0.10151
 N366 N 0.45393 -0.03231 -0.14679
 N367 N 0.43910 -0.05533 -0.19816
 N368 N 0.43565 -0.03192 -0.08971
 N369 N 0.40779 -0.05448 -0.10129
 N370 N 0.48607 0.03144 -0.14766
 N371 N 0.49472 0.05453 -0.19901
 Mn372 Mn 0.45149 -0.00006 0.00017
 C373 C 0.48023 0.06869 -0.16951
 C374 C 0.41038 -0.06887 -0.16904
 N375 N 0.52898 -0.03222 -0.09058
 N376 N 0.53454 -0.05453 -0.10304
 N377 N 0.54234 0.03133 -0.14812
 N378 N 0.55708 0.05412 -0.20031
 N379 N 0.56080 0.03111 -0.09122
 N380 N 0.58868 0.05343 -0.10388
 N381 N 0.51018 -0.03260 -0.14731
 N382 N 0.50205 -0.05548 -0.19922
 Mn383 Mn 0.54528 -0.00043 -0.00073
 Mn384 Mn 0.49811 -0.00055 -0.14850
 Cl385 Cl 0.49838 -0.00030 -0.00032
 C386 C 0.51746 -0.06888 -0.17076
 C387 C 0.58593 0.06762 -0.17191
 N388 N 1.12986 0.46390 0.22039
 C389 C 1.14568 0.48528 0.27948
 N390 N 1.13596 0.50487 0.29998
 N391 N 1.11153 0.50299 0.26409
 C392 C 1.09589 0.48161 0.20551
 N393 N 1.10554 0.46217 0.18390
 N394 N 0.49337 0.63144 0.29139
 C395 C 0.51647 0.66027 0.28234
 N396 N 0.54073 0.66544 0.23526
 N397 N 0.54174 0.64261 0.19816
 C398 C 0.51875 0.61378 0.20794
 N399 N 0.49459 0.60858 0.25536
 N400 N 0.36759 -0.14151 0.27694
 C401 C 0.33987 -0.14409 0.28525
 N402 N 0.33578 -0.12156 0.25439
 N403 N 0.35829 -0.09767 0.21652
 C404 C 0.38597 -0.09508 0.20954
 N405 N 0.39028 -0.11733 0.24066
 N406 N 0.87213 0.53535 0.22217
 C407 C 0.85678 0.51481 0.28321
 N408 N 0.86640 0.49540 0.30625
 N409 N 0.89046 0.49657 0.27017
 C410 C 0.90573 0.51708 0.20926
 N411 N 0.89610 0.53639 0.18565
 N412 N 0.50586 0.37135 0.30714
 C413 C 0.48695 0.34231 0.28327
 N414 N 0.46662 0.33693 0.22134
 N415 N 0.46528 0.35966 0.18474
 C416 C 0.48407 0.38861 0.20915
 N417 N 0.50439 0.39407 0.27096
 N418 N 0.62828 0.13384 0.30650
 C419 C 0.65729 0.14468 0.28105
 N420 N 0.66268 0.13034 0.21752
 N421 N 0.63999 0.10617 0.18102
 C422 C 0.61108 0.09534 0.20706
 N423 N 0.60563 0.10960 0.27035
 N424 N 0.50613 0.13606 -0.30130
 C425 C 0.48670 0.14591 -0.28014
 N426 N 0.46531 0.13019 -0.22116
 N427 N 0.46343 0.10578 -0.18515
 C428 C 0.48270 0.09596 -0.20723
 N429 N 0.50409 0.11152 -0.26585
 N430 N 0.63141 0.49454 -0.29939
 C431 C 0.66063 0.51450 -0.27887
 N432 N 0.66602 0.53592 -0.22025
 N433 N 0.64326 0.53733 -0.18401
 C434 C 0.61420 0.51753 -0.20551
 N435 N 0.60867 0.49611 -0.26374
 N436 N 0.86919 0.33576 -0.22197
 C437 C 0.85355 0.34129 -0.28162
 N438 N 0.86345 0.37051 -0.30346
 N439 N 0.88796 0.39309 -0.26797
 C440 C 0.90345 0.38740 -0.20868
 N441 N 0.89357 0.35835 -0.18598
 N442 N 0.49136 -0.13838 -0.29372
 C443 C 0.51432 -0.14426 -0.28269
 N444 N 0.53823 -0.12529 -0.23427
 N445 N 0.53906 -0.10145 -0.19779
 C446 C 0.51623 -0.09545 -0.20950
 N447 N 0.49240 -0.11429 -0.25824
 N448 N 0.37154 0.50441 -0.31182
 C449 C 0.34258 0.48639 -0.28570
 N450 N 0.33735 0.46693 -0.22154
 N451 N 0.36012 0.46557 -0.18505
 C452 C 0.38898 0.48349 -0.21167
 N453 N 0.39429 0.50295 -0.27564
 N454 N 1.14446 0.65146 -0.20930
 C455 C 1.14146 0.66098 -0.28629
 N456 N 1.11410 0.64571 -0.32505
 N457 N 1.09092 0.62190 -0.28892
 C458 C 1.09406 0.61272 -0.21198
 N459 N 1.12113 0.62800 -0.17247
 N460 N 0.87955 0.54313 -0.24722
 C461 C 0.85728 0.51710 -0.28165
 N462 N 0.85995 0.49193 -0.27734
 N463 N 0.88397 0.49286 -0.24147
 C464 C 0.90598 0.51884 -0.20684
 N465 N 0.90329 0.54392 -0.20982
 N466 N 0.51059 0.36871 -0.27855
 C467 C 0.48542 0.34087 -0.28337
 N468 N 0.45925 0.33702 -0.24972
 N469 N 0.45833 0.35987 -0.21250
 C470 C 0.48342 0.38765 -0.20895
 N471 N 0.50953 0.39172 -0.24286
 N472 N 0.62918 0.13709 -0.29513
 C473 C 0.65807 0.14316 -0.28391
 N474 N 0.66310 0.12430 -0.23532
 N475 N 0.64012 0.10039 -0.19887
 C476 C 0.61124 0.09422 -0.21076
 N477 N 0.60615 0.11294 -0.25968
 N478 N 1.12387 0.45825 -0.23909
 C479 C 1.14312 0.48243 -0.28608
 N480 N 1.13756 0.50564 -0.29537
 N481 N 1.11349 0.50460 -0.25958
 C482 C 1.09439 0.48051 -0.21221
 N483 N 1.10006 0.45741 -0.20224
 N484 N 0.49381 0.62917 -0.30417
 C485 C 0.51296 0.65841 -0.28211
 N486 N 0.53410 0.66406 -0.22223
 N487 N 0.53601 0.64155 -0.18621
 C488 C 0.51701 0.61248 -0.20912
 N489 N 0.49586 0.60668 -0.26867
 N490 N 0.36797 -0.13709 -0.29710
 C491 C 0.33872 -0.14517 -0.28091
 N492 N 0.33331 -0.12797 -0.22644
 N493 N 0.35609 -0.10387 -0.18987
 C494 C 0.38519 -0.09581 -0.20708
 N495 N 0.39073 -0.11283 -0.26133
 N496 N 0.49409 -0.13422 0.30809
 C497 C 0.51219 -0.14510 0.28239
 N498 N 0.53181 -0.13083 0.21859
 N499 N 0.53326 -0.10669 0.18207
 C500 C 0.51526 -0.09581 0.20833
 N501 N 0.49564 -0.11001 0.27190
 N502 N 0.36930 0.50696 0.29043
 C503 C 0.34051 0.48391 0.27954
 N504 N 0.33570 0.46004 0.23129
 N505 N 0.35881 0.45935 0.19485
 C506 C 0.38758 0.48228 0.20644
 N507 N 0.39244 0.50606 0.25501
 N508 N 1.13561 0.66032 0.20970
 C509 C 1.14902 0.65523 0.27629
 N510 N 1.13661 0.62663 0.30664
 N511 N 1.11176 0.60412 0.27218
 C512 C 1.09836 0.60937 0.20604
 N513 N 1.11081 0.63783 0.17511
 N514 N 0.50619 0.13767 0.29438
 C515 C 0.48324 0.14363 0.28464
 N516 N 0.45910 0.12475 0.23680
 N517 N 0.45805 0.10090 0.19962
 C518 C 0.48088 0.09483 0.21005
 N519 N 0.50493 0.11358 0.25825
 N520 N 0.63223 0.49504 0.29663
 C521 C 0.66106 0.51809 0.28638
 N522 N 0.66599 0.54201 0.23815
 N523 N 0.64297 0.54275 0.20107
 C524 C 0.61416 0.51982 0.21197
 N525 N 0.60917 0.49599 0.26058
 N526 N 0.87504 0.33407 0.23505
 C527 C 0.85605 0.33926 0.28247
 N528 N 0.86187 0.36811 0.29170
 N529 N 0.88596 0.39096 0.25552
 C530 C 0.90481 0.38573 0.20775
 N531 N 0.89888 0.35689 0.19778
   
