data_POSCAR
  _audit_creation_date              2014-09-24
  _audit_creation_method            'ToBaCCo'
  _symmetry_space_group_name_H-M    'P1'
  _symmetry_Int_Tables_number       1
  _symmetry_cell_setting            triclinic
  loop_
  _symmetry_equiv_pos_as_xyz
 x,y,z
_cell_length_a 14.6822
_cell_length_b 14.6333
_cell_length_c 14.9011
_cell_angle_alpha 90.357400
_cell_angle_beta 89.976800
_cell_angle_gamma 89.972700
loop_
  _atom_site_label
  _atom_site_type_symbol
  _atom_site_fract_x
  _atom_site_fract_y
  _atom_site_fract_z
O1 O 0.43154 0.91660 -0.60497
 O2 O 0.59915 0.94246 -0.42216
 O3 O 0.41994 0.91219 -0.42938
 O4 O 0.60311 0.93689 -0.59542
 O5 O 0.58506 1.08689 -0.59168
 O6 O 0.40089 1.06191 -0.42531
 O7 O 0.57435 1.09122 -0.41767
 O8 O 0.40791 1.06572 -0.60074
 Cu9 Cu 0.51495 0.91174 -0.51158
 Cu10 Cu 0.48957 1.09133 -0.50895
 C11 C 0.39224 0.98745 -0.63476
 C12 C 0.61651 1.02137 -0.38975
 C13 C 0.37908 0.98238 -0.39931
 C14 C 0.62472 1.01601 -0.62228
 O15 O -0.60220 1.41956 -0.01054
 O16 O -0.41030 1.58138 -0.02358
 O17 O -0.42348 1.40420 -0.02353
 O18 O -0.58416 1.59686 -0.01680
 O19 O -0.59039 1.58736 0.13085
 O20 O -0.40335 1.41907 0.12270
 O21 O -0.41497 1.59610 0.12408
 O22 O -0.58117 1.40821 0.13553
 Cu23 Cu -0.50620 1.49914 -0.03361
 Cu24 Cu -0.49697 1.50221 0.14341
 C25 C -0.62288 1.38434 0.06464
 C26 C -0.38290 1.61924 0.04849
 C27 C -0.38264 1.38199 0.04816
 C28 C -0.61581 1.62426 0.05804
 O29 O 0.08003 0.43523 0.38865
 O30 O 0.06660 0.59170 0.58202
 O31 O 0.08767 0.41267 0.56274
 O32 O 0.05452 0.60658 0.40958
 O33 O -0.09476 0.58979 0.41986
 O34 O -0.06148 0.39508 0.57162
 O35 O -0.08175 0.56926 0.59195
 O36 O -0.06870 0.41375 0.39713
 Cu37 Cu 0.08746 0.51313 0.48607
 Cu38 Cu -0.09162 0.48953 0.49558
 C39 C 0.00763 0.39877 0.35930
 C40 C -0.00970 0.60848 0.61904
 C41 C 0.01852 0.37115 0.59360
 C42 C -0.02572 0.63080 0.38848
 O43 O -0.22572 0.97880 -0.14608
 O44 O 0.24093 1.02417 -0.11676
 O45 O -0.00060 1.12628 -0.23905
 O46 O 0.03294 0.88040 -0.24288
 O47 O 0.03255 0.76688 -0.13592
 O48 O -0.02423 1.23355 -0.12694
 O49 O 0.13783 1.01050 -0.23319
 O50 O -0.10836 0.98846 -0.24902
 Zr51 Zr 0.00989 1.00148 -0.16848
 O52 O 0.09529 0.92571 -0.08831
 O53 O -0.08501 1.07481 -0.09535
 C54 C -0.19364 0.98053 -0.22716
 C55 C 0.21960 1.01965 -0.20111
 C56 C -0.01625 1.20884 -0.21030
 C57 C 0.03899 0.79600 -0.21763
 H58 H 0.11480 1.13320 -0.12036
 O59 O 0.07841 1.08982 -0.08460
 H60 H -0.10081 0.86719 -0.13878
 O61 O -0.06865 0.90997 -0.09816
 O62 O 0.22514 1.02004 0.12585
 O63 O -0.24019 0.97004 0.09587
 O64 O 0.10022 1.24471 -0.00110
 O65 O 0.14441 0.77610 -0.01109
 O66 O -0.09961 0.75231 -0.01949
 O67 O -0.14491 1.22083 -0.01054
 O68 O -0.02755 1.11483 0.22315
 O69 O -0.00556 0.86919 0.21683
 O70 O -0.02407 1.22948 0.11736
 O71 O 0.01658 0.76170 0.10487
 O72 O 0.22087 1.14396 0.00985
 O73 O -0.24452 1.09957 -0.02603
 O74 O -0.22072 0.85302 -0.02035
 O75 O 0.24500 0.89725 -0.00426
 O76 O 0.10679 1.01246 0.22773
 O77 O -0.13664 0.98100 0.21209
 Zr78 Zr 0.15951 1.01387 -0.00044
 Zr79 Zr -0.15919 0.98314 -0.02055
 Zr80 Zr -0.01534 1.15847 -0.00684
 Zr81 Zr 0.01555 0.83866 -0.01390
 Zr82 Zr -0.00991 0.99469 0.14696
 O83 O -0.07932 0.90602 0.06396
 O84 O 0.06927 1.08719 0.07793
 C85 C 0.19205 1.02063 0.20673
 C86 C -0.21829 0.97176 0.18017
 C87 C 0.18622 1.22541 0.00596
 C88 C 0.22542 0.81081 -0.00843
 C89 C -0.18580 0.77160 -0.01911
 C90 C -0.22578 1.18599 -0.01905
 C91 C -0.02960 1.19965 0.19919
 C92 C 0.00671 0.78614 0.18794
 H93 H -0.13907 1.10471 0.10343
 O94 O -0.09434 1.07059 0.06671
 H95 H 0.12546 0.88713 0.11356
 O96 O 0.08497 0.92256 0.07378
 C97 C 0.32908 0.97813 0.28934
 C98 C 0.25602 1.03174 0.28145
 H99 H 0.34036 0.92327 0.24135
 H100 H 0.23941 1.08049 0.33402
 C101 C -0.30284 1.02550 0.31081
 C102 C -0.29242 0.96383 0.24509
 H103 H -0.25921 1.08520 0.31380
 H104 H -0.34131 0.90897 0.23655
 C105 C -0.31788 1.03291 -0.32280
 C106 C -0.25927 0.96710 -0.30005
 H107 H -0.31257 1.09915 -0.29006
 H108 H -0.25814 0.90234 -0.33572
 C109 C 0.30473 0.97120 -0.33438
 C110 C 0.29448 1.02907 -0.26549
 H111 H 0.26004 0.91261 -0.34111
 H112 H 0.34461 1.08214 -0.25361
 C113 C 0.30921 1.31784 0.07013
 C114 C 0.25057 1.30179 0.00317
 H115 H 0.30296 1.27910 0.13167
 H116 H 0.24948 1.34505 -0.05560
 C117 C 0.32027 0.69469 0.06101
 C118 C 0.30071 0.74567 -0.01075
 H119 H 0.28592 0.70887 0.12407
 H120 H 0.33742 0.73724 -0.07337
 C121 C -0.31555 0.69294 0.04498
 C122 C -0.24962 0.69489 -0.01667
 H123 H -0.31886 0.74599 0.09605
 H124 H -0.24001 0.63804 -0.06266
 C125 C -0.30823 1.31497 0.04529
 C126 C -0.30284 1.24978 -0.01777
 H127 H -0.25714 1.31828 0.09777
 H128 H -0.35758 1.24025 -0.06566
 C129 C 0.01332 1.33824 0.28060
 C130 C -0.04163 1.26634 0.27181
 H131 H 0.06834 1.34835 0.23312
 H132 H -0.09024 1.25068 0.32429
 C133 C 0.03110 1.29490 -0.34365
 C134 C -0.02811 1.28125 -0.27691
 H135 H 0.09199 1.25328 -0.34876
 H136 H -0.08368 1.32901 -0.26663
 C137 C -0.01609 0.67122 -0.31056
 C138 C 0.05212 0.72732 -0.28797
 H139 H -0.08090 0.67792 -0.27606
 H140 H 0.11529 0.72805 -0.32560
 C141 C -0.03838 0.70636 0.32553
 C142 C 0.01575 0.71321 0.25402
 H143 H -0.09496 0.75307 0.33482
 H144 H 0.06599 0.66046 0.24069
   
