data_POSCAR
  _audit_creation_date              2014-09-24
  _audit_creation_method            'ToBaCCo'
  _symmetry_space_group_name_H-M    'P1'
  _symmetry_Int_Tables_number       1
  _symmetry_cell_setting            triclinic
  loop_
  _symmetry_equiv_pos_as_xyz
 x,y,z
_cell_length_a 49.7921
_cell_length_b 49.8624
_cell_length_c 50.0106
_cell_angle_alpha 89.987500
_cell_angle_beta 90.003000
_cell_angle_gamma 90.012400
loop_
  _atom_site_label
  _atom_site_type_symbol
  _atom_site_fract_x
  _atom_site_fract_y
  _atom_site_fract_z
N1 N 0.16346 0.22807 0.23341
 N2 N 0.17045 0.20651 0.24688
 C3 C 0.15332 0.20313 0.26748
 C4 C 0.13479 0.22363 0.26668
 C5 C 0.14167 0.23913 0.24492
 H6 H 0.15419 0.18703 0.28194
 H7 H 0.13157 0.25703 0.23800
 Cu8 Cu 0.20122 0.18500 0.23618
 Cu9 Cu 0.18305 0.24017 0.20195
 Cu10 Cu 0.23859 0.20278 0.18301
 N11 N 0.23278 0.16458 0.22566
 N12 N 0.24731 0.17164 0.20483
 C13 C 0.26781 0.15427 0.20198
 C14 C 0.26592 0.13546 0.22207
 C15 C 0.24359 0.14244 0.23678
 H16 H 0.28295 0.15523 0.18649
 H17 H 0.23589 0.13217 0.25421
 N18 N 0.22656 0.23494 0.16349
 N19 N 0.20540 0.24919 0.17071
 C20 C 0.20234 0.26975 0.15349
 C21 C 0.22250 0.26824 0.13471
 C22 C 0.23752 0.24607 0.14148
 H23 H 0.18665 0.28471 0.15445
 H24 H 0.25506 0.23866 0.13110
 H25 H 0.19786 0.20305 0.19095
 H26 H 0.21961 0.22396 0.21310
 N27 N 0.66376 0.72861 0.73403
 N28 N 0.67105 0.70729 0.74775
 C29 C 0.65391 0.70384 0.76832
 C30 C 0.63507 0.72405 0.76727
 C31 C 0.64177 0.73944 0.74539
 H32 H 0.65497 0.68789 0.78294
 H33 H 0.63142 0.75712 0.73827
 Cu34 Cu 0.70218 0.68620 0.73726
 Cu35 Cu 0.68322 0.74069 0.70247
 Cu36 Cu 0.73878 0.70333 0.68342
 N37 N 0.73338 0.66541 0.72639
 N38 N 0.74761 0.67224 0.70529
 C39 C 0.76791 0.65469 0.70218
 C40 C 0.76619 0.63599 0.72238
 C41 C 0.74417 0.64323 0.73743
 H42 H 0.78279 0.65544 0.68644
 H43 H 0.73667 0.63308 0.75502
 N44 N 0.72664 0.73544 0.66388
 N45 N 0.70548 0.74968 0.67114
 C46 C 0.70236 0.77023 0.65391
 C47 C 0.72248 0.76871 0.63509
 C48 C 0.73753 0.74657 0.64184
 H49 H 0.68667 0.78518 0.65490
 H50 H 0.75507 0.73917 0.63144
 H51 H 0.69814 0.70351 0.69184
 H52 H 0.72003 0.72492 0.71335
 N53 N 0.33551 0.77211 0.73414
 N54 N 0.32846 0.79368 0.74757
 C55 C 0.34555 0.79712 0.76819
 C56 C 0.36411 0.77664 0.76746
 C57 C 0.35730 0.76111 0.74572
 H58 H 0.34464 0.81324 0.78262
 H59 H 0.36745 0.74322 0.73884
 Cu60 Cu 0.29770 0.81514 0.73672
 Cu61 Cu 0.31603 0.75996 0.70265
 Cu62 Cu 0.26053 0.79728 0.68346
 N63 N 0.26617 0.83556 0.72605
 N64 N 0.25172 0.82845 0.70518
 C65 C 0.23123 0.84583 0.70218
 C66 C 0.23309 0.86466 0.72224
 C67 C 0.25535 0.85773 0.73708
 H68 H 0.21617 0.84483 0.68662
 H69 H 0.26302 0.86804 0.75451
 N70 N 0.27263 0.76509 0.66404
 N71 N 0.29379 0.75088 0.67135
 C72 C 0.29694 0.73031 0.65416
 C73 C 0.27685 0.73179 0.63530
 C74 C 0.26177 0.75393 0.64200
 H75 H 0.31265 0.71538 0.65518
 H76 H 0.24427 0.76133 0.63154
 H77 H 0.30123 0.79704 0.69154
 H78 H 0.27943 0.77613 0.71364
 N79 N 0.83668 0.27159 0.23413
 N80 N 0.82957 0.29311 0.24762
 C81 C 0.84665 0.29657 0.26825
 C82 C 0.86526 0.27614 0.26744
 C83 C 0.85851 0.26061 0.24567
 H84 H 0.84569 0.31266 0.28271
 H85 H 0.86870 0.24276 0.23874
 Cu86 Cu 0.79874 0.31451 0.23686
 Cu87 Cu 0.81719 0.25945 0.20262
 Cu88 Cu 0.76154 0.29665 0.18360
 N89 N 0.76713 0.33484 0.22627
 N90 N 0.75267 0.32774 0.20542
 C91 C 0.73213 0.34506 0.20250
 C92 C 0.73393 0.36387 0.22259
 C93 C 0.75624 0.35695 0.23736
 H94 H 0.71705 0.34407 0.18697
 H95 H 0.76388 0.36726 0.25479
 N96 N 0.77372 0.26455 0.16409
 N97 N 0.79492 0.25038 0.17133
 C98 C 0.79808 0.22984 0.15410
 C99 C 0.77793 0.23130 0.13530
 C100 C 0.76283 0.25340 0.14207
 H101 H 0.81382 0.21493 0.15508
 H102 H 0.74527 0.26076 0.13167
 H103 H 0.80226 0.29653 0.19162
 H104 H 0.78055 0.27550 0.21371
 N105 N 0.83579 0.72887 0.26558
 N106 N 0.82819 0.70784 0.25159
 C107 C 0.84536 0.70436 0.23105
 C108 C 0.86453 0.72425 0.23239
 C109 C 0.85799 0.73948 0.25443
 H110 H 0.84410 0.68859 0.21625
 H111 H 0.86860 0.75691 0.26178
 Cu112 Cu 0.79668 0.68707 0.26164
 Cu113 Cu 0.81640 0.74088 0.29718
 Cu114 Cu 0.76084 0.70358 0.31624
 N115 N 0.76582 0.66599 0.27297
 N116 N 0.75189 0.67256 0.29435
 C117 C 0.73179 0.65481 0.29769
 C118 C 0.73332 0.63625 0.27734
 C119 C 0.75503 0.64378 0.26199
 H120 H 0.71717 0.65534 0.31367
 H121 H 0.76234 0.63381 0.24422
 N122 N 0.77304 0.73563 0.33582
 N123 N 0.79422 0.74984 0.32855
 C124 C 0.79737 0.77038 0.34579
 C125 C 0.77727 0.76886 0.36463
 C126 C 0.76218 0.74674 0.35787
 H127 H 0.81308 0.78532 0.34478
 H128 H 0.74463 0.73936 0.36827
 H129 H 0.80139 0.70356 0.30729
 H130 H 0.77939 0.72552 0.28642
 N131 N 0.33705 0.22822 -0.23415
 N132 N 0.33010 0.20661 -0.24759
 C133 C 0.34730 0.20316 -0.26812
 C134 C 0.36580 0.22370 -0.26729
 C135 C 0.35888 0.23927 -0.24562
 H136 H 0.34647 0.18702 -0.28254
 H137 H 0.36894 0.25720 -0.23871
 Cu138 Cu 0.29931 0.18510 -0.23689
 Cu139 Cu 0.31736 0.24039 -0.20279
 Cu140 Cu 0.26179 0.20301 -0.18389
 N141 N 0.26772 0.16467 -0.22638
 N142 N 0.25315 0.17180 -0.20562
 C143 C 0.23265 0.15442 -0.20273
 C144 C 0.23459 0.13554 -0.22274
 C145 C 0.25695 0.14249 -0.23743
 H146 H 0.21748 0.15542 -0.18728
 H147 H 0.26470 0.13215 -0.25480
 N148 N 0.27374 0.23524 -0.16444
 N149 N 0.29492 0.24948 -0.17164
 C150 C 0.29794 0.27008 -0.15446
 C151 C 0.27773 0.26859 -0.13573
 C152 C 0.26273 0.24640 -0.14248
 H153 H 0.31364 0.28503 -0.15541
 H154 H 0.24518 0.23899 -0.13211
 H155 H 0.30255 0.20329 -0.19171
 H156 H 0.28085 0.22412 -0.21400
 N157 N 0.66374 0.27084 -0.23449
 N158 N 0.67137 0.29182 -0.24856
 C159 C 0.65421 0.29529 -0.26912
 C160 C 0.63502 0.27543 -0.26768
 C161 C 0.64150 0.26023 -0.24560
 H162 H 0.65551 0.31103 -0.28396
 H163 H 0.63086 0.24284 -0.23817
 Cu164 Cu 0.70290 0.31258 -0.23858
 Cu165 Cu 0.68310 0.25891 -0.20283
 Cu166 Cu 0.73873 0.29619 -0.18391
 N167 N 0.73380 0.33364 -0.22732
 N168 N 0.74772 0.32712 -0.20592
 C169 C 0.76785 0.34485 -0.20264
 C170 C 0.76634 0.36335 -0.22305
 C171 C 0.74462 0.35580 -0.23838
 H172 H 0.78246 0.34436 -0.18665
 H173 H 0.73732 0.36574 -0.25618
 N174 N 0.72647 0.26424 -0.16421
 N175 N 0.70527 0.25002 -0.17142
 C176 C 0.70210 0.22955 -0.15410
 C177 C 0.72221 0.23110 -0.13528
 C178 C 0.73733 0.25318 -0.14212
 H179 H 0.68638 0.21461 -0.15506
 H180 H 0.75490 0.26056 -0.13177
 H181 H 0.69817 0.29625 -0.19286
 H182 H 0.72013 0.27418 -0.21365
 N183 N 0.16452 0.77217 0.26598
 N184 N 0.17156 0.79376 0.25256
 C185 C 0.15445 0.79721 0.23196
 C186 C 0.13589 0.77672 0.23270
 C187 C 0.14272 0.76118 0.25442
 H188 H 0.15535 0.81334 0.21753
 H189 H 0.13258 0.74327 0.26130
 Cu190 Cu 0.20235 0.81522 0.26338
 Cu191 Cu 0.18404 0.75999 0.29745
 Cu192 Cu 0.23958 0.79729 0.31659
 N193 N 0.23390 0.83562 0.27403
 N194 N 0.24837 0.82849 0.29487
 C195 C 0.26888 0.84585 0.29786
 C196 C 0.26701 0.86471 0.27782
 C197 C 0.24473 0.85780 0.26300
 H198 H 0.28395 0.84484 0.31341
 H199 H 0.23706 0.86813 0.24558
 N200 N 0.22748 0.76509 0.33601
 N201 N 0.20632 0.75087 0.32871
 C202 C 0.20318 0.73028 0.34589
 C203 C 0.22329 0.73175 0.36473
 C204 C 0.23836 0.75391 0.35803
 H205 H 0.18746 0.71536 0.34488
 H206 H 0.25588 0.76130 0.36848
 H207 H 0.19886 0.79707 0.30856
 H208 H 0.22063 0.77619 0.28641
 N209 N 0.47834 0.41390 0.48449
 N210 N 0.45679 0.42101 0.49796
 C211 C 0.45333 0.40395 0.51859
 C212 C 0.47377 0.38534 0.51781
 C213 C 0.48930 0.39210 0.49604
 H214 H 0.43722 0.40491 0.53306
 H215 H 0.50718 0.38192 0.48913
 Cu216 Cu 0.43540 0.45182 0.48719
 Cu217 Cu 0.49054 0.43335 0.45299
 Cu218 Cu 0.45336 0.48895 0.43394
 N219 N 0.41506 0.48341 0.47658
 N220 N 0.42221 0.49783 0.45573
 C221 C 0.40489 0.51836 0.45279
 C222 C 0.38603 0.51659 0.47286
 C223 C 0.39292 0.49431 0.48764
 H224 H 0.40591 0.53341 0.43725
 H225 H 0.38257 0.48669 0.50507
 N226 N 0.48550 0.47676 0.41445
 N227 N 0.49967 0.45557 0.42171
 C228 C 0.52025 0.45240 0.40449
 C229 C 0.51882 0.47251 0.38568
 C230 C 0.49670 0.48762 0.39242
 H231 H 0.53515 0.43665 0.40547
 H232 H 0.48935 0.50515 0.38202
 H233 H 0.47450 0.46994 0.46406
 H234 H 0.45344 0.44828 0.44196
 N235 N -0.02144 -0.08608 0.98337
 N236 N -0.04302 -0.07902 0.99682
 C237 C -0.04650 -0.09612 1.01740
 C238 C -0.02603 -0.11471 1.01663
 C239 C -0.01047 -0.10789 0.99490
 H240 H -0.06263 -0.09521 1.03185
 H241 H 0.00744 -0.11803 0.98801
 Cu242 Cu -0.06444 -0.04821 0.98608
 Cu243 Cu -0.00920 -0.06655 0.95194
 Cu244 Cu -0.04639 -0.01093 0.93296
 N245 N -0.08475 -0.01660 0.97553
 N246 N -0.07758 -0.00211 0.95472
 C247 C -0.09490 0.01843 0.95183
 C248 C -0.11378 0.01660 0.97188
 C249 C -0.10690 -0.00573 0.98659
 H250 H -0.09385 0.03354 0.93634
 H251 H -0.11726 -0.01340 1.00399
 N252 N -0.01420 -0.02305 0.91348
 N253 N -0.00004 -0.04425 0.92072
 C254 C 0.02056 -0.04739 0.90353
 C255 C 0.01916 -0.02724 0.88475
 C256 C -0.00298 -0.01215 0.89149
 H257 H 0.03547 -0.06313 0.90450
 H258 H -0.01033 0.00539 0.88110
 H259 H -0.02530 -0.03001 0.96308
 H260 H -0.04630 -0.05162 0.94088
 N261 N 1.02179 0.58609 0.98366
 N262 N 1.04341 0.57905 0.99706
 C263 C 1.04696 0.59618 1.01760
 C264 C 1.02650 0.61477 1.01685
 C265 C 1.01086 0.60792 0.99518
 H266 H 1.06314 0.59528 1.03200
 H267 H 0.99294 0.61807 0.98833
 Cu268 Cu 1.06478 0.54821 0.98632
 Cu269 Cu 1.00946 0.56654 0.95228
 Cu270 Cu 1.04656 0.51088 0.93331
 N271 N 1.08504 0.51657 0.97577
 N272 N 1.07779 0.50206 0.95502
 C273 C 1.09509 0.48151 0.95210
 C274 C 1.11404 0.48335 0.97208
 C275 C 1.10722 0.50571 0.98679
 H276 H 1.09399 0.46638 0.93664
 H277 H 1.11765 0.51340 1.00413
 N278 N 1.01435 0.52300 0.91389
 N279 N 1.00021 0.54421 0.92112
 C280 C 0.97957 0.54734 0.90395
 C281 C 0.98094 0.52717 0.88521
 C282 C 1.00309 0.51208 0.89194
 H283 H 0.96468 0.56309 0.90493
 H284 H 1.01040 0.49452 0.88156
 H285 H 1.02558 0.52999 0.96345
 H286 H 1.04653 0.55157 0.94116
 N287 N 0.52104 0.08580 0.48480
 N288 N 0.54208 0.07817 0.49878
 C289 C 0.54562 0.09529 0.51934
 C290 C 0.52574 0.11447 0.51801
 C291 C 0.51047 0.10799 0.49597
 H292 H 0.56140 0.09398 0.53413
 H293 H 0.49303 0.11862 0.48863
 Cu294 Cu 0.56280 0.04666 0.48873
 Cu295 Cu 0.50895 0.06649 0.45319
 Cu296 Cu 0.54614 0.01093 0.43412
 N297 N 0.58382 0.01580 0.47737
 N298 N 0.57718 0.00192 0.45600
 C299 C 0.59490 -0.01820 0.45265
 C300 C 0.61350 -0.01673 0.47299
 C301 C 0.60603 0.00497 0.48835
 H302 H 0.59431 -0.03280 0.43667
 H303 H 0.61605 0.01223 0.50611
 N304 N 0.51408 0.02319 0.41455
 N305 N 0.49990 0.04437 0.42182
 C306 C 0.47934 0.04756 0.40458
 C307 C 0.48079 0.02747 0.38575
 C308 C 0.50291 0.01236 0.39251
 H309 H 0.46440 0.06327 0.40559
 H310 H 0.51024 -0.00519 0.38212
 H311 H 0.52423 0.02950 0.46394
 H312 H 0.54628 0.05142 0.44308
 N313 N -0.02176 0.08650 0.51618
 N314 N -0.04338 0.07944 0.50278
 C315 C -0.04694 0.09658 0.48225
 C316 C -0.02650 0.11520 0.48300
 C317 C -0.01085 0.10835 0.50466
 H318 H -0.06312 0.09567 0.46784
 H319 H 0.00707 0.11850 0.51152
 Cu320 Cu -0.06472 0.04857 0.51350
 Cu321 Cu -0.00939 0.06690 0.54751
 Cu322 Cu -0.04644 0.01115 0.56644
 N323 N -0.08495 0.01689 0.52402
 N324 N -0.07768 0.00235 0.54475
 C325 C -0.09497 -0.01823 0.54765
 C326 C -0.11393 -0.01637 0.52768
 C327 C -0.10713 0.00602 0.51300
 H328 H -0.09385 -0.03338 0.56309
 H329 H -0.11757 0.01373 0.49567
 N330 N -0.01421 0.02327 0.58584
 N331 N -0.00009 0.04451 0.57864
 C332 C 0.02055 0.04762 0.59579
 C333 C 0.01922 0.02741 0.61450
 C334 C -0.00292 0.01231 0.60776
 H335 H 0.03543 0.06339 0.59483
 H336 H -0.01021 -0.00529 0.61811
 H337 H -0.02548 0.03036 0.53630
 H338 H -0.04642 0.05187 0.55864
 N339 N 0.47850 0.58585 0.01629
 N340 N 0.45722 0.57849 0.00252
 C341 C 0.45372 0.59564 -0.01802
 C342 C 0.47386 0.61457 -0.01689
 C343 C 0.48926 0.60790 0.00501
 H344 H 0.43778 0.59453 -0.03267
 H345 H 0.50690 0.61831 0.01218
 Cu346 Cu 0.43624 0.54725 0.01289
 Cu347 Cu 0.49065 0.56637 0.04781
 Cu348 Cu 0.45349 0.51060 0.06661
 N349 N 0.41556 0.51594 0.02361
 N350 N 0.42244 0.50169 0.04467
 C351 C 0.40495 0.48132 0.04769
 C352 C 0.38625 0.48301 0.02746
 C353 C 0.39341 0.50509 0.01250
 H354 H 0.40575 0.46642 0.06339
 H355 H 0.38324 0.51260 -0.00507
 N356 N 0.48556 0.52283 0.08624
 N357 N 0.49971 0.54407 0.07909
 C358 C 0.52024 0.54723 0.09637
 C359 C 0.51879 0.52706 0.11511
 C360 C 0.49671 0.51193 0.10826
 H361 H 0.53514 0.56299 0.09546
 H362 H 0.48938 0.49434 0.11859
 H363 H 0.47508 0.52957 0.03680
 H364 H 0.45349 0.55122 0.05836
 N365 N 0.52150 -0.08585 0.01647
 N366 N 0.54280 -0.07849 0.00273
 C367 C 0.54625 -0.09556 -0.01788
 C368 C 0.52605 -0.11443 -0.01682
 C369 C 0.51068 -0.10781 0.00510
 H370 H 0.56219 -0.09444 -0.03252
 H371 H 0.49300 -0.11820 0.01224
 Cu372 Cu 0.56387 -0.04736 0.01323
 Cu373 Cu 0.50943 -0.06651 0.04808
 Cu374 Cu 0.54673 -0.01094 0.06714
 N375 N 0.58464 -0.01616 0.02409
 N376 N 0.57780 -0.00199 0.04522
 C377 C 0.59533 0.01834 0.04832
 C378 C 0.61402 0.01670 0.02807
 C379 C 0.60680 -0.00529 0.01303
 H380 H 0.59456 0.03317 0.06407
 H381 H 0.61694 -0.01274 -0.00459
 N382 N 0.51465 -0.02320 0.08673
 N383 N 0.50044 -0.04436 0.07946
 C384 C 0.47989 -0.04756 0.09671
 C385 C 0.48138 -0.02749 0.11555
 C386 C 0.50351 -0.01238 0.10879
 H387 H 0.46495 -0.06327 0.09571
 H388 H 0.51087 0.00515 0.11919
 H389 H 0.52510 -0.02969 0.03724
 H390 H 0.54664 -0.05151 0.05869
 N391 N 1.02143 0.41421 0.51589
 N392 N 1.04298 0.42131 0.50240
 C393 C 1.04641 0.40425 0.48178
 C394 C 1.02595 0.38566 0.48256
 C395 C 1.01044 0.39242 0.50434
 H396 H 1.06252 0.40521 0.46730
 H397 H 0.99255 0.38225 0.51126
 Cu398 Cu 1.06443 0.45209 0.51317
 Cu399 Cu 1.00927 0.43365 0.54739
 Cu400 Cu 1.04653 0.48921 0.56642
 N401 N 1.08479 0.48366 0.52376
 N402 N 1.07768 0.49808 0.54462
 C403 C 1.09503 0.51859 0.54755
 C404 C 1.11387 0.51682 0.52746
 C405 C 1.10694 0.49455 0.51268
 H406 H 1.09404 0.53364 0.56309
 H407 H 1.11726 0.48693 0.49525
 N408 N 1.01438 0.47704 0.58594
 N409 N 1.00018 0.45587 0.57868
 C410 C 0.97961 0.45270 0.59592
 C411 C 0.98109 0.47280 0.61473
 C412 C 1.00322 0.48789 0.60797
 H413 H 0.96469 0.43697 0.59493
 H414 H 1.01060 0.50541 0.61839
 H415 H 1.02534 0.47022 0.53630
 H416 H 1.04638 0.44854 0.55839
 C417 C 0.41438 0.01221 0.21460
 H418 H 0.41537 0.03043 0.22630
 C419 C 0.43199 0.00844 0.19319
 H420 H 0.44655 0.02382 0.18829
 C421 C 0.39446 -0.03031 0.20686
 H422 H 0.38012 -0.04554 0.21248
 C423 C 0.41170 -0.03488 0.18531
 H424 H 0.41040 -0.05351 0.17423
 N425 N 0.39588 -0.00690 0.22081
 C426 C 0.33205 0.03586 0.26271
 H427 H 0.33092 0.02421 0.28092
 C428 C 0.31458 0.05741 0.25876
 H429 H 0.29997 0.06247 0.27400
 C430 C 0.35220 0.04335 0.22037
 H431 H 0.36658 0.03757 0.20528
 C432 C 0.33510 0.06503 0.21563
 H433 H 0.33655 0.07605 0.19701
 Zn434 Zn 0.37319 -0.00034 0.25048
 N435 N 0.35060 0.02946 0.24377
 C436 C 0.39407 0.02978 0.29418
 N437 N 0.39565 0.00634 0.28030
 C438 C 0.41418 -0.01268 0.28666
 C439 C 0.43167 -0.00878 0.30814
 C440 C 0.41119 0.03448 0.31581
 C441 C 0.33228 -0.03671 0.23796
 C442 C 0.31484 -0.05832 0.24177
 C443 C 0.33509 -0.06589 0.28504
 C444 C 0.35217 -0.04415 0.28042
 N445 N 0.35068 -0.03025 0.25703
 H446 H 0.37971 0.04494 0.28844
 H447 H 0.41531 -0.03092 0.27500
 H448 H 0.44627 -0.02408 0.31315
 H449 H 0.40977 0.05314 0.32682
 H450 H 0.33124 -0.02504 0.21974
 H451 H 0.30035 -0.06341 0.22643
 H452 H 0.33644 -0.07692 0.30366
 H453 H 0.36643 -0.03834 0.29562
 C454 C 0.31619 0.07216 0.23503
 C455 C 0.43057 -0.01530 0.17838
 C456 C 0.31633 -0.07307 0.26550
 C457 C 0.43009 0.01499 0.32288
 C458 C 0.08601 -0.01269 0.71354
 H459 H 0.08488 -0.03089 0.72526
 C460 C 0.06848 -0.00882 0.69208
 H461 H 0.05384 -0.02412 0.68716
 C462 C 0.10619 0.02972 0.70582
 H463 H 0.12059 0.04487 0.71147
 C464 C 0.08903 0.03438 0.68421
 H465 H 0.09046 0.05300 0.67314
 N466 N 0.10459 0.00633 0.71979
 C467 C 0.16804 -0.03665 0.76207
 H468 H 0.16917 -0.02494 0.78025
 C469 C 0.18544 -0.05828 0.75826
 H470 H 0.19998 -0.06335 0.77356
 C471 C 0.14799 -0.04419 0.71971
 H472 H 0.13368 -0.03841 0.70454
 C473 C 0.16502 -0.06596 0.71509
 H474 H 0.16358 -0.07704 0.69651
 Zn475 Zn 0.12712 -0.00029 0.74957
 N476 N 0.14958 -0.03023 0.74305
 C477 C 0.10596 -0.03015 0.79333
 N478 N 0.10452 -0.00677 0.77933
 C479 C 0.08606 0.01237 0.78556
 C480 C 0.06851 0.00864 0.80702
 C481 C 0.08877 -0.03468 0.81495
 C482 C 0.16828 0.03582 0.73711
 C483 C 0.18580 0.05737 0.74093
 C484 C 0.16539 0.06516 0.78408
 C485 C 0.14824 0.04348 0.77946
 N486 N 0.14977 0.02951 0.75612
 H487 H 0.12027 -0.04540 0.78770
 H488 H 0.08505 0.03056 0.77381
 H489 H 0.05397 0.02403 0.81193
 H490 H 0.09009 -0.05329 0.82605
 H491 H 0.16936 0.02410 0.71894
 H492 H 0.20038 0.06236 0.72564
 H493 H 0.16400 0.07625 0.80266
 H494 H 0.13389 0.03778 0.79461
 C495 C 0.18385 -0.07310 0.73458
 C496 C 0.07007 0.01490 0.67726
 C497 C 0.18427 0.07220 0.76460
 C498 C 0.06994 -0.01507 0.82188
 C499 C 0.58545 0.48718 0.21436
 H500 H 0.58438 0.46897 0.22608
 C501 C 0.56792 0.49098 0.19289
 H502 H 0.55334 0.47563 0.18795
 C503 C 0.60548 0.52965 0.20666
 H504 H 0.61983 0.54486 0.21232
 C505 C 0.58832 0.53426 0.18504
 H506 H 0.58970 0.55288 0.17396
 N507 N 0.60396 0.50626 0.22062
 C508 C 0.66761 0.46349 0.26282
 H509 H 0.66872 0.47520 0.28100
 C510 C 0.68509 0.44193 0.25898
 H511 H 0.69967 0.43691 0.27427
 C512 C 0.64755 0.45590 0.22047
 H513 H 0.63321 0.46164 0.20532
 C514 C 0.66467 0.43419 0.21583
 H515 H 0.66326 0.42313 0.19724
 Zn516 Zn 0.62656 0.49971 0.25037
 N517 N 0.64911 0.46985 0.24382
 C518 C 0.60555 0.46979 0.29416
 N519 N 0.60402 0.49317 0.28017
 C520 C 0.58551 0.51225 0.28641
 C521 C 0.56799 0.50846 0.30789
 C522 C 0.58840 0.46520 0.31579
 C523 C 0.66758 0.53594 0.23782
 C524 C 0.68500 0.55758 0.24155
 C525 C 0.66462 0.56540 0.28471
 C526 C 0.64757 0.54362 0.28018
 N527 N 0.64912 0.52960 0.25687
 H528 H 0.61990 0.45459 0.28851
 H529 H 0.58442 0.53044 0.27467
 H530 H 0.55340 0.52380 0.31281
 H531 H 0.58978 0.44659 0.32689
 H532 H 0.66868 0.52418 0.21968
 H533 H 0.69952 0.56260 0.22622
 H534 H 0.66319 0.57654 0.30325
 H535 H 0.63326 0.53789 0.29536
 C536 C 0.68354 0.42712 0.23529
 C537 C 0.56944 0.51471 0.17806
 C538 C 0.68343 0.57248 0.26518
 C539 C 0.56951 0.48474 0.32274
 C540 C 0.91433 0.51241 0.71399
 H541 H 0.91537 0.53060 0.72574
 C542 C 0.93188 0.50866 0.69254
 H543 H 0.94645 0.52403 0.68764
 C544 C 0.89432 0.46994 0.70620
 H545 H 0.87997 0.45472 0.71182
 C546 C 0.91151 0.46539 0.68460
 H547 H 0.91015 0.44679 0.67348
 N548 N 0.89581 0.49331 0.72020
 C549 C 0.83211 0.53600 0.76238
 H550 H 0.83098 0.52426 0.78053
 C551 C 0.81467 0.55760 0.75855
 H552 H 0.80009 0.56261 0.77383
 C553 C 0.85223 0.54366 0.72006
 H554 H 0.86659 0.53795 0.70493
 C555 C 0.83516 0.56540 0.71544
 H556 H 0.83661 0.57651 0.69688
 Zn557 Zn 0.87319 0.49981 0.74994
 N558 N 0.85063 0.52967 0.74339
 C559 C 0.89414 0.52972 0.79374
 N560 N 0.89570 0.50634 0.77976
 C561 C 0.91421 0.48727 0.78604
 C562 C 0.93171 0.49108 0.80753
 C563 C 0.91127 0.53433 0.81538
 C564 C 0.83219 0.46357 0.73733
 C565 C 0.81476 0.44194 0.74106
 C566 C 0.83510 0.43411 0.78424
 C567 C 0.85217 0.45588 0.77971
 N568 N 0.85064 0.46991 0.75640
 H569 H 0.87979 0.54492 0.78807
 H570 H 0.91531 0.46908 0.77431
 H571 H 0.94631 0.47575 0.81248
 H572 H 0.90988 0.55294 0.82646
 H573 H 0.83111 0.47534 0.71919
 H574 H 0.80025 0.43693 0.72571
 H575 H 0.83650 0.42297 0.80279
 H576 H 0.86646 0.46160 0.79491
 C577 C 0.81628 0.57246 0.73490
 C578 C 0.93038 0.48496 0.67767
 C579 C 0.81630 0.42704 0.76470
 C580 C 0.93017 0.51480 0.82236
 C581 C 0.21379 0.41698 0.01211
 H582 H 0.22553 0.41803 0.03029
 C583 C 0.19221 0.43447 0.00831
 H584 H 0.18720 0.44898 0.02363
 C585 C 0.20617 0.39707 -0.03029
 H586 H 0.21190 0.38279 -0.04547
 C587 C 0.18445 0.41419 -0.03489
 H588 H 0.17336 0.41284 -0.05349
 N589 N 0.22014 0.39855 -0.00694
 C590 C 0.26252 0.33490 0.03555
 H591 H 0.28076 0.33384 0.02384
 C592 C 0.25869 0.31737 0.05700
 H593 H 0.27405 0.30280 0.06193
 C594 C 0.22000 0.35491 0.04326
 H595 H 0.20478 0.36925 0.03760
 C596 C 0.21537 0.33774 0.06485
 H597 H 0.19672 0.33911 0.07593
 Zn598 Zn 0.25003 0.37600 -0.00041
 N599 N 0.24343 0.35340 0.02930
 C600 C 0.29392 0.39689 0.02958
 N601 N 0.27994 0.39850 0.00623
 C602 C 0.28632 0.41701 -0.01274
 C603 C 0.30793 0.43444 -0.00888
 C604 C 0.31567 0.41396 0.03424
 C605 C 0.23755 0.33507 -0.03657
 C606 C 0.24141 0.31762 -0.05806
 C607 C 0.28475 0.33802 -0.06578
 C608 C 0.28010 0.35510 -0.04414
 N609 N 0.25664 0.35354 -0.03022
 H610 H 0.28816 0.38255 0.04470
 H611 H 0.27459 0.41815 -0.03092
 H612 H 0.31297 0.44901 -0.02415
 H613 H 0.32676 0.41251 0.05282
 H614 H 0.21930 0.33397 -0.02488
 H615 H 0.22605 0.30306 -0.06306
 H616 H 0.30343 0.33942 -0.07681
 H617 H 0.29531 0.36942 -0.03841
 C618 C 0.23493 0.31887 0.07182
 C619 C 0.17738 0.43299 -0.01538
 C620 C 0.26520 0.31917 -0.07283
 C621 C 0.32277 0.43283 0.01480
 C622 C 0.71390 0.08272 -0.01219
 H623 H 0.72557 0.08163 -0.03041
 C624 C 0.69230 0.06529 -0.00830
 H625 H 0.68721 0.05075 -0.02358
 C626 C 0.70644 0.10274 0.03019
 H627 H 0.71224 0.11706 0.04532
 C628 C 0.68470 0.08567 0.03489
 H629 H 0.67367 0.08708 0.05350
 N630 N 0.72034 0.10119 0.00679
 C631 C 0.76250 0.16475 -0.03606
 H632 H 0.78079 0.16586 -0.02444
 C633 C 0.75857 0.18221 -0.05755
 H634 H 0.77390 0.19678 -0.06259
 C635 C 0.71995 0.14469 -0.04352
 H636 H 0.70476 0.13036 -0.03775
 C637 C 0.71521 0.16179 -0.06515
 H638 H 0.69651 0.16037 -0.07613
 Zn639 Zn 0.75020 0.12374 0.00008
 N640 N 0.74344 0.14626 -0.02967
 C641 C 0.79396 0.10280 -0.03002
 N642 N 0.78010 0.10125 -0.00661
 C643 C 0.78657 0.08279 0.01239
 C644 C 0.80817 0.06536 0.00847
 C645 C 0.81570 0.08573 -0.03474
 C646 C 0.73781 0.16476 0.03616
 C647 C 0.74169 0.18224 0.05762
 C648 C 0.78507 0.16191 0.06530
 C649 C 0.78038 0.14479 0.04368
 N650 N 0.75690 0.14630 0.02981
 H651 H 0.78813 0.11709 -0.04516
 H652 H 0.77493 0.08170 0.03062
 H653 H 0.81328 0.05083 0.02375
 H654 H 0.82670 0.08713 -0.05338
 H655 H 0.71953 0.16582 0.02451
 H656 H 0.72633 0.19678 0.06263
 H657 H 0.80376 0.16054 0.07630
 H658 H 0.79559 0.13047 0.03795
 C659 C 0.73474 0.18065 -0.07225
 C660 C 0.67753 0.06685 0.01543
 C661 C 0.76550 0.18073 0.07236
 C662 C 0.82290 0.06691 -0.01529
 C663 C 0.21377 0.58307 0.48747
 H664 H 0.22557 0.58197 0.46934
 C665 C 0.19216 0.56561 0.49124
 H666 H 0.18718 0.55106 0.47594
 C667 C 0.20602 0.60310 0.52980
 H668 H 0.21173 0.61741 0.54496
 C669 C 0.18427 0.58601 0.53436
 H670 H 0.17312 0.58742 0.55292
 N671 N 0.22008 0.60154 0.50650
 C672 C 0.26279 0.66504 0.46407
 H673 H 0.28096 0.66610 0.47588
 C674 C 0.25909 0.68256 0.44258
 H675 H 0.27449 0.69712 0.43772
 C676 C 0.22028 0.64506 0.45616
 H677 H 0.20502 0.63074 0.46175
 C678 C 0.21578 0.66221 0.43453
 H679 H 0.19718 0.66085 0.42336
 Zn680 Zn 0.25004 0.62404 0.50006
 N681 N 0.24364 0.64657 0.47024
 C682 C 0.29404 0.60300 0.47037
 N683 N 0.27997 0.60149 0.49367
 C684 C 0.28624 0.58304 0.51273
 C685 C 0.30782 0.56554 0.50900
 C686 C 0.31576 0.58587 0.46584
 C687 C 0.23736 0.66511 0.53597
 C688 C 0.24106 0.68264 0.55743
 C689 C 0.28433 0.66224 0.56555
 C690 C 0.27982 0.64508 0.54394
 N691 N 0.25648 0.64660 0.52984
 H692 H 0.28837 0.61730 0.45518
 H693 H 0.27444 0.58198 0.53086
 H694 H 0.31277 0.55100 0.52432
 H695 H 0.32692 0.58723 0.44729
 H696 H 0.21919 0.66618 0.52415
 H697 H 0.22568 0.69722 0.56226
 H698 H 0.30291 0.66086 0.57674
 H699 H 0.29506 0.63072 0.53838
 C700 C 0.23540 0.68106 0.42765
 C701 C 0.17724 0.56717 0.51488
 C702 C 0.26474 0.68112 0.57239
 C703 C 0.32274 0.56704 0.48536
 C704 C 0.71378 0.91740 0.51248
 H705 H 0.72556 0.91847 0.53063
 C706 C 0.69214 0.93482 0.50876
 H707 H 0.68714 0.94932 0.52410
 C708 C 0.70604 0.89744 0.47012
 H709 H 0.71175 0.88315 0.45493
 C710 C 0.68426 0.91450 0.46559
 H711 H 0.67310 0.91311 0.44705
 N712 N 0.72010 0.89897 0.49343
 C713 C 0.76249 0.83534 0.53592
 H714 H 0.78073 0.83428 0.52421
 C715 C 0.75866 0.81782 0.55738
 H716 H 0.77401 0.80325 0.56231
 C717 C 0.71997 0.85537 0.54361
 H718 H 0.70476 0.86971 0.53796
 C719 C 0.71533 0.83821 0.56521
 H720 H 0.69668 0.83959 0.57628
 Zn721 Zn 0.74999 0.87642 0.49992
 N722 N 0.74340 0.85385 0.52966
 C723 C 0.79391 0.89733 0.52983
 N724 N 0.77992 0.89891 0.50649
 C725 C 0.78630 0.91739 0.48749
 C726 C 0.80790 0.93484 0.49133
 C727 C 0.81565 0.91441 0.53447
 C728 C 0.73740 0.83545 0.46385
 C729 C 0.74119 0.81796 0.44237
 C730 C 0.78454 0.83831 0.43453
 C731 C 0.77995 0.85543 0.45616
 N732 N 0.75652 0.85391 0.47012
 H733 H 0.78816 0.88301 0.54497
 H734 H 0.77456 0.91851 0.46931
 H735 H 0.81293 0.94940 0.47605
 H736 H 0.82674 0.91299 0.55306
 H737 H 0.71917 0.83438 0.47557
 H738 H 0.72581 0.80341 0.43743
 H739 H 0.80319 0.83967 0.42345
 H740 H 0.79519 0.86974 0.46183
 C741 C 0.73489 0.81934 0.57219
 C742 C 0.67721 0.93329 0.48513
 C743 C 0.76495 0.81947 0.42755
 C744 C 0.82274 0.93327 0.51501
 C745 C 0.01240 0.21449 0.41569
 H746 H 0.03052 0.22642 0.41666
 C747 C 0.00883 0.19302 0.43327
 H748 H 0.02426 0.18830 0.44780
 C749 C -0.03009 0.20625 0.39586
 H750 H -0.04539 0.21171 0.38157
 C751 C -0.03447 0.18462 0.41309
 H752 H -0.05302 0.17334 0.41182
 N753 N -0.00680 0.22049 0.39727
 C754 C 0.03550 0.26310 0.33376
 H755 H 0.02360 0.28122 0.33268
 C756 C 0.05702 0.25940 0.31624
 H757 H 0.06182 0.27474 0.30166
 C758 C 0.04357 0.22071 0.35376
 H759 H 0.03802 0.20549 0.36809
 C760 C 0.06525 0.21622 0.33661
 H761 H 0.07649 0.19766 0.33796
 Zn762 Zn -0.00056 0.25034 0.37469
 N763 N 0.02938 0.24400 0.35223
 C764 C 0.02906 0.29449 0.39556
 N765 N 0.00573 0.28032 0.39706
 C766 C -0.01344 0.28648 0.41546
 C767 C -0.00977 0.30800 0.43294
 C768 C 0.03353 0.31617 0.41268
 C769 C -0.03664 0.23732 0.33386
 C770 C -0.05815 0.24090 0.31631
 C771 C -0.06641 0.28420 0.33639
 C772 C -0.04473 0.27981 0.35359
 N773 N -0.03053 0.25652 0.35221
 H774 H 0.04434 0.28891 0.38130
 H775 H -0.03159 0.27460 0.41651
 H776 H -0.02517 0.31283 0.44747
 H777 H 0.05213 0.32738 0.41136
 H778 H -0.02472 0.21920 0.33290
 H779 H -0.06294 0.22547 0.30182
 H780 H -0.07765 0.30276 0.33762
 H781 H -0.03919 0.29512 0.36782
 C782 C 0.07205 0.23576 0.31773
 C783 C -0.01481 0.17793 0.43190
 C784 C -0.07319 0.26454 0.31764
 C785 C 0.01392 0.32300 0.43149
 C786 C -0.01254 0.71409 0.08394
 H787 H -0.03067 0.72599 0.08293
 C788 C -0.00893 0.69258 0.06643
 H789 H -0.02435 0.68778 0.05192
 C790 C 0.02997 0.70600 0.10379
 H791 H 0.04528 0.71154 0.11805
 C792 C 0.03439 0.68433 0.08664
 H793 H 0.05296 0.67309 0.08793
 N794 N 0.00666 0.72019 0.10233
 C795 C -0.03566 0.76304 0.16565
 H796 H -0.02374 0.78116 0.16665
 C797 C -0.05724 0.75945 0.18313
 H798 H -0.06206 0.77487 0.19761
 C799 C -0.04376 0.72058 0.14582
 H800 H -0.03821 0.70530 0.13158
 C801 C -0.06549 0.71619 0.16295
 H802 H -0.07677 0.69765 0.16164
 Zn803 Zn 0.00040 0.75013 0.12477
 N804 N -0.02954 0.74387 0.14727
 C805 C -0.02924 0.79418 0.10372
 N806 N -0.00591 0.78001 0.10226
 C807 C 0.01325 0.78610 0.08383
 C808 C 0.00959 0.80759 0.06629
 C809 C -0.03370 0.81582 0.08654
 C810 C 0.03654 0.73733 0.16563
 C811 C 0.05809 0.74103 0.18313
 C812 C 0.06624 0.78426 0.16283
 C813 C 0.04454 0.77977 0.14570
 N814 N 0.03038 0.75645 0.14720
 H815 H -0.04451 0.78864 0.11801
 H816 H 0.03139 0.77422 0.08281
 H817 H 0.02499 0.81238 0.05174
 H818 H -0.05228 0.82704 0.08784
 H819 H 0.02466 0.71920 0.16669
 H820 H 0.06292 0.72567 0.19767
 H821 H 0.07746 0.80284 0.16150
 H822 H 0.03896 0.79501 0.13141
 C823 C -0.07231 0.73584 0.18171
 C824 C 0.01473 0.67754 0.06785
 C825 C 0.07309 0.76469 0.18166
 C826 C -0.01408 0.82260 0.06771
 C827 C 0.48715 0.21413 0.58486
 H828 H 0.46904 0.22608 0.58386
 C829 C 0.49070 0.19261 0.56735
 H830 H 0.47524 0.18786 0.55285
 C831 C 0.52964 0.20591 0.60470
 H832 H 0.54496 0.21139 0.61897
 C833 C 0.53399 0.18423 0.58755
 H834 H 0.55252 0.17292 0.58885
 N835 N 0.50637 0.22017 0.60327
 C836 C 0.46411 0.26284 0.66674
 H837 H 0.47602 0.28096 0.66781
 C838 C 0.44257 0.25916 0.68425
 H839 H 0.43776 0.27451 0.69881
 C840 C 0.45601 0.22045 0.64678
 H841 H 0.46156 0.20522 0.63247
 C842 C 0.43432 0.21597 0.66392
 H843 H 0.42307 0.19742 0.66257
 Zn844 Zn 0.50016 0.25005 0.62580
 N845 N 0.47022 0.24374 0.64829
 C846 C 0.47057 0.29420 0.60489
 N847 N 0.49388 0.28001 0.60340
 C848 C 0.51304 0.28613 0.58497
 C849 C 0.50939 0.30765 0.56747
 C850 C 0.46611 0.31587 0.58775
 C851 C 0.53626 0.23704 0.66662
 C852 C 0.55786 0.24058 0.68409
 C853 C 0.56618 0.28384 0.66390
 C854 C 0.54442 0.27949 0.64679
 N855 N 0.53016 0.25624 0.64825
 H856 H 0.45529 0.28865 0.61918
 H857 H 0.53118 0.27424 0.58392
 H858 H 0.52479 0.31245 0.55293
 H859 H 0.44753 0.32710 0.58907
 H860 H 0.52430 0.21895 0.66764
 H861 H 0.56266 0.22515 0.69857
 H862 H 0.57749 0.30235 0.66258
 H863 H 0.53888 0.29480 0.63255
 C864 C 0.42752 0.23553 0.68276
 C865 C 0.51430 0.17750 0.56877
 C866 C 0.57298 0.26417 0.68265
 C867 C 0.48573 0.32267 0.56892
 C868 C 0.51265 0.71417 0.91621
 H869 H 0.53078 0.72609 0.91720
 C870 C 0.50909 0.69263 0.93370
 H871 H 0.52454 0.68784 0.94818
 C872 C 0.47013 0.70604 0.89641
 H873 H 0.45480 0.71156 0.88217
 C874 C 0.46576 0.68434 0.91355
 H875 H 0.44720 0.67307 0.91227
 N876 N 0.49343 0.72026 0.89784
 C877 C 0.53561 0.76309 0.83439
 H878 H 0.52369 0.78120 0.83338
 C879 C 0.55712 0.75948 0.81683
 H880 H 0.56189 0.77487 0.80230
 C881 C 0.54377 0.72066 0.85426
 H882 H 0.53826 0.70539 0.86855
 C883 C 0.56543 0.71624 0.83707
 H884 H 0.57670 0.69771 0.83836
 Zn885 Zn 0.49964 0.75019 0.87536
 N886 N 0.52955 0.74394 0.85282
 C887 C 0.52929 0.79430 0.89629
 N888 N 0.50598 0.78009 0.89781
 C889 C 0.48684 0.78619 0.91627
 C890 C 0.49051 0.80770 0.93376
 C891 C 0.53376 0.81597 0.91342
 C892 C 0.46347 0.73734 0.83455
 C893 C 0.44191 0.74100 0.81706
 C894 C 0.43373 0.78423 0.83734
 C895 C 0.45544 0.77976 0.85446
 N896 N 0.46963 0.75647 0.85296
 H897 H 0.54454 0.78877 0.88197
 H898 H 0.46871 0.77428 0.91734
 H899 H 0.47513 0.81249 0.94832
 H900 H 0.55232 0.82722 0.91206
 H901 H 0.47537 0.71922 0.83349
 H902 H 0.43708 0.72563 0.80252
 H903 H 0.42250 0.80279 0.83867
 H904 H 0.46103 0.79501 0.86874
 C905 C 0.57219 0.73586 0.81824
 C906 C 0.48545 0.67756 0.93231
 C907 C 0.42689 0.76464 0.81852
 C908 C 0.51416 0.82275 0.93227
 C909 C 0.11275 0.22789 0.28470
 C910 C 0.09422 0.23148 0.29978
 C911 C 0.61296 0.72819 0.78524
 C912 C 0.59438 0.73168 0.80029
 C913 C 0.38615 0.77245 0.78550
 C914 C 0.40470 0.76890 0.80059
 C915 C -0.11388 0.27220 0.28452
 C916 C -0.09535 0.26871 0.29964
 C917 C -0.11326 0.72828 0.21453
 C918 C -0.09460 0.73171 0.19956
 C919 C 0.38672 0.22770 0.71571
 C920 C 0.40531 0.23127 0.70067
 C921 C 0.61397 0.27163 0.71544
 C922 C 0.59529 0.26825 0.70048
 C923 C 0.11384 0.77253 0.21467
 C924 C 0.09528 0.76897 0.19959
 C925 C 0.28357 0.11316 0.22669
 C926 C 0.29842 0.09446 0.23053
 C927 C 0.78376 0.61360 0.72685
 C928 C 0.79856 0.59483 0.73054
 C929 C 0.78385 0.38581 0.77257
 C930 C 0.79861 0.40463 0.76895
 C931 C 0.28372 -0.11415 0.27358
 C932 C 0.29857 -0.09542 0.26987
 C933 C 0.21640 -0.11420 0.72648
 C934 C 0.20157 -0.09546 0.73020
 C935 C 0.71623 0.38614 0.22713
 C936 C 0.70134 0.40483 0.23089
 C937 C 0.71583 0.61376 0.27302
 C938 C 0.70109 0.59492 0.26942
 C939 C 0.21695 0.11321 0.77271
 C940 C 0.20208 0.09450 0.76897
 C941 C 0.22689 0.28605 0.11257
 C942 C 0.23056 0.30101 0.09399
 C943 C 0.72683 0.78653 0.61295
 C944 C 0.73050 0.80148 0.59436
 C945 C 0.77293 0.78668 0.38676
 C946 C 0.76930 0.80163 0.40535
 C947 C 0.27332 0.28640 -0.11360
 C948 C 0.26961 0.30135 -0.09502
 C949 C 0.72658 0.21333 -0.11310
 C950 C 0.73028 0.19843 -0.09448
 C951 C 0.22758 0.71391 0.38687
 C952 C 0.23115 0.69894 0.40546
 C953 C 0.27257 0.71396 0.61316
 C954 C 0.26899 0.69900 0.59457
 C955 C 0.77359 0.21349 0.11316
 C956 C 0.76992 0.19855 0.09456
 C957 C 0.47795 0.36333 0.53587
 C958 C 0.48148 0.34482 0.55096
 C959 C -0.02185 0.86327 0.03466
 C960 C -0.01832 0.84475 0.04975
 C961 C 0.02239 0.63682 0.03485
 C962 C 0.01891 0.65537 0.04992
 C963 C 0.52176 0.13664 0.53589
 C964 C 0.51838 0.15526 0.55089
 C965 C -0.02240 0.13725 0.46498
 C966 C -0.01895 0.15578 0.44989
 C967 C 0.47792 0.63672 0.96520
 C968 C 0.48134 0.65532 0.95019
 C969 C 0.52191 0.86350 0.96521
 C970 C 0.51840 0.84494 0.95017
 C971 C 0.02174 0.36366 0.46452
 C972 C 0.01819 0.34515 0.44943
 C973 C 0.36374 0.53430 0.47736
 C974 C 0.34504 0.54920 0.48105
 C975 C 0.86393 0.03429 -0.02356
 C976 C 0.84522 0.04915 -0.01977
 C977 C 0.63639 0.03431 0.02359
 C978 C 0.65516 0.04912 0.01986
 C979 C 0.13619 0.53450 0.52294
 C980 C 0.15491 0.54937 0.51923
 C981 C 0.13635 0.46567 -0.02343
 C982 C 0.15506 0.45079 -0.01973
 C983 C 0.63596 0.96575 0.47730
 C984 C 0.65479 0.95098 0.48089
 C985 C 0.86378 0.96593 0.52316
 C986 C 0.84507 0.95105 0.51942
 C987 C 0.36389 0.46539 0.02295
 C988 C 0.34514 0.45057 0.01921
 C989 C 0.53667 0.47679 0.36353
 C990 C 0.55164 0.48040 0.34494
 C991 C 0.03703 -0.02294 0.86263
 C992 C 0.05204 -0.01935 0.84406
 C993 C 0.03714 0.02303 0.63657
 C994 C 0.05216 0.01933 0.65511
 C995 C 0.53662 0.52271 0.13726
 C996 C 0.55158 0.51906 0.15587
 C997 C 0.46352 -0.02320 0.13768
 C998 C 0.44850 -0.01960 0.15624
 C999 C 0.96325 0.47708 0.63689
 C1000 C 0.94827 0.48066 0.65548
 C1001 C 0.96304 0.52283 0.86311
 C1002 C 0.94805 0.51917 0.84454
 C1003 C 0.46292 0.02313 0.36364
 C1004 C 0.44794 0.01944 0.34506
   
