data_POSCAR
  _audit_creation_date              2014-09-24
  _audit_creation_method            'ToBaCCo'
  _symmetry_space_group_name_H-M    'P1'
  _symmetry_Int_Tables_number       1
  _symmetry_cell_setting            triclinic
  loop_
  _symmetry_equiv_pos_as_xyz
 x,y,z
_cell_length_a 40.6700
_cell_length_b 39.0192
_cell_length_c 7.2520
_cell_angle_alpha 89.988300
_cell_angle_beta 89.993100
_cell_angle_gamma 89.969800
loop_
  _atom_site_label
  _atom_site_type_symbol
  _atom_site_fract_x
  _atom_site_fract_y
  _atom_site_fract_z
C1 C 0.14632 0.26689 0.26290
 C2 C 0.14615 0.23190 0.24761
 C3 C 0.17875 0.22137 0.25240
 N4 N 0.19868 0.24886 0.27045
 C5 C 0.17900 0.27678 0.27572
 C6 C 0.18928 0.18681 0.24514
 C7 C 0.22260 0.17610 0.24853
 C8 C 0.23263 0.14249 0.27679
 C9 C 0.26634 0.14237 0.27063
 C10 C 0.27628 0.17589 0.23815
 N11 N 0.24936 0.19620 0.22186
 C12 C 0.30961 0.18642 0.22546
 C13 C 0.32024 0.22096 0.22078
 C14 C 0.35287 0.23126 0.21097
 C15 C 0.35298 0.26626 0.22564
 C16 C 0.32042 0.27638 0.24337
 N17 N 0.30055 0.24865 0.23949
 C18 C 0.30997 0.31076 0.26287
 C19 C 0.27677 0.32163 0.27374
 C20 C 0.26688 0.35564 0.26685
 C21 C 0.23315 0.35578 0.27375
 C22 C 0.22311 0.32184 0.28500
 N23 N 0.24996 0.30126 0.28924
 C24 C 0.18979 0.31121 0.28421
 H25 H 0.12477 0.28318 0.26261
 H26 H 0.12445 0.21604 0.23436
 H27 H 0.25007 0.27508 0.31146
 H28 H 0.21725 0.12037 0.30257
 H29 H 0.28180 0.12008 0.29041
 H30 H 0.37445 0.21519 0.19777
 H31 H 0.37463 0.28238 0.22445
 H32 H 0.21776 0.37839 0.26809
 H33 H 0.24910 0.22162 0.18022
 H34 H 0.28230 0.37812 0.25409
 C35 C 0.85338 0.23270 0.27558
 C36 C 0.85319 0.26779 0.26722
 C37 C 0.82048 0.27778 0.26086
 N38 N 0.80081 0.24991 0.26583
 C39 C 0.82077 0.22227 0.27368
 C40 C 0.80961 0.31217 0.25155
 C41 C 0.77626 0.32264 0.24937
 C42 C 0.76595 0.35635 0.26837
 C43 C 0.73222 0.35609 0.26129
 C44 C 0.72262 0.32224 0.23762
 N45 N 0.74969 0.30211 0.22735
 C46 C 0.68943 0.31126 0.22853
 C47 C 0.67897 0.27669 0.22563
 C48 C 0.64634 0.26635 0.22662
 C49 C 0.64646 0.23127 0.23516
 C50 C 0.67919 0.22113 0.23865
 N51 N 0.69890 0.24898 0.23177
 C52 C 0.69006 0.18666 0.24684
 C53 C 0.72348 0.17623 0.24737
 C54 C 0.73393 0.14257 0.22586
 C55 C 0.76765 0.14290 0.23275
 C56 C 0.77716 0.17671 0.25891
 N57 N 0.75004 0.19675 0.27061
 C58 C 0.81035 0.18769 0.26931
 H59 H 0.87512 0.21671 0.27950
 H60 H 0.87475 0.28405 0.26513
 H61 H 0.74955 0.22243 0.30604
 H62 H 0.78112 0.37885 0.28761
 H63 H 0.71654 0.37841 0.27327
 H64 H 0.62462 0.28239 0.22424
 H65 H 0.62485 0.21510 0.23910
 H66 H 0.78338 0.12067 0.21847
 H67 H 0.75013 0.27636 0.19383
 H68 H 0.71882 0.12008 0.20465
 C69 C 0.64696 0.76784 0.76024
 C70 C 0.64716 0.73274 0.76660
 C71 C 0.67989 0.72269 0.76797
 N72 N 0.69956 0.75058 0.76413
 C73 C 0.67957 0.77822 0.75853
 C74 C 0.69072 0.68825 0.76347
 C75 C 0.72405 0.67773 0.75402
 C76 C 0.73407 0.64408 0.72694
 C77 C 0.76780 0.64429 0.72003
 C78 C 0.77769 0.67805 0.74254
 N79 N 0.75087 0.69817 0.76664
 C80 C 0.81090 0.68892 0.74169
 C81 C 0.82139 0.72344 0.73540
 C82 C 0.85401 0.73374 0.73036
 C83 C 0.85387 0.76883 0.72455
 C84 C 0.82113 0.77901 0.72702
 N85 N 0.80144 0.75115 0.73244
 C86 C 0.81034 0.81353 0.73459
 C87 C 0.77693 0.82400 0.74546
 C88 C 0.76680 0.85752 0.77664
 C89 C 0.73307 0.85725 0.78287
 C90 C 0.72326 0.82360 0.75577
 N91 N 0.75011 0.80360 0.72969
 C92 C 0.69004 0.81274 0.75431
 H93 H 0.62522 0.78385 0.75698
 H94 H 0.62560 0.71649 0.76740
 H95 H 0.74997 0.77814 0.68952
 H96 H 0.71869 0.62163 0.71219
 H97 H 0.78327 0.62206 0.69843
 H98 H 0.87572 0.71768 0.73185
 H99 H 0.87547 0.78502 0.72213
 H100 H 0.71757 0.87933 0.80786
 H101 H 0.75104 0.72379 0.80331
 H102 H 0.78214 0.87992 0.79504
 C103 C 0.35248 0.73145 0.77453
 C104 C 0.35285 0.76654 0.76680
 C105 C 0.32030 0.77709 0.76059
 N106 N 0.30018 0.74956 0.76495
 C107 C 0.31971 0.72158 0.77235
 C108 C 0.31000 0.81166 0.75238
 C109 C 0.27683 0.82275 0.75156
 C110 C 0.26719 0.85660 0.77350
 C111 C 0.23347 0.85707 0.76702
 C112 C 0.22316 0.82347 0.74070
 N113 N 0.24988 0.80282 0.72864
 C114 C 0.18971 0.81315 0.73154
 C115 C 0.17871 0.77868 0.72786
 C116 C 0.14591 0.76877 0.72899
 C117 C 0.14555 0.73370 0.73656
 C118 C 0.17814 0.72309 0.73916
 N119 N 0.19824 0.75064 0.73288
 C120 C 0.18848 0.68844 0.74512
 C121 C 0.22173 0.67745 0.74355
 C122 C 0.23160 0.64371 0.71766
 C123 C 0.26532 0.64338 0.72450
 C124 C 0.27539 0.67689 0.75498
 N125 N 0.24860 0.69740 0.76921
 C126 C 0.30875 0.68721 0.76666
 H127 H 0.37397 0.71508 0.77812
 H128 H 0.37466 0.78242 0.76530
 H129 H 0.24850 0.72291 0.80830
 H130 H 0.28279 0.87870 0.79528
 H131 H 0.21825 0.87966 0.78233
 H132 H 0.12440 0.78512 0.72713
 H133 H 0.12374 0.71784 0.73985
 H134 H 0.28066 0.62095 0.70678
 H135 H 0.24986 0.77710 0.69397
 H136 H 0.21610 0.62162 0.69342
 O137 O 1.03235 -0.04051 0.07357
 O138 O 0.96850 0.02176 0.20227
 O139 O 0.96832 -0.04049 0.07581
 O140 O 1.03265 0.02191 0.19751
 O141 O 1.03198 0.03988 -0.09071
 O142 O 0.96775 -0.02251 -0.21242
 O143 O 0.96809 0.03981 -0.08583
 O144 O 1.03214 -0.02258 -0.21467
 Cu145 Cu 1.00051 -0.01147 0.16513
 Cu146 Cu 0.99993 0.01072 -0.17904
 C147 C 1.04336 -0.04226 -0.08986
 C148 C 0.95732 0.04160 0.07826
 C149 C 0.95689 -0.04221 -0.08681
 C150 C 1.04337 0.04171 0.07193
 O151 O 0.53243 0.45985 0.58582
 O152 O 0.46822 0.52209 0.71425
 O153 O 0.46859 0.45954 0.59172
 O154 O 0.53261 0.52222 0.71226
 O155 O 0.53189 0.54005 0.42380
 O156 O 0.46777 0.47737 0.30323
 O157 O 0.46789 0.53987 0.42573
 O158 O 0.53187 0.47775 0.29747
 Cu159 Cu 0.50055 0.48887 0.67925
 Cu160 Cu 0.49981 0.51090 0.33477
 C161 C 0.54311 0.45797 0.42156
 C162 C 0.45691 0.54167 0.58916
 C163 C 0.45718 0.45757 0.42919
 C164 C 0.54334 0.54193 0.58633
 O165 O -0.03146 0.54054 0.08698
 O166 O 0.03244 0.47818 0.21588
 O167 O 0.03239 0.54070 0.09033
 O168 O -0.03192 0.47815 0.21145
 O169 O -0.03103 0.46012 -0.07661
 O170 O 0.03301 0.52264 -0.19770
 O171 O 0.03292 0.46018 -0.07220
 O172 O -0.03110 0.52246 -0.20102
 Cu173 Cu 0.00034 0.51145 0.17938
 Cu174 Cu 0.00105 0.48922 -0.16472
 C175 C -0.04228 0.54230 -0.07690
 C176 C 0.04368 0.45838 0.09179
 C177 C 0.04364 0.54258 -0.07271
 C178 C -0.04262 0.45840 0.08559
 O179 O 0.53203 1.02303 0.28775
 O180 O 0.46788 0.96036 0.40940
 O181 O 0.46761 1.02284 0.28446
 O182 O 0.53171 0.96061 0.41190
 O183 O 0.53147 0.97860 0.70003
 O184 O 0.46727 1.04074 0.57270
 O185 O 0.46734 0.97836 0.69760
 O186 O 0.53126 1.04100 0.57592
 Cu187 Cu 0.49984 0.98966 0.32011
 Cu188 Cu 0.49927 1.01181 0.66438
 C189 C 0.54278 1.04275 0.41357
 C190 C 0.45666 0.95847 0.57249
 C191 C 0.45633 1.04249 0.40911
 C192 C 0.54261 0.95881 0.57560
 C193 C 1.11909 0.11553 0.18337
 C194 C 1.10628 0.11202 0.00564
 C195 C 1.08166 0.08806 -0.02969
 C196 C 1.16553 0.16195 0.23329
 C197 C 1.08237 0.07078 0.29141
 C198 C 1.10710 0.09491 0.32653
 C199 C 1.14444 0.14049 0.21566
 C200 C 1.06940 0.06712 0.11256
 H201 H 1.11535 0.12786 -0.10610
 H202 H 1.07229 0.08592 -0.16894
 H203 H 1.07343 0.05505 0.40376
 H204 H 1.11684 0.09748 0.46483
 C205 C 0.61929 0.61551 0.69732
 C206 C 0.60653 0.61199 0.51944
 C207 C 0.58183 0.58809 0.48408
 C208 C 0.66568 0.66192 0.74948
 C209 C 0.58244 0.57090 0.80535
 C210 C 0.60724 0.59495 0.84047
 C211 C 0.64462 0.64048 0.73030
 C212 C 0.56946 0.56726 0.62652
 H213 H 0.61569 0.62777 0.40769
 H214 H 0.57249 0.58593 0.34476
 H215 H 0.57345 0.55523 0.91778
 H216 H 0.61696 0.59750 0.97883
 C217 C -0.11900 0.38514 0.19347
 C218 C -0.10773 0.40629 0.33611
 C219 C -0.08276 0.43024 0.30215
 C220 C -0.16546 0.33866 0.24131
 C221 C -0.08050 0.41176 -0.01679
 C222 C -0.10533 0.38797 0.01741
 C223 C -0.14442 0.36019 0.22467
 C224 C -0.06887 0.43317 0.12510
 H225 H -0.11818 0.40429 0.47310
 H226 H -0.07438 0.44641 0.41396
 H227 H -0.07046 0.41336 -0.15483
 H228 H -0.11387 0.37172 -0.09387
 C229 C 0.38184 0.88397 0.68984
 C230 C 0.39494 0.88682 0.51238
 C231 C 0.41926 0.91102 0.47488
 C232 C 0.33533 0.83771 0.74142
 C233 C 0.41773 0.92973 0.79355
 C234 C 0.39329 0.90540 0.83080
 C235 C 0.35652 0.85905 0.72350
 C236 C 0.43094 0.93281 0.61483
 H237 H 0.38626 0.87034 0.40246
 H238 H 0.42885 0.91266 0.33585
 H239 H 0.42623 0.94613 0.90414
 H240 H 0.38330 0.90338 0.96890
 C241 C -0.11748 0.61626 -0.19754
 C242 C -0.10520 0.61285 -0.01861
 C243 C -0.08077 0.58882 0.01973
 C244 C -0.16390 0.66267 -0.24897
 C245 C -0.08057 0.57129 -0.30101
 C246 C -0.10515 0.59549 -0.33917
 C247 C -0.14279 0.64122 -0.23171
 C248 C -0.06815 0.56772 -0.12079
 H249 H -0.11458 0.62880 0.09185
 H250 H -0.07183 0.58678 0.15996
 H251 H -0.07134 0.55542 -0.41205
 H252 H -0.11449 0.59796 -0.47844
 C253 C 0.38010 1.11547 0.29084
 C254 C 0.39281 1.09509 0.14864
 C255 C 0.41770 1.07123 0.18611
 C256 C 0.33345 1.16159 0.23739
 C257 C 0.41710 1.08827 0.50760
 C258 C 0.39232 1.11197 0.46993
 C259 C 0.35463 1.14023 0.25624
 C260 C 0.43013 1.06762 0.36625
 H261 H 0.38353 1.09764 0.00930
 H262 H 0.42721 1.05568 0.07454
 H263 H 0.42600 1.08614 0.64787
 H264 H 0.38266 1.12761 0.58091
 C265 C 1.11974 -0.11528 -0.20413
 C266 C 1.10740 -0.11157 -0.02547
 C267 C 1.08256 -0.08787 0.01062
 C268 C 1.16612 -0.16177 -0.25601
 C269 C 1.08218 -0.07119 -0.31145
 C270 C 1.10713 -0.09507 -0.34736
 C271 C 1.14511 -0.14022 -0.23754
 C272 C 1.06960 -0.06740 -0.13176
 H273 H 1.11698 -0.12706 0.08637
 H274 H 1.07356 -0.08559 0.15059
 H275 H 1.07274 -0.05578 -0.42385
 H276 H 1.11653 -0.09779 -0.48635
 C277 C 0.61780 0.38368 0.29719
 C278 C 0.60497 0.40417 0.15581
 C279 C 0.58060 0.42849 0.19532
 C280 C 0.66412 0.33735 0.24148
 C281 C 0.58192 0.41161 0.51706
 C282 C 0.60618 0.38746 0.47736
 C283 C 0.64300 0.35871 0.26115
 C284 C 0.56884 0.43245 0.37673
 H285 H 0.61379 0.40140 0.01563
 H286 H 0.57097 0.44411 0.08429
 H287 H 0.57347 0.41396 0.65808
 H288 H 0.61594 0.37172 0.58763
 C289 C 0.88053 -0.11526 -0.19929
 C290 C 0.89304 -0.11164 -0.02090
 C291 C 0.91786 -0.08791 0.01496
 C292 C 0.83404 -0.16158 -0.25148
 C293 C 0.91787 -0.07106 -0.30686
 C294 C 0.89295 -0.09495 -0.34251
 C295 C 0.85513 -0.14015 -0.23249
 C296 C 0.93062 -0.06735 -0.12753
 H297 H 0.88359 -0.12723 0.09085
 H298 H 0.92699 -0.08567 0.15470
 H299 H 0.92716 -0.05558 -0.41928
 H300 H 0.88344 -0.09759 -0.48131
 C301 C 0.38182 0.38326 0.31991
 C302 C 0.39479 0.38684 0.49720
 C303 C 0.41930 0.41096 0.53181
 C304 C 0.33523 0.33691 0.27299
 C305 C 0.41819 0.42820 0.21064
 C306 C 0.39356 0.40391 0.17623
 C307 C 0.35641 0.35829 0.28908
 C308 C 0.43129 0.43197 0.38916
 H309 H 0.38589 0.37098 0.60925
 H310 H 0.42877 0.41317 0.67084
 H311 H 0.42693 0.44399 0.09804
 H312 H 0.38368 0.40130 0.03820
 C313 C 0.11822 0.61730 -0.19084
 C314 C 0.10647 0.59615 -0.33222
 C315 C 0.08211 0.57174 -0.29474
 C316 C 0.16458 0.66371 -0.24343
 C317 C 0.08125 0.58984 0.02505
 C318 C 0.10549 0.61411 -0.01268
 C319 C 0.14346 0.64231 -0.22499
 C320 C 0.06930 0.56830 -0.11528
 H321 H 0.11614 0.59847 -0.47088
 H322 H 0.07335 0.55560 -0.40581
 H323 H 0.07194 0.58794 0.16454
 H324 H 0.11440 0.63039 0.09760
 C325 C 0.61969 1.11547 0.30621
 C326 C 0.60850 1.09417 0.16394
 C327 C 0.58331 1.07048 0.19752
 C328 C 0.66645 1.16162 0.25783
 C329 C 0.58057 1.08953 0.51540
 C330 C 0.60563 1.11308 0.48155
 C331 C 0.64532 1.14018 0.27491
 C332 C 0.56909 1.06792 0.37395
 H333 H 0.61922 1.09587 0.02748
 H334 H 0.57504 1.05418 0.08595
 H335 H 0.57024 1.08825 0.65286
 H336 H 0.61405 1.12947 0.59252
 C337 C 0.11876 0.38434 0.21446
 C338 C 0.10618 0.40504 0.35566
 C339 C 0.08169 0.42926 0.31675
 C340 C 0.16480 0.33767 0.27099
 C341 C 0.08243 0.41197 -0.00430
 C342 C 0.10681 0.38790 0.03481
 C343 C 0.14386 0.35924 0.25068
 C344 C 0.06955 0.43295 0.13603
 H345 H 0.11526 0.40246 0.49539
 H346 H 0.07226 0.44503 0.42772
 H347 H 0.07371 0.41413 -0.14488
 H348 H 0.11636 0.37202 -0.07547
 C349 C 0.61818 0.88515 0.69418
 C350 C 0.60587 0.90586 0.83612
 C351 C 0.58115 0.92993 0.79872
 C352 C 0.66483 0.83897 0.74503
 C353 C 0.58111 0.91236 0.47803
 C354 C 0.60569 0.88846 0.51564
 C355 C 0.64363 0.86034 0.72785
 C356 C 0.56855 0.93344 0.61886
 H357 H 0.61536 0.90344 0.97510
 H358 H 0.57196 0.94576 0.91006
 H359 H 0.57202 0.91435 0.33812
 H360 H 0.61502 0.87255 0.40493
 C361 C 0.88227 0.11553 0.20213
 C362 C 0.89416 0.11201 0.02236
 C363 C 0.91855 0.08800 -0.01722
 C364 C 0.83572 0.16166 0.25685
 C365 C 0.91948 0.07073 0.30395
 C366 C 0.89497 0.09491 0.34335
 C367 C 0.85694 0.14037 0.23773
 C368 C 0.93151 0.06703 0.12293
 H369 H 0.88450 0.12787 -0.08774
 H370 H 0.92719 0.08585 -0.15803
 H371 H 0.92899 0.05497 0.41474
 H372 H 0.88596 0.09747 0.48326
 C373 C 0.38031 0.61449 0.70251
 C374 C 0.39293 0.59431 0.84590
 C375 C 0.41795 0.57050 0.81024
 C376 C 0.33373 0.66076 0.75391
 C377 C 0.41766 0.58719 0.48818
 C378 C 0.39274 0.61082 0.52402
 C379 C 0.35484 0.63932 0.73553
 C380 C 0.43061 0.56675 0.63071
 H381 H 0.38347 0.59699 0.98479
 H382 H 0.42738 0.55510 0.92267
 H383 H 0.42672 0.58494 0.34828
 H384 H 0.38316 0.62629 0.41209
   
