data_POSCAR
  _audit_creation_date              2014-09-24
  _audit_creation_method            'ToBaCCo'
  _symmetry_space_group_name_H-M    'P1'
  _symmetry_Int_Tables_number       1
  _symmetry_cell_setting            triclinic
  loop_
  _symmetry_equiv_pos_as_xyz
 x,y,z
_cell_length_a 29.0125
_cell_length_b 29.0205
_cell_length_c 38.2559
_cell_angle_alpha 89.934100
_cell_angle_beta 90.062600
_cell_angle_gamma 90.053400
loop_
  _atom_site_label
  _atom_site_type_symbol
  _atom_site_fract_x
  _atom_site_fract_y
  _atom_site_fract_z
O1 O 0.03877 0.54497 1.03375
 O2 O 0.03860 0.45651 0.96554
 O3 O 0.03620 0.54645 0.96585
 O4 O 0.03658 0.45507 1.03347
 O5 O -0.03956 0.45617 1.03380
 O6 O -0.03990 0.54503 0.96573
 O7 O -0.03753 0.45508 0.96587
 O8 O -0.03737 0.54607 1.03365
 Cu9 Cu 0.04515 0.50076 0.99963
 Cu10 Cu -0.04621 0.50057 0.99976
 C11 C 0.00100 0.56099 1.04510
 C12 C 0.00079 0.44030 0.95432
 C13 C -0.00220 0.56140 0.95441
 C14 C -0.00171 0.44009 1.04502
 O15 O 0.45793 -0.04234 0.46525
 O16 O 0.54650 -0.04371 0.53312
 O17 O 0.45483 -0.03347 0.53446
 O18 O 0.54591 -0.03444 0.46666
 O19 O 0.54327 0.04166 0.46529
 O20 O 0.45502 0.04261 0.53326
 O21 O 0.54668 0.03233 0.53447
 O22 O 0.45529 0.03374 0.46676
 Cu23 Cu 0.50034 -0.04545 0.50063
 Cu24 Cu 0.50102 0.04454 0.50072
 C25 C 0.44120 -0.00458 0.45447
 C26 C 0.56244 -0.00624 0.54506
 C27 C 0.43921 0.00504 0.54512
 C28 C 0.55995 0.00396 0.45443
 C29 C -0.06035 0.01002 0.26627
 C30 C -0.01757 0.01829 0.25053
 C31 C -0.00884 0.06094 0.23471
 C32 C -0.04284 0.09538 0.23399
 C33 C -0.08546 0.08685 0.25035
 C34 C -0.09446 0.04435 0.26679
 C35 C 0.01812 -0.01784 0.25053
 C36 C 0.00933 -0.06045 0.23472
 C37 C 0.04331 -0.09490 0.23402
 C38 C 0.08599 -0.08643 0.25037
 C39 C 0.09505 -0.04397 0.26680
 C40 C 0.06095 -0.00962 0.26626
 H41 H -0.06650 -0.02302 0.27863
 H42 H 0.02427 0.06672 0.22237
 H43 H -0.02382 -0.06619 0.22239
 H44 H 0.06716 0.02338 0.27862
 H45 H -0.11171 0.11334 0.25026
 H46 H 0.11223 -0.11293 0.25030
 C47 C -0.00947 -0.06100 0.76640
 C48 C -0.01818 -0.01845 0.75043
 C49 C -0.06078 -0.01046 0.73430
 C50 C -0.09473 -0.04500 0.73351
 C51 C -0.08579 -0.08741 0.75010
 C52 C -0.04334 -0.09564 0.76686
 C53 C 0.01746 0.01778 0.75043
 C54 C 0.06011 0.00977 0.73447
 C55 C 0.09406 0.04431 0.73368
 C56 C 0.08507 0.08675 0.75012
 C57 C 0.04257 0.09502 0.76671
 C58 C 0.00871 0.06037 0.76625
 H59 H 0.02353 -0.06657 0.77898
 H60 H -0.06688 0.02249 0.72179
 H61 H 0.06624 -0.02321 0.72208
 H62 H -0.02434 0.06597 0.77871
 H63 H -0.11192 -0.11406 0.74996
 H64 H 0.11120 0.11340 0.74999
 N65 N 0.04560 -0.35177 0.10592
 C66 C 0.00649 -0.33113 0.11716
 N67 N -0.03482 -0.34654 0.10526
 N68 N -0.03686 -0.38151 0.08269
 C69 C 0.00238 -0.40208 0.07127
 N70 N 0.04359 -0.38663 0.08339
 C71 C 0.00936 -0.29199 0.13994
 C72 C 0.01346 -0.25853 0.15834
 C73 C 0.01995 -0.21807 0.17930
 N74 N -0.01328 -0.18538 0.18098
 N75 N -0.00610 -0.14660 0.19880
 C76 C 0.03461 -0.13900 0.21551
 N77 N 0.06768 -0.17207 0.21385
 N78 N 0.06051 -0.21085 0.19604
 N79 N -0.04585 0.35259 0.10589
 C80 C -0.00665 0.33191 0.11701
 N81 N 0.03457 0.34737 0.10501
 N82 N 0.03644 0.38242 0.08245
 C83 C -0.00289 0.40303 0.07116
 N84 N -0.04400 0.38754 0.08337
 C85 C -0.00936 0.29269 0.13980
 C86 C -0.01335 0.25918 0.15821
 C87 C -0.01973 0.21867 0.17920
 N88 N 0.01352 0.18598 0.18087
 N89 N 0.00642 0.14717 0.19872
 C90 C -0.03421 0.13953 0.21546
 N91 N -0.06731 0.17259 0.21380
 N92 N -0.06022 0.21141 0.19597
 N93 N 0.35041 0.04986 0.60443
 C94 C 0.33045 0.01070 0.61641
 N95 N 0.34674 -0.03064 0.60543
 N96 N 0.38190 -0.03268 0.58305
 C97 C 0.40181 0.00658 0.57090
 N98 N 0.38548 0.04783 0.58207
 C99 C 0.29126 0.01344 0.63915
 C100 C 0.25776 0.01723 0.65755
 C101 C 0.21725 0.02312 0.67855
 N102 N 0.18510 -0.01068 0.68043
 N103 N 0.14632 -0.00417 0.69837
 C104 C 0.13817 0.03640 0.71501
 N105 N 0.17070 0.07006 0.71314
 N106 N 0.20949 0.06356 0.69520
 N107 N -0.34997 -0.05096 0.60275
 C108 C -0.33074 -0.01177 0.61529
 N109 N -0.34770 0.02954 0.60477
 N110 N -0.38280 0.03153 0.58226
 C111 C -0.40200 -0.00776 0.56948
 N112 N -0.38497 -0.04899 0.58028
 C113 C -0.29164 -0.01441 0.63820
 C114 C -0.25821 -0.01812 0.65673
 C115 C -0.21777 -0.02394 0.67790
 N116 N -0.18562 0.00986 0.67978
 N117 N -0.14689 0.00339 0.69787
 C118 C -0.13880 -0.03714 0.71467
 N119 N -0.17132 -0.07080 0.71280
 N120 N -0.21006 -0.06434 0.69472
 N121 N -0.04652 -0.35222 0.89555
 C122 C -0.00728 -0.33222 0.88380
 N123 N 0.03399 -0.34838 0.89515
 N124 N 0.03587 -0.38343 0.91770
 C125 C -0.00349 -0.40335 0.92972
 N126 N -0.04466 -0.38716 0.91806
 C127 C -0.00994 -0.29299 0.86101
 C128 C -0.01390 -0.25946 0.84263
 C129 C -0.02025 -0.21892 0.82166
 N130 N -0.06057 -0.21189 0.80456
 N131 N -0.06765 -0.17306 0.78674
 C132 C -0.03472 -0.13976 0.78543
 N133 N 0.00574 -0.14716 0.80251
 N134 N 0.01284 -0.18598 0.82034
 N135 N 0.04513 0.35293 0.89364
 C136 C 0.00598 0.33199 0.88265
 N137 N -0.03527 0.34727 0.89463
 N138 N -0.03722 0.38239 0.91705
 C139 C 0.00205 0.40326 0.92824
 N140 N 0.04320 0.38795 0.91603
 C141 C 0.00878 0.29266 0.86005
 C142 C 0.01284 0.25905 0.84182
 C143 C 0.01929 0.21843 0.82104
 N144 N -0.01379 0.18549 0.81971
 N145 N -0.00663 0.14662 0.80203
 C146 C 0.03390 0.13917 0.78512
 N147 N 0.06682 0.17248 0.78645
 N148 N 0.05968 0.21136 0.80412
 N149 N -0.35378 0.04837 0.39270
 C150 C -0.33231 0.00933 0.38224
 N151 N -0.34697 -0.03187 0.39485
 N152 N -0.38198 -0.03388 0.41738
 C153 C -0.40336 0.00528 0.42805
 N154 N -0.38870 0.04638 0.41520
 C155 C -0.29293 0.01221 0.35967
 C156 C -0.25923 0.01615 0.34150
 C157 C -0.21843 0.02228 0.32082
 N158 N -0.18605 -0.01127 0.31934
 N159 N -0.14701 -0.00447 0.30176
 C160 C -0.13882 0.03614 0.28510
 N161 N -0.17157 0.06955 0.28657
 N162 N -0.21062 0.06277 0.30415
 N163 N 0.34791 0.03162 0.39500
 C164 C 0.33320 -0.00950 0.38231
 N165 N 0.35471 -0.04860 0.39270
 N166 N 0.38970 -0.04675 0.41519
 C167 C 0.40441 -0.00574 0.42811
 N168 N 0.38299 0.03349 0.41753
 C169 C 0.29376 -0.01224 0.35974
 C170 C 0.26001 -0.01609 0.34156
 C171 C 0.21916 -0.02213 0.32087
 N172 N 0.21129 -0.06256 0.30418
 N173 N 0.17220 -0.06926 0.28659
 C174 C 0.13946 -0.03583 0.28512
 N175 N 0.14770 0.00472 0.30179
 N176 N 0.18679 0.01144 0.31938
   
