data_POSCAR
  _audit_creation_date              2014-09-24
  _audit_creation_method            'ToBaCCo'
  _symmetry_space_group_name_H-M    'P1'
  _symmetry_Int_Tables_number       1
  _symmetry_cell_setting            triclinic
  loop_
  _symmetry_equiv_pos_as_xyz
 x,y,z
_cell_length_a 14.4159
_cell_length_b 31.7798
_cell_length_c 14.7226
_cell_angle_alpha 90.141800
_cell_angle_beta 89.723800
_cell_angle_gamma 89.877400
loop_
  _atom_site_label
  _atom_site_type_symbol
  _atom_site_fract_x
  _atom_site_fract_y
  _atom_site_fract_z
N1 N 0.15786 0.04459 0.10126
 N2 N 0.20671 0.07957 0.10593
 N3 N 0.09113 -0.04399 0.16413
 N4 N 0.09294 -0.07874 0.21299
 N5 N 0.15858 -0.04414 0.10385
 N6 N 0.20815 -0.07897 0.11054
 N7 N 0.09159 0.04471 0.16270
 N8 N 0.09415 0.07971 0.21115
 C9 C 0.16683 0.10101 0.17541
 C10 C 0.16694 -0.10010 0.17949
 N11 N -0.16944 -0.04458 0.09133
 N12 N -0.21812 -0.07969 0.09402
 N13 N -0.10734 0.04505 0.15466
 N14 N -0.10945 0.08132 0.19845
 N15 N -0.17141 0.04388 0.09170
 N16 N -0.22218 0.08131 0.09363
 N17 N -0.10829 -0.04384 0.15716
 N18 N -0.11424 -0.07835 0.20649
 Mn19 Mn -0.00838 0.00048 0.16083
 C20 C -0.18363 -0.10025 0.16688
 C21 C -0.18038 0.10328 0.16110
 N22 N 0.16690 -0.04521 -0.09133
 N23 N 0.21655 -0.08285 -0.09141
 N24 N 0.10387 0.04308 -0.15894
 N25 N 0.10807 0.07808 -0.20681
 N26 N 0.16601 0.04352 -0.09397
 N27 N 0.21430 0.07880 -0.09651
 N28 N 0.10603 -0.04566 -0.15728
 N29 N 0.11215 -0.08107 -0.20422
 Mn30 Mn 0.16347 -0.00032 0.00501
 C31 C 0.18020 -0.10366 -0.16333
 C32 C 0.17797 0.09988 -0.16785
 N33 N -0.16183 0.04337 -0.10432
 N34 N -0.21003 0.07859 -0.10948
 N35 N -0.09385 -0.04634 -0.16327
 N36 N -0.09403 -0.08237 -0.20834
 N37 N -0.16253 -0.04496 -0.10449
 N38 N -0.21401 -0.08191 -0.11032
 N39 N -0.09565 0.04271 -0.16600
 N40 N -0.09767 0.07751 -0.21488
 Mn41 Mn -0.16731 -0.00057 -0.00652
 Mn42 Mn 0.00511 -0.00159 -0.16265
 Cl43 Cl -0.00175 -0.00051 -0.00087
 C44 C -0.16998 0.09940 -0.17940
 C45 C -0.16832 -0.10389 -0.17575
 N46 N 0.66874 0.54408 0.59308
 N47 N 0.71752 0.57923 0.59539
 N48 N 0.60653 0.45545 0.65767
 N49 N 0.61229 0.42064 0.70601
 N50 N 0.66851 0.45519 0.59201
 N51 N 0.71752 0.42006 0.59375
 N52 N 0.60589 0.54409 0.65797
 N53 N 0.61017 0.57922 0.70565
 C54 C 0.68073 0.60068 0.66660
 C55 C 0.68239 0.39901 0.66590
 N56 N 0.34028 0.45555 0.60403
 N57 N 0.29106 0.42064 0.60972
 N58 N 0.40639 0.54419 0.66524
 N59 N 0.40400 0.57923 0.71363
 N60 N 0.34045 0.54435 0.60401
 N61 N 0.29203 0.57957 0.60889
 N62 N 0.40703 0.45541 0.66443
 N63 N 0.40504 0.42037 0.71236
 Mn64 Mn 0.50651 0.49978 0.66250
 C65 C 0.33172 0.39915 0.67821
 C66 C 0.33172 0.60084 0.67823
 N67 N 0.66240 0.45525 0.39665
 N68 N 0.71153 0.42022 0.39038
 N69 N 0.59641 0.54397 0.33650
 N70 N 0.59884 0.57891 0.28827
 N71 N 0.66232 0.54406 0.39776
 N72 N 0.71073 0.57918 0.39311
 N73 N 0.59567 0.45534 0.33624
 N74 N 0.59759 0.42040 0.28768
 Mn75 Mn 0.66677 0.49963 0.49483
 C76 C 0.67081 0.39895 0.32148
 C77 C 0.67107 0.60041 0.32380
 N78 N 0.33414 0.54445 0.40869
 N79 N 0.28525 0.57966 0.40665
 N80 N 0.39626 0.45575 0.34301
 N81 N 0.39027 0.42104 0.29403
 N82 N 0.33428 0.45560 0.40866
 N83 N 0.28499 0.42067 0.40626
 N84 N 0.39701 0.54436 0.34383
 N85 N 0.39269 0.57947 0.29645
 Mn86 Mn 0.33603 0.49999 0.50641
 Mn87 Mn 0.49629 0.49985 0.33876
 Cl88 Cl 0.50140 0.49981 0.50063
 C89 C 0.32205 0.60103 0.33566
 C90 C 0.32000 0.39960 0.33375
 C91 C 0.23173 0.22834 0.24345
 C92 C 0.17734 0.20444 0.30354
 C93 C 0.15688 0.16251 0.28152
 C94 C 0.19177 0.14444 0.20086
 C95 C 0.24763 0.16862 0.14229
 C96 C 0.26722 0.21071 0.16294
 C97 C 0.25198 0.27266 0.26523
 C98 C 0.30631 0.29653 0.20507
 C99 C 0.32711 0.33838 0.22713
 C100 C 0.29317 0.35641 0.30821
 C101 C 0.23711 0.33231 0.36683
 C102 C 0.21677 0.29029 0.34586
 C103 C 0.32075 0.23566 0.10422
 C104 C 0.33939 0.27794 0.12453
 C105 C 0.14412 0.22309 0.38401
 C106 C 0.16293 0.26537 0.40440
 H107 H 0.34833 0.22235 0.04207
 H108 H 0.38028 0.29616 0.07691
 H109 H 0.10282 0.20494 0.43144
 H110 H 0.13518 0.27869 0.46645
 H111 H 0.11379 0.14403 0.32683
 H112 H 0.27409 0.15502 0.07969
 H113 H 0.37026 0.35677 0.18169
 H114 H 0.21117 0.34591 0.42964
 C115 C 0.75136 0.77256 0.23529
 C116 C 0.80471 0.79681 0.29532
 C117 C 0.82436 0.83877 0.27345
 C118 C 0.79025 0.85652 0.19266
 C119 C 0.73489 0.83207 0.13435
 C120 C 0.71573 0.78995 0.15515
 C121 C 0.73259 0.72808 0.25666
 C122 C 0.67917 0.70383 0.19669
 C123 C 0.66006 0.66177 0.21834
 C124 C 0.69525 0.64392 0.29857
 C125 C 0.75023 0.66845 0.35700
 C126 C 0.76846 0.71069 0.33668
 C127 C 0.66268 0.76470 0.09687
 C128 C 0.64537 0.72227 0.11678
 C129 C 0.83806 0.77844 0.37548
 C130 C 0.82091 0.73600 0.39531
 H131 H 0.63431 0.77789 0.03546
 H132 H 0.60465 0.70387 0.06952
 H133 H 0.87807 0.79695 0.42310
 H134 H 0.84881 0.72285 0.45699
 H135 H 0.86690 0.85743 0.31871
 H136 H 0.70872 0.84546 0.07182
 H137 H 0.61762 0.64303 0.17313
 H138 H 0.77690 0.65502 0.41930
 C139 C 0.76771 0.22712 0.75346
 C140 C 0.82175 0.20293 0.69317
 C141 C 0.84142 0.16084 0.71473
 C142 C 0.80599 0.14295 0.79513
 C143 C 0.75034 0.16745 0.85373
 C144 C 0.73166 0.20965 0.83357
 C145 C 0.74842 0.27161 0.73238
 C146 C 0.69452 0.29575 0.79286
 C147 C 0.67453 0.33773 0.77148
 C148 C 0.70879 0.35565 0.69071
 C149 C 0.76453 0.33131 0.63177
 C150 C 0.78408 0.28912 0.65211
 C151 C 0.67847 0.23483 0.89248
 C152 C 0.66092 0.27727 0.87301
 C153 C 0.85545 0.22147 0.61305
 C154 C 0.83757 0.26392 0.59334
 H155 H 0.65028 0.22156 0.95409
 H156 H 0.62032 0.29567 0.92088
 H157 H 0.89660 0.20314 0.56548
 H158 H 0.86584 0.27716 0.53170
 H159 H 0.88433 0.14213 0.66936
 H160 H 0.72339 0.15401 0.91610
 H161 H 0.63166 0.35629 0.81719
 H162 H 0.79076 0.34483 0.56919
 C163 C 0.24699 0.77287 0.76840
 C164 C 0.28441 0.79079 0.84721
 C165 C 0.26465 0.83295 0.86806
 C166 C 0.20441 0.85681 0.81264
 C167 C 0.16802 0.83812 0.73324
 C168 C 0.19053 0.79648 0.71011
 C169 C 0.26740 0.72849 0.74642
 C170 C 0.23085 0.71073 0.66694
 C171 C 0.25039 0.66857 0.64618
 C172 C 0.30710 0.64441 0.70373
 C173 C 0.34310 0.66264 0.78336
 C174 C 0.32293 0.70468 0.80532
 C175 C 0.15727 0.77787 0.63003
 C176 C 0.17638 0.73562 0.60928
 C177 C 0.33977 0.76601 0.90440
 C178 C 0.35769 0.72355 0.88450
 H179 H 0.11617 0.79612 0.58292
 H180 H 0.14834 0.72229 0.54767
 H181 H 0.36910 0.77952 0.96526
 H182 H 0.39968 0.70545 0.93118
 H183 H 0.29355 0.84645 0.92945
 H184 H 0.12262 0.85586 0.68892
 H185 H 0.22308 0.65488 0.58434
 H186 H 0.38696 0.64423 0.82783
 C187 C 0.24387 0.22755 0.76713
 C188 C 0.16354 0.20917 0.73121
 C189 C 0.14363 0.16702 0.75103
 C190 C 0.20276 0.14348 0.80747
 C191 C 0.28324 0.16234 0.84286
 C192 C 0.30451 0.20436 0.82227
 C193 C 0.26488 0.27193 0.74649
 C194 C 0.34539 0.29029 0.78207
 C195 C 0.36573 0.33234 0.76134
 C196 C 0.30659 0.35580 0.70467
 C197 C 0.22551 0.33703 0.67040
 C198 C 0.20410 0.29512 0.69148
 C199 C 0.38477 0.22378 0.85606
 C200 C 0.40441 0.26609 0.83685
 C201 C 0.10422 0.23343 0.67693
 C202 C 0.12362 0.27577 0.65808
 H203 H 0.43260 0.20622 0.89810
 H204 H 0.46623 0.28002 0.86512
 H205 H 0.04232 0.21950 0.64887
 H206 H 0.07539 0.29344 0.61671
 H207 H 0.08113 0.15286 0.72411
 H208 H 0.32900 0.14442 0.88641
 H209 H 0.42851 0.34647 0.78770
 H210 H 0.17962 0.35487 0.62682
 C211 C 0.76690 0.77274 0.75410
 C212 C 0.70715 0.79538 0.81178
 C213 C 0.72886 0.83704 0.83464
 C214 C 0.80902 0.85662 0.79874
 C215 C 0.86618 0.83368 0.73783
 C216 C 0.84598 0.79163 0.71641
 C217 C 0.74613 0.72837 0.73265
 C218 C 0.80616 0.70554 0.67541
 C219 C 0.78526 0.66348 0.65440
 C220 C 0.70558 0.64430 0.69131
 C221 C 0.64703 0.66753 0.74967
 C222 C 0.66669 0.70964 0.77006
 C223 C 0.90399 0.76786 0.65897
 C224 C 0.88528 0.72543 0.63984
 C225 C 0.62718 0.77577 0.84613
 C226 C 0.60790 0.73350 0.82640
 H227 H 0.96436 0.78224 0.62863
 H228 H 0.93278 0.70817 0.59624
 H229 H 0.57918 0.79318 0.88886
 H230 H 0.54661 0.71931 0.85550
 H231 H 0.68314 0.85399 0.88070
 H232 H 0.92797 0.84792 0.70907
 H233 H 0.83054 0.64582 0.60928
 H234 H 0.58516 0.65314 0.77782
 C235 C 0.23437 0.77297 0.24949
 C236 C 0.15390 0.79155 0.28578
 C237 C 0.13334 0.83355 0.26458
 C238 C 0.19228 0.85670 0.20681
 C239 C 0.27334 0.83773 0.17194
 C240 C 0.29491 0.79588 0.19337
 C241 C 0.25555 0.72863 0.27048
 C242 C 0.33581 0.71005 0.23378
 C243 C 0.35587 0.66796 0.25387
 C244 C 0.29697 0.64463 0.31126
 C245 C 0.21653 0.66367 0.34743
 C246 C 0.19511 0.70567 0.32663
 C247 C 0.37528 0.77633 0.15914
 C248 C 0.39488 0.73403 0.17837
 C249 C 0.09510 0.76759 0.34161
 C250 C 0.11488 0.72530 0.36112
 H251 H 0.42330 0.79380 0.11689
 H252 H 0.45670 0.71993 0.14967
 H253 H 0.03333 0.78169 0.37045
 H254 H 0.06713 0.70791 0.40384
 H255 H 0.07056 0.84785 0.29139
 H256 H 0.31906 0.85534 0.12748
 H257 H 0.41832 0.65366 0.22627
 H258 H 0.17094 0.64589 0.39171
 C259 C 0.75653 0.22729 0.22846
 C260 C 0.69698 0.20494 0.17074
 C261 C 0.71856 0.16317 0.14760
 C262 C 0.79738 0.14310 0.18467
 C263 C 0.85423 0.16585 0.24544
 C264 C 0.83516 0.20808 0.26587
 C265 C 0.73605 0.27167 0.25041
 C266 C 0.79643 0.29421 0.30708
 C267 C 0.77570 0.33618 0.32904
 C268 C 0.69554 0.35558 0.29422
 C269 C 0.63668 0.33274 0.23612
 C270 C 0.65646 0.29070 0.21429
 C271 C 0.89399 0.23165 0.32211
 C272 C 0.87575 0.27414 0.34130
 C273 C 0.61723 0.22492 0.13707
 C274 C 0.59776 0.26715 0.15792
 H275 H 0.95483 0.21712 0.35113
 H276 H 0.92389 0.29134 0.38366
 H277 H 0.56956 0.20784 0.09396
 H278 H 0.53640 0.28153 0.12956
 H279 H 0.67329 0.14633 0.10150
 H280 H 0.91538 0.15135 0.27463
 H281 H 0.82129 0.35354 0.37382
 H282 H 0.57458 0.34737 0.20933
   
