data_POSCAR
  _audit_creation_date              2014-09-24
  _audit_creation_method            'ToBaCCo'
  _symmetry_space_group_name_H-M    'P1'
  _symmetry_Int_Tables_number       1
  _symmetry_cell_setting            triclinic
  loop_
  _symmetry_equiv_pos_as_xyz
 x,y,z
_cell_length_a 22.9743
_cell_length_b 16.5446
_cell_length_c 16.5600
_cell_angle_alpha 89.831900
_cell_angle_beta 90.138100
_cell_angle_gamma 89.863800
loop_
  _atom_site_label
  _atom_site_type_symbol
  _atom_site_fract_x
  _atom_site_fract_y
  _atom_site_fract_z
O1 O 0.08202 0.13687 0.15013
 O2 O 0.14609 0.06557 0.07174
 C3 C 0.13442 0.11666 0.12871
 O4 O -0.08045 -0.15078 0.13976
 O5 O -0.14452 -0.07257 0.06738
 C6 C -0.13288 -0.12947 0.11891
 O7 O 0.08263 -0.14276 0.14817
 O8 O 0.14625 -0.07016 0.07069
 C9 C 0.13522 -0.12248 0.12722
 O10 O -0.08083 0.14565 0.14165
 O11 O -0.14474 0.06866 0.06867
 C12 C -0.13323 0.12477 0.12077
 Zr13 Zr 0.00069 0.09896 0.10351
 O14 O -0.00215 0.08884 0.23069
 O15 O 0.00647 0.22652 0.10861
 Zr16 Zr 0.00100 -0.10449 0.10145
 O17 O -0.00432 -0.10565 0.22902
 O18 O 0.00782 -0.23213 0.09943
 O19 O 0.05300 -0.00289 0.11807
 O20 O -0.05010 -0.00282 0.11714
 O21 O -0.08105 0.14841 -0.13853
 O22 O -0.14487 0.07003 -0.06685
 C23 C -0.13338 0.12708 -0.11812
 O24 O 0.08210 -0.13995 -0.14875
 O25 O 0.14615 -0.06841 -0.07057
 C26 C 0.13449 -0.11954 -0.12748
 O27 O -0.08075 -0.14788 -0.14135
 O28 O -0.14471 -0.07105 -0.06826
 C29 C -0.13316 -0.12695 -0.12057
 O30 O 0.08180 0.14096 -0.14618
 O31 O 0.14598 0.06742 -0.06932
 C32 C 0.13426 0.11999 -0.12530
 Zr33 Zr 0.00050 0.10183 -0.10032
 O34 O -0.00632 0.10325 -0.22785
 O35 O 0.00702 0.22946 -0.09831
 Zr36 Zr 0.00070 -0.10215 -0.10221
 O37 O -0.00615 -0.10060 -0.22973
 O38 O 0.00761 -0.22980 -0.10248
 Zr39 Zr 0.08775 -0.00143 0.00049
 Zr40 Zr -0.08636 -0.00133 0.00037
 O41 O -0.05011 0.00007 -0.11620
 O42 O 0.05258 -0.00000 -0.11724
 O43 O -0.05141 0.11641 0.00165
 O44 O 0.05165 -0.11819 -0.00045
 O45 O 0.05125 0.11528 0.00181
 O46 O -0.05120 -0.11921 -0.00056
 H47 H -0.07637 -0.00328 0.16452
 H48 H 0.07808 -0.16561 -0.00071
 H49 H -0.07641 0.00063 -0.16372
 H50 H 0.07735 0.16287 0.00238
 H51 H -0.02531 -0.25293 0.06748
 H52 H -0.02516 -0.25137 -0.07041
 H53 H 0.02611 -0.06715 -0.25069
 H54 H 0.02619 0.07057 -0.24940
 H55 H -0.02614 0.25038 -0.06658
 H56 H -0.02281 0.24857 0.07060
 H57 H -0.00221 0.14487 0.25167
 H58 H 0.02276 -0.06386 0.24919
 O59 O 0.58176 0.64084 0.64568
 O60 O 0.64557 0.56736 0.56882
 C61 C 0.63415 0.61972 0.62475
 O62 O 0.41824 0.35323 0.64030
 O63 O 0.35437 0.43052 0.56648
 C64 C 0.36584 0.37440 0.61907
 O65 O 0.58203 0.36126 0.64830
 O66 O 0.64567 0.43376 0.57019
 C67 C 0.63433 0.38212 0.62700
 O68 O 0.41800 0.64885 0.63734
 O69 O 0.35426 0.57082 0.56501
 C70 C 0.36568 0.62752 0.61652
 Zr71 Zr 0.49981 0.60282 0.60025
 O72 O 0.49319 0.60345 0.72774
 O73 O 0.50632 0.73044 0.59921
 Zr74 Zr 0.50004 0.39854 0.60219
 O75 O 0.49345 0.39931 0.72968
 O76 O 0.50693 0.27091 0.60316
 O77 O 0.55180 0.50075 0.61720
 O78 O 0.44937 0.50085 0.61593
 O79 O 0.41763 0.64730 0.35782
 O80 O 0.35410 0.57004 0.43140
 C81 C 0.36531 0.62624 0.37896
 O82 O 0.58118 0.35822 0.35220
 O83 O 0.64473 0.43110 0.42970
 C84 C 0.63346 0.37897 0.37354
 O85 O 0.41803 0.35143 0.36076
 O86 O 0.35426 0.42970 0.43280
 C87 C 0.36570 0.37285 0.38146
 O88 O 0.58170 0.63885 0.35044
 O89 O 0.64547 0.56608 0.42888
 C90 C 0.63406 0.61777 0.37204
 Zr91 Zr 0.49970 0.60164 0.39600
 O92 O 0.49290 0.60043 0.26849
 O93 O 0.50626 0.72924 0.39460
 Zr94 Zr 0.49985 0.39725 0.39802
 O95 O 0.49294 0.39682 0.27051
 O96 O 0.50664 0.26961 0.39961
 Zr97 Zr 0.58638 0.50005 0.49936
 Zr98 Zr 0.41346 0.50018 0.49896
 O99 O 0.44920 0.49942 0.38212
 O100 O 0.55169 0.49927 0.38134
 O101 O 0.44791 0.61818 0.49788
 O102 O 0.55056 0.38310 0.50037
 O103 O 0.55028 0.61705 0.49812
 O104 O 0.44811 0.38208 0.50016
 H105 H 0.42292 0.50119 0.66309
 H106 H 0.57703 0.33574 0.50093
 H107 H 0.42261 0.49916 0.33492
 H108 H 0.57671 0.66429 0.49777
 H109 H 0.47426 0.24948 0.57070
 H110 H 0.47415 0.24867 0.43263
 H111 H 0.52519 0.42998 0.24906
 H112 H 0.52583 0.56811 0.24763
 H113 H 0.47399 0.75077 0.42766
 H114 H 0.47397 0.75153 0.56568
 H115 H 0.52587 0.57086 0.74934
 H116 H 0.52577 0.43264 0.75067
 C117 C 0.24159 0.13382 0.15144
 C118 C 0.18399 0.15512 0.17099
 C119 C 0.17423 0.21430 0.23034
 C120 C 0.22118 0.25238 0.26875
 C121 C 0.27879 0.23094 0.24800
 C122 C 0.28851 0.17133 0.18962
 C123 C 0.32574 0.26988 0.28548
 C124 C 0.31602 0.33043 0.34343
 C125 C 0.25844 0.35073 0.36407
 C126 C 0.21149 0.31204 0.32712
 H127 H 0.13016 0.23144 0.24624
 H128 H 0.33240 0.15404 0.17308
 H129 H 0.36979 0.25334 0.26889
 H130 H 0.16760 0.32915 0.34387
 H131 H 0.25055 0.08833 0.10622
 H132 H 0.24952 0.39690 0.40862
 C133 C 0.75989 0.84864 0.13505
 C134 C 0.81736 0.82839 0.15693
 C135 C 0.82669 0.76845 0.21603
 C136 C 0.77941 0.73015 0.25341
 C137 C 0.72194 0.75162 0.23138
 C138 C 0.71268 0.81061 0.17187
 C139 C 0.67467 0.71425 0.26963
 C140 C 0.68394 0.65568 0.33007
 C141 C 0.74140 0.63431 0.35094
 C142 C 0.78865 0.67114 0.31295
 H143 H 0.87064 0.75200 0.23358
 H144 H 0.66892 0.82772 0.15410
 H145 H 0.63073 0.73140 0.25268
 H146 H 0.83240 0.65381 0.33052
 H147 H 0.75122 0.89432 0.08958
 H148 H 0.75002 0.58926 0.39706
 C149 C 0.75939 0.14955 0.86461
 C150 C 0.81690 0.16958 0.84354
 C151 C 0.82641 0.22975 0.78485
 C152 C 0.77929 0.26852 0.74704
 C153 C 0.72178 0.24729 0.76823
 C154 C 0.71231 0.18807 0.82735
 C155 C 0.67466 0.28512 0.72951
 C156 C 0.68413 0.34388 0.66942
 C157 C 0.74162 0.36502 0.64939
 C158 C 0.78873 0.32773 0.68787
 H159 H 0.87041 0.24604 0.76793
 H160 H 0.66849 0.17115 0.84445
 H161 H 0.63067 0.26814 0.74581
 H162 H 0.83255 0.34486 0.67097
 H163 H 0.75062 0.10369 0.90975
 H164 H 0.75036 0.41020 0.60356
 C165 C 0.24164 0.86302 0.85012
 C166 C 0.18405 0.84233 0.82997
 C167 C 0.17426 0.78427 0.76953
 C168 C 0.22120 0.74675 0.73057
 C169 C 0.27880 0.76759 0.75189
 C170 C 0.28855 0.82605 0.81142
 C171 C 0.32574 0.72919 0.71385
 C172 C 0.31601 0.66971 0.65480
 C173 C 0.25843 0.65003 0.63357
 C174 C 0.21149 0.68823 0.67106
 H175 H 0.13019 0.76764 0.75313
 H176 H 0.33245 0.84285 0.82842
 H177 H 0.36980 0.74521 0.73094
 H178 H 0.16759 0.67160 0.65385
 H179 H 0.25062 0.90765 0.89619
 H180 H 0.24951 0.60468 0.58819
 C181 C 0.24151 0.13806 0.85301
 C182 C 0.18387 0.15901 0.83276
 C183 C 0.17415 0.21788 0.77260
 C184 C 0.22116 0.25567 0.73388
 C185 C 0.27878 0.23440 0.75524
 C186 C 0.28845 0.17535 0.81464
 C187 C 0.32578 0.27281 0.71720
 C188 C 0.31612 0.33262 0.65799
 C189 C 0.25850 0.35282 0.63689
 C190 C 0.21152 0.31472 0.67443
 H191 H 0.13008 0.23476 0.75607
 H192 H 0.33235 0.15819 0.83171
 H193 H 0.36984 0.25634 0.73423
 H194 H 0.16763 0.33172 0.65718
 H195 H 0.25051 0.09288 0.89885
 H196 H 0.24956 0.39843 0.59146
 C197 C 0.75952 0.85161 0.86148
 C198 C 0.81707 0.83139 0.84047
 C199 C 0.82650 0.77167 0.78152
 C200 C 0.77931 0.73337 0.74368
 C201 C 0.72178 0.75470 0.76498
 C202 C 0.71240 0.81365 0.82415
 C203 C 0.67459 0.71709 0.72649
 C204 C 0.68400 0.65834 0.66658
 C205 C 0.74154 0.63727 0.64635
 C206 C 0.78868 0.67439 0.68452
 H207 H 0.87050 0.75519 0.76459
 H208 H 0.66858 0.83069 0.84135
 H209 H 0.63061 0.73406 0.74298
 H210 H 0.83249 0.65717 0.66748
 H211 H 0.75073 0.89713 0.90674
 H212 H 0.75029 0.59217 0.60066
 C213 C 0.23881 0.86180 0.14469
 C214 C 0.18089 0.84193 0.16555
 C215 C 0.17209 0.78353 0.22690
 C216 C 0.21954 0.74565 0.26523
 C217 C 0.27692 0.76605 0.24286
 C218 C 0.28602 0.82438 0.18285
 C219 C 0.32433 0.72748 0.28049
 C220 C 0.31526 0.66825 0.34031
 C221 C 0.25783 0.64887 0.36244
 C222 C 0.21050 0.68719 0.32534
 H223 H 0.12841 0.76666 0.24491
 H224 H 0.32977 0.84090 0.16504
 H225 H 0.36822 0.74331 0.26264
 H226 H 0.16679 0.67078 0.34345
 H227 H 0.24820 0.90628 0.09838
 H228 H 0.24929 0.60376 0.40840
 C229 C 0.75942 0.14689 0.13762
 C230 C 0.81693 0.16673 0.15927
 C231 C 0.82623 0.22628 0.21844
 C232 C 0.77894 0.26477 0.25587
 C233 C 0.72146 0.24382 0.23392
 C234 C 0.71221 0.18505 0.17453
 C235 C 0.67416 0.28160 0.27200
 C236 C 0.68341 0.34016 0.33214
 C237 C 0.74091 0.36086 0.35301
 C238 C 0.78815 0.32357 0.31525
 H239 H 0.87019 0.24243 0.23587
 H240 H 0.66844 0.16830 0.15683
 H241 H 0.63022 0.26491 0.25501
 H242 H 0.83192 0.34052 0.33279
 H243 H 0.75074 0.10151 0.09218
 H244 H 0.74954 0.40582 0.39889
   
