data_POSCAR
  _audit_creation_date              2014-09-24
  _audit_creation_method            'ToBaCCo'
  _symmetry_space_group_name_H-M    'P1'
  _symmetry_Int_Tables_number       1
  _symmetry_cell_setting            triclinic
  loop_
  _symmetry_equiv_pos_as_xyz
 x,y,z
_cell_length_a 23.4408
_cell_length_b 22.7407
_cell_length_c 25.7109
_cell_angle_alpha 89.985900
_cell_angle_beta 89.963900
_cell_angle_gamma 81.978600
loop_
  _atom_site_label
  _atom_site_type_symbol
  _atom_site_fract_x
  _atom_site_fract_y
  _atom_site_fract_z
C1 C 1.22029 0.20139 0.20072
 C2 C 1.24562 0.24802 0.16876
 C3 C 1.27884 0.28174 0.19593
 C4 C 1.28296 0.26593 0.25418
 C5 C 1.27230 0.16540 0.22739
 C6 C 1.30519 0.19879 0.25612
 C7 C 1.18745 0.23679 0.24483
 C8 C 1.22026 0.27001 0.27379
 H9 H 1.24149 0.25083 0.12669
 H10 H 1.30918 0.29400 0.27597
 H11 H 1.27601 0.11747 0.23131
 H12 H 1.14223 0.23500 0.25281
 C13 C 0.70930 -0.28853 0.19426
 C14 C 0.74037 -0.24804 0.16010
 C15 C 0.77235 -0.21196 0.18664
 C16 C 0.77092 -0.22147 0.24658
 C17 C 0.75735 -0.32330 0.22699
 C18 C 0.78977 -0.28877 0.25525
 C19 C 0.67466 -0.24642 0.23261
 C20 C 0.70627 -0.21247 0.26151
 H21 H 0.73943 -0.25001 0.11791
 H22 H 0.79706 -0.19267 0.26765
 H23 H 0.75964 -0.37078 0.23342
 H24 H 0.62917 -0.24767 0.23991
 C25 C 0.70807 0.22314 -0.29974
 C26 C 0.74986 0.25003 -0.33003
 C27 C 0.78386 0.28615 -0.30107
 C28 C 0.77012 0.28683 -0.24466
 C29 C 0.74203 0.18957 -0.25939
 C30 C 0.77666 0.22371 -0.22858
 C31 C 0.67426 0.27264 -0.27275
 C32 C 0.70733 0.30734 -0.24052
 H33 H 0.75292 0.24627 -0.37217
 H34 H 0.79696 0.31396 -0.22262
 H35 H 0.74140 0.14242 -0.25284
 H36 H 0.62762 0.27645 -0.26954
 C37 C 1.21372 -0.28711 -0.31494
 C38 C 1.25976 -0.25826 -0.34218
 C39 C 1.29189 -0.22813 -0.31044
 C40 C 1.27281 -0.22813 -0.25303
 C41 C 1.24553 -0.32506 -0.27231
 C42 C 1.27510 -0.29420 -0.23875
 C43 C 1.17685 -0.23616 -0.28597
 C44 C 1.20747 -0.20493 -0.25288
 H45 H 1.26356 -0.25774 -0.38432
 H46 H 1.29939 -0.20384 -0.22750
 H47 H 1.24512 -0.37263 -0.26988
 H48 H 1.13017 -0.23225 -0.28486
 C49 C 0.20854 0.22447 0.80160
 C50 C 0.24819 0.25301 0.83218
 C51 C 0.28234 0.28929 0.80350
 C52 C 0.27096 0.28823 0.74690
 C53 C 0.17303 0.27445 0.77128
 C54 C 0.20466 0.30722 0.74075
 C55 C 0.24604 0.18877 0.76075
 C56 C 0.27937 0.22121 0.73177
 H57 H 0.25059 0.24907 0.87431
 H58 H 0.29722 0.31523 0.72394
 H59 H 0.12657 0.27704 0.76744
 H60 H 0.24534 0.14163 0.75443
 C61 C 0.71596 0.71358 0.81429
 C62 C 0.75930 0.74177 0.84075
 C63 C 0.79274 0.77439 0.80782
 C64 C 0.77437 0.77427 0.75310
 C65 C 0.68025 0.76207 0.78685
 C66 C 0.71201 0.79619 0.75241
 C67 C 0.74721 0.67812 0.77349
 C68 C 0.77797 0.71141 0.73844
 H69 H 0.76286 0.74267 0.88294
 H70 H 0.80073 0.79947 0.72831
 H71 H 0.63362 0.76508 0.78511
 H72 H 0.74813 0.63033 0.77044
 C73 C 0.72000 0.20138 0.29895
 C74 C 0.74310 0.24943 0.33079
 C75 C 0.77616 0.28350 0.30386
 C76 C 0.78239 0.26658 0.24602
 C77 C 0.68765 0.23521 0.25374
 C78 C 0.72051 0.26887 0.22512
 C79 C 0.77342 0.16609 0.27391
 C80 C 0.80596 0.19976 0.24511
 H81 H 0.73811 0.25265 0.37277
 H82 H 0.80852 0.29502 0.22452
 H83 H 0.64276 0.23250 0.24512
 H84 H 0.77793 0.11808 0.27023
 C85 C 0.20824 0.71230 0.30583
 C86 C 0.24118 0.75123 0.34003
 C87 C 0.27351 0.78713 0.31346
 C88 C 0.27031 0.77904 0.25331
 C89 C 0.17358 0.75597 0.26877
 C90 C 0.20519 0.78981 0.23973
 C91 C 0.25494 0.67739 0.27159
 C92 C 0.28776 0.71170 0.24346
 H93 H 0.24079 0.74868 0.38221
 H94 H 0.29649 0.80762 0.23200
 H95 H 0.12792 0.75539 0.26184
 H96 H 0.25683 0.62997 0.26508
 O97 O 1.09797 0.01965 0.06155
 O98 O 0.90334 -0.02699 0.05920
 O99 O 0.96956 0.09970 0.06157
 O100 O 1.03916 -0.10706 0.05782
 O101 O 0.89092 0.07601 0.03364
 O102 O 1.11550 -0.08022 0.02851
 O103 O 0.94255 -0.11004 0.02879
 O104 O 1.06302 0.10406 0.03242
 C105 C 1.09061 0.07420 0.06697
 C106 C 0.91118 -0.08197 0.06244
 C107 C 0.91822 0.09713 0.06892
 C108 C 1.09060 -0.10291 0.06434
 O109 O 1.10091 -0.03754 -0.06993
 O110 O 0.90168 0.04283 -0.06826
 O111 O 1.02754 0.09743 -0.06834
 O112 O 0.97634 -0.10012 -0.07156
 O113 O 0.89642 -0.05715 -0.04193
 O114 O 1.10776 0.05772 -0.03814
 O115 O 1.07504 -0.11829 -0.04410
 O116 O 0.93015 0.11984 -0.03731
 Co117 Co 1.09539 -0.00929 -0.00434
 Co118 Co 0.90819 0.00793 -0.00442
 Co119 Co 0.99797 0.09448 -0.00332
 Co120 Co 1.00799 -0.09833 -0.00693
 O121 O 1.00223 -0.00143 -0.00478
 C122 C 1.09807 -0.09037 -0.07822
 C123 C 0.90445 0.09649 -0.07238
 C124 C 1.08055 0.08855 -0.07222
 C125 C 0.92334 -0.08891 -0.07592
 O126 O 1.11387 0.55295 0.51064
 O127 O 0.89058 0.47257 0.56299
 O128 O 0.94930 0.59244 0.57163
 O129 O 1.05118 0.38859 0.54181
 O130 O 0.87289 0.58167 0.53436
 O131 O 1.08726 0.46740 0.55675
 O132 O 0.94492 0.39154 0.53434
 O133 O 1.04351 0.57838 0.55953
 C134 C 1.09419 0.58182 0.54907
 C135 C 0.90769 0.41750 0.56664
 C136 C 0.89695 0.59814 0.57305
 C137 C 1.08264 0.41604 0.56923
 O138 O 1.13697 0.44212 0.46877
 O139 O 0.88276 0.54970 0.43969
 O140 O 1.03402 0.60682 0.45608
 O141 O 0.95839 0.41105 0.42813
 O142 O 0.88117 0.44395 0.46732
 O143 O 1.07165 0.52233 0.42401
 O144 O 1.05904 0.41125 0.43773
 O145 O 0.92958 0.62207 0.46502
 Co146 Co 1.07465 0.49217 0.49044
 Co147 Co 0.89205 0.51136 0.50098
 Co148 Co 0.98849 0.59321 0.51168
 Co149 Co 1.00204 0.40946 0.48699
 O150 O 0.98668 0.50426 0.49852
 C151 C 1.11380 0.40509 0.43947
 C152 C 0.89694 0.60030 0.43267
 C153 C 1.06361 0.57800 0.42109
 C154 C 0.90539 0.41689 0.42985
 O155 O 0.61069 0.05702 0.53898
 O156 O 0.39967 -0.05914 0.54077
 O157 O 0.43282 0.11787 0.53744
 O158 O 0.57795 -0.11931 0.54590
 O159 O 0.40366 0.04063 0.56750
 O160 O 0.60350 -0.03833 0.57147
 O161 O 0.47916 -0.10049 0.57205
 O162 O 0.53022 0.09683 0.56863
 C163 C 0.58326 0.08811 0.57291
 C164 C 0.42617 -0.08963 0.57564
 C165 C 0.40709 0.09407 0.57222
 C166 C 0.60112 -0.09128 0.57993
 O167 O 0.61905 -0.08176 0.47321
 O168 O 0.39378 0.07427 0.46614
 O169 O 0.56585 0.10238 0.46796
 O170 O 0.44642 -0.11196 0.47095
 O171 O 0.40770 -0.02898 0.43997
 O172 O 0.60191 0.01793 0.43953
 O173 O 0.54280 -0.10808 0.44345
 O174 O 0.47217 0.09873 0.43839
 Co175 Co 0.59862 -0.01051 0.50556
 Co176 Co 0.41133 0.00599 0.50376
 Co177 Co 0.50071 0.09336 0.50349
 Co178 Co 0.51127 -0.09938 0.50774
 O179 O 0.50533 -0.00269 0.50517
 C180 C 0.59426 -0.10435 0.43729
 C181 C 0.42081 0.09599 0.43101
 C182 C 0.59338 0.07239 0.43346
 C183 C 0.41502 -0.08404 0.43712
 O184 O 0.57612 0.52108 0.07449
 O185 O 0.38488 0.44309 0.03354
 O186 O 0.43361 0.62104 0.03606
 O187 O 0.56287 0.41023 0.06048
 O188 O 0.38750 0.54840 0.06199
 O189 O 0.64075 0.44090 0.02907
 O190 O 0.46253 0.40932 0.07148
 O191 O 0.53799 0.60572 0.04305
 C192 C 0.56755 0.57666 0.07783
 C193 C 0.40945 0.41531 0.07045
 C194 C 0.40111 0.59927 0.06870
 C195 C 0.61755 0.40384 0.05836
 O196 O 0.59026 0.46685 -0.05862
 O197 O 0.37619 0.58147 -0.03229
 O198 O 0.54624 0.57823 -0.06067
 O199 O 0.44768 0.39126 -0.03459
 O200 O 0.39310 0.47280 -0.06188
 O201 O 0.61726 0.55253 -0.01265
 O202 O 0.55409 0.38806 -0.04357
 O203 O 0.45182 0.59157 -0.07108
 Co204 Co 0.57837 0.49141 0.00799
 Co205 Co 0.39562 0.51082 0.00028
 Co206 Co 0.49182 0.59244 -0.01180
 Co207 Co 0.50547 0.40857 0.01199
 O208 O 0.49023 0.50343 0.00115
 C209 C 0.58553 0.41547 -0.07119
 C210 C 0.39951 0.59733 -0.07158
 C211 C 0.59724 0.58155 -0.05102
 C212 C 0.40984 0.41769 -0.06605
 C213 C 1.18404 0.16429 0.16688
 C214 C 1.13282 0.20278 0.14101
 C215 C 1.10146 0.17225 0.10932
 C216 C 1.12393 0.10539 0.10557
 C217 C 1.18729 0.10217 0.08962
 C218 C 1.21870 0.13258 0.12157
 C219 C 1.15701 0.11449 0.19450
 C220 C 1.12546 0.08349 0.16220
 H221 H 1.12135 0.25003 0.14804
 H222 H 1.06300 0.19379 0.08992
 H223 H 1.20612 0.07748 0.05621
 H224 H 1.26438 0.13360 0.11545
 H225 H 1.16219 0.10466 0.23567
 H226 H 1.10375 0.04718 0.17568
 C227 C 1.18149 0.67694 0.64764
 C228 C 1.22133 0.62792 0.61815
 C229 C 1.19316 0.59567 0.58474
 C230 C 1.12806 0.61530 0.58411
 C231 C 1.10902 0.61155 0.64130
 C232 C 1.13669 0.64418 0.67441
 C233 C 1.14816 0.71424 0.60472
 C234 C 1.12033 0.68182 0.57133
 H235 H 1.26769 0.61930 0.62342
 H236 H 1.21512 0.55957 0.56149
 H237 H 1.07696 0.58488 0.65479
 H238 H 1.12806 0.64585 0.71591
 H239 H 1.14736 0.76184 0.60049
 H240 H 1.09628 0.70158 0.53813
 C241 C 0.67343 0.18685 0.66806
 C242 C 0.70915 0.13783 0.64146
 C243 C 0.67734 0.10312 0.60963
 C244 C 0.61527 0.12355 0.60943
 C245 C 0.59791 0.12339 0.66392
 C246 C 0.63008 0.15836 0.69652
 C247 C 0.64085 0.22082 0.62652
 C248 C 0.60920 0.18590 0.59432
 H249 H 0.75543 0.12679 0.64650
 H250 H 0.69812 0.06346 0.59013
 H251 H 0.56455 0.09922 0.67878
 H252 H 0.62281 0.16257 0.73816
 H253 H 0.63988 0.26823 0.62046
 H254 H 0.58297 0.20485 0.56205
 C255 C 0.67065 0.67273 0.16433
 C256 C 0.70266 0.63142 0.12353
 C257 C 0.66806 0.59911 0.09650
 C258 C 0.60401 0.61051 0.11234
 C259 C 0.60409 0.59860 0.17101
 C260 C 0.63894 0.63117 0.19835
 C261 C 0.62231 0.71049 0.13405
 C262 C 0.58751 0.67843 0.10747
 H263 H 0.74878 0.62739 0.11687
 H264 H 0.68525 0.56751 0.06700
 H265 H 0.57916 0.56757 0.18941
 H266 H 0.64366 0.62775 0.24027
 H267 H 0.61537 0.75870 0.13425
 H268 H 0.55068 0.70000 0.08580
 C269 C 0.81078 -0.17428 0.15669
 C270 C 0.86196 -0.21302 0.13095
 C271 C 0.89546 -0.18246 0.10085
 C272 C 0.87535 -0.11504 0.09867
 C273 C 0.81224 -0.10929 0.08124
 C274 C 0.77865 -0.13965 0.11143
 C275 C 0.83836 -0.12640 0.18651
 C276 C 0.87224 -0.09559 0.15611
 H277 H 0.87167 -0.26066 0.13676
 H278 H 0.93370 -0.20440 0.08136
 H279 H 0.79506 -0.08266 0.04830
 H280 H 0.73284 -0.13818 0.10427
 H281 H 0.83103 -0.11611 0.22732
 H282 H 0.89386 -0.06006 0.17134
 C283 C 0.81905 0.32233 0.66950
 C284 C 0.86361 0.28345 0.63528
 C285 C 0.89362 0.31429 0.60205
 C286 C 0.87743 0.38192 0.60562
 C287 C 0.81198 0.39274 0.59741
 C288 C 0.78178 0.36268 0.63074
 C289 C 0.85494 0.36489 0.69730
 C290 C 0.88532 0.39614 0.66376
 H291 H 0.87174 0.23533 0.63784
 H292 H 0.92682 0.29227 0.57652
 H293 H 0.79078 0.42266 0.56822
 H294 H 0.73501 0.36776 0.62997
 H295 H 0.85703 0.37027 0.73910
 H296 H 0.91282 0.42760 0.67732
 C297 C 0.33142 -0.18940 0.66474
 C298 C 0.29593 -0.13664 0.63743
 C299 C 0.32776 -0.10284 0.60950
 C300 C 0.39295 -0.12454 0.61104
 C301 C 0.40801 -0.12715 0.66946
 C302 C 0.37547 -0.16146 0.69793
 C303 C 0.36832 -0.22340 0.62193
 C304 C 0.39962 -0.18946 0.59364
 H305 H 0.24952 -0.12558 0.64129
 H306 H 0.30814 -0.06275 0.58993
 H307 H 0.44136 -0.10474 0.68664
 H308 H 0.38149 -0.16857 0.73938
 H309 H 0.37090 -0.27088 0.61535
 H310 H 0.42802 -0.20786 0.56261
 C311 C 0.31575 0.32013 0.16631
 C312 C 0.35947 0.28226 0.13106
 C313 C 0.39038 0.31427 0.09997
 C314 C 0.37564 0.38160 0.10691
 C315 C 0.31009 0.39485 0.09836
 C316 C 0.27908 0.36305 0.12939
 C317 C 0.35205 0.36020 0.19674
 C318 C 0.38357 0.39237 0.16541
 H319 H 0.36587 0.23403 0.13093
 H320 H 0.42283 0.29338 0.07317
 H321 H 0.28933 0.42776 0.07135
 H322 H 0.23230 0.36907 0.12869
 H323 H 0.35238 0.36453 0.23868
 H324 H 0.41063 0.42331 0.18076
 C325 C 0.81149 0.19483 -0.18687
 C326 C 0.77564 0.16108 -0.14978
 C327 C 0.80680 0.12915 -0.11229
 C328 C 0.87139 0.13342 -0.11424
 C329 C 0.89019 0.11484 -0.16965
 C330 C 0.85918 0.14687 -0.20746
 C331 C 0.84334 0.23293 -0.15013
 C332 C 0.87470 0.20073 -0.11234
 H333 H 0.72938 0.16190 -0.15271
 H334 H 0.78703 0.10337 -0.08357
 H335 H 0.92550 0.08005 -0.17842
 H336 H 0.86831 0.13927 -0.24852
 H337 H 0.84119 0.28073 -0.15202
 H338 H 0.89898 0.22155 -0.08338
 C339 C 0.82211 0.68491 0.30315
 C340 C 0.78000 0.66817 0.34460
 C341 C 0.80556 0.64209 0.38757
 C342 C 0.87152 0.63414 0.38589
 C343 C 0.88784 0.60037 0.33498
 C344 C 0.86221 0.62686 0.29189
 C345 C 0.86094 0.72350 0.33250
 C346 C 0.88671 0.69687 0.37601
 H347 H 0.73375 0.67430 0.33977
 H348 H 0.78086 0.62741 0.41964
 H349 H 0.91809 0.55966 0.33290
 H350 H 0.87074 0.60880 0.25313
 H351 H 0.86967 0.76669 0.31950
 H352 H 0.91634 0.71773 0.39991
 C353 C 0.33886 0.17127 0.30205
 C354 C 0.38146 0.20907 0.32647
 C355 C 0.40826 0.18433 0.36973
 C356 C 0.39090 0.12363 0.38403
 C357 C 0.32506 0.13475 0.38923
 C358 C 0.29804 0.15960 0.34648
 C359 C 0.37551 0.11081 0.29158
 C360 C 0.40268 0.08581 0.33468
 H361 H 0.39246 0.24987 0.30989
 H362 H 0.44071 0.20486 0.39041
 H363 H 0.30142 0.12399 0.42346
 H364 H 0.25148 0.16934 0.34424
 H365 H 0.38068 0.09012 0.25352
 H366 H 0.43074 0.04359 0.33358
 C367 C 0.30742 0.67695 -0.19290
 C368 C 0.28398 0.62143 -0.17159
 C369 C 0.31528 0.59452 -0.13173
 C370 C 0.36619 0.62609 -0.11598
 C371 C 0.40160 0.62928 -0.16607
 C372 C 0.37070 0.65602 -0.20625
 C373 C 0.30894 0.71718 -0.14494
 C374 C 0.33988 0.69042 -0.10461
 H375 H 0.24435 0.60632 -0.18422
 H376 H 0.30324 0.55597 -0.11182
 H377 H 0.44695 0.61185 -0.16983
 H378 H 0.38957 0.66169 -0.24419
 H379 H 0.28659 0.76211 -0.14207
 H380 H 0.34438 0.71263 -0.06777
 C381 C 1.17796 -0.17211 -0.20667
 C382 C 1.12044 -0.13292 -0.21875
 C383 C 1.09384 -0.10618 -0.17597
 C384 C 1.12714 -0.12076 -0.12505
 C385 C 1.13657 -0.18886 -0.12200
 C386 C 1.16305 -0.21553 -0.16453
 C387 C 1.21363 -0.12997 -0.17844
 C388 C 1.18732 -0.10367 -0.13552
 H389 H 1.10267 -0.12593 -0.25758
 H390 H 1.05319 -0.07686 -0.17824
 H391 H 1.12375 -0.21416 -0.08925
 H392 H 1.17256 -0.26349 -0.16794
 H393 H 1.25461 -0.11901 -0.19215
 H394 H 1.20663 -0.07170 -0.11242
 C395 C 1.19556 0.30636 0.32030
 C396 C 1.23857 0.32811 0.35914
 C397 C 1.21279 0.36126 0.39937
 C398 C 1.14668 0.36905 0.39737
 C399 C 1.13124 0.39553 0.34332
 C400 C 1.15667 0.36288 0.30328
 C401 C 1.15723 0.27282 0.35488
 C402 C 1.13185 0.30547 0.39495
 H403 H 1.28490 0.31609 0.35748
 H404 H 1.23716 0.37794 0.43064
 H405 H 1.10322 0.43716 0.33711
 H406 H 1.15030 0.37653 0.26299
 H407 H 1.15208 0.22651 0.34956
 H408 H 1.10556 0.28673 0.42356
 C409 C 0.67933 -0.18163 0.30981
 C410 C 0.63233 -0.12954 0.29677
 C411 C 0.60460 -0.10353 0.33920
 C412 C 0.62641 -0.13175 0.39101
 C413 C 0.62094 -0.19767 0.38568
 C414 C 0.64835 -0.22370 0.34350
 C415 C 0.71954 -0.15542 0.34816
 C416 C 0.69177 -0.12923 0.39061
 H417 H 0.62213 -0.11411 0.25746
 H418 H 0.57069 -0.06594 0.33620
 H419 H 0.59660 -0.22172 0.41230
 H420 H 0.64613 -0.26979 0.33407
 H421 H 0.76569 -0.15760 0.34361
 H422 H 0.71448 -0.10916 0.42118
 C423 C 0.67821 0.33734 -0.19605
 C424 C 0.62480 0.38171 -0.21134
 C425 C 0.59396 0.40725 -0.17018
 C426 C 0.61901 0.38675 -0.11707
 C427 C 0.62363 0.31881 -0.11817
 C428 C 0.65447 0.29320 -0.15896
 C429 C 0.71287 0.37388 -0.16052
 C430 C 0.68204 0.39919 -0.11917
 H431 H 0.61274 0.39281 -0.25130
 H432 H 0.55566 0.43961 -0.17502
 H433 H 0.60412 0.29279 -0.08948
 H434 H 0.66034 0.24555 -0.16493
 H435 H 0.75677 0.38162 -0.16755
 H436 H 0.70038 0.42715 -0.09132
 C437 C 1.17207 0.18689 -0.16572
 C438 C 1.13627 0.22265 -0.12322
 C439 C 1.10553 0.18953 -0.09309
 C440 C 1.11276 0.12365 -0.10814
 C441 C 1.09664 0.12282 -0.16592
 C442 C 1.12785 0.15601 -0.19629
 C443 C 1.20906 0.13624 -0.13670
 C444 C 1.17829 0.10317 -0.10689
 H445 H 1.13512 0.27010 -0.11748
 H446 H 1.07831 0.20870 -0.06154
 H447 H 1.06395 0.09833 -0.18153
 H448 H 1.12185 0.15987 -0.23807
 H449 H 1.25559 0.12651 -0.14015
 H450 H 1.19900 0.06491 -0.08546
 C451 C 1.16889 0.67377 0.33564
 C452 C 1.12176 0.71168 0.36727
 C453 C 1.08633 0.67987 0.39351
 C454 C 1.10092 0.61192 0.38701
 C455 C 1.09997 0.60194 0.32808
 C456 C 1.13546 0.63423 0.30113
 C457 C 1.20043 0.63052 0.37524
 C458 C 1.16519 0.59842 0.40191
 H459 H 1.11615 0.75987 0.36831
 H460 H 1.05038 0.70169 0.41616
 H461 H 1.07393 0.57229 0.30923
 H462 H 1.13956 0.63191 0.25910
 H463 H 1.24667 0.62511 0.38141
 H464 H 1.18209 0.56567 0.43055
 C465 C 0.68441 0.16368 0.33274
 C466 C 0.71922 0.13414 0.37891
 C467 C 0.68856 0.10323 0.41105
 C468 C 0.62578 0.10378 0.39443
 C469 C 0.60110 0.16999 0.38927
 C470 C 0.63172 0.20107 0.35736
 C471 C 0.65975 0.11204 0.30568
 C472 C 0.62896 0.08046 0.33822
 H473 H 0.76454 0.13687 0.38542
 H474 H 0.70761 0.07980 0.44500
 H475 H 0.56169 0.19058 0.40780
 H476 H 0.61872 0.24788 0.34928
 H477 H 0.66586 0.10149 0.26472
 H478 H 0.60880 0.04291 0.32518
 C479 C 0.68464 0.67811 -0.14983
 C480 C 0.65211 0.71341 -0.10902
 C481 C 0.62286 0.67893 -0.07418
 C482 C 0.63101 0.61575 -0.08658
 C483 C 0.61321 0.61183 -0.14095
 C484 C 0.64232 0.64646 -0.17566
 C485 C 0.72272 0.63157 -0.12154
 C486 C 0.69298 0.59740 -0.08663
 H487 H 0.65104 0.76103 -0.10430
 H488 H 0.59917 0.69824 -0.04058
 H489 H 0.58210 0.58416 -0.15468
 H490 H 0.63413 0.64763 -0.21725
 H491 H 0.76913 0.62273 -0.12669
 H492 H 0.71486 0.56099 -0.06365
 C493 C 0.82961 -0.18823 -0.16778
 C494 C 0.86758 -0.22294 -0.12587
 C495 C 0.89829 -0.18924 -0.09665
 C496 C 0.89032 -0.12369 -0.11215
 C497 C 0.90493 -0.12399 -0.17069
 C498 C 0.87302 -0.15807 -0.20013
 C499 C 0.79353 -0.13692 -0.13886
 C500 C 0.82487 -0.10348 -0.10995
 H501 H 0.87139 -0.27073 -0.12060
 H502 H 0.92732 -0.20824 -0.06630
 H503 H 0.93787 -0.10050 -0.18727
 H504 H 0.87960 -0.16375 -0.24167
 H505 H 0.74701 -0.12652 -0.14223
 H506 H 0.80463 -0.06457 -0.08908
 C507 C 0.81233 0.32210 0.33374
 C508 C 0.85671 0.28419 0.36827
 C509 C 0.88730 0.31616 0.39954
 C510 C 0.87160 0.38349 0.39343
 C511 C 0.87894 0.39542 0.33505
 C512 C 0.84770 0.36329 0.30355
 C513 C 0.77537 0.36398 0.37134
 C514 C 0.80612 0.39576 0.40258
 H515 H 0.86368 0.23596 0.36785
 H516 H 0.92008 0.29524 0.42600
 H517 H 0.90519 0.42727 0.31993
 H518 H 0.84730 0.36862 0.26168
 H519 H 0.72861 0.36940 0.37230
 H520 H 0.78523 0.42804 0.43008
 C521 C 0.31284 -0.17575 0.34337
 C522 C 0.36353 -0.21497 0.36944
 C523 C 0.39757 -0.18474 0.39937
 C524 C 0.37855 -0.11711 0.40112
 C525 C 0.37578 -0.09823 0.34352
 C526 C 0.34138 -0.12866 0.31332
 C527 C 0.28120 -0.14032 0.38847
 C528 C 0.31530 -0.11029 0.41846
 H529 H 0.37248 -0.26272 0.36403
 H530 H 0.43542 -0.20710 0.41913
 H531 H 0.39813 -0.06339 0.32799
 H532 H 0.33447 -0.11869 0.27241
 H533 H 0.23535 -0.13827 0.39577
 H534 H 0.29844 -0.08339 0.45135
 C535 C 0.31842 0.32469 -0.16710
 C536 C 0.36168 0.28663 -0.13646
 C537 C 0.39431 0.31835 -0.10197
 C538 C 0.37830 0.38266 -0.10444
 C539 C 0.38441 0.39785 -0.15945
 C540 C 0.35134 0.36569 -0.19431
 C541 C 0.28370 0.36209 -0.12908
 C542 C 0.31645 0.39291 -0.09450
 H543 H 0.37070 0.23869 -0.14083
 H544 H 0.42926 0.29598 -0.07850
 H545 H 0.41146 0.42973 -0.17311
 H546 H 0.35194 0.37221 -0.23602
 H547 H 0.23688 0.36824 -0.12786
 H548 H 0.29612 0.42260 -0.06470
 C549 C 1.17747 -0.17929 0.19164
 C550 C 1.12851 -0.12917 0.20506
 C551 C 1.10006 -0.10351 0.16281
 C552 C 1.12310 -0.13002 0.11075
 C553 C 1.18800 -0.12466 0.11170
 C554 C 1.21646 -0.15045 0.15398
 C555 C 1.14857 -0.22229 0.15719
 C556 C 1.12037 -0.19659 0.11522
 H557 H 1.11760 -0.11469 0.24450
 H558 H 1.06487 -0.06720 0.16613
 H559 H 1.20984 -0.10248 0.08182
 H560 H 1.26220 -0.14994 0.15923
 H561 H 1.14806 -0.26879 0.16620
 H562 H 1.09711 -0.22130 0.08828
 C563 C 1.17442 0.33871 0.69399
 C564 C 1.15022 0.29435 0.65758
 C565 C 1.11956 0.31972 0.61668
 C566 C 1.11588 0.38756 0.61496
 C567 C 1.09105 0.40914 0.66785
 C568 C 1.12161 0.38378 0.70912
 C569 C 1.20979 0.37385 0.65807
 C570 C 1.17923 0.39911 0.61660
 H571 H 1.15625 0.24672 0.66386
 H572 H 1.10000 0.29358 0.58815
 H573 H 1.05304 0.44194 0.67247
 H574 H 1.10976 0.39531 0.74904
 H575 H 1.25428 0.37977 0.66466
 H576 H 1.19814 0.42582 0.58804
 C577 C 0.68346 -0.17299 0.70821
 C578 C 0.66986 -0.21630 0.66536
 C579 C 0.64273 -0.18966 0.62305
 C580 C 0.63110 -0.12165 0.62676
 C581 C 0.59756 -0.10900 0.67785
 C582 C 0.62488 -0.13557 0.72043
 C583 C 0.71741 -0.12871 0.68043
 C584 C 0.69041 -0.10264 0.63768
 H585 H 0.68004 -0.26422 0.66829
 H586 H 0.63043 -0.21499 0.59013
 H587 H 0.55627 -0.08081 0.68043
 H588 H 0.60691 -0.12933 0.75929
 H589 H 0.75744 -0.11574 0.69451
 H590 H 0.70845 -0.06921 0.61523
 C591 C 0.69677 0.30493 0.17827
 C592 C 0.65812 0.27192 0.14370
 C593 C 0.63383 0.30461 0.10325
 C594 C 0.64991 0.36773 0.10055
 C595 C 0.63440 0.39492 0.15435
 C596 C 0.65878 0.36219 0.19473
 C597 C 0.74074 0.32538 0.13951
 C598 C 0.71599 0.35866 0.09892
 H599 H 0.65223 0.22582 0.14911
 H600 H 0.60780 0.28602 0.07438
 H601 H 0.60714 0.43710 0.16016
 H602 H 0.65225 0.37627 0.23490
 H603 H 0.78692 0.31230 0.14147
 H604 H 0.74102 0.37447 0.06766
 C605 C 0.83877 0.17217 0.19882
 C606 C 0.87979 0.21058 0.17282
 C607 C 0.90559 0.18584 0.12917
 C608 C 0.88900 0.12448 0.11616
 C609 C 0.90295 0.08736 0.16564
 C610 C 0.87669 0.11243 0.20914
 C611 C 0.79698 0.15902 0.15562
 C612 C 0.82310 0.13414 0.11250
 H613 H 0.89072 0.25176 0.18867
 H614 H 0.93701 0.20676 0.10741
 H615 H 0.93164 0.04554 0.16650
 H616 H 0.88325 0.09224 0.24731
 H617 H 0.75044 0.16740 0.15908
 H618 H 0.79877 0.12209 0.07918
 C619 C 0.80813 0.68381 0.69430
 C620 C 0.86857 0.65349 0.70903
 C621 C 0.89805 0.62470 0.66892
 C622 C 0.86451 0.62899 0.61737
 C623 C 0.80800 0.60530 0.62965
 C624 C 0.77811 0.63429 0.66938
 C625 C 0.81745 0.72460 0.64799
 C626 C 0.84724 0.69574 0.60788
 H627 H 0.88669 0.65453 0.74784
 H628 H 0.94124 0.60092 0.67361
 H629 H 0.79178 0.57025 0.60786
 H630 H 0.73567 0.62446 0.68021
 H631 H 0.79975 0.77110 0.64504
 H632 H 0.85572 0.71793 0.57187
 C633 C 0.31582 0.19085 0.68789
 C634 C 0.27882 0.16218 0.64831
 C635 C 0.30948 0.13062 0.61030
 C636 C 0.37469 0.13039 0.61453
 C637 C 0.38243 0.19672 0.61608
 C638 C 0.35161 0.22838 0.65447
 C639 C 0.36001 0.13914 0.70773
 C640 C 0.39058 0.10757 0.66946
 H641 H 0.23220 0.16628 0.65005
 H642 H 0.28901 0.10814 0.57972
 H643 H 0.41007 0.21702 0.58964
 H644 H 0.35345 0.27527 0.66005
 H645 H 0.36721 0.12883 0.74864
 H646 H 0.42366 0.07034 0.67763
 C647 C 0.32168 0.68516 0.19621
 C648 C 0.28111 0.66758 0.15387
 C649 C 0.30823 0.64112 0.11169
 C650 C 0.37417 0.63365 0.11488
 C651 C 0.38848 0.69671 0.12474
 C652 C 0.36112 0.72373 0.16745
 C653 C 0.36183 0.62748 0.20871
 C654 C 0.38905 0.60065 0.16641
 H655 H 0.23469 0.67380 0.15738
 H656 H 0.28467 0.62607 0.07905
 H657 H 0.41861 0.71757 0.10137
 H658 H 0.36898 0.76727 0.18025
 H659 H 0.36922 0.60989 0.24775
 H660 H 0.41948 0.56017 0.16949
   
