data_POSCAR
  _audit_creation_date              2014-09-24
  _audit_creation_method            'ToBaCCo'
  _symmetry_space_group_name_H-M    'P1'
  _symmetry_Int_Tables_number       1
  _symmetry_cell_setting            triclinic
  loop_
  _symmetry_equiv_pos_as_xyz
 x,y,z
_cell_length_a 14.9145
_cell_length_b 15.0446
_cell_length_c 14.9145
_cell_angle_alpha 89.958500
_cell_angle_beta 89.978800
_cell_angle_gamma 90.041500
loop_
  _atom_site_label
  _atom_site_type_symbol
  _atom_site_fract_x
  _atom_site_fract_y
  _atom_site_fract_z
C1 C 1.25019 0.24996 0.24991
 C2 C 0.74989 -0.24992 0.24976
 C3 C 0.75055 0.25015 -0.25045
 C4 C 1.25034 -0.24992 -0.24979
 C5 C 0.25011 0.25016 0.75039
 C6 C 0.75027 0.75015 0.74983
 C7 C 0.74971 0.25016 0.24999
 C8 C 0.25113 0.74788 0.24897
 N9 N 1.15957 0.09230 0.09738
 N10 N 1.22246 0.15110 0.11613
 N11 N 1.09540 -0.09428 0.16020
 N12 N 1.11316 -0.15641 0.22722
 N13 N 1.15905 -0.09485 0.09915
 N14 N 1.22221 -0.15362 0.11865
 N15 N 1.09697 0.09290 0.15924
 N16 N 1.11566 0.15212 0.22168
 C17 C 1.19302 0.18972 0.19273
 C18 C 1.19505 -0.19467 0.19524
 N19 N 0.84087 -0.09269 0.09674
 N20 N 0.77797 -0.15152 0.11553
 N21 N 0.90379 0.09410 0.15853
 N22 N 0.88443 0.15249 0.22158
 N23 N 0.84152 0.09392 0.09634
 N24 N 0.77833 0.15225 0.11546
 N25 N 0.90283 -0.09254 0.15920
 N26 N 0.88378 -0.15130 0.22202
 Mn27 Mn 0.99983 0.00017 0.16006
 C28 C 0.80684 -0.18935 0.19276
 C29 C 0.80715 0.19017 0.19264
 N30 N 1.15877 -0.09466 -0.09518
 N31 N 1.22175 -0.15306 -0.11462
 N32 N 1.09734 0.09261 -0.15797
 N33 N 1.11595 0.15172 -0.22069
 N34 N 1.15987 0.09218 -0.09600
 N35 N 1.22264 0.15113 -0.11517
 N36 N 1.09677 -0.09402 -0.15769
 N37 N 1.11600 -0.15205 -0.22109
 Mn38 Mn 1.16021 -0.00132 0.00131
 C39 C 1.19297 -0.19024 -0.19219
 C40 C 1.19320 0.18957 -0.19204
 N41 N 0.84187 0.09361 -0.09656
 N42 N 0.77892 0.15214 -0.11586
 N43 N 0.90379 -0.09340 -0.15834
 N44 N 0.88481 -0.15196 -0.22135
 N45 N 0.84130 -0.09319 -0.09635
 N46 N 0.77817 -0.15161 -0.11567
 N47 N 0.90420 0.09344 -0.15870
 N48 N 0.88513 0.15188 -0.22194
 Mn49 Mn 0.84057 0.00036 0.00005
 Mn50 Mn 1.00056 -0.00032 -0.15898
 Cl51 Cl 1.00035 -0.00032 0.00062
 C52 C 0.80790 0.18988 -0.19314
 C53 C 0.80737 -0.18962 -0.19271
 N54 N 1.15959 0.59404 0.59580
 N55 N 1.22260 0.65250 0.61531
 N56 N 1.09704 0.40714 0.65824
 N57 N 1.11577 0.34847 0.72134
 N58 N 1.15948 0.40717 0.59616
 N59 N 1.22227 0.34845 0.61559
 N60 N 1.09720 0.59381 0.65795
 N61 N 1.11612 0.65212 0.72118
 C62 C 1.19339 0.69006 0.69257
 C63 C 1.19297 0.31046 0.69274
 N64 N 0.84187 0.40714 0.59603
 N65 N 0.77888 0.34846 0.61510
 N66 N 0.90422 0.59399 0.65809
 N67 N 0.88497 0.65235 0.72123
 N68 N 0.84201 0.59399 0.59588
 N69 N 0.77887 0.65235 0.61513
 N70 N 0.90407 0.40714 0.65823
 N71 N 0.88500 0.34846 0.72122
 Mn72 Mn 1.00066 0.50053 0.65890
 C73 C 0.80783 0.31050 0.69227
 C74 C 0.80772 0.69015 0.69238
 N75 N 1.15959 0.40730 0.40275
 N76 N 1.22221 0.34828 0.38403
 N77 N 1.09832 0.59418 0.33951
 N78 N 1.11864 0.65147 0.27541
 N79 N 1.16059 0.59418 0.40178
 N80 N 1.22469 0.65147 0.38146
 N81 N 1.09735 0.40730 0.34051
 N82 N 1.11607 0.34828 0.27789
 Mn83 Mn 1.16066 0.50071 0.49915
 C84 C 1.19300 0.31015 0.30710
 C85 C 1.19665 0.68902 0.30345
 N86 N 0.84215 0.59381 0.40290
 N87 N 0.77892 0.65212 0.38398
 N88 N 0.90394 0.40717 0.34062
 N89 N 0.88451 0.34845 0.27783
 N90 N 0.84186 0.40714 0.40306
 N91 N 0.77876 0.34847 0.38433
 N92 N 0.90430 0.59404 0.34051
 N93 N 0.88479 0.65250 0.27750
 Mn94 Mn 0.84120 0.50053 0.49944
 Mn95 Mn 1.00095 0.50071 0.33944
 Cl96 Cl 1.00095 0.50072 0.49915
 C97 C 0.80753 0.69006 0.30671
 C98 C 0.80736 0.31046 0.30713
 N99 N 0.65880 0.09344 0.59590
 N100 N 0.72204 0.15188 0.61497
 N101 N 0.59645 -0.09319 0.65880
 N102 N 0.61577 -0.15161 0.72193
 N103 N 0.65843 -0.09340 0.59631
 N104 N 0.72145 -0.15196 0.61529
 N105 N 0.59666 0.09361 0.65823
 N106 N 0.61596 0.15214 0.72118
 C107 C 0.69324 0.18988 0.69220
 C108 C 0.69281 -0.18962 0.69273
 N109 N 0.34090 -0.09254 0.59727
 N110 N 0.27808 -0.15130 0.61632
 N111 N 0.40376 0.09392 0.65858
 N112 N 0.38464 0.15225 0.72177
 N113 N 0.34157 0.09410 0.59631
 N114 N 0.27852 0.15249 0.61567
 N115 N 0.40336 -0.09269 0.65923
 N116 N 0.38457 -0.15152 0.72213
 Mn117 Mn 0.50005 0.00036 0.65953
 C118 C 0.30734 -0.18935 0.69326
 C119 C 0.30746 0.19017 0.69295
 N120 N 0.65779 -0.09402 0.40333
 N121 N 0.72119 -0.15205 0.38410
 N122 N 0.59610 0.09218 0.34023
 N123 N 0.61527 0.15113 0.27746
 N124 N 0.65807 0.09261 0.40276
 N125 N 0.72079 0.15172 0.38415
 N126 N 0.59528 -0.09466 0.34133
 N127 N 0.61472 -0.15306 0.27835
 Mn128 Mn 0.65908 -0.00032 0.49954
 C129 C 0.69229 -0.19024 0.30713
 C130 C 0.69214 0.18957 0.30690
 N131 N 0.34086 0.09290 0.40313
 N132 N 0.27842 0.15212 0.38444
 N133 N 0.40095 -0.09485 0.34105
 N134 N 0.38145 -0.15362 0.27789
 N135 N 0.33990 -0.09428 0.40470
 N136 N 0.27288 -0.15641 0.38694
 N137 N 0.40272 0.09230 0.34053
 N138 N 0.38397 0.15110 0.27764
 Mn139 Mn 0.34004 0.00017 0.50027
 Mn140 Mn 0.49879 -0.00132 0.33989
 Cl141 Cl 0.49948 -0.00032 0.49975
 C142 C 0.30737 0.18972 0.30708
 C143 C 0.30486 -0.19467 0.30505
 N144 N 0.65874 0.59347 0.09643
 N145 N 0.72189 0.65191 0.11548
 N146 N 0.59623 0.40712 0.15905
 N147 N 0.61536 0.34853 0.22207
 N148 N 0.65836 0.40690 0.09666
 N149 N 0.72122 0.34820 0.11561
 N150 N 0.59639 0.59373 0.15860
 N151 N 0.61552 0.65230 0.22147
 C152 C 0.69284 0.68991 0.19253
 C153 C 0.69238 0.31044 0.19290
 N154 N 0.34086 0.40752 0.09703
 N155 N 0.27821 0.34842 0.11575
 N156 N 0.40311 0.59456 0.15922
 N157 N 0.38380 0.65305 0.22235
 N158 N 0.34088 0.59456 0.09699
 N159 N 0.27775 0.65305 0.11630
 N160 N 0.40307 0.40752 0.15924
 N161 N 0.38435 0.34842 0.22189
 Mn162 Mn 0.49971 0.50073 0.15988
 C163 C 0.30739 0.31026 0.19271
 C164 C 0.30647 0.69131 0.19363
 N165 N 0.65875 0.40649 -0.09644
 N166 N 0.72194 0.34816 -0.11574
 N167 N 0.59673 0.59330 -0.15885
 N168 N 0.61588 0.65185 -0.22191
 N169 N 0.65895 0.59330 -0.09664
 N170 N 0.72201 0.65185 -0.11578
 N171 N 0.59654 0.40649 -0.15865
 N172 N 0.61584 0.34816 -0.22184
 Mn173 Mn 0.65953 0.50005 0.00003
 C174 C 0.69314 0.31037 -0.19304
 C175 C 0.69309 0.68971 -0.19299
 N176 N 0.34150 0.59373 -0.09629
 N177 N 0.27863 0.65230 -0.11542
 N178 N 0.40344 0.40690 -0.15826
 N179 N 0.38450 0.34820 -0.22112
 N180 N 0.34105 0.40712 -0.09613
 N181 N 0.27803 0.34853 -0.11526
 N182 N 0.40367 0.59347 -0.15864
 N183 N 0.38462 0.65191 -0.22179
 Mn184 Mn 0.34022 0.50073 0.00039
 Mn185 Mn 0.50007 0.50005 -0.15943
 Cl186 Cl 0.49987 0.50041 0.00023
 C187 C 0.30757 0.68991 -0.19274
 C188 C 0.30720 0.31044 -0.19228
   
