data_POSCAR
  _audit_creation_date              2014-09-24
  _audit_creation_method            'ToBaCCo'
  _symmetry_space_group_name_H-M    'P1'
  _symmetry_Int_Tables_number       1
  _symmetry_cell_setting            triclinic
  loop_
  _symmetry_equiv_pos_as_xyz
 x,y,z
_cell_length_a 29.8916
_cell_length_b 30.4387
_cell_length_c 32.8131
_cell_angle_alpha 90.118300
_cell_angle_beta 90.261800
_cell_angle_gamma 90.068400
loop_
  _atom_site_label
  _atom_site_type_symbol
  _atom_site_fract_x
  _atom_site_fract_y
  _atom_site_fract_z
B1 B 0.26782 0.23988 0.28656
 B2 B 0.21476 0.22785 0.27391
 B3 B 0.22896 0.28041 0.28425
 B4 B 0.28177 0.28852 0.26630
 B5 B 0.29809 0.24015 0.24370
 B6 B 0.25602 0.20291 0.24913
 B7 B 0.22493 0.27080 0.20243
 B8 B 0.27861 0.28103 0.21527
 B9 B 0.26208 0.22916 0.20481
 B10 B 0.21026 0.22151 0.22291
 B11 B 0.19417 0.26938 0.24481
 B12 B 0.23645 0.30709 0.24012
 B13 B 0.73089 0.77566 0.29419
 B14 B 0.78452 0.77182 0.27896
 B15 B 0.75678 0.72664 0.29397
 B16 B 0.70330 0.73046 0.27796
 B17 B 0.69814 0.77930 0.25265
 B18 B 0.74875 0.80512 0.25383
 B19 B 0.75865 0.72851 0.21167
 B20 B 0.70502 0.73229 0.22686
 B21 B 0.73286 0.77752 0.21197
 B22 B 0.78627 0.77362 0.22795
 B23 B 0.79139 0.72477 0.25317
 B24 B 0.74085 0.69894 0.25206
 B25 B 0.73196 0.22161 -0.21960
 B26 B 0.71987 0.27465 -0.22845
 B27 B 0.77255 0.26041 -0.21648
 B28 B 0.78402 0.21183 -0.23791
 B29 B 0.73774 0.19559 -0.26444
 B30 B 0.69719 0.23472 -0.25849
 B31 B 0.76640 0.27324 -0.29775
 B32 B 0.78095 0.22059 -0.28856
 B33 B 0.72760 0.23320 -0.30117
 B34 B 0.71516 0.28240 -0.27919
 B35 B 0.76184 0.29852 -0.25275
 B36 B 0.80229 0.25995 -0.25947
 B37 B 0.28022 0.76466 -0.28450
 B38 B 0.22950 0.78375 -0.27054
 B39 B 0.23523 0.73204 -0.28909
 B40 B 0.28443 0.71142 -0.27128
 B41 B 0.30824 0.75133 -0.24178
 B42 B 0.27411 0.79599 -0.24192
 B43 B 0.22775 0.72749 -0.20713
 B44 B 0.27946 0.71018 -0.21998
 B45 B 0.27321 0.76157 -0.20224
 B46 B 0.22416 0.78144 -0.21961
 B47 B 0.20029 0.74186 -0.24975
 B48 B 0.23498 0.69727 -0.24986
 B49 B 1.22858 1.28185 0.71372
 B50 B 1.21383 1.22939 0.72336
 B51 B 1.26710 1.24102 0.71115
 B52 B 1.28124 1.28941 0.73219
 B53 B 1.23600 1.30805 0.75822
 B54 B 1.19353 1.27073 0.75272
 B55 B 1.26125 1.22963 0.79284
 B56 B 1.27785 1.28154 0.78305
 B57 B 1.22413 1.27156 0.79551
 B58 B 1.20932 1.22254 0.77427
 B59 B 1.25492 1.20388 0.74805
 B60 B 1.29721 1.24084 0.75433
 B61 B 0.76003 0.73058 0.70744
 B62 B 0.78768 0.77516 0.72433
 B63 B 0.73393 0.77947 0.70891
 B64 B 0.70653 0.73353 0.72322
 B65 B 0.74426 0.70113 0.74815
 B66 B 0.79470 0.72714 0.74843
 B67 B 0.73603 0.77806 0.79115
 B68 B 0.70832 0.73332 0.77433
 B69 B 0.76203 0.72923 0.78977
 B70 B 0.78951 0.77503 0.77540
 B71 B 0.75184 0.80742 0.75045
 B72 B 0.70126 0.78136 0.75033
 B73 B 1.23742 0.72173 0.28605
 B74 B 1.22088 0.77232 0.27190
 B75 B 1.27407 0.76344 0.28809
 B76 B 1.29029 0.71345 0.27055
 B77 B 1.24633 0.69240 0.24369
 B78 B 1.20333 0.72886 0.24506
 B79 B 1.27352 0.76812 0.20581
 B80 B 1.28849 0.71691 0.21923
 B81 B 1.23557 0.72595 0.20382
 B82 B 1.22003 0.77601 0.22079
 B83 B 1.26394 0.79733 0.24830
 B84 B 1.30678 0.76026 0.24701
 B85 B 0.77482 1.26161 0.29998
 B86 B 0.77360 1.20844 0.28516
 B87 B 0.72597 1.23405 0.29904
 B88 B 0.72807 1.28643 0.28243
 B89 B 0.77810 1.29296 0.25805
 B90 B 0.80643 1.24459 0.26013
 B91 B 0.72934 1.23060 0.21681
 B92 B 0.73103 1.28384 0.23141
 B93 B 0.77823 1.25810 0.21756
 B94 B 0.77618 1.20588 0.23408
 B95 B 0.72627 1.19926 0.25866
 B96 B 0.69794 1.24786 0.25639
 O97 O 0.56265 1.08568 0.06967
 O98 O 0.61454 1.04267 0.03697
 C99 C 0.60348 1.07424 0.06194
 O100 O 0.43977 0.92448 0.06996
 O101 O 0.38858 0.96437 0.03295
 C102 C 0.39905 0.93413 0.05925
 O103 O 0.56392 0.92937 0.07815
 O104 O 0.61488 0.96701 0.03917
 C105 C 0.60449 0.93996 0.06828
 O106 O 0.44006 1.08648 0.06627
 O107 O 0.38924 1.04178 0.03349
 C108 C 0.39971 1.07286 0.05939
 Zr109 Zr 0.50156 1.06017 0.04823
 O110 O 0.50080 1.05560 0.11250
 O111 O 0.50016 1.12964 0.05047
 Zr112 Zr 0.50228 0.95076 0.05349
 O113 O 0.49979 0.96195 0.11703
 O114 O 0.50215 0.88199 0.06306
 O115 O 0.54236 1.00625 0.05963
 O116 O 0.46204 1.00541 0.05759
 O117 O 0.44266 1.07658 -0.07830
 O118 O 0.39053 1.03929 -0.04050
 C119 C 0.40182 1.06649 -0.06944
 O120 O 0.56647 0.92177 -0.06988
 O121 O 0.61611 0.96500 -0.03402
 C122 C 0.60666 0.93478 -0.06082
 O123 O 0.44218 0.91592 -0.06583
 O124 O 0.39025 0.95993 -0.03431
 C125 C 0.40126 0.92679 -0.05742
 O126 O 0.56587 1.07284 -0.07708
 O127 O 0.61671 1.03786 -0.03577
 C128 C 0.60648 1.06406 -0.06554
 Zr129 Zr 0.50331 1.05450 -0.05365
 O130 O 0.50493 1.05581 -0.11811
 O131 O 0.50640 1.12406 -0.05335
 Zr132 Zr 0.50386 0.94424 -0.04840
 O133 O 0.50012 0.94119 -0.11280
 O134 O 0.50862 0.87497 -0.04484
 Zr135 Zr 0.57062 1.00292 0.00093
 Zr136 Zr 0.43446 1.00235 -0.00156
 O137 O 0.46428 0.99851 -0.05943
 O138 O 0.54366 0.99921 -0.05859
 O139 O 0.46184 1.06616 -0.00391
 O140 O 0.54256 0.93962 0.00352
 O141 O 0.54181 1.06584 -0.00255
 O142 O 0.46305 0.93890 0.00225
 H143 H 0.44173 1.00577 0.08138
 H144 H 0.56293 0.91401 0.00464
 H145 H 0.44443 0.99609 -0.08358
 H146 H 0.56188 1.09171 -0.00388
 H147 H 0.51889 0.86828 0.04048
 H148 H 0.48715 0.86512 -0.02387
 H149 H 0.52473 0.95948 -0.12365
 H150 H 0.49162 1.02810 -0.12815
 H151 H 0.47914 1.13519 -0.03977
 H152 H 0.51381 1.14057 0.02507
 H153 H 0.49938 1.08616 0.12285
 H154 H 0.49678 0.93261 0.12974
 O155 O 1.05974 0.59411 0.56594
 O156 O 1.11058 0.55098 0.53206
 C157 C 1.10035 0.58229 0.55735
 O158 O 0.94243 0.43383 0.57947
 O159 O 0.88836 0.46800 0.54097
 C160 C 0.90116 0.44218 0.57033
 O161 O 1.06526 0.44080 0.57828
 O162 O 1.11417 0.47667 0.53614
 C163 C 1.10531 0.44998 0.56602
 O164 O 0.93477 0.59253 0.56525
 O165 O 0.88529 0.54436 0.53502
 C166 C 0.89462 0.57767 0.55852
 Zr167 Zr 0.99769 0.56760 0.54639
 O168 O 0.99887 0.56866 0.61080
 O169 O 0.99287 0.63699 0.54325
 Zr170 Zr 1.00229 0.45772 0.55507
 O171 O 1.00098 0.46328 0.61937
 O172 O 1.00933 0.38862 0.55956
 O173 O 1.04038 0.51490 0.55805
 O174 O 0.96108 0.51190 0.55919
 O175 O 0.93122 0.58013 0.42547
 O176 O 0.88343 0.53846 0.46428
 C177 C 0.89151 0.56777 0.43639
 O178 O 1.06146 0.42739 0.43061
 O179 O 1.11215 0.47142 0.46399
 C180 C 1.10204 0.44017 0.43840
 O181 O 0.93900 0.41583 0.43929
 O182 O 0.88699 0.45998 0.47029
 C183 C 0.89816 0.42622 0.44792
 O184 O 1.05550 0.57695 0.41764
 O185 O 1.10867 0.54432 0.45853
 C186 C 1.09655 0.56828 0.42776
 Zr187 Zr 0.99476 0.55755 0.44480
 O188 O 0.99007 0.54741 0.38117
 O189 O 0.99644 0.62670 0.43848
 Zr190 Zr 0.99926 0.44805 0.45337
 O191 O 0.99219 0.44501 0.38916
 O192 O 1.00750 0.37908 0.45554
 Zr193 Zr 1.06632 0.50992 0.49864
 Zr194 Zr 0.93057 0.50473 0.50156
 O195 O 0.95720 0.50051 0.44246
 O196 O 1.03698 0.50352 0.44033
 O197 O 0.95555 0.56935 0.49586
 O198 O 1.04024 0.44597 0.50395
 O199 O 1.03562 0.57193 0.49400
 O200 O 0.96092 0.44238 0.50600
 H201 H 0.94230 0.51370 0.58395
 H202 H 1.06101 0.42067 0.50529
 H203 H 0.93626 0.49729 0.41914
 H204 H 1.05524 0.59794 0.49105
 H205 H 0.98209 0.37489 0.54792
 H206 H 0.99132 0.36852 0.47981
 H207 H 1.01525 0.46443 0.37725
 H208 H 0.98891 0.57701 0.36868
 H209 H 0.97741 0.63901 0.46029
 H210 H 1.01596 0.64787 0.52430
 H211 H 0.99694 0.59999 0.61885
 H212 H 1.02071 0.48814 0.62699
 O213 O 0.90834 0.44160 -0.07346
 O214 O 0.94891 0.39036 -0.03767
 C215 C 0.92074 0.40164 -0.06619
 O216 O 1.06908 0.56200 -0.06761
 O217 O 1.02763 0.61212 -0.03162
 C218 C 1.05887 0.60203 -0.05764
 O219 O 1.06492 0.44014 -0.07350
 O220 O 1.02429 0.38974 -0.03701
 C221 C 1.05427 0.40008 -0.06394
 O222 O 0.90193 0.56219 -0.06390
 O223 O 0.94634 0.61178 -0.02965
 C224 C 0.91334 0.60190 -0.05408
 Zr225 Zr 0.92988 0.50124 -0.04817
 O226 O 0.93256 0.50581 -0.11240
 O227 O 0.85920 0.49674 -0.04828
 Zr228 Zr 1.04127 0.50110 -0.05134
 O229 O 1.03226 0.50609 -0.11527
 O230 O 1.11117 0.49948 -0.06063
 O231 O 0.98526 0.46162 -0.05842
 O232 O 0.98546 0.54053 -0.05656
 O233 O 0.90444 0.55935 0.07123
 O234 O 0.94805 0.61015 0.03813
 C235 C 0.91559 0.59943 0.06252
 O236 O 1.06812 0.43749 0.07135
 O237 O 1.02655 0.38836 0.03365
 C238 C 1.05713 0.39785 0.06048
 O239 O 1.07327 0.55983 0.06966
 O240 O 1.02985 0.61072 0.03644
 C241 C 1.06274 0.60001 0.06067
 O242 O 0.91274 0.43760 0.07762
 O243 O 0.95146 0.38878 0.03756
 C244 C 0.92448 0.39808 0.06735
 Zr245 Zr 0.93347 0.49907 0.05425
 O246 O 0.94362 0.50134 0.11799
 O247 O 0.86335 0.49693 0.06266
 Zr248 Zr 1.04501 0.49935 0.05144
 O249 O 1.04392 0.50259 0.11592
 O250 O 1.11567 0.49489 0.05264
 Zr251 Zr 0.98713 0.43357 0.00024
 Zr252 Zr 0.98790 0.56693 0.00268
 O253 O 0.98949 0.53838 0.06103
 O254 O 0.98951 0.45933 0.05999
 O255 O 0.92307 0.53924 0.00391
 O256 O 1.05148 0.46208 -0.00077
 O257 O 0.92298 0.46132 0.00242
 O258 O 1.05254 0.53918 0.00049
 H259 H 0.98475 0.56133 -0.07975
 H260 H 1.07832 0.44305 -0.00152
 H261 H 0.99021 0.55849 0.08482
 H262 H 0.89711 0.44094 0.00238
 H263 H 1.12512 0.49446 -0.03371
 H264 H 1.12725 0.51569 0.03207
 H265 H 1.02744 0.47650 0.12580
 H266 H 0.91343 0.50287 0.13023
 H267 H 0.84991 0.48564 0.03716
 H268 H 0.84823 0.51635 -0.02641
 H269 H 0.90111 0.50664 -0.12205
 H270 H 1.01893 0.47817 -0.12501
 O271 O 0.41590 0.93392 0.42947
 O272 O 0.46339 0.88821 0.46474
 C273 C 0.43131 0.89537 0.43852
 O274 O 0.57104 1.06789 0.42921
 O275 O 0.52421 1.11499 0.46351
 C276 C 0.55664 1.10691 0.43813
 O277 O 0.57611 0.94609 0.42687
 O278 O 0.53970 0.89416 0.46523
 C279 C 0.56871 0.90579 0.43785
 O280 O 0.40482 1.05452 0.42985
 O281 O 0.44498 1.10901 0.46207
 C282 C 0.41509 1.09537 0.43588
 Zr283 Zr 0.43589 0.99673 0.44964
 O284 O 0.43833 0.99852 0.38512
 O285 O 0.36528 0.99216 0.44668
 Zr286 Zr 0.54732 1.00550 0.44731
 O287 O 0.53709 1.00483 0.38355
 O288 O 0.61726 1.01006 0.43869
 O289 O 0.49467 0.96124 0.44098
 O290 O 0.48849 1.03980 0.44045
 O291 O 0.40944 1.05700 0.57260
 O292 O 0.44551 1.11006 0.53538
 C293 C 0.41800 1.09759 0.56390
 O294 O 0.57977 0.94900 0.57145
 O295 O 0.54150 0.89559 0.53599
 C296 C 0.57171 0.90826 0.56217
 O297 O 0.57247 1.07104 0.56557
 O298 O 0.52440 1.11713 0.53148
 C299 C 0.55815 1.10982 0.55567
 O300 O 0.42255 0.93694 0.57716
 O301 O 0.46591 0.88974 0.53940
 C302 C 0.43715 0.89808 0.56810
 Zr303 Zr 0.43842 0.99859 0.55177
 O304 O 0.43888 1.00371 0.61611
 O305 O 0.36821 0.98917 0.55132
 Zr306 Zr 0.55031 1.00757 0.54965
 O307 O 0.54907 1.01329 0.61400
 O308 O 0.62110 1.00955 0.55065
 Zr309 Zr 0.49836 0.93577 0.50065
 Zr310 Zr 0.48742 1.06874 0.49883
 O311 O 0.49160 1.04170 0.55780
 O312 O 0.49791 0.96386 0.55946
 O313 O 0.42485 1.03661 0.50037
 O314 O 0.56018 0.96906 0.49889
 O315 O 0.43197 0.95837 0.50152
 O316 O 0.55434 1.04631 0.49782
 H317 H 0.48717 1.05905 0.41615
 H318 H 0.58855 0.95231 0.49882
 H319 H 0.49135 1.06163 0.58171
 H320 H 0.40768 0.93628 0.50290
 H321 H 0.63157 1.00340 0.46514
 H322 H 0.63063 1.03056 0.52941
 H323 H 0.53949 0.98465 0.62522
 H324 H 0.46275 0.98418 0.62646
 H325 H 0.35490 1.01266 0.53435
 H326 H 0.35502 0.97622 0.47111
 H327 H 0.45587 0.97290 0.37570
 H328 H 0.56708 1.00839 0.37128
 O329 O 0.93679 0.90626 0.44181
 O330 O 0.97364 0.95128 0.39698
 C331 C 0.94654 0.91951 0.40543
 O332 O 0.92078 1.06472 0.55300
 O333 O 0.96371 1.02848 0.60031
 C334 C 0.93291 1.05623 0.59011
 O335 O 0.91609 1.05581 0.43970
 O336 O 0.96633 1.02460 0.39555
 C337 C 0.93106 1.04779 0.40350
 O338 O 0.93870 0.90508 0.55580
 O339 O 0.97087 0.95383 0.60076
 C340 C 0.94642 0.91999 0.59225
 Zr341 Zr 0.95834 0.93061 0.49866
 O342 O 0.88891 0.91670 0.49623
 O343 O 0.97378 0.86288 0.49886
 Zr344 Zr 0.94352 1.04028 0.49698
 O345 O 0.87356 1.03016 0.50040
 O346 O 0.93226 1.10857 0.49072
 O347 O 0.94297 0.98385 0.46135
 O348 O 0.94168 0.98521 0.53316
 O349 O 1.09169 0.92368 0.55901
 O350 O 1.04402 0.95973 0.60247
 C351 C 1.07656 0.93301 0.59502
 O352 O 1.07855 1.07683 0.44249
 O353 O 1.04251 1.03231 0.39636
 C354 C 1.06945 1.06416 0.40560
 O355 O 1.07144 1.08246 0.55587
 O356 O 1.03728 1.03655 0.60145
 C357 C 1.06191 1.07015 0.59257
 O358 O 1.09795 0.92594 0.44488
 O359 O 1.05220 0.96025 0.39835
 C360 C 1.08568 0.93551 0.40802
 Zr361 Zr 1.06972 0.94506 0.50099
 O362 O 1.13961 0.95486 0.50687
 O363 O 1.07921 0.87623 0.49832
 Zr364 Zr 1.05540 1.05456 0.49926
 O365 O 1.12542 1.06315 0.50540
 O366 O 1.04785 1.12344 0.49365
 Zr367 Zr 1.00798 0.99229 0.43798
 Zr368 Zr 1.00517 0.99399 0.55975
 O369 O 1.06997 1.00139 0.53592
 O370 O 1.07221 1.00044 0.46385
 O371 O 1.01415 0.93003 0.53640
 O372 O 0.99913 1.05542 0.46274
 O373 O 1.01569 0.92955 0.46407
 O374 O 0.99758 1.05699 0.53411
 H375 H 0.91541 0.98314 0.55134
 H376 H 0.99618 1.08095 0.44423
 H377 H 1.09558 1.00464 0.55499
 H378 H 1.01917 0.90363 0.44603
 H379 H 0.95226 1.12369 0.51032
 H380 H 1.02721 1.13321 0.51532
 H381 H 1.13985 1.04688 0.48290
 H382 H 1.14955 0.97215 0.48308
 H383 H 1.05760 0.86279 0.51736
 H384 H 0.94471 0.84722 0.49793
 H385 H 0.87341 0.93784 0.51416
 H386 H 0.86583 1.00700 0.48035
 O387 O 0.57192 0.59006 -0.05573
 O388 O 0.54190 0.54077 -0.10132
 C389 C 0.56467 0.57562 -0.09238
 O390 O 0.60344 0.43357 0.05753
 O391 O 0.55303 0.46405 0.10195
 C392 C 0.58754 0.44017 0.09379
 O393 O 0.60712 0.44029 -0.05690
 O394 O 0.55705 0.46944 -0.10268
 C395 C 0.59279 0.44767 -0.09367
 O396 O 0.56516 0.59192 0.05827
 O397 O 0.53782 0.54004 0.10230
 C398 C 0.55781 0.57668 0.09452
 Zr399 Zr 0.55303 0.56258 0.00081
 O400 O 0.62233 0.57597 0.00648
 O401 O 0.53954 0.63068 -0.00314
 Zr402 Zr 0.57913 0.45532 0.00032
 O403 O 0.64705 0.47446 0.00588
 O404 O 0.59935 0.38895 -0.00420
 O405 O 0.57488 0.51112 -0.03601
 O406 O 0.57368 0.51044 0.03651
 O407 O 0.41909 0.55691 0.05628
 O408 O 0.46662 0.52464 0.10242
 C409 C 0.43297 0.54931 0.09313
 O410 O 0.44897 0.40493 -0.05750
 O411 O 0.48107 0.45236 -0.10298
 C412 C 0.45644 0.41870 -0.09410
 O413 O 0.45268 0.40142 0.05531
 O414 O 0.48068 0.45084 0.10160
 C415 C 0.45884 0.41546 0.09219
 O416 O 0.41543 0.55175 -0.05803
 O417 O 0.46613 0.52395 -0.10350
 C418 C 0.42977 0.54494 -0.09475
 Zr419 Zr 0.44331 0.53674 -0.00082
 O420 O 0.37474 0.51972 0.00335
 O421 O 0.42435 0.60353 -0.00533
 Zr422 Zr 0.46956 0.42946 -0.00101
 O423 O 0.40161 0.41032 0.00221
 O424 O 0.48824 0.36251 -0.00574
 Zr425 Zr 0.51148 0.49639 -0.06131
 Zr426 Zr 0.51036 0.49541 0.06058
 O427 O 0.44767 0.48115 0.03435
 O428 O 0.44791 0.48132 -0.03741
 O429 O 0.49575 0.55793 0.03618
 O430 O 0.52636 0.43456 -0.03593
 O431 O 0.49653 0.55795 -0.03535
 O432 O 0.52591 0.43340 0.03583
 H433 H 0.59878 0.51581 0.05574
 H434 H 0.53198 0.40928 -0.05428
 H435 H 0.42162 0.47574 0.05223
 H436 H 0.49062 0.58348 -0.05326
 H437 H 0.57785 0.37147 0.01184
 H438 H 0.50374 0.35426 0.01982
 H439 H 0.38449 0.43049 -0.01552
 H440 H 0.36666 0.50298 -0.02150
 H441 H 0.44187 0.62005 0.01524
 H442 H 0.51514 0.63717 0.01619
 H443 H 0.63716 0.56457 -0.01826
 H444 H 0.65536 0.49005 -0.01942
 C445 C 0.32775 1.14044 0.14880
 C446 C 0.31304 1.14348 0.10821
 N447 N 0.27938 1.17199 0.09912
 C448 C 0.26098 1.19824 0.12850
 C449 C 0.27904 1.19828 0.16834
 N450 N 0.31120 1.16817 0.17729
 N451 N 0.35933 1.11067 0.15907
 C452 C 0.37838 1.08487 0.13035
 C453 C 0.36698 1.09013 0.08898
 N454 N 0.33391 1.11918 0.07866
 H455 H 0.23372 1.21990 0.12044
 H456 H 0.40480 1.06253 0.13938
 C457 C 0.80501 0.63857 0.63973
 C458 C 0.81997 0.66148 0.60534
 N459 N 0.80906 0.70459 0.60112
 C460 C 0.78555 0.72625 0.63050
 C461 C 0.77452 0.70454 0.66703
 N462 N 0.78363 0.66071 0.66995
 N463 N 0.81508 0.59531 0.64381
 C464 C 0.84056 0.57417 0.61565
 C465 C 0.85834 0.59765 0.58265
 N466 N 0.84734 0.64093 0.57812
 H467 H 0.77901 0.76093 0.62674
 H468 H 0.84931 0.54003 0.62039
 C469 C 0.68903 0.87422 0.15017
 C470 C 0.67942 0.85535 0.11213
 N471 N 0.69242 0.81330 0.10462
 C472 C 0.71316 0.78879 0.13391
 C473 C 0.71950 0.80649 0.17322
 N474 N 0.70812 0.84932 0.17973
 N475 N 0.67581 0.91601 0.15813
 C476 C 0.65214 0.93944 0.13017
 C477 C 0.64017 0.91992 0.09292
 N478 N 0.65438 0.87823 0.08462
 H479 H 0.72146 0.75498 0.12733
 H480 H 0.64044 0.97206 0.13790
 C481 C 1.19646 0.37100 0.63349
 C482 C 1.15142 0.36026 0.62722
 N483 N 1.13329 0.32521 0.64563
 C484 C 1.15780 0.29989 0.67068
 C485 C 1.20363 0.30918 0.67787
 N486 N 1.22194 0.34534 0.65909
 N487 N 1.21284 0.40802 0.61516
 C488 C 1.18583 0.43451 0.59162
 C489 C 1.14020 0.42373 0.58689
 N490 N 1.12515 0.38651 0.60468
 H491 H 1.14027 0.27382 0.68607
 H492 H 1.19936 0.46395 0.57794
 C493 C 0.69776 1.13697 -0.13696
 C494 C 0.65304 1.14916 -0.13115
 N495 N 0.63565 1.18366 -0.15105
 C496 C 0.66063 1.20697 -0.17715
 C497 C 0.70605 1.19595 -0.18391
 N498 N 0.72364 1.16053 -0.16359
 N499 N 0.71352 1.10078 -0.11694
 C500 C 0.68620 1.07643 -0.09211
 C501 C 0.64101 1.08865 -0.08775
 N502 N 0.62640 1.12497 -0.10726
 H503 H 0.64401 1.23330 -0.19315
 H504 H 0.69911 1.04744 -0.07710
 C505 C 1.18001 0.63012 0.34397
 C506 C 1.17585 0.64719 0.38348
 N507 N 1.19431 0.68683 0.39248
 C508 C 1.21593 0.71061 0.36349
 C509 C 1.21837 0.69449 0.32335
 N510 N 1.20078 0.65416 0.31510
 N511 N 1.16075 0.59110 0.33432
 C512 C 1.13641 0.56877 0.36228
 C513 C 1.13082 0.58648 0.40139
 N514 N 1.15089 0.62525 0.41131
 H515 H 1.22932 0.74216 0.37164
 H516 H 1.11988 0.53848 0.35355
 C517 C 0.30808 0.84527 -0.12011
 C518 C 0.35173 0.83146 -0.11139
 N519 N 0.36694 0.79322 -0.12704
 C520 C 0.34105 0.76834 -0.15202
 C521 C 0.29736 0.78215 -0.16250
 N522 N 0.28200 0.82063 -0.14582
 N523 N 0.29403 0.88481 -0.10532
 C524 C 0.32202 0.91132 -0.08304
 C525 C 0.36653 0.89814 -0.07604
 N526 N 0.37966 0.85812 -0.09012
 H527 H 0.35624 0.73997 -0.16602
 H528 H 0.31029 0.94296 -0.07248
 C529 C 0.80778 0.34528 0.38209
 C530 C 0.84980 0.32987 0.39430
 N531 N 0.86445 0.29038 0.38052
 C532 C 0.83962 0.26603 0.35395
 C533 C 0.79842 0.28219 0.33957
 N534 N 0.78333 0.32143 0.35470
 N535 N 0.79384 0.38548 0.39525
 C536 C 0.82059 0.41140 0.41919
 C537 C 0.86383 0.39696 0.42955
 N538 N 0.87681 0.35611 0.41713
 H539 H 0.85346 0.23582 0.34236
 H540 H 0.80923 0.44378 0.42804
 C541 C 1.13599 0.30494 0.12363
 C542 C 1.15223 0.34636 0.11234
 N543 N 1.19237 0.36026 0.12587
 C544 C 1.21719 0.33521 0.15108
 C545 C 1.20152 0.29359 0.16382
 N546 N 1.16080 0.27946 0.14953
 N547 N 1.09423 0.29272 0.11098
 C548 C 1.06804 0.32058 0.08845
 C549 C 1.08408 0.36287 0.07914
 N550 N 1.12603 0.37400 0.09098
 H551 H 1.24694 0.35007 0.16355
 H552 H 1.03458 0.31067 0.07961
 C553 C 0.65326 0.81756 0.62597
 C554 C 0.66630 0.86139 0.62081
 N555 N 0.70405 0.87631 0.63922
 C556 C 0.72882 0.84980 0.66370
 C557 C 0.71494 0.80628 0.67089
 N558 N 0.67751 0.79120 0.65121
 N559 N 0.61474 0.80315 0.60813
 C560 C 0.58832 0.83088 0.58598
 C561 C 0.60046 0.87536 0.58235
 N562 N 0.63957 0.88915 0.59960
 H563 H 0.75695 0.86390 0.67967
 H564 H 0.55752 0.81873 0.57263
 C565 C 1.14004 0.69223 -0.12437
 C566 C 1.14574 0.64658 -0.12539
 N567 N 1.17651 0.62847 -0.14989
 C568 C 1.20235 0.65357 -0.17392
 C569 C 1.19846 0.70007 -0.17361
 N570 N 1.16647 0.71840 -0.14872
 N571 N 1.10727 0.70892 -0.09981
 C572 C 1.08034 0.68190 -0.07684
 C573 C 1.08635 0.63592 -0.07867
 N574 N 1.11926 0.62030 -0.10297
 H575 H 1.22540 0.63641 -0.19352
 H576 H 1.05443 0.69597 -0.05797
 C577 C 0.62610 1.19291 0.36076
 C578 C 0.64604 1.17904 0.39723
 N579 N 0.68987 1.18867 0.40431
 C580 C 0.71507 1.21001 0.37591
 C581 C 0.69630 1.22019 0.33762
 N582 N 0.65173 1.21228 0.33173
 N583 N 0.58228 1.18368 0.35359
 C584 C 0.55777 1.15996 0.38067
 C585 C 0.57829 1.14335 0.41600
 N586 N 0.62212 1.15357 0.42352
 H587 H 0.75015 1.21587 0.38205
 H588 H 0.52348 1.15146 0.37331
 C589 C 0.83880 0.69162 0.12836
 C590 C 0.82215 0.64982 0.11887
 N591 N 0.78269 0.63642 0.13476
 C592 C 0.75959 0.66236 0.16093
 C593 C 0.77707 0.70347 0.17256
 N594 N 0.81620 0.71727 0.15531
 N595 N 0.87908 0.70429 0.11308
 C596 C 0.90388 0.67650 0.08957
 C597 C 0.88817 0.63370 0.08198
 N598 N 0.84728 0.62191 0.09645
 H599 H 0.72969 0.64936 0.17450
 H600 H 0.93630 0.68695 0.07866
 C601 C 0.34951 1.17008 0.65299
 C602 C 0.34777 1.18515 0.61267
 N603 N 0.32113 1.22032 0.60393
 C604 C 0.29572 1.24006 0.63348
 C605 C 0.29493 1.22232 0.67319
 N606 N 0.32289 1.18829 0.68146
 N607 N 0.37742 1.13710 0.66335
 C608 C 0.40271 1.11701 0.63489
 C609 C 0.39887 1.12900 0.59362
 N610 N 0.37182 1.16361 0.58320
 H611 H 0.27605 1.26872 0.62591
 H612 H 0.42404 1.09005 0.64417
 C613 C 0.85676 0.32858 -0.15721
 C614 C 0.85392 0.31353 -0.11696
 N615 N 0.82660 0.27874 -0.10878
 C616 C 0.80133 0.25947 -0.13886
 C617 C 0.80133 0.27748 -0.17842
 N618 N 0.83018 0.31092 -0.18619
 N619 N 0.88505 0.36155 -0.16680
 C620 C 0.90958 0.38170 -0.13758
 C621 C 0.90446 0.36967 -0.09653
 N622 N 0.87710 0.33514 -0.08689
 H623 H 0.78090 0.23119 -0.13172
 H624 H 0.93084 0.40904 -0.14601
 C625 C 0.36475 0.80345 0.36333
 C626 C 0.34106 0.83325 0.38752
 N627 N 0.29619 0.83665 0.38315
 C628 C 0.27380 0.81277 0.35465
 C629 C 0.29720 0.78446 0.32822
 N630 N 0.34247 0.78021 0.33392
 N631 N 0.40999 0.80054 0.36791
 C632 C 0.43251 0.82697 0.39485
 C633 C 0.40884 0.85861 0.41736
 N634 N 0.36355 0.86043 0.41321
 H635 H 0.23825 0.81658 0.35303
 H636 H 0.46863 0.82527 0.39668
 C637 C 1.13608 1.14008 0.31727
 C638 C 1.14153 1.14704 0.35923
 N639 N 1.16872 1.17908 0.37309
 C640 C 1.19126 1.20480 0.34689
 C641 C 1.18639 1.19869 0.30451
 N642 N 1.15877 1.16605 0.29061
 N643 N 1.10835 1.10735 0.30420
 C644 C 1.08597 1.08156 0.33143
 C645 C 1.09179 1.08906 0.37348
 N646 N 1.11948 1.12168 0.38587
 H647 H 1.21192 1.23034 0.35952
 H648 H 1.06400 1.05580 0.32046
 C649 C 0.63439 0.64426 -0.18228
 C650 C 0.60958 0.66712 -0.15291
 N651 N 0.61122 0.71164 -0.15183
 C652 C 0.63886 0.73410 -0.17712
 C653 C 0.66823 0.71080 -0.20259
 N654 N 0.66330 0.66656 -0.20607
 N655 N 0.63198 0.59983 -0.18427
 C656 C 0.60692 0.57704 -0.15716
 C657 C 0.58485 0.59970 -0.12585
 N658 N 0.58608 0.64434 -0.12478
 H659 H 0.63901 0.76958 -0.17605
 H660 H 0.60644 0.54151 -0.15854
 C661 C 0.86218 1.13333 0.67392
 C662 C 0.86820 1.14598 0.63332
 N663 N 0.84878 1.18275 0.61889
 C664 C 0.82274 1.20762 0.64314
 C665 C 0.81497 1.19483 0.68364
 N666 N 0.83542 1.15795 0.69825
 N667 N 0.88185 1.09582 0.68768
 C668 C 0.90658 1.07015 0.66214
 C669 C 0.91071 1.08241 0.62106
 N670 N 0.89179 1.12026 0.60814
 H671 H 0.80642 1.23516 0.62962
 H672 H 0.92157 1.04017 0.67338
 C673 C 0.36794 0.62837 0.17949
 C674 C 0.36304 0.63418 0.13733
 N675 N 0.33755 0.66674 0.12236
 C676 C 0.31589 0.69405 0.14765
 C677 C 0.31939 0.68852 0.19030
 N678 N 0.34560 0.65555 0.20535
 N679 N 0.39439 0.59518 0.19349
 C680 C 0.41596 0.56787 0.16695
 C681 C 0.41002 0.57395 0.12477
 N682 N 0.38375 0.60702 0.11151
 H683 H 0.29439 0.71844 0.13400
 H684 H 0.43731 0.54201 0.17853
 C685 C 1.13845 0.85598 0.68404
 C686 C 1.16351 0.88530 0.66027
 N687 N 1.20864 0.88582 0.66346
 C688 C 1.23011 0.85647 0.68755
 C689 C 1.20552 0.82337 0.70738
 N690 N 1.16000 0.82548 0.70689
 N691 N 1.09311 0.85632 0.68143
 C692 C 1.07187 0.88371 0.65501
 C693 C 1.09729 0.91060 0.62921
 N694 N 1.14250 0.91121 0.63284
 H695 H 1.26610 0.85837 0.68997
 H696 H 1.03576 0.88256 0.65237
 C697 C 0.64601 0.36011 0.18252
 C698 C 0.67284 0.38587 0.15689
 N699 N 0.71792 0.38247 0.15911
 C700 C 0.73734 0.35274 0.18427
 C701 C 0.71041 0.32320 0.20635
 N702 N 0.66536 0.32920 0.20635
 N703 N 0.60092 0.36473 0.18147
 C704 C 0.58140 0.39308 0.15495
 C705 C 0.60815 0.41650 0.12737
 N706 N 0.65334 0.41275 0.12926
 H707 H 0.77338 0.35185 0.18617
 H708 H 0.54527 0.39536 0.15375
 C709 C 0.86470 0.85703 0.32054
 C710 C 0.89152 0.83234 0.34714
 N711 N 0.88726 0.78804 0.34819
 C712 C 0.85565 0.76750 0.32527
 C713 C 0.82532 0.79268 0.30225
 N714 N 0.83205 0.83670 0.29906
 N715 N 0.86978 0.90126 0.31860
 C716 C 0.89951 0.92212 0.34335
 C717 C 0.92370 0.89766 0.37213
 N718 N 0.91966 0.85326 0.37300
 H719 H 0.85391 0.73206 0.32580
 H720 H 0.90188 0.95762 0.34257
 C721 C 0.37399 0.35364 -0.17882
 C722 C 0.37430 0.34344 -0.13725
 N723 N 0.34408 0.31524 -0.12175
 C724 C 0.31333 0.29608 -0.14610
 C725 C 0.31277 0.30511 -0.18807
 N726 N 0.34337 0.33391 -0.20359
 N727 N 0.40340 0.38408 -0.19320
 C728 C 0.43249 0.40512 -0.16746
 C729 C 0.43195 0.39482 -0.12570
 N730 N 0.40304 0.36394 -0.11220
 H731 H 0.28852 0.27572 -0.13213
 H732 H 0.45475 0.43009 -0.17919
 C733 C 1.13357 0.30712 -0.12769
 C734 C 1.14977 0.34855 -0.11617
 N735 N 1.19055 0.36177 -0.12845
 C736 C 1.21598 0.33608 -0.15262
 C737 C 1.20019 0.29458 -0.16594
 N738 N 1.15884 0.28114 -0.15282
 N739 N 1.09161 0.29517 -0.11574
 C740 C 1.06526 0.32317 -0.09356
 C741 C 1.08119 0.36552 -0.08387
 N742 N 1.12333 0.37650 -0.09523
 H743 H 1.24636 0.35039 -0.16402
 H744 H 1.03183 0.31320 -0.08501
 C745 C 0.64933 0.81358 0.37567
 C746 C 0.66414 0.85655 0.38299
 N747 N 0.70345 0.87029 0.36704
 C748 C 0.72805 0.84356 0.34273
 C749 C 0.71217 0.80127 0.33289
 N750 N 0.67328 0.78718 0.35037
 N751 N 0.60947 0.80028 0.39132
 C752 C 0.58336 0.82841 0.41321
 C753 C 0.59715 0.87222 0.41858
 N754 N 0.63762 0.88483 0.40370
 H755 H 0.75773 0.85676 0.32885
 H756 H 0.55149 0.81723 0.42479
 C757 C 0.83818 0.69326 -0.12255
 C758 C 0.82278 0.65057 -0.11532
 N759 N 0.78603 0.63546 -0.13509
 C760 C 0.76424 0.66073 -0.16270
 C761 C 0.77998 0.70323 -0.17141
 N762 N 0.81663 0.71857 -0.15063
 N763 N 0.87645 0.70721 -0.10381
 C764 C 0.90052 0.67986 -0.07905
 C765 C 0.88602 0.63632 -0.07355
 N766 N 0.84704 0.62338 -0.09145
 H767 H 0.73699 0.64625 -0.17949
 H768 H 0.93156 0.69125 -0.06559
 C769 C 0.34637 1.16620 0.34569
 C770 C 0.34730 1.18346 0.38537
 N771 N 0.32329 1.22058 0.39333
 C772 C 0.29809 1.24038 0.36359
 C773 C 0.29510 1.22101 0.32457
 N774 N 0.32021 1.18482 0.31706
 N775 N 0.37132 1.13081 0.33610
 C776 C 0.39626 1.11056 0.36477
 C777 C 0.39529 1.12526 0.40543
 N778 N 0.37127 1.16213 0.41505
 H779 H 0.28016 1.27032 0.37047
 H780 H 0.41535 1.08180 0.35618
 C781 C 1.14695 0.69099 0.12336
 C782 C 1.15899 0.64709 0.11687
 N783 N 1.19652 0.63097 0.13414
 C784 C 1.22265 0.65630 0.15834
 C785 C 1.21137 0.70072 0.16604
 N786 N 1.17312 0.71686 0.14817
 N787 N 1.10779 0.70581 0.10681
 C788 C 1.08018 0.67848 0.08481
 C789 C 1.09187 0.63394 0.07978
 N790 N 1.13139 0.62006 0.09579
 H791 H 1.25023 0.64035 0.17355
 H792 H 1.04896 0.69092 0.07267
 C793 C 0.63618 1.20259 0.62029
 C794 C 0.65413 1.16402 0.60380
 N795 N 0.69556 1.15103 0.61434
 C796 C 0.72021 1.17418 0.64136
 C797 C 0.70321 1.21306 0.65905
 N798 N 0.66104 1.22633 0.64780
 N799 N 0.59286 1.21310 0.61125
 C800 C 0.56675 1.18598 0.58759
 C801 C 0.58467 1.14614 0.57316
 N802 N 0.62816 1.13709 0.58125
 H803 H 0.75063 1.15905 0.65130
 H804 H 0.53200 1.19411 0.58218
 C805 C 0.86974 0.31059 0.15297
 C806 C 0.84841 0.31659 0.11521
 N807 N 0.80741 0.29844 0.10892
 C808 C 0.78612 0.27588 0.13901
 C809 C 0.80594 0.27252 0.17800
 N810 N 0.84789 0.28937 0.18341
 N811 N 0.91042 0.32915 0.15969
 C812 C 0.93026 0.35444 0.13079
 C813 C 0.90810 0.36244 0.09371
 N814 N 0.86760 0.34303 0.08664
 H815 H 0.75274 0.26385 0.13320
 H816 H 0.96202 0.37009 0.13748
 C817 C 0.37570 0.81448 0.65261
 C818 C 0.35473 0.82365 0.61527
 N819 N 0.31181 0.81063 0.60914
 C820 C 0.28847 0.78976 0.63890
 C821 C 0.30824 0.78284 0.67744
 N822 N 0.35193 0.79484 0.68286
 N823 N 0.41860 0.82782 0.65883
 C824 C 0.44101 0.85099 0.62985
 C825 C 0.41931 0.86220 0.59325
 N826 N 0.37655 0.84806 0.58688
 H827 H 0.25409 0.78116 0.63304
 H828 H 0.47443 0.86297 0.63633
 C829 C 0.32792 1.13857 -0.15517
 C830 C 0.31454 1.14011 -0.11428
 N831 N 0.28166 1.16882 -0.10348
 C832 C 0.26266 1.19655 -0.13148
 C833 C 0.27916 1.19767 -0.17170
 N834 N 0.31068 1.16752 -0.18226
 N835 N 0.35889 1.10897 -0.16717
 C836 C 0.37866 1.08183 -0.13986
 C837 C 0.36855 1.08534 -0.09812
 N838 N 0.33599 1.11423 -0.08613
 H839 H 0.23604 1.21834 -0.12213
 H840 H 0.40455 1.05967 -0.15028
 C841 C 0.80169 0.63113 0.35719
 C842 C 0.81447 0.65161 0.39373
 N843 N 0.80262 0.69417 0.40029
 C844 C 0.78012 0.71765 0.37135
 C845 C 0.77090 0.69841 0.33312
 N846 N 0.78104 0.65507 0.32770
 N847 N 0.81347 0.58868 0.35036
 C848 C 0.83870 0.56612 0.37787
 C849 C 0.85407 0.58727 0.41333
 N850 N 0.84130 0.62965 0.42055
 H851 H 0.77285 0.75189 0.37704
 H852 H 0.84915 0.53291 0.37088
 C853 C 0.69442 1.14917 0.13309
 C854 C 0.65238 1.16539 0.12186
 N855 N 0.63785 1.20400 0.13748
 C856 C 0.66295 1.22692 0.16475
 C857 C 0.70458 1.21040 0.17769
 N858 N 0.71942 1.17177 0.16103
 N859 N 0.70800 1.10961 0.11802
 C860 C 0.68091 1.08525 0.09294
 C861 C 0.63785 1.10077 0.08329
 N862 N 0.62525 1.14082 0.09779
 H863 H 0.64889 1.25613 0.17792
 H864 H 0.69201 1.05343 0.08227
 C865 C 1.19547 0.64920 0.63025
 C866 C 1.15954 0.67153 0.61223
 N867 N 1.15260 0.71432 0.62139
 C868 C 1.17874 0.73551 0.64908
 C869 C 1.21294 0.71278 0.66986
 N870 N 1.22084 0.67002 0.65906
 N871 N 1.20229 0.60620 0.62072
 C872 C 1.17408 0.58441 0.59479
 C873 C 1.13644 0.60620 0.57876
 N874 N 1.13055 0.64948 0.58767
 H875 H 1.17144 0.76920 0.65529
 H876 H 1.17949 0.54987 0.58865
 C877 C 0.69377 0.87199 -0.14225
 C878 C 0.68045 0.85037 -0.10663
 N879 N 0.69120 0.80732 -0.10161
 C880 C 0.71302 0.78447 -0.13129
 C881 C 0.72242 0.80493 -0.16878
 N882 N 0.71354 0.84871 -0.17257
 N883 N 0.68348 0.91508 -0.14736
 C884 C 0.65916 0.93722 -0.11903
 C885 C 0.64302 0.91495 -0.08468
 N886 N 0.65436 0.87192 -0.07912
 H887 H 0.71951 0.74990 -0.12678
 H888 H 0.64994 0.97109 -0.12460
 C889 C 1.19406 0.36628 0.36710
 C890 C 1.14921 0.35434 0.37250
 N891 N 1.13190 0.31989 0.35226
 C892 C 1.15705 0.29628 0.32638
 C893 C 1.20282 0.30663 0.32025
 N894 N 1.22024 0.34227 0.34078
 N895 N 1.20964 0.40268 0.38717
 C896 C 1.18214 0.42735 0.41173
 C897 C 1.13682 0.41522 0.41605
 N898 N 1.12238 0.37874 0.39630
 H899 H 1.14015 0.27045 0.30984
 H900 H 1.19509 0.45640 0.42676
 C901 C 0.30762 0.85402 0.12410
 C902 C 0.35329 0.84453 0.12059
 N903 N 0.37144 0.81099 0.14134
 C904 C 0.34631 0.78608 0.16608
 C905 C 0.29984 0.79411 0.17029
 N906 N 0.28156 0.82869 0.14918
 N907 N 0.29110 0.88974 0.10385
 C908 C 0.31851 0.91624 0.08104
 C909 C 0.36460 0.90674 0.07892
 N910 N 0.37999 0.87075 0.09856
 H911 H 0.36367 0.76130 0.18346
 H912 H 0.30484 0.94479 0.06587
 C913 C 0.83024 0.36656 0.65341
 C914 C 0.81644 0.36608 0.61249
 N915 N 0.78442 0.33682 0.60058
 C916 C 0.76660 0.30755 0.62761
 C917 C 0.78367 0.30560 0.66771
 N918 N 0.81430 0.33616 0.67938
 N919 N 0.86034 0.39660 0.66654
 C920 C 0.87910 0.42515 0.64015
 C921 C 0.86884 0.42241 0.59836
 N922 N 0.83694 0.39335 0.58530
 H923 H 0.74074 0.28511 0.61750
 H924 H 0.90445 0.44772 0.65124
 C925 C 1.13061 1.14531 0.68060
 C926 C 1.13509 1.15240 0.63865
 N927 N 1.16365 1.18296 0.62457
 C928 C 1.18847 1.20713 0.65059
 C929 C 1.18434 1.20108 0.69291
 N930 N 1.15537 1.16993 0.70705
 N931 N 1.10200 1.11357 0.69385
 C932 C 1.07806 1.08863 0.66676
 C933 C 1.08313 1.09613 0.62473
 N934 N 1.11144 1.12798 0.61220
 H935 H 1.20994 1.23177 0.63792
 H936 H 1.05591 1.06320 0.67780
 C937 C 0.62720 0.64553 0.18471
 C938 C 0.60391 0.66838 0.15420
 N939 N 0.60809 0.71263 0.15155
 C940 C 0.63682 0.73466 0.17644
 C941 C 0.66460 0.71095 0.20318
 N942 N 0.65725 0.66723 0.20808
 N943 N 0.62226 0.60145 0.18823
 C944 C 0.59635 0.57885 0.16141
 C945 C 0.57619 0.60122 0.12875
 N946 N 0.57972 0.64564 0.12631
 H947 H 0.63854 0.76999 0.17443
 H948 H 0.59421 0.54343 0.16385
 C949 C 1.16076 0.86820 0.32103
 C950 C 1.12801 0.84669 0.34419
 N951 N 1.12245 0.80274 0.34070
 C952 C 1.14949 0.77878 0.31628
 C953 C 1.18475 0.79957 0.29557
 N954 N 1.18850 0.84414 0.29730
 N955 N 1.16598 0.91239 0.32462
 C956 C 1.14050 0.93583 0.35114
 C957 C 1.10938 0.91371 0.37550
 N958 N 1.10355 0.86982 0.37116
 H959 H 1.14398 0.74377 0.31403
 H960 H 1.14562 0.97089 0.35431
 C961 C 0.65275 0.36933 -0.18317
 C962 C 0.65917 0.36215 -0.14136
 N963 N 0.68150 0.32652 -0.12818
 C964 C 0.69862 0.29764 -0.15498
 C965 C 0.69387 0.30472 -0.19718
 N966 N 0.67081 0.34072 -0.21037
 N967 N 0.62823 0.40453 -0.19558
 C968 C 0.60949 0.43231 -0.16779
 C969 C 0.61636 0.42463 -0.12594
 N970 N 0.64125 0.38985 -0.11417
 H971 H 0.71568 0.26955 -0.14289
 H972 H 0.58894 0.45935 -0.17814
 C973 C 0.86348 1.13036 0.32331
 C974 C 0.83959 1.10244 0.34923
 N975 N 0.79453 1.10633 0.35199
 C976 C 0.77243 1.13822 0.33120
 C977 C 0.79677 1.16914 0.30843
 N978 N 0.84164 1.16320 0.30387
 N979 N 0.90844 1.12557 0.31961
 C980 C 0.93085 1.09510 0.34202
 C981 C 0.90733 1.06958 0.37038
 N982 N 0.86210 1.07347 0.37284
 H983 H 0.73637 1.13927 0.33267
 H984 H 0.96696 1.09330 0.34010
 C985 C 0.35722 0.61833 -0.18135
 C986 C 0.34767 0.61912 -0.13957
 N987 N 0.31778 0.64776 -0.12447
 C988 C 0.29643 0.67602 -0.14923
 C989 C 0.30441 0.67538 -0.19164
 N990 N 0.33511 0.64641 -0.20681
 N991 N 0.38971 0.59070 -0.19515
 C992 C 0.41324 0.56459 -0.16876
 C993 C 0.40348 0.56627 -0.12684
 N994 N 0.37060 0.59328 -0.11389
 H995 H 0.27410 0.69939 -0.13524
 H996 H 0.43970 0.54374 -0.18016
 C997 C 0.86516 0.86032 0.67899
 C998 C 0.89310 0.83470 0.65421
 N999 N 0.89073 0.79031 0.65611
 C1000 C 0.85999 0.77042 0.68015
 C1001 C 0.82843 0.79612 0.70118
 N1002 N 0.83326 0.84048 0.70149
 N1003 N 0.86848 0.90472 0.67818
 C1004 C 0.89754 0.92472 0.65255
 C1005 C 0.92295 0.89913 0.62560
 N1006 N 0.92061 0.85464 0.62734
 H1007 H 0.85932 0.73494 0.68150
 H1008 H 0.89865 0.96025 0.65134
 C1009 C 0.37650 0.35105 0.17689
 C1010 C 0.37572 0.34120 0.13517
 N1011 N 0.34421 0.31417 0.11971
 C1012 C 0.31327 0.29584 0.14413
 C1013 C 0.31374 0.30443 0.18628
 N1014 N 0.34569 0.33207 0.20178
 N1015 N 0.40715 0.38047 0.19129
 C1016 C 0.43632 0.40088 0.16550
 C1017 C 0.43474 0.39101 0.12359
 N1018 N 0.40463 0.36108 0.10999
 H1019 H 0.28756 0.27651 0.13005
 H1020 H 0.45948 0.42515 0.17734
   
