data_POSCAR
  _audit_creation_date              2014-09-24
  _audit_creation_method            'ToBaCCo'
  _symmetry_space_group_name_H-M    'P1'
  _symmetry_Int_Tables_number       1
  _symmetry_cell_setting            triclinic
  loop_
  _symmetry_equiv_pos_as_xyz
 x,y,z
_cell_length_a 30.9406
_cell_length_b 29.7204
_cell_length_c 32.1762
_cell_angle_alpha 91.664500
_cell_angle_beta 88.616300
_cell_angle_gamma 87.463600
loop_
  _atom_site_label
  _atom_site_type_symbol
  _atom_site_fract_x
  _atom_site_fract_y
  _atom_site_fract_z
C1 C 0.70222 0.65760 0.96398
 H2 H 0.73409 0.66342 0.95123
 C3 C 0.66544 0.67482 0.94427
 H4 H 0.66950 0.69470 0.91694
 C5 C 0.65828 0.62071 1.01246
 H6 H 0.65514 0.59741 1.03728
 C7 C 0.62090 0.63717 0.99386
 H8 H 0.58975 0.62748 1.00582
 N9 N 0.69801 0.63039 0.99698
 C10 C 0.82603 0.59890 1.04553
 H11 H 0.82103 0.56323 1.04758
 C12 C 0.86581 0.61547 1.05561
 H13 H 0.89116 0.59232 1.06578
 C14 C 0.79920 0.67176 1.02820
 H15 H 0.77324 0.69321 1.01680
 C16 C 0.83874 0.69008 1.03871
 H17 H 0.84316 0.72572 1.03520
 Zn18 Zn 0.74631 0.59427 1.01327
 N19 N 0.79421 0.62662 1.03086
 C20 C 0.80311 0.56346 0.94771
 N21 N 0.76311 0.55898 0.96515
 C22 C 0.73211 0.53708 0.94438
 C23 C 0.74011 0.52095 0.90349
 C24 C 0.81258 0.54750 0.90725
 C25 C 0.71490 0.58436 1.09268
 C26 C 0.69926 0.56333 1.12765
 C27 C 0.71911 0.49125 1.09411
 C28 C 0.73276 0.51392 1.05888
 N29 N 0.72973 0.55966 1.05873
 H30 H 0.82704 0.58204 0.96390
 H31 H 0.70024 0.53488 0.95855
 H32 H 0.71443 0.50551 0.88670
 H33 H 0.84415 0.55323 0.89384
 H34 H 0.71396 0.62076 1.09193
 H35 H 0.68686 0.58454 1.15348
 H36 H 0.72149 0.45475 1.09340
 H37 H 0.74563 0.49508 1.03174
 C38 C 0.87290 0.66133 1.05150
 C39 C 0.62415 0.66340 0.95856
 C40 C 0.70075 0.51594 1.12885
 C41 C 0.78040 0.52738 0.88401
 C42 C 0.72258 0.26548 0.51470
 H43 H 0.75081 0.24828 0.50019
 C44 C 0.68999 0.24068 0.53273
 H45 H 0.69337 0.20424 0.53185
 C46 C 0.68387 0.33387 0.53378
 H47 H 0.68197 0.37032 0.53418
 C48 C 0.65069 0.31055 0.55205
 H49 H 0.62334 0.32959 0.56623
 N50 N 0.71881 0.31123 0.51559
 C51 C 0.82509 0.31781 0.43457
 H52 H 0.80480 0.33609 0.41348
 C53 C 0.86483 0.29906 0.41987
 H54 H 0.87427 0.30353 0.38772
 C55 C 0.83696 0.28892 0.50127
 H56 H 0.82598 0.28451 0.53285
 C57 C 0.87703 0.26931 0.48773
 H58 H 0.89667 0.25068 0.50934
 Zn59 Zn 0.76150 0.34816 0.49439
 N60 N 0.81250 0.31410 0.47511
 C61 C 0.78889 0.36966 0.57468
 N62 N 0.77456 0.38818 0.53909
 C63 C 0.76622 0.43343 0.53709
 C64 C 0.77365 0.46188 0.57124
 C65 C 0.79720 0.39687 0.60936
 C66 C 0.69970 0.37068 0.43352
 C67 C 0.68343 0.39352 0.39948
 C68 C 0.74726 0.43744 0.39864
 C69 C 0.76237 0.41368 0.43253
 N70 N 0.73850 0.38111 0.44941
 H71 H 0.79266 0.33359 0.57677
 H72 H 0.75282 0.44763 0.50949
 H73 H 0.76690 0.49778 0.56903
 H74 H 0.80841 0.38122 0.63731
 H75 H 0.68151 0.34418 0.44681
 H76 H 0.65249 0.38464 0.38747
 H77 H 0.76685 0.46316 0.38570
 H78 H 0.79348 0.42084 0.44521
 C79 C 0.89196 0.27557 0.44689
 C80 C 0.65350 0.26330 0.55182
 C81 C 0.70738 0.42737 0.38157
 C82 C 0.78966 0.44364 0.60782
 C83 C 0.17691 -0.13525 0.01770
 H84 H 0.18162 -0.10239 0.03170
 C85 C 0.14041 -0.15799 0.02886
 H86 H 0.11719 -0.14172 0.05072
 C87 C 0.20219 -0.19586 -0.02718
 H88 H 0.22669 -0.21065 -0.04851
 C89 C 0.16555 -0.21993 -0.01699
 H90 H 0.16203 -0.25320 -0.03076
 N91 N 0.20697 -0.15411 -0.00985
 C92 C 0.34241 -0.14265 -0.01620
 H93 H 0.34076 -0.12207 0.01196
 C94 C 0.38252 -0.16053 -0.03009
 H95 H 0.41050 -0.15410 -0.01161
 C96 C 0.30882 -0.17351 -0.07521
 H97 H 0.28009 -0.17719 -0.09327
 C98 C 0.34884 -0.19236 -0.09037
 H99 H 0.35049 -0.21100 -0.11980
 Zn100 Zn 0.25501 -0.11733 -0.01761
 N101 N 0.30634 -0.14925 -0.03853
 C102 C 0.27055 -0.13017 0.06344
 N103 N 0.26660 -0.09579 0.03667
 C104 C 0.27136 -0.05229 0.04945
 C105 C 0.28141 -0.04242 0.09099
 C106 C 0.27997 -0.12188 0.10478
 C107 C 0.26709 -0.06178 -0.08637
 C108 C 0.25236 -0.03849 -0.12084
 C109 C 0.18085 -0.03317 -0.08887
 C110 C 0.19719 -0.05557 -0.05475
 N111 N 0.23908 -0.07143 -0.05497
 H112 H 0.26679 -0.16443 0.05230
 H113 H 0.26797 -0.02557 0.02749
 H114 H 0.28555 -0.00781 0.10089
 H115 H 0.28324 -0.15010 0.12519
 H116 H 0.30035 -0.07451 -0.08596
 H117 H 0.27504 -0.03332 -0.14625
 H118 H 0.14684 -0.02303 -0.08815
 H119 H 0.17540 -0.06281 -0.02945
 C120 C 0.38639 -0.18542 -0.06770
 C121 C 0.13438 -0.20099 0.01173
 C122 C 0.20797 -0.02642 -0.12375
 C123 C 0.28595 -0.07772 0.11906
 C124 C 0.23465 0.16650 0.45667
 H125 H 0.26643 0.15449 0.44551
 C126 C 0.20689 0.18841 0.42962
 H127 H 0.21783 0.19349 0.39794
 C128 C 0.18049 0.17066 0.51012
 H129 H 0.16979 0.16218 0.54102
 C130 C 0.15168 0.19334 0.48412
 H131 H 0.11897 0.20194 0.49524
 N132 N 0.22020 0.15546 0.49510
 C133 C 0.33471 0.09193 0.54872
 H134 H 0.32670 0.05711 0.54404
 C135 C 0.37588 0.10216 0.56142
 H136 H 0.39945 0.07503 0.56674
 C137 C 0.31396 0.16956 0.54606
 H138 H 0.28978 0.19554 0.53926
 C139 C 0.35466 0.18135 0.55984
 H140 H 0.36180 0.21655 0.56351
 Zn141 Zn 0.25226 0.10687 0.51847
 N142 N 0.30502 0.12541 0.54050
 C143 C 0.30492 0.06814 0.45384
 N144 N 0.26551 0.06584 0.47316
 C145 C 0.23418 0.04081 0.45632
 C146 C 0.24171 0.01773 0.41817
 C147 C 0.31379 0.04565 0.41588
 C148 C 0.23727 0.07067 0.59776
 C149 C 0.21242 0.05451 0.63038
 C150 C 0.15041 0.05701 0.58622
 C151 C 0.17676 0.07167 0.55398
 N152 N 0.21910 0.07950 0.56055
 H153 H 0.32882 0.08977 0.46638
 H154 H 0.20272 0.04025 0.47145
 H155 H 0.21598 -0.00088 0.40457
 H156 H 0.34510 0.04908 0.40095
 H157 H 0.27071 0.07739 0.60283
 H158 H 0.22703 0.04915 0.66019
 H159 H 0.11626 0.05313 0.58123
 H160 H 0.16274 0.07912 0.52438
 C161 C 0.38632 0.14725 0.56683
 C162 C 0.16417 0.19990 0.44257
 C163 C 0.16822 0.04881 0.62502
 C164 C 0.28159 0.02103 0.39701
 C165 C 0.17947 0.47393 0.20591
 H166 H 0.18041 0.45147 0.23176
 C167 C 0.19789 0.45965 0.16734
 H168 H 0.21286 0.42611 0.16367
 C169 C 0.15822 0.54456 0.17882
 H170 H 0.14259 0.57760 0.18300
 C171 C 0.17707 0.53216 0.14025
 H172 H 0.17516 0.55568 0.11521
 N173 N 0.15862 0.51517 0.21048
 C174 C 0.15042 0.57369 0.33598
 H175 H 0.11688 0.58555 0.33716
 C176 C 0.17717 0.58520 0.36845
 H177 H 0.16335 0.60506 0.39457
 C178 C 0.20876 0.53427 0.29994
 H179 H 0.22093 0.51443 0.27318
 C180 C 0.23671 0.54477 0.33201
 H181 H 0.27028 0.53287 0.32954
 Zn182 Zn 0.12729 0.53350 0.26023
 N183 N 0.16636 0.54852 0.30262
 C184 C 0.07564 0.49127 0.31887
 N185 N 0.09262 0.48629 0.27956
 C186 C 0.08962 0.44674 0.25748
 C187 C 0.07318 0.40899 0.27646
 C188 C 0.05921 0.45457 0.33900
 C189 C 0.10964 0.62659 0.25445
 C190 C 0.09189 0.66452 0.23559
 C191 C 0.03854 0.61794 0.20466
 C192 C 0.05722 0.58078 0.22440
 N193 N 0.09284 0.58553 0.24780
 H194 H 0.07699 0.52306 0.33563
 H195 H 0.10171 0.44363 0.22573
 H196 H 0.07352 0.37716 0.25923
 H197 H 0.04816 0.45881 0.37113
 H198 H 0.13906 0.62950 0.27152
 H199 H 0.10729 0.69632 0.23960
 H200 H 0.01165 0.61287 0.18446
 H201 H 0.04525 0.54758 0.21862
 C202 C 0.22092 0.57051 0.36686
 C203 C 0.19599 0.48879 0.13378
 C204 C 0.05707 0.66016 0.20887
 C205 C 0.05956 0.41230 0.31839
 C206 C -0.17462 0.08752 0.20669
 H207 H -0.16588 0.10452 0.23512
 C208 C -0.19958 0.11088 0.17819
 H209 H -0.20999 0.14551 0.18567
 C210 C -0.17022 0.02267 0.16207
 H211 H -0.15823 -0.01157 0.15564
 C212 C -0.19520 0.04474 0.13263
 H213 H -0.20214 0.02666 0.10409
 N214 N -0.15894 0.04487 0.19749
 C215 C -0.10239 -0.01082 0.30827
 H216 H -0.06882 -0.00764 0.29907
 C217 C -0.11296 -0.02349 0.34837
 H218 H -0.08717 -0.03039 0.36976
 C219 C -0.17653 -0.00439 0.29142
 H220 H -0.20104 0.00394 0.26915
 C221 C -0.18864 -0.01771 0.33141
 H222 H -0.22260 -0.01964 0.33974
 Zn223 Zn -0.11337 0.02082 0.22969
 N224 N -0.13393 -0.00110 0.28087
 C225 C -0.09192 0.09473 0.27703
 N226 N -0.07707 0.06908 0.24356
 C227 C -0.04041 0.07943 0.22227
 C228 C -0.01733 0.11704 0.23473
 C229 C -0.07011 0.13217 0.29039
 C230 C -0.08331 -0.06954 0.21361
 C231 C -0.06895 -0.10671 0.18864
 C232 C -0.05604 -0.05656 0.13243
 C233 C -0.06983 -0.02016 0.15876
 N234 N -0.08411 -0.02728 0.19827
 H235 H -0.12126 0.08630 0.29337
 H236 H -0.02909 0.05881 0.19566
 H237 H 0.01194 0.12479 0.21779
 H238 H -0.08333 0.15192 0.31685
 H239 H -0.09555 -0.07490 0.24468
 H240 H -0.06977 -0.14007 0.20118
 H241 H -0.04616 -0.05042 0.10066
 H242 H -0.07157 0.01353 0.14688
 C243 C -0.15650 -0.02679 0.36055
 C244 C -0.20871 0.09021 0.13972
 C245 C -0.05609 -0.10056 0.14717
 C246 C -0.03212 0.14375 0.26946
 C247 C 0.32563 0.55136 0.69879
 H248 H 0.33871 0.57432 0.72139
 C249 C 0.30960 0.56804 0.66179
 H250 H 0.31052 0.60377 0.65658
 C251 C 0.31058 0.47680 0.67754
 H252 H 0.31257 0.44110 0.68328
 C253 C 0.29435 0.49201 0.64009
 H254 H 0.28329 0.46770 0.61747
 N255 N 0.32746 0.50626 0.70516
 C256 C 0.34715 0.44520 0.82619
 H257 H 0.38201 0.44048 0.82649
 C258 C 0.32235 0.43483 0.86123
 H259 H 0.33838 0.42167 0.88812
 C260 C 0.28431 0.47092 0.79174
 H261 H 0.26970 0.48569 0.76486
 C262 C 0.25840 0.46170 0.82630
 H263 H 0.22385 0.46912 0.82552
 Zn264 Zn 0.36256 0.48259 0.74756
 N265 N 0.32790 0.46313 0.79245
 C266 C 0.39149 0.54776 0.80600
 N267 N 0.39739 0.52964 0.76677
 C268 C 0.42444 0.54820 0.73879
 C269 C 0.44549 0.58726 0.74922
 C270 C 0.41255 0.58656 0.81798
 C271 C 0.40246 0.39289 0.73939
 C272 C 0.42498 0.35740 0.71746
 C273 C 0.43565 0.40693 0.66036
 C274 C 0.41358 0.44146 0.68347
 N275 N 0.39732 0.43411 0.72224
 H276 H 0.36911 0.53336 0.82759
 H277 H 0.42815 0.53405 0.70762
 H278 H 0.46603 0.60206 0.72607
 H279 H 0.40669 0.60111 0.84894
 H280 H 0.38835 0.38696 0.76961
 H281 H 0.42820 0.32476 0.73139
 H282 H 0.44757 0.41354 0.62931
 H283 H 0.40778 0.47372 0.66955
 C284 C 0.27745 0.44385 0.86175
 C285 C 0.29539 0.53795 0.63114
 C286 C 0.44143 0.36419 0.67717
 C287 C 0.43924 0.60722 0.78905
 C288 C 0.72761 1.00621 0.70370
 H289 H 0.73768 1.03199 0.72523
 C290 C 0.74778 1.00112 0.66425
 H291 H 0.77363 1.02286 0.65602
 C292 C 0.68065 0.94792 0.68711
 H293 H 0.65317 0.92848 0.69519
 C294 C 0.70009 0.94142 0.64776
 H295 H 0.68763 0.91645 0.62664
 N296 N 0.69468 0.97962 0.71444
 C297 C 0.68994 0.97793 0.84585
 H298 H 0.67420 0.94638 0.84325
 C299 C 0.70316 0.99244 0.88487
 H300 H 0.69779 0.97115 0.91110
 C301 C 0.71324 1.04463 0.81569
 H302 H 0.71523 1.06588 0.78908
 C303 C 0.72672 1.06072 0.85444
 H304 H 0.74003 1.09373 0.85641
 Zn305 Zn 0.66094 0.98899 0.76464
 N306 N 0.69342 1.00471 0.81243
 C307 C 0.59144 0.93384 0.78708
 N308 N 0.63398 0.93475 0.77564
 C309 C 0.66004 0.89666 0.77384
 C310 C 0.64355 0.85538 0.78356
 C311 C 0.57372 0.89318 0.79790
 C312 C 0.61469 1.07326 0.77995
 C313 C 0.59026 1.11090 0.76744
 C314 C 0.57127 1.06864 0.70581
 C315 C 0.59645 1.03202 0.71927
 N316 N 0.61887 1.03553 0.75493
 H317 H 0.57158 0.96474 0.78869
 H318 H 0.69392 0.89859 0.76527
 H319 H 0.66492 0.82549 0.78221
 H320 H 0.53994 0.89289 0.80737
 H321 H 0.63170 1.07509 0.80879
 H322 H 0.58919 1.14150 0.78663
 H323 H 0.55577 1.06565 0.67617
 H324 H 0.60000 1.00155 0.70008
 C325 C 0.71971 1.03540 0.89017
 C326 C 0.73388 0.96845 0.63569
 C327 C 0.56943 1.10939 0.72922
 C328 C 0.60009 0.85341 0.79628
 C329 C 0.03285 0.19658 -0.13501
 H330 H 0.05455 0.21622 -0.11695
 C331 C 0.04714 0.15433 -0.15091
 H332 H 0.07992 0.14227 -0.14518
 C333 C -0.03663 0.18743 -0.16276
 H334 H -0.06943 0.20052 -0.16662
 C335 C -0.02385 0.14451 -0.17864
 H336 H -0.04675 0.12481 -0.19541
 N337 N -0.00832 0.21237 -0.14132
 C338 C -0.05088 0.35344 -0.13806
 H339 H -0.05154 0.35896 -0.10466
 C340 C -0.06314 0.38835 -0.16366
 H341 H -0.07334 0.42089 -0.14984
 C342 C -0.03752 0.30384 -0.19651
 H343 H -0.02783 0.27062 -0.20891
 C344 C -0.04854 0.33841 -0.22352
 H345 H -0.04780 0.33170 -0.25679
 Zn346 Zn -0.02849 0.26722 -0.11542
 N347 N -0.04000 0.31180 -0.15461
 C348 C 0.01265 0.28945 -0.03888
 N349 N 0.01472 0.28924 -0.08114
 C350 C 0.04884 0.30590 -0.10206
 C351 C 0.08314 0.32318 -0.08059
 C352 C 0.04655 0.30646 -0.01599
 C353 C -0.11692 0.28065 -0.09221
 C354 C -0.15630 0.26871 -0.07493
 C355 C -0.11936 0.20528 -0.04380
 C356 C -0.08040 0.21915 -0.06105
 N357 N -0.07998 0.25581 -0.08531
 H358 H -0.01507 0.27633 -0.02300
 H359 H 0.04942 0.30542 -0.13570
 H360 H 0.10986 0.33587 -0.09829
 H361 H 0.04467 0.30638 0.01765
 H362 H -0.11652 0.30893 -0.11238
 H363 H -0.18508 0.28900 -0.08174
 H364 H -0.11853 0.17530 -0.02552
 H365 H -0.05067 0.19953 -0.05658
 C366 C -0.06270 0.38076 -0.20681
 C367 C 0.01856 0.12767 -0.17277
 C368 C -0.15840 0.22975 -0.05127
 C369 C 0.08239 0.32359 -0.03695
 C370 C 0.39532 0.21375 0.19056
 H371 H 0.38088 0.24758 0.19070
 C372 C 0.37307 0.17924 0.20889
 H373 H 0.34161 0.18685 0.22353
 C374 C 0.45261 0.16213 0.16897
 H375 H 0.48277 0.15507 0.15203
 C376 C 0.43186 0.12681 0.18756
 H377 H 0.44658 0.09310 0.18484
 N378 N 0.43397 0.20453 0.17042
 C379 C 0.50289 0.32736 0.15170
 H380 H 0.50586 0.32499 0.11813
 C381 C 0.52355 0.36103 0.17351
 H382 H 0.54191 0.38469 0.15622
 C383 C 0.47549 0.29859 0.21452
 H384 H 0.45723 0.27366 0.23025
 C385 C 0.49543 0.33214 0.23767
 H386 H 0.49232 0.33285 0.27128
 Zn387 Zn 0.45733 0.25069 0.13857
 N388 N 0.47971 0.29685 0.17231
 C389 C 0.40075 0.31918 0.10780
 N390 N 0.41257 0.27453 0.10560
 C391 C 0.39166 0.24528 0.08076
 C392 C 0.35796 0.26076 0.05611
 C393 C 0.36699 0.33608 0.08387
 C394 C 0.54016 0.21250 0.12351
 C395 C 0.57627 0.19583 0.10028
 C396 C 0.53707 0.20964 0.03754
 C397 C 0.50162 0.22602 0.06203
 N398 N 0.50368 0.22680 0.10423
 H399 H 0.41723 0.34176 0.12831
 H400 H 0.40129 0.20981 0.08013
 H401 H 0.34175 0.23690 0.03653
 H402 H 0.35824 0.37172 0.08607
 H403 H 0.54118 0.21434 0.15711
 H404 H 0.60483 0.18487 0.11655
 H405 H 0.53495 0.20952 0.00399
 H406 H 0.47282 0.23864 0.04718
 C407 C 0.52038 0.36348 0.21712
 C408 C 0.39108 0.13502 0.20693
 C409 C 0.57505 0.19437 0.05664
 C410 C 0.34514 0.30667 0.05759
 C411 C 0.94440 0.71605 0.67102
 H412 H 0.93754 0.75205 0.67350
 C413 C 0.91998 0.68733 0.69444
 H414 H 0.89439 0.70156 0.71502
 C415 C 0.98566 0.65410 0.64036
 H416 H 1.01077 0.64137 0.61864
 C417 C 0.96143 0.62392 0.66286
 H418 H 0.96871 0.58808 0.65883
 N419 N 0.97703 0.69927 0.64526
 C420 C 1.04478 0.82343 0.63526
 H421 H 1.04559 0.82637 0.60181
 C422 C 1.06091 0.85741 0.66049
 H423 H 1.07416 0.88636 0.64604
 C424 C 1.02682 0.78150 0.69427
 H425 H 1.01430 0.75147 0.70728
 C426 C 1.04276 0.81461 0.72069
 H427 H 1.04162 0.80999 0.75395
 Zn428 Zn 1.00579 0.74333 0.61536
 N429 N 1.02733 0.78690 0.65244
 C430 C 0.94511 0.81160 0.59418
 N431 N 0.96331 0.77080 0.58169
 C432 C 0.94744 0.74705 0.54911
 C433 C 0.91198 0.76445 0.52754
 C434 C 0.90956 0.83003 0.57377
 C435 C 1.08384 0.69293 0.60425
 C436 C 1.12414 0.68106 0.58565
 C437 C 1.10417 0.72520 0.52665
 C438 C 1.06377 0.73532 0.54593
 N439 N 1.05455 0.71943 0.58422
 H440 H 0.95704 0.82923 0.62108
 H441 H 0.96173 0.71411 0.54051
 H442 H 0.89957 0.74497 0.50185
 H443 H 0.89571 0.86237 0.58472
 H444 H 1.07655 0.68251 0.63548
 H445 H 1.14733 0.66073 0.60247
 H446 H 1.11155 0.73913 0.49671
 H447 H 1.04069 0.75780 0.53133
 C448 C 1.05960 0.85342 0.70387
 C449 C 0.92828 0.64065 0.69049
 C450 C 1.13502 0.69811 0.54678
 C451 C 0.89222 0.80625 0.54017
 C452 C 0.53686 0.71444 0.30927
 H453 H 0.51971 0.74175 0.29443
 C454 C 0.54682 0.67429 0.28670
 H455 H 0.53818 0.67166 0.25433
 C456 C 0.56609 0.68325 0.37000
 H457 H 0.57193 0.68644 0.40294
 C458 C 0.57715 0.64271 0.34846
 H459 H 0.59203 0.61518 0.36505
 N460 N 0.54652 0.71820 0.35022
 C461 C 0.45825 0.83016 0.36451
 H462 H 0.44318 0.81743 0.39213
 C463 C 0.43673 0.86420 0.34320
 H464 H 0.40510 0.87603 0.35488
 C465 C 0.51839 0.83088 0.31772
 H466 H 0.55062 0.81821 0.30849
 C467 C 0.49759 0.86452 0.29482
 H468 H 0.51409 0.87711 0.26777
 Zn469 Zn 0.52562 0.76865 0.38368
 N470 N 0.49807 0.81368 0.35130
 C471 C 0.56079 0.83674 0.43210
 N472 N 0.57114 0.79656 0.41222
 C473 C 0.61306 0.78056 0.40844
 C474 C 0.64649 0.80566 0.42446
 C475 C 0.59325 0.86335 0.44763
 C476 C 0.45241 0.72319 0.39880
 C477 C 0.41825 0.70448 0.42014
 C478 C 0.44725 0.73198 0.48461
 C479 C 0.48124 0.75025 0.46183
 N480 N 0.48291 0.74570 0.41962
 H481 H 0.52738 0.84912 0.43413
 H482 H 0.62098 0.74926 0.39156
 H483 H 0.67969 0.79301 0.42009
 H484 H 0.58445 0.89596 0.46204
 H485 H 0.45452 0.72011 0.36523
 H486 H 0.39457 0.68706 0.40239
 H487 H 0.44613 0.73596 0.51818
 H488 H 0.50595 0.76817 0.47775
 C489 C 0.45600 0.88166 0.30738
 C490 C 0.56696 0.63769 0.30636
 C491 C 0.41512 0.70876 0.46366
 C492 C 0.63677 0.84815 0.44340
 C493 C 0.34179 -0.01555 0.25368
 C494 C 0.10897 1.00042 0.76292
 C495 C 0.62344 0.48231 0.25876
 C496 C 0.84681 0.50916 0.74012
 C497 C 0.21965 0.39732 0.00136
 C498 C 0.72563 0.14307 1.00874
 C499 C 0.28001 0.62825 0.50163
 C500 C 0.77667 0.91264 0.49079
 C501 C 0.03229 0.25497 0.36652
 C502 C 1.00282 0.74969 0.08893
 C503 C 0.51703 0.21811 0.62566
 C504 C 0.51566 0.73185 0.86167
 N505 N 0.41711 -0.04193 0.23424
 N506 N 0.44795 -0.07006 0.24748
 C507 C 0.43407 -0.08516 0.28443
 C508 C 0.39384 -0.06462 0.29340
 N509 N 0.38454 -0.03732 0.26179
 H510 H 0.37216 -0.07081 0.31923
 N511 N 0.91259 0.46281 0.71745
 N512 N 0.93711 0.42820 0.72987
 C513 C 0.92008 0.41639 0.76668
 C514 C 0.88448 0.44423 0.77614
 N515 N 0.88072 0.47315 0.74490
 H516 H 0.86307 0.44245 0.80303
 N517 N 0.03205 1.01561 0.78427
 N518 N 0.00685 1.04940 0.80011
 C519 C 0.03313 1.08270 0.81060
 C520 C 0.07511 1.06824 0.80079
 N521 N 0.07321 1.02616 0.78476
 H522 H 0.10409 1.08723 0.80270
 N523 N 0.57234 0.54211 0.23594
 N524 N 0.55701 0.58310 0.24711
 C525 C 0.57557 0.59430 0.28322
 C526 C 0.60275 0.55854 0.29390
 N527 N 0.60032 0.52679 0.26330
 H528 H 0.62243 0.55611 0.32112
 N529 N 0.56437 0.44037 0.29102
 N530 N 0.53629 0.40954 0.28122
 C531 C 0.54407 0.39753 0.24092
 C532 C 0.57788 0.42200 0.22652
 N533 N 0.59051 0.44768 0.25887
 H534 H 0.59124 0.42164 0.19519
 N535 N 0.09042 0.92574 0.78770
 N536 N 0.07724 0.88659 0.77338
 C537 C 0.07509 0.88940 0.73172
 C538 C 0.08746 0.93172 0.72103
 N539 N 0.09692 0.95335 0.75681
 H540 H 0.08804 0.94594 0.69049
 N541 N 0.85559 0.58924 0.76048
 N542 N 0.87628 0.62459 0.74792
 C543 C 0.90181 0.61046 0.71515
 C544 C 0.89602 0.56508 0.70806
 N545 N 0.86709 0.55297 0.73721
 H546 H 0.90969 0.54357 0.68295
 N547 N 0.31078 0.05892 0.23680
 N548 N 0.32220 0.09928 0.22558
 C549 C 0.36569 0.09750 0.22190
 C550 C 0.38061 0.05456 0.23143
 N551 N 0.34523 0.03129 0.24033
 H552 H 0.41389 0.04208 0.23200
 N553 N 0.19772 0.44584 -0.05610
 N554 N 0.21154 0.45845 -0.09302
 C555 C 0.25051 0.43735 -0.10052
 C556 C 0.26017 0.41124 -0.06676
 N557 N 0.22616 0.41717 -0.03981
 H558 H 0.28900 0.39019 -0.06225
 N559 N 0.84270 0.94868 0.46840
 N560 N 0.86160 0.96410 0.43476
 C561 C 0.83302 0.96161 0.40393
 C562 C 0.79555 0.94419 0.42002
 N563 N 0.80289 0.93676 0.46055
 H564 H 0.76696 0.93549 0.40340
 N565 N 0.74272 0.17249 1.07827
 N566 N 0.75950 0.15972 1.11368
 C567 C 0.77072 0.11547 1.10905
 C568 C 0.76039 0.10168 1.06913
 N569 N 0.74224 0.13813 1.05113
 H570 H 0.76665 0.06884 1.05450
 N571 N 0.27481 0.54928 0.52311
 N572 N 0.27751 0.52474 0.55668
 C573 C 0.28556 0.55303 0.58878
 C574 C 0.28766 0.59599 0.57355
 N575 N 0.28125 0.59218 0.53231
 H576 H 0.29344 0.62690 0.59063
 N577 N 0.30441 0.57885 0.44139
 N578 N 0.28991 0.56276 0.40576
 C579 C 0.24974 0.58126 0.40149
 C580 C 0.24026 0.60941 0.43569
 N581 N 0.27525 0.60733 0.45980
 H582 H 0.21040 0.62858 0.44291
 N583 N 0.71556 0.06179 0.99696
 N584 N 0.71309 0.03240 0.96550
 C585 C 0.72496 0.05334 0.93063
 C586 C 0.73559 0.09658 0.94228
 N587 N 0.72986 0.10045 0.98401
 H588 H 0.74279 0.12396 0.92217
 N589 N 0.78903 0.97892 0.53755
 N590 N 0.77873 0.99419 0.57578
 C591 C 0.75332 0.96377 0.59315
 C592 C 0.74837 0.92927 0.56406
 N593 N 0.77127 0.93985 0.52989
 H594 H 0.73045 0.89907 0.56728
 N595 N 0.22369 0.47685 0.02580
 N596 N 0.21814 0.50203 0.06027
 C597 C 0.21060 0.47384 0.09144
 C598 C 0.21179 0.43047 0.07487
 N599 N 0.21950 0.43371 0.03365
 H600 H 0.20565 0.39983 0.09092
 N601 N -0.00121 0.22501 0.43122
 N602 N -0.03830 0.22956 0.45289
 C603 C -0.06400 0.25930 0.43287
 C604 C -0.04126 0.27299 0.39849
 N605 N -0.00227 0.25115 0.39855
 H606 H -0.05154 0.29696 0.37563
 N607 N 0.49934 0.78816 0.91721
 N608 N 0.46641 0.81003 0.93671
 C609 C 0.43015 0.79800 0.91769
 C610 C 0.44216 0.76785 0.88531
 N611 N 0.48576 0.76270 0.88616
 H612 H 0.42135 0.75052 0.86423
 N613 N 1.04602 0.72654 0.02467
 N614 N 1.08093 0.73845 0.00372
 C615 C 1.09600 0.77434 0.02443
 C616 C 1.06920 0.78384 0.05879
 N617 N 1.03844 0.75331 0.05799
 H618 H 1.07166 0.81024 0.08236
 N619 N 0.58246 0.18198 0.59120
 N620 N 0.61882 0.19235 0.57193
 C621 C 0.61865 0.23765 0.57102
 C622 C 0.58089 0.25462 0.59067
 N623 N 0.55871 0.21881 0.60225
 H624 H 0.57108 0.28957 0.59670
 N625 N 0.49965 0.15092 0.58283
 N626 N 0.46586 0.13110 0.56739
 C627 C 0.43074 0.15780 0.57786
 C628 C 0.44408 0.19464 0.60039
 N629 N 0.48745 0.18915 0.60287
 H630 H 0.42408 0.22204 0.61446
 N631 N 0.98592 0.67373 0.06341
 N632 N 0.95263 0.64953 0.05371
 C633 C 0.91689 0.67698 0.05818
 C634 C 0.92945 0.71920 0.07095
 N635 N 0.97295 0.71565 0.07411
 H636 H 0.90894 0.74889 0.07852
 N637 N 0.51828 0.67652 0.91733
 N638 N 0.54549 0.65903 0.94422
 C639 C 0.58457 0.67534 0.93566
 C640 C 0.58031 0.70328 0.90238
 N641 N 0.53848 0.70271 0.89129
 H642 H 0.60492 0.72354 0.88899
 N643 N 0.09972 0.20900 0.35279
 N644 N 0.13558 0.19580 0.37130
 C645 C 0.13206 0.21155 0.41097
 C646 C 0.09258 0.23499 0.41616
 N647 N 0.07305 0.23217 0.37911
 H648 H 0.07952 0.25252 0.44395
 N649 N 0.54715 0.22106 0.69589
 N650 N 0.56184 0.19294 0.72403
 C651 C 0.55068 0.15134 0.71191
 C652 C 0.52802 0.15526 0.67569
 N653 N 0.52610 0.19934 0.66666
 H654 H 0.51745 0.12812 0.65595
 N655 N 1.05134 0.75879 0.14819
 N656 N 1.06582 0.73664 0.18051
 C657 C 1.04458 0.69804 0.18199
 C658 C 1.01620 0.69765 0.14949
 N659 N 1.02168 0.73591 0.12871
 H660 H 0.99520 0.67105 0.14086
 N661 N 0.97063 0.82079 0.06312
 N662 N 0.95609 0.86114 0.07721
 C663 C 0.95607 0.86033 0.11909
 C664 C 0.97068 0.81787 0.13016
 N665 N 0.97988 0.79421 0.09438
 H666 H 0.97586 0.80606 0.16121
 N667 N 0.48890 0.28977 0.59782
 N668 N 0.46898 0.32839 0.61003
 C669 C 0.46314 0.32719 0.65162
 C670 C 0.48017 0.28626 0.66449
 N671 N 0.49679 0.26413 0.63004
 H672 H 0.47971 0.27376 0.69570
 N673 N 0.49562 0.70917 0.79063
 N674 N 0.47644 0.67660 0.77037
 C675 C 0.46006 0.64976 0.79923
 C676 C 0.46935 0.66741 0.83806
 N677 N 0.49228 0.70426 0.83139
 H678 H 0.46168 0.65357 0.86787
 N679 N 0.04016 0.23228 0.29114
 N680 N 0.02476 0.20193 0.26490
 C681 C -0.00787 0.18250 0.28514
 C682 C -0.01186 0.20218 0.32439
 N683 N 0.01825 0.23347 0.32718
 H684 H -0.03238 0.19190 0.34976
 N685 N 0.04538 0.32996 0.39532
 N686 N 0.05155 0.37169 0.38427
 C687 C 0.05003 0.37205 0.34249
 C688 C 0.04259 0.32864 0.32820
 N689 N 0.03991 0.30330 0.36233
 H690 H 0.03985 0.31706 0.29630
 N691 N 0.57976 0.73870 0.81562
 N692 N 0.60253 0.76959 0.79746
 C693 C 0.58339 0.80992 0.80848
 C694 C 0.54814 0.80278 0.83413
 N695 N 0.54729 0.75782 0.83837
 H696 H 0.52570 0.82784 0.84851
 N697 N 0.66807 0.44191 0.20312
 N698 N 0.68904 0.44996 0.16788
 C699 C 0.68449 0.49471 0.16197
 C700 C 0.65979 0.51362 0.19504
 N701 N 0.64913 0.47950 0.21936
 H702 H 0.64987 0.54862 0.20075
 N703 N 0.08707 1.04810 0.70490
 N704 N 0.10062 1.06016 0.66773
 C705 C 0.13992 1.03974 0.66086
 C706 C 0.14996 1.01449 0.69493
 N707 N 0.11636 1.02117 0.72226
 H708 H 0.17862 0.99303 0.69881
 N709 N 0.18830 1.00286 0.77506
 N710 N 0.21565 0.99498 0.80536
 C711 C 0.19171 0.98798 0.84005
 C712 C 0.14856 0.99254 0.82969
 N713 N 0.14774 1.00133 0.78887
 H714 H 0.12024 0.98652 0.84875
 N715 N 0.68763 0.50158 0.29798
 N716 N 0.71075 0.48818 0.32977
 C717 C 0.69141 0.45242 0.34548
 C718 C 0.65562 0.44422 0.32193
 N719 N 0.65400 0.47604 0.29286
 H720 H 0.63379 0.41711 0.32517
 N721 N 0.79864 0.53245 0.68396
 N722 N 0.78315 0.51659 0.64870
 C723 C 0.79798 0.47334 0.64407
 C724 C 0.82299 0.46319 0.67778
 N725 N 0.82295 0.50106 0.70179
 H726 H 0.84026 0.43170 0.68379
 N727 N 0.31264 -0.08545 0.22596
 N728 N 0.29787 -0.10294 0.19115
 C729 C 0.29754 -0.07022 0.16295
 C730 C 0.31266 -0.03184 0.18180
 N731 N 0.32151 -0.04271 0.22124
 H732 H 0.31841 0.00005 0.16776
 N733 N 0.27745 -0.03420 0.29698
 N734 N 0.26087 -0.02529 0.33485
 C735 C 0.28861 0.00131 0.35457
 C736 C 0.32253 0.00866 0.32735
 N737 N 0.31460 -0.01425 0.29196
 H738 H 0.35014 0.02913 0.33212
 N739 N 0.77552 0.49836 0.77531
 N740 N 0.75732 0.50191 0.81310
 C741 C 0.78773 0.51636 0.83910
 C742 C 0.82506 0.52175 0.81582
 N743 N 0.81625 0.51031 0.77623
 H744 H 0.85602 0.53253 0.82629
 N745 N 0.23670 0.69857 0.49162
 N746 N 0.19810 0.71741 0.50167
 C747 C 0.17895 0.68981 0.52830
 C748 C 0.20721 0.65348 0.53439
 N749 N 0.24300 0.66018 0.51101
 H750 H 0.20135 0.62406 0.55238
 N751 N 0.65603 0.16617 0.97784
 N752 N 0.61592 0.17952 0.98913
 C753 C 0.61350 0.17894 1.03102
 C754 C 0.65339 0.16440 1.04491
 N755 N 0.67935 0.15747 1.01091
 H756 H 0.66255 0.15956 1.07669
 N757 N 0.73383 0.21503 0.97274
 N758 N 0.76477 0.23896 0.95656
 C759 C 0.80281 0.21613 0.96240
 C760 C 0.79384 0.17710 0.98287
 N761 N 0.75055 0.17762 0.98838
 H762 H 0.81596 0.15034 0.99235
 N763 N 0.33625 0.67136 0.53707
 N764 N 0.37175 0.69307 0.52832
 C765 C 0.37871 0.68907 0.48682
 C766 C 0.34601 0.66415 0.47059
 N767 N 0.32043 0.65311 0.50291
 H768 H 0.34080 0.65571 0.43827
 N769 N 0.70458 0.93887 0.46872
 N770 N 0.66701 0.92347 0.45730
 C771 C 0.67150 0.87815 0.45596
 C772 C 0.71333 0.86627 0.46705
 N773 N 0.73313 0.90523 0.47462
 H774 H 0.72712 0.83257 0.47041
 N775 N 0.15839 0.36156 0.03697
 N776 N 0.12212 0.34161 0.02806
 C777 C 0.11849 0.34218 -0.01359
 C778 C 0.15385 0.36301 -0.02976
 N779 N 0.17771 0.37539 0.00273
 H780 H 0.16190 0.36809 -0.06210
 N781 N 0.25635 0.32265 -0.01031
 N782 N 0.28902 0.29764 0.00372
 C783 C 0.30854 0.32303 0.03251
 C784 C 0.28675 0.36463 0.03550
 N785 N 0.25418 0.36295 0.00852
 H786 H 0.29332 0.39293 0.05589
 N787 N 0.80860 0.83730 0.47006
 N788 N 0.84023 0.80910 0.48152
 C789 C 0.85398 0.82486 0.51839
 C790 C 0.82908 0.86326 0.52928
 N791 N 0.80062 0.86979 0.49871
 H792 H 0.83340 0.88626 0.55535
   
