data_POSCAR
  _audit_creation_date              2014-09-24
  _audit_creation_method            'ToBaCCo'
  _symmetry_space_group_name_H-M    'P1'
  _symmetry_Int_Tables_number       1
  _symmetry_cell_setting            triclinic
  loop_
  _symmetry_equiv_pos_as_xyz
 x,y,z
_cell_length_a 41.7736
_cell_length_b 41.7942
_cell_length_c 41.7074
_cell_angle_alpha 89.857100
_cell_angle_beta 89.845100
_cell_angle_gamma 90.051700
loop_
  _atom_site_label
  _atom_site_type_symbol
  _atom_site_fract_x
  _atom_site_fract_y
  _atom_site_fract_z
C1 C 0.16654 0.16494 0.20663
 C2 C 0.19402 0.15135 0.19291
 C3 C 0.20781 0.16513 0.16545
 C4 C 0.19407 0.19251 0.15174
 C5 C 0.16662 0.20611 0.16543
 C6 C 0.15287 0.19232 0.19285
 H7 H 0.20470 0.13022 0.20363
 H8 H 0.20473 0.20333 0.13057
 H9 H 0.13168 0.20298 0.20346
 C10 C -0.16608 0.83373 0.20862
 C11 C -0.19343 0.84745 0.19485
 C12 C -0.20712 0.83378 0.16747
 C13 C -0.19345 0.80639 0.15383
 C14 C -0.16613 0.79264 0.16754
 C15 C -0.15244 0.80632 0.19492
 H16 H -0.20414 0.86860 0.20543
 H17 H -0.20412 0.79574 0.13271
 H18 H -0.13135 0.79555 0.20555
 C19 C -0.16614 0.16606 -0.20816
 C20 C -0.19358 0.15235 -0.19436
 C21 C -0.20734 0.16601 -0.16691
 C22 C -0.19361 0.19339 -0.15327
 C23 C -0.16621 0.20712 -0.16704
 C24 C -0.15248 0.19345 -0.19446
 H25 H -0.20425 0.13121 -0.20500
 H26 H -0.20425 0.20410 -0.13210
 H27 H -0.13132 0.20421 -0.20513
 C28 C 0.16735 0.83508 -0.20645
 C29 C 0.19476 0.84875 -0.19283
 C30 C 0.20850 0.83503 -0.16541
 C31 C 0.19474 0.80761 -0.15164
 C32 C 0.16733 0.79394 -0.16527
 C33 C 0.15366 0.80770 -0.19265
 H34 H 0.20539 0.86989 -0.20365
 H35 H 0.20535 0.79683 -0.13050
 H36 H 0.13252 0.79705 -0.20327
 C37 C 0.16583 1.16581 0.79292
 C38 C 0.19322 1.15215 0.80659
 C39 C 0.20694 1.16583 0.83394
 C40 C 0.19323 1.19317 0.84764
 C41 C 0.16584 1.20685 0.83399
 C42 C 0.15215 1.19314 0.80664
 H43 H 0.20391 1.13106 0.79590
 H44 H 0.20391 1.20385 0.86874
 H45 H 0.13102 1.20380 0.79599
 C46 C 0.83536 0.83362 0.79333
 C47 C 0.80799 0.84730 0.80714
 C48 C 0.79424 0.83359 0.83459
 C49 C 0.80787 0.80619 0.84831
 C50 C 0.83525 0.79244 0.83457
 C51 C 0.84900 0.80619 0.80708
 H52 H 0.79729 0.86845 0.79650
 H53 H 0.79708 0.79555 0.86951
 H54 H 0.87012 0.79549 0.79633
 C55 C 0.16442 0.83461 1.20707
 C56 C 0.19186 0.84830 1.19328
 C57 C 0.20563 0.83461 1.16590
 C58 C 0.19195 0.80723 1.15227
 C59 C 0.16453 0.79352 1.16601
 C60 C 0.15076 0.80721 1.19340
 H61 H 0.20259 0.86942 1.20386
 H62 H 0.20269 0.79655 1.13116
 H63 H 0.12961 0.79645 1.20407
 C64 C 0.83473 1.16573 1.20730
 C65 C 0.80737 1.15205 1.19355
 C66 C 0.79372 1.16580 1.16614
 C67 C 0.80743 1.19322 1.15243
 C68 C 0.83478 1.20696 1.16612
 C69 C 0.84844 1.19319 1.19355
 H70 H 0.79662 1.13088 1.20418
 H71 H 0.79671 1.20388 1.13128
 H72 H 0.86955 1.20388 1.20425
 N73 N 0.46663 1.05689 1.03428
 N74 N 0.44182 1.07612 1.03774
 N75 N 0.53391 1.03462 1.05667
 N76 N 0.55868 1.03809 1.07593
 N77 N 0.53404 1.05683 1.03436
 N78 N 0.55890 1.07601 1.03784
 N79 N 0.46652 1.03467 1.05659
 N80 N 0.44163 1.03819 1.07582
 C81 C 0.42646 1.06421 1.06382
 C82 C 0.57402 1.06407 1.06394
 N83 N 0.53386 0.94354 1.03465
 N84 N 0.55862 0.92429 1.03827
 N85 N 0.46641 0.96581 1.05675
 N86 N 0.44147 0.96235 1.07595
 N87 N 0.46646 0.94360 1.03455
 N88 N 0.44157 0.92444 1.03804
 N89 N 0.53381 0.96576 1.05684
 N90 N 0.55853 0.96221 1.07617
 Mn91 Mn 0.50016 1.00022 1.05712
 C92 C 0.57377 0.93618 1.06433
 C93 C 0.42622 0.93638 1.06403
 N94 N 0.53433 1.05683 0.96533
 N95 N 0.55915 1.07609 0.96173
 N96 N 0.46697 1.03467 0.94306
 N97 N 0.44218 1.03815 0.92382
 N98 N 0.46693 1.05688 0.96526
 N99 N 0.44211 1.07607 0.96173
 N100 N 0.53437 1.03462 0.94314
 N101 N 0.55922 1.03816 0.92384
 Mn102 Mn 0.50048 1.05727 0.99981
 C103 C 0.57445 1.06419 0.93568
 C104 C 0.42691 1.06414 0.93571
 N105 N 0.46671 0.94359 0.96555
 N106 N 0.44187 0.92439 0.96205
 N107 N 0.53425 0.96574 0.94332
 N108 N 0.55915 0.96220 0.92412
 N109 N 0.53411 0.94354 0.96564
 N110 N 0.55891 0.92430 0.96223
 N111 N 0.46684 0.96580 0.94323
 N112 N 0.44208 0.96230 0.92395
 Mn113 Mn 0.50029 0.94316 1.00010
 Mn114 Mn 0.50061 1.00021 0.94278
 Cl115 Cl 0.50038 1.00021 0.99995
 C116 C 0.42674 0.93631 0.93594
 C117 C 0.57429 0.93618 0.93617
 N118 N -0.03465 0.46645 -0.05668
 N119 N -0.03813 0.44176 -0.07603
 N120 N -0.05693 0.53368 -0.03421
 N121 N -0.07614 0.55850 -0.03767
 N122 N -0.03465 0.53381 -0.05647
 N123 N -0.03810 0.55871 -0.07567
 N124 N -0.05692 0.46630 -0.03441
 N125 N -0.07615 0.44150 -0.03801
 C126 C -0.06418 0.42642 -0.06414
 C127 C -0.06415 0.57387 -0.06370
 N128 N -0.03488 0.53318 0.05707
 N129 N -0.03841 0.55788 0.07640
 N130 N -0.05705 0.46591 0.03463
 N131 N -0.07627 0.44105 0.03812
 N132 N -0.03486 0.46583 0.05685
 N133 N -0.03837 0.44093 0.07606
 N134 N -0.05706 0.53330 0.03483
 N135 N -0.07628 0.55809 0.03845
 Mn136 Mn -0.05740 0.49980 0.00021
 C137 C -0.06440 0.57319 0.06455
 C138 C -0.06436 0.42571 0.06413
 N139 N 0.03426 0.53391 -0.05651
 N140 N 0.03786 0.55883 -0.07570
 N141 N 0.05643 0.46645 -0.03447
 N142 N 0.07563 0.44164 -0.03801
 N143 N 0.03426 0.46653 -0.05672
 N144 N 0.03778 0.44178 -0.07599
 N145 N 0.05642 0.53379 -0.03426
 N146 N 0.07569 0.55860 -0.03770
 Mn147 Mn -0.00019 0.50018 -0.05700
 C148 C 0.06388 0.57399 -0.06372
 C149 C 0.06376 0.42650 -0.06408
 N150 N 0.03405 0.46588 0.05680
 N151 N 0.03757 0.44097 0.07598
 N152 N 0.05627 0.53341 0.03473
 N153 N 0.07542 0.55829 0.03823
 N154 N 0.03401 0.53326 0.05701
 N155 N 0.03741 0.55803 0.07627
 N156 N 0.05630 0.46606 0.03452
 N157 N 0.07557 0.44128 0.03794
 Mn158 Mn -0.00042 0.49954 0.05734
 Mn159 Mn 0.05676 0.49993 0.00013
 Cl160 Cl -0.00032 0.49986 0.00017
 C161 C 0.06364 0.42587 0.06396
 C162 C 0.06341 0.57340 0.06431
 N163 N 0.94306 0.03443 0.53362
 N164 N 0.92383 0.03801 0.55851
 N165 N 0.96518 0.05654 0.46592
 N166 N 0.96165 0.07572 0.44101
 N167 N 0.94295 0.03431 0.46610
 N168 N 0.92369 0.03779 0.44129
 N169 N 0.96528 0.05666 0.53342
 N170 N 0.96176 0.07597 0.55818
 C171 C 0.93574 0.06409 0.57360
 C172 C 0.93561 0.06379 0.42588
 N173 N 1.05630 0.03440 0.46560
 N174 N 1.07555 0.03789 0.44070
 N175 N 1.03419 0.05673 0.53310
 N176 N 1.03771 0.07594 0.55791
 N177 N 1.05641 0.03454 0.53309
 N178 N 1.07564 0.03806 0.55788
 N179 N 1.03409 0.05660 0.46558
 N180 N 1.03764 0.07581 0.44064
 Mn181 Mn 0.99968 0.05704 0.49950
 C182 C 1.06367 0.06388 0.42536
 C183 C 1.06373 0.06405 0.57312
 N184 N 0.94296 -0.03458 0.46640
 N185 N 0.92368 -0.03819 0.44165
 N186 N 0.96533 -0.05664 0.53390
 N187 N 0.96189 -0.07585 0.55882
 N188 N 0.94308 -0.03447 0.53393
 N189 N 0.92391 -0.03801 0.55889
 N190 N 0.96519 -0.05677 0.46641
 N191 N 0.96163 -0.07605 0.44166
 Mn192 Mn 0.94260 -0.00008 0.50001
 C193 C 0.93557 -0.06422 0.42645
 C194 C 0.93589 -0.06399 0.57418
 N195 N 1.05643 -0.03431 0.53339
 N196 N 1.07574 -0.03772 0.55815
 N197 N 1.03409 -0.05668 0.46611
 N198 N 1.03752 -0.07592 0.44129
 N199 N 1.05630 -0.03445 0.46590
 N200 N 1.07545 -0.03795 0.44094
 N201 N 1.03423 -0.05655 0.53362
 N202 N 1.03783 -0.07571 0.55856
 Mn203 Mn 1.05676 0.00005 0.49949
 Mn204 Mn 0.99971 -0.05706 0.50001
 Cl205 Cl 0.99968 -0.00001 0.49975
 C206 C 1.06390 -0.06371 0.57362
 C207 C 1.06349 -0.06399 0.42583
 C208 C 1.11702 0.07576 0.35277
 C209 C 1.10311 0.10270 0.33852
 C210 C 1.07617 0.11685 0.35259
 C211 C 1.06324 0.10419 0.38086
 C212 C 1.15335 0.15183 0.23354
 C213 C 1.10413 0.06306 0.38104
 C214 C 1.11666 0.11597 0.30963
 C215 C 1.12814 0.12716 0.28554
 C216 C 1.14171 0.14038 0.25744
 C217 C 1.07717 0.07721 0.39540
 H218 H 1.13787 0.06461 0.34208
 H219 H 1.06521 0.13772 0.34175
 H220 H 1.04241 0.11552 0.39136
 H221 H 1.11530 0.04221 0.39166
 C222 C 0.88237 -0.07659 0.35415
 C223 C 0.89645 -0.10351 0.34006
 C224 C 0.92342 -0.11748 0.35417
 C225 C 0.93622 -0.10466 0.38230
 C226 C 0.84701 -0.15318 0.23546
 C227 C 0.89513 -0.06373 0.38228
 C228 C 0.88309 -0.11694 0.31130
 C229 C 0.87180 -0.12828 0.28730
 C230 C 0.85848 -0.14167 0.25929
 C231 C 0.92214 -0.07770 0.39666
 H232 H 0.86149 -0.06558 0.34343
 H233 H 0.93452 -0.13832 0.34347
 H234 H 0.95709 -0.11586 0.39281
 H235 H 0.88385 -0.04291 0.39278
 C236 C 0.88258 0.07640 0.64621
 C237 C 0.89663 0.10339 0.66017
 C238 C 0.92358 0.11742 0.64588
 C239 C 0.93639 0.10459 0.61769
 C240 C 0.84701 0.15300 0.76495
 C241 C 0.89535 0.06354 0.61802
 C242 C 0.88324 0.11683 0.68898
 C243 C 0.87192 0.12816 0.71303
 C244 C 0.85854 0.14151 0.74108
 C245 C 0.92233 0.07757 0.60346
 H246 H 0.86172 0.06535 0.65707
 H247 H 0.93465 0.13831 0.65648
 H248 H 0.95723 0.11584 0.60704
 H249 H 0.88408 0.04267 0.60763
 C250 C 1.11730 -0.07534 0.64590
 C251 C 1.10339 -0.10227 0.66030
 C252 C 1.07644 -0.11650 0.64643
 C253 C 1.06350 -0.10392 0.61820
 C254 C 1.15348 -0.15111 0.76516
 C255 C 1.10441 -0.06273 0.61768
 C256 C 1.11693 -0.11545 0.68915
 C257 C 1.12838 -0.12657 0.71322
 C258 C 1.14189 -0.13972 0.74128
 C259 C 1.07742 -0.07696 0.60351
 H260 H 1.13816 -0.06414 0.65644
 H261 H 1.06547 -0.13735 0.65739
 H262 H 1.04266 -0.11531 0.60786
 H263 H 1.11557 -0.04190 0.60693
 C264 C 0.35396 1.11723 1.07582
 C265 C 0.33974 1.10311 1.10281
 C266 C 0.35382 1.07618 1.11693
 C267 C 0.38205 1.06346 1.10420
 C268 C 0.23475 1.15216 1.15235
 C269 C 0.38220 1.10454 1.06306
 C270 C 0.31086 1.11640 1.11616
 C271 C 0.28677 1.12759 1.12747
 C272 C 0.25866 1.14079 1.14083
 C273 C 0.39656 1.07757 1.07719
 H274 H 0.34326 1.13807 1.06470
 H275 H 0.34301 1.06506 1.13782
 H276 H 0.39254 1.04263 1.11553
 H277 H 0.39280 1.11584 1.04219
 C278 C 0.35419 0.88333 0.92394
 C279 C 0.34018 0.89739 0.89691
 C280 C 0.35441 0.92429 0.88275
 C281 C 0.38260 0.93703 0.89548
 C282 C 0.23538 0.84808 0.84761
 C283 C 0.38238 0.89602 0.93671
 C284 C 0.31135 0.88408 0.88358
 C285 C 0.28731 0.87283 0.87232
 C286 C 0.25925 0.85954 0.85904
 C287 C 0.39689 0.92295 0.92254
 H288 H 0.34337 0.86251 0.93510
 H289 H 0.34377 0.93537 0.86183
 H290 H 0.39322 0.95783 0.88413
 H291 H 0.39282 0.88475 0.95761
 C292 C 0.64595 0.92404 1.11771
 C293 C 0.66009 0.89710 1.10374
 C294 C 0.64607 0.88304 1.07677
 C295 C 0.61796 0.89579 1.06387
 C296 C 0.76457 0.84763 1.15359
 C297 C 0.61784 0.93683 1.10485
 C298 C 0.68883 0.88374 1.11722
 C299 C 0.71281 0.87245 1.12860
 C300 C 0.74077 0.85912 1.14203
 C301 C 0.60354 0.92277 1.07785
 H302 H 0.65661 0.93512 1.13858
 H303 H 0.65683 0.86218 1.06576
 H304 H 0.60751 0.88452 1.04301
 H305 H 0.60730 0.95767 1.11606
 C306 C 0.64693 1.07638 0.88230
 C307 C 0.66103 1.10334 0.89626
 C308 C 0.64688 1.11739 0.92324
 C309 C 0.61869 1.10461 0.93615
 C310 C 0.76578 1.15290 0.84628
 C311 C 0.61875 1.06356 0.89517
 C312 C 0.68984 1.11674 0.88276
 C313 C 0.71388 1.12804 0.87135
 C314 C 0.74192 1.14139 0.85788
 C315 C 0.60431 1.07762 0.92217
 H316 H 0.65768 1.06531 0.86142
 H317 H 0.65759 1.13826 0.93424
 H318 H 0.60814 1.11587 0.95700
 H319 H 0.60824 1.04271 0.88396
 C320 C 0.07593 0.35316 0.11685
 C321 C 0.10291 0.33923 0.10262
 C322 C 0.11691 0.35356 0.07564
 C323 C 0.10409 0.38177 0.06300
 C324 C 0.15277 0.23447 0.15161
 C325 C 0.06307 0.38137 0.10423
 C326 C 0.11637 0.31040 0.11584
 C327 C 0.12777 0.28636 0.12700
 C328 C 0.14122 0.25832 0.14020
 C329 C 0.07709 0.39599 0.07723
 H330 H 0.06490 0.34226 0.13773
 H331 H 0.13779 0.34298 0.06444
 H332 H 0.11533 0.39246 0.04213
 H333 H 0.04221 0.39176 0.11563
 C334 C -0.07613 0.35429 -0.11757
 C335 C -0.10310 0.34005 -0.10353
 C336 C -0.11724 0.35401 -0.07650
 C337 C -0.10454 0.38213 -0.06361
 C338 C -0.15238 0.23546 -0.15322
 C339 C -0.06339 0.38241 -0.10472
 C340 C -0.11640 0.31129 -0.11699
 C341 C -0.12765 0.28729 -0.12834
 C342 C -0.14093 0.25929 -0.14172
 C343 C -0.07754 0.39664 -0.07766
 H344 H -0.06499 0.34369 -0.13848
 H345 H -0.13812 0.34319 -0.06544
 H346 H -0.11588 0.39253 -0.04271
 H347 H -0.04253 0.39302 -0.11598
 C348 C 0.11720 0.64639 -0.07544
 C349 C 0.10333 0.66070 -0.10240
 C350 C 0.07643 0.64672 -0.11662
 C351 C 0.06350 0.61848 -0.10400
 C352 C 0.15344 0.76555 -0.15142
 C353 C 0.10432 0.61816 -0.06278
 C354 C 0.11687 0.68955 -0.11563
 C355 C 0.12832 0.71361 -0.12679
 C356 C 0.14184 0.74168 -0.13999
 C357 C 0.07739 0.60390 -0.07700
 H358 H 0.13802 0.65701 -0.06424
 H359 H 0.06550 0.65760 -0.13750
 H360 H 0.04270 0.60806 -0.11538
 H361 H 0.11545 0.60749 -0.04192
 C362 C -0.11737 0.64561 0.07696
 C363 C -0.10328 0.65959 0.10394
 C364 C -0.07638 0.64537 0.11792
 C365 C -0.06366 0.61723 0.10507
 C366 C -0.15236 0.76427 0.15370
 C367 C -0.10470 0.61747 0.06407
 C368 C -0.11654 0.68837 0.11740
 C369 C -0.12774 0.71239 0.12877
 C370 C -0.14096 0.74042 0.14218
 C371 C -0.07776 0.60297 0.07806
 H372 H -0.13820 0.65642 0.06594
 H373 H -0.06527 0.65599 0.13880
 H374 H -0.04285 0.60663 0.11629
 H375 H -0.11599 0.60706 0.04321
 C376 C 1.11673 0.07599 0.64560
 C377 C 1.10267 0.10288 0.65975
 C378 C 1.07577 0.11698 0.64563
 C379 C 1.06303 0.10432 0.61741
 C380 C 1.15203 0.15202 0.76456
 C381 C 1.10403 0.06329 0.61738
 C382 C 1.11599 0.11615 0.68858
 C383 C 1.12725 0.12736 0.71264
 C384 C 1.14056 0.14060 0.74070
 C385 C 1.07710 0.07739 0.60298
 H386 H 1.13755 0.06489 0.65633
 H387 H 1.06470 0.13780 0.65639
 H388 H 1.04222 0.11561 0.60688
 H389 H 1.11530 0.04248 0.60683
 C390 C 0.88306 -0.07638 0.64709
 C391 C 0.89728 -0.10325 0.66118
 C392 C 0.92423 -0.11716 0.64690
 C393 C 0.93685 -0.10433 0.61857
 C394 C 0.84843 -0.15325 0.76638
 C395 C 0.89565 -0.06351 0.61876
 C396 C 0.88409 -0.11674 0.69013
 C397 C 0.87297 -0.12817 0.71427
 C398 C 0.85982 -0.14166 0.74243
 C399 C 0.92262 -0.07743 0.60419
 H400 H 0.86219 -0.06543 0.65796
 H401 H 0.93543 -0.13796 0.65761
 H402 H 0.95770 -0.11549 0.60792
 H403 H 0.88426 -0.04273 0.60824
 C404 C 1.07527 -0.11705 0.35333
 C405 C 1.10214 -0.10295 0.33897
 C406 C 1.11627 -0.07602 0.35294
 C407 C 1.10365 -0.06326 0.38123
 C408 C 1.15132 -0.15234 0.23396
 C409 C 1.06261 -0.10433 0.38162
 C410 C 1.11538 -0.11630 0.31007
 C411 C 1.12658 -0.12757 0.28596
 C412 C 1.13985 -0.14088 0.25786
 C413 C 1.07675 -0.07736 0.39588
 H414 H 1.06414 -0.13790 0.34271
 H415 H 1.13707 -0.06493 0.34201
 H416 H 1.11497 -0.04243 0.39165
 H417 H 1.04183 -0.11562 0.39235
 C418 C 0.92368 0.11683 0.35319
 C419 C 0.89672 0.10282 0.33914
 C420 C 0.88257 0.07593 0.35338
 C421 C 0.89525 0.06314 0.38164
 C422 C 0.84773 0.15258 0.23420
 C423 C 0.93640 0.10409 0.38144
 C424 C 0.88345 0.11621 0.31027
 C425 C 0.87228 0.12757 0.28618
 C426 C 0.85910 0.14101 0.25809
 C427 C 0.92224 0.07716 0.39597
 H428 H 0.93483 0.13765 0.34236
 H429 H 0.86170 0.06489 0.34270
 H430 H 0.88392 0.04234 0.39227
 H431 H 0.95725 0.11533 0.39191
 C432 C 0.07582 0.35412 -0.11715
 C433 C 0.10266 0.33994 -0.10301
 C434 C 0.11668 0.35400 -0.07605
 C435 C 0.10398 0.38220 -0.06332
 C436 C 0.15203 0.23520 -0.15221
 C437 C 0.06308 0.38232 -0.10446
 C438 C 0.11597 0.31112 -0.11631
 C439 C 0.12724 0.28708 -0.12753
 C440 C 0.14055 0.25904 -0.14078
 C441 C 0.07711 0.39666 -0.07746
 H442 H 0.06478 0.34343 -0.13803
 H443 H 0.13745 0.34322 -0.06492
 H444 H 0.11522 0.39268 -0.04246
 H445 H 0.04232 0.39290 -0.11578
 C446 C -0.11730 0.35307 0.07631
 C447 C -0.10317 0.33889 0.10322
 C448 C -0.07626 0.35304 0.11722
 C449 C -0.06356 0.38131 0.10445
 C450 C -0.15218 0.23388 0.15299
 C451 C -0.10465 0.38134 0.06350
 C452 C -0.11642 0.31000 0.11663
 C453 C -0.12759 0.28590 0.12800
 C454 C -0.14078 0.25779 0.14143
 C455 C -0.07770 0.39577 0.07752
 H456 H -0.13814 0.34231 0.06528
 H457 H -0.06513 0.34227 0.13805
 H458 H -0.04274 0.39185 0.11569
 H459 H -0.11597 0.39192 0.04269
 C460 C -0.11709 0.64639 -0.07575
 C461 C -0.10288 0.66061 -0.10268
 C462 C -0.07591 0.64653 -0.11675
 C463 C -0.06324 0.61829 -0.10402
 C464 C -0.15177 0.76554 -0.15231
 C465 C -0.10446 0.61814 -0.06298
 C466 C -0.11611 0.68948 -0.11605
 C467 C -0.12726 0.71356 -0.12738
 C468 C -0.14042 0.74165 -0.14078
 C469 C -0.07745 0.60379 -0.07706
 H470 H -0.13797 0.65710 -0.06467
 H471 H -0.06472 0.65734 -0.13760
 H472 H -0.04238 0.60780 -0.11531
 H473 H -0.11584 0.60754 -0.04215
 C474 C 0.07503 0.64585 0.11733
 C475 C 0.10191 0.66014 0.10316
 C476 C 0.11610 0.64612 0.07621
 C477 C 0.10354 0.61786 0.06350
 C478 C 0.15080 0.76511 0.15228
 C479 C 0.06243 0.61760 0.10466
 C480 C 0.11508 0.68903 0.11644
 C481 C 0.12623 0.71312 0.12765
 C482 C 0.13941 0.74122 0.14088
 C483 C 0.07663 0.60330 0.07766
 H484 H 0.06386 0.65652 0.13820
 H485 H 0.13690 0.65699 0.06506
 H486 H 0.11490 0.60741 0.04264
 H487 H 0.04164 0.60694 0.11600
 C488 C 0.35441 1.07604 0.88274
 C489 C 0.34025 1.10291 0.89683
 C490 C 0.35436 1.11701 0.92373
 C491 C 0.38259 1.10436 0.93644
 C492 C 0.23534 1.15206 0.84770
 C493 C 0.38265 1.06336 0.89542
 C494 C 0.31139 1.11617 0.88355
 C495 C 0.28731 1.12738 0.87234
 C496 C 0.25922 1.14064 0.85911
 C497 C 0.39704 1.07746 0.92235
 H498 H 0.34368 1.06494 0.86192
 H499 H 0.34359 1.13781 0.93482
 H500 H 0.39311 1.11565 0.95725
 H501 H 0.39321 1.04257 0.88413
 C502 C 0.35336 0.92449 1.11693
 C503 C 0.33924 0.89762 1.10282
 C504 C 0.35349 0.88353 1.07594
 C505 C 0.38182 0.89618 1.06324
 C506 C 0.23407 0.84839 1.15206
 C507 C 0.38169 0.93718 1.10427
 C508 C 0.31029 0.88434 1.11610
 C509 C 0.28615 0.87311 1.12733
 C510 C 0.25801 0.85983 1.14060
 C511 C 0.39623 0.92308 1.07735
 H512 H 0.34252 0.93558 1.13774
 H513 H 0.34275 0.86273 1.06484
 H514 H 0.39245 0.88489 1.04244
 H515 H 0.39223 0.95797 1.11557
 C516 C 0.64662 1.11695 1.07592
 C517 C 0.66063 1.10284 1.10292
 C518 C 0.64638 1.07595 1.11707
 C519 C 0.61817 1.06326 1.10435
 C520 C 0.76537 1.15200 1.15233
 C521 C 0.61841 1.10430 1.06316
 C522 C 0.68945 1.11610 1.11626
 C523 C 0.71349 1.12731 1.12754
 C524 C 0.74153 1.14057 1.14086
 C525 C 0.60388 1.07738 1.07732
 H526 H 0.65746 1.13777 1.06478
 H527 H 0.65703 1.06483 1.13798
 H528 H 0.60754 1.04246 1.11569
 H529 H 0.60797 1.11561 1.04228
 C530 C 0.64672 0.88305 0.92449
 C531 C 0.66101 0.89705 0.89750
 C532 C 0.64702 0.92397 0.88325
 C533 C 0.61878 0.93678 0.89587
 C534 C 0.76587 0.84741 0.84843
 C535 C 0.61847 0.89583 0.93714
 C536 C 0.68987 0.88365 0.88427
 C537 C 0.71394 0.87231 0.87309
 C538 C 0.74200 0.85892 0.85987
 C539 C 0.60420 0.92277 0.92289
 H540 H 0.65735 0.86222 0.93571
 H541 H 0.65790 0.93499 0.86235
 H542 H 0.60835 0.95759 0.88446
 H543 H 0.60780 0.88460 0.95803
   
