data_POSCAR
  _audit_creation_date              2014-09-24
  _audit_creation_method            'ToBaCCo'
  _symmetry_space_group_name_H-M    'P1'
  _symmetry_Int_Tables_number       1
  _symmetry_cell_setting            triclinic
  loop_
  _symmetry_equiv_pos_as_xyz
 x,y,z
_cell_length_a 37.3306
_cell_length_b 36.9379
_cell_length_c 51.7077
_cell_angle_alpha 89.998400
_cell_angle_beta 90.001800
_cell_angle_gamma 120.777300
loop_
  _atom_site_label
  _atom_site_type_symbol
  _atom_site_fract_x
  _atom_site_fract_y
  _atom_site_fract_z
C1 C 0.01970 0.50440 1.27306
 C2 C -0.02307 0.49317 1.27333
 C3 C -0.04302 0.48996 1.24952
 C4 C -0.02382 0.49304 1.22545
 C5 C 0.01830 0.50290 1.22548
 C6 C 0.03869 0.50710 1.24902
 H7 H 0.07133 0.51633 1.24834
 H8 H -0.07549 0.48122 1.24975
 C9 C 0.48507 0.50719 1.27469
 C10 C 0.51306 0.49169 1.27479
 C11 C 0.52702 0.48433 1.25126
 C12 C 0.51313 0.49051 1.22740
 C13 C 0.48524 0.50569 1.22703
 C14 C 0.47110 0.51298 1.25050
 H15 H 0.45043 0.52546 1.24964
 H16 H 0.54759 0.47165 1.25159
 C17 C 0.49652 0.97930 1.27469
 C18 C 0.51039 1.02333 1.27472
 C19 C 0.51489 1.04359 1.25077
 C20 C 0.50967 1.02292 1.22711
 C21 C 0.49757 0.97993 1.22709
 C22 C 0.49228 0.95919 1.25073
 H23 H 0.48127 0.92575 1.25022
 H24 H 0.52589 1.07703 1.25030
 C25 C 1.02306 0.51068 0.77456
 C26 C 0.97990 0.49614 0.77432
 C27 C 0.95958 0.48993 0.75053
 C28 C 0.98067 0.49670 0.72694
 C29 C 1.02429 0.51190 0.72688
 C30 C 1.04432 0.51764 0.75099
 H31 H 1.07758 0.52974 0.75169
 H32 H 0.92622 0.47756 0.75030
 C33 C 0.51019 0.48931 0.72526
 C34 C 0.48743 0.51039 0.72527
 C35 C 0.47636 0.52045 0.74899
 C36 C 0.48740 0.51031 0.77269
 C37 C 0.51039 0.48949 0.77269
 C38 C 0.52134 0.47930 0.74897
 H39 H 0.53885 0.46323 0.74898
 H40 H 0.45885 0.53651 0.74902
 C41 C 0.51280 0.01924 0.72653
 C42 C 0.48452 -0.02507 0.72628
 C43 C 0.47023 -0.04586 0.75030
 C44 C 0.48469 -0.02491 0.77427
 C45 C 0.51283 0.01941 0.77391
 C46 C 0.52683 0.04037 0.75019
 H47 H 0.54752 0.07433 0.75015
 H48 H 0.44913 -0.07965 0.75036
 O49 O 0.39486 0.66682 0.97065
 O50 O 0.39728 0.73748 0.97925
 C51 C 0.37106 0.74300 0.96680
 O52 O 0.33251 0.72378 0.97208
 O53 O 0.26194 0.65409 0.97986
 C54 C 0.25618 0.62258 0.96655
 O55 O 0.27494 0.60276 0.97097
 O56 O 0.34315 0.60107 0.97819
 C57 C 0.37488 0.62786 0.96545
 O58 O 0.39702 0.65427 1.02201
 O59 O 0.39600 0.72316 1.03063
 C60 C 0.37662 0.74199 1.03606
 O61 O 0.34480 0.73639 1.02359
 O62 O 0.27611 0.66479 1.03137
 C63 C 0.25696 0.62560 1.03593
 O64 O 0.26193 0.59960 1.02256
 O65 O 0.33206 0.60181 1.02977
 C66 C 0.37073 0.62195 1.03469
 Cr67 Cr 0.39399 0.69426 1.00065
 Cr68 Cr 0.30497 0.69362 1.00170
 Cr69 Cr 0.30418 0.60363 1.00039
 O70 O 0.33440 0.66385 1.00091
 O71 O 0.60457 0.33298 0.96987
 O72 O 0.60290 0.26255 0.97776
 C73 C 0.62919 0.25750 0.96503
 O74 O 0.66777 0.27684 0.97022
 O75 O 0.73809 0.34677 0.97804
 C76 C 0.74350 0.37840 0.96500
 O77 O 0.72452 0.39789 0.96976
 O78 O 0.65601 0.39880 0.97757
 C79 C 0.62426 0.37201 0.96484
 O80 O 0.60280 0.34468 1.02140
 O81 O 0.60456 0.27606 1.02929
 C82 C 0.62437 0.25759 1.03447
 O83 O 0.65609 0.26353 1.02175
 O84 O 0.72450 0.33533 1.02957
 C85 C 0.74336 0.37443 1.03437
 O86 O 0.73802 0.40044 1.02127
 O87 O 0.66765 0.39743 1.02906
 C88 C 0.62905 0.37685 1.03420
 Cr89 Cr 0.60601 0.30525 0.99958
 Cr90 Cr 0.69546 0.30674 0.99988
 Cr91 Cr 0.69540 0.39632 0.99941
 O92 O 0.66561 0.33609 0.99961
 O93 O 0.66038 0.39997 0.52157
 O94 O 0.72857 0.39870 0.52976
 C95 C 0.74702 0.37886 0.53509
 O96 O 0.74136 0.34678 0.52248
 O97 O 0.67078 0.27748 0.53081
 C98 C 0.63217 0.25835 0.53588
 O99 O 0.60611 0.26341 0.52289
 O100 O 0.60865 0.33455 0.53003
 C101 C 0.62867 0.37376 0.53457
 O102 O 0.67158 0.39693 0.47016
 O103 O 0.74168 0.39945 0.47826
 C104 C 0.74661 0.37279 0.46561
 O105 O 0.72767 0.33390 0.47103
 O106 O 0.65898 0.26284 0.47939
 C107 C 0.62760 0.25713 0.46636
 O108 O 0.60789 0.27583 0.47123
 O109 O 0.60665 0.34494 0.47843
 C110 C 0.63289 0.37666 0.46531
 Cr111 Cr 0.69941 0.39645 0.49996
 Cr112 Cr 0.69857 0.30640 0.50092
 Cr113 Cr 0.60961 0.30583 0.50064
 O114 O 0.66919 0.33623 0.50053
 O115 O 0.33828 0.59953 0.52088
 O116 O 0.27033 0.60150 0.52848
 C117 C 0.25214 0.62169 0.53353
 O118 O 0.25810 0.65365 0.52067
 O119 O 0.32887 0.72278 0.52896
 C120 C 0.36743 0.74175 0.53415
 O121 O 0.39345 0.73623 0.52146
 O122 O 0.39025 0.66489 0.52920
 C123 C 0.36996 0.62573 0.53390
 O124 O 0.32768 0.60205 0.46936
 O125 O 0.25777 0.60021 0.47687
 C126 C 0.25319 0.62687 0.46397
 O127 O 0.27231 0.66583 0.46921
 O128 O 0.34124 0.73673 0.47753
 C129 C 0.37276 0.74220 0.46479
 O130 O 0.39212 0.72321 0.46992
 O131 O 0.39267 0.65384 0.47772
 C132 C 0.36643 0.62202 0.46468
 Cr133 Cr 0.29967 0.60314 0.49891
 Cr134 Cr 0.30123 0.69357 0.49910
 Cr135 Cr 0.38983 0.69340 0.49957
 O136 O 0.33025 0.66337 0.49921
 N137 N 0.42969 0.54064 0.31724
 C138 C 0.44826 0.54392 0.34030
 N139 N 0.47909 0.53488 0.34172
 N140 N 0.49084 0.52280 0.32068
 C141 C 0.47219 0.51900 0.29741
 N142 N 0.44149 0.52855 0.29626
 C143 C 0.43542 0.55704 0.36283
 C144 C 0.42396 0.56811 0.38141
 C145 C 0.40956 0.58130 0.40315
 N146 N 0.36842 0.56076 0.40913
 N147 N 0.35474 0.57359 0.42886
 C148 C 0.38174 0.60746 0.44326
 N149 N 0.42296 0.62795 0.43724
 N150 N 0.43663 0.61509 0.41749
 N151 N 0.45367 0.93916 0.33871
 C152 C 0.45346 0.90239 0.33917
 N153 N 0.46724 0.89109 0.31821
 N154 N 0.48130 0.91606 0.29754
 C155 C 0.48267 0.95361 0.29709
 N156 N 0.46774 0.96410 0.31801
 C157 C 0.43908 0.87575 0.36157
 C158 C 0.42740 0.85301 0.38023
 C159 C 0.41387 0.82545 0.40222
 N160 N 0.43394 0.80488 0.40881
 N161 N 0.42103 0.77862 0.42891
 C162 C 0.38760 0.77205 0.44310
 N163 N 0.36760 0.79278 0.43647
 N164 N 0.38054 0.81906 0.41636
 N165 N 0.06138 0.54710 0.33688
 C166 C 0.09659 0.54509 0.33729
 N167 N 0.10643 0.52991 0.31633
 N168 N 0.08148 0.51661 0.29573
 C169 C 0.04544 0.51745 0.29535
 N170 N 0.03648 0.53379 0.31626
 C171 C 0.12322 0.55903 0.35959
 C172 C 0.14565 0.57074 0.37831
 C173 C 0.17254 0.58488 0.40049
 N174 N 0.17790 0.55725 0.41481
 N175 N 0.20335 0.57053 0.43519
 C176 C 0.22426 0.61190 0.44194
 N177 N 0.21874 0.63946 0.42757
 N178 N 0.19330 0.62617 0.40720
 N179 N 0.50977 0.43860 0.33599
 C180 C 0.55086 0.45428 0.34071
 N181 N 0.57948 0.48241 0.32393
 N182 N 0.56742 0.49469 0.30313
 C183 C 0.52633 0.47952 0.29852
 N184 N 0.49769 0.45088 0.31518
 C185 C 0.56400 0.44072 0.36290
 C186 C 0.57556 0.42947 0.38135
 C187 C 0.58997 0.41628 0.40309
 N188 N 0.63106 0.43705 0.40922
 N189 N 0.64468 0.42452 0.42914
 C190 C 0.61766 0.39077 0.44361
 N191 N 0.57649 0.37004 0.43744
 N192 N 0.56288 0.38259 0.41750
 N193 N 0.55171 0.06266 0.33913
 C194 C 0.55184 0.09939 0.33962
 N195 N 0.53865 0.11100 0.31852
 N196 N 0.52518 0.08635 0.29769
 C197 C 0.52383 0.04882 0.29721
 N198 N 0.53824 0.03804 0.31827
 C199 C 0.56537 0.12555 0.36224
 C200 C 0.57629 0.14785 0.38111
 C201 C 0.58886 0.17487 0.40333
 N202 N 0.56822 0.19491 0.40978
 N203 N 0.58032 0.22077 0.43006
 C204 C 0.61347 0.22744 0.44459
 N205 N 0.63403 0.20722 0.43812
 N206 N 0.62192 0.18135 0.41782
 N207 N 0.93733 0.45149 0.33765
 C208 C 0.90230 0.45381 0.33857
 N209 N 0.89196 0.46896 0.31783
 N210 N 0.91621 0.48189 0.29692
 C211 C 0.95205 0.48069 0.29599
 N212 N 0.96154 0.46443 0.31671
 C213 C 0.87626 0.44008 0.36114
 C214 C 0.85417 0.42851 0.38000
 C215 C 0.82749 0.41453 0.40227
 N216 N 0.82181 0.44216 0.41636
 N217 N 0.79633 0.42897 0.43672
 C218 C 0.77569 0.38769 0.44367
 N219 N 0.78155 0.36014 0.42954
 N220 N 0.80702 0.37334 0.40919
 N221 N 0.51058 0.44621 1.16281
 C222 C 0.54987 0.45335 1.16071
 N223 N 0.57712 0.47276 1.18039
 N224 N 0.56551 0.48485 1.20148
 C225 C 0.52630 0.47819 1.20357
 N226 N 0.49896 0.45830 1.18390
 C227 C 0.56243 0.44015 1.13810
 C228 C 0.57345 0.42916 1.11927
 C229 C 0.58729 0.41627 1.09711
 N230 N 0.62811 0.43756 1.09035
 N231 N 0.64129 0.42517 1.07014
 C232 C 0.61410 0.39105 1.05600
 N233 N 0.57317 0.36981 1.06278
 N234 N 0.55999 0.38223 1.08301
 N235 N 0.88947 0.46790 1.18214
 C236 C 0.90278 0.46002 1.15964
 N237 N 0.94073 0.46363 1.15883
 N238 N 0.96464 0.47485 1.17989
 C239 C 0.95179 0.48313 1.20259
 N240 N 0.91343 0.47912 1.20316
 C241 C 0.87636 0.44652 1.13724
 C242 C 0.85371 0.43451 1.11863
 C243 C 0.82623 0.41946 1.09673
 N244 N 0.80565 0.37795 1.09055
 N245 N 0.77947 0.36368 1.07056
 C246 C 0.77297 0.39044 1.05605
 N247 N 0.79369 0.43204 1.06226
 N248 N 0.81988 0.44631 1.08227
 N249 N 0.55357 0.06607 1.16261
 C250 C 0.54494 0.09735 1.16012
 N251 N 0.52431 0.10392 1.17940
 N252 N 0.51258 0.07988 1.20053
 C253 C 0.52086 0.04825 1.20304
 N254 N 0.54186 0.04204 1.18373
 C255 C 0.55832 0.12385 1.13764
 C256 C 0.56970 0.14655 1.11895
 C257 C 0.58322 0.17412 1.09696
 N258 N 0.56291 0.19437 1.09022
 N259 N 0.57590 0.22072 1.07017
 C260 C 0.60967 0.22775 1.05618
 N261 N 0.62993 0.20735 1.06296
 N262 N 0.61692 0.18098 1.08303
 N263 N 0.42164 0.52159 1.17878
 C264 C 0.44943 0.54157 1.15945
 N265 N 0.48889 0.54937 1.16207
 N266 N 0.50018 0.53746 1.18339
 C267 C 0.47232 0.51711 1.20274
 N268 N 0.43291 0.50968 1.20008
 C269 C 0.43734 0.55519 1.13683
 C270 C 0.42651 0.56665 1.11814
 C271 C 0.41268 0.58018 1.09628
 N272 N 0.37176 0.55943 1.08976
 N273 N 0.35852 0.57258 1.06997
 C274 C 0.38574 0.60698 1.05604
 N275 N 0.42676 0.62768 1.06258
 N276 N 0.44001 0.61450 1.08240
 N277 N 0.07091 0.55610 1.16476
 C278 C 0.09488 0.53905 1.15991
 N279 N 0.09347 0.50982 1.17642
 N280 N 0.06864 0.49783 1.19708
 C281 C 0.04417 0.51445 1.20182
 N282 N 0.04611 0.54414 1.18542
 C283 C 0.12231 0.55276 1.13798
 C284 C 0.14561 0.56494 1.11968
 C285 C 0.17367 0.58020 1.09807
 N286 N 0.17972 0.55336 1.08339
 N287 N 0.20613 0.56776 1.06349
 C288 C 0.22735 0.60949 1.05761
 N289 N 0.22116 0.63625 1.07234
 N290 N 0.19476 0.62184 1.09223
 N291 N 0.48215 0.89854 1.17950
 C292 C 0.46104 0.90482 1.16041
 N293 N 0.45249 0.93616 1.16293
 N294 N 0.46473 0.96050 1.18392
 C295 C 0.48617 0.95454 1.20305
 N296 N 0.49439 0.92289 1.20049
 C297 C 0.44685 0.87780 1.13817
 C298 C 0.43471 0.85462 1.11971
 C299 C 0.42021 0.82649 1.09800
 N300 N 0.38630 0.81981 1.08439
 N301 N 0.37245 0.79302 1.06454
 C302 C 0.39204 0.77200 1.05767
 N303 N 0.42601 0.77882 1.07135
 N304 N 0.43985 0.80559 1.09118
 N305 N 0.55249 0.49409 0.65977
 C306 C 0.55000 0.45620 0.65827
 N307 N 0.53440 0.42936 0.67858
 N308 N 0.52151 0.43993 0.69973
 C309 C 0.52353 0.47764 0.70128
 N310 N 0.53959 0.50469 0.68096
 C311 C 0.56392 0.44444 0.63566
 C312 C 0.57527 0.43323 0.61709
 C313 C 0.58837 0.41846 0.59549
 N314 N 0.62214 0.44552 0.58127
 N315 N 0.63487 0.43135 0.56171
 C316 C 0.61430 0.38965 0.55577
 N317 N 0.58047 0.36269 0.57003
 N318 N 0.56775 0.37685 0.58957
 N319 N 0.50929 0.06977 0.66570
 C320 C 0.55035 0.09680 0.66102
 N321 N 0.57903 0.09826 0.67775
 N322 N 0.56707 0.07327 0.69844
 C323 C 0.52601 0.04570 0.70300
 N324 N 0.49731 0.04475 0.68641
 C325 C 0.56339 0.12397 0.63883
 C326 C 0.57487 0.14710 0.62032
 C327 C 0.58924 0.17503 0.59848
 N328 N 0.63020 0.19610 0.59205
 N329 N 0.64380 0.22248 0.57200
 C330 C 0.61688 0.22870 0.55770
 N331 N 0.57583 0.20750 0.56419
 N332 N 0.56224 0.18111 0.58425
 N333 N 0.90496 0.48687 0.67751
 C334 C 0.90514 0.45852 0.66094
 N335 N 0.93014 0.44271 0.66598
 N336 N 0.95447 0.45512 0.68687
 C337 C 0.95483 0.48401 0.70330
 N338 N 0.92928 0.49929 0.69840
 C339 C 0.87871 0.44499 0.63856
 C340 C 0.85623 0.43365 0.61988
 C341 C 0.82908 0.42016 0.59783
 N342 N 0.82252 0.38628 0.58379
 N343 N 0.79663 0.37330 0.56363
 C344 C 0.77645 0.39378 0.55684
 N345 N 0.78319 0.42775 0.57093
 N346 N 0.80907 0.44071 0.59108
 N347 N 0.44514 0.50558 0.65976
 C348 C 0.44755 0.54343 0.65827
 N349 N 0.46306 0.57024 0.67860
 N350 N 0.47595 0.55968 0.69975
 C351 C 0.47402 0.52202 0.70129
 N352 N 0.45804 0.49499 0.68096
 C353 C 0.43370 0.55520 0.63562
 C354 C 0.42244 0.56641 0.61700
 C355 C 0.40950 0.58115 0.59530
 N356 N 0.43033 0.62271 0.58926
 N357 N 0.41783 0.63684 0.56959
 C358 C 0.38402 0.60989 0.55531
 N359 N 0.36322 0.56823 0.56138
 N360 N 0.37574 0.55410 0.58108
 N361 N 0.42896 0.88548 0.68275
 C362 C 0.44832 0.90175 0.65993
 N363 N 0.47966 0.94249 0.65898
 N364 N 0.49116 0.96622 0.68025
 C365 C 0.47174 0.95038 0.70329
 N366 N 0.44052 0.90926 0.70396
 C367 C 0.43579 0.87588 0.63716
 C368 C 0.42456 0.85339 0.61837
 C369 C 0.41034 0.82580 0.59637
 N370 N 0.36946 0.80503 0.58974
 N371 N 0.35588 0.77848 0.56979
 C372 C 0.38272 0.77174 0.55580
 N373 N 0.42370 0.79265 0.56246
 N374 N 0.43727 0.81922 0.58243
 N375 N 0.05720 0.53889 0.65965
 C376 C 0.09697 0.54727 0.66070
 N377 N 0.11255 0.54392 0.68363
 N378 N 0.08898 0.53234 0.70483
 C379 C 0.04877 0.52336 0.70401
 N380 N 0.03369 0.52732 0.68089
 C381 C 0.12241 0.55967 0.63788
 C382 C 0.14422 0.57011 0.61890
 C383 C 0.17076 0.58257 0.59658
 N384 N 0.19028 0.56145 0.59000
 N385 N 0.21586 0.57366 0.56971
 C386 C 0.22278 0.60741 0.55532
 N387 N 0.20308 0.62844 0.56193
 N388 N 0.17749 0.61622 0.58223
 N389 N 0.42538 0.53050 0.81976
 C390 C 0.45211 0.54751 0.83992
 N391 N 0.49058 0.55237 0.83814
 N392 N 0.50186 0.54033 0.81686
 C393 C 0.47497 0.52283 0.79671
 N394 N 0.43665 0.51847 0.79851
 C395 C 0.43993 0.56092 0.86259
 C396 C 0.42913 0.57232 0.88133
 C397 C 0.41586 0.58622 0.90327
 N398 N 0.38209 0.55844 0.91723
 N399 N 0.36911 0.57162 0.93717
 C400 C 0.38944 0.61304 0.94377
 N401 N 0.42328 0.64075 0.92976
 N402 N 0.43624 0.62756 0.90983
 N403 N 0.06449 0.55341 0.83957
 C404 C 0.09575 0.54509 0.84191
 N405 N 0.10281 0.52507 0.82237
 N406 N 0.07928 0.51363 0.80115
 C407 C 0.04771 0.52159 0.79877
 N408 N 0.04096 0.54197 0.81833
 C409 C 0.12184 0.55820 0.86445
 C410 C 0.14444 0.56924 0.88308
 C411 C 0.17209 0.58231 0.90487
 N412 N 0.19262 0.56192 0.91072
 N413 N 0.21919 0.57461 0.93050
 C414 C 0.22616 0.60816 0.94511
 N415 N 0.20548 0.62850 0.93924
 N416 N 0.17890 0.61579 0.91943
 N417 N 0.42990 0.88596 0.81812
 C418 C 0.44965 0.90244 0.84082
 N419 N 0.48098 0.94320 0.84156
 N420 N 0.49209 0.96674 0.82022
 C421 C 0.47227 0.95071 0.79732
 N422 N 0.44107 0.90957 0.79684
 C423 C 0.43755 0.87678 0.86366
 C424 C 0.42671 0.85449 0.88254
 C425 C 0.41293 0.82711 0.90462
 N426 N 0.44013 0.82067 0.91836
 N427 N 0.42692 0.79416 0.93836
 C428 C 0.38604 0.77319 0.94526
 N429 N 0.35894 0.77981 0.93149
 N430 N 0.37215 0.80631 0.91151
 N431 N 0.57260 0.46940 0.81967
 C432 C 0.54597 0.45246 0.83988
 N433 N 0.50750 0.44761 0.83816
 N434 N 0.49612 0.45960 0.81690
 C435 C 0.52292 0.47704 0.79669
 N436 N 0.56125 0.48139 0.79844
 C437 C 0.55824 0.43908 0.86252
 C438 C 0.56914 0.42768 0.88122
 C439 C 0.58255 0.41376 0.90310
 N440 N 0.56239 0.37237 0.90953
 N441 N 0.57556 0.35916 0.92934
 C442 C 0.60939 0.38688 0.94336
 N443 N 0.62949 0.42835 0.93688
 N444 N 0.61630 0.44156 0.91706
 N445 N 0.93677 0.45180 0.83880
 C446 C 0.90497 0.45938 0.84076
 N447 N 0.89804 0.47935 0.82114
 N448 N 0.92223 0.49149 0.80020
 C449 C 0.95437 0.48431 0.79820
 N450 N 0.96096 0.46394 0.81784
 C451 C 0.87832 0.44564 0.86306
 C452 C 0.85540 0.43405 0.88154
 C453 C 0.82753 0.42028 0.90324
 N454 N 0.80666 0.44025 0.90933
 N455 N 0.78008 0.42702 0.92912
 C456 C 0.77342 0.39334 0.94349
 N457 N 0.79442 0.37343 0.93737
 N458 N 0.82102 0.38668 0.91756
 N459 N 0.50860 0.06950 0.83474
 C460 C 0.54957 0.09685 0.83946
 N461 N 0.57845 0.09878 0.82272
 N462 N 0.56676 0.07390 0.80197
 C463 C 0.52579 0.04600 0.79738
 N464 N 0.49689 0.04461 0.81399
 C465 C 0.56229 0.12378 0.86176
 C466 C 0.57343 0.14667 0.88038
 C467 C 0.58737 0.17432 0.90235
 N468 N 0.56009 0.18024 0.91639
 N469 N 0.57331 0.20651 0.93652
 C470 C 0.61425 0.22771 0.94327
 N471 N 0.64143 0.22163 0.92917
 N472 N 0.62822 0.19538 0.90907
   
