data_POSCAR
  _audit_creation_date              2014-09-24
  _audit_creation_method            'ToBaCCo'
  _symmetry_space_group_name_H-M    'P1'
  _symmetry_Int_Tables_number       1
  _symmetry_cell_setting            triclinic
  loop_
  _symmetry_equiv_pos_as_xyz
 x,y,z
_cell_length_a 17.6027
_cell_length_b 17.0495
_cell_length_c 16.9392
_cell_angle_alpha 96.005900
_cell_angle_beta 91.516500
_cell_angle_gamma 84.741400
loop_
  _atom_site_label
  _atom_site_type_symbol
  _atom_site_fract_x
  _atom_site_fract_y
  _atom_site_fract_z
C1 C -0.00928 0.53570 0.27074
 C2 C 0.00144 0.47800 0.73570
 C3 C 0.24750 0.02661 0.51316
 C4 C 0.75728 -0.02626 0.49025
 C5 C 0.48589 0.19844 0.96224
 C6 C 0.52997 0.76204 1.02887
 B7 B 0.99604 1.09504 0.04718
 B8 B 0.98960 1.07600 -0.05280
 B9 B 1.07528 1.05845 -0.00491
 B10 B 1.05792 1.02168 0.08188
 B11 B 0.96252 1.01627 0.08737
 B12 B 0.92057 1.05012 0.00530
 B13 B 1.01333 0.91534 -0.04188
 B14 B 1.01922 0.93243 0.05894
 B15 B 0.93231 0.95210 0.01154
 B16 B 0.95202 0.98870 -0.07503
 B17 B 1.04893 0.99272 -0.07903
 B18 B 1.09161 0.95842 0.00445
 B19 B 0.57313 0.49646 0.44869
 B20 B 0.49199 0.55303 0.42440
 B21 B 0.49570 0.45052 0.40904
 B22 B 0.54682 0.41421 0.48947
 B23 B 0.57428 0.49559 0.55014
 B24 B 0.54056 0.58022 0.50829
 B25 B 0.41652 0.50237 0.54924
 B26 B 0.49826 0.44998 0.57641
 B27 B 0.49342 0.55227 0.58478
 B28 B 0.44234 0.58521 0.50777
 B29 B 0.41551 0.50411 0.44669
 B30 B 0.44956 0.42018 0.48901
 C31 C 0.95675 1.34522 0.14277
 C32 C 1.02866 1.30388 0.14959
 N33 N 1.08925 1.34680 0.16559
 C34 C 1.07767 1.42642 0.18556
 C35 C 1.00385 1.46008 0.20951
 N36 N 0.94437 1.42065 0.17783
 N37 N 0.90384 1.31229 0.09451
 C38 C 0.91884 1.23802 0.05824
 C39 C 0.98278 1.18828 0.08211
 N40 N 1.03799 1.22451 0.12645
 H41 H 1.12658 1.46077 0.19109
 H42 H 0.88071 1.21986 0.01094
 C43 C 1.04306 0.72120 0.18725
 C44 C 0.97663 0.74300 0.14540
 N45 N 0.91840 0.69569 0.13952
 C46 C 0.92294 0.62787 0.17566
 C47 C 0.98812 0.60699 0.22175
 N48 N 1.04745 0.65390 0.22420
 N49 N 1.10148 0.76854 0.19143
 C50 C 1.09637 0.83641 0.15465
 C51 C 1.02956 0.85832 0.11140
 N52 N 0.97181 0.81053 0.10961
 H53 H 0.87521 0.59181 0.17053
 H54 H 1.14459 0.87151 0.15821
 C55 C 0.96010 1.28236 -0.19058
 C56 C 1.02767 1.26152 -0.15034
 N57 N 1.08463 1.31006 -0.14504
 C58 C 1.07755 1.37877 -0.17936
 C59 C 1.01116 1.39951 -0.22428
 N60 N 0.95371 1.34986 -0.22779
 N61 N 0.90103 1.23639 -0.18877
 C62 C 0.90692 1.17103 -0.14776
 C63 C 0.97590 1.14904 -0.10782
 N64 N 1.03373 1.19551 -0.11222
 H65 H 1.12275 1.41775 -0.16972
 H66 H 0.85816 1.13755 -0.14660
 C67 C 0.99537 0.69049 -0.18680
 C68 C 1.01332 0.69012 -0.10620
 N69 N 1.01748 0.62026 -0.07349
 C70 C 1.00811 0.55067 -0.11921
 C71 C 0.99464 0.55090 -0.20217
 N72 N 0.98520 0.62226 -0.23129
 N73 N 0.99412 0.75797 -0.22153
 C74 C 1.00660 0.82675 -0.17854
 C75 C 1.01786 0.83012 -0.09537
 N76 N 1.02385 0.75995 -0.06195
 H77 H 1.01264 0.49673 -0.09070
 H78 H 1.00647 0.87759 -0.21060
 C79 C 1.18556 1.05014 0.30345
 C80 C 1.11820 1.01253 0.29704
 N81 N 1.09159 0.98227 0.36072
 C82 C 1.12990 0.98802 0.43134
 C83 C 1.19805 1.02580 0.43837
 N84 N 1.22428 1.05502 0.37332
 N85 N 1.21193 1.08001 0.23937
 C86 C 1.17356 1.07382 0.16864
 C87 C 1.10600 1.03531 0.16166
 N88 N 1.08092 1.00563 0.22663
 H89 H 1.10831 0.96193 0.48082
 H90 H 1.19687 1.09774 0.11934
 C91 C 1.17638 0.97918 -0.29418
 C92 C 1.12066 1.04165 -0.27514
 N93 N 1.10646 1.09921 -0.32452
 C94 C 1.14590 1.09661 -0.39273
 C95 C 1.20213 1.03371 -0.41177
 N96 N 1.21568 0.97704 -0.36123
 N97 N 1.18986 0.92083 -0.24608
 C98 C 1.14991 0.92231 -0.17882
 C99 C 1.09398 0.98510 -0.15885
 N100 N 1.08137 1.04341 -0.20771
 H101 H 1.13315 1.14247 -0.43188
 H102 H 1.16109 0.87406 -0.14284
 C103 C 0.86824 1.02341 0.32129
 C104 C 0.86508 0.95667 0.26636
 N105 N 0.83431 0.89193 0.28731
 C106 C 0.80427 0.89209 0.36046
 C107 C 0.80330 0.96127 0.41456
 N108 N 0.83668 1.02436 0.39284
 N109 N 0.90102 1.08728 0.30184
 C110 C 0.93032 1.08776 0.22886
 C111 C 0.92454 1.02213 0.17174
 N112 N 0.89272 0.95778 0.19288
 H113 H 0.77919 0.83980 0.37453
 H114 H 0.95839 1.13854 0.21664
 C115 C 0.82150 0.96082 -0.29784
 C116 C 0.88834 0.99914 -0.29229
 N117 N 0.91346 1.02874 -0.35711
 C118 C 0.87456 1.02105 -0.42762
 C119 C 0.80687 0.98169 -0.43384
 N120 N 0.78220 0.95433 -0.36724
 N121 N 0.79695 0.92980 -0.23403
 C122 C 0.83606 0.93591 -0.16410
 C123 C 0.90232 0.97705 -0.15617
 N124 N 0.92673 1.00663 -0.22192
 H125 H 0.89627 1.04658 -0.47702
 H126 H 0.81302 0.91039 -0.11646
 C127 C 1.28054 1.17368 -0.03533
 C128 C 1.27641 1.09330 -0.05774
 N129 N 1.34109 1.04543 -0.07382
 C130 C 1.41041 1.07453 -0.06639
 C131 C 1.41432 1.15626 -0.04562
 N132 N 1.34853 1.20341 -0.03223
 N133 N 1.21745 1.21998 -0.01132
 C134 C 1.15088 1.18802 -0.00367
 C135 C 1.14671 1.10584 -0.02154
 N136 N 1.20931 1.06243 -0.05252
 H137 H 1.46048 1.03368 -0.07531
 H138 H 1.10231 1.22815 0.01144
 C139 C 0.68553 1.13849 0.01842
 C140 C 0.71334 1.09098 -0.04807
 N141 N 0.66460 1.06562 -0.10609
 C142 C 0.58917 1.08999 -0.10210
 C143 C 0.56219 1.14678 -0.03928
 N144 N 0.61281 1.16704 0.01925
 N145 N 0.73141 1.15683 0.08104
 C146 C 0.80551 1.12965 0.07938
 C147 C 0.83612 1.08757 0.00957
 N148 N 0.78829 1.06834 -0.05191
 H149 H 0.55339 1.06551 -0.14864
 H150 H 0.83995 1.14578 0.13038
 C151 C 1.32290 0.82509 0.01878
 C152 C 1.31911 0.90684 0.03407
 N153 N 1.38712 0.94189 0.05054
 C154 C 1.45950 0.89995 0.04958
 C155 C 1.45770 0.81563 0.03333
 N156 N 1.39078 0.78234 0.01962
 N157 N 1.25867 0.78819 0.00329
 C158 C 1.18912 0.82878 -0.00004
 C159 C 1.18065 0.91177 0.01232
 N160 N 1.24733 0.94845 0.03253
 H161 H 1.51447 0.94268 0.09042
 H162 H 1.14128 0.79517 -0.01005
 C163 C 0.72200 0.82531 0.01420
 C164 C 0.71424 0.90596 0.03660
 N165 N 0.64107 0.94175 0.05373
 C166 C 0.57528 0.90040 0.04994
 C167 C 0.59079 0.81641 0.03087
 N168 N 0.66150 0.78404 0.01237
 N169 N 0.79024 0.78713 -0.00447
 C170 C 0.85377 0.82530 -0.00238
 C171 C 0.85210 0.90656 0.02127
 N172 N 0.78038 0.94520 0.04108
 H173 H 0.90385 0.79072 -0.01982
 C174 C 0.79667 0.48227 0.33562
 C175 C 0.76855 0.55122 0.38138
 N176 N 0.81286 0.61267 0.39360
 C177 C 0.88380 0.60845 0.36187
 C178 C 0.91357 0.53889 0.31559
 N179 N 0.86796 0.47755 0.30485
 N180 N 0.75144 0.42183 0.32074
 C181 C 0.68001 0.42647 0.35110
 C182 C 0.65238 0.49395 0.40099
 N183 N 0.69767 0.55541 0.41329
 H184 H 0.91478 0.66041 0.36993
 H185 H 0.64668 0.37637 0.33879
 C186 C 0.18628 0.48383 0.35079
 C187 C 0.20623 0.55547 0.38750
 N188 N 0.15128 0.61619 0.40272
 C189 C 0.07781 0.60943 0.37687
 C190 C 0.05848 0.53849 0.33271
 N191 N 0.11271 0.47596 0.32982
 N192 N 0.24188 0.42677 0.32653
 C193 C 0.31671 0.43657 0.34294
 C194 C 0.33663 0.50370 0.39315
 N195 N 0.28020 0.56257 0.40876
 H196 H 0.03798 0.66146 0.38372
 H197 H 0.35687 0.38625 0.32790
 C198 C 0.79266 0.48263 0.68364
 C199 C 0.78973 0.49265 0.60289
 N200 N 0.85573 0.49125 0.56319
 C201 C 0.92441 0.48243 0.60155
 C202 C 0.92754 0.47989 0.68509
 N203 N 0.86048 0.47910 0.72310
 N204 N 0.72786 0.47402 0.72113
 C205 C 0.65999 0.47489 0.68159
 C206 C 0.65458 0.48917 0.60074
 N207 N 0.72104 0.49884 0.56450
 H208 H 0.97512 0.47750 0.56637
 H209 H 0.61218 0.46775 0.71591
 C210 C 0.20331 0.45514 0.66221
 C211 C 0.20789 0.52351 0.62499
 N212 N 0.14383 0.57170 0.61447
 C213 C 0.07607 0.55560 0.64276
 C214 C 0.07181 0.48865 0.68571
 N215 N 0.13629 0.43923 0.69106
 N216 N 0.26600 0.40511 0.66893
 C217 C 0.33319 0.42013 0.63964
 C218 C 0.34050 0.49004 0.60152
 N219 N 0.27574 0.53874 0.59653
 H220 H 0.02642 0.59570 0.63269
 H221 H 0.37530 0.37107 0.63713
 C222 C 0.48193 0.68673 0.22025
 C223 C 0.55003 0.64498 0.24211
 N224 N 0.61095 0.63945 0.19404
 C225 C 0.60671 0.67368 0.12488
 C226 C 0.53767 0.71540 0.10178
 N227 N 0.47751 0.72043 0.15150
 N228 N 0.42051 0.69186 0.26718
 C229 C 0.42338 0.65536 0.33449
 C230 C 0.49092 0.61066 0.35609
 N231 N 0.55309 0.60784 0.30928
 H232 H 0.65775 0.66977 0.09070
 H233 H 0.37155 0.65744 0.36675
 C234 C 0.48049 0.68688 0.81786
 C235 C 0.54647 0.63997 0.79363
 N236 N 0.60251 0.62464 0.84761
 C237 C 0.59641 0.65629 0.92447
 C238 C 0.53274 0.70974 0.94834
 N239 N 0.47614 0.72196 0.89313
 N240 N 0.42050 0.69422 0.76684
 C241 C 0.42355 0.65612 0.69241
 C242 C 0.49112 0.61067 0.66589
 N243 N 0.55087 0.60510 0.71810
 H244 H 0.64281 0.64211 0.96450
 H245 H 0.37158 0.65681 0.65792
 C246 C 0.48198 0.35033 0.15122
 C247 C 0.49426 0.29954 0.21179
 N248 N 0.49394 0.22070 0.19113
 C249 C 0.48430 0.19101 0.11389
 C250 C 0.48048 0.24101 0.05074
 N251 N 0.47794 0.32079 0.07224
 N252 N 0.46833 0.42838 0.17316
 C253 C 0.46951 0.45809 0.25077
 C254 C 0.49232 0.41028 0.31305
 N255 N 0.50161 0.33012 0.29043
 H256 H 0.48498 0.12743 0.10052
 H257 H 0.44434 0.51665 0.26161
 C258 C 0.49412 0.35059 0.81062
 C259 C 0.50461 0.30030 0.73922
 N260 N 0.49516 0.22304 0.74061
 C261 C 0.48054 0.19405 0.80965
 C262 C 0.48528 0.24098 0.88447
 N263 N 0.48915 0.32016 0.88217
 N264 N 0.47697 0.42820 0.80534
 C265 C 0.47354 0.45748 0.73393
 C266 C 0.49883 0.41065 0.66280
 N267 N 0.51138 0.33105 0.66808
 H268 H 0.46414 0.13451 0.80531
 H269 H 0.44343 0.51409 0.73384
 C270 C 0.67424 0.78922 0.53137
 C271 C 0.60888 0.79096 0.48337
 N272 N 0.58658 0.85908 0.44816
 C273 C 0.62852 0.92459 0.45615
 C274 C 0.70283 0.91137 0.49238
 N275 N 0.72133 0.84685 0.53163
 N276 N 0.68961 0.73050 0.57841
 C277 C 0.64494 0.66996 0.57653
 C278 C 0.58665 0.66144 0.51847
 N279 N 0.56965 0.72425 0.47351
 H280 H 0.60713 0.97877 0.40447
 H281 H 0.65581 0.63070 0.62130
 C282 C 0.68925 0.18647 0.49518
 C283 C 0.61339 0.18433 0.47021
 N284 N 0.58537 0.11168 0.44959
 C285 C 0.62874 0.04037 0.45585
 C286 C 0.70531 0.04728 0.48622
 N287 N 0.73263 0.11884 0.50372
 N288 N 0.72066 0.25609 0.50574
 C289 C 0.67881 0.32534 0.49745
 C290 C 0.59991 0.32773 0.48217
 N291 N 0.57064 0.25541 0.46450
 H292 H 0.70885 0.37644 0.49927
 C293 C 0.31008 0.81641 0.50249
 C294 C 0.38908 0.81468 0.51123
 N295 N 0.42238 0.88503 0.52023
 C296 C 0.38026 0.95745 0.51962
 C297 C 0.29935 0.95356 0.50627
 N298 N 0.26787 0.88442 0.49768
 N299 N 0.27474 0.75131 0.50809
 C300 C 0.31465 0.68234 0.51807
 C301 C 0.39446 0.67375 0.51528
 N302 N 0.42963 0.74265 0.51593
 H303 H 0.41631 1.01522 0.56203
 H304 H 0.28150 0.63682 0.52570
 C305 C 0.31041 0.22124 0.49534
 C306 C 0.38961 0.20808 0.50153
 N307 N 0.42220 0.13472 0.51627
 C308 C 0.37928 0.07235 0.52292
 C309 C 0.29791 0.09072 0.51726
 N310 N 0.26688 0.16301 0.50337
 N311 N 0.27692 0.29315 0.48445
 C312 C 0.31890 0.35409 0.47910
 C313 C 0.39944 0.34400 0.48412
 N314 N 0.43176 0.27056 0.49756
 H315 H 0.28745 0.41095 0.47943
   
