data_POSCAR
  _audit_creation_date              2014-09-24
  _audit_creation_method            'ToBaCCo'
  _symmetry_space_group_name_H-M    'P1'
  _symmetry_Int_Tables_number       1
  _symmetry_cell_setting            triclinic
  loop_
  _symmetry_equiv_pos_as_xyz
 x,y,z
_cell_length_a 46.7044
_cell_length_b 46.6087
_cell_length_c 46.8157
_cell_angle_alpha 89.955500
_cell_angle_beta 89.997200
_cell_angle_gamma 89.980900
loop_
  _atom_site_label
  _atom_site_type_symbol
  _atom_site_fract_x
  _atom_site_fract_y
  _atom_site_fract_z
N1 N 0.28899 0.36882 1.34916
 N2 N 0.28976 0.34835 1.36853
 C3 C 0.26772 0.35188 1.38679
 C4 C 0.25259 0.37579 1.37825
 C5 C 0.26649 0.38611 1.35441
 H6 H 0.26305 0.33820 1.40485
 H7 H 0.26073 0.40475 1.34188
 Cu8 Cu 0.31960 0.31927 1.36790
 Cu9 Cu 0.31710 0.37145 1.31852
 Cu10 Cu 0.37038 0.31944 1.31709
 N11 N 0.34935 0.29011 1.36700
 N12 N 0.36923 0.29041 1.34707
 C13 C 0.38719 0.26821 1.35124
 C14 C 0.37796 0.25335 1.37495
 C15 C 0.35397 0.26762 1.38456
 H16 H 0.40557 0.26328 1.33807
 H17 H 0.34096 0.26209 1.40286
 N18 N 0.36772 0.35063 1.28873
 N19 N 0.34743 0.37039 1.28931
 C20 C 0.35125 0.38849 1.26719
 C21 C 0.37496 0.37962 1.25214
 C22 C 0.38498 0.35566 1.26620
 H23 H 0.33782 0.40674 1.26232
 H24 H 0.40342 0.34288 1.26040
 H25 H 0.32712 0.32823 1.31723
 H26 H 0.35022 0.35133 1.34023
 N27 N 1.21053 0.63300 0.85093
 N28 N 1.20967 0.65345 0.87028
 C29 C 1.23156 0.64982 0.88871
 C30 C 1.24681 0.62597 0.88026
 C31 C 1.23302 0.61575 0.85630
 H32 H 1.23609 0.66339 0.90688
 H33 H 1.23893 0.59720 0.84373
 Cu34 Cu 1.17976 0.68244 0.86955
 Cu35 Cu 1.18243 0.63031 0.82021
 Cu36 Cu 1.12899 0.68220 0.81880
 N37 N 1.14990 0.71147 0.86872
 N38 N 1.13004 0.71112 0.84878
 C39 C 1.11197 0.73320 0.85292
 C40 C 1.12101 0.74800 0.87669
 C41 C 1.14505 0.73382 0.88638
 H42 H 1.09366 0.73813 0.83963
 H43 H 1.15791 0.73932 0.90479
 N44 N 1.13175 0.65115 0.79041
 N45 N 1.15206 0.63141 0.79094
 C46 C 1.14824 0.61343 0.76874
 C47 C 1.12449 0.62236 0.75374
 C48 C 1.11450 0.64625 0.76786
 H49 H 1.16169 0.59522 0.76378
 H50 H 1.09607 0.65906 0.76209
 H51 H 1.17221 0.67341 0.81881
 H52 H 1.14925 0.65029 0.84193
 N53 N 0.71055 -0.13295 0.14944
 N54 N 0.71007 -0.15366 0.13036
 C55 C 0.73211 -0.15006 0.11212
 C56 C 0.74694 -0.12586 0.12031
 C57 C 0.73284 -0.11547 0.14400
 H58 H 0.73697 -0.16383 0.09419
 H59 H 0.73831 -0.09659 0.15627
 Cu60 Cu 0.68020 -0.18274 0.13112
 Cu61 Cu 0.68224 -0.13006 0.17988
 Cu62 Cu 0.62888 -0.18197 0.18126
 N63 N 0.65031 -0.21180 0.13184
 N64 N 0.63017 -0.21115 0.15150
 C65 C 0.61200 -0.23314 0.14726
 C66 C 0.62134 -0.24824 0.12377
 C67 C 0.64564 -0.23432 0.11437
 H68 H 0.59338 -0.23774 0.16022
 H69 H 0.65878 -0.24009 0.09623
 N70 N 0.63139 -0.15069 0.20945
 N71 N 0.65169 -0.13094 0.20890
 C72 C 0.64777 -0.11283 0.23096
 C73 C 0.62401 -0.12169 0.24595
 C74 C 0.61405 -0.14564 0.23190
 H75 H 0.66122 -0.09462 0.23589
 H76 H 0.59563 -0.15844 0.23771
 H77 H 0.67221 -0.17319 0.18165
 H78 H 0.64944 -0.15030 0.15809
 N79 N -0.21040 1.13179 -0.34875
 N80 N -0.20953 1.15210 -0.36825
 C81 C -0.23158 1.14856 -0.38646
 C82 C -0.24688 1.12482 -0.37781
 C83 C -0.23301 1.11460 -0.35390
 H84 H -0.23615 1.16210 -0.40468
 H85 H -0.23887 1.09608 -0.34126
 Cu86 Cu -0.17952 1.18101 -0.36806
 Cu87 Cu -0.18228 1.12913 -0.31820
 Cu88 Cu -0.12903 1.18103 -0.31681
 N89 N -0.14991 1.21029 -0.36673
 N90 N -0.13016 1.21007 -0.34669
 C91 C -0.11223 1.23233 -0.35081
 C92 C -0.12140 1.24710 -0.37461
 C93 C -0.14528 1.23274 -0.38429
 H94 H -0.09392 1.23731 -0.33757
 H95 H -0.15814 1.23815 -0.40275
 N96 N -0.13165 1.14987 -0.28847
 N97 N -0.15194 1.13014 -0.28903
 C98 C -0.14802 1.11196 -0.26700
 C99 C -0.12423 1.12075 -0.25205
 C100 C -0.11428 1.14475 -0.26605
 H101 H -0.16143 1.09369 -0.26213
 H102 H -0.09581 1.15748 -0.26030
 H103 H -0.17236 1.17237 -0.31720
 H104 H -0.14915 1.14907 -0.33990
 N105 N 0.71083 0.63192 0.64898
 N106 N 0.70956 0.65189 0.62913
 C107 C 0.73145 0.64820 0.61075
 C108 C 0.74708 0.62477 0.61969
 C109 C 0.73355 0.61486 0.64393
 H110 H 0.73580 0.66151 0.59233
 H111 H 0.73977 0.59669 0.65691
 Cu112 Cu 0.67965 0.68092 0.62987
 Cu113 Cu 0.68304 0.62948 0.67994
 Cu114 Cu 0.62967 0.68144 0.68128
 N115 N 0.64983 0.71008 0.63063
 N116 N 0.63046 0.71016 0.65103
 C117 C 0.61264 0.73251 0.64713
 C118 C 0.62137 0.74711 0.62309
 C119 C 0.64496 0.73246 0.61300
 H120 H 0.59472 0.73780 0.66079
 H121 H 0.65758 0.73776 0.59436
 N122 N 0.63261 0.65056 0.70990
 N123 N 0.65291 0.63081 0.70939
 C124 C 0.64900 0.61272 0.73151
 C125 C 0.62521 0.62160 0.74645
 C126 C 0.61527 0.64556 0.73236
 H127 H 0.66234 0.59440 0.73637
 H128 H 0.59675 0.65826 0.73803
 H129 H 0.64975 0.64917 0.65851
 H130 H 0.67309 0.67264 0.68086
 N131 N 0.78962 0.36873 0.15141
 N132 N 0.79052 0.34843 0.13190
 C133 C 0.76844 0.35195 0.11374
 C134 C 0.75315 0.37568 0.12240
 C135 C 0.76702 0.38592 0.14627
 H136 H 0.76373 0.33833 0.09564
 H137 H 0.76119 0.40444 0.15889
 Cu138 Cu 0.82031 0.31934 0.13262
 Cu139 Cu 0.81768 0.37136 0.18206
 Cu140 Cu 0.87098 0.31931 0.18341
 N141 N 0.85010 0.29022 0.13334
 N142 N 0.86984 0.29036 0.15340
 C143 C 0.88765 0.26801 0.14935
 C144 C 0.87843 0.25319 0.12563
 C145 C 0.85462 0.26769 0.11589
 H146 H 0.90592 0.26295 0.16262
 H147 H 0.84161 0.26215 0.09759
 N148 N 0.86833 0.35043 0.21179
 N149 N 0.84805 0.37021 0.21122
 C150 C 0.85201 0.38839 0.23322
 C151 C 0.87578 0.37954 0.24816
 C152 C 0.88572 0.35554 0.23419
 H153 H 0.83868 0.40672 0.23804
 H154 H 0.90423 0.34283 0.23993
 H155 H 0.85067 0.35134 0.16059
 H156 H 0.82754 0.32815 0.18347
 N157 N 0.28935 0.13128 0.84870
 N158 N 0.29032 0.15160 0.86815
 C159 C 0.26832 0.14810 0.88645
 C160 C 0.25294 0.12443 0.87782
 C161 C 0.26673 0.11416 0.85391
 H162 H 0.26378 0.16166 0.90462
 H163 H 0.26076 0.09568 0.84128
 Cu164 Cu 0.32010 0.18063 0.86738
 Cu165 Cu 0.31737 0.12860 0.81799
 Cu166 Cu 0.37072 0.18058 0.81652
 N167 N 0.34988 0.20968 0.86660
 N168 N 0.36962 0.20953 0.84656
 C169 C 0.38749 0.23179 0.85067
 C170 C 0.37838 0.24655 0.87448
 C171 C 0.35455 0.23209 0.88421
 H172 H 0.40573 0.23689 0.83737
 H173 H 0.34166 0.23750 0.90262
 N174 N 0.36796 0.14945 0.78815
 N175 N 0.34765 0.12971 0.78877
 C176 C 0.35158 0.11147 0.76683
 C177 C 0.37538 0.12020 0.75187
 C178 C 0.38534 0.14425 0.76576
 H179 H 0.33821 0.09315 0.76208
 H180 H 0.40387 0.15691 0.76001
 H181 H 0.35047 0.14859 0.83948
 H182 H 0.32736 0.17178 0.81657
 N183 N 0.21070 0.86776 0.35068
 N184 N 0.20979 0.84746 0.37020
 C185 C 0.23175 0.85110 0.38851
 C186 C 0.24699 0.87488 0.37988
 C187 C 0.23322 0.88501 0.35588
 H188 H 0.23633 0.83761 0.40675
 H189 H 0.23909 0.90350 0.34319
 Cu190 Cu 0.18002 0.81832 0.36945
 Cu191 Cu 0.18266 0.87044 0.32001
 Cu192 Cu 0.12937 0.81850 0.31865
 N193 N 0.15013 0.78927 0.36870
 N194 N 0.13044 0.78954 0.34860
 C195 C 0.11250 0.76732 0.35260
 C196 C 0.12148 0.75245 0.37637
 C197 C 0.14536 0.76678 0.38620
 H198 H 0.09431 0.76234 0.33920
 H199 H 0.15817 0.76123 0.40465
 N200 N 0.13204 0.84959 0.29028
 N201 N 0.15232 0.86934 0.29081
 C202 C 0.14835 0.88751 0.26879
 C203 C 0.12456 0.87866 0.25388
 C204 C 0.11463 0.85468 0.26789
 H205 H 0.16169 0.90582 0.26392
 H206 H 0.09614 0.84197 0.26219
 H207 H 0.14974 0.85038 0.34159
 H208 H 0.17284 0.82720 0.31864
 Zn209 Zn 0.00281 1.03596 -0.01446
 Zn210 Zn -0.02219 0.97707 -0.02195
 Zn211 Zn 0.03652 0.98474 0.00318
 Zn212 Zn -0.01486 1.00225 0.03660
 O213 O 0.00051 0.99993 0.00078
 O214 O -0.01720 1.03926 -0.04667
 O215 O -0.00322 0.94627 -0.03555
 O216 O 0.06369 1.00815 -0.01042
 O217 O -0.03588 0.99594 -0.05268
 O218 O 0.03857 1.04626 -0.02357
 O219 O 0.03995 0.95243 -0.01680
 O220 O 0.00839 0.98854 0.06374
 O221 O -0.05302 0.96334 -0.00320
 O222 O 0.04664 0.97554 0.03891
 O223 O -0.04717 0.98222 0.03987
 O224 O -0.02406 1.03811 0.04674
 O225 O -0.01095 1.06318 0.00871
 C226 C -0.03240 1.02173 -0.06068
 C227 C 0.02252 0.93830 -0.03198
 C228 C 0.06214 1.03301 -0.02127
 C229 C 0.03324 0.97773 0.06234
 C230 C -0.06118 0.96697 0.02240
 C231 C -0.02183 1.06169 0.03346
 Zn232 Zn 0.48493 0.00351 0.46278
 Zn233 Zn 0.47769 -0.02179 0.52136
 Zn234 Zn 0.53630 -0.01414 0.49624
 Zn235 Zn 0.50265 0.03715 0.51386
 O236 O 0.50034 0.00113 0.49861
 O237 O 0.45264 -0.01663 0.45956
 O238 O 0.49655 -0.05262 0.53502
 O239 O 0.54638 -0.02335 0.46049
 O240 O 0.44692 -0.03551 0.50268
 O241 O 0.50820 -0.01022 0.43559
 O242 O 0.53971 -0.04652 0.51625
 O243 O 0.53846 0.04738 0.52306
 O244 O 0.46401 -0.00303 0.55205
 O245 O 0.56349 0.00919 0.50995
 O246 O 0.48266 0.04032 0.54612
 O247 O 0.48873 0.06444 0.49071
 O248 O 0.47556 0.03940 0.45271
 C249 C 0.43873 -0.03193 0.47708
 C250 C 0.52228 -0.06064 0.53147
 C251 C 0.53300 -0.02115 0.43704
 C252 C 0.56200 0.03402 0.52088
 C253 C 0.46751 0.02271 0.56011
 C254 C 0.47770 0.06297 0.46603
 Zn255 Zn 0.98563 0.49645 0.53715
 Zn256 Zn 1.00331 0.46268 0.48607
 Zn257 Zn 0.97817 0.52153 0.47852
 Zn258 Zn 1.03691 0.51402 0.50355
 O259 O 1.00095 0.49873 0.50127
 O260 O 0.97638 0.46057 0.54730
 O261 O 0.98325 0.45935 0.45389
 O262 O 0.94741 0.53527 0.49725
 O263 O 0.98954 0.43547 0.50931
 O264 O 0.95330 0.51655 0.54041
 O265 O 0.96447 0.50264 0.44789
 O266 O 1.04016 0.54635 0.48346
 O267 O 1.03910 0.45248 0.47679
 O268 O 0.99694 0.55234 0.46477
 O269 O 1.06412 0.49068 0.48978
 O270 O 1.04705 0.52336 0.53928
 O271 O 1.00892 0.51030 0.56427
 C272 C 0.97856 0.43699 0.53401
 C273 C 0.96803 0.47689 0.43988
 C274 C 0.93929 0.53178 0.52288
 C275 C 1.02265 0.56041 0.46827
 C276 C 1.06263 0.46584 0.47887
 C277 C 1.03371 0.52126 0.56276
 Zn278 Zn 0.50280 0.46384 1.01453
 Zn279 Zn 0.47788 0.52281 1.02201
 Zn280 Zn 0.53655 0.51508 0.99692
 Zn281 Zn 0.48523 0.49758 0.96342
 O282 O 0.50055 0.49989 0.99928
 O283 O 0.48270 0.46057 1.04672
 O284 O 0.49687 0.55355 1.03573
 O285 O 0.56369 0.49166 1.01055
 O286 O 0.46406 0.50393 1.05268
 O287 O 0.53857 0.45356 1.02373
 O288 O 0.54001 0.54738 1.01693
 O289 O 0.50853 0.51127 0.93627
 O290 O 0.44718 0.53669 1.00320
 O291 O 0.54669 0.52432 0.96119
 O292 O 0.45299 0.51777 0.96013
 O293 O 0.47593 0.46171 0.95330
 O294 O 0.48904 0.43660 0.99132
 C295 C 0.46751 0.47814 1.06071
 C296 C 0.52261 0.56152 1.03216
 C297 C 0.56214 0.46682 1.02146
 C298 C 0.53335 0.52213 0.93772
 C299 C 0.43905 0.53312 0.97757
 C300 C 0.47812 0.43812 0.96659
 C301 C 1.22888 0.38697 0.39093
 C302 C 1.20789 0.39682 0.40228
 C303 C 1.18286 0.40845 0.41601
 C304 C 1.17461 0.43690 0.41089
 C305 C 1.15040 0.44818 0.42442
 C306 C 1.13434 0.43110 0.44316
 C307 C 1.14253 0.40262 0.44819
 C308 C 1.16675 0.39133 0.43465
 C309 C 1.10925 0.44277 0.45674
 C310 C 1.08808 0.45302 0.46740
 H311 H 1.18685 0.45033 0.39647
 H312 H 1.14416 0.47019 0.42026
 H313 H 1.13020 0.38917 0.46251
 H314 H 1.17291 0.36929 0.43872
 C315 C 0.27184 0.61421 0.89373
 C316 C 0.29283 0.60434 0.90509
 C317 C 0.31785 0.59244 0.91863
 C318 C 0.33090 0.60686 0.94146
 C319 C 0.35520 0.59523 0.95461
 C320 C 0.36651 0.56912 0.94499
 C321 C 0.35347 0.55474 0.92216
 C322 C 0.32921 0.56636 0.90902
 C323 C 0.39186 0.55723 0.95789
 C324 C 0.41330 0.54662 0.96762
 H325 H 0.32234 0.62708 0.94902
 H326 H 0.36521 0.60661 0.97213
 H327 H 0.36215 0.53463 0.91444
 H328 H 0.31937 0.55505 0.89135
 C329 C -0.22824 0.88622 0.10673
 C330 C -0.20738 0.89625 0.09529
 C331 C -0.18238 0.90803 0.08164
 C332 C -0.18527 0.92728 0.05879
 C333 C -0.16091 0.93857 0.04548
 C334 C -0.13357 0.93062 0.05494
 C335 C -0.13070 0.91143 0.07782
 C336 C -0.15503 0.90015 0.09112
 C337 C -0.10840 0.94293 0.04207
 C338 C -0.08700 0.95360 0.03234
 H339 H -0.20631 0.93360 0.05133
 H340 H -0.16338 0.95358 0.02797
 H341 H -0.10966 0.90533 0.08548
 H342 H -0.15253 0.88538 0.10883
 C343 C 0.72805 0.11303 0.60885
 C344 C 0.70708 0.10318 0.59750
 C345 C 0.68211 0.09151 0.58372
 C346 C 0.66806 0.10726 0.56240
 C347 C 0.64395 0.09586 0.54878
 C348 C 0.63379 0.06865 0.55643
 C349 C 0.64779 0.05292 0.57780
 C350 C 0.67190 0.06431 0.59142
 C351 C 0.60870 0.05699 0.54288
 C352 C 0.58749 0.04680 0.53227
 H353 H 0.67574 0.12833 0.55632
 H354 H 0.63321 0.10827 0.53239
 H355 H 0.64002 0.03191 0.58398
 H356 H 0.68253 0.05195 0.60791
 C357 C 0.39023 0.22954 0.38648
 C358 C 0.40141 0.20846 0.39647
 C359 C 0.41504 0.18338 0.40822
 C360 C 0.40913 0.17482 0.43630
 C361 C 0.42258 0.15059 0.44777
 C362 C 0.44203 0.13482 0.43124
 C363 C 0.44786 0.14331 0.40312
 C364 C 0.43441 0.16755 0.39164
 C365 C 0.45553 0.10971 0.44305
 C366 C 0.46619 0.08849 0.45330
 H367 H 0.39416 0.18684 0.44930
 H368 H 0.41778 0.14412 0.46949
 H369 H 0.46274 0.13118 0.39010
 H370 H 0.43911 0.17393 0.36988
 C371 C 0.89096 0.27076 0.61368
 C372 C 0.90216 0.29169 0.60349
 C373 C 0.91580 0.31666 0.59153
 C374 C 0.94032 0.31363 0.57454
 C375 C 0.95381 0.33791 0.56322
 C376 C 0.94287 0.36530 0.56892
 C377 C 0.91827 0.36831 0.58579
 C378 C 0.90478 0.34405 0.59711
 C379 C 0.95642 0.39031 0.55700
 C380 C 0.96708 0.41149 0.54675
 H381 H 0.94900 0.29255 0.57008
 H382 H 0.97268 0.33533 0.55001
 H383 H 0.90951 0.38939 0.59013
 H384 H 0.88583 0.34666 0.61020
 C385 C 0.10859 0.77170 -0.11184
 C386 C 0.09722 0.79268 -0.10196
 C387 C 0.08330 0.81761 -0.09035
 C388 C 0.07788 0.81936 -0.06098
 C389 C 0.06411 0.84347 -0.04971
 C390 C 0.05564 0.86591 -0.06778
 C391 C 0.06111 0.86420 -0.09715
 C392 C 0.07489 0.84007 -0.10843
 C393 C 0.04259 0.89118 -0.05589
 C394 C 0.03266 0.91256 -0.04534
 H395 H 0.08437 0.80216 -0.04680
 H396 H 0.06028 0.84472 -0.02692
 H397 H 0.05495 0.88157 -0.11126
 H398 H 0.07905 0.83897 -0.13117
 C399 C 0.60877 0.72816 1.11219
 C400 C 0.59727 0.70729 1.10219
 C401 C 0.58325 0.68244 1.09045
 C402 C 0.56386 0.66671 1.10712
 C403 C 0.55022 0.64256 1.09572
 C404 C 0.55590 0.63407 1.06758
 C405 C 0.57526 0.64982 1.05092
 C406 C 0.58889 0.67395 1.06231
 C407 C 0.54273 0.60872 1.05592
 C408 C 0.53277 0.58729 1.04549
 H409 H 0.55936 0.67307 1.12892
 H410 H 0.53542 0.63045 1.10884
 H411 H 0.57994 0.64334 1.02919
 H412 H 0.60387 0.68589 1.04923
 C413 C 0.38682 0.39290 1.22708
 C414 C 0.39665 0.40431 1.20614
 C415 C 0.40844 0.41815 1.18126
 C416 C 0.39155 0.43689 1.16496
 C417 C 0.40309 0.45042 1.14087
 C418 C 0.43159 0.44528 1.13302
 C419 C 0.44845 0.42656 1.14933
 C420 C 0.43692 0.41303 1.17339
 C421 C 0.44343 0.45830 1.10775
 C422 C 0.45402 0.46812 1.08638
 H423 H 0.36948 0.44096 1.17082
 H424 H 0.38981 0.46471 1.12830
 H425 H 0.47045 0.42229 1.14334
 H426 H 0.45017 0.39856 1.18578
 C427 C 0.61224 -0.10867 0.27114
 C428 C 0.60248 -0.09752 0.29223
 C429 C 0.59085 -0.08393 0.31728
 C430 C 0.60809 -0.06594 0.33398
 C431 C 0.59664 -0.05232 0.35804
 C432 C 0.56790 -0.05664 0.36547
 C433 C 0.55072 -0.07476 0.34885
 C434 C 0.56216 -0.08837 0.32481
 C435 C 0.55611 -0.04311 0.39048
 C436 C 0.54581 -0.03252 0.41160
 H437 H 0.63032 -0.06243 0.32840
 H438 H 0.61016 -0.03852 0.37085
 H439 H 0.52852 -0.07840 0.35452
 H440 H 0.54865 -0.10230 0.31211
 C441 C -0.11232 1.10743 -0.22707
 C442 C -0.10256 1.09599 -0.20612
 C443 C -0.09114 1.08216 -0.18111
 C444 C -0.08066 1.05403 -0.18281
 C445 C -0.06963 1.04055 -0.15846
 C446 C -0.06906 1.05515 -0.13233
 C447 C -0.07958 1.08327 -0.13063
 C448 C -0.09060 1.09674 -0.15496
 C449 C -0.05677 1.04188 -0.10741
 C450 C -0.04597 1.03187 -0.08625
 H451 H -0.08095 1.04258 -0.20294
 H452 H -0.06139 1.01888 -0.16004
 H453 H -0.07908 1.09482 -0.11056
 H454 H -0.09860 1.11851 -0.15340
 C455 C 1.11249 0.60920 0.72872
 C456 C 1.10253 0.59790 0.70780
 C457 C 1.09084 0.58415 0.68286
 C458 C 1.10074 0.59170 0.65562
 C459 C 1.08968 0.57806 0.63141
 C460 C 1.06869 0.55677 0.63433
 C461 C 1.05872 0.54928 0.66156
 C462 C 1.06979 0.56293 0.68578
 C463 C 1.05681 0.54331 0.60932
 C464 C 1.04652 0.53272 0.58818
 H465 H 1.11697 0.60812 0.65311
 H466 H 1.09739 0.58418 0.61045
 H467 H 1.04235 0.53301 0.66406
 H468 H 1.06194 0.55696 0.70674
 C469 C 0.77225 0.61313 0.60641
 C470 C 0.79331 0.60343 0.59508
 C471 C 0.81837 0.59187 0.58136
 C472 C 0.84569 0.60106 0.58964
 C473 C 0.87001 0.58968 0.57638
 C474 C 0.86712 0.56907 0.55479
 C475 C 0.83980 0.55998 0.54642
 C476 C 0.81547 0.57136 0.55967
 C477 C 0.89226 0.55639 0.54226
 C478 C 0.91359 0.54540 0.53274
 H479 H 0.84821 0.61687 0.60641
 H480 H 0.89105 0.59674 0.58313
 H481 H 0.83731 0.54394 0.52986
 H482 H 0.79444 0.56409 0.55313
 C483 C 0.72811 0.38746 1.10903
 C484 C 0.70718 0.39726 1.09756
 C485 C 0.68228 0.40887 1.08365
 C486 C 0.65498 0.39867 1.09075
 C487 C 0.63079 0.40983 1.07708
 C488 C 0.63381 0.43121 1.05624
 C489 C 0.66111 0.44143 1.04915
 C490 C 0.68530 0.43027 1.06283
 C491 C 0.60881 0.44334 1.04296
 C492 C 0.58763 0.45383 1.03260
 H493 H 0.65238 0.38218 1.10687
 H494 H 0.60975 0.40194 1.08287
 H495 H 0.66367 0.45811 1.03323
 H496 H 0.70632 0.43835 1.05723
 C497 C 0.22780 1.11284 -0.10887
 C498 C 0.20677 1.10312 -0.09752
 C499 C 0.18183 1.09145 -0.08376
 C500 C 0.16660 1.10793 -0.06386
 C501 C 0.14261 1.09639 -0.05012
 C502 C 0.13379 1.06834 -0.05627
 C503 C 0.14897 1.05192 -0.07623
 C504 C 0.17293 1.06344 -0.08995
 C505 C 0.10877 1.05650 -0.04279
 C506 C 0.08760 1.04605 -0.03238
 H507 H 0.17328 1.12963 -0.05897
 H508 H 0.13092 1.10934 -0.03484
 H509 H 0.14222 1.03026 -0.08124
 H510 H 0.18450 1.05053 -0.10535
 C511 C 0.27201 -0.11333 0.39327
 C512 C 0.29300 -0.10357 0.40466
 C513 C 0.31802 -0.09202 0.41840
 C514 C 0.31515 -0.07492 0.44285
 C515 C 0.33945 -0.06355 0.45614
 C516 C 0.36672 -0.06927 0.44503
 C517 C 0.36958 -0.08649 0.42068
 C518 C 0.34530 -0.09784 0.40739
 C519 C 0.39174 -0.05656 0.45771
 C520 C 0.41303 -0.04555 0.46726
 H521 H 0.29414 -0.07027 0.45151
 H522 H 0.33698 -0.05014 0.47487
 H523 H 0.39057 -0.09091 0.41183
 H524 H 0.34779 -0.11100 0.38848
 C525 C 0.60833 -0.22764 0.61118
 C526 C 0.59697 -0.20655 0.60145
 C527 C 0.58307 -0.18152 0.58990
 C528 C 0.56494 -0.16491 0.60712
 C529 C 0.55118 -0.14078 0.59575
 C530 C 0.55549 -0.13319 0.56710
 C531 C 0.57365 -0.14977 0.54993
 C532 C 0.58741 -0.17386 0.56128
 C533 C 0.54229 -0.10786 0.55539
 C534 C 0.53237 -0.08642 0.54487
 H535 H 0.56151 -0.17057 0.62931
 H536 H 0.53735 -0.12800 0.60928
 H537 H 0.57730 -0.14397 0.52781
 H538 H 0.60144 -0.18646 0.54779
 C539 C 1.10834 0.72731 0.38832
 C540 C 1.09692 0.70629 0.39808
 C541 C 1.08300 0.68133 0.40972
 C542 C 1.09064 0.67124 0.43685
 C543 C 1.07699 0.64716 0.44830
 C544 C 1.05565 0.63302 0.43269
 C545 C 1.04797 0.64309 0.40554
 C546 C 1.06163 0.66722 0.39408
 C547 C 1.04248 0.60768 0.44438
 C548 C 1.03263 0.58622 0.45487
 H549 H 1.10715 0.68195 0.44911
 H550 H 1.08319 0.63945 0.46925
 H551 H 1.03159 0.63224 0.39323
 H552 H 1.05558 0.67483 0.37305
 C553 C -0.10870 1.22801 0.11348
 C554 C -0.09757 1.20696 0.10344
 C555 C -0.08393 1.18196 0.09162
 C556 C -0.09336 1.17059 0.06558
 C557 C -0.07987 1.14646 0.05401
 C558 C -0.05692 1.13358 0.06843
 C559 C -0.04750 1.14492 0.09448
 C560 C -0.06099 1.16906 0.10606
 C561 C -0.04351 1.10848 0.05661
 C562 C -0.03305 1.08723 0.04629
 H563 H -0.11108 1.18034 0.05423
 H564 H -0.08734 1.13781 0.03386
 H565 H -0.02981 1.13510 0.10583
 H566 H -0.05355 1.17767 0.12623
 C567 C 0.39122 0.27177 0.88656
 C568 C 0.40232 0.29287 0.89649
 C569 C 0.41590 0.31793 0.90829
 C570 C 0.41167 0.32509 0.93704
 C571 C 0.42521 0.34918 0.94863
 C572 C 0.44304 0.36621 0.93154
 C573 C 0.44721 0.35912 0.90276
 C574 C 0.43368 0.33501 0.89116
 C575 C 0.45638 0.39134 0.94343
 C576 C 0.46683 0.41258 0.95376
 H577 H 0.39794 0.31208 0.95046
 H578 H 0.42168 0.35458 0.97086
 H579 H 0.46081 0.37225 0.88931
 H580 H 0.43706 0.32971 0.86888
 C581 C 0.61305 0.60831 0.77132
 C582 C 0.60294 0.59704 0.79219
 C583 C 0.59106 0.58352 0.81716
 C584 C 0.58981 0.59854 0.84304
 C585 C 0.57858 0.58531 0.86740
 C586 C 0.56856 0.55701 0.86601
 C587 C 0.56971 0.54202 0.84011
 C588 C 0.58095 0.55525 0.81572
 C589 C 0.55659 0.54372 0.89106
 C590 C 0.54623 0.53334 0.91225
 H591 H 0.59750 0.62042 0.84438
 H592 H 0.57764 0.59715 0.88729
 H593 H 0.56187 0.52018 0.83876
 H594 H 0.58176 0.54347 0.79580
 C595 C 0.38733 0.10674 0.72701
 C596 C 0.39716 0.09530 0.70612
 C597 C 0.40882 0.08171 0.68112
 C598 C 0.40324 0.05268 0.67562
 C599 C 0.41460 0.03957 0.65123
 C600 C 0.43156 0.05548 0.63229
 C601 C 0.43709 0.08449 0.63780
 C602 C 0.42575 0.09758 0.66214
 C603 C 0.44348 0.04237 0.60716
 C604 C 0.45409 0.03261 0.58581
 H605 H 0.39012 0.04023 0.69015
 H606 H 0.41020 0.01712 0.64716
 H607 H 0.45017 0.09698 0.62328
 H608 H 0.43016 0.12004 0.66615
 C609 C 0.11262 0.89184 0.22887
 C610 C 0.10273 0.90307 0.20789
 C611 C 0.09101 0.91663 0.18290
 C612 C 0.06351 0.90937 0.17343
 C613 C 0.05208 0.92266 0.14921
 C614 C 0.06809 0.94325 0.13436
 C615 C 0.09561 0.95050 0.14380
 C616 C 0.10705 0.93720 0.16805
 C617 C 0.05638 0.95638 0.10913
 C618 C 0.04610 0.96665 0.08785
 H619 H 0.05096 0.89344 0.18473
 H620 H 0.03082 0.91682 0.14200
 H621 H 0.10821 0.96631 0.13240
 H622 H 0.12837 0.94291 0.17517
 C623 C 0.88768 0.39280 0.27314
 C624 C 0.89752 0.40415 0.29406
 C625 C 0.90929 0.41784 0.31895
 C626 C 0.93826 0.41417 0.32572
 C627 C 0.94976 0.42747 0.34988
 C628 C 0.93234 0.44451 0.36738
 C629 C 0.90336 0.44822 0.36060
 C630 C 0.89185 0.43492 0.33640
 C631 C 0.94415 0.45724 0.39275
 C632 C 0.95467 0.46692 0.41417
 H633 H 0.95191 0.40098 0.31239
 H634 H 0.97216 0.42432 0.35503
 H635 H 0.88967 0.46121 0.37408
 H636 H 0.86940 0.43785 0.33137
   
