data_POSCAR
  _audit_creation_date              2014-09-24
  _audit_creation_method            'ToBaCCo'
  _symmetry_space_group_name_H-M    'P1'
  _symmetry_Int_Tables_number       1
  _symmetry_cell_setting            triclinic
  loop_
  _symmetry_equiv_pos_as_xyz
 x,y,z
_cell_length_a 25.1196
_cell_length_b 24.3657
_cell_length_c 29.4885
_cell_angle_alpha 90.039500
_cell_angle_beta 89.931100
_cell_angle_gamma 90.125900
loop_
  _atom_site_label
  _atom_site_type_symbol
  _atom_site_fract_x
  _atom_site_fract_y
  _atom_site_fract_z
B1 B 0.27226 0.23235 0.29243
 B2 B 0.20961 0.21444 0.27787
 B3 B 0.22377 0.28040 0.28852
 B4 B 0.28498 0.29374 0.26908
 B5 B 0.30891 0.23508 0.24528
 B6 B 0.26141 0.18558 0.25137
 B7 B 0.21974 0.26567 0.19728
 B8 B 0.28253 0.28447 0.21285
 B9 B 0.26837 0.21790 0.20141
 B10 B 0.20684 0.20424 0.22137
 B11 B 0.18299 0.26315 0.24482
 B12 B 0.22956 0.31306 0.23882
 B13 B 0.73182 0.77090 0.19814
 B14 B 0.72344 0.70547 0.21654
 B15 B 0.78545 0.72981 0.20533
 B16 B 0.78817 0.79544 0.22137
 B17 B 0.72729 0.81293 0.24335
 B18 B 0.68705 0.75698 0.23980
 B19 B 0.76970 0.73140 0.29623
 B20 B 0.77841 0.79621 0.27693
 B21 B 0.71737 0.77317 0.28975
 B22 B 0.71339 0.70682 0.27311
 B23 B 0.77393 0.68930 0.25125
 B24 B 0.81428 0.74502 0.25486
 B25 B 0.72302 0.22867 -0.30354
 B26 B 0.78809 0.21872 -0.28899
 B27 B 0.76478 0.28297 -0.29889
 B28 B 0.70225 0.28684 -0.27822
 B29 B 0.68623 0.22423 -0.25567
 B30 B 0.73921 0.18242 -0.26319
 B31 B 0.77060 0.26670 -0.20791
 B32 B 0.70598 0.27606 -0.22214
 B33 B 0.72932 0.21238 -0.21245
 B34 B 0.79139 0.20872 -0.23286
 B35 B 0.80739 0.27117 -0.25546
 B36 B 0.75417 0.31309 -0.24801
 B37 B 0.27980 0.76407 -0.29473
 B38 B 0.21629 0.77964 -0.28128
 B39 B 0.23270 0.71418 -0.29339
 B40 B 0.29379 0.70223 -0.27257
 B41 B 0.31494 0.76140 -0.24680
 B42 B 0.26650 0.80965 -0.25290
 B43 B 0.22514 0.72578 -0.20252
 B44 B 0.28854 0.70975 -0.21612
 B45 B 0.27188 0.77558 -0.20419
 B46 B 0.21095 0.78733 -0.22507
 B47 B 0.18979 0.72811 -0.25051
 B48 B 0.23817 0.67974 -0.24441
 B49 B 1.21802 1.26758 0.78515
 B50 B 1.27969 1.29196 0.77475
 B51 B 1.27184 1.22572 0.78962
 B52 B 1.21520 1.20247 0.76612
 B53 B 1.18836 1.25535 0.73559
 B54 B 1.22878 1.31084 0.74095
 B55 B 1.28548 1.23075 0.69814
 B56 B 1.22391 1.20529 0.70960
 B57 B 1.23188 1.27197 0.69399
 B58 B 1.28873 1.29558 0.71789
 B59 B 1.31551 1.24321 0.74835
 B60 B 1.27570 1.18710 0.74237
 B61 B 0.76598 0.72607 0.70147
 B62 B 0.77487 0.79207 0.71762
 B63 B 0.71299 0.76776 0.70793
 B64 B 0.71032 0.70277 0.72651
 B65 B 0.77152 0.68624 0.74795
 B66 B 0.81152 0.74177 0.74148
 B67 B 0.73055 0.77076 0.79853
 B68 B 0.72137 0.70440 0.78247
 B69 B 0.78337 0.72909 0.79226
 B70 B 0.78607 0.79379 0.77334
 B71 B 0.72491 0.81030 0.75210
 B72 B 0.68480 0.75464 0.75872
 B73 B 1.22881 0.71886 0.28763
 B74 B 1.21394 0.78539 0.27559
 B75 B 1.27559 0.76792 0.29075
 B76 B 1.29075 0.70721 0.26756
 B77 B 1.23667 0.68516 0.23783
 B78 B 1.18801 0.73365 0.24375
 B79 B 1.27191 0.78152 0.19910
 B80 B 1.28905 0.71599 0.21112
 B81 B 1.22541 0.73126 0.19591
 B82 B 1.21058 0.79287 0.21912
 B83 B 1.26502 0.81453 0.24900
 B84 B 1.31293 0.76695 0.24319
 B85 B 0.78091 1.25878 0.19970
 B86 B 0.71627 1.27066 0.21234
 B87 B 0.73788 1.20582 0.20449
 B88 B 0.79925 1.20074 0.22633
 B89 B 0.81584 1.26343 0.24794
 B90 B 0.76458 1.30711 0.23863
 B91 B 0.72853 1.22545 0.29437
 B92 B 0.79289 1.21338 0.28212
 B93 B 0.77166 1.27827 0.28961
 B94 B 0.71024 1.28335 0.26788
 B95 B 0.69375 1.22032 0.24629
 B96 B 0.74555 1.17705 0.25595
 O97 O 0.58137 1.08680 0.08293
 O98 O 0.63988 1.03634 0.03972
 C99 C 0.62899 1.07143 0.07163
 O100 O 0.42364 0.89808 0.06982
 O101 O 0.36676 0.95550 0.03151
 C102 C 0.37650 0.91499 0.05944
 O103 O 0.56868 0.89232 0.07450
 O104 O 0.63364 0.94036 0.03655
 C105 C 0.61794 0.90205 0.06457
 O106 O 0.43455 1.09758 0.07841
 O107 O 0.37174 1.05308 0.03488
 C108 C 0.38577 1.08647 0.06729
 Zr109 Zr 0.50675 1.06504 0.05493
 O110 O 0.50232 1.06248 0.12656
 O111 O 0.50745 1.15209 0.05608
 Zr112 Zr 0.49859 0.92817 0.04983
 O113 O 0.49596 0.93145 0.12145
 O114 O 0.49635 0.84125 0.04855
 O115 O 0.55056 0.99302 0.06229
 O116 O 0.45551 0.99879 0.05974
 O117 O 0.44086 1.10942 -0.08012
 O118 O 0.37470 1.05915 -0.04588
 C119 C 0.39127 1.09877 -0.07253
 O120 O 0.57459 0.89911 -0.08512
 O121 O 0.63684 0.94351 -0.04133
 C122 C 0.62294 0.90729 -0.07158
 O123 O 0.42986 0.90808 -0.08774
 O124 O 0.36854 0.95577 -0.04573
 C125 C 0.38163 0.91797 -0.07518
 O126 O 0.58495 1.09489 -0.08340
 O127 O 0.64164 1.03930 -0.04299
 C128 C 0.63197 1.07739 -0.07305
 Zr129 Zr 0.51020 1.07118 -0.05807
 O130 O 0.50605 1.07764 -0.12952
 O131 O 0.52079 1.15718 -0.05200
 Zr132 Zr 0.50265 0.93514 -0.06390
 O133 O 0.50249 0.94633 -0.13518
 O134 O 0.49591 0.84956 -0.07337
 Zr135 Zr 0.58531 0.99450 -0.00286
 Zr136 Zr 0.42296 1.00417 -0.00602
 O137 O 0.45920 1.00618 -0.07040
 O138 O 0.55496 1.00050 -0.06934
 O139 O 0.46073 1.08158 -0.00202
 O140 O 0.54591 0.91832 -0.00635
 O141 O 0.55625 1.07533 -0.00042
 O142 O 0.45252 0.92330 -0.00844
 H143 H 0.43169 0.99805 0.08654
 H144 H 0.56599 0.88340 -0.00641
 H145 H 0.43604 1.00864 -0.09751
 H146 H 0.58246 1.10571 0.00047
 H147 H 0.46991 0.82994 0.02548
 H148 H 0.50514 0.83174 -0.04439
 H149 H 0.53956 0.95336 -0.14509
 H150 H 0.52800 1.04780 -0.14225
 H151 H 0.49361 1.17097 -0.03052
 H152 H 0.54266 1.16541 0.04577
 H153 H 0.52299 1.03026 0.13668
 H154 H 0.49281 0.89297 0.13202
 O155 O 1.06960 0.58599 0.58704
 O156 O 1.13085 0.54462 0.54060
 C157 C 1.11792 0.57785 0.57373
 O158 O 0.91449 0.39997 0.57046
 O159 O 0.85649 0.45955 0.53535
 C160 C 0.86701 0.41846 0.56237
 O161 O 1.06082 0.39314 0.57165
 O162 O 1.12541 0.44454 0.53598
 C163 C 1.11019 0.40460 0.56284
 O164 O 0.92527 0.60400 0.57831
 O165 O 0.86117 0.55801 0.53764
 C166 C 0.87624 0.59517 0.56679
 Zr167 Zr 0.99623 0.56440 0.55963
 O168 O 0.98731 0.54991 0.63016
 O169 O 1.00433 0.64876 0.57434
 Zr170 Zr 0.98974 0.42917 0.54886
 O171 O 0.98527 0.42259 0.62038
 O172 O 0.98929 0.34271 0.54092
 O173 O 1.04185 0.49356 0.56338
 O174 O 0.94543 0.49874 0.56233
 O175 O 0.92745 0.61862 0.42782
 O176 O 0.86268 0.56515 0.46087
 C177 C 0.87821 0.60740 0.43666
 O178 O 1.06106 0.42098 0.40500
 O179 O 1.12560 0.45183 0.45351
 C180 C 1.10958 0.42269 0.41873
 O181 O 0.91981 0.42595 0.40519
 O182 O 0.85843 0.45912 0.45546
 C183 C 0.87219 0.42799 0.42105
 O184 O 1.07123 0.60188 0.42077
 O185 O 1.13134 0.54785 0.45814
 C186 C 1.11931 0.58689 0.42940
 Zr187 Zr 0.99750 0.57851 0.44705
 O188 O 0.99188 0.58858 0.37587
 O189 O 1.00722 0.66416 0.45671
 Zr190 Zr 0.99088 0.44315 0.43683
 O191 O 0.99037 0.43845 0.36533
 O192 O 0.98237 0.35682 0.44077
 Zr193 Zr 1.07602 0.50008 0.49796
 Zr194 Zr 0.91179 0.50784 0.49726
 O195 O 0.94699 0.51435 0.43296
 O196 O 1.04240 0.50935 0.43279
 O197 O 0.94987 0.58472 0.50396
 O198 O 1.03737 0.42369 0.49187
 O199 O 1.04445 0.57977 0.50405
 O200 O 0.94139 0.42721 0.49162
 H201 H 0.92134 0.49856 0.58895
 H202 H 1.05954 0.39032 0.48923
 H203 H 0.92393 0.51998 0.40610
 H204 H 1.06931 0.61132 0.50559
 H205 H 0.95806 0.33273 0.52218
 H206 H 1.01808 0.34008 0.43904
 H207 H 0.98781 0.47650 0.35400
 H208 H 1.01721 0.56277 0.36157
 H209 H 0.97772 0.67749 0.47608
 H210 H 1.01267 0.66778 0.54567
 H211 H 1.02105 0.53442 0.64172
 H212 H 1.01717 0.44056 0.63333
 O213 O 0.89027 0.42868 -0.08055
 O214 O 0.93958 0.36138 -0.04543
 C215 C 0.90074 0.37775 -0.07183
 O216 O 1.08929 0.56907 -0.08817
 O217 O 1.05149 0.63363 -0.04158
 C218 C 1.08560 0.61844 -0.07270
 O219 O 1.05765 0.42420 -0.10404
 O220 O 1.03813 0.35841 -0.05210
 C221 C 1.06213 0.37483 -0.08927
 O222 O 0.89695 0.57873 -0.07791
 O223 O 0.95346 0.63822 -0.04088
 C224 C 0.91453 0.62751 -0.06882
 Zr225 Zr 0.92476 0.50146 -0.05650
 O226 O 0.91935 0.50582 -0.12806
 O227 O 0.84080 0.50207 -0.04942
 Zr228 Zr 1.05625 0.49568 -0.06578
 O229 O 1.06196 0.50569 -0.13687
 O230 O 1.13923 0.48052 -0.06781
 O231 O 0.98734 0.44908 -0.07114
 O232 O 0.99227 0.54762 -0.06861
 O233 O 0.90847 0.57193 0.08109
 O234 O 0.95621 0.63537 0.03987
 C235 C 0.92235 0.62179 0.07153
 O236 O 1.09525 0.41792 0.07005
 O237 O 1.04379 0.35572 0.03127
 C238 C 1.08241 0.36842 0.05959
 O239 O 1.10409 0.56589 0.06874
 O240 O 1.05303 0.63222 0.03489
 C241 C 1.09270 0.61670 0.06056
 O242 O 0.90536 0.42182 0.08020
 O243 O 0.94756 0.35781 0.03537
 C244 C 0.91359 0.37180 0.06694
 Zr245 Zr 0.93629 0.49673 0.05638
 O246 O 0.95279 0.49449 0.12660
 O247 O 0.85351 0.49889 0.06943
 Zr248 Zr 1.06777 0.49291 0.04666
 O249 O 1.07469 0.49450 0.11825
 O250 O 1.15140 0.49582 0.03783
 Zr251 Zr 0.99345 0.41167 -0.00675
 Zr252 Zr 0.99966 0.58085 -0.00309
 O253 O 1.00444 0.54345 0.06105
 O254 O 1.00106 0.44420 0.05942
 O255 O 0.92155 0.54914 0.00185
 O256 O 1.07069 0.44484 -0.01146
 O257 O 0.91899 0.45122 -0.00056
 O258 O 1.07454 0.54306 -0.00938
 H259 H 0.99231 0.57244 -0.09520
 H260 H 1.10033 0.41845 -0.01492
 H261 H 1.00785 0.56688 0.08839
 H262 H 0.88575 0.42939 0.00106
 H263 H 1.15687 0.51080 -0.05122
 H264 H 1.16266 0.46413 0.01933
 H265 H 1.04927 0.46737 0.13079
 H266 H 0.91790 0.49684 0.14217
 H267 H 0.83535 0.49479 0.03994
 H268 H 0.83104 0.53428 -0.03072
 H269 H 0.94022 0.47508 -0.14088
 H270 H 1.02537 0.51105 -0.14834
 O271 O 0.59276 0.92410 0.58088
 O272 O 0.54362 0.86025 0.54139
 C273 C 0.57863 0.87410 0.57197
 O274 O 0.40560 1.08044 0.57299
 O275 O 0.45752 1.13976 0.53133
 C276 C 0.42037 1.12930 0.56118
 O277 O 0.40763 0.93116 0.58257
 O278 O 0.44903 0.86281 0.54231
 C279 C 0.41484 0.88006 0.57261
 O280 O 0.60388 1.07278 0.56907
 O281 O 0.55476 1.13609 0.52941
 C282 C 0.59323 1.12251 0.55717
 Zr283 Zr 0.56801 0.99838 0.55116
 O284 O 0.56944 1.00902 0.62239
 O285 O 0.65160 0.98783 0.54935
 Zr286 Zr 0.43615 1.00351 0.55382
 O287 O 0.44592 1.00837 0.62486
 O288 O 0.35218 1.00862 0.55999
 O289 O 0.50050 0.95143 0.56350
 O290 O 0.50388 1.05047 0.55888
 O291 O 0.60059 1.06505 0.41589
 O292 O 0.55392 1.13298 0.45238
 C293 C 0.59193 1.11603 0.42559
 O294 O 0.40102 0.92130 0.41871
 O295 O 0.44795 0.85873 0.46112
 C296 C 0.41191 0.87179 0.43106
 O297 O 0.40161 1.06832 0.41705
 O298 O 0.45131 1.13476 0.45196
 C299 C 0.41228 1.11893 0.42517
 O300 O 0.59173 0.91555 0.41565
 O301 O 0.54395 0.85561 0.46015
 C302 C 0.57988 0.86651 0.42919
 Zr303 Zr 0.56406 0.99253 0.43736
 O304 O 0.55294 0.99384 0.36610
 O305 O 0.64672 0.99103 0.42589
 Zr306 Zr 0.43352 0.99579 0.44046
 O307 O 0.44115 0.99341 0.36904
 O308 O 0.34959 0.99475 0.43952
 Zr309 Zr 0.49795 0.91323 0.49920
 Zr310 Zr 0.50273 1.08211 0.49241
 O311 O 0.49989 1.04364 0.42864
 O312 O 0.49716 0.94298 0.43203
 O313 O 0.57829 1.04403 0.49232
 O314 O 0.42319 0.95183 0.49934
 O315 O 0.57512 0.94719 0.49597
 O316 O 0.42529 1.04910 0.49523
 H317 H 0.50543 1.07638 0.58478
 H318 H 0.39057 0.92903 0.50044
 H319 H 0.50008 1.06763 0.40150
 H320 H 0.60651 0.92270 0.49684
 H321 H 0.33583 0.98070 0.54003
 H322 H 0.33736 1.01540 0.46648
 H323 H 0.40508 0.98712 0.35659
 H324 H 0.53939 0.95742 0.35659
 H325 H 0.66380 0.99652 0.45566
 H326 H 0.66621 1.01523 0.52798
 H327 H 0.54192 0.98453 0.63531
 H328 H 0.40964 1.01114 0.63789
 O329 O 1.07165 0.87702 0.55770
 O330 O 1.03904 0.93386 0.61308
 C331 C 1.06790 0.89309 0.59924
 O332 O 1.10917 1.07838 0.44515
 O333 O 1.05012 1.04584 0.39226
 C334 C 1.09108 1.07489 0.40423
 O335 O 1.11831 1.05705 0.56963
 O336 O 1.05656 1.02120 0.61895
 C337 C 1.10092 1.04598 0.60996
 O338 O 1.07152 0.88847 0.43292
 O339 O 1.03494 0.95364 0.38620
 C340 C 1.06468 0.91112 0.39354
 Zr341 Zr 1.04571 0.91344 0.49805
 O342 O 1.12302 0.87994 0.49463
 O343 O 1.01464 0.83260 0.49553
 Zr344 Zr 1.08061 1.04708 0.50632
 O345 O 1.16219 1.02736 0.49871
 O346 O 1.10205 1.13031 0.51637
 O347 O 1.07450 0.97409 0.54166
 O348 O 1.07271 0.98177 0.46319
 O349 O 0.88227 0.93103 0.44096
 O350 O 0.94297 0.96680 0.39059
 C351 C 0.89975 0.93985 0.40054
 O352 O 0.93378 1.11202 0.57436
 O353 O 0.96759 1.04526 0.62106
 C354 C 0.94267 1.09098 0.61384
 O355 O 0.93398 1.12254 0.44960
 O356 O 0.96309 1.06317 0.39469
 C357 C 0.93874 1.10712 0.40788
 O358 O 0.87895 0.93535 0.56475
 O359 O 0.94410 0.95741 0.61607
 C360 C 0.89736 0.93871 0.60556
 Zr361 Zr 0.91798 0.94808 0.50297
 O362 O 0.83482 0.96083 0.50066
 O363 O 0.90317 0.86245 0.50563
 Zr364 Zr 0.95168 1.08145 0.50955
 O365 O 0.86921 1.09976 0.50917
 O366 O 0.96858 1.16661 0.51134
 Zr367 Zr 1.00059 0.99228 0.57199
 Zr368 Zr 0.99802 1.00314 0.43604
 O369 O 0.92429 1.02034 0.46693
 O370 O 0.92527 1.01467 0.54670
 O371 O 0.97848 0.92349 0.45873
 O372 O 1.01953 1.07109 0.54795
 O373 O 0.98032 0.91767 0.54052
 O374 O 1.01795 1.07797 0.46809
 H375 H 1.10432 0.97815 0.44342
 H376 H 1.02870 1.10029 0.56999
 H377 H 0.89305 1.02945 0.44789
 H378 H 0.97290 0.88582 0.56050
 H379 H 1.08012 1.15263 0.49552
 H380 H 1.00006 1.17239 0.53083
 H381 H 0.85313 1.08403 0.53696
 H382 H 0.82899 1.00052 0.50533
 H383 H 0.91239 0.84676 0.47567
 H384 H 1.00835 0.82332 0.46329
 H385 H 1.14668 0.90547 0.51125
 H386 H 1.16952 0.99567 0.51867
 O387 O 0.57197 0.37267 0.05997
 O388 O 0.54281 0.43570 0.11241
 C389 C 0.56665 0.39059 0.10101
 O390 O 0.61903 0.56540 -0.06317
 O391 O 0.55701 0.53232 -0.11362
 C392 C 0.60129 0.55727 -0.10377
 O393 O 0.62508 0.55797 0.06172
 O394 O 0.56508 0.52533 0.11395
 C395 C 0.60931 0.54961 0.10299
 O396 O 0.56236 0.37230 -0.06520
 O397 O 0.53473 0.43933 -0.11456
 C398 C 0.55658 0.39243 -0.10551
 Zr399 Zr 0.55197 0.41013 -0.00179
 O400 O 0.63460 0.39434 -0.00838
 O401 O 0.53859 0.32439 -0.00138
 Zr402 Zr 0.58723 0.54282 -0.00044
 O403 O 0.66913 0.52367 -0.00610
 O404 O 0.60354 0.62794 0.00192
 O405 O 0.58113 0.47270 0.03939
 O406 O 0.57793 0.47450 -0.04110
 O407 O 0.38880 0.42453 -0.05938
 O408 O 0.44657 0.45925 -0.11219
 C409 C 0.40400 0.43212 -0.10070
 O410 O 0.43789 0.61217 0.06566
 O411 O 0.47173 0.54892 0.11556
 C412 C 0.44534 0.59334 0.10610
 O413 O 0.44121 0.61696 -0.05812
 O414 O 0.46642 0.55346 -0.11135
 C415 C 0.44247 0.59830 -0.09907
 O416 O 0.39017 0.42727 0.06460
 O417 O 0.45357 0.45746 0.11506
 C418 C 0.41007 0.43175 0.10471
 Zr419 Zr 0.42329 0.44703 0.00208
 O420 O 0.34383 0.47555 0.00288
 O421 O 0.39836 0.36412 0.00575
 Zr422 Zr 0.45958 0.57927 0.00301
 O423 O 0.37869 0.60341 0.00150
 O424 O 0.48411 0.66233 0.00773
 Zr425 Zr 0.50731 0.49340 0.06901
 Zr426 Zr 0.50298 0.49570 -0.06772
 O427 O 0.43021 0.51633 -0.03679
 O428 O 0.43219 0.51514 0.04347
 O429 O 0.48330 0.41838 -0.04031
 O430 O 0.52719 0.57023 0.04145
 O431 O 0.48625 0.41778 0.03934
 O432 O 0.52486 0.57215 -0.03980
 H433 H 0.60773 0.46622 -0.06205
 H434 H 0.53563 0.60110 0.06217
 H435 H 0.39851 0.52443 -0.05558
 H436 H 0.47841 0.38539 0.05848
 H437 H 0.64283 0.63165 0.00167
 H438 H 0.51094 0.66886 -0.01628
 H439 H 0.35865 0.57779 0.02120
 H440 H 0.32083 0.44249 0.00394
 H441 H 0.41931 0.34339 -0.01692
 H442 H 0.50094 0.31846 0.00699
 H443 H 0.65140 0.40018 0.02158
 H444 H 0.67598 0.49199 0.01398
 C445 C 0.27634 1.17540 0.11688
 C446 C 0.29322 1.17867 0.16256
 C447 C 0.33120 1.13892 0.17621
 C448 C 0.35645 1.10473 0.14499
 C449 C 0.34568 1.10886 0.09852
 C450 C 0.30269 1.14160 0.08556
 C451 C 0.29797 1.18148 0.04784
 C452 C 0.26901 1.21841 0.08114
 H453 H 0.34436 1.13565 0.21102
 H454 H 0.38802 1.07818 0.15696
 H455 H 0.27199 1.16598 0.02017
 H456 H 0.33716 1.19812 0.03679
 H457 H 0.22646 1.22366 0.07191
 H458 H 0.29105 1.25690 0.08813
 C459 C 0.82194 0.72008 0.62530
 C460 C 0.78352 0.69767 0.65445
 C461 C 0.76493 0.64415 0.64298
 C462 C 0.79129 0.61169 0.61008
 C463 C 0.83678 0.63201 0.58793
 C464 C 0.84811 0.68793 0.59361
 C465 C 0.89903 0.71887 0.59873
 C466 C 0.87034 0.75457 0.63278
 H467 H 0.73353 0.62481 0.66242
 H468 H 0.77982 0.56910 0.60599
 H469 H 0.91061 0.74104 0.56727
 H470 H 0.93101 0.69506 0.61540
 H471 H 0.86513 0.79697 0.61985
 H472 H 0.88701 0.75068 0.66750
 C473 C 0.67308 0.77660 0.12336
 C474 C 0.71270 0.79889 0.15131
 C475 C 0.73021 0.85288 0.13978
 C476 C 0.70303 0.88523 0.10746
 C477 C 0.65715 0.86490 0.08609
 C478 C 0.64604 0.80874 0.09199
 C479 C 0.59514 0.77805 0.09871
 C480 C 0.62436 0.74358 0.13339
 H481 H 0.76206 0.87246 0.15846
 H482 H 0.71443 0.92781 0.10314
 H483 H 0.58331 0.75448 0.06803
 H484 H 0.56299 0.80279 0.11452
 H485 H 0.62817 0.69998 0.12292
 H486 H 0.60928 0.75092 0.16813
 C487 C 1.22548 0.35437 0.63628
 C488 C 1.20865 0.30117 0.64880
 C489 C 1.16214 0.28144 0.62774
 C490 C 1.13314 0.31382 0.59712
 C491 C 1.14936 0.36758 0.58558
 C492 C 1.19666 0.38683 0.60515
 C493 C 1.24634 0.40280 0.58068
 C494 C 1.27727 0.36908 0.61461
 H495 H 1.14635 0.24174 0.63597
 H496 H 1.09643 0.29716 0.58355
 H497 H 1.25465 0.44731 0.58320
 H498 H 1.24804 0.38600 0.54562
 H499 H 1.30258 0.39438 0.63742
 H500 H 1.29770 0.33320 0.59919
 C501 C 0.70972 1.11578 -0.17541
 C502 C 0.71502 1.17296 -0.16998
 C503 C 0.70909 1.19292 -0.12517
 C504 C 0.68866 1.15885 -0.09031
 C505 C 0.67571 1.10335 -0.09874
 C506 C 0.69094 1.08198 -0.14084
 C507 C 0.66171 1.04574 -0.17323
 C508 C 0.68201 1.08262 -0.21101
 H509 H 0.71501 1.23595 -0.11783
 H510 H 0.67781 1.17739 -0.05821
 H511 H 0.61783 1.04752 -0.16893
 H512 H 0.67869 1.00368 -0.17451
 H513 H 0.64974 1.10579 -0.22823
 H514 H 0.71053 1.06168 -0.23408
 C515 C 1.17492 0.70791 0.36519
 C516 C 1.20829 0.68469 0.33223
 C517 C 1.22285 0.62895 0.34014
 C518 C 1.19902 0.59708 0.37551
 C519 C 1.16017 0.62010 0.40446
 C520 C 1.15159 0.67674 0.39957
 C521 C 1.10087 0.70859 0.39806
 C522 C 1.12533 0.74094 0.36031
 H523 H 1.24997 0.60864 0.31707
 H524 H 1.20731 0.55354 0.37727
 H525 H 1.09438 0.73307 0.42943
 H526 H 1.06540 0.68641 0.38519
 H527 H 1.13001 0.78378 0.37102
 H528 H 1.10516 0.73395 0.32725
 C529 C 0.26583 0.85411 -0.14075
 C530 C 0.29301 0.80963 -0.16121
 C531 C 0.34412 0.79850 -0.14473
 C532 C 0.36571 0.82769 -0.10891
 C533 C 0.34335 0.87792 -0.09473
 C534 C 0.29106 0.88839 -0.10888
 C535 C 0.26648 0.93898 -0.12760
 C536 C 0.23894 0.90232 -0.16221
 H537 H 0.36987 0.76912 -0.16108
 H538 H 0.40468 0.81496 -0.09753
 H539 H 0.29625 0.96741 -0.14280
 H540 H 0.23834 0.95810 -0.10321
 H541 H 0.25254 0.91003 -0.19752
 H542 H 0.19500 0.90072 -0.15784
 C543 C 0.76012 0.35285 0.35597
 C544 C 0.79169 0.31540 0.33120
 C545 C 0.84524 0.31143 0.34389
 C546 C 0.86553 0.34113 0.37983
 C547 C 0.83754 0.38585 0.39884
 C548 C 0.78304 0.38886 0.38807
 C549 C 0.75004 0.43565 0.37217
 C550 C 0.72423 0.39663 0.33848
 H551 H 0.87282 0.28519 0.32594
 H552 H 0.90668 0.33314 0.38822
 H553 H 0.77437 0.46735 0.35499
 H554 H 0.72215 0.45062 0.39869
 H555 H 0.73248 0.40743 0.30251
 H556 H 0.68176 0.38781 0.34625
 C557 C 1.20552 0.31774 0.11837
 C558 C 1.18659 0.28148 0.15146
 C559 C 1.13354 0.26204 0.14405
 C560 C 1.09991 0.28485 0.10987
 C561 C 1.11838 0.32721 0.08130
 C562 C 1.17310 0.33923 0.08470
 C563 C 1.20422 0.39165 0.08337
 C564 C 1.23918 0.36796 0.11981
 H565 H 1.11610 0.23250 0.16712
 H566 H 1.05839 0.27329 0.10908
 H567 H 1.18319 0.42819 0.09669
 H568 H 1.22541 0.39746 0.05058
 H569 H 1.23556 0.39054 0.15239
 H570 H 1.27973 0.36114 0.10652
 C571 C 0.61990 0.79825 0.67623
 C572 C 0.67357 0.78566 0.66734
 C573 C 0.68961 0.78876 0.62135
 C574 C 0.65586 0.81209 0.58802
 C575 C 0.60467 0.83141 0.59954
 C576 C 0.58663 0.82050 0.64345
 C577 C 0.55901 0.85649 0.67697
 C578 C 0.59512 0.83216 0.71290
 H579 H 0.72970 0.77823 0.61158
 H580 H 0.67170 0.81973 0.55442
 H581 H 0.51652 0.84518 0.68167
 H582 H 0.56663 0.90082 0.67114
 H583 H 0.57337 0.80659 0.73807
 H584 H 0.62308 0.86276 0.72765
 C585 C 1.15349 0.73479 -0.13582
 C586 C 1.19506 0.70553 -0.15734
 C587 C 1.20622 0.65314 -0.13988
 C588 C 1.17503 0.62998 -0.10571
 C589 C 1.12751 0.65530 -0.09097
 C590 C 1.12040 0.71022 -0.10325
 C591 C 1.07217 0.73941 -0.11942
 C592 C 1.10745 0.76558 -0.15532
 H593 H 1.23653 0.62746 -0.15487
 H594 H 1.18452 0.58849 -0.09548
 H595 H 1.05714 0.76928 -0.09397
 H596 H 1.04168 0.71114 -0.13349
 H597 H 1.11190 0.81070 -0.15117
 H598 H 1.09719 0.75139 -0.18995
 C599 C 0.65289 1.23247 0.35752
 C600 C 0.69885 1.20647 0.34006
 C601 C 0.71373 1.15692 0.36107
 C602 C 0.68197 1.13264 0.39444
 C603 C 0.63148 1.15418 0.40553
 C604 C 0.61995 1.20685 0.38950
 C605 C 0.57043 1.22922 0.36902
 C606 C 0.60583 1.25725 0.33409
 H607 H 0.74733 1.13345 0.34905
 H608 H 0.69433 1.09309 0.40742
 H609 H 0.54999 1.25858 0.39201
 H610 H 0.54450 1.19669 0.35438
 H611 H 0.60555 1.30274 0.33690
 H612 H 0.59957 1.24110 0.29926
 C613 C 0.82303 0.72102 0.12046
 C614 C 0.82688 0.70895 0.16718
 C615 C 0.86819 0.67312 0.18036
 C616 C 0.90384 0.65136 0.14883
 C617 C 0.89944 0.66299 0.10235
 C618 C 0.85783 0.69727 0.08850
 C619 C 0.86309 0.75007 0.06331
 C620 C 0.82527 0.77537 0.09732
 H621 H 0.87311 0.66084 0.21537
 H622 H 0.93334 0.62225 0.16060
 H623 H 0.84611 0.74725 0.02858
 H624 H 0.90402 0.76747 0.06494
 H625 H 0.78670 0.78652 0.08153
 H626 H 0.84389 0.80783 0.11861
 C627 C 0.37937 1.20608 0.66396
 C628 C 0.32483 1.21560 0.65638
 C629 C 0.30866 1.21439 0.61039
 C630 C 0.34264 1.19222 0.57628
 C631 C 0.39472 1.17433 0.58687
 C632 C 0.41326 1.18681 0.63033
 C633 C 0.44518 1.15398 0.66322
 C634 C 0.40798 1.17472 0.70003
 H635 H 0.26803 1.22420 0.60148
 H636 H 0.32631 1.18398 0.54299
 H637 H 0.48650 1.16985 0.66666
 H638 H 0.44197 1.10907 0.65767
 H639 H 0.42807 1.20219 0.72482
 H640 H 0.38313 1.14164 0.71520
 C641 C 0.84698 0.26288 -0.14542
 C642 C 0.79886 0.28590 -0.16125
 C643 C 0.77920 0.33056 -0.13590
 C644 C 0.81035 0.35605 -0.10223
 C645 C 0.86276 0.33830 -0.09291
 C646 C 0.87771 0.28807 -0.11178
 C647 C 0.92861 0.27098 -0.13297
 C648 C 0.89575 0.24349 -0.16982
 H649 H 0.74196 0.34944 -0.14428
 H650 H 0.79526 0.39327 -0.08681
 H651 H 0.95033 0.24131 -0.11123
 H652 H 0.95222 0.30665 -0.14531
 H653 H 0.89914 0.19802 -0.16964
 H654 H 0.90144 0.26305 -0.20349
 C655 C 0.28085 0.80146 0.37728
 C656 C 0.30514 0.78210 0.33741
 C657 C 0.36206 0.77645 0.33881
 C658 C 0.39645 0.79910 0.37232
 C659 C 0.37835 0.82998 0.40926
 C660 C 0.32406 0.83299 0.41421
 C661 C 0.27589 0.87511 0.45146
 C662 C 0.21136 0.84376 0.40751
 H663 H 0.38249 0.75682 0.31088
 H664 H 0.43898 0.79639 0.36658
 H665 H 0.28541 0.91973 0.45277
 H666 H 0.27413 0.86002 0.48722
 H667 H 0.21896 0.93655 0.34879
 H668 H 0.17897 0.82059 0.42519
 C669 C 1.14352 1.13446 0.29445
 C670 C 1.17359 1.17909 0.31050
 C671 C 1.17702 1.18683 0.35764
 C672 C 1.15055 1.15234 0.38731
 C673 C 1.11884 1.10899 0.37111
 C674 C 1.11619 1.10016 0.32434
 C675 C 1.06830 1.09786 0.29460
 C676 C 1.09805 1.13483 0.26183
 H677 H 1.20154 1.21863 0.37234
 H678 H 1.15451 1.16065 0.42323
 H679 H 1.03312 1.11796 0.31031
 H680 H 1.06110 1.05594 0.28102
 H681 H 1.07979 1.17610 0.25802
 H682 H 1.10834 1.11415 0.22939
 C683 C 0.64252 0.63537 -0.20590
 C684 C 0.69260 0.65556 -0.19193
 C685 C 0.71867 0.62410 -0.15865
 C686 C 0.68976 0.58689 -0.13193
 C687 C 0.63500 0.57835 -0.13994
 C688 C 0.61463 0.59783 -0.18060
 C689 C 0.56193 0.61741 -0.19684
 C690 C 0.59271 0.65759 -0.22686
 H691 H 0.76036 0.62890 -0.15177
 H692 H 0.70927 0.56806 -0.10313
 H693 H 0.53848 0.63781 -0.16964
 H694 H 0.54053 0.58535 -0.21646
 H695 H 0.58398 0.70107 -0.21925
 H696 H 0.59009 0.64714 -0.26350
 C697 C 0.88317 1.20782 0.67440
 C698 C 0.83450 1.18403 0.68744
 C699 C 0.83568 1.12590 0.69298
 C700 C 0.87684 1.09415 0.67455
 C701 C 0.91908 1.11977 0.65197
 C702 C 0.92449 1.17655 0.65737
 C703 C 0.94467 1.22178 0.62800
 C704 C 0.89868 1.25593 0.64593
 H705 H 0.80350 1.10386 0.70920
 H706 H 0.87230 1.04992 0.67342
 H707 H 0.94133 1.21328 0.59117
 H708 H 0.98421 1.23712 0.63927
 H709 H 0.87030 1.26432 0.61844
 H710 H 0.91146 1.29191 0.66642
 C711 C 0.37158 0.70933 0.15729
 C712 C 0.33425 0.68262 0.18510
 C713 C 0.34221 0.62598 0.19338
 C714 C 0.38308 0.59692 0.17136
 C715 C 0.41816 0.62406 0.14183
 C716 C 0.41164 0.68041 0.13525
 C717 C 0.45222 0.72382 0.14409
 C718 C 0.40931 0.75514 0.16884
 H719 H 0.31593 0.60364 0.21593
 H720 H 0.38549 0.55290 0.17556
 H721 H 0.46550 0.74423 0.11231
 H722 H 0.48499 0.70975 0.16658
 H723 H 0.39936 0.79446 0.15189
 H724 H 0.41731 0.75863 0.20580
 C725 C 1.13996 0.85068 0.70507
 C726 C 1.17937 0.81567 0.68744
 C727 C 1.18438 0.81236 0.64008
 C728 C 1.14774 0.83738 0.61204
 C729 C 1.10476 0.86700 0.63031
 C730 C 1.10390 0.87691 0.67682
 C731 C 1.05887 0.86960 0.70911
 C732 C 1.09771 0.83996 0.73975
 H733 H 1.21404 0.78677 0.62411
 H734 H 1.15255 0.83157 0.57588
 H735 H 1.02688 0.84260 0.69550
 H736 H 1.04499 0.90938 0.72326
 H737 H 1.08825 0.79561 0.74289
 H738 H 1.10544 0.86195 0.77212
 C739 C 0.63865 0.27431 0.15429
 C740 C 0.67480 0.30209 0.18218
 C741 C 0.67014 0.35973 0.18603
 C742 C 0.63029 0.38797 0.16312
 C743 C 0.59407 0.35957 0.13575
 C744 C 0.59937 0.30269 0.13093
 C745 C 0.55882 0.25970 0.14215
 C746 C 0.60180 0.22833 0.16630
 H747 H 0.69699 0.38350 0.20699
 H748 H 0.62938 0.43239 0.16514
 H749 H 0.54341 0.23849 0.11149
 H750 H 0.52823 0.27411 0.16650
 H751 H 0.61169 0.18919 0.14903
 H752 H 0.59421 0.22465 0.20331
 C753 C 0.77988 0.88047 0.32553
 C754 C 0.80782 0.84318 0.30085
 C755 C 0.86442 0.84750 0.30136
 C756 C 0.89330 0.88295 0.33059
 C757 C 0.86896 0.91391 0.36508
 C758 C 0.81464 0.90953 0.36945
 C759 C 0.75553 0.95291 0.39654
 C760 C 0.70667 0.91908 0.34140
 H761 H 0.88791 0.82138 0.27943
 H762 H 0.93635 0.88274 0.32822
 H763 H 0.76180 0.99826 0.39319
 H764 H 0.75203 0.94717 0.43374
 H765 H 0.69463 0.94979 0.31504
 H766 H 0.66818 0.89930 0.35004
 C767 C 0.29209 0.34884 -0.14933
 C768 C 0.30925 0.33590 -0.19349
 C769 C 0.35439 0.36534 -0.20970
 C770 C 0.38424 0.40019 -0.18089
 C771 C 0.36947 0.40662 -0.13519
 C772 C 0.32124 0.38295 -0.12168
 C773 C 0.30477 0.35439 -0.07922
 C774 C 0.27169 0.31716 -0.10883
 H775 H 0.36875 0.35925 -0.24395
 H776 H 0.42050 0.41885 -0.19354
 H777 H 0.28055 0.38106 -0.05665
 H778 H 0.33791 0.33203 -0.06263
 H779 H 0.22903 0.32308 -0.10098
 H780 H 0.28452 0.27413 -0.10638
 C781 C 1.14593 0.26000 -0.14705
 C782 C 1.17947 0.29145 -0.17559
 C783 C 1.17444 0.34881 -0.17201
 C784 C 1.13847 0.37304 -0.14244
 C785 C 1.10199 0.34212 -0.11615
 C786 C 1.10818 0.28471 -0.11768
 C787 C 1.06756 0.24217 -0.12890
 C788 C 1.10814 0.21535 -0.15983
 H789 H 1.19852 0.37638 -0.19222
 H790 H 1.13863 0.41743 -0.14190
 H791 H 1.03375 0.25941 -0.14820
 H792 H 1.05672 0.21659 -0.09907
 H793 H 1.09676 0.21666 -0.19625
 H794 H 1.12091 0.17446 -0.14751
 C795 C 0.70276 0.81316 0.37593
 C796 C 0.68234 0.79266 0.33364
 C797 C 0.62668 0.78167 0.33260
 C798 C 0.59227 0.79775 0.36799
 C799 C 0.61216 0.82246 0.40740
 C800 C 0.66812 0.82192 0.41263
 C801 C 0.70266 0.86348 0.43398
 C802 C 0.74053 0.86176 0.39202
 H803 H 0.60839 0.76381 0.30283
 H804 H 0.54968 0.79601 0.36238
 H805 H 0.72124 0.84721 0.46546
 H806 H 0.68091 0.90156 0.44028
 H807 H 0.77526 0.83741 0.40552
 H808 H 0.77016 0.95569 0.33497
 C809 C 0.87676 0.70217 -0.17383
 C810 C 0.82270 0.71369 -0.16614
 C811 C 0.80617 0.71288 -0.12012
 C812 C 0.83925 0.69105 -0.08577
 C813 C 0.89068 0.67179 -0.09602
 C814 C 0.90976 0.68197 -0.13989
 C815 C 0.93902 0.64582 -0.17238
 C816 C 0.90308 0.66795 -0.20941
 H817 H 0.76580 0.72257 -0.11106
 H818 H 0.82254 0.68400 -0.05239
 H819 H 0.93277 0.60145 -0.16584
 H820 H 0.98125 0.65826 -0.17678
 H821 H 0.87615 0.63622 -0.22390
 H822 H 0.92466 0.69339 -0.23478
 C823 C 0.29249 1.15926 0.35560
 C824 C 0.30368 1.21099 0.33733
 C825 C 0.34899 1.23814 0.35621
 C826 C 0.38371 1.21126 0.38781
 C827 C 0.37361 1.15664 0.40174
 C828 C 0.32466 1.13419 0.38722
 C829 C 0.30931 1.07815 0.37037
 C830 C 0.27559 1.10561 0.33514
 H831 H 0.36011 1.27842 0.34394
 H832 H 0.42008 1.23152 0.39824
 H833 H 0.28506 1.05502 0.39549
 H834 H 0.34217 1.05494 0.35424
 H835 H 0.23313 1.09503 0.33983
 H836 H 0.29149 1.09834 0.30051
 C837 C 1.21509 0.67407 0.11872
 C838 C 1.19449 0.71219 0.14986
 C839 C 1.14118 0.72922 0.14118
 C840 C 1.10861 0.70242 0.10834
 C841 C 1.12832 0.65771 0.08300
 C842 C 1.18313 0.64777 0.08687
 C843 C 1.21479 0.59615 0.08868
 C844 C 1.24950 0.62456 0.12349
 H845 H 1.12277 0.76003 0.16247
 H846 H 1.06684 0.71302 0.10628
 H847 H 1.23582 0.58768 0.05624
 H848 H 1.19307 0.56075 0.10359
 H849 H 1.29047 0.63168 0.11051
 H850 H 1.24604 0.60532 0.15749
 C851 C 0.71390 1.17865 0.61604
 C852 C 0.69193 1.21158 0.65019
 C853 C 0.63812 1.22793 0.64281
 C854 C 0.60660 1.20451 0.60782
 C855 C 0.62796 1.16446 0.57865
 C856 C 0.68326 1.15624 0.58145
 C857 C 0.71751 1.10626 0.57876
 C858 C 0.75045 1.13074 0.61669
 H859 H 0.61846 1.25518 0.66644
 H860 H 0.56432 1.21312 0.60710
 H861 H 0.73943 1.10342 0.54608
 H862 H 0.69770 1.06799 0.59007
 H863 H 0.79149 1.14157 0.60572
 H864 H 0.74652 1.10650 0.64834
 C865 C 0.86188 0.25665 0.14116
 C866 C 0.81118 0.27691 0.15360
 C867 C 0.79090 0.31918 0.12590
 C868 C 0.82317 0.34558 0.09347
 C869 C 0.87700 0.33078 0.08738
 C870 C 0.89361 0.28241 0.10849
 C871 C 0.94389 0.26868 0.13250
 C872 C 0.90972 0.24083 0.16841
 H873 H 0.75190 0.33588 0.13155
 H874 H 0.80740 0.38133 0.07632
 H875 H 0.96532 0.30564 0.14512
 H876 H 0.96847 0.23920 0.11283
 H877 H 0.91222 0.26196 0.20171
 H878 H 0.91531 0.19562 0.16968
 C879 C 0.35146 0.75999 0.63777
 C880 C 0.31025 0.78747 0.66122
 C881 C 0.30011 0.84183 0.64765
 C882 C 0.33042 0.86764 0.61443
 C883 C 0.37662 0.84301 0.59630
 C884 C 0.38403 0.78717 0.60609
 C885 C 0.43245 0.75687 0.62069
 C886 C 0.39744 0.72738 0.65518
 H887 H 0.27047 0.86666 0.66451
 H888 H 0.32010 0.90970 0.60656
 H889 H 0.46278 0.78411 0.63635
 H890 H 0.44773 0.72927 0.59364
 H891 H 0.40782 0.73757 0.69085
 H892 H 0.39277 0.68283 0.64805
 C893 C 0.27723 1.14714 -0.14842
 C894 C 0.29699 1.19707 -0.16599
 C895 C 0.34789 1.21325 -0.15094
 C896 C 0.37496 1.18384 -0.11737
 C897 C 0.35431 1.13458 -0.09886
 C898 C 0.30540 1.11625 -0.11599
 C899 C 0.25600 1.10345 -0.09008
 C900 C 0.22567 1.13692 -0.12475
 H901 H 0.36743 1.24896 -0.16505
 H902 H 0.41361 1.19914 -0.10705
 H903 H 0.25586 1.12195 -0.05562
 H904 H 0.24608 1.05904 -0.09117
 H905 H 0.20842 1.17500 -0.11017
 H906 H 0.19806 1.11178 -0.14565
 C907 C 0.76590 0.65837 0.36319
 C908 C 0.78802 0.70695 0.34481
 C909 C 0.83100 0.72967 0.36923
 C910 C 0.85626 0.69986 0.40414
 C911 C 0.83940 0.64620 0.41589
 C912 C 0.79055 0.62933 0.39820
 C913 C 0.77452 0.57528 0.37953
 C914 C 0.74736 0.60618 0.34137
 H915 H 0.84877 0.76788 0.35898
 H916 H 0.89254 0.71655 0.41847
 H917 H 0.74624 0.55352 0.40230
 H918 H 0.80965 0.55121 0.36820
 H919 H 0.70328 0.60209 0.34202
 H920 H 0.76615 0.59797 0.30796
 C921 C 0.71058 1.10945 0.17184
 C922 C 0.72169 1.16530 0.16372
 C923 C 0.71676 1.18316 0.11829
 C924 C 0.69152 1.14957 0.08549
 C925 C 0.67286 1.09673 0.09704
 C926 C 0.68725 1.07609 0.13932
 C927 C 0.65579 1.04461 0.17343
 C928 C 0.68087 1.08113 0.20926
 H929 H 0.72694 1.22478 0.10906
 H930 H 0.68184 1.16694 0.05273
 H931 H 0.66876 1.00111 0.17570
 H932 H 0.61217 1.05078 0.17007
 H933 H 0.70791 1.05850 0.23245
 H934 H 0.65144 1.10822 0.22634
 C935 C 1.23582 0.63866 0.64037
 C936 C 1.20972 0.68198 0.66315
 C937 C 1.15800 0.69415 0.64828
 C938 C 1.13398 0.66512 0.61337
 C939 C 1.15617 0.61611 0.59624
 C940 C 1.20945 0.60597 0.60797
 C941 C 1.23638 0.55511 0.62360
 C942 C 1.26468 0.59011 0.65897
 H943 H 1.13364 0.72431 0.66523
 H944 H 1.09436 0.67800 0.60397
 H945 H 1.26403 0.53909 0.59739
 H946 H 1.20825 0.52462 0.63832
 H947 H 1.30836 0.59310 0.65335
 H948 H 1.25267 0.58008 0.69431
 C949 C 0.67901 0.77971 -0.12342
 C950 C 0.71480 0.80133 -0.15511
 C951 C 0.73266 0.85600 -0.14669
 C952 C 0.70681 0.88997 -0.11482
 C953 C 0.66295 0.86989 -0.09053
 C954 C 0.65361 0.81313 -0.09224
 C955 C 0.60402 0.77930 -0.09350
 C956 C 0.63208 0.74270 -0.12745
 H957 H 0.76258 0.87503 -0.16793
 H958 H 0.71699 0.93316 -0.11334
 H959 H 0.56985 0.80046 -0.10939
 H960 H 0.59569 0.75865 -0.06064
 H961 H 0.61375 0.74505 -0.16134
 H962 H 0.63991 0.70089 -0.11409
 C963 C 1.14612 0.30559 0.34241
 C964 C 1.19913 0.31401 0.33026
 C965 C 1.22694 0.35523 0.35504
 C966 C 1.19978 0.39006 0.38646
 C967 C 1.14442 0.38400 0.39349
 C968 C 1.12026 0.33806 0.37317
 C969 C 1.06765 0.32845 0.35019
 C970 C 1.09658 0.29269 0.31648
 H971 H 1.26866 0.36283 0.34825
 H972 H 1.22110 0.42345 0.40253
 H973 H 1.05115 0.36561 0.33369
 H974 H 1.03920 0.30437 0.37104
 H975 H 1.09575 0.31065 0.28188
 H976 H 1.08480 0.24883 0.31890
 C977 C 0.29524 0.87655 0.16028
 C978 C 0.28997 0.81911 0.15604
 C979 C 0.29859 0.79796 0.11189
 C980 C 0.32131 0.83116 0.07716
 C981 C 0.33281 0.88737 0.08456
 C982 C 0.31534 0.90953 0.12567
 C983 C 0.34288 0.94699 0.15813
 C984 C 0.32135 0.91101 0.19596
 H985 H 0.29240 0.75484 0.10512
 H986 H 0.33406 0.81174 0.04596
 H987 H 0.32533 0.98879 0.15798
 H988 H 0.38698 0.94562 0.15515
 H989 H 0.29185 0.93243 0.21778
 H990 H 0.35312 0.88863 0.21453
 C991 C 0.79316 0.37907 0.66721
 C992 C 0.78059 0.32351 0.65946
 C993 C 0.78089 0.30700 0.61338
 C994 C 0.80361 0.34083 0.57917
 C995 C 0.82392 0.39333 0.58971
 C996 C 0.81375 0.41289 0.63346
 C997 C 0.84823 0.44341 0.66608
 C998 C 0.82600 0.40639 0.70302
 H999 H 0.77027 0.26572 0.60419
 H1000 H 0.81019 0.32370 0.54574
 H1001 H 0.83589 0.48697 0.66978
 H1002 H 0.89139 0.43705 0.65994
 H1003 H 0.80109 0.42877 0.72811
 H1004 H 0.85646 0.37867 0.71783
 C1005 C 1.21418 1.10701 0.67263
 C1006 C 1.19121 1.15763 0.68481
 C1007 C 1.13468 1.15803 0.68731
 C1008 C 1.10421 1.11561 0.66859
 C1009 C 1.12925 1.07121 0.64739
 C1010 C 1.18392 1.06511 0.65400
 C1011 C 1.22800 1.04433 0.62511
 C1012 C 1.26146 1.09063 0.64482
 H1013 H 1.11310 1.19247 0.70131
 H1014 H 1.06149 1.12097 0.66596
 H1015 H 1.22034 1.04899 0.58820
 H1016 H 1.24162 1.00295 0.63583
 H1017 H 1.27167 1.12038 0.61820
 H1018 H 1.29525 1.07607 0.66590
 C1019 C 0.65075 0.62809 0.20658
 C1020 C 0.69649 0.65526 0.19011
 C1021 C 0.72112 0.63072 0.15218
 C1022 C 0.69529 0.59006 0.12687
 C1023 C 0.64356 0.57284 0.13847
 C1024 C 0.62460 0.58857 0.18109
 C1025 C 0.57117 0.60485 0.19839
 C1026 C 0.59988 0.64699 0.22786
 H1027 H 0.75878 0.64392 0.13964
 H1028 H 0.71388 0.57626 0.09571
 H1029 H 0.55186 0.57161 0.21832
 H1030 H 0.54595 0.62367 0.17165
 H1031 H 0.59829 0.63686 0.26459
 H1032 H 0.58899 0.68984 0.21989
 C1033 C 1.20070 0.86441 0.33410
 C1034 C 1.17927 0.82821 0.30222
 C1035 C 1.12366 0.83362 0.29231
 C1036 C 1.08649 0.86321 0.31953
 C1037 C 1.10151 0.89316 0.35814
 C1038 C 1.15516 0.89884 0.36595
 C1039 C 1.20042 0.93550 0.40992
 C1040 C 1.26790 0.89230 0.37652
 H1041 H 1.10681 0.80980 0.26483
 H1042 H 1.04454 0.85931 0.31170
 H1043 H 1.19005 0.92698 0.44583
 H1044 H 1.20091 0.98110 0.40565
 H1045 H 1.26003 0.80204 0.43804
 H1046 H 1.30087 0.91680 0.36082
 C1047 C 0.65881 0.36383 -0.19262
 C1048 C 0.66209 0.30633 -0.19271
 C1049 C 0.62397 0.27714 -0.16708
 C1050 C 0.58592 0.30507 -0.14097
 C1051 C 0.58308 0.36274 -0.14194
 C1052 C 0.62090 0.39135 -0.16724
 C1053 C 0.61237 0.43322 -0.20338
 C1054 C 0.65396 0.40328 -0.23120
 H1055 H 0.62295 0.23282 -0.16731
 H1056 H 0.55904 0.28171 -0.11963
 H1057 H 0.62545 0.47476 -0.19251
 H1058 H 0.57172 0.43124 -0.21823
 H1059 H 0.69101 0.42756 -0.23634
 H1060 H 0.63731 0.38414 -0.26235
 C1061 C 0.87548 1.15297 0.29887
 C1062 C 0.83317 1.18470 0.31547
 C1063 C 0.83157 1.19589 0.36219
 C1064 C 0.87033 1.17579 0.39103
 C1065 C 0.90961 1.13968 0.37486
 C1066 C 0.91234 1.12980 0.32820
 C1067 C 0.91277 1.07660 0.30303
 C1068 C 0.87285 1.10188 0.27079
 H1069 H 0.80034 1.22058 0.37696
 H1070 H 0.86632 1.18511 0.42679
 H1071 H 0.89590 1.04204 0.32309
 H1072 H 0.95179 1.06811 0.28677
 H1073 H 0.83306 1.08180 0.27201
 H1074 H 0.88907 1.10841 0.23612
 C1075 C 0.37013 0.64538 -0.20479
 C1076 C 0.32747 0.67470 -0.18556
 C1077 C 0.32623 0.68054 -0.13832
 C1078 C 0.36643 0.65936 -0.11161
 C1079 C 0.40786 0.62780 -0.13055
 C1080 C 0.40906 0.62125 -0.17762
 C1081 C 0.40935 0.56964 -0.20480
 C1082 C 0.36726 0.59571 -0.23456
 H1083 H 0.29573 0.70435 -0.12160
 H1084 H 0.36301 0.66591 -0.07542
 H1085 H 0.39442 0.53359 -0.18542
 H1086 H 0.44769 0.56314 -0.22275
 H1087 H 0.32798 0.57467 -0.23271
 H1088 H 0.38151 0.60451 -0.26952
 C1089 C 0.78004 0.87033 0.65776
 C1090 C 0.80491 0.83907 0.69132
 C1091 C 0.85841 0.85146 0.70255
 C1092 C 0.88745 0.88950 0.67759
 C1093 C 0.86364 0.91657 0.64117
 C1094 C 0.80943 0.90808 0.63238
 C1095 C 0.76712 0.95077 0.63633
 C1096 C 0.73558 0.91044 0.66436
 H1097 H 0.87912 0.82982 0.72926
 H1098 H 0.92952 0.89443 0.68463
 H1099 H 0.74849 0.95993 0.60301
 H1100 H 0.78021 0.98756 0.65576
 H1101 H 0.69803 0.89778 0.64756
 H1102 H 0.73084 0.92334 0.70032
 C1103 C 0.35192 0.30463 0.15066
 C1104 C 0.32183 0.32345 0.18716
 C1105 C 0.32507 0.37996 0.19908
 C1106 C 0.35629 0.41633 0.17395
 C1107 C 0.38553 0.39641 0.13744
 C1108 C 0.38201 0.34111 0.12554
 C1109 C 0.42709 0.30252 0.12049
 C1110 C 0.39549 0.26274 0.14927
 H1111 H 0.30222 0.39673 0.22695
 H1112 H 0.35635 0.45960 0.18217
 H1113 H 0.46321 0.31936 0.13682
 H1114 H 0.43230 0.28880 0.08479
 H1115 H 0.41349 0.25503 0.18311
 H1116 H 0.38439 0.22543 0.12991
   
