data_POSCAR
  _audit_creation_date              2014-09-24
  _audit_creation_method            'ToBaCCo'
  _symmetry_space_group_name_H-M    'P1'
  _symmetry_Int_Tables_number       1
  _symmetry_cell_setting            triclinic
  loop_
  _symmetry_equiv_pos_as_xyz
 x,y,z
_cell_length_a 21.0397
_cell_length_b 21.0274
_cell_length_c 21.0321
_cell_angle_alpha 83.977900
_cell_angle_beta 91.145200
_cell_angle_gamma 92.107900
loop_
  _atom_site_label
  _atom_site_type_symbol
  _atom_site_fract_x
  _atom_site_fract_y
  _atom_site_fract_z
O1 O 0.58742 0.49339 0.05096
 O2 O 0.41211 0.49150 0.05323
 O3 O 0.49803 0.40579 0.04955
 O4 O 0.50265 0.57976 0.05534
 O5 O 0.49855 0.59417 -0.05031
 O6 O 0.49411 0.42000 -0.05611
 O7 O 0.40919 0.50655 -0.05235
 O8 O 0.58426 0.50866 -0.05466
 Cu9 Cu 0.50020 0.49120 0.06295
 Cu10 Cu 0.49628 0.50869 -0.06403
 C11 C 0.61550 0.50135 -0.00229
 C12 C 0.38092 0.49898 0.00079
 C13 C 0.49568 0.38344 -0.00417
 C14 C 0.50136 0.61640 0.00348
 O15 O 0.05121 0.59179 0.49904
 O16 O 0.05282 0.41609 0.50374
 O17 O 0.05163 0.51034 0.41363
 O18 O 0.05281 0.49742 0.58921
 O19 O -0.05231 0.49717 0.58801
 O20 O -0.05342 0.50138 0.41300
 O21 O -0.05221 0.41127 0.50720
 O22 O -0.05385 0.58737 0.49374
 Cu23 Cu 0.06275 0.50443 0.50151
 Cu24 Cu -0.06358 0.49886 0.50040
 C25 C -0.00160 0.61942 0.49516
 C26 C 0.00053 0.38390 0.50663
 C27 C -0.00109 0.50672 0.38369
 C28 C 0.00045 0.49610 0.61825
 O29 O 0.50526 0.05370 0.58085
 O30 O 0.50181 0.04929 0.40596
 O31 O 0.41594 0.05243 0.49293
 O32 O 0.59040 0.05132 0.49303
 O33 O 0.58615 -0.05443 0.50743
 O34 O 0.41158 -0.05332 0.50746
 O35 O 0.49650 -0.05644 0.41969
 O36 O 0.50005 -0.05201 0.59432
 Cu37 Cu 0.50374 0.06237 0.49188
 Cu38 Cu 0.49829 -0.06474 0.50849
 C39 C 0.50287 0.00152 0.61725
 C40 C 0.49853 -0.00434 0.38323
 C41 C 0.38425 -0.00023 0.50040
 C42 C 0.61780 -0.00172 0.50012
 O43 O 0.44827 0.00090 -0.09119
 O44 O 0.44582 -0.00731 0.08456
 O45 O 0.44571 0.08504 -0.00847
 O46 O 0.44878 -0.09032 0.00103
 O47 O 0.55392 -0.08483 0.00527
 O48 O 0.55086 0.09037 -0.00461
 O49 O 0.55093 -0.00074 0.08772
 O50 O 0.55338 0.00710 -0.08822
 Cu51 Cu 0.43652 -0.00333 -0.00379
 Cu52 Cu 0.56290 0.00348 0.00021
 C53 C 0.50121 0.00474 -0.11944
 C54 C 0.49792 -0.00509 0.11589
 C55 C 0.49781 0.11731 -0.00750
 C56 C 0.50189 -0.11720 0.00447
 O57 O -0.08529 0.55432 0.99263
 O58 O 0.08975 0.55327 0.99435
 O59 O 0.00103 0.55080 0.90695
 O60 O 0.00339 0.55594 1.08114
 O61 O -0.00312 0.45022 1.09497
 O62 O -0.00084 0.44505 0.92114
 O63 O 0.08574 0.44764 1.01101
 O64 O -0.08960 0.44856 1.00568
 Cu65 Cu 0.00266 0.56427 0.99248
 Cu66 Cu -0.00237 0.43719 1.00958
 C67 C -0.11711 0.50164 0.99854
 C68 C 0.11741 0.50035 1.00298
 C69 C 0.00021 0.49704 0.88462
 C70 C -0.00005 0.50387 1.11750
 O71 O -0.00198 -0.08011 0.44473
 O72 O 0.00319 0.09456 0.45107
 O73 O 0.08801 0.00826 0.44848
 O74 O -0.08660 0.00694 0.44717
 O75 O -0.08594 -0.01058 0.55270
 O76 O 0.08879 -0.00557 0.55417
 O77 O 0.00156 0.07966 0.55666
 O78 O 0.00112 -0.09486 0.55036
 Cu79 Cu 0.00062 0.00884 0.43718
 Cu80 Cu 0.00151 -0.00921 0.56415
 C81 C -0.00090 -0.11705 0.49650
 C82 C 0.00251 0.11667 0.50492
 C83 C 0.11793 0.00156 0.50156
 C84 C -0.11581 -0.00217 0.49969
 C85 C -0.23161 0.46182 0.95641
 C86 C -0.27379 0.44259 1.01538
 C87 C -0.31348 0.50188 0.99691
 C88 C -0.27223 0.52109 0.93794
 C89 C -0.26997 0.54216 1.03795
 C90 C -0.22938 0.48283 1.05642
 C91 C -0.18812 0.50206 0.99751
 C92 C -0.22784 0.56139 0.97904
 H93 H -0.21512 0.42876 0.92285
 H94 H -0.29345 0.39370 1.03028
 H95 H -0.29040 0.53688 0.88913
 H96 H -0.28644 0.57525 1.07149
 H97 H -0.21101 0.46714 1.10518
 H98 H -0.20842 0.61034 0.96405
 C99 C 0.23092 0.48136 1.06180
 C100 C 0.27029 0.44027 1.02106
 C101 C 0.31364 0.49923 1.00154
 C102 C 0.27538 0.54035 1.04229
 C103 C 0.27111 0.51793 0.94266
 C104 C 0.22680 0.45902 0.96219
 C105 C 0.18843 0.50007 1.00295
 C106 C 0.23196 0.55902 0.98347
 H107 H 0.21359 0.46640 1.11079
 H108 H 0.28677 0.39140 1.03644
 H109 H 0.29603 0.57386 1.07521
 H110 H 0.28795 0.53304 0.89350
 H111 H 0.20610 0.42559 0.92923
 H112 H 0.21572 0.60794 0.96798
 C113 C -0.01579 -0.22330 0.43502
 C114 C 0.04181 -0.26584 0.45305
 C115 C -0.00212 -0.31315 0.49381
 C116 C -0.05979 -0.27167 0.47575
 C117 C 0.01200 -0.27774 0.55313
 C118 C 0.05589 -0.22944 0.51245
 C119 C -0.00168 -0.18786 0.49440
 C120 C -0.04561 -0.23530 0.53506
 H121 H -0.02725 -0.20029 0.38642
 H122 H 0.07777 -0.27905 0.41928
 H123 H -0.10745 -0.28949 0.46059
 H124 H 0.02339 -0.30082 0.60174
 H125 H 0.10347 -0.21129 0.52750
 H126 H -0.08159 -0.22205 0.56880
 C127 C -0.04304 0.23147 0.46626
 C128 C -0.05583 0.26661 0.52555
 C129 C 0.00103 0.31274 0.50791
 C130 C 0.01381 0.27843 0.44861
 C131 C 0.04632 0.26880 0.54877
 C132 C -0.01051 0.22173 0.56643
 C133 C 0.00225 0.18746 0.50705
 C134 C 0.05907 0.23356 0.48938
 H135 H -0.07983 0.21545 0.43228
 H136 H -0.10316 0.28072 0.54048
 H137 H 0.02375 0.30251 0.40011
 H138 H 0.08306 0.28488 0.58275
 H139 H -0.02054 0.19781 0.61495
 H140 H 0.10635 0.21921 0.47453
 C141 C 0.51972 0.06295 -0.23849
 C142 C 0.56125 0.01957 -0.27466
 C143 C 0.50284 0.00294 -0.31557
 C144 C 0.46127 0.04632 -0.28056
 C145 C 0.48515 -0.05500 -0.26752
 C146 C 0.54349 -0.03837 -0.22564
 C147 C 0.50201 0.00503 -0.19050
 C148 C 0.44363 -0.01157 -0.23164
 H149 H 0.53386 0.11145 -0.22576
 H150 H 0.60965 0.03227 -0.29308
 H151 H 0.42737 0.08112 -0.30380
 H152 H 0.47086 -0.10366 -0.27972
 H153 H 0.57730 -0.07323 -0.20233
 H154 H 0.39516 -0.02440 -0.21350
 C155 C 0.53999 -0.04734 0.23364
 C156 C 0.55546 0.01193 0.26990
 C157 C 0.49752 -0.00591 0.31237
 C158 C 0.48204 -0.06519 0.27703
 C159 C 0.45455 0.03504 0.26573
 C160 C 0.51255 0.05287 0.22240
 C161 C 0.49706 -0.00634 0.18702
 C162 C 0.43905 -0.02416 0.22946
 H163 H 0.57513 -0.08127 0.21975
 H164 H 0.60336 0.02676 0.28727
 H165 H 0.46945 -0.11382 0.30010
 H166 H 0.41939 0.06896 0.27963
 H167 H 0.52504 0.10147 0.19917
 H168 H 0.39112 -0.03907 0.21226
 C169 C 0.48773 -0.22350 -0.05301
 C170 C 0.54569 -0.26568 -0.03606
 C171 C 0.50253 -0.31307 0.00544
 C172 C 0.44463 -0.27178 -0.01152
 C173 C 0.51773 -0.27766 0.06457
 C174 C 0.56091 -0.22927 0.02298
 C175 C 0.50292 -0.18802 0.00602
 C176 C 0.45981 -0.23539 0.04759
 H177 H 0.47546 -0.20034 -0.10136
 H178 H 0.58098 -0.27896 -0.07047
 H179 H 0.39683 -0.29014 -0.02568
 H180 H 0.53009 -0.30068 0.11294
 H181 H 0.60873 -0.21107 0.03722
 H182 H 0.42452 -0.22209 0.08200
 C183 C 0.55516 0.23047 0.00688
 C184 C 0.53687 0.27882 -0.05055
 C185 C 0.49558 0.31292 -0.00609
 C186 C 0.51388 0.26537 0.05137
 C187 C 0.43719 0.27067 -0.02108
 C188 C 0.47845 0.23546 -0.06556
 C189 C 0.49679 0.18807 -0.00807
 C190 C 0.45555 0.22221 0.03642
 H191 H 0.60377 0.21340 0.01840
 H192 H 0.57034 0.30295 -0.08626
 H193 H 0.52849 0.27818 0.09954
 H194 H 0.38869 0.28813 -0.03245
 H195 H 0.46397 0.22224 -0.11362
 H196 H 0.42215 0.19809 0.07221
 C197 C -0.22979 -0.06167 0.51771
 C198 C -0.26954 -0.02134 0.55874
 C199 C -0.31153 -0.00202 0.49976
 C200 C -0.27281 -0.04235 0.45869
 C201 C -0.26816 0.05725 0.48133
 C202 C -0.22527 0.03794 0.54028
 C203 C -0.18652 -0.00242 0.49926
 C204 C -0.22855 0.01688 0.44025
 H205 H -0.21308 -0.11055 0.53260
 H206 H -0.28730 -0.03696 0.60744
 H207 H -0.29323 -0.07533 0.42513
 H208 H -0.28453 0.10623 0.46634
 H209 H -0.20489 0.07098 0.57380
 H210 H -0.21107 0.03263 0.39147
 C211 C 0.23078 -0.01722 0.56100
 C212 C 0.26999 -0.05855 0.52052
 C213 C 0.31359 0.00027 0.50103
 C214 C 0.27528 0.04156 0.54151
 C215 C 0.27148 0.01892 0.44198
 C216 C 0.22697 -0.03991 0.46150
 C217 C 0.18862 0.00141 0.50191
 C218 C 0.23214 0.06022 0.48241
 H219 H 0.21341 -0.03209 0.61000
 H220 H 0.28616 -0.10746 0.53621
 H221 H 0.29603 0.07502 0.57443
 H222 H 0.28911 0.03369 0.39306
 H223 H 0.20625 -0.07344 0.42863
 H224 H 0.21566 0.10904 0.46683
 C225 C -0.04185 0.54905 1.22314
 C226 C -0.05987 0.49113 1.27185
 C227 C -0.00136 0.50723 1.31291
 C228 C 0.01670 0.56519 1.26521
 C229 C 0.03984 0.46370 1.27773
 C230 C -0.01861 0.44759 1.23587
 C231 C -0.00058 0.50553 1.18803
 C232 C 0.05790 0.52166 1.22902
 H233 H -0.07546 0.58410 1.19982
 H234 H -0.10836 0.47856 1.29008
 H235 H 0.03114 0.61353 1.27820
 H236 H 0.07338 0.42856 1.30101
 H237 H -0.03315 0.39914 1.22326
 H238 H 0.10632 0.53411 1.21051
 C239 C 0.01052 0.43561 0.77948
 C240 C -0.04580 0.45475 0.73378
 C241 C 0.00085 0.49471 0.68910
 C242 C 0.05720 0.47558 0.73382
 C243 C -0.00914 0.55426 0.72378
 C244 C -0.05575 0.51438 0.76940
 C245 C 0.00054 0.49525 0.81412
 C246 C 0.04721 0.53514 0.76941
 H247 H 0.01862 0.38680 0.80311
 H248 H -0.08401 0.42167 0.71829
 H249 H 0.10366 0.45958 0.71849
 H250 H -0.01717 0.60304 0.69999
 H251 H -0.10218 0.53030 0.78491
 H252 H 0.08544 0.56820 0.78490
   
