data_POSCAR
  _audit_creation_date              2014-09-24
  _audit_creation_method            'ToBaCCo'
  _symmetry_space_group_name_H-M    'P1'
  _symmetry_Int_Tables_number       1
  _symmetry_cell_setting            triclinic
  loop_
  _symmetry_equiv_pos_as_xyz
 x,y,z
_cell_length_a 23.0225
_cell_length_b 23.0168
_cell_length_c 23.0195
_cell_angle_alpha 90.179500
_cell_angle_beta 89.978400
_cell_angle_gamma 89.759200
loop_
  _atom_site_label
  _atom_site_type_symbol
  _atom_site_fract_x
  _atom_site_fract_y
  _atom_site_fract_z
Si1 Si 0.00009 0.50079 0.25028
 Si2 Si -0.00009 0.49921 0.74998
 Si3 Si 0.24990 0.00102 0.50010
 Si4 Si 0.75007 -0.00105 0.50026
 Si5 Si 0.49892 0.24993 0.99933
 Si6 Si 0.50100 0.75008 1.00083
 B7 B 0.99975 1.05930 0.03674
 B8 B 0.99974 1.05906 -0.03634
 B9 B 1.05897 1.03653 0.00017
 B10 B 1.03652 1.00018 0.05933
 B11 B 0.96345 1.00022 0.05937
 B12 B 0.94068 1.03659 0.00023
 B13 B 1.00018 0.94073 -0.03635
 B14 B 1.00020 0.94097 0.03673
 B15 B 0.94096 0.96350 0.00024
 B16 B 0.96342 0.99984 -0.05893
 B17 B 1.03649 0.99982 -0.05898
 B18 B 1.05926 0.96344 0.00015
 B19 B 0.55917 0.49967 0.46354
 B20 B 0.55914 0.49967 0.53662
 B21 B 0.53660 0.55895 0.50028
 B22 B 0.50007 0.53654 0.44105
 B23 B 0.49998 0.46345 0.44080
 B24 B 0.53648 0.44062 0.49988
 B25 B 0.44084 0.50028 0.53663
 B26 B 0.44088 0.50031 0.46354
 B27 B 0.46341 0.44102 0.49988
 B28 B 0.49995 0.46343 0.55911
 B29 B 0.50002 0.53652 0.55937
 B30 B 0.46353 0.55935 0.50028
 C31 C 1.05486 1.25877 0.12869
 C32 C 1.02784 1.31263 0.09862
 C33 C 0.99999 1.33041 0.15669
 C34 C 1.02702 1.27744 0.18712
 C35 C 0.99975 1.22415 0.11456
 C36 C 0.97191 1.24195 0.17254
 C37 C 0.97272 1.27701 0.08399
 C38 C 0.94487 1.29574 0.14246
 C39 C 1.00012 1.38857 0.18259
 C40 C 1.00017 1.43490 0.20701
 C41 C 0.99964 1.16525 0.09077
 C42 C 0.99963 1.11763 0.06919
 H43 H 1.10004 1.24273 0.12284
 H44 H 1.05070 1.34229 0.06841
 H45 H 1.04944 1.27829 0.22980
 H46 H 0.94902 1.21217 0.20262
 H47 H 0.95042 1.27594 0.04123
 H48 H 0.89965 1.31167 0.14823
 C49 C 1.02857 0.72390 0.08486
 C50 C 1.05524 0.70589 0.14396
 C51 C 1.00015 0.67078 0.15699
 C52 C 0.97348 0.68785 0.09830
 C53 C 1.00033 0.77672 0.11475
 C54 C 0.94524 0.74167 0.12769
 C55 C 1.02698 0.75963 0.17336
 C56 C 0.97190 0.72371 0.18675
 C57 C 1.00004 0.61277 0.18289
 C58 C 1.00000 0.56655 0.20723
 C59 C 1.00039 0.83542 0.09087
 C60 C 1.00037 0.88287 0.06922
 H61 H 1.05184 0.72488 0.04260
 H62 H 1.10047 0.69045 0.15076
 H63 H 0.95162 0.65775 0.06762
 H64 H 0.90007 0.75723 0.12079
 H65 H 1.04887 0.78987 0.20391
 H66 H 0.94850 0.72295 0.22891
 C67 C 1.03069 1.27518 -0.08601
 C68 C 1.05468 1.29233 -0.14646
 C69 C 0.99988 1.32925 -0.15662
 C70 C 0.97588 1.31305 -0.09657
 C71 C 0.99965 1.22333 -0.11432
 C72 C 0.94485 1.26020 -0.12438
 C73 C 1.02364 1.23955 -0.17427
 C74 C 0.96884 1.27729 -0.18478
 C75 C 0.99995 1.38725 -0.18255
 C76 C 0.99996 1.43347 -0.20692
 C77 C 0.99957 1.16463 -0.09044
 C78 C 0.99958 1.11717 -0.06882
 H79 H 1.05606 1.27342 -0.04503
 H80 H 1.09986 1.30625 -0.15565
 H81 H 0.95638 1.34385 -0.06482
 H82 H 0.89973 1.24613 -0.11509
 H83 H 1.04316 1.20861 -0.20589
 H84 H 0.94331 1.27883 -0.22566
 C85 C 0.97269 0.72342 -0.08386
 C86 C 0.94496 0.70516 -0.14244
 C87 C 0.99991 0.66970 -0.15653
 C88 C 1.02765 0.68701 -0.09836
 C89 C 1.00018 0.77592 -0.11429
 C90 C 1.05513 0.74051 -0.12829
 C91 C 0.97245 0.75859 -0.17238
 C92 C 1.02739 0.72231 -0.18682
 C93 C 0.99983 0.61153 -0.18245
 C94 C 0.99983 0.56517 -0.20683
 C95 C 1.00029 0.83479 -0.09043
 C96 C 1.00030 0.88240 -0.06882
 H97 H 0.95024 0.72477 -0.04117
 H98 H 0.89966 0.68991 -0.14837
 H99 H 1.05020 0.65699 -0.06811
 H100 H 1.10038 0.75588 -0.12227
 H101 H 0.94988 0.78874 -0.20249
 H102 H 1.04998 0.72119 -0.22943
 C103 C 1.17301 1.02694 0.24098
 C104 C 1.14356 1.05562 0.29442
 C105 C 1.15652 1.00066 0.32994
 C106 C 1.18632 0.97199 0.27731
 C107 C 1.11440 1.00044 0.22384
 C108 C 1.12727 0.94548 0.25930
 C109 C 1.08447 1.02911 0.27635
 C110 C 1.09784 0.97414 0.31281
 C111 C 1.18239 1.00078 0.38802
 C112 C 1.20675 1.00089 0.43429
 C113 C 1.09060 1.00036 0.16504
 C114 C 1.06900 1.00030 0.11752
 H115 H 1.20360 1.04853 0.21073
 H116 H 1.15037 1.10091 0.30959
 H117 H 1.22846 0.94840 0.27839
 H118 H 1.12036 0.90024 0.24400
 H119 H 1.04223 1.05255 0.27506
 H120 H 1.06711 0.95258 0.34293
 C121 C 1.17271 0.97286 -0.24110
 C122 C 1.14296 0.94562 -0.29497
 C123 C 1.15660 1.00086 -0.32962
 C124 C 1.18670 1.02809 -0.27658
 C125 C 1.11442 1.00028 -0.22353
 C126 C 1.12797 1.05552 -0.25812
 C127 C 1.08418 0.97305 -0.27646
 C128 C 1.09823 1.02830 -0.31206
 C129 C 1.18247 1.00108 -0.38773
 C130 C 1.20680 1.00115 -0.43403
 C131 C 1.09057 0.99996 -0.16473
 C132 C 1.06895 0.99978 -0.11721
 H133 H 1.20301 0.95017 -0.21120
 H134 H 1.14924 0.90044 -0.31085
 H135 H 1.22913 1.05084 -0.27729
 H136 H 1.12159 1.10066 -0.24212
 H137 H 1.04168 0.95044 -0.27552
 H138 H 1.06780 1.05097 -0.34183
 C139 C 0.82713 0.97323 0.24091
 C140 C 0.85667 0.94451 0.29407
 C141 C 0.84353 0.99933 0.33008
 C142 C 0.81363 1.02804 0.27774
 C143 C 0.88564 0.99998 0.22396
 C144 C 0.87258 1.05480 0.25991
 C145 C 0.91567 0.97127 0.27619
 C146 C 0.90212 1.02610 0.31315
 C147 C 0.81765 0.99904 0.38818
 C148 C 0.79327 0.99891 0.43446
 C149 C 0.90943 1.00024 0.16515
 C150 C 0.93101 1.00033 0.11760
 H151 H 0.79662 0.95162 0.21048
 H152 H 0.85002 0.89915 0.30883
 H153 H 0.77140 1.05147 0.27906
 H154 H 0.87933 1.10011 0.24502
 H155 H 0.95799 0.94799 0.27465
 H156 H 0.93277 1.04768 0.34344
 C157 C 0.87245 0.94425 -0.25875
 C158 C 0.81345 0.97122 -0.27679
 C159 C 0.84327 0.99918 -0.32947
 C160 C 0.90191 0.97219 -0.31233
 C161 C 0.88544 0.99936 -0.22339
 C162 C 0.91540 1.02731 -0.27597
 C163 C 0.82688 1.02632 -0.24055
 C164 C 0.85635 1.05428 -0.29405
 C165 C 0.81743 0.99909 -0.38756
 C166 C 0.79312 0.99903 -0.43386
 C167 C 0.90929 0.99950 -0.16462
 C168 C 0.93093 0.99965 -0.11711
 H169 H 0.87928 0.89906 -0.24339
 H170 H 0.77126 0.94807 -0.27780
 H171 H 0.93258 0.95007 -0.34243
 H172 H 0.95767 1.05033 -0.27473
 H173 H 0.79635 1.04847 -0.21031
 H174 H 0.84962 1.09952 -0.30928
 C175 C 1.23996 1.17308 -0.02659
 C176 C 1.27638 1.18644 0.02834
 C177 C 1.32905 1.15666 -0.00029
 C178 C 1.29345 1.14366 -0.05523
 C179 C 1.22316 1.11446 -0.00001
 C180 C 1.27572 1.08455 -0.02864
 C181 C 1.25870 1.12737 0.05492
 C182 C 1.31226 1.09796 0.02631
 C183 C 1.38703 1.18254 -0.00046
 C184 C 1.43322 1.20687 -0.00058
 C185 C 1.16448 1.09061 0.00009
 C186 C 1.11705 1.06899 0.00014
 H187 H 1.20952 1.20365 -0.04822
 H188 H 1.27732 1.22860 0.05186
 H189 H 1.30846 1.15047 -0.10052
 H190 H 1.27455 1.04229 -0.05202
 H191 H 1.24355 1.12046 0.10017
 H192 H 1.34257 1.06725 0.04792
 C193 C 0.74053 1.12723 -0.05547
 C194 C 0.68703 1.09777 -0.02743
 C195 C 0.66947 1.15647 -0.00063
 C196 C 0.72208 1.18629 -0.02869
 C197 C 0.77578 1.11440 -0.00032
 C198 C 0.75820 1.17302 0.02644
 C199 C 0.72328 1.08444 0.02773
 C200 C 0.70478 1.14355 0.05450
 C201 C 0.61127 1.18233 -0.00072
 C202 C 0.56489 1.20671 -0.00072
 C203 C 0.83469 1.09063 -0.00007
 C204 C 0.88233 1.06906 0.00013
 H205 H 0.75609 1.12031 -0.10063
 H206 H 0.65718 1.06701 -0.04944
 H207 H 0.72091 1.22844 -0.05199
 H208 H 0.78817 1.20365 0.04848
 H209 H 0.72467 1.04221 0.05088
 H210 H 0.68935 1.15037 0.09972
 C211 C 1.25976 0.87244 -0.05475
 C212 C 1.31309 0.90210 -0.02644
 C213 C 1.33048 0.84360 0.00051
 C214 C 1.27805 0.81357 -0.02781
 C215 C 1.22417 0.88566 0.00018
 C216 C 1.24159 0.82724 0.02710
 C217 C 1.27648 0.91583 0.02850
 C218 C 1.29483 0.85692 0.05543
 C219 C 1.38868 0.81772 0.00069
 C220 C 1.43505 0.79333 0.00080
 C221 C 1.16525 0.90942 0.00010
 C222 C 1.11761 0.93098 0.00010
 H223 H 1.24449 0.87903 -0.10001
 H224 H 1.34307 0.93272 -0.04831
 H225 H 1.27937 0.77126 -0.05107
 H226 H 1.21147 0.79677 0.04900
 H227 H 1.27493 0.95823 0.05160
 H228 H 1.30996 0.85043 0.10074
 C229 C 0.72398 0.91562 -0.02698
 C230 C 0.70603 0.85671 -0.05421
 C231 C 0.67092 0.84328 0.00088
 C232 C 0.68793 0.90179 0.02812
 C233 C 0.77680 0.88551 0.00072
 C234 C 0.74175 0.87218 0.05582
 C235 C 0.75977 0.82709 -0.02650
 C236 C 0.72385 0.81331 0.02859
 C237 C 0.61294 0.81741 0.00090
 C238 C 0.56673 0.79311 0.00088
 C239 C 0.83547 0.90939 0.00054
 C240 C 0.88289 0.93103 0.00038
 H241 H 0.72493 0.95805 -0.04980
 H242 H 0.69063 0.85024 -0.09946
 H243 H 0.65780 0.93231 0.05044
 H244 H 0.75729 0.87874 0.10101
 H245 H 0.79003 0.79670 -0.04883
 H246 H 0.72312 0.77097 0.05154
 C247 C 0.74068 0.52656 0.32721
 C248 C 0.79381 0.55523 0.35676
 C249 C 0.82985 0.50041 0.34362
 C250 C 0.77754 0.47175 0.31372
 C251 C 0.72373 0.49977 0.38572
 C252 C 0.75972 0.44494 0.37268
 C253 C 0.77594 0.52842 0.41576
 C254 C 0.81293 0.47359 0.40222
 C255 C 0.88796 0.50070 0.31778
 C256 C 0.93426 0.50085 0.29344
 C257 C 0.66492 0.49953 0.40951
 C258 C 0.61738 0.49948 0.43108
 H259 H 0.71024 0.54822 0.29670
 H260 H 0.80854 0.60059 0.35010
 H261 H 0.77886 0.44835 0.27149
 H262 H 0.74485 0.39963 0.37944
 H263 H 0.77439 0.55166 0.45809
 H264 H 0.84322 0.45195 0.43288
 C265 C 0.24083 0.55590 0.37273
 C266 C 0.22288 0.52898 0.31371
 C267 C 0.17032 0.50082 0.34353
 C268 C 0.18738 0.52775 0.40219
 C269 C 0.27640 0.50087 0.38567
 C270 C 0.22396 0.47271 0.41562
 C271 C 0.25933 0.47396 0.32709
 C272 C 0.20596 0.44579 0.35656
 C273 C 0.11223 0.50078 0.31769
 C274 C 0.06594 0.50076 0.29337
 C275 C 0.33518 0.50078 0.40948
 C276 C 0.38269 0.50061 0.43108
 H277 H 0.25602 0.60112 0.37960
 H278 H 0.22178 0.55221 0.27153
 H279 H 0.15720 0.54973 0.43289
 H280 H 0.22530 0.44962 0.45789
 H281 H 0.28965 0.45195 0.29654
 H282 H 0.19091 0.40052 0.34979
 C283 C 0.77623 0.47081 0.58460
 C284 C 0.81258 0.52584 0.59780
 C285 C 0.82976 0.49945 0.65657
 C286 C 0.79436 0.44443 0.64378
 C287 C 0.72367 0.49949 0.61446
 C288 C 0.74087 0.47312 0.67314
 C289 C 0.75901 0.55451 0.62715
 C290 C 0.77709 0.52813 0.68629
 C291 C 0.88784 0.49939 0.68245
 C292 C 0.93410 0.49932 0.70682
 C293 C 0.66487 0.49947 0.59066
 C294 C 0.61734 0.49949 0.56908
 H295 H 0.77499 0.44729 0.54243
 H296 H 0.84265 0.54738 0.56700
 H297 H 0.80962 0.39917 0.65072
 H298 H 0.71068 0.45156 0.70381
 H299 H 0.74363 0.59972 0.62011
 H300 H 0.77812 0.55181 0.72837
 C301 C 0.24113 0.44458 0.62661
 C302 C 0.22290 0.47065 0.68601
 C303 C 0.17013 0.49922 0.65658
 C304 C 0.18746 0.47313 0.59754
 C305 C 0.27625 0.49980 0.61447
 C306 C 0.22359 0.52836 0.58490
 C307 C 0.25889 0.52586 0.67342
 C308 C 0.20531 0.55443 0.64434
 C309 C 0.11203 0.49903 0.68246
 C310 C 0.06575 0.49901 0.70683
 C311 C 0.33507 0.50016 0.59067
 C312 C 0.38261 0.50036 0.56909
 H313 H 0.25671 0.39946 0.61911
 H314 H 0.22194 0.44680 0.72784
 H315 H 0.15751 0.45158 0.56653
 H316 H 0.22476 0.55205 0.54297
 H317 H 0.28897 0.54743 0.70431
 H318 H 0.18985 0.59960 0.65175
 C319 C 0.55583 0.62611 0.24109
 C320 C 0.52659 0.59747 0.18761
 C321 C 0.50103 0.65685 0.17086
 C322 C 0.53029 0.68586 0.22344
 C323 C 0.50074 0.61458 0.27679
 C324 C 0.47521 0.67388 0.26003
 C325 C 0.47149 0.58544 0.22431
 C326 C 0.44595 0.64522 0.20663
 C327 C 0.50110 0.68274 0.11285
 C328 C 0.50108 0.70706 0.06662
 C329 C 0.50047 0.59069 0.33550
 C330 C 0.50025 0.56904 0.38294
 H331 H 0.60096 0.61804 0.25611
 H332 H 0.54758 0.56625 0.15724
 H333 H 0.55458 0.72741 0.22241
 H334 H 0.45420 0.70498 0.29051
 H335 H 0.44736 0.54379 0.22555
 H336 H 0.40077 0.65320 0.19174
 C337 C 0.47326 0.67281 0.74176
 C338 C 0.44566 0.64316 0.79534
 C339 C 0.50081 0.65651 0.83043
 C340 C 0.52841 0.68651 0.77767
 C341 C 0.50046 0.61438 0.72418
 C342 C 0.55561 0.62764 0.75921
 C343 C 0.47286 0.58424 0.77683
 C344 C 0.52803 0.59800 0.81286
 C345 C 0.50098 0.68241 0.88859
 C346 C 0.50105 0.70682 0.93493
 C347 C 0.50025 0.59057 0.66530
 C348 C 0.50010 0.56898 0.61769
 H349 H 0.45086 0.70326 0.71182
 H350 H 0.40045 0.64965 0.81093
 H351 H 0.55135 0.72882 0.77869
 H352 H 0.60077 0.62106 0.74350
 H353 H 0.45006 0.54184 0.77558
 H354 H 0.55041 0.56741 0.84267
 C355 C 0.52672 0.32740 0.25828
 C356 C 0.47157 0.31346 0.22248
 C357 C 0.49893 0.34361 0.16968
 C358 C 0.55408 0.35720 0.20466
 C359 C 0.49929 0.38569 0.27594
 C360 C 0.52663 0.41599 0.22325
 C361 C 0.44413 0.37220 0.24103
 C362 C 0.47146 0.40198 0.18732
 C363 C 0.49883 0.31770 0.11151
 C364 C 0.49884 0.29326 0.06519
 C365 C 0.49959 0.40946 0.33484
 C366 C 0.49983 0.43101 0.38246
 H367 H 0.54933 0.29704 0.28816
 H368 H 0.44883 0.27103 0.22149
 H369 H 0.59929 0.35094 0.18898
 H370 H 0.54924 0.45850 0.22447
 H371 H 0.39897 0.37856 0.25683
 H372 H 0.44888 0.43248 0.15756
 C373 C 0.44435 0.37322 0.75876
 C374 C 0.47040 0.31373 0.77651
 C375 C 0.49912 0.34303 0.82924
 C376 C 0.47305 0.40215 0.81238
 C377 C 0.49948 0.38531 0.72332
 C378 C 0.52819 0.41474 0.77593
 C379 C 0.52553 0.32627 0.74019
 C380 C 0.55425 0.35521 0.79373
 C381 C 0.49894 0.31717 0.88726
 C382 C 0.49887 0.29289 0.93351
 C383 C 0.49969 0.40924 0.66463
 C384 C 0.49984 0.43091 0.61720
 H385 H 0.39921 0.38083 0.74353
 H386 H 0.44654 0.27193 0.77742
 H387 H 0.45160 0.43316 0.84264
 H388 H 0.55192 0.45663 0.77480
 H389 H 0.54700 0.29540 0.70979
 H390 H 0.59944 0.34769 0.80883
 C391 C 0.67276 0.74028 0.52817
 C392 C 0.68739 0.77578 0.47310
 C393 C 0.65700 0.82894 0.50022
 C394 C 0.64272 0.79426 0.55530
 C395 C 0.61477 0.72304 0.50033
 C396 C 0.58425 0.77609 0.52745
 C397 C 0.62896 0.75766 0.44525
 C398 C 0.59894 0.81171 0.47236
 C399 C 0.68285 0.88694 0.50016
 C400 C 0.70713 0.93317 0.50016
 C401 C 0.59086 0.66438 0.50039
 C402 C 0.56916 0.61698 0.50040
 H403 H 0.70280 0.71019 0.55101
 H404 H 0.73007 0.77633 0.45065
 H405 H 0.64849 0.81004 0.60054
 H406 H 0.54149 0.77531 0.54976
 H407 H 0.62311 0.74176 0.40006
 H408 H 0.56876 0.84166 0.44955
 C409 C 0.62679 0.24034 0.55496
 C410 C 0.59753 0.18683 0.52647
 C411 C 0.65638 0.16937 0.50008
 C412 C 0.68599 0.22198 0.52858
 C413 C 0.61421 0.27565 0.49986
 C414 C 0.67297 0.25817 0.47349
 C415 C 0.58446 0.22315 0.47136
 C416 C 0.64371 0.20473 0.44498
 C417 C 0.68231 0.11119 0.50021
 C418 C 0.70675 0.06484 0.50027
 C419 C 0.59042 0.33457 0.49977
 C420 C 0.56887 0.38222 0.49976
 H421 H 0.61962 0.25583 0.60014
 H422 H 0.56671 0.15691 0.54812
 H423 H 0.72800 0.22082 0.55221
 H424 H 0.70367 0.28821 0.45181
 H425 H 0.54236 0.22453 0.44787
 H426 H 0.65077 0.18936 0.39976
 C427 C 0.41559 0.77654 0.47177
 C428 C 0.35642 0.79470 0.44519
 C429 C 0.34357 0.83057 0.50015
 C430 C 0.40233 0.81337 0.52674
 C431 C 0.38577 0.72430 0.50036
 C432 C 0.37301 0.76012 0.55532
 C433 C 0.32709 0.74152 0.47380
 C434 C 0.31389 0.77822 0.52875
 C435 C 0.31764 0.88876 0.50008
 C436 C 0.29321 0.93511 0.50005
 C437 C 0.40958 0.66539 0.50043
 C438 C 0.43114 0.61774 0.50042
 H439 H 0.45777 0.77496 0.44838
 H440 H 0.34949 0.80964 0.39991
 H441 H 0.43308 0.84350 0.54836
 H442 H 0.38004 0.74505 0.60056
 H443 H 0.29647 0.71126 0.45214
 H444 H 0.27180 0.77958 0.55227
 C445 C 0.37105 0.24181 0.44477
 C446 C 0.40106 0.18800 0.47201
 C447 C 0.34299 0.17103 0.49996
 C448 C 0.31262 0.22395 0.47272
 C449 C 0.38524 0.27693 0.49974
 C450 C 0.32725 0.25995 0.52768
 C451 C 0.41575 0.22412 0.52699
 C452 C 0.35727 0.20621 0.55494
 C453 C 0.31714 0.11303 0.50005
 C454 C 0.29286 0.06681 0.50010
 C455 C 0.40916 0.33559 0.49969
 C456 C 0.43086 0.38299 0.49973
 H457 H 0.37691 0.25728 0.39952
 H458 H 0.43123 0.15783 0.44927
 H459 H 0.26993 0.22321 0.45031
 H460 H 0.29723 0.29026 0.55045
 H461 H 0.45851 0.22509 0.54926
 H462 H 0.35150 0.19086 0.60023
   
