data_POSCAR
  _audit_creation_date              2014-09-24
  _audit_creation_method            'ToBaCCo'
  _symmetry_space_group_name_H-M    'P1'
  _symmetry_Int_Tables_number       1
  _symmetry_cell_setting            triclinic
  loop_
  _symmetry_equiv_pos_as_xyz
 x,y,z
_cell_length_a 21.5879
_cell_length_b 21.7030
_cell_length_c 21.2216
_cell_angle_alpha 93.073500
_cell_angle_beta 90.394200
_cell_angle_gamma 118.614800
loop_
  _atom_site_label
  _atom_site_type_symbol
  _atom_site_fract_x
  _atom_site_fract_y
  _atom_site_fract_z
C1 C 0.56196 0.10587 0.08256
 H2 H 0.60813 0.09855 0.08150
 C3 C 0.56291 0.16079 0.12046
 H4 H 0.60995 0.19519 0.14905
 C5 C 0.44593 0.07154 0.04415
 H6 H 0.40136 0.03787 0.01281
 C7 C 0.44469 0.12620 0.08125
 H8 H 0.39860 0.13330 0.07759
 N9 N 0.50418 0.06269 0.04535
 C10 C 0.53424 -0.11949 -0.00020
 H11 H 0.53472 -0.11960 -0.05118
 C12 C 0.53703 -0.17372 0.03011
 H13 H 0.54033 -0.21520 0.00211
 C14 C 0.52549 -0.06724 0.09788
 H15 H 0.51831 -0.02715 0.12396
 C16 C 0.52816 -0.12041 0.13013
 H17 H 0.52267 -0.11997 0.18070
 Zn18 Zn 0.51364 -0.00257 -0.01090
 N19 N 0.52835 -0.06781 0.03386
 C20 C 0.65006 0.04415 -0.06412
 N21 N 0.59099 0.05154 -0.06067
 C22 C 0.58581 0.10296 -0.09018
 C23 C 0.64141 0.14998 -0.12459
 C24 C 0.70736 0.09042 -0.09824
 C25 C 0.37114 -0.09929 -0.03429
 C26 C 0.31027 -0.14495 -0.07032
 C27 C 0.37341 -0.09684 -0.16446
 C28 C 0.43306 -0.05262 -0.12652
 N29 N 0.43106 -0.05497 -0.06269
 H30 H 0.65341 0.00347 -0.03950
 H31 H 0.53830 0.10771 -0.08638
 H32 H 0.63514 0.18957 -0.14850
 H33 H 0.75454 0.08480 -0.10015
 H34 H 0.37125 -0.10036 0.01663
 H35 H 0.26472 -0.17918 -0.04483
 H36 H 0.37730 -0.09450 -0.21529
 H37 H 0.48149 -0.01805 -0.14845
 C38 C 0.53372 -0.17492 0.09607
 C39 C 0.50414 0.17207 0.11991
 C40 C 0.31093 -0.14558 -0.13704
 C41 C 0.70396 0.14515 -0.12770
 C42 C -0.11361 0.44678 0.58471
 H43 H -0.10836 0.39983 0.58715
 C44 C -0.16647 0.44584 0.54607
 H45 H -0.20139 0.39788 0.51838
 C46 C -0.07594 0.56518 0.62021
 H47 H -0.04158 0.61085 0.65058
 C48 C -0.12863 0.56647 0.58231
 H49 H -0.13347 0.61380 0.58425
 N50 N -0.06982 0.50569 0.62086
 C51 C 0.10560 0.46772 0.66699
 H52 H 0.10383 0.46821 0.71794
 C53 C 0.16033 0.46265 0.63657
 H54 H 0.20021 0.45845 0.66444
 C55 C 0.05827 0.47714 0.56918
 H56 H 0.02019 0.48580 0.54328
 C57 C 0.11200 0.47224 0.53686
 H58 H 0.11384 0.47742 0.48645
 Zn59 Zn -0.00810 0.49557 0.67764
 N60 N 0.05626 0.47527 0.63311
 C61 C -0.06310 0.36172 0.73294
 N62 N -0.06674 0.42220 0.72824
 C63 C -0.11733 0.43217 0.75736
 C64 C -0.16655 0.38071 0.79352
 C65 C -0.11193 0.30822 0.76861
 C66 C 0.09526 0.63612 0.70048
 C67 C 0.14383 0.69594 0.73669
 C68 C 0.08851 0.63841 0.83067
 C69 C 0.04174 0.57955 0.79267
 N70 N 0.04638 0.57909 0.72884
 H71 H -0.02313 0.35446 0.70841
 H72 H -0.11961 0.48034 0.75194
 H73 H -0.20656 0.38989 0.81603
 H74 H -0.10789 0.26074 0.77162
 H75 H 0.09803 0.63413 0.64958
 H76 H 0.18193 0.73941 0.71174
 H77 H 0.08458 0.63650 0.88149
 H78 H 0.00360 0.53337 0.81464
 C79 C 0.16445 0.46543 0.57073
 C80 C -0.17526 0.50574 0.54486
 C81 C 0.14223 0.69708 0.80327
 C82 C -0.16492 0.31746 0.79921
 C83 C 0.56763 0.47114 0.41932
 H84 H 0.51931 0.42140 0.41589
 C85 C 0.62470 0.47903 0.45663
 H86 H 0.61874 0.43538 0.48306
 C87 C 0.63270 0.58838 0.38933
 H88 H 0.63605 0.63042 0.36206
 C89 C 0.69121 0.59860 0.42619
 H90 H 0.73904 0.64882 0.42751
 N91 N 0.57253 0.52530 0.38655
 C92 C 0.35442 0.47589 0.34751
 H93 H 0.35466 0.47748 0.29663
 C94 C 0.29377 0.46379 0.37955
 H95 H 0.24737 0.45608 0.35286
 C96 C 0.41537 0.48574 0.44390
 H97 H 0.46314 0.49518 0.46891
 C98 C 0.35580 0.47371 0.47790
 H99 H 0.35902 0.47263 0.52859
 Zn100 Zn 0.49439 0.50618 0.33263
 N101 N 0.41358 0.48644 0.37987
 C102 C 0.41549 0.36662 0.27640
 N103 N 0.47816 0.42726 0.27853
 C104 C 0.53369 0.43193 0.24532
 C105 C 0.52764 0.37413 0.20822
 C106 C 0.40709 0.30745 0.23977
 C107 C 0.52218 0.64413 0.31843
 C108 C 0.53360 0.70315 0.28667
 C109 C 0.52748 0.63932 0.18797
 C110 C 0.51607 0.58142 0.22169
 N111 N 0.51377 0.58488 0.28575
 H112 H 0.37237 0.36343 0.30405
 H113 H 0.58310 0.48062 0.24828
 H114 H 0.57236 0.37983 0.18149
 H115 H 0.35714 0.25931 0.23899
 H116 H 0.51936 0.64521 0.36933
 H117 H 0.53963 0.74966 0.31358
 H118 H 0.53005 0.63497 0.13723
 H119 H 0.50841 0.53359 0.19647
 C120 C 0.29396 0.46334 0.44565
 C121 C 0.68814 0.54311 0.45939
 C122 C 0.53554 0.70116 0.22054
 C123 C 0.46397 0.31029 0.20610
 C124 C 0.22717 0.46771 0.54024
 C125 C 0.22931 0.45342 0.47816
 H126 H 0.27341 0.48383 0.57059
 H127 H 0.18217 0.43598 0.44859
 C128 C 0.53035 0.76361 0.12660
 C129 C 0.54508 0.76411 0.18829
 H130 H 0.51357 0.71615 0.09659
 H131 H 0.56277 0.81221 0.21768
 C132 C 0.25635 0.80802 0.82413
 C133 C 0.19329 0.75194 0.84382
 H134 H 0.26419 0.81259 0.77406
 H135 H 0.18444 0.74641 0.89364
 C136 C 0.76413 0.50008 0.50666
 C137 C 0.75120 0.55346 0.49660
 H138 H 0.72849 0.44849 0.48496
 H139 H 0.78854 0.60659 0.51334
 C140 C 0.50955 0.23437 0.15735
 C141 C 0.45517 0.24647 0.16907
 H142 H 0.56130 0.27137 0.17745
 H143 H 0.40204 0.20749 0.15417
 C144 C -0.23463 0.19642 0.83843
 C145 C -0.22069 0.26352 0.83623
 H146 H -0.20103 0.17824 0.81598
 H147 H -0.25369 0.28023 0.86216
   
