data_POSCAR
  _audit_creation_date              2014-09-24
  _audit_creation_method            'ToBaCCo'
  _symmetry_space_group_name_H-M    'P1'
  _symmetry_Int_Tables_number       1
  _symmetry_cell_setting            triclinic
  loop_
  _symmetry_equiv_pos_as_xyz
 x,y,z
_cell_length_a 17.0793
_cell_length_b 17.1450
_cell_length_c 17.1161
_cell_angle_alpha 112.108900
_cell_angle_beta 68.830000
_cell_angle_gamma 68.670100
loop_
  _atom_site_label
  _atom_site_type_symbol
  _atom_site_fract_x
  _atom_site_fract_y
  _atom_site_fract_z
C1 C 0.52268 0.46272 0.00536
 C2 C 0.46097 0.52341 -0.00959
 C3 C 0.38035 0.51554 -0.01959
 C4 C 0.46975 0.60544 -0.01222
 C5 C 0.60487 0.47195 0.00789
 C6 C 0.51520 0.38321 0.01667
 C7 C 0.28220 0.60574 0.03498
 C8 C 0.20452 0.60137 0.02902
 C9 C 0.22219 0.50590 -0.03174
 C10 C 0.32240 0.41522 -0.09046
 C11 C 0.40062 0.42026 -0.08517
 C12 C 0.53608 0.58571 -0.10593
 C13 C 0.54415 0.66378 -0.10711
 C14 C 0.48336 0.76296 -0.01494
 C15 C 0.41765 0.78197 0.07855
 C16 C 0.41256 0.70321 0.08008
 C17 C 0.70210 0.41391 -0.08431
 C18 C 0.78127 0.41862 -0.08252
 C19 C 0.76324 0.48468 0.01115
 C20 C 0.66459 0.54634 0.10319
 C21 C 0.58613 0.53870 0.10173
 C22 C 0.42141 0.40642 0.08824
 C23 C 0.41694 0.32926 0.09579
 C24 C 0.50660 0.22810 0.03327
 C25 C 0.60056 0.20653 -0.03504
 C26 C 0.60460 0.28301 -0.04313
 H27 H 0.26428 0.68046 0.08424
 H28 H 0.12961 0.67346 0.07487
 H29 H 0.34062 0.33989 -0.13976
 H30 H 0.47670 0.34954 -0.13170
 H31 H 0.58198 0.50987 -0.17758
 H32 H 0.59627 0.64741 -0.17976
 H33 H 0.36331 0.71853 0.15316
 H34 H 0.71673 0.36422 -0.15749
 H35 H 0.85622 0.37219 -0.15467
 H36 H 0.64896 0.59869 0.17600
 H37 H 0.51079 0.58509 0.17334
 H38 H 0.35163 0.48377 0.13738
 H39 H 0.34321 0.34842 0.14937
 H40 H 0.67095 0.12952 -0.08479
 H41 H 0.67785 0.26280 -0.09817
 H42 H 0.37192 0.85732 0.15081
 C43 C 0.00818 0.53695 0.52418
 C44 C -0.00752 0.47558 0.46312
 C45 C -0.01006 0.39361 0.47170
 C46 C -0.01891 0.48301 0.38350
 C47 C 0.01883 0.61672 0.51656
 C48 C 0.01109 0.52883 0.60629
 C49 C 0.08189 0.29615 0.41372
 C50 C 0.08030 0.21737 0.41853
 C51 C -0.01287 0.23612 0.48467
 C52 C -0.10466 0.33499 0.54617
 C53 C -0.10343 0.41305 0.53841
 C54 C 0.03879 0.39305 0.28347
 C55 C 0.03158 0.39739 0.20657
 C56 C -0.03394 0.49218 0.22774
 C57 C -0.09501 0.58235 0.32891
 C58 C -0.08825 0.57763 0.40639
 C59 C -0.03911 0.71681 0.60652
 C60 C -0.03210 0.79364 0.60215
 C61 C 0.03343 0.77244 0.50734
 C62 C 0.09443 0.67132 0.41711
 C63 C 0.08787 0.59388 0.42185
 C64 C -0.08080 0.58654 0.70365
 C65 C -0.07902 0.58185 0.78251
 C66 C 0.01431 0.51606 0.76389
 C67 C 0.10611 0.45487 0.66512
 C68 C 0.10466 0.46254 0.58697
 H69 H 0.15472 0.28111 0.36418
 H70 H 0.15225 0.14223 0.37226
 H71 H -0.17705 0.35111 0.59858
 H72 H -0.17480 0.48867 0.58482
 H73 H 0.09156 0.31906 0.26365
 H74 H 0.07982 0.32652 0.12962
 H75 H -0.13618 0.64788 0.48372
 H76 H -0.09179 0.73668 0.68057
 H77 H -0.08035 0.87055 0.67305
 H78 H 0.14606 0.65240 0.34276
 H79 H 0.13586 0.51657 0.35159
 H80 H -0.15374 0.63565 0.71849
 H81 H -0.15096 0.62781 0.85756
 H82 H 0.17860 0.40270 0.64913
 H83 H 0.17597 0.41629 0.51137
 H84 H -0.14669 0.65668 0.34780
 C85 C 0.53807 0.00868 0.47758
 C86 C 0.47769 -0.00724 0.53814
 C87 C 0.48552 -0.01816 0.61803
 C88 C 0.39566 -0.01005 0.52895
 C89 C 0.52865 0.01106 0.39551
 C90 C 0.61792 0.02009 0.48548
 C91 C 0.39551 0.03695 0.71659
 C92 C 0.39968 0.02942 0.79343
 C93 C 0.49457 -0.03330 0.77440
 C94 C 0.58496 -0.09199 0.67422
 C95 C 0.58025 -0.08530 0.59665
 C96 C 0.41431 -0.10397 0.46285
 C97 C 0.33601 -0.10536 0.45481
 C98 C 0.23774 -0.01311 0.51544
 C99 C 0.21984 0.08060 0.58085
 C100 C 0.29883 0.08226 0.58593
 C101 C 0.46251 0.10468 0.41493
 C102 C 0.45454 0.10577 0.33661
 C103 C 0.51530 0.01358 0.23741
 C104 C 0.58078 -0.07984 0.21872
 C105 C 0.58577 -0.08127 0.29772
 C106 C 0.59711 0.08687 0.58076
 C107 C 0.67502 0.09298 0.58569
 C108 C 0.77490 0.03405 0.49499
 C109 C 0.79325 -0.02784 0.39957
 C110 C 0.71601 -0.03470 0.39518
 H111 H 0.32125 0.08786 0.73543
 H112 H 0.32817 0.07562 0.86888
 H113 H 0.65964 -0.14215 0.65584
 H114 H 0.65068 -0.13174 0.52034
 H115 H 0.48945 -0.17564 0.41721
 H116 H 0.35143 -0.17818 0.40299
 H117 H 0.28442 0.15541 0.63512
 H118 H 0.41680 0.17639 0.49069
 H119 H 0.40265 0.17840 0.35277
 H120 H 0.62656 -0.15210 0.14334
 H121 H 0.63512 -0.15427 0.28249
 H122 H 0.52106 0.13328 0.65145
 H123 H 0.65717 0.14270 0.66076
 H124 H 0.86842 -0.07393 0.32780
 H125 H 0.73423 -0.08497 0.32053
 H126 H 0.14514 0.15284 0.62649
 O127 O 0.41578 0.02376 -0.05432
 O128 O 0.42268 0.06517 0.17039
 O129 O 0.41518 0.15855 0.07975
 O130 O 0.40780 -0.06258 0.04605
 O131 O 0.57671 -0.17084 -0.06604
 O132 O 0.58469 0.05306 -0.02345
 O133 O 0.59154 -0.04750 0.06264
 O134 O 0.58512 -0.08012 -0.15927
 Cu135 Cu 0.39874 0.05570 0.07030
 Cu136 Cu 0.60115 -0.07124 -0.05599
 C137 C 0.49873 -0.03120 -0.14425
 C138 C 0.50942 0.01194 0.15320
 C139 C 0.50183 0.14293 0.03143
 C140 C 0.48973 -0.15323 -0.01324
 O141 O -0.16974 0.57734 1.06433
 O142 O 0.05376 0.58473 1.02605
 O143 O -0.04628 0.59193 0.93853
 O144 O -0.07882 0.58403 1.15856
 O145 O 0.02390 0.41405 1.05202
 O146 O 0.06573 0.42253 0.82929
 O147 O 0.15852 0.41506 0.92148
 O148 O -0.06222 0.40801 0.95053
 Cu149 Cu -0.07012 0.60124 1.05664
 Cu150 Cu 0.05616 0.39812 0.92828
 C151 C -0.15256 0.49040 1.01011
 C152 C 0.14371 0.50172 0.97086
 C153 C 0.01286 0.50975 0.84751
 C154 C -0.03102 0.49707 1.14238
 O155 O 0.07868 -0.15838 0.41567
 O156 O 0.04746 0.06158 0.40840
 O157 O 0.17057 -0.06544 0.42257
 O158 O -0.05380 -0.02430 0.41600
 O159 O -0.15816 0.07990 0.58596
 O160 O 0.06343 0.04804 0.59206
 O161 O -0.06421 0.17052 0.57794
 O162 O -0.02356 -0.05219 0.58577
 Cu163 Cu 0.07056 -0.05639 0.39887
 Cu164 Cu -0.05515 0.07155 0.60219
 C165 C 0.03090 -0.14233 0.50259
 C166 C -0.01139 0.15245 0.49076
 C167 C 0.15362 -0.01172 0.50958
 C168 C -0.14348 0.03111 0.49924
   
