data_POSCAR
  _audit_creation_date              2014-09-24
  _audit_creation_method            'ToBaCCo'
  _symmetry_space_group_name_H-M    'P1'
  _symmetry_Int_Tables_number       1
  _symmetry_cell_setting            triclinic
  loop_
  _symmetry_equiv_pos_as_xyz
 x,y,z
_cell_length_a 32.1884
_cell_length_b 34.2760
_cell_length_c 42.6830
_cell_angle_alpha 89.152500
_cell_angle_beta 89.406100
_cell_angle_gamma 90.057500
loop_
  _atom_site_label
  _atom_site_type_symbol
  _atom_site_fract_x
  _atom_site_fract_y
  _atom_site_fract_z
C1 C 1.17850 0.26166 0.28938
 H2 H 1.17516 0.23038 0.28753
 C3 C 1.15370 0.28201 0.31059
 H4 H 1.13128 0.26614 0.32495
 C5 C 1.21350 0.31985 0.27410
 H6 H 1.23757 0.33429 0.26042
 C7 C 1.18965 0.34132 0.29538
 H8 H 1.19503 0.37236 0.29743
 N9 N 1.20752 0.28071 0.27152
 C10 C 1.23355 0.19093 0.20273
 H11 H 1.26694 0.18974 0.20523
 C12 C 1.21378 0.16556 0.18247
 H13 H 1.23227 0.14515 0.16914
 C14 C 1.16921 0.21983 0.21663
 H15 H 1.15208 0.24133 0.22975
 C16 C 1.14813 0.19509 0.19638
 H17 H 1.11471 0.19739 0.19442
 Zn18 Zn 1.24243 0.24904 0.24635
 N19 N 1.21116 0.21700 0.21962
 C20 C 1.26110 0.17927 0.27920
 N21 N 1.27273 0.21699 0.27445
 C22 C 1.30348 0.23311 0.29150
 C23 C 1.32485 0.21077 0.31370
 C24 C 1.28082 0.15606 0.30168
 C25 C 1.26117 0.30670 0.20104
 C26 C 1.28538 0.32683 0.17875
 C27 C 1.34482 0.28903 0.19509
 C28 C 1.31955 0.26988 0.21730
 N29 N 1.27852 0.27902 0.21992
 H30 H 1.23584 0.16721 0.26594
 H31 H 1.31109 0.26364 0.28811
 H32 H 1.34788 0.22571 0.32733
 H33 H 1.27111 0.12592 0.30355
 H34 H 1.22821 0.31252 0.20284
 H35 H 1.27081 0.34826 0.16357
 H36 H 1.37731 0.28116 0.19315
 H37 H 1.33250 0.24674 0.23159
 C38 C 1.17050 0.16733 0.17916
 C39 C 1.15937 0.32231 0.31403
 C40 C 1.32772 0.31779 0.17533
 C41 C 1.31358 0.17134 0.31972
 C42 C 0.65833 -0.23181 0.27517
 H43 H 0.64521 -0.24627 0.25529
 C44 C 0.63228 -0.21097 0.29527
 H45 H 0.59952 -0.20883 0.29005
 C46 C 0.71676 -0.21685 0.30610
 H47 H 0.74978 -0.21941 0.31015
 C48 C 0.69188 -0.19638 0.32701
 H49 H 0.70610 -0.18388 0.34742
 N50 N 0.69991 -0.23352 0.28052
 C51 C 0.71750 -0.32488 0.21713
 H52 H 0.73801 -0.34118 0.23231
 C53 C 0.69970 -0.34317 0.19150
 H54 H 0.70691 -0.37350 0.18737
 C55 C 0.68656 -0.26475 0.20249
 H56 H 0.68261 -0.23386 0.20646
 C57 C 0.66739 -0.28200 0.17706
 H58 H 0.64760 -0.26425 0.16230
 Zn59 Zn 0.73796 -0.25953 0.25418
 N60 N 0.71050 -0.28637 0.22217
 C61 C 0.74725 -0.32300 0.29523
 N62 N 0.76844 -0.29396 0.28006
 C63 C 0.80906 -0.28678 0.28621
 C64 C 0.82963 -0.30863 0.30917
 C65 C 0.76680 -0.34602 0.31790
 C66 C 0.77090 -0.18414 0.23912
 C67 C 0.79338 -0.15770 0.22033
 C68 C 0.82067 -0.21195 0.19109
 C69 C 0.79826 -0.23731 0.21073
 N70 N 0.77339 -0.22309 0.23377
 H71 H 0.71474 -0.32761 0.29023
 H72 H 0.82495 -0.26286 0.27442
 H73 H 0.86130 -0.30102 0.31476
 H74 H 0.74924 -0.36904 0.32956
 H75 H 0.75051 -0.17335 0.25727
 H76 H 0.79075 -0.12682 0.22488
 H77 H 0.83830 -0.22405 0.17183
 H78 H 0.79907 -0.26838 0.20668
 C79 C 0.67420 -0.32169 0.17098
 C80 C 0.64910 -0.19250 0.32144
 C81 C 0.81794 -0.17141 0.19537
 C82 C 0.80831 -0.33839 0.32578
 C83 C 0.70058 0.25081 -0.19796
 H84 H 0.70973 0.22087 -0.19366
 C85 C 0.67395 0.26922 -0.17692
 H86 H 0.66366 0.25338 -0.15613
 C87 C 0.70458 0.30793 -0.22979
 H88 H 0.71672 0.32289 -0.25038
 C89 C 0.67750 0.32737 -0.20953
 H90 H 0.66876 0.35715 -0.21503
 N91 N 0.71557 0.27034 -0.22364
 C92 C 0.73886 0.19442 -0.30177
 H93 H 0.77165 0.19911 -0.30622
 C94 C 0.71495 0.17428 -0.32339
 H95 H 0.72969 0.16378 -0.34455
 C96 C 0.67943 0.20496 -0.26980
 H97 H 0.66545 0.21748 -0.24918
 C98 C 0.65450 0.18470 -0.29056
 H99 H 0.62173 0.18130 -0.28524
 Zn100 Zn 0.75231 0.24232 -0.24989
 N101 N 0.72069 0.20977 -0.27585
 C102 C 0.79364 0.17382 -0.22715
 N103 N 0.78717 0.21268 -0.22337
 C104 C 0.80356 0.23199 -0.19884
 C105 C 0.82694 0.21214 -0.17648
 C106 C 0.81749 0.15281 -0.20547
 C107 C 0.76680 0.29568 -0.29985
 C108 C 0.79067 0.31789 -0.32110
 C109 C 0.85183 0.30004 -0.29209
 C110 C 0.82671 0.27815 -0.27157
 N111 N 0.78504 0.27616 -0.27579
 H112 H 0.78006 0.15906 -0.24677
 H113 H 0.79744 0.26281 -0.19624
 H114 H 0.83813 0.22805 -0.15655
 H115 H 0.82263 0.12199 -0.20900
 H116 H 0.73367 0.29285 -0.30323
 H117 H 0.77428 0.33057 -0.34068
 H118 H 0.88439 0.30157 -0.28642
 H119 H 0.84084 0.26240 -0.25235
 C120 C 0.67198 0.16974 -0.31814
 C121 C 0.66212 0.30811 -0.18243
 C122 C 0.83453 0.32025 -0.31810
 C123 C 0.83420 0.17192 -0.17948
 C124 C 1.19760 -0.22777 -0.19627
 H125 H 1.20214 -0.25847 -0.19117
 C126 C 1.17741 -0.20429 -0.17445
 H127 H 1.16699 -0.21736 -0.15251
 C128 C 1.20852 -0.17335 -0.23019
 H129 H 1.22127 -0.16124 -0.25172
 C130 C 1.18790 -0.14890 -0.20927
 H131 H 1.18434 -0.11835 -0.21540
 N132 N 1.21323 -0.21195 -0.22329
 C133 C 1.23065 -0.28905 -0.30182
 H134 H 1.26338 -0.28394 -0.30620
 C135 C 1.20754 -0.31030 -0.32309
 H136 H 1.22281 -0.32070 -0.34407
 C137 C 1.17110 -0.27977 -0.26971
 H138 H 1.15714 -0.26762 -0.24888
 C139 C 1.14685 -0.30144 -0.29019
 H140 H 1.11434 -0.30616 -0.28462
 Zn141 Zn 1.24600 -0.24404 -0.24948
 N142 N 1.21219 -0.27406 -0.27588
 C143 C 1.27896 -0.31675 -0.22948
 N144 N 1.27801 -0.27781 -0.22380
 C145 C 1.29741 -0.26270 -0.19858
 C146 C 1.31816 -0.28715 -0.17749
 C147 C 1.29977 -0.34221 -0.20920
 C148 C 1.26308 -0.19512 -0.30073
 C149 C 1.28720 -0.17340 -0.32196
 C150 C 1.34732 -0.18680 -0.29015
 C151 C 1.32206 -0.20873 -0.26969
 N152 N 1.28077 -0.21249 -0.27534
 H153 H 1.26317 -0.32827 -0.24954
 H154 H 1.29568 -0.23169 -0.19435
 H155 H 1.33199 -0.27455 -0.15696
 H156 H 1.30034 -0.37304 -0.21432
 H157 H 1.23023 -0.19891 -0.30484
 H158 H 1.27256 -0.16112 -0.34257
 H159 H 1.38005 -0.18389 -0.28508
 H160 H 1.33554 -0.22291 -0.24944
 C161 C 1.16497 -0.31687 -0.31748
 C162 C 1.17261 -0.16410 -0.18063
 C163 C 1.33003 -0.16909 -0.31694
 C164 C 1.31930 -0.32761 -0.18250
 C165 C 0.26071 0.18908 0.70868
 H166 H 0.22728 0.18767 0.71131
 C167 C 0.28088 0.16488 0.68748
 H168 H 0.26266 0.14515 0.67356
 C169 C 0.32473 0.21754 0.72315
 H170 H 0.34156 0.23844 0.73686
 C171 C 0.34622 0.19398 0.70194
 H172 H 0.37966 0.19657 0.69979
 N173 N 0.28274 0.21441 0.72624
 C174 C 0.18992 0.22645 0.79974
 H175 H 0.18193 0.25701 0.79752
 C176 C 0.16880 0.20263 0.82146
 H177 H 0.14519 0.21594 0.83600
 C178 C 0.23275 0.17374 0.78478
 H179 H 0.25815 0.16268 0.77076
 C180 C 0.21316 0.14907 0.80663
 H181 H 0.22306 0.11894 0.80781
 Zn182 Zn 0.25052 0.24511 0.75374
 N183 N 0.22077 0.21158 0.78159
 C184 C 0.17301 0.26647 0.72611
 N185 N 0.21432 0.27467 0.72781
 C186 C 0.23241 0.30132 0.70809
 C187 C 0.20880 0.32125 0.68579
 C188 C 0.14824 0.28555 0.70392
 C189 C 0.31327 0.25902 0.79663
 C190 C 0.33812 0.28015 0.81694
 C191 C 0.30244 0.33894 0.80085
 C192 C 0.27845 0.31667 0.78054
 N193 N 0.28441 0.27744 0.77871
 H194 H 0.15944 0.24416 0.74114
 H195 H 0.26554 0.30638 0.70922
 H196 H 0.22405 0.34176 0.66991
 H197 H 0.11551 0.27848 0.70270
 H198 H 0.31669 0.22769 0.79531
 H199 H 0.36062 0.26479 0.83121
 H200 H 0.29738 0.37011 0.80203
 H201 H 0.25459 0.33065 0.76676
 C202 C 0.18041 0.16315 0.82554
 C203 C 0.32420 0.16707 0.68391
 C204 C 0.33283 0.32066 0.81934
 C205 C 0.16617 0.31323 0.68328
 C206 C 0.78370 0.69022 0.71440
 H207 H 0.75733 0.67539 0.72500
 C208 C 0.80821 0.67092 0.69236
 H209 H 0.80002 0.64137 0.68631
 C210 C 0.82334 0.74797 0.70722
 H211 H 0.82823 0.77838 0.71252
 C212 C 0.84921 0.72954 0.68554
 H213 H 0.87466 0.74589 0.67502
 N214 N 0.79135 0.72818 0.72114
 C215 C 0.67412 0.72246 0.76260
 H216 H 0.66097 0.74218 0.74539
 C217 C 0.64784 0.69936 0.78147
 H218 H 0.61488 0.70087 0.77706
 C219 C 0.73318 0.69692 0.78816
 H220 H 0.76652 0.69707 0.79118
 C221 C 0.70827 0.67367 0.80767
 H222 H 0.72385 0.65724 0.82584
 Zn223 Zn 0.75315 0.75586 0.74635
 N224 N 0.71589 0.72110 0.76656
 C225 C 0.70542 0.77514 0.69455
 N226 N 0.72461 0.79081 0.71962
 C227 C 0.72476 0.83000 0.72422
 C228 C 0.70408 0.85498 0.70353
 C229 C 0.68489 0.79907 0.67304
 C230 C 0.82082 0.77869 0.78486
 C231 C 0.83832 0.79699 0.81063
 C232 C 0.77086 0.82357 0.82337
 C233 C 0.75457 0.80417 0.79781
 N234 N 0.77966 0.78285 0.77884
 H235 H 0.70653 0.74395 0.69112
 H236 H 0.74120 0.84214 0.74371
 H237 H 0.70392 0.88598 0.70801
 H238 H 0.67076 0.78593 0.65285
 H239 H 0.83991 0.76030 0.77027
 H240 H 0.87089 0.79235 0.81547
 H241 H 0.75032 0.84127 0.83747
 H242 H 0.72170 0.80608 0.79299
 C243 C 0.66449 0.67486 0.80518
 C244 C 0.84131 0.69066 0.67724
 C245 C 0.81326 0.81994 0.83031
 C246 C 0.68385 0.83963 0.67742
 C247 C 0.76570 0.21101 0.19939
 H248 H 0.73282 0.21607 0.19627
 C249 C 0.78766 0.18823 0.17799
 H250 H 0.77137 0.17617 0.15830
 C251 C 0.82714 0.22269 0.22787
 H252 H 0.84264 0.23660 0.24703
 C253 C 0.85017 0.19983 0.20727
 H254 H 0.88306 0.19588 0.21131
 N255 N 0.78569 0.22789 0.22362
 C256 C 0.70495 0.25134 0.30273
 H257 H 0.71354 0.28140 0.30659
 C258 C 0.67974 0.23172 0.32450
 H259 H 0.66966 0.24686 0.34531
 C260 C 0.70973 0.19486 0.27154
 H261 H 0.72181 0.18058 0.25098
 C262 C 0.68413 0.17419 0.29258
 H263 H 0.67630 0.14419 0.28770
 Zn264 Zn 0.75541 0.26160 0.25017
 N265 N 0.71951 0.23274 0.27696
 C266 C 0.68263 0.30180 0.23194
 N267 N 0.72339 0.29575 0.22480
 C268 C 0.74038 0.30980 0.19762
 C269 C 0.71568 0.32944 0.17575
 C270 C 0.65698 0.32176 0.21099
 C271 C 0.80944 0.26788 0.29997
 C272 C 0.83515 0.28577 0.32155
 C273 C 0.82647 0.34675 0.29325
 C274 C 0.80051 0.32765 0.27227
 N275 N 0.79252 0.28891 0.27607
 H276 H 0.66952 0.29021 0.25352
 H277 H 0.77270 0.30406 0.19224
 H278 H 0.72949 0.33851 0.15359
 H279 H 0.62463 0.32604 0.21719
 H280 H 0.80217 0.23718 0.30261
 H281 H 0.84697 0.26856 0.34095
 H282 H 0.83268 0.37756 0.28978
 H283 H 0.78653 0.34377 0.25314
 C284 C 0.66903 0.19256 0.31964
 C285 C 0.83062 0.18264 0.18163
 C286 C 0.84388 0.32581 0.31854
 C287 C 0.67310 0.33506 0.18204
 C288 C 0.26900 0.69709 0.20387
 H289 H 0.23606 0.70323 0.20329
 C290 C 0.28647 0.67189 0.18210
 H291 H 0.26658 0.65940 0.16459
 C292 C 0.33480 0.70848 0.22636
 H293 H 0.35353 0.72338 0.24331
 C294 C 0.35356 0.68285 0.20526
 H295 H 0.38665 0.67773 0.20675
 N296 N 0.29321 0.71512 0.22516
 C297 C 0.19933 0.74590 0.29421
 H298 H 0.19697 0.77706 0.29021
 C299 C 0.17437 0.72769 0.31704
 H300 H 0.15203 0.74512 0.32974
 C301 C 0.23173 0.68582 0.28239
 H302 H 0.25500 0.66985 0.26942
 C303 C 0.20819 0.66660 0.30557
 H304 H 0.21404 0.63597 0.31010
 Zn305 Zn 0.26476 0.75151 0.25030
 N306 N 0.22722 0.72483 0.27739
 C307 C 0.19477 0.78382 0.21887
 N308 N 0.23673 0.78516 0.22202
 C309 C 0.26063 0.80813 0.20287
 C310 C 0.24241 0.83206 0.18017
 C311 C 0.17529 0.80655 0.19591
 C312 C 0.32274 0.75994 0.29817
 C313 C 0.34610 0.77953 0.32043
 C314 C 0.32484 0.84055 0.29682
 C315 C 0.30169 0.81967 0.27525
 N316 N 0.30094 0.78009 0.27627
 H317 H 0.17645 0.76407 0.23334
 H318 H 0.29406 0.80780 0.20524
 H319 H 0.26221 0.85083 0.16591
 H320 H 0.14205 0.80377 0.19314
 H321 H 0.32068 0.72843 0.29910
 H322 H 0.36038 0.76152 0.33824
 H323 H 0.32532 0.87183 0.29363
 H324 H 0.28348 0.83546 0.25820
 C325 C 0.17924 0.68759 0.32360
 C326 C 0.32941 0.66454 0.18236
 C327 C 0.34719 0.82097 0.32083
 C328 C 0.19913 0.83122 0.17611
 O329 O 1.06174 0.02306 0.04048
 O330 O 0.92415 -0.03214 0.04619
 O331 O 0.96476 0.06031 0.04061
 O332 O 1.01926 -0.06829 0.04732
 O333 O 0.90947 0.03122 0.02693
 O334 O 1.07491 -0.04296 0.02876
 O335 O 0.95107 -0.08408 0.02994
 O336 O 1.03338 0.07256 0.01993
 C337 C 1.05291 0.05796 0.04219
 C338 C 0.93310 -0.06650 0.05141
 C339 C 0.92802 0.05208 0.04614
 C340 C 1.05629 -0.06030 0.05080
 O341 O 1.06435 -0.02540 -0.03437
 O342 O 0.91821 0.00479 -0.03341
 O343 O 1.00562 0.05907 -0.03818
 O344 O 0.97797 -0.07739 -0.03027
 O345 O 0.91826 -0.06017 -0.01410
 O346 O 1.06566 0.04189 -0.02243
 O347 O 1.04767 -0.07810 -0.01179
 O348 O 0.93563 0.06085 -0.01847
 Co349 Co 1.05957 -0.00152 0.00324
 Co350 Co 0.92452 -0.01348 0.00627
 Co351 Co 0.98550 0.05636 0.00137
 Co352 Co 0.99825 -0.07029 0.00840
 O353 O 0.99196 -0.00718 0.00480
 C354 C 1.06152 -0.06118 -0.03560
 C355 C 0.92029 0.04009 -0.03905
 C356 C 1.04346 0.05750 -0.04303
 C357 C 0.94031 -0.07532 -0.03490
 O358 O 1.08758 0.54422 0.52132
 O359 O 0.92386 0.45765 0.52051
 O360 O 0.96208 0.57554 0.52453
 O361 O 1.04923 0.42575 0.52632
 O362 O 0.93590 0.52199 0.54094
 O363 O 1.07642 0.47944 0.54065
 O364 O 0.97840 0.43418 0.53999
 O365 O 1.03119 0.56561 0.53983
 C366 C 1.06879 0.56089 0.54298
 C367 C 0.94074 0.43978 0.54250
 C368 C 0.94343 0.55672 0.54572
 C369 C 1.06903 0.44464 0.54630
 O370 O 1.08450 0.45222 0.48244
 O371 O 0.92919 0.55094 0.48148
 O372 O 1.05675 0.57267 0.47817
 O373 O 0.95718 0.43002 0.47716
 O374 O 0.93452 0.48588 0.46227
 O375 O 1.07829 0.51804 0.46175
 O376 O 1.02807 0.43322 0.46351
 O377 O 0.98710 0.56793 0.46253
 Co378 Co 1.07427 0.49884 0.50139
 Co379 Co 0.93828 0.50393 0.50144
 Co380 Co 1.00895 0.56399 0.50125
 Co381 Co 1.00352 0.43736 0.50176
 O382 O 1.00627 0.50095 0.50149
 C383 C 1.06592 0.43675 0.46045
 C384 C 0.94930 0.56562 0.45921
 C385 C 1.07364 0.55337 0.45695
 C386 C 0.93915 0.45079 0.45698
 O387 O 0.58238 0.04347 0.51835
 O388 O 0.41555 -0.03019 0.51982
 O389 O 0.45943 0.08519 0.51736
 O390 O 0.53859 -0.07209 0.51915
 O391 O 0.43023 0.03439 0.53566
 O392 O 0.56692 -0.02088 0.53614
 O393 O 0.47017 -0.05778 0.53663
 O394 O 0.52790 0.07072 0.53559
 C395 C 0.56455 0.06162 0.53969
 C396 C 0.43339 -0.04918 0.54096
 C397 C 0.43984 0.06887 0.53919
 C398 C 0.55815 -0.05560 0.54025
 O399 O 0.57262 -0.04558 0.47587
 O400 O 0.42610 0.05893 0.47427
 O401 O 0.55586 0.07573 0.47507
 O402 O 0.44328 -0.06230 0.47683
 O403 O 0.42643 -0.00712 0.45833
 O404 O 0.57260 0.02024 0.45795
 O405 O 0.51374 -0.06191 0.45860
 O406 O 0.48607 0.07562 0.45758
 Co407 Co 0.56652 0.00002 0.49707
 Co408 Co 0.43173 0.01329 0.49702
 Co409 Co 0.50659 0.07005 0.49652
 Co410 Co 0.49224 -0.05677 0.49766
 O411 O 0.49925 0.00666 0.49703
 C412 C 0.55168 -0.06001 0.45456
 C413 C 0.44824 0.07454 0.45337
 C414 C 0.57123 0.05584 0.45368
 C415 C 0.42884 -0.04267 0.45473
 O416 O 0.57776 0.51544 0.03115
 O417 O 0.43292 0.48520 0.03720
 O418 O 0.49125 0.56864 0.03460
 O419 O 0.52409 0.43232 0.03360
 O420 O 0.43053 0.55167 0.02111
 O421 O 0.57991 0.45038 0.01188
 O422 O 0.45208 0.43003 0.02005
 O423 O 0.55975 0.57109 0.01435
 C424 C 0.57562 0.55080 0.03552
 C425 C 0.43544 0.44958 0.04130
 C426 C 0.45378 0.56714 0.04072
 C427 C 0.56205 0.43641 0.03539
 O428 O 0.56952 0.47818 -0.04682
 O429 O 0.43147 0.52848 -0.04042
 O430 O 0.52839 0.56642 -0.04523
 O431 O 0.47371 0.43607 -0.04176
 O432 O 0.41967 0.46251 -0.02258
 O433 O 0.58466 0.54169 -0.02970
 O434 O 0.54401 0.42463 -0.02967
 O435 O 0.46104 0.57912 -0.02375
 Co436 Co 0.57093 0.49701 -0.00790
 Co437 Co 0.43595 0.50652 -0.00163
 Co438 Co 0.50962 0.56466 -0.00511
 Co439 Co 0.49916 0.43757 -0.00435
 O440 O 0.50379 0.50139 -0.00477
 C441 C 0.56265 0.44329 -0.05103
 C442 C 0.44066 0.56314 -0.04463
 C443 C 0.56522 0.55921 -0.05067
 C444 C 0.43636 0.44345 -0.04406
 C445 C 1.16097 0.10136 0.15565
 C446 C 1.14928 0.14081 0.15726
 C447 C 1.11859 0.15513 0.13692
 C448 C 1.10087 0.13073 0.11454
 C449 C 1.11348 0.09130 0.11274
 C450 C 1.14313 0.07680 0.13369
 C451 C 1.09693 0.06730 0.08959
 C452 C 1.06843 0.08238 0.06783
 C453 C 1.05551 0.12141 0.07022
 C454 C 1.07146 0.14533 0.09342
 H455 H 1.10963 0.18558 0.13773
 H456 H 1.15303 0.04662 0.13276
 H457 H 1.10702 0.03721 0.08805
 H458 H 1.06130 0.17541 0.09453
 H459 H 1.18412 0.08953 0.17136
 H460 H 1.03326 0.13359 0.05393
 C461 C 1.09838 0.67206 0.65346
 C462 C 1.13976 0.66129 0.65951
 C463 C 1.15754 0.63059 0.64237
 C464 C 1.13517 0.61220 0.61874
 C465 C 1.09383 0.62364 0.61268
 C466 C 1.07555 0.65321 0.63046
 C467 C 1.07184 0.60596 0.58847
 C468 C 1.09106 0.57772 0.56966
 C469 C 1.13206 0.56636 0.57603
 C470 C 1.15380 0.58318 0.60055
 H471 H 1.18903 0.62124 0.64711
 H472 H 1.04393 0.66244 0.62606
 H473 H 1.04022 0.61500 0.58370
 H474 H 1.18547 0.57404 0.60490
 H475 H 1.08392 0.69587 0.66586
 H476 H 1.14736 0.54449 0.56196
 C477 C 0.60536 0.16643 0.65191
 C478 C 0.64519 0.15137 0.65803
 C479 C 0.65973 0.11968 0.64048
 C480 C 0.63543 0.10403 0.61663
 C481 C 0.59566 0.11971 0.61052
 C482 C 0.58075 0.15060 0.62853
 C483 C 0.57191 0.10491 0.58600
 C484 C 0.58788 0.07522 0.56702
 C485 C 0.62718 0.05943 0.57359
 C486 C 0.65063 0.07350 0.59832
 H487 H 0.69007 0.10736 0.64519
 H488 H 0.55041 0.16309 0.62410
 H489 H 0.54164 0.11730 0.58110
 H490 H 0.68097 0.06103 0.60272
 H491 H 0.59355 0.19122 0.66463
 H492 H 0.63997 0.03633 0.55939
 C493 C 0.65040 0.68175 0.11510
 C494 C 0.65582 0.65989 0.14295
 C495 C 0.64395 0.62031 0.14366
 C496 C 0.62730 0.60290 0.11703
 C497 C 0.62130 0.62552 0.08950
 C498 C 0.63293 0.66486 0.08879
 C499 C 0.60408 0.60836 0.06304
 C500 C 0.59375 0.56858 0.06342
 C501 C 0.60039 0.54608 0.09067
 C502 C 0.61670 0.56319 0.11739
 H503 H 0.64731 0.60304 0.16494
 H504 H 0.62898 0.68249 0.06774
 H505 H 0.59925 0.62585 0.04201
 H506 H 0.62121 0.54535 0.13825
 H507 H 0.66020 0.71192 0.11337
 H508 H 0.59239 0.51538 0.09145
 C509 C 0.81822 -0.10882 0.16372
 C510 C 0.83804 -0.14389 0.17247
 C511 C 0.87553 -0.15392 0.15737
 C512 C 0.89147 -0.13081 0.13267
 C513 C 0.87072 -0.09616 0.12363
 C514 C 0.83464 -0.08500 0.13977
 C515 C 0.88552 -0.07410 0.09785
 C516 C 0.91987 -0.08714 0.08036
 C517 C 0.94071 -0.12121 0.08990
 C518 C 0.92694 -0.14262 0.11605
 H519 H 0.89179 -0.18032 0.16420
 H520 H 0.81826 -0.05860 0.13312
 H521 H 0.86926 -0.04785 0.09057
 H522 H 0.94329 -0.16904 0.12271
 H523 H 0.78904 -0.10043 0.17447
 H524 H 0.96755 -0.13148 0.07693
 C525 C 0.90241 0.33291 0.65761
 C526 C 0.85904 0.34017 0.66034
 C527 C 0.84213 0.36834 0.63929
 C528 C 0.86681 0.38708 0.61624
 C529 C 0.90953 0.37852 0.61386
 C530 C 0.92703 0.35175 0.63486
 C531 C 0.93394 0.39643 0.59022
 C532 C 0.91592 0.42260 0.56863
 C533 C 0.87347 0.43155 0.57164
 C534 C 0.84919 0.41409 0.59527
 H535 H 0.81003 0.37728 0.64103
 H536 H 0.95978 0.34463 0.63326
 H537 H 0.96669 0.38938 0.58824
 H538 H 0.81647 0.42129 0.59681
 H539 H 0.91793 0.31094 0.67155
 H540 H 0.85889 0.45187 0.55550
 C541 C 0.39684 -0.16119 0.65260
 C542 C 0.35655 -0.14781 0.65968
 C543 C 0.34097 -0.11524 0.64307
 C544 C 0.36444 -0.09747 0.61893
 C545 C 0.40456 -0.11167 0.61177
 C546 C 0.42072 -0.14312 0.62905
 C547 C 0.42743 -0.09489 0.58690
 C548 C 0.41034 -0.06469 0.56851
 C549 C 0.37068 -0.05034 0.57609
 C550 C 0.34804 -0.06639 0.60125
 H551 H 0.31034 -0.10402 0.64858
 H552 H 0.45141 -0.15442 0.62380
 H553 H 0.45799 -0.10621 0.58127
 H554 H 0.31737 -0.05505 0.60647
 H555 H 0.40952 -0.18649 0.66457
 H556 H 0.35708 -0.02685 0.56240
 C557 C 0.38010 0.31498 0.13139
 C558 C 0.35329 0.33706 0.15036
 C559 C 0.34991 0.37742 0.14464
 C560 C 0.37232 0.39538 0.11997
 C561 C 0.39840 0.37275 0.10053
 C562 C 0.40237 0.33263 0.10667
 C563 C 0.41956 0.39056 0.07508
 C564 C 0.41506 0.43076 0.06892
 C565 C 0.38990 0.45305 0.08900
 C566 C 0.36866 0.43554 0.11419
 H567 H 0.32975 0.39483 0.15937
 H568 H 0.42228 0.31480 0.09211
 H569 H 0.43914 0.37310 0.05996
 H570 H 0.34902 0.45338 0.12894
 H571 H 0.38298 0.28379 0.13515
 H572 H 0.38600 0.48406 0.08493
 C573 C 0.88998 0.16873 -0.13880
 C574 C 0.85758 0.15026 -0.15483
 C575 C 0.84624 0.11193 -0.14585
 C576 C 0.86575 0.09312 -0.12051
 C577 C 0.89657 0.11303 -0.10365
 C578 C 0.90902 0.15046 -0.11333
 C579 C 0.91408 0.09542 -0.07709
 C580 C 0.90222 0.05763 -0.06757
 C581 C 0.87282 0.03730 -0.08516
 C582 C 0.85437 0.05508 -0.11125
 H583 H 0.82126 0.09722 -0.15773
 H584 H 0.93320 0.16579 -0.10101
 H585 H 0.93677 0.11128 -0.06367
 H586 H 0.83103 0.03922 -0.12403
 H587 H 0.90040 0.19767 -0.14571
 H588 H 0.86336 0.00804 -0.07829
 C589 C 0.80475 0.62930 0.37904
 C590 C 0.82832 0.64041 0.35237
 C591 C 0.87129 0.63267 0.35199
 C592 C 0.89048 0.61519 0.37803
 C593 C 0.86636 0.60429 0.40461
 C594 C 0.82350 0.61114 0.40474
 C595 C 0.88560 0.58742 0.43085
 C596 C 0.92886 0.58210 0.43119
 C597 C 0.95259 0.59290 0.40461
 C598 C 0.93354 0.60905 0.37818
 H599 H 0.88993 0.64043 0.33155
 H600 H 0.80457 0.60321 0.42499
 H601 H 0.86702 0.57920 0.45124
 H602 H 0.95255 0.61722 0.35803
 H603 H 0.77185 0.63555 0.38051
 H604 H 0.98597 0.58883 0.40426
 C605 C 0.31278 0.11681 0.35693
 C606 C 0.33283 0.14937 0.34243
 C607 C 0.37339 0.15860 0.35275
 C608 C 0.39251 0.13694 0.37674
 C609 C 0.37102 0.10576 0.39153
 C610 C 0.33143 0.09572 0.38123
 C611 C 0.38941 0.08527 0.41649
 C612 C 0.42956 0.09500 0.42634
 C613 C 0.45138 0.12510 0.41066
 C614 C 0.43292 0.14609 0.38623
 H615 H 0.39145 0.18148 0.34137
 H616 H 0.31451 0.07179 0.39230
 H617 H 0.37256 0.06176 0.42822
 H618 H 0.45012 0.16968 0.37496
 H619 H 0.28133 0.10862 0.35132
 H620 H 0.48236 0.13311 0.41783
 C621 C 0.32200 0.60870 -0.15243
 C622 C 0.33939 0.64557 -0.15944
 C623 C 0.37521 0.65722 -0.14342
 C624 C 0.39248 0.63317 -0.12009
 C625 C 0.37447 0.59639 -0.11305
 C626 C 0.33952 0.58426 -0.12964
 C627 C 0.39109 0.57284 -0.08905
 C628 C 0.42479 0.58616 -0.07145
 C629 C 0.44268 0.62260 -0.07891
 C630 C 0.42695 0.64572 -0.10319
 H631 H 0.38950 0.68517 -0.14886
 H632 H 0.32517 0.55625 -0.12449
 H633 H 0.37700 0.54482 -0.08342
 H634 H 0.44123 0.67378 -0.10831
 H635 H 0.29409 0.59907 -0.16396
 H636 H 0.46882 0.63337 -0.06579
 C637 C 1.16791 -0.09978 -0.15290
 C638 C 1.15331 -0.13815 -0.15684
 C639 C 1.12132 -0.15213 -0.13696
 C640 C 1.10544 -0.12898 -0.11283
 C641 C 1.12059 -0.09064 -0.10894
 C642 C 1.15146 -0.07616 -0.12939
 C643 C 1.10532 -0.06787 -0.08423
 C644 C 1.07611 -0.08357 -0.06283
 C645 C 1.06116 -0.12164 -0.06708
 C646 C 1.07531 -0.14398 -0.09204
 H647 H 1.10900 -0.18125 -0.13996
 H648 H 1.16363 -0.04692 -0.12672
 H649 H 1.11708 -0.03855 -0.08106
 H650 H 1.06330 -0.17328 -0.09469
 H651 H 1.19294 -0.08824 -0.16741
 H652 H 1.03833 -0.13419 -0.05106
 C653 C 1.09227 0.33688 0.34196
 C654 C 1.13511 0.34372 0.33808
 C655 C 1.15509 0.36948 0.35840
 C656 C 1.13288 0.38721 0.38287
 C657 C 1.08991 0.37973 0.38676
 C658 C 1.06982 0.35489 0.36594
 C659 C 1.06797 0.39657 0.41177
 C660 C 1.08857 0.42029 0.43332
 C661 C 1.13119 0.42785 0.42900
 C662 C 1.15310 0.41161 0.40395
 H663 H 1.18821 0.37459 0.35589
 H664 H 1.03688 0.34889 0.36850
 H665 H 1.03509 0.39056 0.41480
 H666 H 1.18600 0.41772 0.40131
 H667 H 1.07616 0.31740 0.32644
 H668 H 1.14768 0.44629 0.44509
 C669 C 0.58172 -0.18058 0.35044
 C670 C 0.62269 -0.16917 0.34292
 C671 C 0.63918 -0.13580 0.35695
 C672 C 0.61636 -0.11556 0.37950
 C673 C 0.57550 -0.12760 0.38737
 C674 C 0.55818 -0.15974 0.37227
 C675 C 0.55337 -0.10812 0.41095
 C676 C 0.57241 -0.07788 0.42747
 C677 C 0.61286 -0.06604 0.41920
 C678 C 0.63443 -0.08429 0.39509
 H679 H 0.67024 -0.12589 0.35081
 H680 H 0.52693 -0.16946 0.37802
 H681 H 0.52227 -0.11762 0.41741
 H682 H 0.66575 -0.07478 0.38936
 H683 H 0.56822 -0.20629 0.34018
 H684 H 0.62809 -0.04291 0.43173
 C685 C 0.60458 0.30907 -0.14189
 C686 C 0.63585 0.32890 -0.15913
 C687 C 0.64354 0.36834 -0.15275
 C688 C 0.62151 0.38729 -0.12896
 C689 C 0.59135 0.36670 -0.11093
 C690 C 0.58263 0.32775 -0.11797
 C691 C 0.57123 0.38519 -0.08580
 C692 C 0.58090 0.42405 -0.07869
 C693 C 0.60978 0.44454 -0.09766
 C694 C 0.63001 0.42633 -0.12242
 H695 H 0.66784 0.38400 -0.16541
 H696 H 0.55927 0.31158 -0.10471
 H697 H 0.54868 0.36924 -0.07154
 H698 H 0.65281 0.44263 -0.13615
 H699 H 0.59726 0.27894 -0.14671
 H700 H 0.61763 0.47455 -0.09287
 C701 C 1.18196 0.10760 -0.13701
 C702 C 1.16050 0.13879 -0.15165
 C703 C 1.11880 0.14540 -0.14253
 C704 C 1.09955 0.12230 -0.11918
 C705 C 1.12209 0.09228 -0.10406
 C706 C 1.16309 0.08491 -0.11340
 C707 C 1.10342 0.07051 -0.07958
 C708 C 1.06223 0.07811 -0.07032
 C709 C 1.03959 0.10702 -0.08640
 C710 C 1.05810 0.12903 -0.11050
 H711 H 1.10058 0.16777 -0.15413
 H712 H 1.18085 0.06194 -0.10211
 H713 H 1.12100 0.04797 -0.06755
 H714 H 1.04017 0.15172 -0.12202
 H715 H 1.21423 0.10173 -0.14239
 H716 H 1.00789 0.11351 -0.07970
 C717 C 1.14631 0.68955 0.37732
 C718 C 1.15626 0.66837 0.35021
 C719 C 1.14578 0.62842 0.34945
 C720 C 1.12699 0.60985 0.37552
 C721 C 1.11712 0.63168 0.40240
 C722 C 1.12654 0.67153 0.40293
 C723 C 1.09880 0.61317 0.42860
 C724 C 1.09130 0.57279 0.42873
 C725 C 1.10132 0.55120 0.40196
 C726 C 1.11862 0.56966 0.37544
 H727 H 1.15246 0.61159 0.32872
 H728 H 1.11953 0.68861 0.42348
 H729 H 1.09139 0.63004 0.44920
 H730 H 1.12606 0.55240 0.35508
 H731 H 1.15476 0.71997 0.37923
 H732 H 1.09563 0.52006 0.40153
 C733 C 0.61189 0.18982 0.36012
 C734 C 0.64372 0.17084 0.34343
 C735 C 0.65259 0.13157 0.35071
 C736 C 0.63107 0.11203 0.37499
 C737 C 0.60042 0.13202 0.39243
 C738 C 0.59057 0.17066 0.38447
 C739 C 0.58068 0.11327 0.41788
 C740 C 0.59071 0.07457 0.42592
 C741 C 0.62008 0.05444 0.40777
 C742 C 0.64032 0.07309 0.38262
 H743 H 0.67725 0.11657 0.33833
 H744 H 0.56673 0.18621 0.39732
 H745 H 0.55781 0.12892 0.43164
 H746 H 0.66356 0.05724 0.36940
 H747 H 0.60365 0.21972 0.35454
 H748 H 0.62823 0.02459 0.41353
 C749 C 0.59724 0.66585 -0.16672
 C750 C 0.63858 0.65394 -0.17307
 C751 C 0.65416 0.62184 -0.15561
 C752 C 0.63106 0.60472 -0.13105
 C753 C 0.59057 0.61814 -0.12435
 C754 C 0.57359 0.64803 -0.14284
 C755 C 0.56830 0.60221 -0.09872
 C756 C 0.58670 0.57384 -0.07921
 C757 C 0.62677 0.56029 -0.08647
 C758 C 0.64855 0.57520 -0.11238
 H759 H 0.68440 0.60968 -0.16080
 H760 H 0.54251 0.65870 -0.13806
 H761 H 0.53740 0.61287 -0.09333
 H762 H 0.67959 0.56449 -0.11722
 H763 H 0.58339 0.69053 -0.17866
 H764 H 0.64155 0.53837 -0.07186
 C765 C 0.80681 -0.15618 -0.11437
 C766 C 0.83091 -0.16058 -0.14183
 C767 C 0.87196 -0.14637 -0.14241
 C768 C 0.88872 -0.12846 -0.11604
 C769 C 0.86390 -0.12367 -0.08885
 C770 C 0.82300 -0.13759 -0.08829
 C771 C 0.88057 -0.10551 -0.06255
 C772 C 0.92215 -0.09315 -0.06279
 C773 C 0.94671 -0.09834 -0.08981
 C774 C 0.93003 -0.11552 -0.11633
 H775 H 0.89087 -0.14892 -0.16342
 H776 H 0.80367 -0.13456 -0.06753
 H777 H 0.86154 -0.10182 -0.04170
 H778 H 0.94956 -0.11901 -0.13693
 H779 H 0.77549 -0.16758 -0.11277
 H780 H 0.97879 -0.08876 -0.09050
 C781 C 0.90240 0.32610 0.35727
 C782 C 0.86915 0.34563 0.34266
 C783 C 0.85863 0.38333 0.35259
 C784 C 0.87986 0.40064 0.37736
 C785 C 0.91202 0.38005 0.39268
 C786 C 0.92352 0.34307 0.38207
 C787 C 0.93164 0.39655 0.41861
 C788 C 0.91984 0.43363 0.42910
 C789 C 0.88880 0.45437 0.41297
 C790 C 0.86881 0.43794 0.38749
 H791 H 0.83288 0.39871 0.34191
 H792 H 0.94850 0.32707 0.39321
 H793 H 0.95587 0.38053 0.43067
 H794 H 0.84442 0.45426 0.37590
 H795 H 0.91190 0.29743 0.34969
 H796 H 0.87929 0.48309 0.42048
 C797 C 0.39756 -0.17749 0.36323
 C798 C 0.36753 -0.15903 0.34388
 C799 C 0.35863 -0.11919 0.35011
 C800 C 0.37731 -0.09961 0.37499
 C801 C 0.40560 -0.11948 0.39445
 C802 C 0.41601 -0.15810 0.38805
 C803 C 0.42264 -0.10056 0.42026
 C804 C 0.41196 -0.06174 0.42678
 C805 C 0.38475 -0.04171 0.40671
 C806 C 0.36735 -0.06056 0.38115
 H807 H 0.33519 -0.10327 0.33733
 H808 H 0.43852 -0.17350 0.40233
 H809 H 0.44400 -0.11615 0.43540
 H810 H 0.34582 -0.04468 0.36637
 H811 H 0.40850 -0.20673 0.35908
 H812 H 0.37622 -0.01173 0.41116
 C813 C 0.40117 0.33553 -0.15581
 C814 C 0.35843 0.34323 -0.15846
 C815 C 0.34016 0.37132 -0.13892
 C816 C 0.36400 0.39052 -0.11639
 C817 C 0.40678 0.38199 -0.11370
 C818 C 0.42514 0.35482 -0.13376
 C819 C 0.43036 0.40014 -0.09057
 C820 C 0.41171 0.42637 -0.06962
 C821 C 0.36930 0.43513 -0.07279
 C822 C 0.34568 0.41746 -0.09603
 H823 H 0.30717 0.37724 -0.14052
 H824 H 0.45793 0.34805 -0.13210
 H825 H 0.46307 0.39313 -0.08846
 H826 H 0.31296 0.42445 -0.09776
 H827 H 0.41607 0.31443 -0.17084
 H828 H 0.35426 0.45540 -0.05711
 C829 C 1.20050 -0.13829 0.12204
 C830 C 1.17926 -0.14542 0.15059
 C831 C 1.13846 -0.13119 0.15413
 C832 C 1.11878 -0.11158 0.12931
 C833 C 1.14060 -0.10462 0.10086
 C834 C 1.18157 -0.11770 0.09762
 C835 C 1.12062 -0.08590 0.07576
 C836 C 1.07857 -0.07554 0.07831
 C837 C 1.05712 -0.08241 0.10668
 C838 C 1.07722 -0.09977 0.13215
 H839 H 1.12171 -0.13568 0.17603
 H840 H 1.19862 -0.11296 0.07587
 H841 H 1.13718 -0.08111 0.05378
 H842 H 1.05995 -0.10496 0.15374
 H843 H 1.23150 -0.14948 0.11811
 H844 H 1.02464 -0.07459 0.10905
 C845 C 1.11331 0.31116 0.64031
 C846 C 1.14128 0.33265 0.65840
 C847 C 1.14694 0.37254 0.65162
 C848 C 1.12612 0.39049 0.62657
 C849 C 1.09899 0.36843 0.60789
 C850 C 1.09238 0.32887 0.61527
 C851 C 1.07963 0.38619 0.58191
 C852 C 1.08718 0.42572 0.57445
 C853 C 1.11334 0.44746 0.59386
 C854 C 1.13263 0.43004 0.61958
 H855 H 1.16792 0.38957 0.66570
 H856 H 1.07161 0.31146 0.60134
 H857 H 1.05925 0.36919 0.56733
 H858 H 1.15311 0.44743 0.63376
 H859 H 1.10860 0.28031 0.64492
 H860 H 1.11951 0.47800 0.58889
 C861 C 0.67951 -0.09738 0.64666
 C862 C 0.66281 -0.13430 0.65441
 C863 C 0.62659 -0.14671 0.63928
 C864 C 0.60830 -0.12340 0.61598
 C865 C 0.62562 -0.08655 0.60823
 C866 C 0.66089 -0.07361 0.62399
 C867 C 0.60808 -0.06377 0.58425
 C868 C 0.57425 -0.07793 0.56725
 C869 C 0.55701 -0.11441 0.57532
 C870 C 0.57359 -0.13679 0.59972
 H871 H 0.61279 -0.17470 0.64536
 H872 H 0.67467 -0.04551 0.61824
 H873 H 0.62171 -0.03572 0.57806
 H874 H 0.55990 -0.16495 0.60538
 H875 H 0.70768 -0.08720 0.65751
 H876 H 0.53084 -0.12577 0.56256
 C877 C 0.60442 0.33893 0.15434
 C878 C 0.64535 0.35269 0.15792
 C879 C 0.66012 0.38216 0.13740
 C880 C 0.63516 0.39660 0.11311
 C881 C 0.59427 0.38229 0.10958
 C882 C 0.57906 0.35378 0.13059
 C883 C 0.56973 0.39608 0.08468
 C884 C 0.58615 0.42317 0.06282
 C885 C 0.62671 0.43739 0.06681
 C886 C 0.65083 0.42453 0.09185
 H887 H 0.69124 0.39364 0.14006
 H888 H 0.54789 0.34230 0.12821
 H889 H 0.53849 0.38492 0.08178
 H890 H 0.68205 0.43591 0.09423
 H891 H 0.59224 0.31581 0.16935
 H892 H 0.63989 0.45860 0.05048
 C893 C 0.89546 0.17284 0.14954
 C894 C 0.85520 0.16043 0.15820
 C895 C 0.83833 0.12742 0.14374
 C896 C 0.86092 0.10769 0.12055
 C897 C 0.90122 0.12067 0.11203
 C898 C 0.91832 0.15303 0.12684
 C899 C 0.92344 0.10162 0.08836
 C900 C 0.90560 0.07018 0.07254
 C901 C 0.86573 0.05713 0.08142
 C902 C 0.84366 0.07558 0.10536
 H903 H 0.80760 0.11712 0.15042
 H904 H 0.94911 0.16347 0.12046
 H905 H 0.95417 0.11198 0.08169
 H906 H 0.81286 0.06513 0.11164
 H907 H 0.90905 0.19852 0.15979
 H908 H 0.85151 0.03277 0.06969
 C909 C 0.88028 0.69377 0.62578
 C910 C 0.86553 0.67163 0.65166
 C911 C 0.87214 0.63098 0.65201
 C912 C 0.89142 0.61267 0.62649
 C913 C 0.90573 0.63533 0.60064
 C914 C 0.90054 0.67588 0.60073
 C915 C 0.92395 0.61698 0.57474
 C916 C 0.92691 0.57610 0.57390
 C917 C 0.91288 0.55382 0.59982
 C918 C 0.89565 0.57197 0.62602
 H919 H 0.86179 0.61339 0.67189
 H920 H 0.91109 0.69368 0.58102
 H921 H 0.93458 0.63444 0.55483
 H922 H 0.88484 0.55410 0.64562
 H923 H 0.87508 0.72492 0.62429
 H924 H 0.91507 0.52228 0.59977
 C925 C 0.33413 0.10285 0.65754
 C926 C 0.34569 0.14217 0.66070
 C927 C 0.37614 0.15808 0.64042
 C928 C 0.39360 0.13550 0.61649
 C929 C 0.38098 0.09626 0.61307
 C930 C 0.35173 0.08005 0.63403
 C931 C 0.39703 0.07421 0.58829
 C932 C 0.42504 0.09108 0.56653
 C933 C 0.43809 0.12982 0.57057
 C934 C 0.42262 0.15180 0.59538
 H935 H 0.38499 0.18846 0.64243
 H936 H 0.34186 0.04998 0.63188
 H937 H 0.38687 0.04430 0.58549
 H938 H 0.43279 0.18175 0.59771
 H939 H 0.31114 0.08980 0.67317
 H940 H 0.46000 0.14333 0.55431
 C941 C 0.32662 0.60829 0.14501
 C942 C 0.34874 0.63970 0.15778
 C943 C 0.38851 0.64857 0.14561
 C944 C 0.40526 0.62738 0.12060
 C945 C 0.38185 0.59717 0.10707
 C946 C 0.34284 0.58747 0.11978
 C947 C 0.39768 0.57749 0.08089
 C948 C 0.43711 0.58701 0.06860
 C949 C 0.46074 0.61614 0.08298
 C950 C 0.44481 0.63640 0.10853
 H951 H 0.40597 0.67283 0.15476
 H952 H 0.32473 0.56397 0.11007
 H953 H 0.37941 0.55486 0.07010
 H954 H 0.46333 0.65927 0.11874
 H955 H 0.29646 0.59991 0.15433
 H956 H 0.49130 0.62389 0.07399
   
