data_POSCAR
  _audit_creation_date              2014-09-24
  _audit_creation_method            'ToBaCCo'
  _symmetry_space_group_name_H-M    'P1'
  _symmetry_Int_Tables_number       1
  _symmetry_cell_setting            triclinic
  loop_
  _symmetry_equiv_pos_as_xyz
 x,y,z
_cell_length_a 50.6545
_cell_length_b 46.3198
_cell_length_c 21.9318
_cell_angle_alpha 89.931200
_cell_angle_beta 90.039200
_cell_angle_gamma 116.884900
loop_
  _atom_site_label
  _atom_site_type_symbol
  _atom_site_fract_x
  _atom_site_fract_y
  _atom_site_fract_z
C1 C 0.50944 0.99392 0.47076
 C2 C 0.51168 0.99275 0.53241
 C3 C 0.49568 0.96203 0.56672
 C4 C 0.53035 1.02209 0.56833
 C5 C 0.52170 1.02515 0.43731
 C6 C 0.49498 0.96401 0.43365
 C7 C 0.46482 0.94435 0.56285
 C8 C 0.44977 0.91566 0.59593
 C9 C 0.46541 0.90395 0.63391
 C10 C 0.49649 0.92194 0.63695
 C11 C 0.51137 0.95074 0.60430
 C12 C 0.51792 1.03172 0.61646
 C13 C 0.53536 1.05927 0.65061
 C14 C 0.56567 1.07752 0.63747
 C15 C 0.57820 1.06734 0.59028
 C16 C 0.56067 1.03995 0.55577
 C17 C 0.54182 1.03075 0.38953
 C18 C 0.55303 1.05977 0.35688
 C19 C 0.54411 1.08366 0.37122
 C20 C 0.52353 1.07773 0.41828
 C21 C 0.51251 1.04878 0.45131
 C22 C 0.50497 0.94028 0.43614
 C23 C 0.49203 0.91279 0.39926
 C24 C 0.46876 0.90842 0.35961
 C25 C 0.45895 0.93238 0.35681
 C26 C 0.47205 0.95997 0.39339
 H27 H 0.45233 0.95291 0.53434
 H28 H 0.42605 0.90307 0.59050
 H29 H 0.50949 0.91395 0.66529
 H30 H 0.53523 0.96411 0.60790
 H31 H 0.49464 1.01797 0.62731
 H32 H 0.52518 1.06581 0.68793
 H33 H 0.57078 1.03251 0.51952
 H34 H 0.54885 1.01260 0.37757
 H35 H 0.56810 1.06305 0.31960
 H36 H 0.51604 1.09558 0.42962
 H37 H 0.49655 1.04462 0.48729
 H38 H 0.52309 0.94331 0.46599
 H39 H 0.50022 0.89489 0.40164
 H40 H 0.44174 0.93037 0.32539
 H41 H 0.46435 0.97826 0.39023
 H42 H 0.60156 1.08076 0.57984
 C43 C -0.00053 0.52958 0.46779
 C44 C -0.00045 0.53015 0.52988
 C45 C 0.02748 0.54507 0.56551
 C46 C -0.02833 0.51586 0.56573
 C47 C -0.02852 0.51516 0.43244
 C48 C 0.02728 0.54337 0.43169
 C49 C 0.03310 0.52652 0.60942
 C50 C 0.05925 0.53990 0.64329
 C51 C 0.08038 0.57223 0.63383
 C52 C 0.07433 0.59102 0.59097
 C53 C 0.04810 0.57759 0.55711
 C54 C -0.04889 0.48317 0.55946
 C55 C -0.07502 0.47022 0.59368
 C56 C -0.08082 0.48973 0.63553
 C57 C -0.06004 0.52235 0.64173
 C58 C -0.03402 0.53524 0.60747
 C59 C -0.04939 0.52710 0.43743
 C60 C -0.07572 0.51299 0.40400
 C61 C -0.08181 0.48660 0.36490
 C62 C -0.06037 0.47514 0.35949
 C63 C -0.03404 0.48942 0.39272
 C64 C 0.03185 0.56727 0.38799
 C65 C 0.05789 0.58079 0.35381
 C66 C 0.07980 0.57048 0.36202
 C67 C 0.07511 0.54630 0.40573
 C68 C 0.04897 0.53273 0.43991
 H69 H 0.01722 0.50153 0.61723
 H70 H 0.06245 0.52493 0.67743
 H71 H 0.09001 0.61611 0.58349
 H72 H 0.04385 0.59254 0.52442
 H73 H -0.04469 0.46770 0.52804
 H74 H -0.09050 0.44513 0.58659
 H75 H -0.01837 0.56049 0.61313
 H76 H -0.04527 0.54734 0.46719
 H77 H -0.09146 0.52270 0.40907
 H78 H -0.06320 0.45554 0.32943
 H79 H -0.01799 0.48013 0.38789
 H80 H 0.01535 0.57573 0.38083
 H81 H 0.06087 0.59935 0.32060
 H82 H 0.09151 0.53794 0.41440
 H83 H 0.04567 0.51400 0.47294
 H84 H -0.06389 0.53796 0.67347
 C85 C 0.48833 0.48095 0.47097
 C86 C 0.49027 0.48506 0.53251
 C87 C 0.47730 0.50371 0.56487
 C88 C 0.50530 0.47086 0.57158
 C89 C 0.50299 0.46390 0.43890
 C90 C 0.47153 0.49326 0.43232
 C91 C 0.49593 0.53106 0.59851
 C92 C 0.48431 0.54843 0.63136
 C93 C 0.45366 0.53866 0.63219
 C94 C 0.43496 0.51114 0.59779
 C95 C 0.44674 0.49385 0.56464
 C96 C 0.53565 0.48017 0.56586
 C97 C 0.54939 0.46684 0.60420
 C98 C 0.53290 0.44394 0.64934
 C99 C 0.50246 0.43482 0.65436
 C100 C 0.48890 0.44827 0.61627
 C101 C 0.49559 0.43141 0.45147
 C102 C 0.51018 0.41614 0.42132
 C103 C 0.53242 0.43309 0.37834
 C104 C 0.53916 0.46539 0.36473
 C105 C 0.52454 0.48057 0.39473
 C106 C 0.44841 0.47149 0.39577
 C107 C 0.43194 0.48226 0.35965
 C108 C 0.43840 0.51510 0.35871
 C109 C 0.46183 0.53704 0.39512
 C110 C 0.47837 0.52620 0.43121
 H111 H 0.51959 0.53895 0.59934
 H112 H 0.49945 0.56941 0.65700
 H113 H 0.41130 0.50247 0.59609
 H114 H 0.43201 0.47254 0.53936
 H115 H 0.54869 0.49790 0.53192
 H116 H 0.57276 0.47473 0.59770
 H117 H 0.46544 0.44089 0.62142
 H118 H 0.47858 0.41795 0.48459
 H119 H 0.50425 0.39110 0.43190
 H120 H 0.55531 0.47891 0.33028
 H121 H 0.53022 0.50552 0.38384
 H122 H 0.44285 0.44599 0.39584
 H123 H 0.41405 0.46482 0.33222
 H124 H 0.46739 0.56244 0.39675
 H125 H 0.49642 0.54347 0.45849
 H126 H 0.48900 0.41734 0.68832
 O127 O 0.35934 0.64594 -0.05848
 O128 O 0.35424 0.69852 -0.08148
 C129 C 0.33904 0.71345 -0.09160
 O130 O 0.31686 0.70962 -0.05937
 O131 O 0.26954 0.65403 -0.06723
 C132 C 0.25659 0.62351 -0.07256
 O133 O 0.26321 0.60482 -0.04047
 O134 O 0.31364 0.60527 -0.06607
 C135 C 0.34038 0.61984 -0.08297
 O136 O 0.36277 0.66032 0.06168
 O137 O 0.35969 0.71374 0.03822
 C138 C 0.34150 0.71945 0.06982
 O139 O 0.31370 0.70428 0.06307
 O140 O 0.26476 0.65016 0.05526
 C141 C 0.26324 0.62696 0.08864
 O142 O 0.27834 0.61191 0.07870
 O143 O 0.32771 0.60935 0.05342
 C144 C 0.35115 0.63094 0.07765
 Cr145 Cr 0.35738 0.67871 -0.00975
 Cr146 Cr 0.29211 0.67863 -0.00206
 Cr147 Cr 0.29647 0.60963 0.00611
 O148 O 0.31536 0.65569 -0.00192
 O149 O 0.64071 0.35252 -0.03982
 O150 O 0.63748 0.29587 -0.06306
 C151 C 0.64919 0.27804 -0.07885
 O152 O 0.67271 0.27980 -0.05469
 O153 O 0.72213 0.33121 -0.07901
 C154 C 0.73736 0.36122 -0.08843
 O155 O 0.73580 0.38273 -0.05475
 O156 O 0.68687 0.38818 -0.06457
 C157 C 0.65910 0.37599 -0.07179
 O158 O 0.64568 0.34228 0.08016
 O159 O 0.64053 0.28471 0.05705
 C160 C 0.65929 0.27695 0.08124
 O161 O 0.68613 0.28893 0.06490
 O162 O 0.73670 0.33869 0.04050
 C163 C 0.74317 0.36381 0.07277
 O164 O 0.73016 0.38149 0.06746
 O165 O 0.68284 0.39042 0.05767
 C166 C 0.66068 0.37229 0.08996
 Cr167 Cr 0.64273 0.31957 0.00834
 Cr168 Cr 0.70369 0.31072 -0.00677
 Cr169 Cr 0.70801 0.38394 0.00148
 O170 O 0.68476 0.33802 0.00110
 C171 C 0.45218 0.87651 -0.33250
 C172 C 0.42156 0.85708 -0.32673
 C173 C 0.40940 0.82811 -0.28748
 N174 N 0.38031 0.81400 -0.27198
 N175 N 0.36924 0.78835 -0.23505
 C176 C 0.38683 0.77574 -0.21266
 N177 N 0.41580 0.78958 -0.22883
 N178 N 0.42690 0.81531 -0.26545
 C179 C 0.37545 0.74834 -0.16983
 C180 C 0.34792 0.73725 -0.14154
 H181 H 0.40574 0.86352 -0.34797
 H182 H 0.39018 0.73823 -0.15676
 H183 H 0.46631 0.86915 -0.30633
 H184 H 0.33361 0.74819 -0.15267
 C185 C 0.10831 0.58735 -0.33081
 C186 C 0.12070 0.56954 -0.30162
 C187 C 0.14754 0.58482 -0.26388
 N188 N 0.15794 0.56607 -0.23512
 N189 N 0.18175 0.57935 -0.19945
 C190 C 0.19608 0.61191 -0.19127
 N191 N 0.18578 0.63069 -0.22028
 N192 N 0.16193 0.61740 -0.25590
 C193 C 0.22191 0.62691 -0.15069
 C194 C 0.23222 0.60862 -0.11664
 H195 H 0.11062 0.54350 -0.30618
 H196 H 0.23246 0.65301 -0.14610
 H197 H 0.11985 0.61354 -0.32882
 H198 H 0.22152 0.58249 -0.12084
 C199 C 0.44329 0.55654 -0.33171
 C200 C 0.41354 0.54902 -0.32256
 C201 C 0.40466 0.56754 -0.27972
 N202 N 0.37558 0.55742 -0.26731
 N203 N 0.36724 0.57320 -0.22702
 C204 C 0.38767 0.59974 -0.19769
 N205 N 0.41674 0.61004 -0.21050
 N206 N 0.42509 0.59422 -0.25070
 C207 C 0.37881 0.61669 -0.15144
 C208 C 0.34951 0.60491 -0.13245
 H209 H 0.39596 0.52849 -0.34454
 H210 H 0.39587 0.63814 -0.13027
 H211 H 0.45966 0.57731 -0.30744
 H212 H 0.33262 0.58315 -0.15311
 C213 C 0.58484 0.10649 -0.32657
 C214 C 0.57414 0.12605 -0.29831
 C215 C 0.59295 0.15413 -0.26064
 N216 N 0.58192 0.17392 -0.23921
 N217 N 0.59827 0.19895 -0.20359
 C218 C 0.62626 0.20510 -0.18788
 N219 N 0.63732 0.18530 -0.20932
 N220 N 0.62100 0.16030 -0.24515
 C221 C 0.64402 0.23190 -0.14643
 C222 C 0.63383 0.25355 -0.12591
 H223 H 0.55128 0.12107 -0.30458
 H224 H 0.66505 0.23402 -0.13042
 H225 H 0.60831 0.11335 -0.32442
 H226 H 0.61309 0.25174 -0.14321
 C227 C 0.89202 0.47746 -0.32655
 C228 C 0.87224 0.44478 -0.31887
 C229 C 0.84683 0.43424 -0.27703
 N230 N 0.82877 0.40221 -0.26885
 N231 N 0.80627 0.39234 -0.22964
 C232 C 0.80099 0.41417 -0.19721
 N233 N 0.81893 0.44617 -0.20567
 N234 N 0.84140 0.45603 -0.24486
 C235 C 0.77716 0.40382 -0.15164
 C236 C 0.75858 0.37131 -0.13932
 H237 H 0.87576 0.42618 -0.34175
 H238 H 0.77501 0.42243 -0.12533
 H239 H 0.88806 0.49521 -0.30125
 H240 H 0.76050 0.35266 -0.16594
 C241 C 0.54528 0.42982 -0.31004
 C242 C 0.57527 0.43728 -0.30647
 C243 C 0.58623 0.42190 -0.26086
 N244 N 0.61572 0.43161 -0.25528
 N245 N 0.62594 0.41824 -0.21361
 C246 C 0.60703 0.39460 -0.17602
 N247 N 0.57755 0.38477 -0.18180
 N248 N 0.56734 0.39819 -0.22338
 C249 C 0.61793 0.37977 -0.12934
 C250 C 0.64803 0.39035 -0.11896
 H251 H 0.59154 0.45520 -0.33588
 H252 H 0.60178 0.36034 -0.10193
 H253 H 0.53041 0.41209 -0.27799
 H254 H 0.66414 0.41003 -0.14597
 C255 C 0.89126 0.47320 0.33238
 C256 C 0.88129 0.44559 0.29552
 C257 C 0.85369 0.43369 0.26005
 N258 N 0.84475 0.40618 0.22681
 N259 N 0.82028 0.39541 0.19306
 C260 C 0.80382 0.41178 0.19126
 N261 N 0.81269 0.43926 0.22465
 N262 N 0.83717 0.45001 0.25847
 C263 C 0.77736 0.40085 0.15237
 C264 C 0.76762 0.37302 0.11664
 H265 H 0.89349 0.43167 0.29195
 H266 H 0.76589 0.41569 0.15035
 H267 H 0.87704 0.48491 0.33661
 H268 H 0.77898 0.35807 0.11911
 C269 C 0.55493 0.11420 0.33620
 C270 C 0.58253 0.12822 0.30778
 C271 C 0.59250 0.15726 0.26926
 N272 N 0.62047 0.17104 0.24688
 N273 N 0.62966 0.19662 0.21006
 C274 C 0.61119 0.20935 0.19402
 N275 N 0.58319 0.19560 0.21648
 N276 N 0.57402 0.17004 0.25351
 C277 C 0.62079 0.23673 0.15118
 C278 C 0.64972 0.25208 0.12918
 H279 H 0.59760 0.11774 0.31399
 H280 H 0.60461 0.24430 0.13538
 H281 H 0.54110 0.12645 0.33425
 H282 H 0.66593 0.24486 0.14626
 C283 C 0.54731 0.41618 0.34684
 C284 C 0.57530 0.43246 0.32027
 C285 C 0.58883 0.41575 0.28449
 N286 N 0.61568 0.43315 0.25818
 N287 N 0.62772 0.41871 0.22331
 C288 C 0.61335 0.38628 0.21351
 N289 N 0.58660 0.36883 0.24024
 N290 N 0.57455 0.38327 0.27509
 C291 C 0.62546 0.37022 0.17216
 C292 C 0.65153 0.38739 0.13922
 H293 H 0.58780 0.45843 0.32496
 H294 H 0.61245 0.34448 0.16456
 H295 H 0.53603 0.38997 0.34549
 H296 H 0.66450 0.41315 0.14662
 C297 C 0.10699 0.58585 0.32435
 C298 C 0.12778 0.57400 0.31810
 C299 C 0.15326 0.58927 0.27657
 N300 N 0.17213 0.57607 0.26926
 N301 N 0.19470 0.58904 0.23031
 C302 C 0.19925 0.61572 0.19729
 N303 N 0.18051 0.62904 0.20491
 N304 N 0.15795 0.61608 0.24383
 C305 C 0.22313 0.62948 0.15188
 C306 C 0.24220 0.61596 0.13983
 H307 H 0.12499 0.55236 0.34184
 H308 H 0.22480 0.64995 0.12522
 H309 H 0.11015 0.60698 0.29803
 H310 H 0.24064 0.59558 0.16663
 C311 C 0.45621 0.87952 0.31987
 C312 C 0.42753 0.86655 0.29639
 C313 C 0.41597 0.83881 0.25441
 N314 N 0.38711 0.82527 0.23743
 N315 N 0.37640 0.80058 0.19843
 C316 C 0.39421 0.78860 0.17476
 N317 N 0.42309 0.80218 0.19165
 N318 N 0.43378 0.82681 0.23082
 C319 C 0.38285 0.76181 0.13063
 C320 C 0.35291 0.74540 0.11563
 H321 H 0.41282 0.87659 0.30962
 H322 H 0.39846 0.75489 0.10949
 H323 H 0.46976 0.86746 0.31029
 H324 H 0.33721 0.75168 0.13825
 C325 C 0.41990 0.52500 0.31977
 C326 C 0.42689 0.55702 0.30531
 C327 C 0.40831 0.56534 0.26429
 N328 N 0.41659 0.59678 0.25017
 N329 N 0.40041 0.60473 0.21215
 C330 C 0.37529 0.58154 0.18682
 N331 N 0.36691 0.55009 0.20116
 N332 N 0.38310 0.54213 0.23920
 C333 C 0.35775 0.58999 0.14318
 C334 C 0.36646 0.62192 0.12537
 H335 H 0.44687 0.57676 0.32253
 H336 H 0.33823 0.57062 0.12316
 H337 H 0.40018 0.50590 0.29977
 H338 H 0.38610 0.64114 0.14536
   
