data_POSCAR
  _audit_creation_date              2014-09-24
  _audit_creation_method            'ToBaCCo'
  _symmetry_space_group_name_H-M    'P1'
  _symmetry_Int_Tables_number       1
  _symmetry_cell_setting            triclinic
  loop_
  _symmetry_equiv_pos_as_xyz
 x,y,z
_cell_length_a 28.0120
_cell_length_b 31.6631
_cell_length_c 30.8434
_cell_angle_alpha 87.695400
_cell_angle_beta 86.549400
_cell_angle_gamma 83.849500
loop_
  _atom_site_label
  _atom_site_type_symbol
  _atom_site_fract_x
  _atom_site_fract_y
  _atom_site_fract_z
C1 C 0.60343 0.64864 0.63074
 C2 C 0.61661 0.61105 0.65484
 C3 C 0.64598 0.57713 0.63550
 C4 C 0.66462 0.58286 0.59249
 C5 C 0.65232 0.62056 0.56850
 C6 C 0.62065 0.65282 0.58729
 H7 H 0.60234 0.60804 0.68806
 H8 H 0.68823 0.55772 0.57713
 H9 H 0.61127 0.68197 0.56867
 C10 C 0.87060 0.35429 0.11392
 C11 C 0.89507 0.38621 0.13045
 C12 C 0.87391 0.42839 0.13170
 C13 C 0.82899 0.43926 0.11422
 C14 C 0.80488 0.40838 0.09577
 C15 C 0.82529 0.36582 0.09695
 H16 H 0.92965 0.37829 0.14422
 H17 H 0.81336 0.47207 0.11406
 H18 H 0.80654 0.34167 0.08354
 C19 C 0.42886 0.14246 -0.11988
 C20 C 0.41170 0.11062 -0.14328
 C21 C 0.37145 0.09077 -0.12734
 C22 C 0.34896 0.10219 -0.08704
 C23 C 0.36613 0.13343 -0.06277
 C24 C 0.40599 0.15350 -0.07946
 H25 H 0.42844 0.10253 -0.17486
 H26 H 0.31730 0.08746 -0.07524
 H27 H 0.41831 0.17840 -0.06132
 C28 C 0.11526 0.82016 0.39006
 C29 C 0.14441 0.83773 0.41879
 C30 C 0.15911 0.87848 0.41055
 C31 C 0.14499 0.90173 0.37295
 C32 C 0.11608 0.88478 0.34391
 C33 C 0.10171 0.84404 0.35241
 H34 H 0.15450 0.82028 0.44835
 H35 H 0.15524 0.93359 0.36704
 H36 H 0.07866 0.83189 0.33003
 N37 N 0.05130 0.18993 0.13231
 N38 N 0.02155 0.16064 0.13990
 C39 C -0.02401 0.17864 0.13743
 C40 C -0.02233 0.22151 0.12861
 C41 C 0.02575 0.22793 0.12570
 H42 H -0.05577 0.16198 0.14217
 H43 H 0.04105 0.25744 0.11792
 Cu44 Cu 0.04472 0.10220 0.15481
 Cu45 Cu 0.12087 0.17588 0.12892
 Cu46 Cu 0.16087 0.06884 0.13443
 N47 N 0.07479 0.05097 0.18314
 N48 N 0.12107 0.03893 0.17684
 C49 C 0.13291 0.00404 0.20200
 C50 C 0.09145 -0.00618 0.22461
 C51 C 0.05515 0.02379 0.21190
 H52 H 0.16853 -0.01281 0.20311
 H53 H 0.01773 0.02625 0.22338
 N54 N 0.20024 0.11145 0.10765
 N55 N 0.18618 0.15264 0.10786
 C56 C 0.21915 0.17356 0.08467
 C57 C 0.25495 0.14383 0.06888
 C58 C 0.24201 0.10478 0.08381
 H59 H 0.21508 0.20723 0.07643
 H60 H 0.26014 0.07388 0.07610
 H61 H 0.11279 0.11732 0.10635
 H62 H 0.12631 0.11894 0.16495
 N63 N 0.42785 0.82037 0.63278
 N64 N 0.44332 0.83720 0.66697
 C65 C 0.47942 0.81076 0.68305
 C66 C 0.48721 0.77613 0.65689
 C67 C 0.45422 0.78299 0.62524
 H68 H 0.49872 0.81648 0.71121
 H69 H 0.44905 0.76206 0.59946
 Cu70 Cu 0.41596 0.89252 0.68676
 Cu71 Cu 0.37319 0.84715 0.60204
 Cu72 Cu 0.31241 0.93718 0.64729
 N73 N 0.37739 0.93895 0.71558
 N74 N 0.33557 0.95475 0.70138
 C75 C 0.31523 0.98473 0.72848
 C76 C 0.34659 0.98809 0.76064
 C77 C 0.38578 0.95892 0.75169
 H78 H 0.28095 1.00330 0.72453
 H79 H 0.41733 0.95218 0.77037
 N80 N 0.29487 0.91438 0.59258
 N81 N 0.31701 0.87914 0.57607
 C82 C 0.29619 0.87110 0.53940
 C83 C 0.25999 0.90331 0.53253
 C84 C 0.26006 0.93036 0.56639
 H85 H 0.30727 0.84464 0.51873
 H86 H 0.23644 0.95924 0.57159
 H87 H 0.37649 0.90931 0.61890
 H88 H 0.34216 0.87513 0.65768
 N89 N 0.96943 0.65325 0.39124
 N90 N 0.98616 0.65571 0.35050
 C91 C 1.02236 0.68057 0.34732
 C92 C 1.02919 0.69330 0.38856
 C93 C 0.99542 0.67540 0.41584
 H94 H 1.04148 0.68932 0.31735
 H95 H 0.98800 0.68060 0.45015
 Cu96 Cu 0.95858 0.62645 0.30554
 Cu97 Cu 0.91064 0.62679 0.40740
 Cu98 Cu 0.84095 0.61758 0.31985
 N99 N 0.92647 0.59321 0.26691
 N100 N 0.87973 0.59123 0.27138
 C101 C 0.86698 0.56461 0.24218
 C102 C 0.90823 0.54883 0.21881
 C103 C 0.94540 0.56742 0.23522
 H104 H 0.83121 0.55508 0.24051
 H105 H 0.98339 0.56108 0.22641
 N106 N 0.81374 0.62235 0.37984
 N107 N 0.84088 0.62178 0.41353
 C108 C 0.81248 0.62225 0.45036
 C109 C 0.76547 0.62371 0.43882
 C110 C 0.76720 0.62400 0.39406
 H111 H 0.82487 0.62352 0.48278
 H112 H 0.73718 0.62480 0.37347
 H113 H 0.89845 0.59381 0.35262
 H114 H 0.88804 0.65300 0.35051
 N115 N 0.59460 0.29053 -0.12176
 N116 N 0.59387 0.29792 -0.16404
 C117 C 0.56879 0.26950 -0.18143
 C118 C 0.55277 0.24338 -0.14802
 C119 C 0.56957 0.25735 -0.11051
 H120 H 0.56138 0.26888 -0.21541
 H121 H 0.56378 0.24481 -0.07770
 Cu122 Cu 0.62311 0.34568 -0.19219
 Cu123 Cu 0.62830 0.32512 -0.08534
 Cu124 Cu 0.62519 0.42821 -0.12740
 N125 N 0.63584 0.40146 -0.21555
 N126 N 0.63368 0.43434 -0.19041
 C127 C 0.63974 0.46961 -0.21517
 C128 C 0.64707 0.45757 -0.25777
 C129 C 0.64457 0.41429 -0.25713
 H130 H 0.63986 0.50115 -0.20297
 H131 H 0.64756 0.39399 -0.28474
 N132 N 0.63893 0.41231 -0.06636
 N133 N 0.64251 0.37256 -0.05109
 C134 C 0.66192 0.37052 -0.01213
 C135 C 0.67062 0.41109 -0.00243
 C136 C 0.65555 0.43689 -0.03720
 H137 H 0.67209 0.34141 0.00614
 H138 H 0.66116 0.46996 -0.04296
 H139 H 0.59366 0.37171 -0.12097
 H140 H 0.66065 0.36838 -0.12938
 N141 N -0.10467 0.24342 0.10989
 N142 N -0.13411 0.27871 0.10507
 C143 C -0.10973 0.31148 0.11451
 C144 C -0.06392 0.29483 0.12501
 N145 N -0.06243 0.25251 0.12169
 H146 H -0.03439 0.31145 0.13398
 N147 N 0.54123 0.72746 0.69919
 N148 N 0.57199 0.69301 0.69360
 C149 C 0.57235 0.68375 0.65125
 C150 C 0.54056 0.71344 0.63108
 N151 N 0.52199 0.74004 0.66207
 H152 H 0.53200 0.71571 0.59725
 N153 N 1.07805 0.72582 0.43808
 N154 N 1.10199 0.75965 0.43920
 C155 C 1.09797 0.78062 0.40031
 C156 C 1.07124 0.75785 0.37504
 N157 N 1.05958 0.72422 0.39980
 H158 H 1.05988 0.76530 0.34245
 N159 N 0.51487 0.19300 -0.18856
 N160 N 0.48237 0.16561 -0.18215
 C161 C 0.46817 0.16598 -0.13954
 C162 C 0.49349 0.19444 -0.11993
 N163 N 0.52203 0.21054 -0.15162
 H164 H 0.49049 0.20367 -0.08639
 N165 N 0.04736 -0.06079 0.26104
 N166 N 0.05299 -0.09064 0.29219
 C167 C 0.09732 -0.08929 0.30663
 C168 C 0.11892 -0.05779 0.28304
 N169 N 0.08656 -0.04093 0.25502
 H170 H 0.15404 -0.04743 0.28657
 N171 N 0.67693 0.47073 -0.33222
 N172 N 0.67774 0.50247 -0.36144
 C173 C 0.65541 0.53759 -0.34251
 C174 C 0.64133 0.52614 -0.30018
 N175 N 0.65532 0.48434 -0.29532
 H176 H 0.62175 0.54558 -0.27558
 N177 N 0.29750 1.03075 0.81398
 N178 N 0.30288 1.05764 0.84473
 C179 C 0.35048 1.06075 0.84576
 C180 C 0.37419 1.03461 0.81481
 N181 N 0.33987 1.01658 0.79582
 H182 H 0.41236 1.03004 0.80608
 N183 N 0.95413 0.49212 0.17821
 N184 N 0.94644 0.45928 0.15519
 C185 C 0.89843 0.46082 0.15210
 C186 C 0.87693 0.49560 0.17406
 N187 N 0.91284 0.51416 0.18991
 H188 H 0.83888 0.50530 0.17961
 N189 N 0.31028 0.18802 0.02936
 N190 N 0.34050 0.18624 -0.00545
 C191 C 0.34064 0.14718 -0.02151
 C192 C 0.30986 0.12489 0.00496
 N193 N 0.29174 0.15145 0.03616
 H194 H 0.30014 0.09314 0.00108
 N195 N 0.68056 0.64519 0.45652
 N196 N 0.64933 0.64548 0.49060
 C197 C 0.67326 0.62651 0.52404
 C198 C 0.72016 0.61492 0.50958
 N199 N 0.72321 0.62715 0.46740
 H200 H 0.74931 0.59970 0.52803
 N201 N 0.70565 0.46162 0.04049
 N202 N 0.74123 0.46201 0.06687
 C203 C 0.76002 0.42129 0.07325
 C204 C 0.73424 0.39588 0.05010
 N205 N 0.70092 0.42220 0.03015
 H206 H 0.74098 0.36203 0.04555
 N207 N 0.20844 0.94563 0.48271
 N208 N 0.18191 0.94029 0.44961
 C209 C 0.18606 0.89821 0.44267
 C210 C 0.21634 0.87788 0.47249
 N211 N 0.22941 0.90858 0.49676
 H212 H 0.22712 0.84417 0.47670
   
