data_POSCAR
  _audit_creation_date              2014-09-24
  _audit_creation_method            'ToBaCCo'
  _symmetry_space_group_name_H-M    'P1'
  _symmetry_Int_Tables_number       1
  _symmetry_cell_setting            triclinic
  loop_
  _symmetry_equiv_pos_as_xyz
 x,y,z
_cell_length_a 35.0079
_cell_length_b 35.2481
_cell_length_c 8.2362
_cell_angle_alpha 90.370800
_cell_angle_beta 90.001700
_cell_angle_gamma 90.089600
loop_
  _atom_site_label
  _atom_site_type_symbol
  _atom_site_fract_x
  _atom_site_fract_y
  _atom_site_fract_z
O1 O 0.22255 0.28593 0.07970
 O2 O 0.29361 0.21231 0.17383
 O3 O 0.22249 0.21196 0.08014
 O4 O 0.29356 0.28612 0.17379
 O5 O 0.27535 0.28653 0.43091
 O6 O 0.20432 0.21240 0.33726
 O7 O 0.27542 0.21268 0.43096
 O8 O 0.20437 0.28628 0.33683
 Cu9 Cu 0.25996 0.24902 0.10113
 Cu10 Cu 0.23792 0.24950 0.40962
 C11 C 0.20146 0.29857 0.19298
 C12 C 0.29661 0.20014 0.31782
 C13 C 0.20136 0.19967 0.19344
 C14 C 0.29650 0.29882 0.31769
 O15 O 0.79376 0.28641 0.32282
 O16 O 0.72270 0.21257 0.41704
 O17 O 0.79383 0.21258 0.32353
 O18 O 0.72274 0.28650 0.41669
 O19 O 0.70457 0.28596 0.15952
 O20 O 0.77567 0.21205 0.06636
 O21 O 0.70456 0.21210 0.15989
 O22 O 0.77558 0.28593 0.06566
 Cu23 Cu 0.76017 0.24955 0.39573
 Cu24 Cu 0.73816 0.24894 0.08720
 C25 C 0.79670 0.29863 0.17885
 C26 C 0.70156 0.19989 0.30383
 C27 C 0.79683 0.19989 0.17967
 C28 C 0.70164 0.29872 0.30328
 O29 O 0.72473 0.78745 0.56739
 O30 O 0.79529 0.71342 0.66200
 O31 O 0.72430 0.71356 0.56793
 O32 O 0.79583 0.78726 0.66105
 O33 O 0.77766 0.78790 0.91817
 O34 O 0.70610 0.71419 0.82505
 O35 O 0.77710 0.71398 0.91913
 O36 O 0.70655 0.78802 0.82452
 Cu37 Cu 0.76197 0.75037 0.58893
 Cu38 Cu 0.73994 0.75110 0.89742
 C39 C 0.70364 0.80019 0.68048
 C40 C 0.79813 0.70118 0.80596
 C41 C 0.70309 0.70143 0.68126
 C42 C 0.79890 0.80000 0.80482
 O43 O 0.29459 0.78789 0.84181
 O44 O 0.22354 0.71410 0.93630
 O45 O 0.29455 0.71407 0.84246
 O46 O 0.22347 0.78802 0.93531
 O47 O 0.20531 0.78743 0.67818
 O48 O 0.27638 0.71347 0.58529
 O49 O 0.20537 0.71357 0.67914
 O50 O 0.27644 0.78737 0.58463
 Cu51 Cu 0.26095 0.75110 0.91465
 Cu52 Cu 0.23895 0.75042 0.60612
 C53 C 0.29759 0.80005 0.69779
 C54 C 0.20244 0.70136 0.82313
 C55 C 0.29750 0.70129 0.69872
 C56 C 0.20232 0.80018 0.82195
 C57 C 0.98058 0.11721 0.08527
 C58 C 1.01968 0.11702 0.09415
 C59 C 1.03117 0.07985 0.06746
 N60 N 1.00032 0.05746 0.04294
 C61 C 0.96932 0.08012 0.05392
 C62 C 1.06964 0.06775 0.06172
 C63 C 1.08165 0.03010 0.02892
 C64 C 1.11926 0.01980 -0.00089
 C65 C 1.11938 -0.01859 -0.03014
 C66 C 1.08184 -0.03095 -0.01752
 N67 N 1.05913 -0.00116 0.02131
 C68 C 1.07005 -0.06901 -0.04303
 C69 C 1.03164 -0.08121 -0.05503
 C70 C 1.02038 -0.11827 -0.08697
 C71 C 0.98128 -0.11807 -0.09600
 C72 C 0.96980 -0.08093 -0.06880
 N73 N 1.00065 -0.05856 -0.04381
 C74 C 0.93133 -0.06882 -0.06286
 C75 C 0.91934 -0.03120 -0.02952
 C76 C 0.88175 -0.02093 0.00101
 C77 C 0.88163 0.01744 0.03041
 C78 C 0.91915 0.02983 0.01715
 N79 N 0.94185 0.00006 -0.02217
 C80 C 0.93092 0.06790 0.04237
 H81 H 0.96253 0.14184 0.10143
 H82 H 1.03758 0.14155 0.11690
 H83 H 0.97041 0.00147 -0.05421
 H84 H 1.14409 0.03812 -0.00378
 H85 H 1.14433 -0.03536 -0.05975
 H86 H 1.03844 -0.14289 -0.10342
 H87 H 0.96338 -0.14258 -0.11916
 H88 H 0.85670 0.03419 0.06047
 H89 H 1.03053 -0.00253 0.05266
 H90 H 0.85694 -0.03927 0.00423
 C91 C 0.51965 0.61785 0.58887
 C92 C 0.48055 0.61755 0.59786
 C93 C 0.46905 0.58039 0.57005
 N94 N 0.49988 0.55813 0.54476
 C95 C 0.53089 0.58085 0.55636
 C96 C 0.43058 0.56820 0.56392
 C97 C 0.41855 0.53058 0.53006
 C98 C 0.38094 0.52022 0.49975
 C99 C 0.38081 0.48187 0.46969
 C100 C 0.41833 0.46958 0.48236
 N101 N 0.44105 0.49939 0.52194
 C102 C 0.43010 0.43158 0.45639
 C103 C 0.46850 0.41948 0.44449
 C104 C 0.47974 0.38246 0.41223
 C105 C 0.51884 0.38275 0.40346
 C106 C 0.53034 0.41992 0.43111
 N107 N 0.49951 0.44220 0.45612
 C108 C 0.56882 0.43210 0.43728
 C109 C 0.58085 0.46974 0.47082
 C110 C 0.61846 0.48012 0.50082
 C111 C 0.61860 0.51848 0.53065
 C112 C 0.58107 0.53076 0.51819
 N113 N 0.55834 0.50093 0.47892
 C114 C 0.56929 0.56876 0.54416
 H115 H 0.53771 0.64251 0.60576
 H116 H 0.46267 0.64199 0.62141
 H117 H 0.52975 0.50226 0.44755
 H118 H 0.35613 0.53848 0.49714
 H119 H 0.35586 0.46506 0.43963
 H120 H 0.46167 0.35780 0.39537
 H121 H 0.53672 0.35830 0.38012
 H122 H 0.64355 0.53530 0.56047
 H123 H 0.46963 0.49804 0.55357
 H124 H 0.64328 0.46187 0.50335
 C125 C 0.01963 0.61745 -0.08346
 C126 C -0.01946 0.61712 -0.09259
 C127 C -0.03096 0.57999 -0.06624
 N128 N -0.00013 0.55775 -0.04171
 C129 C 0.03088 0.58048 -0.05235
 C130 C -0.06944 0.56780 -0.06069
 C131 C -0.08147 0.53020 -0.02831
 C132 C -0.11907 0.51988 0.00162
 C133 C -0.11920 0.48156 0.03031
 C134 C -0.08167 0.46926 0.01718
 N135 N -0.05896 0.49902 -0.02136
 C136 C -0.06989 0.43128 0.04187
 C137 C -0.03149 0.41921 0.05333
 C138 C -0.02024 0.38223 0.08424
 C139 C 0.01886 0.38254 0.09314
 C140 C 0.03036 0.41968 0.06688
 N141 N -0.00048 0.44193 0.04261
 C142 C 0.06883 0.43187 0.06124
 C143 C 0.08087 0.46948 0.02912
 C144 C 0.11847 0.47982 -0.00060
 C145 C 0.11860 0.51816 -0.02906
 C146 C 0.08107 0.53044 -0.01603
 N147 N 0.05835 0.50066 0.02226
 C148 C 0.06928 0.56842 -0.04064
 H149 H 0.03768 0.64210 -0.09931
 H150 H -0.03735 0.64154 -0.11527
 H151 H 0.02976 0.50202 0.05380
 H152 H -0.14388 0.53814 0.00491
 H153 H -0.14414 0.46478 0.05982
 H154 H -0.03830 0.35758 0.10010
 H155 H 0.03674 0.35812 0.11564
 H156 H 0.14354 0.53495 -0.05838
 H157 H -0.03038 0.49765 -0.05305
 H158 H 0.14329 0.46156 -0.00389
 C159 C 0.48130 0.88333 0.59583
 C160 C 0.52040 0.88312 0.58697
 C161 C 0.53166 0.92007 0.55481
 N162 N 0.50065 0.94268 0.54331
 C163 C 0.46981 0.92039 0.56832
 C164 C 0.57006 0.93224 0.54281
 C165 C 0.58185 0.97022 0.51714
 C166 C 0.61939 0.98263 0.52961
 C167 C 0.61926 1.02091 0.50007
 C168 C 0.58166 1.03111 0.47025
 N169 N 0.55913 0.99989 0.47817
 C170 C 0.56964 1.06864 0.43707
 C171 C 0.53117 1.08072 0.43112
 C172 C 0.51968 1.11780 0.40407
 C173 C 0.48057 1.11800 0.41277
 C174 C 0.46931 1.08102 0.44438
 N175 N 0.50032 1.05841 0.45569
 C176 C 0.43091 1.06883 0.45595
 C177 C 0.41914 1.03084 0.48140
 C178 C 0.38162 1.01840 0.46840
 C179 C 0.38175 0.98013 0.49810
 C180 C 0.41934 0.96996 0.52853
 N181 N 0.44185 1.00120 0.52083
 C182 C 0.43134 0.93246 0.56219
 H183 H 0.46340 0.85890 0.61908
 H184 H 0.53846 0.85856 0.60368
 H185 H 0.47042 1.00272 0.55270
 H186 H 0.64434 0.96595 0.55921
 H187 H 0.64410 1.03923 0.50267
 H188 H 0.53757 1.14225 0.38118
 H189 H 0.46251 1.14257 0.39630
 H190 H 0.35692 0.96179 0.49522
 H191 H 0.53053 0.99840 0.44689
 H192 H 0.35668 1.03505 0.43839
 C193 C 1.17496 0.17243 0.16085
 C194 C 1.15126 0.14832 0.13471
 C195 C 1.12321 0.12022 0.10712
 C196 C 1.09901 0.09634 0.08559
 C197 C 0.67506 0.67279 0.64679
 C198 C 0.65125 0.64881 0.62029
 C199 C 0.62310 0.62087 0.59180
 C200 C 0.59881 0.59713 0.56933
 C201 C -0.17542 0.32730 0.14405
 C202 C -0.15172 0.35129 0.11742
 C203 C -0.12365 0.37924 0.08896
 C204 C -0.09940 0.40295 0.06665
 C205 C 0.32561 0.82858 0.66295
 C206 C 0.34946 0.85246 0.63659
 C207 C 0.37766 0.88029 0.60859
 C208 C 0.40194 0.90400 0.58663
 C209 C -0.17423 0.67237 -0.15937
 C210 C -0.15071 0.64823 -0.13326
 C211 C -0.12286 0.62012 -0.10573
 C212 C -0.09877 0.59627 -0.08432
 C213 C 0.32470 1.17177 0.35276
 C214 C 0.34863 1.14807 0.37949
 C215 C 0.37695 1.12048 0.40813
 C216 C 0.40136 1.09700 0.43068
 C217 C 1.17584 -0.17274 -0.14545
 C218 C 1.15205 -0.14881 -0.11888
 C219 C 1.12389 -0.12096 -0.09043
 C220 C 1.09957 -0.09731 -0.06804
 C221 C 0.67383 0.32751 0.33752
 C222 C 0.65021 0.35163 0.36353
 C223 C 0.62228 0.37974 0.39123
 C224 C 0.59815 0.40360 0.41301
 C225 C 0.82552 -0.17297 -0.16269
 C226 C 0.84941 -0.14905 -0.13652
 C227 C 0.87764 -0.12114 -0.10879
 C228 C 0.90193 -0.09737 -0.08706
 C229 C 0.32443 0.32754 0.35246
 C230 C 0.34818 0.35155 0.37926
 C231 C 0.37630 0.37950 0.40811
 C232 C 0.40058 0.40322 0.43088
 C233 C 0.17462 0.67263 -0.14207
 C234 C 0.15098 0.64857 -0.11553
 C235 C 0.12299 0.62055 -0.08725
 C236 C 0.09878 0.59678 -0.06514
 C237 C 0.67512 1.17281 0.33667
 C238 C 0.65136 1.14885 0.36308
 C239 C 0.62325 1.12090 0.39102
 C240 C 0.59902 1.09714 0.41285
 C241 C 0.17371 0.32730 0.15860
 C242 C 0.15015 0.35141 0.13279
 C243 C 0.12226 0.37952 0.10563
 C244 C 0.09817 0.40338 0.08453
 C245 C 0.67579 0.82878 0.64547
 C246 C 0.65204 0.85266 0.61876
 C247 C 0.62390 0.88044 0.59024
 C248 C 0.59959 0.90403 0.56784
 C249 C 0.82488 0.17135 0.14507
 C250 C 0.84876 0.14751 0.11853
 C251 C 0.87702 0.11976 0.09001
 C252 C 0.90138 0.09617 0.06753
 C253 C 0.32537 0.67256 0.66447
 C254 C 0.34905 0.64851 0.63837
 C255 C 0.37706 0.62049 0.61047
 C256 C 0.40123 0.59668 0.58848
   
