data_POSCAR
  _audit_creation_date              2014-09-24
  _audit_creation_method            'ToBaCCo'
  _symmetry_space_group_name_H-M    'P1'
  _symmetry_Int_Tables_number       1
  _symmetry_cell_setting            triclinic
  loop_
  _symmetry_equiv_pos_as_xyz
 x,y,z
_cell_length_a 37.9541
_cell_length_b 18.4177
_cell_length_c 14.3204
_cell_angle_alpha 90.805700
_cell_angle_beta 90.098300
_cell_angle_gamma 90.634900
loop_
  _atom_site_label
  _atom_site_type_symbol
  _atom_site_fract_x
  _atom_site_fract_y
  _atom_site_fract_z
C1 C 0.67959 0.28644 0.60082
 C2 C 0.66377 0.30504 0.51669
 C3 C 0.68348 0.31323 0.43487
 C4 C 0.71921 0.29160 0.43393
 C5 C 0.73472 0.26574 0.51738
 C6 C 0.71533 0.26664 0.60196
 C7 C 0.73174 0.24567 0.68513
 C8 C 0.76657 0.22406 0.68557
 C9 C 0.78598 0.21983 0.60225
 C10 C 0.76995 0.24072 0.51706
 C11 C 0.74016 0.29688 0.35352
 C12 C 0.77468 0.27148 0.35291
 C13 C 0.78938 0.23887 0.43223
 C14 C 0.82377 0.20864 0.43129
 C15 C 0.83944 0.19249 0.51757
 C16 C 0.82164 0.19934 0.60234
 H17 H 0.71770 0.24555 0.75088
 H18 H 0.77797 0.21016 0.75213
 H19 H 0.72999 0.32018 0.29015
 H20 H 0.78980 0.27734 0.28942
 H21 H 0.63618 0.32017 0.51679
 H22 H 0.86610 0.17188 0.51948
 C23 C 0.18189 0.79612 0.59572
 C24 C 0.16514 0.81527 0.51288
 C25 C 0.18194 0.80857 0.42660
 C26 C 0.21704 0.78425 0.42236
 C27 C 0.23421 0.76292 0.50556
 C28 C 0.21639 0.76797 0.59252
 C29 C 0.23308 0.74290 0.67318
 C30 C 0.26662 0.71295 0.66870
 C31 C 0.28542 0.70970 0.58398
 C32 C 0.26891 0.73495 0.50137
 C33 C 0.23522 0.78029 0.33712
 C34 C 0.26943 0.75415 0.33309
 C35 C 0.28638 0.72957 0.41378
 C36 C 0.32021 0.69866 0.40897
 C37 C 0.33634 0.67572 0.49062
 C38 C 0.31928 0.67780 0.57758
 H39 H 0.21990 0.74449 0.74016
 H40 H 0.27735 0.69160 0.73248
 H41 H 0.22307 0.79722 0.27265
 H42 H 0.28233 0.75221 0.26574
 H43 H 0.13837 0.83529 0.51557
 H44 H 0.36253 0.65283 0.48564
 C45 C 0.17750 0.21604 -0.41718
 C46 C 0.16043 0.21635 -0.50355
 C47 C 0.17915 0.22507 -0.58701
 C48 C 0.21609 0.23726 -0.58323
 C49 C 0.23354 0.23941 -0.49535
 C50 C 0.21421 0.22784 -0.41217
 C51 C 0.23206 0.22734 -0.32617
 C52 C 0.26831 0.23851 -0.32169
 C53 C 0.28800 0.25129 -0.40292
 C54 C 0.27049 0.25184 -0.49068
 C55 C 0.23578 0.24998 -0.66450
 C56 C 0.27192 0.26278 -0.65993
 C57 C 0.28984 0.26433 -0.57376
 C58 C 0.32687 0.27418 -0.56887
 C59 C 0.34376 0.27083 -0.48190
 C60 C 0.32489 0.26189 -0.39889
 H61 H 0.21813 0.21808 -0.26145
 H62 H 0.28080 0.23616 -0.25384
 H63 H 0.22337 0.25061 -0.73257
 H64 H 0.28575 0.27030 -0.72515
 H65 H 0.13233 0.20483 -0.50609
 H66 H 0.37205 0.27929 -0.47828
 C67 C -0.32363 0.70915 -0.41775
 C68 C -0.34091 0.70361 -0.50384
 C69 C -0.32264 0.70495 -0.58866
 C70 C -0.28576 0.71971 -0.58750
 C71 C -0.26819 0.73158 -0.50077
 C72 C -0.28707 0.72537 -0.41556
 C73 C -0.26958 0.74108 -0.33089
 C74 C -0.23439 0.76347 -0.32971
 C75 C -0.21497 0.76819 -0.41283
 C76 C -0.23184 0.75154 -0.49932
 C77 C -0.26621 0.72559 -0.67055
 C78 C -0.23018 0.73956 -0.66867
 C79 C -0.21284 0.75760 -0.58466
 C80 C -0.17687 0.78031 -0.58317
 C81 C -0.16038 0.78971 -0.49623
 C82 C -0.17921 0.79009 -0.41255
 H83 H -0.28341 0.73880 -0.26491
 H84 H -0.22251 0.77667 -0.26283
 H85 H -0.27854 0.71928 -0.73832
 H86 H -0.21622 0.73905 -0.73450
 H87 H -0.36894 0.69112 -0.50444
 H88 H -0.13298 0.80725 -0.49353
 O89 O -0.04647 0.87375 0.17410
 O90 O -0.08588 0.93967 0.09021
 C91 C -0.07852 0.89057 0.15122
 O92 O 0.05150 1.14190 0.16572
 O93 O 0.09060 1.07290 0.08248
 C94 C 0.08329 1.12500 0.14122
 O95 O -0.04641 1.13312 0.17542
 O96 O -0.08626 1.06383 0.09250
 C97 C -0.07851 1.11397 0.15426
 O98 O 0.05238 0.87498 0.16980
 O99 O 0.09098 0.94478 0.08488
 C100 C 0.08393 0.89627 0.14703
 Zr101 Zr 0.00260 0.91306 0.12516
 O102 O 0.00361 0.92321 0.27230
 O103 O -0.00008 0.79829 0.12996
 Zr104 Zr 0.00261 1.09529 0.12675
 O105 O 0.00642 1.08742 0.27389
 O106 O 0.00019 1.20931 0.14267
 O107 O -0.02910 1.00358 0.14550
 O108 O 0.03370 1.00536 0.14214
 O109 O 0.05057 0.86882 -0.15383
 O110 O 0.08998 0.93990 -0.07140
 C111 C 0.08252 0.88797 -0.13068
 O112 O -0.04823 1.12921 -0.15675
 O113 O -0.08687 1.06405 -0.06695
 C114 C -0.07991 1.11178 -0.13020
 O115 O 0.05049 1.13519 -0.15708
 O116 O 0.09000 1.06667 -0.07560
 C117 C 0.08221 1.11541 -0.13659
 O118 O -0.04778 0.87860 -0.16688
 O119 O -0.08633 0.94313 -0.07533
 C120 C -0.07922 0.89878 -0.14366
 Zr121 Zr 0.00149 0.91152 -0.11034
 O122 O 0.00574 0.91058 -0.25774
 O123 O -0.00355 0.79705 -0.11281
 Zr124 Zr 0.00163 1.09437 -0.10919
 O125 O 0.00408 1.09110 -0.25699
 O126 O -0.00042 1.20915 -0.11033
 Zr127 Zr -0.05065 1.00287 0.01000
 Zr128 Zr 0.05496 1.00515 0.00656
 O129 O 0.03225 1.00322 -0.12771
 O130 O -0.03001 1.00252 -0.12681
 O131 O 0.03360 0.89871 0.00660
 O132 O -0.02827 1.10803 0.00977
 O133 O -0.02873 0.89837 0.00769
 O134 O 0.03349 1.11028 0.00792
 H135 H 0.04999 1.00739 0.19627
 H136 H -0.04362 1.15120 0.01047
 H137 H 0.04781 1.00214 -0.18321
 H138 H -0.04461 0.85531 0.00575
 H139 H 0.00160 1.22956 0.07932
 H140 H 0.01912 1.22816 -0.07090
 H141 H -0.01775 1.06732 -0.28046
 H142 H -0.01219 0.94404 -0.28195
 H143 H 0.01228 0.77875 -0.06393
 H144 H 0.01926 0.77922 0.09086
 H145 H 0.00382 0.87300 0.29626
 H146 H -0.01555 1.06411 0.29640
 O147 O 0.55070 0.35099 -0.14796
 O148 O 0.58927 0.42701 -0.07062
 C149 C 0.58231 0.37300 -0.12734
 O150 O 0.44732 0.58956 -0.18570
 O151 O 0.41019 0.53007 -0.08501
 C152 C 0.41621 0.56962 -0.15785
 O153 O 0.54584 0.60206 -0.18857
 O154 O 0.58700 0.54985 -0.09402
 C155 C 0.57818 0.59170 -0.16231
 O156 O 0.45296 0.33570 -0.13535
 O157 O 0.41295 0.40747 -0.05956
 C158 C 0.42087 0.35320 -0.11424
 Zr159 Zr 0.50173 0.38399 -0.09523
 O160 O 0.49830 0.35652 -0.23882
 O161 O 0.50694 0.27241 -0.06535
 Zr162 Zr 0.49762 0.56505 -0.13063
 O163 O 0.49475 0.54716 -0.27692
 O164 O 0.49580 0.67883 -0.14861
 O165 O 0.53097 0.47572 -0.13383
 O166 O 0.46958 0.46883 -0.12801
 O167 O 0.45557 0.37007 0.18752
 O168 O 0.41420 0.42494 0.09643
 C169 C 0.42324 0.38168 0.16289
 O170 O 0.54860 0.63765 0.14823
 O171 O 0.58748 0.56713 0.06764
 C172 C 0.58062 0.61817 0.12696
 O173 O 0.44860 0.63439 0.14117
 O174 O 0.41122 0.55070 0.07408
 C175 C 0.41710 0.60831 0.12495
 O176 O 0.55341 0.39241 0.19325
 O177 O 0.59038 0.44986 0.09060
 C178 C 0.58439 0.41265 0.16512
 Zr179 Zr 0.50315 0.41463 0.13705
 O180 O 0.49903 0.44049 0.28137
 O181 O 0.50880 0.30456 0.17307
 Zr182 Zr 0.49889 0.59482 0.10158
 O183 O 0.49557 0.61618 0.24682
 O184 O 0.50060 0.70775 0.07598
 Zr185 Zr 0.55303 0.49519 -0.00062
 Zr186 Zr 0.44761 0.48306 0.00543
 O187 O 0.47029 0.50310 0.13775
 O188 O 0.53253 0.51044 0.13525
 O189 O 0.47131 0.38125 0.02516
 O190 O 0.52875 0.59644 -0.01841
 O191 O 0.53355 0.38931 0.02164
 O192 O 0.46613 0.58998 -0.01567
 H193 H 0.45477 0.45950 -0.18322
 H194 H 0.54358 0.64060 -0.02561
 H195 H 0.45452 0.50751 0.19257
 H196 H 0.55048 0.34921 0.02884
 H197 H 0.47439 0.69712 -0.11722
 H198 H 0.47903 0.72005 0.04104
 H199 H 0.51401 0.58733 0.27736
 H200 H 0.52098 0.46575 0.30124
 H201 H 0.50933 0.27624 0.11414
 H202 H 0.48558 0.25694 -0.03116
 H203 H 0.50763 0.39858 -0.27339
 H204 H 0.51589 0.51968 -0.29584
 C205 C 0.37622 0.24816 0.32328
 C206 C 0.34758 0.29182 0.35273
 C207 C 0.34168 0.35811 0.30821
 C208 C 0.36540 0.38459 0.24247
 C209 C 0.39524 0.34484 0.21718
 C210 C 0.39951 0.27389 0.25289
 C211 C 0.38129 0.17801 0.35954
 C212 C 0.40847 0.13425 0.32691
 C213 C 0.43060 0.15858 0.25640
 C214 C 0.42602 0.22724 0.21884
 H215 H 0.36389 0.15580 0.41190
 H216 H 0.41191 0.08057 0.35512
 H217 H 0.45113 0.12367 0.22975
 H218 H 0.44275 0.24227 0.16110
 H219 H 0.31998 0.39234 0.32955
 H220 H 0.36149 0.43856 0.21552
 C221 C -0.16768 0.84920 0.26733
 C222 C -0.15655 0.79944 0.33695
 C223 C -0.12194 0.77329 0.33168
 C224 C -0.09795 0.80020 0.26770
 C225 C -0.10772 0.85150 0.20117
 C226 C -0.14413 0.86852 0.19342
 C227 C -0.20082 0.88338 0.27068
 C228 C -0.21363 0.91993 0.19349
 C229 C -0.19299 0.92638 0.11393
 C230 C -0.15812 0.90359 0.11474
 H231 H -0.21755 0.88069 0.33144
 H232 H -0.23997 0.94187 0.19465
 H233 H -0.20376 0.95082 0.05203
 H234 H -0.14325 0.91032 0.05130
 H235 H -0.11265 0.73381 0.38123
 H236 H -0.07101 0.78187 0.27303
 C237 C 0.66616 0.63089 0.26681
 C238 C 0.65769 0.68880 0.32930
 C239 C 0.62664 0.72779 0.31381
 C240 C 0.60353 0.70860 0.24211
 C241 C 0.61097 0.65130 0.18009
 C242 C 0.64472 0.61742 0.18633
 C243 C 0.69401 0.58266 0.28558
 C244 C 0.70381 0.52990 0.22044
 C245 C 0.68639 0.52455 0.13529
 C246 C 0.65739 0.56808 0.11774
 H247 H 0.70836 0.58490 0.35083
 H248 H 0.72553 0.49421 0.23528
 H249 H 0.69513 0.48587 0.08290
 H250 H 0.64619 0.56377 0.04867
 H251 H 0.61939 0.77205 0.36039
 H252 H 0.57873 0.73695 0.23810
 C253 C 0.13085 1.25723 0.30574
 C254 C 0.16037 1.21438 0.32873
 C255 C 0.16805 1.15330 0.27289
 C256 C 0.14445 1.12884 0.20428
 C257 C 0.11270 1.16511 0.18885
 C258 C 0.10776 1.23403 0.23251
 C259 C 0.12457 1.32412 0.35203
 C260 C 0.09666 1.36784 0.32530
 C261 C 0.07505 1.34672 0.25099
 C262 C 0.08067 1.28093 0.20431
 H263 H 0.14169 1.34393 0.40752
 H264 H 0.09230 1.41915 0.36096
 H265 H 0.05408 1.38189 0.22864
 H266 H 0.06447 1.26854 0.14394
 H267 H 0.19075 1.12028 0.28830
 H268 H 0.14988 1.07813 0.16829
 C269 C 0.63047 0.24936 -0.29795
 C270 C 0.65966 0.29497 -0.31755
 C271 C 0.66688 0.35525 -0.25952
 C272 C 0.64311 0.37607 -0.19059
 C273 C 0.61179 0.33656 -0.17687
 C274 C 0.60735 0.26831 -0.22373
 C275 C 0.62439 0.18424 -0.34905
 C276 C 0.59685 0.13746 -0.32524
 C277 C 0.57546 0.15375 -0.24919
 C278 C 0.58075 0.21808 -0.19835
 H279 H 0.64133 0.16827 -0.40633
 H280 H 0.59263 0.08751 -0.36456
 H281 H 0.55488 0.11604 -0.22887
 H282 H 0.56466 0.22649 -0.13722
 H283 H 0.68956 0.38989 -0.27282
 H284 H 0.64812 0.42624 -0.15249
 C285 C 0.13391 0.75941 -0.29123
 C286 C 0.16170 0.80694 -0.31657
 C287 C 0.16683 0.87182 -0.26624
 C288 C 0.14272 0.89361 -0.19836
 C289 C 0.11229 0.85198 -0.18040
 C290 C 0.10948 0.78120 -0.22094
 C291 C 0.12984 0.69070 -0.33493
 C292 C 0.10304 0.64323 -0.30759
 C293 C 0.08013 0.66305 -0.23608
 C294 C 0.08333 0.73111 -0.19274
 H295 H 0.14772 0.67277 -0.38916
 H296 H 0.10040 0.59035 -0.34094
 H297 H 0.05992 0.62526 -0.21355
 H298 H 0.06596 0.74288 -0.13505
 H299 H 0.18835 0.90820 -0.28408
 H300 H 0.14670 0.94597 -0.16455
 C301 C 0.34981 0.57208 -0.35838
 C302 C 0.33646 0.64353 -0.34727
 C303 C 0.34626 0.68444 -0.26752
 C304 C 0.37050 0.65763 -0.20325
 C305 C 0.38618 0.58994 -0.21766
 C306 C 0.37579 0.54650 -0.29574
 C307 C 0.33788 0.52556 -0.43175
 C308 C 0.35394 0.45929 -0.44918
 C309 C 0.38117 0.43672 -0.39207
 C310 C 0.39128 0.47872 -0.31486
 H311 H 0.31632 0.54051 -0.47690
 H312 H 0.34524 0.42562 -0.50729
 H313 H 0.39391 0.38547 -0.40563
 H314 H 0.41093 0.45678 -0.27024
 H315 H 0.33708 0.73954 -0.25818
 H316 H 0.37862 0.69181 -0.14471
 C317 C -0.12987 1.23577 -0.29224
 C318 C -0.15872 1.18921 -0.31542
 C319 C -0.16511 1.12747 -0.26143
 C320 C -0.14094 1.10666 -0.19362
 C321 C -0.10979 1.14694 -0.17837
 C322 C -0.10606 1.21577 -0.22066
 C323 C -0.12479 1.30296 -0.33724
 C324 C -0.09732 1.34974 -0.31081
 C325 C -0.07499 1.33153 -0.23791
 C326 C -0.07950 1.26570 -0.19242
 H327 H -0.14243 1.32058 -0.39168
 H328 H -0.09386 1.40111 -0.34560
 H329 H -0.05434 1.36897 -0.21571
 H330 H -0.06291 1.25558 -0.13281
 H331 H -0.18719 1.09159 -0.27749
 H332 H -0.14504 1.05512 -0.15955
 C333 C 0.62551 0.73172 -0.31438
 C334 C 0.65633 0.69261 -0.33773
 C335 C 0.66342 0.62794 -0.29080
 C336 C 0.63857 0.59749 -0.23067
 C337 C 0.60646 0.63192 -0.21289
 C338 C 0.60129 0.70278 -0.24843
 C339 C 0.61907 0.80066 -0.35274
 C340 C 0.58988 0.84081 -0.32521
 C341 C 0.56726 0.81428 -0.25711
 C342 C 0.57313 0.74656 -0.21808
 H343 H 0.63700 0.82482 -0.40250
 H344 H 0.58535 0.89363 -0.35491
 H345 H 0.54534 0.84673 -0.23336
 H346 H 0.55629 0.73038 -0.16137
 H347 H 0.68680 0.59716 -0.30758
 H348 H 0.64364 0.54468 -0.20203
 C349 C 0.14010 1.24550 -0.27494
 C350 C 0.15644 1.19448 -0.33513
 C351 C 0.15090 1.12019 -0.32191
 C352 C 0.12824 1.09590 -0.25282
 C353 C 0.11076 1.14502 -0.19432
 C354 C 0.11710 1.22045 -0.20347
 C355 C 0.14574 1.32076 -0.28498
 C356 C 0.12936 1.37024 -0.22497
 C357 C 0.10720 1.34569 -0.15431
 C358 C 0.10106 1.27148 -0.14333
 H359 H 0.16294 1.34169 -0.33875
 H360 H 0.13398 1.42791 -0.23306
 H361 H 0.09475 1.38434 -0.10764
 H362 H 0.08412 1.25434 -0.08687
 H363 H 0.16313 1.08079 -0.36814
 H364 H 0.12254 1.03840 -0.24901
 C365 C 0.37310 0.22541 -0.28577
 C366 C 0.34466 0.27073 -0.30932
 C367 C 0.33755 0.33144 -0.25274
 C368 C 0.36053 0.35264 -0.18121
 C369 C 0.39162 0.31416 -0.16452
 C370 C 0.39625 0.24619 -0.21124
 C371 C 0.37902 0.15982 -0.33510
 C372 C 0.40672 0.11484 -0.31049
 C373 C 0.42850 0.13357 -0.23549
 C374 C 0.42320 0.19812 -0.18567
 H375 H 0.36198 0.14230 -0.39198
 H376 H 0.41091 0.06455 -0.34872
 H377 H 0.44942 0.09755 -0.21517
 H378 H 0.43962 0.20868 -0.12533
 H379 H 0.31570 0.36640 -0.26929
 H380 H 0.35567 0.40381 -0.14561
 C381 C -0.14603 0.89587 -0.34145
 C382 C -0.16082 0.82522 -0.33140
 C383 C -0.15061 0.78300 -0.25542
 C384 C -0.12534 0.80897 -0.19167
 C385 C -0.10831 0.87579 -0.20564
 C386 C -0.11792 0.91893 -0.28244
 C387 C -0.15706 0.94199 -0.41379
 C388 C -0.13844 1.00549 -0.43344
 C389 C -0.10909 1.02519 -0.38024
 C390 C -0.09913 0.98303 -0.30468
 H391 H -0.17964 0.92826 -0.45711
 H392 H -0.14655 1.03882 -0.49105
 H393 H -0.09440 1.07417 -0.39623
 H394 H -0.07647 1.00079 -0.26462
 H395 H -0.16097 0.72836 -0.24801
 H396 H -0.11765 0.77509 -0.13403
 C397 C 0.32937 0.63017 0.25484
 C398 C 0.33963 0.68499 0.32019
 C399 C 0.37157 0.72191 0.30759
 C400 C 0.39486 0.70095 0.23758
 C401 C 0.38683 0.64304 0.17569
 C402 C 0.35200 0.61265 0.17813
 C403 C 0.29742 0.59114 0.26519
 C404 C 0.28637 0.54086 0.19748
 C405 C 0.30659 0.52923 0.11794
 C406 C 0.33890 0.56490 0.10773
 H407 H 0.28054 0.59952 0.32501
 H408 H 0.26157 0.51210 0.20572
 H409 H 0.29724 0.49224 0.06375
 H410 H 0.35245 0.55617 0.04253
 H411 H 0.37964 0.76418 0.35678
 H412 H 0.42038 0.72775 0.23613
 C413 C -0.16799 1.15632 0.26830
 C414 C -0.15577 1.19522 0.34953
 C415 C -0.12017 1.21699 0.35245
 C416 C -0.09639 1.19391 0.28571
 C417 C -0.10704 1.15090 0.20889
 C418 C -0.14381 1.14000 0.19421
 C419 C -0.20297 1.13005 0.25945
 C420 C -0.21560 1.10389 0.17381
 C421 C -0.19319 1.09933 0.09727
 C422 C -0.15737 1.11456 0.10787
 H423 H -0.22108 1.13057 0.31747
 H424 H -0.24296 1.08754 0.16661
 H425 H -0.20336 1.08134 0.03007
 H426 H -0.14100 1.10945 0.04668
 H427 H -0.11003 1.24986 0.41012
 H428 H -0.06894 1.20801 0.29737
 C429 C 0.64839 0.41654 0.36960
 C430 C 0.66525 0.34878 0.35558
 C431 C 0.65816 0.30838 0.27381
 C432 C 0.63344 0.33225 0.20896
 C433 C 0.61436 0.39567 0.22599
 C434 C 0.62177 0.43857 0.30651
 C435 C 0.65626 0.46110 0.44821
 C436 C 0.63658 0.52280 0.46773
 C437 C 0.60948 0.54268 0.40812
 C438 C 0.60237 0.50169 0.32761
 H439 H 0.67735 0.44799 0.49587
 H440 H 0.64228 0.55491 0.52979
 H441 H 0.59418 0.59058 0.42356
 H442 H 0.58145 0.51970 0.28251
 H443 H 0.67028 0.25599 0.26284
 H444 H 0.62752 0.29865 0.14812
 C445 C 0.14379 0.77321 0.28721
 C446 C 0.16129 0.82696 0.34254
 C447 C 0.15597 0.90041 0.32460
 C448 C 0.13234 0.92129 0.25612
 C449 C 0.11337 0.86949 0.20353
 C450 C 0.11968 0.79479 0.21670
 C451 C 0.14905 0.69852 0.30185
 C452 C 0.13155 0.64643 0.24674
 C453 C 0.10848 0.66765 0.17669
 C454 C 0.10245 0.74112 0.16167
 H455 H 0.16681 0.67985 0.35539
 H456 H 0.13600 0.58930 0.25822
 H457 H 0.09519 0.62700 0.13372
 H458 H 0.08459 0.75556 0.10609
 H459 H 0.16891 0.94192 0.36717
 H460 H 0.12698 0.97844 0.24859
   
