data_POSCAR
  _audit_creation_date              2014-09-24
  _audit_creation_method            'ToBaCCo'
  _symmetry_space_group_name_H-M    'P1'
  _symmetry_Int_Tables_number       1
  _symmetry_cell_setting            triclinic
  loop_
  _symmetry_equiv_pos_as_xyz
 x,y,z
_cell_length_a 46.7291
_cell_length_b 46.9172
_cell_length_c 8.7698
_cell_angle_alpha 89.692700
_cell_angle_beta 90.013800
_cell_angle_gamma 89.997400
loop_
  _atom_site_label
  _atom_site_type_symbol
  _atom_site_fract_x
  _atom_site_fract_y
  _atom_site_fract_z
C1 C 0.33840 0.23484 0.34207
 C2 C 0.33804 0.26402 0.34870
 C3 C 0.31002 0.27241 0.32188
 N4 N 0.29334 0.24928 0.29968
 C5 C 0.31055 0.22624 0.31159
 C6 C 0.30074 0.30108 0.31432
 C7 C 0.27240 0.31000 0.28178
 C8 C 0.26446 0.33816 0.25714
 C9 C 0.23570 0.33815 0.22526
 C10 C 0.22666 0.30998 0.23086
 N11 N 0.24909 0.29304 0.26819
 C12 C 0.19828 0.30105 0.20018
 C13 C 0.18939 0.27238 0.18522
 C14 C 0.16183 0.26398 0.14752
 C15 C 0.16208 0.23480 0.14122
 C16 C 0.18980 0.22620 0.17552
 N17 N 0.20635 0.24925 0.20205
 C18 C 0.19886 0.19747 0.18763
 C19 C 0.22707 0.18864 0.22507
 C20 C 0.23474 0.16066 0.25784
 C21 C 0.26350 0.16067 0.28924
 C22 C 0.27288 0.18865 0.27533
 N23 N 0.25059 0.20547 0.23373
 C24 C 0.30154 0.19751 0.30052
 H25 H 0.35702 0.22148 0.35925
 H26 H 0.35639 0.27749 0.37034
 H27 H 0.25183 0.22667 0.20107
 H28 H 0.27804 0.35684 0.25986
 H29 H 0.22299 0.35682 0.19884
 H30 H 0.14346 0.27745 0.12582
 H31 H 0.14386 0.22142 0.11524
 H32 H 0.27603 0.14212 0.32040
 H33 H 0.24817 0.27148 0.29254
 H34 H 0.22098 0.14210 0.26018
 C35 C 0.66127 0.23477 0.34039
 C36 C 0.66155 0.26394 0.34775
 C37 C 0.68955 0.27244 0.32109
 N38 N 0.70629 0.24936 0.29828
 C39 C 0.68914 0.22626 0.30967
 C40 C 0.69874 0.30114 0.31407
 C41 C 0.72707 0.31016 0.28200
 C42 C 0.73492 0.33835 0.25754
 C43 C 0.76371 0.33845 0.22624
 C44 C 0.77285 0.31032 0.23206
 N45 N 0.75046 0.29329 0.26896
 C46 C 0.80129 0.30149 0.20205
 C47 C 0.81026 0.27286 0.18688
 C48 C 0.83789 0.26449 0.15046
 C49 C 0.83766 0.23530 0.14340
 C50 C 0.80991 0.22671 0.17600
 N51 N 0.79328 0.24971 0.20219
 C52 C 0.80089 0.19801 0.18675
 C53 C 0.77272 0.18903 0.22270
 C54 C 0.76518 0.16099 0.25368
 C55 C 0.73639 0.16083 0.28470
 C56 C 0.72690 0.18881 0.27212
 N57 N 0.74915 0.20577 0.23168
 C58 C 0.69823 0.19756 0.29766
 H59 H 0.64267 0.22135 0.35698
 H60 H 0.64317 0.27735 0.36957
 H61 H 0.74787 0.22702 0.20010
 H62 H 0.72127 0.35699 0.25998
 H63 H 0.77636 0.35716 0.19997
 H64 H 0.85631 0.27798 0.13036
 H65 H 0.85593 0.22195 0.11810
 H66 H 0.72392 0.14219 0.31487
 H67 H 0.75145 0.27175 0.29369
 H68 H 0.77902 0.14249 0.25520
 C69 C 0.66198 0.73534 0.65873
 C70 C 0.66223 0.76454 0.65184
 C71 C 0.69019 0.77300 0.67949
 N72 N 0.70693 0.74989 0.70236
 C73 C 0.68981 0.72683 0.68998
 C74 C 0.69938 0.80167 0.68744
 C75 C 0.72771 0.81056 0.71985
 C76 C 0.73557 0.83866 0.74562
 C77 C 0.76437 0.83862 0.77668
 C78 C 0.77351 0.81052 0.76929
 N79 N 0.75110 0.79364 0.73176
 C80 C 0.80197 0.80157 0.79849
 C81 C 0.81095 0.77289 0.81265
 C82 C 0.83862 0.76445 0.84817
 C83 C 0.83843 0.73526 0.85479
 C84 C 0.81063 0.72669 0.82263
 N85 N 0.79397 0.74977 0.79730
 C86 C 0.80157 0.69796 0.81182
 C87 C 0.77328 0.68914 0.77652
 C88 C 0.76549 0.66116 0.74595
 C89 C 0.73669 0.66125 0.71532
 C90 C 0.72744 0.68924 0.72769
 N91 N 0.74979 0.70602 0.76769
 C92 C 0.69886 0.69815 0.70178
 H93 H 0.64341 0.72192 0.64169
 H94 H 0.64384 0.77798 0.62975
 H95 H 0.74862 0.72724 0.79872
 H96 H 0.72192 0.85730 0.74430
 H97 H 0.77703 0.85722 0.80403
 H98 H 0.85706 0.77791 0.86790
 H99 H 0.85674 0.72187 0.87943
 H100 H 0.72408 0.64276 0.68530
 H101 H 0.75212 0.77219 0.70578
 H102 H 0.77920 0.64257 0.74438
 C103 C 0.33723 0.73565 0.64742
 C104 C 0.33751 0.76483 0.65464
 C105 C 0.30979 0.77326 0.68852
 N106 N 0.29270 0.75018 0.70231
 C107 C 0.30936 0.72713 0.67767
 C108 C 0.30079 0.80191 0.70134
 C109 C 0.27225 0.81075 0.72799
 C110 C 0.26297 0.83875 0.71538
 C111 C 0.23422 0.83878 0.74694
 C112 C 0.22648 0.81076 0.77844
 N113 N 0.24995 0.79389 0.76881
 C114 C 0.19824 0.80189 0.81490
 C115 C 0.18913 0.77315 0.82497
 C116 C 0.16127 0.76459 0.85592
 C117 C 0.16098 0.73543 0.84861
 C118 C 0.18869 0.72695 0.81403
 N119 N 0.20576 0.75007 0.79988
 C120 C 0.19769 0.69824 0.80064
 C121 C 0.22629 0.68943 0.77382
 C122 C 0.23571 0.66141 0.78574
 C123 C 0.26447 0.66151 0.75410
 C124 C 0.27206 0.68954 0.72333
 N125 N 0.24856 0.70636 0.73333
 C126 C 0.30025 0.69846 0.68744
 H127 H 0.35553 0.72225 0.62349
 H128 H 0.35601 0.77828 0.63587
 H129 H 0.24733 0.72768 0.70304
 H130 H 0.27552 0.85728 0.68432
 H131 H 0.22048 0.85735 0.74493
 H132 H 0.14298 0.77797 0.88030
 H133 H 0.14248 0.72199 0.86778
 H134 H 0.27827 0.64298 0.75568
 H135 H 0.25113 0.77260 0.79968
 H136 H 0.22323 0.64281 0.81639
 O137 O 1.02854 -0.03182 0.09282
 O138 O 0.97281 0.02254 0.15067
 O139 O 0.97286 -0.03175 0.09056
 O140 O 1.02855 0.02253 0.15208
 O141 O 1.02879 0.03198 -0.09518
 O142 O 0.97310 -0.02228 -0.15669
 O143 O 0.97307 0.03202 -0.09658
 O144 O 1.02883 -0.02236 -0.15445
 Cu145 Cu 1.00067 -0.00562 0.14617
 Cu146 Cu 1.00098 0.00584 -0.15035
 C147 C 1.03807 -0.03630 -0.04025
 C148 C 0.96353 0.03647 0.03655
 C149 C 0.96360 -0.03620 -0.04313
 C150 C 1.03806 0.03643 0.03845
 O151 O 0.47190 0.47745 0.35046
 O152 O 0.52764 0.53171 0.41164
 O153 O 0.52763 0.47741 0.35137
 O154 O 0.47194 0.53179 0.40983
 O155 O 0.47170 0.52233 0.65710
 O156 O 0.52741 0.46792 0.59861
 O157 O 0.52745 0.52223 0.65889
 O158 O 0.47173 0.46800 0.59773
 Cu159 Cu 0.49980 0.50559 0.35619
 Cu160 Cu 0.49955 0.49412 0.65271
 C161 C 0.46242 0.46354 0.46415
 C162 C 0.53694 0.53615 0.54527
 C163 C 0.53690 0.46345 0.46541
 C164 C 0.46242 0.53626 0.54295
 O165 O -0.02777 0.53246 0.09474
 O166 O 0.02794 0.47804 0.15529
 O167 O 0.02794 0.53238 0.09276
 O168 O -0.02779 0.47810 0.15672
 O169 O -0.02801 0.46874 -0.09011
 O170 O 0.02769 0.52301 -0.15405
 O171 O 0.02766 0.46867 -0.09154
 O172 O -0.02805 0.52309 -0.15207
 Cu173 Cu 0.00011 0.50624 0.14946
 Cu174 Cu -0.00020 0.49489 -0.14650
 C175 C -0.03731 0.53697 -0.03860
 C176 C 0.03718 0.46413 0.04180
 C177 C 0.03721 0.53688 -0.04110
 C178 C -0.03728 0.46423 0.04371
 O179 O 0.47224 1.03223 0.58759
 O180 O 0.52795 0.97782 0.64865
 O181 O 0.52795 1.03215 0.58625
 O182 O 0.47221 0.97792 0.65044
 O183 O 0.47197 0.96846 0.40371
 O184 O 0.52773 1.02271 0.33951
 O185 O 0.52767 0.96837 0.40192
 O186 O 0.47196 1.02278 0.34085
 Cu187 Cu 0.50012 1.00603 0.64280
 Cu188 Cu 0.49981 0.99459 0.34691
 C189 C 0.46270 1.03670 0.45422
 C190 C 0.53720 0.96389 0.53531
 C191 C 0.53725 1.03660 0.45241
 C192 C 0.46269 0.96401 0.53760
 C193 C 1.13865 0.13645 0.13358
 C194 C 1.11138 0.14739 0.05527
 C195 C 1.09096 0.12697 0.03691
 C196 C 1.09982 0.09759 0.09873
 C197 C 1.10797 0.10271 0.26592
 C198 C 1.12840 0.12314 0.28429
 C199 C 1.14857 0.11117 0.03655
 C200 C 1.12815 0.09074 0.01823
 C201 C 1.16058 0.15847 0.15297
 C202 C 1.17852 0.17668 0.16889
 C203 C 1.07781 0.07563 0.07865
 C204 C 1.05968 0.05767 0.06108
 H205 H 1.10835 0.16928 0.01781
 H206 H 1.07043 0.13135 -0.01623
 H207 H 1.09853 0.09129 0.36141
 H208 H 1.13647 0.12923 0.39557
 H209 H 1.16977 0.10946 -0.01325
 H210 H 1.13185 0.07152 -0.04726
 C211 C 0.63758 0.63604 0.64195
 C212 C 0.62538 0.62450 0.79265
 C213 C 0.60495 0.60410 0.77381
 C214 C 0.59873 0.59723 0.60613
 C215 C 0.62786 0.58923 0.53767
 C216 C 0.64829 0.60964 0.55653
 C217 C 0.61143 0.64638 0.55127
 C218 C 0.59101 0.62597 0.53241
 C219 C 0.65950 0.65803 0.66241
 C220 C 0.67743 0.67620 0.67985
 C221 C 0.57671 0.57531 0.58566
 C222 C 0.55857 0.55737 0.56793
 H223 H 0.63219 0.63173 0.90428
 H224 H 0.59425 0.59385 0.86934
 H225 H 0.63208 0.56928 0.47970
 H226 H 0.67002 0.60719 0.51476
 H227 H 0.60914 0.66786 0.50619
 H228 H 0.57121 0.62997 0.47109
 C229 C -0.13761 0.36388 0.14195
 C230 C -0.12518 0.37491 0.29253
 C231 C -0.10482 0.39542 0.27361
 C232 C -0.09890 0.40289 0.10595
 C233 C -0.12816 0.41107 0.03923
 C234 C -0.14852 0.39055 0.05813
 C235 C -0.11160 0.35391 0.04962
 C236 C -0.09125 0.37442 0.03070
 C237 C -0.15946 0.34177 0.16250
 C238 C -0.17732 0.32352 0.18001
 C239 C -0.07696 0.42493 0.08531
 C240 C -0.05887 0.44294 0.06722
 H241 H -0.13179 0.36728 0.40418
 H242 H -0.09397 0.40536 0.36902
 H243 H -0.13251 0.43121 -0.01778
 H244 H -0.17031 0.39311 0.01726
 H245 H -0.10932 0.33258 0.00368
 H246 H -0.07152 0.37066 -0.03136
 C247 C 0.36205 0.86413 0.64056
 C248 C 0.35133 0.89051 0.55342
 C249 C 0.37176 0.91092 0.53327
 C250 C 0.40089 0.90294 0.60228
 C251 C 0.40862 0.87419 0.53043
 C252 C 0.38821 0.85378 0.55060
 C253 C 0.37424 0.87570 0.79055
 C254 C 0.39467 0.89611 0.77042
 C255 C 0.34013 0.84212 0.66192
 C256 C 0.32221 0.82391 0.67950
 C257 C 0.42291 0.92486 0.58036
 C258 C 0.44105 0.94279 0.56149
 H259 H 0.32960 0.89297 0.51154
 H260 H 0.36754 0.93085 0.47397
 H261 H 0.42841 0.87020 0.46922
 H262 H 0.39050 0.83230 0.50680
 H263 H 0.36743 0.86850 0.90267
 H264 H 0.40537 0.90638 0.86526
 C265 C -0.13811 0.63696 -0.13359
 C266 C -0.12731 0.62450 -0.28444
 C267 C -0.10682 0.60408 -0.26615
 C268 C -0.09917 0.59814 -0.09872
 C269 C -0.12771 0.59072 -0.02141
 C270 C -0.14819 0.61113 -0.03982
 C271 C -0.11115 0.64765 -0.05184
 C272 C -0.09069 0.62723 -0.03341
 C273 C -0.16009 0.65896 -0.15321
 C274 C -0.17807 0.67716 -0.16941
 C275 C -0.07711 0.57620 -0.07868
 C276 C -0.05895 0.55824 -0.06111
 H277 H -0.13507 0.63113 -0.39579
 H278 H -0.09701 0.59324 -0.36188
 H279 H -0.13149 0.57117 0.04225
 H280 H -0.16954 0.60904 0.00770
 H281 H -0.10834 0.66937 -0.01250
 H282 H -0.07035 0.63145 0.02201
 C283 C 0.36179 1.13655 0.35849
 C284 C 0.38597 1.14536 0.46699
 C285 C 0.40645 1.12497 0.48557
 C286 C 0.40076 1.09777 0.39382
 C287 C 0.39735 1.10792 0.22812
 C288 C 0.37686 1.12832 0.20958
 C289 C 0.35026 1.10841 0.42400
 C290 C 0.37075 1.08801 0.44262
 C291 C 0.33981 1.15853 0.33828
 C292 C 0.32185 1.17671 0.32102
 C293 C 0.42284 1.07586 0.41405
 C294 C 0.44103 1.05793 0.43163
 H295 H 0.38695 1.16584 0.52380
 H296 H 0.42500 1.12798 0.55831
 H297 H 0.40994 1.09984 0.13377
 H298 H 0.37191 1.13773 0.09929
 H299 H 0.32796 1.10481 0.45316
 H300 H 0.36602 1.06693 0.48764
 C301 C 1.13826 -0.13690 -0.12991
 C302 C 1.11088 -0.14763 -0.05186
 C303 C 1.09057 -0.12706 -0.03446
 C304 C 1.09962 -0.09779 -0.09689
 C305 C 1.10786 -0.10311 -0.26376
 C306 C 1.12818 -0.12367 -0.28109
 C307 C 1.14826 -0.11159 -0.03333
 C308 C 1.12793 -0.09102 -0.01593
 C309 C 1.16008 -0.15904 -0.14890
 C310 C 1.17796 -0.17730 -0.16539
 C311 C 1.07772 -0.07570 -0.07806
 C312 C 1.05965 -0.05764 -0.06161
 H313 H 1.10771 -0.16947 -0.01393
 H314 H 1.06998 -0.13128 0.01842
 H315 H 1.09854 -0.09174 -0.35984
 H316 H 1.13629 -0.12990 -0.39201
 H317 H 1.16944 -0.10995 0.01682
 H318 H 1.13169 -0.07177 0.04930
 C319 C 0.63735 0.36328 0.37039
 C320 C 0.60996 0.35227 0.44726
 C321 C 0.58958 0.37271 0.46598
 C322 C 0.59857 0.40217 0.40593
 C323 C 0.60689 0.39733 0.23875
 C324 C 0.62729 0.37688 0.22005
 C325 C 0.64722 0.38837 0.46901
 C326 C 0.62682 0.40882 0.48770
 C327 C 0.65926 0.34125 0.35052
 C328 C 0.67721 0.32307 0.33421
 C329 C 0.57659 0.42416 0.42622
 C330 C 0.55849 0.44215 0.44359
 H331 H 0.60686 0.33033 0.48376
 H332 H 0.56900 0.36830 0.51856
 H333 H 0.59757 0.40892 0.14350
 H334 H 0.63546 0.37096 0.10874
 H335 H 0.66838 0.38996 0.51936
 H336 H 0.63051 0.42793 0.55414
 C337 C 0.86316 -0.13626 -0.14079
 C338 C 0.88928 -0.14656 -0.04982
 C339 C 0.90966 -0.12612 -0.03071
 C340 C 0.90193 -0.09739 -0.10449
 C341 C 0.87275 -0.08943 -0.03638
 C342 C 0.85237 -0.10988 -0.05546
 C343 C 0.87539 -0.12469 -0.29134
 C344 C 0.89578 -0.10425 -0.27224
 C345 C 0.84127 -0.15828 -0.16152
 C346 C 0.82338 -0.17647 -0.17921
 C347 C 0.92390 -0.07542 -0.08378
 C348 C 0.94201 -0.05746 -0.06591
 H349 H 0.89159 -0.16804 -0.00474
 H350 H 0.92945 -0.13008 0.03074
 H351 H 0.86847 -0.06948 0.02151
 H352 H 0.83062 -0.10745 -0.01394
 H353 H 0.86864 -0.13192 -0.40307
 H354 H 0.90651 -0.09399 -0.36761
 C355 C 0.36202 0.36335 0.36940
 C356 C 0.38976 0.35221 0.44215
 C357 C 0.41013 0.37268 0.46048
 C358 C 0.40078 0.40229 0.40424
 C359 C 0.37283 0.40853 0.48977
 C360 C 0.35246 0.38805 0.47150
 C361 C 0.37142 0.37747 0.21921
 C362 C 0.39180 0.39795 0.23761
 C363 C 0.34014 0.34129 0.34999
 C364 C 0.32222 0.32307 0.33408
 C365 C 0.42273 0.42429 0.42425
 C366 C 0.44083 0.44228 0.44169
 H367 H 0.39310 0.33017 0.47614
 H368 H 0.43095 0.36817 0.51008
 H369 H 0.36935 0.42739 0.55855
 H370 H 0.33152 0.38935 0.52471
 H371 H 0.36285 0.37187 0.10826
 H372 H 0.40068 0.40992 0.14249
 C373 C 0.13765 0.63705 -0.14189
 C374 C 0.12466 0.62642 -0.29199
 C375 C 0.10429 0.60594 -0.27241
 C376 C 0.09890 0.59811 -0.10467
 C377 C 0.09163 0.62642 -0.02682
 C378 C 0.11199 0.64690 -0.04639
 C379 C 0.14873 0.61014 -0.06094
 C380 C 0.12836 0.58967 -0.04136
 C381 C 0.15952 0.65913 -0.16260
 C382 C 0.17741 0.67739 -0.17952
 C383 C 0.07694 0.57611 -0.08330
 C384 C 0.05883 0.55813 -0.06478
 H385 H 0.13093 0.63427 -0.40379
 H386 H 0.09308 0.59625 -0.36738
 H387 H 0.07217 0.63008 0.03781
 H388 H 0.10998 0.66810 0.00149
 H389 H 0.17067 0.60739 -0.02269
 H390 H 0.13283 0.56937 0.01366
 C391 C 0.63810 1.13646 0.35500
 C392 C 0.62452 1.12667 0.20475
 C393 C 0.60406 1.10626 0.22335
 C394 C 0.59918 1.09764 0.39043
 C395 C 0.59240 1.12561 0.47297
 C396 C 0.61286 1.14603 0.45435
 C397 C 0.64924 1.10909 0.43107
 C398 C 0.62878 1.08867 0.44972
 C399 C 0.66006 1.15847 0.33481
 C400 C 0.67798 1.17670 0.31773
 C401 C 0.57712 1.07571 0.41081
 C402 C 0.55893 1.05779 0.42883
 H403 H 0.63044 1.13506 0.09354
 H404 H 0.59244 1.09716 0.12809
 H405 H 0.57315 1.12911 0.53963
 H406 H 0.61115 1.16702 0.50507
 H407 H 0.67126 1.10601 0.46712
 H408 H 0.63326 1.06809 0.50168
 C409 C 0.13722 0.36345 0.13865
 C410 C 0.14856 0.39062 0.06139
 C411 C 0.12827 0.41121 0.04242
 C412 C 0.09864 0.40259 0.10258
 C413 C 0.10357 0.39414 0.26986
 C414 C 0.12385 0.37355 0.28879
 C415 C 0.11182 0.35400 0.04012
 C416 C 0.09153 0.37458 0.02116
 C417 C 0.15901 0.34129 0.15940
 C418 C 0.17686 0.32303 0.17735
 C419 C 0.07677 0.42470 0.08204
 C420 C 0.05873 0.44278 0.06436
 H421 H 0.17060 0.39347 0.02511
 H422 H 0.13292 0.43171 -0.01002
 H423 H 0.09212 0.40348 0.36502
 H424 H 0.12979 0.36526 0.40020
 H425 H 0.10990 0.33298 -0.01005
 H426 H 0.07223 0.37120 -0.04524
 C427 C 0.63791 0.86384 0.63156
 C428 C 0.62736 0.87663 0.78216
 C429 C 0.60690 0.89706 0.76359
 C430 C 0.59901 0.90269 0.59617
 C431 C 0.59035 0.87349 0.53291
 C432 C 0.61080 0.85306 0.55158
 C433 C 0.64790 0.88946 0.53590
 C434 C 0.62744 0.90989 0.51722
 C435 C 0.65988 0.84183 0.65138
 C436 C 0.67785 0.82364 0.66761
 C437 C 0.57697 0.92465 0.57583
 C438 C 0.55883 0.94262 0.55804
 H439 H 0.63527 0.87020 0.89356
 H440 H 0.59726 0.90812 0.85910
 H441 H 0.56993 0.86922 0.47850
 H442 H 0.60788 0.83127 0.51345
 H443 H 0.66919 0.89142 0.48737
 H444 H 0.63118 0.92932 0.45238
 C445 C 0.86253 0.13610 0.13072
 C446 C 0.87262 0.12257 0.28113
 C447 C 0.89315 0.10225 0.26262
 C448 C 0.90156 0.09745 0.09551
 C449 C 0.91039 0.12696 0.03551
 C450 C 0.88987 0.14729 0.05408
 C451 C 0.85284 0.11097 0.03200
 C452 C 0.87337 0.09064 0.01348
 C453 C 0.84049 0.15801 0.15049
 C454 C 0.82246 0.17612 0.16675
 C455 C 0.92367 0.07560 0.07539
 C456 C 0.94186 0.05769 0.05815
 H457 H 0.86438 0.12844 0.39236
 H458 H 0.90251 0.09070 0.35797
 H459 H 0.93096 0.13150 -0.01678
 H460 H 0.89286 0.16925 0.01777
 H461 H 0.83171 0.10925 -0.01855
 H462 H 0.86983 0.07152 -0.05310
 C463 C 0.36168 0.63632 0.63220
 C464 C 0.38917 0.64732 0.55626
 C465 C 0.40962 0.62689 0.53905
 C466 C 0.40059 0.59747 0.59947
 C467 C 0.37247 0.59071 0.51656
 C468 C 0.35201 0.61114 0.53376
 C469 C 0.37153 0.62288 0.78332
 C470 C 0.39199 0.60245 0.76611
 C471 C 0.33972 0.65834 0.65097
 C472 C 0.32176 0.67652 0.66709
 C473 C 0.42262 0.57550 0.58076
 C474 C 0.44078 0.55753 0.56435
 H475 H 0.39231 0.66924 0.51963
 H476 H 0.43031 0.63131 0.48780
 H477 H 0.36894 0.57155 0.45020
 H478 H 0.33095 0.60951 0.48212
 H479 H 0.36317 0.62889 0.89409
 H480 H 0.40117 0.59096 0.86210
   
