data_POSCAR
  _audit_creation_date              2014-09-24
  _audit_creation_method            'ToBaCCo'
  _symmetry_space_group_name_H-M    'P1'
  _symmetry_Int_Tables_number       1
  _symmetry_cell_setting            triclinic
  loop_
  _symmetry_equiv_pos_as_xyz
 x,y,z
_cell_length_a 63.7735
_cell_length_b 63.7944
_cell_length_c 63.8105
_cell_angle_alpha 89.971000
_cell_angle_beta 89.996200
_cell_angle_gamma 89.989100
loop_
  _atom_site_label
  _atom_site_type_symbol
  _atom_site_fract_x
  _atom_site_fract_y
  _atom_site_fract_z
C1 C 0.19143 0.22061 0.21451
 C2 C 0.20314 0.22650 0.19686
 C3 C 0.22056 0.21490 0.19102
 C4 C 0.22648 0.19728 0.20276
 C5 C 0.21490 0.19146 0.22020
 C6 C 0.19727 0.20320 0.22611
 C7 C 0.17379 0.22891 0.22379
 N8 N 0.16894 0.21692 0.24062
 C9 C 0.18309 0.20118 0.24226
 C10 C 0.22418 0.17382 0.22849
 N11 N 0.24099 0.16894 0.21648
 C12 C 0.24262 0.18308 0.20073
 C13 C 0.22883 0.22417 0.17336
 N14 N 0.21681 0.24099 0.16850
 C15 C 0.20109 0.24263 0.18266
 H16 H 0.16511 0.24259 0.21871
 H17 H 0.18303 0.18919 0.25428
 H18 H 0.21912 0.16516 0.24219
 H19 H 0.25462 0.18299 0.18873
 H20 H 0.24251 0.21909 0.16468
 H21 H 0.18909 0.25464 0.18259
 C22 C 0.69142 0.72054 0.71481
 C23 C 0.70314 0.72645 0.69718
 C24 C 0.72056 0.71486 0.69133
 C25 C 0.72647 0.69722 0.70305
 C26 C 0.71489 0.69138 0.72048
 C27 C 0.69726 0.70311 0.72639
 C28 C 0.67377 0.72882 0.72410
 N29 N 0.66891 0.71680 0.74091
 C30 C 0.68307 0.70106 0.74253
 C31 C 0.72416 0.67372 0.72875
 N32 N 0.74097 0.66885 0.71673
 C33 C 0.74260 0.68301 0.70100
 C34 C 0.72882 0.72413 0.67367
 N35 N 0.71681 0.74095 0.66882
 C36 C 0.70108 0.74259 0.68299
 H37 H 0.66508 0.74250 0.71903
 H38 H 0.68300 0.68905 0.75453
 H39 H 0.71908 0.66504 0.74243
 H40 H 0.75460 0.68293 0.68899
 H41 H 0.74250 0.71905 0.66499
 H42 H 0.68908 0.75460 0.68292
 C43 C 0.30794 0.77979 0.71495
 C44 C 0.29621 0.77391 0.69732
 C45 C 0.27882 0.78555 0.69146
 C46 C 0.27295 0.80320 0.70316
 C47 C 0.28455 0.80901 0.72059
 C48 C 0.30214 0.79723 0.72651
 C49 C 0.32555 0.77144 0.72426
 N50 N 0.33043 0.78344 0.74107
 C51 C 0.31632 0.79922 0.74267
 C52 C 0.27531 0.82668 0.72886
 N53 N 0.25851 0.83158 0.71683
 C54 C 0.25683 0.81743 0.70110
 C55 C 0.27052 0.77627 0.67383
 N56 N 0.28248 0.75941 0.66900
 C57 C 0.29821 0.75775 0.68317
 H58 H 0.33418 0.75773 0.71921
 H59 H 0.31641 0.81122 0.75467
 H60 H 0.28041 0.83533 0.74255
 H61 H 0.24483 0.81752 0.68909
 H62 H 0.25685 0.78137 0.66514
 H63 H 0.31017 0.74570 0.68313
 C64 C 0.80903 0.27941 0.21488
 C65 C 0.79736 0.27349 0.19723
 C66 C 0.77994 0.28506 0.19133
 C67 C 0.77397 0.30268 0.20302
 C68 C 0.78550 0.30854 0.22047
 C69 C 0.80314 0.29684 0.22644
 C70 C 0.82666 0.27114 0.22422
 N71 N 0.83144 0.28317 0.24104
 C72 C 0.81727 0.29890 0.24263
 C73 C 0.77617 0.32617 0.22870
 N74 N 0.75937 0.33101 0.21665
 C75 C 0.75781 0.31685 0.20092
 C76 C 0.77171 0.27576 0.17368
 N77 N 0.78375 0.25895 0.16887
 C78 C 0.79946 0.25734 0.18307
 H79 H 0.83536 0.25745 0.21917
 H80 H 0.81727 0.31091 0.25462
 H81 H 0.78118 0.33485 0.24239
 H82 H 0.74583 0.31690 0.18889
 H83 H 0.75804 0.28081 0.16497
 H84 H 0.81147 0.24534 0.18305
 C85 C 0.80933 0.72090 0.28439
 C86 C 0.79762 0.72685 0.30202
 C87 C 0.78019 0.71528 0.30790
 C88 C 0.77427 0.69762 0.29624
 C89 C 0.78584 0.69174 0.27883
 C90 C 0.80347 0.70344 0.27286
 C91 C 0.82696 0.72916 0.27506
 N92 N 0.83178 0.71710 0.25827
 C93 C 0.81763 0.70135 0.25670
 C94 C 0.77653 0.67408 0.27060
 N95 N 0.75971 0.66927 0.28264
 C96 C 0.75811 0.68346 0.29834
 C97 C 0.77192 0.72461 0.32552
 N98 N 0.78393 0.74144 0.33031
 C99 C 0.79966 0.74303 0.31615
 H100 H 0.83563 0.74287 0.28009
 H101 H 0.81765 0.68932 0.24473
 H102 H 0.78157 0.66538 0.25694
 H103 H 0.74611 0.68343 0.31034
 H104 H 0.75823 0.71956 0.33421
 H105 H 0.81165 0.75504 0.31617
 C106 C 0.30882 0.22029 -0.21516
 C107 C 0.29701 0.22628 -0.19762
 C108 C 0.27957 0.21471 -0.19178
 C109 C 0.27373 0.19701 -0.20342
 C110 C 0.28541 0.19108 -0.22077
 C111 C 0.30306 0.20279 -0.22667
 C112 C 0.32650 0.22856 -0.22441
 N113 N 0.33143 0.21646 -0.24114
 C114 C 0.31731 0.20068 -0.24275
 C115 C 0.27617 0.17339 -0.22899
 N116 N 0.25930 0.16859 -0.21702
 C117 C 0.25758 0.18282 -0.20136
 C118 C 0.27120 0.22408 -0.17424
 N119 N 0.28316 0.24094 -0.16944
 C120 C 0.29897 0.24251 -0.18353
 H121 H 0.33512 0.24229 -0.21937
 H122 H 0.31743 0.18862 -0.25468
 H123 H 0.28132 0.16466 -0.24261
 H124 H 0.24552 0.18284 -0.18941
 H125 H 0.25748 0.21905 -0.16560
 H126 H 0.31095 0.25453 -0.18348
 C127 C 0.69137 0.27944 -0.21512
 C128 C 0.70315 0.27349 -0.19755
 C129 C 0.72059 0.28506 -0.19175
 C130 C 0.72646 0.30272 -0.20345
 C131 C 0.71481 0.30861 -0.22082
 C132 C 0.69716 0.29690 -0.22670
 C133 C 0.67370 0.27115 -0.22436
 N134 N 0.66879 0.28320 -0.24115
 C135 C 0.68293 0.29897 -0.24280
 C136 C 0.72408 0.32627 -0.22911
 N137 N 0.74094 0.33108 -0.21714
 C138 C 0.74263 0.31689 -0.20143
 C139 C 0.72895 0.27573 -0.17416
 N140 N 0.71697 0.25889 -0.16930
 C141 C 0.70117 0.25730 -0.18340
 H142 H 0.66506 0.25744 -0.21928
 H143 H 0.68284 0.31100 -0.25479
 H144 H 0.71895 0.33496 -0.24277
 H145 H 0.75468 0.31690 -0.18946
 H146 H 0.74267 0.28078 -0.16553
 H147 H 0.68918 0.24528 -0.18332
 C148 C 0.19129 0.77972 0.28480
 C149 C 0.20296 0.77379 0.30246
 C150 C 0.22038 0.78535 0.30836
 C151 C 0.22634 0.80299 0.29667
 C152 C 0.21481 0.80885 0.27921
 C153 C 0.19718 0.79715 0.27324
 C154 C 0.17367 0.77146 0.27546
 N155 N 0.16888 0.78348 0.25863
 C156 C 0.18305 0.79921 0.25705
 C157 C 0.22414 0.82649 0.27095
 N158 N 0.24094 0.83130 0.28302
 C159 C 0.24251 0.81714 0.29876
 C160 C 0.22860 0.77603 0.32602
 N161 N 0.21656 0.75922 0.33082
 C162 C 0.20086 0.75763 0.31662
 H163 H 0.16498 0.75777 0.28049
 H164 H 0.18304 0.81121 0.24504
 H165 H 0.21911 0.83516 0.25724
 H166 H 0.25449 0.81716 0.31080
 H167 H 0.24227 0.78107 0.33473
 H168 H 0.18885 0.74563 0.31664
 C169 C 0.47054 0.44117 0.46518
 C170 C 0.47648 0.45289 0.44756
 C171 C 0.46489 0.47031 0.44169
 C172 C 0.44722 0.47621 0.45337
 C173 C 0.44136 0.46463 0.47079
 C174 C 0.45309 0.44700 0.47673
 C175 C 0.47883 0.42354 0.47451
 N176 N 0.46679 0.41869 0.49131
 C177 C 0.45103 0.43283 0.49289
 C178 C 0.42369 0.47391 0.47903
 N179 N 0.41885 0.49072 0.46701
 C180 C 0.43303 0.49235 0.45130
 C181 C 0.47420 0.47860 0.42407
 N182 N 0.49105 0.46660 0.41925
 C183 C 0.49266 0.45087 0.43341
 H184 H 0.49254 0.41488 0.46948
 H185 H 0.43901 0.43277 0.50487
 H186 H 0.41500 0.46885 0.49271
 H187 H 0.43298 0.50436 0.43930
 H188 H 0.46914 0.49228 0.41538
 H189 H 0.50469 0.43888 0.43338
 C190 C -0.02953 -0.05899 0.96508
 C191 C -0.02352 -0.04721 0.94752
 C192 C -0.03506 -0.02974 0.94170
 C193 C -0.05273 -0.02384 0.95337
 C194 C -0.05867 -0.03549 0.97073
 C195 C -0.04700 -0.05317 0.97662
 C196 C -0.02129 -0.07668 0.97434
 N197 N -0.03338 -0.08157 0.99110
 C198 C -0.04912 -0.06740 0.99272
 C199 C -0.07633 -0.02619 0.97899
 N200 N -0.08109 -0.00931 0.96701
 C201 C -0.06687 -0.00765 0.95133
 C202 C -0.02568 -0.02140 0.92414
 N203 N -0.00885 -0.03341 0.91931
 C204 C -0.00731 -0.04921 0.93341
 H205 H -0.00758 -0.08534 0.96929
 H206 H -0.06118 -0.06747 1.00468
 H207 H -0.08506 -0.03131 0.99263
 H208 H -0.06684 0.00441 0.93937
 H209 H -0.03068 -0.00766 0.91550
 H210 H 0.00469 -0.06123 0.93335
 C211 C 1.02950 0.55885 0.96519
 C212 C 1.02355 0.54708 0.94762
 C213 C 1.03515 0.52967 0.94178
 C214 C 1.05284 0.52381 0.95345
 C215 C 1.05873 0.53544 0.97082
 C216 C 1.04699 0.55307 0.97673
 C217 C 1.02120 0.57649 0.97447
 N218 N 1.03326 0.58139 0.99123
 C219 C 1.04906 0.56728 0.99284
 C220 C 1.07642 0.52619 0.97907
 N221 N 1.08123 0.50935 0.96708
 C222 C 1.06703 0.50766 0.95139
 C223 C 1.02580 0.52132 0.92421
 N224 N 1.00893 0.53328 0.91940
 C225 C 1.00733 0.54905 0.93351
 H226 H 1.00746 0.58511 0.96942
 H227 H 1.06111 0.56737 1.00481
 H228 H 1.08512 0.53130 0.99272
 H229 H 1.06704 0.49563 0.93942
 H230 H 1.03086 0.50762 0.91557
 H231 H 0.99529 0.56102 0.93346
 C232 C 0.52980 0.05839 0.46528
 C233 C 0.52383 0.04669 0.44766
 C234 C 0.53543 0.02930 0.44175
 C235 C 0.55313 0.02339 0.45338
 C236 C 0.55903 0.03496 0.47079
 C237 C 0.54729 0.05256 0.47677
 C238 C 0.52151 0.07598 0.47464
 N239 N 0.53357 0.08082 0.49141
 C240 C 0.54936 0.06670 0.49294
 C241 C 0.57672 0.02568 0.47900
 N242 N 0.58153 0.00888 0.46694
 C243 C 0.56732 0.00726 0.45126
 C244 C 0.52606 0.02102 0.42416
 N245 N 0.50918 0.03299 0.41940
 C246 C 0.50760 0.04871 0.43357
 H247 H 0.50777 0.08463 0.46966
 H248 H 0.56140 0.06676 0.50490
 H249 H 0.58543 0.03074 0.49266
 H250 H 0.56732 -0.00474 0.43924
 H251 H 0.53111 0.00735 0.41546
 H252 H 0.49555 0.06068 0.43359
 C253 C -0.02935 0.05893 0.53546
 C254 C -0.02342 0.04722 0.55309
 C255 C -0.03497 0.02978 0.55895
 C256 C -0.05261 0.02384 0.54724
 C257 C -0.05847 0.03542 0.52981
 C258 C -0.04677 0.05307 0.52389
 C259 C -0.02110 0.07658 0.52616
 N260 N -0.03312 0.08142 0.50935
 C261 C -0.04884 0.06724 0.50774
 C262 C -0.07610 0.02611 0.52154
 N263 N -0.08093 0.00929 0.53355
 C264 C -0.06677 0.00768 0.54928
 C265 C -0.02566 0.02151 0.57658
 N266 N -0.00886 0.03354 0.58142
 C267 C -0.00726 0.04928 0.56726
 H268 H -0.00742 0.08527 0.53121
 H269 H -0.06084 0.06728 0.49574
 H270 H -0.08478 0.03117 0.50786
 H271 H -0.06681 -0.00434 0.56128
 H272 H -0.03070 0.00782 0.58526
 H273 H 0.00473 0.06129 0.56732
 C274 C 0.47038 0.55909 0.03497
 C275 C 0.47628 0.54735 0.05260
 C276 C 0.46469 0.52992 0.05843
 C277 C 0.44707 0.52401 0.04669
 C278 C 0.44124 0.53560 0.02927
 C279 C 0.45296 0.55324 0.02337
 C280 C 0.47868 0.57673 0.02569
 N281 N 0.46667 0.58157 0.00886
 C282 C 0.45093 0.56742 0.00721
 C283 C 0.42362 0.52631 0.02096
 N284 N 0.41876 0.50948 0.03296
 C285 C 0.43290 0.50785 0.04871
 C286 C 0.47398 0.52163 0.07607
 N287 N 0.49079 0.53363 0.08093
 C288 C 0.49242 0.54938 0.06679
 H289 H 0.49237 0.58539 0.03078
 H290 H 0.43893 0.56746 -0.00481
 H291 H 0.41496 0.53138 0.00727
 H292 H 0.43283 0.49583 0.06070
 H293 H 0.46891 0.50793 0.08472
 H294 H 0.50444 0.56138 0.06686
 C295 C 0.52968 -0.05871 0.03543
 C296 C 0.52380 -0.04702 0.05308
 C297 C 0.53541 -0.02962 0.05893
 C298 C 0.55303 -0.02370 0.04719
 C299 C 0.55884 -0.03526 0.02975
 C300 C 0.54710 -0.05287 0.02383
 C301 C 0.52137 -0.07633 0.02613
 N302 N 0.53336 -0.08116 0.00929
 C303 C 0.54911 -0.06702 0.00766
 C304 C 0.57648 -0.02597 0.02146
 N305 N 0.58137 -0.00918 0.03347
 C306 C 0.56724 -0.00757 0.04923
 C307 C 0.52614 -0.02137 0.07659
 N308 N 0.50932 -0.03338 0.08145
 C309 C 0.50767 -0.04908 0.06727
 H310 H 0.50768 -0.08500 0.03120
 H311 H 0.56109 -0.06707 -0.00436
 H312 H 0.58514 -0.03102 0.00775
 H313 H 0.56732 0.00442 0.06124
 H314 H 0.53122 -0.00770 0.08528
 H315 H 0.49565 -0.06107 0.06733
 C316 C 1.02964 0.44179 0.53515
 C317 C 1.02376 0.45342 0.55284
 C318 C 1.03535 0.47083 0.55873
 C319 C 1.05295 0.47681 0.54699
 C320 C 1.05875 0.46531 0.52949
 C321 C 1.04703 0.44770 0.52355
 C322 C 1.02134 0.42420 0.52581
 N323 N 1.03331 0.41943 0.50894
 C324 C 1.04903 0.43360 0.50733
 C325 C 1.07637 0.47465 0.52119
 N326 N 1.08123 0.49142 0.53326
 C327 C 1.06712 0.49297 0.54906
 C328 C 1.02609 0.47902 0.57643
 N329 N 1.00929 0.46697 0.58127
 C330 C 1.00765 0.45130 0.56705
 H331 H 1.00767 0.41549 0.53088
 H332 H 1.06100 0.43360 0.49529
 H333 H 1.08499 0.46964 0.50745
 H334 H 1.06719 0.50492 0.56111
 H335 H 1.03116 0.49266 0.58514
 H336 H 0.99565 0.43930 0.56709
 C337 C 0.40696 0.00933 0.22238
 H338 H 0.40777 0.02352 0.23163
 C339 C 0.42068 0.00644 0.20557
 H340 H 0.43207 0.01846 0.20178
 C341 C 0.39132 -0.02382 0.21614
 H342 H 0.38009 -0.03572 0.22049
 C343 C 0.40476 -0.02734 0.19921
 H344 H 0.40369 -0.04184 0.19046
 N345 N 0.39249 -0.00559 0.22718
 C346 C 0.34271 0.02777 0.26017
 H347 H 0.34180 0.01857 0.27438
 C348 C 0.32909 0.04465 0.25716
 H349 H 0.31768 0.04855 0.26912
 C350 C 0.35848 0.03380 0.22704
 H351 H 0.36971 0.02934 0.21519
 C352 C 0.34515 0.05079 0.22340
 H353 H 0.34630 0.05949 0.20886
 Zn354 Zn 0.37477 -0.00054 0.25045
 N355 N 0.35720 0.02283 0.24530
 C356 C 0.39109 0.02277 0.28483
 N357 N 0.39229 0.00449 0.27387
 C358 C 0.40671 -0.01044 0.27882
 C359 C 0.42034 -0.00750 0.29569
 C360 C 0.40444 0.02633 0.30181
 C361 C 0.34274 -0.02875 0.24044
 C362 C 0.32905 -0.04560 0.24330
 C363 C 0.34481 -0.05186 0.27717
 C364 C 0.35822 -0.03490 0.27368
 N365 N 0.35712 -0.02389 0.25542
 H366 H 0.37992 0.03467 0.28036
 H367 H 0.40756 -0.02466 0.26963
 H368 H 0.43171 -0.01952 0.29958
 H369 H 0.40336 0.04089 0.31049
 H370 H 0.34197 -0.01952 0.22623
 H371 H 0.31772 -0.04943 0.23124
 H372 H 0.34582 -0.06059 0.29170
 H373 H 0.36937 -0.03050 0.28562
 C374 C 0.33037 0.05629 0.23863
 C375 C 0.41952 -0.01204 0.19385
 C376 C 0.33014 -0.05728 0.26181
 C377 C 0.41916 0.01104 0.30731
 C378 C 0.09348 -0.00948 0.72229
 H379 H 0.09264 -0.02368 0.73153
 C380 C 0.07978 -0.00655 0.70548
 H381 H 0.06837 -0.01854 0.70167
 C382 C 0.10916 0.02367 0.71610
 H383 H 0.12039 0.03554 0.72047
 C384 C 0.09574 0.02723 0.69916
 H385 H 0.09683 0.04175 0.69042
 N386 N 0.10796 0.00542 0.72712
 C387 C 0.15767 -0.02803 0.76015
 H388 H 0.15858 -0.01884 0.77437
 C389 C 0.17128 -0.04493 0.75716
 H390 H 0.18267 -0.04885 0.76913
 C391 C 0.14192 -0.03402 0.72701
 H392 H 0.13071 -0.02954 0.71515
 C393 C 0.15524 -0.05103 0.72340
 H394 H 0.15409 -0.05971 0.70886
 Zn395 Zn 0.12565 0.00032 0.75041
 N396 N 0.14320 -0.02307 0.74528
 C397 C 0.10928 -0.02301 0.78476
 N398 N 0.10810 -0.00473 0.77381
 C399 C 0.09369 0.01022 0.77876
 C400 C 0.08004 0.00727 0.79562
 C401 C 0.09590 -0.02659 0.80174
 C402 C 0.15772 0.02852 0.74043
 C403 C 0.17142 0.04535 0.74330
 C404 C 0.15561 0.05160 0.77715
 C405 C 0.14220 0.03464 0.77365
 N406 N 0.14332 0.02365 0.75540
 H407 H 0.12044 -0.03493 0.78030
 H408 H 0.09286 0.02445 0.76957
 H409 H 0.06868 0.01929 0.79950
 H410 H 0.09696 -0.04115 0.81041
 H411 H 0.15850 0.01929 0.72623
 H412 H 0.18275 0.04919 0.73125
 H413 H 0.15458 0.06032 0.79168
 H414 H 0.13103 0.03024 0.78559
 C415 C 0.17000 -0.05656 0.73864
 C416 C 0.08097 0.01195 0.69378
 C417 C 0.17030 0.05702 0.76181
 C418 C 0.08120 -0.01128 0.80723
 C419 C 0.59302 0.49039 0.22185
 H420 H 0.59219 0.47618 0.23107
 C421 C 0.57933 0.49332 0.20502
 H422 H 0.56794 0.48132 0.20118
 C423 C 0.60866 0.52356 0.21570
 H424 H 0.61987 0.53545 0.22010
 C425 C 0.59525 0.52713 0.19876
 H426 H 0.59633 0.54166 0.19003
 N427 N 0.60748 0.50531 0.22670
 C428 C 0.65722 0.47196 0.25979
 H429 H 0.65810 0.48118 0.27399
 C430 C 0.67088 0.45511 0.25683
 H431 H 0.68228 0.45124 0.26880
 C432 C 0.64149 0.46588 0.22666
 H433 H 0.63027 0.47031 0.21479
 C434 C 0.65486 0.44890 0.22307
 H435 H 0.65374 0.44019 0.20855
 Zn436 Zn 0.62515 0.50023 0.25001
 N437 N 0.64274 0.47686 0.24491
 C438 C 0.60881 0.47690 0.28437
 N439 N 0.60760 0.49517 0.27341
 C440 C 0.59319 0.51011 0.27836
 C441 C 0.57956 0.50716 0.29525
 C442 C 0.59547 0.47332 0.30137
 C443 C 0.65721 0.52842 0.24002
 C444 C 0.67091 0.54525 0.24288
 C445 C 0.65509 0.55153 0.27672
 C446 C 0.64167 0.53458 0.27323
 N447 N 0.64280 0.52357 0.25499
 H448 H 0.61998 0.46499 0.27990
 H449 H 0.59233 0.52434 0.26917
 H450 H 0.56820 0.51917 0.29915
 H451 H 0.59656 0.45876 0.31005
 H452 H 0.65800 0.51918 0.22582
 H453 H 0.68226 0.54907 0.23083
 H454 H 0.65406 0.56027 0.29123
 H455 H 0.63050 0.53019 0.28516
 C456 C 0.66964 0.44345 0.23832
 C457 C 0.58051 0.51184 0.19334
 C458 C 0.66979 0.55694 0.26137
 C459 C 0.58076 0.48862 0.30687
 C460 C 0.90693 0.50924 0.72232
 H461 H 0.90772 0.52342 0.73159
 C462 C 0.92066 0.50640 0.70551
 H463 H 0.93203 0.51843 0.70174
 C464 C 0.89133 0.47608 0.71604
 H465 H 0.88012 0.46416 0.72036
 C466 C 0.90478 0.47261 0.69911
 H467 H 0.90373 0.45811 0.69032
 N468 N 0.89247 0.49429 0.72710
 C469 C 0.84261 0.52754 0.76008
 H470 H 0.84170 0.51831 0.77428
 C471 C 0.82898 0.54442 0.75710
 H472 H 0.81756 0.54828 0.76906
 C473 C 0.85842 0.53365 0.72698
 H474 H 0.86966 0.52923 0.71514
 C475 C 0.84508 0.55064 0.72338
 H476 H 0.84624 0.55938 0.70886
 Zn477 Zn 0.87473 0.49929 0.75036
 N478 N 0.85713 0.52265 0.74523
 C479 C 0.89098 0.52262 0.78475
 N480 N 0.89222 0.50434 0.77381
 C481 C 0.90664 0.48942 0.77878
 C482 C 0.92026 0.49239 0.79566
 C483 C 0.90431 0.52621 0.80174
 C484 C 0.84273 0.47106 0.74029
 C485 C 0.82904 0.45421 0.74313
 C486 C 0.84478 0.44792 0.77700
 C487 C 0.85819 0.46489 0.77354
 N488 N 0.85710 0.47592 0.75529
 H489 H 0.87981 0.53451 0.78026
 H490 H 0.90752 0.47520 0.76960
 H491 H 0.93163 0.48039 0.79957
 H492 H 0.90321 0.54077 0.81040
 H493 H 0.84197 0.48031 0.72609
 H494 H 0.81772 0.45039 0.73106
 H495 H 0.84578 0.43918 0.79153
 H496 H 0.86933 0.46928 0.78550
 C497 C 0.83028 0.55610 0.73860
 C498 C 0.91952 0.48793 0.69377
 C499 C 0.83012 0.44252 0.76163
 C500 C 0.91904 0.51094 0.80726
 C501 C 0.22128 0.40749 0.00942
 H502 H 0.23055 0.40826 0.02360
 C503 C 0.20444 0.42120 0.00660
 H504 H 0.20064 0.43253 0.01865
 C505 C 0.21504 0.39201 -0.02379
 H506 H 0.21941 0.38085 -0.03574
 C507 C 0.19808 0.40543 -0.02724
 H508 H 0.18932 0.40443 -0.04175
 N509 N 0.22610 0.39311 -0.00557
 C510 C 0.25942 0.34329 0.02744
 H511 H 0.27359 0.34248 0.01816
 C512 C 0.25656 0.32958 0.04427
 H513 H 0.26859 0.31820 0.04804
 C514 C 0.22626 0.35893 0.03373
 H515 H 0.21434 0.37014 0.02939
 C516 C 0.22277 0.34550 0.05068
 H517 H 0.20827 0.34657 0.05946
 Zn518 Zn 0.24947 0.37545 -0.00065
 N519 N 0.24447 0.35776 0.02266
 C520 C 0.28387 0.39176 0.02265
 N521 N 0.27285 0.39302 0.00441
 C522 C 0.27774 0.40751 -0.01048
 C523 C 0.29461 0.42114 -0.00753
 C524 C 0.30086 0.40511 0.02622
 C525 C 0.23952 0.34352 -0.02898
 C526 C 0.24244 0.32987 -0.04583
 C527 C 0.27628 0.34575 -0.05202
 C528 C 0.27273 0.35912 -0.03505
 N529 N 0.25447 0.35793 -0.02407
 H530 H 0.27945 0.38054 0.03452
 H531 H 0.26850 0.40840 -0.02467
 H532 H 0.29846 0.43255 -0.01951
 H533 H 0.30959 0.40398 0.04074
 H534 H 0.22530 0.34268 -0.01976
 H535 H 0.23042 0.31851 -0.04969
 H536 H 0.29083 0.34681 -0.06072
 H537 H 0.28465 0.37028 -0.03062
 C538 C 0.23809 0.33075 0.05602
 C539 C 0.19271 0.42012 -0.01188
 C540 C 0.26098 0.33104 -0.05748
 C541 C 0.30630 0.41988 0.01097
 C542 C 0.72254 0.09261 -0.00997
 H543 H 0.73176 0.09172 -0.02418
 C544 C 0.70566 0.07899 -0.00700
 H545 H 0.70178 0.06760 -0.01898
 C546 C 0.71648 0.10833 0.02316
 H547 H 0.72093 0.11953 0.03503
 C548 C 0.69948 0.09499 0.02676
 H549 H 0.69077 0.09612 0.04129
 N550 N 0.72747 0.10707 0.00491
 C551 C 0.76073 0.15661 -0.02857
 H552 H 0.77496 0.15744 -0.01939
 C553 C 0.75777 0.17025 -0.04544
 H554 H 0.76978 0.18161 -0.04934
 C555 C 0.72749 0.14101 -0.03455
 H556 H 0.71559 0.12985 -0.03008
 C557 C 0.72391 0.15437 -0.05153
 H558 H 0.70934 0.15331 -0.06020
 Zn559 Zn 0.75085 0.12464 -0.00021
 N560 N 0.74579 0.14220 -0.02361
 C561 C 0.78519 0.10811 -0.02348
 N562 N 0.77419 0.10699 -0.00522
 C563 C 0.77906 0.09258 0.00975
 C564 C 0.79590 0.07887 0.00686
 C565 C 0.80213 0.09469 -0.02700
 C566 C 0.74099 0.15676 0.02792
 C567 C 0.74390 0.17044 0.04475
 C568 C 0.77769 0.15450 0.05106
 C569 C 0.77416 0.14110 0.03411
 N570 N 0.75592 0.14230 0.02309
 H571 H 0.78078 0.11928 -0.03541
 H572 H 0.76984 0.09179 0.02396
 H573 H 0.79973 0.06752 0.01890
 H574 H 0.81085 0.09571 -0.04153
 H575 H 0.72679 0.15760 0.01868
 H576 H 0.73189 0.18183 0.04857
 H577 H 0.79221 0.15341 0.05981
 H578 H 0.78606 0.12989 0.02974
 C579 C 0.73921 0.16908 -0.05704
 C580 C 0.69400 0.08024 0.01151
 C581 C 0.76240 0.16925 0.05645
 C582 C 0.80756 0.07999 -0.01166
 C583 C 0.22129 0.59287 0.49020
 H584 H 0.23052 0.59202 0.47601
 C585 C 0.20443 0.57921 0.49313
 H586 H 0.20058 0.56783 0.48114
 C587 C 0.21514 0.60854 0.52335
 H588 H 0.21955 0.61974 0.53524
 C589 C 0.19817 0.59516 0.52691
 H590 H 0.18943 0.59626 0.54143
 N591 N 0.22616 0.60732 0.50511
 C592 C 0.25943 0.65696 0.47180
 H593 H 0.27363 0.65781 0.48104
 C594 C 0.25652 0.67062 0.45493
 H595 H 0.26853 0.68199 0.45109
 C596 C 0.22625 0.64131 0.46566
 H597 H 0.21435 0.63012 0.47007
 C598 C 0.22272 0.65469 0.44868
 H599 H 0.20819 0.65360 0.43994
 Zn600 Zn 0.24952 0.62494 0.50006
 N601 N 0.24450 0.64252 0.47667
 C602 C 0.28392 0.60850 0.47683
 N603 N 0.27291 0.60733 0.49508
 C604 C 0.27780 0.59292 0.51003
 C605 C 0.29467 0.57926 0.50715
 C606 C 0.30090 0.59512 0.47331
 C607 C 0.23956 0.65702 0.52821
 C608 C 0.24244 0.67071 0.54503
 C609 C 0.27625 0.65482 0.55138
 C610 C 0.27275 0.64141 0.53443
 N611 N 0.25452 0.64258 0.52339
 H612 H 0.27950 0.61967 0.46491
 H613 H 0.26856 0.59209 0.52423
 H614 H 0.29852 0.56790 0.51918
 H615 H 0.30963 0.59619 0.45879
 H616 H 0.22537 0.65784 0.51895
 H617 H 0.23040 0.68209 0.54883
 H618 H 0.29077 0.65376 0.56013
 H619 H 0.28467 0.63022 0.53007
 C620 C 0.23802 0.66942 0.44325
 C621 C 0.19274 0.58042 0.51163
 C622 C 0.26093 0.66956 0.55674
 C623 C 0.30635 0.58042 0.48864
 C624 C 0.72159 0.90722 0.50954
 H625 H 0.73079 0.90800 0.52376
 C626 C 0.70473 0.92089 0.50664
 H627 H 0.70085 0.93222 0.51868
 C628 C 0.71554 0.89173 0.47630
 H629 H 0.71998 0.88059 0.46437
 C630 C 0.69856 0.90512 0.47277
 H631 H 0.68987 0.90410 0.45822
 N632 N 0.72650 0.89285 0.49457
 C633 C 0.75973 0.84307 0.52774
 H634 H 0.77395 0.84227 0.51853
 C635 C 0.75681 0.82938 0.54457
 H636 H 0.76884 0.81801 0.54841
 C637 C 0.72652 0.85867 0.53386
 H638 H 0.71461 0.86987 0.52947
 C639 C 0.72298 0.84526 0.55081
 H640 H 0.70844 0.84632 0.55953
 Zn641 Zn 0.74987 0.87523 0.49960
 N642 N 0.74479 0.85752 0.52288
 C643 C 0.78416 0.89156 0.52305
 N644 N 0.77321 0.89283 0.50478
 C645 C 0.77813 0.90734 0.48993
 C646 C 0.79498 0.92098 0.49294
 C647 C 0.80113 0.90492 0.52669
 C648 C 0.74011 0.84331 0.47119
 C649 C 0.74313 0.82972 0.45430
 C650 C 0.77696 0.84568 0.44828
 C651 C 0.77332 0.85898 0.46528
 N652 N 0.75502 0.85773 0.47619
 H653 H 0.77972 0.88032 0.53490
 H654 H 0.76893 0.90824 0.47570
 H655 H 0.79886 0.93241 0.48099
 H656 H 0.80982 0.90377 0.54124
 H657 H 0.72587 0.84241 0.48034
 H658 H 0.73114 0.81835 0.45035
 H659 H 0.79154 0.84681 0.43963
 H660 H 0.78520 0.87016 0.46979
 C661 C 0.73829 0.83054 0.55624
 C662 C 0.69309 0.91979 0.48811
 C663 C 0.76170 0.83097 0.44272
 C664 C 0.80661 0.91971 0.51147
 C665 C 0.00963 0.22227 0.40684
 H666 H 0.02383 0.23152 0.40763
 C667 C 0.00675 0.20545 0.42055
 H668 H 0.01879 0.20164 0.43191
 C669 C -0.02357 0.21608 0.39128
 H670 H -0.03550 0.22045 0.38009
 C671 C -0.02708 0.19914 0.40471
 H672 H -0.04160 0.19039 0.40367
 N673 N -0.00533 0.22710 0.39241
 C674 C 0.02791 0.26023 0.34264
 H675 H 0.01868 0.27443 0.34177
 C676 C 0.04476 0.25728 0.32899
 H677 H 0.04861 0.26927 0.31759
 C678 C 0.03403 0.22707 0.35835
 H679 H 0.02962 0.21520 0.36957
 C680 C 0.05100 0.22350 0.34498
 H681 H 0.05973 0.20897 0.34609
 Zn682 Zn -0.00032 0.25041 0.37473
 N683 N 0.02303 0.24533 0.35712
 C684 C 0.02301 0.28479 0.39103
 N685 N 0.00474 0.27381 0.39226
 C686 C -0.01019 0.27874 0.40668
 C687 C -0.00724 0.29560 0.42031
 C688 C 0.02658 0.30177 0.40438
 C689 C -0.02859 0.24042 0.34275
 C690 C -0.04545 0.24330 0.32908
 C691 C -0.05170 0.27715 0.34488
 C692 C -0.03472 0.27365 0.35827
 N693 N -0.02371 0.25540 0.35713
 H694 H 0.03490 0.28034 0.37985
 H695 H -0.02441 0.26953 0.40755
 H696 H -0.01924 0.29948 0.43169
 H697 H 0.04113 0.31047 0.40328
 H698 H -0.01935 0.22622 0.34195
 H699 H -0.04930 0.23126 0.31776
 H700 H -0.06043 0.29168 0.34592
 H701 H -0.03031 0.28558 0.36941
 C702 C 0.05644 0.23877 0.33021
 C703 C -0.01175 0.19375 0.41942
 C704 C -0.05714 0.26181 0.33021
 C705 C 0.01129 0.30724 0.41910
 C706 C -0.01005 0.72153 0.09235
 H707 H -0.02429 0.73072 0.09151
 C708 C -0.00709 0.70465 0.07874
 H709 H -0.01911 0.70074 0.06740
 C710 C 0.02319 0.71554 0.10795
 H711 H 0.03509 0.72002 0.11910
 C712 C 0.02677 0.69855 0.09462
 H713 H 0.04133 0.68987 0.09570
 N714 N 0.00489 0.72649 0.10675
 C715 C -0.02838 0.75978 0.15638
 H716 H -0.01915 0.77399 0.15717
 C717 C -0.04520 0.75688 0.17008
 H718 H -0.04903 0.76890 0.18144
 C719 C -0.03452 0.72658 0.14083
 H720 H -0.03012 0.71466 0.12965
 C721 C -0.05146 0.72304 0.15425
 H722 H -0.06018 0.70851 0.15322
 Zn723 Zn -0.00018 0.74988 0.12431
 N724 N -0.02352 0.74484 0.14196
 C725 C -0.02357 0.78418 0.10788
 N726 N -0.00529 0.77321 0.10667
 C727 C 0.00962 0.77812 0.09222
 C728 C 0.00666 0.79498 0.07857
 C729 C -0.02715 0.80116 0.09451
 C730 C 0.02810 0.74008 0.15635
 C731 C 0.04496 0.74304 0.16999
 C732 C 0.05115 0.77684 0.15401
 C733 C 0.03417 0.77325 0.14065
 N734 N 0.02320 0.75499 0.14188
 H735 H -0.03545 0.77974 0.11908
 H736 H 0.02385 0.76892 0.09137
 H737 H 0.01866 0.79886 0.06719
 H738 H -0.04170 0.80986 0.09561
 H739 H 0.01889 0.72587 0.15722
 H740 H 0.04883 0.73106 0.18139
 H741 H 0.05985 0.79138 0.15290
 H742 H 0.02974 0.78513 0.12944
 C743 C -0.05687 0.73836 0.16896
 C744 C 0.01146 0.69303 0.07993
 C745 C 0.05661 0.76157 0.16877
 C746 C -0.01187 0.80663 0.07978
 C747 C 0.49033 0.22148 0.59384
 H748 H 0.47610 0.23069 0.59300
 C749 C 0.49328 0.20464 0.58018
 H750 H 0.48127 0.20079 0.56880
 C751 C 0.52352 0.21539 0.60947
 H752 H 0.53542 0.21982 0.62067
 C753 C 0.52710 0.19844 0.59609
 H754 H 0.54165 0.18973 0.59717
 N755 N 0.50525 0.22637 0.60828
 C756 C 0.47183 0.25956 0.65788
 H757 H 0.48101 0.27379 0.65872
 C758 C 0.45494 0.25661 0.67151
 H759 H 0.45103 0.26862 0.68285
 C760 C 0.46584 0.22635 0.64228
 H761 H 0.47031 0.21445 0.63112
 C762 C 0.44884 0.22277 0.65562
 H763 H 0.44016 0.20821 0.65454
 Zn764 Zn 0.50015 0.24973 0.62587
 N765 N 0.47679 0.24463 0.64347
 C766 C 0.47678 0.28404 0.60941
 N767 N 0.49506 0.27306 0.60823
 C768 C 0.50998 0.27794 0.59379
 C769 C 0.50703 0.29477 0.58009
 C770 C 0.47321 0.30098 0.59599
 C771 C 0.52847 0.23993 0.65790
 C772 C 0.54535 0.24290 0.67152
 C773 C 0.55145 0.27672 0.65557
 C774 C 0.53446 0.27312 0.64224
 N775 N 0.52352 0.25484 0.64346
 H776 H 0.46489 0.27963 0.62060
 H777 H 0.52421 0.26874 0.59296
 H778 H 0.51904 0.29862 0.56871
 H779 H 0.45866 0.30969 0.59706
 H780 H 0.51929 0.22570 0.65877
 H781 H 0.54926 0.23090 0.68289
 H782 H 0.56014 0.29127 0.65446
 H783 H 0.52999 0.28501 0.63105
 C784 C 0.44332 0.23806 0.67031
 C785 C 0.51181 0.19299 0.58136
 C786 C 0.55697 0.26144 0.67030
 C787 C 0.48850 0.30642 0.58125
 C788 C 0.50961 0.72150 0.90719
 H789 H 0.52383 0.73072 0.90799
 C790 C 0.50670 0.70466 0.92088
 H791 H 0.51874 0.70080 0.93222
 C792 C 0.47638 0.71542 0.89165
 H793 H 0.46445 0.71984 0.88049
 C794 C 0.47284 0.69846 0.90505
 H795 H 0.45829 0.68975 0.90401
 N796 N 0.49465 0.72640 0.89279
 C797 C 0.52785 0.75965 0.84308
 H798 H 0.51861 0.77386 0.84226
 C799 C 0.54470 0.75675 0.82940
 H800 H 0.54853 0.76878 0.81803
 C801 C 0.53401 0.72646 0.85870
 H802 H 0.52962 0.71456 0.86989
 C803 C 0.55098 0.72294 0.84530
 H804 H 0.55972 0.70841 0.84637
 Zn805 Zn 0.49967 0.74976 0.87517
 N806 N 0.52300 0.74471 0.85752
 C807 C 0.52304 0.78408 0.89154
 N808 N 0.50477 0.77310 0.89276
 C809 C 0.48986 0.77800 0.90722
 C810 C 0.49282 0.79485 0.92087
 C811 C 0.52662 0.80104 0.90490
 C812 C 0.47135 0.73991 0.84320
 C813 C 0.45447 0.74286 0.82956
 C814 C 0.44831 0.77668 0.84546
 C815 C 0.46530 0.77310 0.85881
 N816 N 0.47627 0.75483 0.85761
 H817 H 0.53492 0.77965 0.88034
 H818 H 0.47564 0.76880 0.90808
 H819 H 0.48082 0.79872 0.93225
 H820 H 0.54117 0.80974 0.90380
 H821 H 0.48055 0.72569 0.84235
 H822 H 0.45059 0.73085 0.81820
 H823 H 0.43961 0.79123 0.84654
 H824 H 0.46975 0.78500 0.86998
 C825 C 0.55639 0.73825 0.83057
 C826 C 0.48817 0.69301 0.91974
 C827 C 0.44283 0.76139 0.83075
 C828 C 0.51135 0.80650 0.91965
 C829 C 0.15195 0.22023 0.25415
 C830 C 0.13733 0.22308 0.26578
 C831 C 0.12021 0.22640 0.27939
 C832 C 0.10559 0.22924 0.29102
 C833 C 0.08848 0.23256 0.30465
 C834 C 0.07387 0.23539 0.31630
 C835 C 0.65191 0.72008 0.75443
 C836 C 0.63728 0.72288 0.76606
 C837 C 0.62016 0.72615 0.77969
 C838 C 0.60554 0.72892 0.79133
 C839 C 0.58843 0.73217 0.80498
 C840 C 0.57382 0.73494 0.81664
 C841 C 0.34739 0.78007 0.75461
 C842 C 0.36199 0.77719 0.76626
 C843 C 0.37909 0.77382 0.77990
 C844 C 0.39369 0.77096 0.79154
 C845 C 0.41079 0.76762 0.80518
 C846 C 0.42539 0.76477 0.81683
 C847 C -0.15252 0.28006 0.25389
 C848 C -0.13793 0.27724 0.26558
 C849 C -0.12085 0.27395 0.27925
 C850 C -0.10626 0.27115 0.29092
 C851 C -0.08916 0.26789 0.30459
 C852 C -0.07457 0.26511 0.31627
 C853 C -0.15217 0.72019 0.24542
 C854 C -0.13757 0.72299 0.23374
 C855 C -0.12049 0.72624 0.22005
 C856 C -0.10591 0.72901 0.20836
 C857 C -0.08884 0.73225 0.19465
 C858 C -0.07427 0.73503 0.18294
 C859 C 0.34756 0.21955 0.74610
 C860 C 0.36222 0.22237 0.73451
 C861 C 0.37939 0.22568 0.72095
 C862 C 0.39404 0.22852 0.70937
 C863 C 0.41120 0.23185 0.69579
 C864 C 0.42585 0.23469 0.68419
 C865 C 0.65269 0.28008 0.74609
 C866 C 0.63804 0.27722 0.73449
 C867 C 0.62089 0.27387 0.72092
 C868 C 0.60624 0.27101 0.70934
 C869 C 0.58908 0.26768 0.69577
 C870 C 0.57444 0.26483 0.68416
 C871 C 0.15195 0.78018 0.24503
 C872 C 0.13737 0.77733 0.23334
 C873 C 0.12030 0.77400 0.21967
 C874 C 0.10572 0.77114 0.20800
 C875 C 0.08864 0.76780 0.19434
 C876 C 0.07404 0.76496 0.18269
 C877 C 0.25451 0.15194 0.21981
 C878 C 0.26613 0.13731 0.22267
 C879 C 0.27972 0.12017 0.22604
 C880 C 0.29131 0.10553 0.22892
 C881 C 0.30489 0.08839 0.23231
 C882 C 0.31650 0.07376 0.23520
 C883 C 0.75447 0.65183 0.72001
 C884 C 0.76607 0.63718 0.72284
 C885 C 0.77965 0.62002 0.72616
 C886 C 0.79123 0.60537 0.72901
 C887 C 0.80481 0.58822 0.73235
 C888 C 0.81641 0.57357 0.73520
 C889 C 0.75376 0.34715 0.77973
 C890 C 0.76542 0.36175 0.77691
 C891 C 0.77908 0.37884 0.77364
 C892 C 0.79076 0.39343 0.77086
 C893 C 0.80445 0.41052 0.76764
 C894 C 0.81615 0.42510 0.76490
 C895 C 0.25378 -0.15265 0.27993
 C896 C 0.26546 -0.13806 0.27713
 C897 C 0.27914 -0.12097 0.27386
 C898 C 0.29081 -0.10638 0.27109
 C899 C 0.30449 -0.08929 0.26785
 C900 C 0.31618 -0.07470 0.26509
 C901 C 0.24575 -0.15231 0.71995
 C902 C 0.23415 -0.13766 0.72280
 C903 C 0.22058 -0.12050 0.72614
 C904 C 0.20901 -0.10584 0.72900
 C905 C 0.19544 -0.08868 0.73236
 C906 C 0.18385 -0.07403 0.73522
 C907 C 0.74581 0.34798 0.21990
 C908 C 0.73414 0.36259 0.22270
 C909 C 0.72050 0.37970 0.22598
 C910 C 0.70885 0.39431 0.22880
 C911 C 0.69521 0.41141 0.23210
 C912 C 0.68356 0.42602 0.23493
 C913 C 0.74615 0.65230 0.27940
 C914 C 0.73448 0.63770 0.27662
 C915 C 0.72081 0.62061 0.27337
 C916 C 0.70914 0.60602 0.27062
 C917 C 0.69545 0.58893 0.26739
 C918 C 0.68376 0.57434 0.26465
 C919 C 0.24651 0.15251 0.77989
 C920 C 0.23487 0.13788 0.77710
 C921 C 0.22123 0.12076 0.77384
 C922 C 0.20958 0.10615 0.77108
 C923 C 0.19592 0.08905 0.76785
 C924 C 0.18425 0.07445 0.76509
 C925 C 0.22009 0.25451 0.15149
 C926 C 0.22288 0.26614 0.13687
 C927 C 0.22613 0.27978 0.11975
 C928 C 0.22888 0.29144 0.10514
 C929 C 0.23209 0.30511 0.08804
 C930 C 0.23482 0.31679 0.07344
 C931 C 0.72008 0.75446 0.65181
 C932 C 0.72288 0.76609 0.63718
 C933 C 0.72615 0.77970 0.62004
 C934 C 0.72894 0.79132 0.60541
 C935 C 0.73219 0.80495 0.58829
 C936 C 0.73497 0.81661 0.57367
 C937 C 0.78061 0.75501 0.34726
 C938 C 0.77774 0.76666 0.36184
 C939 C 0.77435 0.78028 0.37894
 C940 C 0.77145 0.79190 0.39354
 C941 C 0.76805 0.80550 0.41065
 C942 C 0.76515 0.81711 0.42526
 C943 C 0.27977 0.25456 -0.15255
 C944 C 0.27685 0.26627 -0.13802
 C945 C 0.27346 0.27998 -0.12100
 C946 C 0.27057 0.29168 -0.10646
 C947 C 0.26721 0.30538 -0.08942
 C948 C 0.26436 0.31708 -0.07487
 C949 C 0.72035 0.24531 -0.15236
 C950 C 0.72326 0.23364 -0.13779
 C951 C 0.72666 0.21998 -0.12072
 C952 C 0.72956 0.20832 -0.10613
 C953 C 0.73294 0.19467 -0.08905
 C954 C 0.73581 0.18301 -0.07446
 C955 C 0.21980 0.74566 0.34780
 C956 C 0.22260 0.73400 0.36241
 C957 C 0.22586 0.72035 0.37952
 C958 C 0.22863 0.70869 0.39412
 C959 C 0.23188 0.69503 0.41122
 C960 C 0.23467 0.68336 0.42582
 C961 C 0.27916 0.74587 0.65204
 C962 C 0.27632 0.73422 0.63745
 C963 C 0.27303 0.72056 0.62037
 C964 C 0.27024 0.70888 0.60579
 C965 C 0.26699 0.69521 0.58872
 C966 C 0.26422 0.68352 0.57414
 C967 C 0.78051 0.24540 0.15190
 C968 C 0.77772 0.23375 0.13729
 C969 C 0.77447 0.22012 0.12018
 C970 C 0.77171 0.20848 0.10558
 C971 C 0.76848 0.19483 0.08847
 C972 C 0.76571 0.18317 0.07387
 C973 C 0.47009 0.40172 0.50487
 C974 C 0.47292 0.38713 0.51654
 C975 C 0.47621 0.37004 0.53021
 C976 C 0.47902 0.35546 0.54190
 C977 C 0.48231 0.33839 0.55559
 C978 C 0.48512 0.32382 0.56728
 C979 C -0.03031 0.90232 0.00387
 C980 C -0.02751 0.88767 0.01548
 C981 C -0.02421 0.87051 0.02906
 C982 C -0.02139 0.85586 0.04066
 C983 C -0.01807 0.83872 0.05426
 C984 C -0.01525 0.82409 0.06588
 C985 C 0.03012 0.59746 0.00402
 C986 C 0.02726 0.61208 0.01564
 C987 C 0.02390 0.62921 0.02924
 C988 C 0.02103 0.64383 0.04084
 C989 C 0.01769 0.66096 0.05443
 C990 C 0.01485 0.67558 0.06605
 C991 C 0.53026 0.09775 0.50501
 C992 C 0.52742 0.11231 0.51670
 C993 C 0.52411 0.12937 0.53039
 C994 C 0.52129 0.14394 0.54207
 C995 C 0.51800 0.16101 0.55575
 C996 C 0.51518 0.17559 0.56742
 C997 C -0.02985 0.09840 0.49580
 C998 C -0.02706 0.11300 0.48413
 C999 C -0.02380 0.13009 0.47046
 C1000 C -0.02104 0.14468 0.45878
 C1001 C -0.01780 0.16177 0.44510
 C1002 C -0.01505 0.17635 0.43340
 C1003 C 0.46981 0.59763 0.99604
 C1004 C 0.47265 0.61224 0.98438
 C1005 C 0.47595 0.62933 0.97072
 C1006 C 0.47876 0.64392 0.95906
 C1007 C 0.48204 0.66101 0.94539
 C1008 C 0.48483 0.67560 0.93370
 C1009 C 0.53001 0.90189 0.99574
 C1010 C 0.52714 0.88730 0.98409
 C1011 C 0.52378 0.87021 0.97046
 C1012 C 0.52092 0.85561 0.95883
 C1013 C 0.51758 0.83852 0.94520
 C1014 C 0.51474 0.82392 0.93356
 C1015 C 0.02997 0.40251 0.49535
 C1016 C 0.02710 0.38795 0.48367
 C1017 C 0.02374 0.37089 0.47000
 C1018 C 0.02088 0.35632 0.45833
 C1019 C 0.01753 0.33925 0.44468
 C1020 C 0.01468 0.32466 0.43302
 C1021 C 0.40185 0.50426 0.47028
 C1022 C 0.38723 0.51590 0.47311
 C1023 C 0.37012 0.52954 0.47642
 C1024 C 0.35551 0.54118 0.47924
 C1025 C 0.33840 0.55483 0.48252
 C1026 C 0.32379 0.56649 0.48532
 C1027 C 0.90286 0.00353 -0.02988
 C1028 C 0.88827 0.01521 -0.02706
 C1029 C 0.87119 0.02890 -0.02379
 C1030 C 0.85661 0.04059 -0.02100
 C1031 C 0.83953 0.05429 -0.01776
 C1032 C 0.82495 0.06600 -0.01498
 C1033 C 0.59837 0.00434 0.03016
 C1034 C 0.61299 0.01597 0.02730
 C1035 C 0.63012 0.02956 0.02394
 C1036 C 0.64476 0.04117 0.02108
 C1037 C 0.66190 0.05475 0.01775
 C1038 C 0.67653 0.06637 0.01490
 C1039 C 0.09728 0.50426 0.53013
 C1040 C 0.11188 0.51592 0.52729
 C1041 C 0.12898 0.52956 0.52396
 C1042 C 0.14359 0.54121 0.52112
 C1043 C 0.16069 0.55484 0.51781
 C1044 C 0.17530 0.56650 0.51499
 C1045 C 0.09732 0.49654 -0.02982
 C1046 C 0.11193 0.48488 -0.02702
 C1047 C 0.12903 0.47120 -0.02378
 C1048 C 0.14363 0.45951 -0.02104
 C1049 C 0.16072 0.44581 -0.01785
 C1050 C 0.17530 0.43410 -0.01513
 C1051 C 0.59762 0.99607 0.47000
 C1052 C 0.61224 0.98441 0.47277
 C1053 C 0.62936 0.97076 0.47601
 C1054 C 0.64397 0.95909 0.47877
 C1055 C 0.66107 0.94542 0.48201
 C1056 C 0.67567 0.93374 0.48478
 C1057 C 0.90210 0.99573 0.53024
 C1058 C 0.88750 0.98409 0.52738
 C1059 C 0.87039 0.97047 0.52402
 C1060 C 0.85578 0.95885 0.52114
 C1061 C 0.83866 0.94524 0.51778
 C1062 C 0.82405 0.93361 0.51490
 C1063 C 0.40179 0.49594 0.02962
 C1064 C 0.38719 0.48429 0.02675
 C1065 C 0.37008 0.47067 0.02338
 C1066 C 0.35547 0.45904 0.02052
 C1067 C 0.33835 0.44542 0.01719
 C1068 C 0.32374 0.43379 0.01435
 C1069 C 0.50462 0.46993 0.40230
 C1070 C 0.51629 0.47279 0.38771
 C1071 C 0.52994 0.47614 0.37062
 C1072 C 0.54158 0.47901 0.35603
 C1073 C 0.55521 0.48237 0.33892
 C1074 C 0.56685 0.48523 0.32431
 C1075 C 0.00477 -0.03005 0.90241
 C1076 C 0.01648 -0.02716 0.88786
 C1077 C 0.03018 -0.02378 0.87082
 C1078 C 0.04187 -0.02090 0.85626
 C1079 C 0.05556 -0.01754 0.83920
 C1080 C 0.06725 -0.01468 0.82463
 C1081 C 0.00470 0.03025 0.59840
 C1082 C 0.01635 0.02744 0.61300
 C1083 C 0.03001 0.02415 0.63010
 C1084 C 0.04167 0.02136 0.64469
 C1085 C 0.05534 0.01809 0.66178
 C1086 C 0.06702 0.01530 0.67637
 C1087 C 0.50433 0.53031 0.09791
 C1088 C 0.51597 0.52746 0.11252
 C1089 C 0.52960 0.52414 0.12963
 C1090 C 0.54125 0.52131 0.14423
 C1091 C 0.55490 0.51801 0.16133
 C1092 C 0.56656 0.51519 0.17593
 C1093 C 0.49579 -0.03011 0.09844
 C1094 C 0.48415 -0.02731 0.11306
 C1095 C 0.47051 -0.02406 0.13017
 C1096 C 0.45884 -0.02131 0.14477
 C1097 C 0.44517 -0.01808 0.16186
 C1098 C 0.43348 -0.01533 0.17645
 C1099 C 0.99578 0.47018 0.59828
 C1100 C 0.98414 0.47291 0.61292
 C1101 C 0.97050 0.47610 0.63004
 C1102 C 0.95884 0.47881 0.64466
 C1103 C 0.94518 0.48198 0.66176
 C1104 C 0.93349 0.48469 0.67636
 C1105 C 0.99532 0.52990 0.90249
 C1106 C 0.98363 0.52698 0.88794
 C1107 C 0.96995 0.52356 0.87089
 C1108 C 0.95828 0.52065 0.85633
 C1109 C 0.94462 0.51725 0.83926
 C1110 C 0.93296 0.51436 0.82468
 C1111 C 0.49556 0.02967 0.40250
 C1112 C 0.48385 0.02681 0.38795
 C1113 C 0.47015 0.02346 0.37091
 C1114 C 0.45846 0.02061 0.35635
 C1115 C 0.44477 0.01727 0.33929
 C1116 C 0.43309 0.01442 0.32472
   
