data_POSCAR
  _audit_creation_date              2014-09-24
  _audit_creation_method            'ToBaCCo'
  _symmetry_space_group_name_H-M    'P1'
  _symmetry_Int_Tables_number       1
  _symmetry_cell_setting            triclinic
  loop_
  _symmetry_equiv_pos_as_xyz
 x,y,z
_cell_length_a 47.4986
_cell_length_b 47.0810
_cell_length_c 8.7938
_cell_angle_alpha 90.332100
_cell_angle_beta 90.001600
_cell_angle_gamma 90.072800
loop_
  _atom_site_label
  _atom_site_type_symbol
  _atom_site_fract_x
  _atom_site_fract_y
  _atom_site_fract_z
O1 O 0.28110 0.22188 0.15555
 O2 O 0.22749 0.27709 0.09450
 O3 O 0.28108 0.27716 0.15716
 O4 O 0.22752 0.22176 0.09203
 O5 O 0.21778 0.22170 0.33790
 O6 O 0.27135 0.27707 0.40310
 O7 O 0.21777 0.27701 0.34045
 O8 O 0.27135 0.22177 0.40144
 Cu9 Cu 0.25530 0.24947 0.10021
 Cu10 Cu 0.24354 0.24937 0.39531
 C11 C 0.28531 0.21253 0.28860
 C12 C 0.21357 0.28638 0.20743
 C13 C 0.28528 0.28644 0.29095
 C14 C 0.21359 0.21239 0.20418
 O15 O 0.77166 0.22122 0.09947
 O16 O 0.71800 0.27662 0.15812
 O17 O 0.77161 0.27651 0.09548
 O18 O 0.71810 0.22136 0.16378
 O19 O 0.72781 0.22238 0.40968
 O20 O 0.78139 0.27748 0.34129
 O21 O 0.72778 0.27768 0.40393
 O22 O 0.78138 0.22221 0.34540
 Cu23 Cu 0.74383 0.24882 0.10470
 Cu24 Cu 0.75561 0.25004 0.39963
 C25 C 0.78562 0.21239 0.21274
 C26 C 0.71381 0.28649 0.29069
 C27 C 0.78557 0.28628 0.20713
 C28 C 0.71387 0.21259 0.29796
 O29 O 0.72867 0.77838 0.59737
 O30 O 0.78204 0.72290 0.65787
 O31 O 0.72847 0.72306 0.59489
 O32 O 0.78226 0.77820 0.66035
 O33 O 0.77253 0.77813 0.90622
 O34 O 0.71876 0.72296 0.84083
 O35 O 0.77233 0.72280 0.90381
 O36 O 0.71893 0.77826 0.84326
 Cu37 Cu 0.75637 0.75065 0.60307
 Cu38 Cu 0.74463 0.75053 0.89807
 C39 C 0.71475 0.78766 0.71030
 C40 C 0.78620 0.71348 0.79082
 C41 C 0.71452 0.71371 0.70703
 C42 C 0.78650 0.78747 0.79413
 O43 O 0.28120 0.77867 0.83933
 O44 O 0.22777 0.72338 0.90652
 O45 O 0.28136 0.72340 0.84322
 O46 O 0.22759 0.77868 0.90262
 O47 O 0.21795 0.77782 0.65662
 O48 O 0.27158 0.72243 0.59741
 O49 O 0.21800 0.72255 0.66069
 O50 O 0.27155 0.77771 0.59332
 Cu51 Cu 0.25550 0.75113 0.89751
 Cu52 Cu 0.24375 0.75004 0.60248
 C53 C 0.28545 0.78746 0.70522
 C54 C 0.21383 0.71366 0.79468
 C55 C 0.28557 0.71360 0.71053
 C56 C 0.21366 0.78757 0.78938
 C57 C 0.98601 0.08742 0.09238
 C58 C 1.01483 0.08771 0.08413
 C59 C 1.02319 0.06003 0.05382
 N60 N 1.00038 0.04296 0.04317
 C61 C 0.97760 0.05958 0.06645
 C62 C 1.05150 0.05106 0.04131
 C63 C 1.06026 0.02264 0.01664
 C64 C 1.08798 0.01356 0.02670
 C65 C 1.08797 -0.01515 -0.00152
 C66 C 1.06023 -0.02302 -0.02838
 N67 N 1.04355 0.00025 -0.01957
 C68 C 1.05143 -0.05124 -0.05963
 C69 C 1.02310 -0.06044 -0.06613
 C70 C 1.01470 -0.08828 -0.09204
 C71 C 0.98587 -0.08857 -0.08400
 C72 C 0.97752 -0.06088 -0.05377
 N73 N 1.00033 -0.04382 -0.04299
 C74 C 0.94921 -0.05190 -0.04142
 C75 C 0.94046 -0.02348 -0.01666
 C76 C 0.91273 -0.01440 -0.02686
 C77 C 0.91275 0.01430 0.00158
 C78 C 0.94049 0.02217 0.02864
 N79 N 0.95716 -0.00111 0.01984
 C80 C 0.94928 0.05038 0.05994
 H81 H 0.97276 0.10569 0.11414
 H82 H 1.02811 0.10620 0.09988
 H83 H 0.97828 -0.00205 0.04823
 H84 H 1.10637 0.02623 0.05373
 H85 H 1.10634 -0.02873 -0.00034
 H86 H 1.02794 -0.10656 -0.11375
 H87 H 0.97259 -0.10706 -0.09967
 H88 H 0.89438 0.02788 0.00032
 H89 H 1.02243 0.00119 -0.04785
 H90 H 0.89434 -0.02706 -0.05392
 C91 C 0.48541 0.58803 0.59144
 C92 C 0.51424 0.58831 0.58379
 C93 C 0.52260 0.56061 0.55391
 N94 N 0.49980 0.54355 0.54301
 C95 C 0.47701 0.56018 0.56568
 C96 C 0.55092 0.55163 0.54205
 C97 C 0.55968 0.52320 0.51777
 C98 C 0.58738 0.51410 0.52877
 C99 C 0.58737 0.48539 0.50045
 C100 C 0.55966 0.47754 0.47266
 N101 N 0.54300 0.50083 0.48101
 C102 C 0.55087 0.44933 0.44122
 C103 C 0.52254 0.44014 0.43443
 C104 C 0.51414 0.41229 0.40868
 C105 C 0.48531 0.41201 0.41637
 C106 C 0.47695 0.43971 0.44622
 N107 N 0.49976 0.45677 0.45711
 C108 C 0.44864 0.44870 0.45803
 C109 C 0.43988 0.47712 0.48247
 C110 C 0.41217 0.48622 0.47146
 C111 C 0.41219 0.51493 0.49974
 C112 C 0.43989 0.52278 0.52757
 N113 N 0.45656 0.49949 0.51926
 C114 C 0.44868 0.55099 0.55900
 H115 H 0.47216 0.60631 0.61301
 H116 H 0.52752 0.60680 0.59970
 H117 H 0.47767 0.49855 0.54784
 H118 H 0.60576 0.52675 0.55609
 H119 H 0.60574 0.47180 0.50199
 H120 H 0.52739 0.39400 0.38717
 H121 H 0.47204 0.39352 0.40065
 H122 H 0.39382 0.52852 0.49824
 H123 H 0.52189 0.50177 0.45236
 H124 H 0.39379 0.47356 0.44431
 C125 C 0.01432 0.58786 -0.08195
 C126 C -0.01451 0.58759 -0.08983
 C127 C -0.02293 0.55978 -0.06487
 N128 N -0.00017 0.54316 -0.04243
 C129 C 0.02265 0.56020 -0.05270
 C130 C -0.05127 0.55062 -0.05851
 C131 C -0.06008 0.52245 -0.02813
 C132 C -0.08780 0.51465 -0.00074
 C133 C -0.08785 0.48598 0.02665
 C134 C -0.06015 0.47685 0.01558
 N135 N -0.04344 0.49915 -0.02052
 C136 C -0.05141 0.44845 0.03935
 C137 C -0.02311 0.43946 0.05102
 C138 C -0.01477 0.41178 0.08001
 C139 C 0.01406 0.41204 0.08786
 C140 C 0.02248 0.43986 0.06312
 N141 N -0.00028 0.45649 0.04087
 C142 C 0.05082 0.44903 0.05689
 C143 C 0.05963 0.47720 0.02655
 C144 C 0.08736 0.48502 -0.00057
 C145 C 0.08740 0.51369 -0.02793
 C146 C 0.05970 0.52281 -0.01707
 N147 N 0.04299 0.50049 0.01876
 C148 C 0.05096 0.55122 -0.04073
 H149 H 0.02760 0.60632 -0.09725
 H150 H -0.02774 0.60586 -0.11091
 H151 H 0.02187 0.50148 0.04721
 H152 H -0.10615 0.52826 0.00131
 H153 H -0.10624 0.47337 0.05358
 H154 H -0.02806 0.39332 0.09521
 H155 H 0.02729 0.39378 0.10892
 H156 H 0.10579 0.52631 -0.05468
 H157 H -0.02234 0.49816 -0.04929
 H158 H 0.10572 0.47141 -0.00237
 C159 C 0.48583 0.91246 0.58303
 C160 C 0.51466 0.91275 0.59108
 C161 C 0.52307 0.94054 0.56525
 N162 N 0.50030 0.95712 0.54212
 C163 C 0.47749 0.94008 0.55285
 C164 C 0.55140 0.94971 0.55845
 C165 C 0.56017 0.97787 0.52726
 C166 C 0.58787 0.98567 0.49911
 C167 C 0.58789 1.01435 0.47191
 C168 C 0.56021 1.02349 0.48397
 N169 N 0.54352 1.00117 0.52016
 C170 C 0.55147 1.05192 0.46137
 C171 C 0.52316 1.06090 0.44962
 C172 C 0.51480 1.08859 0.42117
 C173 C 0.48597 1.08828 0.41267
 C174 C 0.47758 1.06042 0.43645
 N175 N 0.50036 1.04381 0.45880
 C176 C 0.44925 1.05120 0.44175
 C177 C 0.44045 1.02300 0.47178
 C178 C 0.41270 1.01514 0.49791
 C179 C 0.41268 0.98648 0.52550
 C180 C 0.44042 0.97741 0.51583
 N181 N 0.45713 0.99975 0.48037
 C182 C 0.44918 0.94903 0.54036
 H183 H 0.47255 0.89401 0.59883
 H184 H 0.52790 0.89452 0.61268
 H185 H 0.47829 0.99880 0.45291
 H186 H 0.60622 0.97206 0.49677
 H187 H 0.60626 1.02697 0.44472
 H188 H 0.52807 1.10709 0.40696
 H189 H 0.47273 1.10655 0.39228
 H190 H 0.39427 0.97384 0.55170
 H191 H 0.52245 1.00217 0.54965
 H192 H 0.39432 1.02871 0.49897
 C193 C 1.19372 0.19209 0.18090
 C194 C 1.17593 0.17415 0.16138
 C195 C 1.15453 0.15287 0.13936
 C196 C 1.12609 0.15999 0.15786
 C197 C 1.10524 0.13932 0.13747
 C198 C 1.11274 0.11144 0.09860
 C199 C 1.14117 0.10431 0.07998
 C200 C 1.16203 0.12499 0.10037
 C201 C 1.09128 0.09018 0.07830
 C202 C 1.07324 0.07240 0.06154
 H203 H 1.12007 0.18147 0.18818
 H204 H 1.08332 0.14505 0.15212
 H205 H 1.14719 0.08281 0.04992
 H206 H 1.18396 0.11925 0.08595
 C207 C 0.69344 0.69234 0.68232
 C208 C 0.67559 0.67447 0.66282
 C209 C 0.65413 0.65325 0.64077
 C210 C 0.66157 0.62533 0.60215
 C211 C 0.64066 0.60470 0.58182
 C212 C 0.61224 0.61192 0.60012
 C213 C 0.60480 0.63984 0.63844
 C214 C 0.62570 0.66046 0.65877
 C215 C 0.59073 0.59071 0.57969
 C216 C 0.57267 0.57296 0.56266
 H217 H 0.68348 0.61952 0.58806
 H218 H 0.64662 0.58317 0.55217
 H219 H 0.58289 0.64563 0.65281
 H220 H 0.61973 0.68198 0.68875
 C221 C -0.19342 0.30762 0.18146
 C222 C -0.17564 0.32549 0.16124
 C223 C -0.15427 0.34673 0.13852
 C224 C -0.16186 0.37457 0.10093
 C225 C -0.14106 0.39526 0.08056
 C226 C -0.11260 0.38818 0.09771
 C227 C -0.10501 0.36033 0.13490
 C228 C -0.12580 0.33965 0.15526
 C229 C -0.09119 0.40944 0.07717
 C230 C -0.07316 0.42718 0.06000
 H231 H -0.18381 0.38027 0.08772
 H232 H -0.14715 0.41674 0.05182
 H233 H -0.08306 0.35465 0.14841
 H234 H -0.11969 0.31819 0.18435
 C235 C 0.30653 0.80875 0.67990
 C236 C 0.32441 0.82652 0.65985
 C237 C 0.34592 0.84764 0.63733
 C238 C 0.33851 0.87546 0.59842
 C239 C 0.35944 0.89604 0.57842
 C240 C 0.38784 0.88886 0.59730
 C241 C 0.39525 0.86102 0.63584
 C242 C 0.37433 0.84045 0.65583
 C243 C 0.40936 0.91002 0.57730
 C244 C 0.42743 0.92774 0.56060
 H245 H 0.31661 0.88125 0.58393
 H246 H 0.35350 0.91750 0.54852
 H247 H 0.41715 0.85525 0.65059
 H248 H 0.38028 0.81901 0.68601
 C249 C -0.19291 0.69196 -0.18647
 C250 C -0.17522 0.67395 -0.16867
 C251 C -0.15391 0.65259 -0.14876
 C252 C -0.16152 0.62478 -0.11039
 C253 C -0.14076 0.60402 -0.09212
 C254 C -0.11233 0.61102 -0.11221
 C255 C -0.10472 0.63883 -0.15049
 C256 C -0.12548 0.65957 -0.16876
 C257 C -0.09095 0.58973 -0.09340
 C258 C -0.07296 0.57195 -0.07761
 H259 H -0.18345 0.61914 -0.09483
 H260 H -0.14685 0.58257 -0.06251
 H261 H -0.08280 0.64446 -0.16629
 H262 H -0.11937 0.68101 -0.19863
 C263 C 0.30639 1.19122 0.31161
 C264 C 0.32428 1.17342 0.32955
 C265 C 0.34583 1.15231 0.34949
 C266 C 0.33851 1.12439 0.38744
 C267 C 0.35950 1.10389 0.40611
 C268 C 0.38787 1.11123 0.38685
 C269 C 0.39518 1.13913 0.34873
 C270 C 0.37420 1.15962 0.33005
 C271 C 0.40945 1.09016 0.40609
 C272 C 0.42753 1.07249 0.42218
 H273 H 0.31664 1.11850 0.40258
 H274 H 0.35363 1.08236 0.43549
 H275 H 0.41705 1.14502 0.33350
 H276 H 0.38008 1.18114 0.30055
 C277 C 1.19370 -0.19220 -0.18960
 C278 C 1.17584 -0.17431 -0.17203
 C279 C 1.15440 -0.15304 -0.15214
 C280 C 1.16188 -0.12511 -0.11368
 C281 C 1.14102 -0.10443 -0.09518
 C282 C 1.11261 -0.11160 -0.11511
 C283 C 1.10514 -0.13952 -0.15364
 C284 C 1.12599 -0.16020 -0.17215
 C285 C 1.09116 -0.09035 -0.09592
 C286 C 1.07314 -0.07258 -0.07962
 H287 H 1.18378 -0.11934 -0.09812
 H288 H 1.14702 -0.08289 -0.06548
 H289 H 1.08324 -0.14528 -0.16941
 H290 H 1.11998 -0.18173 -0.20208
 C291 C 0.69277 0.30794 0.31278
 C292 C 0.67497 0.32589 0.33029
 C293 C 0.65361 0.34723 0.35011
 C294 C 0.66118 0.37516 0.38813
 C295 C 0.64039 0.39592 0.40636
 C296 C 0.61196 0.38884 0.38662
 C297 C 0.60439 0.36091 0.34875
 C298 C 0.62517 0.34015 0.33053
 C299 C 0.59056 0.41016 0.40555
 C300 C 0.57258 0.42797 0.42161
 H301 H 0.68310 0.38087 0.40355
 H302 H 0.64646 0.41746 0.43571
 H303 H 0.58247 0.35520 0.33332
 H304 H 0.61909 0.31862 0.30116
 C305 C 0.80645 -0.19233 -0.18243
 C306 C 0.82431 -0.17447 -0.16277
 C307 C 0.84582 -0.15329 -0.14065
 C308 C 0.83843 -0.12535 -0.10217
 C309 C 0.85939 -0.10476 -0.08187
 C310 C 0.88779 -0.11205 -0.09999
 C311 C 0.89517 -0.14000 -0.13815
 C312 C 0.87422 -0.16057 -0.15845
 C313 C 0.90935 -0.09090 -0.07945
 C314 C 0.92745 -0.07320 -0.06225
 H315 H 0.81653 -0.11948 -0.08818
 H316 H 0.85347 -0.08321 -0.05238
 H317 H 0.91707 -0.14585 -0.15242
 H318 H 0.88016 -0.18211 -0.18827
 C319 C 0.30630 0.30787 0.31573
 C320 C 0.32410 0.32577 0.33552
 C321 C 0.34553 0.34702 0.35798
 C322 C 0.33805 0.37492 0.39672
 C323 C 0.35892 0.39558 0.41705
 C324 C 0.38735 0.38841 0.39874
 C325 C 0.39483 0.36050 0.36053
 C326 C 0.37397 0.33985 0.34020
 C327 C 0.40884 0.40964 0.41944
 C328 C 0.42689 0.42738 0.43688
 H329 H 0.31612 0.38069 0.41085
 H330 H 0.35292 0.41711 0.44665
 H331 H 0.41676 0.35474 0.34618
 H332 H 0.37999 0.31833 0.31035
 C333 C 0.19285 0.69228 -0.18017
 C334 C 0.17507 0.67438 -0.16054
 C335 C 0.15372 0.65309 -0.13841
 C336 C 0.12526 0.66010 -0.15633
 C337 C 0.10448 0.63939 -0.13589
 C338 C 0.11209 0.61160 -0.09757
 C339 C 0.14054 0.60460 -0.07936
 C340 C 0.16133 0.62531 -0.09980
 C341 C 0.09070 0.59031 -0.07737
 C342 C 0.07270 0.57252 -0.06070
 H343 H 0.11915 0.68151 -0.18638
 H344 H 0.08253 0.64502 -0.15029
 H345 H 0.14664 0.58316 -0.04982
 H346 H 0.18328 0.61966 -0.08587
 C347 C 0.69395 1.19242 0.32206
 C348 C 0.67613 1.17458 0.34212
 C349 C 0.65473 1.15336 0.36487
 C350 C 0.66104 1.12456 0.34331
 C351 C 0.64014 1.10397 0.36382
 C352 C 0.61285 1.11211 0.40576
 C353 C 0.60656 1.14091 0.42768
 C354 C 0.62745 1.16150 0.40721
 C355 C 0.59130 1.09096 0.42548
 C356 C 0.57323 1.07324 0.44178
 H357 H 0.68204 1.11804 0.31013
 H358 H 0.64522 1.08176 0.34642
 H359 H 0.58551 1.14744 0.45992
 H360 H 0.62233 1.18372 0.42375
 C361 C 0.19262 0.30782 0.18455
 C362 C 0.17487 0.32577 0.16659
 C363 C 0.15353 0.34709 0.14657
 C364 C 0.16111 0.37493 0.10846
 C365 C 0.14033 0.39566 0.09033
 C366 C 0.11190 0.38862 0.11026
 C367 C 0.10432 0.36079 0.14825
 C368 C 0.12510 0.34006 0.16637
 C369 C 0.09050 0.40991 0.09162
 C370 C 0.07251 0.42769 0.07595
 H371 H 0.18304 0.38059 0.09297
 H372 H 0.14640 0.41713 0.06090
 H373 H 0.08240 0.35513 0.16387
 H374 H 0.11902 0.31861 0.19595
 C375 C 0.69377 0.80909 0.68745
 C376 C 0.67597 0.82699 0.66960
 C377 C 0.65453 0.84821 0.64967
 C378 C 0.66196 0.87607 0.61109
 C379 C 0.64107 0.89669 0.59275
 C380 C 0.61267 0.88952 0.61291
 C381 C 0.60525 0.86167 0.65137
 C382 C 0.62613 0.84106 0.66972
 C383 C 0.59117 0.91070 0.59393
 C384 C 0.57312 0.92841 0.57791
 H385 H 0.68385 0.88183 0.59535
 H386 H 0.64703 0.91817 0.56305
 H387 H 0.58336 0.85591 0.66727
 H388 H 0.62016 0.81958 0.69959
 C389 C 0.80671 0.19099 0.19068
 C390 C 0.82458 0.17311 0.17335
 C391 C 0.84607 0.15189 0.15366
 C392 C 0.83866 0.12391 0.11567
 C393 C 0.85957 0.10330 0.09697
 C394 C 0.88797 0.11057 0.11627
 C395 C 0.89537 0.13853 0.15436
 C396 C 0.87446 0.15915 0.17307
 C397 C 0.90949 0.08941 0.09675
 C398 C 0.92755 0.07169 0.08017
 H399 H 0.81676 0.11806 0.10066
 H400 H 0.85363 0.08172 0.06765
 H401 H 0.91727 0.14437 0.16968
 H402 H 0.88042 0.18070 0.20270
 C403 C 0.30664 0.69219 0.68826
 C404 C 0.32447 0.67427 0.67079
 C405 C 0.34585 0.65294 0.65114
 C406 C 0.33833 0.62506 0.61197
 C407 C 0.35914 0.60432 0.59384
 C408 C 0.38754 0.61138 0.61479
 C409 C 0.39507 0.63926 0.65389
 C410 C 0.37427 0.66000 0.67202
 C411 C 0.40897 0.59010 0.59550
 C412 C 0.42697 0.57232 0.57903
 H413 H 0.31642 0.61937 0.59566
 H414 H 0.35310 0.58281 0.56362
 H415 H 0.41697 0.64495 0.67036
 H416 H 0.38031 0.68150 0.70242
   
