data_POSCAR
  _audit_creation_date              2014-09-24
  _audit_creation_method            'ToBaCCo'
  _symmetry_space_group_name_H-M    'P1'
  _symmetry_Int_Tables_number       1
  _symmetry_cell_setting            triclinic
  loop_
  _symmetry_equiv_pos_as_xyz
 x,y,z
_cell_length_a 26.0411
_cell_length_b 26.4263
_cell_length_c 27.6133
_cell_angle_alpha 91.602300
_cell_angle_beta 93.257500
_cell_angle_gamma 90.371200
loop_
  _atom_site_label
  _atom_site_type_symbol
  _atom_site_fract_x
  _atom_site_fract_y
  _atom_site_fract_z
N1 N 0.60638 0.60080 0.60738
 N2 N 0.89395 0.39665 0.11144
 N3 N 0.38215 0.12757 -0.10477
 N4 N 0.12654 0.87764 0.37961
 N5 N 0.07636 0.20792 0.10895
 N6 N 0.05887 0.19249 0.14987
 C7 C 0.02931 0.22869 0.16875
 C8 C 0.02739 0.26816 0.13725
 C9 C 0.05704 0.25403 0.09930
 H10 H 0.00889 0.22558 0.20158
 H11 H 0.06434 0.27551 0.06760
 Cu12 Cu 0.07060 0.12418 0.17148
 Cu13 Cu 0.12347 0.16631 0.07266
 Cu14 Cu 0.18147 0.07196 0.14218
 N15 N 0.09397 0.06153 0.19955
 N16 N 0.13895 0.04234 0.19015
 C17 C 0.14783 0.00166 0.21776
 C18 C 0.10533 -0.00505 0.24471
 C19 C 0.07179 0.03316 0.23235
 H20 H 0.18198 -0.02140 0.21766
 H21 H 0.03499 0.04064 0.24724
 N22 N 0.20806 0.09496 0.08088
 N23 N 0.18656 0.13123 0.05480
 C24 C 0.21386 0.13821 0.01544
 C25 C 0.25349 0.10382 0.01673
 C26 C 0.24876 0.07675 0.05817
 H27 H 0.20486 0.16523 -0.01242
 H28 H 0.27300 0.04617 0.07075
 H29 H 0.11748 0.09387 0.10228
 H30 H 0.15235 0.14554 0.13818
 N31 N 0.42360 0.78433 0.62322
 N32 N 0.43702 0.79489 0.66908
 C33 C 0.46747 0.75788 0.68667
 C34 C 0.47378 0.72295 0.64947
 C35 C 0.44589 0.74076 0.60955
 H36 H 0.48605 0.75784 0.72269
 H37 H 0.44302 0.72416 0.57324
 Cu38 Cu 0.41901 0.85907 0.69944
 Cu39 Cu 0.38096 0.82976 0.58412
 Cu40 Cu 0.32360 0.92717 0.64842
 N41 N 0.40444 0.92709 0.72332
 N42 N 0.36484 0.95241 0.70513
 C43 C 0.36002 0.99587 0.73109
 C44 C 0.39968 0.99800 0.76641
 C45 C 0.42740 0.95420 0.76061
 H46 H 0.33065 1.02394 0.72421
 H47 H 0.46057 0.94234 0.78266
 N48 N 0.30234 0.90766 0.58088
 N49 N 0.32329 0.86989 0.55676
 C50 C 0.29897 0.86463 0.51247
 C51 C 0.26226 0.90185 0.50859
 C52 C 0.26526 0.92866 0.55216
 H53 H 0.30750 0.83625 0.48517
 H54 H 0.24159 0.96019 0.56251
 H55 H 0.38945 0.89825 0.62410
 H56 H 0.34293 0.84990 0.64357
 N57 N 0.91736 0.71223 0.39935
 N58 N 0.94219 0.68813 0.36558
 C59 C 0.98887 0.70983 0.36253
 C60 C 0.99318 0.74868 0.39701
 C61 C 0.94750 0.74943 0.41976
 H62 H 1.01753 0.69798 0.33784
 H63 H 0.93643 0.77575 0.44795
 Cu64 Cu 0.91092 0.62984 0.33047
 Cu65 Cu 0.84623 0.69643 0.41135
 Cu66 Cu 0.80663 0.57570 0.37312
 N67 N 0.87400 0.57545 0.29421
 N68 N 0.83265 0.55471 0.31090
 C69 C 0.81551 0.51703 0.28022
 C70 C 0.84814 0.51421 0.24264
 C71 C 0.88495 0.55150 0.25238
 H72 H 0.78285 0.49276 0.28565
 H73 H 0.91739 0.56005 0.23116
 N74 N 0.77182 0.61574 0.42257
 N75 N 0.78510 0.66297 0.43468
 C76 C 0.75346 0.68108 0.46778
 C77 C 0.71917 0.64315 0.47705
 C78 C 0.73163 0.60208 0.44814
 H79 H 0.75665 0.71812 0.48540
 H80 H 0.71311 0.56528 0.44592
 H81 H 0.86535 0.62259 0.40504
 H82 H 0.82350 0.64642 0.35366
 N83 N 0.56215 0.32831 -0.09910
 N84 N 0.54518 0.32533 -0.14493
 C85 C 0.50379 0.29435 -0.14946
 C86 C 0.49409 0.27823 -0.10367
 C87 C 0.53136 0.30055 -0.07245
 H88 H 0.48303 0.28386 -0.18332
 H89 H 0.53756 0.29461 -0.03397
 Cu90 Cu 0.57966 0.36199 -0.19397
 Cu91 Cu 0.62669 0.36277 -0.07884
 Cu92 Cu 0.70648 0.37855 -0.17358
 N93 N 0.61895 0.40294 -0.23638
 N94 N 0.66934 0.40656 -0.22999
 C95 C 0.68737 0.43676 -0.26370
 C96 C 0.64583 0.45364 -0.29178
 C97 C 0.60281 0.43179 -0.27366
 H98 H 0.72714 0.44834 -0.26537
 H99 H 0.56304 0.43741 -0.28564
 N100 N 0.73243 0.37560 -0.10548
 N101 N 0.70161 0.37321 -0.06917
 C102 C 0.73009 0.37557 -0.02692
 C103 C 0.78110 0.37951 -0.03759
 C104 C 0.78154 0.37933 -0.08752
 H105 H 0.71486 0.37357 0.00860
 H106 H 0.81473 0.38272 -0.10907
 H107 H 0.64484 0.40361 -0.13935
 H108 H 0.65163 0.33339 -0.14138
 N109 N -0.01125 0.33529 0.18413
 N110 N -0.04667 0.37063 0.17835
 C111 C -0.06147 0.37019 0.13069
 C112 C -0.03377 0.33326 0.10727
 N113 N -0.00286 0.31273 0.14198
 H114 H -0.03846 0.31949 0.07002
 N115 N 0.52736 0.66051 0.69094
 N116 N 0.56279 0.62662 0.68088
 C117 C 0.56621 0.62594 0.63230
 C118 C 0.53178 0.66036 0.61280
 N119 N 0.50839 0.68109 0.65062
 H120 H 0.52667 0.67156 0.57543
 N121 N 1.04895 0.80277 0.44995
 N122 N 1.08583 0.83708 0.44677
 C123 C 1.09569 0.83884 0.39941
 C124 C 1.06393 0.80450 0.37353
 N125 N 1.03552 0.78283 0.40653
 H126 H 1.05947 0.79836 0.33459
 N127 N 0.44180 0.23510 -0.04695
 N128 N 0.41098 0.19508 -0.04591
 C129 C 0.40699 0.17513 -0.09148
 C130 C 0.43608 0.20411 -0.12062
 N131 N 0.45710 0.24114 -0.09136
 H132 H 0.44331 0.19754 -0.15849
 N133 N 0.05123 -0.05874 0.29077
 N134 N 0.05538 -0.09105 0.32655
 C135 C 0.10609 -0.09557 0.33829
 C136 C 0.13311 -0.06517 0.30861
 N137 N 0.09729 -0.04299 0.27946
 H138 H 0.17414 -0.05804 0.30961
 N139 N 0.68987 0.50635 -0.34731
 N140 N 0.68070 0.54576 -0.37501
 C141 C 0.63037 0.55658 -0.37231
 C142 C 0.60879 0.52249 -0.34219
 N143 N 0.64731 0.49186 -0.32740
 H144 H 0.56988 0.52153 -0.33036
 N145 N 0.45621 1.05027 0.82072
 N146 N 0.45308 1.08623 0.85484
 C147 C 0.40258 1.09585 0.85806
 C148 C 0.37469 1.06480 0.82525
 N149 N 0.40971 1.03716 0.80253
 H150 H 0.33332 1.06121 0.81979
 N151 N 0.80598 0.44774 0.19155
 N152 N 0.81655 0.41597 0.15552
 C153 C 0.86509 0.42660 0.14434
 C154 C 0.88432 0.46527 0.17468
 N155 N 0.84608 0.47756 0.20343
 H156 H 0.92273 0.48138 0.17688
 N157 N 0.31348 0.05211 -0.02699
 N158 N 0.34769 0.05680 -0.06034
 C159 C 0.34662 0.10566 -0.07319
 C160 C 0.31065 0.13091 -0.04700
 N161 N 0.29090 0.09600 -0.01864
 H162 H 0.30109 0.17071 -0.04725
 N163 N 0.66556 0.68782 0.53318
 N164 N 0.63453 0.67791 0.56813
 C165 C 0.63091 0.62705 0.56981
 C166 C 0.66054 0.60594 0.53471
 N167 N 0.68151 0.64524 0.51278
 H168 H 0.66815 0.56631 0.52746
 N169 N 0.87327 0.38032 -0.01567
 N170 N 0.90484 0.38427 0.02370
 C171 C 0.87489 0.38950 0.06176
 C172 C 0.82409 0.38908 0.04469
 N173 N 0.82479 0.38299 -0.00373
 H174 H 0.79001 0.39259 0.06510
 N175 N 0.20900 0.95482 0.45566
 N176 N 0.17317 0.94979 0.41976
 C177 C 0.16810 0.89971 0.40968
 C178 C 0.20171 0.87406 0.44043
 N179 N 0.22655 0.90990 0.46836
 H180 H 0.20533 0.83356 0.44427
   
