data_POSCAR
  _audit_creation_date              2014-09-24
  _audit_creation_method            'ToBaCCo'
  _symmetry_space_group_name_H-M    'P1'
  _symmetry_Int_Tables_number       1
  _symmetry_cell_setting            triclinic
  loop_
  _symmetry_equiv_pos_as_xyz
 x,y,z
_cell_length_a 28.1611
_cell_length_b 28.1842
_cell_length_c 28.1513
_cell_angle_alpha 88.772200
_cell_angle_beta 93.200700
_cell_angle_gamma 86.739700
loop_
  _atom_site_label
  _atom_site_type_symbol
  _atom_site_fract_x
  _atom_site_fract_y
  _atom_site_fract_z
C1 C -0.01059 0.49506 0.24741
 C2 C 0.01482 0.50442 0.75079
 C3 C 0.25109 0.01411 0.51334
 C4 C 0.75111 -0.01140 0.48891
 C5 C 0.48690 0.25086 1.00037
 C6 C 0.51154 0.75091 0.99380
 B7 B 1.00076 1.04702 0.03193
 B8 B 0.99731 1.04936 -0.02823
 B9 B 1.04807 1.02716 0.00156
 B10 B 1.03248 0.99610 0.04997
 B11 B 0.97229 0.99922 0.04995
 B12 B 0.95038 1.03178 0.00143
 B13 B 0.99795 0.95193 -0.02958
 B14 B 1.00159 0.94970 0.03065
 B15 B 0.95084 0.97191 0.00073
 B16 B 0.96663 1.00279 -0.04762
 B17 B 1.02676 0.99992 -0.04766
 B18 B 1.04836 0.96691 0.00075
 B19 B 0.55022 0.50034 0.46954
 B20 B 0.55114 0.49979 0.52978
 B21 B 0.53022 0.54943 0.49805
 B22 B 0.50021 0.53190 0.44835
 B23 B 0.50205 0.47165 0.44911
 B24 B 0.53363 0.45182 0.49972
 B25 B 0.45328 0.50232 0.52540
 B26 B 0.45258 0.50270 0.46527
 B27 B 0.47337 0.45328 0.49701
 B28 B 0.50360 0.47095 0.54682
 B29 B 0.50142 0.53113 0.54581
 B30 B 0.46988 0.55083 0.49558
 C31 C 1.00051 1.36896 0.16815
 N32 N 1.03780 1.38163 0.19670
 N33 N 1.03518 1.42213 0.22010
 C34 C 0.99519 1.45169 0.21599
 N35 N 0.95878 1.43991 0.18549
 N36 N 0.96124 1.39918 0.16232
 C37 C 1.00123 1.32167 0.14733
 N38 N 0.96066 1.30461 0.12783
 N39 N 0.96055 1.26038 0.11209
 C40 C 1.00099 1.23161 0.11532
 N41 N 1.04167 1.24880 0.13444
 N42 N 1.04171 1.29293 0.15044
 C43 C 1.00085 1.18302 0.09772
 N44 N 1.04232 1.15691 0.09354
 N45 N 1.04222 1.11384 0.07499
 C46 C 1.00076 1.09500 0.06039
 N47 N 0.95929 1.12082 0.06563
 N48 N 0.95928 1.16399 0.08390
 C49 C 0.98089 0.62519 0.16904
 N50 N 1.01225 0.58926 0.15814
 N51 N 1.01284 0.54727 0.18088
 C52 C 0.98188 0.53939 0.21523
 N53 N 0.94966 0.57513 0.22502
 N54 N 0.94913 0.61712 0.20236
 C55 C 0.98405 0.67309 0.14839
 N56 N 0.95696 0.71025 0.16418
 N57 N 0.96189 0.75427 0.14775
 C58 C 0.99423 0.76275 0.11507
 N59 N 1.02114 0.72557 0.09906
 N60 N 1.01630 0.68156 0.11560
 C61 C 0.99915 0.81114 0.09645
 N62 N 1.02826 0.81899 0.06066
 N63 N 1.03040 0.86243 0.04167
 C64 C 1.00366 0.89969 0.05776
 N65 N 0.97564 0.89199 0.09452
 N66 N 0.97336 0.84854 0.11349
 C67 C 1.00813 1.37172 -0.17632
 N68 N 1.04133 1.37832 -0.20838
 N69 N 1.04419 1.42040 -0.22980
 C70 C 1.01435 1.45811 -0.21995
 N71 N 0.98087 1.45143 -0.18774
 N72 N 0.97798 1.40909 -0.16615
 C73 C 1.00463 1.32416 -0.15483
 N74 N 0.97267 1.31576 -0.12171
 N75 N 0.96990 1.27212 -0.10314
 C76 C 0.99878 1.23536 -0.11721
 N77 N 1.03059 1.24384 -0.15034
 N78 N 1.03343 1.28739 -0.16877
 C79 C 0.99662 1.18738 -0.09631
 N80 N 1.02485 1.15068 -0.11140
 N81 N 1.02429 1.10753 -0.09122
 C82 C 0.99547 1.09945 -0.05520
 N83 N 0.96699 1.13613 -0.04053
 N84 N 0.96743 1.17924 -0.06070
 C85 C 1.01345 0.63166 -0.17106
 N86 N 1.04776 0.62166 -0.20176
 N87 N 1.04930 0.58080 -0.22442
 C88 C 1.01690 0.54773 -0.21724
 N89 N 0.98303 0.55743 -0.18556
 N90 N 0.98135 0.59860 -0.16290
 C91 C 1.01002 0.67888 -0.14990
 N92 N 0.97398 0.69191 -0.12192
 N93 N 0.97032 0.73573 -0.10493
 C94 C 1.00238 0.76809 -0.11554
 N95 N 1.03841 0.75494 -0.14336
 N96 N 1.04206 0.71124 -0.16030
 C97 C 0.99907 0.81624 -0.09652
 N98 N 1.03217 0.84771 -0.10630
 N99 N 1.03081 0.89052 -0.08711
 C100 C 0.99624 0.90365 -0.05757
 N101 N 0.96266 0.87241 -0.04857
 N102 N 0.96395 0.82957 -0.06768
 C103 C 1.17355 1.00899 0.38024
 N104 N 1.17177 0.97314 0.41307
 N105 N 1.19381 0.97580 0.45611
 C106 C 1.21838 1.01449 0.46803
 N107 N 1.21885 1.05065 0.43530
 N108 N 1.19686 1.04804 0.39249
 C109 C 1.15384 1.00494 0.33105
 N110 N 1.16028 1.03974 0.29833
 N111 N 1.14456 1.03593 0.25318
 C112 C 1.12190 0.99705 0.23888
 N113 N 1.11527 0.96220 0.27158
 N114 N 1.13116 0.96596 0.31684
 C115 C 1.10331 0.99401 0.18922
 N116 N 1.07677 0.95754 0.17531
 N117 N 1.05686 0.95704 0.13127
 C118 C 1.06281 0.99279 0.09937
 N119 N 1.09048 1.02849 0.11299
 N120 N 1.11036 1.02911 0.15702
 C121 C 1.17881 1.01248 -0.35837
 N122 N 1.22583 1.02011 -0.35851
 N123 N 1.24778 1.02076 -0.39907
 C124 C 1.22369 1.01410 -0.44139
 N125 N 1.17637 1.00661 -0.44134
 N126 N 1.15437 1.00573 -0.40052
 C127 C 1.15569 1.01107 -0.31284
 N128 N 1.11017 0.99814 -0.31038
 N129 N 1.09023 0.99604 -0.26856
 C130 C 1.11501 1.00689 -0.22778
 N131 N 1.16040 1.02000 -0.23034
 N132 N 1.18038 1.02191 -0.27206
 C133 C 1.09316 1.00445 -0.18165
 N134 N 1.11625 1.01935 -0.14149
 N135 N 1.09606 1.01758 -0.09981
 C136 C 1.05217 1.00058 -0.09666
 N137 N 1.02942 0.98541 -0.13684
 N138 N 1.04941 0.98733 -0.17852
 C139 C 0.82445 0.98825 0.36175
 N140 N 0.84787 0.99847 0.40351
 N141 N 0.82562 0.99782 0.44416
 C142 C 0.77913 0.98706 0.44432
 N143 N 0.75602 0.97715 0.40236
 N144 N 0.77825 0.97746 0.36202
 C145 C 0.84746 0.98962 0.31639
 N146 N 0.82454 0.97363 0.27671
 N147 N 0.84399 0.97580 0.23481
 C148 C 0.88696 0.99443 0.23096
 N149 N 0.91004 1.01044 0.27063
 N150 N 0.89065 1.00803 0.31270
 C151 C 0.90792 0.99686 0.18459
 N152 N 0.94795 1.02040 0.17897
 N153 N 0.96720 1.02183 0.13689
 C154 C 0.94741 0.99958 0.09898
 N155 N 0.90705 0.97653 0.10459
 N156 N 0.88758 0.97529 0.14658
 C157 C 0.82909 0.99501 -0.37845
 N158 N 0.80839 0.95480 -0.39157
 N159 N 0.78589 0.95225 -0.43403
 C160 C 0.78334 0.98956 -0.46563
 N161 N 0.80533 1.02958 -0.45290
 N162 N 0.82772 1.03229 -0.41004
 C163 C 0.84919 0.99819 -0.32955
 N164 N 0.86551 1.03934 -0.31256
 N165 N 0.88103 1.04188 -0.26707
 C166 C 0.88042 1.00348 -0.23709
 N167 N 0.86428 0.96246 -0.25424
 N168 N 0.84883 0.95993 -0.29954
 C169 C 0.89817 1.00520 -0.18728
 N170 N 0.89931 0.96552 -0.15899
 N171 N 0.91831 0.96559 -0.11467
 C172 C 0.93647 1.00544 -0.09674
 N173 N 0.93460 1.04536 -0.12486
 N174 N 0.91565 1.04534 -0.16929
 C175 C 1.35787 1.18087 0.00396
 N176 N 1.39969 1.15503 0.00004
 N177 N 1.44076 1.17642 -0.00064
 C178 C 1.44146 1.22443 0.00291
 N179 N 1.39956 1.24993 0.00736
 N180 N 1.35865 1.22865 0.00775
 C181 C 1.31217 1.15819 0.00342
 N182 N 1.27059 1.18528 0.00001
 N183 N 1.22888 1.16519 -0.00065
 C184 C 1.22723 1.11723 0.00237
 N185 N 1.26880 1.09010 0.00588
 N186 N 1.31054 1.11019 0.00623
 C187 C 1.18135 1.09493 0.00223
 N188 N 1.18007 1.04785 0.01241
 N189 N 1.13868 1.02739 0.01249
 C190 C 1.09691 1.05287 0.00219
 N191 N 1.09822 1.10005 -0.00815
 N192 N 1.13966 1.12075 -0.00795
 C193 C 0.61690 1.16829 -0.00795
 N194 N 0.58980 1.16314 0.03002
 N195 N 0.54768 1.18702 0.03153
 C196 C 0.53112 1.21739 -0.00466
 N197 N 0.55770 1.22080 -0.04340
 N198 N 0.59963 1.19681 -0.04504
 C199 C 0.66582 1.14711 -0.00729
 N200 N 0.69260 1.15266 -0.04547
 N201 N 0.73810 1.13662 -0.04381
 C202 C 0.75863 1.11485 -0.00372
 N203 N 0.73180 1.10907 0.03438
 N204 N 0.68625 1.12498 0.03267
 C205 C 0.80883 1.09732 -0.00165
 N206 N 0.82972 1.07780 0.03929
 N207 N 0.87449 1.05975 0.04070
 C208 C 0.90030 1.06068 0.00143
 N209 N 0.87951 1.08079 -0.03939
 N210 N 0.83472 1.09902 -0.04086
 C211 C 1.37936 0.83074 -0.01300
 N212 N 1.39222 0.80433 -0.05039
 N213 N 1.43487 0.78129 -0.04967
 C214 C 1.46650 0.78389 -0.01162
 N215 N 1.45427 0.81229 0.02476
 N216 N 1.41146 0.83505 0.02421
 C217 C 1.33017 0.85045 -0.01099
 N218 N 1.31384 0.86669 0.03050
 N219 N 1.26827 0.88137 0.03318
 C220 C 1.23739 0.88027 -0.00552
 N221 N 1.25381 0.86437 -0.04708
 N222 N 1.29928 0.84939 -0.04967
 C223 C 1.18749 0.89759 -0.00313
 N224 N 1.15955 0.90530 -0.04365
 N225 N 1.11543 0.92449 -0.04206
 C226 C 1.09721 0.93616 0.00002
 N227 N 1.12482 0.92724 0.04070
 N228 N 1.16916 0.90834 0.03918
 C229 C 0.63585 0.82915 0.00543
 N230 N 0.62858 0.79479 0.03821
 N231 N 0.58870 0.77157 0.03583
 C232 C 0.55444 0.78150 0.00049
 N233 N 0.56136 0.81688 -0.03162
 N234 N 0.60124 0.84026 -0.02918
 C235 C 0.68175 0.85145 0.00569
 N236 N 0.68901 0.88704 -0.02587
 N237 N 0.73148 0.90550 -0.02702
 C238 C 0.76832 0.88875 0.00306
 N239 N 0.76102 0.85325 0.03468
 N240 N 0.71851 0.83496 0.03596
 C241 C 0.81524 0.90874 0.00143
 N242 N 0.85327 0.88919 0.02820
 N243 N 0.89558 0.90797 0.02727
 C244 C 0.90151 0.94703 -0.00030
 N245 N 0.86346 0.96620 -0.02731
 N246 N 0.82120 0.94741 -0.02661
 C247 C 0.86535 0.48788 0.32564
 N248 N 0.89640 0.52226 0.33433
 N249 N 0.93635 0.52342 0.31112
 C250 C 0.94684 0.49026 0.27828
 N251 N 0.91627 0.45511 0.27095
 N252 N 0.87637 0.45399 0.29401
 C253 C 0.81918 0.48887 0.34756
 N254 N 0.78603 0.45794 0.33391
 N255 N 0.74320 0.46014 0.35189
 C256 C 0.73195 0.49341 0.38418
 N257 N 0.76518 0.52417 0.39804
 N258 N 0.80795 0.52208 0.37993
 C259 C 0.68487 0.49599 0.40425
 N260 N 0.67567 0.52656 0.43953
 N261 N 0.63361 0.52822 0.45887
 C262 C 0.59898 0.49960 0.44378
 N263 N 0.60789 0.46956 0.40785
 N264 N 0.65010 0.46770 0.38849
 C265 C 0.12048 0.50326 0.32781
 N266 N 0.09455 0.46433 0.33185
 N267 N 0.05214 0.46268 0.30856
 C268 C 0.03437 0.49960 0.27970
 N269 N 0.05976 0.53915 0.27738
 N270 N 0.10185 0.54098 0.30095
 C271 C 0.16943 0.50345 0.34857
 N272 N 0.19311 0.54409 0.34810
 N273 N 0.23861 0.54392 0.36380
 C274 C 0.26232 0.50296 0.37992
 N275 N 0.23864 0.46230 0.38052
 N276 N 0.19301 0.46254 0.36510
 C277 C 0.31239 0.50288 0.39740
 N278 N 0.33791 0.46136 0.40789
 N279 N 0.38246 0.46142 0.42642
 C280 C 0.40321 0.50288 0.43522
 N281 N 0.37783 0.54436 0.42392
 N282 N 0.33339 0.54439 0.40507
 C283 C 0.88142 0.50787 0.67295
 N284 N 0.91420 0.47124 0.66835
 N285 N 0.95717 0.47136 0.69083
 C286 C 0.96914 0.50818 0.71872
 N287 N 0.93665 0.54544 0.72186
 N288 N 0.89375 0.54529 0.69950
 C289 C 0.83233 0.50581 0.65252
 N290 N 0.79846 0.53982 0.66253
 N291 N 0.75344 0.53708 0.64603
 C292 C 0.74054 0.50013 0.61899
 N293 N 0.77443 0.46619 0.60881
 N294 N 0.81945 0.46885 0.62546
 C295 C 0.69110 0.49773 0.59974
 N296 N 0.67949 0.46377 0.56846
 N297 N 0.63552 0.46346 0.54851
 C298 C 0.60129 0.49687 0.55909
 N299 N 0.61264 0.53000 0.59143
 N300 N 0.65669 0.53050 0.61135
 C301 C 0.14180 0.50189 0.67610
 N302 N 0.09898 0.51059 0.65171
 N303 N 0.05848 0.51088 0.67436
 C304 C 0.05952 0.50255 0.72224
 N305 N 0.10254 0.49442 0.74625
 N306 N 0.14270 0.49380 0.72370
 C307 C 0.18708 0.50155 0.65259
 N308 N 0.22803 0.48629 0.67739
 N309 N 0.26974 0.48675 0.65747
 C310 C 0.27217 0.50286 0.61202
 N311 N 0.23123 0.51814 0.58704
 N312 N 0.18935 0.51742 0.60694
 C313 C 0.31845 0.50364 0.59055
 N314 N 0.32233 0.52529 0.54761
 N315 N 0.36434 0.52555 0.52818
 C316 C 0.40407 0.50409 0.55064
 N317 N 0.40010 0.48268 0.59373
 N318 N 0.35816 0.48260 0.61342
 C319 C 0.50386 0.66685 0.11988
 N320 N 0.46514 0.69303 0.10138
 N321 N 0.46705 0.71770 0.06082
 C322 C 0.50776 0.71743 0.03693
 N323 N 0.54571 0.68890 0.05423
 N324 N 0.54397 0.66447 0.09516
 C325 C 0.50318 0.64533 0.16778
 N326 N 0.54416 0.62879 0.19176
 N327 N 0.54373 0.61316 0.23676
 C328 C 0.50235 0.61362 0.25940
 N329 N 0.46136 0.62971 0.23525
 N330 N 0.46182 0.64555 0.19039
 C331 C 0.50177 0.59652 0.30897
 N332 N 0.45985 0.59069 0.32932
 N333 N 0.45930 0.57275 0.37343
 C334 C 0.50054 0.56052 0.39914
 N335 N 0.54239 0.56735 0.37898
 N336 N 0.54306 0.58502 0.33480
 C337 C 0.51644 0.67674 0.86457
 N338 N 0.48388 0.66688 0.89664
 N339 N 0.48368 0.68876 0.93815
 C340 C 0.51613 0.72129 0.94934
 N341 N 0.54938 0.73011 0.91752
 N342 N 0.54954 0.70832 0.87603
 C343 C 0.51423 0.65580 0.81719
 N344 N 0.54389 0.66930 0.78359
 N345 N 0.54065 0.65178 0.74000
 C346 C 0.50750 0.62022 0.72837
 N347 N 0.47795 0.60662 0.76201
 N348 N 0.48113 0.62420 0.80555
 C349 C 0.50421 0.60008 0.68067
 N350 N 0.47337 0.56594 0.67083
 N351 N 0.47180 0.54578 0.62852
 C352 C 0.50084 0.55887 0.59430
 N353 N 0.53090 0.59392 0.60375
 N354 N 0.53264 0.61410 0.64619
 C355 C 0.49765 0.31973 0.13277
 N356 N 0.50223 0.27178 0.13034
 N357 N 0.49946 0.25081 0.08852
 C358 C 0.49266 0.27674 0.04717
 N359 N 0.48785 0.32493 0.04963
 N360 N 0.49031 0.34601 0.09166
 C361 C 0.49939 0.34209 0.17947
 N362 N 0.48698 0.38897 0.18369
 N363 N 0.48717 0.40846 0.22643
 C364 C 0.49994 0.38188 0.26644
 N365 N 0.51265 0.33509 0.26217
 N366 N 0.51219 0.31555 0.21948
 C367 C 0.49969 0.40355 0.31343
 N368 N 0.51831 0.37947 0.35315
 N369 N 0.51872 0.39998 0.39545
 C370 C 0.50036 0.44517 0.39967
 N371 N 0.48110 0.46864 0.35994
 N372 N 0.48088 0.44843 0.31769
 C373 C 0.48360 0.33130 0.87141
 N374 N 0.45012 0.29972 0.87890
 N375 N 0.44928 0.27682 0.92061
 C376 C 0.48154 0.28479 0.95693
 N377 N 0.51454 0.31728 0.94961
 N378 N 0.51542 0.34022 0.90773
 C379 C 0.48747 0.35200 0.82353
 N380 N 0.52198 0.38214 0.81443
 N381 N 0.52672 0.39859 0.77027
 C382 C 0.49742 0.38516 0.73361
 N383 N 0.46289 0.35514 0.74278
 N384 N 0.45809 0.33880 0.78687
 C385 C 0.50193 0.40381 0.68505
 N386 N 0.47282 0.38989 0.64850
 N387 N 0.47470 0.40912 0.60506
 C388 C 0.50565 0.44307 0.59651
 N389 N 0.53566 0.45591 0.63282
 N390 N 0.53389 0.43667 0.67625
 C391 C 0.67987 0.86025 0.49188
 N392 N 0.65402 0.90258 0.49021
 N393 N 0.67575 0.94346 0.48912
 C394 C 0.72409 0.94329 0.48941
 N395 N 0.74947 0.90077 0.49006
 N396 N 0.72789 0.86017 0.49158
 C397 C 0.65720 0.81483 0.49427
 N398 N 0.68396 0.77443 0.50679
 N399 N 0.66432 0.73263 0.50821
 C400 C 0.61724 0.72967 0.49667
 N401 N 0.59039 0.77006 0.48413
 N402 N 0.60997 0.81200 0.48315
 C403 C 0.59587 0.68352 0.49693
 N404 N 0.55236 0.67895 0.47514
 N405 N 0.53286 0.63711 0.47511
 C406 C 0.55565 0.59827 0.49708
 N407 N 0.59935 0.60287 0.51875
 N408 N 0.61924 0.64467 0.51848
 C409 C 0.67276 0.12115 0.49007
 N410 N 0.69748 0.10858 0.45194
 N411 N 0.71977 0.06585 0.45046
 C412 C 0.71820 0.03360 0.48689
 N413 N 0.69219 0.04580 0.52458
 N414 N 0.66985 0.08876 0.52610
 C415 C 0.65305 0.17026 0.49328
 N416 N 0.62910 0.18467 0.53146
 N417 N 0.61341 0.22997 0.53475
 C418 C 0.62155 0.26249 0.50024
 N419 N 0.64545 0.24801 0.46213
 N420 N 0.66098 0.20279 0.45878
 C421 C 0.60323 0.31211 0.50286
 N422 N 0.61201 0.34437 0.46841
 N423 N 0.59232 0.38846 0.46860
 C424 C 0.56301 0.40196 0.50308
 N425 N 0.55552 0.37002 0.53832
 N426 N 0.57524 0.32595 0.53828
 C427 C 0.33027 0.88182 0.50935
 N428 N 0.32834 0.91271 0.47146
 N429 N 0.30586 0.95556 0.47357
 C430 C 0.28425 0.96913 0.51361
 N431 N 0.28749 0.93838 0.55172
 N432 N 0.31013 0.89583 0.54972
 C433 C 0.35049 0.83275 0.50627
 N434 N 0.35238 0.80311 0.54508
 N435 N 0.36813 0.75786 0.54233
 C436 C 0.38223 0.74033 0.50054
 N437 N 0.38049 0.76996 0.46166
 N438 N 0.36480 0.81533 0.46444
 C439 C 0.40036 0.69050 0.49812
 N440 N 0.41358 0.67208 0.45639
 N441 N 0.43288 0.62787 0.45511
 C442 C 0.43967 0.60032 0.49537
 N443 N 0.42538 0.61852 0.53684
 N444 N 0.40598 0.66265 0.53819
 C445 C 0.32213 0.14284 0.51086
 N446 N 0.27560 0.14218 0.52049
 N447 N 0.25408 0.10146 0.52161
 C448 C 0.27820 0.05947 0.51364
 N449 N 0.32500 0.06004 0.50407
 N450 N 0.34654 0.10104 0.50263
 C451 C 0.34471 0.18854 0.50872
 N452 N 0.38868 0.19180 0.49188
 N453 N 0.40803 0.23380 0.48900
 C454 C 0.38422 0.27397 0.50298
 N455 N 0.34041 0.27061 0.52002
 N456 N 0.32097 0.22872 0.52264
 C457 C 0.40564 0.32021 0.50003
 N458 N 0.38512 0.35923 0.51991
 N459 N 0.40547 0.40077 0.51835
 C460 C 0.44694 0.40492 0.49662
 N461 N 0.46682 0.36602 0.47611
 N462 N 0.44673 0.32446 0.47786
   
