data_POSCAR
  _audit_creation_date              2014-09-24
  _audit_creation_method            'ToBaCCo'
  _symmetry_space_group_name_H-M    'P1'
  _symmetry_Int_Tables_number       1
  _symmetry_cell_setting            triclinic
  loop_
  _symmetry_equiv_pos_as_xyz
 x,y,z
_cell_length_a 27.6005
_cell_length_b 26.9734
_cell_length_c 26.8265
_cell_angle_alpha 91.383900
_cell_angle_beta 89.829200
_cell_angle_gamma 88.339600
loop_
  _atom_site_label
  _atom_site_type_symbol
  _atom_site_fract_x
  _atom_site_fract_y
  _atom_site_fract_z
C1 C 0.17638 0.18065 0.24572
 C2 C 0.16825 0.22278 0.21664
 C3 C 0.19601 0.22917 0.17443
 C4 C 0.23239 0.19456 0.16098
 C5 C 0.24068 0.15297 0.18915
 C6 C 0.21287 0.14631 0.23248
 C7 C 0.15440 0.16399 0.28817
 N8 N 0.17734 0.12109 0.30170
 C9 C 0.21333 0.11024 0.26806
 C10 C 0.27750 0.12553 0.16558
 N11 N 0.29182 0.15046 0.12472
 C12 C 0.26455 0.19281 0.12198
 C13 C 0.18050 0.27225 0.15275
 N14 N 0.14443 0.29287 0.18120
 C15 C 0.13660 0.26325 0.22053
 H16 H 0.12437 0.18218 0.30800
 H17 H 0.23747 0.07788 0.26877
 H18 H 0.29304 0.09055 0.17769
 H19 H 0.26739 0.22008 0.09319
 H20 H 0.19487 0.28793 0.11919
 H21 H 0.10974 0.27052 0.24948
 C22 C -0.19759 0.79710 0.25700
 C23 C -0.19668 0.76644 0.21356
 C24 C -0.23793 0.76367 0.18426
 C25 C -0.28035 0.79028 0.19772
 C26 C -0.28219 0.81764 0.24170
 C27 C -0.24084 0.82074 0.27151
 C28 C -0.16259 0.81259 0.29063
 N29 N -0.18456 0.84338 0.32540
 C30 C -0.23228 0.84790 0.31404
 C31 C -0.32587 0.84357 0.24297
 N32 N -0.34972 0.83397 0.19973
 C33 C -0.32252 0.80051 0.17222
 C34 C -0.22744 0.73256 0.14442
 N35 N -0.18135 0.71484 0.14901
 C36 C -0.16176 0.73560 0.19082
 H37 H -0.12446 0.80194 0.29009
 H38 H -0.25869 0.87124 0.33417
 H39 H -0.33701 0.87136 0.27083
 H40 H -0.33093 0.78740 0.13488
 H41 H -0.25210 0.72234 0.11482
 H42 H -0.12522 0.72847 0.20389
 C43 C -0.18664 0.23289 -0.24837
 C44 C -0.18482 0.26368 -0.20559
 C45 C -0.20537 0.24886 -0.16167
 C46 C -0.22997 0.20439 -0.16048
 C47 C -0.23410 0.17460 -0.20304
 C48 C -0.21026 0.18815 -0.24726
 C49 C -0.16296 0.23489 -0.29330
 N50 N -0.16947 0.19177 -0.31922
 C51 C -0.19911 0.16317 -0.29183
 C52 C -0.26190 0.13477 -0.18974
 N53 N -0.27284 0.13977 -0.14022
 C54 C -0.25272 0.18176 -0.12227
 C55 C -0.19611 0.28441 -0.12550
 N56 N -0.17095 0.32068 -0.14683
 C57 C -0.16373 0.30855 -0.19571
 H58 H -0.13895 0.26381 -0.30422
 H59 H -0.20908 0.12571 -0.30181
 H60 H -0.27211 0.10402 -0.21378
 H61 H -0.25554 0.19569 -0.08411
 H62 H -0.20755 0.28446 -0.08685
 H63 H -0.14447 0.33073 -0.22195
 C64 C 0.15695 0.78773 -0.21994
 C65 C 0.16971 0.74974 -0.18697
 C66 C 0.21447 0.74961 -0.16341
 C67 C 0.24750 0.78713 -0.17321
 C68 C 0.23553 0.82266 -0.20779
 C69 C 0.18988 0.82370 -0.23027
 C70 C 0.11512 0.79960 -0.24580
 N71 N 0.12202 0.84216 -0.27088
 C72 C 0.16784 0.85689 -0.26173
 C73 C 0.27423 0.85293 -0.21216
 N74 N 0.30916 0.83822 -0.17980
 C75 C 0.29314 0.79817 -0.15524
 C76 C 0.21655 0.70857 -0.13363
 N77 N 0.17456 0.68380 -0.13878
 C78 C 0.14562 0.70890 -0.17108
 H79 H 0.08185 0.77927 -0.24557
 H80 H 0.18392 0.88979 -0.27611
 H81 H 0.27613 0.88460 -0.23610
 H82 H 0.31342 0.77806 -0.12735
 H83 H 0.24650 0.69745 -0.11002
 H84 H 0.10961 0.69837 -0.18218
 C85 C 0.22384 1.17253 0.75044
 C86 C 0.25073 1.17450 0.79457
 C87 C 0.23986 1.21038 0.83115
 C88 C 0.20076 1.24435 0.82413
 C89 C 0.17414 1.24168 0.78041
 C90 C 0.18518 1.20520 0.74376
 C91 C 0.22640 1.14140 0.70913
 N92 N 0.18908 1.15324 0.67828
 C93 C 0.16354 1.19231 0.69915
 C94 C 0.13937 1.27894 0.78260
 N95 N 0.14315 1.30406 0.82680
 C96 C 0.18041 1.28305 0.85287
 C97 C 0.27303 1.20335 0.86910
 N98 N 0.30235 1.16357 0.85656
 C99 C 0.28889 1.14570 0.81123
 H100 H 0.25214 1.11073 0.70319
 H101 H 0.13143 1.20973 0.68343
 H102 H 0.11278 1.28689 0.75404
 H103 H 0.19230 1.29533 0.88943
 H104 H 0.27551 1.22521 0.90332
 H105 H 0.30635 1.11460 0.79139
 C106 C 0.77926 0.82059 0.73325
 C107 C 0.74298 0.80301 0.76391
 C108 C 0.75219 0.76292 0.79443
 C109 C 0.79833 0.73881 0.79279
 C110 C 0.83294 0.75491 0.75976
 C111 C 0.82336 0.79550 0.72993
 C112 C 0.78519 0.86662 0.71328
 N113 N 0.83180 0.86923 0.69767
 C114 C 0.85496 0.82542 0.70641
 C115 C 0.87665 0.73407 0.77239
 N116 N 0.87047 0.70561 0.81250
 C117 C 0.82249 0.70712 0.82494
 C118 C 0.71242 0.76029 0.82586
 N119 N 0.67976 0.79656 0.81337
 C120 C 0.69840 0.82300 0.77618
 H121 H 0.75900 0.89731 0.71428
 H122 H 0.89360 0.81826 0.70230
 H123 H 0.91136 0.74279 0.75632
 H124 H 0.80732 0.69117 0.85796
 H125 H 0.70811 0.73502 0.85619
 H126 H 0.68150 0.85597 0.76081
 C127 C 0.21785 0.84776 1.23302
 C128 C 0.26029 0.83932 1.20516
 C129 C 0.25974 0.80958 1.16258
 C130 C 0.21689 0.78675 1.14821
 C131 C 0.17441 0.79660 1.17486
 C132 C 0.17468 0.82809 1.21711
 C133 C 0.20985 0.86860 1.27949
 N134 N 0.16262 0.86309 1.29169
 C135 C 0.14040 0.83911 1.25349
 C136 C 0.14119 0.76300 1.15870
 N137 N 0.16290 0.73226 1.12417
 C138 C 0.20891 0.74680 1.11688
 C139 C 0.30544 0.80976 1.14195
 N140 N 0.33328 0.83943 1.17089
 C141 C 0.30630 0.85666 1.21029
 H142 H 0.23691 0.88469 1.30364
 H143 H 0.10354 0.82640 1.25424
 H144 H 0.10615 0.75717 1.17552
 H145 H 0.23602 0.72638 1.09477
 H146 H 0.31672 0.79228 1.10689
 H147 H 0.31815 0.88319 1.23830
 C148 C 0.79717 1.15437 1.22841
 C149 C 0.77268 1.15512 1.18276
 C150 C 0.78059 1.19272 1.14984
 C151 C 0.81326 1.22984 1.16200
 C152 C 0.83777 1.22892 1.20701
 C153 C 0.83054 1.19016 1.24002
 C154 C 0.79447 1.12383 1.26846
 N155 N 0.82685 1.13881 1.30328
 C156 C 0.84937 1.17927 1.28624
 C157 C 0.86318 1.27204 1.21082
 N158 N 0.85516 1.29823 1.16895
 C159 C 0.82511 1.27268 1.13866
 C160 C 0.74945 1.18626 1.11045
 N161 N 0.72357 1.14520 1.11837
 C162 C 0.73754 1.12574 1.16240
 H163 H 0.77152 1.09212 1.27144
 H164 H 0.87642 1.19993 1.30641
 H165 H 0.88491 1.28412 1.24213
 H166 H 0.81112 1.28556 1.10344
 H167 H 0.74496 1.21035 1.07898
 H168 H 0.72169 1.09400 1.17942
 O169 O 0.55066 0.94078 0.89094
 O170 O 0.45343 0.97863 1.08503
 O171 O 0.55969 0.91463 1.04872
 O172 O 0.44217 0.91541 0.93942
 O173 O 0.53822 0.97661 1.09699
 O174 O 0.46313 0.96268 0.88193
 O175 O 0.44015 0.92162 1.02968
 O176 O 0.58355 0.90363 0.95595
 C177 C 0.57380 0.90466 0.91015
 C178 C 0.44240 0.93486 1.07430
 C179 C 0.55173 0.93184 1.09154
 C180 C 0.44329 0.92411 0.89455
 O181 O 0.47621 1.05473 0.91126
 O182 O 0.54615 1.06258 1.04708
 O183 O 0.61470 0.99344 0.95783
 O184 O 0.40415 1.01475 1.02568
 O185 O 0.46089 1.06529 1.03235
 O186 O 0.56915 1.03582 0.90650
 O187 O 0.41314 1.01411 0.93533
 O188 O 0.60078 1.00462 1.04712
 Co189 Co 0.51394 0.99725 0.90652
 Co190 Co 0.49991 1.01805 1.05908
 Co191 Co 0.58160 0.95636 1.00166
 Co192 Co 0.43184 0.96804 0.98273
 O193 O 0.50759 0.98411 0.98722
 C194 C 0.43164 1.05348 0.91996
 C195 C 0.58950 1.05002 1.04949
 C196 C 0.60945 1.02664 0.92611
 C197 C 0.41711 1.05792 1.03362
 O198 O 0.03466 0.46632 0.11442
 O199 O 0.04620 0.54146 -0.08202
 O200 O 0.05649 0.42557 -0.03509
 O201 O 0.02360 0.61306 0.05865
 O202 O 0.01256 0.45652 -0.09114
 O203 O 0.05431 0.55117 0.09531
 O204 O 0.06796 0.57317 -0.01201
 O205 O 0.05825 0.41779 0.05367
 C206 C 0.05903 0.42991 0.09860
 C207 C 0.07766 0.56290 -0.05617
 C208 C 0.04797 0.43021 -0.07969
 C209 C 0.05597 0.59573 0.08565
 O210 O -0.04387 0.57317 0.09704
 O211 O -0.07158 0.48841 -0.05983
 O212 O -0.03759 0.41443 0.06047
 O213 O -0.00159 0.63268 -0.03365
 O214 O -0.04630 0.57402 -0.06416
 O215 O -0.05610 0.48185 0.10692
 O216 O -0.05933 0.58797 0.02070
 O217 O -0.04355 0.41698 -0.03361
 Co218 Co -0.00233 0.51814 0.09517
 Co219 Co -0.01263 0.51444 -0.06553
 Co220 Co 0.00741 0.42630 0.01085
 Co221 Co 0.00447 0.57793 0.00368
 O222 O 0.00066 0.50556 0.01508
 C223 C -0.07108 0.59235 0.06509
 C224 C -0.07617 0.44272 -0.05517
 C225 C -0.06136 0.43643 0.09577
 C226 C -0.02982 0.61693 -0.06923
 O227 O 1.09844 0.00647 0.46295
 O228 O 0.90599 0.05044 0.55808
 O229 O 0.95169 0.06337 0.42939
 O230 O 1.05563 0.07809 0.55647
 O231 O 0.89564 0.02755 0.47085
 O232 O 1.10139 0.01427 0.55488
 O233 O 0.96935 0.09430 0.55813
 O234 O 1.04551 0.05072 0.41973
 C235 C 1.08859 0.03890 0.43051
 C236 C 0.92475 0.09205 0.56277
 C237 C 0.90804 0.05893 0.43982
 C238 C 1.09686 0.05986 0.56015
 O239 O 1.05186 -0.06771 0.56401
 O240 O 0.92028 -0.06557 0.48725
 O241 O 1.03521 -0.04365 0.40894
 O242 O 0.95706 0.01728 0.61859
 O243 O 0.93939 -0.04506 0.57375
 O244 O 1.06064 -0.08312 0.47319
 O245 O 1.04273 -0.00451 0.61470
 O246 O 0.94339 -0.03521 0.41705
 Co247 Co 1.07070 -0.02888 0.51382
 Co248 Co 0.92257 -0.00694 0.52219
 Co249 Co 0.99379 0.00866 0.42781
 Co250 Co 1.00594 0.04269 0.58068
 O251 O 0.99819 0.00417 0.51027
 C252 C 1.04795 -0.05079 0.60737
 C253 C 0.91960 -0.06647 0.44088
 C254 C 1.05910 -0.07909 0.42744
 C255 C 0.93834 -0.02407 0.61494
 N256 N 1.16921 0.03432 0.39388
 N257 N 1.19373 0.05460 0.35739
 C258 C 1.16603 0.09300 0.34142
 C259 C 1.12377 0.09585 0.36933
 N260 N 1.12720 0.05836 0.40161
 H261 H 1.09230 0.12007 0.36428
 N262 N 0.83815 -0.09374 0.43545
 N263 N 0.80839 -0.11663 0.40485
 C264 C 0.83525 -0.13346 0.36568
 C265 C 0.88294 -0.11964 0.37277
 N266 N 0.88274 -0.09467 0.41709
 H267 H 0.91356 -0.12475 0.34769
 N268 N 0.91256 0.17965 0.58362
 N269 N 0.88764 0.20780 0.61637
 C270 C 0.85585 0.17820 0.63859
 C271 C 0.86144 0.13097 0.61767
 N272 N 0.89745 0.13352 0.58371
 H273 H 0.84537 0.09719 0.62992
 N274 N 1.02467 -0.12034 0.65709
 N275 N 1.04449 -0.15129 0.68942
 C276 C 1.08875 -0.13404 0.70006
 C277 C 1.09524 -0.09113 0.67384
 N278 N 1.05414 -0.08370 0.64795
 H279 H 1.12739 -0.06930 0.67114
 N280 N 0.37972 1.14069 1.03292
 N281 N 0.34514 1.16672 1.05698
 C282 C 0.32735 1.13663 1.09172
 C283 C 0.35138 1.09129 1.08807
 N284 N 0.38353 1.09550 1.05084
 H285 H 0.34644 1.05864 1.11001
 N286 N 0.40619 0.91506 0.81399
 N287 N 0.36862 0.89374 0.79299
 C288 C 0.35182 0.86164 0.82616
 C289 C 0.38055 0.86360 0.86845
 N290 N 0.41385 0.89806 0.85928
 H291 H 0.37447 0.84641 0.90389
 N292 N 0.55968 0.92140 1.18060
 N293 N 0.58711 0.89548 1.21158
 C294 C 0.61099 0.86046 1.18356
 C295 C 0.59679 0.86509 1.13451
 N296 N 0.56523 0.90402 1.13426
 H297 H 0.61259 0.84682 1.10171
 N298 N 0.67417 1.07732 0.95514
 N299 N 0.70581 1.10902 0.93887
 C300 C 0.70169 1.10906 0.88884
 C301 C 0.66580 1.07662 0.87462
 N302 N 0.64947 1.05796 0.91765
 H303 H 0.65157 1.06920 0.83772
 N304 N 0.07868 0.40628 0.18274
 N305 N 0.09963 0.36910 0.20670
 C306 C 0.11959 0.33874 0.17132
 C307 C 0.11064 0.35812 0.12499
 N308 N 0.08489 0.40045 0.13388
 H309 H 0.11946 0.34184 0.08869
 N310 N -0.14528 0.44290 -0.11068
 N311 N -0.17100 0.41108 -0.13716
 C312 C -0.15671 0.36560 -0.12257
 C313 C -0.12133 0.37005 -0.08674
 N314 N -0.11532 0.41915 -0.08028
 H315 H -0.09954 0.34078 -0.07024
 N316 N 0.16173 0.58685 -0.05438
 N317 N 0.18858 0.62087 -0.07505
 C318 C 0.16228 0.63980 -0.11272
 C319 C 0.11878 0.61575 -0.11502
 N320 N 0.12000 0.58264 -0.07821
 H321 H 0.08727 0.62530 -0.13712
 N322 N -0.14738 0.63518 0.04825
 N323 N -0.17731 0.66878 0.06924
 C324 C -0.15918 0.67939 0.11473
 C325 C -0.11754 0.65084 0.12160
 N326 N -0.11169 0.62364 0.07911
 H327 H -0.09336 0.65073 0.15329
 N328 N 1.18082 0.06763 0.58199
 N329 N 1.20703 0.09123 0.61570
 C330 C 1.17786 0.12716 0.63609
 C331 C 1.13298 0.12552 0.61325
 N332 N 1.13632 0.08725 0.58002
 H333 H 1.09979 0.14513 0.62446
 N334 N 0.86790 -0.01407 0.66781
 N335 N 0.83525 -0.04306 0.68741
 C336 C 0.85403 -0.08961 0.68279
 C337 C 0.89884 -0.08851 0.66061
 N338 N 0.90630 -0.04069 0.65199
 H339 H 0.92175 -0.11951 0.64776
 N340 N 1.13967 -0.11160 0.41550
 N341 N 1.17020 -0.12391 0.37901
 C342 C 1.14344 -0.12640 0.33730
 C343 C 1.09543 -0.11520 0.34893
 N344 N 1.09487 -0.10599 0.39848
 H345 H 1.06518 -0.11014 0.32379
 N346 N 0.82782 0.06354 0.40496
 N347 N 0.80501 0.08296 0.36645
 C348 C 0.83523 0.11576 0.34698
 C349 C 0.87740 0.11612 0.37470
 N350 N 0.87130 0.08249 0.41040
 H351 H 0.91070 0.13463 0.36664
 N352 N 0.05764 0.39954 -0.16434
 N353 N 0.08187 0.36499 -0.19070
 C354 C 0.11373 0.34342 -0.15939
 C355 C 0.10851 0.36601 -0.11256
 N356 N 0.07273 0.40078 -0.11754
 H357 H 0.12659 0.35651 -0.07819
 N358 N -0.10489 0.42077 0.17219
 N359 N -0.12599 0.38352 0.19416
 C360 C -0.12741 0.34648 0.15970
 C361 C -0.10682 0.36163 0.11611
 N362 N -0.09317 0.40839 0.12549
 H363 H -0.09971 0.33996 0.08224
 N364 N -0.01920 0.67481 -0.13517
 N365 N -0.04527 0.69798 -0.16920
 C366 C -0.09188 0.68634 -0.16117
 C367 C -0.09388 0.65509 -0.12141
 N368 N -0.04767 0.64913 -0.10641
 H369 H -0.12516 0.63822 -0.10518
 N370 N 0.14152 0.60616 0.10219
 N371 N 0.17211 0.64258 0.10941
 C372 C 0.14506 0.68501 0.10975
 C373 C 0.09722 0.67396 0.10334
 N374 N 0.09662 0.62438 0.09886
 H375 H 0.06600 0.69917 0.10249
 N376 N 0.41245 1.14230 0.91929
 N377 N 0.37735 1.17317 0.90446
 C378 C 0.34277 1.14467 0.88443
 C379 C 0.35758 1.09550 0.88711
 N380 N 0.40115 1.09570 0.90931
 H381 H 0.33953 1.06310 0.87266
 N382 N 0.43527 0.91190 1.16063
 N383 N 0.40641 0.88555 1.18847
 C384 C 0.37864 0.85931 1.15677
 C385 C 0.39136 0.87026 1.10860
 N386 N 0.42662 0.90338 1.11272
 H387 H 0.37225 0.86090 1.07462
 N388 N 0.62065 1.13274 1.04297
 N389 N 0.65679 1.15946 1.06008
 C390 C 0.68422 1.12894 1.08816
 C391 C 0.66427 1.08264 1.08771
 N392 N 0.62472 1.08671 1.05886
 H393 H 0.67588 1.05012 1.10785
 N394 N 0.56681 0.85103 0.83680
 N395 N 0.59417 0.81878 0.81060
 C396 C 0.63487 0.81010 0.83718
 C397 C 0.63179 0.83878 0.88043
 N398 N 0.58891 0.86364 0.87867
 H399 H 0.66066 0.84649 0.90648
   
