data_POSCAR
  _audit_creation_date              2014-09-24
  _audit_creation_method            'ToBaCCo'
  _symmetry_space_group_name_H-M    'P1'
  _symmetry_Int_Tables_number       1
  _symmetry_cell_setting            triclinic
  loop_
  _symmetry_equiv_pos_as_xyz
 x,y,z
_cell_length_a 27.7627
_cell_length_b 27.6575
_cell_length_c 27.7574
_cell_angle_alpha 90.064900
_cell_angle_beta 89.980400
_cell_angle_gamma 89.903200
loop_
  _atom_site_label
  _atom_site_type_symbol
  _atom_site_fract_x
  _atom_site_fract_y
  _atom_site_fract_z
O1 O 0.22169 1.04873 0.45211
 O2 O 0.22012 0.95367 0.54374
 O3 O 0.22159 1.04707 0.54652
 O4 O 0.23011 0.95412 0.45087
 O5 O 0.30944 0.95705 0.45615
 O6 O 0.30101 1.05030 0.54920
 O7 O 0.29947 0.95670 0.54906
 O8 O 0.30107 1.05210 0.45559
 Cu9 Cu 0.21549 1.00086 0.49751
 Cu10 Cu 0.31068 1.00436 0.50257
 C11 C 0.26117 1.06705 0.43848
 C12 C 0.25920 0.93912 0.56229
 C13 C 0.26026 1.06400 0.56457
 C14 C 0.27159 0.93895 0.43830
 O15 O 0.69040 -0.05676 0.47274
 O16 O 0.69333 0.03553 0.56829
 O17 O 0.68158 0.03690 0.47594
 O18 O 0.70388 -0.05916 0.56496
 O19 O 0.78234 -0.05055 0.55569
 O20 O 0.76013 0.04470 0.46593
 O21 O 0.77197 0.04317 0.55893
 O22 O 0.76881 -0.04829 0.46212
 Cu23 Cu 0.68446 -0.01178 0.52180
 Cu24 Cu 0.77873 -0.00204 0.50981
 C25 C 0.72895 -0.06780 0.45077
 C26 C 0.73290 0.05548 0.57947
 C27 C 0.71725 0.05700 0.45559
 C28 C 0.74680 -0.07161 0.57525
 O29 O 0.30292 0.45020 0.95601
 O30 O 0.30122 0.54974 1.04477
 O31 O 0.30015 0.45658 1.05019
 O32 O 0.30832 0.54498 0.95170
 O33 O 0.22907 0.54479 0.94457
 O34 O 0.22080 0.46018 1.04717
 O35 O 0.22207 0.55400 1.03754
 O36 O 0.22345 0.45143 0.95375
 Cu37 Cu 0.31117 0.49993 1.00086
 Cu38 Cu 0.21591 0.50279 0.99530
 C39 C 0.26331 0.43356 0.94015
 C40 C 0.26118 0.56908 1.05579
 C41 C 0.25920 0.44399 1.06627
 C42 C 0.27024 0.55990 0.93132
 O43 O 0.46587 0.20361 1.04636
 O44 O 0.55533 0.21020 0.94929
 O45 O 0.55691 0.22471 1.04275
 O46 O 0.46188 0.20064 0.95233
 O47 O 0.44590 0.27894 0.94979
 O48 O 0.54001 0.30263 1.03884
 O49 O 0.54158 0.28842 0.94200
 O50 O 0.45079 0.28177 1.03899
 Cu51 Cu 0.51166 0.20201 0.99819
 Cu52 Cu 0.49512 0.29560 0.99049
 C53 C 0.44258 0.24108 1.05869
 C54 C 0.56336 0.25015 0.92866
 C55 C 0.56379 0.26798 1.05701
 C56 C 0.43696 0.23596 0.93663
 O57 O 0.45398 0.70598 -0.03601
 O58 O 0.54517 0.70249 0.05976
 O59 O 0.45137 0.70880 0.05767
 O60 O 0.54821 0.70454 -0.03374
 O61 O 0.55144 0.78426 -0.03311
 O62 O 0.45488 0.78856 0.05747
 O63 O 0.54883 0.78226 0.05976
 O64 O 0.45659 0.78577 -0.03611
 Cu65 Cu 0.49930 0.69751 0.01185
 Cu66 Cu 0.50314 0.79320 0.01186
 C67 C 0.43922 0.74629 -0.05197
 C68 C 0.56301 0.74154 0.07567
 C69 C 0.43656 0.74960 0.07297
 C70 C 0.56707 0.74379 -0.04824
 O71 O 1.05378 0.44836 0.17775
 O72 O 0.96002 0.54250 0.17282
 O73 O 1.05311 0.54151 0.18420
 O74 O 0.96065 0.44792 0.16794
 O75 O 0.95010 0.44496 0.24676
 O76 O 1.04545 0.53575 0.26316
 O77 O 0.95162 0.53890 0.25184
 O78 O 1.04266 0.44151 0.25629
 Cu79 Cu 1.00759 0.49565 0.16774
 Cu80 Cu 0.99655 0.49003 0.26249
 C81 C 1.06378 0.42855 0.21771
 C82 C 0.94004 0.55697 0.21136
 C83 C 1.06563 0.55408 0.22635
 C84 C 0.93977 0.43035 0.20463
 O85 O -0.03939 0.46218 0.70468
 O86 O 0.05484 0.55473 0.71370
 O87 O 0.05482 0.46083 0.71230
 O88 O -0.03867 0.55604 0.71291
 O89 O -0.04059 0.55288 0.79234
 O90 O 0.04992 0.45654 0.79159
 O91 O 0.05249 0.55053 0.79311
 O92 O -0.04406 0.45901 0.78402
 Cu93 Cu 0.00818 0.50862 0.70294
 Cu94 Cu 0.00403 0.50410 0.79818
 C95 C -0.05825 0.44518 0.74262
 C96 C 0.06978 0.56850 0.75469
 C97 C 0.06850 0.44282 0.75219
 C98 C -0.05498 0.57121 0.75300
 O99 O 0.45309 0.95379 0.31134
 O100 O 0.54834 1.04348 0.29245
 O101 O 0.45494 1.04715 0.29926
 O102 O 0.54554 0.94937 0.30065
 O103 O 0.53734 0.94100 0.22194
 O104 O 0.44849 1.03977 0.22035
 O105 O 0.54234 1.03461 0.21361
 O106 O 0.44421 0.94661 0.23257
 Cu107 Cu 0.50133 0.99941 0.30879
 Cu108 Cu 0.49234 0.98972 0.21420
 C109 C 0.43233 0.93498 0.27528
 C110 C 0.56173 1.05434 0.25009
 C111 C 0.43620 1.06013 0.25954
 C112 C 0.55644 0.92820 0.26143
 O113 O 1.05133 0.30707 0.54295
 O114 O 0.96309 0.30035 0.44404
 O115 O 0.95799 0.30847 0.53752
 O116 O 1.05745 0.29874 0.45012
 O117 O 1.05639 0.21925 0.45732
 O118 O 0.95619 0.22886 0.54340
 O119 O 0.96250 0.22075 0.44994
 O120 O 1.04839 0.22760 0.55059
 Cu121 Cu 1.00754 0.31166 0.49270
 Cu122 Cu 1.00570 0.21608 0.50066
 C123 C 1.06421 0.26850 0.56409
 C124 C 0.94771 0.25944 0.43019
 C125 C 0.94066 0.27025 0.55588
 C126 C 1.07431 0.25736 0.43938
 O127 O -0.04568 0.70595 0.56074
 O128 O 0.04644 0.70112 0.46442
 O129 O 0.04872 0.70237 0.55952
 O130 O -0.04657 0.69751 0.46805
 O131 O -0.04791 0.77733 0.46512
 O132 O 0.05180 0.78189 0.55302
 O133 O 0.04442 0.78078 0.45944
 O134 O -0.04288 0.78570 0.55866
 Cu135 Cu 0.00112 0.69378 0.51396
 Cu136 Cu 0.00140 0.78943 0.50911
 C137 C -0.06031 0.74695 0.57565
 C138 C 0.05975 0.74026 0.44438
 C139 C 0.06701 0.74260 0.57138
 C140 C -0.06353 0.73645 0.45101
 O141 O 0.77766 0.44926 1.06524
 O142 O 0.78765 0.54258 0.97120
 O143 O 0.77587 0.54514 1.06477
 O144 O 0.79507 0.44918 0.97530
 O145 O 0.71660 0.44635 0.96195
 O146 O 0.69713 0.54040 1.05466
 O147 O 0.70887 0.53985 0.96069
 O148 O 0.69894 0.44613 1.05381
 Cu149 Cu 0.79188 0.49750 1.02080
 Cu150 Cu 0.69748 0.49311 1.00669
 C151 C 0.73677 0.43065 1.07418
 C152 C 0.74990 0.55652 0.94936
 C153 C 0.73354 0.55911 1.07512
 C154 C 0.75915 0.43130 0.95356
 O155 O 0.45938 1.04913 0.77907
 O156 O 0.55350 0.95598 0.76499
 O157 O 0.55319 1.04956 0.77663
 O158 O 0.46131 0.95454 0.77289
 O159 O 0.45378 0.96411 0.69420
 O160 O 0.55042 1.05560 0.69734
 O161 O 0.54671 0.96139 0.68588
 O162 O 0.45742 1.05802 0.70009
 Cu163 Cu 0.50728 1.00175 0.78138
 Cu164 Cu 0.50174 1.01055 0.68642
 C165 C 0.44294 1.07012 0.74178
 C166 C 0.56505 0.94193 0.72290
 C167 C 0.56754 1.06879 0.73779
 C168 C 0.44222 0.94282 0.73306
 C169 C 0.26269 0.21948 0.28694
 C170 C 0.22480 0.25368 0.28652
 C171 C 0.22294 0.28965 0.24997
 C172 C 0.25995 0.29194 0.21494
 C173 C 0.29765 0.25703 0.21502
 C174 C 0.29926 0.22146 0.25156
 C175 C 0.74370 0.77565 0.30624
 C176 C 0.77640 0.73647 0.30856
 C177 C 0.77504 0.69958 0.27333
 C178 C 0.74110 0.70228 0.23533
 C179 C 0.70891 0.74190 0.23250
 C180 C 0.70991 0.77850 0.26822
 C181 C 0.74907 0.22916 0.70149
 C182 C 0.78072 0.26915 0.69915
 C183 C 0.77742 0.30646 0.73378
 C184 C 0.74133 0.30455 0.76970
 C185 C 0.71047 0.26396 0.77288
 C186 C 0.71410 0.22645 0.73848
 C187 C 0.25577 0.79700 0.72212
 C188 C 0.29203 0.79431 0.75791
 C189 C 0.29114 0.75651 0.79248
 C190 C 0.25429 0.72119 0.79086
 C191 C 0.21706 0.72502 0.75596
 C192 C 0.21785 0.76276 0.72137
 C193 C 0.21549 0.25148 0.71217
 C194 C 0.21447 0.28560 0.75005
 C195 C 0.25037 0.28429 0.78631
 C196 C 0.28652 0.24794 0.78519
 C197 C 0.28737 0.21420 0.74697
 C198 C 0.25190 0.21597 0.71049
 C199 C 0.79028 0.74857 0.73064
 C200 C 0.75740 0.78741 0.73348
 C201 C 0.72257 0.78888 0.77072
 C202 C 0.71930 0.75048 0.80409
 C203 C 0.75269 0.71201 0.80180
 C204 C 0.78844 0.71132 0.76553
 C205 C 0.19873 0.75107 0.28044
 C206 C 0.22844 0.79209 0.27376
 C207 C 0.26253 0.79292 0.23579
 C208 C 0.26718 0.75273 0.20473
 C209 C 0.23489 0.71355 0.20928
 C210 C 0.20083 0.71268 0.24697
 C211 C 0.78876 0.23833 0.28884
 C212 C 0.78321 0.27690 0.25612
 C213 C 0.74970 0.27329 0.21777
 C214 C 0.72074 0.23136 0.21293
 C215 C 0.72448 0.19423 0.24766
 C216 C 0.75914 0.19709 0.28480
 C217 C 0.25937 0.10622 0.40262
 C218 C 0.29795 0.13253 0.39035
 C219 C 0.29646 0.17311 0.35553
 C220 C 0.26171 0.17930 0.32251
 H221 H 0.33214 0.12550 0.40779
 H222 H 0.32638 0.19816 0.35636
 H223 H 0.22435 0.11459 0.38776
 H224 H 0.23136 0.15498 0.32066
 C225 C 0.72684 0.89594 0.41208
 C226 C 0.75999 0.89365 0.37711
 C227 C 0.75763 0.85769 0.33792
 C228 C 0.74343 0.81213 0.34542
 H229 H 0.78827 0.92052 0.37544
 H230 H 0.77097 0.86805 0.30274
 H231 H 0.69603 0.87194 0.41120
 H232 H 0.73461 0.80000 0.38145
 C233 C 0.73264 0.09433 0.61565
 C234 C 0.77227 0.10766 0.63958
 C235 C 0.77116 0.14717 0.67512
 C236 C 0.75198 0.19031 0.66479
 H237 H 0.80543 0.08741 0.63537
 H238 H 0.78834 0.14140 0.70968
 H239 H 0.69862 0.11204 0.62335
 H240 H 0.73808 0.19762 0.62906
 C241 C 0.25671 0.90154 0.59959
 C242 C 0.29597 0.88258 0.62020
 C243 C 0.29398 0.84431 0.65718
 C244 C 0.25625 0.83715 0.68656
 H245 H 0.33136 0.89372 0.60816
 H246 H 0.32573 0.82182 0.66104
 H247 H 0.22123 0.88865 0.60933
 H248 H 0.22418 0.85921 0.68367
 C249 C 0.40550 0.23699 0.09609
 C250 C 0.36535 0.26363 0.09431
 C251 C 0.32693 0.25972 0.13056
 C252 C 0.33629 0.25726 0.17781
 H253 H 0.35892 0.28717 0.06378
 H254 H 0.29014 0.26271 0.11803
 H255 H 0.40984 0.20965 0.12369
 H256 H 0.37327 0.25431 0.18994
 C257 C 0.40116 0.74623 0.91107
 C258 C 0.37821 0.78660 0.89729
 C259 C 0.33896 0.78799 0.86115
 C260 C 0.32936 0.75228 0.82984
 H261 H 0.38751 0.82069 0.91411
 H262 H 0.31834 0.82121 0.85900
 H263 H 0.39081 0.71142 0.89675
 H264 H 0.34887 0.71848 0.83115
 C265 C 0.60086 0.73869 0.11265
 C266 C 0.62713 0.77715 0.12572
 C267 C 0.66626 0.77541 0.16184
 C268 C 0.67017 0.74117 0.19571
 H269 H 0.62118 0.81153 0.10803
 H270 H 0.69196 0.80481 0.16141
 H271 H 0.60836 0.70337 0.12756
 H272 H 0.64530 0.71117 0.19701
 C273 C 0.59830 0.25102 0.88878
 C274 C 0.60617 0.29039 0.86180
 C275 C 0.64061 0.29227 0.82105
 C276 C 0.67529 0.25939 0.81301
 H277 H 0.58567 0.32299 0.86890
 H278 H 0.63807 0.32336 0.79750
 H279 H 0.61660 0.21740 0.88100
 H280 H 0.67882 0.22784 0.83560
 C281 C 0.10085 0.39061 0.21888
 C282 C 0.09994 0.35477 0.25120
 C283 C 0.13706 0.31663 0.25225
 C284 C 0.18404 0.32694 0.24850
 H285 H 0.06984 0.35160 0.27583
 H286 H 0.12539 0.27991 0.25875
 H287 H 0.12832 0.39096 0.19111
 H288 H 0.19473 0.36411 0.24241
 C289 C 0.90283 0.40928 0.73766
 C290 C 0.88160 0.38872 0.77581
 C291 C 0.84314 0.35192 0.77245
 C292 C 0.81423 0.34552 0.73421
 H293 H 0.89422 0.39745 0.81169
 H294 H 0.83800 0.32943 0.80393
 H295 H 0.89228 0.39926 0.70150
 H296 H 0.81872 0.36689 0.70194
 C297 C 0.10751 0.60576 0.75809
 C298 C 0.12720 0.62560 0.71864
 C299 C 0.16572 0.66234 0.71935
 C300 C 0.17607 0.69054 0.75725
 H301 H 0.11610 0.61312 0.68335
 H302 H 0.18610 0.66679 0.68636
 H303 H 0.11951 0.61607 0.79370
 H304 H 0.15669 0.68684 0.79083
 C305 C 0.90339 0.59546 0.20827
 C306 C 0.87630 0.60894 0.24582
 C307 C 0.84053 0.64809 0.24094
 C308 C 0.80989 0.65870 0.27661
 H309 H 0.88028 0.59088 0.28024
 H310 H 0.83973 0.66904 0.20799
 H311 H 0.89822 0.61293 0.17370
 H312 H 0.81236 0.63913 0.31032
 C313 C 0.09818 0.27153 0.60447
 C314 C 0.10005 0.23737 0.63854
 C315 C 0.13467 0.23905 0.67864
 C316 C 0.17993 0.25415 0.67260
 H317 H 0.07421 0.20806 0.63828
 H318 H 0.12392 0.22370 0.71289
 H319 H 0.12090 0.30326 0.60710
 H320 H 0.19260 0.26517 0.63737
 C321 C 0.90175 0.75046 0.61265
 C322 C 0.87548 0.71218 0.62624
 C323 C 0.83581 0.71408 0.66189
 C324 C 0.82922 0.74989 0.69384
 H325 H 0.88195 0.67747 0.60929
 H326 H 0.81168 0.68338 0.66253
 H327 H 0.89413 0.78603 0.62695
 H328 H 0.85198 0.78154 0.69352
 C329 C 0.09270 0.73845 0.40271
 C330 C 0.09927 0.77717 0.37426
 C331 C 0.13043 0.77813 0.33104
 C332 C 0.16660 0.74712 0.32306
 H333 H 0.07935 0.81007 0.38164
 H334 H 0.12439 0.80725 0.30570
 H335 H 0.10962 0.70421 0.39430
 H336 H 0.17368 0.71801 0.34798
 C337 C 0.91181 0.25746 0.39118
 C338 C 0.89888 0.21576 0.37024
 C339 C 0.86248 0.21257 0.33159
 C340 C 0.82466 0.24250 0.32832
 H341 H 0.91702 0.18252 0.38015
 H342 H 0.86609 0.18315 0.30608
 H343 H 0.89639 0.29131 0.37905
 H344 H 0.82030 0.27186 0.35376
 C345 C 0.26381 0.39339 0.90524
 C346 C 0.22296 0.37197 0.89072
 C347 C 0.22082 0.33226 0.85521
 C348 C 0.25429 0.32464 0.82133
 H349 H 0.18895 0.38277 0.90661
 H350 H 0.18929 0.30929 0.85622
 H351 H 0.29840 0.38111 0.89201
 H352 H 0.28630 0.34682 0.81967
 C353 C 0.73302 0.38974 0.10750
 C354 C 0.76716 0.35555 0.10883
 C355 C 0.76420 0.31266 0.14007
 C356 C 0.74483 0.31431 0.18409
 H357 H 0.79751 0.35764 0.08437
 H358 H 0.78292 0.28023 0.12858
 H359 H 0.70006 0.38549 0.12795
 H360 H 0.73035 0.34788 0.19812
 C361 C 0.75433 0.59244 0.91053
 C362 C 0.71684 0.60483 0.88261
 C363 C 0.71925 0.64088 0.84340
 C364 C 0.75333 0.67486 0.84019
 H365 H 0.68251 0.58698 0.88764
 H366 H 0.69024 0.64074 0.81732
 H367 H 0.78962 0.60771 0.90437
 H368 H 0.78221 0.67685 0.86619
 C369 C 0.26040 0.60895 0.09071
 C370 C 0.22339 0.63991 0.09336
 C371 C 0.22214 0.67952 0.12870
 C372 C 0.23617 0.67324 0.17429
 H373 H 0.19440 0.63798 0.06732
 H374 H 0.20710 0.71392 0.11763
 H375 H 0.29145 0.61366 0.11390
 H376 H 0.24695 0.63782 0.18702
 C377 C 0.40893 0.10696 0.74703
 C378 C 0.39324 0.13293 0.70925
 C379 C 0.35759 0.17230 0.71269
 C380 C 0.32397 0.17513 0.74707
 H381 H 0.40830 0.12671 0.67376
 H382 H 0.35755 0.19872 0.68392
 H383 H 0.39632 0.11528 0.78301
 H384 H 0.32303 0.14942 0.77638
 C385 C 0.39487 0.89857 0.28391
 C386 C 0.36460 0.88393 0.24956
 C387 C 0.32963 0.84537 0.25943
 C388 C 0.29436 0.83522 0.22849
 H389 H 0.36580 0.90015 0.21404
 H390 H 0.33374 0.82384 0.29175
 H391 H 0.39202 0.88347 0.31984
 H392 H 0.29144 0.85519 0.19505
 C393 C 0.60002 0.09043 0.24311
 C394 C 0.61173 0.12138 0.27830
 C395 C 0.64815 0.15956 0.27309
 C396 C 0.68882 0.15448 0.24775
 H397 H 0.59160 0.12113 0.31174
 H398 H 0.64281 0.19217 0.29414
 H399 H 0.61712 0.09298 0.20813
 H400 H 0.69673 0.12148 0.22826
 C401 C 0.59873 0.90150 0.71644
 C402 C 0.62442 0.88365 0.75290
 C403 C 0.65515 0.84104 0.74597
 C404 C 0.69099 0.83166 0.77640
 H405 H 0.62309 0.90071 0.78808
 H406 H 0.64842 0.81719 0.71576
 H407 H 0.60197 0.88554 0.68087
 H408 H 0.69727 0.85547 0.80674
 C409 C 0.75549 0.89114 0.60806
 C410 C 0.72015 0.86261 0.62447
 C411 C 0.72837 0.82251 0.65830
 C412 C 0.75796 0.82565 0.69617
 H413 H 0.68382 0.86658 0.61075
 H414 H 0.70499 0.79134 0.65506
 H415 H 0.79236 0.88402 0.61883
 H416 H 0.77971 0.85756 0.70209
 C417 C 0.25586 0.41208 0.10516
 C418 C 0.29494 0.39579 0.12880
 C419 C 0.29371 0.36080 0.16905
 C420 C 0.25734 0.33011 0.17721
 H421 H 0.33033 0.40898 0.11897
 H422 H 0.32604 0.35778 0.19069
 H423 H 0.22020 0.40125 0.11657
 H424 H 0.22463 0.33206 0.15615
 C425 C 0.25922 0.09773 0.60183
 C426 C 0.21850 0.11335 0.62273
 C427 C 0.21826 0.14844 0.66295
 C428 C 0.25336 0.18087 0.67010
 H429 H 0.18407 0.09852 0.61187
 H430 H 0.18723 0.14844 0.68660
 H431 H 0.29370 0.11033 0.61500
 H432 H 0.28369 0.18284 0.64583
 C433 C 0.27683 0.89866 0.40417
 C434 C 0.24118 0.88366 0.37571
 C435 C 0.24815 0.84119 0.34459
 C436 C 0.22198 0.83506 0.30489
 H437 H 0.20716 0.90295 0.37488
 H438 H 0.27561 0.81488 0.35384
 H439 H 0.31151 0.88059 0.40251
 H440 H 0.19501 0.86156 0.29487
 C441 C 0.70844 0.09524 0.41992
 C442 C 0.74290 0.10992 0.38978
 C443 C 0.73416 0.14883 0.35488
 C444 C 0.76522 0.15661 0.31910
 H445 H 0.77802 0.09268 0.39044
 H446 H 0.70258 0.17158 0.35871
 H447 H 0.67272 0.11099 0.41779
 H448 H 0.79690 0.13398 0.31561
 C449 C 0.60574 0.74186 0.91951
 C450 C 0.63104 0.78137 0.90709
 C451 C 0.67302 0.78060 0.87431
 C452 C 0.67865 0.74822 0.83891
 H453 H 0.62250 0.81599 0.92331
 H454 H 0.69890 0.80961 0.87801
 H455 H 0.61659 0.70669 0.90611
 H456 H 0.65272 0.71950 0.83414
 C457 C 0.11493 0.25284 0.40556
 C458 C 0.13921 0.29147 0.38949
 C459 C 0.17898 0.28939 0.35409
 C460 C 0.18783 0.25157 0.32515
 H461 H 0.12985 0.32706 0.40292
 H462 H 0.19987 0.32211 0.34941
 H463 H 0.12513 0.21671 0.39468
 H464 H 0.16775 0.21834 0.32862
 C465 C 0.59689 0.27819 0.09353
 C466 C 0.62408 0.24418 0.11447
 C467 C 0.65671 0.25622 0.15462
 C468 C 0.68818 0.22350 0.17095
 H469 H 0.62228 0.20698 0.10216
 H470 H 0.65403 0.29144 0.17148
 H471 H 0.60013 0.31536 0.10561
 H472 H 0.68831 0.18778 0.15478
 C473 C 0.39715 0.22724 0.90286
 C474 C 0.35779 0.25527 0.90378
 C475 C 0.31810 0.25066 0.86900
 C476 C 0.32599 0.24656 0.82161
 H477 H 0.35358 0.28205 0.93201
 H478 H 0.28186 0.25547 0.88248
 H479 H 0.39969 0.19725 0.87784
 H480 H 0.36254 0.24180 0.80869
 C481 C 0.39732 0.75268 0.10862
 C482 C 0.37681 0.71344 0.12801
 C483 C 0.33737 0.71548 0.16380
 C484 C 0.30600 0.75228 0.16762
 H485 H 0.39060 0.67790 0.11899
 H486 H 0.33330 0.68431 0.18702
 H487 H 0.38570 0.78847 0.11937
 H488 H 0.30938 0.78361 0.14460
 C489 C 0.91102 0.60834 0.75337
 C490 C 0.89539 0.62881 0.79444
 C491 C 0.85966 0.66819 0.79546
 C492 C 0.82368 0.67125 0.76371
 H493 H 0.91087 0.61840 0.82873
 H494 H 0.86181 0.69416 0.82462
 H495 H 0.89807 0.62164 0.71901
 H496 H 0.81952 0.64414 0.73591
 C497 C 0.40183 0.09707 0.25969
 C498 C 0.37929 0.11212 0.21950
 C499 C 0.34195 0.15033 0.21902
 C500 C 0.33866 0.18514 0.25240
 H501 H 0.38644 0.09435 0.18543
 H502 H 0.31681 0.15034 0.18917
 H503 H 0.39273 0.11302 0.29416
 H504 H 0.36445 0.18720 0.28145
 C505 C 0.10185 0.58856 0.23115
 C506 C 0.11887 0.60381 0.27385
 C507 C 0.15660 0.64130 0.27792
 C508 C 0.16192 0.67625 0.24508
 H509 H 0.10634 0.58738 0.30697
 H510 H 0.17972 0.64062 0.30931
 H511 H 0.11703 0.60276 0.19814
 H512 H 0.13840 0.67797 0.21405
 C513 C 0.90407 0.39178 0.19785
 C514 C 0.87777 0.37469 0.23434
 C515 C 0.84501 0.33371 0.22717
 C516 C 0.81426 0.32025 0.26159
 H517 H 0.88078 0.39063 0.26992
 H518 H 0.84690 0.31348 0.19378
 H519 H 0.89992 0.37649 0.16211
 H520 H 0.81416 0.33908 0.29585
 C521 C 0.10653 0.40583 0.75395
 C522 C 0.13156 0.39204 0.71500
 C523 C 0.17063 0.35562 0.71622
 C524 C 0.17615 0.32302 0.75152
 H525 H 0.12445 0.40915 0.68064
 H526 H 0.19479 0.35455 0.68558
 H527 H 0.11493 0.39118 0.78905
 H528 H 0.15183 0.32222 0.78182
 C529 C 0.89844 0.73333 0.41433
 C530 C 0.88276 0.77219 0.39027
 C531 C 0.84569 0.77047 0.35221
 C532 C 0.81348 0.73476 0.34705
 H533 H 0.89902 0.80710 0.39716
 H534 H 0.84400 0.80125 0.32818
 H535 H 0.88468 0.69773 0.40601
 H536 H 0.81405 0.70346 0.37031
 C537 C 0.90249 0.27434 0.59244
 C538 C 0.88928 0.23628 0.61917
 C539 C 0.85228 0.23775 0.65729
 C540 C 0.81813 0.27177 0.66109
 H541 H 0.90759 0.20199 0.61435
 H542 H 0.85223 0.20787 0.68247
 H543 H 0.88688 0.30966 0.59855
 H544 H 0.81730 0.30246 0.63704
 C545 C 0.10613 0.74298 0.60703
 C546 C 0.14138 0.77585 0.60593
 C547 C 0.18256 0.77364 0.63933
 C548 C 0.17678 0.76744 0.68687
 H549 H 0.14255 0.80225 0.57716
 H550 H 0.21814 0.77801 0.62411
 H551 H 0.10788 0.71345 0.63262
 H552 H 0.14067 0.76277 0.70095
 C553 C 0.72646 0.59747 0.11129
 C554 C 0.75965 0.63185 0.11811
 C555 C 0.75410 0.67105 0.15365
 C556 C 0.73898 0.66319 0.19872
 H557 H 0.79108 0.63310 0.09499
 H558 H 0.76800 0.70636 0.14413
 H559 H 0.69279 0.59873 0.13100
 H560 H 0.72996 0.62694 0.21035
 C561 C 0.27431 0.59596 0.89266
 C562 C 0.24167 0.59935 0.85742
 C563 C 0.24523 0.63585 0.81899
 C564 C 0.25354 0.68263 0.82857
 H565 H 0.21286 0.57308 0.85501
 H566 H 0.23793 0.62410 0.78256
 H567 H 0.30567 0.61925 0.89233
 H568 H 0.26094 0.69329 0.86542
 C569 C 0.76747 0.39176 0.91932
 C570 C 0.73891 0.38439 0.88149
 C571 C 0.74794 0.34376 0.84866
 C572 C 0.73462 0.34607 0.80264
 H573 H 0.70949 0.40910 0.87398
 H574 H 0.76627 0.31179 0.86198
 H575 H 0.79896 0.36910 0.92447
 H576 H 0.71874 0.37888 0.78837
 C577 C 0.59154 0.88827 0.26090
 C578 C 0.60842 0.86800 0.30137
 C579 C 0.64301 0.82732 0.30168
 C580 C 0.67473 0.81901 0.26621
 H581 H 0.59491 0.88005 0.33598
 H582 H 0.64362 0.80461 0.33345
 H583 H 0.60223 0.87431 0.22605
 H584 H 0.67569 0.84233 0.23505
 C585 C 0.60390 0.10732 0.74066
 C586 C 0.61645 0.13382 0.70230
 C587 C 0.65082 0.17460 0.70362
 C588 C 0.68004 0.18509 0.74067
 H589 H 0.59962 0.12658 0.66785
 H590 H 0.65257 0.19672 0.67148
 H591 H 0.61864 0.11494 0.77586
 H592 H 0.67894 0.16452 0.77368
 C593 C 0.40668 0.90367 0.73178
 C594 C 0.41074 0.86536 0.76097
 C595 C 0.37591 0.82539 0.76038
 C596 C 0.32846 0.83363 0.76009
 H597 H 0.44195 0.86174 0.78414
 H598 H 0.38965 0.78881 0.76262
 H599 H 0.37842 0.90501 0.70489
 H600 H 0.31548 0.87057 0.75829
   
