data_POSCAR
  _audit_creation_date              2014-09-24
  _audit_creation_method            'ToBaCCo'
  _symmetry_space_group_name_H-M    'P1'
  _symmetry_Int_Tables_number       1
  _symmetry_cell_setting            triclinic
  loop_
  _symmetry_equiv_pos_as_xyz
 x,y,z
_cell_length_a 13.4373
_cell_length_b 12.8573
_cell_length_c 22.1349
_cell_angle_alpha 93.502400
_cell_angle_beta 90.973300
_cell_angle_gamma 90.657000
loop_
  _atom_site_label
  _atom_site_type_symbol
  _atom_site_fract_x
  _atom_site_fract_y
  _atom_site_fract_z
O1 O -0.06354 0.58265 0.93716
 O2 O -0.08379 0.39558 1.05509
 O3 O -0.07240 0.60100 1.05369
 O4 O -0.06835 0.38281 0.93750
 O5 O 0.09524 0.37515 0.94823
 O6 O 0.09153 0.59621 1.06092
 O7 O 0.07903 0.39412 1.06567
 O8 O 0.10020 0.57726 0.94454
 Cu9 Cu -0.08867 0.49051 0.99574
 Cu10 Cu 0.10785 0.48485 1.00599
 C11 C 0.02168 0.61116 0.92008
 C12 C -0.00636 0.36040 1.07976
 C13 C 0.00972 0.63859 1.07500
 C14 C 0.01446 0.34279 0.92279
 O15 O 0.62712 0.07303 0.45763
 O16 O 0.42414 0.06514 0.56706
 O17 O 0.61639 0.03847 0.57251
 O18 O 0.43301 0.09202 0.45276
 O19 O 0.41823 -0.07665 0.43029
 O20 O 0.58830 -0.12957 0.55568
 O21 O 0.40042 -0.10287 0.54282
 O22 O 0.61599 -0.09742 0.44223
 Cu23 Cu 0.52774 0.08409 0.51442
 Cu24 Cu 0.50496 -0.11856 0.48965
 C25 C 0.65996 -0.01165 0.43350
 C26 C 0.37556 -0.01915 0.57178
 C27 C 0.63382 -0.05517 0.58464
 C28 C 0.39034 0.01596 0.42315
 Si29 Si 0.01044 0.01963 0.26047
 Si30 Si 0.01464 -0.03989 0.73853
 C31 C -0.05548 -0.17409 0.20503
 C32 C -0.05752 -0.25905 0.16293
 C33 C 0.01093 -0.26640 0.11609
 C34 C 0.08028 -0.18379 0.11001
 C35 C 0.08515 -0.09911 0.15433
 C36 C 0.01653 -0.09463 0.20275
 C37 C 0.15843 -0.02143 0.14788
 N38 N 0.21830 -0.02573 0.09920
 N39 N 0.21029 -0.10243 0.05625
 C40 C 0.14332 -0.18121 0.05982
 H41 H -0.11174 -0.17095 0.23930
 H42 H -0.11257 -0.32022 0.16739
 H43 H 0.17015 0.04217 0.18113
 H44 H 0.13899 -0.23950 0.02263
 C45 C 0.06294 0.20868 0.21059
 C46 C 0.06291 0.28174 0.16694
 C47 C -0.01372 0.28434 0.12302
 C48 C -0.09281 0.20875 0.12383
 C49 C -0.09232 0.13416 0.16900
 C50 C -0.01189 0.13252 0.21149
 C51 C -0.17108 0.06074 0.16862
 N52 N -0.24288 0.05907 0.12500
 N53 N -0.24096 0.12490 0.08106
 C54 C -0.16840 0.19836 0.07846
 H55 H 0.12557 0.20893 0.24192
 H56 H 0.12405 0.33762 0.16801
 H57 H -0.17691 0.00421 0.20235
 H58 H -0.17020 0.24431 0.03951
 C59 C 0.21063 0.00409 0.70711
 C60 C 0.29432 0.00423 0.67084
 C61 C 0.28532 -0.01836 0.60845
 C62 C 0.18961 -0.03218 0.58125
 C63 C 0.10371 -0.02352 0.61752
 C64 C 0.11521 -0.01601 0.68188
 C65 C 0.01110 -0.01880 0.58714
 N66 N 0.00444 -0.03402 0.52607
 N67 N 0.08454 -0.05140 0.49273
 C68 C 0.17681 -0.05062 0.51821
 H69 H 0.22129 0.01462 0.75574
 H70 H 0.36705 0.01797 0.69190
 H71 H -0.05552 0.00293 0.60998
 H72 H 0.23902 -0.06308 0.48879
 C73 C -0.18716 0.00367 0.71400
 C74 C -0.27276 0.00204 0.67782
 C75 C -0.28898 -0.07564 0.63132
 C76 C -0.22220 -0.16119 0.62649
 C77 C -0.13231 -0.15642 0.66162
 C78 C -0.11218 -0.06909 0.70292
 C79 C -0.06301 -0.23655 0.65150
 N80 N -0.08371 -0.31798 0.61150
 N81 N -0.16902 -0.32463 0.58027
 C82 C -0.23858 -0.24953 0.58618
 H83 H -0.17727 0.06684 0.74810
 H84 H -0.32468 0.06545 0.68437
 H85 H 0.00779 -0.23547 0.67424
 H86 H -0.30552 -0.26248 0.55962
 C87 C -0.04412 -0.15872 0.83200
 C88 C -0.04462 -0.23489 0.87361
 C89 C 0.02772 -0.31218 0.87285
 C90 C 0.10071 -0.31427 0.82712
 C91 C 0.10230 -0.23496 0.78465
 C92 C 0.02980 -0.15439 0.78829
 C93 C 0.17356 -0.24325 0.73885
 N94 N 0.23856 -0.32307 0.73611
 N95 N 0.23670 -0.39686 0.77558
 C96 C 0.16954 -0.39591 0.82046
 H97 H -0.10191 -0.10059 0.83513
 H98 H -0.10196 -0.23231 0.90750
 H99 H 0.17578 -0.19149 0.70307
 H100 H 0.16952 -0.46083 0.84905
 C101 C 0.04945 0.07483 0.85043
 C102 C 0.04892 0.15981 0.89241
 C103 C 0.01695 0.25699 0.87571
 C104 C -0.00958 0.27053 0.81462
 C105 C -0.00785 0.18410 0.77139
 C106 C 0.01724 0.08356 0.79024
 C107 C -0.03073 0.20237 0.71077
 N108 N -0.05488 0.29929 0.69499
 N109 N -0.05719 0.37981 0.73566
 C110 C -0.03526 0.36884 0.79488
 H111 H 0.07613 0.00197 0.86586
 H112 H 0.07242 0.14920 0.93870
 H113 H -0.02947 0.14114 0.67567
 H114 H -0.03689 0.43728 0.82573
 C115 C -0.16282 0.08311 0.32244
 C116 C -0.24104 0.07790 0.36250
 C117 C -0.25506 -0.00912 0.39692
 C118 C -0.18148 -0.08857 0.39433
 C119 C -0.09963 -0.08122 0.35454
 C120 C -0.09253 0.00381 0.31662
 C121 C -0.02668 -0.15905 0.35482
 N122 N -0.03401 -0.23731 0.39279
 N123 N -0.10877 -0.24283 0.43107
 C124 C -0.18197 -0.17123 0.43347
 H125 H -0.15765 0.15067 0.29579
 H126 H -0.29390 0.14104 0.36435
 H127 H 0.03647 -0.15892 0.32550
 H128 H -0.23736 -0.17854 0.46749
 C129 C 0.20363 -0.03931 0.29656
 C130 C 0.28938 -0.03942 0.33250
 C131 C 0.30370 0.03253 0.38209
 C132 C 0.22899 0.10862 0.39454
 C133 C 0.14351 0.11170 0.35562
 C134 C 0.12960 0.03499 0.30713
 C135 C 0.07310 0.19009 0.36792
 N136 N 0.08438 0.25688 0.41729
 N137 N 0.16122 0.25069 0.45545
 C138 C 0.23323 0.17891 0.44613
 H139 H 0.19463 -0.10061 0.26126
 H140 H 0.34380 -0.09934 0.32258
 H141 H 0.00939 0.19990 0.33879
 H142 H 0.29102 0.17746 0.48021
   
