data_POSCAR
  _audit_creation_date              2014-09-24
  _audit_creation_method            'ToBaCCo'
  _symmetry_space_group_name_H-M    'P1'
  _symmetry_Int_Tables_number       1
  _symmetry_cell_setting            triclinic
  loop_
  _symmetry_equiv_pos_as_xyz
 x,y,z
_cell_length_a 21.0429
_cell_length_b 21.0427
_cell_length_c 21.0438
_cell_angle_alpha 94.821800
_cell_angle_beta 95.140000
_cell_angle_gamma 94.998800
loop_
  _atom_site_label
  _atom_site_type_symbol
  _atom_site_fract_x
  _atom_site_fract_y
  _atom_site_fract_z
O1 O 0.59055 0.50837 0.04680
 O2 O 0.41518 0.50195 0.04961
 O3 O 0.49964 0.41752 0.05031
 O4 O 0.50709 0.59217 0.04686
 O5 O 0.49389 0.58029 -0.05890
 O6 O 0.48683 0.40555 -0.05546
 O7 O 0.40312 0.48909 -0.05606
 O8 O 0.57830 0.49567 -0.05894
 Cu9 Cu 0.50421 0.50612 0.05903
 Cu10 Cu 0.48939 0.49157 -0.06797
 C11 C 0.61432 0.50245 -0.00655
 C12 C 0.37909 0.49459 -0.00280
 C13 C 0.49245 0.38175 -0.00200
 C14 C 0.50114 0.61602 -0.00654
 O15 O -0.05577 0.58059 0.49671
 O16 O -0.05012 0.40570 0.49134
 O17 O -0.05375 0.49677 0.58200
 O18 O -0.05249 0.48899 0.40714
 O19 O 0.05327 0.50333 0.41838
 O20 O 0.05201 0.51099 0.59329
 O21 O 0.05564 0.41921 0.50351
 O22 O 0.04993 0.59409 0.50903
 Cu23 Cu -0.06366 0.49169 0.49331
 Cu24 Cu 0.06335 0.50812 0.50710
 C25 C -0.00385 0.61729 0.50301
 C26 C 0.00370 0.38262 0.49705
 C27 C -0.00108 0.50500 0.61748
 C28 C 0.00056 0.49533 0.38294
 O29 O 0.51097 0.05084 0.59802
 O30 O 0.50494 0.05676 0.42293
 O31 O 0.42032 0.05686 0.50717
 O32 O 0.59483 0.05295 0.51481
 O33 O 0.58243 -0.05273 0.50072
 O34 O 0.40760 -0.04881 0.49274
 O35 O 0.49152 -0.04892 0.40966
 O36 O 0.49736 -0.05476 0.58444
 Cu37 Cu 0.50890 0.06497 0.51201
 Cu38 Cu 0.49356 -0.06193 0.49567
 C39 C 0.50445 -0.00299 0.62119
 C40 C 0.49788 0.00480 0.38645
 C41 C 0.38419 0.00470 0.49926
 C42 C 0.61843 -0.00043 0.50863
 O43 O 0.45141 -0.00959 -0.09233
 O44 O 0.44586 -0.00381 0.08254
 O45 O 0.44716 0.08105 -0.00183
 O46 O 0.45097 -0.09362 -0.00899
 O47 O 0.55670 -0.08109 0.00575
 O48 O 0.55291 0.09347 0.01260
 O49 O 0.55158 0.00974 0.09633
 O50 O 0.55715 0.00376 -0.07865
 Cu51 Cu 0.43821 -0.00768 -0.00636
 Cu52 Cu 0.56522 0.00757 0.01036
 C53 C 0.50515 -0.00319 -0.11532
 C54 C 0.49779 0.00346 0.11927
 C55 C 0.49947 0.11703 0.00606
 C56 C 0.50445 -0.11714 -0.00236
 O57 O -0.08222 0.55688 1.00295
 O58 O 0.09288 0.55379 1.00901
 O59 O 0.00153 0.55492 0.91800
 O60 O 0.00978 0.55394 1.09312
 O61 O -0.00311 0.44819 1.08250
 O62 O -0.01098 0.44915 0.90768
 O63 O 0.08107 0.44803 0.99796
 O64 O -0.09435 0.45113 0.99140
 Cu65 Cu 0.00659 0.56552 1.00677
 Cu66 Cu -0.00799 0.43849 0.99397
 C67 C -0.11817 0.50457 0.99666
 C68 C 0.11688 0.50048 1.00410
 C69 C -0.00566 0.50211 0.88299
 C70 C 0.00435 0.50086 1.11764
 O71 O -0.00945 -0.09596 0.44948
 O72 O -0.00337 0.07908 0.44406
 O73 O 0.08130 -0.00533 0.44411
 O74 O -0.09322 -0.01257 0.44812
 O75 O -0.08049 0.00113 0.55384
 O76 O 0.09423 0.00885 0.54981
 O77 O 0.01024 0.09215 0.54976
 O78 O 0.00451 -0.08277 0.55517
 Cu79 Cu -0.00734 -0.00992 0.43581
 Cu80 Cu 0.00833 0.00606 0.56279
 C81 C -0.00290 -0.11920 0.50322
 C82 C 0.00376 0.11546 0.49607
 C83 C 0.11753 0.00236 0.49630
 C84 C -0.11665 -0.00662 0.50157
 C85 C -0.31406 0.50322 0.99306
 C86 C -0.27830 0.56947 1.01399
 C87 C -0.21335 0.57066 1.01526
 C88 C -0.18980 0.50519 0.99559
 C89 C -0.21956 0.45963 1.04060
 C90 C -0.28446 0.45832 1.03900
 C91 C -0.29043 0.48314 0.92779
 C92 C -0.22547 0.48411 0.92926
 H93 H -0.30206 0.61187 1.02666
 H94 H -0.18190 0.61418 1.02929
 H95 H -0.19195 0.43074 1.07108
 H96 H -0.31217 0.42818 1.06799
 H97 H -0.32182 0.46909 0.88418
 H98 H -0.20163 0.47121 0.88701
 C99 C 0.31133 0.49506 0.99851
 C100 C 0.28252 0.45196 1.04638
 C101 C 0.21823 0.45438 1.04897
 C102 C 0.18826 0.49913 1.00309
 C103 C 0.22776 0.56439 1.02041
 C104 C 0.29194 0.56215 1.01805
 C105 C 0.27100 0.47361 0.93418
 C106 C 0.20684 0.47578 0.93679
 H107 H 0.31018 0.42204 1.07564
 H108 H 0.19118 0.42681 1.08060
 H109 H 0.20733 0.60862 1.03379
 H110 H 0.32584 0.60445 1.02907
 H111 H 0.29075 0.45737 0.89040
 H112 H 0.17233 0.46177 0.89540
 C113 C -0.00509 -0.31489 0.50323
 C114 C 0.04038 -0.28509 0.45809
 C115 C 0.04148 -0.22029 0.45913
 C116 C -0.00353 -0.19071 0.50451
 C117 C -0.06973 -0.22667 0.48354
 C118 C -0.07077 -0.29156 0.48289
 C119 C 0.01589 -0.27883 0.56939
 C120 C 0.01665 -0.21394 0.57017
 H121 H 0.06945 -0.31254 0.42797
 H122 H 0.07163 -0.19260 0.43014
 H123 H -0.11222 -0.20305 0.47043
 H124 H -0.11435 -0.32298 0.46883
 H125 H 0.02882 -0.30230 0.61209
 H126 H 0.03053 -0.18233 0.61356
 C127 C 0.00510 0.31110 0.49646
 C128 C 0.07092 0.28813 0.51631
 C129 C 0.07024 0.22324 0.51557
 C130 C 0.00409 0.18699 0.49494
 C131 C -0.04076 0.21636 0.54067
 C132 C -0.03994 0.28116 0.54176
 C133 C -0.01615 0.27515 0.43037
 C134 C -0.01663 0.21027 0.42942
 H135 H 0.11431 0.31989 0.53003
 H136 H 0.11295 0.19984 0.52838
 H137 H -0.07052 0.18856 0.56992
 H138 H -0.06885 0.30858 0.57207
 H139 H -0.02950 0.29876 0.38789
 H140 H -0.03067 0.17870 0.38604
 C141 C 0.50487 -0.00449 -0.31099
 C142 C 0.57095 0.01687 -0.27463
 C143 C 0.57182 0.01735 -0.20975
 C144 C 0.50634 -0.00347 -0.18682
 C145 C 0.46037 0.04123 -0.21661
 C146 C 0.45925 0.04040 -0.28140
 C147 C 0.48523 -0.07039 -0.28775
 C148 C 0.48598 -0.06962 -0.22288
 H149 H 0.61353 0.03025 -0.29790
 H150 H 0.61516 0.03145 -0.17794
 H151 H 0.43085 0.07077 -0.18910
 H152 H 0.42851 0.06907 -0.30903
 H153 H 0.47155 -0.11392 -0.31921
 H154 H 0.47328 -0.11227 -0.19936
 C155 C 0.49751 0.00596 0.31492
 C156 C 0.54256 -0.03971 0.28572
 C157 C 0.54170 -0.04090 0.22092
 C158 C 0.49642 0.00423 0.19080
 C159 C 0.43068 -0.01570 0.21368
 C160 C 0.43140 -0.01486 0.27857
 C161 C 0.51792 0.07144 0.29159
 C162 C 0.51740 0.07039 0.22669
 H163 H 0.57244 -0.06888 0.31363
 H164 H 0.57065 -0.07125 0.19358
 H165 H 0.38730 -0.02954 0.18184
 H166 H 0.38875 -0.02769 0.30190
 H167 H 0.53178 0.11488 0.32313
 H168 H 0.53054 0.11285 0.20302
 C169 C 0.50235 -0.31258 -0.00687
 C170 C 0.48230 -0.28838 -0.07208
 C171 C 0.48365 -0.22343 -0.07032
 C172 C 0.50502 -0.18852 -0.00380
 C173 C 0.45937 -0.21839 0.04094
 C174 C 0.45767 -0.28325 0.03904
 C175 C 0.56885 -0.27739 0.01438
 C176 C 0.57040 -0.21245 0.01593
 H177 H 0.46802 -0.31936 -0.11582
 H178 H 0.47080 -0.19912 -0.11247
 H179 H 0.43079 -0.19087 0.07154
 H180 H 0.42744 -0.31110 0.06784
 H181 H 0.61112 -0.30152 0.02700
 H182 H 0.61411 -0.18129 0.03015
 C183 C 0.49327 0.31068 -0.00024
 C184 C 0.55994 0.29200 0.02233
 C185 C 0.56249 0.22793 0.02503
 C186 C 0.49785 0.18808 0.00492
 C187 C 0.45095 0.21722 0.04849
 C188 C 0.44833 0.28141 0.04557
 C189 C 0.47457 0.27092 -0.06506
 C190 C 0.47696 0.20684 -0.06221
 H191 H 0.60166 0.32631 0.03515
 H192 H 0.60645 0.20784 0.04054
 H193 H 0.42227 0.18977 0.07892
 H194 H 0.41722 0.30879 0.07330
 H195 H 0.46025 0.29107 -0.10936
 H196 H 0.46504 0.17256 -0.10401
 C197 C -0.31046 -0.00191 0.50786
 C198 C -0.27078 0.06288 0.52750
 C199 C -0.20667 0.06055 0.52508
 C200 C -0.18776 -0.00606 0.50323
 C201 C -0.21675 -0.05086 0.54940
 C202 C -0.28101 -0.04847 0.55203
 C203 C -0.29177 -0.02298 0.44098
 C204 C -0.22766 -0.02516 0.43841
 H205 H -0.29100 0.10678 0.54253
 H206 H -0.17247 0.10238 0.53764
 H207 H -0.18915 -0.08170 0.57757
 H208 H -0.30830 -0.07708 0.58264
 H209 H -0.32612 -0.03521 0.39916
 H210 H -0.20758 -0.03962 0.39430
 C211 C 0.31284 0.00548 0.49809
 C212 C 0.28325 -0.04033 0.54293
 C213 C 0.21841 -0.04176 0.54133
 C214 C 0.18886 0.00333 0.49562
 C215 C 0.22444 0.06959 0.51679
 C216 C 0.28935 0.07088 0.51803
 C217 C 0.27728 -0.01539 0.43168
 C218 C 0.21236 -0.01646 0.43024
 H219 H 0.31093 -0.06928 0.57329
 H220 H 0.19071 -0.07218 0.57010
 H221 H 0.20060 0.11191 0.52957
 H222 H 0.32077 0.11440 0.53216
 H223 H 0.30113 -0.02809 0.38940
 H224 H 0.18095 -0.03036 0.38661
 C225 C 0.00124 0.49591 1.31174
 C226 C 0.04794 0.45213 1.28252
 C227 C 0.04976 0.45446 1.21818
 C228 C 0.00430 0.49991 1.18885
 C229 C -0.06200 0.47753 1.20835
 C230 C -0.06375 0.47543 1.27258
 C231 C 0.02158 0.56280 1.29219
 C232 C 0.02316 0.56505 1.22794
 H233 H 0.07706 0.42200 1.31002
 H234 H 0.08065 0.42650 1.19074
 H235 H -0.10404 0.46441 1.17445
 H236 H -0.10735 0.46014 1.29323
 H237 H 0.03368 0.60488 1.32605
 H238 H 0.03698 0.60911 1.20723
 C239 C -0.00191 0.50521 0.68873
 C240 C 0.06298 0.52606 0.72796
 C241 C 0.06102 0.52469 0.79225
 C242 C -0.00536 0.50257 0.81174
 C243 C -0.05074 0.54769 0.78172
 C244 C -0.04871 0.54931 0.71732
 C245 C -0.02232 0.43863 0.70893
 C246 C -0.02412 0.43709 0.77321
 H247 H 0.10663 0.54117 0.70729
 H248 H 0.10292 0.53834 0.82622
 H249 H -0.08168 0.57596 0.80876
 H250 H -0.07773 0.57916 0.68935
 H251 H -0.03437 0.39624 0.67545
 H252 H -0.03807 0.39329 0.79432
   
