data_POSCAR
  _audit_creation_date              2014-09-24
  _audit_creation_method            'ToBaCCo'
  _symmetry_space_group_name_H-M    'P1'
  _symmetry_Int_Tables_number       1
  _symmetry_cell_setting            triclinic
  loop_
  _symmetry_equiv_pos_as_xyz
 x,y,z
_cell_length_a 48.0284
_cell_length_b 39.1028
_cell_length_c 47.2420
_cell_angle_alpha 88.252100
_cell_angle_beta 89.317300
_cell_angle_gamma 90.623600
loop_
  _atom_site_label
  _atom_site_type_symbol
  _atom_site_fract_x
  _atom_site_fract_y
  _atom_site_fract_z
C1 C 0.28393 0.29943 0.24279
 H2 H 0.28436 0.30255 0.26546
 C3 C 0.30094 0.32007 0.22504
 H4 H 0.31443 0.33908 0.23413
 C5 C 0.26620 0.27050 0.20339
 H6 H 0.25276 0.25106 0.19499
 C7 C 0.28316 0.29023 0.18492
 H8 H 0.28231 0.28611 0.16238
 N9 N 0.26661 0.27563 0.23175
 C10 C 0.19906 0.26232 0.29448
 H11 H 0.19629 0.23490 0.29490
 C12 C 0.18152 0.28209 0.31096
 H13 H 0.16623 0.26939 0.32475
 C14 C 0.22161 0.31208 0.27539
 H15 H 0.23662 0.32394 0.26098
 C16 C 0.20443 0.33285 0.29141
 H17 H 0.20673 0.36038 0.28917
 Zn18 Zn 0.24299 0.24865 0.25644
 N19 N 0.21921 0.27737 0.27771
 C20 C 0.25288 0.20002 0.30101
 N21 N 0.26534 0.22108 0.28107
 C22 C 0.29357 0.22198 0.27793
 C23 C 0.31031 0.20173 0.29548
 C24 C 0.26882 0.17937 0.31901
 C25 C 0.20019 0.23570 0.21867
 C26 C 0.18311 0.21634 0.20147
 C27 C 0.20699 0.16548 0.21775
 C28 C 0.22374 0.18587 0.23454
 N29 N 0.22012 0.22031 0.23460
 H30 H 0.23051 0.19869 0.30278
 H31 H 0.30324 0.23801 0.26153
 H32 H 0.33268 0.20256 0.29234
 H33 H 0.25840 0.16319 0.33494
 H34 H 0.19788 0.26317 0.21906
 H35 H 0.16788 0.22927 0.18840
 H36 H 0.21006 0.13809 0.21814
 H37 H 0.23981 0.17418 0.24726
 C38 C 0.18428 0.31790 0.30981
 C39 C 0.30059 0.31560 0.19570
 C40 C 0.18643 0.18071 0.20076
 C41 C 0.29796 0.18007 0.31641
 C42 C 0.78274 0.79728 0.23120
 H43 H 0.78218 0.80197 0.25365
 C44 C 0.80092 0.81628 0.21340
 H45 H 0.81428 0.83509 0.22286
 C46 C 0.76721 0.76514 0.19271
 H47 H 0.75417 0.74506 0.18467
 C48 C 0.78549 0.78293 0.17426
 H49 H 0.78511 0.77674 0.15211
 N50 N 0.76604 0.77257 0.22061
 C51 C 0.69841 0.75971 0.28354
 H52 H 0.69594 0.73227 0.28412
 C53 C 0.68091 0.77927 0.30023
 H54 H 0.66599 0.76635 0.31431
 C55 C 0.72020 0.80971 0.26398
 H56 H 0.73490 0.82172 0.24930
 C57 C 0.70303 0.83030 0.28023
 H58 H 0.70504 0.85785 0.27792
 Zn59 Zn 0.74195 0.74614 0.24525
 N60 N 0.71818 0.77498 0.26644
 C61 C 0.75157 0.69669 0.28950
 N62 N 0.76407 0.71843 0.27007
 C63 C 0.79234 0.72032 0.26771
 C64 C 0.80907 0.70055 0.28563
 C65 C 0.76752 0.67647 0.30784
 C66 C 0.69976 0.73421 0.20674
 C67 C 0.68267 0.71543 0.18913
 C68 C 0.70505 0.66379 0.20599
 C69 C 0.72186 0.68361 0.22318
 N70 N 0.71898 0.71817 0.22316
 H71 H 0.72921 0.69451 0.29061
 H72 H 0.80209 0.73691 0.25175
 H73 H 0.83149 0.70228 0.28316
 H74 H 0.75707 0.65980 0.32340
 H75 H 0.69806 0.76177 0.20704
 H76 H 0.66805 0.72889 0.17568
 H77 H 0.70752 0.63629 0.20646
 H78 H 0.73741 0.67140 0.23625
 C79 C 0.68330 0.81510 0.29898
 C80 C 0.80280 0.80920 0.18432
 C81 C 0.68522 0.67969 0.18850
 C82 C 0.79670 0.67835 0.30614
 C83 C 0.78314 0.30653 0.73238
 H84 H 0.77343 0.31749 0.75070
 C85 C 0.80091 0.32665 0.71501
 H86 H 0.80475 0.35306 0.72017
 C87 C 0.79061 0.25854 0.70389
 H88 H 0.78634 0.23196 0.69970
 C89 C 0.80856 0.27770 0.68600
 H90 H 0.81781 0.26573 0.66784
 N91 N 0.77820 0.27322 0.72642
 C92 C 0.73113 0.26978 0.80086
 H93 H 0.74355 0.25009 0.81074
 C94 C 0.71499 0.29051 0.81792
 H95 H 0.71505 0.28630 0.84069
 C96 C 0.71667 0.30032 0.75966
 H97 H 0.71782 0.30463 0.73701
 C98 C 0.70056 0.32200 0.77598
 H99 H 0.68891 0.34229 0.76566
 Zn100 Zn 0.75363 0.24588 0.74922
 N101 N 0.73144 0.27460 0.77219
 C102 C 0.76146 0.19240 0.79005
 N103 N 0.77476 0.21580 0.77275
 C104 C 0.80294 0.21871 0.77259
 C105 C 0.81887 0.19785 0.79044
 C106 C 0.77648 0.17083 0.80815
 C107 C 0.71536 0.23786 0.70505
 C108 C 0.69831 0.22037 0.68647
 C109 C 0.71346 0.16707 0.70794
 C110 C 0.73027 0.18559 0.72604
 N111 N 0.73060 0.22042 0.72470
 H112 H 0.73894 0.19094 0.79020
 H113 H 0.81323 0.23738 0.75862
 H114 H 0.84120 0.20058 0.78834
 H115 H 0.76443 0.15414 0.82232
 H116 H 0.71679 0.26538 0.70333
 H117 H 0.68664 0.23481 0.67080
 H118 H 0.71314 0.13941 0.70981
 H119 H 0.74319 0.17189 0.74093
 C120 C 0.69944 0.31698 0.80549
 C121 C 0.81379 0.31230 0.69138
 C122 C 0.69707 0.18446 0.68787
 C123 C 0.80595 0.17317 0.80907
 C124 C 0.29189 0.79990 0.73998
 H125 H 0.29059 0.80473 0.76238
 C126 C 0.31103 0.81822 0.72274
 H127 H 0.32444 0.83724 0.73195
 C128 C 0.27641 0.76875 0.70079
 H129 H 0.26318 0.74913 0.69234
 C130 C 0.29550 0.78606 0.68291
 H131 H 0.29637 0.78008 0.66068
 N132 N 0.27466 0.77620 0.72869
 C133 C 0.20564 0.76684 0.78950
 H134 H 0.20441 0.73921 0.79137
 C135 C 0.18759 0.78661 0.80533
 H136 H 0.17277 0.77391 0.81967
 C137 C 0.22709 0.81665 0.76898
 H138 H 0.24221 0.82826 0.75447
 C139 C 0.20938 0.83747 0.78443
 H140 H 0.21114 0.86500 0.78166
 Zn141 Zn 0.24890 0.75193 0.75272
 N142 N 0.22526 0.78200 0.77220
 C143 C 0.26788 0.73176 0.80719
 N144 N 0.26951 0.72524 0.77911
 C145 C 0.28642 0.70042 0.76935
 C146 C 0.30163 0.68000 0.78826
 C147 C 0.28286 0.71217 0.82678
 C148 C 0.20927 0.74074 0.71164
 C149 C 0.19133 0.72248 0.69453
 C150 C 0.20620 0.67016 0.71799
 C151 C 0.22393 0.68948 0.73468
 N152 N 0.22542 0.72409 0.73092
 H153 H 0.25519 0.75241 0.81451
 H154 H 0.28776 0.69619 0.74685
 H155 H 0.31430 0.65972 0.78010
 H156 H 0.28143 0.71809 0.84898
 H157 H 0.21063 0.76833 0.70935
 H158 H 0.17923 0.73625 0.67880
 H159 H 0.20518 0.64266 0.72134
 H160 H 0.23629 0.67677 0.75069
 C161 C 0.18944 0.82246 0.80311
 C162 C 0.31294 0.81135 0.69380
 C163 C 0.18968 0.68667 0.69749
 C164 C 0.29981 0.68558 0.81747
 C165 C -0.02429 -0.01511 0.02430
 C166 C -0.00891 0.00116 0.00226
 C167 C -0.02284 0.01907 -0.01940
 C168 C -0.05201 0.02157 -0.01885
 C169 C -0.06712 0.00543 0.00356
 C170 C -0.05343 -0.01325 0.02496
 C171 C 0.02180 0.00024 0.00218
 C172 C 0.03640 -0.01259 -0.02099
 C173 C 0.06566 -0.01310 -0.02132
 C174 C 0.08015 0.00041 0.00159
 C175 C 0.06577 0.01386 0.02478
 C176 C 0.03652 0.01308 0.02505
 H177 H -0.01357 -0.02918 0.04094
 H178 H -0.01085 0.03124 -0.03655
 H179 H 0.02489 -0.02218 -0.03873
 H180 H 0.02506 0.02289 0.04290
 H181 H -0.08961 0.00722 0.00437
 H182 H 0.10269 0.00057 0.00132
 C183 C -0.02731 0.49648 0.52215
 C184 C -0.01207 0.51302 0.50015
 C185 C -0.02615 0.53006 0.47814
 C186 C -0.05539 0.53098 0.47812
 C187 C -0.07039 0.51400 0.50019
 C188 C -0.05654 0.49650 0.52219
 C189 C 0.01863 0.51222 0.50013
 C190 C 0.03314 0.49766 0.47766
 C191 C 0.06233 0.49569 0.47792
 C192 C 0.07688 0.50948 0.50066
 C193 C 0.06262 0.52461 0.52314
 C194 C 0.03339 0.52545 0.52283
 H195 H -0.01632 0.48341 0.53913
 H196 H -0.01428 0.54264 0.46109
 H197 H 0.02160 0.48754 0.46016
 H198 H 0.02202 0.53642 0.54024
 H199 H -0.09294 0.51435 0.50022
 H200 H 0.09939 0.50833 0.50091
 C201 C 0.47726 -0.01336 0.52284
 C202 C 0.49171 0.00305 0.50022
 C203 C 0.47692 0.02125 0.47938
 C204 C 0.44780 0.02368 0.48121
 C205 C 0.43357 0.00709 0.50399
 C206 C 0.44812 -0.01166 0.52478
 C207 C 0.52237 0.00203 0.49877
 C208 C 0.53591 -0.01235 0.47561
 C209 C 0.56515 -0.01323 0.47411
 C210 C 0.58065 0.00133 0.49587
 C211 C 0.56732 0.01636 0.51896
 C212 C 0.53810 0.01611 0.52042
 H213 H 0.48874 -0.02734 0.53897
 H214 H 0.48819 0.03377 0.46188
 H215 H 0.52361 -0.02285 0.45880
 H216 H 0.52748 0.02719 0.53826
 H217 H 0.41111 0.00878 0.50561
 H218 H 0.60317 0.00108 0.49479
 C219 C 0.47225 0.47398 0.01878
 C220 C 0.48668 0.49292 -0.00240
 C221 C 0.47191 0.51180 -0.02282
 C222 C 0.44263 0.51214 -0.02212
 C223 C 0.42838 0.49294 -0.00071
 C224 C 0.44304 0.47366 0.01967
 C225 C 0.51730 0.49259 -0.00349
 C226 C 0.53102 0.47528 -0.02497
 C227 C 0.56020 0.47440 -0.02607
 C228 C 0.57557 0.49182 -0.00578
 C229 C 0.56205 0.50917 0.01605
 C230 C 0.53277 0.50912 0.01712
 H231 H 0.48379 0.45935 0.03448
 H232 H 0.48336 0.52671 -0.03887
 H233 H 0.51892 0.46226 -0.04069
 H234 H 0.52188 0.52175 0.03401
 H235 H 0.40583 0.49204 -0.00039
 H236 H 0.59811 0.49149 -0.00686
 C237 C 0.14323 -0.16596 -0.17383
 C238 C 0.12658 -0.14730 -0.15555
 C239 C 0.13734 -0.11851 -0.14246
 C240 C 0.16494 -0.10799 -0.14836
 C241 C 0.18166 -0.12669 -0.16660
 C242 C 0.17111 -0.15618 -0.17924
 N243 N 0.12026 -0.10146 -0.12235
 N244 N 0.12838 -0.07467 -0.11008
 C245 C 0.11164 -0.05871 -0.08905
 C246 C 0.12122 -0.02840 -0.07733
 C247 C 0.10608 -0.01316 -0.05572
 C248 C 0.08109 -0.02818 -0.04531
 C249 C 0.07132 -0.05838 -0.05746
 C250 C 0.08642 -0.07348 -0.07915
 H251 H 0.13432 -0.18819 -0.18358
 H252 H 0.10533 -0.15560 -0.15122
 H253 H 0.17376 -0.08586 -0.13840
 H254 H 0.20312 -0.11870 -0.17005
 H255 H 0.14060 -0.01674 -0.08480
 H256 H 0.11394 0.01037 -0.04716
 H257 H 0.05238 -0.07087 -0.04968
 H258 H 0.07864 -0.09704 -0.08775
 C259 C 0.13835 0.33062 0.33321
 C260 C 0.12196 0.35027 0.35102
 C261 C 0.13320 0.37913 0.36364
 C262 C 0.16112 0.38840 0.35807
 C263 C 0.17758 0.36870 0.34039
 C264 C 0.16645 0.33945 0.32785
 N265 N 0.11615 0.39787 0.38268
 N266 N 0.12467 0.42526 0.39380
 C267 C 0.10803 0.44336 0.41363
 C268 C 0.11832 0.47402 0.42411
 C269 C 0.10326 0.49147 0.44454
 C270 C 0.07761 0.47835 0.45497
 C271 C 0.06712 0.44779 0.44402
 C272 C 0.08216 0.43047 0.42351
 H273 H 0.12899 0.30860 0.32356
 H274 H 0.10046 0.34289 0.35512
 H275 H 0.17035 0.41049 0.36773
 H276 H 0.19922 0.37594 0.33707
 H277 H 0.13820 0.48425 0.41661
 H278 H 0.11171 0.51519 0.45220
 H279 H 0.04765 0.43675 0.45188
 H280 H 0.07382 0.40670 0.41583
 C281 C 0.63775 -0.17310 0.32353
 C282 C 0.62163 -0.15410 0.34207
 C283 C 0.63287 -0.12524 0.35469
 C284 C 0.66047 -0.11523 0.34826
 C285 C 0.67668 -0.13430 0.32985
 C286 C 0.66560 -0.16366 0.31743
 N287 N 0.61624 -0.10739 0.37470
 N288 N 0.62470 -0.08001 0.38586
 C289 C 0.60862 -0.06285 0.40673
 C290 C 0.61865 -0.03192 0.41693
 C291 C 0.60426 -0.01538 0.43836
 C292 C 0.57957 -0.02970 0.45015
 C293 C 0.56928 -0.06051 0.43947
 C294 C 0.58364 -0.07693 0.41794
 H295 H 0.62840 -0.19520 0.31399
 H296 H 0.60037 -0.16205 0.34681
 H297 H 0.66970 -0.09310 0.35788
 H298 H 0.69813 -0.12656 0.32595
 H299 H 0.63784 -0.02077 0.40842
 H300 H 0.61250 0.00859 0.44573
 H301 H 0.55054 -0.07244 0.44832
 H302 H 0.57552 -0.10093 0.41049
 C303 C 0.68370 0.37512 -0.18064
 C304 C 0.66831 0.39620 -0.16304
 C305 C 0.65112 0.38191 -0.14156
 C306 C 0.64949 0.34614 -0.13779
 C307 C 0.66514 0.32509 -0.15509
 C308 C 0.68242 0.33938 -0.17666
 N309 N 0.63609 0.40410 -0.12343
 N310 N 0.61739 0.39266 -0.10622
 C311 C 0.60283 0.41418 -0.08720
 C312 C 0.57999 0.40057 -0.07188
 C313 C 0.56582 0.42039 -0.05242
 C314 C 0.57456 0.45412 -0.04769
 C315 C 0.59748 0.46783 -0.06312
 C316 C 0.61144 0.44808 -0.08288
 H317 H 0.69705 0.38674 -0.19697
 H318 H 0.66983 0.42372 -0.16609
 H319 H 0.63644 0.33448 -0.12125
 H320 H 0.66366 0.29760 -0.15174
 H321 H 0.57327 0.37442 -0.07492
 H322 H 0.54841 0.40911 -0.04055
 H323 H 0.60452 0.49382 -0.05993
 H324 H 0.62914 0.45908 -0.09441
 C325 C -0.19011 0.12215 -0.16026
 C326 C -0.17487 0.10211 -0.14112
 C327 C -0.14807 0.11192 -0.13352
 C328 C -0.13629 0.14189 -0.14568
 C329 C -0.15131 0.16198 -0.16498
 C330 C -0.17888 0.15292 -0.17266
 N331 N -0.13348 0.09130 -0.11311
 N332 N -0.10963 0.09982 -0.10403
 C333 C -0.09526 0.07939 -0.08334
 C334 C -0.06991 0.09138 -0.07301
 C335 C -0.05573 0.07255 -0.05221
 C336 C -0.06670 0.04122 -0.04144
 C337 C -0.09202 0.02904 -0.05215
 C338 C -0.10621 0.04796 -0.07287
 H339 H -0.21025 0.11211 -0.16594
 H340 H -0.18406 0.07874 -0.13212
 H341 H -0.11557 0.15014 -0.13997
 H342 H -0.14139 0.18559 -0.17226
 H343 H -0.06130 0.11562 -0.08085
 H344 H -0.03647 0.08286 -0.04416
 H345 H -0.10079 0.00475 -0.04464
 H346 H -0.12572 0.03806 -0.08064
 C347 C -0.19374 0.62342 0.33313
 C348 C -0.17760 0.60385 0.35182
 C349 C -0.15339 0.61764 0.36330
 C350 C -0.14531 0.65137 0.35573
 C351 C -0.16144 0.67100 0.33706
 C352 C -0.18591 0.65729 0.32561
 N353 N -0.13775 0.59713 0.38294
 N354 N -0.11534 0.60789 0.39390
 C355 C -0.10009 0.58760 0.41402
 C356 C -0.07567 0.60113 0.42529
 C357 C -0.06086 0.58254 0.44577
 C358 C -0.07033 0.55001 0.45537
 C359 C -0.09465 0.53626 0.44367
 C360 C -0.10940 0.55486 0.42317
 H361 H -0.21222 0.61193 0.32437
 H362 H -0.18401 0.57786 0.35745
 H363 H -0.12673 0.66267 0.36442
 H364 H -0.15503 0.69713 0.33200
 H365 H -0.06832 0.62636 0.41846
 H366 H -0.04239 0.59396 0.45461
 H367 H -0.10224 0.51108 0.45036
 H368 H -0.12818 0.54378 0.41470
 C369 C 0.30667 0.12462 0.34294
 C370 C 0.32277 0.10422 0.36104
 C371 C 0.34775 0.11682 0.37176
 C372 C 0.35663 0.15022 0.36404
 C373 C 0.34054 0.17069 0.34596
 C374 C 0.31531 0.15817 0.33528
 N375 N 0.36340 0.09542 0.39073
 N376 N 0.38653 0.10501 0.40090
 C377 C 0.40187 0.08377 0.42026
 C378 C 0.42727 0.09585 0.43041
 C379 C 0.44239 0.07618 0.44994
 C380 C 0.43224 0.04402 0.45971
 C381 C 0.40684 0.03180 0.44925
 C382 C 0.39178 0.05147 0.42969
 H383 H 0.28759 0.11402 0.33475
 H384 H 0.31574 0.07850 0.36678
 H385 H 0.37583 0.16059 0.37215
 H386 H 0.34759 0.19654 0.34076
 H387 H 0.43522 0.12074 0.42338
 H388 H 0.46172 0.08646 0.45786
 H389 H 0.39867 0.00695 0.45612
 H390 H 0.37221 0.04152 0.42210
 C391 C 0.30338 0.65476 -0.13527
 C392 C 0.31808 0.63494 -0.11555
 C393 C 0.34486 0.62359 -0.12195
 C394 C 0.35691 0.63232 -0.14848
 C395 C 0.34230 0.65237 -0.16820
 C396 C 0.31535 0.66391 -0.16181
 N397 N 0.35938 0.60367 -0.10103
 N398 N 0.38284 0.59017 -0.10604
 C399 C 0.39735 0.57071 -0.08479
 C400 C 0.42163 0.55364 -0.09238
 C401 C 0.43628 0.53448 -0.07214
 C402 C 0.42698 0.53231 -0.04376
 C403 C 0.40260 0.54966 -0.03621
 C404 C 0.38787 0.56859 -0.05653
 H405 H 0.28251 0.66264 -0.12981
 H406 H 0.30854 0.62829 -0.09520
 H407 H 0.37768 0.62399 -0.15386
 H408 H 0.35231 0.65932 -0.18824
 H409 H 0.42911 0.55501 -0.11411
 H410 H 0.45470 0.52102 -0.07880
 H411 H 0.39511 0.54903 -0.01449
 H412 H 0.36925 0.58177 -0.05008
 C413 C -0.16733 -0.18750 0.14146
 C414 C -0.14906 -0.16930 0.12320
 C415 C -0.14191 -0.13538 0.12830
 C416 C -0.15269 -0.11989 0.15241
 C417 C -0.17051 -0.13823 0.17112
 C418 C -0.17850 -0.17235 0.16584
 N419 N -0.12386 -0.11726 0.10857
 N420 N -0.12113 -0.08484 0.10829
 C421 C -0.10304 -0.06707 0.08837
 C422 C -0.10631 -0.03184 0.08363
 C423 C -0.09002 -0.01417 0.06316
 C424 C -0.06974 -0.03144 0.04759
 C425 C -0.06585 -0.06656 0.05299
 C426 C -0.08254 -0.08434 0.07305
 H427 H -0.17170 -0.21392 0.13681
 H428 H -0.14063 -0.18162 0.10480
 H429 H -0.14740 -0.09361 0.15679
 H430 H -0.17892 -0.12487 0.18895
 H431 H -0.12198 -0.01825 0.09536
 H432 H -0.09324 0.01296 0.05941
 H433 H -0.05042 -0.08038 0.04111
 H434 H -0.07952 -0.11154 0.07650
 C435 C -0.14314 0.31963 0.66104
 C436 C -0.12613 0.33921 0.64244
 C437 C -0.13335 0.37273 0.63467
 C438 C -0.15774 0.38673 0.64600
 C439 C -0.17474 0.36720 0.66464
 C440 C -0.16771 0.33336 0.67224
 N441 N -0.11591 0.39167 0.61486
 N442 N -0.12155 0.42202 0.60646
 C443 C -0.10440 0.44066 0.58620
 C444 C -0.11233 0.47355 0.57731
 C445 C -0.09663 0.49194 0.55679
 C446 C -0.07263 0.47765 0.54482
 C447 C -0.06449 0.44479 0.55411
 C448 C -0.08024 0.42641 0.57460
 H449 H -0.13697 0.29381 0.66678
 H450 H -0.10736 0.32817 0.63390
 H451 H -0.16381 0.41258 0.64025
 H452 H -0.19370 0.37835 0.67264
 H453 H -0.13087 0.48483 0.58615
 H454 H -0.10322 0.51736 0.55031
 H455 H -0.04630 0.43296 0.54505
 H456 H -0.07371 0.40098 0.58108
 C457 C 0.34935 -0.18680 0.65536
 C458 C 0.36716 -0.16860 0.63660
 C459 C 0.36844 -0.13285 0.63673
 C460 C 0.35223 -0.11538 0.65649
 C461 C 0.33469 -0.13360 0.67554
 C462 C 0.33280 -0.16945 0.67488
 N463 N 0.38575 -0.11499 0.61614
 N464 N 0.38478 -0.08268 0.61217
 C465 C 0.40177 -0.06501 0.59118
 C466 C 0.39644 -0.03058 0.58463
 C467 C 0.41166 -0.01308 0.56322
 C468 C 0.43277 -0.02971 0.54828
 C469 C 0.43860 -0.06403 0.55538
 C470 C 0.42312 -0.08163 0.57654
 H471 H 0.34847 -0.21445 0.65461
 H472 H 0.37960 -0.18235 0.62154
 H473 H 0.35295 -0.08773 0.65705
 H474 H 0.32202 -0.11964 0.69028
 H475 H 0.38010 -0.01747 0.59580
 H476 H 0.40695 0.01346 0.55833
 H477 H 0.45464 -0.07746 0.54404
 H478 H 0.42769 -0.10823 0.58129
 C479 C 0.31882 0.37315 0.17919
 C480 C 0.33461 0.39392 0.16033
 C481 C 0.35023 0.37940 0.13868
 C482 C 0.34984 0.34369 0.13599
 C483 C 0.33375 0.32294 0.15458
 C484 C 0.31809 0.33749 0.17635
 N485 N 0.36578 0.40140 0.11938
 N486 N 0.38334 0.38976 0.10185
 C487 C 0.39835 0.41150 0.08192
 C488 C 0.42041 0.39784 0.06650
 C489 C 0.43521 0.41818 0.04654
 C490 C 0.42782 0.45246 0.04140
 C491 C 0.40558 0.46613 0.05680
 C492 C 0.39105 0.44589 0.07706
 H493 H 0.30672 0.38500 0.19564
 H494 H 0.33466 0.42140 0.16255
 H495 H 0.36167 0.33187 0.11934
 H496 H 0.33366 0.29550 0.15208
 H497 H 0.42613 0.37135 0.06997
 H498 H 0.45209 0.40697 0.03472
 H499 H 0.39960 0.49254 0.05329
 H500 H 0.37396 0.45696 0.08864
 C501 C 0.14077 0.16770 0.17768
 C502 C 0.12471 0.14901 0.15899
 C503 C 0.13634 0.12195 0.14440
 C504 C 0.16432 0.11345 0.14891
 C505 C 0.18048 0.13225 0.16747
 C506 C 0.16895 0.15978 0.18194
 N507 N 0.11961 0.10441 0.12444
 N508 N 0.12820 0.07827 0.11166
 C509 C 0.11169 0.06172 0.09093
 C510 C 0.12139 0.03162 0.07917
 C511 C 0.10629 0.01563 0.05806
 C512 C 0.08125 0.02974 0.04818
 C513 C 0.07147 0.05984 0.06028
 C514 C 0.08648 0.07563 0.08150
 H515 H 0.13110 0.18834 0.18882
 H516 H 0.10315 0.15576 0.15572
 H517 H 0.17383 0.09276 0.13771
 H518 H 0.20219 0.12577 0.16991
 H519 H 0.14078 0.02062 0.08628
 H520 H 0.11421 -0.00777 0.04951
 H521 H 0.05254 0.07172 0.05285
 H522 H 0.07863 0.09903 0.09011
 C523 C 0.14475 0.67934 0.67157
 C524 C 0.12787 0.66158 0.65299
 C525 C 0.13687 0.63099 0.64156
 C526 C 0.16293 0.61791 0.64931
 C527 C 0.17989 0.63567 0.66787
 C528 C 0.17110 0.66680 0.67899
 N529 N 0.11962 0.61447 0.62144
 N530 N 0.12624 0.58633 0.61046
 C531 C 0.10933 0.57060 0.58962
 C532 C 0.11745 0.53922 0.57893
 C533 C 0.10208 0.52393 0.55768
 C534 C 0.07828 0.53995 0.54664
 C535 C 0.06996 0.57127 0.55773
 C536 C 0.08531 0.58646 0.57903
 H537 H 0.13718 0.70293 0.68010
 H538 H 0.10780 0.67187 0.64723
 H539 H 0.17040 0.59434 0.64066
 H540 H 0.20018 0.62553 0.67290
 H541 H 0.13588 0.52671 0.58696
 H542 H 0.10880 0.49956 0.54992
 H543 H 0.05197 0.58448 0.54944
 H544 H 0.07866 0.61083 0.58685
 C545 C 0.65259 0.17760 0.66104
 C546 C 0.63576 0.15972 0.64248
 C547 C 0.64494 0.12927 0.63093
 C548 C 0.67131 0.11674 0.63817
 C549 C 0.68821 0.13463 0.65667
 C550 C 0.67906 0.16531 0.66832
 N551 N 0.62732 0.11193 0.61163
 N552 N 0.63394 0.08354 0.60107
 C553 C 0.61649 0.06662 0.58135
 C554 C 0.62481 0.03515 0.57097
 C555 C 0.60869 0.01849 0.55103
 C556 C 0.58391 0.03317 0.54107
 C557 C 0.57546 0.06463 0.55180
 C558 C 0.59157 0.08120 0.57176
 H559 H 0.64476 0.20086 0.66993
 H560 H 0.61546 0.16961 0.63708
 H561 H 0.67894 0.09333 0.62938
 H562 H 0.70864 0.12473 0.66148
 H563 H 0.64393 0.02361 0.57825
 H564 H 0.61557 -0.00591 0.54347
 H565 H 0.55671 0.07684 0.54426
 H566 H 0.58473 0.10559 0.57939
 C567 C 0.63986 0.66832 0.16423
 C568 C 0.62376 0.65006 0.14527
 C569 C 0.63502 0.62240 0.13116
 C570 C 0.66268 0.61295 0.13636
 C571 C 0.67888 0.63132 0.15518
 C572 C 0.66771 0.65936 0.16926
 N573 N 0.61818 0.60491 0.11125
 N574 N 0.62637 0.57807 0.09920
 C575 C 0.60976 0.56111 0.07878
 C576 C 0.61874 0.52988 0.06852
 C577 C 0.60321 0.51286 0.04833
 C578 C 0.57845 0.52703 0.03779
 C579 C 0.56952 0.55850 0.04816
 C580 C 0.58496 0.57533 0.06852
 H581 H 0.63044 0.68939 0.17504
 H582 H 0.60245 0.65753 0.14150
 H583 H 0.67191 0.59175 0.12556
 H584 H 0.70035 0.62404 0.15818
 H585 H 0.63779 0.51862 0.07630
 H586 H 0.61046 0.48842 0.04120
 H587 H 0.55081 0.57041 0.04020
 H588 H 0.57769 0.59961 0.07598
   
