data_POSCAR
  _audit_creation_date              2014-09-24
  _audit_creation_method            'ToBaCCo'
  _symmetry_space_group_name_H-M    'P1'
  _symmetry_Int_Tables_number       1
  _symmetry_cell_setting            triclinic
  loop_
  _symmetry_equiv_pos_as_xyz
 x,y,z
_cell_length_a 40.1726
_cell_length_b 40.4443
_cell_length_c 40.5713
_cell_angle_alpha 89.880900
_cell_angle_beta 89.947700
_cell_angle_gamma 89.703100
loop_
  _atom_site_label
  _atom_site_type_symbol
  _atom_site_fract_x
  _atom_site_fract_y
  _atom_site_fract_z
N1 N 0.19068 0.19270 0.19039
 N2 N -0.18402 0.81510 0.18817
 N3 N -0.17957 0.17840 -0.18501
 N4 N 0.17537 0.82422 -0.17184
 N5 N 0.17662 1.17807 0.82206
 N6 N 0.81082 0.81251 0.80684
 N7 N 0.17969 0.81606 1.17808
 N8 N 0.81568 1.18349 1.18650
 O9 O 0.45124 0.94252 0.94331
 O10 O 0.41627 0.97628 0.97299
 C11 C 0.42180 0.95307 0.95167
 O12 O 0.54661 0.94167 1.05965
 O13 O 0.58311 0.97082 1.02742
 C14 C 0.57660 0.94963 1.05048
 O15 O 0.45220 0.94144 1.05731
 O16 O 0.41681 0.97502 1.02799
 C17 C 0.42252 0.95139 1.04888
 O18 O 0.54523 0.94199 0.93937
 O19 O 0.58248 0.97059 0.97099
 C20 C 0.57543 0.94944 0.94815
 Zr21 Zr 0.49887 0.95943 0.95822
 O22 O 0.50090 0.90713 0.95769
 O23 O 0.49466 0.96046 0.90621
 Zr24 Zr 0.49968 0.95878 1.04174
 O25 O 0.50197 0.90648 1.04164
 O26 O 0.49633 0.95883 1.09382
 O27 O 0.46943 0.95375 1.00026
 O28 O 0.52790 0.95211 0.99963
 O29 O 0.54808 1.05733 0.93974
 O30 O 0.58412 1.02648 0.97110
 C31 C 0.57786 1.04813 0.94827
 O32 O 0.45653 1.06277 1.05796
 O33 O 0.41855 1.03251 1.02876
 C34 C 0.42622 1.05535 1.04982
 O35 O 0.54990 1.05567 1.06047
 O36 O 0.58489 1.02486 1.02798
 C37 C 0.57940 1.04592 1.05142
 O38 O 0.45495 1.06349 0.94391
 O39 O 0.41796 1.03299 0.97422
 C40 C 0.42489 1.05585 0.95287
 Zr41 Zr 0.50130 1.04311 0.95878
 O42 O 0.50661 1.09516 0.95921
 O43 O 0.49699 1.04366 0.90678
 Zr44 Zr 0.50237 1.04227 1.04221
 O45 O 0.50799 1.09427 1.04300
 O46 O 0.49892 1.04151 1.09428
 Zr47 Zr 0.45121 1.00277 1.00080
 Zr48 Zr 0.54983 0.99928 0.99949
 O49 O 0.53082 1.04781 1.00018
 O50 O 0.47246 1.05029 1.00091
 O51 O 0.52968 1.00032 0.95158
 O52 O 0.47213 1.00154 1.04832
 O53 O 0.47120 1.00236 0.95283
 O54 O 0.53072 0.99942 1.04794
 H55 H 0.54239 0.93221 0.99947
 H56 H 0.45708 1.00191 1.06768
 H57 H 0.54652 1.06662 1.00028
 H58 H 0.45594 1.00317 0.93367
 H59 H 0.51580 0.97099 1.10233
 H60 H 0.51737 1.02755 1.10263
 H61 H 0.49029 1.10383 1.02892
 H62 H 0.48826 1.10436 0.97269
 H63 H 0.51476 1.02920 0.89788
 H64 H 0.51421 0.97242 0.89751
 H65 H 0.48248 0.89902 0.97168
 H66 H 0.48331 0.89852 1.02796
 O67 O -0.06622 0.45449 0.05600
 O68 O -0.03455 0.41732 0.02697
 C69 C -0.05763 0.42450 0.04820
 O70 O -0.06085 0.54576 -0.06360
 O71 O -0.03060 0.58164 -0.03195
 C72 C -0.05172 0.57543 -0.05522
 O73 O -0.06519 0.45221 -0.05900
 O74 O -0.03395 0.41658 -0.02756
 C75 C -0.05664 0.42260 -0.04944
 O76 O -0.06204 0.54703 0.05735
 O77 O -0.03158 0.58260 0.02539
 C78 C -0.05326 0.57654 0.04837
 Zr79 Zr -0.04713 0.50030 0.03938
 O80 O -0.09964 0.50488 0.03774
 O81 O -0.04872 0.49755 0.09145
 Zr82 Zr -0.04645 0.49902 -0.04377
 O83 O -0.09897 0.50363 -0.04326
 O84 O -0.04679 0.49463 -0.09574
 O85 O -0.05353 0.47021 -0.00170
 O86 O -0.05246 0.52858 -0.00272
 O87 O 0.05352 0.54531 0.05798
 O88 O 0.02396 0.58157 0.02569
 C89 C 0.04544 0.57504 0.04869
 O90 O 0.05634 0.45031 -0.05753
 O91 O 0.02303 0.41553 -0.02761
 C92 C 0.04684 0.42096 -0.04842
 O93 O 0.05434 0.54363 -0.06220
 O94 O 0.02436 0.58073 -0.03131
 C95 C 0.04603 0.57361 -0.05394
 O96 O 0.05538 0.45229 0.05662
 O97 O 0.02252 0.41639 0.02777
 C98 C 0.04599 0.42263 0.04869
 Zr99 Zr 0.03717 0.49891 0.04031
 O100 O 0.08977 0.50171 0.04093
 O101 O 0.03625 0.49600 0.09242
 Zr102 Zr 0.03791 0.49758 -0.04315
 O103 O 0.09051 0.50043 -0.04306
 O104 O 0.03795 0.49303 -0.09513
 Zr105 Zr -0.00504 0.45001 -0.00082
 Zr106 Zr -0.00397 0.54802 -0.00253
 O107 O 0.04397 0.52678 -0.00186
 O108 O 0.04381 0.46872 -0.00083
 O109 O -0.00469 0.52912 0.04590
 O110 O -0.00451 0.46959 -0.04894
 O111 O -0.00535 0.47114 0.04648
 O112 O -0.00383 0.52762 -0.05036
 H113 H -0.07165 0.54407 -0.00316
 H114 H -0.00448 0.45430 -0.06799
 H115 H 0.06368 0.54140 -0.00198
 H116 H -0.00569 0.45652 0.06611
 H117 H -0.03153 0.51160 -0.10457
 H118 H 0.02536 0.51207 -0.10417
 H119 H 0.09893 0.48227 -0.02895
 H120 H 0.09842 0.48327 0.02738
 H121 H 0.02366 0.51540 0.10061
 H122 H -0.03318 0.51434 0.10002
 H123 H -0.10833 0.48545 0.02580
 H124 H -0.10790 0.48446 -0.03099
 O125 O 1.06529 -0.05900 0.54691
 O126 O 1.03249 -0.02872 0.58209
 C127 C 1.05573 -0.05032 0.57630
 O128 O 1.06576 0.05879 0.45368
 O129 O 1.03701 0.02654 0.41720
 C130 C 1.05785 0.04990 0.42392
 O131 O 1.06671 0.05505 0.54664
 O132 O 1.03315 0.02604 0.58202
 C133 C 1.05699 0.04674 0.57607
 O134 O 1.06555 -0.06156 0.45408
 O135 O 1.03550 -0.03035 0.41719
 C136 C 1.05734 -0.05297 0.42427
 Zr137 Zr 1.04782 -0.04351 0.49998
 O138 O 1.10045 -0.04545 0.49807
 O139 O 1.04581 -0.09571 0.50349
 Zr140 Zr 1.04898 0.04013 0.49979
 O141 O 1.10162 0.03897 0.49720
 O142 O 1.04986 0.09231 0.50366
 O143 O 1.05407 -0.00179 0.52941
 O144 O 1.05528 -0.00178 0.47151
 O145 O 0.94857 -0.05983 0.45090
 O146 O 0.98003 -0.02837 0.41578
 C147 C 0.95788 -0.05084 0.42153
 O148 O 0.94620 0.05902 0.54337
 O149 O 0.97549 0.02722 0.58035
 C150 C 0.95386 0.05003 0.57319
 O151 O 0.95102 0.06085 0.45066
 O152 O 0.98177 0.02836 0.41567
 C153 C 0.96051 0.05188 0.42132
 O154 O 0.94339 -0.05705 0.54336
 O155 O 0.97470 -0.02807 0.58055
 C156 C 0.95144 -0.04902 0.57328
 Zr157 Zr 0.96378 -0.04199 0.49769
 O158 O 0.91133 -0.04178 0.49293
 O159 O 0.96394 -0.09423 0.50131
 Zr160 Zr 0.96478 0.04173 0.49758
 O161 O 0.91228 0.04131 0.49293
 O162 O 0.96429 0.09396 0.50062
 Zr163 Zr 1.00491 -0.00089 0.54773
 Zr164 Zr 1.00766 -0.00091 0.44994
 O165 O 0.95894 0.00003 0.46897
 O166 O 0.95687 0.00001 0.52687
 O167 O 1.00654 -0.04924 0.46940
 O168 O 1.00624 0.04696 0.52723
 O169 O 1.00491 -0.04876 0.52753
 O170 O 1.00778 0.04740 0.46937
 H171 H 1.07523 -0.00200 0.45713
 H172 H 1.00635 0.06643 0.54201
 H173 H 0.93984 0.00056 0.45354
 H174 H 1.00428 -0.06807 0.54259
 H175 H 1.03671 0.10137 0.48509
 H176 H 0.98010 0.10233 0.48392
 H177 H 0.90312 0.03065 0.51292
 H178 H 0.90242 -0.02623 0.50955
 H179 H 0.97695 -0.10291 0.48248
 H180 H 1.03452 -0.10393 0.48347
 H181 H 1.10889 -0.03056 0.51542
 H182 H 1.10974 0.02578 0.51613
 C183 C 1.20017 0.16737 0.24512
 C184 C 1.18797 0.15370 0.27438
 C185 C 1.15358 0.15212 0.28019
 C186 C 1.13162 0.16585 0.25678
 C187 C 1.14383 0.17954 0.22760
 C188 C 1.17819 0.18007 0.22130
 C189 C 1.14140 0.13592 0.31065
 C190 C 1.11201 0.12044 0.31202
 C191 C 1.09969 0.10235 0.34133
 C192 C 1.07540 0.07806 0.33665
 C193 C 1.06233 0.06077 0.36340
 C194 C 1.07300 0.06759 0.39567
 C195 C 1.09726 0.09204 0.40048
 C196 C 1.11049 0.10930 0.37358
 H197 H 1.22678 0.16786 0.24089
 H198 H 1.20539 0.14365 0.29218
 H199 H 1.10501 0.16612 0.26092
 H200 H 1.12642 0.18925 0.20962
 H201 H 1.15821 0.13467 0.33146
 H202 H 1.09690 0.11909 0.28997
 H203 H 1.06648 0.07239 0.31212
 H204 H 1.04352 0.04229 0.35871
 H205 H 1.10580 0.09808 0.42504
 H206 H 1.12852 0.12848 0.37828
 C207 C 0.84319 -0.19387 0.24205
 C208 C 0.85773 -0.18156 0.27076
 C209 C 0.85951 -0.14736 0.27619
 C210 C 0.84526 -0.12568 0.25289
 C211 C 0.83058 -0.13803 0.22426
 C212 C 0.82973 -0.17220 0.21843
 C213 C 0.87598 -0.13520 0.30645
 C214 C 0.89125 -0.10583 0.30787
 C215 C 0.90874 -0.09345 0.33749
 C216 C 0.93309 -0.06907 0.33338
 C217 C 0.94946 -0.05576 0.36058
 C218 C 0.94161 -0.06632 0.39270
 C219 C 0.91725 -0.09083 0.39688
 C220 C 0.90092 -0.10422 0.36959
 H221 H 0.84249 -0.22033 0.23815
 H222 H 0.86817 -0.19876 0.28850
 H223 H 0.84517 -0.09922 0.25675
 H224 H 0.82030 -0.12090 0.20638
 H225 H 0.87734 -0.15192 0.32727
 H226 H 0.89259 -0.09071 0.28586
 H227 H 0.93944 -0.06018 0.30897
 H228 H 0.96796 -0.03683 0.35638
 H229 H 0.91042 -0.09934 0.42127
 H230 H 0.88165 -0.12230 0.37388
 C231 C 0.81418 0.14310 0.76558
 C232 C 0.82784 0.12619 0.73880
 C233 C 0.86146 0.13004 0.73062
 C234 C 0.88137 0.15103 0.74979
 C235 C 0.86789 0.16734 0.77715
 C236 C 0.83413 0.16343 0.78550
 C237 C 0.87546 0.11060 0.70310
 C238 C 0.89796 0.12293 0.68217
 C239 C 0.91112 0.10349 0.65424
 C240 C 0.91638 0.11914 0.62385
 C241 C 0.92923 0.10140 0.59716
 C242 C 0.93802 0.06792 0.60074
 C243 C 0.93312 0.05231 0.63131
 C244 C 0.91945 0.06986 0.65777
 H245 H 0.78804 0.13982 0.77112
 H246 H 0.81209 0.11011 0.72436
 H247 H 0.90759 0.15389 0.74435
 H248 H 0.88407 0.18229 0.79229
 H249 H 0.86544 0.08615 0.69880
 H250 H 0.90535 0.14858 0.68427
 H251 H 0.91032 0.14509 0.62072
 H252 H 0.93319 0.11411 0.57397
 H253 H 0.93986 0.02656 0.63472
 H254 H 0.91618 0.05738 0.68118
 C255 C 1.15840 -0.12353 0.80098
 C256 C 1.14454 -0.10659 0.77419
 C257 C 1.13372 -0.12384 0.74620
 C258 C 1.13642 -0.15857 0.74586
 C259 C 1.15028 -0.17546 0.77265
 C260 C 1.16155 -0.15810 0.80036
 C261 C 1.11862 -0.10500 0.71853
 C262 C 1.11776 -0.11628 0.68746
 C263 C 1.10223 -0.09800 0.65966
 C264 C 1.11162 -0.10626 0.62737
 C265 C 1.09684 -0.09056 0.60034
 C266 C 1.07205 -0.06636 0.60498
 C267 C 1.06258 -0.05808 0.63733
 C268 C 1.07738 -0.07378 0.66437
 H269 H 1.16643 -0.10973 0.82236
 H270 H 1.14233 -0.07991 0.77529
 H271 H 1.12730 -0.17292 0.72534
 H272 H 1.15220 -0.20216 0.77184
 H273 H 1.10923 -0.08048 0.72395
 H274 H 1.13003 -0.13942 0.68158
 H275 H 1.13047 -0.12500 0.62302
 H276 H 1.10471 -0.09764 0.57580
 H277 H 1.04340 -0.03972 0.64183
 H278 H 1.06865 -0.06738 0.68876
 C279 C 0.21454 1.13989 1.17046
 C280 C 0.23874 1.12236 1.15286
 C281 C 0.26502 1.13901 1.13734
 C282 C 0.26619 1.17377 1.13917
 C283 C 0.24200 1.19126 1.15681
 C284 C 0.21600 1.17450 1.17268
 C285 C 0.29026 1.11943 1.11906
 C286 C 0.32136 1.13009 1.11378
 C287 C 0.34735 1.11024 1.09693
 C288 C 0.38079 1.11766 1.10317
 C289 C 0.40628 1.09980 1.08795
 C290 C 0.39892 1.07417 1.06580
 C291 C 0.36539 1.06700 1.05908
 C292 C 0.33984 1.08488 1.07443
 H293 H 0.19442 1.12648 1.18208
 H294 H 0.23705 1.09568 1.15154
 H295 H 0.28536 1.18765 1.12664
 H296 H 0.24349 1.21795 1.15806
 H297 H 0.28344 1.09468 1.11167
 H298 H 0.32902 1.15354 1.12400
 H299 H 0.38727 1.13724 1.12015
 H300 H 0.43179 1.10617 1.09359
 H301 H 0.35886 1.04764 1.04189
 H302 H 0.31437 1.07910 1.06816
 C303 C 0.21148 0.82981 0.87752
 C304 C 0.24091 0.84037 0.89241
 C305 C 0.26485 0.85752 0.87410
 C306 C 0.25947 0.86302 0.84033
 C307 C 0.23044 0.85171 0.82522
 C308 C 0.20585 0.83525 0.84367
 C309 C 0.29532 0.86924 0.89060
 C310 C 0.30788 0.89923 0.88457
 C311 C 0.33703 0.91213 0.90242
 C312 C 0.33722 0.94539 0.91201
 C313 C 0.36454 0.95841 0.92870
 C314 C 0.39264 0.93863 0.93514
 C315 C 0.39275 0.90544 0.92504
 C316 C 0.36498 0.89216 0.90912
 H317 H 0.19299 0.81761 0.89259
 H318 H 0.24465 0.83585 0.91848
 H319 H 0.27794 0.87562 0.82553
 H320 H 0.22724 0.85577 0.79903
 H321 H 0.30602 0.85402 0.90993
 H322 H 0.29493 0.91583 0.86788
 H323 H 0.31601 0.96123 0.90687
 H324 H 0.36401 0.98418 0.93593
 H325 H 0.41419 0.88976 0.92968
 H326 H 0.36562 0.86654 0.90143
 C327 C 0.75845 0.83590 1.19640
 C328 C 0.72875 0.84898 1.18381
 C329 C 0.72526 0.85510 1.14992
 C330 C 0.75179 0.84690 1.12870
 C331 C 0.78145 0.83398 1.14128
 C332 C 0.78517 0.82843 1.17526
 C333 C 0.69369 0.86965 1.13742
 C334 C 0.69239 0.88783 1.10976
 C335 C 0.66180 0.90350 1.09635
 C336 C 0.66563 0.92845 1.07265
 C337 C 0.63799 0.94343 1.05816
 C338 C 0.60556 0.93375 1.06685
 C339 C 0.60153 0.90881 1.09069
 C340 C 0.62938 0.89372 1.10527
 H341 H 0.76057 0.83146 1.22264
 H342 H 0.70858 0.85470 1.20064
 H343 H 0.74972 0.85005 1.10230
 H344 H 0.80163 0.82840 1.12446
 H345 H 0.67164 0.86678 1.15246
 H346 H 0.71530 0.89295 1.09669
 H347 H 0.69023 0.93640 1.06518
 H348 H 0.64220 0.96255 1.03993
 H349 H 0.57690 0.90067 1.09779
 H350 H 0.62530 0.87404 1.12286
 C351 C 0.79949 1.12757 0.84166
 C352 C 0.77471 1.11062 0.85886
 C353 C 0.74510 1.12675 0.86795
 C354 C 0.74127 1.16061 0.86053
 C355 C 0.76605 1.17750 0.84331
 C356 C 0.79517 1.16104 0.83341
 C357 C 0.71903 1.10770 0.88540
 C358 C 0.68665 1.11578 0.88393
 C359 C 0.65979 1.09685 0.90031
 C360 C 0.62699 1.10199 0.88960
 C361 C 0.60054 1.08577 0.90482
 C362 C 0.60624 1.06404 0.93132
 C363 C 0.63911 1.05867 0.94202
 C364 C 0.66563 1.07500 0.92680
 H365 H 0.82206 1.11461 0.83466
 H366 H 0.77847 1.08471 0.86466
 H367 H 0.71939 1.17426 0.86822
 H368 H 0.76247 1.20341 0.83744
 H369 H 0.72676 1.08535 0.89798
 H370 H 0.67897 1.13645 0.86869
 H371 H 0.62174 1.11877 0.86939
 H372 H 0.57557 1.09052 0.89590
 H373 H 0.64433 1.04232 0.96258
 H374 H 0.69039 1.07099 0.93646
 C375 C 0.16874 0.24970 0.19582
 C376 C 0.15419 0.27797 0.18201
 C377 C 0.14660 0.27921 0.14826
 C378 C 0.15481 0.25188 0.12835
 C379 C 0.16927 0.22363 0.14218
 C380 C 0.17624 0.22218 0.17606
 C381 C 0.13075 0.30948 0.13463
 C382 C 0.11213 0.30937 0.10720
 C383 C 0.09546 0.33910 0.09338
 C384 C 0.06907 0.33455 0.07127
 C385 C 0.05291 0.36164 0.05702
 C386 C 0.06293 0.39405 0.06438
 C387 C 0.08952 0.39869 0.08637
 C388 C 0.10572 0.37152 0.10064
 H389 H 0.17423 0.24926 0.22194
 H390 H 0.14849 0.29881 0.19782
 H391 H 0.15050 0.25223 0.10205
 H392 H 0.17483 0.20273 0.12643
 H393 H 0.13310 0.33197 0.14881
 H394 H 0.10734 0.28615 0.09492
 H395 H 0.06082 0.30989 0.06502
 H396 H 0.03261 0.35707 0.04011
 H397 H 0.09808 0.42331 0.09232
 H398 H 0.12661 0.37614 0.11674
 C399 C -0.16057 0.23604 -0.19416
 C400 C -0.14923 0.26629 -0.18183
 C401 C -0.14466 0.27079 -0.14780
 C402 C -0.15265 0.24463 -0.12629
 C403 C -0.16361 0.21443 -0.13861
 C404 C -0.16756 0.20968 -0.17266
 C405 C -0.13191 0.30293 -0.13547
 C406 C -0.11578 0.30559 -0.10664
 C407 C -0.10162 0.33658 -0.09316
 C408 C -0.07942 0.33370 -0.06667
 C409 C -0.06526 0.36162 -0.05254
 C410 C -0.07297 0.39344 -0.06441
 C411 C -0.09561 0.39658 -0.09067
 C412 C -0.10988 0.36841 -0.10493
 H413 H -0.16404 0.23323 -0.22046
 H414 H -0.14374 0.28614 -0.19892
 H415 H -0.15093 0.24734 -0.09984
 H416 H -0.16906 0.19464 -0.12145
 H417 H -0.13441 0.32424 -0.15144
 H418 H -0.11105 0.28342 -0.09241
 H419 H -0.07277 0.30962 -0.05686
 H420 H -0.04810 0.35809 -0.03224
 H421 H -0.10219 0.42074 -0.10028
 H422 H -0.12748 0.37183 -0.12479
 C423 C 0.12327 0.79753 -0.15390
 C424 C 0.10621 0.77042 -0.14103
 C425 C 0.12317 0.74093 -0.13345
 C426 C 0.15779 0.73922 -0.13892
 C427 C 0.17481 0.76638 -0.15188
 C428 C 0.15775 0.79584 -0.15923
 C429 C 0.10411 0.71341 -0.11844
 C430 C 0.11460 0.68185 -0.11796
 C431 C 0.09577 0.65474 -0.10191
 C432 C 0.10228 0.62201 -0.11147
 C433 C 0.08590 0.59566 -0.09624
 C434 C 0.06273 0.60148 -0.07089
 C435 C 0.05625 0.63427 -0.06126
 C436 C 0.07267 0.66058 -0.07643
 H437 H 0.10967 0.82009 -0.15925
 H438 H 0.07965 0.77255 -0.13683
 H439 H 0.17204 0.71738 -0.13259
 H440 H 0.20140 0.76457 -0.15593
 H441 H 0.07992 0.71953 -0.10835
 H442 H 0.13728 0.67509 -0.13071
 H443 H 0.12017 0.61678 -0.13079
 H444 H 0.09158 0.57072 -0.10421
 H445 H 0.03882 0.63967 -0.04159
 H446 H 0.06773 0.68527 -0.06746
 C447 C -0.13135 0.79213 0.16607
 C448 C -0.11400 0.76795 0.14836
 C449 C -0.13088 0.74104 0.13455
 C450 C -0.16573 0.73930 0.13804
 C451 C -0.18303 0.76345 0.15577
 C452 C -0.16602 0.79002 0.17005
 C453 C -0.11157 0.71556 0.11643
 C454 C -0.12174 0.68415 0.11395
 C455 C -0.10268 0.65761 0.09718
 C456 C -0.11014 0.62477 0.10524
 C457 C -0.09378 0.59867 0.08967
 C458 C -0.06962 0.60470 0.06531
 C459 C -0.06204 0.63762 0.05712
 C460 C -0.07845 0.66387 0.07284
 H461 H -0.11778 0.81266 0.17649
 H462 H -0.08726 0.77007 0.14573
 H463 H -0.17983 0.71961 0.12680
 H464 H -0.20977 0.76143 0.15841
 H465 H -0.08746 0.72253 0.10683
 H466 H -0.14439 0.67679 0.12639
 H467 H -0.12878 0.61923 0.12373
 H468 H -0.10037 0.57369 0.09663
 H469 H -0.04371 0.64312 0.03832
 H470 H -0.07260 0.68883 0.06531
 C471 C 1.12597 0.16506 0.79201
 C472 C 1.11006 0.14932 0.76581
 C473 C 1.12844 0.13147 0.74239
 C474 C 1.16318 0.12913 0.74604
 C475 C 1.17914 0.14476 0.77227
 C476 C 1.16087 0.16306 0.79580
 C477 C 1.11048 0.11485 0.71520
 C478 C 1.12462 0.10779 0.68608
 C479 C 1.10657 0.09191 0.65853
 C480 C 1.11789 0.09719 0.62625
 C481 C 1.10177 0.08263 0.59953
 C482 C 1.07410 0.06205 0.60452
 C483 C 1.06308 0.05626 0.63693
 C484 C 1.07915 0.07099 0.66367
 H485 H 1.11080 0.17804 0.80992
 H486 H 1.08322 0.15113 0.76382
 H487 H 1.17816 0.11482 0.72904
 H488 H 1.20599 0.14287 0.77392
 H489 H 1.08425 0.11001 0.71884
 H490 H 1.14990 0.11560 0.68130
 H491 H 1.13916 0.11291 0.62166
 H492 H 1.11110 0.08747 0.57495
 H493 H 1.04204 0.04031 0.64169
 H494 H 1.07035 0.06545 0.68826
 C495 C 0.83186 -0.13417 0.78547
 C496 C 0.84905 -0.11588 0.76171
 C497 C 0.86289 -0.13149 0.73400
 C498 C 0.85993 -0.16605 0.73100
 C499 C 0.84280 -0.18433 0.75482
 C500 C 0.82848 -0.16857 0.78220
 C501 C 0.88076 -0.11118 0.70919
 C502 C 0.88328 -0.11995 0.67742
 C503 C 0.90028 -0.09996 0.65178
 C504 C 0.89235 -0.10592 0.61868
 C505 C 0.90849 -0.08891 0.59341
 C506 C 0.93331 -0.06560 0.60053
 C507 C 0.94122 -0.05939 0.63372
 C508 C 0.92493 -0.07643 0.65911
 H509 H 0.82140 -0.12154 0.80662
 H510 H 0.85129 -0.08938 0.76482
 H511 H 0.87119 -0.17918 0.71061
 H512 H 0.84062 -0.21083 0.75189
 H513 H 0.89027 -0.08751 0.71712
 H514 H 0.87093 -0.14217 0.66917
 H515 H 0.87362 -0.12398 0.61229
 H516 H 0.90172 -0.09444 0.56819
 H517 H 0.96037 -0.04178 0.64008
 H518 H 0.93239 -0.07170 0.68425
 C519 C 1.14431 -0.19107 0.22771
 C520 C 1.12809 -0.17811 0.25531
 C521 C 1.13290 -0.14514 0.26453
 C522 C 1.15400 -0.12511 0.24549
 C523 C 1.16957 -0.13783 0.21734
 C524 C 1.16487 -0.17098 0.20802
 C525 C 1.11428 -0.13174 0.29296
 C526 C 1.12776 -0.11049 0.31430
 C527 C 1.10891 -0.09716 0.34263
 C528 C 1.12508 -0.09280 0.37291
 C529 C 1.10795 -0.07944 0.39983
 C530 C 1.07464 -0.06923 0.39657
 C531 C 1.05853 -0.07330 0.36614
 C532 C 1.07540 -0.08745 0.33948
 H533 H 1.14043 -0.21677 0.22150
 H534 H 1.11185 -0.19393 0.26962
 H535 H 1.15756 -0.09935 0.25171
 H536 H 1.18470 -0.12151 0.20246
 H537 H 1.08937 -0.14095 0.29735
 H538 H 1.15379 -0.10397 0.31196
 H539 H 1.15096 -0.09990 0.37575
 H540 H 1.12102 -0.07621 0.42293
 H541 H 1.03288 -0.06552 0.36300
 H542 H 1.06254 -0.08997 0.31619
 C543 C 0.81091 0.16238 0.24361
 C544 C 0.82547 0.14992 0.27238
 C545 C 0.86011 0.14574 0.27459
 C546 C 0.88004 0.15524 0.24764
 C547 C 0.86546 0.16760 0.21887
 C548 C 0.83075 0.17113 0.21646
 C549 C 0.87444 0.13181 0.30537
 C550 C 0.90405 0.11634 0.30647
 C551 C 0.91798 0.10071 0.33659
 C552 C 0.94248 0.07617 0.33286
 C553 C 0.95628 0.06048 0.36033
 C554 C 0.94610 0.06915 0.39236
 C555 C 0.92201 0.09419 0.39620
 C556 C 0.90814 0.10989 0.36863
 H557 H 0.78413 0.16527 0.24253
 H558 H 0.80956 0.14317 0.29287
 H559 H 0.90688 0.15354 0.24867
 H560 H 0.88132 0.17421 0.19832
 H561 H 0.85897 0.13256 0.32720
 H562 H 0.91803 0.11295 0.28391
 H563 H 0.95077 0.06882 0.30852
 H564 H 0.97490 0.04143 0.35636
 H565 H 0.91383 0.10169 0.42052
 H566 H 0.89012 0.12943 0.37265
 C567 C 0.15266 0.23259 -0.18796
 C568 C 0.14049 0.26271 -0.17599
 C569 C 0.14015 0.26924 -0.14207
 C570 C 0.15340 0.24546 -0.12035
 C571 C 0.16554 0.21536 -0.13222
 C572 C 0.16520 0.20816 -0.16627
 C573 C 0.12590 0.30097 -0.13019
 C574 C 0.11217 0.30417 -0.10021
 C575 C 0.09592 0.33480 -0.08811
 C576 C 0.07282 0.33202 -0.06236
 C577 C 0.05691 0.35996 -0.04974
 C578 C 0.06395 0.39159 -0.06234
 C579 C 0.08744 0.39455 -0.08787
 C580 C 0.10331 0.36643 -0.10067
 H581 H 0.15272 0.22857 -0.21434
 H582 H 0.13087 0.28082 -0.19329
 H583 H 0.15460 0.24997 -0.09411
 H584 H 0.17447 0.19729 -0.11455
 H585 H 0.12464 0.32132 -0.14751
 H586 H 0.11069 0.28271 -0.08429
 H587 H 0.06687 0.30804 -0.05203
 H588 H 0.03918 0.35668 -0.02989
 H589 H 0.09360 0.41857 -0.09795
 H590 H 0.12167 0.36968 -0.11990
 C591 C -0.16556 0.20696 0.13339
 C592 C -0.15035 0.23209 0.11524
 C593 C -0.13800 0.26030 0.13104
 C594 C -0.14040 0.26250 0.16561
 C595 C -0.15556 0.23731 0.18376
 C596 C -0.16840 0.20939 0.16780
 C597 C -0.12205 0.28637 0.11084
 C598 C -0.12066 0.31811 0.12018
 C599 C -0.10503 0.34454 0.10017
 C600 C -0.11422 0.37747 0.10628
 C601 C -0.09932 0.40334 0.08898
 C602 C -0.07460 0.39690 0.06527
 C603 C -0.06543 0.36389 0.05901
 C604 C -0.08038 0.33799 0.07634
 H605 H -0.17495 0.18546 0.12064
 H606 H -0.14847 0.22961 0.08872
 H607 H -0.13020 0.28331 0.17882
 H608 H -0.15741 0.23960 0.21028
 H609 H -0.11285 0.27926 0.08678
 H610 H -0.13277 0.32561 0.14283
 H611 H -0.13297 0.38323 0.12464
 H612 H -0.10694 0.42844 0.09453
 H613 H -0.04627 0.35805 0.04112
 H614 H -0.07185 0.31306 0.07155
 C615 C -0.19577 0.75489 -0.17337
 C616 C -0.18230 0.72566 -0.16045
 C617 C -0.14800 0.72280 -0.15438
 C618 C -0.12724 0.74955 -0.16263
 C619 C -0.14073 0.77879 -0.17544
 C620 C -0.17516 0.78190 -0.18072
 C621 C -0.13485 0.69165 -0.13970
 C622 C -0.10634 0.69020 -0.12251
 C623 C -0.09332 0.65997 -0.10599
 C624 C -0.06916 0.66383 -0.08139
 C625 C -0.05582 0.63644 -0.06505
 C626 C -0.06615 0.60425 -0.07299
 C627 C -0.09008 0.60020 -0.09793
 C628 C -0.10350 0.62775 -0.11434
 H629 H -0.22233 0.75649 -0.17762
 H630 H -0.19882 0.70535 -0.15472
 H631 H -0.10055 0.74805 -0.15953
 H632 H -0.12427 0.79919 -0.18094
 H633 H -0.15038 0.66996 -0.14141
 H634 H -0.09249 0.71271 -0.11850
 H635 H -0.06063 0.68826 -0.07460
 H636 H -0.03732 0.64063 -0.04613
 H637 H -0.09839 0.57576 -0.10485
 H638 H -0.12137 0.62354 -0.13377
 C639 C 0.12846 0.79514 0.15181
 C640 C 0.11135 0.77043 0.13491
 C641 C 0.12770 0.74120 0.12541
 C642 C 0.16198 0.73779 0.13199
 C643 C 0.17908 0.76255 0.14887
 C644 C 0.16235 0.79118 0.15937
 C645 C 0.10834 0.71513 0.10850
 C646 C 0.11671 0.68298 0.10970
 C647 C 0.09709 0.65624 0.09412
 C648 C 0.10213 0.62368 0.10509
 C649 C 0.08500 0.59745 0.09072
 C650 C 0.06247 0.60313 0.06480
 C651 C 0.05732 0.63575 0.05378
 C652 C 0.07453 0.66203 0.06816
 H653 H 0.11526 0.81731 0.15926
 H654 H 0.08511 0.77390 0.12974
 H655 H 0.17577 0.71621 0.12399
 H656 H 0.20529 0.75924 0.15419
 H657 H 0.08539 0.72263 0.09667
 H658 H 0.13804 0.67543 0.12422
 H659 H 0.11947 0.61846 0.12489
 H660 H 0.08967 0.57267 0.09981
 H661 H 0.04041 0.64099 0.03364
 H662 H 0.07057 0.68657 0.05828
 C663 C 0.20411 1.12789 0.84126
 C664 C 0.23077 1.11233 0.85712
 C665 C 0.25761 1.13075 0.86912
 C666 C 0.25704 1.16533 0.86529
 C667 C 0.23039 1.18096 0.84943
 C668 C 0.20333 1.16257 0.83715
 C669 C 0.28497 1.11310 0.88639
 C670 C 0.31572 1.12539 0.88988
 C671 C 0.34309 1.10731 0.90667
 C672 C 0.37609 1.11524 0.89868
 C673 C 0.40264 1.09868 0.91375
 C674 C 0.39678 1.07396 0.93743
 C675 C 0.36371 1.06651 0.94599
 C676 C 0.33716 1.08305 0.93087
 H677 H 0.18354 1.11281 0.83303
 H678 H 0.23036 1.08571 0.86010
 H679 H 0.27675 1.18059 0.87496
 H680 H 0.23112 1.20756 0.84643
 H681 H 0.27979 1.08832 0.89506
 H682 H 0.32189 1.14878 0.87849
 H683 H 0.38135 1.13407 0.88040
 H684 H 0.42777 1.10520 0.90668
 H685 H 0.35827 1.04788 0.96440
 H686 H 0.31214 1.07704 0.93861
 C687 C 0.23791 0.83395 1.18719
 C688 C 0.26792 0.84668 1.17519
 C689 C 0.27161 0.85440 1.14162
 C690 C 0.24498 0.84791 1.12005
 C691 C 0.21503 0.83530 1.13206
 C692 C 0.21101 0.82854 1.16579
 C693 C 0.30344 0.86881 1.12984
 C694 C 0.30523 0.88822 1.10302
 C695 C 0.33613 0.90404 1.09072
 C696 C 0.33285 0.93043 1.06847
 C697 C 0.36085 0.94581 1.05526
 C698 C 0.39308 0.93507 1.06377
 C699 C 0.39652 0.90858 1.08605
 C700 C 0.36834 0.89314 1.09936
 H701 H 0.23559 0.82836 1.21320
 H702 H 0.28816 0.85097 1.19225
 H703 H 0.24718 0.85223 1.09383
 H704 H 0.19477 0.83106 1.11503
 H705 H 0.32533 0.86484 1.14488
 H706 H 0.28252 0.89437 1.09000
 H707 H 0.30842 0.93927 1.06121
 H708 H 0.35710 0.96609 1.03816
 H709 H 0.42096 0.89954 1.09296
 H710 H 0.37202 0.87236 1.11578
 C711 C 0.75968 1.18975 1.16215
 C712 C 0.73069 1.17605 1.14917
 C713 C 0.72676 1.14163 1.14776
 C714 C 0.75198 1.12111 1.16075
 C715 C 0.78094 1.13486 1.17384
 C716 C 0.78518 1.16928 1.17436
 C717 C 0.69602 1.12816 1.13288
 C718 C 0.69471 1.09831 1.11860
 C719 C 0.66463 1.08547 1.10194
 C720 C 0.66857 1.06130 1.07749
 C721 C 0.64096 1.04860 1.06100
 C722 C 0.60864 1.05958 1.06885
 C723 C 0.60462 1.08341 1.09374
 C724 C 0.63228 1.09618 1.11018
 H725 H 0.76234 1.21638 1.16262
 H726 H 0.71150 1.19239 1.13967
 H727 H 0.74940 1.09451 1.16108
 H728 H 0.80029 1.11864 1.18317
 H729 H 0.67461 1.14446 1.13164
 H730 H 0.71711 1.08340 1.11702
 H731 H 0.69317 1.05240 1.07088
 H732 H 0.64501 1.03012 1.04212
 H733 H 0.58008 1.09216 1.10065
 H734 H 0.62811 1.11397 1.12963
 C735 C 0.75574 0.83916 0.79935
 C736 C 0.72639 0.85253 0.81239
 C737 C 0.72080 0.85261 0.84654
 C738 C 0.74468 0.83782 0.86736
 C739 C 0.77397 0.82441 0.85430
 C740 C 0.77995 0.82522 0.82021
 C741 C 0.68997 0.86819 0.85960
 C742 C 0.68845 0.88186 0.88967
 C743 C 0.65877 0.89925 0.90303
 C744 C 0.66349 0.92168 0.92888
 C745 C 0.63650 0.93817 0.94304
 C746 C 0.60387 0.93243 0.93195
 C747 C 0.59900 0.90988 0.90608
 C748 C 0.62617 0.89341 0.89174
 H749 H 0.75968 0.83975 0.77295
 H750 H 0.70826 0.86342 0.79579
 H751 H 0.74079 0.83637 0.89371
 H752 H 0.79225 0.81376 0.87087
 H753 H 0.66896 0.87046 0.84306
 H754 H 0.71067 0.88221 0.90474
 H755 H 0.68825 0.92652 0.93820
 H756 H 0.64131 0.95522 0.96301
 H757 H 0.57419 0.90471 0.89710
 H758 H 0.62141 0.87567 0.87242
   
