data_POSCAR
  _audit_creation_date              2014-09-24
  _audit_creation_method            'ToBaCCo'
  _symmetry_space_group_name_H-M    'P1'
  _symmetry_Int_Tables_number       1
  _symmetry_cell_setting            triclinic
  loop_
  _symmetry_equiv_pos_as_xyz
 x,y,z
_cell_length_a 23.2147
_cell_length_b 23.2900
_cell_length_c 23.2319
_cell_angle_alpha 83.123900
_cell_angle_beta 82.207700
_cell_angle_gamma 93.213800
loop_
  _atom_site_label
  _atom_site_type_symbol
  _atom_site_fract_x
  _atom_site_fract_y
  _atom_site_fract_z
O1 O 0.57018 0.50022 0.04352
 O2 O 0.41278 0.47402 0.03988
 O3 O 0.50121 0.41014 0.03709
 O4 O 0.48226 0.56485 0.04625
 O5 O 0.50301 0.58340 -0.05005
 O6 O 0.50981 0.42711 -0.05945
 O7 O 0.42714 0.49921 -0.05563
 O8 O 0.58558 0.51224 -0.05332
 Cu9 Cu 0.48995 0.48555 0.05142
 Cu10 Cu 0.50788 0.50717 -0.06435
 C11 C 0.60467 0.50964 -0.00446
 C12 C 0.39270 0.48286 -0.00839
 C13 C 0.50822 0.39226 -0.01274
 C14 C 0.49013 0.60060 -0.00038
 O15 O -0.05447 0.56982 0.51019
 O16 O -0.04112 0.41331 0.50819
 O17 O -0.04134 0.48336 0.58643
 O18 O -0.05960 0.49811 0.43074
 O19 O 0.03582 0.51396 0.40594
 O20 O 0.05393 0.50063 0.56227
 O21 O 0.05425 0.42950 0.48328
 O22 O 0.04014 0.58581 0.48300
 Cu23 Cu -0.05878 0.48976 0.51098
 Cu24 Cu 0.05557 0.50921 0.48111
 C25 C -0.00916 0.60467 0.49838
 C26 C 0.00886 0.39489 0.49521
 C27 C 0.00918 0.48918 0.60100
 C28 C -0.01493 0.50739 0.39192
 O29 O 0.49752 0.04959 0.56424
 O30 O 0.50619 0.03730 0.40698
 O31 O 0.42353 0.04199 0.49179
 O32 O 0.58330 0.04487 0.47814
 O33 O 0.57793 -0.05085 0.49397
 O34 O 0.41797 -0.05304 0.51706
 O35 O 0.49646 -0.05820 0.42725
 O36 O 0.49954 -0.04522 0.58295
 Cu37 Cu 0.50381 0.05318 0.48337
 Cu38 Cu 0.49760 -0.06146 0.50723
 C39 C 0.49657 0.00421 0.60069
 C40 C 0.50051 -0.01255 0.39068
 C41 C 0.39370 -0.00600 0.50742
 C42 C 0.60782 -0.00254 0.48267
 C43 C 0.54006 0.14814 -0.12274
 C44 C 0.53542 0.10874 -0.16180
 C45 C 0.51070 0.05734 -0.12924
 N46 N 0.50034 0.06394 -0.07191
 C47 C 0.51839 0.11922 -0.06777
 C48 C 0.49285 0.00699 -0.15247
 C49 C 0.47678 -0.04673 -0.11688
 C50 C 0.44864 -0.09444 -0.13444
 C51 C 0.44764 -0.13970 -0.09037
 C52 C 0.47451 -0.11819 -0.04684
 N53 N 0.49203 -0.06154 -0.06323
 C54 C 0.48619 -0.15178 0.00442
 C55 C 0.49886 -0.12700 0.05413
 C56 C 0.51493 -0.15703 0.10394
 C57 C 0.51803 -0.11781 0.14338
 C58 C 0.50386 -0.06531 0.11608
 N59 N 0.49184 -0.07115 0.06180
 C60 C 0.49712 -0.01432 0.14272
 C61 C 0.49002 0.03992 0.11105
 C62 C 0.47142 0.08803 0.13613
 C63 C 0.47524 0.13305 0.09137
 C64 C 0.49609 0.11117 0.04021
 N65 N 0.50495 0.05438 0.05259
 C66 C 0.51112 0.14458 -0.01533
 H67 H 0.55681 0.19300 -0.13356
 H68 H 0.54767 0.11726 -0.20882
 H69 H 0.52687 0.02908 0.02404
 H70 H 0.43179 -0.09679 -0.17538
 H71 H 0.42979 -0.18361 -0.09058
 H72 H 0.52246 -0.20259 0.11145
 H73 H 0.52848 -0.12705 0.18740
 H74 H 0.46484 0.17712 0.09609
 H75 H 0.51966 -0.03679 -0.04258
 H76 H 0.45741 0.09066 0.18206
 C77 C -0.08384 0.53675 0.84547
 C78 C -0.12911 0.54415 0.88777
 C79 C -0.11036 0.52888 0.94131
 N80 N -0.05529 0.51238 0.93316
 C81 C -0.03896 0.51722 0.87462
 C82 C -0.14583 0.52504 0.99624
 C83 C -0.12368 0.51654 1.05026
 C84 C -0.15770 0.50279 1.10455
 C85 C -0.12034 0.50105 1.14577
 C86 C -0.06432 0.51294 1.11557
 N87 N -0.06689 0.52336 1.05743
 C88 C -0.01296 0.51612 1.14215
 C89 C 0.04387 0.51844 1.11059
 C90 C 0.09497 0.52915 1.13354
 C91 C 0.14010 0.52289 1.09067
 C92 C 0.11521 0.50728 1.04333
 N93 N 0.05641 0.50467 1.05559
 C94 C 0.14647 0.49011 0.99233
 C95 C 0.12015 0.48038 0.94254
 C96 C 0.14510 0.45246 0.89687
 C97 C 0.10764 0.45516 0.85567
 C98 C 0.06079 0.48448 0.87740
 N99 N 0.06889 0.49999 0.93017
 C100 C 0.01354 0.49855 0.84727
 H101 H -0.08435 0.54369 0.79863
 H102 H -0.17140 0.55813 0.88003
 H103 H 0.04418 0.52789 0.95325
 H104 H -0.20466 0.49528 1.11368
 H105 H -0.13322 0.49205 1.19266
 H106 H 0.09956 0.53958 1.17689
 H107 H 0.18598 0.52763 1.09463
 H108 H 0.11426 0.43771 0.81433
 H109 H -0.03252 0.53957 1.02512
 H110 H 0.18620 0.43247 0.89343
 C111 C 0.13089 -0.11117 0.54174
 C112 C 0.08736 -0.15223 0.53791
 C113 C 0.04306 -0.12273 0.51612
 N114 N 0.05786 -0.06510 0.50722
 C115 C 0.11129 -0.05786 0.52329
 C116 C -0.00787 -0.14929 0.50056
 C117 C -0.05352 -0.11753 0.48172
 C118 C -0.09791 -0.13993 0.45465
 C119 C -0.13627 -0.09743 0.44862
 C120 C -0.11407 -0.05022 0.47192
 N121 N -0.06373 -0.06284 0.49208
 C122 C -0.14271 0.00105 0.47814
 C123 C -0.11454 0.05309 0.48923
 C124 C -0.14210 0.10302 0.49896
 C125 C -0.09923 0.14450 0.50340
 C126 C -0.04693 0.11829 0.49729
 N127 N -0.05638 0.06263 0.48787
 C128 C 0.00854 0.14678 0.49701
 C129 C 0.06060 0.11792 0.49761
 C130 C 0.11618 0.14553 0.48918
 C131 C 0.15443 0.10296 0.49453
 C132 C 0.12130 0.05036 0.50652
 N133 N 0.06412 0.06000 0.50928
 C134 C 0.14437 -0.00422 0.51752
 H135 H 0.17232 -0.11974 0.55621
 H136 H 0.08873 -0.19856 0.54892
 H137 H 0.02940 0.02947 0.52388
 H138 H -0.10277 -0.18285 0.44169
 H139 H -0.17636 -0.10112 0.42994
 H140 H -0.18817 0.10930 0.50156
 H141 H -0.10604 0.18894 0.51003
 H142 H 0.20131 0.11019 0.49082
 H143 H -0.04210 -0.03866 0.51844
 H144 H 0.12818 0.19163 0.48046
 C145 C -0.23803 0.47706 0.97676
 C146 C -0.29794 0.47363 0.97592
 C147 C -0.33208 0.51655 0.99647
 C148 C -0.30517 0.56470 1.01700
 C149 C -0.24389 0.56883 1.01673
 C150 C -0.21025 0.52420 0.99695
 C151 C -0.21825 0.61809 1.03555
 N152 N -0.25205 0.65987 1.05397
 N153 N -0.30959 0.65586 1.05450
 C154 C -0.33730 0.60982 1.03656
 H155 H -0.21292 0.44266 0.96135
 H156 H -0.31796 0.43672 0.95982
 H157 H -0.17170 0.62392 1.03550
 H158 H -0.38401 0.60918 1.03730
 C159 C 0.24957 0.51714 0.94909
 C160 C 0.30937 0.51406 0.94788
 C161 C 0.33210 0.47713 0.99033
 C162 C 0.29257 0.43766 1.03095
 C163 C 0.23145 0.43973 1.03065
 C164 C 0.21000 0.48159 0.99098
 C165 C 0.19348 0.39881 1.06939
 N166 N 0.21520 0.35850 1.10589
 N167 N 0.27231 0.35572 1.10567
 C168 C 0.31162 0.39332 1.06929
 H169 H 0.23393 0.54862 0.91771
 H170 H 0.33796 0.54396 0.91563
 H171 H 0.14674 0.39785 1.07037
 H172 H 0.35711 0.38632 1.06951
 C173 C 0.02817 -0.23757 0.46270
 C174 C 0.02876 -0.29720 0.46354
 C175 C -0.01263 -0.33548 0.50146
 C176 C -0.05437 -0.31183 0.54163
 C177 C -0.05378 -0.25058 0.54128
 C178 C -0.01222 -0.21352 0.50134
 C179 C -0.09355 -0.22818 0.58265
 N180 N -0.13113 -0.26453 0.62207
 N181 N -0.13100 -0.32178 0.62361
 C182 C -0.09376 -0.34663 0.58551
 H183 H 0.06028 -0.20973 0.43206
 H184 H 0.06121 -0.31336 0.43262
 H185 H -0.09470 -0.18214 0.58469
 H186 H -0.09465 -0.39321 0.59194
 C187 C -0.00636 0.23495 0.54563
 C188 C -0.00677 0.29472 0.54499
 C189 C 0.01370 0.33232 0.49376
 C190 C 0.03502 0.30916 0.44192
 C191 C 0.03299 0.24820 0.44195
 C192 C 0.01240 0.21103 0.49445
 C193 C 0.05119 0.22636 0.38909
 N194 N 0.07138 0.26336 0.33998
 N195 N 0.07422 0.32060 0.34012
 C196 C 0.05677 0.34475 0.38929
 H197 H -0.02225 0.20695 0.58600
 H198 H -0.02318 0.31178 0.58489
 H199 H 0.04963 0.18028 0.38637
 H200 H 0.05946 0.39148 0.38639
 C201 C 0.52600 -0.02786 -0.24717
 C202 C 0.52526 -0.02998 -0.30650
 C203 C 0.49319 0.00795 -0.33904
 C204 C 0.45784 0.04662 -0.30928
 C205 C 0.45627 0.04622 -0.24773
 C206 C 0.49183 0.00958 -0.21690
 C207 C 0.41731 0.08098 -0.21850
 N208 N 0.38311 0.11465 -0.24889
 N209 N 0.38438 0.11519 -0.30635
 C210 C 0.41996 0.08218 -0.33742
 H211 H 0.55302 -0.05652 -0.22426
 H212 H 0.55224 -0.06013 -0.32768
 H213 H 0.41291 0.08112 -0.17163
 H214 H 0.41632 0.08302 -0.38325
 C215 C 0.54307 0.01056 0.22749
 C216 C 0.54373 0.01125 0.28718
 C217 C 0.49823 -0.01700 0.32831
 C218 C 0.45052 -0.04597 0.30880
 C219 C 0.44944 -0.04587 0.24788
 C220 C 0.49639 -0.01757 0.20713
 C221 C 0.40048 -0.07285 0.22969
 N222 N 0.35602 -0.09861 0.27004
 N223 N 0.35700 -0.09881 0.32723
 C224 C 0.40249 -0.07325 0.34798
 H225 H 0.57896 0.03278 0.19673
 H226 H 0.58017 0.03399 0.30142
 H227 H 0.39684 -0.07334 0.18385
 H228 H 0.40016 -0.07406 0.39481
 C229 C 0.53046 -0.23903 -0.02723
 C230 C 0.53109 -0.29853 -0.02875
 C231 C 0.48587 -0.33678 0.00283
 C232 C 0.43823 -0.31419 0.03575
 C233 C 0.43776 -0.25345 0.03733
 C234 C 0.48451 -0.21587 0.00573
 C235 C 0.38970 -0.23212 0.06955
 N236 N 0.34502 -0.26931 0.09793
 N237 N 0.34501 -0.32620 0.09589
 C238 C 0.38982 -0.34989 0.06563
 H239 H 0.56623 -0.21067 -0.05196
 H240 H 0.56766 -0.31498 -0.05432
 H241 H 0.38702 -0.18626 0.07207
 H242 H 0.38649 -0.39618 0.06458
 C243 C 0.47440 0.24049 -0.04436
 C244 C 0.47376 0.30021 -0.04373
 C245 C 0.51405 0.33001 -0.01622
 C246 C 0.55780 0.29950 0.00855
 C247 C 0.55909 0.23888 0.00697
 C248 C 0.51602 0.20903 -0.01841
 C249 C 0.60388 0.21008 0.03066
 N250 N 0.64420 0.24016 0.05464
 N251 N 0.64291 0.29704 0.05627
 C252 C 0.60125 0.32774 0.03400
 H253 H 0.44127 0.21831 -0.06401
 H254 H 0.44025 0.32305 -0.06308
 H255 H 0.60755 0.16410 0.02985
 H256 H 0.60299 0.37393 0.03584
 C257 C -0.24402 -0.03270 0.52062
 C258 C -0.30406 -0.03361 0.52162
 C259 C -0.32814 -0.00182 0.47687
 C260 C -0.29071 0.02960 0.42870
 C261 C -0.22941 0.02993 0.42740
 C262 C -0.20622 -0.00058 0.47446
 C263 C -0.19324 0.06043 0.37863
 N264 N -0.21716 0.08873 0.33428
 N265 N -0.27469 0.08829 0.33532
 C266 C -0.31225 0.05960 0.38083
 H267 H -0.22678 -0.05652 0.55668
 H268 H -0.33208 -0.05815 0.55852
 H269 H -0.14624 0.06165 0.37518
 H270 H -0.35840 0.05998 0.37865
 C271 C 0.24453 0.00151 0.46425
 C272 C 0.30470 0.00144 0.46178
 C273 C 0.32996 -0.00700 0.51318
 C274 C 0.29414 -0.01455 0.56829
 C275 C 0.23291 -0.01305 0.57084
 C276 C 0.20817 -0.00539 0.51825
 C277 C 0.19844 -0.01911 0.62611
 N278 N 0.22399 -0.02660 0.67539
 N279 N 0.28152 -0.02834 0.67301
 C280 C 0.31747 -0.02258 0.62119
 H281 H 0.22606 0.00757 0.42374
 H282 H 0.33178 0.00774 0.41938
 H283 H 0.15155 -0.01792 0.63052
 H284 H 0.36384 -0.02422 0.62180
 C285 C -0.00653 0.56296 1.23213
 C286 C -0.00656 0.56079 1.29237
 C287 C -0.02134 0.50868 1.32957
 C288 C -0.03688 0.45776 1.30570
 C289 C -0.03389 0.45932 1.24417
 C290 C -0.01876 0.51253 1.20721
 C291 C -0.04546 0.40714 1.22154
 N292 N -0.06094 0.35739 1.25844
 N293 N -0.06518 0.35621 1.31630
 C294 C -0.05369 0.40459 1.34117
 H295 H 0.00522 0.60386 1.20437
 H296 H 0.00555 0.59998 1.31010
 H297 H -0.04249 0.40542 1.17493
 H298 H -0.05736 0.40082 1.38834
 C299 C 0.05030 0.53091 0.74227
 C300 C 0.04954 0.52824 0.68274
 C301 C 0.01531 0.48460 0.66389
 C302 C -0.01564 0.44045 0.70598
 C303 C -0.01463 0.44313 0.76648
 C304 C 0.01724 0.48974 0.78452
 C305 C -0.04583 0.39892 0.80724
 N306 N -0.07559 0.35479 0.78833
 N307 N -0.07611 0.35187 0.73152
 C308 C -0.04711 0.39299 0.68977
 H309 H 0.07514 0.56655 0.75560
 H310 H 0.07364 0.56217 0.65123
 H311 H -0.04637 0.39873 0.85389
 H312 H -0.04829 0.38756 0.64445
   
