data_POSCAR
  _audit_creation_date              2014-09-24
  _audit_creation_method            'ToBaCCo'
  _symmetry_space_group_name_H-M    'P1'
  _symmetry_Int_Tables_number       1
  _symmetry_cell_setting            triclinic
  loop_
  _symmetry_equiv_pos_as_xyz
 x,y,z
_cell_length_a 30.1993
_cell_length_b 30.1786
_cell_length_c 30.1487
_cell_angle_alpha 79.518900
_cell_angle_beta 101.595600
_cell_angle_gamma 77.132500
loop_
  _atom_site_label
  _atom_site_type_symbol
  _atom_site_fract_x
  _atom_site_fract_y
  _atom_site_fract_z
O1 O 0.57998 0.48053 0.04274
 O2 O 0.45374 0.49299 0.03289
 O3 O 0.52370 0.42656 0.03302
 O4 O 0.50941 0.54716 0.04538
 O5 O 0.49440 0.57268 -0.03086
 O6 O 0.50931 0.45117 -0.04332
 O7 O 0.43900 0.51876 -0.04324
 O8 O 0.56466 0.50648 -0.03349
 Cu9 Cu 0.51836 0.48444 0.04617
 Cu10 Cu 0.50053 0.51472 -0.04536
 C11 C 0.59380 0.49184 0.00619
 C12 C 0.42473 0.50740 -0.00701
 C13 C 0.51794 0.41825 -0.00720
 C14 C 0.49951 0.58060 0.00960
 O15 O -0.02222 0.56834 0.48616
 O16 O -0.01990 0.44390 0.49554
 O17 O -0.01445 0.49740 0.55419
 O18 O -0.03036 0.51446 0.42747
 O19 O 0.04646 0.49698 0.43726
 O20 O 0.06243 0.47972 0.56446
 O21 O 0.05686 0.42591 0.50519
 O22 O 0.05453 0.54940 0.49641
 Cu23 Cu -0.02941 0.50795 0.48990
 Cu24 Cu 0.06274 0.48609 0.50192
 C25 C 0.01606 0.58015 0.49004
 C26 C 0.01889 0.41375 0.50126
 C27 C 0.02657 0.48604 0.58098
 C28 C 0.00527 0.50812 0.41070
 O29 O 0.48582 0.04475 0.55465
 O30 O 0.47326 0.03418 0.43359
 O31 O 0.41629 0.04448 0.48864
 O32 O 0.54200 0.03399 0.50044
 O33 O 0.55783 -0.04273 0.52395
 O34 O 0.43196 -0.03225 0.51210
 O35 O 0.48830 -0.04249 0.45721
 O36 O 0.50146 -0.03183 0.57866
 Cu37 Cu 0.47762 0.04704 0.49182
 Cu38 Cu 0.49636 -0.04503 0.52034
 C39 C 0.49570 0.00840 0.58752
 C40 C 0.47934 -0.00599 0.42473
 C41 C 0.40267 0.00788 0.49893
 C42 C 0.57143 -0.00607 0.51397
 C43 C 0.49461 -0.01584 0.02387
 C44 C 0.49911 0.01779 -0.01049
 C45 C 0.50210 0.00924 -0.05688
 C46 C 0.50083 0.06516 -0.00426
 C47 C 0.49348 -0.00864 0.07115
 C48 C 0.49087 -0.06219 0.01605
 C49 C 0.53768 -0.02717 -0.06154
 C50 C 0.54019 -0.03404 -0.10570
 C51 C 0.50754 -0.00422 -0.14586
 C52 C 0.47212 0.03223 -0.14094
 C53 C 0.46956 0.03897 -0.09691
 C54 C 0.53702 0.08339 -0.01588
 C55 C 0.53880 0.12823 -0.01149
 C56 C 0.50449 0.15565 0.00476
 C57 C 0.46806 0.13759 0.01614
 C58 C 0.46593 0.09291 0.01113
 C59 C 0.45722 -0.01849 0.09060
 C60 C 0.45575 -0.01278 0.13523
 C61 C 0.49047 0.00300 0.16127
 C62 C 0.52694 0.01264 0.14197
 C63 C 0.52875 0.00634 0.09748
 C64 C 0.45519 -0.06609 -0.01972
 C65 C 0.45258 -0.11009 -0.02668
 C66 C 0.48519 -0.15089 0.00246
 C67 C 0.52041 -0.14679 0.03861
 C68 C 0.52310 -0.10288 0.04539
 H69 H 0.56363 -0.04995 -0.03103
 H70 H 0.56816 -0.06206 -0.10853
 H71 H 0.44608 0.05533 -0.17120
 H72 H 0.44192 0.06726 -0.09396
 H73 H 0.56411 0.06270 -0.02813
 H74 H 0.56737 0.14127 -0.02020
 H75 H 0.43697 0.08009 0.01905
 H76 H 0.42981 -0.03033 0.07102
 H77 H 0.42712 -0.02017 0.14921
 H78 H 0.55450 0.02419 0.16167
 H79 H 0.55772 0.01296 0.08369
 H80 H 0.42940 -0.03508 -0.04213
 H81 H 0.42473 -0.11228 -0.05439
 H82 H 0.54636 -0.17757 0.06123
 H83 H 0.55078 -0.10055 0.07323
 H84 H 0.44083 0.15839 0.02813
 C85 C -0.00710 0.49379 0.97740
 C86 C 0.02641 0.50079 1.01074
 C87 C 0.07466 0.49735 1.00560
 C88 C 0.01835 0.50866 1.05603
 C89 C -0.05537 0.49744 0.98260
 C90 C 0.00130 0.48624 0.93217
 C91 C 0.10974 0.45537 1.02609
 C92 C 0.15668 0.45340 1.02745
 C93 C 0.16918 0.49342 1.00814
 C94 C 0.13377 0.53511 0.98650
 C95 C 0.08693 0.53719 0.98574
 C96 C 0.00720 0.47451 1.08689
 C97 C 0.00557 0.47947 1.13181
 C98 C 0.01634 0.51802 1.14703
 C99 C 0.02683 0.55247 1.11598
 C100 C 0.02762 0.54792 1.07084
 C101 C -0.08840 0.54124 0.96956
 C102 C -0.13515 0.54461 0.97038
 C103 C -0.14951 0.50419 0.98453
 C104 C -0.11599 0.46045 0.99866
 C105 C -0.06938 0.45709 0.99731
 C106 C 0.00786 0.52249 0.89987
 C107 C 0.01166 0.51686 0.85565
 C108 C 0.00747 0.47540 0.84247
 C109 C 0.00095 0.43910 0.87476
 C110 C -0.00182 0.44438 0.91934
 H111 H 0.10086 0.42455 1.04228
 H112 H 0.18334 0.42082 1.04415
 H113 H 0.14259 0.56658 0.97197
 H114 H 0.06048 0.57026 0.97111
 H115 H 0.00184 0.44301 1.07704
 H116 H -0.00185 0.45209 1.15543
 H117 H 0.03665 0.57454 1.04785
 H118 H -0.07812 0.57265 0.95782
 H119 H -0.16021 0.57877 0.95964
 H120 H -0.12619 0.42874 1.00926
 H121 H -0.04435 0.42296 1.00729
 H122 H 0.00838 0.55576 0.90824
 H123 H 0.01580 0.54563 0.83099
 H124 H -0.00243 0.40686 0.86526
 H125 H -0.00721 0.41606 0.94350
 H126 H 0.03511 0.58256 1.12695
 C127 C 0.00162 -0.01553 0.49602
 C128 C -0.03243 0.02142 0.49843
 C129 C -0.08050 0.01771 0.49891
 C130 C -0.02454 0.06798 0.50084
 C131 C 0.04996 -0.01253 0.49511
 C132 C -0.00725 -0.06189 0.49451
 C133 C -0.11866 0.04843 0.46434
 C134 C -0.16447 0.04867 0.46608
 C135 C -0.17308 0.01845 0.50272
 C136 C -0.13476 -0.01309 0.53688
 C137 C -0.08876 -0.01329 0.53511
 C138 C -0.00763 0.09318 0.46705
 C139 C -0.00438 0.13857 0.46830
 C140 C -0.01905 0.15977 0.50265
 C141 C -0.03544 0.13433 0.53657
 C142 C -0.03801 0.08893 0.53574
 C143 C 0.07718 0.00333 0.52923
 C144 C 0.12349 0.00315 0.52881
 C145 C 0.14364 -0.01418 0.49515
 C146 C 0.11650 -0.03011 0.46124
 C147 C 0.07009 -0.02907 0.46109
 C148 C 0.02233 -0.10181 0.52752
 C149 C 0.01736 -0.14618 0.52493
 C150 C -0.01730 -0.15168 0.48918
 C151 C -0.04767 -0.11165 0.45663
 C152 C -0.04242 -0.06710 0.45902
 H153 H -0.11290 0.07264 0.43622
 H154 H -0.19324 0.07276 0.43884
 H155 H -0.14038 -0.03645 0.56573
 H156 H -0.05968 -0.03669 0.56254
 H157 H 0.00195 0.07819 0.43917
 H158 H 0.00799 0.15773 0.44153
 H159 H -0.05127 0.07027 0.56207
 H160 H 0.06293 0.01500 0.55661
 H161 H 0.14408 0.01510 0.55559
 H162 H 0.13132 -0.04343 0.43486
 H163 H 0.04991 -0.04172 0.43460
 H164 H 0.04973 -0.09859 0.55509
 H165 H 0.04086 -0.17636 0.55083
 H166 H -0.07438 -0.11497 0.42847
 H167 H -0.06501 -0.03686 0.43260
 H168 H -0.04654 0.14976 0.56363
 C169 C -0.32133 0.46231 1.05005
 C170 C -0.35595 0.48881 1.00967
 C171 C -0.34239 0.51329 0.97265
 C172 C -0.29501 0.51156 0.97589
 C173 C -0.26038 0.48431 1.01637
 C174 C -0.27393 0.45983 1.05325
 C175 C -0.21288 0.48212 1.01923
 C176 C -0.19966 0.50735 0.98237
 C177 C -0.23453 0.53483 0.94263
 C178 C -0.28173 0.53677 0.93932
 H179 H -0.36877 0.53429 0.94151
 H180 H -0.24790 0.43888 1.08462
 H181 H -0.18625 0.46116 1.05021
 H182 H -0.30784 0.55789 0.90807
 H183 H -0.33088 0.44318 1.07905
 H184 H -0.22512 0.55411 0.91361
 C185 C 0.34400 0.52863 0.94518
 C186 C 0.37694 0.50989 0.98875
 C187 C 0.36125 0.49227 1.02762
 C188 C 0.31402 0.49239 1.02283
 C189 C 0.28143 0.51155 0.97896
 C190 C 0.29675 0.52977 0.94046
 C191 C 0.23415 0.51184 0.97427
 C192 C 0.21918 0.49241 1.01273
 C193 C 0.25197 0.47293 1.05606
 C194 C 0.29891 0.47316 1.06115
 H195 H 0.38589 0.47735 1.06147
 H196 H 0.27227 0.54451 0.90653
 H197 H 0.20911 0.52660 0.94064
 H198 H 0.32340 0.45822 1.09504
 H199 H 0.35461 0.54256 0.91448
 H200 H 0.24104 0.45826 1.08626
 C201 C 0.05931 -0.36073 0.49407
 C202 C 0.01641 -0.37296 0.48813
 C203 C -0.02540 -0.33756 0.48145
 C204 C -0.02410 -0.29127 0.48170
 C205 C 0.01943 -0.28014 0.48875
 C206 C 0.06076 -0.31496 0.49445
 C207 C 0.02111 -0.23445 0.49048
 C208 C -0.02016 -0.19932 0.48524
 C209 C -0.06349 -0.21028 0.47713
 C210 C -0.06544 -0.25592 0.47554
 H211 H -0.05888 -0.34594 0.47656
 H212 H 0.09438 -0.30690 0.49966
 H213 H 0.05464 -0.22616 0.49590
 H214 H -0.09921 -0.26366 0.46994
 H215 H 0.09220 -0.38670 0.49911
 H216 H -0.09572 -0.18376 0.47310
 C217 C 0.06045 0.33258 0.49944
 C218 C 0.01977 0.36428 0.50227
 C219 C -0.02043 0.34868 0.50461
 C220 C -0.02010 0.30222 0.50394
 C221 C 0.02077 0.27085 0.50038
 C222 C 0.06089 0.28638 0.49832
 C223 C 0.02084 0.22450 0.49917
 C224 C -0.01917 0.20892 0.50241
 C225 C -0.05945 0.24032 0.50626
 C226 C -0.06003 0.28661 0.50677
 H227 H -0.05198 0.37265 0.50697
 H228 H 0.09259 0.26283 0.49574
 H229 H 0.05217 0.20032 0.49662
 H230 H -0.09165 0.31013 0.50952
 H231 H 0.09186 0.34367 0.49741
 H232 H -0.09075 0.22906 0.50847
 C233 C 0.49268 0.05753 -0.35655
 C234 C 0.49952 0.01294 -0.36639
 C235 C 0.50912 -0.02667 -0.32934
 C236 C 0.51062 -0.02166 -0.28371
 C237 C 0.50283 0.02341 -0.27474
 C238 C 0.49439 0.06266 -0.31125
 C239 C 0.50292 0.02864 -0.22952
 C240 C 0.51028 -0.01055 -0.19293
 C241 C 0.51892 -0.05536 -0.20193
 C242 C 0.51910 -0.06088 -0.24695
 H243 H 0.51468 -0.06139 -0.33592
 H244 H 0.48851 0.09744 -0.30488
 H245 H 0.49705 0.06330 -0.22280
 H246 H 0.52518 -0.09574 -0.25314
 H247 H 0.48546 0.08881 -0.38396
 H248 H 0.52438 -0.08604 -0.17435
 C249 C 0.47110 -0.05135 0.36323
 C250 C 0.47734 -0.01038 0.37640
 C251 C 0.48386 0.02563 0.34365
 C252 C 0.48511 0.02042 0.29859
 C253 C 0.47864 -0.02088 0.28566
 C254 C 0.47137 -0.05641 0.31813
 C255 C 0.48013 -0.02620 0.24068
 C256 C 0.48874 0.00891 0.20862
 C257 C 0.49552 0.04965 0.22192
 C258 C 0.49345 0.05550 0.26644
 H259 H 0.48927 0.05716 0.35359
 H260 H 0.46645 -0.08833 0.30883
 H261 H 0.47544 -0.05799 0.23085
 H262 H 0.49859 0.08733 0.27580
 H263 H 0.46602 -0.07954 0.38787
 H264 H 0.50182 0.07726 0.19758
 C265 C 0.50102 -0.36234 0.06018
 C266 C 0.49483 -0.37104 0.01537
 C267 C 0.48556 -0.33347 -0.02350
 C268 C 0.48355 -0.28805 -0.01757
 C269 C 0.49067 -0.28001 0.02774
 C270 C 0.49890 -0.31726 0.06630
 C271 C 0.49014 -0.23500 0.03388
 C272 C 0.48289 -0.19773 -0.00465
 C273 C 0.47493 -0.20583 -0.04968
 C274 C 0.47526 -0.25062 -0.05609
 H275 H 0.48064 -0.33962 -0.05826
 H276 H 0.50429 -0.31165 0.10126
 H277 H 0.49556 -0.22898 0.06870
 H278 H 0.46970 -0.25611 -0.09110
 H279 H 0.50807 -0.39053 0.09072
 H280 H 0.46962 -0.17774 -0.07986
 C281 C 0.52471 0.35656 -0.05301
 C282 C 0.51952 0.37003 -0.01172
 C283 C 0.51343 0.33765 0.02492
 C284 C 0.51162 0.29273 0.02017
 C285 C 0.51707 0.27939 -0.02140
 C286 C 0.52388 0.31146 -0.05768
 C287 C 0.51503 0.23444 -0.02614
 C288 C 0.50681 0.20298 0.00984
 C289 C 0.50107 0.21677 0.05082
 C290 C 0.50373 0.26118 0.05608
 H291 H 0.50877 0.34781 0.05673
 H292 H 0.52799 0.30186 -0.08984
 H293 H 0.51897 0.22418 -0.05809
 H294 H 0.49938 0.27093 0.08812
 H295 H 0.52934 0.38094 -0.08172
 H296 H 0.49513 0.19287 0.07907
 C297 C -0.34531 -0.05384 0.52868
 C298 C -0.37827 -0.00986 0.51715
 C299 C -0.36312 0.03078 0.50711
 C300 C -0.31604 0.02765 0.50758
 C301 C -0.28328 -0.01671 0.51849
 C302 C -0.29821 -0.05724 0.52937
 C303 C -0.23638 -0.01971 0.51764
 C304 C -0.22199 0.02114 0.50566
 C305 C -0.25483 0.06501 0.49570
 C306 C -0.30138 0.06825 0.49665
 H307 H -0.38806 0.06496 0.49825
 H308 H -0.27361 -0.09155 0.53789
 H309 H -0.21144 -0.05372 0.52510
 H310 H -0.32599 0.10253 0.48849
 H311 H -0.35602 -0.08571 0.53659
 H312 H -0.24441 0.09699 0.48728
 C313 C 0.32193 0.05509 0.49527
 C314 C 0.35248 0.01199 0.49655
 C315 C 0.33511 -0.02755 0.49708
 C316 C 0.28794 -0.02423 0.49657
 C317 C 0.25770 0.01906 0.49624
 C318 C 0.27501 0.05854 0.49539
 C319 C 0.21068 0.02210 0.49658
 C320 C 0.19336 -0.01735 0.49611
 C321 C 0.22352 -0.06000 0.49582
 C322 C 0.27050 -0.06353 0.49639
 H323 H 0.35824 -0.06091 0.49777
 H324 H 0.25233 0.09204 0.49492
 H325 H 0.18735 0.05520 0.49633
 H326 H 0.29314 -0.09694 0.49652
 H327 H 0.33452 0.08602 0.49504
 H328 H 0.21072 -0.09079 0.49563
 C329 C -0.04306 0.50813 1.33290
 C330 C -0.00123 0.51243 1.36001
 C331 C 0.03489 0.51903 1.33867
 C332 C 0.02960 0.52062 1.29102
 C333 C -0.01204 0.51476 1.26442
 C334 C -0.04831 0.50897 1.28561
 C335 C -0.01648 0.51434 1.21723
 C336 C 0.01982 0.52060 1.19611
 C337 C 0.06048 0.52772 1.22250
 C338 C 0.06547 0.52746 1.26962
 H339 H 0.06715 0.52277 1.35916
 H340 H -0.08056 0.50469 1.26573
 H341 H -0.04808 0.50920 1.19690
 H342 H 0.09753 0.53219 1.28940
 H343 H -0.07134 0.50288 1.34857
 H344 H 0.08897 0.53228 1.20686
 C345 C 0.07204 0.48918 0.65898
 C346 C 0.03230 0.48139 0.63162
 C347 C -0.00309 0.47136 0.65252
 C348 C 0.00068 0.47004 0.69994
 C349 C 0.03993 0.47975 0.72676
 C350 C 0.07567 0.48873 0.70606
 C351 C 0.04240 0.48090 0.77357
 C352 C 0.00660 0.47147 0.79411
 C353 C -0.03139 0.46025 0.76762
 C354 C -0.03452 0.45985 0.72085
 H355 H -0.03368 0.46485 0.63181
 H356 H 0.10616 0.49594 0.72613
 H357 H 0.07197 0.48923 0.79402
 H358 H -0.06471 0.45208 0.70089
 H359 H 0.09968 0.49709 0.64357
 H360 H -0.05941 0.45314 0.78283
   
