data_POSCAR
  _audit_creation_date              2014-09-24
  _audit_creation_method            'ToBaCCo'
  _symmetry_space_group_name_H-M    'P1'
  _symmetry_Int_Tables_number       1
  _symmetry_cell_setting            triclinic
  loop_
  _symmetry_equiv_pos_as_xyz
 x,y,z
_cell_length_a 17.8067
_cell_length_b 18.5320
_cell_length_c 29.7378
_cell_angle_alpha 89.904100
_cell_angle_beta 100.782800
_cell_angle_gamma 109.443800
loop_
  _atom_site_label
  _atom_site_type_symbol
  _atom_site_fract_x
  _atom_site_fract_y
  _atom_site_fract_z
O1 O -0.10143 0.39362 0.99485
 O2 O -0.00882 0.57665 0.94539
 O3 O -0.00420 0.43685 0.93801
 O4 O -0.10761 0.53095 1.00217
 O5 O -0.00175 0.56260 1.05969
 O6 O 0.10199 0.46861 0.99534
 O7 O 0.09660 0.60619 1.00307
 O8 O 0.00341 0.42363 1.05294
 Cu9 Cu -0.06593 0.48169 0.96419
 Cu10 Cu 0.06056 0.51806 1.03364
 C11 C -0.06465 0.37743 1.03219
 C12 C 0.05943 0.62286 0.96599
 C13 C 0.06615 0.43628 0.95587
 C14 C -0.07209 0.56313 1.04169
 O15 O 0.52779 -0.08469 0.54273
 O16 O 0.38397 -0.02634 0.45747
 O17 O 0.49289 -0.09000 0.45394
 O18 O 0.41835 -0.02066 0.54673
 O19 O 0.51158 0.09370 0.54799
 O20 O 0.58623 0.02428 0.45511
 O21 O 0.47675 0.08811 0.45820
 O22 O 0.61986 0.03036 0.54428
 Cu23 Cu 0.44629 -0.06684 0.50018
 Cu24 Cu 0.55773 0.07073 0.50139
 C25 C 0.59840 -0.03711 0.55797
 C26 C 0.40609 0.04060 0.44313
 C27 C 0.55252 -0.04482 0.43896
 C28 C 0.45262 0.04812 0.56333
 C29 C 0.07532 0.05911 0.26028
 H30 H 0.06661 0.08907 0.22961
 C31 C 0.15167 0.08097 0.28929
 H32 H 0.20103 0.12827 0.28089
 C33 C 0.02274 -0.04050 0.30780
 H34 H -0.02804 -0.08791 0.31464
 C35 C 0.09811 -0.02093 0.33753
 H36 H 0.10431 -0.05322 0.36748
 N37 N 0.01268 -0.00049 0.27012
 C38 C -0.18128 -0.16691 0.17353
 H39 H -0.23186 -0.14697 0.17368
 C40 C -0.19198 -0.23146 0.14567
 H41 H -0.25121 -0.26105 0.12473
 C42 C -0.04212 -0.15047 0.19932
 H43 H 0.01664 -0.11786 0.21961
 C44 C -0.05012 -0.21484 0.17199
 H45 H 0.00295 -0.23088 0.17215
 Zn46 Zn -0.09142 -0.03319 0.23157
 N47 N -0.10686 -0.12696 0.19901
 C48 C -0.12921 0.01871 0.14326
 N49 N -0.10048 0.04170 0.18853
 C50 C -0.07748 0.11703 0.20302
 C51 C -0.08298 0.17217 0.17155
 C52 C -0.13763 0.07146 0.11097
 C53 C -0.21764 -0.12113 0.27511
 C54 C -0.27577 -0.13365 0.30254
 C55 C -0.23387 0.00313 0.31878
 C56 C -0.17665 0.01306 0.29084
 N57 N -0.17023 -0.04858 0.26914
 H58 H -0.14571 -0.04054 0.13173
 H59 H -0.05311 0.13478 0.23888
 H60 H -0.06427 0.23182 0.18351
 H61 H -0.16098 0.05198 0.07517
 H62 H -0.20983 -0.16975 0.25920
 H63 H -0.31287 -0.19185 0.30675
 H64 H -0.23842 0.05320 0.33507
 H65 H -0.13738 0.07011 0.28659
 C66 C -0.12555 -0.25538 0.14385
 C67 C 0.16393 0.04049 0.32836
 C68 C -0.28463 -0.07113 0.32479
 C69 C -0.11400 0.14917 0.12494
 C70 C 0.16504 0.19250 0.79984
 H71 H 0.20540 0.19770 0.77618
 C72 C 0.17359 0.25661 0.82767
 H73 H 0.22132 0.31041 0.82584
 C74 C 0.05278 0.11745 0.83091
 H75 H 0.00630 0.06265 0.83223
 C76 C 0.05770 0.18058 0.85827
 H77 H 0.01528 0.17409 0.88099
 N78 N 0.10614 0.12423 0.80254
 C79 C 0.15257 0.02400 0.68728
 H80 H 0.08930 -0.00318 0.67185
 C81 C 0.21104 0.03378 0.66026
 H82 H 0.19201 0.01433 0.62433
 C83 C 0.25466 0.08354 0.75220
 H84 H 0.27174 0.10365 0.78793
 C85 C 0.31493 0.09611 0.72613
 H86 H 0.37793 0.12490 0.74212
 Zn87 Zn 0.09242 0.03312 0.76799
 N88 N 0.17494 0.04849 0.73251
 C89 C -0.04479 -0.06901 0.70707
 N90 N -0.01093 0.00308 0.72777
 C91 C -0.04883 0.05588 0.71930
 C92 C -0.12415 0.03671 0.68957
 C93 C -0.12093 -0.09108 0.67785
 C94 C 0.17000 -0.03530 0.83809
 C95 C 0.17686 -0.08919 0.86999
 C96 C 0.03339 -0.15808 0.84562
 C97 C 0.02920 -0.10254 0.81430
 N98 N 0.09728 -0.04327 0.81042
 H99 H -0.01268 -0.10950 0.71342
 H100 H -0.02034 0.11330 0.73526
 H101 H -0.15368 0.07927 0.68352
 H102 H -0.14759 -0.14876 0.66194
 H103 H 0.22292 0.01320 0.83579
 H104 H 0.23545 -0.08182 0.89148
 H105 H -0.02172 -0.20416 0.84825
 H106 H -0.02900 -0.10628 0.79390
 C107 C 0.29330 0.07059 0.67968
 C108 C 0.11929 0.25091 0.85714
 C109 C 0.10818 -0.15198 0.87384
 C110 C -0.16121 -0.03772 0.66870
 N111 N -0.20195 -0.35205 0.08123
 N112 N -0.19026 -0.40085 0.05308
 C113 C -0.11238 -0.39701 0.06629
 C114 C -0.07665 -0.34451 0.10337
 N115 N -0.13448 -0.31725 0.11168
 H116 H -0.01378 -0.32595 0.12087
 N117 N -0.17796 0.18714 0.05345
 N118 N -0.16701 0.24698 0.02791
 C119 C -0.10105 0.30330 0.05069
 C120 C -0.07200 0.27641 0.09120
 N121 N -0.12176 0.20364 0.09159
 H122 H -0.01828 0.30565 0.11680
 N123 N 0.42272 0.14320 0.65896
 N124 N 0.46651 0.13976 0.62807
 C125 C 0.42438 0.07522 0.60111
 C126 C 0.35332 0.03923 0.61623
 N127 N 0.35447 0.08353 0.65234
 H128 H 0.30608 -0.01426 0.60269
 N129 N -0.29413 -0.12914 0.63356
 N130 N -0.36062 -0.13079 0.60408
 C131 C -0.34696 -0.05923 0.58984
 C132 C -0.27029 -0.01356 0.61157
 N133 N -0.23939 -0.05925 0.63863
 H134 H -0.23980 0.04667 0.60776
 N135 N 0.17760 -0.19531 0.94166
 N136 N 0.16646 -0.25504 0.96732
 C137 C 0.09387 -0.30692 0.94829
 C138 C 0.06071 -0.27716 0.91013
 N139 N 0.11480 -0.20712 0.90722
 H140 H 0.00303 -0.30398 0.88704
 N141 N 0.19870 0.36334 0.90909
 N142 N 0.18705 0.41333 0.93649
 C143 C 0.10602 0.39662 0.93082
 C144 C 0.06824 0.33470 0.89941
 N145 N 0.12812 0.31550 0.88674
 H146 H 0.00369 0.30548 0.88770
 N147 N -0.40284 -0.15056 0.35398
 N148 N -0.44785 -0.14590 0.38390
 C149 C -0.41692 -0.07349 0.40278
 C150 C -0.35158 -0.03379 0.38355
 N151 N -0.34464 -0.08393 0.35314
 H152 H -0.31225 0.02510 0.39184
 N153 N 0.30167 0.12827 0.35837
 N154 N 0.36742 0.13076 0.38875
 C155 C 0.34934 0.06310 0.40839
 C156 C 0.27062 0.01909 0.38921
 N157 N 0.24270 0.06177 0.35813
 H158 H 0.23796 -0.03886 0.39657
   
