data_POSCAR
  _audit_creation_date              2014-09-24
  _audit_creation_method            'ToBaCCo'
  _symmetry_space_group_name_H-M    'P1'
  _symmetry_Int_Tables_number       1
  _symmetry_cell_setting            triclinic
  loop_
  _symmetry_equiv_pos_as_xyz
 x,y,z
_cell_length_a 29.6674
_cell_length_b 31.1438
_cell_length_c 29.6724
_cell_angle_alpha 89.990600
_cell_angle_beta 90.000200
_cell_angle_gamma 89.978900
loop_
  _atom_site_label
  _atom_site_type_symbol
  _atom_site_fract_x
  _atom_site_fract_y
  _atom_site_fract_z
C1 C 0.25006 0.24991 0.25002
 C2 C 0.74987 0.74998 0.24989
 C3 C 0.75025 0.25000 0.75008
 C4 C 0.25003 0.74993 0.74983
 C5 C 0.06371 0.06417 0.01597
 H6 H 0.06457 0.06603 -0.02043
 C7 C 0.09027 0.09189 0.04169
 H8 H 0.11137 0.11523 0.02479
 C9 C 0.03394 0.03227 0.08208
 H10 H 0.01155 0.00940 0.09775
 C11 C 0.05988 0.05940 0.10909
 H12 H 0.05781 0.05641 0.14539
 N13 N 0.03671 0.03474 0.03639
 C14 C 0.01788 -0.06672 -0.06328
 H15 H -0.01853 -0.06846 -0.06405
 C16 C 0.04345 -0.09448 -0.08995
 H17 H 0.02642 -0.11776 -0.11101
 C18 C 0.08416 -0.03498 -0.03373
 H19 H 0.09996 -0.01212 -0.01141
 C20 C 0.11104 -0.06217 -0.05978
 H21 H 0.14735 -0.05924 -0.05785
 Zn22 Zn 0.00126 -0.00114 -0.00100
 N23 N 0.03845 -0.03733 -0.03635
 C24 C -0.03166 0.03257 -0.08395
 N25 N -0.03391 0.03514 -0.03825
 C26 C -0.06045 0.06482 -0.01760
 C27 C -0.08715 0.09263 -0.04308
 C28 C -0.05776 0.05981 -0.11074
 C29 C -0.01614 -0.06657 0.06128
 C30 C -0.04209 -0.09392 0.08806
 C31 C -0.10923 -0.06073 0.05789
 C32 C -0.08200 -0.03403 0.03168
 N33 N -0.03633 -0.03696 0.03430
 H34 H -0.00965 0.00946 -0.09981
 H35 H -0.06093 0.06672 0.01880
 H36 H -0.10792 0.11613 -0.02599
 H37 H -0.05617 0.05669 -0.14705
 H38 H 0.02025 -0.06862 0.06223
 H39 H -0.02533 -0.11662 0.11005
 H40 H -0.14552 -0.05808 0.05513
 H41 H -0.09750 -0.01120 0.00910
 C42 C 0.09072 -0.09231 -0.08854
 C43 C 0.08867 0.08962 0.08894
 C44 C -0.08932 -0.09104 0.08676
 C45 C -0.08618 0.09021 -0.09033
 C46 C 0.06368 0.56631 0.51763
 H47 H 0.06446 0.56808 0.48123
 C48 C 0.09041 0.59399 0.54322
 H49 H 0.11154 0.61724 0.52621
 C50 C 0.03400 0.53461 0.58388
 H51 H 0.01160 0.51181 0.59966
 C52 C 0.06011 0.56172 0.61077
 H53 H 0.05814 0.55879 0.64708
 N54 N 0.03665 0.53698 0.53818
 C55 C 0.01747 0.43515 0.43906
 H56 H -0.01894 0.43340 0.43852
 C57 C 0.04288 0.40729 0.41235
 H58 H 0.02572 0.38392 0.39149
 C59 C 0.08393 0.46703 0.46804
 H60 H 0.09986 0.49000 0.49014
 C61 C 0.11065 0.43975 0.44193
 H62 H 0.14697 0.44269 0.44360
 Zn63 Zn 0.00112 0.50100 0.50097
 N64 N 0.03821 0.46466 0.46571
 C65 C -0.03161 0.53429 0.41784
 N66 N -0.03407 0.53708 0.46352
 C67 C -0.06083 0.56674 0.48389
 C68 C -0.08758 0.59430 0.45814
 C69 C -0.05775 0.56125 0.39078
 C70 C -0.01618 0.43566 0.56336
 C71 C -0.04206 0.40809 0.58994
 C72 C -0.10928 0.44104 0.55965
 C73 C -0.08210 0.46797 0.53364
 N74 N -0.03643 0.46523 0.53638
 H75 H -0.00942 0.51122 0.40219
 H76 H -0.06148 0.56882 0.52028
 H77 H -0.10856 0.61777 0.47500
 H78 H -0.05599 0.55795 0.35450
 H79 H 0.02022 0.43375 0.56439
 H80 H -0.02526 0.38537 0.61188
 H81 H -0.14557 0.44350 0.55675
 H82 H -0.09765 0.49077 0.51106
 C83 C 0.09015 0.40950 0.41342
 C84 C 0.08895 0.59181 0.59048
 C85 C -0.08930 0.41070 0.58844
 C86 C -0.08641 0.59161 0.41090
 C87 C 0.56141 0.06458 0.51770
 H88 H 0.56198 0.06637 0.48129
 C89 C 0.58822 0.09231 0.54314
 H90 H 0.60919 0.11561 0.52602
 C91 C 0.53223 0.03275 0.58411
 H92 H 0.51001 0.00986 0.60000
 C93 C 0.55843 0.05990 0.61086
 H94 H 0.55671 0.05694 0.64717
 N95 N 0.53461 0.03516 0.53840
 C96 C 0.51589 -0.06663 0.43917
 H97 H 0.47948 -0.06851 0.43847
 C98 C 0.54153 -0.09426 0.41241
 H99 H 0.52457 -0.11759 0.39135
 C100 C 0.58209 -0.03461 0.46856
 H101 H 0.59784 -0.01167 0.49082
 C102 C 0.60903 -0.06165 0.44242
 H103 H 0.64533 -0.05855 0.44424
 Zn104 Zn 0.49914 -0.00092 0.50126
 N105 N 0.53639 -0.03714 0.46603
 C106 C 0.46655 0.03250 0.41811
 N107 N 0.46394 0.03515 0.46379
 C108 C 0.43720 0.06483 0.48417
 C109 C 0.41071 0.09261 0.45842
 C110 C 0.44068 0.05969 0.39106
 C111 C 0.48198 -0.06624 0.56372
 C112 C 0.45616 -0.09375 0.59044
 C113 C 0.38887 -0.06084 0.56026
 C114 C 0.41598 -0.03398 0.53410
 N115 N 0.46166 -0.03672 0.53673
 H116 H 0.48874 0.00942 0.40247
 H117 H 0.43644 0.06681 0.52056
 H118 H 0.38980 0.11613 0.47529
 H119 H 0.44260 0.05653 0.35477
 H120 H 0.51838 -0.06815 0.56467
 H121 H 0.47301 -0.11641 0.61240
 H122 H 0.35257 -0.05837 0.55747
 H123 H 0.40038 -0.01120 0.51153
 C124 C 0.58879 -0.09184 0.41367
 C125 C 0.58708 0.09006 0.59040
 C126 C 0.40891 -0.09112 0.58908
 C127 C 0.41211 0.09014 0.41117
 C128 C 0.56123 0.56636 0.01578
 H129 H 0.56205 0.56823 -0.02062
 C130 C 0.58800 0.59391 0.04148
 H131 H 0.60919 0.61718 0.02456
 C132 C 0.53151 0.53446 0.08191
 H133 H 0.50911 0.51162 0.09760
 C134 C 0.55765 0.56144 0.10890
 H135 H 0.55569 0.55836 0.14519
 N136 N 0.53420 0.53697 0.03622
 C137 C 0.51590 0.43514 -0.06304
 H138 H 0.47950 0.43330 -0.06389
 C139 C 0.54162 0.40731 -0.08950
 H140 H 0.52471 0.38389 -0.11049
 C141 C 0.58202 0.46717 -0.03349
 H142 H 0.59770 0.49016 -0.01123
 C143 C 0.60904 0.43993 -0.05932
 H144 H 0.64534 0.44295 -0.05731
 Zn145 Zn 0.49892 0.50088 -0.00110
 N146 N 0.53633 0.46470 -0.03622
 C147 C 0.46636 0.53411 -0.08432
 N148 N 0.46365 0.53682 -0.03864
 C149 C 0.43666 0.56638 -0.01838
 C150 C 0.41001 0.59394 -0.04424
 C151 C 0.44028 0.56103 -0.11147
 C152 C 0.48205 0.43543 0.06117
 C153 C 0.45641 0.40783 0.08795
 C154 C 0.38891 0.44057 0.05802
 C155 C 0.41585 0.46754 0.03179
 N156 N 0.46155 0.46492 0.03428
 H157 H 0.48893 0.51131 -0.09987
 H158 H 0.43564 0.56826 0.01801
 H159 H 0.38804 0.61660 -0.02742
 H160 H 0.44312 0.55857 -0.14775
 H161 H 0.51846 0.43364 0.06201
 H162 H 0.47341 0.38521 0.10984
 H163 H 0.35260 0.44295 0.05536
 H164 H 0.40012 0.49030 0.00930
 C165 C 0.58888 0.40961 -0.08798
 C166 C 0.58657 0.59153 0.08873
 C167 C 0.40915 0.41034 0.08675
 C168 C 0.41144 0.59132 -0.09148
 C169 C 0.17215 -0.17506 -0.17124
 C170 C 0.18505 -0.16627 -0.12683
 C171 C 0.15852 -0.13952 -0.09984
 C172 C 0.22312 -0.22450 -0.22283
 C173 C 0.10589 -0.13041 -0.16160
 C174 C 0.13250 -0.15714 -0.18853
 C175 C 0.19981 -0.20206 -0.19921
 C176 C 0.11866 -0.12119 -0.11696
 H177 H 0.21564 -0.18006 -0.11308
 H178 H 0.16894 -0.13352 -0.06545
 H179 H 0.07574 -0.11637 -0.17595
 H180 H 0.12229 -0.16362 -0.22293
 C181 C 0.17096 0.32652 0.33042
 C182 C 0.18417 0.33542 0.37471
 C183 C 0.15784 0.36226 0.40180
 C184 C 0.22164 0.27695 0.27876
 C185 C 0.10481 0.37124 0.34037
 C186 C 0.13121 0.34442 0.31333
 C187 C 0.19844 0.29943 0.30236
 C188 C 0.11789 0.38056 0.38490
 H189 H 0.21484 0.32165 0.38830
 H190 H 0.16850 0.36834 0.43611
 H191 H 0.07457 0.38526 0.32618
 H192 H 0.12077 0.33786 0.27903
 C193 C 0.67046 -0.17382 0.33041
 C194 C 0.68343 -0.16514 0.37482
 C195 C 0.65681 -0.13864 0.40200
 C196 C 0.72147 -0.22300 0.27867
 C197 C 0.60396 -0.12958 0.34042
 C198 C 0.63065 -0.15606 0.31330
 C199 C 0.69816 -0.20065 0.30230
 C200 C 0.61680 -0.12048 0.38507
 H201 H 0.71413 -0.17883 0.38843
 H202 H 0.66729 -0.13272 0.43639
 H203 H 0.57368 -0.11565 0.32622
 H204 H 0.62038 -0.16247 0.27891
 C205 C 0.67069 0.32662 -0.16998
 C206 C 0.63108 0.34440 -0.18750
 C207 C 0.60435 0.37122 -0.16079
 C208 C 0.72182 0.27703 -0.22118
 C209 C 0.65678 0.36246 -0.09881
 C210 C 0.68344 0.33562 -0.12558
 C211 C 0.69847 0.29952 -0.19773
 C212 C 0.61696 0.38065 -0.11615
 H213 H 0.62099 0.33775 -0.22189
 H214 H 0.57422 0.38516 -0.17531
 H215 H 0.66708 0.36863 -0.06441
 H216 H 0.71400 0.32193 -0.11166
 C217 C -0.16921 0.17313 -0.17122
 C218 C -0.12499 0.16402 -0.18455
 C219 C -0.09789 0.13718 -0.15821
 C220 C -0.22092 0.22284 -0.22172
 C221 C -0.15919 0.12860 -0.10496
 C222 C -0.18623 0.15542 -0.13136
 C223 C -0.19727 0.20028 -0.19863
 C224 C -0.11472 0.11910 -0.11813
 H225 H -0.11146 0.17765 -0.21530
 H226 H -0.06363 0.13095 -0.16895
 H227 H -0.17333 0.11473 -0.07463
 H228 H -0.22048 0.16214 -0.12083
 C229 C -0.16964 0.67348 0.32904
 C230 C -0.12529 0.66457 0.31599
 C231 C -0.09813 0.63809 0.34265
 C232 C -0.22134 0.72281 0.27813
 C233 C -0.15961 0.62948 0.39569
 C234 C -0.18672 0.65594 0.36895
 C235 C -0.19772 0.70037 0.30136
 C236 C -0.11502 0.62017 0.38279
 H237 H -0.11171 0.67809 0.28520
 H238 H -0.06378 0.63200 0.33211
 H239 H -0.17379 0.61573 0.42606
 H240 H -0.22106 0.66253 0.37930
 C241 C 0.33008 0.17309 0.32932
 C242 C 0.37442 0.16391 0.31647
 C243 C 0.40119 0.13707 0.34313
 C244 C 0.27885 0.22278 0.27830
 C245 C 0.33933 0.12866 0.39576
 C246 C 0.31262 0.15548 0.36903
 C247 C 0.30232 0.20024 0.30158
 C248 C 0.38392 0.11906 0.38306
 H249 H 0.38829 0.17746 0.28583
 H250 H 0.43555 0.13076 0.33275
 H251 H 0.32486 0.11486 0.42597
 H252 H 0.27827 0.16227 0.37920
 C253 C 0.32876 0.67385 -0.17319
 C254 C 0.34982 0.69006 -0.13459
 C255 C 0.37676 0.66329 -0.10800
 C256 C 0.27729 0.72404 -0.22351
 C257 C 0.36169 0.60396 -0.15866
 C258 C 0.33475 0.63078 -0.18517
 C259 C 0.30085 0.70128 -0.20047
 C260 C 0.38300 0.61990 -0.11973
 H261 H 0.34548 0.72340 -0.12508
 H262 H 0.39316 0.67666 -0.07858
 H263 H 0.36531 0.57060 -0.16827
 H264 H 0.31847 0.61787 -0.21491
 C265 C -0.17136 -0.17279 0.16986
 C266 C -0.18305 -0.12965 0.16382
 C267 C -0.15642 -0.10308 0.13677
 C268 C -0.22193 -0.22268 0.22128
 C269 C -0.10620 -0.16279 0.12168
 C270 C -0.13292 -0.18932 0.14873
 C271 C -0.19881 -0.20002 0.19779
 C272 C -0.11766 -0.11934 0.11538
 H273 H -0.21267 -0.11651 0.18014
 H274 H -0.16580 -0.06966 0.13309
 H275 H -0.07692 -0.17640 0.10523
 H276 H -0.12364 -0.22271 0.15310
 C277 C -0.17120 0.32781 0.67044
 C278 C -0.18318 0.37092 0.66467
 C279 C -0.15660 0.39786 0.63797
 C280 C -0.22160 0.27741 0.72147
 C281 C -0.10585 0.33859 0.62271
 C282 C -0.13252 0.31169 0.64941
 C283 C -0.19855 0.30025 0.69811
 C284 C -0.11760 0.38201 0.61669
 H285 H -0.21297 0.38375 0.68093
 H286 H -0.16620 0.43124 0.63450
 H287 H -0.07638 0.32530 0.60632
 H288 H -0.12301 0.27834 0.65359
 C289 C 0.32722 -0.17373 0.67163
 C290 C 0.31525 -0.13063 0.66575
 C291 C 0.34176 -0.10378 0.63888
 C292 C 0.27678 -0.22406 0.72279
 C293 C 0.39243 -0.16312 0.62367
 C294 C 0.36583 -0.18992 0.65054
 C295 C 0.29988 -0.20123 0.69939
 C296 C 0.38069 -0.11971 0.61752
 H297 H 0.28550 -0.11774 0.68205
 H298 H 0.33216 -0.07041 0.63532
 H299 H 0.42185 -0.17648 0.60723
 H300 H 0.37533 -0.22327 0.65479
 C301 C 0.32819 0.32764 0.16989
 C302 C 0.31605 0.37069 0.16399
 C303 C 0.34231 0.39756 0.13690
 C304 C 0.27818 0.27730 0.22138
 C305 C 0.39305 0.33834 0.12148
 C306 C 0.36671 0.31151 0.14857
 C307 C 0.30110 0.30012 0.19786
 C308 C 0.38115 0.38170 0.11534
 H309 H 0.28636 0.38353 0.18045
 H310 H 0.33259 0.43090 0.13335
 H311 H 0.42241 0.32503 0.10489
 H312 H 0.37633 0.27819 0.15282
 C313 C 0.17055 0.17273 0.17068
 C314 C 0.12611 0.16377 0.18336
 C315 C 0.09940 0.13687 0.15674
 C316 C 0.22153 0.22263 0.22167
 C317 C 0.16152 0.12793 0.10449
 C318 C 0.18817 0.15482 0.13119
 C319 C 0.19820 0.19998 0.19838
 C320 C 0.11683 0.11856 0.11702
 H321 H 0.11211 0.17756 0.21382
 H322 H 0.06497 0.13075 0.16697
 H323 H 0.17610 0.11392 0.07445
 H324 H 0.22259 0.16144 0.12115
 C325 C 0.17152 0.67463 0.67188
 C326 C 0.12708 0.66587 0.68471
 C327 C 0.10014 0.63908 0.65819
 C328 C 0.22291 0.72424 0.72284
 C329 C 0.16203 0.62985 0.60573
 C330 C 0.18891 0.65663 0.63232
 C331 C 0.19941 0.70172 0.69952
 C332 C 0.11734 0.62068 0.61843
 H333 H 0.11326 0.67973 0.71522
 H334 H 0.06572 0.63311 0.66856
 H335 H 0.17643 0.61576 0.57565
 H336 H 0.22333 0.66308 0.62217
 C337 C 0.67010 0.17297 0.67122
 C338 C 0.62577 0.16414 0.68438
 C339 C 0.59869 0.13730 0.65807
 C340 C 0.72164 0.22276 0.72176
 C341 C 0.66021 0.12817 0.60516
 C342 C 0.68724 0.15499 0.63155
 C343 C 0.69812 0.20016 0.69862
 C344 C 0.61564 0.11893 0.61817
 H345 H 0.61215 0.17798 0.71498
 H346 H 0.56435 0.13128 0.66867
 H347 H 0.67443 0.11409 0.57497
 H348 H 0.72157 0.16151 0.62114
 C349 C 0.66968 0.67347 0.17052
 C350 C 0.68693 0.65560 0.13083
 C351 C 0.65986 0.62912 0.10411
 C352 C 0.72125 0.72281 0.22151
 C353 C 0.59808 0.63838 0.15669
 C354 C 0.62521 0.66488 0.18334
 C355 C 0.69771 0.70037 0.19821
 C356 C 0.61514 0.62012 0.11679
 H357 H 0.72136 0.66195 0.12067
 H358 H 0.67415 0.61512 0.07392
 H359 H 0.56363 0.63254 0.16705
 H360 H 0.61149 0.67865 0.21394
   
