data_POSCAR
  _audit_creation_date              2014-09-24
  _audit_creation_method            'ToBaCCo'
  _symmetry_space_group_name_H-M    'P1'
  _symmetry_Int_Tables_number       1
  _symmetry_cell_setting            triclinic
  loop_
  _symmetry_equiv_pos_as_xyz
 x,y,z
_cell_length_a 40.2389
_cell_length_b 40.1672
_cell_length_c 38.6885
_cell_angle_alpha 89.945400
_cell_angle_beta 89.939600
_cell_angle_gamma 84.645800
loop_
  _atom_site_label
  _atom_site_type_symbol
  _atom_site_fract_x
  _atom_site_fract_y
  _atom_site_fract_z
O1 O 0.03355 0.27836 -0.03313
 O2 O -0.02932 0.27754 0.03606
 O3 O 0.03495 0.27825 0.03445
 O4 O -0.03112 0.27826 -0.03123
 O5 O -0.02549 0.22311 -0.03177
 O6 O 0.04048 0.22305 0.03411
 O7 O -0.02441 0.22244 0.03526
 O8 O 0.03952 0.22318 -0.03280
 Cu9 Cu 0.00150 0.28363 0.00151
 Cu10 Cu 0.00806 0.21741 0.00114
 C11 C 0.04749 0.25087 -0.04456
 C12 C -0.03784 0.24986 0.04745
 C13 C 0.04896 0.25066 0.04553
 C14 C -0.03975 0.25070 -0.04261
 O15 O 0.46086 0.77963 0.53291
 O16 O 0.52540 0.78116 0.46562
 O17 O 0.46102 0.77955 0.46562
 O18 O 0.52523 0.78123 0.53320
 O19 O 0.53203 0.72605 0.53296
 O20 O 0.46738 0.72440 0.46579
 O21 O 0.53219 0.72599 0.46609
 O22 O 0.46721 0.72447 0.53298
 Cu23 Cu 0.49250 0.78592 0.49932
 Cu24 Cu 0.50032 0.71969 0.49947
 C25 C 0.45288 0.75181 0.54437
 C26 C 0.53992 0.75383 0.45447
 C27 C 0.45310 0.75170 0.45423
 C28 C 0.53970 0.75392 0.54452
 O29 O 1.03232 0.72323 0.03282
 O30 O 0.96747 0.72366 -0.03430
 O31 O 1.03208 0.72358 -0.03451
 O32 O 0.96780 0.72336 0.03320
 O33 O 0.96273 0.77851 0.03342
 O34 O 1.02707 0.77868 -0.03427
 O35 O 0.96221 0.77881 -0.03390
 O36 O 1.02760 0.77832 0.03273
 Cu37 Cu 1.00038 0.71794 -0.00074
 Cu38 Cu 0.99434 0.78410 -0.00049
 C39 C 1.04125 0.75069 0.04424
 C40 C 0.95373 0.75129 -0.04561
 C41 C 1.04075 0.75116 -0.04597
 C42 C 0.95432 0.75090 0.04498
 O43 O 0.54084 0.22173 0.53421
 O44 O 0.47680 0.21989 0.46665
 O45 O 0.54139 0.22161 0.46725
 O46 O 0.47642 0.22053 0.53427
 O47 O 0.47038 0.27567 0.53418
 O48 O 0.53398 0.27674 0.46579
 O49 O 0.46964 0.27501 0.46691
 O50 O 0.53519 0.27688 0.53304
 Cu51 Cu 0.50939 0.21541 0.50062
 Cu52 Cu 0.50162 0.28161 0.50000
 C53 C 0.54924 0.24961 0.54494
 C54 C 0.46223 0.24710 0.45521
 C55 C 0.54875 0.24937 0.45503
 C56 C 0.46243 0.24793 0.54588
 O57 O 0.72171 -0.02653 0.03401
 O58 O 0.72424 0.03888 -0.03242
 O59 O 0.72053 -0.02565 -0.03356
 O60 O 0.72509 0.03745 0.03467
 O61 O 0.78013 0.03083 0.03208
 O62 O 0.77547 -0.03507 -0.03327
 O63 O 0.77899 0.02922 -0.03522
 O64 O 0.77677 -0.03402 0.03348
 Cu65 Cu 0.71737 0.00681 0.00069
 Cu66 Cu 0.78337 -0.00300 -0.00078
 C67 C 0.74885 -0.04133 0.04522
 C68 C 0.75201 0.04521 -0.04540
 C69 C 0.74720 -0.04147 -0.04472
 C70 C 0.75338 0.04517 0.04476
 O71 O 0.22365 0.53181 0.46519
 O72 O 0.22359 0.46753 0.53308
 O73 O 0.22320 0.53215 0.53274
 O74 O 0.22397 0.46719 0.46549
 O75 O 0.27907 0.46208 0.46609
 O76 O 0.27831 0.52770 0.53268
 O77 O 0.27869 0.46246 0.53310
 O78 O 0.27876 0.52731 0.46582
 Cu79 Cu 0.21808 0.50014 0.49909
 Cu80 Cu 0.28423 0.49438 0.49946
 C81 C 0.25121 0.54067 0.45407
 C82 C 0.25114 0.45393 0.54458
 C83 C 0.25061 0.54116 0.54403
 C84 C 0.25165 0.45346 0.45440
 O85 O 0.27168 0.96067 -0.03555
 O86 O 0.27554 1.02480 0.03190
 O87 O 0.27191 0.96042 0.03129
 O88 O 0.27524 1.02504 -0.03577
 O89 O 0.22037 1.03371 -0.03506
 O90 O 0.21693 0.96884 0.03188
 O91 O 0.22059 1.03317 0.03210
 O92 O 0.21680 0.96926 -0.03581
 Cu93 Cu 0.27909 0.99202 -0.00206
 Cu94 Cu 0.21317 1.00203 -0.00172
 C95 C 0.24361 0.95387 -0.04731
 C96 C 0.24874 1.03988 0.04367
 C97 C 0.24387 0.95353 0.04302
 C98 C 0.24839 1.04050 -0.04702
 O99 O 0.77544 0.46636 0.46734
 O100 O 0.77542 0.53078 0.53477
 O101 O 0.77567 0.46592 0.53436
 O102 O 0.77523 0.53092 0.46727
 O103 O 0.72017 0.53560 0.46711
 O104 O 0.72060 0.47185 0.53572
 O105 O 0.72036 0.53654 0.53432
 O106 O 0.72039 0.47055 0.46835
 Cu107 Cu 0.78096 0.49807 0.50094
 Cu108 Cu 0.71484 0.50413 0.50136
 C109 C 0.74794 0.45725 0.45646
 C110 C 0.74791 0.54476 0.54604
 C111 C 0.74824 0.45783 0.54660
 C112 C 0.74766 0.54424 0.45552
 C113 C 0.25590 0.21941 0.22542
 C114 C 0.23042 0.24625 0.22488
 C115 C 0.23061 0.27160 0.24983
 C116 C 0.25589 0.27126 0.27485
 C117 C 0.28206 0.24507 0.27438
 C118 C 0.28154 0.21936 0.24992
 H119 H 0.30133 0.19909 0.24997
 H120 H 0.21081 0.29185 0.24977
 C121 C 0.74710 0.77746 0.22519
 C122 C 0.77341 0.75142 0.22577
 C123 C 0.77305 0.72587 0.25041
 C124 C 0.74742 0.72589 0.27497
 C125 C 0.72169 0.75249 0.27531
 C126 C 0.72176 0.77775 0.25019
 H127 H 0.70185 0.79789 0.25012
 H128 H 0.79298 0.70573 0.25049
 C129 C 0.78015 0.25024 0.22480
 C130 C 0.75616 0.22661 0.22358
 C131 C 0.73045 0.22843 0.24831
 C132 C 0.72850 0.25280 0.27428
 C133 C 0.75248 0.27625 0.27548
 C134 C 0.77795 0.27479 0.25065
 H135 H 0.79632 0.29288 0.25152
 H136 H 0.71187 0.21055 0.24755
 C137 C 0.22011 0.74988 0.22484
 C138 C 0.24146 0.77576 0.22631
 C139 C 0.26543 0.77562 0.25254
 C140 C 0.26907 0.74973 0.27702
 C141 C 0.24748 0.72378 0.27578
 C142 C 0.22336 0.72421 0.24948
 H143 H 0.20633 0.70483 0.24864
 H144 H 0.28225 0.79519 0.25310
 C145 C 0.73021 0.25147 0.72514
 C146 C 0.75091 0.27787 0.72816
 C147 C 0.77377 0.27779 0.75548
 C148 C 0.77686 0.25151 0.77950
 C149 C 0.75617 0.22512 0.77645
 C150 C 0.73328 0.22523 0.74919
 H151 H 0.71699 0.20526 0.74733
 H152 H 0.79008 0.29773 0.75735
 C153 C 0.26733 0.75117 0.72008
 C154 C 0.24533 0.72554 0.72114
 C155 C 0.22102 0.72631 0.74733
 C156 C 0.21801 0.75198 0.77196
 C157 C 0.23967 0.77756 0.77055
 C158 C 0.26392 0.77704 0.74457
 H159 H 0.28104 0.79635 0.74412
 H160 H 0.20379 0.70712 0.74823
 C161 C 0.25442 0.27309 0.72540
 C162 C 0.28083 0.24715 0.72607
 C163 C 0.28039 0.22153 0.75065
 C164 C 0.25459 0.22141 0.77500
 C165 C 0.22883 0.24798 0.77535
 C166 C 0.22897 0.27329 0.75031
 H167 H 0.20901 0.29337 0.75017
 H168 H 0.30034 0.20140 0.75080
 C169 C 0.74616 0.72679 0.72553
 C170 C 0.72017 0.75314 0.72498
 C171 C 0.71975 0.77833 0.75016
 C172 C 0.74482 0.77817 0.77540
 C173 C 0.77142 0.75244 0.77500
 C174 C 0.77156 0.72697 0.75028
 H175 H 0.79167 0.70701 0.75031
 H176 H 0.69965 0.79828 0.75014
 C177 C 0.25310 0.11400 0.12372
 C178 C 0.28192 0.09364 0.11397
 C179 C 0.28054 0.06970 0.08790
 C180 C 0.25028 0.06539 0.07113
 C181 C 0.22144 0.08563 0.08095
 C182 C 0.22286 0.10972 0.10682
 C183 C 0.25459 0.13988 0.15106
 C184 C 0.22798 0.14651 0.17445
 C185 C 0.22876 0.17179 0.19916
 C186 C 0.25611 0.19096 0.20099
 C187 C 0.28315 0.18379 0.17845
 C188 C 0.28234 0.15862 0.15361
 H189 H 0.30317 0.05437 0.08110
 H190 H 0.19777 0.08308 0.06840
 H191 H 0.20781 0.17672 0.21661
 H192 H 0.30442 0.19843 0.17939
 H193 H 0.20032 0.12537 0.11320
 H194 H 0.20653 0.13214 0.17369
 H195 H 0.30551 0.09592 0.12676
 H196 H 0.30306 0.15450 0.13578
 C197 C 0.74796 0.62043 0.62475
 C198 C 0.77756 0.60083 0.61603
 C199 C 0.77757 0.57636 0.59039
 C200 C 0.74793 0.57076 0.57307
 C201 C 0.71829 0.59019 0.58190
 C202 C 0.71833 0.61483 0.60735
 C203 C 0.74803 0.64687 0.65157
 C204 C 0.72095 0.65288 0.67449
 C205 C 0.72058 0.67847 0.69894
 C206 C 0.74724 0.69852 0.70093
 C207 C 0.77465 0.69213 0.67874
 C208 C 0.77498 0.66667 0.65416
 H209 H 0.80077 0.56164 0.58434
 H210 H 0.69508 0.58660 0.56888
 H211 H 0.69938 0.68284 0.71616
 H212 H 0.79537 0.70748 0.67985
 H213 H 0.69522 0.62987 0.61300
 H214 H 0.70011 0.63770 0.67362
 H215 H 0.80070 0.60414 0.62929
 H216 H 0.79598 0.66303 0.63663
 C217 C 0.74588 0.88202 0.12233
 C218 C 0.71970 0.90753 0.11973
 C219 C 0.72053 0.93237 0.09448
 C220 C 0.74795 0.93252 0.07197
 C221 C 0.77437 0.90725 0.07498
 C222 C 0.77317 0.88200 0.09970
 C223 C 0.74480 0.85535 0.14850
 C224 C 0.74891 0.82165 0.13854
 C225 C 0.74858 0.79636 0.16330
 C226 C 0.74528 0.80431 0.19858
 C227 C 0.74053 0.83809 0.20844
 C228 C 0.74007 0.86341 0.18356
 H229 H 0.69990 0.95165 0.09276
 H230 H 0.79572 0.90671 0.05785
 H231 H 0.75126 0.77055 0.15491
 H232 H 0.73784 0.84486 0.23545
 H233 H 0.79370 0.86261 0.10143
 H234 H 0.75212 0.81494 0.11155
 H235 H 0.69839 0.90790 0.13690
 H236 H 0.73688 0.88929 0.19174
 C237 C 0.25093 0.37739 0.62208
 C238 C 0.22391 0.40198 0.61934
 C239 C 0.22384 0.42676 0.59393
 C240 C 0.25116 0.42779 0.57142
 C241 C 0.27841 0.40344 0.57459
 C242 C 0.27811 0.37822 0.59946
 C243 C 0.25077 0.35077 0.64840
 C244 C 0.25563 0.31706 0.63858
 C245 C 0.25589 0.29182 0.66345
 C246 C 0.25244 0.29986 0.69871
 C247 C 0.24709 0.33364 0.70843
 C248 C 0.24603 0.35889 0.68344
 H249 H 0.20259 0.44532 0.59210
 H250 H 0.29970 0.40360 0.55746
 H251 H 0.25900 0.26598 0.65516
 H252 H 0.24428 0.34049 0.73541
 H253 H 0.29926 0.35953 0.60130
 H254 H 0.25887 0.31030 0.61161
 H255 H 0.20266 0.40166 0.63651
 H256 H 0.24228 0.38478 0.69150
 C257 C 0.88721 0.24950 0.12461
 C258 C 0.90048 0.21948 0.10913
 C259 C 0.92558 0.21949 0.08411
 C260 C 0.93770 0.24963 0.07340
 C261 C 0.92448 0.27964 0.08902
 C262 C 0.89985 0.27951 0.11447
 C263 C 0.85998 0.24966 0.15077
 C264 C 0.83504 0.27664 0.15249
 C265 C 0.80948 0.27693 0.17695
 C266 C 0.80788 0.24998 0.19970
 C267 C 0.83254 0.22297 0.19821
 C268 C 0.85848 0.22288 0.17410
 H269 H 0.93494 0.19584 0.07267
 H270 H 0.93329 0.30337 0.08185
 H271 H 0.79048 0.29788 0.17766
 H272 H 0.83176 0.20208 0.21582
 H273 H 0.89088 0.30304 0.12635
 H274 H 0.83485 0.29735 0.13456
 H275 H 0.89103 0.19594 0.11579
 H276 H 0.87750 0.20198 0.17402
 C277 C 0.37503 0.75090 0.62074
 C278 C 0.38703 0.72130 0.60363
 C279 C 0.41259 0.72149 0.57913
 C280 C 0.42651 0.75133 0.57099
 C281 C 0.41466 0.78087 0.58818
 C282 C 0.38935 0.78063 0.61288
 C283 C 0.34749 0.75089 0.64640
 C284 C 0.32291 0.77814 0.64843
 C285 C 0.29707 0.77826 0.67255
 C286 C 0.29500 0.75097 0.69481
 C287 C 0.31946 0.72376 0.69302
 C288 C 0.34548 0.72371 0.66905
 H289 H 0.42106 0.69835 0.56617
 H290 H 0.42507 0.80422 0.58267
 H291 H 0.27832 0.79943 0.67351
 H292 H 0.31847 0.70265 0.71031
 H293 H 0.38118 0.80374 0.62602
 H294 H 0.32334 0.79921 0.63102
 H295 H 0.37625 0.69807 0.60866
 H296 H 0.36427 0.70259 0.66860
 C297 C 0.11686 0.75011 0.12065
 C298 C 0.10316 0.78033 0.10590
 C299 C 0.07807 0.78057 0.08092
 C300 C 0.06628 0.75051 0.06960
 C301 C 0.08021 0.72024 0.08421
 C302 C 0.10497 0.72008 0.10953
 C303 C 0.14334 0.74992 0.14754
 C304 C 0.16919 0.72378 0.14907
 C305 C 0.19392 0.72358 0.17445
 C306 C 0.19357 0.74973 0.19842
 C307 C 0.16794 0.77584 0.19708
 C308 C 0.14298 0.77588 0.17201
 H309 H 0.06824 0.80442 0.07023
 H310 H 0.07177 0.69653 0.07642
 H311 H 0.21366 0.70332 0.17505
 H312 H 0.16716 0.79607 0.21564
 H313 H 0.11446 0.69638 0.12073
 H314 H 0.17065 0.70369 0.13035
 H315 H 0.11211 0.80389 0.11330
 H316 H 0.12317 0.79605 0.17212
 C317 C 0.62698 0.25095 0.62119
 C318 C 0.61461 0.28056 0.60429
 C319 C 0.58920 0.28021 0.57973
 C320 C 0.57574 0.25020 0.57135
 C321 C 0.58811 0.22060 0.58819
 C322 C 0.61334 0.22099 0.61290
 C323 C 0.65381 0.25130 0.64753
 C324 C 0.67898 0.22461 0.64993
 C325 C 0.70380 0.22466 0.67515
 C326 C 0.70415 0.25155 0.69817
 C327 C 0.67917 0.27825 0.69585
 C328 C 0.65424 0.27815 0.67079
 H329 H 0.58035 0.30339 0.56703
 H330 H 0.57814 0.19710 0.58244
 H331 H 0.72295 0.20388 0.67653
 H332 H 0.67875 0.29898 0.71378
 H333 H 0.62186 0.19786 0.62586
 H334 H 0.67968 0.20380 0.63210
 H335 H 0.62489 0.30397 0.60969
 H336 H 0.63493 0.29879 0.67008
 C337 C 0.75476 0.12071 0.87856
 C338 C 0.78380 0.10027 0.88692
 C339 C 0.78300 0.07546 0.91219
 C340 C 0.75290 0.07007 0.92910
 C341 C 0.72372 0.09038 0.92009
 C342 C 0.72477 0.11566 0.89538
 C343 C 0.75572 0.14747 0.85249
 C344 C 0.76796 0.14011 0.81909
 C345 C 0.76792 0.16535 0.79418
 C346 C 0.75644 0.19837 0.80266
 C347 C 0.74467 0.20585 0.83615
 C348 C 0.74402 0.18052 0.86082
 H349 H 0.80599 0.06038 0.91825
 H350 H 0.70006 0.08716 0.93244
 H351 H 0.77706 0.15926 0.76839
 H352 H 0.73567 0.23125 0.84300
 H353 H 0.70205 0.13111 0.88912
 H354 H 0.77696 0.11473 0.81217
 H355 H 0.80722 0.10391 0.87427
 H356 H 0.73464 0.18670 0.88650
 C357 C 0.25066 0.61788 0.37733
 C358 C 0.27706 0.61306 0.40100
 C359 C 0.27755 0.58750 0.42558
 C360 C 0.25120 0.56694 0.42742
 C361 C 0.22466 0.57199 0.40386
 C362 C 0.22461 0.59701 0.37872
 C363 C 0.25011 0.64488 0.35143
 C364 C 0.24851 0.63752 0.31608
 C365 C 0.24810 0.66312 0.29156
 C366 C 0.24870 0.69657 0.30201
 C367 C 0.24950 0.70388 0.33752
 C368 C 0.25078 0.67819 0.36199
 H369 H 0.29820 0.58420 0.44358
 H370 H 0.20413 0.55639 0.40470
 H371 H 0.24746 0.65679 0.26438
 H372 H 0.24890 0.72948 0.34638
 H373 H 0.20399 0.60048 0.36071
 H374 H 0.24801 0.61191 0.30750
 H375 H 0.29740 0.62892 0.40021
 H376 H 0.25158 0.68434 0.38921
 C377 C 0.24014 0.87937 0.87562
 C378 C 0.27057 0.88556 0.89086
 C379 C 0.27174 0.91035 0.91601
 C380 C 0.24235 0.92924 0.92701
 C381 C 0.21180 0.92278 0.91173
 C382 C 0.21079 0.89832 0.88609
 C383 C 0.23918 0.85311 0.84889
 C384 C 0.22261 0.86002 0.81736
 C385 C 0.22288 0.83549 0.79168
 C386 C 0.23913 0.80358 0.79750
 C387 C 0.25524 0.79643 0.82909
 C388 C 0.25548 0.82109 0.85452
 H389 H 0.29577 0.91443 0.92701
 H390 H 0.18862 0.93672 0.91936
 H391 H 0.21036 0.84129 0.76735
 H392 H 0.26783 0.77184 0.83390
 H393 H 0.18700 0.89384 0.87479
 H394 H 0.21007 0.88460 0.81237
 H395 H 0.29357 0.87143 0.88297
 H396 H 0.26820 0.81511 0.87871
 C397 C 0.74900 0.38000 0.37932
 C398 C 0.77823 0.39501 0.38734
 C399 C 0.77783 0.42004 0.41238
 C400 C 0.74814 0.43088 0.42979
 C401 C 0.71882 0.41613 0.42163
 C402 C 0.71927 0.39087 0.39676
 C403 C 0.74963 0.35314 0.35287
 C404 C 0.72267 0.35132 0.33003
 C405 C 0.72352 0.32627 0.30493
 C406 C 0.75134 0.30265 0.30217
 C407 C 0.77830 0.30437 0.32478
 C408 C 0.77739 0.32925 0.35003
 H409 H 0.80079 0.43108 0.41790
 H410 H 0.69559 0.42383 0.43476
 H411 H 0.70265 0.32552 0.28739
 H412 H 0.79989 0.28620 0.32308
 H413 H 0.69643 0.37951 0.39157
 H414 H 0.70116 0.36961 0.33113
 H415 H 0.80140 0.38770 0.37395
 H416 H 0.79831 0.32956 0.36756
 C417 C 0.12390 0.25161 0.87790
 C418 C 0.12318 0.22436 0.90051
 C419 C 0.09798 0.22390 0.92533
 C420 C 0.07349 0.25105 0.92848
 C421 C 0.07436 0.27842 0.90595
 C422 C 0.09915 0.27852 0.88058
 C423 C 0.15065 0.25196 0.85176
 C424 C 0.14282 0.25674 0.81666
 C425 C 0.16822 0.25562 0.79186
 C426 C 0.20187 0.25017 0.80182
 C427 C 0.20961 0.24675 0.83715
 C428 C 0.18423 0.24707 0.86182
 H429 H 0.09797 0.20256 0.94247
 H430 H 0.05571 0.29961 0.90778
 H431 H 0.16159 0.25843 0.76482
 H432 H 0.23533 0.24360 0.84565
 H433 H 0.09937 0.29982 0.86342
 H434 H 0.11703 0.26052 0.80840
 H435 H 0.14198 0.20329 0.89873
 H436 H 0.19079 0.24380 0.88884
 C437 C 0.61695 0.75568 0.37783
 C438 C 0.61649 0.72842 0.40048
 C439 C 0.59114 0.72761 0.42508
 C440 C 0.56623 0.75441 0.42793
 C441 C 0.56688 0.78181 0.40541
 C442 C 0.59183 0.78225 0.38028
 C443 C 0.64368 0.75629 0.35175
 C444 C 0.63579 0.76085 0.31664
 C445 C 0.66115 0.75988 0.29183
 C446 C 0.69481 0.75477 0.30182
 C447 C 0.70262 0.75162 0.33714
 C448 C 0.67727 0.75180 0.36183
 H449 H 0.59129 0.70627 0.44223
 H450 H 0.54789 0.80272 0.40701
 H451 H 0.65450 0.76247 0.26478
 H452 H 0.72836 0.74868 0.34561
 H453 H 0.59184 0.80354 0.36307
 H454 H 0.60999 0.76431 0.30837
 H455 H 0.63559 0.70760 0.39886
 H456 H 0.68385 0.74870 0.38886
 C457 C 0.87774 0.75141 0.87592
 C458 C 0.89741 0.72177 0.88452
 C459 C 0.92198 0.72174 0.91002
 C460 C 0.92768 0.75139 0.92736
 C461 C 0.90824 0.78109 0.91863
 C462 C 0.88347 0.78108 0.89332
 C463 C 0.85113 0.75130 0.84923
 C464 C 0.84474 0.77851 0.82649
 C465 C 0.81919 0.77869 0.80201
 C466 C 0.79954 0.75170 0.79979
 C467 C 0.80626 0.72421 0.82188
 C468 C 0.83166 0.72408 0.84649
 H469 H 0.93670 0.69848 0.91597
 H470 H 0.91190 0.80432 0.93166
 H471 H 0.81459 0.79998 0.78490
 H472 H 0.79124 0.70323 0.82065
 H473 H 0.86842 0.80423 0.88779
 H474 H 0.85962 0.79959 0.82744
 H475 H 0.89407 0.69860 0.87126
 H476 H 0.83554 0.70295 0.86389
 C477 C 0.38768 0.24497 0.37565
 C478 C 0.40741 0.21563 0.38508
 C479 C 0.43149 0.21628 0.41102
 C480 C 0.43654 0.24633 0.42796
 C481 C 0.41693 0.27568 0.41846
 C482 C 0.39270 0.27499 0.39270
 C483 C 0.36168 0.24424 0.34846
 C484 C 0.35576 0.27101 0.32510
 C485 C 0.33039 0.27094 0.30049
 C486 C 0.31045 0.24416 0.29879
 C487 C 0.31687 0.21696 0.32132
 C488 C 0.34213 0.21706 0.34605
 H489 H 0.44635 0.19328 0.41759
 H490 H 0.42009 0.29920 0.43115
 H491 H 0.32601 0.29198 0.28302
 H492 H 0.30162 0.19614 0.32044
 H493 H 0.37753 0.29791 0.38652
 H494 H 0.37077 0.29201 0.32581
 H495 H 0.40452 0.19219 0.37214
 H496 H 0.34574 0.19626 0.36389
 C497 C 0.74238 0.88185 0.87880
 C498 C 0.76972 0.88132 0.90134
 C499 C 0.77141 0.90650 0.92595
 C500 C 0.74545 0.93226 0.92891
 C501 C 0.71791 0.93258 0.90657
 C502 C 0.71658 0.90776 0.88142
 C503 C 0.74106 0.85541 0.85253
 C504 C 0.73668 0.86374 0.81749
 C505 C 0.73753 0.83862 0.79245
 C506 C 0.74235 0.80480 0.80213
 C507 C 0.74519 0.79655 0.83738
 C508 C 0.74510 0.82165 0.86231
 H509 H 0.79284 0.90560 0.94295
 H510 H 0.69764 0.95224 0.90827
 H511 H 0.73517 0.84558 0.76545
 H512 H 0.74794 0.77067 0.84558
 H513 H 0.69525 0.90851 0.86429
 H514 H 0.73360 0.88969 0.80946
 H515 H 0.78996 0.86163 0.89956
 H516 H 0.74808 0.81474 0.88928
 C517 C 0.25222 0.37627 0.37750
 C518 C 0.27915 0.37724 0.40040
 C519 C 0.27920 0.40266 0.42506
 C520 C 0.25195 0.42708 0.42778
 C521 C 0.22489 0.42590 0.40502
 C522 C 0.22521 0.40093 0.37981
 C523 C 0.25231 0.34946 0.35135
 C524 C 0.24770 0.35735 0.31623
 C525 C 0.24880 0.33196 0.29142
 C526 C 0.25403 0.29821 0.30138
 C527 C 0.25740 0.29040 0.33671
 C528 C 0.25712 0.31579 0.36140
 H529 H 0.30030 0.40291 0.44239
 H530 H 0.20364 0.44449 0.40648
 H531 H 0.24606 0.33867 0.26439
 H532 H 0.26043 0.26461 0.34522
 H533 H 0.20415 0.40053 0.36245
 H534 H 0.24398 0.38320 0.30796
 H535 H 0.30029 0.35851 0.39891
 H536 H 0.26026 0.30917 0.38843
 C537 C 0.25222 0.11480 0.87546
 C538 C 0.28149 0.09595 0.88649
 C539 C 0.28029 0.07159 0.91217
 C540 C 0.24968 0.06511 0.92727
 C541 C 0.22035 0.08385 0.91598
 C542 C 0.22166 0.10848 0.89062
 C543 C 0.25354 0.14121 0.84861
 C544 C 0.22758 0.14714 0.82437
 C545 C 0.22820 0.17281 0.80006
 C546 C 0.25485 0.19294 0.79935
 C547 C 0.28126 0.18657 0.82274
 C548 C 0.28052 0.16113 0.84731
 H549 H 0.30344 0.05764 0.91990
 H550 H 0.19629 0.07985 0.92701
 H551 H 0.20775 0.17720 0.78194
 H552 H 0.30195 0.20200 0.82264
 H553 H 0.19869 0.12295 0.88330
 H554 H 0.20678 0.13189 0.82410
 H555 H 0.30539 0.09973 0.87500
 H556 H 0.30068 0.15766 0.86584
 C557 C 0.74787 0.61956 0.37615
 C558 C 0.77744 0.60004 0.38513
 C559 C 0.77734 0.57566 0.41091
 C560 C 0.74763 0.57000 0.42812
 C561 C 0.71798 0.58923 0.41896
 C562 C 0.71812 0.61383 0.39337
 C563 C 0.74817 0.64608 0.34932
 C564 C 0.72124 0.65230 0.32629
 C565 C 0.72121 0.67785 0.30173
 C566 C 0.74807 0.69766 0.29971
 C567 C 0.77530 0.69109 0.32207
 C568 C 0.77528 0.66570 0.34676
 H569 H 0.80056 0.56107 0.41718
 H570 H 0.69470 0.58559 0.43188
 H571 H 0.70012 0.68235 0.28442
 H572 H 0.79617 0.70626 0.32100
 H573 H 0.69501 0.62877 0.38753
 H574 H 0.70025 0.63730 0.32711
 H575 H 0.80067 0.60337 0.37201
 H576 H 0.79618 0.66197 0.36438
 C577 C 0.11580 0.75139 0.87707
 C578 C 0.10157 0.78153 0.89149
 C579 C 0.07669 0.78150 0.91669
 C580 C 0.06557 0.75124 0.92844
 C581 C 0.07999 0.72106 0.91408
 C582 C 0.10464 0.72117 0.88863
 C583 C 0.14209 0.75150 0.85003
 C584 C 0.16885 0.72629 0.84921
 C585 C 0.19341 0.72634 0.82365
 C586 C 0.19188 0.75177 0.79875
 C587 C 0.16532 0.77694 0.79938
 C588 C 0.14060 0.77679 0.82472
 H589 H 0.06644 0.80528 0.92715
 H590 H 0.07209 0.69721 0.92223
 H591 H 0.21386 0.70679 0.82352
 H592 H 0.16359 0.79652 0.78002
 H593 H 0.11464 0.69753 0.87768
 H594 H 0.17107 0.70675 0.86858
 H595 H 0.10997 0.80523 0.88363
 H596 H 0.12006 0.79621 0.82416
 C597 C 0.62513 0.25092 0.37747
 C598 C 0.62371 0.22289 0.39893
 C599 C 0.59861 0.22221 0.42385
 C600 C 0.57485 0.24983 0.42819
 C601 C 0.57644 0.27797 0.40684
 C602 C 0.60118 0.27837 0.38148
 C603 C 0.65161 0.25152 0.35102
 C604 C 0.64346 0.26017 0.31666
 C605 C 0.66848 0.26024 0.29158
 C606 C 0.70201 0.25235 0.30068
 C607 C 0.71025 0.24396 0.33500
 C608 C 0.68520 0.24331 0.35996
 H609 H 0.59806 0.20025 0.44003
 H610 H 0.55840 0.29956 0.40956
 H611 H 0.66179 0.26677 0.26516
 H612 H 0.73605 0.23777 0.34236
 H613 H 0.60193 0.30032 0.36532
 H614 H 0.61770 0.26639 0.30919
 H615 H 0.64183 0.20136 0.39613
 H616 H 0.69205 0.23678 0.38634
 C617 C 0.88112 0.25095 0.88248
 C618 C 0.89377 0.22104 0.89863
 C619 C 0.91960 0.22092 0.92275
 C620 C 0.93321 0.25075 0.93149
 C621 C 0.92049 0.28069 0.91552
 C622 C 0.89482 0.28077 0.89120
 C623 C 0.85401 0.25097 0.85639
 C624 C 0.82873 0.27762 0.85461
 C625 C 0.80361 0.27779 0.82966
 C626 C 0.80308 0.25118 0.80631
 C627 C 0.82819 0.22456 0.80799
 C628 C 0.85341 0.22444 0.83276
 H629 H 0.92867 0.19748 0.93482
 H630 H 0.93055 0.30407 0.92159
 H631 H 0.78439 0.29854 0.82873
 H632 H 0.82854 0.20409 0.78975
 H633 H 0.88607 0.30415 0.87885
 H634 H 0.82818 0.29820 0.87271
 H635 H 0.88343 0.19772 0.89295
 H636 H 0.87281 0.20386 0.83293
 C637 C 0.37584 0.75043 0.37730
 C638 C 0.38788 0.72088 0.39452
 C639 C 0.41321 0.72120 0.41921
 C640 C 0.42689 0.75113 0.42747
 C641 C 0.41497 0.78064 0.41021
 C642 C 0.38987 0.78026 0.38533
 C643 C 0.34858 0.75024 0.35135
 C644 C 0.32387 0.77736 0.34897
 C645 C 0.29826 0.77724 0.32463
 C646 C 0.29655 0.74986 0.30247
 C647 C 0.32117 0.72280 0.30458
 C648 C 0.34695 0.72298 0.32877
 H649 H 0.42172 0.69808 0.43221
 H650 H 0.42517 0.80406 0.41581
 H651 H 0.27940 0.79830 0.32345
 H652 H 0.32049 0.70162 0.28737
 H653 H 0.38166 0.80335 0.37213
 H654 H 0.32400 0.79849 0.36629
 H655 H 0.37731 0.69756 0.38940
 H656 H 0.36584 0.70196 0.32945
 C657 C 0.24095 0.87770 0.12113
 C658 C 0.21354 0.90156 0.11640
 C659 C 0.21428 0.92603 0.09073
 C660 C 0.24270 0.92743 0.06982
 C661 C 0.27020 0.90369 0.07482
 C662 C 0.26921 0.87890 0.10003
 C663 C 0.24025 0.85158 0.14801
 C664 C 0.24936 0.81792 0.13977
 C665 C 0.24938 0.79325 0.16523
 C666 C 0.24071 0.80192 0.19938
 C667 C 0.23170 0.83551 0.20776
 C668 C 0.23114 0.86016 0.18216
 H669 H 0.19277 0.94408 0.08751
 H670 H 0.29240 0.90410 0.05903
 H671 H 0.25647 0.76741 0.15841
 H672 H 0.22495 0.84254 0.23404
 H673 H 0.29073 0.86089 0.10340
 H674 H 0.25626 0.81071 0.11357
 H675 H 0.19142 0.90097 0.13228
 H676 H 0.22425 0.88600 0.18911
 C677 C 0.74923 0.38178 0.62491
 C678 C 0.72099 0.40467 0.62050
 C679 C 0.72053 0.42928 0.59487
 C680 C 0.74855 0.43180 0.57365
 C681 C 0.77694 0.40912 0.57840
 C682 C 0.77716 0.38416 0.60359
 C683 C 0.74954 0.35524 0.65146
 C684 C 0.75936 0.32185 0.64266
 C685 C 0.75964 0.29671 0.66764
 C686 C 0.75055 0.30463 0.70187
 C687 C 0.74108 0.33798 0.71085
 C688 C 0.74023 0.36310 0.68572
 H689 H 0.69836 0.44650 0.59185
 H690 H 0.79886 0.41041 0.56236
 H691 H 0.76709 0.27106 0.66035
 H692 H 0.73398 0.34445 0.73718
 H693 H 0.79928 0.36688 0.60668
 H694 H 0.76642 0.31521 0.61636
 H695 H 0.69910 0.40314 0.63654
 H696 H 0.73278 0.38872 0.69309
 C697 C 0.75707 0.12178 0.12141
 C698 C 0.78316 0.11590 0.09746
 C699 C 0.78234 0.09049 0.07288
 C700 C 0.75501 0.07119 0.07139
 C701 C 0.72883 0.07730 0.09526
 C702 C 0.73005 0.10214 0.12032
 C703 C 0.75777 0.14850 0.14743
 C704 C 0.75456 0.14116 0.18265
 C705 C 0.75453 0.16652 0.20729
 C706 C 0.75717 0.19976 0.19711
 C707 C 0.75984 0.20712 0.16174
 C708 C 0.76068 0.18160 0.13714
 H709 H 0.80274 0.08634 0.05463
 H710 H 0.70754 0.06267 0.09471
 H711 H 0.75245 0.16020 0.23438
 H712 H 0.76087 0.23263 0.15308
 H713 H 0.70963 0.10643 0.13853
 H714 H 0.75232 0.11573 0.19105
 H715 H 0.80426 0.13079 0.09802
 H716 H 0.76271 0.18778 0.11001
 C717 C 0.24907 0.61909 0.62010
 C718 C 0.27576 0.61407 0.59675
 C719 C 0.27657 0.58830 0.57239
 C720 C 0.25025 0.56771 0.57044
 C721 C 0.22341 0.57298 0.59366
 C722 C 0.22304 0.59821 0.61858
 C723 C 0.24824 0.64626 0.64586
 C724 C 0.24593 0.63914 0.68123
 C725 C 0.24538 0.66485 0.70562
 C726 C 0.24653 0.69822 0.69503
 C727 C 0.24799 0.70531 0.65947
 C728 C 0.24942 0.67950 0.63515
 H729 H 0.29745 0.58485 0.55466
 H730 H 0.20288 0.55737 0.59275
 H731 H 0.24423 0.65865 0.73281
 H732 H 0.24782 0.73084 0.65046
 H733 H 0.20218 0.60181 0.63634
 H734 H 0.24504 0.61360 0.68996
 H735 H 0.29611 0.62991 0.59761
 H736 H 0.25077 0.68551 0.60792
 C737 C 0.87949 0.75039 0.12462
 C738 C 0.89889 0.72077 0.11544
 C739 C 0.92310 0.72094 0.08954
 C740 C 0.92867 0.75077 0.07240
 C741 C 0.90950 0.78044 0.08173
 C742 C 0.88510 0.78023 0.10743
 C743 C 0.85319 0.75008 0.15161
 C744 C 0.84727 0.77699 0.17476
 C745 C 0.82178 0.77716 0.19933
 C746 C 0.80174 0.75045 0.20122
 C747 C 0.80808 0.72317 0.17883
 C748 C 0.83344 0.72305 0.15413
 H749 H 0.93763 0.69770 0.08313
 H750 H 0.91308 0.80380 0.06887
 H751 H 0.81744 0.79827 0.21668
 H752 H 0.79274 0.70242 0.17983
 H753 H 0.87022 0.80337 0.11342
 H754 H 0.86240 0.79789 0.17397
 H755 H 0.89560 0.69746 0.12851
 H756 H 0.83699 0.70216 0.13643
 C757 C 0.38736 0.24673 0.62531
 C758 C 0.40705 0.21727 0.61620
 C759 C 0.43135 0.21764 0.59038
 C760 C 0.43671 0.24753 0.57324
 C761 C 0.41722 0.27705 0.58248
 C762 C 0.39275 0.27663 0.60811
 C763 C 0.36099 0.24623 0.65225
 C764 C 0.35466 0.27321 0.67526
 C765 C 0.32907 0.27324 0.69971
 C766 C 0.30930 0.24632 0.70165
 C767 C 0.31605 0.21897 0.67942
 C768 C 0.34152 0.21899 0.65483
 H769 H 0.44611 0.19452 0.58402
 H770 H 0.42060 0.30045 0.56962
 H771 H 0.32444 0.29441 0.71693
 H772 H 0.30094 0.19804 0.68044
 H773 H 0.37765 0.29966 0.61402
 H774 H 0.36956 0.29429 0.67445
 H775 H 0.40394 0.19392 0.62927
 H776 H 0.34537 0.19803 0.63726
 C777 C 0.12614 0.25084 0.12199
 C778 C 0.10155 0.27789 0.11950
 C779 C 0.07661 0.27800 0.09438
 C780 C 0.07544 0.25069 0.07188
 C781 C 0.09984 0.22344 0.07472
 C782 C 0.12521 0.22369 0.09932
 C783 C 0.15278 0.25087 0.14817
 C784 C 0.18640 0.24586 0.13821
 C785 C 0.21164 0.24536 0.16299
 C786 C 0.20367 0.24871 0.19828
 C787 C 0.17000 0.25427 0.20813
 C788 C 0.14476 0.25556 0.18324
 H789 H 0.05801 0.29924 0.09280
 H790 H 0.09956 0.20215 0.05759
 H791 H 0.23742 0.24206 0.15463
 H792 H 0.16323 0.25701 0.23515
 H793 H 0.14390 0.20252 0.10097
 H794 H 0.19308 0.24264 0.11121
 H795 H 0.10195 0.29910 0.13671
 H796 H 0.11893 0.25942 0.19140
 C797 C 0.61623 0.75586 0.62163
 C798 C 0.59108 0.78240 0.61899
 C799 C 0.56632 0.78194 0.59370
 C800 C 0.56586 0.75454 0.57120
 C801 C 0.59079 0.72778 0.57422
 C802 C 0.61597 0.72862 0.59897
 C803 C 0.64276 0.75649 0.64792
 C804 C 0.67645 0.75203 0.63811
 C805 C 0.70159 0.75196 0.66298
 C806 C 0.69349 0.75519 0.69825
 C807 C 0.65973 0.76023 0.70796
 C808 C 0.63457 0.76110 0.68297
 H809 H 0.54732 0.80282 0.59197
 H810 H 0.59110 0.70644 0.55710
 H811 H 0.72739 0.74909 0.65468
 H812 H 0.65283 0.76286 0.73495
 H813 H 0.63508 0.70782 0.60073
 H814 H 0.68327 0.74889 0.61114
 H815 H 0.59093 0.80368 0.63618
 H816 H 0.60870 0.76453 0.69105
   
