data_POSCAR
  _audit_creation_date              2014-09-24
  _audit_creation_method            'ToBaCCo'
  _symmetry_space_group_name_H-M    'P1'
  _symmetry_Int_Tables_number       1
  _symmetry_cell_setting            triclinic
  loop_
  _symmetry_equiv_pos_as_xyz
 x,y,z
_cell_length_a 47.0507
_cell_length_b 25.0136
_cell_length_c 42.0733
_cell_angle_alpha 89.892700
_cell_angle_beta 90.006400
_cell_angle_gamma 90.215000
loop_
  _atom_site_label
  _atom_site_type_symbol
  _atom_site_fract_x
  _atom_site_fract_y
  _atom_site_fract_z
C1 C 0.25148 0.27608 0.24918
 C2 C 0.24815 0.22208 0.25217
 C3 C 0.22487 0.19302 0.23560
 C4 C 0.26846 0.19079 0.27152
 C5 C 0.27119 0.30568 0.27031
 C6 C 0.23506 0.30690 0.22535
 C7 C 0.19689 0.21163 0.23734
 C8 C 0.17590 0.19072 0.21752
 C9 C 0.18190 0.14876 0.19600
 C10 C 0.20965 0.12673 0.19699
 C11 C 0.23083 0.14902 0.21626
 C12 C 0.26016 0.16971 0.30100
 C13 C 0.28051 0.14829 0.32159
 C14 C 0.30923 0.14643 0.31253
 C15 C 0.31718 0.16493 0.28229
 C16 C 0.29697 0.18736 0.26203
 C17 C 0.29457 0.33344 0.25771
 C18 C 0.31509 0.35535 0.27802
 C19 C 0.31243 0.34960 0.31115
 C20 C 0.28823 0.32414 0.32362
 C21 C 0.26768 0.30281 0.30338
 C22 C 0.23587 0.29232 0.19317
 C23 C 0.21647 0.31406 0.17168
 C24 C 0.19603 0.35103 0.18196
 C25 C 0.19660 0.36832 0.21377
 C26 C 0.21609 0.34659 0.23526
 H27 H 0.19147 0.24392 0.25332
 H28 H 0.15474 0.20689 0.22010
 H29 H 0.21622 0.09542 0.18095
 H30 H 0.25229 0.13368 0.21475
 H31 H 0.23824 0.17246 0.30869
 H32 H 0.27398 0.13400 0.34479
 H33 H 0.30367 0.20376 0.23938
 H34 H 0.29752 0.33612 0.23223
 H35 H 0.33358 0.37479 0.26786
 H36 H 0.28542 0.32012 0.34906
 H37 H 0.24943 0.28248 0.31349
 H38 H 0.25063 0.26215 0.18505
 H39 H 0.21700 0.30091 0.14719
 H40 H 0.18105 0.39654 0.22245
 H41 H 0.21515 0.35822 0.26002
 H42 H 0.33924 0.16411 0.27494
 C43 C 0.75092 0.22150 0.25035
 C44 C 0.74853 0.27560 0.24777
 C45 C 0.76901 0.30659 0.22836
 C46 C 0.72587 0.30502 0.26476
 C47 C 0.73393 0.19119 0.27396
 C48 C 0.77046 0.19153 0.22938
 C49 C 0.79760 0.30956 0.23766
 C50 C 0.81786 0.33202 0.21735
 C51 C 0.80986 0.35096 0.18724
 C52 C 0.78109 0.34938 0.17833
 C53 C 0.76071 0.32795 0.19899
 C54 C 0.73290 0.34438 0.28712
 C55 C 0.71183 0.36627 0.30655
 C56 C 0.68344 0.34909 0.30380
 C57 C 0.67628 0.31187 0.28014
 C58 C 0.69728 0.29038 0.26062
 C59 C 0.71335 0.15436 0.26383
 C60 C 0.69395 0.13279 0.28558
 C61 C 0.69508 0.14728 0.31788
 C62 C 0.71692 0.18167 0.32815
 C63 C 0.73615 0.20343 0.30639
 C64 C 0.76726 0.19467 0.19628
 C65 C 0.78796 0.17369 0.17623
 C66 C 0.81201 0.14835 0.18892
 C67 C 0.81431 0.14223 0.22205
 C68 C 0.79364 0.16378 0.24218
 H69 H 0.80430 0.29290 0.26022
 H70 H 0.83995 0.33263 0.22457
 H71 H 0.77452 0.36401 0.15524
 H72 H 0.73873 0.32551 0.19143
 H73 H 0.75486 0.35616 0.29062
 H74 H 0.71791 0.39479 0.32466
 H75 H 0.69140 0.26073 0.24306
 H76 H 0.71128 0.14473 0.23884
 H77 H 0.67727 0.10679 0.27682
 H78 H 0.71880 0.19265 0.35295
 H79 H 0.75211 0.23149 0.31461
 H80 H 0.74919 0.21514 0.18603
 H81 H 0.78543 0.17800 0.15077
 H82 H 0.83268 0.12288 0.23238
 H83 H 0.79638 0.16099 0.26768
 H84 H 0.65449 0.29873 0.27712
 C85 C 0.74930 0.77788 0.75211
 C86 C 0.75040 0.72353 0.75131
 C87 C 0.73008 0.69243 0.73194
 C88 C 0.77181 0.69385 0.76993
 C89 C 0.76718 0.80857 0.77466
 C90 C 0.73018 0.80763 0.73046
 C91 C 0.70125 0.69094 0.74038
 C92 C 0.68129 0.66823 0.71983
 C93 C 0.68989 0.64763 0.69038
 C94 C 0.71886 0.64772 0.68239
 C95 C 0.73891 0.66936 0.70328
 C96 C 0.76370 0.66638 0.79757
 C97 C 0.78439 0.64568 0.81796
 C98 C 0.81333 0.65090 0.81042
 C99 C 0.82133 0.67600 0.78193
 C100 C 0.80068 0.69780 0.76194
 C101 C 0.78822 0.84345 0.76342
 C102 C 0.80806 0.86568 0.78441
 C103 C 0.80745 0.85293 0.81719
 C104 C 0.78490 0.82047 0.82832
 C105 C 0.76494 0.79910 0.80737
 C106 C 0.73310 0.80228 0.69743
 C107 C 0.71250 0.82291 0.67702
 C108 C 0.68885 0.85010 0.68925
 C109 C 0.68687 0.85829 0.72224
 C110 C 0.70741 0.83711 0.74272
 H111 H 0.69417 0.70896 0.76238
 H112 H 0.65901 0.66874 0.72630
 H113 H 0.72584 0.63183 0.65978
 H114 H 0.76109 0.67066 0.69641
 H115 H 0.74149 0.66344 0.80412
 H116 H 0.77790 0.62629 0.83984
 H117 H 0.80720 0.71921 0.74073
 H118 H 0.79022 0.85119 0.73817
 H119 H 0.82501 0.88954 0.77427
 H120 H 0.78225 0.81180 0.85335
 H121 H 0.74823 0.77351 0.81657
 H122 H 0.75084 0.78039 0.68756
 H123 H 0.71481 0.81693 0.65166
 H124 H 0.66881 0.87903 0.73225
 H125 H 0.70485 0.84154 0.76816
 H126 H 0.84357 0.68053 0.77584
 C127 C 0.24909 0.72270 0.74831
 C128 C 0.24487 0.77628 0.74440
 C129 C 0.26481 0.80814 0.72477
 C130 C 0.22143 0.80473 0.76084
 C131 C 0.23344 0.69200 0.77297
 C132 C 0.26938 0.69366 0.72767
 C133 C 0.29315 0.81407 0.73453
 C134 C 0.31311 0.83745 0.71426
 C135 C 0.30509 0.85449 0.68377
 C136 C 0.27652 0.85008 0.67439
 C137 C 0.25639 0.82767 0.69498
 C138 C 0.22718 0.84991 0.77942
 C139 C 0.20607 0.87166 0.79884
 C140 C 0.17876 0.84805 0.80053
 C141 C 0.17276 0.80486 0.78003
 C142 C 0.19365 0.78425 0.76005
 C143 C 0.21592 0.64911 0.76430
 C144 C 0.19688 0.62702 0.78627
 C145 C 0.19483 0.64762 0.81750
 C146 C 0.21434 0.68793 0.82649
 C147 C 0.23350 0.70942 0.80460
 C148 C 0.26613 0.69533 0.69453
 C149 C 0.28727 0.67518 0.67473
 C150 C 0.31180 0.65199 0.68770
 C151 C 0.31423 0.64728 0.72091
 C152 C 0.29314 0.66809 0.74078
 H153 H 0.29992 0.79893 0.75744
 H154 H 0.33507 0.84021 0.72186
 H155 H 0.26995 0.86320 0.65098
 H156 H 0.23460 0.82303 0.68712
 H157 H 0.24844 0.86662 0.78024
 H158 H 0.21207 0.90437 0.81426
 H159 H 0.18844 0.75065 0.74491
 H160 H 0.21563 0.63508 0.73996
 H161 H 0.18233 0.59680 0.77764
 H162 H 0.21509 0.70313 0.85053
 H163 H 0.24748 0.74161 0.81194
 H164 H 0.24763 0.71395 0.68402
 H165 H 0.28464 0.67833 0.64922
 H166 H 0.33296 0.62953 0.73145
 H167 H 0.29593 0.66637 0.76632
 H168 H 0.15178 0.78708 0.77896
 O169 O 1.02739 -0.06394 -0.01803
 O170 O 0.97444 -0.01878 0.04043
 O171 O 0.97228 -0.06220 -0.01555
 O172 O 1.02986 -0.02027 0.03825
 O173 O 1.02835 0.06106 0.01784
 O174 O 0.97347 0.01689 -0.03879
 O175 O 0.97340 0.06036 0.01726
 O176 O 1.02895 0.01731 -0.03851
 Cu177 Cu 1.00106 -0.04934 0.01351
 Cu178 Cu 1.00113 0.04690 -0.01284
 C179 C 1.03732 -0.03091 -0.03816
 C180 C 0.96460 0.02837 0.03862
 C181 C 0.96315 -0.02998 -0.03654
 C182 C 1.03850 0.02790 0.03767
 O183 O 0.52826 0.43923 0.48248
 O184 O 0.47397 0.48450 0.53935
 O185 O 0.47317 0.44047 0.48339
 O186 O 0.52912 0.48307 0.53890
 O187 O 0.52994 0.56293 0.51648
 O188 O 0.47388 0.52010 0.46080
 O189 O 0.47443 0.56431 0.51698
 O190 O 0.52919 0.51955 0.46067
 Cu191 Cu 0.50111 0.45381 0.51327
 Cu192 Cu 0.50185 0.54979 0.48655
 C193 C 0.53798 0.47165 0.46185
 C194 C 0.46486 0.53218 0.53786
 C195 C 0.46401 0.47280 0.46249
 C196 C 0.53910 0.53023 0.53719
 O197 O 0.02908 0.48232 -0.03855
 O198 O -0.02770 0.43801 0.01582
 O199 O -0.02602 0.48348 -0.03992
 O200 O 0.02795 0.43676 0.01699
 O201 O 0.02903 0.51671 0.03897
 O202 O -0.02705 0.56176 -0.01582
 O203 O -0.02623 0.51627 0.03990
 O204 O 0.02852 0.56222 -0.01649
 Cu205 Cu 0.00076 0.45212 -0.01364
 Cu206 Cu 0.00104 0.54721 0.01392
 C207 C 0.03845 0.52994 -0.03693
 C208 C -0.03654 0.46948 0.03730
 C209 C -0.03590 0.53047 -0.03745
 C210 C 0.03809 0.46901 0.03739
 O211 O 0.52822 0.98298 0.46265
 O212 O 0.47049 0.93990 0.51603
 O213 O 0.47301 0.98475 0.46036
 O214 O 0.52601 0.93819 0.51844
 O215 O 0.52677 1.01814 0.54043
 O216 O 0.47202 1.06341 0.48400
 O217 O 0.47162 1.01854 0.53970
 O218 O 0.52773 1.06298 0.48457
 Cu219 Cu 0.49944 0.95346 0.48713
 Cu220 Cu 0.49957 1.04882 0.51436
 C221 C 0.53783 1.03041 0.46440
 C222 C 0.46126 0.97180 0.53706
 C223 C 0.46315 1.03179 0.46254
 C224 C 0.53566 0.97029 0.53923
 C225 C 1.12145 0.09725 0.12923
 C226 C 1.14263 0.06183 0.13932
 C227 C 1.16292 0.07911 0.16152
 C228 C 1.16193 0.13138 0.17464
 C229 C 1.13979 0.16579 0.16421
 C230 C 1.11994 0.14922 0.14141
 C231 C 1.10041 0.07956 0.10544
 C232 C 1.07977 0.11569 0.09459
 C233 C 1.05996 0.09881 0.07180
 C234 C 1.06021 0.04581 0.06061
 C235 C 1.08084 0.00990 0.07195
 C236 C 1.10128 0.02683 0.09408
 C237 C 1.09878 0.18407 0.13023
 C238 C 1.07920 0.16775 0.10700
 C239 C 1.14300 0.00950 0.12716
 C240 C 1.12256 -0.00781 0.10509
 H241 H 1.09740 0.22441 0.13942
 H242 H 1.06335 0.19599 0.09890
 H243 H 1.15915 -0.01842 0.13486
 H244 H 1.12352 -0.04855 0.09647
 H245 H 1.17841 0.05029 0.16964
 H246 H 1.13879 0.20697 0.17197
 H247 H 1.04392 0.12641 0.06336
 H248 H 1.08118 -0.03086 0.06324
 C249 C 0.62641 0.59596 0.62460
 C250 C 0.64568 0.63628 0.61561
 C251 C 0.66688 0.65216 0.63706
 C252 C 0.66844 0.62868 0.66742
 C253 C 0.64891 0.58861 0.67617
 C254 C 0.62798 0.57165 0.65468
 C255 C 0.60407 0.57909 0.60214
 C256 C 0.58516 0.53806 0.61089
 C257 C 0.56411 0.52183 0.58935
 C258 C 0.56153 0.54717 0.55958
 C259 C 0.58047 0.58867 0.55132
 C260 C 0.60200 0.60441 0.57241
 C261 C 0.60855 0.53102 0.66265
 C262 C 0.58760 0.51429 0.64105
 C263 C 0.64318 0.66017 0.58550
 C264 C 0.62158 0.64478 0.56435
 H265 H 0.60958 0.51189 0.68574
 H266 H 0.57308 0.48270 0.64809
 H267 H 0.65794 0.69126 0.57830
 H268 H 0.62026 0.66451 0.54145
 H269 H 0.68174 0.68356 0.63054
 H270 H 0.65019 0.57058 0.69959
 H271 H 0.54946 0.49014 0.59593
 H272 H 0.57870 0.60805 0.52834
 C273 C -0.12523 0.40256 0.12294
 C274 C -0.12740 0.42680 0.15293
 C275 C -0.14883 0.40995 0.17388
 C276 C -0.16824 0.36995 0.16471
 C277 C -0.16605 0.34656 0.13442
 C278 C -0.14438 0.36240 0.11350
 C279 C -0.10240 0.41943 0.10105
 C280 C -0.09979 0.39432 0.07137
 C281 C -0.07789 0.41025 0.05074
 C282 C -0.05910 0.45173 0.05941
 C283 C -0.06217 0.47669 0.08919
 C284 C -0.08362 0.46033 0.11024
 C285 C -0.14129 0.33863 0.08347
 C286 C -0.11925 0.35406 0.06285
 C287 C -0.10807 0.46729 0.16137
 C288 C -0.08664 0.48397 0.14032
 H289 H -0.15595 0.30768 0.07590
 H290 H -0.11753 0.33447 0.03999
 H291 H -0.10956 0.48636 0.18441
 H292 H -0.07223 0.51548 0.14771
 H293 H -0.15057 0.42798 0.19721
 H294 H -0.18079 0.31521 0.12754
 H295 H -0.07578 0.39112 0.02777
 H296 H -0.04768 0.50840 0.09610
 C297 C 0.37052 0.90672 0.62039
 C298 C 0.36744 0.93199 0.64998
 C299 C 0.34570 0.91520 0.67052
 C300 C 0.32691 0.87414 0.66137
 C301 C 0.32994 0.84985 0.63142
 C302 C 0.35192 0.86568 0.61091
 C303 C 0.39381 0.92326 0.59905
 C304 C 0.39737 0.89706 0.56983
 C305 C 0.41976 0.91257 0.54979
 C306 C 0.43814 0.95463 0.55857
 C307 C 0.43411 0.98070 0.58786
 C308 C 0.41213 0.96483 0.60834
 C309 C 0.35592 0.84090 0.58132
 C310 C 0.37838 0.85608 0.56121
 C311 C 0.38628 0.97323 0.65850
 C312 C 0.40817 0.98956 0.63795
 H313 H 0.34169 0.80927 0.57372
 H314 H 0.38083 0.83567 0.53869
 H315 H 0.38408 0.99307 0.68123
 H316 H 0.42220 1.02162 0.64540
 H317 H 0.34332 0.93391 0.69359
 H318 H 0.31571 0.81766 0.62458
 H319 H 0.42261 0.89259 0.52718
 H320 H 0.44827 1.01288 0.59486
 C321 C -0.12245 0.59954 -0.12476
 C322 C -0.12366 0.57700 -0.15531
 C323 C -0.14472 0.59412 -0.17656
 C324 C -0.16476 0.63246 -0.16710
 C325 C -0.16351 0.65427 -0.13633
 C326 C -0.14217 0.63830 -0.11512
 C327 C -0.10013 0.58219 -0.10245
 C328 C -0.09852 0.60559 -0.07217
 C329 C -0.07712 0.58913 -0.05112
 C330 C -0.05793 0.54873 -0.05994
 C331 C -0.06000 0.52543 -0.09031
 C332 C -0.08088 0.54244 -0.11180
 C333 C -0.14004 0.66042 -0.08454
 C334 C -0.11846 0.64463 -0.06350
 C335 C -0.10382 0.53777 -0.16391
 C336 C -0.08290 0.52055 -0.14246
 H337 H -0.15517 0.69022 -0.07680
 H338 H -0.11750 0.66286 -0.04019
 H339 H -0.10456 0.52002 -0.18737
 H340 H -0.06811 0.48997 -0.14997
 H341 H -0.14578 0.57739 -0.20029
 H342 H -0.17881 0.68429 -0.12925
 H343 H -0.07575 0.60694 -0.02769
 H344 H -0.04514 0.49460 -0.09732
 C345 C 0.37449 1.09677 0.37670
 C346 C 0.37223 1.07214 0.34682
 C347 C 0.35065 1.08826 0.32593
 C348 C 0.33118 1.12792 0.33506
 C349 C 0.33345 1.15168 0.36525
 C350 C 0.35527 1.13656 0.38610
 C351 C 0.39747 1.08069 0.39852
 C352 C 0.40013 1.10615 0.42810
 C353 C 0.42209 1.09081 0.44871
 C354 C 0.44087 1.04952 0.44016
 C355 C 0.43780 1.02429 0.41045
 C356 C 0.41629 1.04008 0.38939
 C357 C 0.35843 1.16072 0.41602
 C358 C 0.38060 1.14604 0.43658
 C359 C 0.39163 1.03202 0.33842
 C360 C 0.41320 1.01605 0.35942
 H361 H 0.34370 1.19137 0.42357
 H362 H 0.38236 1.16587 0.45937
 H363 H 0.39008 1.01265 0.31547
 H364 H 0.42763 0.98476 0.35209
 H365 H 0.34886 1.06995 0.30268
 H366 H 0.31869 1.18280 0.37209
 H367 H 0.42417 1.11009 0.47165
 H368 H 0.45227 0.99268 0.40365
 C369 C 1.11873 -0.10034 -0.13121
 C370 C 1.13773 -0.06314 -0.14445
 C371 C 1.15764 -0.08030 -0.16702
 C372 C 1.15833 -0.13424 -0.17710
 C373 C 1.13857 -0.17070 -0.16364
 C374 C 1.11906 -0.15411 -0.14054
 C375 C 1.09808 -0.08264 -0.10709
 C376 C 1.07957 -0.12019 -0.09323
 C377 C 1.06007 -0.10318 -0.07021
 C378 C 1.05859 -0.04886 -0.06160
 C379 C 1.07719 -0.01169 -0.07588
 C380 C 1.09720 -0.02849 -0.09842
 C381 C 1.10006 -0.19047 -0.12631
 C382 C 1.08079 -0.17388 -0.10290
 C383 C 1.13637 -0.00936 -0.13496
 C384 C 1.11634 0.00773 -0.11247
 H385 H 1.10013 -0.23213 -0.13329
 H386 H 1.06660 -0.20325 -0.09244
 H387 H 1.15085 0.01984 -0.14509
 H388 H 1.11593 0.04959 -0.10593
 H389 H 1.17177 -0.05092 -0.17752
 H390 H 1.13917 -0.21272 -0.16976
 H391 H 1.04565 -0.13192 -0.05949
 H392 H 1.07627 0.03011 -0.06921
 C393 C 0.62107 0.40176 0.37081
 C394 C 0.63954 0.43939 0.35695
 C395 C 0.65989 0.42208 0.33491
 C396 C 0.66159 0.36772 0.32654
 C397 C 0.64268 0.33064 0.34046
 C398 C 0.62243 0.34743 0.36269
 C399 C 0.59989 0.41959 0.39430
 C400 C 0.58176 0.38181 0.40860
 C401 C 0.56183 0.39894 0.43113
 C402 C 0.55957 0.45353 0.43883
 C403 C 0.57776 0.49091 0.42407
 C404 C 0.59815 0.47408 0.40199
 C405 C 0.60363 0.31096 0.37707
 C406 C 0.58379 0.32777 0.39984
 C407 C 0.63727 0.49352 0.36539
 C408 C 0.61684 0.51060 0.38743
 H409 H 0.60425 0.26908 0.37067
 H410 H 0.56982 0.29826 0.41053
 H411 H 0.65134 0.52295 0.35482
 H412 H 0.61573 0.55274 0.39321
 H413 H 0.67422 0.45084 0.32406
 H414 H 0.64414 0.28860 0.33447
 H415 H 0.54773 0.37003 0.44220
 H416 H 0.57623 0.53296 0.43002
 C417 C 0.87334 -0.09676 -0.12081
 C418 C 0.85870 -0.14452 -0.11454
 C419 C 0.83670 -0.16051 -0.13489
 C420 C 0.82925 -0.12954 -0.16187
 C421 C 0.84457 -0.08165 -0.16769
 C422 C 0.86640 -0.06503 -0.14719
 C423 C 0.89645 -0.07973 -0.09935
 C424 C 0.91088 -0.03153 -0.10535
 C425 C 0.93268 -0.01532 -0.08472
 C426 C 0.94023 -0.04722 -0.05840
 C427 C 0.92562 -0.09566 -0.05292
 C428 C 0.90364 -0.11197 -0.07323
 C429 C 0.88139 -0.01710 -0.15248
 C430 C 0.90319 -0.00057 -0.13188
 C431 C 0.86651 -0.17573 -0.08817
 C432 C 0.88864 -0.15981 -0.06790
 H433 H 0.87620 0.00790 -0.17271
 H434 H 0.91417 0.03668 -0.13681
 H435 H 0.85540 -0.21277 -0.08313
 H436 H 0.89398 -0.18508 -0.04784
 H437 H 0.82645 -0.19859 -0.13030
 H438 H 0.83897 -0.05594 -0.18743
 H439 H 0.94384 0.02192 -0.08924
 H440 H 0.93116 -0.12046 -0.03271
 C441 C 0.37780 0.40209 0.37475
 C442 C 0.36610 0.35070 0.37824
 C443 C 0.34482 0.33384 0.35722
 C444 C 0.33529 0.36789 0.33277
 C445 C 0.34752 0.41902 0.32927
 C446 C 0.36871 0.43647 0.35037
 C447 C 0.39991 0.42028 0.39713
 C448 C 0.41147 0.47183 0.39387
 C449 C 0.43238 0.48903 0.41538
 C450 C 0.44178 0.45494 0.43992
 C451 C 0.42995 0.40327 0.44270
 C452 C 0.40901 0.38578 0.42142
 C453 C 0.38088 0.48769 0.34776
 C454 C 0.40187 0.50509 0.36917
 C455 C 0.37584 0.31726 0.40274
 C456 C 0.39695 0.33447 0.42397
 H457 H 0.37406 0.51462 0.32909
 H458 H 0.41064 0.54493 0.36636
 H459 H 0.36703 0.27749 0.40556
 H460 H 0.40383 0.30744 0.44257
 H461 H 0.33579 0.29409 0.35969
 H462 H 0.34015 0.44542 0.31057
 H463 H 0.44137 0.52878 0.41293
 H464 H 0.43699 0.37664 0.46145
 C465 C 0.12874 0.59742 -0.12057
 C466 C 0.14020 0.64894 -0.11749
 C467 C 0.16233 0.66500 -0.13770
 C468 C 0.17316 0.63015 -0.16130
 C469 C 0.16113 0.57831 -0.16377
 C470 C 0.13909 0.56184 -0.14350
 C471 C 0.10540 0.58040 -0.09938
 C472 C 0.09411 0.52862 -0.10228
 C473 C 0.07208 0.51246 -0.08193
 C474 C 0.06129 0.54772 -0.05881
 C475 C 0.07277 0.59971 -0.05643
 C476 C 0.09487 0.61621 -0.07662
 C477 C 0.12722 0.51033 -0.14569
 C478 C 0.10513 0.49398 -0.12542
 C479 C 0.12908 0.68371 -0.09445
 C480 C 0.10675 0.66768 -0.07442
 H481 H 0.13506 0.48239 -0.16325
 H482 H 0.09661 0.45391 -0.12789
 H483 H 0.13769 0.72372 -0.09190
 H484 H 0.09880 0.69577 -0.05701
 H485 H 0.16997 0.70576 -0.13582
 H486 H 0.16941 0.54973 -0.18066
 H487 H 0.06343 0.47240 -0.08405
 H488 H 0.06469 0.62721 -0.03875
 C489 C 0.62891 1.09642 0.38144
 C490 C 0.64011 1.14830 0.38409
 C491 C 0.66191 1.16445 0.36345
 C492 C 0.67272 1.12899 0.34042
 C493 C 0.66143 1.07682 0.33842
 C494 C 0.63946 1.06040 0.35880
 C495 C 0.60558 1.07959 0.40267
 C496 C 0.59433 1.02775 0.39997
 C497 C 0.57210 1.01196 0.42014
 C498 C 0.56109 1.04763 0.44291
 C499 C 0.57267 1.09955 0.44525
 C500 C 0.59494 1.11570 0.42520
 C501 C 0.62772 1.00878 0.35690
 C502 C 0.60553 0.99273 0.37713
 C503 C 0.62912 1.18312 0.40715
 C504 C 0.60684 1.16719 0.42728
 H505 H 0.63569 0.98058 0.33956
 H506 H 0.59705 0.95259 0.37484
 H507 H 0.63777 1.22311 0.40960
 H508 H 0.59888 1.19542 0.44460
 H509 H 0.67000 1.20501 0.36488
 H510 H 0.66979 1.04899 0.32110
 H511 H 0.56342 0.97191 0.41811
 H512 H 0.56445 1.12732 0.46269
 C513 C 0.12872 0.40149 0.12017
 C514 C 0.14157 0.43888 0.14053
 C515 C 0.16384 0.42245 0.16040
 C516 C 0.17320 0.36901 0.16008
 C517 C 0.16002 0.33208 0.13944
 C518 C 0.13785 0.34816 0.11937
 C519 C 0.10524 0.41852 0.09929
 C520 C 0.09243 0.38116 0.07888
 C521 C 0.07028 0.39771 0.05886
 C522 C 0.06091 0.45119 0.05921
 C523 C 0.07391 0.48796 0.08006
 C524 C 0.09612 0.47186 0.10009
 C525 C 0.12453 0.31192 0.09863
 C526 C 0.10217 0.32811 0.07876
 C527 C 0.13185 0.49192 0.14064
 C528 C 0.10950 0.50812 0.12077
 H529 H 0.13150 0.27073 0.09769
 H530 H 0.09248 0.29887 0.06314
 H531 H 0.14158 0.52115 0.15623
 H532 H 0.10266 0.54941 0.12158
 H533 H 0.17399 0.45125 0.17597
 H534 H 0.16664 0.29062 0.13943
 H535 H 0.06046 0.36905 0.04296
 H536 H 0.06696 0.52922 0.08052
 C537 C 0.62252 0.90068 0.62639
 C538 C 0.63250 0.93602 0.64982
 C539 C 0.65410 0.91925 0.67054
 C540 C 0.66583 0.86778 0.66767
 C541 C 0.65545 0.83279 0.64412
 C542 C 0.63375 0.84901 0.62345
 C543 C 0.59996 0.91819 0.60440
 C544 C 0.58999 0.88284 0.58098
 C545 C 0.56876 0.89990 0.55991
 C546 C 0.55758 0.95199 0.56204
 C547 C 0.56775 0.98676 0.58585
 C548 C 0.58893 0.97005 0.60709
 C549 C 0.62310 0.81465 0.59987
 C550 C 0.60159 0.83126 0.57900
 C551 C 0.62080 0.98749 0.65190
 C552 C 0.59941 1.00424 0.63088
 H553 H 0.63152 0.77464 0.59749
 H554 H 0.59406 0.80355 0.56108
 H555 H 0.62831 1.01514 0.66985
 H556 H 0.59105 1.04433 0.63322
 H557 H 0.66211 0.94641 0.68851
 H558 H 0.66407 0.79280 0.64213
 H559 H 0.56114 0.87277 0.54172
 H560 H 0.55931 1.02688 0.58780
 C561 C 0.87823 0.09775 0.12616
 C562 C 0.86888 0.06295 0.15027
 C563 C 0.84739 0.07978 0.17108
 C564 C 0.83513 0.13071 0.16755
 C565 C 0.84493 0.16519 0.14339
 C566 C 0.86650 0.14895 0.12265
 C567 C 0.90060 0.08015 0.10403
 C568 C 0.90989 0.11498 0.07993
 C569 C 0.93094 0.09789 0.05875
 C570 C 0.94266 0.04628 0.06143
 C571 C 0.93315 0.01196 0.08588
 C572 C 0.91213 0.02874 0.10726
 C573 C 0.87649 0.18280 0.09841
 C574 C 0.89783 0.16612 0.07740
 C575 C 0.88107 0.01194 0.15290
 C576 C 0.90230 -0.00490 0.13173
 H577 H 0.86767 0.22244 0.09559
 H578 H 0.90486 0.19341 0.05896
 H579 H 0.87406 -0.01529 0.17138
 H580 H 0.91105 -0.04464 0.13451
 H581 H 0.83982 0.05305 0.18956
 H582 H 0.83588 0.20480 0.14091
 H583 H 0.93807 0.12469 0.04008
 H584 H 0.94203 -0.02777 0.08823
 C585 C 0.37837 0.60195 0.62522
 C586 C 0.36947 0.56761 0.64978
 C587 C 0.34792 0.58437 0.67053
 C588 C 0.33513 0.63471 0.66651
 C589 C 0.34448 0.66876 0.64189
 C590 C 0.36614 0.65262 0.62122
 C591 C 0.40078 0.58436 0.60312
 C592 C 0.40966 0.61871 0.57859
 C593 C 0.43078 0.60160 0.55745
 C594 C 0.44288 0.55038 0.56058
 C595 C 0.43375 0.51655 0.58544
 C596 C 0.41273 0.53339 0.60680
 C597 C 0.37572 0.68601 0.59654
 C598 C 0.39713 0.66938 0.57560
 C599 C 0.38211 0.51707 0.65286
 C600 C 0.40334 0.50022 0.63171
 H601 H 0.36652 0.72525 0.59333
 H602 H 0.40383 0.69632 0.55682
 H603 H 0.37544 0.49020 0.67168
 H604 H 0.41244 0.46083 0.63484
 H605 H 0.34069 0.55797 0.68935
 H606 H 0.33498 0.70790 0.63900
 H607 H 0.43760 0.62798 0.53843
 H608 H 0.44295 0.47715 0.58817
   
