data_POSCAR
  _audit_creation_date              2014-09-24
  _audit_creation_method            'ToBaCCo'
  _symmetry_space_group_name_H-M    'P1'
  _symmetry_Int_Tables_number       1
  _symmetry_cell_setting            triclinic
  loop_
  _symmetry_equiv_pos_as_xyz
 x,y,z
_cell_length_a 37.3136
_cell_length_b 37.6651
_cell_length_c 26.8139
_cell_angle_alpha 90.020400
_cell_angle_beta 90.713800
_cell_angle_gamma 90.163800
loop_
  _atom_site_label
  _atom_site_type_symbol
  _atom_site_fract_x
  _atom_site_fract_y
  _atom_site_fract_z
C1 C -0.07971 0.26836 0.05425
 C2 C -0.09894 0.27875 0.01134
 C3 C -0.08344 0.28062 -0.03579
 C4 C -0.04593 0.27478 -0.04015
 C5 C -0.02536 0.26554 0.00299
 C6 C -0.04233 0.26193 0.05008
 C7 C -0.02091 0.25449 0.09240
 C8 C 0.01594 0.25089 0.08901
 C9 C 0.03331 0.25444 0.04319
 C10 C 0.01260 0.26143 -0.00046
 C11 C -0.02781 0.28108 -0.08497
 C12 C 0.00895 0.27591 -0.08869
 C13 C 0.02989 0.26569 -0.04712
 C14 C 0.06788 0.26239 -0.05004
 C15 C 0.08755 0.25636 -0.00568
 C16 C 0.07103 0.25273 0.04047
 H17 H -0.03182 0.25290 0.12942
 H18 H 0.03072 0.24626 0.12333
 H19 H -0.04142 0.29169 -0.11743
 H20 H 0.02083 0.28197 -0.12423
 H21 H -0.12776 0.28175 0.01314
 H22 H 0.11620 0.25204 -0.00681
 C23 C 0.42249 0.75516 0.55248
 C24 C 0.40413 0.75649 0.50658
 C25 C 0.42228 0.75623 0.46118
 C26 C 0.46013 0.75524 0.46135
 C27 C 0.47926 0.75331 0.50731
 C28 C 0.46043 0.75310 0.55304
 C29 C 0.48015 0.75132 0.59804
 C30 C 0.51739 0.74907 0.59817
 C31 C 0.53652 0.74908 0.55335
 C32 C 0.51733 0.75155 0.50748
 C33 C 0.47938 0.75671 0.41665
 C34 C 0.51657 0.75541 0.41685
 C35 C 0.53613 0.75240 0.46174
 C36 C 0.57401 0.75110 0.46208
 C37 C 0.59247 0.74880 0.50769
 C38 C 0.57438 0.74769 0.55321
 H39 H 0.46711 0.75198 0.63381
 H40 H 0.53106 0.74782 0.63395
 H41 H 0.46598 0.75958 0.38089
 H42 H 0.52977 0.75726 0.38126
 H43 H 0.37510 0.75559 0.50612
 H44 H 0.62144 0.74651 0.50773
 C45 C 0.91774 0.72247 -0.03601
 C46 C 0.90124 0.72810 0.00964
 C47 C 0.92094 0.73706 0.05256
 C48 C 0.95868 0.73993 0.04988
 C49 C 0.97604 0.73464 0.00365
 C50 C 0.95541 0.72611 -0.03962
 C51 C 0.97308 0.72017 -0.08469
 C52 C 1.01011 0.72338 -0.08773
 C53 C 1.03135 0.73194 -0.04551
 C54 C 1.01415 0.73683 0.00103
 C55 C 0.97956 0.74647 0.09270
 C56 C 1.01669 0.74736 0.09063
 C57 C 1.03486 0.74277 0.04524
 C58 C 1.07295 0.74181 0.04321
 C59 C 1.08918 0.73758 -0.00345
 C60 C 1.06933 0.73358 -0.04810
 H61 H 0.95854 0.71235 -0.11808
 H62 H 1.02185 0.71743 -0.12339
 H63 H 0.96752 0.74971 0.12891
 H64 H 1.03049 0.75093 0.12583
 H65 H 0.87224 0.72659 0.01122
 H66 H 1.11786 0.74132 -0.00547
 C67 C 0.57454 0.24807 0.46315
 C68 C 0.59276 0.25020 0.50898
 C69 C 0.57446 0.25126 0.55434
 C70 C 0.53650 0.25038 0.55389
 C71 C 0.51756 0.24820 0.50769
 C72 C 0.53665 0.24709 0.46225
 C73 C 0.51737 0.24420 0.41706
 C74 C 0.48015 0.24341 0.41625
 C75 C 0.46057 0.24526 0.46060
 C76 C 0.47942 0.24697 0.50688
 C77 C 0.51699 0.25070 0.59836
 C78 C 0.47968 0.24903 0.59761
 C79 C 0.46026 0.24749 0.55229
 C80 C 0.42228 0.24592 0.55113
 C81 C 0.40421 0.24477 0.50496
 C82 C 0.42266 0.24476 0.45978
 H83 H 0.53081 0.24205 0.38169
 H84 H 0.46696 0.24065 0.38030
 H85 H 0.53040 0.25177 0.63435
 H86 H 0.46632 0.24862 0.63315
 H87 H 0.62174 0.25244 0.50928
 H88 H 0.37519 0.24596 0.50414
 C89 C 0.74311 -0.07567 0.04510
 C90 C 0.74269 -0.09367 -0.00099
 C91 C 0.74484 -0.07574 -0.04695
 C92 C 0.74572 -0.03801 -0.04680
 C93 C 0.74625 -0.01911 -0.00096
 C94 C 0.74493 -0.03788 0.04503
 C95 C 0.74346 -0.01809 0.08961
 C96 C 0.74475 0.01874 0.08933
 C97 C 0.74709 0.03777 0.04452
 C98 C 0.74736 0.01884 -0.00117
 C99 C 0.74399 -0.01852 -0.09154
 C100 C 0.74525 0.01822 -0.09169
 C101 C 0.74808 0.03773 -0.04708
 C102 C 0.74937 0.07555 -0.04720
 C103 C 0.74885 0.09351 -0.00110
 C104 C 0.74789 0.07529 0.04438
 H105 H 0.74019 -0.03045 0.12557
 H106 H 0.74296 0.03213 0.12492
 H107 H 0.74023 -0.03111 -0.12741
 H108 H 0.74257 0.03081 -0.12768
 H109 H 0.74487 -0.12226 -0.00074
 H110 H 0.75202 0.12207 0.00022
 C111 C 0.24012 0.42489 0.54412
 C112 C 0.24073 0.40663 0.49861
 C113 C 0.24112 0.42455 0.45283
 C114 C 0.24104 0.46215 0.45237
 C115 C 0.24050 0.48115 0.49809
 C116 C 0.23994 0.46247 0.54406
 C117 C 0.23853 0.48188 0.58878
 C118 C 0.23857 0.51880 0.58855
 C119 C 0.24006 0.53792 0.54360
 C120 C 0.24057 0.51895 0.49786
 C121 C 0.24080 0.48129 0.40735
 C122 C 0.24089 0.51822 0.40713
 C123 C 0.24121 0.53765 0.45192
 C124 C 0.24148 0.57525 0.45192
 C125 C 0.24107 0.59348 0.49748
 C126 C 0.24040 0.57551 0.54320
 H127 H 0.23688 0.46880 0.62457
 H128 H 0.23693 0.53210 0.62419
 H129 H 0.24006 0.46797 0.37161
 H130 H 0.24023 0.53131 0.37124
 H131 H 0.24281 0.37793 0.49890
 H132 H 0.24324 0.62219 0.49743
 C133 C 0.25627 0.92424 -0.04695
 C134 C 0.25693 0.90655 -0.00068
 C135 C 0.25686 0.92486 0.04470
 C136 C 0.25670 0.96233 0.04468
 C137 C 0.25585 0.98110 -0.00113
 C138 C 0.25560 0.96212 -0.04711
 C139 C 0.25651 0.98175 -0.09181
 C140 C 0.25617 1.01862 -0.09157
 C141 C 0.25537 1.03780 -0.04670
 C142 C 0.25573 1.01900 -0.00090
 C143 C 0.25845 0.98149 0.08954
 C144 C 0.25860 1.01833 0.08978
 C145 C 0.25648 1.03793 0.04510
 C146 C 0.25697 1.07577 0.04503
 C147 C 0.25644 1.09356 -0.00113
 C148 C 0.25531 1.07532 -0.04663
 H149 H 0.25850 0.96919 -0.12785
 H150 H 0.25746 1.03192 -0.12726
 H151 H 0.26066 0.96823 0.12522
 H152 H 0.26142 1.03087 0.12581
 H153 H 0.25449 0.87793 0.00062
 H154 H 0.25386 1.12217 -0.00209
 C155 C 0.76457 0.57554 0.54544
 C156 C 0.76064 0.59343 0.49995
 C157 C 0.75840 0.57546 0.45438
 C158 C 0.75872 0.53792 0.45402
 C159 C 0.76163 0.51902 0.49975
 C160 C 0.76473 0.53784 0.54560
 C161 C 0.76852 0.51840 0.59013
 C162 C 0.76865 0.48139 0.58990
 C163 C 0.76489 0.46216 0.54515
 C164 C 0.76165 0.48120 0.49953
 C165 C 0.75687 0.51877 0.40906
 C166 C 0.75678 0.48187 0.40886
 C167 C 0.75867 0.46251 0.45359
 C168 C 0.75836 0.42496 0.45352
 C169 C 0.76086 0.40677 0.49888
 C170 C 0.76487 0.42446 0.54455
 H171 H 0.77187 0.53153 0.62574
 H172 H 0.77213 0.46810 0.62535
 H173 H 0.75587 0.53207 0.37332
 H174 H 0.75565 0.46875 0.37298
 H175 H 0.75778 0.62204 0.50006
 H176 H 0.75814 0.37813 0.49869
 O177 O 0.23224 0.28313 0.18860
 O178 O 0.30070 0.25388 0.28014
 O179 O 0.28262 0.23631 0.18829
 O180 O 0.25176 0.30237 0.27894
 O181 O 0.21336 0.26339 0.30899
 O182 O 0.24450 0.19699 0.21826
 O183 O 0.26240 0.21471 0.30996
 O184 O 0.19429 0.24364 0.21850
 Cu185 Cu 0.27070 0.27284 0.23103
 Cu186 Cu 0.22485 0.22578 0.26708
 C187 C 0.20192 0.26770 0.18719
 C188 C 0.29286 0.22973 0.31132
 C189 C 0.26821 0.20578 0.18689
 C190 C 0.22774 0.29401 0.30996
 O191 O 0.69321 0.74929 0.28415
 O192 O 0.76157 0.71791 0.19720
 O193 O 0.74172 0.70077 0.28587
 O194 O 0.71282 0.76659 0.19265
 O195 O 0.75150 0.80547 0.22364
 O196 O 0.78055 0.73943 0.31719
 O197 O 0.80025 0.75696 0.22793
 O198 O 0.73172 0.78826 0.31529
 Cu199 Cu 0.72319 0.73004 0.23672
 Cu200 Cu 0.76966 0.77669 0.27422
 C201 C 0.70126 0.77318 0.31586
 C202 C 0.79246 0.73207 0.19766
 C203 C 0.76604 0.70888 0.31744
 C204 C 0.72806 0.79672 0.19106
 O205 O 0.79963 0.24346 0.22703
 O206 O 0.73282 0.21170 0.31717
 O207 O 0.75175 0.19359 0.22562
 O208 O 0.78096 0.26140 0.31654
 O209 O 0.74108 0.29883 0.28537
 O210 O 0.71173 0.23095 0.19479
 O211 O 0.69329 0.24937 0.28590
 O212 O 0.75958 0.28091 0.19631
 Cu213 Cu 0.77009 0.22350 0.27476
 Cu214 Cu 0.72223 0.26851 0.23736
 C215 C 0.79080 0.26769 0.19631
 C216 C 0.70210 0.22610 0.31800
 C217 C 0.72750 0.20115 0.19369
 C218 C 0.76595 0.29161 0.31649
 O219 O 0.25369 0.69759 0.27786
 O220 O 0.28581 0.76559 0.19040
 O221 O 0.30178 0.74713 0.28201
 O222 O 0.23644 0.71744 0.18672
 O223 O 0.19697 0.75542 0.21616
 O224 O 0.26226 0.78516 0.31114
 O225 O 0.24614 0.80351 0.21950
 O226 O 0.21410 0.73549 0.30714
 Cu227 Cu 0.27340 0.72807 0.23137
 Cu228 Cu 0.22587 0.77364 0.26650
 C229 C 0.22892 0.70519 0.30810
 C230 C 0.27098 0.79585 0.18933
 C231 C 0.29295 0.77085 0.31324
 C232 C 0.20585 0.73208 0.18447
 O233 O 0.78962 0.25496 0.66908
 O234 O 0.76426 0.19158 0.76883
 O235 O 0.73880 0.20849 0.67859
 O236 O 0.82267 0.22627 0.74425
 O237 O 0.79653 0.26827 0.78834
 O238 O 0.71147 0.25219 0.71774
 O239 O 0.73644 0.23530 0.80702
 O240 O 0.76391 0.29796 0.71150
 Cu241 Cu 0.78081 0.21616 0.71200
 Cu242 Cu 0.74960 0.26750 0.76013
 C243 C 0.78086 0.28752 0.67366
 C244 C 0.74617 0.20322 0.80544
 C245 C 0.71123 0.22726 0.68542
 C246 C 0.82408 0.24960 0.77811
 O247 O 0.29817 0.74517 0.72222
 O248 O 0.23028 0.71337 0.80974
 O249 O 0.24915 0.69662 0.71898
 O250 O 0.27864 0.76246 0.81233
 O251 O 0.23978 0.80109 0.78167
 O252 O 0.21012 0.73506 0.68830
 O253 O 0.19111 0.75182 0.77937
 O254 O 0.25943 0.78377 0.69122
 Cu255 Cu 0.26791 0.72553 0.76887
 Cu256 Cu 0.22120 0.77180 0.73199
 C257 C 0.29024 0.76947 0.69121
 C258 C 0.19949 0.72755 0.81031
 C259 C 0.22506 0.70484 0.68716
 C260 C 0.26383 0.79274 0.81348
 O261 O 0.24837 0.30340 0.71946
 O262 O 0.27900 0.23646 0.81020
 O263 O 0.29736 0.25508 0.72042
 O264 O 0.22964 0.28453 0.80965
 O265 O 0.19049 0.24630 0.77813
 O266 O 0.25875 0.21635 0.68887
 O267 O 0.23995 0.19795 0.77912
 O268 O 0.20957 0.26491 0.68779
 Cu269 Cu 0.26737 0.27379 0.76812
 Cu270 Cu 0.22075 0.22752 0.73028
 C271 C 0.22432 0.29532 0.68745
 C272 C 0.26442 0.20599 0.81058
 C273 C 0.28947 0.23098 0.68898
 C274 C 0.19888 0.27009 0.80984
 O275 O 0.73699 0.79279 0.67876
 O276 O 0.82026 0.77678 0.74554
 O277 O 0.78773 0.74522 0.67024
 O278 O 0.76085 0.80867 0.76898
 O279 O 0.73358 0.76443 0.80721
 O280 O 0.76223 0.70199 0.71275
 O281 O 0.79477 0.73382 0.78857
 O282 O 0.71010 0.74834 0.71702
 Cu283 Cu 0.77866 0.78478 0.71217
 Cu284 Cu 0.74792 0.73322 0.75999
 C285 C 0.70964 0.77358 0.68519
 C286 C 0.82187 0.75346 0.77924
 C287 C 0.77923 0.71252 0.67500
 C288 C 0.74262 0.79675 0.80543
 C289 C 0.25531 0.09579 0.08972
 C290 C 0.26810 0.12897 0.09447
 C291 C 0.26239 0.14970 0.14025
 C292 C 0.27796 0.18143 0.14639
 H293 H 0.28318 0.14117 0.06472
 H294 H 0.24385 0.13978 0.16780
 H295 H 0.24328 0.08411 0.12233
 H296 H 0.29655 0.19104 0.11869
 C297 C 0.76564 0.59717 0.59201
 C298 C 0.78171 0.62910 0.59410
 C299 C 0.77691 0.65306 0.63690
 C300 C 0.78819 0.68691 0.63548
 H301 H 0.79698 0.63859 0.56264
 H302 H 0.76192 0.64349 0.66858
 H303 H 0.75107 0.58778 0.62411
 H304 H 0.80257 0.69653 0.60328
 C305 C 0.74474 0.90450 0.09009
 C306 C 0.73111 0.87170 0.09533
 C307 C 0.73638 0.85147 0.14196
 C308 C 0.71945 0.82057 0.14906
 H309 H 0.71543 0.85958 0.06557
 H310 H 0.75549 0.86116 0.16960
 H311 H 0.75748 0.91610 0.12269
 H312 H 0.70040 0.81115 0.12118
 C313 C 0.24287 0.40409 0.59106
 C314 C 0.22460 0.37392 0.59791
 C315 C 0.23116 0.35171 0.64225
 C316 C 0.21427 0.32064 0.64787
 H317 H 0.20563 0.36487 0.56967
 H318 H 0.25155 0.35993 0.66905
 H319 H 0.26114 0.41331 0.62004
 H320 H 0.19420 0.31240 0.62062
 C321 C 0.90147 0.26208 0.09910
 C322 C 0.87019 0.27762 0.10989
 C323 C 0.84843 0.26618 0.15235
 C324 C 0.81614 0.28052 0.15897
 H325 H 0.85981 0.29898 0.08694
 H326 H 0.85775 0.24475 0.17611
 H327 H 0.91198 0.24322 0.12588
 H328 H 0.80698 0.30145 0.13419
 C329 C 0.40117 0.75248 0.59880
 C330 C 0.37111 0.77112 0.60557
 C331 C 0.34794 0.76406 0.64854
 C332 C 0.31629 0.78029 0.65322
 H333 H 0.36270 0.79059 0.57806
 H334 H 0.35591 0.74370 0.67496
 H335 H 0.40952 0.73358 0.62705
 H336 H 0.30824 0.80034 0.62636
 C337 C 0.09499 0.74660 0.08618
 C338 C 0.12789 0.73257 0.09121
 C339 C 0.15001 0.73941 0.13604
 C340 C 0.18128 0.72278 0.14315
 H341 H 0.13845 0.71501 0.06298
 H342 H 0.14114 0.75909 0.16267
 H343 H 0.08510 0.76145 0.11757
 H344 H 0.19006 0.70321 0.11631
 C345 C 0.59607 0.25469 0.60108
 C346 C 0.62481 0.23422 0.60894
 C347 C 0.65086 0.24062 0.64986
 C348 C 0.67982 0.21991 0.65328
 H349 H 0.63042 0.21324 0.58243
 H350 H 0.64791 0.26338 0.67415
 H351 H 0.58921 0.27502 0.62789
 H352 H 0.68213 0.19758 0.62795
 C353 C 0.75359 0.09498 0.90791
 C354 C 0.74333 0.12876 0.90166
 C355 C 0.75007 0.14785 0.85464
 C356 C 0.73699 0.18045 0.84795
 H357 H 0.72892 0.14253 0.93064
 H358 H 0.76680 0.13586 0.82653
 H359 H 0.76538 0.08214 0.87604
 H360 H 0.72042 0.19203 0.87661
 C361 C 0.24540 0.59610 0.40527
 C362 C 0.22736 0.62622 0.39702
 C363 C 0.23505 0.64864 0.35344
 C364 C 0.21804 0.67948 0.34647
 H365 H 0.20770 0.63508 0.42370
 H366 H 0.25630 0.64083 0.32853
 H367 H 0.26435 0.58700 0.37779
 H368 H 0.19712 0.68728 0.37192
 C369 C 0.25362 0.90404 0.90849
 C370 C 0.26596 0.87074 0.90414
 C371 C 0.25905 0.84945 0.85891
 C372 C 0.27390 0.81740 0.85389
 H373 H 0.28160 0.85875 0.93394
 H374 H 0.24040 0.85927 0.83087
 H375 H 0.24104 0.91556 0.87579
 H376 H 0.29267 0.80797 0.88207
 C377 C 0.75311 0.40379 0.40721
 C378 C 0.77068 0.37336 0.39986
 C379 C 0.76164 0.34973 0.35790
 C380 C 0.77713 0.31789 0.35415
 H381 H 0.79100 0.36492 0.42656
 H382 H 0.74088 0.35760 0.33153
 H383 H 0.73344 0.41253 0.37983
 H384 H 0.79756 0.31012 0.38108
 C385 C 0.08609 0.26282 0.90381
 C386 C 0.12064 0.27230 0.89958
 C387 C 0.14081 0.26692 0.85328
 C388 C 0.17400 0.28008 0.84957
 H389 H 0.13491 0.28400 0.93099
 H390 H 0.12959 0.25025 0.82402
 H391 H 0.07190 0.25495 0.87012
 H392 H 0.18447 0.29711 0.87897
 C393 C 0.59474 0.74938 0.41526
 C394 C 0.62445 0.76860 0.40819
 C395 C 0.64601 0.76363 0.36307
 C396 C 0.67606 0.78227 0.35575
 H397 H 0.63343 0.78726 0.43654
 H398 H 0.63829 0.74288 0.33700
 H399 H 0.58548 0.73152 0.38611
 H400 H 0.68396 0.80264 0.38230
 C401 C 0.89364 0.71289 0.92189
 C402 C 0.89007 0.73365 0.88193
 C403 C 0.85939 0.72922 0.84739
 C404 C 0.85516 0.75128 0.80896
 H405 H 0.90803 0.75608 0.87730
 H406 H 0.83886 0.70974 0.85559
 H407 H 0.87417 0.69196 0.92797
 H408 H 0.87594 0.77067 0.80124
 C409 C 0.40182 0.24786 0.41236
 C410 C 0.37131 0.23002 0.40392
 C411 C 0.34935 0.23687 0.35889
 C412 C 0.31833 0.21976 0.35127
 H413 H 0.36185 0.21108 0.43124
 H414 H 0.35764 0.25751 0.33329
 H415 H 0.41143 0.26603 0.38416
 H416 H 0.31010 0.19940 0.37735
 C417 C 0.74918 0.90475 0.90823
 C418 C 0.73784 0.87133 0.90121
 C419 C 0.74548 0.85214 0.85459
 C420 C 0.73242 0.81953 0.84742
 H421 H 0.72217 0.85792 0.92927
 H422 H 0.76306 0.86398 0.82729
 H423 H 0.76238 0.91725 0.87711
 H424 H 0.71516 0.80793 0.87534
 C425 C 0.24474 0.40337 0.40643
 C426 C 0.22664 0.37309 0.39882
 C427 C 0.23394 0.35053 0.35528
 C428 C 0.21730 0.31931 0.34904
 H429 H 0.20717 0.36427 0.42587
 H430 H 0.25458 0.35871 0.32956
 H431 H 0.26352 0.41235 0.37860
 H432 H 0.19704 0.31106 0.37530
 C433 C 0.25061 0.09615 0.90665
 C434 C 0.26808 0.12664 0.89874
 C435 C 0.25951 0.14906 0.85525
 C436 C 0.27553 0.18054 0.84940
 H437 H 0.28796 0.13583 0.92566
 H438 H 0.23856 0.14064 0.82942
 H439 H 0.23144 0.08675 0.87894
 H440 H 0.29616 0.18888 0.87577
 C441 C 0.75335 0.59684 0.40827
 C442 C 0.77087 0.62747 0.40139
 C443 C 0.76204 0.65099 0.35931
 C444 C 0.77707 0.68315 0.35584
 H445 H 0.79099 0.63604 0.42836
 H446 H 0.74178 0.64263 0.33241
 H447 H 0.73385 0.58806 0.38060
 H448 H 0.79697 0.69148 0.38329
 C449 C 0.08746 0.73411 0.90568
 C450 C 0.12155 0.72358 0.90045
 C451 C 0.14171 0.73016 0.85443
 C452 C 0.17458 0.71664 0.84959
 H453 H 0.13539 0.71022 0.93080
 H454 H 0.13081 0.74798 0.82641
 H455 H 0.07358 0.74387 0.87277
 H456 H 0.18483 0.69861 0.87786
 C457 C 0.59560 0.24962 0.41664
 C458 C 0.62524 0.23038 0.41010
 C459 C 0.64693 0.23513 0.36511
 C460 C 0.67729 0.21703 0.35841
 H461 H 0.63401 0.21187 0.43868
 H462 H 0.63893 0.25532 0.33843
 H463 H 0.58663 0.26739 0.38727
 H464 H 0.68557 0.19724 0.38551
 C465 C 0.89233 0.28754 0.92450
 C466 C 0.89270 0.27131 0.88013
 C467 C 0.86122 0.27414 0.84648
 C468 C 0.85783 0.25311 0.80673
 H469 H 0.91351 0.25241 0.87128
 H470 H 0.83928 0.29142 0.85661
 H471 H 0.86812 0.30209 0.93335
 H472 H 0.87962 0.23546 0.79722
 C473 C 0.40116 0.75329 0.41415
 C474 C 0.37095 0.77143 0.40603
 C475 C 0.34903 0.76464 0.36109
 C476 C 0.31773 0.78106 0.35386
 H477 H 0.36178 0.79044 0.43340
 H478 H 0.35771 0.74450 0.33501
 H479 H 0.41033 0.73497 0.38589
 H480 H 0.30897 0.80088 0.38034
 C481 C 0.25343 0.90412 0.09151
 C482 C 0.27206 0.87443 0.10002
 C483 C 0.26473 0.85219 0.14386
 C484 C 0.28182 0.82143 0.15086
 H485 H 0.29183 0.86576 0.07337
 H486 H 0.24357 0.86002 0.16891
 H487 H 0.23433 0.91303 0.11894
 H488 H 0.30263 0.81356 0.12528
 C489 C 0.76613 0.40261 0.59088
 C490 C 0.78235 0.37085 0.59262
 C491 C 0.77794 0.34684 0.63544
 C492 C 0.78940 0.31313 0.63390
 H493 H 0.79754 0.36159 0.56099
 H494 H 0.76313 0.35625 0.66733
 H495 H 0.75162 0.41173 0.62316
 H496 H 0.80358 0.30360 0.60153
 C497 C 0.75102 0.09603 0.09140
 C498 C 0.73153 0.12512 0.09974
 C499 C 0.73746 0.14666 0.14503
 C500 C 0.71844 0.17611 0.15316
 H501 H 0.71170 0.13355 0.07234
 H502 H 0.75894 0.13936 0.17059
 H503 H 0.77006 0.08721 0.11959
 H504 H 0.69736 0.18353 0.12703
 C505 C 0.24335 0.59654 0.58992
 C506 C 0.22527 0.62674 0.59666
 C507 C 0.23189 0.64886 0.64111
 C508 C 0.21515 0.67989 0.64697
 H509 H 0.20636 0.63576 0.56840
 H510 H 0.25210 0.64051 0.66800
 H511 H 0.26155 0.58740 0.61896
 H512 H 0.19521 0.68827 0.61970
 C513 C 0.90111 0.74484 0.09896
 C514 C 0.87277 0.72549 0.11245
 C515 C 0.84984 0.73638 0.15386
 C516 C 0.81877 0.71967 0.16140
 H517 H 0.86528 0.70215 0.09100
 H518 H 0.85723 0.75941 0.17601
 H519 H 0.90902 0.76767 0.12114
 H520 H 0.81128 0.69731 0.13799
 C521 C 0.40067 0.24878 0.59714
 C522 C 0.37052 0.23007 0.60365
 C523 C 0.34722 0.23699 0.64647
 C524 C 0.31550 0.22067 0.65077
 H525 H 0.36223 0.21053 0.57609
 H526 H 0.35521 0.25720 0.67321
 H527 H 0.40897 0.26775 0.62541
 H528 H 0.30745 0.20076 0.62362
 C529 C 0.09402 0.24598 0.08507
 C530 C 0.12309 0.26573 0.09509
 C531 C 0.14648 0.25797 0.13834
 C532 C 0.17610 0.27715 0.14740
 H533 H 0.12986 0.28769 0.07077
 H534 H 0.14011 0.23546 0.16186
 H535 H 0.08682 0.22460 0.11009
 H536 H 0.18277 0.29908 0.12300
 C537 C 0.59602 0.74404 0.59965
 C538 C 0.62408 0.76532 0.60812
 C539 C 0.64994 0.75924 0.64910
 C540 C 0.67827 0.78076 0.65329
 H541 H 0.62926 0.78675 0.58212
 H542 H 0.64749 0.73601 0.67271
 H543 H 0.58952 0.72321 0.62592
 H544 H 0.68018 0.80352 0.62867
   
