data_POSCAR
  _audit_creation_date              2014-09-24
  _audit_creation_method            'ToBaCCo'
  _symmetry_space_group_name_H-M    'P1'
  _symmetry_Int_Tables_number       1
  _symmetry_cell_setting            triclinic
  loop_
  _symmetry_equiv_pos_as_xyz
 x,y,z
_cell_length_a 23.2413
_cell_length_b 23.2412
_cell_length_c 43.4798
_cell_angle_alpha 89.999600
_cell_angle_beta 90.000600
_cell_angle_gamma 120.002200
loop_
  _atom_site_label
  _atom_site_type_symbol
  _atom_site_fract_x
  _atom_site_fract_y
  _atom_site_fract_z
Zn1 Zn 0.95735 0.04334 1.01371
 Zn2 Zn 1.08600 0.04263 1.01369
 Zn3 Zn 0.95664 -0.08602 1.01370
 Zn4 Zn 0.99997 -0.00000 0.95778
 O5 O 0.99999 -0.00001 0.99977
 O6 O 1.00978 0.11406 1.03705
 O7 O 1.10430 -0.00979 1.03703
 O8 O 0.88593 -0.10432 1.03705
 O9 O 1.10481 0.11331 1.03714
 O10 O 0.88668 -0.00854 1.03715
 O11 O 1.00852 -0.10483 1.03712
 O12 O 0.95935 -0.08180 0.94181
 O13 O 1.14611 0.07282 0.98317
 O14 O 0.92667 -0.14614 0.98317
 O15 O 1.08176 0.04119 0.94181
 O16 O 0.95878 0.04062 0.94183
 O17 O 0.92716 0.07330 0.98320
 C18 C 1.06975 0.13835 1.04543
 C19 C 1.06862 -0.06977 1.04540
 C20 C 0.86164 -0.06864 1.04543
 C21 C 0.93075 -0.13874 0.95422
 C22 C 1.13871 0.06953 0.95421
 C23 C 0.93045 0.06921 0.95424
 Zn24 Zn 0.04265 0.95663 0.51369
 Zn25 Zn -0.08600 0.95733 0.51371
 Zn26 Zn 0.04336 1.08599 0.51371
 Zn27 Zn -0.00002 1.00001 0.45778
 O28 O -0.00000 0.99999 0.49977
 O29 O -0.00976 0.88590 0.53703
 O30 O -0.10429 1.00974 0.53706
 O31 O 0.11409 1.10428 0.53704
 O32 O -0.10479 0.88665 0.53714
 O33 O 0.11334 1.00850 0.53712
 O34 O -0.00851 1.10478 0.53716
 O35 O 0.04059 1.08181 0.44182
 O36 O -0.14614 0.92716 0.48319
 O37 O 0.07329 1.14613 0.48319
 O38 O -0.08183 0.95882 0.44183
 O39 O 0.04115 0.95940 0.44180
 O40 O 0.07281 0.92670 0.48315
 C41 C -0.06972 0.86161 0.54541
 C42 C -0.06861 1.06971 0.54544
 C43 C 0.13838 1.06860 0.54541
 C44 C 0.06919 1.13875 0.45424
 C45 C -0.13876 0.93047 0.45424
 C46 C 0.06950 0.93080 0.45420
 O47 O 0.23585 0.57229 0.28512
 O48 O 0.23316 0.68186 0.27567
 C49 C 0.27465 0.73287 0.29058
 O50 O 0.33637 0.76412 0.28510
 O51 O 0.44865 0.76682 0.27570
 C52 C 0.45815 0.72534 0.29061
 O53 O 0.42768 0.66361 0.28514
 O54 O 0.31812 0.55134 0.27571
 C55 C 0.26711 0.54183 0.29061
 O56 O 0.23310 0.55134 0.22398
 O57 O 0.23589 0.66371 0.21453
 C58 C 0.26714 0.72546 0.20909
 O59 O 0.31826 0.76688 0.22396
 O60 O 0.42785 0.76411 0.21455
 C61 C 0.45835 0.73285 0.20913
 O62 O 0.44864 0.68174 0.22400
 O63 O 0.33628 0.57214 0.21457
 C64 C 0.27453 0.54164 0.20912
 Cr65 Cr 0.23825 0.61917 0.24982
 Cr66 Cr 0.38091 0.76174 0.24983
 Cr67 Cr 0.38081 0.61908 0.24985
 O68 O 0.33332 0.66666 0.24982
 O69 O 0.76410 0.42770 0.78512
 O70 O 0.76680 0.31813 0.77571
 C71 C 0.72530 0.26713 0.79062
 O72 O 0.66358 0.23587 0.78513
 O73 O 0.55132 0.23318 0.77569
 C74 C 0.54180 0.27467 0.79059
 O75 O 0.57228 0.33640 0.78511
 O76 O 0.68186 0.44866 0.77568
 C77 C 0.73285 0.45818 0.79059
 O78 O 0.76691 0.44862 0.72398
 O79 O 0.76413 0.33625 0.71457
 C80 C 0.73287 0.27449 0.70913
 O81 O 0.68175 0.23308 0.72399
 O82 O 0.57216 0.23586 0.71455
 C83 C 0.54167 0.26711 0.70910
 O84 O 0.55137 0.31823 0.72397
 O85 O 0.66375 0.42782 0.71454
 C86 C 0.72550 0.45831 0.70911
 Cr87 Cr 0.76174 0.38081 0.74984
 Cr88 Cr 0.61908 0.23824 0.74984
 Cr89 Cr 0.61918 0.38090 0.74982
 O90 O 0.66667 0.33332 0.74982
 C91 C 0.15039 0.29706 0.10475
 C92 C 0.11878 0.34130 0.10318
 C93 C 0.14482 0.39231 0.12381
 C94 C 0.19990 0.39404 0.14398
 C95 C 0.25126 0.39577 0.12122
 C96 C 0.22522 0.34476 0.10059
 C97 C 0.14242 0.27416 0.13836
 C98 C 0.16842 0.32509 0.15896
 C99 C 0.12211 0.24163 0.08284
 C100 C 0.09841 0.19500 0.06543
 C101 C 0.22756 0.44833 0.16648
 C102 C 0.24949 0.49167 0.18562
 H103 H 0.07950 0.33333 0.08725
 H104 H 0.12784 0.42804 0.12555
 H105 H 0.30342 0.43374 0.12128
 H106 H 0.25508 0.33902 0.08297
 H107 H 0.11845 0.22244 0.14538
 H108 H 0.16670 0.31697 0.18362
 C109 C 0.70295 0.85327 0.10476
 C110 C 0.65228 0.77944 0.09975
 C111 C 0.60126 0.75447 0.12039
 C112 C 0.60597 0.80580 0.14399
 C113 C 0.61096 0.86352 0.12475
 C114 C 0.66197 0.88849 0.10412
 C115 C 0.72555 0.85808 0.13829
 C116 C 0.67462 0.83315 0.15889
 C117 C 0.75837 0.88042 0.08285
 C118 C 0.80500 0.90334 0.06544
 C119 C 0.55167 0.77917 0.16649
 C120 C 0.50833 0.75777 0.18563
 H121 H 0.65609 0.74946 0.08159
 H122 H 0.56136 0.70309 0.11990
 H123 H 0.57736 0.88300 0.12710
 H124 H 0.67206 0.92936 0.08879
 H125 H 0.77708 0.87922 0.14525
 H126 H 0.68255 0.83295 0.18349
 C127 C 0.14672 0.84959 0.10471
 C128 C 0.13393 0.78018 0.09588
 C129 C 0.15891 0.75414 0.11652
 C130 C 0.19420 0.80009 0.14393
 C131 C 0.14269 0.81556 0.15777
 C132 C 0.11776 0.84156 0.13717
 C133 C 0.22227 0.89178 0.10895
 C134 C 0.24724 0.86575 0.12957
 C135 C 0.11957 0.87788 0.08280
 C136 C 0.09664 0.90158 0.06540
 C137 C 0.22083 0.77242 0.16644
 C138 C 0.24223 0.75050 0.18558
 H139 H 0.10765 0.75387 0.07525
 H140 H 0.15404 0.70551 0.11357
 H141 H 0.12713 0.80682 0.18168
 H142 H 0.08084 0.85509 0.14344
 H143 H 0.25342 0.93797 0.09679
 H144 H 0.29978 0.88964 0.13508
 C145 C 0.84967 0.70289 0.60473
 C146 C 0.88136 0.65870 0.60319
 C147 C 0.85532 0.60769 0.62382
 C148 C 0.80016 0.60590 0.64395
 C149 C 0.74883 0.60411 0.62117
 C150 C 0.77487 0.65513 0.60053
 C151 C 0.85754 0.72578 0.63834
 C152 C 0.83154 0.67485 0.65894
 C153 C 0.87795 0.75832 0.58282
 C154 C 0.90164 0.80495 0.56542
 C155 C 0.77249 0.55161 0.66646
 C156 C 0.75055 0.50828 0.68560
 H157 H 0.92069 0.66671 0.58728
 H158 H 0.87234 0.57200 0.62559
 H159 H 0.69667 0.56611 0.62121
 H160 H 0.74502 0.66083 0.58290
 H161 H 0.88146 0.77750 0.64535
 H162 H 0.83319 0.68296 0.68359
 C163 C 0.29711 0.14668 0.60472
 C164 C 0.34300 0.22220 0.60227
 C165 C 0.39401 0.24717 0.62290
 C166 C 0.39409 0.19416 0.64395
 C167 C 0.39421 0.14242 0.62204
 C168 C 0.34320 0.11745 0.60140
 C169 C 0.27417 0.13420 0.63837
 C170 C 0.32510 0.15913 0.65898
 C171 C 0.24167 0.11953 0.58281
 C172 C 0.19504 0.09661 0.56541
 C173 C 0.44838 0.22078 0.66646
 C174 C 0.49171 0.24218 0.68560
 H175 H 0.33610 0.25329 0.58577
 H176 H 0.43082 0.29966 0.62407
 H177 H 0.43113 0.12685 0.62264
 H178 H 0.33642 0.08048 0.58433
 H179 H 0.22241 0.10806 0.64542
 H180 H 0.31695 0.15433 0.68366
 C181 C 0.85331 0.15032 0.60477
 C182 C 0.90140 0.22358 0.61248
 C183 C 0.87644 0.24961 0.63310
 C184 C 0.80583 0.19984 0.64399
 C185 C 0.81033 0.14047 0.65651
 C186 C 0.83526 0.11446 0.63591
 C187 C 0.78947 0.14818 0.59379
 C188 C 0.76449 0.17424 0.61443
 C189 C 0.88046 0.12204 0.58286
 C190 C 0.90339 0.09835 0.56546
 C191 C 0.77921 0.22751 0.66650
 C192 C 0.75780 0.24944 0.68563
 H193 H 0.95067 0.25248 0.60258
 H194 H 0.90433 0.30081 0.64087
 H195 H 0.79520 0.12055 0.67956
 H196 H 0.84148 0.07228 0.64132
 H197 H 0.76600 0.12805 0.57176
 H198 H 0.71962 0.17643 0.61008
 C199 C 0.29841 0.15092 0.89553
 C200 C 0.27523 0.13757 0.86192
 C201 C 0.32596 0.16352 0.84122
 C202 C 0.39503 0.20035 0.85611
 C203 C 0.39702 0.14969 0.87811
 C204 C 0.34619 0.12368 0.89885
 C205 C 0.34261 0.22670 0.89781
 C206 C 0.39343 0.25270 0.87707
 C207 C 0.24305 0.12260 0.91747
 C208 C 0.19614 0.09867 0.93470
 C209 C 0.44905 0.22794 0.83348
 C210 C 0.49212 0.24976 0.81422
 H211 H 0.22344 0.11010 0.85497
 H212 H 0.31761 0.15828 0.81656
 H213 H 0.43503 0.13557 0.87749
 H214 H 0.34065 0.08729 0.91599
 H215 H 0.33475 0.25721 0.91428
 H216 H 0.42911 0.30549 0.87578
 C217 C 0.85240 0.70155 0.89554
 C218 C 0.86478 0.72478 0.86192
 C219 C 0.84002 0.67405 0.84123
 C220 C 0.80524 0.60494 0.85612
 C221 C 0.75211 0.60458 0.87725
 C222 C 0.77692 0.65541 0.89798
 C223 C 0.88192 0.65567 0.89870
 C224 C 0.85710 0.60484 0.87797
 C225 C 0.87945 0.75691 0.91748
 C226 C 0.90245 0.80383 0.93470
 C227 C 0.77881 0.55091 0.83349
 C228 C 0.75759 0.50785 0.81423
 H229 H 0.89076 0.77659 0.85497
 H230 H 0.84479 0.68243 0.81656
 H231 H 0.69967 0.56764 0.87605
 H232 H 0.74575 0.66200 0.91455
 H233 H 0.91894 0.66244 0.91574
 H234 H 0.87286 0.56807 0.87724
 C235 C 0.84907 0.14756 0.89558
 C236 C 0.85773 0.13301 0.86199
 C237 C 0.83177 0.15778 0.84130
 C238 C 0.79963 0.19473 0.85616
 C239 C 0.85417 0.24816 0.87651
 C240 C 0.88017 0.22335 0.89725
 C241 C 0.77410 0.11990 0.89948
 C242 C 0.74809 0.14471 0.87874
 C243 C 0.87738 0.12051 0.91751
 C244 C 0.90131 0.09751 0.93474
 C245 C 0.77204 0.22116 0.83352
 C246 C 0.75021 0.24239 0.81426
 H247 H 0.88213 0.10562 0.85506
 H248 H 0.83394 0.15159 0.81665
 H249 H 0.87081 0.30081 0.87482
 H250 H 0.91909 0.25473 0.91332
 H251 H 0.74412 0.08408 0.91700
 H252 H 0.69583 0.13016 0.87849
 C253 C 0.70150 0.84911 0.39557
 C254 C 0.72469 0.86242 0.36196
 C255 C 0.67396 0.83647 0.34127
 C256 C 0.60489 0.79969 0.35616
 C257 C 0.60293 0.85038 0.37814
 C258 C 0.65375 0.87638 0.39888
 C259 C 0.65728 0.77334 0.39787
 C260 C 0.60645 0.74733 0.37713
 C261 C 0.75686 0.87742 0.41751
 C262 C 0.80379 0.90134 0.43473
 C263 C 0.55087 0.77210 0.33352
 C264 C 0.50781 0.75027 0.31425
 H265 H 0.77647 0.88987 0.35501
 H266 H 0.68231 0.84169 0.31660
 H267 H 0.56494 0.86453 0.37751
 H268 H 0.65931 0.91280 0.41601
 H269 H 0.66512 0.74283 0.41434
 H270 H 0.57075 0.69455 0.37584
 C271 C 0.14752 0.29848 0.39557
 C272 C 0.11923 0.34531 0.39923
 C273 C 0.14405 0.39614 0.37849
 C274 C 0.19469 0.39509 0.35615
 C275 C 0.15846 0.32599 0.34128
 C276 C 0.13369 0.27526 0.36197
 C277 C 0.22321 0.34366 0.39750
 C278 C 0.24803 0.39448 0.37676
 C279 C 0.12048 0.24312 0.41751
 C280 C 0.09749 0.19619 0.43473
 C281 C 0.22111 0.44911 0.33351
 C282 C 0.24235 0.49217 0.31425
 H283 H 0.08301 0.33916 0.41659
 H284 H 0.12909 0.43353 0.37808
 H285 H 0.15274 0.31762 0.31662
 H286 H 0.10677 0.22345 0.35503
 H287 H 0.25453 0.33644 0.41374
 H288 H 0.30061 0.43080 0.37524
 C289 C 0.15085 0.85245 0.39551
 C290 C 0.10730 0.82201 0.36692
 C291 C 0.13326 0.79723 0.34622
 C292 C 0.20029 0.80528 0.35610
 C293 C 0.18746 0.77225 0.38788
 C294 C 0.16143 0.79709 0.40863
 C295 C 0.21902 0.90468 0.38299
 C296 C 0.24501 0.87988 0.36227
 C297 C 0.12254 0.87950 0.41745
 C298 C 0.09862 0.90250 0.43468
 C299 C 0.22788 0.77885 0.33347
 C300 C 0.24972 0.75762 0.31421
 H301 H 0.06012 0.82001 0.36325
 H302 H 0.10832 0.77402 0.32483
 H303 H 0.19792 0.73292 0.39359
 H304 H 0.14960 0.77903 0.43211
 H305 H 0.24468 0.95655 0.38984
 H306 H 0.29293 0.91050 0.35137
   
