data_POSCAR
  _audit_creation_date              2014-09-24
  _audit_creation_method            'ToBaCCo'
  _symmetry_space_group_name_H-M    'P1'
  _symmetry_Int_Tables_number       1
  _symmetry_cell_setting            triclinic
  loop_
  _symmetry_equiv_pos_as_xyz
 x,y,z
_cell_length_a 35.8052
_cell_length_b 26.1950
_cell_length_c 25.6642
_cell_angle_alpha 90.561000
_cell_angle_beta 90.023500
_cell_angle_gamma 90.292500
loop_
  _atom_site_label
  _atom_site_type_symbol
  _atom_site_fract_x
  _atom_site_fract_y
  _atom_site_fract_z
C1 C 0.24697 0.26556 0.26377
 C2 C 0.24706 0.21363 0.25764
 C3 C 0.21724 0.18698 0.22739
 C4 C 0.27757 0.18159 0.27890
 C5 C 0.27388 0.29210 0.29907
 C6 C 0.22021 0.29835 0.23492
 C7 C 0.17946 0.19588 0.23823
 C8 C 0.15181 0.17794 0.20430
 C9 C 0.16111 0.15012 0.15866
 C10 C 0.19905 0.13683 0.15140
 C11 C 0.22671 0.15554 0.18503
 C12 C 0.26892 0.13803 0.30805
 C13 C 0.29739 0.10856 0.32945
 C14 C 0.33498 0.12199 0.32179
 C15 C 0.34365 0.16530 0.29228
 C16 C 0.31524 0.19422 0.27013
 C17 C 0.29530 0.33303 0.28034
 C18 C 0.32143 0.35737 0.31256
 C19 C 0.32633 0.34139 0.36408
 C20 C 0.30476 0.30087 0.38316
 C21 C 0.27839 0.27673 0.35104
 C22 C 0.21506 0.29231 0.18090
 C23 C 0.18796 0.32046 0.15493
 C24 C 0.16710 0.35763 0.18169
 C25 C 0.17313 0.36498 0.23534
 C26 C 0.19940 0.33554 0.26173
 H27 H 0.17148 0.21839 0.27202
 H28 H 0.12297 0.18531 0.21445
 H29 H 0.20807 0.11551 0.11735
 H30 H 0.25574 0.14774 0.17632
 H31 H 0.24009 0.12741 0.31500
 H32 H 0.29013 0.07545 0.35236
 H33 H 0.32264 0.22692 0.24674
 H34 H 0.29220 0.34556 0.24048
 H35 H 0.33799 0.38856 0.29732
 H36 H 0.30818 0.28828 0.42294
 H37 H 0.26169 0.24582 0.36654
 H38 H 0.23143 0.26490 0.15900
 H39 H 0.18331 0.31328 0.11380
 H40 H 0.15729 0.39331 0.25685
 H41 H 0.20306 0.34118 0.30329
 H42 H 0.37245 0.17678 0.28657
 C43 C 0.74473 0.21921 0.25280
 C44 C 0.74379 0.27069 0.25990
 C45 C 0.77327 0.30368 0.23768
 C46 C 0.71369 0.29601 0.29015
 C47 C 0.71786 0.18475 0.27898
 C48 C 0.77300 0.19559 0.21834
 C49 C 0.80961 0.30296 0.25810
 C50 C 0.83774 0.33275 0.23579
 C51 C 0.82991 0.36353 0.19268
 C52 C 0.79357 0.36352 0.17192
 C53 C 0.76532 0.33439 0.19476
 C54 C 0.72275 0.32754 0.33288
 C55 C 0.69454 0.34872 0.36373
 C56 C 0.65688 0.33872 0.35221
 C57 C 0.64777 0.30892 0.30820
 C58 C 0.67596 0.28775 0.27737
 C59 C 0.69488 0.15219 0.24916
 C60 C 0.66710 0.12312 0.27323
 C61 C 0.66229 0.12598 0.32738
 C62 C 0.68617 0.15687 0.35748
 C63 C 0.71391 0.18596 0.33345
 C64 C 0.77136 0.20262 0.16427
 C65 C 0.79958 0.18337 0.13216
 C66 C 0.83017 0.15787 0.15391
 C67 C 0.83111 0.14951 0.20787
 C68 C 0.80260 0.16812 0.23987
 H69 H 0.81612 0.27914 0.29111
 H70 H 0.86565 0.33171 0.25201
 H71 H 0.78717 0.38592 0.13783
 H72 H 0.73748 0.33476 0.17825
 H73 H 0.75167 0.33460 0.34316
 H74 H 0.70203 0.37214 0.39718
 H75 H 0.66840 0.26437 0.24393
 H76 H 0.69759 0.15071 0.20715
 H77 H 0.64880 0.09930 0.24965
 H78 H 0.68272 0.15930 0.39935
 H79 H 0.73173 0.21037 0.35713
 H80 H 0.74847 0.22351 0.14716
 H81 H 0.79802 0.18923 0.09050
 H82 H 0.85428 0.12941 0.22524
 H83 H 0.80415 0.16244 0.28157
 H84 H 0.61883 0.30165 0.29816
 C85 C 0.75069 0.76948 0.75232
 C86 C 0.75137 0.71815 0.76083
 C87 C 0.72380 0.68328 0.73556
 C88 C 0.77964 0.69472 0.79551
 C89 C 0.78036 0.80403 0.77264
 C90 C 0.72055 0.79357 0.72139
 C91 C 0.70057 0.65247 0.76631
 C92 C 0.67164 0.62411 0.74333
 C93 C 0.66585 0.62605 0.68938
 C94 C 0.69006 0.65487 0.65830
 C95 C 0.71909 0.68294 0.68118
 C96 C 0.78495 0.71263 0.84683
 C97 C 0.81303 0.69208 0.87803
 C98 C 0.83593 0.65307 0.85848
 C99 C 0.82977 0.63389 0.80797
 C100 C 0.80182 0.65456 0.77671
 C101 C 0.81800 0.79580 0.76025
 C102 C 0.84570 0.82816 0.78033
 C103 C 0.83634 0.87026 0.81243
 C104 C 0.79836 0.87796 0.82467
 C105 C 0.77073 0.84562 0.80447
 C106 C 0.72981 0.82391 0.67841
 C107 C 0.70176 0.84437 0.64720
 C108 C 0.66413 0.83466 0.65855
 C109 C 0.65473 0.80586 0.70245
 C110 C 0.68276 0.78578 0.73394
 H111 H 0.70387 0.65211 0.80825
 H112 H 0.65304 0.60200 0.76768
 H113 H 0.68583 0.65663 0.61657
 H114 H 0.73709 0.70586 0.65674
 H115 H 0.76758 0.74281 0.86250
 H116 H 0.81706 0.70668 0.91727
 H117 H 0.79801 0.63998 0.73742
 H118 H 0.82590 0.76424 0.73507
 H119 H 0.87445 0.82086 0.76960
 H120 H 0.78998 0.90790 0.85154
 H121 H 0.74182 0.85223 0.81483
 H122 H 0.75878 0.83068 0.66833
 H123 H 0.70934 0.86690 0.61362
 H124 H 0.62572 0.79867 0.71196
 H125 H 0.67501 0.76348 0.76759
 H126 H 0.84698 0.60340 0.79256
 C127 C 0.24132 0.72024 0.75671
 C128 C 0.24186 0.77146 0.74798
 C129 C 0.27224 0.79530 0.71715
 C130 C 0.21260 0.80590 0.76874
 C131 C 0.21338 0.69559 0.79126
 C132 C 0.26947 0.68631 0.73224
 C133 C 0.30966 0.79091 0.73282
 C134 C 0.33832 0.80983 0.70146
 C135 C 0.32998 0.83338 0.65400
 C136 C 0.29252 0.83963 0.63938
 C137 C 0.26382 0.82073 0.67079
 C138 C 0.22277 0.84704 0.80105
 C139 C 0.19552 0.87871 0.82263
 C140 C 0.15734 0.87101 0.81119
 C141 C 0.14742 0.82938 0.77857
 C142 C 0.17476 0.79751 0.75726
 C143 C 0.19369 0.65244 0.77346
 C144 C 0.16821 0.62769 0.80584
 C145 C 0.16216 0.64496 0.85737
 C146 C 0.18143 0.68915 0.87450
 C147 C 0.20722 0.71354 0.84221
 C148 C 0.27253 0.68272 0.67778
 C149 C 0.30063 0.65317 0.65513
 C150 C 0.32577 0.62666 0.68667
 C151 C 0.32236 0.62941 0.74101
 C152 C 0.29415 0.65880 0.76369
 H153 H 0.31662 0.77216 0.76895
 H154 H 0.36705 0.80576 0.71392
 H155 H 0.28558 0.85840 0.60325
 H156 H 0.23509 0.82467 0.65829
 H157 H 0.25183 0.85364 0.81092
 H158 H 0.20439 0.90814 0.84993
 H159 H 0.16642 0.76614 0.73194
 H160 H 0.19813 0.63778 0.73435
 H161 H 0.15425 0.59379 0.79094
 H162 H 0.17621 0.70543 0.91274
 H163 H 0.22240 0.74642 0.85711
 H164 H 0.25349 0.70338 0.65298
 H165 H 0.30303 0.65125 0.61309
 H166 H 0.34163 0.60901 0.76570
 H167 H 0.29211 0.66118 0.80575
 H168 H 0.11851 0.82206 0.76841
 O169 O 1.03301 -0.03894 -0.03422
 O170 O 0.96151 0.02846 0.04301
 O171 O 0.96001 -0.03818 -0.03345
 O172 O 1.03383 0.02453 0.04381
 O173 O 1.03353 0.08965 -0.01026
 O174 O 0.96198 0.02449 -0.09028
 O175 O 0.96076 0.09015 -0.01445
 O176 O 1.03472 0.02567 -0.08872
 Cu177 Cu 0.99686 -0.01257 0.01025
 Cu178 Cu 0.99792 0.06383 -0.05657
 C179 C 1.04670 -0.01739 -0.07408
 C180 C 0.94896 0.07113 0.02769
 C181 C 0.94823 -0.01748 -0.07480
 C182 C 1.04590 0.06806 0.03036
 O183 O 0.53225 0.54419 0.54113
 O184 O 0.45727 0.48036 0.46745
 O185 O 0.45958 0.54361 0.54438
 O186 O 0.52974 0.47715 0.46394
 O187 O 0.53114 0.41460 0.52071
 O188 O 0.45934 0.47906 0.59927
 O189 O 0.45836 0.41575 0.52213
 O190 O 0.53253 0.48109 0.59759
 Cu191 Cu 0.49511 0.51779 0.49864
 Cu192 Cu 0.49579 0.44126 0.56560
 C193 C 0.54460 0.52415 0.58246
 C194 C 0.44434 0.43796 0.48295
 C195 C 0.44659 0.52164 0.58442
 C196 C 0.54184 0.43388 0.47806
 O197 O -0.03620 0.57475 0.02239
 O198 O 0.03521 0.50304 0.09464
 O199 O 0.03622 0.57248 0.02353
 O200 O -0.03792 0.50912 0.09803
 O201 O -0.04017 0.44647 0.03991
 O202 O 0.03314 0.51120 -0.03607
 O203 O 0.03301 0.44180 0.03479
 O204 O -0.03944 0.51199 -0.03557
 Cu205 Cu -0.00057 0.54585 0.06581
 Cu206 Cu -0.00376 0.47152 -0.00500
 C207 C -0.04966 0.55561 -0.01931
 C208 C 0.04699 0.46098 0.07598
 C209 C 0.04771 0.55231 -0.01859
 C210 C -0.05215 0.46764 0.08137
 O211 O 0.46200 1.03321 0.47546
 O212 O 0.53374 0.96544 0.55047
 O213 O 0.53417 1.03480 0.47739
 O214 O 0.46130 0.96661 0.55001
 O215 O 0.46193 0.90463 0.49120
 O216 O 0.53517 0.97291 0.41819
 O217 O 0.53508 0.90466 0.49079
 O218 O 0.46277 0.97136 0.41643
 Cu219 Cu 0.49784 1.00614 0.51936
 Cu220 Cu 0.49874 0.93205 0.44835
 C221 C 0.45063 1.01411 0.43259
 C222 C 0.54652 0.92311 0.53379
 C223 C 0.54666 1.01586 0.43522
 C224 C 0.44930 0.92382 0.53329
 C225 C 1.10239 0.16538 0.11110
 C226 C 1.13423 0.13486 0.12390
 C227 C 1.13678 0.08577 0.10099
 C228 C 1.10784 0.06530 0.07123
 C229 C 1.07537 0.09300 0.06197
 C230 C 1.07229 0.14341 0.08188
 C231 C 1.10100 0.21844 0.12250
 C232 C 1.06917 0.24692 0.11178
 C233 C 1.03835 0.22376 0.08841
 C234 C 1.03988 0.17261 0.07322
 H235 H 1.12473 0.23885 0.13853
 H236 H 1.06848 0.28721 0.12156
 H237 H 1.01347 0.24581 0.08087
 H238 H 1.01558 0.15629 0.05451
 H239 H 1.16001 0.06079 0.10918
 H240 H 1.11068 0.02687 0.05571
 C241 C 0.59912 0.62711 0.65762
 C242 C 0.63306 0.60075 0.66554
 C243 C 0.63636 0.54994 0.64902
 C244 C 0.60691 0.52535 0.62348
 C245 C 0.57364 0.55119 0.61297
 C246 C 0.56921 0.60232 0.63073
 C247 C 0.59423 0.67755 0.67620
 C248 C 0.56058 0.70298 0.66855
 C249 C 0.53136 0.67888 0.64213
 C250 C 0.53547 0.62905 0.62343
 H251 H 0.61627 0.69765 0.69687
 H252 H 0.55726 0.74170 0.68288
 H253 H 0.50531 0.69884 0.63624
 H254 H 0.51186 0.61164 0.60387
 H255 H 0.66216 0.52945 0.65526
 H256 H 0.61055 0.48624 0.61037
 C257 C -0.14285 0.44650 0.15769
 C258 C -0.13986 0.39342 0.16746
 C259 C -0.10813 0.36711 0.15028
 C260 C -0.08027 0.39176 0.12216
 C261 C -0.08305 0.44369 0.11058
 C262 C -0.11477 0.47154 0.12778
 C263 C -0.17295 0.47545 0.17749
 C264 C -0.17654 0.52696 0.16549
 C265 C -0.15035 0.55066 0.13373
 C266 C -0.11975 0.52342 0.11494
 H267 H -0.19377 0.45878 0.20275
 H268 H -0.19992 0.54853 0.18063
 H269 H -0.15363 0.59045 0.12381
 H270 H -0.10050 0.54343 0.08987
 H271 H -0.10526 0.32670 0.15783
 H272 H -0.05620 0.37005 0.10942
 C273 C 0.38865 0.82141 0.59937
 C274 C 0.36042 0.85322 0.62064
 C275 C 0.36180 0.90581 0.61195
 C276 C 0.39081 0.92743 0.58361
 C277 C 0.41956 0.89730 0.56293
 C278 C 0.41897 0.84370 0.57135
 C279 C 0.38727 0.76782 0.60497
 C280 C 0.41592 0.73717 0.58564
 C281 C 0.44652 0.75912 0.56099
 C282 C 0.44817 0.81177 0.55393
 H283 H 0.36402 0.74910 0.62389
 H284 H 0.41451 0.69622 0.59000
 H285 H 0.46904 0.73520 0.54703
 H286 H 0.47272 0.82688 0.53531
 H287 H 0.34043 0.93054 0.62797
 H288 H 0.39072 0.96834 0.57767
 C289 C -0.10142 0.65912 -0.09508
 C290 C -0.13410 0.63127 -0.10898
 C291 C -0.13799 0.58050 -0.09338
 C292 C -0.11042 0.55710 -0.06405
 C293 C -0.07802 0.58368 -0.04926
 C294 C -0.07302 0.63505 -0.06512
 C295 C -0.09571 0.70976 -0.11189
 C296 C -0.06289 0.73604 -0.09942
 C297 C -0.03507 0.71245 -0.07065
 C298 C -0.03982 0.66240 -0.05387
 H299 H -0.11622 0.72923 -0.13532
 H300 H -0.05871 0.77471 -0.11266
 H301 H -0.00946 0.73289 -0.06173
 H302 H -0.01694 0.64537 -0.03295
 H303 H -0.16270 0.55875 -0.10412
 H304 H -0.11447 0.51774 -0.05258
 C305 C 0.39540 1.07092 0.31905
 C306 C 0.36509 1.09247 0.34716
 C307 C 0.36401 1.08808 0.40148
 C308 C 0.39220 1.06312 0.42821
 C309 C 0.42258 1.04183 0.40162
 C310 C 0.42496 1.04676 0.34661
 C311 C 0.39687 1.07240 0.26408
 C312 C 0.42776 1.05363 0.23714
 C313 C 0.45763 1.03294 0.26422
 C314 C 0.45639 1.02941 0.31834
 H315 H 0.37419 1.08775 0.24137
 H316 H 0.42863 1.05550 0.19505
 H317 H 0.48185 1.01929 0.24314
 H318 H 0.48058 1.01377 0.33748
 H319 H 0.34120 1.10462 0.42355
 H320 H 0.39006 1.05996 0.47018
 C321 C 1.13365 -0.04428 -0.15728
 C322 C 1.12954 -0.09813 -0.16502
 C323 C 1.09757 -0.12229 -0.14469
 C324 C 1.07162 -0.09549 -0.11504
 C325 C 1.07630 -0.04341 -0.10439
 C326 C 1.10789 -0.01741 -0.12472
 C327 C 1.16149 -0.01581 -0.18343
 C328 C 1.16666 0.03605 -0.17298
 C329 C 1.14398 0.06089 -0.13699
 C330 C 1.11478 0.03468 -0.11314
 H331 H 1.17910 -0.03300 -0.21289
 H332 H 1.18850 0.05700 -0.19275
 H333 H 1.14862 0.10092 -0.12816
 H334 H 1.09803 0.05572 -0.08537
 H335 H 1.09334 -0.16306 -0.14927
 H336 H 1.04756 -0.11586 -0.10004
 C337 C 0.60079 0.32915 0.41211
 C338 C 0.62701 0.36028 0.38561
 C339 C 0.62428 0.41342 0.38951
 C340 C 0.59616 0.43614 0.41888
 C341 C 0.56948 0.40657 0.44504
 C342 C 0.57094 0.35236 0.44041
 C343 C 0.60390 0.27539 0.41170
 C344 C 0.57716 0.24508 0.43607
 C345 C 0.54647 0.26745 0.46011
 C346 C 0.54314 0.32045 0.46214
 H347 H 0.62711 0.25630 0.39302
 H348 H 0.57996 0.20396 0.43563
 H349 H 0.52517 0.24360 0.47749
 H350 H 0.51825 0.33561 0.48007
 H351 H 0.64414 0.43763 0.36947
 H352 H 0.59559 0.47743 0.42171
 C353 C 0.86113 -0.04458 -0.15812
 C354 C 0.86458 -0.09856 -0.16483
 C355 C 0.89637 -0.12259 -0.14445
 C356 C 0.92271 -0.09560 -0.11537
 C357 C 0.91870 -0.04333 -0.10566
 C358 C 0.88751 -0.01729 -0.12656
 C359 C 0.83334 -0.01646 -0.18434
 C360 C 0.82904 0.03570 -0.17518
 C361 C 0.85256 0.06118 -0.14045
 C362 C 0.88162 0.03520 -0.11642
 H363 H 0.81511 -0.03419 -0.21289
 H364 H 0.80725 0.05642 -0.19503
 H365 H 0.84865 0.10151 -0.13272
 H366 H 0.89909 0.05676 -0.08977
 H367 H 0.90001 -0.16342 -0.14841
 H368 H 0.94648 -0.11599 -0.09991
 C369 C 0.35023 0.41843 0.41455
 C370 C 0.35430 0.36708 0.39776
 C371 C 0.38616 0.33975 0.41199
 C372 C 0.41468 0.36311 0.44054
 C373 C 0.41225 0.41456 0.45540
 C374 C 0.37941 0.44246 0.44366
 C375 C 0.31733 0.44602 0.40401
 C376 C 0.31322 0.49611 0.42179
 C377 C 0.34155 0.51955 0.45054
 C378 C 0.37430 0.49319 0.46151
 H379 H 0.29429 0.42893 0.38273
 H380 H 0.28777 0.51670 0.41365
 H381 H 0.33802 0.55825 0.46481
 H382 H 0.39496 0.51272 0.48511
 H383 H 0.38935 0.30030 0.39975
 H384 H 0.43936 0.34122 0.44985
 C385 C 0.14244 0.61098 -0.05578
 C386 C 0.13610 0.61971 -0.10997
 C387 C 0.10196 0.60336 -0.13186
 C388 C 0.07401 0.58192 -0.10147
 C389 C 0.07859 0.57642 -0.04779
 C390 C 0.11303 0.59083 -0.02425
 C391 C 0.17820 0.61751 -0.03299
 C392 C 0.18401 0.60905 0.01988
 C393 C 0.15479 0.59250 0.05108
 C394 C 0.11978 0.58288 0.02937
 H395 H 0.20242 0.62744 -0.05589
 H396 H 0.21152 0.61459 0.03657
 H397 H 0.15956 0.58547 0.09204
 H398 H 0.09877 0.56741 0.05496
 H399 H 0.09589 0.60922 -0.17271
 H400 H 0.04803 0.57055 -0.12003
 C401 C 0.59433 1.11746 0.35250
 C402 C 0.63129 1.09837 0.35254
 C403 C 0.63923 1.05271 0.37803
 C404 C 0.61120 1.02589 0.40375
 C405 C 0.57468 1.04454 0.40538
 C406 C 0.56578 1.09041 0.37941
 C407 C 0.58519 1.16307 0.32662
 C408 C 0.54863 1.18120 0.32677
 C409 C 0.52067 1.15464 0.35291
 C410 C 0.52904 1.10974 0.37913
 H411 H 0.60614 1.18512 0.30626
 H412 H 0.54202 1.21622 0.30681
 H413 H 0.49236 1.16893 0.35295
 H414 H 0.50650 1.09027 0.39884
 H415 H 0.66742 1.03788 0.37815
 H416 H 0.61820 0.99080 0.42344
 C417 C 0.14497 0.41281 0.10648
 C418 C 0.13792 0.38716 0.15405
 C419 C 0.10170 0.38765 0.17496
 C420 C 0.07259 0.41205 0.14936
 C421 C 0.07852 0.43516 0.10122
 C422 C 0.11473 0.43512 0.07890
 C423 C 0.18150 0.41807 0.08631
 C424 C 0.18772 0.44180 0.03867
 C425 C 0.15789 0.46101 0.01039
 C426 C 0.12174 0.45791 0.03023
 H427 H 0.20565 0.40483 0.10741
 H428 H 0.21586 0.44536 0.02367
 H429 H 0.16283 0.47926 -0.02666
 H430 H 0.09951 0.47406 0.00735
 H431 H 0.09574 0.36834 0.21118
 H432 H 0.04502 0.41201 0.16677
 C433 C 0.61279 0.82212 0.59173
 C434 C 0.63447 0.85449 0.62440
 C435 C 0.62725 0.90673 0.62612
 C436 C 0.59863 0.92740 0.59664
 C437 C 0.57587 0.89659 0.56450
 C438 C 0.58254 0.84280 0.56249
 C439 C 0.62083 0.76952 0.58739
 C440 C 0.59877 0.73732 0.55666
 C441 C 0.56799 0.75658 0.53057
 C442 C 0.55980 0.80853 0.53341
 H443 H 0.64420 0.75279 0.60770
 H444 H 0.60511 0.69701 0.55400
 H445 H 0.55031 0.73109 0.50794
 H446 H 0.53521 0.82045 0.51300
 H447 H 0.64384 0.93179 0.65087
 H448 H 0.59446 0.96830 0.59888
 C449 C 0.88389 0.17211 0.09047
 C450 C 0.86104 0.13911 0.12045
 C451 C 0.86798 0.08671 0.11981
 C452 C 0.89652 0.06631 0.08967
 C453 C 0.91955 0.09742 0.05897
 C454 C 0.91355 0.15137 0.05956
 C455 C 0.87848 0.22554 0.09166
 C456 C 0.90090 0.25783 0.06225
 C457 C 0.93002 0.23808 0.03284
 C458 C 0.93666 0.18574 0.03182
 H459 H 0.85715 0.24309 0.11551
 H460 H 0.89593 0.29851 0.06263
 H461 H 0.94787 0.26358 0.01097
 H462 H 0.96045 0.17374 0.00948
 H463 H 0.85080 0.06111 0.14263
 H464 H 0.90027 0.02529 0.09003
 C465 C 0.34943 0.54814 0.63941
 C466 C 0.35599 0.59660 0.66261
 C467 C 0.39181 0.61809 0.66143
 C468 C 0.42096 0.59301 0.63631
 C469 C 0.41528 0.54517 0.61283
 C470 C 0.37940 0.52195 0.61458
 C471 C 0.31365 0.52526 0.64017
 C472 C 0.30743 0.47787 0.61642
 C473 C 0.33663 0.45236 0.59185
 C474 C 0.37230 0.47392 0.59102
 H475 H 0.29024 0.54377 0.65902
 H476 H 0.27982 0.46087 0.61706
 H477 H 0.33162 0.41568 0.57328
 H478 H 0.39401 0.45275 0.57137
 H479 H 0.39699 0.65522 0.67908
 H480 H 0.44815 0.61120 0.63505
   
