data_POSCAR
  _audit_creation_date              2014-09-24
  _audit_creation_method            'ToBaCCo'
  _symmetry_space_group_name_H-M    'P1'
  _symmetry_Int_Tables_number       1
  _symmetry_cell_setting            triclinic
  loop_
  _symmetry_equiv_pos_as_xyz
 x,y,z
_cell_length_a 30.2067
_cell_length_b 31.9287
_cell_length_c 34.5438
_cell_angle_alpha 89.090700
_cell_angle_beta 90.044400
_cell_angle_gamma 61.208800
loop_
  _atom_site_label
  _atom_site_type_symbol
  _atom_site_fract_x
  _atom_site_fract_y
  _atom_site_fract_z
O1 O -0.11042 0.31648 0.03499
 O2 O -0.07804 0.37702 -0.04240
 O3 O -0.11775 0.32050 -0.04048
 O4 O -0.06767 0.36986 0.03280
 O5 O 0.00743 0.30609 0.02760
 O6 O -0.04228 0.25709 -0.04505
 O7 O -0.00272 0.31348 -0.04699
 O8 O -0.03541 0.25255 0.03011
 Cu9 Cu -0.10113 0.35239 -0.00337
 Cu10 Cu -0.01068 0.27589 -0.00910
 C11 C -0.07839 0.27450 0.04595
 C12 C -0.03486 0.35553 -0.05791
 C13 C -0.08830 0.28042 -0.05528
 C14 C -0.02149 0.34592 0.04279
 O15 O 0.46385 0.79408 0.53647
 O16 O 0.52416 0.83876 0.46615
 O17 O 0.47350 0.79227 0.46048
 O18 O 0.51421 0.84081 0.54147
 O19 O 0.58551 0.77259 0.54658
 O20 O 0.54491 0.72429 0.46634
 O21 O 0.59544 0.77060 0.47192
 O22 O 0.53527 0.72596 0.54134
 Cu23 Cu 0.48669 0.82333 0.50058
 Cu24 Cu 0.57233 0.74150 0.50709
 C25 C 0.48975 0.75243 0.55115
 C26 C 0.56998 0.81212 0.45701
 C27 C 0.50277 0.75001 0.44945
 C28 C 0.55671 0.81479 0.55783
 O29 O 1.15968 0.58207 0.03546
 O30 O 1.06493 0.57601 -0.02789
 O31 O 1.14670 0.58304 -0.03792
 O32 O 1.07906 0.57285 0.04665
 O33 O 1.03287 0.65147 0.04806
 O34 O 1.10138 0.66177 -0.03724
 O35 O 1.01973 0.65476 -0.02782
 O36 O 1.11329 0.66059 0.03789
 Cu37 Cu 1.11692 0.57066 0.00406
 Cu38 Cu 1.06195 0.66507 0.00538
 C39 C 1.15300 0.62220 0.04721
 C40 C 1.02660 0.61441 -0.03914
 C41 C 1.13622 0.62386 -0.05176
 C42 C 1.04471 0.61023 0.06192
 O43 O 0.50161 0.20866 0.55354
 O44 O 0.48003 0.15942 0.46308
 O45 O 0.54848 0.18092 0.48825
 O46 O 0.44221 0.17430 0.53228
 O47 O 0.39060 0.24924 0.51465
 O48 O 0.49737 0.25349 0.46520
 O49 O 0.42720 0.23347 0.44422
 O50 O 0.45139 0.28183 0.53106
 Cu51 Cu 0.49821 0.17351 0.51136
 Cu52 Cu 0.43663 0.26143 0.48651
 C53 C 0.48011 0.25389 0.55728
 C54 C 0.44914 0.18904 0.43829
 C55 C 0.54138 0.21774 0.46905
 C56 C 0.39877 0.21058 0.53190
 O57 O 0.66771 0.05298 -0.01194
 O58 O 0.73536 -0.04381 0.05968
 O59 O 0.67826 0.04898 0.06217
 O60 O 0.72491 -0.03882 -0.01630
 O61 O 0.79226 -0.02901 -0.02165
 O62 O 0.74666 0.05718 0.05735
 O63 O 0.80289 -0.03440 0.05400
 O64 O 0.73545 0.06223 -0.01744
 Cu65 Cu 0.69502 0.00337 0.02409
 Cu66 Cu 0.77628 0.01466 0.01752
 C67 C 0.69022 0.07406 -0.02678
 C68 C 0.78021 -0.05487 0.06964
 C69 C 0.70444 0.06822 0.07283
 C70 C 0.76590 -0.04772 -0.03302
 O71 O 0.15568 0.53905 0.51084
 O72 O 0.22730 0.57299 0.44270
 O73 O 0.16996 0.53360 0.43630
 O74 O 0.21803 0.57371 0.51816
 O75 O 0.28439 0.50164 0.52243
 O76 O 0.23404 0.46057 0.44387
 O77 O 0.29185 0.49986 0.44744
 O78 O 0.22232 0.46770 0.51893
 Cu79 Cu 0.18612 0.56223 0.47649
 Cu80 Cu 0.26450 0.47538 0.48376
 C81 C 0.17704 0.49787 0.52683
 C82 C 0.27136 0.54189 0.43289
 C83 C 0.19401 0.49020 0.42620
 C84 C 0.25968 0.54412 0.53413
 O85 O 0.30222 1.03611 -0.00445
 O86 O 0.27008 0.96420 -0.06898
 O87 O 0.25615 1.05106 -0.07124
 O88 O 0.31618 0.94907 -0.00231
 O89 O 0.24373 0.97323 0.02795
 O90 O 0.18373 1.07564 -0.04089
 O91 O 0.19741 0.98886 -0.03889
 O92 O 0.23011 1.06042 0.02632
 Cu93 Cu 0.29344 0.99766 -0.03968
 Cu94 Cu 0.20645 1.02712 -0.00333
 C95 C 0.27199 1.06020 0.02207
 C96 C 0.22813 0.96456 -0.06510
 C97 C 0.20943 1.08051 -0.06801
 C98 C 0.29039 0.94372 0.02445
 O99 O 0.78856 0.51674 0.57105
 O100 O 0.82357 0.42404 0.49769
 O101 O 0.83394 0.49969 0.50427
 O102 O 0.77617 0.44219 0.56317
 O103 O 0.70406 0.48373 0.53125
 O104 O 0.76088 0.54364 0.47426
 O105 O 0.75112 0.46769 0.46672
 O106 O 0.71478 0.55945 0.54171
 Cu107 Cu 0.81285 0.46648 0.53714
 Cu108 Cu 0.72526 0.51855 0.50057
 C109 C 0.74537 0.55354 0.56921
 C110 C 0.79348 0.42989 0.46990
 C111 C 0.80736 0.53097 0.47887
 C112 C 0.73064 0.45247 0.55661
 C113 C 0.21197 0.29394 0.22777
 C114 C 0.25282 0.24939 0.22550
 C115 C 0.26072 0.21815 0.19194
 C116 C 0.29335 0.22960 0.25545
 C117 C 0.20574 0.32796 0.25906
 C118 C 0.17025 0.31229 0.19864
 C119 C 0.22627 0.20221 0.18214
 C120 C 0.23473 0.17341 0.14982
 C121 C 0.27807 0.15977 0.12701
 C122 C 0.31266 0.17532 0.13752
 C123 C 0.30415 0.20401 0.16961
 C124 C 0.30634 0.18513 0.27300
 C125 C 0.34335 0.16621 0.30204
 C126 C 0.36778 0.19162 0.31417
 C127 C 0.35642 0.23510 0.29532
 C128 C 0.31989 0.25370 0.26592
 C129 C 0.19272 0.37521 0.24852
 C130 C 0.18192 0.40952 0.27662
 C131 C 0.18498 0.39721 0.31598
 C132 C 0.19899 0.34982 0.32689
 C133 C 0.20836 0.31559 0.29860
 C134 C 0.17915 0.31385 0.15885
 C135 C 0.13892 0.33135 0.13239
 C136 C 0.08915 0.34937 0.14546
 C137 C 0.08007 0.34996 0.18524
 C138 C 0.12029 0.33116 0.21157
 H139 H 0.19285 0.21223 0.19941
 H140 H 0.20741 0.16188 0.14296
 H141 H 0.34642 0.16541 0.12076
 H142 H 0.33127 0.21581 0.17680
 H143 H 0.28687 0.16560 0.26481
 H144 H 0.35152 0.13267 0.31609
 H145 H 0.31172 0.28720 0.25179
 H146 H 0.19015 0.38577 0.21829
 H147 H 0.17146 0.44579 0.26768
 H148 H 0.20107 0.33981 0.35720
 H149 H 0.21682 0.27983 0.30754
 H150 H 0.21711 0.30136 0.14829
 H151 H 0.14646 0.33116 0.10174
 H152 H 0.04193 0.36352 0.19577
 H153 H 0.11250 0.33102 0.24216
 H154 H 0.37555 0.25489 0.30357
 C155 C 0.83918 0.70435 0.27520
 C156 C 0.80514 0.75197 0.27395
 C157 C 0.80544 0.78272 0.24166
 C158 C 0.76495 0.77553 0.30337
 C159 C 0.84096 0.67264 0.30767
 C160 C 0.87597 0.68117 0.24348
 C161 C 0.82479 0.81407 0.24798
 C162 C 0.82963 0.84022 0.21712
 C163 C 0.81348 0.83662 0.17985
 C164 C 0.79232 0.80656 0.17380
 C165 C 0.78883 0.77929 0.20450
 C166 C 0.77567 0.76966 0.34334
 C167 C 0.73636 0.78798 0.37012
 C168 C 0.68595 0.81429 0.35740
 C169 C 0.67558 0.82327 0.31768
 C170 C 0.71463 0.80375 0.29091
 C171 C 0.79905 0.66678 0.31704
 C172 C 0.80075 0.63914 0.34943
 C173 C 0.84469 0.61639 0.37269
 C174 C 0.88705 0.62113 0.36220
 C175 C 0.88524 0.64881 0.32998
 C176 C 0.87661 0.64245 0.22433
 C177 C 0.90901 0.62154 0.19325
 C178 C 0.94089 0.63938 0.18039
 C179 C 0.94127 0.67731 0.20014
 C180 C 0.90975 0.69744 0.23188
 H181 H 0.83774 0.81696 0.27657
 H182 H 0.84563 0.86357 0.22228
 H183 H 0.77980 0.80333 0.14517
 H184 H 0.77380 0.75516 0.19933
 H185 H 0.81425 0.74975 0.35380
 H186 H 0.74515 0.78140 0.40073
 H187 H 0.70526 0.80940 0.26034
 H188 H 0.76479 0.68433 0.29971
 H189 H 0.76754 0.63599 0.35613
 H190 H 0.92154 0.60384 0.37925
 H191 H 0.91807 0.65265 0.32297
 H192 H 0.85131 0.62896 0.23303
 H193 H 0.90842 0.59207 0.17862
 H194 H 0.96650 0.69084 0.19139
 H195 H 0.91150 0.72591 0.24719
 H196 H 0.63696 0.84351 0.30732
 C197 C 0.72309 0.24884 0.26959
 C198 C 0.75773 0.26425 0.26629
 C199 C 0.78624 0.25748 0.23006
 C200 C 0.76997 0.28706 0.29875
 C201 C 0.69981 0.24800 0.30712
 C202 C 0.71294 0.22485 0.23714
 C203 C 0.82970 0.21397 0.22328
 C204 C 0.85776 0.20809 0.18979
 C205 C 0.84305 0.24572 0.16252
 C206 C 0.79883 0.28915 0.16929
 C207 C 0.77082 0.29495 0.20288
 C208 C 0.82027 0.26880 0.31106
 C209 C 0.83229 0.28922 0.34198
 C210 C 0.79439 0.32868 0.36111
 C211 C 0.74398 0.34750 0.34836
 C212 C 0.73194 0.32690 0.31741
 C213 C 0.64712 0.26980 0.31059
 C214 C 0.62533 0.26476 0.34482
 C215 C 0.65599 0.23738 0.37615
 C216 C 0.70875 0.21688 0.37287
 C217 C 0.73042 0.22191 0.33868
 C218 C 0.66988 0.24965 0.21360
 C219 C 0.65912 0.22578 0.18452
 C220 C 0.69205 0.17723 0.17795
 C221 C 0.73561 0.15274 0.20111
 C222 C 0.74552 0.17621 0.23088
 H223 H 0.84225 0.18480 0.24424
 H224 H 0.89150 0.17428 0.18551
 H225 H 0.78589 0.31890 0.14902
 H226 H 0.73727 0.32875 0.20784
 H227 H 0.85031 0.23811 0.29723
 H228 H 0.87142 0.27400 0.35102
 H229 H 0.69292 0.34194 0.30808
 H230 H 0.62277 0.29013 0.28661
 H231 H 0.58466 0.28114 0.34608
 H232 H 0.73341 0.19565 0.39642
 H233 H 0.77119 0.20416 0.33640
 H234 H 0.64443 0.28724 0.21802
 H235 H 0.62540 0.24519 0.16687
 H236 H 0.76110 0.11513 0.19686
 H237 H 0.77844 0.15640 0.24927
 H238 H 0.71370 0.37763 0.36248
 C239 C 0.32966 0.73970 0.23123
 C240 C 0.30625 0.71246 0.22977
 C241 C 0.28492 0.70525 0.19342
 C242 C 0.30870 0.68128 0.26296
 C243 C 0.36172 0.73590 0.26526
 C244 C 0.32932 0.76959 0.19755
 C245 C 0.23368 0.71746 0.19139
 C246 C 0.21565 0.70107 0.16105
 C247 C 0.24904 0.67099 0.13305
 C248 C 0.29978 0.66061 0.13422
 C249 C 0.31749 0.67805 0.16393
 C250 C 0.28302 0.70069 0.29747
 C251 C 0.28533 0.67050 0.32823
 C252 C 0.31405 0.62056 0.32502
 C253 C 0.34023 0.60149 0.29062
 C254 C 0.33712 0.63150 0.25975
 C255 C 0.40500 0.69243 0.27400
 C256 C 0.43462 0.68789 0.30644
 C257 C 0.42207 0.72684 0.33084
 C258 C 0.37911 0.77081 0.32154
 C259 C 0.34934 0.77528 0.28890
 C260 C 0.37512 0.76457 0.18341
 C261 C 0.37575 0.79151 0.15136
 C262 C 0.33055 0.82461 0.13285
 C263 C 0.28451 0.83019 0.14736
 C264 C 0.28394 0.80292 0.17940
 H265 H 0.20827 0.73772 0.21430
 H266 H 0.17654 0.70899 0.16100
 H267 H 0.32608 0.63734 0.11296
 H268 H 0.35733 0.66752 0.16545
 H269 H 0.26098 0.73906 0.30040
 H270 H 0.26521 0.68613 0.35459
 H271 H 0.35745 0.61587 0.23343
 H272 H 0.41574 0.66187 0.25568
 H273 H 0.46752 0.65367 0.31246
 H274 H 0.36824 0.80169 0.33937
 H275 H 0.31624 0.80922 0.28238
 H276 H 0.41064 0.73913 0.19681
 H277 H 0.41179 0.78642 0.14100
 H278 H 0.24898 0.85504 0.13377
 H279 H 0.24807 0.80786 0.19008
 H280 H 0.36248 0.56319 0.28740
 C281 C 0.69288 0.28375 0.75919
 C282 C 0.65797 0.26903 0.76545
 C283 C 0.62001 0.27487 0.73577
 C284 C 0.65735 0.24353 0.80149
 C285 C 0.73193 0.27558 0.78867
 C286 C 0.69445 0.30867 0.72285
 C287 C 0.58488 0.32011 0.72123
 C288 C 0.55138 0.32419 0.69167
 C289 C 0.55237 0.28315 0.67639
 C290 C 0.58618 0.23811 0.69232
 C291 C 0.61959 0.23408 0.72178
 C292 C 0.61218 0.25999 0.82213
 C293 C 0.60940 0.23415 0.85409
 C294 C 0.65181 0.19155 0.86609
 C295 C 0.69723 0.17532 0.84565
 C296 C 0.69981 0.20085 0.81336
 C297 C 0.78292 0.24657 0.77971
 C298 C 0.82045 0.23853 0.80687
 C299 C 0.80770 0.26019 0.84315
 C300 C 0.75649 0.28956 0.85204
 C301 C 0.71881 0.29710 0.82497
 C302 C 0.69368 0.29058 0.68612
 C303 C 0.69313 0.31592 0.65259
 C304 C 0.69604 0.35827 0.65527
 C305 C 0.69928 0.37517 0.69177
 C306 C 0.69801 0.35083 0.72527
 H307 H 0.58415 0.35201 0.73223
 H308 H 0.52545 0.35937 0.68014
 H309 H 0.58725 0.20588 0.68194
 H310 H 0.64610 0.19891 0.73308
 H311 H 0.57883 0.29254 0.81307
 H312 H 0.57403 0.24722 0.86935
 H313 H 0.73447 0.18663 0.79703
 H314 H 0.79356 0.22987 0.75173
 H315 H 0.85961 0.21597 0.79930
 H316 H 0.74561 0.30629 0.87994
 H317 H 0.67953 0.31987 0.83216
 H318 H 0.69315 0.25712 0.68334
 H319 H 0.69133 0.30217 0.62452
 H320 H 0.70145 0.40789 0.69426
 H321 H 0.69922 0.36526 0.75318
 H322 H 0.73020 0.14201 0.85368
 C323 C 0.25269 0.72384 0.74126
 C324 C 0.27034 0.75577 0.73949
 C325 C 0.30897 0.75020 0.71039
 C326 C 0.25626 0.79304 0.76930
 C327 C 0.23304 0.71429 0.77775
 C328 C 0.26073 0.69086 0.70906
 C329 C 0.35431 0.70692 0.70897
 C330 C 0.39047 0.70016 0.68123
 C331 C 0.38263 0.73669 0.65441
 C332 C 0.33758 0.78064 0.65642
 C333 C 0.30115 0.78737 0.68437
 C334 C 0.29346 0.79998 0.78794
 C335 C 0.28045 0.83260 0.81797
 C336 C 0.22989 0.85907 0.82979
 C337 C 0.19262 0.85302 0.81028
 C338 C 0.20559 0.82064 0.78019
 C339 C 0.18567 0.71611 0.77843
 C340 C 0.17141 0.69847 0.81070
 C341 C 0.20501 0.67762 0.84198
 C342 C 0.25155 0.67725 0.84182
 C343 C 0.26525 0.69602 0.81014
 C344 C 0.24141 0.70869 0.67188
 C345 C 0.24949 0.67727 0.64162
 C346 C 0.27758 0.62764 0.64811
 C347 C 0.29709 0.61002 0.68529
 C348 C 0.28829 0.64131 0.71559
 H349 H 0.36159 0.67815 0.72938
 H350 H 0.42478 0.66611 0.68081
 H351 H 0.33014 0.80968 0.63638
 H352 H 0.26654 0.82117 0.68528
 H353 H 0.33279 0.77906 0.78010
 H354 H 0.31025 0.83600 0.83248
 H355 H 0.17610 0.81656 0.76574
 H356 H 0.16075 0.72941 0.75342
 H357 H 0.13574 0.69814 0.81025
 H358 H 0.27801 0.66063 0.86561
 H359 H 0.30235 0.69343 0.80977
 H360 H 0.22003 0.74688 0.66640
 H361 H 0.23451 0.69170 0.61311
 H362 H 0.31870 0.57192 0.69095
 H363 H 0.30376 0.62687 0.74402
 H364 H 0.15337 0.87320 0.81847
 C365 C 0.17447 0.28453 0.72985
 C366 C 0.14311 0.33261 0.73231
 C367 C 0.13773 0.36514 0.69946
 C368 C 0.11095 0.35420 0.76659
 C369 C 0.17429 0.25011 0.75945
 C370 C 0.20988 0.26498 0.69701
 C371 C 0.16146 0.39354 0.70079
 C372 C 0.15944 0.42152 0.66861
 C373 C 0.13198 0.42286 0.63540
 C374 C 0.10663 0.39589 0.63466
 C375 C 0.11017 0.36655 0.66629
 C376 C 0.13156 0.34249 0.80420
 C377 C 0.09993 0.35611 0.83627
 C378 C 0.04738 0.38309 0.83128
 C379 C 0.02718 0.39873 0.79398
 C380 C 0.05873 0.38417 0.76181
 C381 C 0.12895 0.25092 0.76989
 C382 C 0.12776 0.22315 0.80113
 C383 C 0.17206 0.19301 0.82207
 C384 C 0.21799 0.19011 0.81015
 C385 C 0.21906 0.21838 0.77907
 C386 C 0.20656 0.23265 0.67174
 C387 C 0.23733 0.21727 0.63906
 C388 C 0.27150 0.23433 0.63104
 C389 C 0.27566 0.26567 0.65703
 C390 C 0.24559 0.28034 0.68994
 H391 H 0.18274 0.39284 0.72627
 H392 H 0.17885 0.44250 0.66962
 H393 H 0.08533 0.39664 0.60919
 H394 H 0.09160 0.34483 0.66497
 H395 H 0.17192 0.32072 0.80861
 H396 H 0.11630 0.34448 0.86491
 H397 H 0.04199 0.39415 0.73313
 H398 H 0.09409 0.27439 0.75467
 H399 H 0.09197 0.22571 0.80933
 H400 H 0.25278 0.16747 0.82566
 H401 H 0.25449 0.21701 0.77140
 H402 H 0.17943 0.22020 0.67687
 H403 H 0.23395 0.19264 0.61967
 H404 H 0.30277 0.27819 0.65235
 H405 H 0.24977 0.30415 0.70977
 H406 H -0.01326 0.41968 0.78959
 C407 C 0.75292 0.76892 0.76833
 C408 C 0.77887 0.72015 0.77205
 C409 C 0.76814 0.68988 0.74530
 C410 C 0.81949 0.69555 0.80188
 C411 C 0.75729 0.80008 0.79777
 C412 C 0.71862 0.79288 0.73467
 C413 C 0.71853 0.69772 0.74030
 C414 C 0.70658 0.67651 0.70987
 C415 C 0.74418 0.64597 0.68448
 C416 C 0.79453 0.63526 0.69135
 C417 C 0.80638 0.65706 0.72154
 C418 C 0.82073 0.65848 0.82509
 C419 C 0.85789 0.63628 0.85388
 C420 C 0.89414 0.65111 0.86028
 C421 C 0.89365 0.68737 0.83647
 C422 C 0.85728 0.70874 0.80715
 C423 C 0.77568 0.83136 0.78713
 C424 C 0.78424 0.85769 0.81524
 C425 C 0.77314 0.85426 0.85426
 C426 C 0.75274 0.82440 0.86466
 C427 C 0.74518 0.79725 0.83664
 C428 C 0.73583 0.78007 0.69666
 C429 C 0.70172 0.79584 0.66559
 C430 C 0.64998 0.82591 0.67181
 C431 C 0.63345 0.84211 0.70937
 C432 C 0.66751 0.82555 0.74062
 H433 H 0.68857 0.72239 0.75869
 H434 H 0.66765 0.68491 0.70554
 H435 H 0.82437 0.61203 0.67227
 H436 H 0.84486 0.65048 0.72492
 H437 H 0.79244 0.64723 0.82132
 H438 H 0.85786 0.60807 0.87167
 H439 H 0.85863 0.73573 0.78860
 H440 H 0.78513 0.83403 0.75728
 H441 H 0.79967 0.88075 0.80658
 H442 H 0.74419 0.82095 0.89458
 H443 H 0.73069 0.77342 0.84528
 H444 H 0.77537 0.75592 0.69131
 H445 H 0.71559 0.78375 0.63679
 H446 H 0.59379 0.86555 0.71479
 H447 H 0.65355 0.83623 0.76966
 H448 H 0.92204 0.69849 0.84000
 N449 N 0.32965 0.11454 0.07277
 N450 N 0.32931 0.08764 0.04415
 C451 C 0.28565 0.08608 0.04678
 C452 C 0.25910 0.11295 0.07799
 N453 N 0.28799 0.13011 0.09359
 H454 H 0.22272 0.11890 0.08822
 N455 N 0.68469 0.64947 0.63488
 N456 N 0.68355 0.62641 0.60364
 C457 C 0.73042 0.58936 0.59964
 C458 C 0.76037 0.59037 0.62943
 N459 N 0.73044 0.62847 0.65084
 H460 H 0.79981 0.56550 0.63505
 N461 N 0.85727 0.87214 0.14444
 N462 N 0.84959 0.90120 0.11438
 C463 C 0.80431 0.91152 0.09904
 C464 C 0.78464 0.88750 0.12028
 N465 N 0.81877 0.86354 0.14838
 H466 H 0.74807 0.88935 0.11704
 N467 N 0.08791 0.48267 0.58449
 N468 N 0.09845 0.50399 0.55546
 C469 C 0.14915 0.48495 0.55493
 C470 C 0.16944 0.45162 0.58464
 N471 N 0.13001 0.45138 0.60239
 H472 H 0.20884 0.42971 0.59259
 N473 N 0.91623 0.20012 0.12151
 N474 N 0.93853 0.20620 0.09054
 C475 C 0.90916 0.25154 0.07799
 C476 C 0.86826 0.27307 0.10212
 N477 N 0.87398 0.23986 0.12911
 H478 H 0.83860 0.30985 0.10071
 N479 N 0.46228 0.68666 0.62213
 N480 N 0.49162 0.68926 0.59485
 C481 C 0.46778 0.73426 0.58044
 C482 C 0.42276 0.75937 0.59985
 N483 N 0.42074 0.72830 0.62583
 H484 H 0.39534 0.79673 0.59607
 N485 N 0.26146 0.60023 0.09892
 N486 N 0.23611 0.58550 0.07671
 C487 C 0.19025 0.62357 0.07007
 C488 C 0.18817 0.66230 0.08907
 N489 N 0.23345 0.64612 0.10670
 H490 H 0.15683 0.69828 0.09041
 N491 N 0.48289 0.32867 0.63114
 N492 N 0.46274 0.32221 0.59929
 C493 C 0.48827 0.27512 0.59192
 C494 C 0.52465 0.25279 0.62017
 N495 N 0.52017 0.28749 0.64418
 H496 H 0.55306 0.21551 0.62169
 N497 N 0.60528 0.16464 0.90821
 N498 N 0.61398 0.13328 0.93670
 C499 C 0.66390 0.11223 0.94447
 C500 C 0.68560 0.13141 0.92003
 N501 N 0.64783 0.16389 0.89769
 H502 H 0.72504 0.12218 0.91845
 N503 N 0.35421 0.54473 0.36103
 N504 N 0.34431 0.52262 0.38977
 C505 C 0.29864 0.55396 0.40349
 C506 C 0.28085 0.59614 0.38237
 N507 N 0.31665 0.58890 0.35609
 H508 H 0.24439 0.62785 0.38451
 N509 N 0.17227 0.90842 0.88004
 N510 N 0.17037 0.93651 0.90855
 C511 C 0.21476 0.93688 0.90847
 C512 C 0.24394 0.90827 0.87907
 N513 N 0.21613 0.89103 0.86194
 H514 H 0.28132 0.90148 0.87080
 N515 N 0.85200 0.32650 0.41169
 N516 N 0.85333 0.35228 0.44088
 C517 C 0.80803 0.39208 0.44134
 C518 C 0.77878 0.38994 0.41156
 N519 N 0.80758 0.34830 0.39368
 H520 H 0.74047 0.41618 0.40390
 N521 N -0.03165 0.42744 0.86640
 N522 N -0.05524 0.42077 0.89627
 C523 C -0.02296 0.37785 0.91221
 C524 C 0.02131 0.35873 0.89166
 N525 N 0.01441 0.39070 0.86333
 H526 H 0.05400 0.32370 0.89533
 N527 N 0.60063 0.86821 0.37965
 N528 N 0.56842 0.86891 0.40601
 C529 C 0.59348 0.82878 0.42784
 C530 C 0.64213 0.80364 0.41430
 N531 N 0.64512 0.82943 0.38427
 H532 H 0.67129 0.76850 0.42356
 N533 N 0.95076 0.58318 0.90140
 N534 N 0.98648 0.57196 0.92807
 C535 C 0.99016 0.61179 0.93414
 C536 C 0.95577 0.64777 0.91019
 N537 N 0.93201 0.62845 0.89011
 H538 H 0.94910 0.68418 0.90742
 N539 N 0.42609 0.13031 0.36018
 N540 N 0.44885 0.12790 0.39371
 C541 C 0.43729 0.17309 0.40214
 C542 C 0.40730 0.20301 0.37291
 N543 N 0.40114 0.17516 0.34721
 H544 H 0.38920 0.24167 0.37172
 N545 N 0.82122 0.89079 0.88029
 N546 N 0.82107 0.91616 0.91030
 C547 C 0.78237 0.92167 0.93294
 C548 C 0.75873 0.89878 0.91591
 N549 N 0.78413 0.88001 0.88306
 H550 H 0.72519 0.89770 0.92553
 N551 N 0.13786 0.47851 0.33949
 N552 N 0.13881 0.50451 0.36864
 C553 C 0.17623 0.47460 0.39274
 C554 C 0.19806 0.42928 0.37762
 N555 N 0.17302 0.43331 0.34437
 H556 H 0.23069 0.39729 0.38846
 N557 N 0.12721 0.17913 0.87529
 N558 N 0.13597 0.14987 0.90541
 C559 C 0.18571 0.11822 0.90532
 C560 C 0.20727 0.12910 0.87410
 N561 N 0.16941 0.16740 0.85602
 H562 H 0.24633 0.11045 0.86520
 N563 N 0.88824 0.56469 0.42844
 N564 N 0.87980 0.54175 0.45732
 C565 C 0.83127 0.55173 0.45394
 C566 C 0.81020 0.58135 0.42204
 N567 N 0.84706 0.58860 0.40673
 H568 H 0.77209 0.59530 0.41100
 N569 N 0.22388 0.60383 0.87579
 N570 N 0.20568 0.58798 0.90385
 C571 C 0.16435 0.62629 0.91733
 C572 C 0.15740 0.66634 0.89641
 N573 N 0.19551 0.65057 0.87093
 H574 H 0.12808 0.70303 0.89945
 N575 N 0.66239 0.19443 0.43658
 N576 N 0.63320 0.18797 0.46180
 C577 C 0.58513 0.21787 0.45098
 C578 C 0.58562 0.24296 0.41830
 N579 N 0.63477 0.22707 0.40999
 H580 H 0.55334 0.26818 0.40137
 N581 N 0.89316 0.21554 0.86964
 N582 N 0.92207 0.21962 0.89650
 C583 C 0.89300 0.26081 0.91481
 C584 C 0.84532 0.28186 0.89853
 N585 N 0.84696 0.25248 0.87038
 H586 H 0.81345 0.31607 0.90535
 N587 N 0.49428 0.68009 0.37353
 N588 N 0.51660 0.68468 0.40492
 C589 C 0.48884 0.73012 0.41640
 C590 C 0.44863 0.75342 0.39087
 N591 N 0.45342 0.72086 0.36435
 H592 H 0.41966 0.79048 0.39138
 N593 N 0.37424 0.84052 0.07992
 N594 N 0.36513 0.87120 0.05083
 C595 C 0.31548 0.90290 0.05168
 C596 C 0.29431 0.89061 0.08232
 N597 N 0.33234 0.85133 0.09930
 H598 H 0.25539 0.90903 0.09155
 N599 N 0.66271 0.39485 0.59196
 N600 N 0.67006 0.42114 0.56531
 C601 C 0.70870 0.42725 0.57816
 C602 C 0.72480 0.40414 0.61345
 N603 N 0.69513 0.38445 0.62103
 H604 H 0.75510 0.40169 0.63176
 N605 N 0.63478 0.15900 0.14083
 N606 N 0.63666 0.12970 0.11331
 C607 C 0.68557 0.10401 0.10327
 C608 C 0.71366 0.11827 0.12545
 N609 N 0.68062 0.15255 0.14855
 H610 H 0.75406 0.10512 0.12481
 N611 N 0.32562 0.55105 0.61677
 N612 N 0.32227 0.52779 0.58652
 C613 C 0.27952 0.55800 0.56732
 C614 C 0.25674 0.60068 0.58661
 N615 N 0.28671 0.59481 0.61738
 H616 H 0.22079 0.63181 0.58004
 N617 N 0.99260 0.57267 0.13870
 N618 N 1.02068 0.56355 0.10730
 C619 C 1.01859 0.60506 0.09595
 C620 C 0.98860 0.63997 0.12152
 N621 N 0.97321 0.61824 0.14784
 H622 H 0.97869 0.67739 0.12087
 N623 N 0.32009 0.17502 0.58284
 N624 N 0.35409 0.16744 0.55581
 C625 C 0.35845 0.20745 0.55299
 C626 C 0.32662 0.23961 0.57945
 N627 N 0.30348 0.21794 0.59771
 H628 H 0.32323 0.27396 0.58639
 N629 N 0.00152 0.39905 0.12446
 N630 N -0.02949 0.39943 0.09711
 C631 C -0.00127 0.36330 0.07331
 C632 C 0.04788 0.34105 0.08659
 N633 N 0.04809 0.36437 0.11849
 H634 H 0.07951 0.30884 0.07590
 N635 N 0.56906 0.87624 0.63892
 N636 N 0.54297 0.87460 0.60862
 C637 C 0.57253 0.83313 0.59077
 C638 C 0.61757 0.80952 0.61091
 N639 N 0.61405 0.83758 0.64070
 H640 H 0.64873 0.77429 0.60553
   
