data_POSCAR
  _audit_creation_date              2014-09-24
  _audit_creation_method            'ToBaCCo'
  _symmetry_space_group_name_H-M    'P1'
  _symmetry_Int_Tables_number       1
  _symmetry_cell_setting            triclinic
  loop_
  _symmetry_equiv_pos_as_xyz
 x,y,z
_cell_length_a 22.6761
_cell_length_b 22.8613
_cell_length_c 37.3136
_cell_angle_alpha 80.815600
_cell_angle_beta 98.667100
_cell_angle_gamma 87.603800
loop_
  _atom_site_label
  _atom_site_type_symbol
  _atom_site_fract_x
  _atom_site_fract_y
  _atom_site_fract_z
O1 O -0.06830 0.56531 0.95273
 O2 O -0.08554 0.43158 1.01912
 O3 O -0.08530 0.54455 1.02093
 O4 O -0.06895 0.45077 0.95078
 O5 O 0.02885 0.44136 0.96911
 O6 O 0.01260 0.53489 1.03908
 O7 O 0.01235 0.42224 1.03725
 O8 O 0.02950 0.55553 0.97105
 Cu9 Cu -0.08688 0.49908 0.98383
 Cu10 Cu 0.03072 0.48761 1.00575
 C11 C -0.01649 0.58348 0.95111
 C12 C -0.03944 0.40457 1.03953
 C13 C -0.03905 0.55524 1.04197
 C14 C -0.01731 0.42951 0.94850
 O15 O 0.57869 -0.01711 0.53887
 O16 O 0.44613 -0.03378 0.47208
 O17 O 0.56159 -0.03369 0.47092
 O18 O 0.46502 -0.01699 0.54002
 O19 O 0.45593 0.08024 0.52131
 O20 O 0.55276 0.06345 0.45206
 O21 O 0.43696 0.06336 0.45323
 O22 O 0.56988 0.08012 0.52017
 Cu23 Cu 0.51367 -0.03524 0.50713
 Cu24 Cu 0.50289 0.08158 0.48455
 C25 C 0.59643 0.03429 0.54099
 C26 C 0.41862 0.01198 0.45175
 C27 C 0.57430 0.01208 0.45023
 C28 C 0.44460 0.03442 0.54255
 C29 C -0.05107 -0.12504 0.23157
 C30 C -0.09998 -0.11888 0.25532
 C31 C -0.09832 -0.06903 0.27119
 C32 C -0.04729 -0.02961 0.26182
 C33 C -0.05786 -0.06695 0.20414
 C34 C -0.05518 -0.01697 0.21958
 C35 C 0.00724 -0.12140 0.25779
 C36 C 0.00986 -0.07130 0.27327
 H37 H -0.13217 -0.15155 0.26015
 H38 H -0.04510 0.01100 0.27457
 H39 H -0.06350 -0.06600 0.17469
 H40 H 0.04304 -0.15609 0.26384
 C41 C 0.12418 0.05371 0.73407
 C42 C 0.12086 -0.00230 0.76236
 C43 C 0.07004 -0.00365 0.77779
 C44 C 0.02745 0.05231 0.76417
 C45 C 0.06606 0.05776 0.70677
 C46 C 0.01542 0.05632 0.72218
 C47 C 0.11682 0.10479 0.75557
 C48 C 0.06633 0.10433 0.77137
 H49 H 0.15478 -0.03878 0.76842
 H50 H -0.01336 0.05139 0.77725
 H51 H 0.06558 0.06076 0.67746
 H52 H 0.14952 0.13716 0.75937
 C53 C -0.00023 -0.23411 0.17310
 C54 C -0.05090 -0.26574 0.16614
 C55 C -0.10136 -0.25422 0.18197
 C56 C -0.10149 -0.21050 0.20430
 C57 C -0.04493 -0.40852 0.06939
 C58 C -0.00023 -0.19047 0.19527
 C59 C -0.05184 -0.30709 0.14081
 C60 C -0.05110 -0.34020 0.11878
 C61 C -0.04852 -0.37751 0.09232
 C62 C -0.05065 -0.17806 0.21147
 H63 H 0.03879 -0.24203 0.16053
 H64 H -0.14123 -0.27783 0.17621
 H65 H -0.14237 -0.20103 0.21445
 H66 H 0.03879 -0.16499 0.19888
 C67 C -0.07980 0.14942 0.18579
 C68 C -0.05343 0.15524 0.15391
 C69 C -0.02670 0.10525 0.14405
 C70 C -0.02689 0.04955 0.16561
 C71 C -0.04530 0.35542 0.06407
 C72 C -0.07995 0.09349 0.20752
 C73 C -0.05354 0.21203 0.13085
 C74 C -0.05229 0.25831 0.11046
 C75 C -0.04925 0.31116 0.08569
 C76 C -0.05412 0.04282 0.19740
 H77 H -0.10051 0.18794 0.19371
 H78 H -0.00571 0.10931 0.11961
 H79 H -0.00511 0.01183 0.15750
 H80 H -0.10125 0.08991 0.23171
 C81 C 0.23531 -0.00088 0.67742
 C82 C 0.26574 0.04979 0.66809
 C83 C 0.25307 0.10145 0.68194
 C84 C 0.20927 0.10279 0.70457
 C85 C 0.40789 0.04060 0.56997
 C86 C 0.19157 0.00031 0.69991
 C87 C 0.30676 0.04949 0.64225
 C88 C 0.33963 0.04793 0.61985
 C89 C 0.37679 0.04463 0.59306
 C90 C 0.17789 0.05201 0.71404
 H91 H 0.24409 -0.04086 0.66638
 H92 H 0.27572 0.14128 0.67433
 H93 H 0.19872 0.14448 0.71302
 H94 H 0.16682 -0.03879 0.70522
 C95 C -0.15164 0.07903 0.68754
 C96 C -0.15658 0.04993 0.65702
 C97 C -0.10587 0.02162 0.64859
 C98 C -0.05027 0.02314 0.67010
 C99 C -0.35493 0.04009 0.56588
 C100 C -0.09580 0.08050 0.70923
 C101 C -0.21305 0.04934 0.63369
 C102 C -0.25892 0.04761 0.61299
 C103 C -0.31118 0.04419 0.58783
 C104 C -0.04437 0.05331 0.70038
 H105 H -0.19072 0.10100 0.69435
 H106 H -0.10925 -0.00143 0.62522
 H107 H -0.01193 0.00029 0.66307
 H108 H -0.09280 0.10399 0.73229
 C109 C -0.01668 -0.12597 0.82205
 C110 C 0.02899 -0.16123 0.84639
 C111 C 0.08765 -0.14363 0.84939
 C112 C 0.10086 -0.09163 0.82771
 C113 C -0.00961 -0.36248 0.92705
 C114 C -0.00357 -0.07383 0.80035
 C115 C 0.01626 -0.21607 0.86783
 C116 C 0.00689 -0.26230 0.88599
 C117 C -0.00265 -0.31649 0.90777
 C118 C 0.05548 -0.05646 0.80269
 H119 H -0.06224 -0.13923 0.81944
 H120 H 0.12333 -0.17042 0.86825
 H121 H 0.14662 -0.07905 0.83047
 H122 H -0.03931 -0.04825 0.78093
 C123 C 0.08575 0.21325 0.83850
 C124 C 0.02651 0.23329 0.83816
 C125 C -0.01991 0.21041 0.81650
 C126 C -0.00707 0.16802 0.79503
 C127 C -0.01088 0.38986 0.92291
 C128 C 0.09865 0.17101 0.81707
 C129 C 0.01386 0.27703 0.86030
 C130 C 0.00475 0.31335 0.87935
 C131 C -0.00434 0.35516 0.90240
 C132 C 0.05240 0.14817 0.79483
 H133 H 0.12204 0.23026 0.85539
 H134 H -0.06598 0.22551 0.81607
 H135 H -0.04362 0.15177 0.77810
 H136 H 0.14487 0.15580 0.81828
 C137 C -0.20501 -0.08953 0.34083
 C138 C -0.22535 -0.03084 0.34058
 C139 C -0.20280 0.01559 0.31851
 C140 C -0.16071 0.00329 0.29639
 C141 C -0.38482 0.00552 0.42502
 C142 C -0.16306 -0.10189 0.31874
 C143 C -0.26954 -0.01873 0.36291
 C144 C -0.30645 -0.00992 0.38192
 C145 C -0.34919 -0.00101 0.40478
 C146 C -0.14087 -0.05564 0.29591
 H147 H -0.22175 -0.12583 0.35802
 H148 H -0.21812 0.06124 0.31814
 H149 H -0.14495 0.03984 0.27908
 H150 H -0.14781 -0.14771 0.31976
 C151 C 0.11095 -0.01360 0.34878
 C152 C 0.16764 -0.03100 0.34196
 C153 C 0.17260 -0.06122 0.31268
 C154 C 0.12131 -0.07427 0.29040
 C155 C 0.36502 0.00535 0.42724
 C156 C 0.05943 -0.02657 0.32643
 C157 C 0.22093 -0.01901 0.36521
 C158 C 0.26619 -0.01021 0.38455
 C159 C 0.31955 -0.00125 0.40735
 C160 C 0.06411 -0.05734 0.29712
 H161 H 0.10658 0.00963 0.37148
 H162 H 0.21619 -0.07477 0.30707
 H163 H 0.12651 -0.09697 0.26762
 H164 H 0.01608 -0.01349 0.33252
   
