data_POSCAR
  _audit_creation_date              2014-09-24
  _audit_creation_method            'ToBaCCo'
  _symmetry_space_group_name_H-M    'P1'
  _symmetry_Int_Tables_number       1
  _symmetry_cell_setting            triclinic
  loop_
  _symmetry_equiv_pos_as_xyz
 x,y,z
_cell_length_a 31.2318
_cell_length_b 15.4450
_cell_length_c 10.2263
_cell_angle_alpha 89.208200
_cell_angle_beta 89.313000
_cell_angle_gamma 89.760300
loop_
  _atom_site_label
  _atom_site_type_symbol
  _atom_site_fract_x
  _atom_site_fract_y
  _atom_site_fract_z
C1 C 0.71400 0.29306 0.50130
 C2 C 0.73199 0.27782 0.37516
 C3 C 0.77512 0.25213 0.36631
 C4 C 0.80189 0.24892 0.47583
 C5 C 0.78385 0.26378 0.60274
 C6 C 0.74074 0.29098 0.61073
 H7 H 0.72604 0.30288 0.70495
 H8 H 0.78897 0.23967 0.27077
 C9 C 0.20274 0.74821 0.50822
 C10 C 0.22290 0.74439 0.38314
 C11 C 0.26594 0.71636 0.37689
 C12 C 0.28879 0.69317 0.48977
 C13 C 0.26930 0.70345 0.61518
 C14 C 0.22641 0.73085 0.62112
 H15 H 0.21052 0.73838 0.71496
 H16 H 0.28160 0.70777 0.28308
 C17 C 0.30096 0.24296 -0.52902
 C18 C 0.28183 0.23946 -0.40311
 C19 C 0.23816 0.21832 -0.39348
 C20 C 0.21216 0.21104 -0.50420
 C21 C 0.23145 0.21509 -0.63185
 C22 C 0.27575 0.23239 -0.63997
 H23 H 0.29201 0.23607 -0.73360
 H24 H 0.22295 0.21388 -0.29821
 C25 C -0.21166 0.79218 -0.52020
 C26 C -0.23036 0.78842 -0.39351
 C27 C -0.27369 0.76537 -0.38192
 C28 C -0.30003 0.75574 -0.49140
 C29 C -0.28154 0.76163 -0.61989
 C30 C -0.23741 0.78133 -0.63025
 H31 H -0.22143 0.78329 -0.72451
 H32 H -0.28808 0.75944 -0.28546
 O33 O -0.03749 0.85430 0.27430
 O34 O -0.09217 0.93973 0.19663
 C35 C -0.07704 0.88077 0.27496
 O36 O 0.08500 1.14551 0.15925
 O37 O 0.11666 1.06377 -0.00167
 C38 C 0.11800 1.11944 0.09186
 O39 O -0.02942 1.15728 0.27000
 O40 O -0.08813 1.08605 0.19321
 C41 C -0.07011 1.14067 0.27007
 O42 O 0.07751 0.83966 0.16300
 O43 O 0.11301 0.91559 0.00023
 C44 C 0.11175 0.85920 0.09538
 Zr45 Zr 0.01439 0.89092 0.14985
 O46 O 0.03564 0.88348 0.34552
 O47 O 0.00906 0.75495 0.13818
 Zr48 Zr 0.01975 1.11000 0.14556
 O49 O 0.03801 1.11883 0.34345
 O50 O 0.02146 1.24609 0.12269
 O51 O -0.01696 1.00412 0.20711
 O52 O 0.05465 0.99627 0.13730
 O53 O 0.03367 0.84073 -0.27928
 O54 O 0.09206 0.91688 -0.21027
 C55 C 0.07417 0.85915 -0.28246
 O56 O -0.07479 1.15702 -0.19040
 O57 O -0.10970 1.08665 -0.02121
 C58 C -0.10870 1.13952 -0.12048
 O59 O 0.04149 1.15783 -0.28465
 O60 O 0.09574 1.06938 -0.21220
 C61 C 0.08093 1.13122 -0.28622
 O62 O -0.08233 0.86580 -0.18505
 O63 O -0.11339 0.94383 -0.01915
 C64 C -0.11527 0.89146 -0.11680
 Zr65 Zr -0.01629 0.89482 -0.16493
 O66 O -0.03064 0.89247 -0.36664
 O67 O -0.02375 0.75876 -0.15233
 Zr68 Zr -0.01082 1.11335 -0.16946
 O69 O -0.02461 1.11650 -0.37170
 O70 O -0.01201 1.25033 -0.16497
 Zr71 Zr -0.05923 1.00901 0.04817
 Zr72 Zr 0.06300 0.99570 -0.06736
 O73 O 0.01988 1.00051 -0.22379
 O74 O -0.05233 1.00839 -0.15738
 O75 O 0.03550 0.87214 -0.04167
 O76 O -0.03096 1.13147 0.02131
 O77 O -0.03722 0.88101 0.02637
 O78 O 0.04173 1.12456 -0.04651
 H79 H 0.07979 0.99287 0.19525
 H80 H -0.04839 1.18418 0.03677
 H81 H 0.03115 0.99959 -0.31475
 H82 H -0.05732 0.83259 0.04369
 H83 H 0.03010 1.26886 0.20849
 H84 H 0.01550 1.26917 -0.12791
 H85 H -0.05066 1.08164 -0.38467
 H86 H -0.05335 0.93597 -0.38268
 H87 H 0.00309 0.73450 -0.11632
 H88 H 0.01701 0.73177 0.22545
 H89 H 0.01960 0.92775 0.39539
 H90 H 0.05008 1.06211 0.36980
 O91 O 0.47166 0.33102 0.26205
 O92 O 0.41261 0.40449 0.18772
 C93 C 0.43099 0.34824 0.26369
 O94 O 0.57484 0.65339 0.17922
 O95 O 0.61135 0.58820 0.01047
 C96 C 0.60915 0.63992 0.10905
 O97 O 0.45951 0.62225 0.29233
 O98 O 0.40601 0.54450 0.19709
 C99 C 0.42034 0.59366 0.28710
 O100 O 0.58575 0.34763 0.15036
 O101 O 0.61699 0.43897 -0.00174
 C102 C 0.61871 0.37833 0.08688
 Zr103 Zr 0.52044 0.38437 0.14033
 O104 O 0.54200 0.37458 0.33531
 O105 O 0.52299 0.24883 0.11595
 Zr106 Zr 0.51202 0.60281 0.15899
 O107 O 0.53100 0.61205 0.35604
 O108 O 0.50136 0.73835 0.15711
 O109 O 0.48233 0.48599 0.20664
 O110 O 0.55386 0.49922 0.14049
 O111 O 0.54357 0.35485 -0.28816
 O112 O 0.59697 0.44155 -0.21116
 C113 C 0.58285 0.38149 -0.28710
 O114 O 0.41686 0.64091 -0.17860
 O115 O 0.38618 0.55556 -0.01797
 C116 C 0.38412 0.61292 -0.11114
 O117 O 0.53236 0.66979 -0.27189
 O118 O 0.59141 0.59441 -0.20127
 C119 C 0.57313 0.65326 -0.27315
 O120 O 0.42684 0.34858 -0.19978
 O121 O 0.39140 0.41085 -0.02707
 C122 C 0.39272 0.36230 -0.12901
 Zr123 Zr 0.49037 0.39403 -0.17462
 O124 O 0.47692 0.39804 -0.37679
 O125 O 0.49063 0.25701 -0.17767
 Zr126 Zr 0.48286 0.61266 -0.15682
 O127 O 0.46525 0.63236 -0.35404
 O128 O 0.47533 0.74728 -0.12614
 Zr129 Zr 0.44052 0.48749 0.04616
 Zr130 Zr 0.56285 0.50916 -0.06383
 O131 O 0.52011 0.50995 -0.22139
 O132 O 0.44795 0.49779 -0.15865
 O133 O 0.54283 0.37910 -0.05152
 O134 O 0.46084 0.61706 0.03467
 O135 O 0.47013 0.36704 0.01405
 O136 O 0.53393 0.63094 -0.03073
 H137 H 0.57887 0.49954 0.19912
 H138 H 0.43977 0.66290 0.05684
 H139 H 0.53185 0.51420 -0.31168
 H140 H 0.45324 0.31333 0.02668
 H141 H 0.52559 0.76566 0.10912
 H142 H 0.50418 0.77228 -0.11537
 H143 H 0.47043 0.57722 -0.39945
 H144 H 0.45147 0.43549 -0.38790
 H145 H 0.51750 0.23721 -0.13630
 H146 H 0.53215 0.22416 0.20114
 H147 H 0.52376 0.41327 0.38870
 H148 H 0.54267 0.55489 0.38194
 C149 C 0.34717 0.25678 0.44754
 C150 C 0.37964 0.20668 0.49976
 C151 C 0.41636 0.23607 0.44077
 C152 C 0.40322 0.30040 0.35525
 O153 O 0.36138 0.31252 0.35846
 H154 H 0.37668 0.15400 0.57012
 H155 H 0.44856 0.21202 0.45552
 C156 C -0.16503 0.80155 0.45631
 C157 C -0.13440 0.74646 0.50753
 C158 C -0.09667 0.77148 0.45066
 C159 C -0.10723 0.83864 0.36667
 O160 O -0.14872 0.85631 0.36862
 H161 H -0.13929 0.69314 0.57579
 H162 H -0.06549 0.74227 0.46503
 C163 C 0.69591 0.73783 0.26569
 C164 C 0.71116 0.74464 0.13756
 C165 C 0.68060 0.70886 0.06131
 C166 C 0.64863 0.68367 0.14684
 O167 O 0.65790 0.69999 0.26962
 H168 H 0.74084 0.77200 0.10151
 H169 H 0.68139 0.70241 -0.04397
 C170 C 0.20919 1.19354 0.25227
 C171 C 0.22680 1.18820 0.12681
 C172 C 0.19480 1.16017 0.04860
 C173 C 0.15992 1.15129 0.13033
 O174 O 0.16857 1.16989 0.25258
 H175 H 0.25919 1.20044 0.09397
 H176 H 0.19672 1.14731 -0.05509
 C177 C 0.66990 0.30381 -0.47414
 C178 C 0.63832 0.25261 -0.52611
 C179 C 0.60136 0.27659 -0.46485
 C180 C 0.61298 0.33950 -0.37795
 O181 O 0.65461 0.35465 -0.38083
 H182 H 0.64210 0.20054 -0.59516
 H183 H 0.56988 0.24945 -0.47881
 C184 C 0.15686 0.76735 -0.47044
 C185 C 0.12384 0.71817 -0.51797
 C186 C 0.08777 0.74807 -0.45690
 C187 C 0.10168 0.81177 -0.37443
 O188 O 0.14353 0.82297 -0.38149
 H189 H 0.12613 0.66483 -0.58526
 H190 H 0.05546 0.72438 -0.46781
 C191 C 0.29146 0.68477 -0.26774
 C192 C 0.27274 0.66551 -0.14696
 C193 C 0.30553 0.63906 -0.06884
 C194 C 0.34178 0.64609 -0.14600
 O195 O 0.33351 0.67535 -0.26453
 H196 H 0.23914 0.66371 -0.12046
 H197 H 0.30306 0.61394 0.03031
 C198 C -0.19453 1.23955 -0.28059
 C199 C -0.21021 1.24661 -0.15316
 C200 C -0.18034 1.20848 -0.07468
 C201 C -0.14852 1.18184 -0.15878
 O202 O -0.15717 1.19918 -0.28194
 H203 H -0.23985 1.27476 -0.11904
 H204 H -0.18135 1.20196 0.03083
 C205 C 0.65610 0.74333 -0.46424
 C206 C 0.62245 0.78438 -0.52693
 C207 C 0.58631 0.75688 -0.46267
 C208 C 0.60061 0.70228 -0.36462
 O209 O 0.64272 0.69537 -0.36375
 H210 H 0.62408 0.83036 -0.60767
 H211 H 0.55356 0.77427 -0.48479
 C212 C 0.16787 1.20400 -0.47903
 C213 C 0.13633 1.25296 -0.53909
 C214 C 0.09917 1.23211 -0.47491
 C215 C 0.11077 1.17305 -0.37928
 O216 O 0.15237 1.15741 -0.37965
 H217 H 0.14018 1.30063 -0.61691
 H218 H 0.06752 1.25764 -0.49441
 C219 C 0.30504 0.26732 -0.28355
 C220 C 0.28660 0.27766 -0.16066
 C221 C 0.31748 0.31265 -0.08537
 C222 C 0.35259 0.32130 -0.16672
 O223 O 0.34518 0.29471 -0.28632
 H224 H 0.25411 0.26526 -0.12902
 H225 H 0.31444 0.33157 0.01588
 C226 C -0.20699 0.81604 -0.27408
 C227 C -0.22627 0.83869 -0.15642
 C228 C -0.19419 0.86794 -0.07975
 C229 C -0.15765 0.86114 -0.15531
 O230 O -0.16528 0.83050 -0.27255
 H231 H -0.25989 0.83827 -0.13022
 H232 H -0.19723 0.89332 0.01808
 C233 C 0.33022 0.64706 0.47114
 C234 C 0.33914 0.56717 0.52679
 C235 C 0.37789 0.54386 0.47716
 C236 C 0.38976 0.61008 0.39289
 O237 O 0.36015 0.67164 0.38561
 H238 H 0.31878 0.52878 0.59122
 H239 H 0.39333 0.48157 0.48929
 C240 C -0.15415 1.23464 0.45089
 C241 C -0.12072 1.27731 0.50975
 C242 C -0.08432 1.24667 0.45137
 C243 C -0.09814 1.18867 0.35995
 O244 O -0.14031 1.18278 0.35729
 H245 H -0.12269 1.32648 0.58403
 H246 H -0.05172 1.26538 0.47144
 C247 C 0.70958 0.30308 0.25142
 C248 C 0.72993 0.32904 0.13619
 C249 C 0.69830 0.35766 0.05518
 C250 C 0.66100 0.34674 0.12603
 O251 O 0.66779 0.31486 0.24420
 H252 H 0.76393 0.33224 0.11566
 H253 H 0.70212 0.38631 -0.04143
 C254 C 0.20047 0.77147 0.26010
 C255 C 0.21969 0.78201 0.13789
 C256 C 0.18853 0.81360 0.05770
 C257 C 0.15244 0.81947 0.13558
 O258 O 0.15964 0.79477 0.25753
 H259 H 0.25275 0.77144 0.10991
 H260 H 0.19197 0.83223 -0.04431
   
