data_POSCAR
  _audit_creation_date              2014-09-24
  _audit_creation_method            'ToBaCCo'
  _symmetry_space_group_name_H-M    'P1'
  _symmetry_Int_Tables_number       1
  _symmetry_cell_setting            triclinic
  loop_
  _symmetry_equiv_pos_as_xyz
 x,y,z
_cell_length_a 21.7646
_cell_length_b 22.6649
_cell_length_c 41.1358
_cell_angle_alpha 90.165500
_cell_angle_beta 90.348000
_cell_angle_gamma 94.348700
loop_
  _atom_site_label
  _atom_site_type_symbol
  _atom_site_fract_x
  _atom_site_fract_y
  _atom_site_fract_z
O1 O 0.06152 0.56252 1.03041
 O2 O 0.05530 0.45240 0.96394
 O3 O 0.05810 0.56763 0.96725
 O4 O 0.06125 0.44770 1.02697
 O5 O -0.04049 0.44048 1.02853
 O6 O -0.04352 0.56214 0.96919
 O7 O -0.04639 0.44685 0.96560
 O8 O -0.04017 0.55421 1.03284
 Cu9 Cu 0.06924 0.50832 0.99689
 Cu10 Cu -0.05289 0.50054 0.99909
 C11 C 0.01156 0.57629 1.04323
 C12 C 0.00322 0.43065 0.95363
 C13 C 0.00700 0.58546 0.95802
 C14 C 0.01108 0.42365 1.03794
 O15 O 0.55846 0.04157 0.46733
 O16 O 0.44192 0.04111 0.53224
 O17 O 0.56151 0.04314 0.53063
 O18 O 0.43903 0.04311 0.46906
 O19 O 0.43193 -0.05463 0.46796
 O20 O 0.55347 -0.05460 0.53123
 O21 O 0.43377 -0.05663 0.53125
 O22 O 0.55171 -0.05611 0.46778
 Cu23 Cu 0.50103 0.05202 0.49982
 Cu24 Cu 0.49203 -0.06532 0.49949
 C25 C 0.57505 -0.00742 0.45658
 C26 C 0.41792 -0.00807 0.54268
 C27 C 0.57808 -0.00541 0.54164
 C28 C 0.41466 -0.00545 0.45796
 C29 C -0.06952 0.03182 0.27111
 C30 C -0.02880 0.02867 0.24491
 C31 C -0.03133 0.06922 0.21930
 C32 C -0.07338 0.11336 0.21999
 C33 C -0.11433 0.11526 0.24611
 C34 C -0.11321 0.07444 0.27163
 C35 C 0.01612 -0.01730 0.24429
 C36 C 0.02246 -0.05190 0.21633
 C37 C 0.06207 -0.09782 0.21636
 C38 C 0.09770 -0.10753 0.24413
 C39 C 0.09447 -0.07126 0.27166
 C40 C 0.05225 -0.02722 0.27186
 H41 H -0.06691 0.00085 0.29095
 H42 H -0.00044 0.06604 0.19897
 H43 H -0.00531 -0.04469 0.19494
 H44 H 0.04729 -0.00035 0.29334
 H45 H -0.14740 0.14871 0.24657
 H46 H 0.12958 -0.14203 0.24388
 C47 C -0.03200 -0.06203 0.78189
 C48 C -0.02622 -0.02307 0.75550
 C49 C -0.06808 -0.02982 0.72950
 C50 C -0.11676 -0.07431 0.73004
 C51 C -0.12109 -0.11393 0.75624
 C52 C -0.07846 -0.10873 0.78205
 C53 C 0.02406 0.02452 0.75484
 C54 C 0.06577 0.02799 0.72895
 C55 C 0.11426 0.07266 0.72822
 C56 C 0.11877 0.11541 0.75304
 C57 C 0.07643 0.11339 0.77868
 C58 C 0.02992 0.06683 0.77981
 H59 H 0.00013 -0.05588 0.80201
 H60 H -0.06225 -0.00017 0.70900
 H61 H 0.05992 -0.00424 0.70950
 H62 H -0.00210 0.06333 0.79987
 H63 H -0.15768 -0.14917 0.75648
 H64 H 0.15532 0.15067 0.75231
 C65 C 0.01282 -0.38310 0.07111
 C66 C 0.06197 -0.34157 0.07721
 C67 C 0.06300 -0.30370 0.10628
 N68 N 0.09215 -0.24863 0.10576
 N69 N 0.09269 -0.21400 0.13203
 C70 C 0.06493 -0.23364 0.15988
 N71 N 0.03671 -0.28905 0.16053
 N72 N 0.03537 -0.32332 0.13414
 C73 C 0.06530 -0.19620 0.18906
 C74 C 0.06621 -0.13484 0.18706
 H75 H 0.09881 -0.33496 0.05970
 H76 H 0.05960 -0.21750 0.21251
 H77 H -0.02700 -0.38491 0.08685
 H78 H 0.06369 -0.11410 0.16343
 C79 C 0.01368 0.37596 0.06190
 C80 C -0.03885 0.35063 0.07718
 C81 C -0.03559 0.30439 0.10202
 N82 N -0.08717 0.28449 0.11820
 N83 N -0.08471 0.24319 0.14106
 C84 C -0.03055 0.22019 0.14853
 N85 N 0.02095 0.23986 0.13223
 N86 N 0.01852 0.28124 0.10943
 C87 C -0.02675 0.17496 0.17388
 C88 C -0.07672 0.15731 0.19360
 H89 H -0.08352 0.36601 0.07134
 H90 H 0.01741 0.15714 0.17782
 H91 H 0.05849 0.36141 0.06821
 H92 H -0.11912 0.17900 0.19084
 C93 C 0.37110 -0.00997 0.56830
 C94 C 0.35268 0.04076 0.58350
 C95 C 0.30615 0.03744 0.60939
 N96 N 0.29128 0.08740 0.62479
 N97 N 0.24942 0.08474 0.64837
 C98 C 0.22087 0.03197 0.65738
 N99 N 0.23562 -0.01790 0.64192
 N100 N 0.27748 -0.01525 0.61840
 C101 C 0.17460 0.02780 0.68334
 C102 C 0.15995 0.07669 0.70163
 H103 H 0.37323 0.08386 0.57654
 H104 H 0.15315 -0.01567 0.68872
 H105 H 0.35100 -0.05304 0.57561
 H106 H 0.18521 0.11902 0.69747
 C107 C -0.37371 -0.00322 0.56684
 C108 C -0.35572 -0.05333 0.58281
 C109 C -0.30889 -0.04867 0.60889
 N110 N -0.29474 -0.09751 0.62555
 N111 N -0.25290 -0.09334 0.64944
 C112 C -0.22372 -0.04011 0.65749
 N113 N -0.23774 0.00858 0.64076
 N114 N -0.27954 0.00441 0.61695
 C115 C -0.17748 -0.03399 0.68373
 C116 C -0.16288 -0.08112 0.70337
 H117 H -0.37722 -0.09658 0.57658
 H118 H -0.15587 0.00987 0.68820
 H119 H -0.35274 0.03999 0.57359
 H120 H -0.18833 -0.12374 0.70022
 C121 C 0.00766 -0.36897 0.93534
 C122 C -0.04569 -0.34710 0.92259
 C123 C -0.04263 -0.29971 0.89808
 N124 N -0.09495 -0.28317 0.88373
 N125 N -0.09240 -0.24091 0.86118
 C126 C -0.03739 -0.21356 0.85224
 N127 N 0.01479 -0.22985 0.86673
 N128 N 0.01225 -0.27214 0.88918
 C129 C -0.03308 -0.16738 0.82712
 C130 C -0.08374 -0.15253 0.80874
 H131 H -0.09064 -0.36581 0.93012
 H132 H 0.01226 -0.14672 0.82202
 H133 H 0.05216 -0.35046 0.92701
 H134 H -0.12792 -0.17687 0.81245
 C135 C -0.00081 0.38547 0.92786
 C136 C 0.05111 0.36385 0.91377
 C137 C 0.04603 0.31585 0.88949
 N138 N 0.09748 0.29738 0.87541
 N139 N 0.09341 0.25351 0.85367
 C140 C 0.03772 0.22641 0.84528
 N141 N -0.01365 0.24481 0.85941
 N142 N -0.00960 0.28870 0.88109
 C143 C 0.03206 0.17789 0.82137
 C144 C 0.08231 0.16022 0.80390
 H145 H 0.09666 0.38197 0.92098
 H146 H -0.01361 0.15733 0.81658
 H147 H -0.04631 0.36772 0.92034
 H148 H 0.12686 0.18429 0.80722
 C149 C -0.38085 -0.00887 0.43224
 C150 C -0.35345 0.04201 0.41764
 C151 C -0.30740 0.03877 0.39174
 N152 N -0.28521 0.08873 0.37634
 N153 N -0.24385 0.08620 0.35270
 C154 C -0.22307 0.03358 0.34365
 N155 N -0.24505 -0.01629 0.35916
 N156 N -0.28647 -0.01378 0.38272
 C157 C -0.17763 0.02963 0.31755
 C158 C -0.15749 0.07823 0.29862
 H159 H -0.36655 0.08526 0.42495
 H160 H -0.16168 -0.01348 0.31245
 H161 H -0.36798 -0.05181 0.42424
 H162 H -0.17759 0.11996 0.30248
 C163 C 0.36582 -0.00326 0.43329
 C164 C 0.33825 -0.05346 0.41790
 C165 C 0.29008 -0.04882 0.39292
 N166 N 0.26775 -0.09745 0.37604
 N167 N 0.22490 -0.09320 0.35302
 C168 C 0.20273 -0.04013 0.34614
 N169 N 0.22477 0.00830 0.36317
 N170 N 0.26762 0.00407 0.38609
 C171 C 0.15657 -0.03370 0.32040
 C172 C 0.13621 -0.07987 0.29955
 H173 H 0.35300 -0.09676 0.42380
 H174 H 0.14112 0.01006 0.31673
 H175 H 0.35169 0.03998 0.42676
 H176 H 0.15561 -0.12228 0.30200
   
