data_POSCAR
  _audit_creation_date              2014-09-24
  _audit_creation_method            'ToBaCCo'
  _symmetry_space_group_name_H-M    'P1'
  _symmetry_Int_Tables_number       1
  _symmetry_cell_setting            triclinic
  loop_
  _symmetry_equiv_pos_as_xyz
 x,y,z
_cell_length_a 33.9490
_cell_length_b 19.8513
_cell_length_c 11.3670
_cell_angle_alpha 89.557300
_cell_angle_beta 89.920200
_cell_angle_gamma 89.998900
loop_
  _atom_site_label
  _atom_site_type_symbol
  _atom_site_fract_x
  _atom_site_fract_y
  _atom_site_fract_z
C1 C 0.71774 0.27749 0.56043
 C2 C 0.71454 0.26403 0.43821
 C3 C 0.74453 0.22897 0.38050
 C4 C 0.77897 0.20849 0.43943
 C5 C 0.78202 0.22011 0.56295
 C6 C 0.75222 0.25709 0.61968
 H7 H 0.75398 0.26359 0.71414
 H8 H 0.74235 0.22324 0.28592
 C9 C 0.21776 0.77532 0.56062
 C10 C 0.21920 0.77912 0.43670
 C11 C 0.25211 0.75401 0.37710
 C12 C 0.28350 0.72422 0.43830
 C13 C 0.28252 0.72078 0.56351
 C14 C 0.24904 0.74573 0.62236
 H15 H 0.24794 0.74541 0.71771
 H16 H 0.25271 0.75571 0.28171
 C17 C 0.28215 0.27575 -0.56236
 C18 C 0.27912 0.28708 -0.44054
 C19 C 0.24542 0.26540 -0.38001
 C20 C 0.21526 0.22947 -0.43741
 C21 C 0.21807 0.21923 -0.56186
 C22 C 0.25208 0.24188 -0.62123
 H23 H 0.25435 0.23716 -0.71598
 H24 H 0.24429 0.27221 -0.28549
 C25 C -0.21725 0.77425 -0.56336
 C26 C -0.22023 0.78566 -0.44155
 C27 C -0.25356 0.76305 -0.38024
 C28 C -0.28341 0.72608 -0.43668
 C29 C -0.28058 0.71532 -0.56096
 C30 C -0.24682 0.73853 -0.62118
 H31 H -0.24462 0.73341 -0.71587
 H32 H -0.25457 0.76985 -0.28570
 O33 O -0.05412 0.87881 0.20907
 O34 O -0.09757 0.94326 0.10252
 C35 C -0.08948 0.89780 0.18131
 O36 O 0.05495 1.12085 0.20806
 O37 O 0.09859 1.05853 0.09978
 C38 C 0.09049 1.10370 0.17814
 O39 O -0.05563 1.11446 0.21656
 O40 O -0.09861 1.05598 0.10031
 C41 C -0.09100 1.09782 0.18414
 O42 O 0.05591 0.87612 0.19867
 O43 O 0.09897 0.94339 0.09559
 C44 C 0.09125 0.89589 0.17115
 Zr45 Zr 0.00055 0.91345 0.14246
 O46 O 0.00403 0.90654 0.32809
 O47 O -0.00043 0.80761 0.12412
 Zr48 Zr -0.00011 1.08401 0.14968
 O49 O 0.00397 1.08106 0.33556
 O50 O -0.00463 1.19036 0.15276
 O51 O -0.03483 0.99803 0.16981
 O52 O 0.03427 0.99875 0.16754
 O53 O 0.05529 0.88108 -0.21026
 O54 O 0.09872 0.94533 -0.10465
 C55 C 0.09073 0.89928 -0.18159
 O56 O -0.05595 1.12186 -0.21025
 O57 O -0.09893 1.05689 -0.10157
 C58 C -0.09116 1.10217 -0.18079
 O59 O 0.05510 1.12851 -0.20255
 O60 O 0.09855 1.06119 -0.10093
 C61 C 0.09044 1.10895 -0.17512
 O62 O -0.05515 0.88808 -0.22030
 O63 O -0.09851 0.94709 -0.10543
 C64 C -0.09061 0.90520 -0.18910
 Zr65 Zr 0.00025 0.91880 -0.15335
 O66 O 0.00447 0.92192 -0.33921
 O67 O -0.00340 0.81239 -0.15630
 Zr68 Zr -0.00010 1.08927 -0.14701
 O69 O 0.00389 1.09229 -0.33291
 O70 O -0.00462 1.19559 -0.14240
 Zr71 Zr -0.05846 1.00094 -0.00144
 Zr72 Zr 0.05895 1.00209 -0.00246
 O73 O 0.03421 1.00458 -0.17221
 O74 O -0.03495 1.00415 -0.17321
 O75 O 0.03585 0.90360 -0.00612
 O76 O -0.03437 1.09862 0.00197
 O77 O -0.03409 0.90363 -0.00550
 O78 O 0.03518 1.10021 0.00170
 H79 H 0.05169 0.99778 0.23739
 H80 H -0.05225 1.13806 0.00331
 H81 H 0.05181 1.00558 -0.24182
 H82 H -0.05196 0.86417 -0.00695
 H83 H 0.01782 1.20883 0.10730
 H84 H 0.01745 1.21243 -0.09412
 H85 H -0.01835 1.06576 -0.36430
 H86 H -0.01734 0.95039 -0.36871
 H87 H 0.01569 0.79492 -0.09786
 H88 H 0.00006 0.78872 0.20506
 H89 H -0.01525 0.93882 0.36047
 H90 H -0.01820 1.05346 0.36539
 O91 O 0.44544 0.37805 0.20820
 O92 O 0.40231 0.44262 0.10070
 C93 C 0.41012 0.39699 0.17956
 O94 O 0.55606 0.61755 0.21157
 O95 O 0.59936 0.55546 0.10180
 C96 C 0.59148 0.60024 0.18098
 O97 O 0.44566 0.61451 0.21823
 O98 O 0.40209 0.55429 0.10571
 C99 C 0.41028 0.59711 0.18755
 O100 O 0.55543 0.37068 0.19578
 O101 O 0.59914 0.43914 0.09727
 C102 C 0.59088 0.39037 0.16970
 Zr103 Zr 0.50048 0.41110 0.14219
 O104 O 0.50416 0.40307 0.32765
 O105 O 0.49818 0.30539 0.12249
 Zr106 Zr 0.50095 0.58144 0.15308
 O107 O 0.50467 0.57495 0.33885
 O108 O 0.49755 0.68777 0.16134
 O109 O 0.46562 0.49616 0.17116
 O110 O 0.53486 0.49537 0.16950
 O111 O 0.55509 0.38083 -0.21209
 O112 O 0.59892 0.44200 -0.10276
 C113 C 0.59069 0.39754 -0.18213
 O114 O 0.44663 0.62187 -0.21044
 O115 O 0.40289 0.56044 -0.09954
 C116 C 0.41108 0.60470 -0.18037
 O117 O 0.55712 0.62612 -0.19881
 O118 O 0.59994 0.55740 -0.09777
 C119 C 0.59228 0.60561 -0.17154
 O120 O 0.44446 0.38845 -0.21991
 O121 O 0.40148 0.44899 -0.10597
 C122 C 0.40911 0.40663 -0.18920
 Zr123 Zr 0.50018 0.41836 -0.15342
 O124 O 0.50419 0.42290 -0.33929
 O125 O 0.49614 0.31203 -0.15861
 Zr126 Zr 0.50147 0.58861 -0.14332
 O127 O 0.50590 0.59526 -0.32881
 O128 O 0.49754 0.69486 -0.13234
 Zr129 Zr 0.44202 0.50084 -0.00008
 Zr130 Zr 0.55961 0.49914 -0.00024
 O131 O 0.53495 0.50330 -0.17010
 O132 O 0.46575 0.50464 -0.17158
 O133 O 0.53566 0.40132 -0.00649
 O134 O 0.46695 0.59783 0.00531
 O135 O 0.46575 0.40307 -0.00595
 O136 O 0.53659 0.59774 0.00575
 H137 H 0.55241 0.49349 0.23902
 H138 H 0.44933 0.63761 0.00702
 H139 H 0.55246 0.50442 -0.23988
 H140 H 0.44766 0.36392 -0.00820
 H141 H 0.51849 0.70618 0.10979
 H142 H 0.52140 0.71108 -0.09149
 H143 H 0.48611 0.56419 -0.36192
 H144 H 0.48162 0.44975 -0.36838
 H145 H 0.51516 0.29397 -0.10048
 H146 H 0.49823 0.28613 0.20318
 H147 H 0.48540 0.43600 0.36073
 H148 H 0.48087 0.55116 0.36756
 C149 C 0.30946 0.36804 0.31326
 C150 C 0.31453 0.30506 0.36758
 C151 C 0.35022 0.27055 0.35448
 C152 C 0.38142 0.30054 0.29342
 C153 C 0.37679 0.36438 0.24083
 C154 C 0.34021 0.39714 0.24893
 H155 H 0.28177 0.39473 0.32133
 H156 H 0.35408 0.22092 0.39286
 H157 H 0.40907 0.27361 0.28666
 H158 H 0.33562 0.44584 0.20771
 C159 C -0.18593 0.87419 0.34162
 C160 C -0.18525 0.80489 0.36631
 C161 C -0.15352 0.76574 0.32726
 C162 C -0.12202 0.79614 0.26785
 C163 C -0.12265 0.86556 0.24313
 C164 C -0.15507 0.90421 0.27900
 H165 H -0.21027 0.90496 0.37142
 H166 H -0.15270 0.71215 0.34571
 H167 H -0.09735 0.76545 0.24024
 H168 H -0.15599 0.95786 0.26128
 C169 C 0.64864 0.70671 0.39623
 C170 C 0.68795 0.68868 0.37189
 C171 C 0.69516 0.64455 0.27763
 C172 C 0.66396 0.61637 0.21468
 C173 C 0.62478 0.63255 0.24279
 C174 C 0.61757 0.67880 0.33315
 H175 H 0.64176 0.74334 0.46327
 H176 H 0.72488 0.62915 0.25586
 H177 H 0.67058 0.58108 0.14522
 H178 H 0.58779 0.69329 0.35609
 C179 C 0.14726 1.21077 0.39401
 C180 C 0.18664 1.19292 0.37014
 C181 C 0.19399 1.14887 0.27580
 C182 C 0.16291 1.12057 0.21245
 C183 C 0.12366 1.13646 0.24017
 C184 C 0.11628 1.18270 0.33050
 H185 H 0.14026 1.24722 0.46124
 H186 H 0.22374 1.13350 0.25436
 H187 H 0.16968 1.08534 0.14303
 H188 H 0.08645 1.19697 0.35319
 C189 C 0.64707 0.28891 -0.39650
 C190 C 0.68652 0.30693 -0.37459
 C191 C 0.69407 0.35279 -0.28314
 C192 C 0.66309 0.38189 -0.22001
 C193 C 0.62379 0.36504 -0.24509
 C194 C 0.61624 0.31774 -0.33337
 H195 H 0.63986 0.25026 -0.45935
 H196 H 0.72387 0.36837 -0.26315
 H197 H 0.66999 0.41818 -0.15245
 H198 H 0.58640 0.30257 -0.35381
 C199 C 0.14976 0.77196 -0.35468
 C200 C 0.18540 0.80628 -0.37158
 C201 C 0.19061 0.86988 -0.32107
 C202 C 0.16018 0.89955 -0.25656
 C203 C 0.12387 0.86633 -0.24302
 C204 C 0.11902 0.80212 -0.29243
 H205 H 0.14571 0.72196 -0.39001
 H206 H 0.21819 0.89664 -0.33226
 H207 H 0.16473 0.94906 -0.21960
 H208 H 0.09152 0.77503 -0.28223
 C209 C 0.30736 0.65332 -0.27043
 C210 C 0.31429 0.69469 -0.36963
 C211 C 0.35361 0.70963 -0.39996
 C212 C 0.38490 0.68107 -0.33788
 C213 C 0.37784 0.63734 -0.24260
 C214 C 0.33872 0.62448 -0.20853
 H215 H 0.27764 0.64040 -0.24384
 H216 H 0.36039 0.74477 -0.47032
 H217 H 0.41466 0.69313 -0.36522
 H218 H 0.33223 0.59139 -0.13483
 C219 C -0.17681 1.12235 -0.38642
 C220 C -0.18813 1.18983 -0.36744
 C221 C -0.16842 1.22669 -0.27977
 C222 C -0.13643 1.19842 -0.21951
 C223 C -0.12466 1.13222 -0.24263
 C224 C -0.14548 1.09389 -0.32432
 H225 H -0.19229 1.09141 -0.44938
 H226 H -0.17624 1.27858 -0.26248
 H227 H -0.12079 1.22818 -0.15517
 H228 H -0.13703 1.04225 -0.34149
 C229 C 0.66786 0.73189 -0.27673
 C230 C 0.68714 0.69539 -0.36595
 C231 C 0.67628 0.62763 -0.38357
 C232 C 0.64605 0.59827 -0.31756
 C233 C 0.62563 0.63615 -0.23398
 C234 C 0.63674 0.70290 -0.21316
 H235 H 0.67534 0.78404 -0.26052
 H236 H 0.69144 0.59704 -0.44786
 H237 H 0.63798 0.54631 -0.33349
 H238 H 0.62127 0.73252 -0.14815
 C239 C 0.16644 1.23514 -0.27766
 C240 C 0.18557 1.19893 -0.36754
 C241 C 0.17432 1.13153 -0.38678
 C242 C 0.14375 1.10236 -0.32219
 C243 C 0.12355 1.13991 -0.23776
 C244 C 0.13511 1.20621 -0.21496
 H245 H 0.17427 1.28699 -0.26010
 H246 H 0.18941 1.10106 -0.45140
 H247 H 0.13532 1.05074 -0.33960
 H248 H 0.11986 1.23549 -0.14901
 C249 C 0.30747 0.38077 -0.32021
 C250 C 0.31190 0.31783 -0.37387
 C251 C 0.34785 0.28352 -0.36320
 C252 C 0.37952 0.31283 -0.30454
 C253 C 0.37548 0.37625 -0.25204
 C254 C 0.33899 0.40970 -0.25924
 H255 H 0.27978 0.40767 -0.32659
 H256 H 0.35134 0.23379 -0.40008
 H257 H 0.40701 0.28534 -0.29859
 H258 H 0.33504 0.45863 -0.21939
 C259 C -0.19349 0.87368 -0.30621
 C260 C -0.18736 0.81644 -0.37538
 C261 C -0.14967 0.78761 -0.38032
 C262 C -0.11823 0.81678 -0.32063
 C263 C -0.12405 0.87459 -0.25237
 C264 C -0.16209 0.90250 -0.24492
 H265 H -0.22244 0.89636 -0.30070
 H266 H -0.14460 0.74214 -0.43006
 H267 H -0.08946 0.79350 -0.32681
 H268 H -0.16750 0.94705 -0.19293
 C269 C 0.32110 0.62123 0.38001
 C270 C 0.31468 0.69087 0.36833
 C271 C 0.33914 0.72905 0.29378
 C272 C 0.37059 0.69842 0.23536
 C273 C 0.37721 0.62906 0.24838
 C274 C 0.35213 0.59049 0.31997
 H275 H 0.30246 0.59103 0.43706
 H276 H 0.33461 0.78281 0.28400
 H277 H 0.38972 0.72868 0.17985
 H278 H 0.35723 0.53706 0.33179
 C279 C -0.15007 1.20368 0.39602
 C280 C -0.18908 1.18361 0.37189
 C281 C -0.19542 1.13841 0.27886
 C282 C -0.16365 1.11102 0.21733
 C283 C -0.12474 1.12875 0.24603
 C284 C -0.11839 1.17617 0.33485
 H285 H -0.14392 1.24129 0.46197
 H286 H -0.22483 1.12144 0.25719
 H287 H -0.16962 1.07500 0.14855
 H288 H -0.08888 1.19210 0.35760
 C289 C 0.65536 0.25617 0.30723
 C290 C 0.68374 0.29572 0.36397
 C291 C 0.68273 0.36601 0.35053
 C292 C 0.65325 0.39653 0.28312
 C293 C 0.62379 0.35725 0.23089
 C294 C 0.62500 0.28688 0.24326
 H295 H 0.65596 0.20182 0.31625
 H296 H 0.70465 0.39714 0.39291
 H297 H 0.65262 0.45095 0.27515
 H298 H 0.60251 0.25586 0.20338
 C299 C 0.15069 0.77436 0.35777
 C300 C 0.18668 0.80847 0.36704
 C301 C 0.19203 0.86955 0.30647
 C302 C 0.16129 0.89724 0.24019
 C303 C 0.12467 0.86425 0.23387
 C304 C 0.11977 0.80233 0.29291
 H305 H 0.14658 0.72596 0.40048
 H306 H 0.21986 0.89605 0.31163
 H307 H 0.16591 0.94519 0.19621
 H308 H 0.09206 0.77543 0.28876
   
