data_POSCAR
  _audit_creation_date              2014-09-24
  _audit_creation_method            'ToBaCCo'
  _symmetry_space_group_name_H-M    'P1'
  _symmetry_Int_Tables_number       1
  _symmetry_cell_setting            triclinic
  loop_
  _symmetry_equiv_pos_as_xyz
 x,y,z
_cell_length_a 50.2737
_cell_length_b 50.2570
_cell_length_c 50.0558
_cell_angle_alpha 89.883100
_cell_angle_beta 89.967400
_cell_angle_gamma 90.047500
loop_
  _atom_site_label
  _atom_site_type_symbol
  _atom_site_fract_x
  _atom_site_fract_y
  _atom_site_fract_z
C1 C 0.16013 0.15969 0.19399
 C2 C 0.18298 0.14892 0.18153
 C3 C 0.19659 0.16254 0.16093
 C4 C 0.18649 0.18725 0.15236
 C5 C 0.16316 0.19775 0.16337
 C6 C 0.15024 0.18408 0.18407
 H7 H 0.19056 0.12994 0.18810
 H8 H 0.19572 0.19776 0.13588
 H9 H 0.13330 0.19367 0.19324
 C10 C -0.16442 0.83686 0.19782
 C11 C -0.18706 0.84820 0.18547
 C12 C -0.19867 0.83664 0.16278
 C13 C -0.18760 0.81352 0.15194
 C14 C -0.16517 0.80184 0.16360
 C15 C -0.15374 0.81347 0.18633
 H16 H -0.19697 0.86522 0.19411
 H17 H -0.19654 0.80451 0.13445
 H18 H -0.13568 0.80465 0.19400
 C19 C -0.16004 0.16098 -0.19642
 C20 C -0.18300 0.14990 -0.18436
 C21 C -0.19614 0.16232 -0.16271
 C22 C -0.18521 0.18619 -0.15277
 C23 C -0.16200 0.19712 -0.16370
 C24 C -0.14965 0.18462 -0.18536
 H25 H -0.18952 0.13043 -0.19059
 H26 H -0.19487 0.19703 -0.13687
 H27 H -0.13275 0.19454 -0.19428
 C28 C 0.16293 0.83785 -0.19627
 C29 C 0.18570 0.84943 -0.18497
 C30 C 0.19811 0.83825 -0.16218
 C31 C 0.18658 0.81503 -0.15104
 C32 C 0.16374 0.80342 -0.16216
 C33 C 0.15204 0.81493 -0.18474
 H34 H 0.19434 0.86630 -0.19523
 H35 H 0.19431 0.80633 -0.13287
 H36 H 0.13449 0.80591 -0.19346
 C37 C 0.16323 1.16434 0.80141
 C38 C 0.18601 1.15322 0.81333
 C39 C 0.19725 1.16461 0.83628
 C40 C 0.18557 1.18732 0.84748
 C41 C 0.16286 1.19870 0.83592
 C42 C 0.15178 1.18711 0.81300
 H43 H 0.19562 1.13617 0.80432
 H44 H 0.19427 1.19626 0.86513
 H45 H 0.13387 1.19565 0.80456
 C46 C 0.83397 0.83419 0.79998
 C47 C 0.81172 0.84602 0.81232
 C48 C 0.80114 0.83586 0.83610
 C49 C 0.81300 0.81376 0.84826
 C50 C 0.83503 0.80088 0.83653
 C51 C 0.84504 0.81137 0.81225
 H52 H 0.80301 0.86406 0.80443
 H53 H 0.80498 0.80714 0.86719
 H54 H 0.86016 0.80041 0.80166
 C55 C 0.16205 0.83815 1.19616
 C56 C 0.18541 0.84907 1.18473
 C57 C 0.19712 0.83790 1.16191
 C58 C 0.18556 0.81550 1.15009
 C59 C 0.16247 0.80420 1.16088
 C60 C 0.15083 0.81554 1.18365
 H61 H 0.19415 0.86710 1.19253
 H62 H 0.19464 0.80674 1.13255
 H63 H 0.13385 0.80545 1.19223
 C64 C 0.84050 1.15889 1.19406
 C65 C 0.85072 1.18299 1.18358
 C66 C 0.83762 1.19711 1.16302
 C67 C 0.81362 1.18669 1.15298
 C68 C 0.80349 1.16245 1.16234
 C69 C 0.81698 1.14866 1.18256
 H70 H 0.86766 1.19227 1.19301
 H71 H 0.80342 1.19644 1.13664
 H72 H 0.80902 1.12966 1.18882
 N73 N 0.47220 0.95479 0.97011
 N74 N 0.45153 0.93886 0.96717
 N75 N 0.52832 0.97348 0.95189
 N76 N 0.54939 0.97101 0.93635
 N77 N 0.52810 0.95483 0.97028
 N78 N 0.54890 0.93904 0.96763
 N79 N 0.47218 0.97341 0.95167
 N80 N 0.45140 0.97075 0.93579
 C81 C 0.43875 0.94902 0.94563
 C82 C 0.56197 0.94934 0.94633
 N83 N 0.52827 1.04898 0.97051
 N84 N 0.54921 1.06467 0.96800
 N85 N 0.47232 1.03071 0.95158
 N86 N 0.45163 1.03356 0.93560
 N87 N 0.47215 1.04895 0.97030
 N88 N 0.45122 1.06457 0.96772
 N89 N 0.52825 1.03070 0.95183
 N90 N 0.54908 1.03352 0.93602
 Mn91 Mn 0.50026 1.00206 0.95139
 C92 C 0.56195 1.05485 0.94631
 C93 C 0.43868 1.05482 0.94591
 N94 N 0.52797 0.95477 1.02776
 N95 N 0.54881 0.93906 1.03045
 N96 N 0.47172 0.97316 1.04613
 N97 N 0.45084 0.97037 1.06188
 N98 N 0.47197 0.95459 1.02771
 N99 N 0.45137 0.93852 1.03059
 N100 N 0.52773 0.97299 1.04652
 N101 N 0.54832 0.97003 1.06261
 Mn102 Mn 0.50006 0.95441 0.99897
 C103 C 0.56127 0.94875 1.05235
 C104 C 0.43839 0.94860 1.05201
 N105 N 0.47185 1.04875 1.02764
 N106 N 0.45095 1.06441 1.03012
 N107 N 0.52779 1.03037 1.04661
 N108 N 0.54838 1.03324 1.06271
 N109 N 0.52797 1.04876 1.02795
 N110 N 0.54878 1.06453 1.03074
 N111 N 0.47190 1.03045 1.04639
 N112 N 0.45118 1.03335 1.06233
 Mn113 Mn 0.50007 1.04920 0.99910
 Mn114 Mn 0.49978 1.00173 1.04676
 Cl115 Cl 0.50004 1.00185 0.99906
 C116 C 0.43831 1.05465 1.05194
 C117 C 0.56127 1.05468 1.05258
 N118 N -0.02920 0.47218 -0.04694
 N119 N -0.03218 0.45172 -0.06315
 N120 N -0.04792 0.52787 -0.02838
 N121 N -0.06397 0.54846 -0.03118
 N122 N -0.02939 0.52818 -0.04688
 N123 N -0.03227 0.54903 -0.06268
 N124 N -0.04738 0.47180 -0.02813
 N125 N -0.06314 0.45097 -0.03091
 C126 C -0.05346 0.43866 -0.05292
 C127 C -0.05400 0.56145 -0.05271
 N128 N -0.02898 0.52837 0.04748
 N129 N -0.03184 0.54922 0.06321
 N130 N -0.04706 0.47190 0.02929
 N131 N -0.06274 0.45104 0.03225
 N132 N -0.02881 0.47238 0.04803
 N133 N -0.03176 0.45198 0.06444
 N134 N -0.04771 0.52792 0.02920
 N135 N -0.06392 0.54836 0.03214
 Mn136 Mn -0.04786 0.49986 0.00050
 C137 C -0.05379 0.56145 0.05346
 C138 C -0.05303 0.43887 0.05433
 N139 N 0.02792 0.52843 -0.04730
 N140 N 0.03068 0.54918 -0.06329
 N141 N 0.04663 0.47257 -0.02870
 N142 N 0.06262 0.45195 -0.03160
 N143 N 0.02798 0.47237 -0.04705
 N144 N 0.03063 0.45150 -0.06277
 N145 N 0.04631 0.52858 -0.02870
 N146 N 0.06192 0.54953 -0.03137
 Mn147 Mn -0.00067 0.50031 -0.04738
 C148 C 0.05202 0.56214 -0.05311
 C149 C 0.05240 0.43901 -0.05298
 N150 N 0.02856 0.47272 0.04772
 N151 N 0.03195 0.45246 0.06418
 N152 N 0.04654 0.52870 0.02860
 N153 N 0.06210 0.54973 0.03091
 N154 N 0.02829 0.52864 0.04735
 N155 N 0.03108 0.54950 0.06309
 N156 N 0.04676 0.47257 0.02889
 N157 N 0.06291 0.45209 0.03194
 Mn158 Mn -0.00024 0.50054 0.04799
 Mn159 Mn 0.04690 0.50058 0.00003
 Cl160 Cl -0.00047 0.50031 0.00028
 C161 C 0.05348 0.43977 0.05410
 C162 C 0.05230 0.56245 0.05261
 N163 N 1.02769 -0.04784 0.47133
 N164 N 1.03009 -0.06365 0.45044
 N165 N 1.04669 -0.02953 0.52741
 N166 N 1.06258 -0.03246 0.54817
 N167 N 1.02781 -0.04759 0.52772
 N168 N 1.03021 -0.06316 0.54885
 N169 N 1.04654 -0.02974 0.47129
 N170 N 1.06236 -0.03285 0.45049
 C171 C 1.05189 -0.05413 0.43768
 C172 C 1.05209 -0.05356 0.56135
 N173 N 1.02933 0.04656 0.52693
 N174 N 1.03260 0.06273 0.54741
 N175 N 1.04733 0.02758 0.47085
 N176 N 1.06268 0.02969 0.44952
 N177 N 1.02900 0.04617 0.47073
 N178 N 1.03130 0.06133 0.44931
 N179 N 1.04739 0.02771 0.52719
 N180 N 1.06330 0.03041 0.54798
 Mn181 Mn 1.04733 -0.00099 0.49918
 C182 C 1.05389 0.05242 0.56035
 C183 C 1.05249 0.05093 0.43632
 N184 N 0.97066 -0.04685 0.52781
 N185 N 0.96752 -0.06284 0.54850
 N186 N 0.95231 -0.02835 0.47142
 N187 N 0.93654 -0.03089 0.45051
 N188 N 0.97042 -0.04716 0.47160
 N189 N 0.96735 -0.06309 0.45090
 N190 N 0.95232 -0.02827 0.52768
 N191 N 0.93608 -0.03124 0.54822
 Mn192 Mn 0.99915 -0.04770 0.49961
 C193 C 0.94583 -0.05291 0.56103
 C194 C 0.94609 -0.05272 0.43794
 N195 N 0.97189 0.04696 0.47092
 N196 N 0.97001 0.06201 0.44937
 N197 N 0.95321 0.02908 0.52737
 N198 N 0.93767 0.03194 0.54843
 N199 N 0.97205 0.04719 0.52731
 N200 N 0.96992 0.06276 0.54841
 N201 N 0.95306 0.02886 0.47117
 N202 N 0.93778 0.03121 0.44986
 Mn203 Mn 1.00056 0.04706 0.49899
 Mn204 Mn 0.95238 0.00035 0.49942
 Cl205 Cl 0.99986 -0.00033 0.49931
 C206 C 0.94852 0.05207 0.43650
 C207 C 0.94827 0.05310 0.56134
 C208 C 1.12443 0.12312 0.26228
 C209 C 1.10949 0.13986 0.24565
 C210 C 1.12095 0.15139 0.22295
 C211 C 1.14793 0.14681 0.21630
 C212 C 1.16259 0.12954 0.23313
 C213 C 1.15096 0.11784 0.25563
 C214 C 1.11267 0.11185 0.28700
 C215 C 1.11674 0.08504 0.29383
 C216 C 1.10637 0.07469 0.31760
 C217 C 1.09194 0.09101 0.33523
 C218 C 1.08780 0.11782 0.32824
 C219 C 1.09793 0.12807 0.30434
 C220 C 1.08158 0.08028 0.36096
 C221 C 1.05703 0.08899 0.37121
 C222 C 1.04766 0.07950 0.39573
 C223 C 1.06248 0.06088 0.41042
 C224 C 1.08680 0.05184 0.40012
 C225 C 1.09633 0.06154 0.37572
 H226 H 1.08879 0.14384 0.25008
 H227 H 1.10812 0.16326 0.21038
 H228 H 1.18356 0.12594 0.23015
 H229 H 1.16307 0.10536 0.26842
 H230 H 1.12779 0.07204 0.28065
 H231 H 1.10951 0.05385 0.32206
 H232 H 1.07724 0.13111 0.34152
 H233 H 1.09483 0.14891 0.29973
 H234 H 1.04488 0.10298 0.36018
 H235 H 1.02869 0.08660 0.40308
 H236 H 1.09865 0.03752 0.41108
 H237 H 1.11550 0.05470 0.36868
 C238 C 0.86967 -0.12865 0.26783
 C239 C 0.85421 -0.11322 0.25046
 C240 C 0.84323 -0.12438 0.22741
 C241 C 0.84710 -0.15156 0.22112
 C242 C 0.86273 -0.16686 0.23897
 C243 C 0.87392 -0.15551 0.26181
 C244 C 0.88117 -0.11685 0.29234
 C245 C 0.90782 -0.12162 0.29920
 C246 C 0.91859 -0.11076 0.32249
 C247 C 0.90284 -0.09516 0.33964
 C248 C 0.87615 -0.09042 0.33266
 C249 C 0.86549 -0.10101 0.30920
 C250 C 0.91412 -0.08413 0.36479
 C251 C 0.90629 -0.05892 0.37412
 C252 C 0.91657 -0.04879 0.39796
 C253 C 0.93513 -0.06348 0.41284
 C254 C 0.94321 -0.08850 0.40348
 C255 C 0.93270 -0.09879 0.37981
 H256 H 0.85102 -0.09228 0.25445
 H257 H 0.83259 -0.11110 0.21420
 H258 H 0.86561 -0.18798 0.23627
 H259 H 0.88539 -0.16798 0.27519
 H260 H 0.92041 -0.13350 0.28635
 H261 H 0.93935 -0.11439 0.32691
 H262 H 0.86328 -0.07893 0.34559
 H263 H 0.84479 -0.09732 0.30450
 H264 H 0.89243 -0.04685 0.36286
 H265 H 0.91019 -0.02931 0.40461
 H266 H 0.95743 -0.10029 0.41462
 H267 H 0.93886 -0.11844 0.37353
 C268 C 0.87519 0.12623 0.73425
 C269 C 0.89027 0.14248 0.75118
 C270 C 0.87896 0.15350 0.77414
 C271 C 0.85196 0.14889 0.78079
 C272 C 0.83710 0.13224 0.76356
 C273 C 0.84859 0.12104 0.74079
 C274 C 0.88696 0.11512 0.70951
 C275 C 0.88271 0.08840 0.70258
 C276 C 0.89323 0.07812 0.67890
 C277 C 0.90799 0.09442 0.66144
 C278 C 0.91232 0.12116 0.66854
 C279 C 0.90204 0.13134 0.69237
 C280 C 0.91847 0.08370 0.63580
 C281 C 0.94323 0.09215 0.62574
 C282 C 0.95284 0.08234 0.60146
 C283 C 0.93803 0.06369 0.58684
 C284 C 0.91342 0.05507 0.59689
 C285 C 0.90368 0.06507 0.62102
 H286 H 0.91102 0.14639 0.74682
 H287 H 0.89194 0.16493 0.78694
 H288 H 0.81611 0.12868 0.76661
 H289 H 0.83636 0.10893 0.72779
 H290 H 0.87143 0.07539 0.71563
 H291 H 0.88995 0.05732 0.67439
 H292 H 0.92317 0.13442 0.65540
 H293 H 0.90532 0.15211 0.69708
 H294 H 0.95539 0.10610 0.63678
 H295 H 0.97200 0.08916 0.59427
 H296 H 0.90155 0.04077 0.58597
 H297 H 0.88433 0.05847 0.62786
 C298 C 1.12807 -0.12880 0.73261
 C299 C 1.13347 -0.11263 0.75491
 C300 C 1.14497 -0.12342 0.77793
 C301 C 1.15090 -0.15065 0.77933
 C302 C 1.14537 -0.16690 0.75726
 C303 C 1.13429 -0.15607 0.73408
 C304 C 1.11621 -0.11730 0.70788
 C305 C 1.09838 -0.13224 0.69227
 C306 C 1.08779 -0.12174 0.66871
 C307 C 1.09440 -0.09585 0.66028
 C308 C 1.11189 -0.08075 0.67612
 C309 C 1.12279 -0.09140 0.69948
 C310 C 1.08338 -0.08479 0.63497
 C311 C 1.09876 -0.06772 0.61883
 C312 C 1.08849 -0.05742 0.59503
 C313 C 1.06278 -0.06429 0.58660
 C314 C 1.04737 -0.08137 0.60253
 C315 C 1.05747 -0.09134 0.62656
 H316 H 1.12852 -0.09168 0.75475
 H317 H 1.14886 -0.11057 0.79484
 H318 H 1.15010 -0.18792 0.75779
 H319 H 1.13100 -0.16905 0.71718
 H320 H 1.09246 -0.15207 0.69828
 H321 H 1.07470 -0.13413 0.65690
 H322 H 1.11712 -0.06059 0.67057
 H323 H 1.13670 -0.07939 0.71073
 H324 H 1.11895 -0.06262 0.62431
 H325 H 1.10083 -0.04438 0.58303
 H326 H 1.02737 -0.08675 0.59659
 H327 H 1.04481 -0.10396 0.63867
 C328 C 0.26706 1.13003 1.12653
 C329 C 0.26370 1.15770 1.12881
 C330 C 0.24041 1.16837 1.13961
 C331 C 0.21989 1.15170 1.14919
 C332 C 0.22340 1.12393 1.14688
 C333 C 0.24643 1.11334 1.13547
 C334 C 0.29200 1.11865 1.11513
 C335 C 0.30202 1.09417 1.12438
 C336 C 0.32539 1.08351 1.11376
 C337 C 0.33980 1.09727 1.09397
 C338 C 0.32986 1.12182 1.08481
 C339 C 0.30618 1.13221 1.09503
 C340 C 0.36510 1.08618 1.08308
 C341 C 0.37257 1.09084 1.05635
 C342 C 0.39650 1.08083 1.04634
 C343 C 0.41322 1.06545 1.06261
 C344 C 0.40574 1.06039 1.08913
 C345 C 0.38212 1.07089 1.09936
 H346 H 0.27935 1.17127 1.12284
 H347 H 0.23926 1.18977 1.14166
 H348 H 0.20790 1.11016 1.15274
 H349 H 0.24781 1.09196 1.13330
 H350 H 0.29202 1.08328 1.14012
 H351 H 0.33203 1.06435 1.12103
 H352 H 0.34051 1.13328 1.06993
 H353 H 0.29896 1.15085 1.08700
 H354 H 0.35981 1.10194 1.04298
 H355 H 0.40172 1.08475 1.02570
 H356 H 0.41842 1.04871 1.10212
 H357 H 0.37746 1.06732 1.12016
 C358 C 0.26847 0.87274 0.87086
 C359 C 0.26226 0.84597 0.87561
 C360 C 0.23930 0.83463 0.86477
 C361 C 0.22152 0.84983 0.84900
 C362 C 0.22799 0.87693 0.84465
 C363 C 0.25115 0.88808 0.85527
 C364 C 0.29308 0.88454 0.88202
 C365 C 0.30984 0.90013 0.86590
 C366 C 0.33338 0.91075 0.87624
 C367 C 0.34053 0.90628 0.90306
 C368 C 0.32348 0.89093 0.91924
 C369 C 0.30012 0.88005 0.90878
 C370 C 0.36573 0.91735 0.91404
 C371 C 0.38070 0.90285 0.93282
 C372 C 0.40434 0.91322 0.94316
 C373 C 0.41374 0.93815 0.93471
 C374 C 0.39896 0.95265 0.91588
 C375 C 0.37514 0.94243 0.90576
 H376 H 0.27558 0.83356 0.88720
 H377 H 0.23645 0.81356 0.86803
 H378 H 0.21486 0.89016 0.83389
 H379 H 0.25528 0.90895 0.85171
 H380 H 0.30501 0.90362 0.84510
 H381 H 0.34621 0.92204 0.86305
 H382 H 0.32802 0.88752 0.94010
 H383 H 0.28735 0.86837 0.92172
 H384 H 0.37438 0.88328 0.93930
 H385 H 0.41542 0.90156 0.95758
 H386 H 0.40565 0.97204 0.90919
 H387 H 0.36394 0.95438 0.89171
 C388 C 0.73062 0.87091 1.12852
 C389 C 0.73178 0.84359 1.13471
 C390 C 0.75484 0.83245 1.14554
 C391 C 0.77711 0.84841 1.15083
 C392 C 0.77604 0.87568 1.14489
 C393 C 0.75313 0.88678 1.13366
 C394 C 0.70603 0.88275 1.11691
 C395 C 0.69815 0.90875 1.12361
 C396 C 0.67500 0.91978 1.11281
 C397 C 0.65889 0.90499 1.09531
 C398 C 0.66675 0.87897 1.08867
 C399 C 0.69008 0.86809 1.09916
 C400 C 0.63395 0.91653 1.08416
 C401 C 0.62554 0.91013 1.05813
 C402 C 0.60185 0.92048 1.04789
 C403 C 0.58625 0.93781 1.06325
 C404 C 0.59471 0.94459 1.08906
 C405 C 0.61818 0.93390 1.09949
 H406 H 0.71471 0.83082 1.13162
 H407 H 0.75511 0.81141 1.15029
 H408 H 0.79310 0.88832 1.14860
 H409 H 0.75322 0.90775 1.12870
 H410 H 0.70966 0.92055 1.13750
 H411 H 0.66987 0.94001 1.11809
 H412 H 0.65470 0.86679 1.07559
 H413 H 0.69568 0.84818 1.09316
 H414 H 0.63739 0.89732 1.04549
 H415 H 0.59591 0.91515 1.02780
 H416 H 0.58295 0.95783 1.10135
 H417 H 0.62370 0.93894 1.11976
 C418 C 0.73311 1.12922 0.87109
 C419 C 0.74055 1.12317 0.84482
 C420 C 0.76368 1.13399 0.83372
 C421 C 0.78035 1.15109 0.84868
 C422 C 0.77266 1.15677 0.87527
 C423 C 0.74938 1.14611 0.88619
 C424 C 0.70831 1.11809 0.88264
 C425 C 0.69082 1.13441 0.89709
 C426 C 0.66721 1.12405 0.90759
 C427 C 0.66067 1.09706 0.90411
 C428 C 0.67838 1.08070 0.88985
 C429 C 0.70186 1.09114 0.87913
 C430 C 0.63541 1.08608 0.91509
 C431 C 0.62095 1.06676 0.90086
 C432 C 0.59717 1.05653 0.91109
 C433 C 0.58716 1.06559 0.93561
 C434 C 0.60149 1.08487 0.94988
 C435 C 0.62541 1.09493 0.93979
 H436 H 0.72807 1.11056 0.83256
 H437 H 0.76757 1.12966 0.81294
 H438 H 0.78494 1.16864 0.88836
 H439 H 0.74433 1.15069 0.90671
 H440 H 0.69517 1.15534 0.89979
 H441 H 0.65385 1.13735 0.91802
 H442 H 0.67426 1.05972 0.88722
 H443 H 0.71517 1.07804 0.86837
 H444 H 0.62779 1.05980 0.88160
 H445 H 0.58648 1.04172 0.89964
 H446 H 0.59433 1.09203 0.96897
 H447 H 0.63623 1.10941 0.95151
 C448 C 0.13078 0.27085 0.13221
 C449 C 0.11454 0.24828 0.13573
 C450 C 0.12501 0.22471 0.14617
 C451 C 0.15203 0.22302 0.15298
 C452 C 0.16835 0.24541 0.14943
 C453 C 0.15782 0.26913 0.13935
 C454 C 0.11960 0.29595 0.12099
 C455 C 0.13495 0.31226 0.10409
 C456 C 0.12440 0.33573 0.09347
 C457 C 0.09810 0.34337 0.09918
 C458 C 0.08273 0.32701 0.11601
 C459 C 0.09338 0.30373 0.12691
 C460 C 0.08673 0.36823 0.08761
 C461 C 0.06863 0.38375 0.10233
 C462 C 0.05772 0.40690 0.09136
 C463 C 0.06496 0.41527 0.06561
 C464 C 0.08315 0.40001 0.05092
 C465 C 0.09378 0.37665 0.06171
 H466 H 0.09379 0.24862 0.12998
 H467 H 0.11210 0.20758 0.14842
 H468 H 0.18921 0.24464 0.15479
 H469 H 0.17083 0.28620 0.13743
 H470 H 0.15507 0.30677 0.09875
 H471 H 0.13699 0.34798 0.08093
 H472 H 0.06229 0.33200 0.12058
 H473 H 0.08107 0.29193 0.14015
 H474 H 0.06310 0.37824 0.12249
 H475 H 0.04385 0.41840 0.10318
 H476 H 0.08890 0.40592 0.03091
 H477 H 0.10722 0.36499 0.04956
 C478 C -0.12934 0.26927 -0.13091
 C479 C -0.15635 0.26784 -0.13822
 C480 C -0.16697 0.24442 -0.14880
 C481 C -0.15077 0.22203 -0.15266
 C482 C -0.12378 0.22343 -0.14570
 C483 C -0.11322 0.24671 -0.13476
 C484 C -0.11808 0.29411 -0.11928
 C485 C -0.09184 0.30197 -0.12503
 C486 C -0.08122 0.32518 -0.11399
 C487 C -0.09667 0.34138 -0.09717
 C488 C -0.12296 0.33359 -0.09151
 C489 C -0.13346 0.31020 -0.10228
 C490 C -0.08548 0.36633 -0.08570
 C491 C -0.09266 0.37474 -0.05987
 C492 C -0.08240 0.39833 -0.04929
 C493 C -0.06445 0.41384 -0.06413
 C494 C -0.05700 0.40541 -0.08976
 C495 C -0.06754 0.38203 -0.10052
 H496 H -0.16926 0.28493 -0.13610
 H497 H -0.18779 0.24388 -0.15433
 H498 H -0.11098 0.20629 -0.14826
 H499 H -0.09249 0.24684 -0.12891
 H500 H -0.07949 0.29033 -0.13832
 H501 H -0.06078 0.33027 -0.11850
 H502 H -0.13561 0.34572 -0.07897
 H503 H -0.15360 0.30463 -0.09704
 H504 H -0.10598 0.36295 -0.04765
 H505 H -0.08827 0.40427 -0.02935
 H506 H -0.04328 0.41708 -0.10168
 H507 H -0.06191 0.37651 -0.12063
 C508 C 0.12973 0.73234 -0.12816
 C509 C 0.15708 0.73374 -0.13412
 C510 C 0.16815 0.75695 -0.14480
 C511 C 0.15209 0.77912 -0.15019
 C512 C 0.12481 0.77784 -0.14439
 C513 C 0.11378 0.75479 -0.13330
 C514 C 0.11791 0.70758 -0.11680
 C515 C 0.09198 0.69964 -0.12372
 C516 C 0.08093 0.67638 -0.11310
 C517 C 0.09564 0.66020 -0.09556
 C518 C 0.12162 0.66808 -0.08874
 C519 C 0.13251 0.69154 -0.09904
 C520 C 0.08406 0.63517 -0.08454
 C521 C 0.09041 0.62663 -0.05851
 C522 C 0.08008 0.60284 -0.04840
 C523 C 0.06282 0.58727 -0.06388
 C524 C 0.05604 0.59588 -0.08966
 C525 C 0.06672 0.61945 -0.09998
 H526 H 0.16991 0.71674 -0.13098
 H527 H 0.18921 0.75741 -0.14940
 H528 H 0.11210 0.79483 -0.14814
 H529 H 0.09279 0.75472 -0.12848
 H530 H 0.08023 0.71122 -0.13763
 H531 H 0.06074 0.67123 -0.11852
 H532 H 0.13375 0.65598 -0.07564
 H533 H 0.15237 0.69716 -0.09288
 H534 H 0.10317 0.63844 -0.04578
 H535 H 0.08539 0.59679 -0.02832
 H536 H 0.04284 0.58415 -0.10204
 H537 H 0.06172 0.62508 -0.12024
 C538 C -0.13137 0.73062 0.13007
 C539 C -0.13738 0.73215 0.15751
 C540 C -0.14814 0.75534 0.16839
 C541 C -0.15357 0.77738 0.15204
 C542 C -0.14786 0.77592 0.12464
 C543 C -0.13668 0.75288 0.11380
 C544 C -0.11967 0.70595 0.11853
 C545 C -0.12631 0.69770 0.09253
 C546 C -0.11533 0.67455 0.08173
 C547 C -0.09770 0.65879 0.09676
 C548 C -0.09114 0.66699 0.12279
 C549 C -0.10180 0.69034 0.13344
 C550 C -0.08632 0.63386 0.08543
 C551 C -0.06031 0.62580 0.09195
 C552 C -0.04983 0.60217 0.08171
 C553 C -0.06494 0.58630 0.06438
 C554 C -0.09075 0.59440 0.05753
 C555 C -0.10142 0.61779 0.06811
 H556 H -0.13413 0.71528 0.17058
 H557 H -0.15267 0.75594 0.18954
 H558 H -0.15164 0.79280 0.11171
 H559 H -0.13187 0.75270 0.09273
 H560 H -0.14027 0.70894 0.08055
 H561 H -0.12056 0.66916 0.06148
 H562 H -0.07797 0.65522 0.13515
 H563 H -0.09584 0.69622 0.15334
 H564 H -0.04785 0.63788 0.10473
 H565 H -0.02975 0.59650 0.08709
 H566 H -0.10287 0.58242 0.04430
 H567 H -0.12167 0.62302 0.06301
 C568 C 1.13021 0.13001 0.72953
 C569 C 1.14166 0.11373 0.74930
 C570 C 1.15206 0.12478 0.77267
 C571 C 1.15167 0.15247 0.77674
 C572 C 1.14032 0.16875 0.75692
 C573 C 1.12954 0.15767 0.73376
 C574 C 1.11910 0.11828 0.70458
 C575 C 1.12088 0.13209 0.68014
 C576 C 1.11013 0.12130 0.65682
 C577 C 1.09779 0.09626 0.65728
 C578 C 1.09625 0.08223 0.68149
 C579 C 1.10658 0.09320 0.70494
 C580 C 1.08644 0.08491 0.63255
 C581 C 1.09270 0.05883 0.62476
 C582 C 1.08231 0.04831 0.60113
 C583 C 1.06509 0.06355 0.58517
 C584 C 1.05856 0.08950 0.59316
 C585 C 1.06934 0.10018 0.61652
 H586 H 1.14291 0.09240 0.74664
 H587 H 1.16026 0.11155 0.78763
 H588 H 1.14001 0.19017 0.75909
 H589 H 1.12051 0.17085 0.71926
 H590 H 1.13088 0.15112 0.67889
 H591 H 1.11181 0.13233 0.63829
 H592 H 1.08656 0.06298 0.68234
 H593 H 1.10435 0.08218 0.72340
 H594 H 1.10595 0.04676 0.63678
 H595 H 1.08755 0.02820 0.59546
 H596 H 1.04531 0.10164 0.58121
 H597 H 1.06410 0.12027 0.62225
 C598 C 0.86706 -0.13287 0.72859
 C599 C 0.84042 -0.12822 0.73529
 C600 C 0.82944 -0.13926 0.75844
 C601 C 0.84491 -0.15510 0.77593
 C602 C 0.87178 -0.15964 0.76881
 C603 C 0.88258 -0.14880 0.74547
 C604 C 0.87868 -0.12100 0.70411
 C605 C 0.89428 -0.13645 0.68683
 C606 C 0.90512 -0.12529 0.66366
 C607 C 0.90086 -0.09830 0.65742
 C608 C 0.88534 -0.08284 0.67488
 C609 C 0.87425 -0.09411 0.69788
 C610 C 0.91252 -0.08639 0.63280
 C611 C 0.89846 -0.06708 0.61810
 C612 C 0.90938 -0.05601 0.59491
 C613 C 0.93444 -0.06422 0.58576
 C614 C 0.94855 -0.08344 0.60036
 C615 C 0.93779 -0.09430 0.62370
 H616 H 0.82788 -0.11641 0.72228
 H617 H 0.80847 -0.13594 0.76179
 H618 H 0.88515 -0.17056 0.78169
 H619 H 0.90335 -0.15233 0.74094
 H620 H 0.89771 -0.15732 0.69102
 H621 H 0.91651 -0.13793 0.65044
 H622 H 0.88206 -0.06191 0.67101
 H623 H 0.86257 -0.08169 0.71108
 H624 H 0.87880 -0.06081 0.62424
 H625 H 0.89805 -0.04128 0.58395
 H626 H 0.96804 -0.08995 0.59387
 H627 H 0.94942 -0.10869 0.63477
 C628 C 1.12736 -0.12876 0.26655
 C629 C 1.15419 -0.12425 0.26051
 C630 C 1.16559 -0.13510 0.23754
 C631 C 1.15040 -0.15064 0.21957
 C632 C 1.12323 -0.15476 0.22587
 C633 C 1.11201 -0.14412 0.24906
 C634 C 1.11550 -0.11759 0.29120
 C635 C 1.09977 -0.13357 0.30797
 C636 C 1.08919 -0.12324 0.33160
 C637 C 1.09386 -0.09659 0.33882
 C638 C 1.10930 -0.08054 0.32172
 C639 C 1.12013 -0.09098 0.29827
 C640 C 1.08296 -0.08566 0.36419
 C641 C 1.09770 -0.06719 0.37924
 C642 C 1.08752 -0.05689 0.40303
 C643 C 1.06255 -0.06507 0.41252
 C644 C 1.04781 -0.08359 0.39768
 C645 C 1.05784 -0.09368 0.37369
 H646 H 1.16659 -0.11284 0.27398
 H647 H 1.18670 -0.13204 0.23482
 H648 H 1.11002 -0.16533 0.21259
 H649 H 1.09110 -0.14749 0.25307
 H650 H 1.09616 -0.15424 0.30309
 H651 H 1.07781 -0.13631 0.34447
 H652 H 1.11285 -0.05981 0.32632
 H653 H 1.13192 -0.07817 0.28548
 H654 H 1.11730 -0.06093 0.37284
 H655 H 1.09935 -0.04271 0.41416
 H656 H 1.02838 -0.09006 0.40444
 H657 H 1.04573 -0.10749 0.36243
 C658 C 0.87711 0.12227 0.26170
 C659 C 0.85035 0.11732 0.25571
 C660 C 0.83843 0.12897 0.23337
 C661 C 0.85301 0.14588 0.21607
 C662 C 0.88024 0.14998 0.22196
 C663 C 0.89199 0.13852 0.24451
 C664 C 0.88914 0.11123 0.28634
 C665 C 0.90429 0.12757 0.30322
 C666 C 0.91449 0.11763 0.32720
 C667 C 0.91000 0.09100 0.33471
 C668 C 0.89528 0.07453 0.31747
 C669 C 0.88483 0.08458 0.29363
 C670 C 0.92015 0.08066 0.36066
 C671 C 0.90504 0.06245 0.37574
 C672 C 0.91434 0.05306 0.40031
 C673 C 0.93879 0.06190 0.41049
 C674 C 0.95395 0.08004 0.39552
 C675 C 0.94481 0.08922 0.37080
 H676 H 0.83831 0.10517 0.26892
 H677 H 0.81735 0.12565 0.23086
 H678 H 0.89301 0.16148 0.20894
 H679 H 0.91286 0.14219 0.24842
 H680 H 0.90759 0.14829 0.29823
 H681 H 0.92531 0.13102 0.34016
 H682 H 0.89189 0.05380 0.32233
 H683 H 0.87347 0.07150 0.28080
 H684 H 0.88577 0.05577 0.36881
 H685 H 0.90222 0.03911 0.41149
 H686 H 0.97302 0.08697 0.40279
 H687 H 0.95720 0.10284 0.35954
 C688 C 0.12847 0.26942 -0.13014
 C689 C 0.13437 0.26805 -0.15760
 C690 C 0.14524 0.24497 -0.16863
 C691 C 0.15088 0.22291 -0.15240
 C692 C 0.14523 0.22418 -0.12499
 C693 C 0.13394 0.24710 -0.11400
 C694 C 0.11684 0.29403 -0.11840
 C695 C 0.12363 0.30216 -0.09241
 C696 C 0.11282 0.32533 -0.08148
 C697 C 0.09522 0.34124 -0.09639
 C698 C 0.08848 0.33314 -0.12240
 C699 C 0.09896 0.30977 -0.13317
 C700 C 0.08410 0.36624 -0.08497
 C701 C 0.05815 0.37457 -0.09141
 C702 C 0.04794 0.39830 -0.08115
 C703 C 0.06326 0.41402 -0.06387
 C704 C 0.08900 0.40565 -0.05706
 C705 C 0.09940 0.38215 -0.06767
 H706 H 0.13101 0.28496 -0.17058
 H707 H 0.14973 0.24452 -0.18979
 H708 H 0.14919 0.20727 -0.11215
 H709 H 0.12920 0.24715 -0.09291
 H710 H 0.13761 0.29082 -0.08053
 H711 H 0.11818 0.33063 -0.06124
 H712 H 0.07532 0.34503 -0.13468
 H713 H 0.09288 0.30398 -0.15307
 H714 H 0.04554 0.36262 -0.10416
 H715 H 0.02791 0.40418 -0.08649
 H716 H 0.10126 0.41750 -0.04386
 H717 H 0.11961 0.37672 -0.06263
 C718 C -0.13001 0.26920 0.13172
 C719 C -0.15767 0.26520 0.13277
 C720 C -0.16832 0.24150 0.14279
 C721 C -0.15166 0.22121 0.15279
 C722 C -0.12392 0.22553 0.15208
 C723 C -0.11331 0.24895 0.14142
 C724 C -0.11863 0.29426 0.12044
 C725 C -0.09462 0.30478 0.13030
 C726 C -0.08375 0.32799 0.11942
 C727 C -0.09684 0.34173 0.09874
 C728 C -0.12102 0.33140 0.08912
 C729 C -0.13159 0.30787 0.09960
 C730 C -0.08538 0.36667 0.08729
 C731 C -0.08924 0.37321 0.06018
 C732 C -0.07893 0.39680 0.04958
 C733 C -0.06399 0.41408 0.06563
 C734 C -0.05968 0.40752 0.09251
 C735 C -0.07052 0.38425 0.10332
 H736 H -0.17128 0.28057 0.12627
 H737 H -0.18975 0.23978 0.14374
 H738 H -0.11012 0.21029 0.15852
 H739 H -0.09189 0.25085 0.14029
 H740 H -0.08422 0.29524 0.14663
 H741 H -0.06489 0.33497 0.12713
 H742 H -0.13202 0.34156 0.07359
 H743 H -0.14984 0.30026 0.09108
 H744 H -0.09995 0.35998 0.04697
 H745 H -0.08227 0.40131 0.02867
 H746 H -0.04836 0.42067 0.10532
 H747 H -0.06754 0.38031 0.12436
 C748 C -0.13077 0.73117 -0.12868
 C749 C -0.11574 0.74749 -0.14567
 C750 C -0.12679 0.77047 -0.15681
 C751 C -0.15347 0.77777 -0.15157
 C752 C -0.16832 0.76114 -0.13422
 C753 C -0.15709 0.73832 -0.12292
 C754 C -0.11914 0.70656 -0.11726
 C755 C -0.12282 0.70018 -0.09018
 C756 C -0.11196 0.67688 -0.07949
 C757 C -0.09742 0.65928 -0.09572
 C758 C -0.09384 0.66571 -0.12285
 C759 C -0.10446 0.68914 -0.13346
 C760 C -0.08616 0.63426 -0.08447
 C761 C -0.06138 0.62465 -0.09325
 C762 C -0.05100 0.60094 -0.08301
 C763 C -0.06504 0.58645 -0.06357
 C764 C -0.08965 0.59609 -0.05456
 C765 C -0.10016 0.61966 -0.06499
 H766 H -0.09518 0.74270 -0.15000
 H767 H -0.11380 0.78284 -0.16876
 H768 H -0.18911 0.76474 -0.13010
 H769 H -0.16927 0.72581 -0.11021
 H770 H -0.13378 0.71344 -0.07718
 H771 H -0.11470 0.67284 -0.05842
 H772 H -0.08321 0.65241 -0.13607
 H773 H -0.10165 0.69341 -0.15449
 H774 H -0.04981 0.63559 -0.10784
 H775 H -0.03186 0.59408 -0.09015
 H776 H -0.10093 0.58526 -0.03964
 H777 H -0.11948 0.62621 -0.05806
 C778 C 0.12868 0.73337 0.12649
 C779 C 0.11270 0.75580 0.13156
 C780 C 0.12366 0.77876 0.14281
 C781 C 0.15088 0.77997 0.14881
 C782 C 0.16696 0.75780 0.14353
 C783 C 0.15596 0.73468 0.13270
 C784 C 0.11697 0.70867 0.11500
 C785 C 0.13175 0.69271 0.09736
 C786 C 0.12103 0.66920 0.08711
 C787 C 0.09507 0.66117 0.09388
 C788 C 0.08015 0.67733 0.11121
 C789 C 0.09101 0.70065 0.12178
 C790 C 0.08376 0.63597 0.08312
 C791 C 0.06654 0.62023 0.09874
 C792 C 0.05610 0.59648 0.08872
 C793 C 0.06299 0.58771 0.06305
 C794 C 0.08018 0.60328 0.04739
 C795 C 0.09028 0.62725 0.05722
 H796 H 0.09176 0.75577 0.12659
 H797 H 0.11093 0.79575 0.14652
 H798 H 0.18797 0.75818 0.14833
 H799 H 0.16881 0.71768 0.12965
 H800 H 0.15162 0.69841 0.09130
 H801 H 0.13331 0.65713 0.07415
 H802 H 0.05995 0.67208 0.11657
 H803 H 0.07913 0.71218 0.13558
 H804 H 0.06144 0.62598 0.11893
 H805 H 0.04296 0.58476 0.10123
 H806 H 0.08558 0.59709 0.02740
 H807 H 0.10298 0.63906 0.04437
 C808 C 0.26827 1.13104 0.87051
 C809 C 0.24605 1.11488 0.86502
 C810 C 0.22305 1.12575 0.85377
 C811 C 0.22158 1.15308 0.84820
 C812 C 0.24354 1.16933 0.85388
 C813 C 0.26671 1.15842 0.86470
 C814 C 0.29299 1.11942 0.88209
 C815 C 0.30867 1.13412 0.90006
 C816 C 0.33215 1.12347 0.91047
 C817 C 0.34040 1.09765 0.90356
 C818 C 0.32453 1.08281 0.88588
 C819 C 0.30126 1.09362 0.87514
 C820 C 0.36553 1.08637 0.91457
 C821 C 0.38149 1.06934 0.89905
 C822 C 0.40512 1.05888 0.90934
 C823 C 0.41356 1.06558 0.93517
 C824 C 0.39779 1.08259 0.95071
 C825 C 0.37393 1.09270 0.94062
 H826 H 0.24626 1.09384 0.86969
 H827 H 0.20622 1.11289 0.84976
 H828 H 0.24294 1.19043 0.84943
 H829 H 0.28354 1.17142 0.86807
 H830 H 0.30277 1.15387 0.90626
 H831 H 0.34399 1.13569 0.92369
 H832 H 0.32996 1.06271 0.88040
 H833 H 0.28996 1.08180 0.86109
 H834 H 0.37600 1.06439 0.87876
 H835 H 0.41701 1.04587 0.89691
 H836 H 0.40373 1.08784 0.97082
 H837 H 0.36195 1.10524 0.95340
 C838 C 0.26844 0.87192 1.12853
 C839 C 0.26684 0.86575 1.15594
 C840 C 0.24359 0.85497 1.16679
 C841 C 0.22158 0.84969 1.15042
 C842 C 0.22309 0.85560 1.12306
 C843 C 0.24618 0.86680 1.11227
 C844 C 0.29322 0.88353 1.11700
 C845 C 0.30144 0.87695 1.09097
 C846 C 0.32470 0.88781 1.08018
 C847 C 0.34060 0.90524 1.09526
 C848 C 0.33243 0.91173 1.12132
 C849 C 0.30897 0.90120 1.13196
 C850 C 0.36565 0.91647 1.08395
 C851 C 0.37396 0.94239 1.09056
 C852 C 0.39769 0.95274 1.08033
 C853 C 0.41342 0.93759 1.06292
 C854 C 0.40508 0.91187 1.05597
 C855 C 0.38158 0.90134 1.06654
 H856 H 0.28370 0.86885 1.16901
 H857 H 0.24294 0.85028 1.18791
 H858 H 0.20623 0.85193 1.11013
 H859 H 0.24642 0.87176 1.09122
 H860 H 0.29009 0.86313 1.07895
 H861 H 0.33007 0.88264 1.05991
 H862 H 0.34430 0.92475 1.13372
 H863 H 0.30311 0.90710 1.15189
 H864 H 0.36199 0.95488 1.10341
 H865 H 0.40355 0.97274 1.08579
 H866 H 0.41695 0.89973 1.04267
 H867 H 0.37616 0.88115 1.06137
 C868 C 0.73160 1.13009 1.12872
 C869 C 0.75457 1.11428 1.13118
 C870 C 0.77786 1.12475 1.14221
 C871 C 0.77880 1.15132 1.15071
 C872 C 0.75603 1.16724 1.14808
 C873 C 0.73263 1.15670 1.13737
 C874 C 0.70668 1.11886 1.11727
 C875 C 0.68991 1.13462 1.10130
 C876 C 0.66637 1.12417 1.09080
 C877 C 0.65912 1.09758 1.09575
 C878 C 0.67601 1.08175 1.11154
 C879 C 0.69940 1.09229 1.12228
 C880 C 0.63403 1.08645 1.08459
 C881 C 0.61884 1.06801 1.09931
 C882 C 0.59529 1.05756 1.08883
 C883 C 0.58623 1.06558 1.06357
 C884 C 0.60125 1.08403 1.04883
 C885 C 0.62497 1.09423 1.05915
 H886 H 0.75471 1.09389 1.12426
 H887 H 0.79530 1.11219 1.14372
 H888 H 0.75623 1.18773 1.15475
 H889 H 0.71523 1.16932 1.13626
 H890 H 0.69503 1.15504 1.09668
 H891 H 0.65371 1.13708 1.07905
 H892 H 0.67130 1.06109 1.11547
 H893 H 0.71161 1.07964 1.13478
 H894 H 0.62491 1.06190 1.11914
 H895 H 0.58401 1.04344 1.10066
 H896 H 0.59482 1.09036 1.02917
 H897 H 0.63637 1.10798 1.04702
 C898 C 0.73167 0.87222 0.87065
 C899 C 0.75448 0.86759 0.88630
 C900 C 0.77702 0.85564 0.87518
 C901 C 0.77735 0.84841 0.84812
 C902 C 0.75473 0.85313 0.83242
 C903 C 0.73208 0.86471 0.84358
 C904 C 0.70745 0.88459 0.88245
 C905 C 0.69143 0.90177 0.86717
 C906 C 0.66820 0.91264 0.87787
 C907 C 0.66052 0.90694 0.90429
 C908 C 0.67682 0.89018 0.91976
 C909 C 0.69988 0.87902 0.90893
 C910 C 0.63543 0.91808 0.91547
 C911 C 0.61979 0.90306 0.93332
 C912 C 0.59606 0.91334 0.94352
 C913 C 0.58721 0.93868 0.93579
 C914 C 0.60270 0.95375 0.91801
 C915 C 0.62664 0.94366 0.90810
 H916 H 0.75509 0.87352 0.90706
 H917 H 0.79436 0.85241 0.88759
 H918 H 0.75444 0.84742 0.81156
 H919 H 0.71475 0.86736 0.83105
 H920 H 0.69684 0.90692 0.84687
 H921 H 0.65603 0.92515 0.86521
 H922 H 0.67182 0.88568 0.94031
 H923 H 0.71150 0.86565 0.92123
 H924 H 0.62560 0.88313 0.93908
 H925 H 0.58442 0.90127 0.95715
 H926 H 0.59645 0.97349 0.91195
 H927 H 0.63837 0.95603 0.89486
   
