data_POSCAR
  _audit_creation_date              2014-09-24
  _audit_creation_method            'ToBaCCo'
  _symmetry_space_group_name_H-M    'P1'
  _symmetry_Int_Tables_number       1
  _symmetry_cell_setting            triclinic
  loop_
  _symmetry_equiv_pos_as_xyz
 x,y,z
_cell_length_a 37.6487
_cell_length_b 38.4883
_cell_length_c 39.4035
_cell_angle_alpha 89.202900
_cell_angle_beta 88.981600
_cell_angle_gamma 89.147300
loop_
  _atom_site_label
  _atom_site_type_symbol
  _atom_site_fract_x
  _atom_site_fract_y
  _atom_site_fract_z
N1 N 0.30616 0.40867 1.38451
 N2 N 0.31083 0.38383 1.40733
 C3 C 0.28575 0.38664 1.43192
 C4 C 0.26361 0.41449 1.42383
 C5 C 0.27766 0.42809 1.39373
 H6 H 0.28262 0.36820 1.45266
 H7 H 0.26684 0.44935 1.37869
 Cu8 Cu 0.34550 0.34666 1.40052
 Cu9 Cu 0.33513 0.41058 1.34259
 Cu10 Cu 0.35401 0.32626 1.31875
 N11 N 0.36762 0.30325 1.38660
 N12 N 0.36912 0.29459 1.35447
 C13 C 0.38297 0.26237 1.35171
 C14 C 0.39125 0.25039 1.38396
 C15 C 0.38115 0.27709 1.40551
 H16 H 0.38725 0.24928 1.32786
 H17 H 0.38280 0.27721 1.43289
 N18 N 0.35582 0.36619 1.28702
 N19 N 0.35100 0.39879 1.29618
 C20 C 0.36143 0.41985 1.27033
 C21 C 0.37362 0.39930 1.24377
 C22 C 0.36926 0.36550 1.25530
 H23 H 0.36209 0.44790 1.27152
 H24 H 0.37791 0.34196 1.24283
 H25 H 0.32145 0.36068 1.34448
 H26 H 0.37041 0.36702 1.34679
 N27 N 1.19968 0.58474 0.87368
 N28 N 1.20089 0.61175 0.89365
 C29 C 1.23009 0.60900 0.91287
 C30 C 1.24818 0.57868 0.90426
 C31 C 1.22786 0.56384 0.87949
 H32 H 1.23819 0.62818 0.93088
 H33 H 1.23347 0.54017 0.86583
 Cu34 Cu 1.16493 0.64854 0.89111
 Cu35 Cu 1.16314 0.58012 0.83970
 Cu36 Cu 1.13196 0.66081 0.81320
 N37 N 1.13602 0.68923 0.87999
 N38 N 1.12475 0.69468 0.84896
 C39 C 1.10805 0.72577 0.84725
 C40 C 1.10824 0.74039 0.87922
 C41 C 1.12611 0.71632 0.89940
 H42 H 1.09613 0.73636 0.82452
 H43 H 1.13229 0.71878 0.92597
 N44 N 1.12796 0.61842 0.78601
 N45 N 1.13883 0.58743 0.79656
 C46 C 1.13111 0.56373 0.77308
 C47 C 1.11430 0.58072 0.74650
 C48 C 1.11270 0.61528 0.75563
 H49 H 1.13715 0.53626 0.77539
 H50 H 1.10083 0.63652 0.74134
 H51 H 1.17346 0.63074 0.83226
 H52 H 1.12752 0.62234 0.84866
 N53 N 0.70051 -0.10140 0.12826
 N54 N 0.70239 -0.12893 0.10885
 C55 C 0.73130 -0.12639 0.08823
 C56 C 0.74775 -0.09530 0.09473
 C57 C 0.72753 -0.08019 0.12025
 H58 H 0.73921 -0.14507 0.06919
 H59 H 0.73231 -0.05564 0.13227
 Cu60 Cu 0.66487 -0.16353 0.11067
 Cu61 Cu 0.66353 -0.09484 0.16275
 Cu62 Cu 0.59493 -0.15365 0.16440
 N63 N 0.62673 -0.19745 0.11333
 N64 N 0.59880 -0.19224 0.13320
 C65 C 0.57616 -0.21865 0.13005
 C66 C 0.59064 -0.24202 0.10704
 C67 C 0.62280 -0.22765 0.09690
 H68 H 0.55153 -0.22097 0.14431
 H69 H 0.64188 -0.23850 0.07898
 N70 N 0.59623 -0.11336 0.19452
 N71 N 0.62363 -0.09243 0.19562
 C72 C 0.61907 -0.07089 0.22209
 C73 C 0.58697 -0.07823 0.23785
 C74 C 0.57313 -0.10515 0.21972
 H75 H 0.63786 -0.05164 0.22970
 H76 H 0.54908 -0.11907 0.22587
 H77 H 0.64901 -0.14639 0.16835
 H78 H 0.62535 -0.11964 0.13559
 N79 N -0.19931 1.10587 -0.36771
 N80 N -0.20612 1.13479 -0.38461
 C81 C -0.23309 1.12949 -0.40581
 C82 C -0.24332 1.09525 -0.40228
 C83 C -0.22130 1.08098 -0.37791
 H84 H -0.24480 1.14917 -0.42217
 H85 H -0.22256 1.05505 -0.36706
 Cu86 Cu -0.17975 1.17681 -0.37675
 Cu87 Cu -0.16606 1.10453 -0.33065
 Cu88 Cu -0.10837 1.17330 -0.32542
 N89 N -0.14295 1.21153 -0.37897
 N90 N -0.11466 1.21024 -0.35988
 C91 C -0.09414 1.23787 -0.36774
 C92 C -0.11064 1.25743 -0.39309
 C93 C -0.14153 1.23964 -0.39946
 H94 H -0.06934 1.24356 -0.35567
 H95 H -0.16164 1.24621 -0.41776
 N96 N -0.10791 1.13314 -0.29308
 N97 N -0.13101 1.10774 -0.29478
 C98 C -0.12768 1.08668 -0.26752
 C99 C -0.10083 1.09886 -0.24791
 C100 C -0.08853 1.12824 -0.26480
 H101 H -0.14412 1.06448 -0.26180
 H102 H -0.06848 1.14571 -0.25613
 H103 H -0.16000 1.15812 -0.32115
 H104 H -0.13225 1.13946 -0.35677
 N105 N 0.67627 0.59854 0.62740
 N106 N 0.67457 0.62221 0.60310
 C107 C 0.70045 0.61566 0.57989
 C108 C 0.71866 0.58591 0.59008
 C109 C 0.70265 0.57578 0.62032
 H110 H 0.70620 0.63168 0.55776
 H111 H 0.71103 0.55477 0.63700
 Cu112 Cu 0.63976 0.66014 0.60575
 Cu113 Cu 0.64812 0.60235 0.66888
 Cu114 Cu 0.56887 0.64746 0.65752
 N115 N 0.60017 0.69317 0.60749
 N116 N 0.57226 0.68798 0.62738
 C117 C 0.54899 0.71461 0.62342
 C118 C 0.56332 0.73788 0.59998
 C119 C 0.59575 0.72337 0.59042
 H120 H 0.52401 0.71710 0.63720
 H121 H 0.61485 0.73427 0.57258
 N122 N 0.57710 0.61482 0.69584
 N123 N 0.60807 0.59924 0.70087
 C124 C 0.60695 0.58171 0.73055
 C125 C 0.57359 0.58619 0.74490
 C126 C 0.55519 0.60726 0.72225
 H127 H 0.62890 0.56695 0.74109
 H128 H 0.52854 0.61769 0.72552
 H129 H 0.60835 0.61464 0.63727
 H130 H 0.62187 0.65103 0.66492
 N131 N 0.81977 0.38678 0.13258
 N132 N 0.81617 0.35865 0.11447
 C133 C 0.78825 0.36330 0.09377
 C134 C 0.77435 0.39638 0.09883
 C135 C 0.79500 0.41049 0.12356
 H136 H 0.77896 0.34426 0.07618
 H137 H 0.79128 0.43564 0.13510
 Cu138 Cu 0.84913 0.31920 0.11891
 Cu139 Cu 0.85347 0.38949 0.16907
 Cu140 Cu 0.91635 0.32381 0.17392
 N141 N 0.89092 0.28850 0.11588
 N142 N 0.91756 0.29129 0.13674
 C143 C 0.94215 0.26655 0.12983
 C144 C 0.93031 0.24698 0.10322
 C145 C 0.89768 0.26167 0.09498
 H146 H 0.96608 0.26227 0.14414
 H147 H 0.87986 0.25296 0.07572
 N148 N 0.91483 0.36307 0.20529
 N149 N 0.88970 0.38731 0.20437
 C150 C 0.89318 0.40833 0.23110
 C151 C 0.92234 0.39719 0.24916
 C152 C 0.93562 0.36858 0.23210
 H153 H 0.87567 0.42996 0.23722
 H154 H 0.95772 0.35213 0.23963
 H155 H 0.89063 0.35919 0.14325
 H156 H 0.86250 0.33723 0.17658
 N157 N 0.32412 0.10342 0.88106
 N158 N 0.32689 0.12775 0.90391
 C159 C 0.30028 0.12473 0.92699
 C160 C 0.27964 0.09695 0.91807
 C161 C 0.29568 0.08394 0.88890
 H162 H 0.29563 0.14235 0.94779
 H163 H 0.28652 0.06276 0.87372
 Cu164 Cu 0.36334 0.16279 0.90009
 Cu165 Cu 0.35613 0.10105 0.84148
 Cu166 Cu 0.38654 0.18302 0.81990
 N167 N 0.38958 0.20453 0.88920
 N168 N 0.39748 0.21301 0.85757
 C169 C 0.41270 0.24442 0.85672
 C170 C 0.41471 0.25608 0.88971
 C171 C 0.39995 0.23001 0.90969
 H172 H 0.42156 0.25765 0.83379
 H173 H 0.39589 0.23016 0.93693
 N174 N 0.38694 0.14385 0.78809
 N175 N 0.37654 0.11221 0.79637
 C176 C 0.38263 0.09111 0.76975
 C177 C 0.39789 0.11047 0.74355
 C178 C 0.40008 0.14377 0.75618
 H179 H 0.37698 0.06364 0.76967
 H180 H 0.41125 0.16629 0.74356
 H181 H 0.39412 0.14000 0.84985
 H182 H 0.34696 0.15243 0.84146
 N183 N 0.18650 0.90632 0.37951
 N184 N 0.17868 0.88640 0.40590
 C185 C 0.20447 0.88849 0.42895
 C186 C 0.23004 0.91092 0.41637
 C187 C 0.21770 0.92185 0.38494
 H188 H 0.20497 0.87384 0.45255
 H189 H 0.23083 0.93916 0.36704
 Cu190 Cu 0.13674 0.85765 0.40724
 Cu191 Cu 0.15575 0.90874 0.33976
 Cu192 Cu 0.11260 0.83071 0.33085
 N193 N 0.10455 0.81922 0.40258
 N194 N 0.09621 0.80804 0.37244
 C195 C 0.07743 0.77876 0.37601
 C196 C 0.07347 0.77135 0.41027
 C197 C 0.09098 0.79765 0.42649
 H198 H 0.06830 0.76341 0.35518
 H199 H 0.09551 0.79973 0.45340
 N200 N 0.11822 0.86498 0.29363
 N201 N 0.13326 0.89547 0.29696
 C202 C 0.12929 0.91395 0.26783
 C203 C 0.11078 0.89397 0.24521
 C204 C 0.10433 0.86316 0.26258
 H205 H 0.13848 0.94019 0.26367
 H206 H 0.08913 0.84147 0.25403
 H207 H 0.11139 0.87819 0.35389
 H208 H 0.15619 0.85755 0.34776
 Zn209 Zn 0.00807 0.94918 0.01695
 Zn210 Zn -0.03097 1.00857 -0.01540
 Zn211 Zn 0.03978 1.02034 0.01693
 Zn212 Zn 0.03457 0.97999 -0.04746
 O213 O 0.01288 0.98968 -0.00706
 O214 O -0.03742 0.93850 0.02529
 O215 O -0.03657 1.04989 0.00376
 O216 O 0.05289 1.00272 0.05763
 O217 O -0.06671 0.98237 0.00112
 O218 O 0.02932 0.95035 0.05706
 O219 O 0.01577 1.06040 0.02600
 O220 O 0.07689 0.99897 -0.05088
 O221 O -0.03856 1.01721 -0.05984
 O222 O 0.08102 1.03125 -0.00511
 O223 O 0.01139 0.99719 -0.08311
 O224 O 0.04232 0.93457 -0.05437
 O225 O 0.02689 0.91234 -0.00431
 C226 C -0.06636 0.95382 0.01771
 C227 C -0.01612 1.06951 0.01978
 C228 C 0.04723 0.97331 0.07163
 C229 C 0.09394 1.01981 -0.03293
 C230 C -0.01836 1.01276 -0.08563
 C231 C 0.03966 0.90884 -0.03407
 Zn232 Zn 0.47932 0.01426 0.45513
 Zn233 Zn 0.46790 -0.02567 0.52056
 Zn234 Zn 0.54190 -0.01479 0.49090
 Zn235 Zn 0.50136 0.04455 0.51957
 O236 O 0.49751 0.00431 0.49665
 O237 O 0.43842 -0.00643 0.44925
 O238 O 0.49033 -0.06647 0.53051
 O239 O 0.55466 -0.02011 0.44707
 O240 O 0.42817 -0.03590 0.49697
 O241 O 0.50728 0.00050 0.42074
 O242 O 0.54443 -0.05711 0.50934
 O243 O 0.54589 0.05523 0.52887
 O244 O 0.45257 -0.00796 0.56099
 O245 O 0.57653 0.01006 0.50947
 O246 O 0.47820 0.04345 0.55890
 O247 O 0.48385 0.08131 0.49764
 O248 O 0.46963 0.05943 0.44829
 C249 C 0.41893 -0.02612 0.46735
 C250 C 0.52222 -0.07653 0.52471
 C251 C 0.53797 -0.01343 0.41999
 C252 C 0.57516 0.03928 0.52398
 C253 C 0.45884 0.02133 0.57410
 C254 C 0.47151 0.08494 0.46813
 Zn255 Zn 0.94993 0.48375 0.49704
 Zn256 Zn 1.02298 0.48209 0.52704
 Zn257 Zn 1.01054 0.51344 0.45802
 Zn258 Zn 0.98271 0.54967 0.51845
 O259 O 0.99159 0.50707 0.50032
 O260 O 0.95064 0.44396 0.52086
 O261 O 1.06483 0.47263 0.50502
 O262 O 0.98668 0.49236 0.42583
 O263 O 1.00472 0.44127 0.54225
 O264 O 0.94012 0.47188 0.45427
 O265 O 1.05440 0.49708 0.45493
 O266 O 0.99690 0.58500 0.49193
 O267 O 1.03453 0.50554 0.56456
 O268 O 1.01412 0.55799 0.44526
 O269 O 1.00450 0.55499 0.55764
 O270 O 0.93661 0.55780 0.52658
 O271 O 0.91212 0.50834 0.51212
 C272 C 0.97412 0.42838 0.53841
 C273 C 1.07497 0.48110 0.47508
 C274 C 0.95765 0.47615 0.42675
 C275 C 1.00898 0.58571 0.46173
 C276 C 1.02537 0.53565 0.57467
 C277 C 0.90951 0.53908 0.52321
 Zn278 Zn 0.51410 0.45829 1.03328
 Zn279 Zn 0.48560 0.53163 1.03503
 Zn280 Zn 0.55581 0.51529 1.00080
 Zn281 Zn 0.48864 0.49189 0.97033
 O282 O 0.51106 0.49940 1.00999
 O283 O 0.49043 0.45983 1.07278
 O284 O 0.51114 0.56967 1.04379
 O285 O 0.59016 0.48709 1.01721
 O286 O 0.47043 0.51422 1.07528
 O287 O 0.55888 0.44524 1.04197
 O288 O 0.56283 0.55690 1.01886
 O289 O 0.51336 0.50653 0.93429
 O290 O 0.44540 0.54628 1.01439
 O291 O 0.56461 0.52149 0.95611
 O292 O 0.44729 0.51428 0.96814
 O293 O 0.47901 0.44723 0.96311
 O294 O 0.49600 0.42256 1.01118
 C295 C 0.47307 0.48374 1.08786
 C296 C 0.54297 0.57744 1.03586
 C297 C 0.58849 0.45870 1.03396
 C298 C 0.54450 0.51820 0.93084
 C299 C 0.43166 0.53630 0.98701
 C300 C 0.48261 0.42054 0.98201
 C301 C 1.17833 0.45793 0.43741
 C302 C 1.16560 0.44151 0.46716
 N303 N 1.18631 0.41726 0.48287
 C304 C 1.21892 0.40832 0.46994
 C305 C 1.23152 0.42438 0.43970
 N306 N 1.21078 0.44911 0.42456
 N307 N 1.15765 0.48168 0.42117
 C308 C 1.12457 0.48963 0.43311
 C309 C 1.11136 0.47309 0.46278
 N310 N 1.13244 0.44951 0.47933
 H311 H 1.23448 0.38870 0.48308
 H312 H 1.10873 0.50870 0.41945
 C313 C 0.33070 0.57186 0.95477
 C314 C 0.34866 0.54429 0.93873
 N315 N 0.33355 0.52822 0.91238
 C316 C 0.30116 0.53847 0.90112
 C317 C 0.28297 0.56633 0.91679
 N318 N 0.29833 0.58241 0.94337
 N319 N 0.34601 0.58758 0.98143
 C320 C 0.37850 0.57692 0.99270
 C321 C 0.39660 0.54944 0.97636
 N322 N 0.38100 0.53391 0.94976
 H323 H 0.29013 0.52515 0.87986
 H324 H 0.39007 0.58983 1.01398
 C325 C -0.16242 0.91064 0.05468
 C326 C -0.15918 0.94671 0.04992
 N327 N -0.18644 0.96814 0.05931
 C328 C -0.21675 0.95520 0.07347
 C329 C -0.22023 0.91911 0.07812
 N330 N -0.19295 0.89763 0.06834
 N331 N -0.13454 0.88936 0.04664
 C332 C -0.10346 0.90251 0.03429
 C333 C -0.10019 0.93859 0.02931
 N334 N -0.12835 0.95980 0.03711
 H335 H -0.23799 0.97292 0.08090
 H336 H -0.08152 0.88498 0.02841
 C337 C 0.66842 0.08519 0.55943
 C338 C 0.66662 0.04901 0.55582
 N339 N 0.69454 0.02862 0.56536
 C340 C 0.72409 0.04276 0.57859
 C341 C 0.72596 0.07899 0.58214
 N342 N 0.69804 0.09931 0.57222
 N343 N 0.64012 0.10555 0.55105
 C344 C 0.60993 0.09138 0.53939
 C345 C 0.60800 0.05517 0.53558
 N346 N 0.63661 0.03482 0.54372
 H347 H 0.74588 0.02590 0.58617
 H348 H 0.58768 0.10824 0.53306
 C349 C 0.42983 0.18222 0.43684
 C350 C 0.43580 0.15560 0.41335
 N351 N 0.42740 0.16102 0.38036
 C352 C 0.41315 0.19186 0.36974
 C353 C 0.40649 0.21848 0.39336
 N354 N 0.41515 0.21278 0.42639
 N355 N 0.43864 0.17704 0.46975
 C356 C 0.45294 0.14626 0.48036
 C357 C 0.45827 0.11923 0.45704
 N358 N 0.44958 0.12466 0.42399
 H359 H 0.40671 0.19509 0.34325
 H360 H 0.45940 0.14274 0.50685
 C361 C 0.94390 0.33287 0.58475
 C362 C 0.92237 0.35002 0.56096
 N363 N 0.89090 0.33625 0.55262
 C364 C 0.87968 0.30604 0.56701
 C365 C 0.90081 0.28854 0.59130
 N366 N 0.93263 0.30262 0.59950
 N367 N 0.97560 0.34690 0.59270
 C368 C 0.98657 0.37734 0.57802
 C369 C 0.96469 0.39473 0.55444
 N370 N 0.93312 0.38037 0.54661
 H371 H 0.85429 0.29631 0.55950
 H372 H 1.01183 0.38799 0.58496
 C373 C 0.07914 0.81112 -0.06600
 C374 C 0.06689 0.83585 -0.08970
 N375 N 0.06786 0.82828 -0.12321
 C376 C 0.08068 0.79711 -0.13421
 C377 C 0.09390 0.77246 -0.11061
 N378 N 0.09271 0.78033 -0.07698
 N379 N 0.07721 0.81826 -0.03239
 C380 C 0.06377 0.84918 -0.02138
 C381 C 0.05235 0.87442 -0.04510
 N382 N 0.05423 0.86706 -0.07880
 H383 H 0.08114 0.79218 -0.16116
 H384 H 0.06279 0.85430 0.00557
 C385 C 0.58353 0.67423 1.06561
 C386 C 0.54997 0.66329 1.07710
 N387 N 0.53042 0.68392 1.09812
 C388 C 0.54287 0.71501 1.10831
 C389 C 0.57659 0.72627 1.09685
 N390 N 0.59596 0.70536 1.07560
 N391 N 0.60325 0.65345 1.04483
 C392 C 0.59093 0.62217 1.03500
 C393 C 0.55720 0.61111 1.04634
 N394 N 0.53752 0.63214 1.06717
 H395 H 0.52633 0.73058 1.12505
 H396 H 0.60729 0.60622 1.01837
 C397 C 0.41607 0.45533 1.17717
 C398 C 0.43083 0.43031 1.15532
 N399 N 0.42585 0.39614 1.16200
 C400 C 0.40696 0.38561 1.18978
 C401 C 0.39250 0.41041 1.21231
 N402 N 0.39741 0.44486 1.20531
 N403 N 0.42066 0.48961 1.16979
 C404 C 0.43926 0.49989 1.14147
 C405 C 0.45425 0.47471 1.11974
 N406 N 0.44955 0.44053 1.12741
 H407 H 0.40374 0.35807 1.19411
 H408 H 0.44226 0.52733 1.13599
 C409 C 0.58164 -0.04372 0.32522
 C410 C 0.54477 -0.04008 0.33023
 N411 N 0.52255 -0.04821 0.30489
 C412 C 0.53552 -0.06010 0.27474
 C413 C 0.57240 -0.06360 0.26951
 N414 N 0.59465 -0.05509 0.29490
 N415 N 0.60371 -0.03699 0.35115
 C416 C 0.59056 -0.02694 0.38195
 C417 C 0.55365 -0.02303 0.38693
 N418 N 0.53170 -0.02956 0.36075
 H419 H 0.51723 -0.06672 0.25504
 H420 H 0.60869 -0.02199 0.40228
 C421 C -0.04654 1.05956 -0.17936
 C422 C -0.07245 1.05336 -0.15395
 N423 N -0.10675 1.06272 -0.15955
 C424 C -0.11636 1.07788 -0.18945
 C425 C -0.09043 1.08463 -0.21469
 N426 N -0.05601 1.07530 -0.20902
 N427 N -0.01247 1.04913 -0.17421
 C428 C -0.00302 1.03299 -0.14474
 C429 C -0.02870 1.02741 -0.11888
 N430 N -0.06291 1.03787 -0.12420
 H431 H -0.14398 1.08470 -0.19351
 H432 H 0.02448 1.02537 -0.14124
 C433 C 1.06641 0.57455 0.66559
 C434 C 1.07318 0.53999 0.65626
 N435 N 1.09316 0.51911 0.67669
 C436 C 1.10669 0.53124 0.70600
 C437 C 1.10011 0.56597 0.71526
 N438 N 1.08006 0.58669 0.69464
 N439 N 1.04630 0.59548 0.64547
 C440 C 1.03262 0.58348 0.61630
 C441 C 1.03948 0.54891 0.60659
 N442 N 1.05971 0.52795 0.62695
 H443 H 1.12260 0.51400 0.72164
 H444 H 1.01675 0.60091 0.60076
 C445 C 0.80893 0.58012 0.55176
 C446 C 0.81571 0.54413 0.55302
 N447 N 0.79025 0.52249 0.56526
 C448 C 0.75841 0.53523 0.57664
 C449 C 0.75153 0.57120 0.57533
 N450 N 0.77696 0.59280 0.56267
 N451 N 0.83492 0.60190 0.54095
 C452 C 0.86750 0.58935 0.53151
 C453 C 0.87432 0.55333 0.53256
 N454 N 0.84806 0.53154 0.54310
 H455 H 0.73871 0.51750 0.58677
 H456 H 0.88781 0.60730 0.52313
 C457 C 0.68322 0.40863 1.06587
 C458 C 0.68215 0.44459 1.05926
 N459 N 0.71138 0.46378 1.06476
 C460 C 0.74157 0.44872 1.07687
 C461 C 0.74282 0.41272 1.08342
 N462 N 0.71356 0.39345 1.07752
 N463 N 0.65351 0.38971 1.06168
 C464 C 0.62271 0.40513 1.05135
 C465 C 0.62160 0.44110 1.04451
 N466 N 0.65156 0.45992 1.04847
 H467 H 0.76438 0.46469 1.08140
 H468 H 0.59939 0.38942 1.04837
 C469 C 0.19501 1.05024 -0.07016
 C470 C 0.18064 1.06503 -0.04047
 N471 N 0.19927 1.08957 -0.02426
 C472 C 0.23147 1.10013 -0.03653
 C473 C 0.24572 1.08551 -0.06648
 N474 N 0.22699 1.06076 -0.08237
 N475 N 0.17657 1.02595 -0.08667
 C476 C 0.14422 1.01576 -0.07499
 C477 C 0.12940 1.03054 -0.04533
 N478 N 0.14816 1.05487 -0.02865
 H479 H 0.24556 1.11983 -0.02311
 H480 H 0.13023 0.99630 -0.08889
 C481 C 0.32037 -0.05368 0.42590
 C482 C 0.32888 -0.06404 0.45914
 N483 N 0.30486 -0.08233 0.47797
 C484 C 0.27283 -0.09074 0.46507
 C485 C 0.26424 -0.08029 0.43175
 N486 N 0.28843 -0.06194 0.41309
 N487 N 0.34414 -0.03548 0.40691
 C488 C 0.37605 -0.02693 0.41962
 C489 C 0.38479 -0.03689 0.45306
 N490 N 0.36084 -0.05538 0.47206
 H491 H 0.25433 -0.10528 0.48079
 H492 H 0.39429 -0.01222 0.40371
 C493 C 0.55818 -0.17607 0.55698
 C494 C 0.52421 -0.16389 0.56665
 N495 N 0.50327 -0.18417 0.58690
 C496 C 0.51482 -0.21601 0.59799
 C497 C 0.54893 -0.22819 0.58836
 N498 N 0.56962 -0.20775 0.56796
 N499 N 0.57938 -0.15595 0.53703
 C500 C 0.56828 -0.12402 0.52630
 C501 C 0.53428 -0.11147 0.53589
 N502 N 0.51294 -0.13190 0.55586
 H503 H 0.49754 -0.23150 0.61412
 H504 H 0.58594 -0.10863 0.51041
 C505 C 1.04045 0.68142 0.41804
 C506 C 1.03303 0.67841 0.45296
 N507 N 1.03800 0.70607 0.47326
 C508 C 1.05041 0.73657 0.46026
 C509 C 1.05817 0.73958 0.42531
 N510 N 1.05269 0.71186 0.40505
 N511 N 1.03638 0.65354 0.39784
 C512 C 1.02554 0.62257 0.41105
 C513 C 1.01834 0.61933 0.44609
 N514 N 1.02208 0.64755 0.46615
 H515 H 1.05426 0.75812 0.47707
 H516 H 1.02288 0.60066 0.39440
 C517 C -0.05826 1.16541 0.05478
 C518 C -0.02406 1.15421 0.06402
 N519 N -0.00497 1.17392 0.08517
 C520 C -0.01861 1.20416 0.09774
 C521 C -0.05308 1.21527 0.08885
 N522 N -0.07191 1.19554 0.06733
 N523 N -0.07758 1.14566 0.03393
 C524 C -0.06440 1.11503 0.02204
 C525 C -0.03025 1.10341 0.03143
 N526 N -0.01080 1.12353 0.05217
 H527 H -0.00268 1.21915 0.11459
 H528 H -0.08062 1.09983 0.00557
 C529 C 0.44731 0.32394 0.94684
 C530 C 0.45188 0.35222 0.92441
 N531 N 0.44487 0.34851 0.89100
 C532 C 0.43336 0.31777 0.87898
 C533 C 0.42823 0.28950 0.90146
 N534 N 0.43537 0.29340 0.93495
 N535 N 0.45481 0.32749 0.98016
 C536 C 0.46661 0.35813 0.99213
 C537 C 0.47073 0.38672 0.96983
 N538 N 0.46321 0.38295 0.93640
 H539 H 0.42773 0.31574 0.85227
 H540 H 0.47228 0.36024 1.01885
 C541 C 0.57733 0.55229 0.83316
 C542 C 0.54122 0.54875 0.84160
 N543 N 0.51625 0.55761 0.81846
 C544 C 0.52577 0.56993 0.78715
 C545 C 0.56194 0.57316 0.77846
 N546 N 0.58685 0.56411 0.80177
 N547 N 0.60226 0.54438 0.85666
 C548 C 0.59266 0.53314 0.88837
 C549 C 0.55649 0.52924 0.89677
 N550 N 0.53168 0.53711 0.87302
 H551 H 0.50534 0.57673 0.76916
 H552 H 0.61301 0.52721 0.90671
 C553 C 0.41739 0.05324 0.66956
 C554 C 0.43638 0.07583 0.64803
 N555 N 0.44212 0.10887 0.65762
 C556 C 0.42979 0.12059 0.68796
 C557 C 0.41087 0.09819 0.71004
 N558 N 0.40511 0.06484 0.70019
 N559 N 0.41173 0.02012 0.65943
 C560 C 0.42433 0.00866 0.62877
 C561 C 0.44365 0.03137 0.60737
 N562 N 0.44900 0.06439 0.61779
 H563 H 0.43516 0.14709 0.69464
 H564 H 0.41955 -0.01780 0.62134
 C565 C 0.08909 0.94669 0.16788
 C566 C 0.07176 0.92220 0.14826
 N567 N 0.06827 0.88920 0.16003
 C568 C 0.08105 0.87944 0.19075
 C569 C 0.09805 0.90387 0.21098
 N570 N 0.10180 0.93705 0.19883
 N571 N 0.09263 0.97971 0.15569
 C572 C 0.07958 0.98929 0.12482
 C573 C 0.06196 0.96475 0.10526
 N574 N 0.05863 0.93177 0.11767
 H575 H 0.07776 0.85282 0.19909
 H576 H 0.08280 1.01574 0.11575
 C577 C 0.92147 0.43596 0.33468
 C578 C 0.95791 0.43767 0.34128
 N579 N 0.98194 0.42574 0.31799
 C580 C 0.97119 0.41220 0.28826
 C581 C 0.93479 0.41126 0.28120
 N582 N 0.91075 0.42324 0.30464
 N583 N 0.89743 0.44664 0.35860
 C584 C 0.90821 0.45913 0.38881
 C585 C 0.94470 0.46175 0.39507
 N586 N 0.96865 0.45093 0.37103
 H587 H 0.99085 0.40284 0.27007
 H588 H 0.88857 0.46758 0.40744
   
