data_POSCAR
  _audit_creation_date              2014-09-24
  _audit_creation_method            'ToBaCCo'
  _symmetry_space_group_name_H-M    'P1'
  _symmetry_Int_Tables_number       1
  _symmetry_cell_setting            triclinic
  loop_
  _symmetry_equiv_pos_as_xyz
 x,y,z
_cell_length_a 37.4724
_cell_length_b 35.6186
_cell_length_c 35.6236
_cell_angle_alpha 89.980200
_cell_angle_beta 90.008200
_cell_angle_gamma 89.979000
loop_
  _atom_site_label
  _atom_site_type_symbol
  _atom_site_fract_x
  _atom_site_fract_y
  _atom_site_fract_z
C1 C 0.30437 0.30143 0.23570
 H2 H 0.30589 0.30222 0.26602
 C3 C 0.32735 0.32360 0.21425
 H4 H 0.34621 0.34181 0.22832
 C5 C 0.27759 0.27688 0.18069
 H6 H 0.25862 0.25815 0.16767
 C7 C 0.30003 0.29858 0.15815
 H8 H 0.29803 0.29627 0.12792
 N9 N 0.27980 0.27905 0.21874
 C10 C 0.19556 0.26386 0.30190
 H11 H 0.19410 0.23354 0.30275
 C12 C 0.17259 0.28532 0.32409
 H13 H 0.15381 0.27124 0.34239
 C14 C 0.22215 0.31889 0.27713
 H15 H 0.24103 0.33192 0.25831
 C16 C 0.19972 0.34143 0.29885
 H17 H 0.20165 0.37166 0.29646
 Zn18 Zn 0.24992 0.24967 0.24996
 N19 N 0.22003 0.28084 0.27940
 C20 C 0.27799 0.22252 0.31909
 N21 N 0.27997 0.22029 0.28103
 C22 C 0.30446 0.19790 0.26394
 C23 C 0.32758 0.17576 0.28528
 C24 C 0.30063 0.20090 0.34152
 C25 C 0.19533 0.23554 0.19830
 C26 C 0.17229 0.21412 0.17617
 C27 C 0.19956 0.15797 0.20119
 C28 C 0.22207 0.18046 0.22285
 N29 N 0.21991 0.21852 0.22066
 H30 H 0.25894 0.24109 0.33221
 H31 H 0.30593 0.19723 0.23362
 H32 H 0.34699 0.15826 0.27112
 H33 H 0.29819 0.20254 0.37176
 H34 H 0.19385 0.26586 0.19749
 H35 H 0.15342 0.22823 0.15797
 H36 H 0.20152 0.12773 0.20352
 H37 H 0.24104 0.16741 0.24156
 C38 C 0.17462 0.32468 0.32287
 C39 C 0.32524 0.32247 0.17490
 C40 C 0.17434 0.17476 0.17731
 C41 C 0.32576 0.17699 0.32464
 C42 C 0.80465 0.80205 0.23517
 H43 H 0.80605 0.80303 0.26549
 C44 C 0.82761 0.82422 0.21370
 H45 H 0.84547 0.84283 0.22855
 C46 C 0.77794 0.77740 0.18035
 H47 H 0.75915 0.75844 0.16739
 C48 C 0.80031 0.79909 0.15772
 H49 H 0.79830 0.79535 0.12769
 N50 N 0.78013 0.77963 0.21833
 C51 C 0.69596 0.76431 0.30155
 H52 H 0.69456 0.73398 0.30240
 C53 C 0.67297 0.78571 0.32375
 H54 H 0.65423 0.77159 0.34207
 C55 C 0.72243 0.81940 0.27677
 H56 H 0.74128 0.83247 0.25794
 C57 C 0.69997 0.84188 0.29850
 H58 H 0.70184 0.87212 0.29612
 Zn59 Zn 0.75032 0.75022 0.24960
 N60 N 0.72039 0.78134 0.27904
 C61 C 0.77846 0.72315 0.31874
 N62 N 0.78044 0.72093 0.28068
 C63 C 0.80494 0.69854 0.26359
 C64 C 0.82806 0.67640 0.28493
 C65 C 0.80109 0.70152 0.34117
 C66 C 0.69576 0.73589 0.19794
 C67 C 0.67275 0.71438 0.17588
 C68 C 0.70008 0.65833 0.20107
 C69 C 0.72256 0.68092 0.22267
 N70 N 0.72036 0.71897 0.22036
 H71 H 0.75940 0.74171 0.33186
 H72 H 0.80641 0.69787 0.23327
 H73 H 0.84746 0.65888 0.27078
 H74 H 0.79864 0.70315 0.37140
 H75 H 0.69425 0.76621 0.19705
 H76 H 0.65387 0.72841 0.15763
 H77 H 0.70207 0.62810 0.20349
 H78 H 0.74154 0.66794 0.24142
 C79 C 0.67491 0.82508 0.32254
 C80 C 0.82578 0.82337 0.17407
 C81 C 0.67485 0.67502 0.17714
 C82 C 0.82621 0.67760 0.32429
 C83 C 0.80433 0.30191 0.73600
 H84 H 0.80578 0.30282 0.76632
 C85 C 0.82727 0.32409 0.71452
 H86 H 0.84602 0.34245 0.72857
 C87 C 0.77781 0.27699 0.68101
 H88 H 0.75896 0.25812 0.66802
 C89 C 0.80022 0.29871 0.65845
 H90 H 0.79831 0.29626 0.62823
 N91 N 0.77991 0.27933 0.71906
 C92 C 0.69556 0.26386 0.80204
 H93 H 0.69416 0.23353 0.80279
 C94 C 0.67243 0.28519 0.82415
 H95 H 0.65309 0.27102 0.84172
 C96 C 0.72187 0.31903 0.77725
 H97 H 0.74086 0.33216 0.75863
 C98 C 0.69921 0.34145 0.79885
 H99 H 0.70159 0.37169 0.79713
 Zn100 Zn 0.75007 0.24990 0.75027
 N101 N 0.71997 0.28097 0.77957
 C102 C 0.77804 0.22297 0.81945
 N103 N 0.78012 0.22069 0.78150
 C104 C 0.80470 0.19838 0.76469
 C105 C 0.82782 0.17634 0.78612
 C106 C 0.80054 0.20144 0.84209
 C107 C 0.69564 0.23550 0.69852
 C108 C 0.67268 0.21399 0.67640
 C109 C 0.70006 0.15795 0.70153
 C110 C 0.72249 0.18054 0.72319
 N111 N 0.72023 0.21859 0.72095
 H112 H 0.75924 0.24195 0.83240
 H113 H 0.80599 0.19731 0.73436
 H114 H 0.84526 0.15773 0.77079
 H115 H 0.79846 0.20594 0.87198
 H116 H 0.69408 0.26582 0.69768
 H117 H 0.65380 0.22802 0.65815
 H118 H 0.70210 0.12771 0.70390
 H119 H 0.74147 0.16756 0.74195
 C120 C 0.67417 0.32455 0.82284
 C121 C 0.82527 0.32279 0.67517
 C122 C 0.67483 0.17464 0.67760
 C123 C 0.82625 0.17704 0.82593
 C124 C 0.30413 0.80209 0.73625
 H125 H 0.30557 0.80278 0.76657
 C126 C 0.32725 0.82422 0.71492
 H127 H 0.34663 0.84175 0.72908
 C128 C 0.27775 0.77739 0.68108
 H129 H 0.25875 0.75879 0.66795
 C130 C 0.30039 0.79900 0.65867
 H131 H 0.29799 0.79732 0.62843
 N132 N 0.27970 0.77965 0.71914
 C133 C 0.19499 0.76422 0.80173
 H134 H 0.19350 0.73389 0.80239
 C135 C 0.17183 0.78556 0.82380
 H136 H 0.15237 0.77141 0.84123
 C137 C 0.22158 0.81938 0.77723
 H138 H 0.24069 0.83250 0.75875
 C139 C 0.19890 0.84181 0.79879
 H140 H 0.20138 0.87205 0.79717
 Zn141 Zn 0.24969 0.75023 0.75019
 N142 N 0.21955 0.78131 0.77943
 C143 C 0.27734 0.72310 0.81951
 N144 N 0.27961 0.72093 0.78147
 C145 C 0.30427 0.69860 0.76455
 C146 C 0.32728 0.67650 0.78606
 C147 C 0.29982 0.70146 0.84210
 C148 C 0.19540 0.73591 0.69823
 C149 C 0.17247 0.71440 0.67605
 C150 C 0.19973 0.65835 0.70131
 C151 C 0.22212 0.68093 0.72302
 N152 N 0.21991 0.71899 0.72073
 H153 H 0.25830 0.74178 0.83250
 H154 H 0.30584 0.69781 0.73424
 H155 H 0.34621 0.65833 0.77202
 H156 H 0.29777 0.70377 0.87233
 H157 H 0.19386 0.76623 0.69736
 H158 H 0.15365 0.72844 0.65775
 H159 H 0.20172 0.62812 0.70372
 H160 H 0.24104 0.66795 0.74184
 C161 C 0.17370 0.82493 0.82261
 C162 C 0.32548 0.82294 0.67556
 C163 C 0.17457 0.67505 0.67730
 C164 C 0.32512 0.67762 0.82540
 C165 C -0.00067 0.00049 -0.00030
 C166 C 0.00002 0.49992 0.50005
 C167 C 0.50022 -0.00023 0.50015
 C168 C 0.49993 0.50003 0.00015
 C169 C 0.11196 -0.09653 -0.14606
 C170 C 0.10437 -0.10728 -0.10912
 C171 C 0.11923 -0.14026 -0.09456
 C172 C 0.14166 -0.16239 -0.11678
 C173 C 0.14957 -0.15177 -0.15391
 C174 C 0.13441 -0.11860 -0.16833
 C175 C 0.08157 -0.08434 -0.08608
 C176 C 0.06262 -0.06508 -0.06668
 C177 C 0.04058 -0.04248 -0.04386
 C178 C 0.02188 -0.02311 -0.02425
 H179 H 0.10053 -0.07110 -0.15764
 H180 H 0.11362 -0.14877 -0.06596
 H181 H 0.15327 -0.18748 -0.10471
 H182 H 0.13959 -0.10993 -0.19694
 C183 C 0.09233 0.36032 0.37391
 C184 C 0.10564 0.39256 0.39144
 C185 C 0.14142 0.40266 0.38655
 C186 C 0.16384 0.38063 0.36423
 C187 C 0.15075 0.34813 0.34649
 C188 C 0.11471 0.33822 0.35159
 C189 C 0.08266 0.41527 0.41451
 C190 C 0.06357 0.43440 0.43390
 C191 C 0.04142 0.45692 0.45668
 C192 C 0.02264 0.47627 0.47621
 H193 H 0.06464 0.35230 0.37743
 H194 H 0.15203 0.42750 0.40009
 H195 H 0.19154 0.38873 0.36128
 H196 H 0.10372 0.31366 0.33793
 C197 C 0.59260 -0.13951 0.37369
 C198 C 0.60586 -0.10725 0.39123
 C199 C 0.64161 -0.09706 0.38630
 C200 C 0.66405 -0.11902 0.36393
 C201 C 0.65101 -0.15153 0.34618
 C202 C 0.61501 -0.16153 0.35132
 C203 C 0.58286 -0.08462 0.41437
 C204 C 0.56377 -0.06557 0.43381
 C205 C 0.54161 -0.04312 0.45666
 C206 C 0.52283 -0.02383 0.47625
 H207 H 0.56494 -0.14760 0.37724
 H208 H 0.65219 -0.07221 0.39985
 H209 H 0.69174 -0.11085 0.36095
 H210 H 0.60405 -0.18611 0.33766
 C211 C 0.61231 0.40296 -0.14578
 C212 C 0.60491 0.39230 -0.10878
 C213 C 0.61994 0.35942 -0.09418
 C214 C 0.64235 0.33731 -0.11644
 C215 C 0.65007 0.34784 -0.15364
 C216 C 0.63474 0.38091 -0.16808
 C217 C 0.58213 0.41523 -0.08570
 C218 C 0.56319 0.43448 -0.06628
 C219 C 0.54116 0.45707 -0.04343
 C220 C 0.52247 0.47643 -0.02381
 H221 H 0.60075 0.42832 -0.15739
 H222 H 0.61448 0.35097 -0.06553
 H223 H 0.65410 0.31230 -0.10435
 H224 H 0.63977 0.38951 -0.19675
 C225 C -0.13702 0.12508 -0.09211
 C226 C -0.10597 0.10986 -0.10736
 C227 C -0.09733 0.11707 -0.14473
 C228 C -0.11965 0.13936 -0.16694
 C229 C -0.15156 0.15527 -0.15231
 C230 C -0.15949 0.14742 -0.11407
 C231 C -0.08308 0.08665 -0.08465
 C232 C -0.06406 0.06714 -0.06556
 C233 C -0.04197 0.04420 -0.04310
 C234 C -0.02325 0.02452 -0.02382
 H235 H -0.14418 0.11931 -0.06320
 H236 H -0.07307 0.10569 -0.15675
 H237 H -0.11032 0.14514 -0.19501
 H238 H -0.18390 0.15658 -0.10084
 C239 C -0.11215 0.64599 0.40281
 C240 C -0.10470 0.60901 0.39210
 C241 C -0.11960 0.59451 0.35914
 C242 C -0.14195 0.61683 0.33700
 C243 C -0.14973 0.65401 0.34759
 C244 C -0.13451 0.66836 0.38073
 C245 C -0.08199 0.58586 0.41505
 C246 C -0.06310 0.56639 0.43434
 C247 C -0.04114 0.54351 0.45698
 C248 C -0.02249 0.52387 0.47639
 H249 H -0.10068 0.65753 0.42823
 H250 H -0.11411 0.56588 0.35064
 H251 H -0.15361 0.60482 0.31192
 H252 H -0.13959 0.69701 0.38938
 C253 C 0.38014 0.09404 0.35949
 C254 C 0.39507 0.10861 0.39240
 C255 C 0.38756 0.14557 0.40310
 C256 C 0.36511 0.16788 0.38104
 C257 C 0.34988 0.15346 0.34793
 C258 C 0.35771 0.11629 0.33737
 C259 C 0.41788 0.08554 0.41533
 C260 C 0.43685 0.06613 0.43459
 C261 C 0.45890 0.04330 0.45719
 C262 C 0.47763 0.02370 0.47655
 H263 H 0.38569 0.06541 0.35101
 H264 H 0.39905 0.15716 0.42849
 H265 H 0.35999 0.19652 0.38967
 H266 H 0.34604 0.10423 0.31232
 C267 C 0.35840 0.61383 -0.09670
 C268 C 0.39422 0.60913 -0.10671
 C269 C 0.40755 0.62686 -0.13884
 C270 C 0.38513 0.64918 -0.16093
 C271 C 0.34904 0.65407 -0.15111
 C272 C 0.33594 0.63615 -0.11871
 C273 C 0.41723 0.58600 -0.08407
 C274 C 0.43634 0.56654 -0.06501
 C275 C 0.45851 0.54366 -0.04261
 C276 C 0.47730 0.52401 -0.02336
 H277 H 0.34778 0.60014 -0.07194
 H278 H 0.43527 0.62349 -0.14680
 H279 H 0.39613 0.66298 -0.18541
 H280 H 0.30820 0.63895 -0.11068
 C281 C -0.13865 -0.12126 0.09251
 C282 C -0.10609 -0.10863 0.10676
 C283 C -0.09590 -0.11850 0.14314
 C284 C -0.11817 -0.14085 0.16532
 C285 C -0.15135 -0.15399 0.15153
 C286 C -0.16102 -0.14366 0.11450
 C287 C -0.08323 -0.08542 0.08405
 C288 C -0.06421 -0.06593 0.06496
 C289 C -0.04210 -0.04304 0.04251
 C290 C -0.02333 -0.02342 0.02323
 H291 H -0.14696 -0.11350 0.06442
 H292 H -0.07055 -0.10911 0.15437
 H293 H -0.10833 -0.14878 0.19271
 H294 H -0.18651 -0.15136 0.10257
 C295 C -0.14153 0.38637 0.59708
 C296 C -0.10577 0.39132 0.60722
 C297 C -0.09247 0.37386 0.63952
 C298 C -0.11484 0.35155 0.66164
 C299 C -0.15086 0.34640 0.65169
 C300 C -0.16395 0.36406 0.61913
 C301 C -0.08279 0.41438 0.58450
 C302 C -0.06370 0.43377 0.56538
 C303 C -0.04151 0.45655 0.54290
 C304 C -0.02268 0.47608 0.52360
 H305 H -0.15214 0.39986 0.57219
 H306 H -0.06479 0.37743 0.64757
 H307 H -0.10385 0.33795 0.68625
 H308 H -0.19164 0.36106 0.61099
 C309 C 0.38738 -0.14579 0.59717
 C310 C 0.39487 -0.10881 0.60783
 C311 C 0.37988 -0.09418 0.64069
 C312 C 0.35742 -0.11639 0.66280
 C313 C 0.34961 -0.15358 0.65227
 C314 C 0.36491 -0.16805 0.61922
 C315 C 0.41772 -0.08580 0.58492
 C316 C 0.43672 -0.06643 0.56567
 C317 C 0.45882 -0.04367 0.54309
 C318 C 0.47758 -0.02412 0.52373
 H319 H 0.39892 -0.15743 0.57183
 H320 H 0.38541 -0.06555 0.64914
 H321 H 0.34570 -0.10428 0.68780
 H322 H 0.35981 -0.19670 0.61062
 C323 C 0.35846 0.38631 0.09704
 C324 C 0.39427 0.39109 0.10712
 C325 C 0.40759 0.37340 0.13928
 C326 C 0.38520 0.35105 0.16134
 C327 C 0.34913 0.34608 0.15146
 C328 C 0.33603 0.36396 0.11902
 C329 C 0.41725 0.41422 0.08448
 C330 C 0.43635 0.43367 0.06542
 C331 C 0.45852 0.45652 0.04299
 C332 C 0.47730 0.47612 0.02372
 H333 H 0.34784 0.39998 0.07226
 H334 H 0.43529 0.37683 0.14728
 H335 H 0.39620 0.33727 0.18584
 H336 H 0.30831 0.36111 0.11095
 C337 C 0.09192 0.13928 0.12642
 C338 C 0.10519 0.10710 0.10874
 C339 C 0.14099 0.09696 0.11351
 C340 C 0.16346 0.11890 0.13585
 C341 C 0.15040 0.15135 0.15373
 C342 C 0.11435 0.16129 0.14876
 C343 C 0.08217 0.08451 0.08561
 C344 C 0.06304 0.06550 0.06615
 C345 C 0.04084 0.04314 0.04328
 C346 C 0.02201 0.02394 0.02365
 H347 H 0.06422 0.14733 0.12299
 H348 H 0.15157 0.07217 0.09986
 H349 H 0.19117 0.11079 0.13870
 H350 H 0.10339 0.18582 0.16252
 C351 C 0.14143 0.59699 0.61370
 C352 C 0.10563 0.60706 0.60884
 C353 C 0.09228 0.63929 0.62637
 C354 C 0.11466 0.66142 0.64866
 C355 C 0.15071 0.65155 0.65372
 C356 C 0.16384 0.61905 0.63599
 C357 C 0.08266 0.58434 0.58577
 C358 C 0.06358 0.56522 0.56637
 C359 C 0.04142 0.54275 0.54356
 C360 C 0.02265 0.52346 0.52397
 H361 H 0.15206 0.57216 0.60016
 H362 H 0.06458 0.64729 0.62286
 H363 H 0.10364 0.68598 0.66231
 H364 H 0.19156 0.61098 0.63892
 C365 C 0.64167 0.09668 0.61389
 C366 C 0.60586 0.10673 0.60908
 C367 C 0.59251 0.13890 0.62671
 C368 C 0.61488 0.16099 0.64904
 C369 C 0.65095 0.15114 0.65404
 C370 C 0.66408 0.11870 0.63621
 C371 C 0.58289 0.08406 0.58596
 C372 C 0.56381 0.06500 0.56651
 C373 C 0.54164 0.04257 0.54366
 C374 C 0.52285 0.02331 0.52406
 H375 H 0.65231 0.07189 0.60027
 H376 H 0.56480 0.14688 0.62326
 H377 H 0.60386 0.18551 0.66276
 H378 H 0.69182 0.11065 0.63909
 C379 C 0.59244 0.63927 0.12641
 C380 C 0.60575 0.60704 0.10883
 C381 C 0.64156 0.59697 0.11362
 C382 C 0.66401 0.61902 0.13587
 C383 C 0.65093 0.65152 0.15363
 C384 C 0.61486 0.66139 0.14865
 C385 C 0.58274 0.58434 0.08580
 C386 C 0.56362 0.56524 0.06642
 C387 C 0.54143 0.54279 0.04363
 C388 C 0.52261 0.52353 0.02405
 H389 H 0.56474 0.64727 0.12296
 H390 H 0.65216 0.57214 0.10005
 H391 H 0.69174 0.61095 0.13873
 H392 H 0.60388 0.68595 0.16233
   
