data_POSCAR
  _audit_creation_date              2014-09-24
  _audit_creation_method            'ToBaCCo'
  _symmetry_space_group_name_H-M    'P1'
  _symmetry_Int_Tables_number       1
  _symmetry_cell_setting            triclinic
  loop_
  _symmetry_equiv_pos_as_xyz
 x,y,z
_cell_length_a 29.5170
_cell_length_b 29.5196
_cell_length_c 29.5398
_cell_angle_alpha 78.896500
_cell_angle_beta 101.149900
_cell_angle_gamma 78.045400
loop_
  _atom_site_label
  _atom_site_type_symbol
  _atom_site_fract_x
  _atom_site_fract_y
  _atom_site_fract_z
O1 O 0.56837 0.48741 0.04535
 O2 O 0.43892 0.50210 0.03142
 O3 O 0.51181 0.42988 0.04698
 O4 O 0.49562 0.55944 0.03080
 O5 O 0.48565 0.56846 -0.04686
 O6 O 0.50170 0.43874 -0.03068
 O7 O 0.42893 0.51108 -0.04622
 O8 O 0.55823 0.49625 -0.03230
 Cu9 Cu 0.50466 0.49384 0.04646
 Cu10 Cu 0.49264 0.50449 -0.04684
 C11 C 0.58504 0.48992 0.00870
 C12 C 0.41215 0.50855 -0.00966
 C13 C 0.50893 0.41251 0.01078
 C14 C 0.48851 0.58574 -0.01058
 O15 O -0.04868 0.57459 0.48246
 O16 O -0.03453 0.44512 0.49757
 O17 O -0.03370 0.50277 0.55460
 O18 O -0.04935 0.51681 0.42550
 O19 O 0.02864 0.50581 0.43480
 O20 O 0.04428 0.49177 0.56386
 O21 O 0.04345 0.43413 0.50683
 O22 O 0.02930 0.56354 0.49171
 Cu23 Cu -0.04943 0.51092 0.48913
 Cu24 Cu 0.04427 0.49775 0.50020
 C25 C -0.01195 0.59086 0.48502
 C26 C 0.00673 0.41785 0.50423
 C27 C 0.00781 0.49537 0.58094
 C28 C -0.01285 0.51311 0.40845
 O29 O 0.50458 0.02908 0.56568
 O30 O 0.49211 0.04239 0.43693
 O31 O 0.43351 0.04387 0.49297
 O32 O 0.56326 0.02745 0.50973
 O33 O 0.57323 -0.05051 0.52002
 O34 O 0.44342 -0.03409 0.50327
 O35 O 0.50202 -0.03557 0.44723
 O36 O 0.51450 -0.04887 0.57602
 Cu37 Cu 0.49742 0.04354 0.50032
 Cu38 Cu 0.50928 -0.05012 0.51265
 C39 C 0.51109 -0.01200 0.59250
 C40 C 0.49540 0.00555 0.42041
 C41 C 0.41663 0.00753 0.49580
 C42 C 0.59008 -0.01415 0.51719
 C43 C 0.49896 -0.00919 -0.04195
 C44 C 0.50117 -0.04771 -0.00409
 C45 C 0.50296 -0.04005 0.04160
 C46 C 0.50193 0.00515 0.05047
 C47 C 0.49932 0.04373 0.01251
 C48 C 0.49775 0.03601 -0.03313
 H49 H 0.49709 0.06533 -0.06193
 H50 H 0.50363 -0.06937 0.07040
 C51 C -0.00927 0.49959 1.04154
 C52 C -0.04726 0.50176 1.00314
 C53 C -0.03868 0.50345 0.95783
 C54 C 0.00689 0.50238 0.94992
 C55 C 0.04496 0.49981 0.98842
 C56 C 0.03631 0.49831 1.03368
 H57 H 0.06519 0.49769 1.06294
 H58 H -0.06756 0.50410 0.92856
 C59 C 0.04540 0.01037 0.49608
 C60 C 0.00898 0.04631 0.50247
 C61 C -0.03517 0.03680 0.50530
 C62 C -0.04383 -0.00769 0.50246
 C63 C -0.00707 -0.04396 0.49711
 C64 C 0.03691 -0.03428 0.49376
 H65 H 0.06504 -0.06200 0.48938
 H66 H -0.06330 0.06450 0.50970
 C67 C -0.18180 0.53173 0.98281
 C68 C -0.18807 0.49424 1.01606
 C69 C -0.14815 0.46001 1.04637
 C70 C -0.10215 0.46290 1.04295
 C71 C -0.36514 0.48733 1.01329
 C72 C -0.13591 0.53465 0.97934
 C73 C -0.23559 0.49043 1.01773
 C74 C -0.27593 0.48818 1.01765
 C75 C -0.32377 0.48692 1.01597
 C76 C -0.09568 0.50017 1.00924
 H77 H -0.21242 0.55837 0.95913
 H78 H -0.15258 0.43074 1.07209
 H79 H -0.07167 0.43552 1.06583
 H80 H -0.13173 0.56362 0.95310
 C81 C 0.14732 0.54052 0.94741
 C82 C 0.18671 0.50577 0.97799
 C83 C 0.17955 0.46807 1.01026
 C84 C 0.13332 0.46556 1.01268
 C85 C 0.36495 0.51118 0.98568
 C86 C 0.10096 0.53803 0.94978
 C87 C 0.23460 0.50928 0.97775
 C88 C 0.27524 0.51118 0.97910
 C89 C 0.32339 0.51197 0.98215
 C90 C 0.09363 0.50066 0.98270
 H91 H 0.15246 0.56995 0.92242
 H92 H 0.20974 0.44101 1.03411
 H93 H 0.12846 0.43651 1.03834
 H94 H 0.07089 0.56587 0.92685
 C95 C 0.01617 -0.17834 0.52274
 C96 C -0.01994 -0.18426 0.48770
 C97 C -0.05300 -0.14410 0.45633
 C98 C -0.04953 -0.09820 0.45971
 C99 C -0.01653 -0.36187 0.48209
 C100 C 0.01967 -0.13262 0.52614
 C101 C -0.02188 -0.23172 0.48372
 C102 C -0.02167 -0.27219 0.48173
 C103 C -0.01960 -0.32028 0.48108
 C104 C -0.01303 -0.09215 0.49461
 H105 H 0.04195 -0.20912 0.54718
 H106 H -0.08101 -0.14827 0.42897
 H107 H -0.07471 -0.06747 0.43464
 H108 H 0.04808 -0.12874 0.55326
 C109 C 0.00827 0.15894 0.54588
 C110 C 0.02025 0.18773 0.50887
 C111 C 0.03036 0.16963 0.47042
 C112 C 0.02774 0.12318 0.46863
 C113 C 0.01169 0.36784 0.50749
 C114 C 0.00565 0.11257 0.54414
 C115 C 0.01982 0.23650 0.50939
 C116 C 0.01824 0.27763 0.50950
 C117 C 0.01516 0.32613 0.50893
 C118 C 0.01510 0.09437 0.50540
 H119 H 0.00020 0.17261 0.57571
 H120 H 0.03936 0.19170 0.44142
 H121 H 0.03448 0.11011 0.43811
 H122 H -0.00421 0.09096 0.57282
 C123 C 0.46827 0.01263 -0.17611
 C124 C 0.50564 -0.02091 -0.18326
 C125 C 0.53990 -0.05206 -0.14403
 C126 C 0.53721 -0.04912 -0.09786
 C127 C 0.51294 -0.01628 -0.36054
 C128 C 0.46555 0.01561 -0.13005
 C129 C 0.50939 -0.02196 -0.23094
 C130 C 0.51167 -0.02138 -0.27136
 C131 C 0.51308 -0.01921 -0.31922
 C132 C 0.50011 -0.01505 -0.09052
 H133 H 0.44161 0.03694 -0.20619
 H134 H 0.56909 -0.07802 -0.14915
 H135 H 0.56465 -0.07261 -0.06794
 H136 H 0.43671 0.04216 -0.12520
 C137 C 0.53480 -0.01724 0.18464
 C138 C 0.49770 0.01603 0.19253
 C139 C 0.46290 0.04726 0.15376
 C140 C 0.46478 0.04463 0.10731
 C141 C 0.49302 0.01019 0.37067
 C142 C 0.53671 -0.01991 0.13832
 C143 C 0.49477 0.01668 0.24052
 C144 C 0.49316 0.01578 0.28116
 C145 C 0.49244 0.01329 0.32924
 C146 C 0.50160 0.01081 0.09925
 H147 H 0.56188 -0.04162 0.21435
 H148 H 0.43391 0.07301 0.15944
 H149 H 0.43692 0.06815 0.07776
 H150 H 0.56534 -0.04628 0.13291
 C151 C 0.53088 -0.18185 0.01393
 C152 C 0.49298 -0.18757 -0.01926
 C153 C 0.45866 -0.14739 -0.04896
 C154 C 0.46182 -0.10164 -0.04489
 C155 C 0.48554 -0.36435 -0.01599
 C156 C 0.53407 -0.13622 0.01805
 C157 C 0.48876 -0.23486 -0.02125
 C158 C 0.48630 -0.27511 -0.02117
 C159 C 0.48500 -0.32293 -0.01917
 C160 C 0.49945 -0.09574 -0.01113
 H161 H 0.55758 -0.21271 0.03714
 H162 H 0.42907 -0.15144 -0.07461
 H163 H 0.43436 -0.07093 -0.06723
 H164 H 0.56331 -0.13244 0.04432
 C165 C 0.46781 0.17795 -0.00713
 C166 C 0.50594 0.18461 0.02504
 C167 C 0.54080 0.14497 0.05503
 C168 C 0.53802 0.09883 0.05209
 C169 C 0.51211 0.36253 0.01656
 C170 C 0.46502 0.13196 -0.01012
 C171 C 0.50989 0.23228 0.02548
 C172 C 0.51203 0.27284 0.02404
 C173 C 0.51293 0.32095 0.02061
 C174 C 0.50029 0.09203 0.01916
 H175 H 0.44068 0.20837 -0.03053
 H176 H 0.57055 0.14975 0.07992
 H177 H 0.56595 0.06854 0.07450
 H178 H 0.43571 0.12746 -0.03578
 C179 C -0.17782 0.01282 0.47789
 C180 C -0.18281 -0.02311 0.51369
 C181 C -0.14214 -0.05529 0.54514
 C182 C -0.09661 -0.05107 0.54112
 C183 C -0.35983 -0.01980 0.52070
 C184 C -0.13249 0.01708 0.47386
 C185 C -0.22991 -0.02554 0.51840
 C186 C -0.27022 -0.02548 0.52081
 C187 C -0.31823 -0.02325 0.52171
 C188 C -0.09151 -0.01466 0.50552
 H189 H -0.20904 0.03792 0.45339
 H190 H -0.14562 -0.08313 0.57307
 H191 H -0.06544 -0.07551 0.56626
 H192 H -0.12930 0.04539 0.44622
 C193 C 0.16792 0.03346 0.52764
 C194 C 0.18601 0.02353 0.48914
 C195 C 0.15737 0.01141 0.45211
 C196 C 0.11116 0.00831 0.45395
 C197 C 0.36646 0.01338 0.49189
 C198 C 0.12163 0.03037 0.52952
 C199 C 0.23479 0.02302 0.48881
 C200 C 0.27599 0.02114 0.48896
 C201 C 0.32462 0.01749 0.48998
 C202 C 0.09303 0.01742 0.49282
 H203 H 0.18992 0.04254 0.55665
 H204 H 0.17108 0.00345 0.42228
 H205 H 0.08968 -0.00179 0.42534
 H206 H 0.10857 0.03687 0.56012
 C207 C 0.01026 0.46942 1.17534
 C208 C -0.02325 0.50721 1.18185
 C209 C -0.05380 0.54148 1.14230
 C210 C -0.05021 0.53842 1.09639
 C211 C -0.01821 0.51546 1.35872
 C212 C 0.01390 0.46634 1.12955
 C213 C -0.02462 0.51147 1.22928
 C214 C -0.02405 0.51406 1.26958
 C215 C -0.02160 0.51564 1.31739
 C216 C -0.01607 0.50097 1.08971
 H217 H 0.03412 0.44276 1.20570
 H218 H -0.07970 0.57099 1.14697
 H219 H -0.07316 0.56589 1.06618
 H220 H 0.04048 0.43724 1.12515
 C221 C -0.01332 0.53507 0.81610
 C222 C 0.01988 0.49758 0.80873
 C223 C 0.05053 0.46268 0.84775
 C224 C 0.04731 0.46480 0.89398
 C225 C 0.01330 0.49256 0.63078
 C226 C -0.01658 0.53721 0.86219
 C227 C 0.02079 0.49429 0.76093
 C228 C 0.01982 0.49251 0.72035
 C229 C 0.01695 0.49180 0.67228
 C230 C 0.01345 0.50194 0.90151
 H231 H -0.03725 0.56221 0.78616
 H232 H 0.07621 0.43340 0.84241
 H233 H 0.07032 0.43686 0.92376
 H234 H -0.04296 0.56608 0.86724
   
