data_POSCAR
  _audit_creation_date              2014-09-24
  _audit_creation_method            'ToBaCCo'
  _symmetry_space_group_name_H-M    'P1'
  _symmetry_Int_Tables_number       1
  _symmetry_cell_setting            triclinic
  loop_
  _symmetry_equiv_pos_as_xyz
 x,y,z
_cell_length_a 43.8084
_cell_length_b 43.8724
_cell_length_c 43.7822
_cell_angle_alpha 90.001100
_cell_angle_beta 90.018600
_cell_angle_gamma 89.821200
loop_
  _atom_site_label
  _atom_site_type_symbol
  _atom_site_fract_x
  _atom_site_fract_y
  _atom_site_fract_z
C1 C 0.19293 0.15499 0.19259
 C2 C 0.17968 0.14248 0.21892
 C3 C 0.15345 0.15573 0.23166
 C4 C 0.14032 0.18164 0.21820
 C5 C 0.15328 0.19442 0.19187
 C6 C 0.17969 0.18107 0.17897
 C7 C 0.21906 0.14178 0.17954
 C8 C 0.23198 0.15433 0.15311
 C9 C 0.21891 0.18024 0.13959
 C10 C 0.19279 0.19372 0.15235
 C11 C 0.17943 0.21953 0.13889
 C12 C 0.15323 0.23270 0.15170
 C13 C 0.14022 0.22023 0.17810
 H14 H 0.18970 0.12239 0.22941
 H15 H 0.11998 0.19175 0.22813
 H16 H 0.22925 0.12169 0.18987
 H17 H 0.22900 0.18982 0.11910
 H18 H 0.18929 0.22933 0.11842
 H19 H 0.11990 0.23057 0.18780
 C20 C -0.19087 0.84704 0.19588
 C21 C -0.17700 0.85996 0.22169
 C22 C -0.15056 0.84681 0.23412
 C23 C -0.13783 0.82061 0.22086
 C24 C -0.15141 0.80741 0.19505
 C25 C -0.17805 0.82065 0.18247
 C26 C -0.21721 0.86014 0.18314
 C27 C -0.23077 0.84716 0.15723
 C28 C -0.21812 0.82094 0.14393
 C29 C -0.19178 0.80757 0.15638
 C30 C -0.17882 0.78146 0.14312
 C31 C -0.15239 0.76842 0.15560
 C32 C -0.13875 0.78131 0.18148
 H33 H -0.18672 0.88027 0.23204
 H34 H -0.11734 0.81058 0.23056
 H35 H -0.22708 0.88047 0.19329
 H36 H -0.22868 0.81104 0.12383
 H37 H -0.18916 0.77134 0.12304
 H38 H -0.11825 0.77107 0.19093
 C39 C -0.19613 0.15135 -0.19250
 C40 C -0.18265 0.13846 -0.21856
 C41 C -0.15679 0.15186 -0.23166
 C42 C -0.14423 0.17826 -0.21886
 C43 C -0.15741 0.19145 -0.19280
 C44 C -0.18348 0.17796 -0.17952
 C45 C -0.22193 0.13802 -0.17910
 C46 C -0.23510 0.15099 -0.15295
 C47 C -0.22260 0.17741 -0.14006
 C48 C -0.19681 0.19101 -0.15318
 C49 C -0.18400 0.21735 -0.14036
 C50 C -0.15812 0.23064 -0.15355
 C51 C -0.14490 0.21777 -0.17968
 H52 H -0.19216 0.11799 -0.22863
 H53 H -0.12417 0.18843 -0.22915
 H54 H -0.23168 0.11754 -0.18893
 H55 H -0.23288 0.18730 -0.11978
 H56 H -0.19403 0.22746 -0.12009
 H57 H -0.12483 0.22820 -0.18968
 C58 C 0.19412 0.84654 -0.19255
 C59 C 0.18162 0.86029 -0.21866
 C60 C 0.15554 0.84800 -0.23249
 C61 C 0.14183 0.82184 -0.22035
 C62 C 0.15404 0.80782 -0.19425
 C63 C 0.18031 0.82019 -0.18025
 C64 C 0.22012 0.85872 -0.17843
 C65 C 0.23233 0.84489 -0.15228
 C66 C 0.21869 0.81876 -0.14005
 C67 C 0.19268 0.80627 -0.15388
 C68 C 0.17874 0.78020 -0.14175
 C69 C 0.15269 0.76801 -0.15565
 C70 C 0.14040 0.78173 -0.18181
 H71 H 0.19210 0.88057 -0.22815
 H72 H 0.12162 0.81247 -0.23114
 H73 H 0.23083 0.87897 -0.18768
 H74 H 0.22830 0.80825 -0.11977
 H75 H 0.18805 0.76942 -0.12147
 H76 H 0.12019 0.77214 -0.19237
 C77 C 0.15459 1.19312 0.80748
 C78 C 0.14222 1.17975 0.78115
 C79 C 0.15559 1.15353 0.76859
 C80 C 0.18147 1.14051 0.78226
 C81 C 0.19413 1.15359 0.80860
 C82 C 0.18066 1.18002 0.82130
 C83 C 0.14129 1.21928 0.82032
 C84 C 0.15375 1.23237 0.84672
 C85 C 0.17964 1.21943 0.86044
 C86 C 0.19321 1.19327 0.84790
 C87 C 0.21900 1.18002 0.86156
 C88 C 0.23226 1.15380 0.84896
 C89 C 0.21991 1.14065 0.82257
 H90 H 0.12215 1.18969 0.77049
 H91 H 0.19169 1.12017 0.77246
 H92 H 0.12120 1.22938 0.80984
 H93 H 0.18914 1.22964 0.88090
 H94 H 0.22873 1.19000 0.88202
 H95 H 0.23033 1.12031 0.81302
 C96 C 0.84722 0.80889 0.80425
 C97 C 0.86014 0.82265 0.77840
 C98 C 0.84720 0.84922 0.76612
 C99 C 0.82117 0.86218 0.77955
 C100 C 0.80796 0.84871 0.80541
 C101 C 0.82101 0.82195 0.81786
 C102 C 0.86012 0.78241 0.81685
 C103 C 0.84715 0.76897 0.84282
 C104 C 0.82112 0.78188 0.85631
 C105 C 0.80793 0.80834 0.84399
 C106 C 0.78200 0.82154 0.85744
 C107 C 0.76913 0.84808 0.84506
 C108 C 0.78203 0.86159 0.81914
 H109 H 0.88032 0.81275 0.76791
 H110 H 0.81129 0.88278 0.76997
 H111 H 0.88030 0.77234 0.80654
 H112 H 0.81122 0.77140 0.87645
 H113 H 0.77187 0.81129 0.87755
 H114 H 0.77191 0.88217 0.80976
 C115 C 0.15134 0.80387 1.19218
 C116 C 0.13861 0.81736 1.21831
 C117 C 0.15223 0.84307 1.23142
 C118 C 0.17871 0.85547 1.21858
 C119 C 0.19175 0.84228 1.19245
 C120 C 0.17803 0.81635 1.17915
 C121 C 0.13780 0.77821 1.17877
 C122 C 0.15062 0.76501 1.15257
 C123 C 0.17712 0.77735 1.13963
 C124 C 0.19094 0.80300 1.15276
 C125 C 0.21737 0.81563 1.13989
 C126 C 0.23089 0.84134 1.15310
 C127 C 0.21817 0.85460 1.17929
 H128 H 0.11808 0.80796 1.22841
 H129 H 0.18905 0.87541 1.22888
 H130 H 0.11726 0.76857 1.18865
 H131 H 0.18691 0.76705 1.11931
 H132 H 0.22737 0.80557 1.11958
 H133 H 0.22878 0.87455 1.18931
 C134 C 0.84689 1.19433 1.19333
 C135 C 0.86076 1.18176 1.21935
 C136 C 0.84851 1.15568 1.23313
 C137 C 0.82226 1.14203 1.22103
 C138 C 0.80811 1.15431 1.19503
 C139 C 0.82045 1.18058 1.18108
 C140 C 0.85905 1.22031 1.17924
 C141 C 0.84513 1.23257 1.15316
 C142 C 0.81889 1.21901 1.14100
 C143 C 0.80641 1.19302 1.15480
 C144 C 0.78026 1.17915 1.14271
 C145 C 0.76809 1.15309 1.15656
 C146 C 0.78193 1.14073 1.18263
 H147 H 0.88111 1.19219 1.22880
 H148 H 0.81292 1.12181 1.23178
 H149 H 0.87939 1.23095 1.18844
 H150 H 0.80831 1.22865 1.12077
 H151 H 0.76940 1.18850 1.12249
 H152 H 0.77236 1.12051 1.19314
 O153 O 0.45660 1.05337 1.05655
 O154 O 0.42337 1.02351 1.02915
 C155 C 0.42936 1.04490 1.04863
 O156 O 0.54236 1.05110 0.94788
 O157 O 0.57616 1.02370 0.97726
 C158 C 0.56976 1.04328 0.95605
 O159 O 0.45658 1.05354 0.95095
 O160 O 0.42337 1.02370 0.97836
 C161 C 0.42934 1.04506 0.95885
 O162 O 0.54239 1.05103 1.05963
 O163 O 0.57616 1.02356 1.03029
 C164 C 0.56978 1.04318 1.05147
 Zr165 Zr 0.49965 1.03614 1.04247
 O166 O 0.50196 1.08431 1.04273
 O167 O 0.49623 1.03543 1.09071
 Zr168 Zr 0.49961 1.03655 0.96532
 O169 O 0.50065 1.08459 0.96864
 O170 O 0.49653 1.03814 0.91710
 O171 O 0.47235 1.04199 1.00388
 O172 O 0.52617 1.04207 1.00388
 O173 O 0.54355 0.94484 1.05931
 O174 O 0.57672 0.97287 1.03002
 C175 C 0.57077 0.95310 1.05113
 O176 O 0.45772 0.94196 0.95024
 O177 O 0.42394 0.97086 0.97813
 C178 C 0.43033 0.94989 0.95831
 O179 O 0.54349 0.94531 0.94759
 O180 O 0.57669 0.97310 0.97709
 C181 C 0.57072 0.95351 0.95581
 O182 O 0.45775 0.94133 1.05643
 O183 O 0.42395 0.97057 1.02888
 C184 C 0.43035 0.94931 1.04839
 Zr185 Zr 0.50045 0.95903 1.04218
 O186 O 0.50441 0.91093 1.04204
 O187 O 0.49699 0.95915 1.09041
 Zr188 Zr 0.50043 0.95936 0.96486
 O189 O 0.50434 0.91125 0.96482
 O190 O 0.49701 0.95973 0.91662
 Zr191 Zr 0.45469 0.99740 1.00367
 Zr192 Zr 0.54539 0.99808 1.00368
 O193 O 0.52698 0.95383 1.00350
 O194 O 0.47332 0.95302 1.00348
 O195 O 0.52727 0.99777 1.04830
 O196 O 0.47355 0.99780 0.95949
 O197 O 0.47352 0.99738 1.04789
 O198 O 0.52718 0.99818 0.95910
 H199 H 0.53984 1.06002 1.00392
 H200 H 0.45976 0.99783 0.94155
 H201 H 0.54101 0.93607 1.00342
 H202 H 0.45961 0.99724 1.06573
 H203 H 0.51204 1.02389 0.90896
 H204 H 0.51416 0.97201 0.90869
 H205 H 0.48720 0.90310 0.97701
 H206 H 0.48772 0.90288 1.02917
 H207 H 0.51413 0.97140 1.09843
 H208 H 0.51379 1.02360 1.09860
 H209 H 0.48816 1.09172 1.02643
 H210 H 0.50049 1.09233 0.94737
 O211 O -0.05860 0.45733 0.04956
 O212 O -0.02897 0.42375 0.02212
 C213 C -0.05023 0.43002 0.04172
 O214 O -0.05578 0.54295 -0.05937
 O215 O -0.02812 0.57633 -0.02996
 C216 C -0.04773 0.57021 -0.05121
 O217 O -0.05884 0.45723 -0.05616
 O218 O -0.02918 0.42370 -0.02869
 C219 C -0.05052 0.42993 -0.04822
 O220 O -0.05569 0.54300 0.05252
 O221 O -0.02799 0.57635 0.02313
 C222 C -0.04760 0.57024 0.04438
 Zr223 Zr -0.04132 0.50012 0.03519
 O224 O -0.08955 0.50311 0.03479
 O225 O -0.04133 0.49679 0.08343
 Zr226 Zr -0.04162 0.50005 -0.04180
 O227 O -0.08971 0.50172 -0.03831
 O228 O -0.04346 0.49701 -0.09000
 O229 O -0.04723 0.47284 -0.00329
 O230 O -0.04698 0.52674 -0.00333
 O231 O 0.05041 0.54274 0.05227
 O232 O 0.02266 0.57624 0.02290
 C233 C 0.04236 0.57003 0.04407
 O234 O 0.05292 0.45704 -0.05687
 O235 O 0.02337 0.42369 -0.02940
 C236 C 0.04461 0.42980 -0.04899
 O237 O 0.05020 0.54266 -0.05940
 O238 O 0.02253 0.57618 -0.03001
 C239 C 0.04219 0.56995 -0.05120
 O240 O 0.05322 0.45710 0.04977
 O241 O 0.02357 0.42372 0.02242
 C242 C 0.04487 0.42985 0.04197
 Zr243 Zr 0.03602 0.49990 0.03508
 O244 O 0.08423 0.50319 0.03458
 O245 O 0.03620 0.49659 0.08332
 Zr246 Zr 0.03574 0.49985 -0.04220
 O247 O 0.08395 0.50309 -0.04224
 O248 O 0.03531 0.49648 -0.09045
 Zr249 Zr -0.00265 0.45466 -0.00341
 Zr250 Zr -0.00275 0.54526 -0.00346
 O251 O 0.04144 0.52631 -0.00359
 O252 O 0.04192 0.47264 -0.00356
 O253 O -0.00264 0.52713 0.04113
 O254 O -0.00296 0.47355 -0.04759
 O255 O -0.00263 0.47361 0.04076
 O256 O -0.00296 0.52705 -0.04802
 H257 H -0.06482 0.54068 -0.00331
 H258 H -0.00311 0.45984 -0.06557
 H259 H 0.05932 0.54009 -0.00363
 H260 H -0.00265 0.45989 0.05873
 H261 H -0.02867 0.51190 -0.09818
 H262 H 0.02328 0.51388 -0.09838
 H263 H 0.09196 0.48604 -0.02980
 H264 H 0.09214 0.48585 0.02246
 H265 H 0.02355 0.51351 0.09132
 H266 H -0.02853 0.51354 0.09139
 H267 H -0.09697 0.48834 0.01943
 H268 H -0.09752 0.50168 -0.05955
 O269 O 1.05886 -0.05063 0.54311
 O270 O 1.02924 -0.02309 0.57661
 C271 C 1.05055 -0.04268 0.57044
 O272 O 1.05577 0.05779 0.45707
 O273 O 1.02814 0.02842 0.42361
 C274 C 1.04773 0.04959 0.42975
 O275 O 1.05884 0.05491 0.54292
 O276 O 1.02923 0.02766 0.57649
 C277 C 1.05053 0.04711 0.57027
 O278 O 1.05583 -0.05387 0.45726
 O279 O 1.02808 -0.02455 0.42370
 C280 C 1.04771 -0.04580 0.42992
 Zr281 Zr 1.04143 -0.03650 0.50016
 O282 O 1.08965 -0.03641 0.49729
 O283 O 1.04129 -0.08463 0.50367
 Zr284 Zr 1.04162 0.04041 0.50005
 O285 O 1.08972 0.03688 0.49854
 O286 O 1.04331 0.08852 0.50298
 O287 O 1.04734 0.00201 0.52739
 O288 O 1.04704 0.00191 0.47344
 O289 O 0.94975 -0.05344 0.45722
 O290 O 0.97741 -0.02423 0.42366
 C291 C 0.95777 -0.04533 0.42988
 O292 O 0.94694 0.05537 0.54293
 O293 O 0.97628 0.02767 0.57651
 C294 C 0.95505 0.04731 0.57027
 O295 O 0.94985 0.05809 0.45707
 O296 O 0.97749 0.02860 0.42360
 C297 C 0.95787 0.04986 0.42976
 O298 O 0.94698 -0.05067 0.54303
 O299 O 0.97664 -0.02339 0.57649
 C300 C 0.95532 -0.04283 0.57034
 Zr301 Zr 0.96415 -0.03621 0.50014
 O302 O 0.91594 -0.03572 0.49668
 O303 O 0.96415 -0.08434 0.50361
 Zr304 Zr 0.96428 0.04093 0.50004
 O305 O 0.91608 0.04121 0.49656
 O306 O 0.96468 0.08907 0.50345
 Zr307 Zr 1.00279 0.00228 0.54549
 Zr308 Zr 1.00281 0.00210 0.45472
 O309 O 0.95864 0.00235 0.47358
 O310 O 0.95821 0.00242 0.52731
 O311 O 1.00278 -0.04238 0.47296
 O312 O 1.00295 0.04633 0.52651
 O313 O 1.00281 -0.04186 0.52665
 O314 O 1.00295 0.04661 0.47287
 H315 H 1.06488 0.00182 0.45953
 H316 H 1.00299 0.06424 0.54030
 H317 H 0.94075 0.00240 0.45972
 H318 H 1.00288 -0.05974 0.54048
 H319 H 1.02868 0.09667 0.48781
 H320 H 0.97672 0.09695 0.48607
 H321 H 0.90807 0.02845 0.51334
 H322 H 0.90799 -0.02362 0.51402
 H323 H 0.97668 -0.09239 0.48663
 H324 H 1.02881 -0.09258 0.48664
 H325 H 1.09710 -0.02075 0.51172
 H326 H 1.09749 0.05806 0.49848
 C327 C 1.14048 0.14317 0.25697
 C328 C 1.12895 0.13187 0.27925
 C329 C 1.11517 0.11811 0.30568
 C330 C 1.11873 0.08680 0.31097
 C331 C 1.10514 0.07329 0.33647
 C332 C 1.08793 0.09102 0.35681
 C333 C 1.08441 0.12234 0.35157
 C334 C 1.09801 0.13587 0.32605
 C335 C 1.07373 0.07693 0.38284
 C336 C 1.06186 0.06470 0.40442
 H337 H 1.13192 0.07285 0.29535
 H338 H 1.10796 0.04905 0.34027
 H339 H 1.07112 0.13625 0.36713
 H340 H 1.09510 0.16009 0.32216
 C341 C 0.86293 -0.14033 0.25900
 C342 C 0.87490 -0.12887 0.28096
 C343 C 0.88918 -0.11503 0.30709
 C344 C 0.87233 -0.09556 0.32609
 C345 C 0.88627 -0.08183 0.35129
 C346 C 0.91713 -0.08751 0.35760
 C347 C 0.93397 -0.10705 0.33866
 C348 C 0.92002 -0.12079 0.31345
 C349 C 0.93155 -0.07297 0.38326
 C350 C 0.94356 -0.06052 0.40464
 H351 H 0.84849 -0.09093 0.32135
 H352 H 0.87306 -0.06672 0.36576
 H353 H 0.95785 -0.11155 0.34330
 H354 H 0.93327 -0.13578 0.29888
 C355 C 0.85712 0.13830 0.74183
 C356 C 0.86892 0.12692 0.71971
 C357 C 0.88318 0.11331 0.69342
 C358 C 0.88051 0.08192 0.68819
 C359 C 0.89475 0.06862 0.66287
 C360 C 0.91170 0.08666 0.64268
 C361 C 0.91429 0.11806 0.64786
 C362 C 0.90006 0.13136 0.67319
 C363 C 0.92676 0.07290 0.61693
 C364 C 0.93957 0.06128 0.59551
 H365 H 0.86755 0.06774 0.70372
 H366 H 0.89265 0.04431 0.65910
 H367 H 0.92739 0.13221 0.63243
 H368 H 0.90230 0.15564 0.67705
 C369 C 1.14333 -0.13835 0.74235
 C370 C 1.13234 -0.12629 0.72016
 C371 C 1.11897 -0.11195 0.69378
 C372 C 1.12784 -0.08248 0.68531
 C373 C 1.11446 -0.06839 0.65994
 C374 C 1.09218 -0.08373 0.64294
 C375 C 1.08340 -0.11324 0.65135
 C376 C 1.09677 -0.12732 0.67672
 C377 C 1.07796 -0.06910 0.61717
 C378 C 1.06567 -0.05696 0.59573
 H379 H 1.14495 -0.07037 0.69838
 H380 H 1.12137 -0.04554 0.65367
 H381 H 1.06615 -0.12528 0.63840
 H382 H 1.08971 -0.15010 0.68310
 C383 C 0.25712 1.14116 1.14033
 C384 C 0.27929 1.12944 1.12892
 C385 C 0.30563 1.11536 1.11520
 C386 C 0.32447 1.09618 1.13257
 C387 C 0.34988 1.08222 1.11914
 C388 C 0.35655 1.08739 1.08827
 C389 C 0.33776 1.10663 1.07092
 C390 C 0.31235 1.12059 1.08436
 C391 C 0.38242 1.07265 1.07434
 C392 C 0.40396 1.06011 1.06263
 H393 H 0.31946 1.09195 1.15643
 H394 H 0.36423 1.06734 1.13275
 H395 H 0.34268 1.11074 1.04702
 H396 H 0.29791 1.13535 1.07071
 C397 C 0.25884 0.85771 0.86220
 C398 C 0.28098 0.86859 0.87434
 C399 C 0.30732 0.88176 0.88882
 C400 C 0.32812 0.89877 0.87156
 C401 C 0.35347 0.91199 0.88569
 C402 C 0.35813 0.90825 0.91713
 C403 C 0.33740 0.89114 0.93438
 C404 C 0.31204 0.87791 0.92024
 C405 C 0.38384 0.92246 0.93174
 C406 C 0.40520 0.93475 0.94391
 H407 H 0.32467 0.90193 0.84726
 H408 H 0.36932 0.92525 0.87216
 H409 H 0.34074 0.88817 0.95872
 H410 H 0.29607 0.86484 0.93380
 C411 C 0.74395 0.86028 1.14466
 C412 C 0.72171 0.87192 1.13332
 C413 C 0.69534 0.88587 1.11949
 C414 C 0.66893 0.89112 1.13678
 C415 C 0.64336 0.90474 1.12325
 C416 C 0.64413 0.91316 1.09238
 C417 C 0.67054 0.90789 1.07511
 C418 C 0.69609 0.89428 1.08863
 C419 C 0.61793 0.92721 1.07835
 C420 C 0.59623 0.93901 1.06617
 H421 H 0.66811 0.88470 1.16066
 H422 H 0.62305 0.90871 1.13681
 H423 H 0.67138 0.91431 1.05123
 H424 H 0.71639 0.89033 1.07505
 C425 C 0.74004 1.13774 0.86013
 C426 C 0.71813 1.12598 0.87183
 C427 C 0.69210 1.11193 0.88599
 C428 C 0.67454 1.09077 0.86974
 C429 C 0.64941 1.07692 0.88366
 C430 C 0.64176 1.08418 0.91387
 C431 C 0.65928 1.10538 0.93009
 C432 C 0.68440 1.11924 0.91617
 C433 C 0.61615 1.06972 0.92838
 C434 C 0.59486 1.05762 0.94083
 H435 H 0.68032 1.08495 0.84639
 H436 H 0.63604 1.06052 0.87093
 H437 H 0.65359 1.11113 0.95347
 H438 H 0.69784 1.13554 0.92895
 C439 C 0.13947 0.25896 0.13753
 C440 C 0.12785 0.28086 0.12560
 C441 C 0.11383 0.30691 0.11130
 C442 C 0.08250 0.31230 0.11495
 C443 C 0.06880 0.33748 0.10091
 C444 C 0.08635 0.35739 0.08316
 C445 C 0.11769 0.35203 0.07952
 C446 C 0.13140 0.32683 0.09358
 C447 C 0.07212 0.38316 0.06858
 C448 C 0.05988 0.40460 0.05640
 H449 H 0.06870 0.29702 0.12859
 H450 H 0.04454 0.34140 0.10384
 H451 H 0.13147 0.36727 0.06582
 H452 H 0.15564 0.32286 0.09058
 C453 C -0.14484 0.25740 -0.14001
 C454 C -0.13349 0.27969 -0.12867
 C455 C -0.11965 0.30615 -0.11512
 C456 C -0.13650 0.32477 -0.09527
 C457 C -0.12286 0.35028 -0.08186
 C458 C -0.09233 0.35726 -0.08827
 C459 C -0.07553 0.33868 -0.10818
 C460 C -0.08916 0.31319 -0.12158
 C461 C -0.07807 0.38320 -0.07417
 C462 C -0.06573 0.40470 -0.06234
 H463 H -0.16008 0.31951 -0.09010
 H464 H -0.13605 0.36446 -0.06646
 H465 H -0.05189 0.34383 -0.11324
 H466 H -0.07591 0.29893 -0.13686
 C467 C 0.13833 0.74148 -0.14282
 C468 C 0.12629 0.71935 -0.13190
 C469 C 0.11193 0.69305 -0.11861
 C470 C 0.08641 0.67993 -0.13268
 C471 C 0.07226 0.65459 -0.11949
 C472 C 0.08358 0.64229 -0.09220
 C473 C 0.10915 0.65536 -0.07819
 C474 C 0.12329 0.68068 -0.09137
 C475 C 0.06882 0.61654 -0.07829
 C476 C 0.05659 0.59514 -0.06619
 H477 H 0.07741 0.68934 -0.15373
 H478 H 0.05247 0.64469 -0.13048
 H479 H 0.11806 0.64607 -0.05705
 H480 H 0.14298 0.69067 -0.08028
 C481 C -0.13902 0.74189 0.14158
 C482 C -0.12776 0.71978 0.12969
 C483 C -0.11425 0.69351 0.11531
 C484 C -0.12107 0.68673 0.08480
 C485 C -0.10769 0.66142 0.07068
 C486 C -0.08743 0.64278 0.08701
 C487 C -0.08066 0.64951 0.11755
 C488 C -0.09404 0.67483 0.13168
 C489 C -0.07340 0.61697 0.07230
 C490 C -0.06163 0.59552 0.05972
 H491 H -0.13664 0.70105 0.07193
 H492 H -0.11305 0.65645 0.04704
 H493 H -0.06499 0.63526 0.13037
 H494 H -0.08859 0.67989 0.15527
 C495 C 1.14324 0.14051 0.74320
 C496 C 1.13219 0.12895 0.72081
 C497 C 1.11878 0.11512 0.69420
 C498 C 1.09275 0.12809 0.68082
 C499 C 1.07941 0.11442 0.65526
 C500 C 1.09204 0.08774 0.64295
 C501 C 1.11815 0.07483 0.65626
 C502 C 1.13150 0.08850 0.68183
 C503 C 1.07787 0.07338 0.61704
 C504 C 1.06562 0.06137 0.59554
 H505 H 1.08271 0.14864 0.69023
 H506 H 1.05919 0.12456 0.64519
 H507 H 1.12806 0.05415 0.64697
 H508 H 1.15160 0.07826 0.69203
 C509 C 0.86011 -0.13736 0.74123
 C510 C 0.87164 -0.12543 0.71929
 C511 C 0.88554 -0.11118 0.69319
 C512 C 0.90338 -0.12851 0.67304
 C513 C 0.91718 -0.11461 0.64786
 C514 C 0.91320 -0.08332 0.64271
 C515 C 0.89531 -0.06600 0.66282
 C516 C 0.88150 -0.07991 0.68800
 C517 C 0.92777 -0.06897 0.61703
 C518 C 0.94020 -0.05701 0.59563
 H519 H 0.90668 -0.15269 0.67686
 H520 H 0.93102 -0.12820 0.63249
 H521 H 0.89214 -0.04178 0.65909
 H522 H 0.86779 -0.06629 0.70346
 C523 C 1.13881 -0.14302 0.25801
 C524 C 1.12754 -0.13122 0.28018
 C525 C 1.11405 -0.11695 0.30653
 C526 C 1.08856 -0.13006 0.32065
 C527 C 1.07524 -0.11595 0.34604
 C528 C 1.08736 -0.08870 0.35740
 C529 C 1.11290 -0.07564 0.34333
 C530 C 1.12621 -0.08974 0.31795
 C531 C 1.07341 -0.07389 0.38321
 C532 C 1.06170 -0.06122 0.40466
 H533 H 1.07895 -0.15108 0.31198
 H534 H 1.05547 -0.12621 0.35671
 H535 H 1.12241 -0.05454 0.35189
 H536 H 1.14588 -0.07939 0.30718
 C537 C 0.86227 0.14340 0.25820
 C538 C 0.87442 0.13237 0.28033
 C539 C 0.88884 0.11895 0.30664
 C540 C 0.92018 0.12290 0.31161
 C541 C 0.93425 0.10939 0.33692
 C542 C 0.91703 0.09189 0.35736
 C543 C 0.88567 0.08805 0.35245
 C544 C 0.87161 0.10155 0.32715
 C545 C 0.93157 0.07745 0.38306
 C546 C 0.94363 0.06504 0.40447
 H547 H 0.93372 0.13627 0.29587
 H548 H 0.95853 0.11245 0.34047
 H549 H 0.87216 0.07451 0.36808
 H550 H 0.84737 0.09832 0.32350
 C551 C 0.14051 0.25758 -0.14076
 C552 C 0.12872 0.27980 -0.12957
 C553 C 0.11454 0.30619 -0.11611
 C554 C 0.08378 0.31271 -0.12210
 C555 C 0.06986 0.33813 -0.10871
 C556 C 0.08664 0.35715 -0.08928
 C557 C 0.11742 0.35069 -0.08336
 C558 C 0.13134 0.32526 -0.09675
 C559 C 0.07213 0.38303 -0.07517
 C560 C 0.05973 0.40451 -0.06326
 H561 H 0.07057 0.29809 -0.13700
 H562 H 0.04603 0.34289 -0.11339
 H563 H 0.13058 0.36522 -0.06833
 H564 H 0.15513 0.32041 -0.09194
 C565 C -0.14196 0.25897 0.13864
 C566 C -0.13095 0.28098 0.12646
 C567 C -0.11751 0.30712 0.11194
 C568 C -0.08721 0.31498 0.11832
 C569 C -0.07398 0.34021 0.10406
 C570 C -0.09101 0.35769 0.08335
 C571 C -0.12134 0.34988 0.07700
 C572 C -0.13458 0.32464 0.09127
 C573 C -0.07718 0.38345 0.06852
 C574 C -0.06515 0.40484 0.05621
 H575 H -0.07380 0.30158 0.13424
 H576 H -0.05050 0.34602 0.10910
 H577 H -0.13470 0.36323 0.06099
 H578 H -0.15802 0.31874 0.08615
 C579 C -0.13996 0.74351 -0.14480
 C580 C -0.12854 0.72108 -0.13363
 C581 C -0.11492 0.69447 -0.11998
 C582 C -0.09359 0.67706 -0.13633
 C583 C -0.08011 0.65143 -0.12283
 C584 C -0.08791 0.64312 -0.09294
 C585 C -0.10929 0.66048 -0.07664
 C586 C -0.12277 0.68609 -0.09013
 C587 C -0.07373 0.61708 -0.07876
 C588 C -0.06187 0.59551 -0.06644
 H589 H -0.08733 0.68336 -0.15942
 H590 H -0.06355 0.63821 -0.13562
 H591 H -0.11544 0.65430 -0.05349
 H592 H -0.13920 0.69940 -0.07727
 C593 C 0.13718 0.74027 0.13950
 C594 C 0.12527 0.71845 0.12782
 C595 C 0.11106 0.69250 0.11371
 C596 C 0.08937 0.67545 0.12980
 C597 C 0.07543 0.65035 0.11596
 C598 C 0.08312 0.64222 0.08598
 C599 C 0.10483 0.65925 0.06991
 C600 C 0.11877 0.68434 0.08375
 C601 C 0.06866 0.61657 0.07158
 C602 C 0.05661 0.59521 0.05921
 H603 H 0.08323 0.68158 0.15297
 H604 H 0.05864 0.63734 0.12857
 H605 H 0.11092 0.65318 0.04671
 H606 H 0.13549 0.69739 0.07109
 C607 C 0.25848 1.14012 0.86334
 C608 C 0.28035 1.12851 0.87540
 C609 C 0.30635 1.11444 0.88979
 C610 C 0.31511 1.08483 0.88153
 C611 C 0.34025 1.07102 0.89561
 C612 C 0.35673 1.08676 0.91802
 C613 C 0.34798 1.11638 0.92628
 C614 C 0.32284 1.13020 0.91218
 C615 C 0.38248 1.07241 0.93257
 C616 C 0.40395 1.06010 0.94464
 H617 H 0.30251 1.07243 0.86426
 H618 H 0.34679 1.04810 0.88908
 H619 H 0.36055 1.12875 0.94359
 H620 H 0.31623 1.15310 0.91875
 C621 C 0.25778 0.85439 1.13955
 C622 C 0.28019 0.86548 1.12816
 C623 C 0.30682 0.87896 1.11454
 C624 C 0.31208 0.87593 1.08312
 C625 C 0.33762 0.88958 1.06978
 C626 C 0.35801 0.90630 1.08782
 C627 C 0.35284 0.90919 1.11926
 C628 C 0.32730 0.89554 1.13260
 C629 C 0.38383 0.92106 1.07398
 C630 C 0.40523 0.93376 1.06234
 H631 H 0.29636 0.86319 1.06893
 H632 H 0.34136 0.88728 1.04542
 H633 H 0.36842 0.92214 1.13341
 H634 H 0.32342 0.89806 1.15691
 C635 C 0.74147 1.13883 1.14374
 C636 C 0.71927 1.12690 1.13277
 C637 C 0.69289 1.11271 1.11938
 C638 C 0.67876 1.08814 1.13407
 C639 C 0.65338 1.07411 1.12076
 C640 C 0.64205 1.08462 1.09273
 C641 C 0.65613 1.10925 1.07811
 C642 C 0.68149 1.12327 1.09140
 C643 C 0.61630 1.06992 1.07869
 C644 C 0.59492 1.05767 1.06651
 H645 H 0.68742 1.07977 1.15569
 H646 H 0.64270 1.05504 1.13223
 H647 H 0.64759 1.11752 1.05640
 H648 H 0.69227 1.14223 1.07983
 C649 C 0.74273 0.86166 0.85921
 C650 C 0.72072 0.87312 0.87116
 C651 C 0.69454 0.88686 0.88555
 C652 C 0.69397 0.89078 0.91730
 C653 C 0.66863 0.90427 0.93131
 C654 C 0.64373 0.91389 0.91363
 C655 C 0.64428 0.90996 0.88188
 C656 C 0.66964 0.89647 0.86786
 C657 C 0.61774 0.92786 0.92813
 C658 C 0.59614 0.93957 0.94057
 H659 H 0.71311 0.88346 0.93119
 H660 H 0.66844 0.90721 0.95588
 H661 H 0.62516 0.91732 0.86799
 H662 H 0.66985 0.89356 0.84329
   
