data_POSCAR
  _audit_creation_date              2014-09-24
  _audit_creation_method            'ToBaCCo'
  _symmetry_space_group_name_H-M    'P1'
  _symmetry_Int_Tables_number       1
  _symmetry_cell_setting            triclinic
  loop_
  _symmetry_equiv_pos_as_xyz
 x,y,z
_cell_length_a 42.3786
_cell_length_b 42.7740
_cell_length_c 42.8579
_cell_angle_alpha 89.749900
_cell_angle_beta 89.747400
_cell_angle_gamma 88.906800
loop_
  _atom_site_label
  _atom_site_type_symbol
  _atom_site_fract_x
  _atom_site_fract_y
  _atom_site_fract_z
C1 C 0.74646 0.60836 1.03528
 C2 C 0.76241 0.62354 1.01114
 C3 C 0.79214 0.63618 1.01651
 C4 C 0.80659 0.63332 1.04595
 C5 C 0.79023 0.61742 1.06987
 C6 C 0.76004 0.60488 1.06508
 C7 C 0.74850 0.62450 0.97968
 C8 C 0.71913 0.63934 0.97449
 C9 C 0.70561 0.63939 0.94461
 C10 C 0.72137 0.62344 0.92033
 C11 C 0.75062 0.60834 0.92529
 C12 C 0.76420 0.60929 0.95504
 H13 H 0.72308 0.59989 1.03053
 H14 H 0.80431 0.64715 0.99721
 H15 H 0.70727 0.65137 0.99354
 H16 H 0.78689 0.59797 0.95921
 H17 H 0.80109 0.61494 1.09248
 H18 H 0.71046 0.62222 0.89757
 C19 C 0.73638 0.39240 0.45803
 C20 C 0.75150 0.37804 0.48344
 C21 C 0.78197 0.36517 0.47966
 C22 C 0.79735 0.36630 0.45056
 C23 C 0.78204 0.38131 0.42539
 C24 C 0.75159 0.39444 0.42897
 C25 C 0.73587 0.37767 0.51430
 C26 C 0.70537 0.36592 0.51788
 C27 C 0.69041 0.36611 0.54725
 C28 C 0.70611 0.37910 0.57288
 C29 C 0.73661 0.39090 0.56946
 C30 C 0.75139 0.38985 0.54016
 H31 H 0.71312 0.40289 0.46120
 H32 H 0.79364 0.35421 0.49944
 H33 H 0.69342 0.35646 0.49782
 H34 H 0.77472 0.39942 0.53721
 H35 H 0.79331 0.38186 0.40266
 H36 H 0.69513 0.37902 0.59575
 C37 C 0.24086 -0.11159 -0.03619
 C38 C 0.25620 -0.12660 -0.01130
 C39 C 0.28668 -0.13936 -0.01564
 C40 C 0.30233 -0.13715 -0.04474
 C41 C 0.28650 -0.12114 -0.06921
 C42 C 0.25597 -0.10847 -0.06514
 C43 C 0.24103 -0.12730 0.01984
 C44 C 0.21045 -0.13885 0.02370
 C45 C 0.19526 -0.13830 0.05316
 C46 C 0.21170 -0.12523 0.07851
 C47 C 0.24225 -0.11363 0.07483
 C48 C 0.25681 -0.11501 0.04547
 H49 H 0.21755 -0.10131 -0.03267
 H50 H 0.29833 -0.15007 0.00424
 H51 H 0.19844 -0.14734 0.00328
 H52 H 0.28011 -0.10545 0.04224
 H53 H 0.29684 -0.11996 -0.09230
 H54 H 0.20178 -0.12549 0.10179
 C55 C 0.23926 0.11327 0.54166
 C56 C 0.25556 0.12533 0.51587
 C57 C 0.28592 0.13727 0.51983
 C58 C 0.30013 0.13695 0.54935
 C59 C 0.28380 0.12412 0.57482
 C60 C 0.25345 0.11219 0.57118
 C61 C 0.24139 0.12411 0.48452
 C62 C 0.21203 0.13869 0.47862
 C63 C 0.19890 0.13793 0.44861
 C64 C 0.21491 0.12132 0.42493
 C65 C 0.24417 0.10646 0.43055
 C66 C 0.25737 0.10822 0.46044
 H67 H 0.21605 0.10360 0.53845
 H68 H 0.29850 0.14662 0.49990
 H69 H 0.20005 0.15148 0.49710
 H70 H 0.28016 0.09728 0.46506
 H71 H 0.29443 0.12411 0.59778
 H72 H 0.20432 0.11965 0.40206
 C73 C 0.10944 0.53933 0.24218
 C74 C 0.12275 0.51384 0.25837
 C75 C 0.13562 0.51821 0.28804
 C76 C 0.13536 0.54799 0.30156
 C77 C 0.12161 0.57336 0.28522
 C78 C 0.10814 0.56953 0.25540
 C79 C 0.12244 0.48242 0.24430
 C80 C 0.13719 0.47691 0.21539
 C81 C 0.13660 0.44713 0.20177
 C82 C 0.12008 0.42323 0.21697
 C83 C 0.10511 0.42842 0.24584
 C84 C 0.10668 0.45813 0.25950
 H85 H 0.10073 0.53523 0.21889
 H86 H 0.14580 0.49842 0.30056
 H87 H 0.14981 0.49561 0.20401
 H88 H 0.09554 0.46248 0.28191
 H89 H 0.12081 0.59588 0.29654
 H90 H 0.11843 0.40056 0.20599
 C91 C -0.11824 -0.03955 0.24172
 C92 C -0.13227 -0.01411 0.25720
 C93 C -0.14420 -0.01810 0.28756
 C94 C -0.14212 -0.04739 0.30292
 C95 C -0.12728 -0.07251 0.28680
 C96 C -0.11542 -0.06876 0.25640
 C97 C -0.13256 0.01715 0.24226
 C98 C -0.14384 0.02131 0.21174
 C99 C -0.14274 0.05076 0.19662
 C100 C -0.12935 0.07580 0.21327
 C101 C -0.11745 0.07172 0.24359
 C102 C -0.11971 0.04242 0.25804
 H103 H -0.10836 -0.03625 0.21859
 H104 H -0.15402 0.00220 0.29934
 H105 H -0.15240 0.00099 0.19975
 H106 H -0.11083 0.03899 0.28151
 H107 H -0.12631 -0.09572 0.29691
 H108 H -0.12843 0.09892 0.20318
 C109 C 0.38748 0.46156 0.74331
 C110 C 0.37274 0.48687 0.75835
 C111 C 0.36004 0.48287 0.78840
 C112 C 0.36189 0.45362 0.80384
 C113 C 0.37731 0.42857 0.78812
 C114 C 0.39014 0.43237 0.75809
 C115 C 0.37217 0.51796 0.74315
 C116 C 0.36034 0.52180 0.71283
 C117 C 0.36083 0.55115 0.69792
 C118 C 0.37427 0.57653 0.71359
 C119 C 0.38679 0.57282 0.74376
 C120 C 0.38497 0.54354 0.75853
 H121 H 0.39721 0.46475 0.72011
 H122 H 0.34971 0.50313 0.79985
 H123 H 0.35087 0.50181 0.70087
 H124 H 0.39408 0.54036 0.78194
 H125 H 0.37874 0.40556 0.79861
 H126 H 0.37514 0.59916 0.70226
 C127 C 0.61015 1.04013 0.74432
 C128 C 0.62337 1.01513 0.76121
 C129 C 0.63435 1.01994 0.79164
 C130 C 0.63215 1.04974 0.80566
 C131 C 0.61794 1.07439 0.78824
 C132 C 0.60697 1.06982 0.75775
 C133 C 0.62429 0.98362 0.74731
 C134 C 0.63936 0.97839 0.71849
 C135 C 0.63965 0.94854 0.70498
 C136 C 0.62370 0.92425 0.72016
 C137 C 0.60840 0.92916 0.74889
 C138 C 0.60911 0.95894 0.76247
 H139 H 0.60197 1.03624 0.72076
 H140 H 0.64375 1.00000 0.80442
 H141 H 0.65147 0.99740 0.70706
 H142 H 0.59764 0.96308 0.78476
 H143 H 0.61615 1.09770 0.79777
 H144 H 0.62269 0.90152 0.70921
 C145 C -0.03792 0.24393 -0.11112
 C146 C -0.01331 0.25974 -0.12577
 C147 C -0.01929 0.28885 -0.14002
 C148 C -0.05017 0.30188 -0.14097
 C149 C -0.07453 0.28541 -0.12578
 C150 C -0.06862 0.25665 -0.11076
 C151 C 0.01861 0.24523 -0.12668
 C152 C 0.02298 0.21473 -0.13810
 C153 C 0.05301 0.19981 -0.13796
 C154 C 0.07849 0.21643 -0.12529
 C155 C 0.07433 0.24698 -0.11389
 C156 C 0.04437 0.26135 -0.11504
 H157 H -0.03288 0.22188 -0.09946
 H158 H -0.00003 0.29998 -0.15215
 H159 H 0.00242 0.20254 -0.14613
 H160 H 0.04079 0.28468 -0.10573
 H161 H -0.09828 0.29505 -0.12503
 H162 H 0.10219 0.20660 -0.12567
 C163 C 0.54159 0.23904 0.11631
 C164 C 0.51573 0.25477 0.12999
 C165 C 0.51999 0.28377 0.14450
 C166 C 0.55010 0.29679 0.14583
 C167 C 0.57560 0.28117 0.13125
 C168 C 0.57155 0.25243 0.11634
 C169 C 0.48412 0.24113 0.12842
 C170 C 0.47831 0.21203 0.14235
 C171 C 0.44806 0.19926 0.14123
 C172 C 0.42406 0.21540 0.12489
 C173 C 0.42963 0.24440 0.11061
 C174 C 0.45976 0.25727 0.11281
 H175 H 0.53809 0.21693 0.10468
 H176 H 0.50006 0.29565 0.15546
 H177 H 0.49707 0.19994 0.15491
 H178 H 0.46437 0.27986 0.10238
 H179 H 0.59880 0.29139 0.13158
 H180 H 0.40101 0.20508 0.12291
 C181 C 1.04543 0.74145 0.61747
 C182 C 1.02084 0.75822 0.63193
 C183 C 1.02678 0.78705 0.64607
 C184 C 1.05758 0.79912 0.64654
 C185 C 1.08175 0.78210 0.63083
 C186 C 1.07591 0.75350 0.61620
 C187 C 0.98875 0.74555 0.63171
 C188 C 0.98285 0.71628 0.64526
 C189 C 0.95247 0.70382 0.64444
 C190 C 0.92831 0.72058 0.62895
 C191 C 0.93393 0.74976 0.61510
 C192 C 0.96424 0.76227 0.61691
 H193 H 1.04058 0.71914 0.60680
 H194 H 1.00749 0.79889 0.65803
 H195 H 1.00178 0.70362 0.65700
 H196 H 0.96895 0.78487 0.60654
 H197 H 1.10499 0.79184 0.62829
 H198 H 0.90516 0.71048 0.62705
 C199 C 0.46536 0.74053 0.39044
 C200 C 0.49045 0.75653 0.37668
 C201 C 0.48488 0.78593 0.36288
 C202 C 0.45424 0.79889 0.36192
 C203 C 0.42936 0.78276 0.37605
 C204 C 0.43473 0.75368 0.39070
 C205 C 0.52245 0.74230 0.37648
 C206 C 0.52782 0.71267 0.36332
 C207 C 0.55838 0.69937 0.36242
 C208 C 0.58335 0.71556 0.37610
 C209 C 0.57820 0.74514 0.38946
 C210 C 0.54772 0.75852 0.38920
 H211 H 0.46980 0.71778 0.40093
 H212 H 0.50417 0.79810 0.35180
 H213 H 0.50839 0.70063 0.35263
 H214 H 0.54344 0.78127 0.39961
 H215 H 0.40587 0.79321 0.37605
 H216 H 0.60696 0.70540 0.37587
 C217 C 0.40581 -0.03225 0.29810
 H218 H 0.39892 -0.01181 0.31143
 C219 C 0.41961 -0.05810 0.31326
 H220 H 0.42334 -0.05735 0.33822
 C221 C 0.40692 -0.05922 0.24992
 H222 H 0.40122 -0.06005 0.22546
 C223 C 0.42040 -0.08559 0.26416
 H224 H 0.42520 -0.10633 0.25039
 N225 N 0.39884 -0.03363 0.26715
 C226 C 0.37161 0.04647 0.20953
 H227 H 0.34713 0.04024 0.20709
 C228 C 0.38256 0.07325 0.19494
 H229 H 0.36646 0.08717 0.18078
 C230 C 0.42192 0.03607 0.23167
 H231 H 0.43682 0.02172 0.24661
 C232 C 0.43397 0.06294 0.21737
 H233 H 0.45825 0.06920 0.22135
 Zn234 Zn 0.37043 -0.00353 0.24966
 N235 N 0.39104 0.02884 0.22794
 C236 C 0.34663 0.04651 0.28588
 N237 N 0.34597 0.01493 0.28235
 C238 C 0.32943 -0.00323 0.30255
 C239 C 0.31208 0.01043 0.32697
 C240 C 0.32968 0.06106 0.30984
 C241 C 0.35758 -0.02925 0.19178
 C242 C 0.34074 -0.04440 0.16868
 C243 C 0.29651 -0.04761 0.20419
 C244 C 0.31425 -0.03224 0.22669
 N245 N 0.34440 -0.02380 0.22028
 H246 H 0.36060 0.06063 0.27038
 H247 H 0.32988 -0.02837 0.29981
 H248 H 0.29871 -0.00432 0.34255
 H249 H 0.33092 0.08619 0.31232
 H250 H 0.38137 -0.02178 0.18701
 H251 H 0.35172 -0.04817 0.14612
 H252 H 0.27280 -0.05476 0.20990
 H253 H 0.30393 -0.02734 0.24924
 C254 C 0.41385 0.08228 0.19938
 C255 C 0.42583 -0.08561 0.29641
 C256 C 0.30987 -0.05410 0.17478
 C257 C 0.31194 0.04306 0.33069
 C258 C 0.10289 1.02910 0.80502
 H259 H 0.11338 1.00972 0.81778
 C260 C 0.08960 1.05427 0.82139
 H261 H 0.08974 1.05385 0.84666
 C262 C 0.09103 1.05375 0.75680
 H263 H 0.09251 1.05403 0.73167
 C264 C 0.07745 1.07940 0.77224
 H265 H 0.06877 1.09912 0.75865
 N266 N 0.10458 1.02984 0.77331
 C267 C 0.12994 0.95411 0.71011
 H268 H 0.15344 0.96222 0.70507
 C269 C 0.11925 0.92738 0.69558
 H270 H 0.13444 0.91560 0.67878
 C271 C 0.08224 0.95934 0.73888
 H272 H 0.06840 0.97157 0.75641
 C273 C 0.07060 0.93228 0.72494
 H274 H 0.04767 0.92380 0.73181
 Zn275 Zn 0.13267 1.00133 0.75289
 N276 N 0.11169 0.96927 0.73158
 C277 C 0.15805 0.95051 0.78716
 N278 N 0.15932 0.98208 0.78338
 C279 C 0.17715 0.99978 0.80259
 C280 C 0.19437 0.98577 0.82684
 C281 C 0.17462 0.93565 0.81119
 C282 C 0.14114 1.03042 0.69541
 C283 C 0.15667 1.04570 0.67120
 C284 C 0.20349 1.04668 0.70304
 C285 C 0.18709 1.03105 0.72661
 N286 N 0.15635 1.02351 0.72253
 H287 H 0.14350 0.93675 0.77209
 H288 H 0.17715 1.02492 0.79974
 H289 H 0.20785 1.00022 0.84238
 H290 H 0.17303 0.91055 0.81397
 H291 H 0.11699 1.02337 0.69228
 H292 H 0.14419 1.05015 0.64960
 H293 H 0.22778 1.05292 0.70697
 H294 H 0.19905 1.02494 0.74801
 C295 C 0.08964 0.91554 0.70356
 C296 C 0.07784 1.08045 0.80499
 C297 C 0.18828 1.05415 0.67480
 C298 C 0.19278 0.95334 0.83161
 C299 C 0.59314 0.52977 0.28971
 H300 H 0.59422 0.50706 0.30092
 C301 C 0.58156 0.55579 0.30624
 H302 H 0.57353 0.55286 0.33007
 C303 C 0.60524 0.56180 0.24622
 H304 H 0.61542 0.56453 0.22332
 C305 C 0.59382 0.58823 0.26174
 H306 H 0.59478 0.61076 0.25018
 N307 N 0.60556 0.53338 0.26059
 C308 C 0.62618 0.44954 0.20641
 H309 H 0.65084 0.45467 0.20293
 C310 C 0.61404 0.42241 0.19402
 H311 H 0.62937 0.40704 0.18051
 C312 C 0.57673 0.46294 0.22935
 H313 H 0.56269 0.47856 0.24380
 C314 C 0.56344 0.43578 0.21714
 H315 H 0.53903 0.43054 0.22214
 Zn316 Zn 0.63097 0.50078 0.24321
 N317 N 0.60780 0.46879 0.22426
 C318 C 0.65207 0.45136 0.28180
 N319 N 0.65525 0.48243 0.27587
 C320 C 0.67394 0.50037 0.29398
 C321 C 0.69077 0.48696 0.31883
 C322 C 0.66823 0.43712 0.30641
 C323 C 0.64291 0.52511 0.18423
 C324 C 0.66006 0.53821 0.15983
 C325 C 0.70682 0.53471 0.19182
 C326 C 0.68872 0.52157 0.21566
 N327 N 0.65722 0.51760 0.21166
 H328 H 0.63661 0.43747 0.26781
 H329 H 0.67547 0.52518 0.28932
 H330 H 0.70531 0.50155 0.33325
 H331 H 0.66544 0.41233 0.31058
 H332 H 0.61790 0.52132 0.18154
 H333 H 0.64797 0.54483 0.13853
 H334 H 0.73184 0.53785 0.19538
 H335 H 0.69986 0.51476 0.23730
 C336 C 0.58259 0.41479 0.20000
 C337 C 0.58299 0.58567 0.29260
 C338 C 0.69241 0.54343 0.16354
 C339 C 0.68778 0.45494 0.32538
 C340 C 0.91338 0.46950 0.78409
 H341 H 0.91485 0.49267 0.79395
 C342 C 0.92634 0.44370 0.80016
 H343 H 0.93799 0.44716 0.82228
 C344 C 0.89376 0.43625 0.74489
 H345 H 0.88021 0.43301 0.72397
 C346 C 0.90621 0.41004 0.76009
 H347 H 0.90247 0.38709 0.75035
 N348 N 0.89666 0.46521 0.75744
 C349 C 0.87475 0.54817 0.70182
 H350 H 0.85032 0.54244 0.69809
 C351 C 0.88656 0.57544 0.68897
 H352 H 0.87125 0.59018 0.67478
 C353 C 0.92377 0.53656 0.72615
 H354 H 0.93774 0.52168 0.74143
 C355 C 0.93668 0.56386 0.71357
 H356 H 0.96071 0.56988 0.71911
 Zn357 Zn 0.87057 0.49787 0.74113
 N358 N 0.89308 0.52970 0.72053
 C359 C 0.84954 0.54790 0.77866
 N360 N 0.84784 0.51644 0.77468
 C361 C 0.83121 0.49842 0.79491
 C362 C 0.81471 0.51217 0.81982
 C363 C 0.83349 0.56254 0.80312
 C364 C 0.85547 0.47367 0.68324
 C365 C 0.83755 0.45910 0.66059
 C366 C 0.79324 0.45967 0.69627
 C367 C 0.81205 0.47448 0.71827
 N368 N 0.84274 0.48060 0.71159
 H369 H 0.86351 0.56186 0.76302
 H370 H 0.83076 0.47336 0.79166
 H371 H 0.80114 0.49759 0.83540
 H372 H 0.83546 0.58757 0.80592
 H373 H 0.87988 0.47900 0.67847
 H374 H 0.84825 0.45388 0.63818
 H375 H 0.76917 0.45406 0.70231
 H376 H 0.80225 0.48041 0.74081
 C377 C 0.91756 0.58407 0.69549
 C378 C 0.92166 0.41345 0.78866
 C379 C 0.80615 0.45137 0.66713
 C380 C 0.81556 0.54473 0.82397
 C381 C 0.30105 0.40454 -0.02740
 H382 H 0.31386 0.39514 -0.00761
 C383 C 0.31761 0.41831 -0.05195
 H384 H 0.34305 0.41967 -0.05062
 C385 C 0.25263 0.41302 -0.05375
 H386 H 0.22745 0.41002 -0.05492
 C387 C 0.26825 0.42697 -0.07882
 H388 H 0.25474 0.43441 -0.09900
 N389 N 0.26927 0.40103 -0.02924
 C390 C 0.20681 0.37400 0.04686
 H391 H 0.20406 0.35006 0.03948
 C392 C 0.19151 0.38456 0.07367
 H393 H 0.17650 0.36875 0.08647
 C394 C 0.23066 0.42321 0.03951
 H395 H 0.24662 0.43777 0.02641
 C396 C 0.21563 0.43484 0.06642
 H397 H 0.22005 0.45848 0.07395
 Zn398 Zn 0.24962 0.37271 -0.00128
 N399 N 0.22644 0.39303 0.03077
 C400 C 0.28390 0.34731 0.04945
 N401 N 0.28141 0.34708 0.01780
 C402 C 0.30220 0.33028 -0.00005
 C403 C 0.32635 0.31249 0.01393
 C404 C 0.30758 0.32991 0.06433
 C405 C 0.19247 0.36213 -0.03082
 C406 C 0.16934 0.34577 -0.04658
 C407 C 0.20439 0.30061 -0.04758
 C408 C 0.22683 0.31783 -0.03157
 N409 N 0.22066 0.34815 -0.02381
 H410 H 0.26789 0.36141 0.06336
 H411 H 0.30029 0.33103 -0.02520
 H412 H 0.34250 0.29906 -0.00063
 H413 H 0.30935 0.33094 0.08950
 H414 H 0.18771 0.38597 -0.02363
 H415 H 0.14688 0.35728 -0.05125
 H416 H 0.20996 0.27667 -0.05398
 H417 H 0.24906 0.30683 -0.02537
 C418 C 0.19647 0.41503 0.08427
 C419 C 0.30132 0.42858 -0.07868
 C420 C 0.17514 0.31458 -0.05530
 C421 C 0.32920 0.31214 0.04659
 C422 C 0.80457 0.10441 1.02683
 H423 H 0.81747 0.11830 1.01018
 C424 C 0.82075 0.09022 1.05151
 H425 H 0.84605 0.09288 1.05295
 C426 C 0.75618 0.08440 1.04513
 H427 H 0.73080 0.08309 1.04304
 C428 C 0.77133 0.07053 1.07078
 H429 H 0.75721 0.05875 1.08814
 N430 N 0.77262 0.10272 1.02501
 C431 C 0.71718 0.12910 0.94286
 H432 H 0.72304 0.15352 0.94219
 C433 C 0.69949 0.11681 0.91880
 H434 H 0.69141 0.13215 0.90018
 C435 C 0.72276 0.07916 0.96652
 H436 H 0.73203 0.06463 0.98516
 C437 C 0.70528 0.06570 0.94247
 H438 H 0.70101 0.04082 0.94279
 Zn439 Zn 0.75132 0.13126 0.99770
 N440 N 0.72804 0.11048 0.96641
 C441 C 0.79332 0.14664 0.94947
 N442 N 0.78186 0.15605 0.97764
 C443 C 0.79325 0.18163 0.99219
 C444 C 0.81726 0.19889 0.97829
 C445 C 0.81703 0.16334 0.93463
 C446 C 0.71979 0.15355 1.05256
 C447 C 0.69638 0.16989 1.06911
 C448 C 0.68191 0.19685 1.02160
 C449 C 0.70540 0.17975 1.00588
 N450 N 0.72308 0.15768 1.02118
 H451 H 0.78434 0.12586 0.93864
 H452 H 0.78408 0.18826 1.01486
 H453 H 0.82657 0.21872 0.99060
 H454 H 0.82541 0.15563 0.91199
 H455 H 0.73497 0.13737 1.06498
 H456 H 0.69364 0.16570 1.09391
 H457 H 0.66734 0.21345 1.00873
 H458 H 0.70903 0.18390 0.98135
 C459 C 0.69309 0.08482 0.91847
 C460 C 0.80390 0.07471 1.07507
 C461 C 0.67663 0.19134 1.05345
 C462 C 0.82960 0.18970 0.94914
 C463 C 0.30325 0.59524 0.52485
 H464 H 0.31655 0.60235 0.50452
 C465 C 0.31906 0.58215 0.55048
 H466 H 0.34440 0.57870 0.54929
 C467 C 0.25435 0.59234 0.55153
 H468 H 0.22930 0.59729 0.55234
 C469 C 0.26919 0.57936 0.57769
 H470 H 0.25514 0.57467 0.59827
 N471 N 0.27159 0.60098 0.52619
 C472 C 0.21211 0.62610 0.44688
 H473 H 0.21068 0.65091 0.45164
 C474 C 0.19502 0.61385 0.42233
 H475 H 0.18071 0.62952 0.40811
 C476 C 0.23352 0.57599 0.45929
 H477 H 0.24865 0.56151 0.47386
 C478 C 0.21688 0.56268 0.43458
 H479 H 0.21916 0.53781 0.43029
 Zn480 Zn 0.25264 0.62844 0.49650
 N481 N 0.23096 0.60726 0.46469
 C482 C 0.28820 0.65285 0.44631
 N483 N 0.28456 0.65314 0.47787
 C484 C 0.30440 0.66950 0.49627
 C485 C 0.32864 0.68690 0.48297
 C486 C 0.31208 0.66985 0.43207
 C487 C 0.19333 0.64092 0.52191
 C488 C 0.16937 0.65742 0.53739
 C489 C 0.20489 0.70041 0.54370
 C490 C 0.22815 0.68317 0.52773
 N491 N 0.22211 0.65383 0.51748
 H492 H 0.27294 0.63903 0.43201
 H493 H 0.30168 0.66870 0.52136
 H494 H 0.34395 0.70002 0.49800
 H495 H 0.31481 0.66880 0.40696
 H496 H 0.18904 0.61757 0.51354
 H497 H 0.14676 0.64655 0.54101
 H498 H 0.21000 0.72372 0.55180
 H499 H 0.25094 0.69328 0.52373
 C500 C 0.19726 0.58178 0.41582
 C501 C 0.30215 0.57511 0.57785
 C502 C 0.17507 0.68749 0.54865
 C503 C 0.33270 0.68723 0.45040
 C504 C 0.80240 0.90492 0.47385
 H505 H 0.81587 0.89565 0.49325
 C506 C 0.81814 0.91834 0.44858
 H507 H 0.84364 0.91953 0.44897
 C508 C 0.75307 0.91357 0.44921
 H509 H 0.72783 0.91076 0.44901
 C510 C 0.76787 0.92718 0.42346
 H511 H 0.75368 0.93458 0.40372
 N512 N 0.77054 0.90161 0.47317
 C513 C 0.70925 0.87525 0.55036
 H514 H 0.70677 0.85114 0.54342
 C515 C 0.69421 0.88602 0.57721
 H516 H 0.67963 0.87019 0.59049
 C517 C 0.73235 0.92467 0.54192
 H518 H 0.74797 0.93922 0.52841
 C519 C 0.71755 0.93652 0.56886
 H520 H 0.72175 0.96033 0.57599
 Zn521 Zn 0.75164 0.87362 0.50194
 N522 N 0.72842 0.89429 0.53372
 C523 C 0.78675 0.85028 0.55299
 N524 N 0.78396 0.84896 0.52140
 C525 C 0.80484 0.83188 0.50390
 C526 C 0.82943 0.81498 0.51821
 C527 C 0.81085 0.83377 0.56818
 C528 C 0.69430 0.86162 0.47358
 C529 C 0.67129 0.84484 0.45812
 C530 C 0.70726 0.80042 0.45635
 C531 C 0.72956 0.81803 0.47216
 N532 N 0.72287 0.84821 0.48013
 H533 H 0.77068 0.86459 0.56661
 H534 H 0.80272 0.83180 0.47876
 H535 H 0.84567 0.80134 0.50394
 H536 H 0.81285 0.83565 0.59328
 H537 H 0.68917 0.88536 0.48085
 H538 H 0.64854 0.85593 0.45383
 H539 H 0.71329 0.77666 0.44968
 H540 H 0.75212 0.80750 0.47795
 C541 C 0.69894 0.91670 0.58728
 C542 C 0.80095 0.92849 0.42237
 C543 C 0.67763 0.81383 0.44907
 C544 C 0.83260 0.81579 0.55082
 C545 C -0.03156 0.29740 0.40382
 H546 H -0.00963 0.30879 0.39840
 C547 C -0.05629 0.31442 0.41783
 H548 H -0.05295 0.33873 0.42365
 C549 C -0.06318 0.25243 0.40124
 H550 H -0.06628 0.22863 0.39381
 C551 C -0.08840 0.26847 0.41527
 H552 H -0.11057 0.25665 0.41830
 N553 N -0.03569 0.26721 0.39512
 C554 C 0.04450 0.20708 0.37054
 H555 H 0.03812 0.20406 0.34635
 C556 C 0.07157 0.19238 0.38207
 H557 H 0.08560 0.17759 0.36671
 C558 C 0.03419 0.23081 0.41954
 H559 H 0.01978 0.24639 0.43369
 C560 C 0.06132 0.21637 0.43215
 H561 H 0.06773 0.22090 0.45612
 Zn562 Zn -0.00592 0.24810 0.36773
 N563 N 0.02681 0.22636 0.38902
 C564 C 0.04459 0.28277 0.34366
 N565 N 0.01268 0.27987 0.34289
 C566 C -0.00571 0.30041 0.32639
 C567 C 0.00803 0.32470 0.30941
 C568 C 0.05922 0.30655 0.32708
 C569 C -0.03210 0.19022 0.35657
 C570 C -0.04676 0.16654 0.34017
 C571 C -0.05047 0.20102 0.29549
 C572 C -0.03537 0.22404 0.31271
 N573 N -0.02674 0.21833 0.34279
 H574 H 0.05891 0.26702 0.35760
 H575 H -0.03110 0.29818 0.32675
 H576 H -0.00692 0.34068 0.29621
 H577 H 0.08460 0.30861 0.32854
 H578 H -0.02489 0.18620 0.38046
 H579 H -0.05100 0.14441 0.35168
 H580 H -0.05710 0.20577 0.27154
 H581 H -0.03056 0.24634 0.30199
 C582 C 0.08077 0.19754 0.41298
 C583 C -0.08550 0.30018 0.42289
 C584 C -0.05615 0.17178 0.30923
 C585 C 0.04098 0.32790 0.30958
 C586 C 1.02531 0.80324 0.10326
 H587 H 1.00551 0.81594 0.11334
 C588 C 1.05008 0.81978 0.08989
 H589 H 1.04892 0.84509 0.08965
 C590 C 1.05127 0.75506 0.09208
 H591 H 1.05217 0.72990 0.09366
 C592 C 1.07658 0.77067 0.07850
 H593 H 1.09670 0.75717 0.07004
 N594 N 1.02685 0.77149 0.10521
 C595 C 0.94818 0.71132 0.12817
 H596 H 0.95183 0.71104 0.15314
 C597 C 0.92408 0.69404 0.11536
 H598 H 0.90899 0.68090 0.13085
 C599 C 0.96300 0.73008 0.07819
 H600 H 0.97836 0.74427 0.06400
 C601 C 0.93900 0.71292 0.06425
 H602 H 0.93611 0.71383 0.03917
 Zn603 Zn 0.99766 0.75107 0.13189
 N604 N 0.96685 0.72908 0.10968
 C605 C 0.94524 0.78631 0.15431
 N606 N 0.97696 0.78170 0.15727
 C607 C 0.99418 0.80000 0.17644
 C608 C 0.97945 0.82373 0.19386
 C609 C 0.92964 0.80983 0.17109
 C610 C 1.02792 0.69380 0.14151
 C611 C 1.04280 0.66930 0.15753
 C612 C 1.03978 0.70006 0.20460
 C613 C 1.02477 0.72403 0.18763
 N614 N 1.01945 0.72064 0.15653
 H615 H 0.93195 0.77225 0.13839
 H616 H 1.01950 0.79663 0.17768
 H617 H 0.99357 0.83839 0.20861
 H618 H 0.90439 0.81308 0.16839
 H619 H 1.02250 0.69114 0.11705
 H620 H 1.04952 0.64827 0.14498
 H621 H 1.04353 0.70297 0.22938
 H622 H 1.01706 0.74502 0.19950
 C623 C 0.91916 0.69456 0.08299
 C624 C 1.07674 0.80351 0.07839
 C625 C 1.04885 0.67219 0.18953
 C626 C 0.94677 0.82900 0.19107
 C627 C 0.52115 0.29974 0.59507
 H628 H 0.49898 0.31135 0.60074
 C629 C 0.54530 0.31658 0.58085
 H630 H 0.54132 0.34102 0.57517
 C631 C 0.55392 0.25430 0.59721
 H632 H 0.55769 0.23037 0.60456
 C633 C 0.57857 0.27015 0.58289
 H634 H 0.60100 0.25808 0.57952
 N635 N 0.52613 0.26939 0.60366
 C636 C 0.44697 0.21068 0.62807
 H637 H 0.45192 0.20893 0.65277
 C638 C 0.42228 0.19400 0.61550
 H639 H 0.40808 0.17976 0.63084
 C640 C 0.45912 0.23237 0.57855
 H641 H 0.47368 0.24742 0.56443
 C642 C 0.43431 0.21611 0.56492
 H643 H 0.42991 0.21862 0.54016
 Zn644 Zn 0.49690 0.25036 0.63105
 N645 N 0.46468 0.22950 0.60968
 C646 C 0.44635 0.28563 0.65721
 N647 N 0.47831 0.28191 0.65663
 C648 C 0.49718 0.30148 0.67272
 C649 C 0.48396 0.32565 0.69065
 C650 C 0.43218 0.30939 0.67484
 C651 C 0.52427 0.19170 0.64142
 C652 C 0.53884 0.16726 0.65782
 C653 C 0.54100 0.20063 0.70307
 C654 C 0.52602 0.22441 0.68586
 N655 N 0.51821 0.21963 0.65551
 H656 H 0.43168 0.27054 0.64362
 H657 H 0.52255 0.29849 0.67134
 H658 H 0.49933 0.34083 0.70349
 H659 H 0.40674 0.31222 0.67451
 H660 H 0.51755 0.18839 0.61736
 H661 H 0.54360 0.14526 0.64614
 H662 H 0.54694 0.20466 0.72725
 H663 H 0.52054 0.24650 0.69687
 C664 C 0.41559 0.19657 0.58355
 C665 C 0.57478 0.30198 0.57538
 C666 C 0.54740 0.17158 0.68904
 C667 C 0.45100 0.32981 0.69186
 C668 C 0.47188 0.79869 0.90341
 H669 H 0.49232 0.81089 0.89493
 C670 C 0.44734 0.81550 0.91783
 H671 H 0.44929 0.84054 0.92061
 C672 C 0.44385 0.75158 0.90886
 H673 H 0.44204 0.72687 0.90441
 C674 C 0.41881 0.76746 0.92348
 H675 H 0.39797 0.75467 0.93001
 N676 N 0.46926 0.76749 0.89823
 C677 C 0.54774 0.70610 0.87130
 H678 H 0.54068 0.70310 0.84729
 C679 C 0.57522 0.69153 0.88205
 H680 H 0.58889 0.67682 0.86631
 C681 C 0.53893 0.72997 0.92050
 H682 H 0.52502 0.74569 0.93498
 C683 C 0.56646 0.71564 0.93233
 H684 H 0.57364 0.72031 0.95605
 Zn685 Zn 0.49789 0.74800 0.86986
 N686 N 0.53063 0.72544 0.89024
 C687 C 0.54863 0.78233 0.84562
 N688 N 0.51670 0.77957 0.84492
 C689 C 0.49835 0.80017 0.82844
 C690 C 0.51212 0.82444 0.81152
 C691 C 0.56330 0.80616 0.82912
 C692 C 0.46976 0.69103 0.85845
 C693 C 0.45505 0.66765 0.84166
 C694 C 0.45275 0.70231 0.79705
 C695 C 0.46790 0.72501 0.81466
 N696 N 0.47591 0.71907 0.84487
 H697 H 0.56291 0.76650 0.85951
 H698 H 0.47296 0.79805 0.82886
 H699 H 0.49718 0.84048 0.79837
 H700 H 0.58868 0.80818 0.83062
 H701 H 0.47681 0.68664 0.88232
 H702 H 0.45040 0.64548 0.85292
 H703 H 0.44677 0.70720 0.77296
 H704 H 0.47345 0.74713 0.80400
 C705 C 0.58538 0.69687 0.91262
 C706 C 0.41986 0.80005 0.92705
 C707 C 0.44644 0.67310 0.81052
 C708 C 0.54507 0.82764 0.81175
 C709 C 0.46553 -0.14466 0.35069
 C710 C 0.44777 -0.17145 0.34499
 C711 C 0.42348 -0.16991 0.32288
 C712 C 0.41698 -0.14215 0.30676
 C713 C 0.43432 -0.11518 0.31271
 C714 C 0.45860 -0.11659 0.33492
 H715 H 0.48433 -0.14533 0.36773
 H716 H 0.40963 -0.19032 0.31794
 H717 H 0.39787 -0.14157 0.29005
 H718 H 0.47223 -0.09606 0.33992
 C719 C 0.96609 0.35332 0.83810
 C720 C 0.94311 0.33006 0.84238
 C721 C 0.91311 0.33541 0.82893
 C722 C 0.90650 0.36246 0.81179
 C723 C 0.92942 0.38530 0.80757
 C724 C 0.95916 0.38074 0.82120
 H725 H 0.98918 0.35106 0.84860
 H726 H 0.89484 0.31814 0.83011
 H727 H 0.88326 0.36551 0.80166
 H728 H 0.97717 0.39818 0.81839
 C729 C 0.03785 1.15790 0.82567
 C730 C 0.05762 1.16929 0.84943
 C731 C 0.08266 1.14954 0.85965
 C732 C 0.08833 1.12038 0.84600
 C733 C 0.06930 1.10985 0.82164
 C734 C 0.04375 1.12875 0.81191
 H735 H 0.01879 1.17203 0.81610
 H736 H 0.09779 1.15607 0.87870
 H737 H 0.10836 1.10646 0.85395
 H738 H 0.02860 1.12122 0.79322
 C739 C 0.59102 0.66703 0.32560
 C740 C 0.56468 0.66967 0.34545
 C741 C 0.54424 0.64423 0.34810
 C742 C 0.55013 0.61672 0.33119
 C743 C 0.57630 0.61437 0.31103
 C744 C 0.59675 0.63977 0.30864
 H745 H 0.60697 0.68633 0.32274
 H746 H 0.52384 0.64557 0.36337
 H747 H 0.53400 0.59751 0.33348
 H748 H 0.61744 0.63848 0.29375
 C749 C 0.58227 0.32876 0.18177
 C750 C 0.55560 0.32637 0.16271
 C751 C 0.53562 0.35274 0.15874
 C752 C 0.54337 0.38147 0.17213
 C753 C 0.57118 0.38409 0.18955
 C754 C 0.58998 0.35725 0.19499
 H755 H 0.59763 0.30864 0.18589
 H756 H 0.51488 0.35149 0.14416
 H757 H 0.52854 0.40188 0.16764
 H758 H 0.61120 0.35855 0.20888
 C759 C 0.09499 0.83252 0.67390
 C760 C 0.06444 0.82746 0.66217
 C761 C 0.04140 0.85149 0.66643
 C762 C 0.04920 0.87990 0.68041
 C763 C 0.08007 0.88497 0.69069
 C764 C 0.10257 0.86066 0.68792
 H765 H 0.11318 0.81444 0.67325
 H766 H 0.01772 0.84934 0.65751
 H767 H 0.03137 0.89829 0.68218
 H768 H 0.12627 0.86336 0.69675
 C769 C 0.96611 0.64752 0.65719
 C770 C 0.94543 0.67354 0.65977
 C771 C 0.91700 0.67026 0.67630
 C772 C 0.90866 0.64139 0.68863
 C773 C 0.92855 0.61503 0.68486
 C774 C 0.95775 0.61846 0.66972
 H775 H 0.98817 0.64936 0.64452
 H776 H 0.90097 0.69003 0.67942
 H777 H 0.88634 0.63955 0.70086
 H778 H 0.97348 0.59846 0.66655
 C779 C 0.41238 0.16710 0.17432
 C780 C 0.44087 0.16962 0.15775
 C781 C 0.46169 0.14362 0.15668
 C782 C 0.45350 0.11530 0.17092
 C783 C 0.42435 0.11258 0.18637
 C784 C 0.40424 0.13898 0.18843
 H785 H 0.39624 0.18695 0.17630
 H786 H 0.48381 0.14490 0.14403
 H787 H 0.46942 0.09529 0.16897
 H788 H 0.38199 0.13782 0.20088
 C789 C 0.32228 0.46767 -0.15566
 C790 C 0.34837 0.44928 -0.16599
 C791 C 0.36000 0.42576 -0.14557
 C792 C 0.34544 0.42002 -0.11689
 C793 C 0.31875 0.43750 -0.10747
 C794 C 0.30762 0.46170 -0.12696
 H795 H 0.31167 0.48557 -0.17033
 H796 H 0.38082 0.41188 -0.15118
 H797 H 0.35458 0.40108 -0.10250
 H798 H 0.28714 0.47569 -0.12028
 C799 C 0.81960 0.96700 0.34454
 C800 C 0.84517 0.94833 0.33344
 C801 C 0.85717 0.92468 0.35349
 C802 C 0.84352 0.91918 0.38266
 C803 C 0.81739 0.93702 0.39291
 C804 C 0.80585 0.96127 0.37372
 H805 H 0.80871 0.98499 0.33018
 H806 H 0.87761 0.91053 0.34720
 H807 H 0.85292 0.90017 0.39680
 H808 H 0.78576 0.97549 0.38103
 C809 C 0.85595 0.07991 1.14664
 C810 C 0.84541 0.05516 1.16573
 C811 C 0.82228 0.03540 1.15311
 C812 C 0.80963 0.04092 1.12339
 C813 C 0.81945 0.06640 1.10526
 C814 C 0.84301 0.08556 1.11726
 H815 H 0.87476 0.09497 1.15373
 H816 H 0.81242 0.01645 1.16649
 H817 H 0.79172 0.02544 1.11488
 H818 H 0.85108 0.10570 1.10434
 C819 C 0.36135 0.57509 0.64415
 C820 C 0.34711 0.55537 0.66620
 C821 C 0.31909 0.54037 0.65800
 C822 C 0.30518 0.54572 0.62888
 C823 C 0.31880 0.56637 0.60727
 C824 C 0.34733 0.58061 0.61513
 H825 H 0.38322 0.58657 0.64943
 H826 H 0.30734 0.52520 0.67445
 H827 H 0.28344 0.53405 0.62349
 H828 H 0.35833 0.59696 0.59931
 C829 C 0.17981 0.54069 0.33972
 C830 C 0.14968 0.55305 0.33264
 C831 C 0.13410 0.57201 0.35473
 C832 C 0.14900 0.57996 0.38247
 C833 C 0.17987 0.56919 0.38878
 C834 C 0.19479 0.54871 0.36756
 H835 H 0.19239 0.52609 0.32305
 H836 H 0.11058 0.58127 0.35023
 H837 H 0.13665 0.59525 0.39871
 H838 H 0.21864 0.54020 0.37171
 C839 C 0.67039 0.03748 0.84777
 C840 C 0.64459 0.05531 0.83590
 C841 C 0.63263 0.08007 0.85448
 C842 C 0.64742 0.08836 0.88213
 C843 C 0.67449 0.07212 0.89238
 C844 C 0.68518 0.04589 0.87561
 H845 H 0.68100 0.01847 0.83461
 H846 H 0.61163 0.09326 0.84798
 H847 H 0.63811 0.10813 0.89520
 H848 H 0.70613 0.03304 0.88300
 C849 C 0.67424 0.91410 0.67199
 C850 C 0.65681 0.94214 0.67533
 C851 C 0.65523 0.96313 0.64996
 C852 C 0.66972 0.95550 0.62143
 C853 C 0.68587 0.92673 0.61786
 C854 C 0.68853 0.90649 0.64364
 H855 H 0.67662 0.89785 0.69132
 H856 H 0.64190 0.98490 0.65186
 H857 H 0.66736 0.97149 0.60189
 H858 H 0.70150 0.88451 0.64176
 C859 C 0.17018 0.41188 0.16855
 C860 C 0.15359 0.44039 0.17207
 C861 C 0.15290 0.46168 0.14693
 C862 C 0.16755 0.45400 0.11849
 C863 C 0.18297 0.42487 0.11475
 C864 C 0.18462 0.40422 0.14028
 H865 H 0.17191 0.39536 0.18772
 H866 H 0.14023 0.48380 0.14894
 H867 H 0.16593 0.47031 0.09915
 H868 H 0.19703 0.38193 0.13831
 C869 C -0.14814 0.36456 0.42711
 C870 C -0.17126 0.35080 0.44605
 C871 C -0.16472 0.32135 0.45949
 C872 C -0.13629 0.30549 0.45312
 C873 C -0.11371 0.31869 0.43314
 C874 C -0.11970 0.34870 0.42073
 H875 H -0.15227 0.38742 0.41678
 H876 H -0.18209 0.30998 0.47400
 H877 H -0.13225 0.28256 0.46329
 H878 H -0.10299 0.35941 0.40499
 C879 C 0.34282 0.82224 0.96761
 C880 C 0.33269 0.84885 0.95038
 C881 C 0.35338 0.86040 0.92728
 C882 C 0.38211 0.84526 0.92075
 C883 C 0.39123 0.81803 0.93697
 C884 C 0.37153 0.80697 0.96081
 H885 H 0.32792 0.81173 0.98514
 H886 H 0.34787 0.88153 0.91430
 H887 H 0.39671 0.85436 0.90214
 H888 H 0.37802 0.78607 0.97380
 C889 C 1.15372 0.82465 0.03839
 C890 C 1.16473 0.84898 0.05752
 C891 C 1.14469 0.85956 0.08187
 C892 C 1.11579 0.84554 0.08774
 C893 C 1.10574 0.82049 0.06952
 C894 C 1.12479 0.81052 0.04447
 H895 H 1.16808 0.81492 0.01977
 H896 H 1.15083 0.87912 0.09640
 H897 H 1.10176 0.85376 0.10733
 H898 H 1.11759 0.79134 0.02988
 C899 C 0.65284 0.32256 0.53762
 C900 C 0.65918 0.35142 0.55162
 C901 C 0.63621 0.36514 0.57125
 C902 C 0.60812 0.34974 0.57777
 C903 C 0.60240 0.32022 0.56487
 C904 C 0.62479 0.30713 0.54419
 H905 H 0.67014 0.31127 0.52256
 H906 H 0.64024 0.38754 0.58207
 H907 H 0.59151 0.36032 0.59403
 H908 H 0.62093 0.28455 0.53368
 C909 C 0.35399 0.13478 0.57289
 C910 C 0.33167 0.15049 0.55415
 C911 C 0.33882 0.18016 0.54210
 C912 C 0.36695 0.19463 0.55030
 C913 C 0.38838 0.17962 0.57062
 C914 C 0.38206 0.14913 0.58096
 H915 H 0.34935 0.11163 0.58196
 H916 H 0.32193 0.19282 0.52769
 H917 H 0.37110 0.21819 0.54212
 H918 H 0.39847 0.13671 0.59608
 C919 C 0.84598 0.67431 0.03688
 C920 C 0.83649 0.64648 0.05185
 C921 C 0.85711 0.63291 0.07407
 C922 C 0.88477 0.64765 0.08265
 C923 C 0.89268 0.67666 0.06968
 C924 C 0.87355 0.68934 0.04594
 H925 H 0.83102 0.68599 0.01988
 H926 H 0.85225 0.61055 0.08480
 H927 H 0.89971 0.63655 0.10006
 H928 H 0.87893 0.71173 0.03553
 C929 C 0.67158 0.67297 0.91019
 C930 C 0.67529 0.65616 0.93820
 C931 C 0.64962 0.65473 0.95909
 C932 C 0.62046 0.66875 0.95139
 C933 C 0.61655 0.68425 0.92266
 C934 C 0.64260 0.68676 0.90250
 H935 H 0.69111 0.67524 0.89401
 H936 H 0.65176 0.64187 0.98081
 H937 H 0.60072 0.66653 0.96733
 H938 H 0.64045 0.69923 0.88054
 C939 C 0.16648 0.17177 0.41303
 C940 C 0.16906 0.15514 0.44124
 C941 C 0.14284 0.15449 0.46150
 C942 C 0.11421 0.16909 0.45294
 C943 C 0.11141 0.18444 0.42400
 C944 C 0.13805 0.18619 0.40451
 H945 H 0.18649 0.17345 0.39733
 H946 H 0.14417 0.14183 0.48340
 H947 H 0.09401 0.16742 0.46837
 H948 H 0.13680 0.19854 0.38242
 C949 C 0.60368 0.12648 0.74178
 C950 C 0.59185 0.09602 0.74007
 C951 C 0.56519 0.09077 0.72155
 C952 C 0.55081 0.11532 0.70501
 C953 C 0.56258 0.14571 0.70684
 C954 C 0.58907 0.15110 0.72548
 H955 H 0.62450 0.13123 0.75538
 H956 H 0.55512 0.06775 0.72019
 H957 H 0.53016 0.11063 0.69112
 H958 H 0.59882 0.17427 0.72695
 C959 C 1.10188 0.62639 0.24515
 C960 C 1.09344 0.59510 0.23932
 C961 C 1.06957 0.59008 0.21704
 C962 C 1.05513 0.61504 0.20121
 C963 C 1.06390 0.64590 0.20701
 C964 C 1.08729 0.65133 0.22926
 H965 H 1.12077 0.63197 0.26093
 H966 H 1.06075 0.56701 0.21248
 H967 H 1.03658 0.61016 0.18473
 H968 H 1.09491 0.67490 0.23383
 C969 C 0.92237 0.88535 0.25533
 C970 C 0.90015 0.90466 0.23993
 C971 C 0.89327 0.89879 0.20850
 C972 C 0.90831 0.87415 0.19276
 C973 C 0.93070 0.85495 0.20804
 C974 C 0.93762 0.86082 0.23948
 H975 H 0.92829 0.88954 0.27949
 H976 H 0.87610 0.91319 0.19614
 H977 H 0.90275 0.87038 0.16844
 H978 H 0.95462 0.84625 0.25188
 C979 C 0.43461 0.41039 0.72558
 C980 C 0.40628 0.40583 0.74202
 C981 C 0.39330 0.37585 0.74263
 C982 C 0.40809 0.35110 0.72679
 C983 C 0.43619 0.35576 0.70997
 C984 C 0.44942 0.38563 0.70976
 H985 H 0.44535 0.43316 0.72499
 H986 H 0.37136 0.37167 0.75487
 H987 H 0.39750 0.32828 0.72767
 H988 H 0.47086 0.39005 0.69677
 C989 C 0.39048 0.62989 0.75769
 C990 C 0.40253 0.59907 0.75975
 C991 C 0.42979 0.59324 0.77760
 C992 C 0.44409 0.61736 0.79375
 C993 C 0.43174 0.64799 0.79220
 C994 C 0.40505 0.65416 0.77368
 H995 H 0.36938 0.63513 0.74436
 H996 H 0.44022 0.56998 0.77902
 H997 H 0.46501 0.61209 0.80738
 H998 H 0.39497 0.67758 0.77225
 C999 C -0.11362 0.12860 0.25808
 C1000 C -0.10168 0.09773 0.25991
 C1001 C -0.07421 0.09174 0.27740
 C1002 C -0.05938 0.11584 0.29312
 C1003 C -0.07147 0.14659 0.29153
 C1004 C -0.09857 0.15282 0.27363
 H1005 H -0.13494 0.13396 0.24513
 H1006 H -0.06394 0.06840 0.27870
 H1007 H -0.03823 0.11048 0.30635
 H1008 H -0.10853 0.17629 0.27229
 C1009 C 0.05915 0.40833 0.27689
 C1010 C 0.08817 0.40269 0.26169
 C1011 C 0.10099 0.37215 0.26167
 C1012 C 0.08534 0.34789 0.27668
 C1013 C 0.05653 0.35354 0.29221
 C1014 C 0.04346 0.38399 0.29195
 H1015 H 0.04848 0.43153 0.27699
 H1016 H 0.12344 0.36708 0.25044
 H1017 H 0.09586 0.32462 0.27613
 H1018 H 0.02145 0.38914 0.30396
 C1019 C 0.60502 0.87278 0.76459
 C1020 C 0.59177 0.90314 0.76458
 C1021 C 0.56257 0.90837 0.77956
 C1022 C 0.54712 0.88381 0.79445
 C1023 C 0.56055 0.85351 0.79469
 C1024 C 0.58956 0.84826 0.77939
 H1025 H 0.62761 0.86803 0.75353
 H1026 H 0.55156 0.93142 0.77962
 H1027 H 0.52496 0.88868 0.80630
 H1028 H 0.60037 0.82512 0.77882
 C1029 C 0.74913 0.59651 0.12121
 C1030 C 0.74380 0.58922 0.08953
 C1031 C 0.72167 0.56586 0.08297
 C1032 C 0.70546 0.55076 0.10693
 C1033 C 0.71072 0.55846 0.13822
 C1034 C 0.73285 0.58135 0.14511
 H1035 H 0.76465 0.61506 0.12793
 H1036 H 0.71748 0.55810 0.05939
 H1037 H 0.68900 0.53270 0.10094
 H1038 H 0.73689 0.58827 0.16901
 C1039 C 0.20509 1.10532 0.60416
 C1040 C 0.23694 1.09800 0.59812
 C1041 C 0.25295 1.07677 0.61782
 C1042 C 0.23729 1.06277 0.64284
 C1043 C 0.20532 1.06991 0.64888
 C1044 C 0.18950 1.09159 0.62938
 H1045 H 0.19235 1.12194 0.58955
 H1046 H 0.27743 1.07045 0.61342
 H1047 H 0.25006 1.04578 0.65697
 H1048 H 0.16506 1.09811 0.63368
 C1049 C 0.25567 0.92983 0.89035
 C1050 C 0.23974 0.90776 0.90867
 C1051 C 0.20824 0.90113 0.90171
 C1052 C 0.19307 0.91598 0.87671
 C1053 C 0.20898 0.93799 0.85832
 C1054 C 0.24036 0.94497 0.86552
 H1055 H 0.27991 0.93553 0.89541
 H1056 H 0.19550 0.88409 0.91535
 H1057 H 0.16876 0.91042 0.87186
 H1058 H 0.25317 0.96175 0.85163
 C1059 C 0.70353 0.40431 0.39646
 C1060 C 0.73545 0.41007 0.40239
 C1061 C 0.75160 0.43108 0.38303
 C1062 C 0.73606 0.44609 0.35825
 C1063 C 0.70420 0.44006 0.35220
 C1064 C 0.68810 0.41908 0.37161
 H1065 H 0.69057 0.38807 0.41087
 H1066 H 0.77615 0.43614 0.38730
 H1067 H 0.74905 0.46200 0.34351
 H1068 H 0.66345 0.41424 0.36767
 C1069 C 0.78511 0.39650 0.60162
 C1070 C 0.75334 0.40453 0.59625
 C1071 C 0.73834 0.42681 0.61550
 C1072 C 0.75524 0.44171 0.63895
 C1073 C 0.78738 0.43440 0.64366
 C1074 C 0.80189 0.41114 0.62514
 H1075 H 0.79704 0.37899 0.58742
 H1076 H 0.71389 0.43352 0.61163
 H1077 H 0.74344 0.45966 0.65267
 H1078 H 0.82635 0.40433 0.62871
 C1079 C 0.29106 -0.10672 0.10661
 C1080 C 0.25898 -0.09973 0.10158
 C1081 C 0.24330 -0.07865 0.12168
 C1082 C 0.25961 -0.06422 0.14581
 C1083 C 0.29192 -0.07066 0.15038
 C1084 C 0.30731 -0.09244 0.13078
 H1085 H 0.30360 -0.12330 0.09182
 H1086 H 0.21863 -0.07262 0.11813
 H1087 H 0.24715 -0.04731 0.16027
 H1088 H 0.33200 -0.09846 0.13411
 C1089 C 0.26159 0.10247 0.37472
 C1090 C 0.26108 0.08972 0.40498
 C1091 C 0.27685 0.06102 0.41053
 C1092 C 0.29297 0.04555 0.38636
 C1093 C 0.29373 0.05853 0.35618
 C1094 C 0.27765 0.08705 0.35063
 H1095 H 0.24996 0.12469 0.36973
 H1096 H 0.27659 0.05044 0.43352
 H1097 H 0.30535 0.02376 0.39144
 H1098 H 0.27746 0.09748 0.32756
 C1099 C 0.78207 0.56255 0.90439
 C1100 C 0.76689 0.59164 0.89934
 C1101 C 0.76724 0.60473 0.86924
 C1102 C 0.78262 0.58924 0.84478
 C1103 C 0.79811 0.56032 0.84984
 C1104 C 0.79749 0.54702 0.87986
 H1105 H 0.78185 0.55170 0.92726
 H1106 H 0.75600 0.62723 0.86466
 H1107 H 0.78234 0.59991 0.82182
 H1108 H 0.80943 0.52490 0.88453
 C1109 C 0.13261 0.73594 0.61017
 C1110 C 0.10148 0.73671 0.59886
 C1111 C 0.09500 0.72160 0.57059
 C1112 C 0.11894 0.70581 0.55424
 C1113 C 0.14996 0.70502 0.56561
 C1114 C 0.15663 0.72039 0.59363
 H1115 H 0.13832 0.74695 0.63208
 H1116 H 0.07147 0.72231 0.56085
 H1117 H 0.11328 0.69447 0.53248
 H1118 H 0.18030 0.71977 0.60307
 C1119 C 0.60466 0.20468 1.10478
 C1120 C 0.59858 0.23678 1.10044
 C1121 C 0.61854 0.25394 1.08080
 C1122 C 0.64396 0.23925 1.06560
 C1123 C 0.65012 0.20718 1.07003
 C1124 C 0.63030 0.19005 1.08986
 H1125 H 0.58973 0.19099 1.11996
 H1126 H 0.61419 0.27868 1.07687
 H1127 H 0.65896 0.25300 1.05055
 H1128 H 0.63434 0.16522 1.09340
 C1129 C 0.90380 0.20692 0.90269
 C1130 C 0.90539 0.23962 0.90489
 C1131 C 0.88196 0.25582 0.92205
 C1132 C 0.85740 0.23971 0.93642
 C1133 C 0.85580 0.20699 0.93415
 C1134 C 0.87944 0.19081 0.91726
 H1135 H 0.92122 0.19373 0.88937
 H1136 H 0.88272 0.28096 0.92460
 H1137 H 0.83945 0.25295 0.94898
 H1138 H 0.87931 0.16558 0.91546
 C1139 C 0.41328 0.72146 0.43479
 C1140 C 0.40845 0.73706 0.40622
 C1141 C 0.37835 0.73664 0.39261
 C1142 C 0.35373 0.72081 0.40712
 C1143 C 0.35863 0.70495 0.43555
 C1144 C 0.38866 0.70557 0.44928
 H1145 H 0.43608 0.72168 0.44608
 H1146 H 0.37393 0.74819 0.37048
 H1147 H 0.33078 0.72108 0.39611
 H1148 H 0.39332 0.69331 0.47098
 C1149 C 0.60867 0.79403 0.39695
 C1150 C 0.60460 0.76221 0.40361
 C1151 C 0.62542 0.74706 0.42439
 C1152 C 0.64938 0.76364 0.43887
 C1153 C 0.65319 0.79567 0.43262
 C1154 C 0.63279 0.81053 0.41113
 H1155 H 0.59323 0.80613 0.38062
 H1156 H 0.62258 0.72258 0.43010
 H1157 H 0.66435 0.75155 0.45559
 H1158 H 0.63547 0.83496 0.40519
 C1159 C 0.10623 0.29527 -0.10769
 C1160 C 0.10121 0.26377 -0.10020
 C1161 C 0.12142 0.24867 -0.07881
 C1162 C 0.14571 0.26498 -0.06458
 C1163 C 0.15043 0.29670 -0.07162
 C1164 C 0.13065 0.31151 -0.09368
 H1165 H 0.09126 0.30733 -0.12446
 H1166 H 0.11783 0.22448 -0.07238
 H1167 H 0.16017 0.25296 -0.04738
 H1168 H 0.13403 0.33572 -0.10014
 C1169 C 0.40984 0.27688 0.06547
 C1170 C 0.40387 0.26130 0.09378
 C1171 C 0.37304 0.26198 0.10600
 C1172 C 0.34880 0.27805 0.09041
 C1173 C 0.35480 0.29392 0.06228
 C1174 C 0.38556 0.29300 0.04987
 H1175 H 0.43328 0.27647 0.05529
 H1176 H 0.36773 0.25049 0.12790
 H1177 H 0.32529 0.27801 0.10041
 H1178 H 0.39099 0.30524 0.02840
 C1179 C 0.91378 0.78200 0.56997
 C1180 C 0.90811 0.76683 0.59856
 C1181 C 0.87741 0.76760 0.61106
 C1182 C 0.85293 0.78317 0.59538
 C1183 C 0.85856 0.79843 0.56684
 C1184 C 0.88924 0.79760 0.55424
 H1185 H 0.93712 0.78150 0.55958
 H1186 H 0.87235 0.75638 0.63318
 H1187 H 0.82949 0.78311 0.60554
 H1188 H 0.89438 0.80942 0.53247
   
