data_POSCAR
  _audit_creation_date              2014-09-24
  _audit_creation_method            'ToBaCCo'
  _symmetry_space_group_name_H-M    'P1'
  _symmetry_Int_Tables_number       1
  _symmetry_cell_setting            triclinic
  loop_
  _symmetry_equiv_pos_as_xyz
 x,y,z
_cell_length_a 41.5581
_cell_length_b 40.0246
_cell_length_c 39.8818
_cell_angle_alpha 93.136300
_cell_angle_beta 92.572100
_cell_angle_gamma 92.513200
loop_
  _atom_site_label
  _atom_site_type_symbol
  _atom_site_fract_x
  _atom_site_fract_y
  _atom_site_fract_z
N1 N 0.22071 1.28542 0.19639
 N2 N 0.20126 1.28721 0.22150
 C3 C 0.17910 1.30996 0.21539
 C4 C 0.18530 1.32308 0.18496
 C5 C 0.21168 1.30705 0.17343
 H6 H 0.15929 1.31550 0.23119
 H7 H 0.22261 1.30985 0.14957
 Cu8 Cu 0.20509 1.25774 0.25836
 Cu9 Cu 0.25435 1.25307 0.19386
 Cu10 Cu 0.25415 1.19327 0.25343
 N11 N 0.20103 1.22080 0.28764
 N12 N 0.22040 1.19570 0.28575
 C13 C 0.21124 1.17270 0.30726
 C14 C 0.18485 1.18420 0.32332
 C15 C 0.17878 1.21464 0.31034
 H16 H 0.22209 1.14885 0.30996
 H17 H 0.15903 1.23045 0.31595
 N18 N 0.28618 1.19530 0.21851
 N19 N 0.28625 1.21811 0.19578
 C20 C 0.30944 1.21158 0.17412
 C21 C 0.32454 1.18348 0.18385
 C22 C 0.30931 1.17365 0.21190
 H23 H 0.31411 1.22530 0.15210
 H24 H 0.31386 1.15158 0.22552
 H25 H 0.22755 1.21820 0.21852
 H26 H 0.25955 1.24356 0.24426
 N27 N 0.79974 0.73337 0.15110
 N28 N 0.81787 0.73110 0.17872
 C29 C 0.83922 0.70722 0.17356
 C30 C 0.83401 0.69389 0.14108
 C31 C 0.80891 0.71092 0.12740
 H32 H 0.85757 0.70057 0.19179
 H33 H 0.79858 0.70771 0.10199
 Cu34 Cu 0.81301 0.76052 0.21826
 Cu35 Cu 0.76664 0.76626 0.14766
 Cu36 Cu 0.76510 0.82573 0.21396
 N37 N 0.81644 0.79740 0.25207
 N38 N 0.79752 0.82282 0.25039
 C39 C 0.80616 0.84567 0.27558
 C40 C 0.83172 0.83373 0.29386
 C41 C 0.83786 0.80319 0.27834
 H42 H 0.79561 0.86974 0.27941
 H43 H 0.85721 0.78710 0.28474
 N44 N 0.73445 0.82423 0.17470
 N45 N 0.73507 0.80167 0.14930
 C46 C 0.71193 0.80793 0.12599
 C47 C 0.69620 0.83561 0.13746
 C48 C 0.71093 0.84540 0.16825
 H49 H 0.70718 0.79381 0.10225
 H50 H 0.70525 0.86671 0.18441
 H51 H 0.79276 0.80050 0.17987
 H52 H 0.75950 0.77546 0.19823
 N53 N 0.79759 1.24904 -0.17812
 N54 N 0.81648 1.25066 -0.20363
 C55 C 0.83787 1.27685 -0.19785
 C56 C 0.83178 1.29238 -0.16721
 C57 C 0.80623 1.27419 -0.15525
 H58 H 0.85717 1.28323 -0.21400
 H59 H 0.79567 1.27810 -0.13113
 Cu60 Cu 0.81305 1.21692 -0.24059
 Cu61 Cu 0.76517 1.21278 -0.17515
 Cu62 Cu 0.76674 1.14661 -0.23471
 N63 N 0.81795 1.17745 -0.27002
 N64 N 0.79985 1.14994 -0.26769
 C65 C 0.80903 1.12625 -0.29014
 C66 C 0.83412 1.13988 -0.30721
 C67 C 0.83932 1.17228 -0.29394
 H68 H 0.79874 1.10092 -0.29328
 H69 H 0.85767 1.19044 -0.30061
 N70 N 0.73516 1.14833 -0.19921
 N71 N 0.73453 1.17369 -0.17662
 C72 C 0.71101 1.16733 -0.15539
 C73 C 0.69628 1.13665 -0.16518
 C74 C 0.71202 1.12515 -0.19292
 H75 H 0.70532 1.18348 -0.13405
 H76 H 0.70727 1.10148 -0.20705
 H77 H 0.79285 1.17876 -0.20039
 H78 H 0.75957 1.19701 -0.22559
 N79 N 0.17445 0.73638 -0.17450
 N80 N 0.14954 0.73819 -0.19578
 C81 C 0.12667 0.71492 -0.18896
 C82 C 0.13809 0.69782 -0.16213
 C83 C 0.16833 0.71195 -0.15348
 H84 H 0.10329 0.71110 -0.20196
 H85 H 0.18434 0.70545 -0.13295
 Cu86 Cu 0.14920 0.77185 -0.22922
 Cu87 Cu 0.21224 0.76698 -0.17427
 Cu88 Cu 0.21209 0.82672 -0.23406
 N89 N 0.14936 0.80525 -0.26291
 N90 N 0.17422 0.82651 -0.26471
 C91 C 0.16801 0.84753 -0.28916
 C92 C 0.13775 0.83885 -0.30330
 C93 C 0.12640 0.81206 -0.28621
 H94 H 0.18396 0.86804 -0.29564
 H95 H 0.10304 0.79906 -0.29001
 N96 N 0.24813 0.82291 -0.20084
 N97 N 0.24819 0.80015 -0.17807
 C98 C 0.27486 0.80547 -0.15765
 C99 C 0.29226 0.83268 -0.16825
 C100 C 0.27476 0.84329 -0.19549
 H101 H 0.28050 0.79165 -0.13575
 H102 H 0.28031 0.86516 -0.20930
 H103 H 0.18903 0.80640 -0.19452
 H104 H 0.20792 0.77660 -0.22454
 C105 C 0.47535 1.02968 0.02949
 C106 C 0.49724 1.00592 0.04770
 C107 C 0.51252 0.98476 0.02637
 C108 C 0.50458 0.98913 -0.01112
 C109 C 0.49726 1.04777 0.00567
 C110 C 0.51254 1.02647 -0.01553
 C111 C 0.45228 1.00684 0.00656
 C112 C 0.46759 0.98568 -0.01464
 H113 H 0.50115 1.00655 0.07486
 H114 H 0.51698 0.97181 -0.02847
 H115 H 0.50117 1.07482 0.00627
 H116 H 0.42617 1.00736 0.00704
 C117 C 0.03164 0.47156 1.03331
 C118 C 0.04935 0.49439 1.00982
 C119 C 0.02910 0.51048 0.98893
 C120 C -0.00692 0.50236 0.99329
 C121 C 0.00871 0.49430 1.05191
 C122 C -0.01142 0.51038 1.03088
 C123 C 0.00972 0.44780 1.01005
 C124 C -0.01041 0.46395 0.98916
 H125 H 0.07542 0.49818 1.01028
 H126 H -0.02337 0.51545 0.97619
 H127 H 0.00885 0.49789 1.07912
 H128 H 0.00995 0.42067 1.01024
 C129 C 1.03099 0.03284 0.47165
 C130 C 1.00807 0.05138 0.49446
 C131 C 0.98798 0.03043 0.51062
 C132 C 0.99251 -0.00703 0.50258
 C133 C 1.04875 0.00944 0.49456
 C134 C 1.02854 -0.01137 0.51072
 C135 C 1.00906 0.00967 0.44780
 C136 C 0.98897 -0.01115 0.46403
 H137 H 1.00816 0.07849 0.49805
 H138 H 0.97609 -0.02406 0.51572
 H139 H 1.07483 0.00989 0.49834
 H140 H 1.00925 0.00985 0.42057
 C141 C 0.13017 0.38326 1.13280
 N142 N 0.14182 0.39841 1.10596
 N143 N 0.12285 0.41671 1.08719
 C144 C 0.09165 0.42041 1.09470
 N145 N 0.08001 0.40531 1.12157
 N146 N 0.09898 0.38700 1.14033
 C147 C 0.15018 0.36234 1.15208
 C148 C 0.16679 0.34418 1.16779
 C149 C 0.07088 0.43894 1.07369
 C150 C 0.05326 0.45396 1.05566
 C151 C -0.11213 0.62362 1.09527
 N152 N -0.09077 0.63264 1.07229
 N153 N -0.07177 0.61015 1.05868
 C154 C -0.07355 0.57794 1.06765
 N155 N -0.09495 0.56890 1.09059
 N156 N -0.11395 0.59140 1.10419
 C157 C -0.13167 0.64814 1.11090
 C158 C -0.14760 0.66891 1.12446
 C159 C -0.05218 0.55404 1.05405
 C160 C -0.03382 0.53409 1.04319
 C161 C -0.11275 0.36531 0.88581
 N162 N -0.08255 0.37340 0.87644
 N163 N -0.06322 0.39478 0.89562
 C164 C -0.07351 0.40875 0.92475
 N165 N -0.10374 0.40075 0.93407
 N166 N -0.12308 0.37937 0.91489
 C167 C -0.13271 0.34050 0.86641
 C168 C -0.14910 0.31891 0.85073
 C169 C -0.05182 0.42960 0.94671
 C170 C -0.03318 0.44593 0.96575
 C171 C 0.09194 0.62581 0.88878
 N172 N 0.06887 0.63425 0.91029
 N173 N 0.05540 0.61128 0.92889
 C174 C 0.06459 0.57917 0.92655
 N175 N 0.08761 0.57071 0.90500
 N176 N 0.10109 0.59368 0.88639
 C177 C 0.10761 0.65090 0.87004
 C178 C 0.12127 0.67218 0.85498
 C179 C 0.05131 0.55484 0.94784
 C180 C 0.04082 0.53455 0.96627
 C181 C 1.12952 0.13207 0.38331
 N182 N 1.14127 0.10556 0.39886
 N183 N 1.12227 0.08683 0.41713
 C184 C 1.09095 0.09404 0.42040
 N185 N 1.07920 0.12058 0.40489
 N186 N 1.09820 0.13931 0.38662
 C187 C 1.14958 0.15133 0.36245
 C188 C 1.16626 0.16703 0.34434
 C189 C 1.07017 0.07309 0.43894
 C190 C 1.05257 0.05512 0.45398
 C191 C 1.09199 -0.11125 0.62614
 N192 N 1.10059 -0.11399 0.59373
 N193 N 1.08695 -0.09544 0.57076
 C194 C 1.06431 -0.07359 0.57950
 N195 N 1.05566 -0.07091 0.61189
 N196 N 1.06929 -0.08946 0.63486
 C197 C 1.10785 -0.12993 0.65121
 C198 C 1.12168 -0.14495 0.67248
 C199 C 1.05090 -0.05236 0.55515
 C200 C 1.04033 -0.03397 0.53483
 C201 C 0.88647 -0.11419 0.36527
 N202 N 0.87613 -0.08524 0.37944
 N203 N 0.89552 -0.06610 0.40082
 C204 C 0.92582 -0.07534 0.40872
 N205 N 0.93612 -0.10434 0.39464
 N206 N 0.91673 -0.12348 0.37325
 C207 C 0.86642 -0.13356 0.34048
 C208 C 0.84995 -0.14923 0.31889
 C209 C 0.94753 -0.05344 0.42959
 C210 C 0.96620 -0.03447 0.44595
 C211 C 0.88711 0.09481 0.62392
 N212 N 0.88494 0.10319 0.59143
 N213 N 0.90398 0.08957 0.56893
 C214 C 0.92576 0.06715 0.57825
 N215 N 0.92789 0.05873 0.61073
 N216 N 0.90886 0.07236 0.63323
 C217 C 0.86754 0.11050 0.64843
 C218 C 0.85159 0.12411 0.66919
 C219 C 0.94717 0.05355 0.55433
 C220 C 0.96555 0.04271 0.53436
 C221 C 0.38802 1.13011 0.13024
 N222 N 0.39745 1.14046 0.10023
 N223 N 0.41595 1.12156 0.08126
 C224 C 0.42556 1.09174 0.09172
 N225 N 0.41619 1.08143 0.12176
 N226 N 0.39769 1.10033 0.14073
 C227 C 0.36655 1.14949 0.14970
 C228 C 0.34777 1.16528 0.16556
 C229 C 0.44388 1.07053 0.07044
 C230 C 0.45851 1.05231 0.05217
 C231 C 0.62538 1.08985 -0.11524
 N232 N 0.59493 1.10077 -0.11663
 N233 N 0.57238 1.08716 -0.09819
 C234 C 0.57959 1.06224 -0.07780
 N235 N 0.61002 1.05128 -0.07645
 N236 N 0.63257 1.06488 -0.09489
 C237 C 0.65007 1.10571 -0.13369
 C238 C 0.67104 1.11956 -0.14847
 C239 C 0.55577 1.04886 -0.05661
 C240 C 0.53597 1.03830 -0.03821
 C241 C 0.36781 0.88368 -0.11705
 N242 N 0.37914 0.91344 -0.12757
 N243 N 0.40110 0.93218 -0.10874
 C244 C 0.41242 0.92173 -0.07884
 N245 N 0.40118 0.89191 -0.06839
 N246 N 0.37923 0.87316 -0.08722
 C247 C 0.34216 0.86493 -0.13588
 C248 C 0.31979 0.84986 -0.15100
 C249 C 0.43353 0.94340 -0.05708
 C250 C 0.44987 0.96231 -0.03810
 C251 C 0.62532 0.88538 0.09030
 N252 N 0.59486 0.88400 0.10117
 N253 N 0.57231 0.90238 0.08745
 C254 C 0.57955 0.92269 0.06245
 N255 N 0.61000 0.92401 0.05153
 N256 N 0.63254 0.90564 0.06525
 C257 C 0.65001 0.86699 0.10628
 C258 C 0.67096 0.85227 0.12024
 C259 C 0.55574 0.94381 0.04896
 C260 C 0.53594 0.96215 0.03830
   
