data_POSCAR
  _audit_creation_date              2014-09-24
  _audit_creation_method            'ToBaCCo'
  _symmetry_space_group_name_H-M    'P1'
  _symmetry_Int_Tables_number       1
  _symmetry_cell_setting            triclinic
  loop_
  _symmetry_equiv_pos_as_xyz
 x,y,z
_cell_length_a 40.9137
_cell_length_b 41.9462
_cell_length_c 42.5399
_cell_angle_alpha 88.856600
_cell_angle_beta 90.204700
_cell_angle_gamma 91.601000
loop_
  _atom_site_label
  _atom_site_type_symbol
  _atom_site_fract_x
  _atom_site_fract_y
  _atom_site_fract_z
N1 N 0.25476 0.25078 0.25642
 N2 N 0.75950 -0.24839 0.25514
 N3 N 0.72856 0.25244 0.73429
 N4 N 0.25523 -0.24963 0.75568
 N5 N 0.76755 -0.23645 0.75231
 N6 N 0.23888 0.23878 0.75180
 N7 N 0.26458 -0.23716 0.24979
 N8 N 0.74467 0.25701 0.24887
 O9 O 0.21011 0.02547 0.46987
 O10 O 0.21074 -0.03608 0.53291
 O11 O 0.20690 0.02590 0.53127
 O12 O 0.21301 -0.03637 0.47210
 O13 O 0.26683 -0.03161 0.47378
 O14 O 0.26070 0.02994 0.53392
 O15 O 0.26456 -0.03190 0.53505
 O16 O 0.26386 0.03032 0.47284
 Cu17 Cu 0.20479 -0.00559 0.50134
 Cu18 Cu 0.26938 -0.00036 0.50414
 C19 C 0.23692 0.03838 0.46053
 C20 C 0.23780 -0.04470 0.54460
 C21 C 0.23272 0.03846 0.54289
 C22 C 0.24092 -0.04465 0.46279
 O23 O 0.76076 0.03467 0.52573
 O24 O 0.76970 -0.02412 0.46344
 O25 O 0.76244 0.03719 0.46468
 O26 O 0.76826 -0.02664 0.52488
 O27 O 0.71469 -0.03410 0.52343
 O28 O 0.70896 0.02918 0.46256
 O29 O 0.71618 -0.03224 0.46245
 O30 O 0.70718 0.02754 0.52388
 Cu31 Cu 0.77066 0.00599 0.49486
 Cu32 Cu 0.70637 -0.00312 0.49298
 C33 C 0.73245 0.04131 0.53536
 C34 C 0.74447 -0.03825 0.45230
 C35 C 0.73475 0.04401 0.45318
 C36 C 0.74247 -0.04127 0.53448
 O37 O 0.46543 0.20436 0.03206
 O38 O 0.52272 0.20534 -0.03412
 O39 O 0.52880 0.20566 0.02684
 O40 O 0.45931 0.20707 -0.02912
 O41 O 0.46164 0.25966 -0.02912
 O42 O 0.52966 0.25827 0.02703
 O43 O 0.52486 0.25794 -0.03424
 O44 O 0.46643 0.25698 0.03169
 Cu45 Cu 0.49387 0.20034 -0.00111
 Cu46 Cu 0.49588 0.26347 -0.00120
 C47 C 0.45611 0.23040 0.04326
 C48 C 0.53366 0.23169 -0.04553
 C49 C 0.54084 0.23192 0.03672
 C50 C 0.44868 0.23380 -0.03871
 O51 O 0.54267 0.78363 0.03173
 O52 O 0.48547 0.78231 -0.03492
 O53 O 0.47952 0.78181 0.02620
 O54 O 0.54880 0.78193 -0.02921
 O55 O 0.54771 0.72932 -0.02749
 O56 O 0.47862 0.72919 0.02749
 O57 O 0.48412 0.72968 -0.03337
 O58 O 0.54215 0.73101 0.03330
 Cu59 Cu 0.51420 0.78768 -0.00175
 Cu60 Cu 0.51306 0.72453 0.00011
 C61 C 0.55221 0.75765 0.04397
 C62 C 0.47490 0.75589 -0.04553
 C63 C 0.46729 0.75539 0.03637
 C64 C 0.56015 0.75556 -0.03775
 O65 O 0.04128 0.47106 0.23241
 O66 O -0.02031 0.53345 0.22604
 O67 O 0.04364 0.53286 0.22597
 O68 O -0.02217 0.47156 0.23020
 O69 O -0.02273 0.47467 0.28190
 O70 O 0.04308 0.53670 0.27760
 O71 O -0.02069 0.53680 0.27771
 O72 O 0.04053 0.47468 0.28407
 Cu73 Cu 0.01070 0.50199 0.22347
 Cu74 Cu 0.01000 0.50618 0.28548
 C75 C 0.05123 0.46204 0.25942
 C76 C -0.03120 0.54563 0.25091
 C77 C 0.05476 0.54521 0.25096
 C78 C -0.03359 0.46241 0.25669
 O79 O 0.02973 0.52297 0.77760
 O80 O -0.03692 0.46285 0.76885
 O81 O 0.02642 0.46136 0.77101
 O82 O -0.03413 0.52425 0.77645
 O83 O -0.03260 0.53141 0.72496
 O84 O 0.02826 0.46851 0.71954
 O85 O -0.03523 0.46994 0.71736
 O86 O 0.03092 0.53023 0.72612
 Cu87 Cu -0.00386 0.49222 0.77865
 Cu88 Cu -0.00198 0.50077 0.71684
 C89 C 0.04172 0.53691 0.75329
 C90 C -0.04738 0.45601 0.74156
 C91 C 0.03761 0.45403 0.74438
 C92 C -0.04385 0.53852 0.75166
 C93 C 0.26532 0.25477 0.19923
 C94 C 0.28664 0.25355 0.17377
 C95 C 0.31894 0.24402 0.17817
 C96 C 0.32956 0.23560 0.20866
 C97 C 0.30827 0.23710 0.23420
 C98 C 0.27607 0.24710 0.22979
 C99 C 0.34127 0.24498 0.15086
 C100 C 0.36730 0.22647 0.14874
 C101 C 0.38957 0.22802 0.12139
 C102 C 0.40548 0.20040 0.11268
 C103 C 0.42683 0.20110 0.08711
 C104 C 0.43319 0.22967 0.07009
 C105 C 0.41770 0.25749 0.07915
 C106 C 0.39604 0.25668 0.10451
 H107 H 0.24050 0.26220 0.19517
 H108 H 0.27791 0.26021 0.15054
 H109 H 0.35454 0.22895 0.21307
 H110 H 0.31722 0.23139 0.25756
 H111 H 0.33517 0.26064 0.13128
 H112 H 0.37163 0.20844 0.16673
 H113 H 0.40113 0.17813 0.12554
 H114 H 0.43861 0.17932 0.08086
 H115 H 0.42226 0.27988 0.06662
 H116 H 0.38491 0.27864 0.11120
 C117 C 0.74751 0.74456 0.19852
 C118 C 0.72532 0.74301 0.17352
 C119 C 0.69213 0.74883 0.17828
 C120 C 0.68141 0.75588 0.20869
 C121 C 0.70355 0.75711 0.23374
 C122 C 0.73682 0.75130 0.22899
 C123 C 0.66920 0.74623 0.15140
 C124 C 0.64200 0.76319 0.14906
 C125 C 0.61940 0.76108 0.12191
 C126 C 0.60191 0.78805 0.11293
 C127 C 0.58028 0.78696 0.08748
 C128 C 0.57519 0.75861 0.07087
 C129 C 0.59221 0.73136 0.08025
 C130 C 0.61421 0.73259 0.10547
 H131 H 0.77306 0.74035 0.19413
 H132 H 0.73413 0.73744 0.15034
 H133 H 0.65584 0.75961 0.21337
 H134 H 0.69459 0.76196 0.25703
 H135 H 0.67596 0.73118 0.13220
 H136 H 0.63700 0.78072 0.16664
 H137 H 0.60527 0.81016 0.12544
 H138 H 0.56732 0.80828 0.08098
 H139 H 0.58866 0.70915 0.06798
 H140 H 0.62666 0.71112 0.11237
 C141 C 0.68621 0.27958 -0.23581
 C142 C 0.66174 0.27903 -0.21299
 C143 C 0.65224 0.25036 -0.19763
 C144 C 0.66673 0.22187 -0.20667
 C145 C 0.69123 0.22246 -0.22951
 C146 C 0.70153 0.25138 -0.24394
 C147 C 0.62737 0.25132 -0.17241
 C148 C 0.62457 0.22922 -0.14928
 C149 C 0.60071 0.23080 -0.12328
 C150 C 0.59081 0.20234 -0.10782
 C151 C 0.56895 0.20266 -0.08272
 C152 C 0.55678 0.23158 -0.07221
 C153 C 0.56698 0.26018 -0.08741
 C154 C 0.58874 0.25984 -0.11268
 H155 H 0.69357 0.30210 -0.24689
 H156 H 0.65072 0.30123 -0.20679
 H157 H 0.65931 0.19908 -0.19631
 H158 H 0.70267 0.20042 -0.23547
 H159 H 0.61165 0.27164 -0.17251
 H160 H 0.64020 0.20884 -0.14909
 H161 H 0.59992 0.17971 -0.11530
 H162 H 0.56173 0.18020 -0.07143
 H163 H 0.55821 0.28286 -0.07973
 H164 H 0.59662 0.28239 -0.12330
 C165 C 0.27196 0.73915 -0.18930
 C166 C 0.29617 0.73650 -0.16622
 C167 C 0.32908 0.74322 -0.17353
 C168 C 0.33748 0.75189 -0.20465
 C169 C 0.31328 0.75423 -0.22781
 C170 C 0.28025 0.74803 -0.22035
 C171 C 0.35398 0.74031 -0.14837
 C172 C 0.38172 0.75808 -0.14803
 C173 C 0.40569 0.75659 -0.12193
 C174 C 0.42418 0.78415 -0.11476
 C175 C 0.44664 0.78388 -0.08995
 C176 C 0.45153 0.75582 -0.07216
 C177 C 0.43366 0.72794 -0.07987
 C178 C 0.41087 0.72833 -0.10447
 H179 H 0.24668 0.73439 -0.18292
 H180 H 0.28911 0.72961 -0.14247
 H181 H 0.36272 0.75628 -0.21133
 H182 H 0.32036 0.76055 -0.25167
 H183 H 0.34812 0.72468 -0.12849
 H184 H 0.38599 0.77610 -0.16625
 H185 H 0.42085 0.80611 -0.12807
 H186 H 0.46023 0.80568 -0.08476
 H187 H 0.43703 0.70592 -0.06669
 H188 H 0.39766 0.70642 -0.10998
 C189 C 0.24434 0.30796 0.24669
 C190 C 0.22309 0.33343 0.24575
 C191 C 0.19074 0.32931 0.25618
 C192 C 0.17998 0.29911 0.26762
 C193 C 0.20119 0.27356 0.26832
 C194 C 0.23346 0.27764 0.25752
 C195 C 0.16849 0.35642 0.25310
 C196 C 0.14251 0.35982 0.27169
 C197 C 0.12001 0.38664 0.26800
 C198 C 0.10354 0.39724 0.29450
 C199 C 0.08157 0.42205 0.29177
 C200 C 0.07518 0.43639 0.26232
 C201 C 0.09140 0.42553 0.23569
 C202 C 0.11364 0.40093 0.23848
 H203 H 0.26921 0.31178 0.23857
 H204 H 0.23191 0.35642 0.23675
 H205 H 0.15495 0.29482 0.27504
 H206 H 0.19215 0.25034 0.27644
 H207 H 0.17456 0.37478 0.23566
 H208 H 0.13828 0.34329 0.29123
 H209 H 0.10780 0.38638 0.31742
 H210 H 0.06927 0.42970 0.31270
 H211 H 0.08683 0.43597 0.21266
 H212 H 0.12520 0.39270 0.21741
 C213 C 0.19655 0.73653 0.74812
 C214 C 0.17089 0.71393 0.74660
 C215 C 0.17650 0.68152 0.75246
 C216 C 0.20847 0.67199 0.75941
 C217 C 0.23420 0.69456 0.76057
 C218 C 0.22852 0.72707 0.75495
 C219 C 0.14891 0.65819 0.74957
 C220 C 0.14723 0.63047 0.76580
 C221 C 0.11974 0.60710 0.76230
 C222 C 0.11077 0.58726 0.78796
 C223 C 0.08517 0.56467 0.78522
 C224 C 0.06847 0.56109 0.75651
 C225 C 0.07781 0.58065 0.73070
 C226 C 0.10313 0.60344 0.73355
 H227 H 0.19150 0.76145 0.74389
 H228 H 0.14652 0.72181 0.74098
 H229 H 0.21384 0.64708 0.76311
 H230 H 0.25871 0.68662 0.76538
 H231 H 0.12867 0.66483 0.73455
 H232 H 0.16574 0.62524 0.78328
 H233 H 0.12344 0.58943 0.81025
 H234 H 0.07869 0.54979 0.80547
 H235 H 0.06554 0.57836 0.70822
 H236 H 0.11007 0.61769 0.71302
 C237 C -0.18360 0.73815 0.26873
 C238 C -0.15845 0.71633 0.27044
 C239 C -0.16363 0.68495 0.26036
 C240 C -0.19484 0.67545 0.24947
 C241 C -0.22008 0.69720 0.24805
 C242 C -0.21462 0.72889 0.25728
 C243 C -0.13642 0.66249 0.26258
 C244 C -0.13346 0.63795 0.24316
 C245 C -0.10640 0.61529 0.24550
 C246 C -0.09690 0.59928 0.21850
 C247 C -0.07208 0.57705 0.22006
 C248 C -0.05660 0.57003 0.24882
 C249 C -0.06626 0.58593 0.27589
 C250 C -0.09090 0.60830 0.27428
 H251 H -0.17876 0.76241 0.27603
 H252 H -0.13472 0.72410 0.27925
 H253 H -0.20003 0.65113 0.24260
 H254 H -0.24398 0.68925 0.23988
 H255 H -0.11745 0.66742 0.27976
 H256 H -0.15062 0.63503 0.22392
 H257 H -0.10869 0.60404 0.19612
 H258 H -0.06534 0.56504 0.19883
 H259 H -0.05498 0.58091 0.29845
 H260 H -0.09825 0.61942 0.29577
 C261 C -0.23413 0.28508 0.76715
 C262 C -0.20990 0.30892 0.77021
 C263 C -0.19700 0.32495 0.74357
 C264 C -0.20936 0.31704 0.71368
 C265 C -0.23369 0.29321 0.71066
 C266 C -0.24623 0.27698 0.73735
 C267 C -0.17143 0.35017 0.74820
 C268 C -0.14997 0.35972 0.72593
 C269 C -0.12407 0.38458 0.73086
 C270 C -0.11063 0.40063 0.70448
 C271 C -0.08589 0.42394 0.70794
 C272 C -0.07383 0.43155 0.73792
 C273 C -0.08700 0.41526 0.76434
 C274 C -0.11174 0.39194 0.76089
 H275 H -0.24335 0.27278 0.78805
 H276 H -0.20098 0.31466 0.79349
 H277 H -0.20093 0.32953 0.69264
 H278 H -0.24307 0.28764 0.68752
 H279 H -0.17014 0.36069 0.77119
 H280 H -0.15130 0.34928 0.70290
 H281 H -0.11944 0.39522 0.68109
 H282 H -0.07617 0.43595 0.68707
 H283 H -0.07799 0.42032 0.78774
 H284 H -0.12050 0.37939 0.78177
 C285 C 0.25747 0.23761 0.31313
 C286 C 0.25742 0.21520 0.33789
 C287 C 0.25385 0.18251 0.33192
 C288 C 0.25120 0.17252 0.30060
 C289 C 0.25173 0.19494 0.27583
 C290 C 0.25467 0.22764 0.28193
 C291 C 0.25416 0.15941 0.35866
 C292 C 0.23713 0.13164 0.35856
 C293 C 0.23731 0.10859 0.38536
 C294 C 0.20949 0.08906 0.39107
 C295 C 0.20912 0.06661 0.41583
 C296 C 0.23688 0.06280 0.43495
 C297 C 0.26487 0.08213 0.42899
 C298 C 0.26508 0.10487 0.40452
 H299 H 0.26002 0.26275 0.31822
 H300 H 0.25983 0.22341 0.36179
 H301 H 0.24930 0.14744 0.29517
 H302 H 0.24963 0.18686 0.25188
 H303 H 0.26740 0.16636 0.37964
 H304 H 0.22117 0.12623 0.33889
 H305 H 0.18792 0.09131 0.37644
 H306 H 0.18728 0.05190 0.41968
 H307 H 0.28669 0.07966 0.44323
 H308 H 0.28724 0.11895 0.40021
 C309 C 0.76202 0.21614 0.70344
 C310 C 0.76483 0.19306 0.68048
 C311 C 0.73708 0.18123 0.66459
 C312 C 0.70633 0.19344 0.67180
 C313 C 0.70356 0.21669 0.69469
 C314 C 0.73136 0.22827 0.71076
 C315 C 0.74154 0.15714 0.64005
 C316 C 0.71799 0.13629 0.63109
 C317 C 0.72260 0.11196 0.60670
 C318 C 0.69482 0.09812 0.59238
 C319 C 0.69792 0.07513 0.56930
 C320 C 0.72897 0.06535 0.56009
 C321 C 0.75678 0.07879 0.57473
 C322 C 0.75368 0.10168 0.59787
 H323 H 0.78381 0.22445 0.71563
 H324 H 0.78880 0.18421 0.67527
 H325 H 0.68449 0.18574 0.65939
 H326 H 0.67974 0.22601 0.69959
 H327 H 0.76553 0.15655 0.62955
 H328 H 0.69405 0.13700 0.64174
 H329 H 0.67058 0.10532 0.59891
 H330 H 0.67599 0.06515 0.55856
 H331 H 0.78104 0.07149 0.56845
 H332 H 0.77575 0.11068 0.60900
 C333 C 0.26621 -0.19295 0.74075
 C334 C 0.26712 -0.16822 0.71821
 C335 C 0.25817 -0.17403 0.68693
 C336 C 0.24937 -0.20533 0.67833
 C337 C 0.24878 -0.23009 0.70079
 C338 C 0.25686 -0.22412 0.73231
 C339 C 0.25902 -0.14724 0.66371
 C340 C 0.23879 -0.14605 0.63886
 C341 C 0.23906 -0.11927 0.61561
 C342 C 0.21021 -0.11273 0.59907
 C343 C 0.20966 -0.08822 0.57635
 C344 C 0.23817 -0.07004 0.56932
 C345 C 0.26716 -0.07675 0.58570
 C346 C 0.26762 -0.10108 0.60864
 H347 H 0.27244 -0.18771 0.76490
 H348 H 0.27428 -0.14437 0.72533
 H349 H 0.24341 -0.21087 0.65421
 H350 H 0.24210 -0.25401 0.69358
 H351 H 0.27547 -0.12720 0.66833
 H352 H 0.22010 -0.16459 0.63616
 H353 H 0.18797 -0.12659 0.60381
 H354 H 0.18699 -0.08379 0.56401
 H355 H 0.28957 -0.06329 0.58070
 H356 H 0.29053 -0.10604 0.62029
 C357 C 0.75369 -0.23586 0.31120
 C358 C 0.74993 -0.21379 0.33501
 C359 C 0.74911 -0.18104 0.32777
 C360 C 0.75128 -0.17076 0.29614
 C361 C 0.75451 -0.19291 0.27230
 C362 C 0.75593 -0.22558 0.27969
 C363 C 0.74486 -0.15833 0.35350
 C364 C 0.75840 -0.12887 0.35293
 C365 C 0.75454 -0.10634 0.37889
 C366 C 0.78002 -0.08438 0.38544
 C367 C 0.77697 -0.06256 0.40960
 C368 C 0.74801 -0.06180 0.42720
 C369 C 0.72229 -0.08347 0.42031
 C370 C 0.72555 -0.10562 0.39649
 H371 H 0.75448 -0.26103 0.31722
 H372 H 0.74799 -0.22227 0.35917
 H373 H 0.74988 -0.14573 0.28974
 H374 H 0.75609 -0.18465 0.24806
 H375 H 0.73178 -0.16686 0.37426
 H376 H 0.77435 -0.12154 0.33368
 H377 H 0.80246 -0.08431 0.37199
 H378 H 0.79711 -0.04598 0.41420
 H379 H 0.69964 -0.08336 0.43340
 H380 H 0.70513 -0.12170 0.39147
 C381 C 0.71157 0.77550 -0.23050
 C382 C 0.68801 0.77749 -0.20703
 C383 C 0.69506 0.76822 -0.17595
 C384 C 0.72652 0.75743 -0.16864
 C385 C 0.75025 0.75574 -0.19213
 C386 C 0.74299 0.76464 -0.22336
 C387 C 0.66932 0.77104 -0.15183
 C388 C 0.66733 0.75233 -0.12596
 C389 C 0.64022 0.75404 -0.10311
 C390 C 0.63021 0.72628 -0.08650
 C391 C 0.60421 0.72678 -0.06531
 C392 C 0.58801 0.75526 -0.05987
 C393 C 0.59860 0.78329 -0.07587
 C394 C 0.62441 0.78271 -0.09731
 H395 H 0.70521 0.78243 -0.25436
 H396 H 0.66404 0.78603 -0.21324
 H397 H 0.73312 0.75099 -0.14474
 H398 H 0.77445 0.74793 -0.18585
 H399 H 0.65009 0.78765 -0.15681
 H400 H 0.68462 0.73348 -0.12252
 H401 H 0.64220 0.70398 -0.09033
 H402 H 0.59684 0.70483 -0.05316
 H403 H 0.58677 0.80565 -0.07201
 H404 H 0.63214 0.80477 -0.10902
 C405 C 0.27005 0.20393 -0.21208
 C406 C 0.29338 0.19988 -0.18836
 C407 C 0.30918 0.22640 -0.17483
 C408 C 0.30151 0.25718 -0.18596
 C409 C 0.27824 0.26119 -0.20972
 C410 C 0.26228 0.23462 -0.22302
 C411 C 0.33452 0.22105 -0.15040
 C412 C 0.34275 0.24280 -0.12885
 C413 C 0.36946 0.23906 -0.10549
 C414 C 0.38270 0.26667 -0.09174
 C415 C 0.40826 0.26483 -0.07007
 C416 C 0.42110 0.23521 -0.06131
 C417 C 0.40749 0.20739 -0.07451
 C418 C 0.38188 0.20924 -0.09638
 H419 H 0.25803 0.18309 -0.22198
 H420 H 0.29904 0.17594 -0.18046
 H421 H 0.31400 0.27822 -0.17709
 H422 H 0.27312 0.28504 -0.21822
 H423 H 0.34661 0.19846 -0.15053
 H424 H 0.33010 0.26511 -0.12871
 H425 H 0.37349 0.28990 -0.09812
 H426 H 0.41801 0.28674 -0.06023
 H427 H 0.41668 0.18420 -0.06804
 H428 H 0.37179 0.18727 -0.10567
 C429 C 0.32191 0.77143 0.23246
 C430 C 0.34548 0.77313 0.20877
 C431 C 0.33704 0.76619 0.17762
 C432 C 0.30431 0.75789 0.17049
 C433 C 0.28064 0.75653 0.19416
 C434 C 0.28917 0.76333 0.22540
 C435 C 0.36269 0.76892 0.15316
 C436 C 0.36216 0.75152 0.12707
 C437 C 0.38879 0.75337 0.10356
 C438 C 0.39610 0.72598 0.08687
 C439 C 0.42156 0.72666 0.06503
 C440 C 0.43983 0.75499 0.05895
 C441 C 0.43188 0.78268 0.07498
 C442 C 0.40669 0.78188 0.09715
 H443 H 0.32921 0.77656 0.25636
 H444 H 0.37048 0.77970 0.21485
 H445 H 0.29676 0.75325 0.14657
 H446 H 0.25550 0.75073 0.18801
 H447 H 0.38374 0.78436 0.15788
 H448 H 0.34289 0.73365 0.12383
 H449 H 0.38245 0.70383 0.09118
 H450 H 0.42690 0.70499 0.05287
 H451 H 0.44541 0.80490 0.07068
 H452 H 0.40105 0.80366 0.10897
 C453 C 0.68647 0.25532 0.23380
 C454 C 0.66199 0.25349 0.21089
 C455 C 0.67009 0.25026 0.17911
 C456 C 0.70324 0.24955 0.17051
 C457 C 0.72775 0.25196 0.19342
 C458 C 0.71950 0.25475 0.22520
 C459 C 0.64357 0.24945 0.15542
 C460 C 0.64518 0.23305 0.12876
 C461 C 0.61842 0.23296 0.10527
 C462 C 0.61162 0.20541 0.08795
 C463 C 0.58625 0.20483 0.06576
 C464 C 0.56778 0.23211 0.06000
 C465 C 0.57517 0.25988 0.07687
 C466 C 0.60012 0.26029 0.09932
 H467 H 0.67978 0.25764 0.25824
 H468 H 0.63664 0.25441 0.21800
 H469 H 0.71027 0.24788 0.14611
 H470 H 0.75317 0.25155 0.18649
 H471 H 0.62134 0.26162 0.16090
 H472 H 0.66585 0.21810 0.12469
 H473 H 0.62565 0.18418 0.09194
 H474 H 0.58125 0.18317 0.05296
 H475 H 0.56146 0.28132 0.07290
 H476 H 0.60537 0.28218 0.11166
 C477 C -0.17702 0.74466 0.74119
 C478 C -0.15476 0.72017 0.73916
 C479 C -0.16392 0.68874 0.74778
 C480 C -0.19611 0.68218 0.75811
 C481 C -0.21850 0.70671 0.75988
 C482 C -0.20918 0.73824 0.75150
 C483 C -0.13971 0.66341 0.74437
 C484 C -0.14023 0.63631 0.76165
 C485 C -0.11537 0.61155 0.75845
 C486 C -0.10793 0.59218 0.78463
 C487 C -0.08457 0.56863 0.78250
 C488 C -0.06850 0.56358 0.75394
 C489 C -0.07640 0.58257 0.72755
 C490 C -0.09956 0.60631 0.72976
 H491 H -0.16914 0.76873 0.73462
 H492 H -0.13020 0.72582 0.73094
 H493 H -0.20437 0.65808 0.76401
 H494 H -0.24332 0.70096 0.76723
 H495 H -0.11972 0.66821 0.72818
 H496 H -0.15823 0.63284 0.78008
 H497 H -0.11999 0.59553 0.80691
 H498 H -0.07923 0.55425 0.80322
 H499 H -0.06465 0.57913 0.70515
 H500 H -0.10541 0.62012 0.70883
 C501 C -0.23774 0.31228 0.23406
 C502 C -0.21377 0.33664 0.23237
 C503 C -0.18201 0.33148 0.24351
 C504 C -0.17431 0.30107 0.25541
 C505 C -0.19818 0.27659 0.25675
 C506 C -0.23031 0.28202 0.24652
 C507 C -0.15732 0.35792 0.24148
 C508 C -0.13258 0.36116 0.26204
 C509 C -0.10801 0.38776 0.26020
 C510 C -0.09246 0.39792 0.28785
 C511 C -0.06866 0.42252 0.28685
 C512 C -0.05953 0.43709 0.25805
 C513 C -0.07491 0.42670 0.23032
 C514 C -0.09890 0.40233 0.23136
 H515 H -0.26225 0.31720 0.22600
 H516 H -0.22019 0.35977 0.22279
 H517 H -0.14975 0.29597 0.26318
 H518 H -0.19154 0.25331 0.26571
 H519 H -0.16085 0.37619 0.22354
 H520 H -0.13106 0.34469 0.28190
 H521 H -0.09884 0.38687 0.31031
 H522 H -0.05710 0.42983 0.30859
 H523 H -0.06830 0.43730 0.20773
 H524 H -0.10966 0.39449 0.20946
 C525 C 0.19992 0.27042 0.78169
 C526 C 0.17773 0.29505 0.78326
 C527 C 0.17009 0.31335 0.75637
 C528 C 0.18555 0.30668 0.72779
 C529 C 0.20782 0.28207 0.72627
 C530 C 0.21527 0.26372 0.75320
 C531 C 0.14693 0.33971 0.75953
 C532 C 0.12996 0.35223 0.73541
 C533 C 0.10660 0.37848 0.73868
 C534 C 0.09767 0.39597 0.71164
 C535 C 0.07546 0.42061 0.71344
 C536 C 0.06150 0.42824 0.74237
 C537 C 0.07020 0.41060 0.76941
 C538 C 0.09233 0.38592 0.76761
 H539 H 0.20514 0.25654 0.80275
 H540 H 0.16636 0.29975 0.80560
 H541 H 0.18126 0.32082 0.70673
 H542 H 0.21976 0.27772 0.70415
 H543 H 0.14373 0.34863 0.78295
 H544 H 0.13323 0.34322 0.71203
 H545 H 0.10803 0.39062 0.68901
 H546 H 0.06918 0.43365 0.69213
 H547 H 0.05961 0.41561 0.79202
 H548 H 0.09748 0.37247 0.78890
 C549 C 0.20668 0.74655 0.25856
 C550 C 0.18191 0.72302 0.26070
 C551 C 0.18837 0.69118 0.25413
 C552 C 0.22031 0.68323 0.24563
 C553 C 0.24518 0.70677 0.24378
 C554 C 0.23865 0.73867 0.25034
 C555 C 0.16161 0.66684 0.25768
 C556 C 0.16018 0.63981 0.24138
 C557 C 0.13290 0.61599 0.24451
 C558 C 0.12441 0.59735 0.21857
 C559 C 0.09887 0.57459 0.22062
 C560 C 0.08162 0.56956 0.24890
 C561 C 0.09051 0.58782 0.27509
 C562 C 0.11584 0.61086 0.27292
 H563 H 0.20095 0.77098 0.26356
 H564 H 0.15757 0.72973 0.26742
 H565 H 0.22641 0.65878 0.24128
 H566 H 0.26973 0.70001 0.23790
 H567 H 0.14153 0.67234 0.27300
 H568 H 0.17849 0.63576 0.22369
 H569 H 0.13738 0.60064 0.19654
 H570 H 0.09281 0.56074 0.20008
 H571 H 0.07782 0.58436 0.29725
 H572 H 0.12237 0.62417 0.29366
 C573 C 0.77049 -0.17979 0.73565
 C574 C 0.77066 -0.15618 0.71200
 C575 C 0.76796 -0.16450 0.68029
 C576 C 0.76619 -0.19696 0.67254
 C577 C 0.76648 -0.22056 0.69619
 C578 C 0.76832 -0.21212 0.72789
 C579 C 0.76765 -0.13890 0.65587
 C580 C 0.75058 -0.14164 0.62907
 C581 C 0.74907 -0.11561 0.60517
 C582 C 0.72062 -0.11265 0.58698
 C583 C 0.71835 -0.08833 0.56421
 C584 C 0.74481 -0.06688 0.55872
 C585 C 0.77356 -0.07024 0.57652
 C586 C 0.77566 -0.09429 0.59960
 H587 H 0.77214 -0.17296 0.76002
 H588 H 0.77235 -0.13134 0.71849
 H589 H 0.76498 -0.20416 0.64826
 H590 H 0.76490 -0.24543 0.68988
 H591 H 0.77999 -0.11645 0.66116
 H592 H 0.73543 -0.16283 0.62534
 H593 H 0.69995 -0.12898 0.59066
 H594 H 0.69597 -0.08650 0.55070
 H595 H 0.79441 -0.05416 0.57272
 H596 H 0.79826 -0.09648 0.61266
 C597 C 0.27309 -0.18120 0.26617
 C598 C 0.27393 -0.15817 0.28948
 C599 C 0.26699 -0.16671 0.32085
 C600 C 0.26027 -0.19896 0.32871
 C601 C 0.25979 -0.22202 0.30547
 C602 C 0.26589 -0.21335 0.27392
 C603 C 0.26738 -0.14164 0.34485
 C604 C 0.24784 -0.14314 0.37009
 C605 C 0.24684 -0.11756 0.39348
 C606 C 0.21753 -0.11287 0.40951
 C607 C 0.21558 -0.08903 0.43182
 C608 C 0.24313 -0.06975 0.43901
 C609 C 0.27268 -0.07480 0.42337
 C610 C 0.27452 -0.09842 0.40074
 H611 H 0.27776 -0.17393 0.24201
 H612 H 0.27940 -0.13352 0.28291
 H613 H 0.25584 -0.20651 0.35284
 H614 H 0.25475 -0.24673 0.31207
 H615 H 0.28248 -0.12043 0.34037
 H616 H 0.23029 -0.16282 0.37273
 H617 H 0.19597 -0.12751 0.40452
 H618 H 0.19252 -0.08590 0.44364
 H619 H 0.29436 -0.06042 0.42853
 H620 H 0.29774 -0.10200 0.38940
 C621 C 0.75183 0.24424 0.30557
 C622 C 0.75189 0.22215 0.33061
 C623 C 0.74358 0.18995 0.32572
 C624 C 0.73559 0.18013 0.29514
 C625 C 0.73581 0.20216 0.27008
 C626 C 0.74409 0.23442 0.27498
 C627 C 0.74506 0.16701 0.35256
 C628 C 0.72669 0.14006 0.35423
 C629 C 0.72900 0.11654 0.38050
 C630 C 0.70166 0.09693 0.38790
 C631 C 0.70332 0.07370 0.41183
 C632 C 0.73260 0.06925 0.42852
 C633 C 0.76007 0.08875 0.42097
 C634 C 0.75831 0.11216 0.39723
 H635 H 0.75787 0.26903 0.31005
 H636 H 0.75829 0.23026 0.35391
 H637 H 0.73004 0.15533 0.29030
 H638 H 0.73008 0.19393 0.24669
 H639 H 0.76096 0.17325 0.37203
 H640 H 0.70837 0.13543 0.33633
 H641 H 0.67891 0.09963 0.37513
 H642 H 0.68179 0.05893 0.41696
 H643 H 0.78304 0.08580 0.43327
 H644 H 0.78018 0.12617 0.39154
 C645 C 0.26986 0.21103 0.71133
 C646 C 0.27094 0.19059 0.68588
 C647 C 0.24209 0.17687 0.67353
 C648 C 0.21189 0.18488 0.68663
 C649 C 0.21084 0.20540 0.71210
 C650 C 0.23983 0.21841 0.72487
 C651 C 0.24478 0.15469 0.64699
 C652 C 0.22182 0.13248 0.63989
 C653 C 0.22546 0.10925 0.61437
 C654 C 0.19721 0.09490 0.60147
 C655 C 0.19951 0.07218 0.57805
 C656 C 0.23021 0.06305 0.56721
 C657 C 0.25853 0.07724 0.58024
 C658 C 0.25623 0.10000 0.60363
 H659 H 0.29249 0.22112 0.72054
 H660 H 0.29449 0.18513 0.67606
 H661 H 0.18900 0.17573 0.67721
 H662 H 0.18742 0.21090 0.72211
 H663 H 0.26716 0.15631 0.63352
 H664 H 0.19933 0.13087 0.65316
 H665 H 0.17323 0.10134 0.60952
 H666 H 0.17721 0.06160 0.56860
 H667 H 0.28257 0.07052 0.57263
 H668 H 0.27866 0.10956 0.61367
   
