data_POSCAR
  _audit_creation_date              2014-09-24
  _audit_creation_method            'ToBaCCo'
  _symmetry_space_group_name_H-M    'P1'
  _symmetry_Int_Tables_number       1
  _symmetry_cell_setting            triclinic
  loop_
  _symmetry_equiv_pos_as_xyz
 x,y,z
_cell_length_a 22.1028
_cell_length_b 22.0141
_cell_length_c 22.4546
_cell_angle_alpha 90.255300
_cell_angle_beta 90.133800
_cell_angle_gamma 90.101300
loop_
  _atom_site_label
  _atom_site_type_symbol
  _atom_site_fract_x
  _atom_site_fract_y
  _atom_site_fract_z
N1 N 0.37574 0.37249 1.36400
 N2 N 1.13390 0.63403 0.87294
 N3 N 0.63376 -0.13515 0.14213
 N4 N -0.12054 1.12945 -0.35834
 N5 N 0.63641 0.63431 0.63300
 N6 N 0.87207 0.37454 0.13637
 N7 N 0.36918 0.12809 0.87201
 N8 N 0.13793 0.87063 0.37497
 Zn9 Zn 0.07238 0.95778 0.02451
 Zn10 Zn 0.01826 1.07001 -0.02656
 Zn11 Zn -0.04870 0.95217 -0.03666
 Zn12 Zn -0.03404 1.01584 0.08170
 O13 O 0.00187 0.99870 0.01062
 O14 O 0.13792 0.99594 -0.00519
 O15 O -0.01566 1.07340 -0.09801
 O16 O -0.01551 0.88042 -0.05631
 O17 O 0.09674 1.07982 -0.04106
 O18 O 0.07195 0.88366 -0.00788
 O19 O -0.06867 0.98839 -0.10627
 O20 O -0.10637 0.98130 0.08689
 O21 O -0.00872 1.13630 0.01250
 O22 O -0.11813 0.93325 0.00056
 O23 O -0.04758 1.09494 0.09327
 O24 O 0.00789 0.98933 0.14505
 O25 O 0.08614 0.94494 0.10180
 C26 C 0.14245 1.04619 -0.03250
 C27 C -0.05050 1.03865 -0.12741
 C28 C 0.03400 0.85602 -0.04066
 C29 C -0.13711 0.94788 0.05199
 C30 C -0.03666 1.14123 0.06164
 C31 C 0.05672 0.95928 0.14820
 Zn32 Zn 0.47080 0.02155 0.43466
 Zn33 Zn 0.45870 -0.04135 0.55188
 Zn34 Zn 0.57886 -0.03175 0.49023
 Zn35 Zn 0.52487 0.07888 0.54221
 O36 O 0.50802 0.00673 0.50515
 O37 O 0.39795 -0.01096 0.43078
 O38 O 0.49273 -0.11459 0.56847
 O39 O 0.59160 -0.04616 0.41316
 O40 O 0.38588 -0.05698 0.51728
 O41 O 0.51030 -0.00699 0.37116
 O42 O 0.58106 -0.10371 0.52343
 O43 O 0.60410 0.09094 0.55525
 O44 O 0.44203 -0.00509 0.62222
 O45 O 0.64409 0.00744 0.51755
 O46 O 0.49082 0.08256 0.61361
 O47 O 0.49769 0.14416 0.50212
 O48 O 0.45867 0.09994 0.42220
 C49 C 0.36593 -0.04174 0.46630
 C50 C 0.54454 -0.13501 0.55397
 C51 C 0.56016 -0.03500 0.36725
 C52 C 0.64982 0.05804 0.54409
 C53 C 0.45765 0.04649 0.64305
 C54 C 0.47020 0.14725 0.45252
 Zn55 Zn 0.97186 0.48257 0.57605
 Zn56 Zn 1.02235 0.42720 0.46595
 Zn57 Zn 0.95876 0.54785 0.46012
 Zn58 Zn 1.08035 0.53574 0.52024
 O59 O 1.00812 0.49853 0.50524
 O60 O 0.96093 0.40367 0.58830
 O61 O 0.98659 0.42506 0.39499
 O62 O 0.88781 0.56478 0.49702
 O63 O 0.99679 0.36135 0.50613
 O64 O 0.89926 0.51593 0.58220
 O65 O 0.93931 0.51355 0.38922
 O66 O 1.08359 0.60842 0.48728
 O67 O 1.10057 0.41575 0.44928
 O68 O 0.99450 0.62026 0.44347
 O69 O 1.14408 0.49590 0.49090
 O70 O 1.09497 0.54891 0.59761
 O71 O 1.01273 0.51088 0.63888
 C72 C 0.97207 0.35698 0.55698
 C73 C 0.95407 0.46257 0.36670
 C74 C 0.86820 0.54922 0.54800
 C75 C 1.04698 0.64005 0.45696
 C76 C 1.14730 0.44728 0.46065
 C77 C 1.06310 0.53810 0.64321
 Zn78 Zn 0.57432 0.54311 0.98157
 Zn79 Zn 0.45548 0.54734 1.04554
 Zn80 Zn 0.46486 0.48606 0.92600
 Zn81 Zn 0.52147 0.43005 1.03154
 O82 O 0.50395 0.50192 0.99613
 O83 O 0.57479 0.61705 1.01505
 O84 O 0.38410 0.56506 1.01192
 O85 O 0.50472 0.51443 0.86215
 O86 O 0.48845 0.61900 1.06494
 O87 O 0.58521 0.55726 0.90399
 O88 O 0.39133 0.51942 0.92403
 O89 O 0.49271 0.36487 0.99276
 O90 O 0.43851 0.51001 1.11475
 O91 O 0.45045 0.40698 0.91393
 O92 O 0.48961 0.42456 1.10361
 O93 O 0.60009 0.41938 1.04285
 O94 O 0.64086 0.50445 1.00936
 C95 C 0.53741 0.64403 1.04877
 C96 C 0.36193 0.55075 0.96160
 C97 C 0.55363 0.54458 0.85828
 C98 C 0.46215 0.36051 0.94509
 C99 C 0.45573 0.45883 1.13427
 C100 C 0.64588 0.45302 1.03448
 C101 C 1.31579 0.43329 0.43492
 C102 C 1.31873 0.39286 0.38694
 C103 C 1.26430 0.37625 0.35853
 C104 C 1.20833 0.39356 0.38278
 C105 C 1.20588 0.42911 0.43512
 C106 C 1.26051 0.45157 0.45816
 C107 C 1.28405 0.45023 0.52051
 C108 C 1.34445 0.42998 0.49497
 H109 H 1.26521 0.34816 0.31886
 H110 H 1.16713 0.37845 0.36107
 H111 H 1.26165 0.41496 0.54812
 H112 H 1.28575 0.49632 0.54087
 H113 H 1.35684 0.38286 0.50773
 H114 H 1.38093 0.46432 0.50075
 C115 C 0.22379 0.64785 0.93853
 C116 C 0.18627 0.61040 0.90377
 C117 C 0.20356 0.54899 0.89724
 C118 C 0.26019 0.52893 0.91787
 C119 C 0.30002 0.56939 0.94686
 C120 C 0.27891 0.62762 0.96047
 C121 C 0.30816 0.68793 0.95037
 C122 C 0.24767 0.70992 0.92636
 H123 H 0.17498 0.51741 0.87301
 H124 H 0.27386 0.48254 0.90897
 H125 H 0.34427 0.68608 0.91600
 H126 H 0.32146 0.71040 0.99286
 H127 H 0.24848 0.72063 0.87801
 H128 H 0.22617 0.74497 0.95509
 C129 C -0.28603 0.94200 0.13125
 C130 C -0.30848 0.88390 0.11828
 C131 C -0.26952 0.84376 0.08740
 C132 C -0.21411 0.86471 0.06398
 C133 C -0.19561 0.92532 0.07317
 C134 C -0.23086 0.96188 0.11017
 C135 C -0.25408 1.02475 0.10043
 C136 C -0.31475 1.00270 0.12379
 H137 H -0.28193 0.79668 0.08065
 H138 H -0.18573 0.83363 0.03912
 H139 H -0.25519 1.03744 0.05255
 H140 H -0.23178 1.05842 0.13033
 H141 H -0.35117 1.00242 0.08954
 H142 H -0.32729 1.02350 0.16723
 C143 C 0.77474 0.15275 0.61292
 C144 C 0.82389 0.11297 0.61264
 C145 C 0.81852 0.05867 0.57987
 C146 C 0.76232 0.04162 0.55494
 C147 C 0.71072 0.07878 0.56250
 C148 C 0.71937 0.13588 0.58895
 C149 C 0.68534 0.16684 0.63780
 C150 C 0.74622 0.18546 0.66383
 H151 H 0.85693 0.02850 0.57587
 H152 H 0.75868 -0.00193 0.53262
 H153 H 0.66002 0.13442 0.66633
 H154 H 0.65849 0.20595 0.62122
 H155 H 0.75620 0.16396 0.70748
 H156 H 0.75456 0.23522 0.66197
 C157 C 0.38525 0.26157 0.36077
 C158 C 0.39966 0.31704 0.38770
 C159 C 0.44501 0.31752 0.43186
 C160 C 0.46959 0.26240 0.45296
 C161 C 0.45008 0.20627 0.42892
 C162 C 0.41009 0.20775 0.38056
 C163 C 0.35265 0.17347 0.37015
 C164 C 0.32525 0.23281 0.34885
 H165 H 0.46009 0.36021 0.45091
 H166 H 0.50248 0.26366 0.48875
 H167 H 0.33218 0.15642 0.41210
 H168 H 0.35728 0.13901 0.33412
 H169 H 0.28909 0.25004 0.37878
 H170 H 0.31378 0.23244 0.30063
 C171 C 0.93428 0.18942 0.56579
 C172 C 0.90842 0.18460 0.62240
 C173 C 0.91254 0.23522 0.66077
 C174 C 0.93607 0.29064 0.64032
 C175 C 0.95580 0.29678 0.58088
 C176 C 0.95775 0.24416 0.54562
 C177 C 0.93533 0.23318 0.48374
 C178 C 0.90952 0.17330 0.50587
 H179 H 0.89468 0.23266 0.70555
 H180 H 0.93584 0.32937 0.67022
 H181 H 0.97303 0.22720 0.45157
 H182 H 0.90003 0.26626 0.47004
 H183 H 0.93231 0.13291 0.48637
 H184 H 0.85926 0.17189 0.50471
 C185 C 0.06620 0.72282 -0.14071
 C186 C 0.09821 0.68350 -0.10309
 C187 C 0.09544 0.69568 -0.04131
 C188 C 0.07178 0.75112 -0.02028
 C189 C 0.04785 0.79395 -0.06032
 C190 C 0.04092 0.77642 -0.11978
 C191 C 0.05662 0.80974 -0.17543
 C192 C 0.08431 0.75093 -0.19831
 H193 H 0.11524 0.66461 -0.00960
 H194 H 0.07503 0.76181 0.02676
 H195 H 0.09047 0.84641 -0.16776
 H196 H 0.01567 0.82367 -0.20071
 H197 H 0.13425 0.75335 -0.20380
 H198 H 0.05927 0.73097 -0.23670
 C199 C 0.56409 0.77693 1.15099
 C200 C 0.59854 0.81633 1.11571
 C201 C 0.59969 0.80448 1.05385
 C202 C 0.57745 0.74899 1.03109
 C203 C 0.55106 0.70593 1.06938
 C204 C 0.54009 0.72344 1.12822
 C205 C 0.55150 0.69009 1.18490
 C206 C 0.57786 0.74884 1.20978
 H207 H 0.62208 0.83563 1.02392
 H208 H 0.58367 0.73848 0.98433
 H209 H 0.58555 0.65332 1.17978
 H210 H 0.50874 0.67628 1.20706
 H211 H 0.62725 0.74625 1.21895
 H212 H 0.55026 0.76890 1.24621
 C213 C 0.36784 0.44318 1.27809
 C214 C 0.39557 0.39346 1.30604
 C215 C 0.44159 0.36321 1.27384
 C216 C 0.46039 0.38416 1.21792
 C217 C 0.43501 0.43687 1.19276
 C218 C 0.38698 0.46430 1.22301
 C219 C 0.37822 0.52908 1.24082
 C220 C 0.35717 0.50597 1.30103
 H221 H 0.46449 0.32408 1.29198
 H222 H 0.49638 0.36002 1.19536
 H223 H 0.34160 0.55120 1.21480
 H224 H 0.42149 0.55487 1.24304
 H225 H 0.30844 0.51474 1.30960
 H226 H 0.38815 0.51835 1.33826
 C227 C 0.56491 -0.07146 0.20248
 C228 C 0.61557 -0.10918 0.19822
 C229 C 0.65368 -0.11367 0.24836
 C230 C 0.63705 -0.08726 0.30298
 C231 C 0.58196 -0.05549 0.30851
 C232 C 0.54843 -0.04548 0.25643
 C233 C 0.48253 -0.05318 0.24386
 C234 C 0.50054 -0.08163 0.18463
 H235 H 0.69526 -0.13944 0.24559
 H236 H 0.66602 -0.09414 0.34130
 H237 H 0.45905 -0.00888 0.23888
 H238 H 0.46038 -0.08574 0.27468
 H239 H 0.48746 -0.05361 0.14563
 H240 H 0.48803 -0.13039 0.18130
 C241 C -0.14405 1.07171 -0.26561
 C242 C -0.10261 1.10240 -0.30227
 C243 C -0.04419 1.11310 -0.27875
 C244 C -0.02791 1.09238 -0.22201
 C245 C -0.06866 1.05839 -0.18744
 C246 C -0.12735 1.05013 -0.20959
 C247 C -0.16317 0.99320 -0.21688
 C248 C -0.18118 1.01624 -0.27807
 H249 H -0.01066 1.13747 -0.30436
 H250 H 0.01742 1.10158 -0.20581
 H251 H -0.20171 0.99102 -0.18526
 H252 H -0.13429 0.95190 -0.21847
 H253 H -0.23018 1.02690 -0.28186
 H254 H -0.16260 0.98809 -0.31493
 C255 C 1.06096 0.58507 0.80436
 C256 C 1.11818 0.60853 0.81587
 C257 C 1.16029 0.60582 0.76852
 C258 C 1.14319 0.58184 0.71207
 C259 C 1.08388 0.55919 0.70213
 C260 C 1.04495 0.56118 0.75078
 C261 C 0.98116 0.55044 0.76935
 C262 C 0.99963 0.57714 0.83032
 H263 H 1.20566 0.62332 0.77484
 H264 H 1.17604 0.58172 0.67638
 H265 H 0.96967 0.50129 0.77079
 H266 H 0.94870 0.57942 0.74450
 H267 H 0.99924 0.54338 0.86698
 H268 H 0.97748 0.62124 0.84052
 C269 C 0.71004 0.61494 0.55186
 C270 C 0.69406 0.61136 0.61218
 C271 C 0.73901 0.59111 0.65215
 C272 C 0.79568 0.57140 0.63120
 C273 C 0.80928 0.57169 0.56974
 C274 C 0.76624 0.59640 0.53119
 C275 C 0.73946 0.57052 0.47545
 C276 C 0.67799 0.59102 0.49824
 H277 H 0.73051 0.58999 0.69954
 H278 H 0.82858 0.55521 0.66320
 H279 H 0.74415 0.52029 0.47266
 H280 H 0.75441 0.59557 0.43520
 H281 H 0.64697 0.55275 0.50883
 H282 H 0.65771 0.62800 0.47124
 C283 C 0.80952 0.45263 1.08658
 C284 C 0.81595 0.39433 1.11034
 C285 C 0.76431 0.35700 1.11267
 C286 C 0.70951 0.37583 1.08712
 C287 C 0.70481 0.43258 1.05840
 C288 C 0.75517 0.47135 1.06110
 C289 C 0.78708 0.50389 1.01213
 C290 C 0.84633 0.48350 1.04014
 H291 H 0.76657 0.31290 1.13366
 H292 H 0.67107 0.34537 1.08927
 H293 H 0.78018 0.55384 1.01462
 H294 H 0.77839 0.48320 0.96765
 H295 H 0.87341 0.52167 1.05888
 H296 H 0.87204 0.45100 1.01191
 C297 C 0.31052 1.05765 -0.06488
 C298 C 0.31272 1.10448 -0.10666
 C299 C 0.25774 1.12647 -0.12949
 C300 C 0.20242 1.10709 -0.10548
 C301 C 0.20088 1.06466 -0.05854
 C302 C 0.25569 1.03775 -0.04161
 C303 C 0.28239 1.02983 0.01900
 C304 C 0.34224 1.05168 -0.00659
 H305 H 0.25775 1.16028 -0.16432
 H306 H 0.16098 1.12646 -0.12277
 H307 H 0.28331 0.98137 0.03265
 H308 H 0.26279 1.06157 0.05242
 H309 H 0.37755 1.01582 -0.00770
 H310 H 0.35721 1.09615 0.01195
 C311 C 0.23326 -0.07077 0.36455
 C312 C 0.19112 -0.10064 0.40063
 C313 C 0.20329 -0.10158 0.46260
 C314 C 0.25974 -0.08154 0.48523
 C315 C 0.30440 -0.05879 0.44646
 C316 C 0.28797 -0.05024 0.38690
 C317 C 0.32117 -0.06668 0.33133
 C318 C 0.26124 -0.08958 0.30683
 H319 H 0.17055 -0.12049 0.49314
 H320 H 0.26908 -0.08584 0.53238
 H321 H 0.35493 -0.10337 0.33837
 H322 H 0.33850 -0.02597 0.30768
 H323 H 0.26023 -0.13963 0.29984
 H324 H 0.24434 -0.06219 0.26880
 C325 C 0.64712 -0.26836 0.57941
 C326 C 0.61041 -0.31168 0.60691
 C327 C 0.54785 -0.29850 0.61113
 C328 C 0.52505 -0.24131 0.59342
 C329 C 0.56445 -0.19645 0.57108
 C330 C 0.62479 -0.21283 0.56164
 C331 C 0.68156 -0.18048 0.57944
 C332 C 0.70601 -0.24161 0.59913
 H333 H 0.51712 -0.33127 0.63038
 H334 H 0.47737 -0.23166 0.59897
 H335 H 0.67453 -0.14807 0.61692
 H336 H 0.70588 -0.16150 0.54043
 H337 H 0.71299 -0.24492 0.64808
 H338 H 0.74454 -0.25759 0.57151
 C339 C 1.14928 0.77416 0.42950
 C340 C 1.11255 0.81589 0.39993
 C341 C 1.05035 0.80157 0.39448
 C342 C 1.02784 0.74473 0.41364
 C343 C 1.06718 0.70122 0.43858
 C344 C 1.12729 0.71876 0.44854
 C345 C 1.18480 0.68705 0.43251
 C346 C 1.20877 0.74809 0.41165
 H347 H 1.01970 0.83333 0.37357
 H348 H 0.98039 0.73426 0.40727
 H349 H 1.17873 0.65354 0.39575
 H350 H 1.20888 0.66953 0.47240
 H351 H 1.21644 0.75023 0.36277
 H352 H 1.24652 0.76576 0.43959
 C353 C -0.08141 1.30761 0.06097
 C354 C -0.10573 1.31609 0.11776
 C355 C -0.11362 1.26454 0.15384
 C356 C -0.09105 1.20764 0.13576
 C357 C -0.06006 1.20106 0.08115
 C358 C -0.05854 1.25155 0.04334
 C359 C -0.00638 1.28013 0.01193
 C360 C -0.03163 1.34141 0.03098
 H361 H -0.13574 1.26884 0.19661
 H362 H -0.09659 1.16927 0.16527
 H363 H -0.00845 1.27254 -0.03701
 H364 H 0.03783 1.26924 0.03306
 H365 H -0.04839 1.36885 -0.00703
 H366 H -0.00202 1.36629 0.06293
 C367 C 0.42372 0.19260 0.94447
 C368 C 0.38644 0.18677 0.89454
 C369 C 0.36843 0.24008 0.86501
 C370 C 0.39299 0.29671 0.88142
 C371 C 0.43612 0.30113 0.92770
 C372 C 0.44792 0.24857 0.96083
 C373 C 0.50707 0.22067 0.97768
 C374 C 0.48034 0.15951 0.95982
 H375 H 0.33818 0.23735 0.82712
 H376 H 0.37965 0.33655 0.85657
 H377 H 0.51621 0.22460 1.02625
 H378 H 0.54479 0.23555 0.94845
 H379 H 0.47397 0.12837 0.99813
 H380 H 0.50249 0.13887 0.92020
 C381 C 0.57532 0.56258 0.69203
 C382 C 0.61239 0.61389 0.68879
 C383 C 0.62360 0.64691 0.74142
 C384 C 0.60441 0.62422 0.79669
 C385 C 0.57239 0.56882 0.80009
 C386 C 0.55514 0.54078 0.74653
 C387 C 0.56278 0.47629 0.72702
 C388 C 0.58478 0.50038 0.66746
 H389 H 0.64977 0.68849 0.73986
 H390 H 0.61569 0.64934 0.83679
 H391 H 0.51877 0.45198 0.72379
 H392 H 0.59843 0.45216 0.75267
 H393 H 0.55336 0.49008 0.63003
 H394 H 0.63323 0.49035 0.65856
 C395 C 0.36522 0.05846 0.78441
 C396 C 0.39198 0.10755 0.81487
 C397 C 0.43944 0.13840 0.78552
 C398 C 0.46034 0.11874 0.72965
 C399 C 0.43557 0.06678 0.70182
 C400 C 0.38639 0.03865 0.72944
 C401 C 0.37693 -0.02654 0.74477
 C402 C 0.35379 -0.00497 0.80489
 H403 H 0.46150 0.17717 0.80590
 H404 H 0.49724 0.14334 0.70915
 H405 H 0.42006 -0.05231 0.74765
 H406 H 0.34123 -0.04803 0.71676
 H407 H 0.38347 -0.01821 0.84272
 H408 H 0.30479 -0.01413 0.81149
 C409 C 0.13180 0.86381 0.26590
 C410 C 0.11556 0.89269 0.31896
 C411 C 0.08630 0.94933 0.31514
 C412 C 0.06740 0.97201 0.25943
 C413 C 0.07961 0.93938 0.20658
 C414 C 0.11487 0.88686 0.21109
 C415 C 0.10465 0.82480 0.18579
 C416 C 0.12324 0.79966 0.24614
 H417 H 0.07660 0.97486 0.35529
 H418 H 0.04253 1.01431 0.25779
 H419 H 0.13734 0.81378 0.14979
 H420 H 0.05637 0.81611 0.17451
 H421 H 0.16668 0.77433 0.24491
 H422 H 0.08572 0.77640 0.26982
 C423 C 0.94934 0.38633 0.21651
 C424 C 0.89370 0.40195 0.19131
 C425 C 0.85853 0.44397 0.22510
 C426 C 0.87866 0.46592 0.28149
 C427 C 0.93397 0.44585 0.30621
 C428 C 0.96786 0.40667 0.27084
 C429 C 1.02456 0.37040 0.27033
 C430 C 1.00389 0.34714 0.20882
 H431 H 0.81467 0.45864 0.20943
 H432 H 0.84993 0.49654 0.30649
 H433 H 1.02474 0.33466 0.30514
 H434 H 1.06564 0.39955 0.26878
 H435 H 0.99313 0.29786 0.20871
 H436 H 1.03319 0.36267 0.17172
   
