data_POSCAR
  _audit_creation_date              2014-09-24
  _audit_creation_method            'ToBaCCo'
  _symmetry_space_group_name_H-M    'P1'
  _symmetry_Int_Tables_number       1
  _symmetry_cell_setting            triclinic
  loop_
  _symmetry_equiv_pos_as_xyz
 x,y,z
_cell_length_a 47.5528
_cell_length_b 47.5572
_cell_length_c 40.3920
_cell_angle_alpha 89.963300
_cell_angle_beta 89.965600
_cell_angle_gamma 90.041300
loop_
  _atom_site_label
  _atom_site_type_symbol
  _atom_site_fract_x
  _atom_site_fract_y
  _atom_site_fract_z
O1 O 0.02709 0.30311 -0.03135
 O2 O -0.02807 0.30299 0.03297
 O3 O 0.02689 0.30306 0.03312
 O4 O -0.02787 0.30313 -0.03152
 O5 O -0.02778 0.25663 -0.03146
 O6 O 0.02678 0.25656 0.03296
 O7 O -0.02797 0.25649 0.03279
 O8 O 0.02696 0.25660 -0.03129
 Cu9 Cu -0.00049 0.30779 0.00082
 Cu10 Cu -0.00051 0.25190 0.00075
 C11 C 0.03640 0.27982 -0.04204
 C12 C -0.03741 0.27967 0.04361
 C13 C 0.03616 0.27975 0.04381
 C14 C -0.03714 0.27984 -0.04227
 O15 O 0.47269 0.80256 0.53247
 O16 O 0.52750 0.80255 0.46780
 O17 O 0.47253 0.80255 0.46799
 O18 O 0.52766 0.80246 0.53228
 O19 O 0.52748 0.75596 0.53216
 O20 O 0.47257 0.75605 0.46810
 O21 O 0.52733 0.75605 0.46790
 O22 O 0.47272 0.75606 0.53236
 Cu23 Cu 0.50011 0.80724 0.50014
 Cu24 Cu 0.50002 0.75136 0.50013
 C25 C 0.46338 0.77926 0.54320
 C26 C 0.53674 0.77925 0.45706
 C27 C 0.46318 0.77926 0.45732
 C28 C 0.53695 0.77914 0.54294
 O29 O 0.97252 0.69818 -0.03352
 O30 O 1.02752 0.69802 0.03091
 O31 O 0.97256 0.69806 0.03096
 O32 O 1.02749 0.69808 -0.03358
 O33 O 1.02748 0.74458 -0.03342
 O34 O 0.97276 0.74456 0.03090
 O35 O 1.02751 0.74452 0.03085
 O36 O 0.97271 0.74467 -0.03335
 Cu37 Cu 1.00002 0.69337 -0.00132
 Cu38 Cu 1.00013 0.74926 -0.00126
 C39 C 0.96324 0.72150 -0.04418
 C40 C 1.03686 0.72130 0.04163
 C41 C 0.96332 0.72136 0.04170
 C42 C 1.03684 0.72138 -0.04426
 O43 O 0.52738 0.19635 0.53240
 O44 O 0.47255 0.19620 0.46784
 O45 O 0.52751 0.19639 0.46793
 O46 O 0.47242 0.19626 0.53233
 O47 O 0.47244 0.24277 0.53216
 O48 O 0.52731 0.24289 0.46800
 O49 O 0.47257 0.24270 0.46790
 O50 O 0.52719 0.24286 0.53224
 Cu51 Cu 0.49997 0.19159 0.50013
 Cu52 Cu 0.49987 0.24748 0.50007
 C53 C 0.53661 0.21968 0.54308
 C54 C 0.46324 0.21948 0.45709
 C55 C 0.53678 0.21972 0.45723
 C56 C 0.46307 0.21955 0.54299
 O57 O 0.69703 0.02719 -0.03180
 O58 O 0.69707 -0.02795 0.03253
 O59 O 0.69702 0.02701 0.03267
 O60 O 0.69702 -0.02776 -0.03195
 O61 O 0.74353 -0.02761 -0.03189
 O62 O 0.74353 0.02696 0.03250
 O63 O 0.74358 -0.02779 0.03236
 O64 O 0.74353 0.02713 -0.03174
 Cu65 Cu 0.69232 -0.00038 0.00037
 Cu66 Cu 0.74822 -0.00032 0.00030
 C67 C 0.72033 0.03654 -0.04250
 C68 C 0.72039 -0.03725 0.04318
 C69 C 0.72033 0.03631 0.04335
 C70 C 0.72032 -0.03700 -0.04270
 O71 O 0.19754 0.52709 0.46785
 O72 O 0.19763 0.47229 0.53254
 O73 O 0.19757 0.52726 0.53234
 O74 O 0.19768 0.47213 0.46807
 O75 O 0.24419 0.47235 0.46815
 O76 O 0.24408 0.52727 0.53221
 O77 O 0.24414 0.47251 0.53241
 O78 O 0.24405 0.52711 0.46794
 Cu79 Cu 0.19290 0.49968 0.50020
 Cu80 Cu 0.24879 0.49982 0.50018
 C81 C 0.22083 0.53642 0.45711
 C82 C 0.22095 0.46307 0.54326
 C83 C 0.22086 0.53664 0.54300
 C84 C 0.22101 0.46286 0.45740
 O85 O 0.30172 1.02834 0.03234
 O86 O 0.30180 0.97331 -0.03206
 O87 O 0.30173 1.02828 -0.03215
 O88 O 0.30188 0.97338 0.03242
 O89 O 0.25537 0.97335 0.03238
 O90 O 0.25523 1.02805 -0.03197
 O91 O 0.25529 0.97330 -0.03188
 O92 O 0.25522 1.02810 0.03230
 Cu93 Cu 0.30649 1.00084 0.00013
 Cu94 Cu 0.25060 1.00069 0.00021
 C95 C 0.27840 1.03758 0.04307
 C96 C 0.27850 0.96394 -0.04271
 C97 C 0.27841 1.03751 -0.04283
 C98 C 0.27860 0.96402 0.04316
 O99 O 0.80367 0.52765 0.53179
 O100 O 0.80351 0.47281 0.46725
 O101 O 0.80354 0.52777 0.46731
 O102 O 0.80351 0.47270 0.53173
 O103 O 0.75700 0.47285 0.53171
 O104 O 0.75703 0.52770 0.46753
 O105 O 0.75700 0.47295 0.46746
 O106 O 0.75716 0.52760 0.53178
 Cu107 Cu 0.80827 0.50023 0.49951
 Cu108 Cu 0.75237 0.50028 0.49963
 C109 C 0.78039 0.53695 0.54255
 C110 C 0.78018 0.46355 0.45660
 C111 C 0.78023 0.53710 0.45667
 C112 C 0.78019 0.46341 0.54246
 O113 O 0.24427 0.20529 0.24013
 O114 O 0.22916 0.26685 0.29253
 O115 O 0.20582 0.24403 0.24055
 O116 O 0.26759 0.22811 0.29216
 O117 O 0.29405 0.25459 0.25961
 O118 O 0.23227 0.27051 0.20799
 O119 O 0.25561 0.29333 0.25997
 O120 O 0.27073 0.23178 0.20759
 Cu121 Cu 0.23404 0.23340 0.26963
 Cu122 Cu 0.26584 0.26522 0.23050
 C123 C 0.25985 0.20820 0.21486
 C124 C 0.24002 0.29043 0.28524
 C125 C 0.20867 0.25977 0.21540
 C126 C 0.29119 0.23886 0.28476
 O127 O 0.75533 0.79455 0.23945
 O128 O 0.77104 0.73294 0.29155
 O129 O 0.79402 0.75606 0.23945
 O130 O 0.73233 0.77143 0.29154
 O131 O 0.70592 0.74488 0.25909
 O132 O 0.76761 0.72950 0.20701
 O133 O 0.74462 0.70639 0.25910
 O134 O 0.72892 0.76800 0.20699
 Cu135 Cu 0.76584 0.76642 0.26877
 Cu136 Cu 0.73410 0.73452 0.22977
 C137 C 0.73967 0.79162 0.21426
 C138 C 0.76029 0.70932 0.28428
 C139 C 0.79117 0.74038 0.21428
 C140 C 0.70877 0.76055 0.28427
 O141 O 0.79438 0.24454 0.23999
 O142 O 0.73280 0.22903 0.29229
 O143 O 0.75578 0.20590 0.24027
 O144 O 0.77140 0.26767 0.29203
 O145 O 0.74487 0.29404 0.25952
 O146 O 0.72925 0.23228 0.20776
 O147 O 0.70627 0.25540 0.25978
 O148 O 0.76785 0.27092 0.20748
 Cu149 Cu 0.76627 0.23413 0.26943
 Cu150 Cu 0.73439 0.26582 0.23035
 C151 C 0.79146 0.26016 0.21476
 C152 C 0.70920 0.23977 0.28501
 C153 C 0.74006 0.20872 0.21513
 C154 C 0.76058 0.29123 0.28467
 O155 O 0.27081 0.76787 0.20774
 O156 O 0.25527 0.70594 0.25942
 O157 O 0.23227 0.72919 0.20743
 O158 O 0.29383 0.74462 0.25969
 O159 O 0.26727 0.77088 0.29230
 O160 O 0.20571 0.75544 0.24003
 O161 O 0.22871 0.73220 0.29202
 O162 O 0.24425 0.79413 0.24035
 Cu163 Cu 0.26572 0.73426 0.23028
 Cu164 Cu 0.23381 0.76581 0.26947
 C165 C 0.25995 0.79140 0.21516
 C166 C 0.23957 0.70868 0.28461
 C167 C 0.20865 0.73991 0.21474
 C168 C 0.29089 0.76016 0.28497
 O169 O 0.77102 0.26757 0.70768
 O170 O 0.75547 0.20600 0.75995
 O171 O 0.73242 0.22892 0.70784
 O172 O 0.79404 0.24466 0.75982
 O173 O 0.76754 0.27115 0.79222
 O174 O 0.70592 0.25541 0.74025
 O175 O 0.72897 0.23249 0.79236
 O176 O 0.74452 0.29407 0.74009
 Cu177 Cu 0.76591 0.23411 0.73055
 Cu178 Cu 0.73406 0.26596 0.76950
 C179 C 0.76021 0.29117 0.71491
 C180 C 0.73979 0.20890 0.78513
 C181 C 0.70882 0.23969 0.71513
 C182 C 0.79113 0.26037 0.78495
 O183 O 0.29368 0.74482 0.74068
 O184 O 0.23176 0.72930 0.79239
 O185 O 0.25506 0.70620 0.74051
 O186 O 0.27037 0.76793 0.79255
 O187 O 0.24407 0.79435 0.75984
 O188 O 0.22876 0.73263 0.70780
 O189 O 0.20546 0.75573 0.75968
 O190 O 0.26738 0.77125 0.70797
 Cu191 Cu 0.26537 0.73440 0.76983
 Cu192 Cu 0.23376 0.76616 0.73053
 C193 C 0.29092 0.76045 0.71544
 C194 C 0.20821 0.74009 0.78492
 C195 C 0.23953 0.70905 0.71521
 C196 C 0.25961 0.79151 0.78514
 O197 O 0.27084 0.23193 0.79297
 O198 O 0.25557 0.29367 0.74093
 O199 O 0.23243 0.27070 0.79301
 O200 O 0.29398 0.25489 0.74086
 O201 O 0.26736 0.22855 0.70842
 O202 O 0.20581 0.24436 0.76056
 O203 O 0.22895 0.26732 0.70848
 O204 O 0.24422 0.20559 0.76052
 Cu205 Cu 0.26589 0.26545 0.77022
 Cu206 Cu 0.23390 0.23380 0.73122
 C207 C 0.25991 0.20839 0.78569
 C208 C 0.23987 0.29086 0.71576
 C209 C 0.20878 0.26001 0.78574
 C210 C 0.29101 0.23925 0.71568
 O211 O 0.79479 0.75578 0.75967
 O212 O 0.73306 0.77092 0.70758
 O213 O 0.75597 0.79414 0.75959
 O214 O 0.77186 0.73254 0.70767
 O215 O 0.74552 0.70595 0.74022
 O216 O 0.72962 0.76754 0.79214
 O217 O 0.70671 0.74432 0.74013
 O218 O 0.76845 0.72919 0.79223
 Cu219 Cu 0.76658 0.76602 0.73034
 Cu220 Cu 0.73492 0.73406 0.76946
 C221 C 0.79199 0.74012 0.78490
 C222 C 0.70952 0.75999 0.71491
 C223 C 0.74030 0.79118 0.78478
 C224 C 0.76117 0.70890 0.71502
 C225 C 0.27499 0.10026 0.11000
 C226 C 0.27491 0.09084 0.14637
 C227 C 0.27258 0.11254 0.16826
 C228 C 0.27057 0.14150 0.15162
 C229 C 0.24564 0.13915 0.12768
 C230 C 0.24796 0.11750 0.10583
 C231 C 0.29899 0.12178 0.10744
 C232 C 0.29666 0.14347 0.12933
 C233 C 0.27712 0.07707 0.08619
 C234 C 0.27810 0.05833 0.06613
 C235 C 0.26769 0.16499 0.17492
 C236 C 0.26454 0.18458 0.19349
 H237 H 0.27657 0.06907 0.15422
 H238 H 0.27225 0.10935 0.19488
 H239 H 0.22770 0.15327 0.12787
 H240 H 0.23201 0.11309 0.08731
 H241 H 0.31629 0.12010 0.09001
 H242 H 0.31197 0.16037 0.13065
 C243 C 0.77696 0.60080 0.61069
 C244 C 0.75488 0.62271 0.60063
 C245 C 0.75248 0.64440 0.62240
 C246 C 0.77240 0.64212 0.65216
 C247 C 0.80190 0.63929 0.63706
 C248 C 0.80430 0.61755 0.61524
 C249 C 0.76848 0.59153 0.64572
 C250 C 0.76608 0.61326 0.66753
 C251 C 0.77915 0.57758 0.58697
 C252 C 0.78014 0.55883 0.56695
 C253 C 0.76941 0.66564 0.67534
 C254 C 0.76611 0.68526 0.69381
 H255 H 0.74222 0.62131 0.57832
 H256 H 0.73777 0.66157 0.61873
 H257 H 0.81936 0.65311 0.64302
 H258 H 0.82382 0.61274 0.60250
 H259 H 0.76475 0.56981 0.65278
 H260 H 0.76029 0.61017 0.69328
 C261 C 0.72391 0.89986 0.10989
 C262 C 0.72225 0.90896 0.14631
 C263 C 0.72467 0.88718 0.16811
 C264 C 0.72850 0.85847 0.15132
 C265 C 0.75418 0.86206 0.12868
 C266 C 0.75176 0.88379 0.10692
 C267 C 0.70094 0.87740 0.10593
 C268 C 0.70336 0.85563 0.12773
 C269 C 0.72169 0.92314 0.08618
 C270 C 0.72069 0.94194 0.06618
 C271 C 0.73150 0.83491 0.17451
 C272 C 0.73479 0.81527 0.19299
 H273 H 0.71939 0.93057 0.15426
 H274 H 0.72388 0.89013 0.19474
 H275 H 0.77266 0.84870 0.12964
 H276 H 0.76818 0.88903 0.08927
 H277 H 0.68424 0.87852 0.08767
 H278 H 0.68873 0.83810 0.12813
 C279 C 0.22448 0.39916 0.61144
 C280 C 0.22488 0.40847 0.64782
 C281 C 0.22725 0.38670 0.66963
 C282 C 0.22899 0.35778 0.65289
 C283 C 0.25376 0.36006 0.62867
 C284 C 0.25139 0.38179 0.60690
 C285 C 0.20035 0.37778 0.60909
 C286 C 0.20272 0.35602 0.63089
 C287 C 0.22230 0.42242 0.58771
 C288 C 0.22128 0.44119 0.56769
 C289 C 0.23191 0.33421 0.67607
 C290 C 0.23512 0.31456 0.69453
 H291 H 0.22339 0.43023 0.65575
 H292 H 0.22779 0.38980 0.69625
 H293 H 0.27162 0.34585 0.62862
 H294 H 0.26723 0.38618 0.58822
 H295 H 0.18293 0.37960 0.59187
 H296 H 0.18733 0.33919 0.63235
 C297 C 0.89969 0.27604 0.11031
 C298 C 0.88046 0.30195 0.11127
 C299 C 0.85869 0.29948 0.13308
 C300 C 0.85830 0.27135 0.15176
 C301 C 0.88737 0.26917 0.16808
 C302 C 0.90914 0.27163 0.14628
 C303 C 0.88003 0.25123 0.10288
 C304 C 0.85831 0.24877 0.12464
 C305 C 0.92297 0.27829 0.08660
 C306 C 0.94178 0.27933 0.06661
 C307 C 0.83474 0.26832 0.17495
 C308 C 0.81510 0.26502 0.19345
 H309 H 0.88368 0.32059 0.09620
 H310 H 0.84326 0.31601 0.13669
 H311 H 0.89057 0.26602 0.19444
 H312 H 0.93099 0.27059 0.15396
 H313 H 0.88292 0.23684 0.08230
 H314 H 0.84260 0.23227 0.12269
 C315 C 0.39941 0.77583 0.61133
 C316 C 0.38276 0.80322 0.61586
 C317 C 0.36096 0.80087 0.63765
 C318 C 0.35798 0.77137 0.65273
 C319 C 0.38678 0.76497 0.66815
 C320 C 0.40857 0.76732 0.64637
 C321 C 0.37743 0.75382 0.60123
 C322 C 0.35568 0.75147 0.62296
 C323 C 0.42269 0.77798 0.58763
 C324 C 0.44148 0.77897 0.56761
 C325 C 0.33438 0.76846 0.67588
 C326 C 0.31468 0.76525 0.69430
 H327 H 0.38769 0.82272 0.60314
 H328 H 0.34721 0.81837 0.64359
 H329 H 0.38979 0.75916 0.69390
 H330 H 0.43025 0.76352 0.65346
 H331 H 0.37882 0.74116 0.57892
 H332 H 0.33844 0.73682 0.61927
 C333 C 0.10071 0.72465 0.10989
 C334 C 0.12596 0.70587 0.10145
 C335 C 0.14764 0.70819 0.12334
 C336 C 0.14196 0.72908 0.15153
 C337 C 0.11438 0.71905 0.16743
 C338 C 0.09267 0.71672 0.14553
 C339 C 0.11284 0.75449 0.11235
 C340 C 0.13449 0.75681 0.13420
 C341 C 0.07751 0.72252 0.08609
 C342 C 0.05877 0.72155 0.06603
 C343 C 0.16545 0.73197 0.17483
 C344 C 0.18503 0.73516 0.19339
 H345 H 0.12672 0.69193 0.08019
 H346 H 0.16698 0.69625 0.12083
 H347 H 0.11210 0.71418 0.19356
 H348 H 0.07181 0.70985 0.15289
 H349 H 0.10508 0.77226 0.09816
 H350 H 0.14527 0.77657 0.13872
 C351 C 0.60056 0.22347 0.61108
 C352 C 0.59352 0.24138 0.64158
 C353 C 0.61528 0.24390 0.66331
 C354 C 0.64195 0.22827 0.65242
 C355 C 0.64859 0.23971 0.61775
 C356 C 0.62685 0.23719 0.59604
 C357 C 0.61074 0.19522 0.62505
 C358 C 0.63253 0.19774 0.64681
 C359 C 0.57729 0.22115 0.58743
 C360 C 0.55851 0.22005 0.56745
 C361 C 0.66551 0.23137 0.67553
 C362 C 0.68516 0.23473 0.69395
 H363 H 0.57321 0.25118 0.64577
 H364 H 0.61362 0.25586 0.68612
 H365 H 0.66863 0.24896 0.61083
 H366 H 0.62828 0.24429 0.57054
 H367 H 0.60164 0.17505 0.61846
 H368 H 0.64210 0.17973 0.65887
 C369 C 0.72393 0.10063 0.88952
 C370 C 0.69786 0.11963 0.88824
 C371 C 0.70032 0.14142 0.86646
 C372 C 0.72860 0.14204 0.84810
 C373 C 0.73117 0.11299 0.83182
 C374 C 0.72872 0.09121 0.85361
 C375 C 0.74851 0.12051 0.89723
 C376 C 0.75096 0.14224 0.87548
 C377 C 0.72168 0.07734 0.91321
 C378 C 0.72063 0.05852 0.93318
 C379 C 0.73162 0.16561 0.82492
 C380 C 0.73492 0.18525 0.80643
 H381 H 0.67913 0.11625 0.90310
 H382 H 0.68368 0.15670 0.86264
 H383 H 0.73458 0.10981 0.80551
 H384 H 0.73002 0.06937 0.84595
 H385 H 0.76275 0.11775 0.91797
 H386 H 0.76730 0.15810 0.87762
 C387 C 0.22421 0.60031 0.38887
 C388 C 0.19770 0.61863 0.38676
 C389 C 0.20004 0.64039 0.36494
 C390 C 0.22866 0.64168 0.34739
 C391 C 0.23231 0.61265 0.33133
 C392 C 0.22997 0.59089 0.35315
 C393 C 0.24810 0.62082 0.39716
 C394 C 0.25044 0.64254 0.37538
 C395 C 0.22207 0.57705 0.41262
 C396 C 0.22109 0.55829 0.43266
 C397 C 0.23157 0.66525 0.32419
 C398 C 0.23478 0.68493 0.30576
 H399 H 0.17875 0.61482 0.40110
 H400 H 0.18310 0.65523 0.36057
 H401 H 0.23633 0.60947 0.30514
 H402 H 0.23198 0.56906 0.34566
 H403 H 0.26199 0.61850 0.41832
 H404 H 0.26633 0.65882 0.37789
 C405 C 0.27503 0.89987 0.88934
 C406 C 0.27089 0.90929 0.85330
 C407 C 0.26852 0.88751 0.83154
 C408 C 0.27051 0.85845 0.84797
 C409 C 0.24774 0.85855 0.87491
 C410 C 0.25011 0.88029 0.89663
 C411 C 0.30089 0.88057 0.88863
 C412 C 0.29851 0.85878 0.86687
 C413 C 0.27721 0.92317 0.91300
 C414 C 0.27822 0.94198 0.93296
 C415 C 0.26758 0.83486 0.82482
 C416 C 0.26437 0.81520 0.80637
 H417 H 0.26996 0.93114 0.84555
 H418 H 0.26555 0.89068 0.80516
 H419 H 0.23119 0.84289 0.87678
 H420 H 0.23559 0.88325 0.91708
 H421 H 0.31944 0.88375 0.90384
 H422 H 0.31503 0.84330 0.86344
 C423 C 0.77648 0.39960 0.38860
 C424 C 0.77928 0.40851 0.35221
 C425 C 0.77682 0.38672 0.33046
 C426 C 0.77181 0.35819 0.34728
 C427 C 0.74569 0.36251 0.36901
 C428 C 0.74814 0.38425 0.39071
 C429 C 0.79873 0.37659 0.39349
 C430 C 0.79627 0.35481 0.37175
 C431 C 0.77875 0.42287 0.41225
 C432 C 0.77982 0.44165 0.43223
 C433 C 0.76878 0.33461 0.32418
 C434 C 0.76547 0.31494 0.30579
 H435 H 0.78292 0.43002 0.34423
 H436 H 0.77835 0.38955 0.30385
 H437 H 0.72688 0.34961 0.36748
 H438 H 0.73144 0.38997 0.40776
 H439 H 0.81500 0.37735 0.41231
 H440 H 0.81043 0.33691 0.37195
 C441 C 0.10051 0.27617 0.89001
 C442 C 0.09145 0.27779 0.85358
 C443 C 0.11324 0.27529 0.83180
 C444 C 0.14192 0.27141 0.84863
 C445 C 0.13825 0.24578 0.87132
 C446 C 0.11651 0.24828 0.89305
 C447 C 0.12302 0.29908 0.89394
 C448 C 0.14481 0.29658 0.87217
 C449 C 0.07722 0.27847 0.91368
 C450 C 0.05839 0.27953 0.93364
 C451 C 0.16550 0.26833 0.82547
 C452 C 0.18513 0.26497 0.80700
 H453 H 0.06985 0.28069 0.84559
 H454 H 0.11030 0.27605 0.80517
 H455 H 0.15158 0.22727 0.87041
 H456 H 0.11123 0.23190 0.91073
 H457 H 0.12193 0.31582 0.91217
 H458 H 0.16237 0.31117 0.87175
 C459 C 0.60060 0.77583 0.38880
 C460 C 0.59125 0.77567 0.35242
 C461 C 0.61299 0.77333 0.33057
 C462 C 0.64193 0.77140 0.34726
 C463 C 0.63957 0.74651 0.37130
 C464 C 0.61787 0.74883 0.39311
 C465 C 0.62207 0.79986 0.39130
 C466 C 0.64381 0.79753 0.36945
 C467 C 0.57737 0.77797 0.41257
 C468 C 0.55861 0.77896 0.43262
 C469 C 0.66547 0.76850 0.32403
 C470 C 0.68510 0.76531 0.30553
 H471 H 0.56949 0.77728 0.34453
 H472 H 0.60987 0.77295 0.30395
 H473 H 0.65372 0.72859 0.37120
 H474 H 0.61344 0.73292 0.41168
 H475 H 0.62033 0.81720 0.40865
 H476 H 0.66069 0.81287 0.36809
 C477 C 0.90036 0.72496 0.88916
 C478 C 0.90972 0.73120 0.85352
 C479 C 0.88793 0.73353 0.83175
 C480 C 0.85894 0.72938 0.84777
 C481 C 0.85785 0.75085 0.87610
 C482 C 0.87959 0.74852 0.89782
 C483 C 0.88229 0.69826 0.88667
 C484 C 0.86050 0.70059 0.86490
 C485 C 0.92365 0.72282 0.91284
 C486 C 0.94245 0.72183 0.93282
 C487 C 0.83535 0.73227 0.82461
 C488 C 0.81568 0.73543 0.80615
 H489 H 0.93153 0.73354 0.84603
 H490 H 0.89108 0.73787 0.80562
 H491 H 0.84142 0.76652 0.87886
 H492 H 0.88178 0.76220 0.91918
 H493 H 0.88629 0.67921 0.90072
 H494 H 0.84583 0.68354 0.86030
 C495 C 0.39940 0.22295 0.38893
 C496 C 0.40880 0.22992 0.35349
 C497 C 0.38706 0.23235 0.33168
 C498 C 0.35807 0.22758 0.34748
 C499 C 0.35663 0.24854 0.37629
 C500 C 0.37833 0.24611 0.39806
 C501 C 0.38168 0.19609 0.38574
 C502 C 0.35994 0.19852 0.36392
 C503 C 0.42262 0.22073 0.41265
 C504 C 0.44137 0.21973 0.43268
 C505 C 0.33454 0.23059 0.32431
 C506 C 0.31489 0.23392 0.30589
 H507 H 0.43060 0.23265 0.34616
 H508 H 0.39024 0.23716 0.30567
 H509 H 0.34000 0.26395 0.37935
 H510 H 0.38027 0.25945 0.41975
 H511 H 0.38587 0.17685 0.39936
 H512 H 0.34549 0.18137 0.35885
 C513 C 0.72403 0.89922 0.88910
 C514 C 0.74373 0.90561 0.85992
 C515 C 0.74625 0.88391 0.83811
 C516 C 0.72882 0.85794 0.84761
 C517 C 0.69856 0.86877 0.85132
 C518 C 0.69604 0.89050 0.87316
 C519 C 0.73569 0.87220 0.90468
 C520 C 0.73821 0.85053 0.88290
 C521 C 0.72171 0.92242 0.91283
 C522 C 0.72064 0.94115 0.93287
 C523 C 0.73193 0.83444 0.82442
 C524 C 0.73531 0.81482 0.80597
 H525 H 0.75469 0.92545 0.85664
 H526 H 0.75937 0.88516 0.81615
 H527 H 0.68073 0.86015 0.83796
 H528 H 0.67604 0.90050 0.87852
 H529 H 0.74144 0.87025 0.93059
 H530 H 0.74611 0.83002 0.89015
 C531 C 0.22461 0.39873 0.38954
 C532 C 0.23197 0.40801 0.35416
 C533 C 0.23436 0.38622 0.33242
 C534 C 0.22915 0.35730 0.34819
 C535 C 0.19998 0.35948 0.36430
 C536 C 0.19759 0.38128 0.38605
 C537 C 0.24747 0.37742 0.39896
 C538 C 0.24986 0.35567 0.37725
 C539 C 0.22240 0.42203 0.41318
 C540 C 0.22136 0.44086 0.43312
 C541 C 0.23210 0.33371 0.32504
 C542 C 0.23529 0.31408 0.30655
 H543 H 0.23499 0.42977 0.34683
 H544 H 0.23943 0.38932 0.30646
 H545 H 0.18272 0.34521 0.35905
 H546 H 0.17829 0.38567 0.39944
 H547 H 0.26065 0.37925 0.42080
 H548 H 0.26508 0.33889 0.38051
 C549 C 0.27503 0.10022 0.89024
 C550 C 0.25061 0.12026 0.89794
 C551 C 0.24831 0.14195 0.87612
 C552 C 0.27065 0.14154 0.84869
 C553 C 0.26784 0.11246 0.83252
 C554 C 0.27014 0.09073 0.85438
 C555 C 0.30124 0.11905 0.88884
 C556 C 0.29894 0.14079 0.86698
 C557 C 0.27713 0.07699 0.91402
 C558 C 0.27809 0.05824 0.93408
 C559 C 0.26779 0.16507 0.82545
 C560 C 0.26463 0.18471 0.80695
 H561 H 0.23636 0.11764 0.91873
 H562 H 0.23209 0.15791 0.87823
 H563 H 0.26439 0.10923 0.80623
 H564 H 0.26867 0.06887 0.84682
 H565 H 0.31996 0.11559 0.90365
 H566 H 0.31569 0.15596 0.86306
 C567 C 0.77649 0.60111 0.38862
 C568 C 0.75240 0.62137 0.39694
 C569 C 0.74988 0.64309 0.37519
 C570 C 0.77168 0.64248 0.34718
 C571 C 0.76831 0.61343 0.33109
 C572 C 0.77084 0.59167 0.35289
 C573 C 0.80283 0.61972 0.38652
 C574 C 0.80030 0.64148 0.36472
 C575 C 0.77882 0.57785 0.41232
 C576 C 0.77990 0.55905 0.43232
 C577 C 0.76858 0.66603 0.32399
 C578 C 0.76522 0.68567 0.30553
 H579 H 0.73852 0.61888 0.41810
 H580 H 0.73384 0.65918 0.37772
 H581 H 0.76434 0.61023 0.30490
 H582 H 0.76904 0.56983 0.34536
 H583 H 0.82180 0.61610 0.40084
 H584 H 0.81711 0.65650 0.36036
 C585 C 0.09969 0.72474 0.88899
 C586 C 0.09045 0.73225 0.85366
 C587 C 0.11225 0.73458 0.83189
 C588 C 0.14114 0.72918 0.84761
 C589 C 0.13876 0.69998 0.86360
 C590 C 0.11695 0.69764 0.88538
 C591 C 0.12115 0.74746 0.89847
 C592 C 0.14291 0.74979 0.87674
 C593 C 0.07640 0.72261 0.91268
 C594 C 0.05760 0.72166 0.93269
 C595 C 0.16475 0.73208 0.82447
 C596 C 0.18445 0.73529 0.80606
 H597 H 0.06871 0.73540 0.84638
 H598 H 0.10919 0.73974 0.80596
 H599 H 0.15292 0.68266 0.85827
 H600 H 0.11243 0.67833 0.89870
 H601 H 0.11941 0.76059 0.92036
 H602 H 0.15980 0.76491 0.88003
 C603 C 0.60089 0.22358 0.38928
 C604 C 0.59190 0.23380 0.35482
 C605 C 0.61368 0.23634 0.33306
 C606 C 0.64231 0.22841 0.34791
 C607 C 0.63844 0.19844 0.36133
 C608 C 0.61664 0.19590 0.38310
 C609 C 0.62359 0.24445 0.40048
 C610 C 0.64534 0.24699 0.37876
 C611 C 0.57759 0.22122 0.41295
 C612 C 0.55876 0.22010 0.43291
 C613 C 0.66589 0.23153 0.32476
 C614 C 0.68554 0.23488 0.30629
 H615 H 0.57032 0.23856 0.34808
 H616 H 0.61077 0.24329 0.30769
 H617 H 0.65161 0.18078 0.35433
 H618 H 0.61114 0.17606 0.39475
 H619 H 0.62268 0.25621 0.42349
 H620 H 0.66304 0.26093 0.38317
 C621 C 0.89912 0.27628 0.88945
 C622 C 0.90866 0.27077 0.85372
 C623 C 0.88696 0.26832 0.83186
 C624 C 0.85787 0.27162 0.84790
 C625 C 0.85884 0.30017 0.86559
 C626 C 0.88055 0.30262 0.88745
 C627 C 0.87882 0.25215 0.89760
 C628 C 0.85716 0.24971 0.87579
 C629 C 0.92231 0.27852 0.91322
 C630 C 0.94102 0.27955 0.93328
 C631 C 0.83438 0.26859 0.82467
 C632 C 0.81477 0.26528 0.80618
 H633 H 0.93052 0.26901 0.84624
 H634 H 0.89022 0.26446 0.80565
 H635 H 0.84385 0.31699 0.86129
 H636 H 0.88415 0.32153 0.90189
 H637 H 0.88124 0.23820 0.91870
 H638 H 0.84103 0.23366 0.87820
 C639 C 0.39910 0.77574 0.38937
 C640 C 0.40852 0.76990 0.35366
 C641 C 0.38675 0.76750 0.33188
 C642 C 0.35772 0.77117 0.34796
 C643 C 0.35900 0.79984 0.36537
 C644 C 0.38077 0.80224 0.38716
 C645 C 0.37859 0.75186 0.39780
 C646 C 0.35687 0.74946 0.37606
 C647 C 0.42239 0.77795 0.41306
 C648 C 0.44120 0.77897 0.43302
 C649 C 0.33416 0.76821 0.32477
 C650 C 0.31453 0.76497 0.30628
 H651 H 0.43035 0.76788 0.34614
 H652 H 0.38994 0.76342 0.30570
 H653 H 0.34415 0.81675 0.36095
 H654 H 0.38457 0.82121 0.40140
 H655 H 0.38092 0.73803 0.41902
 H656 H 0.34060 0.73358 0.37867
 C657 C 0.27527 0.89997 0.11119
 C658 C 0.26684 0.90910 0.14627
 C659 C 0.26451 0.88728 0.16801
 C660 C 0.27086 0.85850 0.15253
 C661 C 0.30033 0.86147 0.13738
 C662 C 0.30266 0.88330 0.11562
 C663 C 0.25322 0.87803 0.10110
 C664 C 0.25090 0.85625 0.12281
 C665 C 0.27740 0.92329 0.08752
 C666 C 0.27836 0.94209 0.06754
 C667 C 0.26796 0.83487 0.17564
 C668 C 0.26475 0.81516 0.19404
 H669 H 0.26307 0.93077 0.15341
 H670 H 0.25875 0.89026 0.19378
 H671 H 0.31783 0.84769 0.14325
 H672 H 0.32215 0.88822 0.10285
 H673 H 0.24052 0.87947 0.07883
 H674 H 0.23621 0.83904 0.11912
 C675 C 0.77640 0.39938 0.61051
 C676 C 0.79084 0.37227 0.59888
 C677 C 0.78831 0.35052 0.62066
 C678 C 0.77158 0.35800 0.65195
 C679 C 0.74329 0.36915 0.63924
 C680 C 0.74583 0.39088 0.61749
 C681 C 0.78913 0.40556 0.64467
 C682 C 0.78659 0.38379 0.66648
 C683 C 0.77874 0.42265 0.58680
 C684 C 0.77985 0.44145 0.56681
 C685 C 0.76846 0.33445 0.67514
 C686 C 0.76511 0.31481 0.69362
 H687 H 0.80211 0.37033 0.57560
 H688 H 0.79740 0.32995 0.61604
 H689 H 0.72303 0.36073 0.64671
 H690 H 0.72773 0.40106 0.60632
 H691 H 0.79926 0.42527 0.65115
 H692 H 0.79454 0.38484 0.69164
 C693 C 0.72401 0.10028 0.11132
 C694 C 0.69867 0.12028 0.11112
 C695 C 0.70117 0.14208 0.13284
 C696 C 0.72874 0.14172 0.15259
 C697 C 0.75209 0.14089 0.12637
 C698 C 0.74960 0.11913 0.10470
 C699 C 0.72708 0.09089 0.14751
 C700 C 0.72957 0.11269 0.16923
 C701 C 0.72172 0.07699 0.08769
 C702 C 0.72065 0.05820 0.06773
 C703 C 0.73181 0.16531 0.17566
 C704 C 0.73514 0.18500 0.19402
 H705 H 0.68039 0.11754 0.09537
 H706 H 0.68501 0.15802 0.13569
 H707 H 0.76910 0.15608 0.12494
 H708 H 0.76449 0.11570 0.08472
 H709 H 0.72724 0.06906 0.15539
 H710 H 0.73186 0.10954 0.19571
 C711 C 0.22426 0.60072 0.61094
 C712 C 0.23186 0.59145 0.64623
 C713 C 0.23420 0.61323 0.66800
 C714 C 0.22871 0.64213 0.65233
 C715 C 0.19948 0.63972 0.63645
 C716 C 0.19714 0.61793 0.61467
 C717 C 0.24693 0.62223 0.60137
 C718 C 0.24927 0.64397 0.62310
 C719 C 0.22212 0.57743 0.58726
 C720 C 0.22113 0.55861 0.56730
 C721 C 0.23161 0.66571 0.67550
 C722 C 0.23479 0.68536 0.69396
 H723 H 0.23507 0.56971 0.65350
 H724 H 0.23941 0.61014 0.69391
 H725 H 0.18215 0.65384 0.64186
 H726 H 0.17780 0.61339 0.60143
 H727 H 0.26001 0.62054 0.57942
 H728 H 0.26435 0.66089 0.61975
 C729 C 0.89939 0.72487 0.10986
 C730 C 0.88213 0.69776 0.11371
 C731 C 0.86037 0.70014 0.13554
 C732 C 0.85804 0.72940 0.15135
 C733 C 0.85621 0.74991 0.12208
 C734 C 0.87792 0.74752 0.10030
 C735 C 0.90871 0.73251 0.14511
 C736 C 0.88696 0.73490 0.16693
 C737 C 0.92264 0.72267 0.08613
 C738 C 0.94141 0.72166 0.06610
 C739 C 0.83449 0.73235 0.17455
 C740 C 0.81485 0.73559 0.19303
 H741 H 0.88663 0.67840 0.10050
 H742 H 0.84623 0.68283 0.14103
 H743 H 0.83931 0.76499 0.11874
 H744 H 0.87961 0.76057 0.07831
 H745 H 0.93047 0.73572 0.15231
 H746 H 0.89009 0.74015 0.19282
 C747 C 0.39909 0.22317 0.61112
 C748 C 0.38175 0.19612 0.61504
 C749 C 0.36001 0.19861 0.63689
 C750 C 0.35778 0.22791 0.65264
 C751 C 0.35600 0.24837 0.62333
 C752 C 0.37769 0.24589 0.60154
 C753 C 0.40846 0.23084 0.64635
 C754 C 0.38673 0.23333 0.66819
 C755 C 0.42234 0.22089 0.58738
 C756 C 0.44112 0.21983 0.56736
 C757 C 0.33425 0.23098 0.67588
 C758 C 0.31464 0.23432 0.69439
 H759 H 0.38617 0.17673 0.60187
 H760 H 0.34581 0.18136 0.64243
 H761 H 0.33915 0.26351 0.61998
 H762 H 0.37941 0.25889 0.57952
 H763 H 0.43024 0.23399 0.65353
 H764 H 0.38989 0.23861 0.69407
 C765 C 0.10016 0.27603 0.11174
 C766 C 0.09822 0.29621 0.14132
 C767 C 0.12006 0.29370 0.16302
 C768 C 0.14163 0.27125 0.15296
 C769 C 0.15081 0.27938 0.11779
 C770 C 0.12901 0.28189 0.09613
 C771 C 0.10273 0.24663 0.12712
 C772 C 0.12452 0.24412 0.14877
 C773 C 0.07685 0.27833 0.08814
 C774 C 0.05806 0.27941 0.06818
 C775 C 0.16525 0.26815 0.17600
 C776 C 0.18494 0.26477 0.19433
 H777 H 0.08123 0.31114 0.14489
 H778 H 0.12178 0.30647 0.18520
 H779 H 0.17252 0.28290 0.11055
 H780 H 0.13205 0.28756 0.07033
 H781 H 0.08864 0.22929 0.12153
 H782 H 0.12909 0.22464 0.16172
 C783 C 0.60109 0.77551 0.61080
 C784 C 0.62371 0.75450 0.59978
 C785 C 0.64547 0.75209 0.62147
 C786 C 0.64255 0.77091 0.65212
 C787 C 0.61390 0.76317 0.66713
 C788 C 0.59210 0.76558 0.64540
 C789 C 0.61695 0.80320 0.61664
 C790 C 0.63876 0.80078 0.63837
 C791 C 0.57778 0.77774 0.58716
 C792 C 0.55894 0.77880 0.56723
 C793 C 0.66615 0.76794 0.67524
 C794 C 0.68582 0.76473 0.69368
 H795 H 0.62273 0.74256 0.57690
 H796 H 0.66312 0.73808 0.61716
 H797 H 0.61098 0.75642 0.69259
 H798 H 0.57051 0.76091 0.65225
 H799 H 0.61152 0.82296 0.60479
 H800 H 0.65201 0.81847 0.64515
   
