data_POSCAR
  _audit_creation_date              2014-09-24
  _audit_creation_method            'ToBaCCo'
  _symmetry_space_group_name_H-M    'P1'
  _symmetry_Int_Tables_number       1
  _symmetry_cell_setting            triclinic
  loop_
  _symmetry_equiv_pos_as_xyz
 x,y,z
_cell_length_a 25.2066
_cell_length_b 15.6634
_cell_length_c 15.6632
_cell_angle_alpha 89.797500
_cell_angle_beta 90.128200
_cell_angle_gamma 89.863900
loop_
  _atom_site_label
  _atom_site_type_symbol
  _atom_site_fract_x
  _atom_site_fract_y
  _atom_site_fract_z
O1 O 0.07514 0.14494 0.15752
 O2 O 0.13342 0.06874 0.07512
 C3 C 0.12289 0.12312 0.13499
 O4 O -0.07429 -0.15821 0.14712
 O5 O -0.13264 -0.07535 0.07039
 C6 C -0.12208 -0.13545 0.12498
 O7 O 0.07492 -0.15119 0.15656
 O8 O 0.13271 -0.07380 0.07504
 C9 C 0.12278 -0.12938 0.13455
 O10 O -0.07379 0.15418 0.15018
 O11 O -0.13196 0.07284 0.07300
 C12 C -0.12151 0.13205 0.12811
 Zr13 Zr 0.00043 0.10544 0.10923
 O14 O -0.00543 0.10318 0.24406
 O15 O 0.00640 0.24023 0.11057
 Zr16 Zr 0.00056 -0.11015 0.10764
 O17 O -0.00541 -0.11216 0.24243
 O18 O 0.00674 -0.24497 0.10560
 O19 O 0.04787 -0.00256 0.12532
 O20 O -0.04565 -0.00244 0.12407
 O21 O -0.07395 0.15742 -0.14670
 O22 O -0.13200 0.07453 -0.07074
 C23 C -0.12160 0.13482 -0.12502
 O24 O 0.07449 -0.14778 -0.15721
 O25 O 0.13259 -0.07214 -0.07432
 C26 C 0.12215 -0.12612 -0.13454
 O27 O -0.07380 -0.15600 -0.14915
 O28 O -0.13198 -0.07461 -0.07199
 C29 C -0.12153 -0.13373 -0.12721
 O30 O 0.07495 0.14831 -0.15396
 O31 O 0.13337 0.07035 -0.07247
 C32 C 0.12277 0.12595 -0.13170
 Zr33 Zr 0.00023 0.10782 -0.10643
 O34 O -0.00594 0.10827 -0.24128
 O35 O 0.00622 0.24261 -0.10587
 Zr36 Zr 0.00043 -0.10778 -0.10781
 O37 O -0.00578 -0.10636 -0.24263
 O38 O 0.00673 -0.24261 -0.10749
 Zr39 Zr 0.07945 -0.00101 0.00078
 Zr40 Zr -0.07877 -0.00100 0.00060
 O41 O -0.04587 0.00025 -0.12277
 O42 O 0.04767 0.00019 -0.12386
 O43 O -0.04707 0.12348 0.00148
 O44 O 0.04675 -0.12449 -0.00011
 O45 O 0.04639 0.12243 0.00158
 O46 O -0.04690 -0.12565 -0.00028
 H47 H -0.06961 -0.00291 0.17413
 H48 H 0.07086 -0.17455 -0.00041
 H49 H -0.06989 0.00083 -0.17294
 H50 H 0.07038 0.17245 0.00196
 H51 H -0.02372 -0.26694 0.07246
 H52 H -0.02319 -0.26525 -0.07360
 H53 H 0.02321 -0.07012 -0.26476
 H54 H 0.02454 0.07559 -0.26390
 H55 H -0.02295 0.26481 -0.07007
 H56 H -0.02296 0.26320 0.07530
 H57 H 0.02489 0.06955 0.26624
 H58 H 0.02351 -0.07622 0.26522
 O59 O 0.57430 0.64971 0.65377
 O60 O 0.63285 0.57209 0.57263
 C61 C 0.62189 0.62724 0.63146
 O62 O 0.42594 0.34474 0.64924
 O63 O 0.36736 0.42630 0.57140
 C64 C 0.37838 0.36720 0.62671
 O65 O 0.57467 0.35390 0.65665
 O66 O 0.63305 0.43034 0.57383
 C67 C 0.62217 0.37603 0.63377
 O68 O 0.42556 0.65845 0.64579
 O69 O 0.36713 0.57587 0.56967
 C70 C 0.37807 0.63564 0.62377
 Zr71 Zr 0.49970 0.60909 0.60570
 O72 O 0.49373 0.60911 0.74052
 O73 O 0.50560 0.74390 0.60438
 Zr74 Zr 0.49991 0.39358 0.60793
 O75 O 0.49396 0.39519 0.74273
 O76 O 0.50629 0.25877 0.60903
 O77 O 0.54716 0.50144 0.62376
 O78 O 0.45357 0.50146 0.62221
 O79 O 0.42446 0.65560 0.34925
 O80 O 0.36617 0.57396 0.42706
 C81 C 0.37693 0.63303 0.37171
 O82 O 0.57406 0.35068 0.34392
 O83 O 0.63224 0.42813 0.42549
 C84 C 0.62151 0.37304 0.36656
 O85 O 0.42594 0.34274 0.35186
 O86 O 0.36732 0.42533 0.42758
 C87 C 0.37840 0.36545 0.37369
 O88 O 0.57338 0.64835 0.34067
 O89 O 0.63190 0.57216 0.42391
 C90 C 0.62091 0.62631 0.36379
 Zr91 Zr 0.49938 0.60789 0.39008
 O92 O 0.49316 0.60710 0.25527
 O93 O 0.50515 0.74274 0.38984
 Zr94 Zr 0.49995 0.39220 0.39222
 O95 O 0.49378 0.39259 0.25736
 O96 O 0.50628 0.25738 0.39396
 Zr97 Zr 0.57889 0.50073 0.49927
 Zr98 Zr 0.42043 0.50065 0.49873
 O99 O 0.45348 0.49986 0.37541
 O100 O 0.54708 0.50000 0.37461
 O101 O 0.45212 0.62521 0.49765
 O102 O 0.54609 0.37729 0.50040
 O103 O 0.54568 0.62414 0.49783
 O104 O 0.45255 0.37615 0.50008
 H105 H 0.42966 0.50180 0.67232
 H106 H 0.57013 0.32715 0.50099
 H107 H 0.42946 0.49951 0.32526
 H108 H 0.56959 0.67425 0.49744
 H109 H 0.47669 0.23603 0.57443
 H110 H 0.47685 0.23516 0.42922
 H111 H 0.52385 0.42616 0.23474
 H112 H 0.52248 0.57146 0.23319
 H113 H 0.47475 0.76528 0.42265
 H114 H 0.47641 0.76609 0.56826
 H115 H 0.52381 0.57529 0.76329
 H116 H 0.52386 0.42946 0.76481
 C117 C 0.25421 0.24337 0.26118
 C118 C 0.20220 0.26487 0.28362
 C119 C 0.15941 0.22527 0.24315
 C120 C 0.16815 0.16362 0.17951
 C121 C 0.22069 0.14194 0.15798
 C122 C 0.26338 0.18165 0.19857
 C123 C 0.29814 0.28573 0.30135
 C124 C 0.33486 0.32184 0.33457
 H125 H 0.19471 0.31265 0.33201
 H126 H 0.11954 0.24347 0.26134
 H127 H 0.22890 0.09468 0.10943
 H128 H 0.30353 0.16459 0.18075
 C129 C 0.74591 0.73856 0.24353
 C130 C 0.79781 0.71621 0.26652
 C131 C 0.84088 0.75661 0.22757
 C132 C 0.83251 0.82008 0.16511
 C133 C 0.78009 0.84151 0.14200
 C134 C 0.73715 0.80101 0.18103
 C135 C 0.70163 0.69852 0.28509
 C136 C 0.66461 0.66545 0.32058
 H137 H 0.80498 0.66794 0.31493
 H138 H 0.88064 0.73852 0.24685
 H139 H 0.77213 0.88991 0.09408
 H140 H 0.69712 0.81878 0.16280
 C141 C 0.74679 0.26243 0.75530
 C142 C 0.73779 0.19940 0.81702
 C143 C 0.78059 0.15830 0.85648
 C144 C 0.83306 0.17974 0.83456
 C145 C 0.84164 0.24379 0.77288
 C146 C 0.79874 0.28477 0.73352
 C147 C 0.70274 0.30310 0.71319
 C148 C 0.66587 0.33664 0.67725
 H149 H 0.69769 0.18165 0.83427
 H150 H 0.77250 0.10945 0.90377
 H151 H 0.88145 0.26192 0.75452
 H152 H 0.80608 0.33348 0.68573
 C153 C 0.25362 0.75581 0.73765
 C154 C 0.26270 0.81689 0.80091
 C155 C 0.21995 0.85577 0.84215
 C156 C 0.16745 0.83389 0.82062
 C157 C 0.15880 0.77282 0.75638
 C158 C 0.20164 0.73405 0.71527
 C159 C 0.29763 0.71429 0.69681
 C160 C 0.33443 0.67876 0.66316
 H161 H 0.30283 0.83411 0.81873
 H162 H 0.22810 0.90260 0.89115
 H163 H 0.11896 0.75452 0.73816
 H164 H 0.19423 0.68674 0.66640
 C165 C 0.25405 0.24679 0.74172
 C166 C 0.26328 0.18430 0.80410
 C167 C 0.22062 0.14464 0.84499
 C168 C 0.16801 0.16705 0.82402
 C169 C 0.15921 0.22964 0.76078
 C170 C 0.20195 0.26919 0.72002
 C171 C 0.29800 0.28869 0.70073
 C172 C 0.33475 0.32428 0.66676
 H173 H 0.30345 0.16647 0.82142
 H174 H 0.22893 0.09668 0.89320
 H175 H 0.11932 0.24845 0.74297
 H176 H 0.19436 0.31752 0.67183
 C177 C 0.74669 0.74105 0.75184
 C178 C 0.79870 0.71925 0.72949
 C179 C 0.84163 0.75952 0.76909
 C180 C 0.83309 0.82236 0.83166
 C181 C 0.78057 0.84341 0.85402
 C182 C 0.73774 0.80302 0.81433
 C183 C 0.70253 0.70059 0.70996
 C184 C 0.66562 0.66701 0.67440
 H185 H 0.80608 0.67137 0.68117
 H186 H 0.88145 0.74169 0.75032
 H187 H 0.77245 0.89131 0.90198
 H188 H 0.69764 0.82040 0.83214
 C189 C 0.25153 0.75319 0.25724
 C190 C 0.26020 0.81457 0.19386
 C191 C 0.21728 0.85422 0.15311
 C192 C 0.16443 0.83309 0.17496
 C193 C 0.15649 0.77129 0.23974
 C194 C 0.19964 0.73187 0.28022
 C195 C 0.29589 0.71138 0.29795
 C196 C 0.33300 0.67592 0.33169
 H197 H 0.30025 0.83161 0.17557
 H198 H 0.22592 0.90123 0.10417
 H199 H 0.11697 0.75263 0.25932
 H200 H 0.19248 0.68437 0.32930
 C201 C 0.74659 0.25839 0.24770
 C202 C 0.73771 0.19613 0.18549
 C203 C 0.78057 0.15535 0.14629
 C204 C 0.83307 0.17628 0.16887
 C205 C 0.84156 0.23939 0.23119
 C206 C 0.79858 0.28006 0.27030
 C207 C 0.70238 0.29925 0.28906
 C208 C 0.66538 0.33308 0.32414
 H209 H 0.69763 0.17884 0.16751
 H210 H 0.77249 0.10724 0.09852
 H211 H 0.88136 0.25714 0.25011
 H212 H 0.80592 0.32815 0.31843
   
