data_POSCAR
  _audit_creation_date              2014-09-24
  _audit_creation_method            'ToBaCCo'
  _symmetry_space_group_name_H-M    'P1'
  _symmetry_Int_Tables_number       1
  _symmetry_cell_setting            triclinic
  loop_
  _symmetry_equiv_pos_as_xyz
 x,y,z
_cell_length_a 35.0289
_cell_length_b 35.1801
_cell_length_c 19.6876
_cell_angle_alpha 89.917600
_cell_angle_beta 90.077900
_cell_angle_gamma 119.958000
loop_
  _atom_site_label
  _atom_site_type_symbol
  _atom_site_fract_x
  _atom_site_fract_y
  _atom_site_fract_z
C1 C 0.44116 0.88192 0.49938
 C2 C 0.45680 0.90465 0.56046
 C3 C 0.48097 0.95062 0.56052
 C4 C 0.48765 0.97477 0.49980
 C5 C 0.47027 0.95088 0.43891
 C6 C 0.44843 0.90496 0.43859
 C7 C 0.51239 1.02424 0.49999
 C8 C 0.53065 1.04841 0.43951
 C9 C 0.55249 1.09438 0.43951
 C10 C 0.55877 1.11708 0.50039
 C11 C 0.54221 1.09404 0.56098
 C12 C 0.51815 1.04812 0.56063
 H13 H 0.42331 0.84631 0.49902
 H14 H 0.49448 0.96692 0.60831
 H15 H 0.47313 0.96726 0.39118
 H16 H 0.52836 1.03213 0.39194
 H17 H 0.57655 1.15270 0.50074
 H18 H 0.50412 1.03172 0.60815
 C19 C 0.11822 0.56143 0.49661
 C20 C 0.09564 0.54575 0.55783
 C21 C 0.04947 0.52106 0.55821
 C22 C 0.02491 0.51378 0.49756
 C23 C 0.04877 0.53139 0.43658
 C24 C 0.09488 0.55374 0.43600
 C25 C -0.02485 0.48809 0.49775
 C26 C -0.04899 0.47110 0.43678
 C27 C -0.09515 0.44861 0.43663
 C28 C -0.11817 0.44018 0.49771
 C29 C -0.09524 0.45527 0.55877
 C30 C -0.04913 0.48009 0.55875
 H31 H 0.15399 0.57959 0.49599
 H32 H 0.03344 0.50768 0.60620
 H33 H 0.03232 0.52824 0.38880
 H34 H -0.03262 0.47472 0.38879
 H35 H -0.15394 0.42187 0.49786
 H36 H -0.03300 0.49298 0.60683
 C37 C 0.44250 0.56132 0.50308
 C38 C 0.45800 0.55382 0.56406
 C39 C 0.48189 0.53161 0.56399
 C40 C 0.48839 0.51404 0.50323
 C41 C 0.47124 0.52117 0.44234
 C42 C 0.44966 0.54564 0.44222
 C43 C 0.51258 0.48854 0.50352
 C44 C 0.52895 0.48046 0.44270
 C45 C 0.55033 0.45579 0.44315
 C46 C 0.55812 0.44092 0.50445
 C47 C 0.54342 0.44942 0.56525
 C48 C 0.51973 0.47177 0.56473
 H49 H 0.42479 0.57933 0.50288
 H50 H 0.49515 0.52853 0.61187
 H51 H 0.47405 0.50790 0.39443
 H52 H 0.52571 0.49316 0.39443
 H53 H 0.57561 0.42272 0.50484
 H54 H 0.50703 0.47541 0.61268
 O55 O 0.40094 0.65724 -0.05400
 O56 O 0.39977 0.72937 -0.07750
 C57 C 0.37914 0.74907 -0.09376
 O58 O 0.34502 0.74347 -0.06215
 O59 O 0.27331 0.66938 -0.08543
 C60 C 0.25322 0.62862 -0.09779
 O61 O 0.25794 0.60134 -0.06140
 O62 O 0.33288 0.60383 -0.07868
 C63 C 0.37398 0.62482 -0.09010
 O64 O 0.39577 0.66943 0.08080
 O65 O 0.39834 0.74348 0.05730
 C66 C 0.36983 0.74906 0.08891
 O67 O 0.32945 0.72936 0.07268
 O68 O 0.25593 0.65723 0.04941
 C69 C 0.25042 0.62485 0.08566
 O70 O 0.27047 0.60387 0.07430
 O71 O 0.34290 0.60137 0.05703
 C72 C 0.37497 0.62867 0.09333
 Cr73 Cr 0.39635 0.69871 0.00153
 Cr74 Cr 0.30211 0.69869 -0.00626
 Cr75 Cr 0.30221 0.60493 -0.00219
 O76 O 0.33359 0.66750 -0.00232
 O77 O 0.60003 0.32887 -0.07138
 O78 O 0.59866 0.25502 -0.05245
 C79 C 0.62553 0.25005 -0.08968
 O80 O 0.66666 0.27012 -0.07875
 O81 O 0.74155 0.34187 -0.05983
 C82 C 0.74661 0.37520 -0.09288
 O83 O 0.72665 0.39563 -0.07753
 O84 O 0.65460 0.39719 -0.05287
 C85 C 0.62069 0.36938 -0.08569
 O86 O 0.60098 0.34166 0.06406
 O87 O 0.60406 0.26997 0.08303
 C88 C 0.62511 0.24995 0.09396
 O89 O 0.65703 0.25503 0.05673
 O90 O 0.72962 0.32892 0.07566
 C91 C 0.74946 0.36940 0.09007
 O92 O 0.74345 0.39721 0.05718
 O93 O 0.66976 0.39549 0.08181
 C94 C 0.62927 0.37503 0.09703
 Cr95 Cr 0.60330 0.30005 0.00571
 Cr96 Cr 0.69753 0.30015 -0.00144
 Cr97 Cr 0.69743 0.39401 0.00215
 O98 O 0.66611 0.33146 0.00214
 C99 C 0.42440 0.83486 -0.26708
 C100 C 0.44720 0.81376 -0.24577
 C101 C 0.43294 0.78646 -0.18870
 C102 C 0.44728 0.88184 -0.38006
 C103 C 0.37324 0.80174 -0.17346
 C104 C 0.38759 0.82904 -0.23057
 C105 C 0.43749 0.86089 -0.32810
 C106 C 0.39554 0.77981 -0.15215
 H107 H 0.47562 0.81790 -0.27382
 H108 H 0.45087 0.77008 -0.17383
 H109 H 0.34433 0.79734 -0.14664
 H110 H 0.36959 0.84510 -0.24683
 C111 C 0.16730 0.58153 -0.27129
 C112 C 0.18855 0.62603 -0.25405
 C113 C 0.21610 0.64126 -0.19726
 C114 C 0.11885 0.55591 -0.38292
 C115 C 0.20096 0.56730 -0.17413
 C116 C 0.17341 0.55215 -0.23110
 C117 C 0.14040 0.56667 -0.33145
 C118 C 0.22283 0.61212 -0.15674
 H119 H 0.18416 0.64908 -0.28494
 H120 H 0.23239 0.67593 -0.18547
 H121 H 0.20546 0.54399 -0.14417
 H122 H 0.15721 0.51764 -0.24413
 C123 C 0.42242 0.58767 -0.26332
 C124 C 0.37804 0.56294 -0.24478
 C125 C 0.36250 0.57448 -0.18766
 C126 C 0.44801 0.56647 -0.37631
 C127 C 0.43599 0.63531 -0.16649
 C128 C 0.45146 0.62369 -0.22382
 C129 C 0.43735 0.57663 -0.32425
 C130 C 0.39120 0.61105 -0.14810
 H131 H 0.35527 0.53503 -0.27509
 H132 H 0.32785 0.55508 -0.17511
 H133 H 0.45894 0.66373 -0.13733
 H134 H 0.48586 0.64313 -0.23784
 C135 C 0.57709 0.16500 -0.26341
 C136 C 0.62156 0.18484 -0.24521
 C137 C 0.63710 0.21190 -0.18815
 C138 C 0.55190 0.11786 -0.37603
 C139 C 0.56344 0.19897 -0.16637
 C140 C 0.54797 0.17189 -0.22371
 C141 C 0.56222 0.13882 -0.32412
 C142 C 0.60831 0.21956 -0.14823
 H143 H 0.64441 0.17981 -0.27566
 H144 H 0.67180 0.22717 -0.17579
 H145 H 0.54044 0.20427 -0.13690
 H146 H 0.51348 0.15676 -0.23747
 C147 C 0.83280 0.42019 -0.26606
 C148 C 0.82681 0.38340 -0.22960
 C149 C 0.79921 0.36895 -0.17269
 C150 C 0.88058 0.44424 -0.37835
 C151 C 0.78386 0.42839 -0.18830
 C152 C 0.81144 0.44275 -0.24507
 C153 C 0.85932 0.43372 -0.32664
 C154 C 0.77716 0.39113 -0.15163
 H155 H 0.84305 0.36557 -0.24562
 H156 H 0.79477 0.34016 -0.14575
 H157 H 0.76744 0.44628 -0.17362
 H158 H 0.81569 0.47114 -0.27308
 C159 C 0.57640 0.41191 -0.25814
 C160 C 0.61373 0.44218 -0.22193
 C161 C 0.62773 0.42870 -0.16484
 C162 C 0.55375 0.43597 -0.37152
 C163 C 0.56660 0.35470 -0.17955
 C164 C 0.55270 0.36828 -0.23649
 C165 C 0.56363 0.42507 -0.31933
 C166 C 0.60456 0.38465 -0.14339
 H167 H 0.63243 0.47603 -0.23847
 H168 H 0.65710 0.45255 -0.13835
 H169 H 0.54795 0.32056 -0.16455
 H170 H 0.52386 0.34455 -0.26428
 C171 C 0.83566 0.41172 0.26332
 C172 C 0.82878 0.44201 0.22692
 C173 C 0.80153 0.42860 0.16957
 C174 C 0.88218 0.43577 0.37692
 C175 C 0.78854 0.35464 0.18435
 C176 C 0.81578 0.36813 0.24157
 C177 C 0.86144 0.42482 0.32468
 C178 C 0.78071 0.38461 0.14800
 H179 H 0.84391 0.47583 0.24352
 H180 H 0.79614 0.45248 0.14295
 H181 H 0.77306 0.32053 0.16929
 H182 H 0.82077 0.34439 0.26947
 C183 C 0.58819 0.16462 0.26758
 C184 C 0.56359 0.18444 0.24941
 C185 C 0.57522 0.21160 0.19239
 C186 C 0.56595 0.11720 0.38006
 C187 C 0.63600 0.19881 0.17062
 C188 C 0.62428 0.17163 0.22792
 C189 C 0.57673 0.13829 0.32822
 C190 C 0.61175 0.21938 0.15249
 H191 H 0.53564 0.17931 0.27982
 H192 H 0.55581 0.22685 0.18004
 H193 H 0.66437 0.20421 0.14117
 H194 H 0.64362 0.15652 0.24166
 C195 C 0.58766 0.42036 0.26902
 C196 C 0.55686 0.38353 0.23262
 C197 C 0.57016 0.36894 0.17616
 C198 C 0.56362 0.44468 0.38055
 C199 C 0.64512 0.42830 0.19211
 C200 C 0.63174 0.44279 0.24844
 C201 C 0.57450 0.43405 0.32916
 C202 C 0.61455 0.39101 0.15548
 H203 H 0.52267 0.36579 0.24836
 H204 H 0.54580 0.34014 0.14923
 H205 H 0.67954 0.44611 0.17770
 H206 H 0.65589 0.47121 0.27641
 C207 C 0.16508 0.58802 0.25937
 C208 C 0.17212 0.62399 0.21970
 C209 C 0.19911 0.63550 0.16218
 C210 C 0.11854 0.56708 0.37272
 C211 C 0.21153 0.57463 0.18353
 C212 C 0.18454 0.56320 0.24082
 C213 C 0.13925 0.57713 0.32051
 C214 C 0.21947 0.61116 0.14380
 H215 H 0.15728 0.64349 0.23372
 H216 H 0.20464 0.66389 0.13291
 H217 H 0.22666 0.55519 0.17098
 H218 H 0.17936 0.53533 0.27126
 C219 C 0.41045 0.83452 0.26239
 C220 C 0.44145 0.82872 0.22593
 C221 C 0.42849 0.80155 0.16874
 C222 C 0.43446 0.88116 0.37556
 C223 C 0.35347 0.78635 0.18379
 C224 C 0.36653 0.81353 0.24094
 C225 C 0.42337 0.86037 0.32351
 C226 C 0.38423 0.77973 0.14731
 H227 H 0.47552 0.84469 0.24230
 H228 H 0.45299 0.79715 0.14198
 H229 H 0.31913 0.77005 0.16884
 H230 H 0.34223 0.81764 0.26895
 C231 C 0.41345 0.58173 0.26737
 C232 C 0.43689 0.62620 0.24988
 C233 C 0.42469 0.64138 0.19289
 C234 C 0.43599 0.55618 0.37936
 C235 C 0.36562 0.56741 0.17007
 C236 C 0.37790 0.55232 0.22723
 C237 C 0.42534 0.56692 0.32774
 C238 C 0.38876 0.61221 0.15244
 H239 H 0.46438 0.64928 0.28072
 H240 H 0.44322 0.67604 0.18091
 H241 H 0.33776 0.54409 0.14017
 H242 H 0.35944 0.51783 0.24046
   
