data_POSCAR
  _audit_creation_date              2014-09-24
  _audit_creation_method            'ToBaCCo'
  _symmetry_space_group_name_H-M    'P1'
  _symmetry_Int_Tables_number       1
  _symmetry_cell_setting            triclinic
  loop_
  _symmetry_equiv_pos_as_xyz
 x,y,z
_cell_length_a 47.1992
_cell_length_b 47.1920
_cell_length_c 36.4004
_cell_angle_alpha 90.065500
_cell_angle_beta 90.007000
_cell_angle_gamma 90.988100
loop_
  _atom_site_label
  _atom_site_type_symbol
  _atom_site_fract_x
  _atom_site_fract_y
  _atom_site_fract_z
C1 C -0.07468 0.27430 0.00117
 C2 C -0.06043 0.27869 0.03484
 C3 C -0.03065 0.28171 0.03405
 C4 C -0.01503 0.27742 0.00165
 C5 C -0.03013 0.27227 -0.03121
 C6 C -0.06001 0.27170 -0.03237
 C7 C 0.01691 0.27680 0.00229
 C8 C 0.03277 0.28072 -0.03023
 C9 C 0.06190 0.27536 -0.03139
 C10 C 0.07605 0.26904 0.00136
 C11 C 0.06144 0.26742 0.03487
 C12 C 0.03182 0.27040 0.03487
 H13 H -0.09720 0.27003 0.00137
 H14 H -0.01965 0.28803 0.05878
 H15 H -0.01850 0.26923 -0.05620
 H16 H 0.02269 0.28759 -0.05522
 H17 H 0.09839 0.26423 0.00064
 H18 H 0.02059 0.26738 0.06040
 C19 C 0.42579 0.77102 0.49875
 C20 C 0.44050 0.77670 0.53151
 C21 C 0.46989 0.78170 0.53008
 C22 C 0.48519 0.77849 0.49710
 C23 C 0.46975 0.77290 0.46459
 C24 C 0.44005 0.76981 0.46498
 C25 C 0.51709 0.77864 0.49713
 C26 C 0.53265 0.78364 0.46460
 C27 C 0.56206 0.77948 0.46320
 C28 C 0.57643 0.77261 0.49567
 C29 C 0.56186 0.76938 0.52900
 C30 C 0.53224 0.77169 0.52924
 H31 H 0.40328 0.76628 0.49966
 H32 H 0.48070 0.78771 0.55514
 H33 H 0.48066 0.77042 0.43879
 H34 H 0.52204 0.79049 0.43995
 H35 H 0.59892 0.76855 0.49484
 H36 H 0.52117 0.76761 0.55466
 C37 C 1.07612 0.72448 -0.00116
 C38 C 1.06146 0.71916 0.03196
 C39 C 1.03173 0.71632 0.03039
 C40 C 1.01647 0.72218 -0.00185
 C41 C 1.03192 0.72803 -0.03422
 C42 C 1.06185 0.72819 -0.03484
 C43 C 0.98458 0.72380 -0.00109
 C44 C 0.96841 0.72141 -0.03361
 C45 C 0.93924 0.72687 -0.03378
 C46 C 0.92554 0.73229 -0.00038
 C47 C 0.94058 0.73287 0.03282
 C48 C 0.97010 0.72949 0.03204
 H49 H 1.09866 0.72859 -0.00028
 H50 H 1.02045 0.70904 0.05445
 H51 H 1.02053 0.73197 -0.05919
 H52 H 0.97824 0.71551 -0.05921
 H53 H 0.90322 0.73719 -0.00031
 H54 H 0.98161 0.73163 0.05751
 C55 C 0.57619 0.22866 0.50421
 C56 C 0.56166 0.22154 0.53665
 C57 C 0.53222 0.21661 0.53510
 C58 C 0.51680 0.22114 0.50249
 C59 C 0.53210 0.22831 0.47039
 C60 C 0.56175 0.23138 0.47077
 C61 C 0.48491 0.22063 0.50245
 C62 C 0.46956 0.21682 0.46952
 C63 C 0.44019 0.22107 0.46807
 C64 C 0.42558 0.22667 0.50079
 C65 C 0.43990 0.22854 0.53450
 C66 C 0.46956 0.22616 0.53489
 H67 H 0.59871 0.23332 0.50516
 H68 H 0.52147 0.20957 0.55973
 H69 H 0.52111 0.23198 0.44490
 H70 H 0.48031 0.21091 0.44453
 H71 H 0.40312 0.23084 0.49988
 H72 H 0.48052 0.22915 0.56064
 C73 C 0.73079 -0.07249 -0.00057
 C74 C 0.73450 -0.05804 0.03310
 C75 C 0.73259 -0.02821 0.03289
 C76 C 0.72528 -0.01321 0.00088
 C77 C 0.71976 -0.02873 -0.03149
 C78 C 0.72378 -0.05812 -0.03298
 C79 C 0.72529 0.01864 0.00081
 C80 C 0.73229 0.03386 -0.03134
 C81 C 0.73417 0.06376 -0.03162
 C82 C 0.73076 0.07811 0.00207
 C83 C 0.72408 0.06353 0.03462
 C84 C 0.72010 0.03400 0.03325
 H85 H 0.73531 -0.09482 -0.00228
 H86 H 0.73633 -0.01649 0.05787
 H87 H 0.71268 -0.01802 -0.05597
 H88 H 0.73580 0.02225 -0.05635
 H89 H 0.73525 0.10061 0.00367
 H90 H 0.71328 0.02305 0.05785
 C91 C 0.22774 0.42081 0.50285
 C92 C 0.22183 0.43565 0.53529
 C93 C 0.21700 0.46491 0.53338
 C94 C 0.22064 0.48004 0.50024
 C95 C 0.22656 0.46441 0.46810
 C96 C 0.22942 0.43482 0.46896
 C97 C 0.22063 0.51198 0.49968
 C98 C 0.21718 0.52699 0.46651
 C99 C 0.22198 0.55641 0.46466
 C100 C 0.22772 0.57146 0.49716
 C101 C 0.22923 0.55751 0.53107
 C102 C 0.22636 0.52781 0.53189
 H103 H 0.23230 0.39843 0.50411
 H104 H 0.21078 0.47568 0.55821
 H105 H 0.22947 0.47505 0.44216
 H106 H 0.21111 0.51601 0.44162
 H107 H 0.23227 0.59400 0.49593
 H108 H 0.22910 0.51726 0.55785
 C109 C 0.27288 1.07221 0.00194
 C110 C 0.27863 1.05735 0.03439
 C111 C 0.28298 1.02809 0.03256
 C112 C 0.27869 1.01290 -0.00033
 C113 C 0.27249 1.02838 -0.03248
 C114 C 0.27056 1.05826 -0.03224
 C115 C 0.27885 0.98097 -0.00068
 C116 C 0.28320 0.96585 -0.03358
 C117 C 0.27939 0.93615 -0.03553
 C118 C 0.27396 0.92138 -0.00253
 C119 C 0.27137 0.93562 0.03111
 C120 C 0.27306 0.96534 0.03154
 H121 H 0.26822 1.09450 0.00397
 H122 H 0.28931 1.01730 0.05731
 H123 H 0.26962 1.01709 -0.05790
 H124 H 0.29025 0.97713 -0.05774
 H125 H 0.26965 0.89882 -0.00288
 H126 H 0.26949 0.97610 0.05723
 C127 C 0.77269 0.57889 0.50444
 C128 C 0.77877 0.56397 0.53674
 C129 C 0.78328 0.53465 0.53458
 C130 C 0.77929 0.51963 0.50138
 C131 C 0.77319 0.53534 0.46941
 C132 C 0.77061 0.56495 0.47049
 C133 C 0.77926 0.48772 0.50055
 C134 C 0.78330 0.47285 0.46735
 C135 C 0.77874 0.44339 0.46516
 C136 C 0.77257 0.42825 0.49743
 C137 C 0.77043 0.44211 0.53138
 C138 C 0.77308 0.47181 0.53249
 H139 H 0.76835 0.60131 0.50585
 H140 H 0.78958 0.52369 0.55921
 H141 H 0.76998 0.52471 0.44346
 H142 H 0.78968 0.48402 0.44275
 H143 H 0.76819 0.40569 0.49599
 H144 H 0.76984 0.48234 0.55843
 O145 O 0.24540 0.19974 0.25093
 O146 O 0.23605 0.26821 0.29805
 O147 O 0.20601 0.23749 0.25135
 O148 O 0.27434 0.22938 0.29837
 O149 O 0.29617 0.25115 0.25256
 O150 O 0.22755 0.25978 0.20574
 O151 O 0.25803 0.28998 0.25238
 O152 O 0.26687 0.22193 0.20517
 Cu153 Cu 0.23814 0.23161 0.27925
 Cu154 Cu 0.26419 0.25802 0.22437
 C155 C 0.25780 0.19917 0.21994
 C156 C 0.24610 0.29075 0.28361
 C157 C 0.20510 0.24955 0.22022
 C158 C 0.29696 0.23880 0.28356
 O159 O 0.76241 0.79985 0.25114
 O160 O 0.76728 0.73157 0.29973
 O161 O 0.79930 0.76011 0.25314
 O162 O 0.73049 0.77205 0.29775
 O163 O 0.70868 0.75080 0.25146
 O164 O 0.77751 0.73824 0.20731
 O165 O 0.74506 0.71024 0.25383
 O166 O 0.74080 0.77815 0.20502
 Cu167 Cu 0.76708 0.76793 0.28016
 Cu168 Cu 0.74087 0.74209 0.22486
 C169 C 0.75108 0.80057 0.21948
 C170 C 0.75654 0.70930 0.28534
 C171 C 0.80012 0.74776 0.22214
 C172 C 0.70779 0.76348 0.28224
 O173 O 0.79336 0.24810 0.24713
 O174 O 0.72530 0.24067 0.29587
 O175 O 0.75282 0.20983 0.24846
 O176 O 0.76590 0.27827 0.29441
 O177 O 0.74476 0.30023 0.24878
 O178 O 0.73116 0.23152 0.20307
 O179 O 0.70394 0.26289 0.25064
 O180 O 0.77186 0.26959 0.20143
 Cu181 Cu 0.76145 0.24189 0.27593
 Cu182 Cu 0.73573 0.26812 0.22135
 C183 C 0.79429 0.26025 0.21601
 C184 C 0.70308 0.25108 0.28198
 C185 C 0.73995 0.20891 0.21782
 C186 C 0.75748 0.30098 0.27956
 O187 O 0.20496 0.74920 0.24689
 O188 O 0.27358 0.76053 0.29379
 O189 O 0.24289 0.78969 0.24728
 O190 O 0.23438 0.72129 0.29427
 O191 O 0.25581 0.69992 0.24835
 O192 O 0.26512 0.76886 0.20161
 O193 O 0.29512 0.73904 0.24808
 O194 O 0.22700 0.72858 0.20086
 Cu195 Cu 0.23690 0.75745 0.27514
 Cu196 Cu 0.26307 0.73211 0.22014
 C197 C 0.20430 0.73694 0.21578
 C198 C 0.29602 0.75103 0.27930
 C199 C 0.25491 0.79098 0.21612
 C200 C 0.24346 0.69887 0.27938
 O201 O 0.77625 0.26847 0.79449
 O202 O 0.70745 0.25430 0.74976
 O203 O 0.73922 0.22763 0.79621
 O204 O 0.74417 0.29587 0.74788
 O205 O 0.76623 0.27530 0.70187
 O206 O 0.76093 0.20674 0.75012
 O207 O 0.72926 0.23374 0.70352
 O208 O 0.79799 0.24759 0.74844
 Cu209 Cu 0.73963 0.26377 0.77663
 Cu210 Cu 0.76580 0.23889 0.72127
 C211 C 0.79883 0.25969 0.77963
 C212 C 0.70657 0.24166 0.71892
 C213 C 0.74950 0.20557 0.78171
 C214 C 0.75566 0.29723 0.71638
 O215 O 0.29663 0.74250 0.74757
 O216 O 0.22795 0.73275 0.79471
 O217 O 0.25783 0.70297 0.74798
 O218 O 0.26788 0.77117 0.79506
 O219 O 0.24687 0.79305 0.74926
 O220 O 0.23620 0.72430 0.70227
 O221 O 0.20675 0.75455 0.74905
 O222 O 0.27506 0.76384 0.70179
 Cu223 Cu 0.26458 0.73506 0.77591
 Cu224 Cu 0.23890 0.76098 0.72104
 C225 C 0.29756 0.75485 0.71655
 C226 C 0.20566 0.74260 0.78026
 C227 C 0.24592 0.70196 0.71674
 C228 C 0.25928 0.79380 0.78026
 O229 O 0.25635 0.29364 0.75160
 O230 O 0.26588 0.22533 0.79889
 O231 O 0.29576 0.25597 0.75197
 O232 O 0.22765 0.26417 0.79922
 O233 O 0.20571 0.24209 0.75366
 O234 O 0.27416 0.23367 0.70635
 O235 O 0.24411 0.20333 0.75317
 O236 O 0.23469 0.27129 0.70604
 Cu237 Cu 0.26373 0.26187 0.77999
 Cu238 Cu 0.23760 0.23524 0.72525
 C239 C 0.24381 0.29411 0.72069
 C240 C 0.25606 0.20268 0.78440
 C241 C 0.29661 0.24399 0.72075
 C242 C 0.20500 0.25466 0.78455
 O243 O 0.73001 0.77433 0.79820
 O244 O 0.74368 0.70614 0.75245
 O245 O 0.77073 0.73763 0.79983
 O246 O 0.70291 0.74213 0.75032
 O247 O 0.72445 0.76504 0.70521
 O248 O 0.79228 0.76015 0.75442
 O249 O 0.76507 0.72885 0.70705
 O250 O 0.75164 0.79684 0.75287
 Cu251 Cu 0.73461 0.73792 0.77983
 Cu252 Cu 0.76048 0.76511 0.72543
 C253 C 0.73875 0.79727 0.78349
 C254 C 0.75658 0.70585 0.72181
 C255 C 0.79318 0.74790 0.78544
 C256 C 0.70218 0.75389 0.71896
 C257 C 0.28164 0.11473 0.10711
 C258 C 0.26870 0.10098 0.13605
 C259 C 0.26007 0.07271 0.13430
 C260 C 0.26447 0.05820 0.10116
 C261 C 0.27741 0.07201 0.07058
 C262 C 0.28662 0.10062 0.07415
 O263 O 0.28655 0.14205 0.11348
 C264 C 0.27638 0.14566 0.14710
 C265 C 0.26528 0.12121 0.16222
 C266 C 0.25222 0.12060 0.19648
 C267 C 0.25036 0.14630 0.21579
 C268 C 0.26133 0.17191 0.20051
 C269 C 0.27480 0.17136 0.16576
 H270 H 0.24945 0.06247 0.15719
 H271 H 0.25662 0.03658 0.09892
 H272 H 0.29653 0.11192 0.05156
 H273 H 0.24333 0.10115 0.20766
 H274 H 0.23992 0.14629 0.24227
 H275 H 0.28314 0.19049 0.15306
 C276 C 0.78191 0.62150 0.60935
 C277 C 0.76969 0.60757 0.63865
 C278 C 0.76158 0.57914 0.63718
 C279 C 0.76572 0.56464 0.60396
 C280 C 0.77791 0.57862 0.57300
 C281 C 0.78666 0.60741 0.57630
 O282 O 0.78626 0.64895 0.61546
 C283 C 0.77648 0.65247 0.64930
 C284 C 0.76618 0.62781 0.66480
 C285 C 0.75351 0.62703 0.69929
 C286 C 0.75111 0.65276 0.71839
 C287 C 0.76117 0.67860 0.70272
 C288 C 0.77438 0.67822 0.66779
 H289 H 0.75149 0.56875 0.66035
 H290 H 0.75820 0.54290 0.60198
 H291 H 0.79602 0.61886 0.55346
 H292 H 0.74522 0.60743 0.71075
 H293 H 0.74087 0.65258 0.74501
 H294 H 0.78197 0.69752 0.65476
 C295 C 0.73661 0.88376 0.10250
 C296 C 0.75073 0.89700 0.13085
 C297 C 0.76034 0.92491 0.12869
 C298 C 0.75509 0.93981 0.09606
 C299 C 0.74030 0.92679 0.06599
 C300 C 0.73107 0.89806 0.06995
 O301 O 0.72950 0.85704 0.10973
 C302 C 0.73945 0.85329 0.14340
 C303 C 0.75259 0.87708 0.15769
 C304 C 0.76481 0.87758 0.19247
 C305 C 0.76369 0.85243 0.21313
 C306 C 0.75055 0.82748 0.19872
 C307 C 0.73806 0.82817 0.16338
 H308 H 0.77180 0.93481 0.15119
 H309 H 0.76376 0.96110 0.09424
 H310 H 0.71887 0.88707 0.04902
 H311 H 0.77511 0.89653 0.20316
 H312 H 0.77345 0.85232 0.24005
 H313 H 0.72798 0.80957 0.15138
 C314 C 0.21952 0.37825 0.60784
 C315 C 0.23229 0.39214 0.63683
 C316 C 0.24058 0.42051 0.63518
 C317 C 0.23600 0.43499 0.60208
 C318 C 0.22324 0.42103 0.57145
 C319 C 0.21440 0.39231 0.57491
 O320 O 0.21487 0.35089 0.61413
 C321 C 0.22503 0.34739 0.64777
 C322 C 0.23588 0.37196 0.66297
 C323 C 0.24886 0.37269 0.69729
 C324 C 0.25089 0.34703 0.71657
 C325 C 0.24015 0.32131 0.70123
 C326 C 0.22677 0.32172 0.66642
 H327 H 0.25105 0.43088 0.65811
 H328 H 0.24357 0.45671 0.59991
 H329 H 0.20462 0.38089 0.55228
 H330 H 0.25755 0.39222 0.70853
 H331 H 0.26126 0.34716 0.74311
 H332 H 0.21860 0.30252 0.65366
 C333 C 0.88026 0.28056 0.10290
 C334 C 0.89377 0.27124 0.13389
 C335 C 0.92254 0.26573 0.13464
 C336 C 0.93792 0.26935 0.10191
 C337 C 0.92446 0.27821 0.06874
 C338 C 0.89507 0.28455 0.07017
 O339 O 0.85259 0.28357 0.10748
 C340 C 0.84851 0.27575 0.14210
 C341 C 0.87302 0.26799 0.15953
 C342 C 0.87334 0.25790 0.19541
 C343 C 0.84731 0.25563 0.21399
 C344 C 0.82167 0.26342 0.19652
 C345 C 0.82247 0.27383 0.16006
 H346 H 0.93267 0.25804 0.15928
 H347 H 0.95991 0.26332 0.10239
 H348 H 0.88364 0.29243 0.04666
 H349 H 0.89286 0.25164 0.20846
 H350 H 0.84716 0.24764 0.24186
 H351 H 0.80335 0.27969 0.14573
 C352 C 0.38270 0.77852 0.60359
 C353 C 0.39607 0.76582 0.63266
 C354 C 0.42416 0.75758 0.63115
 C355 C 0.43893 0.76218 0.59815
 C356 C 0.42552 0.77494 0.56746
 C357 C 0.39705 0.78366 0.57074
 O358 O 0.35550 0.78322 0.60982
 C359 C 0.35156 0.77317 0.64349
 C360 C 0.37571 0.76234 0.65877
 C361 C 0.37595 0.74955 0.69318
 C362 C 0.35021 0.74768 0.71248
 C363 C 0.32490 0.75839 0.69707
 C364 C 0.32582 0.77158 0.66215
 H365 H 0.43411 0.74716 0.65415
 H366 H 0.46042 0.75469 0.59612
 H367 H 0.38607 0.79345 0.54808
 H368 H 0.39516 0.74089 0.70451
 H369 H 0.34994 0.73745 0.73909
 H370 H 0.30693 0.77974 0.64934
 C371 C 0.11972 0.71579 0.10138
 C372 C 0.10569 0.72426 0.13243
 C373 C 0.07688 0.72957 0.13270
 C374 C 0.06203 0.72667 0.09946
 C375 C 0.07604 0.71871 0.06624
 C376 C 0.10543 0.71250 0.06812
 O377 O 0.14737 0.71312 0.10640
 C378 C 0.15091 0.72031 0.14136
 C379 C 0.12608 0.72731 0.15860
 C380 C 0.12524 0.73694 0.19472
 C381 C 0.15108 0.73963 0.21370
 C382 C 0.17703 0.73271 0.19636
 C383 C 0.17673 0.72262 0.15971
 H384 H 0.06635 0.73666 0.15739
 H385 H 0.04002 0.73262 0.09967
 H386 H 0.11728 0.70534 0.04455
 H387 H 0.10548 0.74268 0.20761
 H388 H 0.15088 0.74742 0.24169
 H389 H 0.19611 0.71751 0.14542
 C390 C 0.62024 0.21750 0.60753
 C391 C 0.60694 0.22861 0.63776
 C392 C 0.57863 0.23623 0.63743
 C393 C 0.56358 0.23276 0.60441
 C394 C 0.57690 0.22171 0.57252
 C395 C 0.60559 0.21342 0.57464
 O396 O 0.64771 0.21352 0.61273
 C397 C 0.65187 0.22242 0.64693
 C398 C 0.62759 0.23178 0.66354
 C399 C 0.62750 0.24349 0.69861
 C400 C 0.65353 0.24592 0.71715
 C401 C 0.67900 0.23685 0.70036
 C402 C 0.67794 0.22456 0.66485
 H403 H 0.56874 0.24547 0.66134
 H404 H 0.54193 0.23994 0.60337
 H405 H 0.61655 0.20492 0.55107
 H406 H 0.60818 0.25106 0.71096
 H407 H 0.65387 0.25545 0.74422
 H408 H 0.69694 0.21777 0.65097
 C409 C 0.73559 0.12191 0.89880
 C410 C 0.74947 0.10913 0.87028
 C411 C 0.75915 0.08157 0.87238
 C412 C 0.75420 0.06654 0.90512
 C413 C 0.73966 0.07909 0.93536
 C414 C 0.73035 0.10748 0.93147
 O415 O 0.72842 0.14838 0.89161
 C416 C 0.73809 0.15243 0.85780
 C417 C 0.75112 0.12908 0.84339
 C418 C 0.76311 0.12897 0.80847
 C419 C 0.76190 0.15408 0.78783
 C420 C 0.74890 0.17860 0.80238
 C421 C 0.73660 0.17750 0.83783
 H422 H 0.77043 0.07205 0.84975
 H423 H 0.76293 0.04557 0.90689
 H424 H 0.71834 0.11807 0.95255
 H425 H 0.77333 0.11037 0.79769
 H426 H 0.77152 0.15452 0.76083
 H427 H 0.72666 0.19578 0.84995
 C428 C 0.21963 0.61372 0.39212
 C429 C 0.23256 0.60036 0.36319
 C430 C 0.24102 0.57233 0.36489
 C431 C 0.23642 0.55766 0.39797
 C432 C 0.22349 0.57111 0.42853
 C433 C 0.21450 0.59947 0.42502
 O434 O 0.21479 0.64088 0.38579
 C435 C 0.22500 0.64479 0.35220
 C436 C 0.23606 0.62068 0.33704
 C437 C 0.24909 0.62049 0.30276
 C438 C 0.25095 0.64624 0.28347
 C439 C 0.24000 0.67150 0.29878
 C440 C 0.22657 0.67052 0.33355
 H441 H 0.25161 0.56238 0.34201
 H442 H 0.24409 0.53625 0.40019
 H443 H 0.20458 0.61048 0.44760
 H444 H 0.25795 0.60133 0.29154
 H445 H 0.26136 0.64656 0.25697
 H446 H 0.21823 0.68937 0.34629
 C447 C 0.28126 0.87808 0.89475
 C448 C 0.27273 0.89228 0.86388
 C449 C 0.26785 0.92119 0.86382
 C450 C 0.27128 0.93595 0.89711
 C451 C 0.27924 0.92171 0.93011
 C452 C 0.28498 0.89224 0.92801
 O453 O 0.28365 0.85042 0.88958
 C454 C 0.27621 0.84702 0.85471
 C455 C 0.26930 0.87194 0.83765
 C456 C 0.25951 0.87289 0.80161
 C457 C 0.25660 0.84707 0.78254
 C458 C 0.26348 0.82106 0.79973
 C459 C 0.27369 0.82126 0.83629
 H460 H 0.26076 0.93189 0.83928
 H461 H 0.26576 0.95809 0.89715
 H462 H 0.29215 0.88024 0.95141
 H463 H 0.25386 0.89271 0.78884
 H464 H 0.24873 0.84734 0.75461
 H465 H 0.27879 0.80184 0.85047
 C466 C 0.78212 0.38604 0.39246
 C467 C 0.77001 0.39958 0.36311
 C468 C 0.76186 0.42772 0.36460
 C469 C 0.76586 0.44232 0.39788
 C470 C 0.77795 0.42872 0.42889
 C471 C 0.78672 0.40025 0.42558
 O472 O 0.78656 0.35876 0.38629
 C473 C 0.77694 0.35496 0.35237
 C474 C 0.76666 0.37927 0.33686
 C475 C 0.75415 0.37965 0.30227
 C476 C 0.75190 0.35387 0.28305
 C477 C 0.76195 0.32837 0.29873
 C478 C 0.77498 0.32917 0.33378
 H479 H 0.75185 0.43779 0.34138
 H480 H 0.75832 0.46379 0.39986
 H481 H 0.79601 0.38909 0.44845
 H482 H 0.74588 0.39897 0.29080
 H483 H 0.74178 0.35371 0.25636
 H484 H 0.78256 0.31013 0.34681
 C485 C 0.12021 0.27754 0.89722
 C486 C 0.10651 0.26517 0.86779
 C487 C 0.07807 0.25712 0.86884
 C488 C 0.06329 0.26154 0.90175
 C489 C 0.07703 0.27391 0.93281
 C490 C 0.10587 0.28246 0.93002
 O491 O 0.14763 0.28213 0.89135
 C492 C 0.15136 0.27235 0.85755
 C493 C 0.12688 0.26178 0.84184
 C494 C 0.12633 0.24927 0.80722
 C495 C 0.15210 0.24744 0.78813
 C496 C 0.17772 0.25794 0.80395
 C497 C 0.17713 0.27082 0.83910
 H498 H 0.06784 0.24699 0.84555
 H499 H 0.04147 0.25421 0.90342
 H500 H 0.11711 0.29194 0.95300
 H501 H 0.10685 0.24081 0.79557
 H502 H 0.15212 0.23747 0.76133
 H503 H 0.19626 0.27880 0.85221
 C504 C 0.62104 0.78531 0.39286
 C505 C 0.60780 0.77395 0.36246
 C506 C 0.57941 0.76562 0.36248
 C507 C 0.56421 0.76861 0.39537
 C508 C 0.57746 0.77989 0.42744
 C509 C 0.60624 0.78893 0.42563
 O510 O 0.64859 0.78997 0.38797
 C511 C 0.65287 0.78126 0.35377
 C512 C 0.62859 0.77134 0.33688
 C513 C 0.62858 0.75969 0.30177
 C514 C 0.65469 0.75792 0.28350
 C515 C 0.68016 0.76759 0.30058
 C516 C 0.67902 0.77978 0.33611
 H517 H 0.56958 0.75619 0.33843
 H518 H 0.54249 0.76088 0.39617
 H519 H 0.61716 0.79763 0.44934
 H520 H 0.60926 0.75168 0.28921
 H521 H 0.65510 0.74846 0.25641
 H522 H 0.69802 0.78700 0.35020
 C523 C 0.87961 0.72595 0.89660
 C524 C 0.89267 0.73912 0.86733
 C525 C 0.92107 0.74740 0.86784
 C526 C 0.93650 0.74233 0.90008
 C527 C 0.92344 0.72912 0.93098
 C528 C 0.89461 0.72039 0.92872
 O529 O 0.85216 0.72100 0.89124
 C530 C 0.84776 0.73138 0.85790
 C531 C 0.87185 0.74267 0.84203
 C532 C 0.87177 0.75562 0.80774
 C533 C 0.84578 0.75702 0.78909
 C534 C 0.82054 0.74566 0.80498
 C535 C 0.82174 0.73250 0.83989
 H536 H 0.93080 0.75810 0.84465
 H537 H 0.95831 0.74976 0.90138
 H538 H 0.88389 0.71022 0.95159
 H539 H 0.89095 0.76460 0.79593
 H540 H 0.84533 0.76718 0.76245
 H541 H 0.80293 0.72379 0.85298
 C542 C 0.38217 0.21736 0.39626
 C543 C 0.39562 0.23010 0.36696
 C544 C 0.42384 0.23893 0.36821
 C545 C 0.43865 0.23492 0.40120
 C546 C 0.42516 0.22214 0.43214
 C547 C 0.39656 0.21278 0.42911
 O548 O 0.35486 0.21210 0.39026
 C549 C 0.35095 0.22182 0.35648
 C550 C 0.37522 0.23299 0.34093
 C551 C 0.37554 0.24557 0.30638
 C552 C 0.34975 0.24686 0.28723
 C553 C 0.32431 0.23579 0.30292
 C554 C 0.32515 0.22283 0.33797
 H555 H 0.43386 0.24937 0.34503
 H556 H 0.46024 0.24289 0.40302
 H557 H 0.38550 0.20296 0.45196
 H558 H 0.39484 0.25451 0.29485
 H559 H 0.34955 0.25692 0.26052
 H560 H 0.30616 0.21444 0.35098
 C561 C 0.71782 0.88302 0.89614
 C562 C 0.72872 0.89652 0.86570
 C563 C 0.73684 0.92497 0.86591
 C564 C 0.73411 0.93999 0.89900
 C565 C 0.72324 0.92652 0.93113
 C566 C 0.71443 0.89765 0.92915
 O567 O 0.71326 0.85546 0.89094
 C568 C 0.72157 0.85146 0.85650
 C569 C 0.73112 0.87594 0.83978
 C570 C 0.74226 0.87631 0.80443
 C571 C 0.74391 0.85037 0.78568
 C572 C 0.73463 0.82468 0.80250
 C573 C 0.72293 0.82544 0.83834
 H574 H 0.74591 0.93501 0.84180
 H575 H 0.74169 0.96175 0.89985
 H576 H 0.70603 0.88655 0.95287
 H577 H 0.74997 0.89579 0.79200
 H578 H 0.75298 0.85029 0.75837
 H579 H 0.71603 0.80626 0.85225
 C580 C 0.22895 0.37610 0.39783
 C581 C 0.24573 0.38800 0.37093
 C582 C 0.25798 0.41489 0.37425
 C583 C 0.25264 0.43016 0.40659
 C584 C 0.23506 0.41853 0.43471
 C585 C 0.22304 0.39101 0.42992
 O586 O 0.22030 0.34986 0.39001
 C587 C 0.23189 0.34509 0.35741
 C588 C 0.24751 0.36781 0.34441
 C589 C 0.26189 0.36719 0.31111
 C590 C 0.26044 0.34198 0.29063
 C591 C 0.24500 0.31794 0.30383
 C592 C 0.23026 0.31977 0.33762
 H593 H 0.27153 0.42363 0.35296
 H594 H 0.26271 0.45077 0.40988
 H595 H 0.20940 0.38143 0.45052
 H596 H 0.27414 0.38530 0.30149
 H597 H 0.27199 0.34100 0.26498
 H598 H 0.21845 0.30185 0.34866
 C599 C 0.27019 0.11773 0.89975
 C600 C 0.25754 0.10467 0.87017
 C601 C 0.24844 0.07657 0.87094
 C602 C 0.25264 0.06121 0.90346
 C603 C 0.26594 0.07394 0.93486
 C604 C 0.27476 0.10294 0.93226
 O605 O 0.27677 0.14480 0.89373
 C606 C 0.26797 0.14893 0.85956
 C607 C 0.25611 0.12502 0.84385
 C608 C 0.24504 0.12477 0.80846
 C609 C 0.24588 0.15030 0.78867
 C610 C 0.25759 0.17545 0.80447
 C611 C 0.26907 0.17453 0.84040
 H612 H 0.23806 0.06686 0.84746
 H613 H 0.24424 0.03978 0.90407
 H614 H 0.28584 0.11381 0.95428
 H615 H 0.23573 0.10571 0.79668
 H616 H 0.23690 0.15053 0.76130
 H617 H 0.27794 0.19329 0.85348
 C618 C 0.77151 0.62379 0.39974
 C619 C 0.75422 0.61228 0.37303
 C620 C 0.74152 0.58560 0.37635
 C621 C 0.74690 0.57014 0.40850
 C622 C 0.76494 0.58139 0.43642
 C623 C 0.77742 0.60869 0.43163
 O624 O 0.78072 0.64981 0.39188
 C625 C 0.76899 0.65487 0.35946
 C626 C 0.75270 0.63254 0.34660
 C627 C 0.73817 0.63351 0.31341
 C628 C 0.74026 0.65864 0.29287
 C629 C 0.75649 0.68224 0.30589
 C630 C 0.77125 0.68008 0.33962
 H631 H 0.72765 0.57714 0.35520
 H632 H 0.73655 0.54967 0.41181
 H633 H 0.79144 0.61796 0.45207
 H634 H 0.72541 0.61571 0.30387
 H635 H 0.72870 0.65987 0.26725
 H636 H 0.78371 0.69766 0.35049
 C637 C 0.12039 0.72747 0.89568
 C638 C 0.10806 0.74147 0.86699
 C639 C 0.08071 0.75172 0.86878
 C640 C 0.06540 0.74736 0.90144
 C641 C 0.07740 0.73271 0.93195
 C642 C 0.10558 0.72261 0.92825
 O643 O 0.14691 0.72011 0.88891
 C644 C 0.15144 0.72980 0.85517
 C645 C 0.12830 0.74295 0.84044
 C646 C 0.12863 0.75515 0.80569
 C647 C 0.15398 0.75411 0.78556
 C648 C 0.17840 0.74114 0.80043
 C649 C 0.17685 0.72852 0.83569
 H650 H 0.07161 0.76318 0.84603
 H651 H 0.04472 0.75673 0.90289
 H652 H 0.11581 0.71048 0.94949
 H653 H 0.11018 0.76549 0.79469
 H654 H 0.15470 0.76399 0.75874
 H655 H 0.19507 0.71866 0.84806
 C656 C 0.61919 0.23273 0.39813
 C657 C 0.60761 0.25045 0.37244
 C658 C 0.58133 0.26282 0.37717
 C659 C 0.56637 0.25660 0.40963
 C660 C 0.57772 0.23808 0.43647
 C661 C 0.60459 0.22600 0.43030
 O662 O 0.64481 0.22393 0.38906
 C663 C 0.64953 0.23637 0.35693
 C664 C 0.62739 0.25271 0.34539
 C665 C 0.62814 0.26794 0.31270
 C666 C 0.65286 0.26655 0.29131
 C667 C 0.67627 0.25031 0.30304
 C668 C 0.67431 0.23479 0.33624
 H669 H 0.57280 0.27705 0.35683
 H670 H 0.54621 0.26665 0.41402
 H671 H 0.61390 0.21163 0.44989
 H672 H 0.61049 0.28073 0.30420
 H673 H 0.65398 0.27869 0.26612
 H674 H 0.69176 0.22231 0.34614
 C675 C 0.88261 0.27419 0.89667
 C676 C 0.89559 0.26132 0.86753
 C677 C 0.92293 0.25113 0.86954
 C678 C 0.93759 0.25443 0.90288
 C679 C 0.92497 0.26802 0.93385
 C680 C 0.89677 0.27800 0.92995
 O681 O 0.85610 0.28141 0.88962
 C682 C 0.85226 0.27281 0.85524
 C683 C 0.87582 0.26048 0.84036
 C684 C 0.87613 0.24923 0.80504
 C685 C 0.85096 0.25021 0.78453
 C686 C 0.82609 0.26216 0.79962
 C687 C 0.82704 0.27404 0.83537
 H688 H 0.93251 0.24047 0.84643
 H689 H 0.95827 0.24507 0.90441
 H690 H 0.88606 0.28927 0.95162
 H691 H 0.89489 0.23950 0.79396
 H692 H 0.85067 0.24087 0.75735
 H693 H 0.80844 0.28302 0.84797
 C694 C 0.38163 0.76988 0.39348
 C695 C 0.39337 0.75354 0.36637
 C696 C 0.42010 0.74186 0.36958
 C697 C 0.43536 0.74725 0.40205
 C698 C 0.42388 0.76434 0.43043
 C699 C 0.39656 0.77586 0.42569
 O700 O 0.35549 0.77793 0.38578
 C701 C 0.35060 0.76642 0.35305
 C702 C 0.37317 0.75143 0.33985
 C703 C 0.37238 0.73717 0.30643
 C704 C 0.34716 0.73805 0.28604
 C705 C 0.32326 0.75280 0.29944
 C706 C 0.32526 0.76747 0.33334
 H707 H 0.42871 0.72864 0.34813
 H708 H 0.45581 0.73754 0.40527
 H709 H 0.38709 0.78912 0.44647
 H710 H 0.39037 0.72541 0.29666
 H711 H 0.34606 0.72656 0.26030
 H712 H 0.30744 0.77875 0.34455
 C713 C 0.27251 0.87735 0.10273
 C714 C 0.25503 0.88832 0.12916
 C715 C 0.24221 0.91447 0.12544
 C716 C 0.24763 0.92994 0.09317
 C717 C 0.26589 0.91926 0.06551
 C718 C 0.27857 0.89253 0.07077
 O719 O 0.28155 0.85160 0.11076
 C720 C 0.26951 0.84618 0.14299
 C721 C 0.25322 0.86804 0.15559
 C722 C 0.23825 0.86659 0.18843
 C723 C 0.23980 0.84145 0.20885
 C724 C 0.25591 0.81825 0.19603
 C725 C 0.27123 0.82092 0.16272
 H726 H 0.22810 0.92245 0.14633
 H727 H 0.23704 0.94989 0.08953
 H728 H 0.29273 0.88368 0.05056
 H729 H 0.22547 0.88403 0.19773
 H730 H 0.22780 0.83982 0.23413
 H731 H 0.28355 0.80364 0.15198
 C732 C 0.77109 0.38330 0.60215
 C733 C 0.75383 0.39426 0.62883
 C734 C 0.74121 0.42054 0.62548
 C735 C 0.74665 0.43617 0.59334
 C736 C 0.76468 0.42548 0.56544
 C737 C 0.77708 0.39858 0.57025
 O738 O 0.78021 0.35756 0.61002
 C739 C 0.76845 0.35213 0.64242
 C740 C 0.75222 0.37395 0.65526
 C741 C 0.73767 0.37251 0.68843
 C742 C 0.73965 0.34744 0.70895
 C743 C 0.75579 0.32434 0.69593
 C744 C 0.77060 0.32697 0.66224
 H745 H 0.72734 0.42856 0.64661
 H746 H 0.73635 0.45631 0.59001
 H747 H 0.79108 0.38975 0.54984
 H748 H 0.72496 0.38992 0.69796
 H749 H 0.72804 0.34582 0.73454
 H750 H 0.78299 0.30978 0.65137
 C751 C 0.71861 0.12228 0.10545
 C752 C 0.72980 0.10922 0.13577
 C753 C 0.73798 0.08107 0.13551
 C754 C 0.73501 0.06591 0.10249
 C755 C 0.72383 0.07893 0.07048
 C756 C 0.71498 0.10748 0.07252
 O757 O 0.71400 0.14967 0.11067
 C758 C 0.72256 0.15402 0.14500
 C759 C 0.73232 0.12992 0.16163
 C760 C 0.74371 0.13000 0.19686
 C761 C 0.74537 0.15601 0.21557
 C762 C 0.73587 0.18133 0.19883
 C763 C 0.72394 0.18010 0.16312
 H764 H 0.74727 0.07140 0.15951
 H765 H 0.74262 0.04442 0.10157
 H766 H 0.70634 0.11824 0.04891
 H767 H 0.75157 0.11083 0.20922
 H768 H 0.75462 0.15646 0.24279
 H769 H 0.71685 0.19900 0.14928
 C770 C 0.22862 0.61621 0.60226
 C771 C 0.24513 0.60473 0.62935
 C772 C 0.25724 0.57821 0.62614
 C773 C 0.25207 0.56283 0.59370
 C774 C 0.23473 0.57397 0.56539
 C775 C 0.22284 0.60115 0.57007
 O776 O 0.22012 0.64221 0.61002
 C777 C 0.23150 0.64726 0.64277
 C778 C 0.24686 0.62494 0.65593
 C779 C 0.26102 0.62590 0.68939
 C780 C 0.25966 0.65106 0.70987
 C781 C 0.24454 0.67473 0.69652
 C782 C 0.22998 0.67254 0.66257
 H783 H 0.27060 0.56983 0.64758
 H784 H 0.26207 0.54252 0.59050
 H785 H 0.20941 0.61036 0.54932
 H786 H 0.27305 0.60810 0.69912
 H787 H 0.27107 0.65231 0.73564
 H788 H 0.21843 0.69019 0.65141
 C789 C 0.88391 0.73059 0.10647
 C790 C 0.89658 0.74651 0.13372
 C791 C 0.92348 0.75864 0.12991
 C792 C 0.93790 0.75413 0.09668
 C793 C 0.92537 0.73753 0.06814
 C794 C 0.89794 0.72553 0.07351
 O795 O 0.85773 0.72210 0.11472
 C796 C 0.85375 0.73291 0.14794
 C797 C 0.87691 0.74789 0.16096
 C798 C 0.87691 0.76170 0.19473
 C799 C 0.85186 0.76046 0.21557
 C800 C 0.82739 0.74578 0.20225
 C801 C 0.82866 0.73144 0.16811
 H802 H 0.93285 0.77153 0.15147
 H803 H 0.95851 0.76411 0.09301
 H804 H 0.88770 0.71262 0.05262
 H805 H 0.89533 0.77351 0.20435
 H806 H 0.85130 0.77172 0.24148
 H807 H 0.81037 0.72031 0.15688
 C808 C 0.38173 0.22731 0.60627
 C809 C 0.39359 0.24428 0.63306
 C810 C 0.42033 0.25681 0.62952
 C811 C 0.43547 0.25160 0.59704
 C812 C 0.42385 0.23388 0.56900
 C813 C 0.39652 0.22152 0.57406
 O814 O 0.35562 0.21843 0.61427
 C815 C 0.35088 0.23005 0.64685
 C816 C 0.37349 0.24594 0.65969
 C817 C 0.37283 0.26044 0.69293
 C818 C 0.34769 0.25883 0.71351
 C819 C 0.32377 0.24311 0.70047
 C820 C 0.32564 0.22825 0.66675
 H821 H 0.42904 0.27050 0.65072
 H822 H 0.45594 0.26191 0.59356
 H823 H 0.38696 0.20777 0.55354
 H824 H 0.39085 0.27290 0.70243
 H825 H 0.34667 0.27047 0.73912
 H826 H 0.30780 0.21623 0.65582
 C827 C 0.11957 0.26776 0.10665
 C828 C 0.10757 0.25087 0.13337
 C829 C 0.08059 0.23882 0.12988
 C830 C 0.06542 0.24437 0.09750
 C831 C 0.07728 0.26191 0.06950
 C832 C 0.10478 0.27387 0.07459
 O833 O 0.14585 0.27620 0.11451
 C834 C 0.15059 0.26437 0.14692
 C835 C 0.12781 0.24877 0.15981
 C836 C 0.12849 0.23410 0.19290
 C837 C 0.15378 0.23526 0.21324
 C838 C 0.17784 0.25072 0.20014
 C839 C 0.17596 0.26572 0.16658
 H840 H 0.07173 0.22522 0.15102
 H841 H 0.04476 0.23444 0.09403
 H842 H 0.11452 0.28752 0.05413
 H843 H 0.11035 0.22185 0.20245
 H844 H 0.15479 0.22351 0.23873
 H845 H 0.19389 0.27756 0.15560
 C846 C 0.61895 0.76961 0.60209
 C847 C 0.60719 0.75145 0.62761
 C848 C 0.58090 0.73825 0.62260
 C849 C 0.56612 0.74408 0.59003
 C850 C 0.57766 0.76303 0.56336
 C851 C 0.60453 0.77595 0.56981
 O852 O 0.64452 0.77923 0.61144
 C853 C 0.64904 0.76689 0.64358
 C854 C 0.62682 0.74979 0.65485
 C855 C 0.62737 0.73455 0.68752
 C856 C 0.65198 0.73673 0.70915
 C857 C 0.67546 0.75377 0.69768
 C858 C 0.67370 0.76928 0.66450
 H859 H 0.57223 0.72371 0.64281
 H860 H 0.54595 0.73342 0.58542
 H861 H 0.61397 0.79066 0.55037
 H862 H 0.60966 0.72116 0.69582
 H863 H 0.65296 0.72459 0.73433
 H864 H 0.69121 0.78237 0.65480
   
