data_POSCAR
  _audit_creation_date              2014-09-24
  _audit_creation_method            'ToBaCCo'
  _symmetry_space_group_name_H-M    'P1'
  _symmetry_Int_Tables_number       1
  _symmetry_cell_setting            triclinic
  loop_
  _symmetry_equiv_pos_as_xyz
 x,y,z
_cell_length_a 37.5268
_cell_length_b 40.1577
_cell_length_c 20.9781
_cell_angle_alpha 90.047200
_cell_angle_beta 90.716900
_cell_angle_gamma 120.197000
loop_
  _atom_site_label
  _atom_site_type_symbol
  _atom_site_fract_x
  _atom_site_fract_y
  _atom_site_fract_z
C1 C 0.48808 0.92237 0.57513
 C2 C 0.47910 0.90169 0.51742
 C3 C 0.48859 0.92054 0.45856
 C4 C 0.50616 0.96108 0.45633
 C5 C 0.51703 0.98252 0.51380
 C6 C 0.51052 0.96339 0.57289
 C7 C 0.52900 0.98592 0.62791
 C8 C 0.54637 1.02558 0.62674
 C9 C 0.54680 1.04453 0.57021
 C10 C 0.53494 1.02332 0.51246
 C11 C 0.51372 0.98081 0.39824
 C12 C 0.53080 1.02073 0.39699
 C13 C 0.54045 1.04261 0.45380
 C14 C 0.55749 1.08342 0.45349
 C15 C 0.56933 1.10392 0.51187
 C16 C 0.56090 1.08455 0.57036
 H17 H 0.53026 0.97309 0.67258
 H18 H 0.55963 1.04143 0.67072
 H19 H 0.50626 0.96553 0.35310
 H20 H 0.53693 1.03430 0.35078
 H21 H 0.46339 0.87049 0.51763
 H22 H 0.57964 1.13448 0.51198
 C23 C -0.08857 0.46027 0.45168
 C24 C -0.10701 0.44837 0.51108
 C25 C -0.08326 0.45735 0.56772
 C26 C -0.03969 0.48249 0.56426
 C27 C -0.02075 0.49326 0.50381
 C28 C -0.04521 0.48055 0.44749
 C29 C -0.02581 0.48888 0.38807
 C30 C 0.01674 0.51148 0.38389
 C31 C 0.04136 0.52789 0.43879
 C32 C 0.02260 0.51820 0.49944
 C33 C -0.01498 0.49964 0.61913
 C34 C 0.02726 0.52538 0.61477
 C35 C 0.04674 0.53485 0.55539
 C36 C 0.08935 0.56186 0.55002
 C37 C 0.10752 0.57051 0.48995
 C38 C 0.08417 0.55415 0.43444
 H39 H -0.04342 0.47785 0.34413
 H40 H 0.03000 0.51662 0.33692
 H41 H -0.02830 0.49473 0.66600
 H42 H 0.04443 0.53811 0.65848
 H43 H -0.14033 0.43088 0.51246
 H44 H 0.13999 0.59186 0.48613
 C45 C 0.43795 0.52253 0.55777
 C46 C 0.42456 0.53058 0.49996
 C47 C 0.43372 0.52017 0.44131
 C48 C 0.45758 0.50191 0.43961
 C49 C 0.46786 0.49022 0.49719
 C50 C 0.45660 0.49915 0.55622
 C51 C 0.46308 0.48340 0.61208
 C52 C 0.48311 0.46223 0.61055
 C53 C 0.49665 0.45481 0.55279
 C54 C 0.48977 0.46983 0.49576
 C55 C 0.47165 0.49527 0.38178
 C56 C 0.49542 0.47761 0.38076
 C57 C 0.50517 0.46497 0.43734
 C58 C 0.52998 0.44767 0.43698
 C59 C 0.53662 0.43296 0.49349
 C60 C 0.51867 0.43450 0.55093
 H61 H 0.45236 0.48701 0.65779
 H62 H 0.48891 0.45280 0.65576
 H63 H 0.46531 0.50453 0.33677
 H64 H 0.50567 0.47357 0.33491
 H65 H 0.40885 0.54704 0.49988
 H66 H 0.55452 0.41856 0.49182
 O67 O 0.40106 0.66110 -0.05179
 O68 O 0.41208 0.73098 -0.06174
 C69 C 0.39911 0.75476 -0.06506
 O70 O 0.37027 0.75213 -0.03053
 O71 O 0.29735 0.69694 -0.06725
 C72 C 0.27440 0.66315 -0.08962
 O73 O 0.27358 0.63355 -0.06635
 O74 O 0.33681 0.62415 -0.08691
 C75 C 0.37515 0.63641 -0.09054
 O76 O 0.39577 0.66377 0.07464
 O77 O 0.41219 0.73546 0.06584
 C78 C 0.39073 0.74382 0.10137
 O79 O 0.35240 0.73024 0.09135
 O80 O 0.27794 0.67646 0.05411
 C81 C 0.26384 0.64267 0.07537
 O82 O 0.27774 0.62093 0.05927
 O83 O 0.33994 0.61029 0.03845
 C84 C 0.37048 0.62763 0.07686
 Cr85 Cr 0.40314 0.69711 0.00655
 Cr86 Cr 0.32520 0.71256 0.01162
 Cr87 Cr 0.30840 0.62429 -0.01330
 O88 O 0.34538 0.67784 0.00171
 O89 O 0.58748 0.31066 -0.06626
 O90 O 0.59179 0.25079 -0.03043
 C91 C 0.61705 0.24424 -0.06072
 O92 O 0.65588 0.26263 -0.05057
 O93 O 0.72638 0.32799 -0.04169
 C94 C 0.72980 0.35102 -0.08563
 O95 O 0.70754 0.36634 -0.08793
 O96 O 0.64076 0.37020 -0.07599
 C97 C 0.60549 0.34299 -0.09346
 O98 O 0.59555 0.33546 0.05592
 O99 O 0.59939 0.27575 0.09202
 C100 C 0.61749 0.25757 0.10677
 O101 O 0.64838 0.26141 0.07679
 O102 O 0.71464 0.33057 0.08342
 C103 C 0.73283 0.36719 0.08200
 O104 O 0.72702 0.38561 0.03727
 O105 O 0.65883 0.38699 0.04862
 C106 C 0.62292 0.36970 0.07170
 Cr107 Cr 0.59583 0.29424 0.01241
 Cr108 Cr 0.68514 0.29659 0.01653
 Cr109 Cr 0.68250 0.37524 -0.01872
 O110 O 0.65417 0.32210 0.00347
 C111 C 0.45896 0.85085 -0.29294
 C112 C 0.44644 0.86797 -0.24885
 C113 C 0.44369 0.90044 -0.26140
 C114 C 0.45591 0.91708 -0.32134
 C115 C 0.47237 0.90230 -0.36694
 C116 C 0.47203 0.86739 -0.35313
 O117 O 0.45719 0.81885 -0.27131
 C118 C 0.44346 0.81609 -0.21217
 C119 C 0.43696 0.84584 -0.19642
 C120 C 0.42263 0.84928 -0.13773
 C121 C 0.41311 0.82008 -0.09375
 C122 C 0.41732 0.78775 -0.10913
 C123 C 0.43387 0.78621 -0.16880
 H124 H 0.43219 0.91241 -0.22643
 H125 H 0.45266 0.94181 -0.33210
 H126 H 0.48347 0.85455 -0.38656
 H127 H 0.41816 0.87324 -0.12659
 H128 H 0.40100 0.82208 -0.04819
 H129 H 0.43700 0.76177 -0.18217
 C130 C 0.15662 0.59280 -0.30173
 C131 C 0.16836 0.63127 -0.29908
 C132 C 0.15436 0.64823 -0.34288
 C133 C 0.12748 0.62466 -0.39158
 C134 C 0.11517 0.58504 -0.39534
 C135 C 0.12982 0.56883 -0.34966
 O136 O 0.17418 0.58261 -0.25650
 C137 C 0.19750 0.61530 -0.22472
 C138 C 0.19514 0.64596 -0.24876
 C139 C 0.21784 0.68301 -0.22325
 C140 C 0.24397 0.68863 -0.17072
 C141 C 0.24687 0.65736 -0.14491
 C142 C 0.22309 0.62017 -0.17268
 H143 H 0.16419 0.67858 -0.34015
 H144 H 0.11657 0.63722 -0.42695
 H145 H 0.12127 0.53878 -0.35230
 H146 H 0.21566 0.70678 -0.24323
 H147 H 0.26188 0.71727 -0.15031
 H148 H 0.22459 0.59563 -0.15472
 C149 C 0.40240 0.56369 -0.31433
 C150 C 0.43677 0.57947 -0.27538
 C151 C 0.47198 0.57793 -0.28879
 C152 C 0.47177 0.55883 -0.34456
 C153 C 0.43649 0.54112 -0.38573
 C154 C 0.40159 0.54468 -0.37083
 O155 O 0.37226 0.56855 -0.29175
 C156 C 0.38823 0.58790 -0.23742
 C157 C 0.42769 0.59523 -0.22583
 C158 C 0.45077 0.61500 -0.17253
 C159 C 0.43264 0.62805 -0.12905
 C160 C 0.39189 0.62124 -0.13899
 C161 C 0.36916 0.60053 -0.19412
 H162 H 0.49883 0.59119 -0.25755
 H163 H 0.49969 0.55866 -0.35639
 H164 H 0.37417 0.53190 -0.40091
 H165 H 0.48174 0.62023 -0.16466
 H166 H 0.45061 0.64339 -0.08717
 H167 H 0.33813 0.59484 -0.20319
 C168 C 0.59110 0.15544 -0.29568
 C169 C 0.55668 0.13631 -0.25855
 C170 C 0.52262 0.10148 -0.27636
 C171 C 0.52439 0.08505 -0.33413
 C172 C 0.55986 0.10344 -0.37333
 C173 C 0.59313 0.14007 -0.35465
 O174 O 0.62052 0.18767 -0.26832
 C175 C 0.60412 0.18875 -0.21301
 C176 C 0.56499 0.15807 -0.20510
 C177 C 0.54181 0.15341 -0.15117
 C178 C 0.55954 0.18183 -0.10347
 C179 C 0.59998 0.21369 -0.10999
 C180 C 0.62272 0.21701 -0.16547
 H181 H 0.49584 0.08713 -0.24638
 H182 H 0.49787 0.05784 -0.34855
 H183 H 0.62059 0.15496 -0.38314
 H184 H 0.51103 0.12896 -0.14626
 H185 H 0.54182 0.17900 -0.06139
 H186 H 0.65343 0.24131 -0.17208
 C187 C 0.83778 0.41770 -0.30504
 C188 C 0.85449 0.40160 -0.26571
 C189 C 0.89188 0.40371 -0.27782
 C190 C 0.91291 0.42312 -0.33288
 C191 C 0.89642 0.44003 -0.37487
 C192 C 0.85783 0.43666 -0.36046
 O193 O 0.80235 0.41316 -0.28419
 C194 C 0.79646 0.39360 -0.23061
 C195 C 0.82734 0.38556 -0.21743
 C196 C 0.82733 0.36524 -0.16386
 C197 C 0.79438 0.35308 -0.12175
 C198 C 0.76248 0.36170 -0.13337
 C199 C 0.76357 0.38211 -0.18906
 H200 H 0.90433 0.39066 -0.24623
 H201 H 0.94136 0.42377 -0.34393
 H202 H 0.84423 0.44935 -0.39056
 H203 H 0.85195 0.35921 -0.15455
 H204 H 0.79430 0.33770 -0.07933
 H205 H 0.73982 0.38919 -0.19944
 C206 C 0.56204 0.40037 -0.32126
 C207 C 0.52642 0.37479 -0.29089
 C208 C 0.48764 0.36743 -0.31068
 C209 C 0.48545 0.38763 -0.36359
 C210 C 0.52169 0.41442 -0.39604
 C211 C 0.56048 0.41991 -0.37537
 O212 O 0.59586 0.40458 -0.29252
 C213 C 0.58117 0.38097 -0.24312
 C214 C 0.53882 0.36178 -0.24054
 C215 C 0.51680 0.33572 -0.19295
 C216 C 0.53932 0.32924 -0.14578
 C217 C 0.58311 0.34927 -0.14618
 C218 C 0.60434 0.37555 -0.19577
 H219 H 0.46008 0.34725 -0.28572
 H220 H 0.45542 0.38213 -0.37983
 H221 H 0.58873 0.44022 -0.39872
 H222 H 0.48347 0.32103 -0.19199
 H223 H 0.52260 0.30927 -0.10797
 H224 H 0.63770 0.39122 -0.19736
 C225 C 0.83583 0.41429 0.31424
 C226 C 0.84020 0.44674 0.28486
 C227 C 0.86584 0.48375 0.30856
 C228 C 0.88837 0.48755 0.36450
 C229 C 0.88500 0.45465 0.39515
 C230 C 0.85791 0.41741 0.37025
 O231 O 0.81025 0.38195 0.28302
 C232 C 0.79834 0.39435 0.23288
 C233 C 0.81587 0.43375 0.23189
 C234 C 0.80827 0.45301 0.18349
 C235 C 0.78125 0.43076 0.13409
 C236 C 0.76239 0.38992 0.13379
 C237 C 0.77125 0.37154 0.18417
 H238 H 0.86875 0.50881 0.28447
 H239 H 0.90903 0.51610 0.38362
 H240 H 0.85506 0.39196 0.39282
 H241 H 0.82260 0.48409 0.18378
 H242 H 0.77488 0.44548 0.09634
 H243 H 0.75745 0.34052 0.18562
 C244 C 0.59096 0.15758 0.32621
 C245 C 0.55443 0.14402 0.29288
 C246 C 0.51853 0.11056 0.30920
 C247 C 0.52028 0.09006 0.36203
 C248 C 0.55740 0.10344 0.39818
 C249 C 0.59305 0.13835 0.38049
 O250 O 0.62183 0.18918 0.30091
 C251 C 0.60421 0.19580 0.25086
 C252 C 0.56284 0.16924 0.24459
 C253 C 0.53796 0.17099 0.19667
 C254 C 0.55649 0.20119 0.15300
 C255 C 0.59931 0.22827 0.15693
 C256 C 0.62364 0.22555 0.20655
 H257 H 0.49018 0.10048 0.28205
 H258 H 0.49228 0.06432 0.37600
 H259 H 0.62180 0.14948 0.40703
 H260 H 0.50543 0.14986 0.19303
 H261 H 0.53772 0.20291 0.11491
 H262 H 0.65638 0.24594 0.21055
 C263 C 0.55735 0.40859 0.29358
 C264 C 0.58807 0.44226 0.26801
 C265 C 0.60141 0.47825 0.29549
 C266 C 0.58209 0.47963 0.35143
 C267 C 0.55022 0.44536 0.37845
 C268 C 0.53786 0.40930 0.34942
 O269 O 0.54974 0.37745 0.26038
 C270 C 0.57628 0.39178 0.21288
 C271 C 0.60044 0.43128 0.21550
 C272 C 0.63104 0.45222 0.17166
 C273 C 0.63743 0.43160 0.12358
 C274 C 0.61318 0.39076 0.11986
 C275 C 0.58175 0.37066 0.16491
 H276 H 0.62580 0.50431 0.27462
 H277 H 0.59174 0.50726 0.37380
 H278 H 0.51367 0.38280 0.36949
 H279 H 0.64979 0.48328 0.17494
 H280 H 0.66159 0.44749 0.08958
 H281 H 0.56316 0.33953 0.16401
 C282 C 0.15502 0.57823 0.29402
 C283 C 0.14220 0.59885 0.25764
 C284 C 0.11113 0.60589 0.27610
 C285 C 0.09221 0.59082 0.33446
 C286 C 0.10438 0.56901 0.37255
 C287 C 0.13650 0.56289 0.35238
 O288 O 0.18618 0.57626 0.26848
 C289 C 0.19315 0.59613 0.21489
 C290 C 0.16697 0.61047 0.20630
 C291 C 0.16964 0.63347 0.15522
 C292 C 0.20108 0.64272 0.11159
 C293 C 0.22899 0.62884 0.11942
 C294 C 0.22450 0.60455 0.17129
 H295 H 0.10208 0.62269 0.24694
 H296 H 0.06816 0.59615 0.35032
 H297 H 0.14672 0.54688 0.38134
 H298 H 0.14882 0.64460 0.14987
 H299 H 0.20405 0.66120 0.07199
 H300 H 0.24577 0.59411 0.17898
 C301 C 0.43890 0.84832 0.32352
 C302 C 0.47368 0.85274 0.29462
 C303 C 0.51345 0.87881 0.31582
 C304 C 0.51769 0.90132 0.36946
 C305 C 0.48250 0.89728 0.40056
 C306 C 0.44245 0.87030 0.37757
 O307 O 0.40412 0.82197 0.29482
 C308 C 0.41739 0.80949 0.24688
 C309 C 0.45971 0.82745 0.24528
 C310 C 0.48067 0.81906 0.20017
 C311 C 0.45720 0.79110 0.15425
 C312 C 0.41330 0.77206 0.15347
 C313 C 0.39307 0.78148 0.20086
 H314 H 0.54024 0.88165 0.29198
 H315 H 0.54832 0.92170 0.38731
 H316 H 0.41520 0.86671 0.40099
 H317 H 0.51402 0.83361 0.20018
 H318 H 0.47367 0.78479 0.11866
 H319 H 0.35978 0.76765 0.20177
 C320 C 0.41569 0.57174 0.30506
 C321 C 0.38810 0.54063 0.26871
 C322 C 0.37348 0.50267 0.28673
 C323 C 0.38830 0.49644 0.34443
 C324 C 0.41726 0.52794 0.38234
 C325 C 0.43081 0.56616 0.36286
 O326 O 0.42542 0.60537 0.27887
 C327 C 0.40348 0.59518 0.22482
 C328 C 0.38025 0.55588 0.21660
 C329 C 0.35485 0.53860 0.16389
 C330 C 0.35278 0.56276 0.11788
 C331 C 0.37593 0.60355 0.12505
 C332 C 0.40206 0.61998 0.17927
 H333 H 0.35165 0.47874 0.25727
 H334 H 0.37774 0.46716 0.35943
 H335 H 0.45292 0.59059 0.39121
 H336 H 0.33697 0.50758 0.15857
 H337 H 0.33277 0.54946 0.07677
 H338 H 0.41991 0.65088 0.18644
   
