data_POSCAR
  _audit_creation_date              2014-09-24
  _audit_creation_method            'ToBaCCo'
  _symmetry_space_group_name_H-M    'P1'
  _symmetry_Int_Tables_number       1
  _symmetry_cell_setting            triclinic
  loop_
  _symmetry_equiv_pos_as_xyz
 x,y,z
_cell_length_a 26.9975
_cell_length_b 24.3905
_cell_length_c 23.3536
_cell_angle_alpha 88.464300
_cell_angle_beta 93.231900
_cell_angle_gamma 90.538200
loop_
  _atom_site_label
  _atom_site_type_symbol
  _atom_site_fract_x
  _atom_site_fract_y
  _atom_site_fract_z
C1 C 0.25470 0.26874 0.24009
 C2 C 0.74418 0.76237 0.26153
 C3 C 0.75300 0.25037 0.73996
 C4 C 0.23549 0.75483 0.76382
 C5 C 0.08757 0.05449 0.04623
 H6 H 0.09345 0.05303 0.00084
 C7 C 0.12239 0.08041 0.08298
 H8 H 0.15526 0.09795 0.06518
 C9 C 0.03787 0.03131 0.12388
 H10 H 0.00514 0.01165 0.13968
 C11 C 0.07172 0.05682 0.16220
 H12 H 0.06437 0.05713 0.20731
 N13 N 0.04589 0.03158 0.06693
 C14 C 0.04504 -0.04978 -0.08078
 H15 H 0.03023 -0.01530 -0.10600
 C16 C 0.07404 -0.08838 -0.10648
 H17 H 0.07958 -0.08319 -0.15176
 C18 C 0.05565 -0.09702 0.00888
 H19 H 0.04933 -0.09929 0.05422
 C20 C 0.08357 -0.13734 -0.01527
 H21 H 0.09814 -0.17079 0.01195
 Zn22 Zn 0.00060 -0.00108 0.01323
 N23 N 0.03629 -0.05487 -0.02411
 C24 C -0.05854 0.03711 -0.08185
 N25 N -0.02582 0.05315 -0.03907
 C26 C -0.01616 0.10716 -0.03005
 C27 C -0.04056 0.14749 -0.06421
 C28 C -0.08358 0.07609 -0.11726
 C29 C -0.06339 -0.08745 0.05030
 C30 C -0.10340 -0.10934 0.07890
 C31 C -0.12518 -0.01771 0.10447
 C32 C -0.08429 0.00237 0.07610
 N33 N -0.05388 -0.03258 0.05056
 H34 H -0.06598 -0.00611 -0.08762
 H35 H 0.00898 0.11923 0.00505
 H36 H -0.03330 0.19030 -0.05542
 H37 H -0.10905 0.06178 -0.15106
 H38 H -0.04026 -0.11445 0.02777
 H39 H -0.11038 -0.15309 0.07808
 H40 H -0.14880 0.01055 0.12504
 H41 H -0.07654 0.04596 0.07459
 C42 C 0.09396 -0.13309 -0.07349
 C43 C 0.11411 0.08276 0.14180
 C44 C -0.13446 -0.07428 0.10712
 C45 C -0.07562 0.13235 -0.10765
 C46 C 0.02151 0.60572 0.53035
 H47 H -0.00212 0.61674 0.49301
 C48 C 0.04383 0.64693 0.56334
 H49 H 0.03660 0.68936 0.55093
 C50 C 0.06048 0.53723 0.59041
 H51 H 0.06702 0.49421 0.60016
 C52 C 0.08401 0.57714 0.62443
 H53 H 0.10783 0.56333 0.66050
 N54 N 0.03093 0.55213 0.54366
 C55 C 0.04653 0.43198 0.41163
 H56 H 0.00813 0.42179 0.40070
 C57 C 0.08399 0.40876 0.38165
 H58 H 0.07314 0.38110 0.34781
 C59 C 0.10569 0.48248 0.46781
 H60 H 0.11415 0.51173 0.50087
 C61 C 0.14436 0.45998 0.43920
 H62 H 0.18223 0.47190 0.45109
 Zn63 Zn 0.00528 0.49760 0.49386
 N64 N 0.05786 0.46760 0.45429
 C65 C -0.02897 0.54046 0.38505
 N66 N -0.04164 0.53005 0.43986
 C67 C -0.08697 0.54414 0.45722
 C68 C -0.12157 0.56973 0.41891
 C69 C -0.06248 0.56579 0.34530
 C70 C -0.02043 0.38788 0.52638
 C71 C -0.04707 0.34768 0.55553
 C72 C -0.08333 0.41883 0.60916
 C73 C -0.05615 0.45768 0.57878
 N74 N -0.02642 0.44189 0.53723
 H75 H 0.00757 0.53025 0.37226
 H76 H -0.09630 0.53596 0.50095
 H77 H -0.15751 0.57980 0.43377
 H78 H -0.05154 0.57431 0.30201
 H79 H 0.00428 0.37564 0.49448
 H80 H -0.04268 0.30500 0.54531
 H81 H -0.10631 0.43296 0.64207
 H82 H -0.05899 0.50067 0.58817
 C83 C 0.13396 0.42218 0.39588
 C84 C 0.07671 0.63322 0.61025
 C85 C -0.08000 0.36293 0.59648
 C86 C -0.10915 0.58151 0.36222
 C87 C 0.54215 0.08328 0.54109
 H88 H 0.52528 0.10301 0.50291
 C89 C 0.57300 0.11351 0.57893
 H90 H 0.57911 0.15664 0.56958
 C91 C 0.55268 0.00359 0.60074
 H92 H 0.54406 -0.03918 0.60910
 C93 C 0.58320 0.03230 0.63988
 H94 H 0.59831 0.01127 0.67833
 N95 N 0.53267 0.02938 0.55268
 C96 C 0.49812 -0.09855 0.42896
 H97 H 0.45829 -0.09494 0.42241
 C98 C 0.52345 -0.13593 0.39726
 H99 H 0.50282 -0.16172 0.36716
 C100 C 0.57369 -0.06778 0.47418
 H101 H 0.59327 -0.04077 0.50373
 C102 C 0.60053 -0.10407 0.44280
 H103 H 0.64048 -0.10541 0.44979
 Zn104 Zn 0.48797 -0.01187 0.50538
 N105 N 0.52337 -0.06556 0.46677
 C106 C 0.46873 0.03474 0.39461
 N107 N 0.45475 0.03486 0.44967
 C108 C 0.41666 0.06658 0.46472
 C109 C 0.39017 0.09879 0.42336
 C110 C 0.44327 0.06626 0.35193
 C111 C 0.42519 -0.09745 0.54952
 C112 C 0.39225 -0.11997 0.58813
 C113 C 0.39436 -0.03405 0.63721
 C114 C 0.42639 -0.01301 0.59714
 N115 N 0.44123 -0.04463 0.55430
 H116 H 0.49954 0.00991 0.38355
 H117 H 0.40606 0.06608 0.50863
 H118 H 0.35893 0.12190 0.43637
 H119 H 0.45453 0.06502 0.30819
 H120 H 0.43822 -0.12260 0.51630
 H121 H 0.38109 -0.16229 0.58324
 H122 H 0.38364 -0.00797 0.67120
 H123 H 0.44026 0.02854 0.60091
 C124 C 0.57532 -0.13838 0.40331
 C125 C 0.59387 0.08785 0.62921
 C126 C 0.37641 -0.08810 0.63311
 C127 C 0.40337 0.09876 0.36589
 C128 C 0.55684 0.59177 0.03875
 H129 H 0.53574 0.61569 0.00647
 C130 C 0.58521 0.61845 0.08162
 H131 H 0.58493 0.66276 0.08169
 C132 C 0.58000 0.50501 0.07920
 H133 H 0.57703 0.46077 0.07838
 C134 C 0.60873 0.52998 0.12294
 H135 H 0.62823 0.50463 0.15551
 N136 N 0.55490 0.53605 0.03819
 C137 C 0.52517 0.44520 -0.11806
 H138 H 0.48607 0.45411 -0.12531
 C139 C 0.54975 0.41647 -0.15869
 H140 H 0.52948 0.40341 -0.19740
 C141 C 0.59926 0.45194 -0.05900
 H142 H 0.61850 0.46646 -0.02041
 C143 C 0.62516 0.42253 -0.09817
 H144 H 0.66443 0.41534 -0.08959
 Zn145 Zn 0.51286 0.50036 -0.01689
 N146 N 0.55002 0.46206 -0.06928
 C147 C 0.49524 0.58025 -0.10322
 N148 N 0.47370 0.55290 -0.05955
 C149 C 0.42551 0.56151 -0.04855
 C150 C 0.39699 0.59908 -0.08211
 C151 C 0.46785 0.61714 -0.13868
 C152 C 0.47009 0.39657 0.00699
 C153 C 0.44210 0.35844 0.03721
 C154 C 0.41983 0.43030 0.09991
 C155 C 0.44832 0.46711 0.06842
 N156 N 0.47236 0.44989 0.02262
 H157 H 0.53361 0.57254 -0.11116
 H158 H 0.40882 0.53882 -0.01421
 H159 H 0.35852 0.60365 -0.07283
 H160 H 0.48566 0.63765 -0.17387
 H161 H 0.49032 0.38325 -0.02863
 H162 H 0.44074 0.31617 0.02407
 H163 H 0.40209 0.44499 0.13684
 H164 H 0.45191 0.50940 0.08100
 C165 C 0.60011 0.40409 -0.14859
 C166 C 0.61186 0.58738 0.12443
 C167 C 0.41619 0.37507 0.08402
 C168 C 0.41802 0.62728 -0.12847
 C169 C 0.20393 -0.20321 -0.21491
 C170 C 0.17573 -0.21063 -0.16665
 C171 C 0.14600 -0.16875 -0.14848
 C172 C 0.12371 -0.17349 -0.09594
 H173 H 0.17768 -0.24908 -0.14231
 H174 H 0.14292 -0.13129 -0.17421
 H175 H 0.19916 -0.16473 -0.23911
 H176 H 0.13244 -0.20955 -0.06913
 C177 C 0.21080 0.29555 0.26617
 C178 C 0.21579 0.33503 0.30483
 C179 C 0.17186 0.35767 0.32995
 C180 C 0.17621 0.39837 0.36721
 H181 H 0.25240 0.35018 0.31818
 H182 H 0.13616 0.33971 0.31813
 H183 H 0.17356 0.28147 0.25371
 H184 H 0.21302 0.41441 0.37833
 C185 C 0.71545 -0.19573 0.29322
 C186 C 0.67215 -0.20772 0.31619
 C187 C 0.64737 -0.16767 0.35081
 C188 C 0.60179 -0.17744 0.36865
 H189 H 0.65521 -0.24774 0.31002
 H190 H 0.66635 -0.12950 0.36086
 H191 H 0.73244 -0.15598 0.30133
 H192 H 0.58217 -0.21431 0.35515
 C193 C 0.72415 0.27581 -0.21342
 C194 C 0.68809 0.31237 -0.22550
 C195 C 0.66401 0.34069 -0.17975
 C196 C 0.62555 0.37388 -0.19237
 H197 H 0.67709 0.32239 -0.26989
 H198 H 0.67764 0.33398 -0.13562
 H199 H 0.73532 0.26684 -0.16882
 H200 H 0.61078 0.37747 -0.23647
 C201 C -0.21452 0.20458 -0.23325
 C202 C -0.17428 0.21388 -0.19858
 C203 C -0.14600 0.16779 -0.17147
 C204 C -0.10372 0.17634 -0.14013
 H205 H -0.16257 0.25562 -0.18991
 H206 H -0.16128 0.12692 -0.17601
 H207 H -0.22557 0.16237 -0.24067
 H208 H -0.09037 0.21817 -0.13552
 C209 C -0.23403 0.72059 0.30557
 C210 C -0.20561 0.67908 0.29089
 C211 C -0.17812 0.64527 0.33482
 C212 C -0.14302 0.61085 0.32000
 H213 H -0.20005 0.67258 0.24595
 H214 H -0.18411 0.65197 0.37952
 H215 H -0.23827 0.72726 0.35081
 H216 H -0.13606 0.60749 0.27493
 C217 C 0.28646 0.24007 0.28782
 C218 C 0.31694 0.19845 0.27913
 C219 C 0.34554 0.17169 0.32753
 C220 C 0.37530 0.12944 0.31906
 H221 H 0.31977 0.18301 0.23639
 H222 H 0.34187 0.18686 0.37018
 H223 H 0.28527 0.25508 0.33102
 H224 H 0.37968 0.11683 0.27545
 C225 C 0.27077 0.73549 -0.19089
 C226 C 0.31630 0.71109 -0.20081
 C227 C 0.34373 0.68316 -0.15704
 C228 C 0.39075 0.66284 -0.16647
 H229 H 0.33013 0.71241 -0.24351
 H230 H 0.32810 0.67773 -0.11561
 H231 H 0.25921 0.73261 -0.14718
 H232 H 0.40756 0.67596 -0.20575
 C233 C -0.21271 -0.20939 0.23284
 C234 C -0.21788 -0.16512 0.19789
 C235 C -0.17523 -0.14368 0.16736
 C236 C -0.17705 -0.09568 0.13836
 H237 H -0.25367 -0.14551 0.19110
 H238 H -0.14142 -0.16744 0.16931
 H239 H -0.17622 -0.22774 0.23820
 H240 H -0.20967 -0.07026 0.13976
 C241 C -0.21556 0.29503 0.71278
 C242 C -0.17902 0.28438 0.67840
 C243 C -0.15022 0.32945 0.65302
 C244 C -0.10977 0.31949 0.62454
 H245 H -0.17001 0.24228 0.66977
 H246 H -0.16308 0.37090 0.65740
 H247 H -0.22413 0.33757 0.72017
 H248 H -0.09891 0.27722 0.61974
 C249 C 0.26156 -0.22305 0.71548
 C250 C 0.29063 -0.17521 0.71839
 C251 C 0.31888 -0.15798 0.67294
 C252 C 0.34475 -0.10807 0.67496
 H253 H 0.29131 -0.15129 0.75692
 H254 H 0.31942 -0.18340 0.63577
 H255 H 0.26237 -0.24663 0.67667
 H256 H 0.33905 -0.08221 0.71110
 C257 C 0.28527 0.31276 0.21057
 C258 C 0.32348 0.30119 0.17894
 C259 C 0.35124 0.34520 0.15011
 C260 C 0.38745 0.33326 0.11576
 H261 H 0.33364 0.25892 0.17328
 H262 H 0.34077 0.38730 0.15599
 H263 H 0.27566 0.35549 0.21493
 H264 H 0.39536 0.29048 0.10890
 C265 C 0.23353 0.22864 0.19593
 C266 C 0.20713 0.18428 0.21094
 C267 C 0.17949 0.15182 0.16740
 C268 C 0.14801 0.11212 0.18296
 H269 H 0.20332 0.17424 0.25601
 H270 H 0.18251 0.16343 0.12271
 H271 H 0.23548 0.23936 0.15070
 H272 H 0.14428 0.10348 0.22833
 C273 C 0.20490 0.70898 0.74508
 C274 C 0.16528 0.71481 0.70402
 C275 C 0.13928 0.66939 0.68269
 C276 C 0.10180 0.67609 0.63926
 H277 H 0.15572 0.75549 0.68725
 H278 H 0.15009 0.62913 0.69894
 H279 H 0.21428 0.66768 0.76047
 H280 H 0.09312 0.71779 0.62490
 C281 C 0.71751 0.22646 0.69390
 C282 C 0.68397 0.18769 0.70604
 C283 C 0.65216 0.16225 0.66062
 C284 C 0.62507 0.11762 0.67257
 H285 H 0.68118 0.17336 0.75013
 H286 H 0.65269 0.17872 0.61714
 H287 H 0.72047 0.23999 0.64956
 H288 H 0.62768 0.10035 0.71592
 C289 C 0.71039 0.73669 0.21468
 C290 C 0.68956 0.68669 0.21859
 C291 C 0.65903 0.66449 0.17015
 C292 C 0.64169 0.61290 0.17213
 H293 H 0.69515 0.66165 0.25737
 H294 H 0.65237 0.69018 0.13207
 H295 H 0.70238 0.76118 0.17585
 H296 H 0.65121 0.58740 0.20984
   
