data_POSCAR
  _audit_creation_date              2014-09-24
  _audit_creation_method            'ToBaCCo'
  _symmetry_space_group_name_H-M    'P1'
  _symmetry_Int_Tables_number       1
  _symmetry_cell_setting            triclinic
  loop_
  _symmetry_equiv_pos_as_xyz
 x,y,z
_cell_length_a 57.7047
_cell_length_b 57.6507
_cell_length_c 57.6904
_cell_angle_alpha 89.950600
_cell_angle_beta 90.008400
_cell_angle_gamma 89.892100
loop_
  _atom_site_label
  _atom_site_type_symbol
  _atom_site_fract_x
  _atom_site_fract_y
  _atom_site_fract_z
C1 C 0.60766 0.64156 0.62590
 N2 N 0.60717 0.62422 0.64186
 C3 C 0.62398 0.60766 0.64229
 N4 N 0.64112 0.60841 0.62612
 C5 C 0.64168 0.62545 0.60985
 N6 N 0.62501 0.64212 0.61000
 C7 C 0.89216 0.35774 0.12572
 N8 N 0.89271 0.37524 0.14153
 C9 C 0.87600 0.39188 0.14178
 N10 N 0.85887 0.39124 0.12564
 C11 C 0.85818 0.37407 0.10955
 N12 N 0.87471 0.35727 0.10988
 C13 C 0.39136 0.14191 -0.12482
 N14 N 0.39121 0.12522 -0.14142
 C15 C 0.37475 0.10841 -0.14143
 N16 N 0.35829 0.10844 -0.12460
 C17 C 0.35815 0.12504 -0.10791
 N18 N 0.37476 0.14172 -0.10812
 C19 C 0.10709 0.85831 0.37501
 N20 N 0.12379 0.85854 0.39164
 C21 C 0.14056 0.87504 0.39165
 N22 N 0.14053 0.89153 0.37482
 C23 C 0.12394 0.89172 0.35807
 N24 N 0.10733 0.87501 0.35834
 N25 N 0.09720 0.16237 0.11676
 N26 N 0.08688 0.15170 0.13406
 C27 C 0.06771 0.16367 0.14001
 C28 C 0.06613 0.18300 0.12584
 C29 C 0.08516 0.18164 0.11135
 H30 H 0.05604 0.15907 0.15392
 H31 H 0.08965 0.19356 0.09759
 Cu32 Cu 0.10045 0.12385 0.14750
 Cu33 Cu 0.12502 0.15013 0.10190
 Cu34 Cu 0.14871 0.10008 0.12556
 N35 N 0.11407 0.09620 0.16128
 N36 N 0.13325 0.08728 0.15276
 C37 C 0.13962 0.06893 0.16572
 C38 C 0.12351 0.06604 0.18326
 C39 C 0.10750 0.08366 0.17987
 H40 H 0.15475 0.05835 0.16246
 H41 H 0.09254 0.08738 0.19051
 N42 N 0.16171 0.11565 0.09806
 N43 N 0.15292 0.13490 0.08928
 C44 C 0.16561 0.14123 0.07074
 C45 C 0.18321 0.12518 0.06763
 C46 C 0.18016 0.10920 0.08528
 H47 H 0.16205 0.15620 0.06002
 H48 H 0.19073 0.09409 0.08870
 H49 H 0.12000 0.11588 0.11103
 H50 H 0.13797 0.13380 0.13106
 N51 N 0.40155 0.83756 0.61657
 N52 N 0.41200 0.84841 0.63366
 C53 C 0.43110 0.83639 0.63978
 C54 C 0.43261 0.81692 0.62582
 C55 C 0.41353 0.81822 0.61134
 H56 H 0.44281 0.84116 0.65360
 H57 H 0.40893 0.80620 0.59773
 Cu58 Cu 0.39853 0.87653 0.64652
 Cu59 Cu 0.37357 0.84963 0.60175
 Cu60 Cu 0.34971 0.89961 0.62547
 N61 N 0.38479 0.90383 0.66077
 N62 N 0.36532 0.91245 0.65259
 C63 C 0.35881 0.93057 0.66574
 C64 C 0.37509 0.93359 0.68309
 C65 C 0.39137 0.91628 0.67939
 H66 H 0.34345 0.94091 0.66273
 H67 H 0.40656 0.91275 0.68978
 N68 N 0.33664 0.88394 0.59805
 N69 N 0.34549 0.86474 0.58924
 C70 C 0.33283 0.85843 0.57069
 C71 C 0.31519 0.87446 0.56758
 C72 C 0.31819 0.89038 0.58527
 H73 H 0.33646 0.84354 0.55991
 H74 H 0.30762 0.90549 0.58865
 H75 H 0.37813 0.88401 0.61041
 H76 H 0.36085 0.86604 0.63095
 N77 N 0.90275 0.66227 0.38511
 N78 N 0.91162 0.65305 0.36625
 C79 C 0.93011 0.66566 0.35959
 C80 C 0.93309 0.68363 0.37524
 C81 C 0.91538 0.68089 0.39120
 H82 H 0.94078 0.66193 0.34465
 H83 H 0.91178 0.69179 0.40601
 Cu84 Cu 0.89801 0.62538 0.35259
 Cu85 Cu 0.87519 0.64979 0.40019
 Cu86 Cu 0.85068 0.60074 0.37562
 N87 N 0.88438 0.59770 0.33892
 N88 N 0.86566 0.58835 0.34791
 C89 C 0.85951 0.56982 0.33516
 C90 C 0.87526 0.56728 0.31721
 C91 C 0.89082 0.58534 0.32017
 H92 H 0.84483 0.55882 0.33890
 H93 H 0.90553 0.58934 0.30929
 N94 N 0.83812 0.61580 0.40365
 N95 N 0.84733 0.63459 0.41288
 C96 C 0.83475 0.64083 0.43153
 C97 C 0.81678 0.62518 0.43429
 C98 C 0.81952 0.60954 0.41629
 H99 H 0.83851 0.65556 0.44247
 H100 H 0.80856 0.59485 0.41248
 H101 H 0.87986 0.61595 0.38956
 H102 H 0.86115 0.63468 0.37092
 N103 N 0.59720 0.33802 -0.11536
 N104 N 0.58817 0.34743 -0.13406
 C105 C 0.56960 0.33493 -0.14064
 C106 C 0.56674 0.31679 -0.12513
 C107 C 0.58460 0.31936 -0.10932
 H108 H 0.55888 0.33878 -0.15550
 H109 H 0.58829 0.30835 -0.09460
 Cu110 Cu 0.60184 0.37505 -0.14774
 Cu111 Cu 0.62482 0.35037 -0.10032
 Cu112 Cu 0.64944 0.39940 -0.12494
 N113 N 0.61551 0.40269 -0.16139
 N114 N 0.63439 0.41185 -0.15258
 C115 C 0.64063 0.43030 -0.16542
 C116 C 0.62475 0.43298 -0.18322
 C117 C 0.60902 0.41514 -0.18009
 H118 H 0.65541 0.44122 -0.16183
 H119 H 0.59425 0.41127 -0.19091
 N120 N 0.66201 0.38424 -0.09695
 N121 N 0.65276 0.36546 -0.08771
 C122 C 0.66533 0.35918 -0.06905
 C123 C 0.68332 0.37479 -0.06630
 C124 C 0.68062 0.39045 -0.08432
 H125 H 0.66150 0.34448 -0.05808
 H126 H 0.69160 0.40513 -0.08813
 H127 H 0.62027 0.38430 -0.11086
 H128 H 0.63880 0.36554 -0.12963
 C129 C -0.05602 0.30551 0.12583
 C130 C -0.05365 0.32528 0.13979
 C131 C -0.07087 0.34236 0.14002
 C132 C -0.09062 0.34040 0.12576
 C133 C -0.09270 0.32063 0.11152
 C134 C -0.07576 0.30327 0.11182
 C135 C -0.03796 0.28732 0.12586
 N136 N -0.04354 0.26481 0.12179
 N137 N -0.02726 0.24839 0.12196
 C138 C -0.00473 0.25388 0.12594
 N139 N 0.00086 0.27641 0.12987
 N140 N -0.01545 0.29278 0.12997
 C141 C 0.01336 0.23572 0.12594
 C142 C 0.03615 0.24108 0.11931
 C143 C 0.05324 0.22387 0.11908
 C144 C 0.04800 0.20113 0.12600
 C145 C 0.02528 0.19582 0.13290
 C146 C 0.00804 0.21290 0.13261
 H147 H -0.03861 0.32737 0.15082
 H148 H -0.06846 0.35727 0.15117
 H149 H -0.10760 0.31831 0.10034
 H150 H -0.07793 0.28823 0.10081
 H151 H 0.04067 0.25850 0.11396
 H152 H 0.07065 0.22845 0.11381
 H153 H 0.02075 0.17837 0.13817
 H154 H -0.00938 0.20835 0.13789
 C155 C 0.55494 0.69440 0.62606
 C156 C 0.57690 0.69889 0.61658
 C157 C 0.59394 0.68163 0.61628
 C158 C 0.58952 0.65969 0.62591
 C159 C 0.56765 0.65527 0.63563
 C160 C 0.55045 0.67238 0.63549
 C161 C 0.53682 0.71256 0.62610
 N162 N 0.51403 0.70677 0.62685
 N163 N 0.49770 0.72313 0.62676
 C164 C 0.50350 0.74594 0.62613
 N165 N 0.52630 0.75174 0.62547
 N166 N 0.54263 0.73537 0.62534
 C167 C 0.48537 0.76409 0.62615
 C168 C 0.49030 0.78654 0.63420
 C169 C 0.47308 0.80363 0.63439
 C170 C 0.45072 0.79873 0.62612
 C171 C 0.44585 0.77632 0.61793
 C172 C 0.46294 0.75913 0.61812
 H173 H 0.58081 0.71568 0.60911
 H174 H 0.61069 0.68556 0.60878
 H175 H 0.56374 0.63849 0.64309
 H176 H 0.53371 0.66847 0.64302
 H177 H 0.50741 0.79083 0.64058
 H178 H 0.47738 0.82078 0.64068
 H179 H 0.42873 0.77198 0.61162
 H180 H 0.45869 0.74201 0.61169
 C181 C 1.05527 0.80620 0.37493
 C182 C 1.07101 0.80793 0.39341
 C183 C 1.08821 0.82497 0.39336
 C184 C 1.08986 0.84104 0.37500
 C185 C 1.07387 0.83933 0.35660
 C186 C 1.05696 0.82200 0.35648
 C187 C 1.03718 0.78800 0.37491
 N188 N 1.02671 0.78147 0.35487
 N189 N 1.01052 0.76503 0.35485
 C190 C 1.00400 0.75455 0.37491
 N191 N 1.01441 0.76114 0.39497
 N192 N 1.03072 0.77747 0.39496
 C193 C 0.98590 0.73637 0.37496
 C194 C 0.97419 0.73067 0.39553
 C195 C 0.95698 0.71363 0.39558
 C196 C 0.95130 0.70172 0.37512
 C197 C 0.96317 0.70726 0.35459
 C198 C 0.98017 0.72451 0.35447
 H199 H 1.07020 0.79593 0.40784
 H200 H 1.10006 0.82561 0.40791
 H201 H 1.07449 0.85122 0.34206
 H202 H 1.04503 0.82114 0.34202
 H203 H 0.97816 0.73954 0.41158
 H204 H 0.94834 0.70965 0.41174
 H205 H 0.95912 0.69848 0.33852
 H206 H 0.98900 0.72841 0.33837
 C207 C 0.44424 0.19453 -0.12506
 C208 C 0.43089 0.19049 -0.10509
 C209 C 0.41359 0.17355 -0.10507
 C210 C 0.40949 0.16005 -0.12491
 C211 C 0.42295 0.16397 -0.14483
 C212 C 0.44004 0.18112 -0.14495
 C213 C 0.46241 0.21262 -0.12515
 N214 N 0.47122 0.22076 -0.14541
 N215 N 0.48748 0.23714 -0.14547
 C216 C 0.49571 0.24595 -0.12526
 N217 N 0.48696 0.23775 -0.10500
 N218 N 0.47061 0.22148 -0.10494
 C219 C 0.51382 0.26412 -0.12528
 C220 C 0.52646 0.26892 -0.10504
 C221 C 0.54366 0.28594 -0.10505
 C222 C 0.54850 0.29870 -0.12523
 C223 C 0.53573 0.29404 -0.14544
 C224 C 0.51866 0.27685 -0.14550
 H225 H 0.43364 0.20057 -0.08950
 H226 H 0.40358 0.17087 -0.08941
 H227 H 0.42018 0.15389 -0.16041
 H228 H 0.45009 0.18373 -0.16058
 H229 H 0.52322 0.25937 -0.08920
 H230 H 0.55299 0.28922 -0.08912
 H231 H 0.53907 0.30345 -0.16132
 H232 H 0.50915 0.27364 -0.16136
 C233 C 0.12373 -0.05623 0.30604
 C234 C 0.14217 -0.05789 0.32184
 C235 C 0.14217 -0.07491 0.33912
 C236 C 0.12390 -0.09102 0.34077
 C237 C 0.10555 -0.08940 0.32471
 C238 C 0.10538 -0.07210 0.30773
 C239 C 0.12365 -0.03807 0.28787
 N240 N 0.10360 -0.03173 0.27724
 N241 N 0.10353 -0.01534 0.26094
 C242 C 0.12352 -0.00473 0.25448
 N243 N 0.14357 -0.01114 0.26506
 N244 N 0.14362 -0.02741 0.28147
 C245 C 0.12348 0.01340 0.23630
 C246 C 0.14407 0.01930 0.22474
 C247 C 0.14405 0.03634 0.20749
 C248 C 0.12349 0.04804 0.20159
 C249 C 0.10292 0.04226 0.21326
 C250 C 0.10288 0.02501 0.23032
 H251 H 0.15653 -0.04585 0.32103
 H252 H 0.15669 -0.07549 0.35102
 H253 H 0.09108 -0.10133 0.32534
 H254 H 0.09095 -0.07131 0.29575
 H255 H 0.16020 0.01059 0.22885
 H256 H 0.16023 0.04049 0.19898
 H257 H 0.08677 0.05083 0.20902
 H258 H 0.08674 0.02091 0.23897
 C259 C 0.62390 0.55544 -0.30586
 C260 C 0.64255 0.55744 -0.32134
 C261 C 0.64244 0.57443 -0.33864
 C262 C 0.62383 0.59018 -0.34063
 C263 C 0.60522 0.58819 -0.32493
 C264 C 0.60518 0.57091 -0.30791
 C265 C 0.62399 0.53732 -0.28765
 N266 N 0.60395 0.53058 -0.27731
 N267 N 0.60404 0.51419 -0.26101
 C268 C 0.62418 0.50399 -0.25425
 N269 N 0.64422 0.51081 -0.26452
 N270 N 0.64412 0.52708 -0.28093
 C271 C 0.62429 0.48583 -0.23608
 C272 C 0.64483 0.48030 -0.22422
 C273 C 0.64494 0.46322 -0.20701
 C274 C 0.62458 0.45110 -0.20146
 C275 C 0.60405 0.45656 -0.21340
 C276 C 0.60387 0.47385 -0.23042
 H277 H 0.65721 0.54574 -0.32024
 H278 H 0.65718 0.57533 -0.35024
 H279 H 0.59052 0.59987 -0.32579
 H280 H 0.59060 0.56986 -0.29615
 H281 H 0.66083 0.48929 -0.22809
 H282 H 0.66107 0.45934 -0.19825
 H283 H 0.58801 0.44770 -0.20942
 H284 H 0.58777 0.47766 -0.23932
 C285 C 0.37480 1.05562 0.80577
 C286 C 0.39338 1.07121 0.80767
 C287 C 0.39331 1.08842 0.82471
 C288 C 0.37476 1.09025 0.84041
 C289 C 0.35623 1.07455 0.83858
 C290 C 0.35620 1.05751 0.82136
 C291 C 0.37484 1.03749 0.78762
 N292 N 0.35487 1.02677 0.78132
 N293 N 0.35490 1.01051 0.76494
 C294 C 0.37492 1.00417 0.75429
 N295 N 0.39490 1.01484 0.76064
 N296 N 0.39485 1.03121 0.77691
 C297 C 0.37497 0.98603 0.73617
 C298 C 0.39564 0.97467 0.73004
 C299 C 0.39565 0.95746 0.71299
 C300 C 0.37504 0.95148 0.70149
 C301 C 0.35439 0.96289 0.70760
 C302 C 0.35433 0.97990 0.72483
 H303 H 0.40789 1.07028 0.79580
 H304 H 0.40786 1.10022 0.82561
 H305 H 0.34166 1.07545 0.85038
 H306 H 0.34171 1.04565 0.82042
 H307 H 0.41180 0.97895 0.73854
 H308 H 0.41187 0.94909 0.70860
 H309 H 0.33818 0.95856 0.69923
 H310 H 0.33815 0.98843 0.72908
 C311 C 0.87609 0.44478 0.19454
 C312 C 0.89616 0.43165 0.19009
 C313 C 0.89615 0.41446 0.17299
 C314 C 0.87616 0.41024 0.15974
 C315 C 0.85614 0.42347 0.16408
 C316 C 0.85606 0.44043 0.18138
 C317 C 0.87603 0.46288 0.21278
 N318 N 0.85577 0.47149 0.22114
 N319 N 0.85570 0.48776 0.23754
 C320 C 0.87589 0.49621 0.24617
 N321 N 0.89616 0.48763 0.23778
 N322 N 0.89623 0.47126 0.22148
 C323 C 0.87578 0.51440 0.26433
 C324 C 0.89586 0.52730 0.26912
 C325 C 0.89567 0.54455 0.28616
 C326 C 0.87546 0.54914 0.29897
 C327 C 0.85542 0.53615 0.29426
 C328 C 0.85554 0.51906 0.27707
 H329 H 0.91184 0.43447 0.20001
 H330 H 0.91184 0.40456 0.17007
 H331 H 0.84041 0.42054 0.15429
 H332 H 0.84033 0.45026 0.18433
 H333 H 0.91172 0.52419 0.25958
 H334 H 0.91146 0.55411 0.28942
 H335 H 0.83949 0.53932 0.30364
 H336 H 0.83981 0.50936 0.27391
 C337 C 0.30526 0.12492 -0.05523
 C338 C 0.31874 0.14482 -0.05919
 C339 C 0.33603 0.14480 -0.07615
 C340 C 0.34001 0.12499 -0.08976
 C341 C 0.32643 0.10514 -0.08592
 C342 C 0.30934 0.10506 -0.06875
 C343 C 0.28709 0.12490 -0.03712
 N344 N 0.27805 0.10465 -0.02917
 N345 N 0.26180 0.10464 -0.01277
 C346 C 0.25380 0.12488 -0.00373
 N347 N 0.26278 0.14512 -0.01175
 N348 N 0.27912 0.14513 -0.02805
 C349 C 0.23572 0.12491 0.01449
 C350 C 0.22343 0.14531 0.01968
 C351 C 0.20633 0.14537 0.03684
 C352 C 0.20127 0.12507 0.04934
 C353 C 0.21364 0.10468 0.04421
 C354 C 0.23060 0.10458 0.02691
 H355 H 0.31608 0.16039 -0.04903
 H356 H 0.34613 0.16040 -0.07876
 H357 H 0.32911 0.08958 -0.09608
 H358 H 0.29919 0.08948 -0.06620
 H359 H 0.22689 0.16125 0.01037
 H360 H 0.19728 0.16142 0.04043
 H361 H 0.21009 0.08869 0.05337
 H362 H 0.23983 0.08859 0.02339
 C363 C 0.69453 0.62546 0.55710
 C364 C 0.68143 0.64556 0.56152
 C365 C 0.66426 0.64557 0.57862
 C366 C 0.66002 0.62558 0.59189
 C367 C 0.67322 0.60553 0.58758
 C368 C 0.69018 0.60542 0.57028
 C369 C 0.71261 0.62539 0.53886
 N370 N 0.72123 0.60511 0.53050
 N371 N 0.73745 0.60505 0.51407
 C372 C 0.74585 0.62527 0.50540
 N373 N 0.73727 0.64555 0.51380
 N374 N 0.72095 0.64561 0.53013
 C375 C 0.76398 0.62523 0.48720
 C376 C 0.77673 0.64542 0.48241
 C377 C 0.79391 0.64537 0.46532
 C378 C 0.79859 0.62520 0.45247
 C379 C 0.78574 0.60505 0.45718
 C380 C 0.76871 0.60503 0.47442
 H381 H 0.68427 0.66125 0.55159
 H382 H 0.65438 0.66130 0.58152
 H383 H 0.67026 0.58978 0.59739
 H384 H 0.69998 0.58967 0.56734
 H385 H 0.77357 0.66125 0.49201
 H386 H 0.80332 0.66126 0.46206
 H387 H 0.78899 0.58916 0.44774
 H388 H 0.75913 0.58921 0.47761
 C389 C 0.80548 0.37412 0.05661
 C390 C 0.80984 0.39416 0.06975
 C391 C 0.82673 0.39404 0.08711
 C392 C 0.83987 0.37397 0.09153
 C393 C 0.83563 0.35396 0.07830
 C394 C 0.81851 0.35399 0.06114
 C395 C 0.78746 0.37422 0.03831
 N396 N 0.77909 0.35402 0.02960
 N397 N 0.76279 0.35411 0.01325
 C398 C 0.75426 0.37441 0.00481
 N399 N 0.76270 0.39461 0.01345
 N400 N 0.77890 0.39452 0.02990
 C401 C 0.73615 0.37450 -0.01341
 C402 C 0.73147 0.39473 -0.02620
 C403 C 0.71443 0.39479 -0.04344
 C404 C 0.70151 0.37469 -0.04813
 C405 C 0.70615 0.35448 -0.03527
 C406 C 0.72334 0.35436 -0.01819
 H407 H 0.80008 0.40994 0.06673
 H408 H 0.82969 0.40979 0.09689
 H409 H 0.84546 0.33821 0.08128
 H410 H 0.81567 0.33830 0.05124
 H411 H 0.74108 0.41052 -0.02301
 H412 H 0.71123 0.41071 -0.05287
 H413 H 0.69669 0.33863 -0.03853
 H414 H 0.72644 0.33851 -0.00858
 C415 C 0.19327 0.87502 0.44454
 C416 C 0.17978 0.85515 0.44053
 C417 C 0.16258 0.85521 0.42347
 C418 C 0.15869 0.87504 0.40982
 C419 C 0.17228 0.89487 0.41371
 C420 C 0.18928 0.89491 0.43099
 C421 C 0.21138 0.87500 0.46274
 N422 N 0.22041 0.89522 0.47073
 N423 N 0.23664 0.89518 0.48715
 C424 C 0.24462 0.87492 0.49619
 N425 N 0.23564 0.85470 0.48815
 N426 N 0.21932 0.85474 0.47182
 C427 C 0.26272 0.87485 0.51440
 C428 C 0.27504 0.85444 0.51956
 C429 C 0.29215 0.85436 0.53671
 C430 C 0.29718 0.87462 0.54925
 C431 C 0.28480 0.89502 0.54413
 C432 C 0.26783 0.89515 0.52683
 H433 H 0.18237 0.83958 0.45073
 H434 H 0.15246 0.83964 0.42085
 H435 H 0.16966 0.91045 0.40355
 H436 H 0.19943 0.91046 0.43359
 H437 H 0.27160 0.83853 0.51023
 H438 H 0.30123 0.83831 0.54029
 H439 H 0.28834 0.91099 0.55330
 H440 H 0.25859 0.91114 0.52334
   
