data_POSCAR
  _audit_creation_date              2014-09-24
  _audit_creation_method            'ToBaCCo'
  _symmetry_space_group_name_H-M    'P1'
  _symmetry_Int_Tables_number       1
  _symmetry_cell_setting            triclinic
  loop_
  _symmetry_equiv_pos_as_xyz
 x,y,z
_cell_length_a 49.8042
_cell_length_b 49.2200
_cell_length_c 30.6532
_cell_angle_alpha 89.912800
_cell_angle_beta 90.117600
_cell_angle_gamma 120.111400
loop_
  _atom_site_label
  _atom_site_type_symbol
  _atom_site_fract_x
  _atom_site_fract_y
  _atom_site_fract_z
C1 C 0.46575 0.93406 0.54045
 C2 C 0.45766 0.91799 0.50069
 C3 C 0.46580 0.93421 0.46108
 C4 C 0.48243 0.96740 0.46074
 C5 C 0.49084 0.98403 0.50084
 C6 C 0.48249 0.96732 0.54092
 C7 C 0.49112 0.98431 0.58029
 C8 C 0.50761 1.01699 0.58031
 C9 C 0.51615 1.03404 0.54096
 C10 C 0.50765 1.01741 0.50085
 C11 C 0.49090 0.98439 0.42139
 C12 C 0.50733 1.01707 0.42137
 C13 C 0.51597 1.03409 0.46073
 C14 C 0.53274 1.06733 0.46116
 C15 C 0.54100 1.08345 0.50086
 C16 C 0.53297 1.06729 0.54056
 H17 H 0.48519 0.97244 0.61154
 H18 H 0.51364 1.02882 0.61157
 H19 H 0.48487 0.97252 0.39016
 H20 H 0.51324 1.02894 0.39012
 H21 H 0.44487 0.89248 0.50049
 H22 H 0.55394 1.10898 0.50087
 C23 C 0.06556 0.53115 0.53720
 C24 C 0.08108 0.53877 0.49722
 C25 C 0.06470 0.53076 0.45787
 C26 C 0.03190 0.51469 0.45809
 C27 C 0.01588 0.50681 0.49848
 C28 C 0.03277 0.51506 0.53824
 C29 C 0.01644 0.50703 0.57793
 C30 C -0.01587 0.49122 0.57856
 C31 C -0.03308 0.48285 0.53953
 C32 C -0.01708 0.49071 0.49911
 C33 C 0.01473 0.50633 0.41905
 C34 C -0.01757 0.49056 0.41965
 C35 C -0.03398 0.48252 0.45934
 C36 C -0.06683 0.46654 0.46044
 C37 C -0.08229 0.45892 0.50050
 C38 C -0.06587 0.46684 0.53981
 H39 H 0.02853 0.51291 0.60891
 H40 H -0.02726 0.48562 0.61001
 H41 H 0.02615 0.51193 0.38761
 H42 H -0.02961 0.48471 0.38862
 H43 H 0.10627 0.55115 0.49674
 H44 H -0.10749 0.44666 0.50118
 C45 C 0.53251 0.46661 0.46084
 C46 C 0.54079 0.45855 0.50028
 C47 C 0.53279 0.46623 0.54020
 C48 C 0.51602 0.48244 0.54104
 C49 C 0.50747 0.49073 0.50113
 C50 C 0.51573 0.48277 0.46084
 C51 C 0.50704 0.49119 0.42166
 C52 C 0.49056 0.50715 0.42202
 C53 C 0.48216 0.51531 0.46156
 C54 C 0.49067 0.50704 0.50149
 C55 C 0.50759 0.49062 0.58058
 C56 C 0.49114 0.50661 0.58094
 C57 C 0.48244 0.51508 0.54175
 C58 C 0.46574 0.53138 0.54164
 C59 C 0.45750 0.53938 0.50206
 C60 C 0.46548 0.53156 0.46227
 H61 H 0.51292 0.48549 0.39031
 H62 H 0.48446 0.51306 0.39092
 H63 H 0.51367 0.48471 0.61170
 H64 H 0.48530 0.51231 0.61231
 H65 H 0.55370 0.44615 0.49981
 H66 H 0.44470 0.55190 0.50213
 O67 O 0.37821 0.66678 -0.05006
 O68 O 0.37957 0.71972 -0.03717
 C69 C 0.36024 0.72404 -0.05876
 O70 O 0.33148 0.71015 -0.05063
 O71 O 0.27894 0.65843 -0.03859
 C72 C 0.27495 0.63470 -0.06022
 O73 O 0.28858 0.61948 -0.05165
 O74 O 0.33942 0.61795 -0.03788
 C75 C 0.36325 0.63777 -0.05883
 O76 O 0.37886 0.65798 0.03697
 O77 O 0.37766 0.70964 0.04981
 C78 C 0.36272 0.72353 0.05810
 O79 O 0.33920 0.71942 0.03646
 O80 O 0.28801 0.66633 0.04854
 C81 C 0.27410 0.63721 0.05664
 O82 O 0.27827 0.61761 0.03515
 O83 O 0.33048 0.61885 0.04894
 C84 C 0.35912 0.63399 0.05802
 Cr85 Cr 0.37684 0.68765 -0.00014
 Cr86 Cr 0.31027 0.68771 -0.00104
 Cr87 Cr 0.31006 0.62022 -0.00134
 O88 O 0.33240 0.66520 -0.00085
 O89 O 0.62116 0.34158 -0.03727
 O90 O 0.62247 0.28992 -0.04952
 C91 C 0.63748 0.27608 -0.05771
 O92 O 0.66106 0.28033 -0.03609
 O93 O 0.71214 0.33334 -0.04902
 C94 C 0.72592 0.36238 -0.05764
 O95 O 0.72177 0.38214 -0.03649
 O96 O 0.66943 0.38064 -0.05005
 C97 C 0.64073 0.36543 -0.05873
 O98 O 0.62232 0.33345 0.04985
 O99 O 0.62098 0.28045 0.03758
 C100 C 0.64046 0.27641 0.05925
 O101 O 0.66918 0.29030 0.05086
 O102 O 0.72160 0.34196 0.03798
 C103 C 0.72566 0.36588 0.05919
 O104 O 0.71194 0.38098 0.05037
 O105 O 0.66095 0.38222 0.03678
 C106 C 0.63730 0.36253 0.05817
 Cr107 Cr 0.62346 0.31222 0.00017
 Cr108 Cr 0.69013 0.31235 0.00092
 Cr109 Cr 0.69016 0.37974 0.00016
 O110 O 0.66791 0.33477 0.00041
 C111 C 0.45702 0.91671 -0.42199
 C112 C 0.44920 0.90120 -0.38906
 C113 C 0.43971 0.88247 -0.34999
 C114 C 0.46199 0.88391 -0.32072
 C115 C 0.45275 0.86527 -0.28314
 C116 C 0.42106 0.84495 -0.27435
 C117 C 0.39885 0.84383 -0.30388
 C118 C 0.40815 0.86246 -0.34144
 C119 C 0.41117 0.82469 -0.23489
 C120 C 0.38518 0.81997 -0.21070
 C121 C 0.37543 0.80026 -0.17421
 C122 C 0.39150 0.78502 -0.16138
 C123 C 0.41752 0.78975 -0.18499
 C124 C 0.42733 0.80947 -0.22147
 C125 C 0.38082 0.76393 -0.12468
 C126 C 0.37159 0.74592 -0.09434
 H127 H 0.48649 0.89937 -0.32699
 H128 H 0.47037 0.86693 -0.26078
 H129 H 0.37431 0.82813 -0.29836
 H130 H 0.39071 0.86109 -0.36397
 H131 H 0.37250 0.83167 -0.21986
 H132 H 0.35527 0.79678 -0.15614
 H133 H 0.43004 0.77794 -0.17547
 H134 H 0.44717 0.81229 -0.23973
 C135 C 0.08411 0.54037 -0.42350
 C136 C 0.09993 0.54830 -0.39103
 C137 C 0.11919 0.55801 -0.35264
 C138 C 0.15147 0.57596 -0.35680
 C139 C 0.17031 0.58554 -0.31965
 C140 C 0.15710 0.57728 -0.27777
 C141 C 0.12459 0.55916 -0.27393
 C142 C 0.10578 0.54961 -0.31116
 C143 C 0.17719 0.58750 -0.23835
 C144 C 0.17066 0.56691 -0.20291
 C145 C 0.18999 0.57642 -0.16621
 C146 C 0.21602 0.60661 -0.16442
 C147 C 0.22256 0.62733 -0.19934
 C148 C 0.20330 0.61788 -0.23606
 C149 C 0.23635 0.61624 -0.12714
 C150 C 0.25377 0.62454 -0.09634
 H151 H 0.16209 0.58250 -0.38877
 H152 H 0.19525 0.59907 -0.32373
 H153 H 0.11372 0.55273 -0.24214
 H154 H 0.08080 0.53578 -0.30759
 H155 H 0.15096 0.54327 -0.20391
 H156 H 0.18478 0.56015 -0.13941
 H157 H 0.24262 0.65078 -0.19826
 H158 H 0.20870 0.63442 -0.26253
 C159 C 0.45728 0.53987 -0.42062
 C160 C 0.44973 0.54754 -0.38759
 C161 C 0.44065 0.55690 -0.34844
 C162 C 0.40990 0.53999 -0.33398
 C163 C 0.40086 0.54955 -0.29658
 C164 C 0.42250 0.57624 -0.27318
 C165 C 0.45343 0.59293 -0.28780
 C166 C 0.46242 0.58330 -0.32519
 C167 C 0.41271 0.58693 -0.23417
 C168 C 0.42387 0.61912 -0.22726
 C169 C 0.41416 0.62918 -0.19107
 C170 C 0.39322 0.60725 -0.16128
 C171 C 0.38214 0.57520 -0.16766
 C172 C 0.39180 0.56508 -0.20387
 C173 C 0.38273 0.61769 -0.12464
 C174 C 0.37387 0.62670 -0.09435
 H175 H 0.39283 0.51959 -0.35184
 H176 H 0.37680 0.53646 -0.28650
 H177 H 0.47071 0.61332 -0.27019
 H178 H 0.48630 0.59653 -0.33606
 H179 H 0.43963 0.63648 -0.25029
 H180 H 0.42278 0.65404 -0.18654
 H181 H 0.36596 0.55804 -0.14476
 H182 H 0.38310 0.54019 -0.20800
 C183 C 0.54201 0.08460 -0.42188
 C184 C 0.55020 0.10020 -0.38907
 C185 C 0.56024 0.11923 -0.35032
 C186 C 0.54756 0.10606 -0.30970
 C187 C 0.55726 0.12471 -0.27215
 C188 C 0.57982 0.15678 -0.27479
 C189 C 0.59243 0.16974 -0.31579
 C190 C 0.58269 0.15108 -0.35326
 C191 C 0.59002 0.17676 -0.23508
 C192 C 0.62147 0.19949 -0.22909
 C193 C 0.63096 0.21888 -0.19232
 C194 C 0.60919 0.21583 -0.16104
 C195 C 0.57790 0.19309 -0.16645
 C196 C 0.56835 0.17364 -0.20321
 C197 C 0.61893 0.23657 -0.12400
 C198 C 0.62729 0.25437 -0.09345
 H199 H 0.53021 0.08140 -0.30706
 H200 H 0.54738 0.11397 -0.24100
 H201 H 0.60949 0.19443 -0.31900
 H202 H 0.59257 0.16152 -0.38457
 H203 H 0.63876 0.20217 -0.25273
 H204 H 0.65525 0.23638 -0.18842
 H205 H 0.56083 0.19062 -0.14252
 H206 H 0.54393 0.15664 -0.20715
 C207 C 0.91650 0.45817 -0.42012
 C208 C 0.90148 0.45079 -0.38697
 C209 C 0.88321 0.44182 -0.34772
 C210 C 0.87217 0.41185 -0.33002
 C211 C 0.85369 0.40278 -0.29257
 C212 C 0.84596 0.42360 -0.27236
 C213 C 0.85740 0.45378 -0.29023
 C214 C 0.87589 0.46280 -0.32766
 C215 C 0.82558 0.41366 -0.23331
 C216 C 0.80234 0.42177 -0.22902
 C217 C 0.78270 0.41183 -0.19278
 C218 C 0.78601 0.39370 -0.16031
 C219 C 0.80917 0.38567 -0.16410
 C220 C 0.82885 0.39558 -0.20035
 C221 C 0.76523 0.38286 -0.12361
 C222 C 0.74747 0.37361 -0.09325
 H223 H 0.87759 0.39538 -0.34540
 H224 H 0.84491 0.37926 -0.27996
 H225 H 0.85219 0.47047 -0.27511
 H226 H 0.88436 0.48608 -0.34106
 H227 H 0.79895 0.43527 -0.25411
 H228 H 0.76474 0.41804 -0.19027
 H229 H 0.81196 0.37167 -0.13913
 H230 H 0.84675 0.38928 -0.20245
 C231 C 0.54177 0.45769 -0.42248
 C232 C 0.54991 0.45004 -0.38991
 C233 C 0.55992 0.44077 -0.35147
 C234 C 0.57780 0.42627 -0.35557
 C235 C 0.58774 0.41733 -0.31839
 C236 C 0.57990 0.42278 -0.27651
 C237 C 0.56181 0.43729 -0.27272
 C238 C 0.55192 0.44625 -0.30999
 C239 C 0.59060 0.41335 -0.23706
 C240 C 0.57069 0.39958 -0.20115
 C241 C 0.58068 0.39021 -0.16439
 C242 C 0.61067 0.39453 -0.16300
 C243 C 0.63070 0.40841 -0.19839
 C244 C 0.62077 0.41777 -0.23517
 C245 C 0.62086 0.38436 -0.12564
 C246 C 0.62974 0.37576 -0.09481
 H247 H 0.58404 0.42183 -0.38754
 H248 H 0.60123 0.40580 -0.32241
 H249 H 0.55570 0.44212 -0.24094
 H250 H 0.53814 0.45753 -0.30647
 H251 H 0.54722 0.39553 -0.20183
 H252 H 0.56495 0.37938 -0.13722
 H253 H 0.65399 0.41192 -0.19762
 H254 H 0.63678 0.42870 -0.26199
 C255 C 0.91565 0.45822 0.42321
 C256 C 0.89999 0.45084 0.39059
 C257 C 0.88106 0.44198 0.35190
 C258 C 0.89193 0.43619 0.31294
 C259 C 0.87338 0.42737 0.27546
 C260 C 0.84373 0.42428 0.27649
 C261 C 0.83307 0.43023 0.31582
 C262 C 0.85163 0.43901 0.35324
 C263 C 0.82385 0.41468 0.23687
 C264 C 0.80610 0.42882 0.22660
 C265 C 0.78686 0.41930 0.18985
 C266 C 0.78509 0.39555 0.16286
 C267 C 0.80281 0.38149 0.17257
 C268 C 0.82211 0.39100 0.20931
 C269 C 0.76457 0.38521 0.12577
 C270 C 0.74701 0.37644 0.09512
 H271 H 0.91472 0.43850 0.31154
 H272 H 0.88237 0.42331 0.24556
 H273 H 0.81019 0.42763 0.31784
 H274 H 0.84296 0.44334 0.38328
 H275 H 0.80726 0.44740 0.24683
 H276 H 0.77327 0.43037 0.18260
 H277 H 0.80151 0.36298 0.15200
 H278 H 0.83517 0.37939 0.21663
 C279 C 0.54148 0.08471 0.42362
 C280 C 0.54944 0.10045 0.39091
 C281 C 0.55927 0.11974 0.35237
 C282 C 0.57454 0.15245 0.35633
 C283 C 0.58444 0.17138 0.31909
 C284 C 0.57920 0.15782 0.27731
 C285 C 0.56368 0.12488 0.27365
 C286 C 0.55381 0.10598 0.31098
 C287 C 0.58999 0.17804 0.23783
 C288 C 0.57129 0.16989 0.20019
 C289 C 0.58134 0.18929 0.16335
 C290 C 0.61019 0.21701 0.16363
 C291 C 0.62903 0.22518 0.20079
 C292 C 0.61903 0.20586 0.23763
 C293 C 0.62042 0.23738 0.12616
 C294 C 0.62936 0.25494 0.09530
 H295 H 0.57879 0.16333 0.38821
 H296 H 0.59590 0.19662 0.32298
 H297 H 0.55961 0.11377 0.24198
 H298 H 0.54207 0.08067 0.30758
 H299 H 0.54868 0.14882 0.19951
 H300 H 0.56653 0.18280 0.13480
 H301 H 0.65144 0.24655 0.20132
 H302 H 0.63414 0.21254 0.26584
 C303 C 0.54179 0.45797 0.42099
 C304 C 0.54985 0.45057 0.38820
 C305 C 0.55981 0.44153 0.34961
 C306 C 0.57988 0.42949 0.35334
 C307 C 0.58963 0.42058 0.31606
 C308 C 0.57941 0.42357 0.27445
 C309 C 0.55919 0.43567 0.27102
 C310 C 0.54948 0.44462 0.30840
 C311 C 0.58970 0.41390 0.23493
 C312 C 0.56869 0.39759 0.20093
 C313 C 0.57826 0.38774 0.16432
 C314 C 0.60893 0.39414 0.16118
 C315 C 0.63006 0.41063 0.19460
 C316 C 0.62055 0.42047 0.23122
 C317 C 0.61863 0.38321 0.12423
 C318 C 0.62702 0.37386 0.09377
 H319 H 0.58793 0.42690 0.38511
 H320 H 0.60481 0.41091 0.31985
 H321 H 0.55119 0.43858 0.23942
 H322 H 0.53399 0.45398 0.30515
 H323 H 0.54471 0.39185 0.20306
 H324 H 0.56168 0.37487 0.13871
 H325 H 0.65387 0.41575 0.19247
 H326 H 0.63737 0.43336 0.25654
 C327 C 0.08239 0.53953 0.41785
 C328 C 0.09745 0.54704 0.38474
 C329 C 0.11578 0.55622 0.34554
 C330 C 0.12849 0.58691 0.32971
 C331 C 0.14702 0.59614 0.29231
 C332 C 0.15312 0.57476 0.27027
 C333 C 0.14002 0.54387 0.28626
 C334 C 0.12147 0.53469 0.32365
 C335 C 0.17355 0.58483 0.23128
 C336 C 0.19546 0.57506 0.22555
 C337 C 0.21525 0.58519 0.18946
 C338 C 0.21340 0.60515 0.15858
 C339 C 0.19152 0.61480 0.16376
 C340 C 0.17172 0.60472 0.19987
 C341 C 0.23440 0.61623 0.12213
 C342 C 0.25234 0.62571 0.09199
 H343 H 0.12433 0.60380 0.34652
 H344 H 0.15709 0.62018 0.28118
 H345 H 0.14396 0.52677 0.26971
 H346 H 0.11171 0.51085 0.33560
 H347 H 0.19775 0.56012 0.24945
 H348 H 0.23220 0.57769 0.18586
 H349 H 0.18987 0.63023 0.14002
 H350 H 0.15484 0.61233 0.20308
 C351 C 0.45680 0.91595 0.42135
 C352 C 0.44926 0.90046 0.38845
 C353 C 0.44021 0.88167 0.34945
 C354 C 0.42162 0.88509 0.31817
 C355 C 0.41242 0.86642 0.28064
 C356 C 0.42176 0.84409 0.27393
 C357 C 0.44059 0.84096 0.30550
 C358 C 0.44972 0.85962 0.34300
 C359 C 0.41162 0.82385 0.23448
 C360 C 0.43227 0.81687 0.21266
 C361 C 0.42247 0.79717 0.17619
 C362 C 0.39196 0.78419 0.16102
 C363 C 0.37131 0.79118 0.18226
 C364 C 0.38106 0.81090 0.21872
 C365 C 0.38167 0.76316 0.12428
 C366 C 0.37303 0.74523 0.09386
 H367 H 0.41418 0.90214 0.32281
 H368 H 0.39824 0.86964 0.25670
 H369 H 0.44780 0.82369 0.30159
 H370 H 0.46402 0.85670 0.36710
 H371 H 0.45604 0.82679 0.22364
 H372 H 0.43866 0.79193 0.15996
 H373 H 0.34759 0.78115 0.17090
 H374 H 0.36451 0.81550 0.23513
 C375 C 0.45616 0.54068 0.42277
 C376 C 0.44820 0.54846 0.39015
 C377 C 0.43849 0.55795 0.35162
 C378 C 0.42691 0.57852 0.35517
 C379 C 0.41717 0.58762 0.31794
 C380 C 0.41887 0.57623 0.27656
 C381 C 0.43069 0.55565 0.27329
 C382 C 0.44040 0.54656 0.31062
 C383 C 0.40826 0.58575 0.23710
 C384 C 0.42513 0.59282 0.19788
 C385 C 0.41528 0.60222 0.16099
 C386 C 0.38846 0.60461 0.16279
 C387 C 0.37144 0.59744 0.20155
 C388 C 0.38124 0.58807 0.23845
 C389 C 0.37850 0.61478 0.12518
 C390 C 0.36983 0.62346 0.09420
 H391 H 0.42542 0.58756 0.38674
 H392 H 0.40862 0.60385 0.32147
 H393 H 0.43196 0.54621 0.24199
 H394 H 0.44927 0.53055 0.30753
 H395 H 0.44621 0.59161 0.19595
 H396 H 0.42869 0.60781 0.13117
 H397 H 0.35061 0.59914 0.20328
 H398 H 0.36752 0.58236 0.26794
   
