data_POSCAR
  _audit_creation_date              2014-09-24
  _audit_creation_method            'ToBaCCo'
  _symmetry_space_group_name_H-M    'P1'
  _symmetry_Int_Tables_number       1
  _symmetry_cell_setting            triclinic
  loop_
  _symmetry_equiv_pos_as_xyz
 x,y,z
_cell_length_a 49.2688
_cell_length_b 49.7660
_cell_length_c 49.7613
_cell_angle_alpha 88.684100
_cell_angle_beta 90.207600
_cell_angle_gamma 88.894500
loop_
  _atom_site_label
  _atom_site_type_symbol
  _atom_site_fract_x
  _atom_site_fract_y
  _atom_site_fract_z
N1 N 0.29780 0.24751 0.21631
 N2 N 0.28288 0.26641 0.20434
 C3 C 0.29558 0.27511 0.18202
 C4 C 0.31986 0.26083 0.17966
 C5 C 0.32055 0.24346 0.20189
 H6 H 0.28741 0.29037 0.16830
 H7 H 0.33624 0.22877 0.20713
 Cu8 Cu 0.24779 0.27745 0.21827
 Cu9 Cu 0.28591 0.22903 0.24906
 Cu10 Cu 0.22681 0.25334 0.27817
 N11 N 0.21799 0.29431 0.23739
 N12 N 0.20955 0.28464 0.26060
 C13 C 0.18845 0.29979 0.26901
 C14 C 0.18343 0.32016 0.25006
 C15 C 0.20267 0.31601 0.23027
 H16 H 0.17774 0.29632 0.28766
 H17 H 0.20516 0.32764 0.21187
 N18 N 0.24746 0.22197 0.29278
 N19 N 0.27031 0.21309 0.28209
 C20 C 0.27949 0.19158 0.29657
 C21 C 0.26145 0.18654 0.31726
 C22 C 0.24139 0.20621 0.31420
 H23 H 0.29753 0.17990 0.29193
 H24 H 0.22365 0.20884 0.32666
 H25 H 0.24459 0.23592 0.24498
 H26 H 0.26437 0.26231 0.26216
 N27 N 0.69565 -0.23949 0.22156
 N28 N 0.70651 -0.26206 0.21314
 C29 C 0.69355 -0.26941 0.19070
 C30 C 0.67324 -0.25042 0.18462
 C31 C 0.67530 -0.23172 0.20484
 H32 H 0.69878 -0.28724 0.17971
 H33 H 0.66326 -0.21357 0.20720
 Cu34 Cu 0.73670 -0.27977 0.23200
 Cu35 Cu 0.70929 -0.22143 0.25307
 Cu36 Cu 0.76900 -0.24731 0.28091
 N37 N 0.77240 -0.29146 0.24482
 N38 N 0.78496 -0.27867 0.26385
 C39 C 0.80906 -0.29092 0.26893
 C40 C 0.81194 -0.31273 0.25214
 C41 C 0.78809 -0.31230 0.23707
 H42 H 0.82326 -0.28432 0.28387
 H43 H 0.78239 -0.32600 0.22159
 N44 N 0.74957 -0.21583 0.29530
 N45 N 0.72658 -0.20620 0.28495
 C46 C 0.71830 -0.18489 0.29920
 C47 C 0.73704 -0.18080 0.31943
 C48 C 0.75659 -0.20083 0.31630
 H49 H 0.70025 -0.17287 0.29482
 H50 H 0.77455 -0.20431 0.32852
 H51 H 0.74850 -0.23513 0.24619
 H52 H 0.72857 -0.25383 0.27230
 N53 N 0.71352 0.23248 0.78358
 N54 N 0.72763 0.25061 0.79596
 C55 C 0.71480 0.25724 0.81878
 C56 C 0.69131 0.24239 0.82091
 C57 C 0.69126 0.22689 0.79810
 H58 H 0.72214 0.27177 0.83273
 H59 H 0.67629 0.21246 0.79244
 Cu60 Cu 0.76163 0.26372 0.78146
 Cu61 Cu 0.72536 0.21703 0.74995
 Cu62 Cu 0.78035 0.24641 0.71895
 N63 N 0.78954 0.28291 0.76178
 N64 N 0.79624 0.27661 0.73716
 C65 C 0.81580 0.29312 0.72841
 C66 C 0.82200 0.31072 0.74875
 C67 C 0.80475 0.30351 0.76965
 H68 H 0.82521 0.29179 0.70890
 H69 H 0.80312 0.31257 0.78911
 N70 N 0.76149 0.21548 0.70399
 N71 N 0.74052 0.20431 0.71590
 C72 C 0.73279 0.18310 0.70164
 C73 C 0.74974 0.18063 0.67963
 C74 C 0.76768 0.20162 0.68182
 H75 H 0.71637 0.17010 0.70729
 H76 H 0.78444 0.20614 0.66865
 H77 H 0.76644 0.22530 0.75222
 H78 H 0.74353 0.25252 0.73780
 N79 N 0.29059 -0.25242 0.77804
 N80 N 0.27908 -0.27458 0.78667
 C81 C 0.29195 -0.28360 0.80912
 C82 C 0.31271 -0.26620 0.81491
 C83 C 0.31121 -0.24666 0.79464
 H84 H 0.28648 -0.30144 0.82048
 H85 H 0.32375 -0.22918 0.79241
 Cu86 Cu 0.24786 -0.28925 0.76831
 Cu87 Cu 0.27744 -0.23218 0.74653
 Cu88 Cu 0.22090 -0.25648 0.71431
 N89 N 0.21540 -0.30188 0.75042
 N90 N 0.20512 -0.28900 0.72931
 C91 C 0.18279 -0.30161 0.72109
 C92 C 0.17855 -0.32372 0.73800
 C93 C 0.19984 -0.32316 0.75642
 H94 H 0.17049 -0.29481 0.70416
 H95 H 0.20371 -0.33701 0.77308
 N96 N 0.23961 -0.22387 0.70205
 N97 N 0.26113 -0.21454 0.71431
 C98 C 0.26885 -0.19183 0.70146
 C99 C 0.25135 -0.18659 0.68002
 C100 C 0.23310 -0.20740 0.68108
 H101 H 0.28594 -0.17998 0.70733
 H102 H 0.21601 -0.21011 0.66783
 H103 H 0.23769 -0.24423 0.75018
 H104 H 0.26020 -0.26414 0.72758
 N105 N 0.69752 -0.25140 0.78031
 N106 N 0.71047 -0.27324 0.78902
 C107 C 0.69821 -0.28261 0.81139
 C108 C 0.67636 -0.26572 0.81707
 C109 C 0.67658 -0.24615 0.79680
 H110 H 0.70479 -0.30032 0.82278
 H111 H 0.66293 -0.22901 0.79448
 Cu112 Cu 0.74263 -0.28684 0.77077
 Cu113 Cu 0.70932 -0.23084 0.74883
 Cu114 Cu 0.76649 -0.25465 0.71595
 N115 N 0.77474 -0.29997 0.75210
 N116 N 0.78387 -0.28724 0.73067
 C117 C 0.80647 -0.29989 0.72208
 C118 C 0.81206 -0.32187 0.73907
 C119 C 0.79127 -0.32122 0.75790
 H120 H 0.81802 -0.29319 0.70490
 H121 H 0.78851 -0.33489 0.77481
 N122 N 0.74616 -0.22201 0.70410
 N123 N 0.72443 -0.21290 0.71664
 C124 C 0.71562 -0.19004 0.70420
 C125 C 0.73262 -0.18440 0.68275
 C126 C 0.75173 -0.20519 0.68336
 H127 H 0.69819 -0.17828 0.71043
 H128 H 0.76878 -0.20764 0.67000
 H129 H 0.72796 -0.26269 0.72993
 H130 H 0.74985 -0.24200 0.75173
 N131 N 0.29850 0.23884 0.78062
 N132 N 0.28443 0.25786 0.79240
 C133 C 0.29782 0.26522 0.81461
 C134 C 0.32157 0.24991 0.81699
 C135 C 0.32125 0.23338 0.79493
 H136 H 0.29061 0.28043 0.82813
 H137 H 0.33619 0.21820 0.78979
 Cu138 Cu 0.24980 0.27118 0.77801
 Cu139 Cu 0.28574 0.22174 0.74833
 Cu140 Cu 0.22550 0.24612 0.72043
 N141 N 0.21706 0.28576 0.76068
 N142 N 0.20796 0.27624 0.73802
 C143 C 0.18564 0.29040 0.73024
 C144 C 0.18036 0.30984 0.74908
 C145 C 0.20073 0.30626 0.76815
 H146 H 0.17398 0.28666 0.71231
 H147 H 0.20371 0.31806 0.78585
 N148 N 0.24623 0.21577 0.70551
 N149 N 0.26953 0.20691 0.71580
 C150 C 0.27867 0.18607 0.70136
 C151 C 0.26014 0.18143 0.68112
 C152 C 0.23981 0.20065 0.68438
 H153 H 0.29702 0.17453 0.70576
 H154 H 0.22166 0.20335 0.67229
 H155 H 0.26384 0.25513 0.73422
 H156 H 0.24474 0.22931 0.75400
 N157 N 0.29010 -0.23425 0.21906
 N158 N 0.27834 -0.25549 0.20946
 C159 C 0.29129 -0.26290 0.18695
 C160 C 0.31235 -0.24534 0.18212
 C161 C 0.31089 -0.22742 0.20301
 H162 H 0.28577 -0.27980 0.17500
 H163 H 0.32378 -0.21047 0.20626
 Cu164 Cu 0.24702 -0.27105 0.22719
 Cu165 Cu 0.27743 -0.21679 0.25146
 Cu166 Cu 0.22207 -0.24475 0.28376
 N167 N 0.21616 -0.28675 0.24559
 N168 N 0.20660 -0.27635 0.26774
 C169 C 0.18509 -0.29048 0.27609
 C170 C 0.18081 -0.31092 0.25820
 C171 C 0.20100 -0.30789 0.23908
 H172 H 0.17312 -0.28578 0.29357
 H173 H 0.20429 -0.32004 0.22162
 N174 N 0.24056 -0.21278 0.29679
 N175 N 0.26159 -0.20211 0.28449
 C176 C 0.26930 -0.18034 0.29795
 C177 C 0.25232 -0.17708 0.31982
 C178 C 0.23437 -0.19809 0.31839
 H179 H 0.28603 -0.16778 0.29218
 H180 H 0.21771 -0.20217 0.33183
 H181 H 0.26082 -0.25066 0.26903
 H182 H 0.23745 -0.22833 0.24860
 N183 N 0.71187 0.24604 0.21993
 N184 N 0.72178 0.26886 0.21096
 C185 C 0.70707 0.27768 0.18957
 C186 C 0.68692 0.25935 0.18478
 C187 C 0.69061 0.23951 0.20450
 H188 H 0.71119 0.29568 0.17785
 H189 H 0.67879 0.22160 0.20737
 Cu190 Cu 0.75380 0.28400 0.22724
 Cu191 Cu 0.72756 0.22624 0.25059
 Cu192 Cu 0.78449 0.25311 0.28024
 N193 N 0.78583 0.29874 0.24386
 N194 N 0.79779 0.28653 0.26451
 C195 C 0.81973 0.30046 0.27159
 C196 C 0.82173 0.32266 0.25441
 C197 C 0.79978 0.32086 0.23708
 H198 H 0.83328 0.29468 0.28793
 H199 H 0.79463 0.33433 0.22044
 N200 N 0.76793 0.21948 0.29316
 N201 N 0.74632 0.20927 0.28182
 C202 C 0.74000 0.18634 0.29501
 C203 C 0.75850 0.18179 0.31573
 C204 C 0.77590 0.20329 0.31390
 H205 H 0.72302 0.17398 0.28998
 H206 H 0.79324 0.20682 0.32660
 H207 H 0.74445 0.25897 0.26873
 H208 H 0.76673 0.23967 0.24548
 C209 C 0.25976 0.02749 0.44381
 C210 C 0.25916 0.00326 0.43018
 C211 C 0.25851 -0.02149 0.44404
 C212 C 0.25877 -0.02218 0.47250
 C213 C 0.25887 0.00227 0.48662
 C214 C 0.25932 0.02720 0.47223
 C215 C 0.25888 0.05118 0.48661
 C216 C 0.25852 0.05071 0.51459
 C217 C 0.25865 0.02623 0.52928
 C218 C 0.25854 0.00178 0.51518
 C219 C 0.25948 -0.04665 0.48721
 C220 C 0.25916 -0.04712 0.51517
 C221 C 0.25811 -0.02316 0.52958
 C222 C 0.25722 -0.02344 0.55803
 C223 C 0.25756 0.00085 0.57162
 C224 C 0.25849 0.02555 0.55772
 H225 H 0.25858 0.07060 0.47636
 H226 H 0.25791 0.06980 0.52457
 H227 H 0.26055 -0.06574 0.47727
 H228 H 0.26000 -0.06656 0.52536
 H229 H 0.25911 0.00369 0.40837
 H230 H 0.25711 0.00052 0.59342
 C231 C 0.74687 -0.02624 0.44393
 C232 C 0.75047 -0.00222 0.42942
 C233 C 0.75201 0.02240 0.44226
 C234 C 0.75005 0.02317 0.47061
 C235 C 0.74684 -0.00112 0.48567
 C236 C 0.74515 -0.02592 0.47229
 C237 C 0.74182 -0.04970 0.48759
 C238 C 0.73979 -0.04915 0.51546
 C239 C 0.74141 -0.02483 0.52918
 C240 C 0.74488 -0.00056 0.51415
 C241 C 0.75039 0.04760 0.48422
 C242 C 0.74837 0.04817 0.51208
 C243 C 0.74596 0.02431 0.52749
 C244 C 0.74376 0.02471 0.55584
 C245 C 0.74006 0.00065 0.57030
 C246 C 0.73904 -0.02402 0.55748
 H247 H 0.74069 -0.06902 0.47815
 H248 H 0.73670 -0.06803 0.52611
 H249 H 0.75188 0.06665 0.47347
 H250 H 0.74834 0.06761 0.52135
 H251 H 0.75171 -0.00264 0.40766
 H252 H 0.73847 0.00105 0.59203
 C253 C 0.44763 0.25940 0.02357
 C254 C 0.43408 0.25903 -0.00113
 C255 C 0.44823 0.25652 -0.02528
 C256 C 0.47697 0.25506 -0.02492
 C257 C 0.49101 0.25543 0.00002
 C258 C 0.47629 0.25749 0.02438
 C259 C 0.49061 0.25810 0.04882
 C260 C 0.51884 0.25672 0.04938
 C261 C 0.53386 0.25495 0.02549
 C262 C 0.51985 0.25408 0.00059
 C263 C 0.49204 0.25406 -0.04882
 C264 C 0.52028 0.25265 -0.04826
 C265 C 0.53461 0.25221 -0.02377
 C266 C 0.56335 0.25072 -0.02297
 C267 C 0.57682 0.25160 0.00177
 C268 C 0.56256 0.25392 0.02585
 H269 H 0.48012 0.25978 0.06780
 H270 H 0.52878 0.25706 0.06879
 H271 H 0.48219 0.25473 -0.06829
 H272 H 0.53074 0.25226 -0.06732
 H273 H 0.41207 0.26021 -0.00149
 H274 H 0.59884 0.25071 0.00229
 C275 C 0.43686 0.73881 -0.02532
 C276 C 0.42284 0.74133 -0.00111
 C277 C 0.43653 0.74430 0.02327
 C278 C 0.46526 0.74425 0.02369
 C279 C 0.47981 0.74166 -0.00072
 C280 C 0.46558 0.73898 -0.02534
 C281 C 0.48042 0.73569 -0.04915
 C282 C 0.50869 0.73522 -0.04886
 C283 C 0.52323 0.73802 -0.02476
 C284 C 0.50868 0.74114 -0.00043
 C285 C 0.47983 0.74578 0.04794
 C286 C 0.50806 0.74529 0.04822
 C287 C 0.52292 0.74319 0.02428
 C288 C 0.55165 0.74221 0.02445
 C289 C 0.56566 0.73887 0.00036
 C290 C 0.55196 0.73698 -0.02416
 H291 H 0.47032 0.73309 -0.06823
 H292 H 0.51902 0.73223 -0.06774
 H293 H 0.46957 0.74693 0.06706
 H294 H 0.51812 0.74612 0.06754
 H295 H 0.40082 0.74125 -0.00128
 H296 H 0.58769 0.73817 0.00063
 C297 C -0.02600 0.56425 0.25398
 C298 C -0.00155 0.57800 0.25506
 C299 C 0.02351 0.56432 0.25567
 C300 C 0.02435 0.53588 0.25540
 C301 C -0.00028 0.52159 0.25455
 C302 C -0.02555 0.53579 0.25407
 C303 C -0.04967 0.52115 0.25457
 C304 C -0.04905 0.49319 0.25490
 C305 C -0.02428 0.47870 0.25458
 C306 C 0.00036 0.49301 0.25468
 C307 C 0.04909 0.52134 0.25677
 C308 C 0.04972 0.49338 0.25665
 C309 C 0.02562 0.47880 0.25533
 C310 C 0.02606 0.45035 0.25544
 C311 C 0.00160 0.43657 0.25557
 C312 C -0.02345 0.45024 0.25499
 H313 H -0.06934 0.53116 0.25518
 H314 H -0.06827 0.48307 0.25576
 H315 H 0.06828 0.53142 0.25829
 H316 H 0.06934 0.48330 0.25808
 H317 H -0.00201 0.59981 0.25494
 H318 H 0.00208 0.41477 0.25545
 C319 C 0.02252 0.43920 0.75519
 C320 C -0.00218 0.42590 0.75694
 C321 C -0.02699 0.43998 0.75530
 C322 C -0.02729 0.46837 0.75282
 C323 C -0.00238 0.48220 0.75162
 C324 C 0.02262 0.46758 0.75275
 C325 C 0.04704 0.48172 0.75150
 C326 C 0.04695 0.50959 0.74847
 C327 C 0.02243 0.52446 0.74695
 C328 C -0.00249 0.51067 0.74872
 C329 C -0.05181 0.48326 0.75156
 C330 C -0.05192 0.51114 0.74855
 C331 C -0.02751 0.52525 0.74704
 C332 C -0.02740 0.55350 0.74324
 C333 C -0.00270 0.56672 0.74109
 C334 C 0.02211 0.55271 0.74309
 H335 H 0.06652 0.47134 0.75283
 H336 H 0.06635 0.51936 0.74714
 H337 H -0.07120 0.47347 0.75285
 H338 H -0.07141 0.52149 0.74722
 H339 H -0.00210 0.40410 0.75820
 H340 H -0.00279 0.58838 0.73798
 C341 C 0.37687 0.26578 0.11486
 C342 C 0.35566 0.28495 0.11650
 C343 C 0.33742 0.28354 0.13780
 C344 C 0.33992 0.26301 0.15752
 C345 C 0.36146 0.24429 0.15523
 N346 N 0.37898 0.24605 0.13422
 C347 C 0.39612 0.26550 0.09200
 N348 N 0.40996 0.24223 0.08674
 C349 C 0.42710 0.24001 0.06551
 C350 C 0.43093 0.26203 0.04802
 C351 C 0.41742 0.28632 0.05320
 C352 C 0.40021 0.28826 0.07529
 H353 H 0.32125 0.29850 0.13854
 H354 H 0.36422 0.22799 0.16977
 H355 H 0.43729 0.22096 0.06195
 H356 H 0.42012 0.30370 0.04004
 H357 H 0.35250 0.30051 0.10125
 H358 H 0.39043 0.30741 0.07907
 C359 C 0.61894 0.75033 0.11869
 C360 C 0.61686 0.77053 0.13786
 C361 C 0.63482 0.77033 0.15963
 C362 C 0.65489 0.74995 0.16273
 C363 C 0.65595 0.72992 0.14320
 N364 N 0.63830 0.73067 0.12214
 C365 C 0.60067 0.74921 0.09494
 N366 N 0.60036 0.72611 0.08076
 C367 C 0.58467 0.72336 0.05852
 C368 C 0.56791 0.74469 0.04933
 C369 C 0.56798 0.76880 0.06327
 C370 C 0.58430 0.77120 0.08606
 H371 H 0.63261 0.78616 0.17401
 H372 H 0.67076 0.71364 0.14433
 H373 H 0.58531 0.70457 0.04799
 H374 H 0.55564 0.78583 0.05628
 H375 H 0.60142 0.78621 0.13657
 H376 H 0.58434 0.79026 0.09600
 C377 C 0.63337 0.24313 -0.11492
 C378 C 0.62919 0.22659 -0.13699
 C379 C 0.64802 0.22636 -0.15789
 C380 C 0.67098 0.24263 -0.15708
 C381 C 0.67417 0.25913 -0.13480
 N382 N 0.65559 0.25897 -0.11469
 C383 C 0.61429 0.24439 -0.09199
 N384 N 0.61512 0.26605 -0.07578
 C385 C 0.59878 0.26862 -0.05403
 C386 C 0.58021 0.24858 -0.04745
 C387 C 0.57914 0.22588 -0.06352
 C388 C 0.59608 0.22370 -0.08584
 H389 H 0.64438 0.21345 -0.17465
 H390 H 0.69137 0.27214 -0.13316
 H391 H 0.60034 0.28624 -0.04180
 H392 H 0.56544 0.20976 -0.05856
 H393 H 0.61147 0.21424 -0.13851
 H394 H 0.59529 0.20570 -0.09753
 C395 C 0.36710 0.73067 -0.11754
 C396 C 0.34453 0.71383 -0.11787
 C397 C 0.32702 0.71467 -0.13997
 C398 C 0.33164 0.73236 -0.16177
 C399 C 0.35436 0.74894 -0.16062
 N400 N 0.37116 0.74775 -0.13886
 C401 C 0.38593 0.73133 -0.09424
 N402 N 0.40133 0.75349 -0.09094
 C403 C 0.41837 0.75602 -0.06961
 C404 C 0.42050 0.73547 -0.04997
 C405 C 0.40532 0.71227 -0.05310
 C406 C 0.38822 0.70997 -0.07528
 H407 H 0.30959 0.70179 -0.13961
 H408 H 0.35888 0.76286 -0.17692
 H409 H 0.42978 0.77425 -0.06767
 H410 H 0.40662 0.69604 -0.03824
 H411 H 0.33982 0.70060 -0.10108
 H412 H 0.37711 0.69162 -0.07740
 C413 C 0.12021 0.38048 0.25090
 C414 C 0.14225 0.38356 0.23332
 C415 C 0.16290 0.36396 0.23312
 C416 C 0.16191 0.34140 0.25052
 C417 C 0.13987 0.33940 0.26820
 N418 N 0.11990 0.35863 0.26787
 C419 C 0.09713 0.40004 0.25173
 N420 N 0.08015 0.39905 0.27327
 C421 C 0.05787 0.41540 0.27521
 C422 C 0.05152 0.43411 0.25458
 C423 C 0.06853 0.43553 0.23214
 C424 C 0.09136 0.41859 0.23060
 H425 H 0.17972 0.36668 0.21948
 H426 H 0.13814 0.32241 0.28197
 H427 H 0.04493 0.41357 0.29266
 H428 H 0.06375 0.44935 0.21557
 H429 H 0.14394 0.40092 0.22004
 H430 H 0.10361 0.41961 0.21266
 C431 C 0.11429 0.62143 0.73542
 C432 C 0.11570 0.64226 0.71602
 C433 C 0.13704 0.66021 0.71675
 C434 C 0.15716 0.65783 0.73688
 C435 C 0.15489 0.63662 0.75597
 N436 N 0.13381 0.61941 0.75482
 C437 C 0.09144 0.60245 0.73618
 N438 N 0.08523 0.58982 0.75991
 C439 C 0.06379 0.57312 0.76243
 C440 C 0.04711 0.56849 0.74023
 C441 C 0.05339 0.58069 0.71548
 C442 C 0.07565 0.59746 0.71327
 H443 H 0.13733 0.67603 0.70153
 H444 H 0.16956 0.63367 0.77199
 H445 H 0.05938 0.56400 0.78184
 H446 H 0.04089 0.57737 0.69795
 H447 H 0.10021 0.64530 0.70076
 H448 H 0.08029 0.60630 0.69382
 C449 C -0.12180 0.63230 0.24917
 C450 C -0.14421 0.62906 0.23211
 C451 C -0.16608 0.64729 0.23296
 C452 C -0.16599 0.66881 0.25088
 C453 C -0.14312 0.67111 0.26768
 N454 N -0.12212 0.65311 0.26641
 C455 C -0.09791 0.61368 0.24963
 N456 N -0.08087 0.61398 0.27124
 C457 C -0.05819 0.59809 0.27322
 C458 C -0.05150 0.58052 0.25259
 C459 C -0.06845 0.57996 0.22995
 C460 C -0.09169 0.59647 0.22837
 H461 H -0.18304 0.64420 0.21962
 H462 H -0.14166 0.68706 0.28194
 H463 H -0.04532 0.59927 0.29081
 H464 H -0.06345 0.56703 0.21340
 H465 H -0.14530 0.61246 0.21856
 H466 H -0.10403 0.59610 0.21039
 C467 C -0.11782 0.36989 0.74880
 C468 C -0.12364 0.35659 0.72499
 C469 C -0.14362 0.33712 0.72491
 C470 C -0.15816 0.33083 0.74846
 C471 C -0.15181 0.34498 0.77182
 N472 N -0.13193 0.36356 0.77145
 C473 C -0.09570 0.38948 0.75025
 N474 N -0.08144 0.39139 0.77362
 C475 C -0.05999 0.40798 0.77596
 C476 C -0.05195 0.42399 0.75399
 C477 C -0.06666 0.42286 0.72992
 C478 C -0.08859 0.40568 0.72797
 H479 H -0.14748 0.32715 0.70625
 H480 H -0.16204 0.34101 0.79062
 H481 H -0.04893 0.40836 0.79478
 H482 H -0.06079 0.43488 0.71255
 H483 H -0.11238 0.36057 0.70674
 H484 H -0.09977 0.40511 0.70924
 C485 C 0.26423 0.12141 0.37487
 C486 C 0.28831 0.12971 0.36245
 C487 C 0.28745 0.15105 0.34375
 C488 C 0.26275 0.16428 0.33751
 C489 C 0.23919 0.15550 0.35054
 N490 N 0.24047 0.13444 0.36840
 C491 C 0.26367 0.09799 0.39368
 N492 N 0.24065 0.08332 0.39530
 C493 C 0.23883 0.06108 0.41151
 C494 C 0.26098 0.05262 0.42747
 C495 C 0.28475 0.06759 0.42659
 C496 C 0.28618 0.09034 0.40975
 H497 H 0.30613 0.15716 0.33422
 H498 H 0.21965 0.16489 0.34612
 H499 H 0.22021 0.04988 0.41179
 H500 H 0.30219 0.06147 0.43872
 H501 H 0.30749 0.11943 0.36649
 H502 H 0.30461 0.10182 0.40950
 C503 C 0.74964 0.11772 0.62206
 C504 C 0.76840 0.13852 0.61939
 C505 C 0.76832 0.15915 0.63797
 C506 C 0.74957 0.15930 0.65918
 C507 C 0.73080 0.13842 0.66071
 N508 N 0.73135 0.11855 0.64246
 C509 C 0.74880 0.09483 0.60354
 N510 N 0.72595 0.07986 0.60299
 C511 C 0.72372 0.05790 0.58748
 C512 C 0.74543 0.04973 0.57131
 C513 C 0.76929 0.06458 0.57161
 C514 C 0.77108 0.08718 0.58763
 H515 H 0.78300 0.17489 0.63561
 H516 H 0.71577 0.13757 0.67644
 H517 H 0.70513 0.04666 0.58796
 H518 H 0.78665 0.05837 0.55981
 H519 H 0.78282 0.13920 0.60308
 H520 H 0.78998 0.09783 0.58803
 C521 C 0.25154 -0.11917 0.62478
 C522 C 0.23518 -0.14125 0.61948
 C523 C 0.23520 -0.16322 0.63741
 C524 C 0.25158 -0.16349 0.66058
 C525 C 0.26803 -0.14124 0.66485
 N526 N 0.26758 -0.12002 0.64714
 C527 C 0.25231 -0.09507 0.60673
 N528 N 0.27390 -0.07849 0.60843
 C529 C 0.27600 -0.05578 0.59293
 C530 C 0.25554 -0.04862 0.57436
 C531 C 0.23287 -0.06503 0.57249
 C532 C 0.23115 -0.08827 0.58859
 H533 H 0.22252 -0.18005 0.63289
 H534 H 0.28103 -0.14042 0.68234
 H535 H 0.29361 -0.04332 0.59510
 H536 H 0.21643 -0.05966 0.55876
 H537 H 0.22278 -0.14195 0.60156
 H538 H 0.21315 -0.10023 0.58715
 C539 C 0.73722 -0.11772 0.37653
 C540 C 0.71289 -0.12402 0.36348
 C541 C 0.71276 -0.14470 0.34499
 C542 C 0.73673 -0.15922 0.33949
 C543 C 0.76055 -0.15239 0.35310
 N544 N 0.76024 -0.13200 0.37079
 C545 C 0.73899 -0.09507 0.39517
 N546 N 0.76323 -0.08270 0.39795
 C547 C 0.76634 -0.06120 0.41394
 C548 C 0.74426 -0.05107 0.42843
 C549 C 0.71920 -0.06368 0.42637
 C550 C 0.71647 -0.08577 0.40983
 H551 H 0.69389 -0.14924 0.33503
 H552 H 0.77958 -0.16279 0.34931
 H553 H 0.78593 -0.05179 0.41508
 H554 H 0.70175 -0.05618 0.43727
 H555 H 0.69430 -0.11270 0.36686
 H556 H 0.69702 -0.09539 0.40869
 C557 C 0.62229 0.72993 -0.11574
 C558 C 0.64579 0.71349 -0.11597
 C559 C 0.66324 0.71473 -0.13795
 C560 C 0.65758 0.73239 -0.15973
 C561 C 0.63392 0.74854 -0.15868
 N562 N 0.61722 0.74698 -0.13703
 C563 C 0.60348 0.73028 -0.09256
 N564 N 0.58702 0.75228 -0.08929
 C565 C 0.56984 0.75456 -0.06810
 C566 C 0.56864 0.73388 -0.04860
 C567 C 0.58499 0.71086 -0.05166
 C568 C 0.60225 0.70884 -0.07370
 H569 H 0.68142 0.70219 -0.13751
 H570 H 0.62858 0.76242 -0.17496
 H571 H 0.55756 0.77268 -0.06617
 H572 H 0.58445 0.69455 -0.03688
 H573 H 0.65124 0.70030 -0.09917
 H574 H 0.61428 0.69063 -0.07581
 C575 C 0.37996 0.25084 -0.11891
 C576 C 0.38402 0.23335 -0.14034
 C577 C 0.36513 0.23315 -0.16131
 C578 C 0.34222 0.25040 -0.16119
 C579 C 0.33928 0.26798 -0.13964
 N580 N 0.35790 0.26772 -0.11943
 C581 C 0.39886 0.25175 -0.09573
 N582 N 0.39826 0.27392 -0.08016
 C583 C 0.41422 0.27607 -0.05803
 C584 C 0.43208 0.25502 -0.05035
 C585 C 0.43292 0.23185 -0.06579
 C586 C 0.41642 0.23012 -0.08853
 H587 H 0.36861 0.21943 -0.17753
 H588 H 0.32219 0.28183 -0.13859
 H589 H 0.41284 0.29411 -0.04631
 H590 H 0.44603 0.21497 -0.05997
 H591 H 0.40165 0.22014 -0.14127
 H592 H 0.41696 0.21174 -0.09967
 C593 C 0.36818 0.75375 0.11622
 C594 C 0.37203 0.77173 0.13719
 C595 C 0.35385 0.77206 0.15865
 C596 C 0.33189 0.75448 0.15946
 C597 C 0.32897 0.73666 0.13821
 N598 N 0.34691 0.73674 0.11754
 C599 C 0.38669 0.75217 0.09288
 N600 N 0.38669 0.72951 0.07803
 C601 C 0.40265 0.72650 0.05607
 C602 C 0.41992 0.74710 0.04784
 C603 C 0.42007 0.77082 0.06246
 C604 C 0.40354 0.77345 0.08502
 H605 H 0.35728 0.78596 0.17465
 H606 H 0.31246 0.72271 0.13778
 H607 H 0.40183 0.70805 0.04499
 H608 H 0.43277 0.78733 0.05621
 H609 H 0.38906 0.78510 0.13747
 H610 H 0.40360 0.79217 0.09560
 C611 C 0.63002 0.26085 0.11961
 C612 C 0.64254 0.28473 0.12694
 C613 C 0.66088 0.28430 0.14837
 C614 C 0.66677 0.26021 0.16261
 C615 C 0.65365 0.23683 0.15478
 N616 N 0.63608 0.23769 0.13365
 C617 C 0.61160 0.25977 0.09616
 N618 N 0.60967 0.23620 0.08295
 C619 C 0.59380 0.23378 0.06079
 C620 C 0.57854 0.25588 0.05088
 C621 C 0.57977 0.28024 0.06429
 C622 C 0.59622 0.28228 0.08702
 H623 H 0.67045 0.30283 0.15370
 H624 H 0.65775 0.21775 0.16495
 H625 H 0.59323 0.21470 0.05080
 H626 H 0.56820 0.29766 0.05700
 H627 H 0.63889 0.30342 0.11587
 H628 H 0.59667 0.30118 0.09731
 C629 C -0.12131 0.62365 0.73616
 C630 C -0.12376 0.64459 0.71689
 C631 C -0.14589 0.66241 0.71771
 C632 C -0.16576 0.65980 0.73781
 C633 C -0.16242 0.63851 0.75678
 N634 N -0.14062 0.62140 0.75553
 C635 C -0.09774 0.60466 0.73679
 N636 N -0.09124 0.59147 0.76033
 C637 C -0.06937 0.57448 0.76272
 C638 C -0.05255 0.57005 0.74057
 C639 C -0.05902 0.58293 0.71604
 C640 C -0.08170 0.60005 0.71396
 H641 H -0.14698 0.67836 0.70262
 H642 H -0.17687 0.63534 0.77276
 H643 H -0.06480 0.56484 0.78198
 H644 H -0.04641 0.57979 0.69856
 H645 H -0.10850 0.64782 0.70167
 H646 H -0.08649 0.60935 0.69464
 C647 C -0.11554 0.38114 0.25265
 C648 C -0.13870 0.38519 0.23642
 C649 C -0.15920 0.36622 0.23710
 C650 C -0.15687 0.34327 0.25397
 C651 C -0.13362 0.34029 0.27024
 N652 N -0.11390 0.35898 0.26916
 C653 C -0.09285 0.40022 0.25272
 N654 N -0.07552 0.39955 0.27413
 C655 C -0.05369 0.41571 0.27548
 C656 C -0.04820 0.43386 0.25437
 C657 C -0.06548 0.43480 0.23195
 C658 C -0.08787 0.41807 0.23103
 H659 H -0.17689 0.36976 0.22449
 H660 H -0.13080 0.32305 0.28364
 H661 H -0.04049 0.41425 0.29292
 H662 H -0.06135 0.44817 0.21503
 H663 H -0.14134 0.40289 0.22361
 H664 H -0.10047 0.41868 0.21320
 C665 C 0.11532 0.36803 0.74887
 C666 C 0.12309 0.35611 0.72470
 C667 C 0.14432 0.33716 0.72477
 C668 C 0.15793 0.33008 0.74878
 C669 C 0.14955 0.34247 0.77251
 N670 N 0.12862 0.36069 0.77199
 C671 C 0.09229 0.38747 0.75007
 N672 N 0.07771 0.38906 0.77321
 C673 C 0.05578 0.40584 0.77552
 C674 C 0.04759 0.42245 0.75376
 C675 C 0.06248 0.42153 0.72988
 C676 C 0.08492 0.40417 0.72796
 H677 H 0.15010 0.32818 0.70598
 H678 H 0.15925 0.33739 0.79154
 H679 H 0.04458 0.40604 0.79419
 H680 H 0.05650 0.43401 0.71266
 H681 H 0.11256 0.36081 0.70602
 H682 H 0.09634 0.40397 0.70944
 C683 C 0.11615 0.63276 0.25875
 C684 C 0.12079 0.64821 0.28150
 C685 C 0.14203 0.66633 0.28146
 C686 C 0.15876 0.66918 0.25882
 C687 C 0.15366 0.65305 0.23663
 N688 N 0.13277 0.63561 0.23712
 C689 C 0.09308 0.61410 0.25781
 N690 N 0.07512 0.61313 0.27855
 C691 C 0.05316 0.59705 0.27845
 C692 C 0.04827 0.58065 0.25652
 C693 C 0.06640 0.58121 0.23491
 C694 C 0.08889 0.59783 0.23550
 H695 H 0.14522 0.67805 0.29919
 H696 H 0.16587 0.65454 0.21867
 H697 H 0.03942 0.59720 0.29537
 H698 H 0.06294 0.56899 0.21754
 H699 H 0.10807 0.64647 0.29913
 H700 H 0.10267 0.59811 0.21860
 C701 C 0.73000 -0.11612 0.62856
 C702 C 0.71278 -0.11675 0.65100
 C703 C 0.71343 -0.13908 0.66849
 C704 C 0.73128 -0.16082 0.66391
 C705 C 0.74818 -0.15935 0.64125
 N706 N 0.74719 -0.13737 0.62452
 C707 C 0.73098 -0.09263 0.60976
 N708 N 0.75368 -0.08912 0.59459
 C709 C 0.75647 -0.06778 0.57735
 C710 C 0.73558 -0.04841 0.57461
 C711 C 0.71190 -0.05167 0.58968
 C712 C 0.70939 -0.07383 0.60712
 H713 H 0.70025 -0.13896 0.68581
 H714 H 0.76222 -0.17555 0.63671
 H715 H 0.77510 -0.06570 0.56609
 H716 H 0.69541 -0.03701 0.58795
 H717 H 0.69941 -0.10001 0.65559
 H718 H 0.69067 -0.07613 0.61812
 C719 C 0.25306 -0.11371 0.37675
 C720 C 0.23649 -0.13599 0.38137
 C721 C 0.23634 -0.15669 0.36291
 C722 C 0.25274 -0.15546 0.33990
 C723 C 0.26940 -0.13307 0.33635
 N724 N 0.26912 -0.11313 0.35455
 C725 C 0.25392 -0.09081 0.39524
 N726 N 0.27560 -0.07425 0.39399
 C727 C 0.27767 -0.05237 0.40966
 C728 C 0.25708 -0.04607 0.42792
 C729 C 0.23437 -0.06253 0.42941
 C730 C 0.23270 -0.08494 0.41316
 H731 H 0.22349 -0.17368 0.36688
 H732 H 0.28245 -0.13111 0.31904
 H733 H 0.29531 -0.03983 0.40779
 H734 H 0.21783 -0.05778 0.44288
 H735 H 0.22403 -0.13780 0.39913
 H736 H 0.21463 -0.09689 0.41422
 C737 C 0.76018 0.11546 0.37228
 C738 C 0.77730 0.13728 0.37626
 C739 C 0.77687 0.15886 0.35781
 C740 C 0.75939 0.15892 0.33544
 C741 C 0.74255 0.13675 0.33232
 N742 N 0.74333 0.11602 0.35054
 C743 C 0.75909 0.09206 0.39118
 N744 N 0.73689 0.07620 0.39035
 C745 C 0.73420 0.05415 0.40662
 C746 C 0.75466 0.04690 0.42513
 C747 C 0.77795 0.06256 0.42618
 C748 C 0.78026 0.08520 0.40928
 H749 H 0.79000 0.17559 0.36135
 H750 H 0.72879 0.13567 0.31544
 H751 H 0.71610 0.04226 0.40511
 H752 H 0.79435 0.05709 0.43993
 H753 H 0.79049 0.13813 0.39362
 H754 H 0.79864 0.09666 0.41012
 C755 C 0.26267 0.11776 0.62485
 C756 C 0.28687 0.12624 0.63667
 C757 C 0.28607 0.14717 0.65485
 C758 C 0.26129 0.15978 0.66122
 C759 C 0.23758 0.15085 0.64880
 N760 N 0.23883 0.13020 0.63140
 C761 C 0.26216 0.09476 0.60657
 N762 N 0.23936 0.07976 0.60547
 C763 C 0.23762 0.05788 0.58975
 C764 C 0.25964 0.05015 0.57377
 C765 C 0.28319 0.06544 0.57419
 C766 C 0.28452 0.08783 0.59049
 H767 H 0.30486 0.15342 0.66390
 H768 H 0.21799 0.15977 0.65336
 H769 H 0.21916 0.04642 0.58983
 H770 H 0.30054 0.05988 0.56206
 H771 H 0.30615 0.11642 0.63258
 H772 H 0.30276 0.09959 0.59030
   
