data_POSCAR
  _audit_creation_date              2014-09-24
  _audit_creation_method            'ToBaCCo'
  _symmetry_space_group_name_H-M    'P1'
  _symmetry_Int_Tables_number       1
  _symmetry_cell_setting            triclinic
  loop_
  _symmetry_equiv_pos_as_xyz
 x,y,z
_cell_length_a 39.7833
_cell_length_b 38.0683
_cell_length_c 38.9218
_cell_angle_alpha 87.090200
_cell_angle_beta 91.870100
_cell_angle_gamma 88.710400
loop_
  _atom_site_label
  _atom_site_type_symbol
  _atom_site_fract_x
  _atom_site_fract_y
  _atom_site_fract_z
C1 C 0.61185 0.66407 0.60162
 C2 C 0.63924 0.64762 0.58668
 C3 C 0.65235 0.61599 0.60100
 C4 C 0.63852 0.60068 0.63072
 C5 C 0.61139 0.61671 0.64521
 C6 C 0.59816 0.64881 0.63084
 C7 C 0.59378 0.69474 0.59319
 N8 N 0.56995 0.69867 0.61697
 C9 C 0.57239 0.67073 0.64008
 C10 C 0.60225 0.59524 0.67262
 N11 N 0.62367 0.56668 0.67591
 C12 C 0.64599 0.57012 0.65010
 C13 C 0.67791 0.60552 0.58052
 N14 N 0.68080 0.63022 0.55443
 C15 C 0.65742 0.65617 0.55809
 H16 H 0.59799 0.71318 0.57175
 H17 H 0.55649 0.66666 0.66191
 H18 H 0.58130 0.60050 0.68864
 H19 H 0.66561 0.55135 0.64455
 H20 H 0.69330 0.58174 0.58432
 H21 H 0.65347 0.67915 0.54075
 C22 C 0.89650 0.35062 0.10755
 C23 C 0.86558 0.36525 0.09494
 C24 C 0.85017 0.39200 0.11193
 C25 C 0.86520 0.40402 0.14209
 C26 C 0.89559 0.38937 0.15464
 C27 C 0.91116 0.36228 0.13740
 C28 C 0.91709 0.32427 0.09648
 N29 N 0.94370 0.31908 0.11926
 C30 C 0.93999 0.34227 0.14447
 C31 C 0.90398 0.40568 0.18437
 N32 N 0.87922 0.42950 0.19037
 C33 C 0.85533 0.42862 0.16470
 C34 C 0.82021 0.40052 0.09448
 N35 N 0.81688 0.37914 0.06778
 C36 C 0.84444 0.35747 0.06781
 H37 H 0.91212 0.30923 0.07410
 H38 H 0.95725 0.34517 0.16610
 H39 H 0.92615 0.40019 0.20082
 H40 H 0.83255 0.44478 0.16257
 H41 H 0.80164 0.41995 0.10133
 H42 H 0.84856 0.33729 0.04967
 C43 C 0.39240 0.15834 -0.11086
 C44 C 0.36275 0.14544 -0.09696
 C45 C 0.34714 0.11720 -0.11117
 C46 C 0.36078 0.10174 -0.13973
 C47 C 0.39006 0.11436 -0.15331
 C48 C 0.40579 0.14309 -0.13906
 C49 C 0.41383 0.18431 -0.10136
 N50 N 0.43955 0.18540 -0.12343
 C51 C 0.43482 0.16040 -0.14664
 C52 C 0.39874 0.09295 -0.17918
 N53 N 0.37520 0.06771 -0.18205
 C54 C 0.35174 0.07324 -0.15803
 C55 C 0.32012 0.10906 -0.09131
 N56 N 0.31879 0.13190 -0.06567
 C57 C 0.34468 0.15432 -0.06901
 H58 H 0.41096 0.20117 -0.08001
 H59 H 0.45170 0.15477 -0.16703
 H60 H 0.42059 0.09597 -0.19479
 H61 H 0.33041 0.05681 -0.15302
 H62 H 0.30287 0.08801 -0.09531
 H63 H 0.35054 0.17484 -0.05165
 C64 C 0.10234 0.84136 0.39682
 C65 C 0.12912 0.85703 0.41412
 C66 C 0.14504 0.88533 0.39859
 C67 C 0.13473 0.89793 0.36533
 C68 C 0.10832 0.88248 0.34837
 C69 C 0.09229 0.85373 0.36406
 C70 C 0.08215 0.81370 0.40565
 N71 N 0.06036 0.80839 0.37877
 C72 C 0.06664 0.83291 0.35317
 C73 C 0.10354 0.90026 0.31690
 N74 N 0.12678 0.92591 0.31394
 C75 C 0.14607 0.92441 0.34360
 C76 C 0.16996 0.89520 0.42125
 N77 N 0.16975 0.87327 0.44985
 C78 C 0.14499 0.84975 0.44570
 H79 H 0.08417 0.79805 0.42959
 H80 H 0.05314 0.83622 0.32860
 H81 H 0.08502 0.89418 0.29724
 H82 H 0.16636 0.94176 0.34959
 H83 H 0.18742 0.91627 0.41700
 H84 H 0.13901 0.82894 0.46435
 N85 N 0.09078 0.17988 0.10233
 N86 N 0.07867 0.16540 0.13057
 C87 C 0.05204 0.18482 0.13981
 C88 C 0.04691 0.21243 0.11566
 C89 C 0.07177 0.20846 0.09214
 H90 H 0.03722 0.17919 0.16214
 H91 H 0.07633 0.22579 0.06999
 Cu92 Cu 0.09834 0.12206 0.15188
 Cu93 Cu 0.13199 0.16248 0.08271
 Cu94 Cu 0.17001 0.08778 0.12300
 N95 N 0.11933 0.07951 0.17349
 N96 N 0.14818 0.06720 0.16303
 C97 C 0.15769 0.03849 0.18287
 C98 C 0.13320 0.03212 0.20658
 C99 C 0.10914 0.05856 0.19990
 H100 H 0.18022 0.02272 0.17969
 H101 H 0.08625 0.06252 0.21350
 N102 N 0.18813 0.11226 0.08207
 N103 N 0.17391 0.14095 0.06697
 C104 C 0.19281 0.15200 0.04060
 C105 C 0.21994 0.12892 0.03882
 C106 C 0.21611 0.10400 0.06537
 H107 H 0.18722 0.17502 0.02381
 H108 H 0.23292 0.08190 0.07233
 H109 H 0.12712 0.11041 0.09910
 H110 H 0.15192 0.13863 0.12795
 N111 N 0.41455 0.83046 0.61187
 N112 N 0.42900 0.84428 0.63868
 C113 C 0.45879 0.82765 0.64593
 C114 C 0.46347 0.80232 0.62217
 C115 C 0.43494 0.80500 0.60077
 H116 H 0.47616 0.83387 0.66655
 H117 H 0.42908 0.78934 0.57910
 Cu118 Cu 0.40790 0.88324 0.66094
 Cu119 Cu 0.36989 0.84574 0.59422
 Cu120 Cu 0.33130 0.91452 0.63448
 N121 N 0.38635 0.92219 0.68284
 N122 N 0.35580 0.93336 0.67333
 C123 C 0.34619 0.95900 0.69377
 C124 C 0.37240 0.96459 0.71696
 C125 C 0.39748 0.94083 0.70921
 H126 H 0.32213 0.97277 0.69152
 H127 H 0.42168 0.93691 0.72247
 N128 N 0.31066 0.89197 0.59475
 N129 N 0.32478 0.86501 0.58022
 C130 C 0.30394 0.85463 0.55490
 C131 C 0.27566 0.87654 0.55299
 C132 C 0.28082 0.89991 0.57857
 H133 H 0.30930 0.83316 0.53871
 H134 H 0.26371 0.92076 0.58523
 H135 H 0.37291 0.89691 0.60922
 H136 H 0.35317 0.86464 0.63964
 N137 N 0.91413 0.67358 0.39074
 N138 N 0.92677 0.65996 0.36345
 C139 C 0.95373 0.67843 0.35395
 C140 C 0.95849 0.70452 0.37691
 C141 C 0.93304 0.70065 0.40000
 H142 H 0.96917 0.67304 0.33239
 H143 H 0.92817 0.71686 0.42139
 Cu144 Cu 0.90751 0.61848 0.34412
 Cu145 Cu 0.87298 0.65658 0.41097
 Cu146 Cu 0.83708 0.58404 0.37518
 N147 N 0.88762 0.57740 0.32463
 N148 N 0.85953 0.56469 0.33635
 C149 C 0.85093 0.53681 0.31836
 C150 C 0.87510 0.53144 0.29425
 C151 C 0.89814 0.55763 0.29913
 H152 H 0.82920 0.52096 0.32316
 H153 H 0.92084 0.56202 0.28525
 N154 N 0.81817 0.60734 0.41455
 N155 N 0.83129 0.63549 0.42760
 C156 C 0.81160 0.64635 0.45270
 C157 C 0.78510 0.62362 0.45599
 C158 C 0.79015 0.59921 0.43143
 H159 H 0.81622 0.66916 0.46737
 H160 H 0.77391 0.57778 0.42555
 H161 H 0.87931 0.60508 0.39774
 H162 H 0.85352 0.63490 0.36722
 N163 N 0.58340 0.32329 -0.10412
 N164 N 0.56810 0.33941 -0.13110
 C165 C 0.54181 0.32033 -0.14118
 C166 C 0.54020 0.29094 -0.11888
 C167 C 0.56696 0.29376 -0.09565
 H168 H 0.52519 0.32748 -0.16303
 H169 H 0.57457 0.27504 -0.07487
 Cu170 Cu 0.58364 0.38391 -0.15048
 Cu171 Cu 0.62469 0.34056 -0.08354
 Cu172 Cu 0.66025 0.41157 -0.12642
 N173 N 0.60641 0.41996 -0.17725
 N174 N 0.63715 0.42921 -0.16897
 C175 C 0.64743 0.45303 -0.19292
 C176 C 0.62147 0.45934 -0.21706
 C177 C 0.59575 0.43813 -0.20627
 H178 H 0.67157 0.46554 -0.19238
 H179 H 0.57139 0.43568 -0.21898
 N180 N 0.67941 0.38989 -0.08283
 N181 N 0.66636 0.36212 -0.06709
 C182 C 0.68515 0.35309 -0.03850
 C183 C 0.71095 0.37661 -0.03578
 C184 C 0.70644 0.39974 -0.06423
 H185 H 0.67988 0.33169 -0.02029
 H186 H 0.72167 0.42200 -0.07099
 H187 H 0.61939 0.39318 -0.09987
 H188 H 0.63910 0.36277 -0.13024
 C189 C -0.01021 0.28375 0.14598
 C190 C -0.03069 0.29472 0.11736
 C191 C -0.02332 0.27840 0.08624
 C192 C 0.00270 0.25230 0.08527
 C193 C 0.02113 0.24068 0.11554
 C194 C 0.01346 0.25746 0.14524
 C195 C 0.02066 0.25619 0.18298
 C196 C -0.00635 0.28564 0.18415
 H197 H -0.03702 0.28595 0.06248
 H198 H 0.00765 0.24053 0.06114
 H199 H 0.04653 0.26473 0.18949
 H200 H 0.01322 0.23095 0.19584
 H201 H 0.00405 0.31102 0.19189
 H202 H -0.02928 0.27718 0.19757
 C203 C 0.53036 0.74206 0.58777
 C204 C 0.54659 0.72783 0.61787
 C205 C 0.53854 0.74242 0.64919
 C206 C 0.51235 0.76779 0.65034
 C207 C 0.49301 0.77828 0.62036
 C208 C 0.50377 0.76619 0.58902
 C209 C 0.48485 0.74979 0.56041
 C210 C 0.51419 0.72371 0.55887
 H211 H 0.55160 0.73319 0.67290
 H212 H 0.50592 0.77739 0.67505
 H213 H 0.48189 0.76778 0.53705
 H214 H 0.46140 0.73714 0.56892
 H215 H 0.52837 0.72695 0.53482
 H216 H 0.50764 0.69618 0.56633
 C217 C 1.02548 0.76515 0.40732
 C218 C 1.03658 0.78299 0.37762
 C219 C 1.02119 0.77302 0.34613
 C220 C 0.99626 0.74688 0.34567
 C221 C 0.98498 0.73087 0.37663
 C222 C 1.00045 0.74136 0.40679
 C223 C 0.99988 0.73638 0.44487
 C224 C 1.02795 0.76350 0.44576
 H225 H 1.02869 0.78453 0.32169
 H226 H 0.98537 0.73983 0.32119
 H227 H 1.00831 0.70941 0.45413
 H228 H 0.97589 0.74600 0.45530
 H229 H 1.05240 0.75207 0.45607
 H230 H 1.02000 0.78871 0.45662
 C231 C 0.47990 0.22398 -0.15244
 C232 C 0.46748 0.20855 -0.12223
 C233 C 0.48291 0.21693 -0.09070
 C234 C 0.50759 0.24288 -0.08973
 C235 C 0.51646 0.26172 -0.12014
 C236 C 0.50332 0.25041 -0.15143
 C237 C 0.48653 0.27045 -0.18151
 C238 C 0.46119 0.24122 -0.18277
 H239 H 0.47505 0.20434 -0.06682
 H240 H 0.51813 0.24964 -0.06500
 H241 H 0.50273 0.27193 -0.20425
 H242 H 0.47506 0.29591 -0.17455
 H243 H 0.46305 0.22561 -0.20603
 H244 H 0.43525 0.24985 -0.17671
 C245 C 0.10388 -0.04565 0.26106
 C246 C 0.13005 -0.05123 0.28601
 C247 C 0.15978 -0.03211 0.28078
 C248 C 0.16129 -0.00601 0.25389
 C249 C 0.13280 0.00262 0.23250
 C250 C 0.10498 -0.01895 0.23552
 C251 C 0.06843 -0.01007 0.23755
 C252 C 0.06705 -0.03940 0.26539
 H253 H 0.18179 -0.03673 0.29757
 H254 H 0.18404 0.00884 0.25117
 H255 H 0.05410 -0.01574 0.21355
 H256 H 0.06350 0.01634 0.24747
 H257 H 0.05191 -0.06193 0.25731
 H258 H 0.06132 -0.02986 0.29115
 C259 C 0.59386 0.53352 -0.28003
 C260 C 0.62225 0.53893 -0.30023
 C261 C 0.64886 0.51346 -0.29539
 C262 C 0.64835 0.48687 -0.26889
 C263 C 0.62079 0.48406 -0.24735
 C264 C 0.59292 0.50630 -0.25493
 C265 C 0.57329 0.52772 -0.23128
 C266 C 0.57453 0.55774 -0.25832
 H267 H 0.67130 0.51511 -0.31020
 H268 H 0.67001 0.46927 -0.26450
 H269 H 0.58758 0.53270 -0.20704
 H270 H 0.54756 0.51762 -0.22781
 H271 H 0.58971 0.58007 -0.24974
 H272 H 0.54932 0.56519 -0.26996
 C273 C 0.34652 1.02151 0.78927
 C274 C 0.37553 1.04077 0.79595
 C275 C 0.40504 1.03069 0.77918
 C276 C 0.40418 1.00501 0.75440
 C277 C 0.37368 0.98955 0.74477
 C278 C 0.34548 0.99715 0.76387
 C279 C 0.31041 1.00792 0.75251
 C280 C 0.31137 1.03434 0.78044
 H281 H 0.42883 1.04270 0.78471
 H282 H 0.42707 0.99871 0.74146
 H283 H 0.29231 0.98656 0.75740
 H284 H 0.30880 1.02072 0.72617
 H285 H 0.29391 1.02802 0.80149
 H286 H 0.31017 1.06218 0.77023
 C287 C 0.90790 0.46533 0.23288
 C288 C 0.87838 0.45146 0.21927
 C289 C 0.84788 0.46037 0.23445
 C290 C 0.84698 0.48545 0.25983
 C291 C 0.87644 0.50278 0.26996
 C292 C 0.90693 0.49079 0.25717
 C293 C 0.93494 0.51039 0.24090
 C294 C 0.93613 0.48226 0.21462
 H295 H 0.82461 0.44897 0.22579
 H296 H 0.82290 0.49271 0.26988
 H297 H 0.95787 0.51028 0.25802
 H298 H 0.92671 0.53664 0.22940
 H299 H 0.95955 0.46572 0.21685
 H300 H 0.92873 0.49225 0.18803
 C301 C 0.28894 0.10071 -0.01891
 C302 C 0.29542 0.13165 -0.03832
 C303 C 0.28059 0.16325 -0.02803
 C304 C 0.25649 0.16273 -0.00225
 C305 C 0.24760 0.13069 0.01448
 C306 C 0.26604 0.10039 0.00722
 C307 C 0.25422 0.06468 -0.00062
 C308 C 0.27901 0.06513 -0.02954
 H309 H 0.28628 0.18803 -0.04119
 H310 H 0.24418 0.18719 0.00379
 H311 H 0.22746 0.06491 -0.00986
 H312 H 0.26096 0.04479 0.02052
 H313 H 0.26621 0.06566 -0.05536
 H314 H 0.29981 0.04526 -0.02522
 C315 C 0.71889 0.65938 0.51385
 C316 C 0.70399 0.62885 0.52701
 C317 C 0.71281 0.59679 0.51271
 C318 C 0.73844 0.59529 0.48865
 C319 C 0.75638 0.62565 0.47909
 C320 C 0.74484 0.65778 0.49093
 C321 C 0.76326 0.68641 0.50783
 C322 C 0.73461 0.68830 0.53260
 H323 H 0.70073 0.57277 0.52101
 H324 H 0.74545 0.57000 0.47918
 H325 H 0.76488 0.71043 0.49056
 H326 H 0.78742 0.67702 0.52067
 H327 H 0.71952 0.71325 0.52934
 H328 H 0.74224 0.68018 0.55964
 C329 C 0.77282 0.40951 0.03069
 C330 C 0.78811 0.37837 0.04469
 C331 C 0.77445 0.34628 0.03530
 C332 C 0.74845 0.34579 0.00988
 C333 C 0.73645 0.37730 -0.00741
 C334 C 0.74804 0.40901 0.00477
 C335 C 0.76169 0.44061 -0.01384
 C336 C 0.78853 0.44129 0.01482
 H337 H 0.78460 0.32164 0.04680
 H338 H 0.73921 0.32067 0.00240
 H339 H 0.74389 0.46358 -0.01448
 H340 H 0.77223 0.43458 -0.03904
 H341 H 0.78596 0.46444 0.03092
 H342 H 0.81440 0.43582 0.00613
 C343 C 0.20679 0.84299 0.49442
 C344 C 0.19250 0.87407 0.47913
 C345 C 0.20233 0.90613 0.49246
 C346 C 0.22844 0.90677 0.51777
 C347 C 0.24599 0.87550 0.52926
 C348 C 0.23338 0.84369 0.51836
 C349 C 0.25052 0.81269 0.50382
 C350 C 0.22113 0.81177 0.47796
 H351 H 0.19083 0.93069 0.48228
 H352 H 0.23636 0.93193 0.52651
 H353 H 0.25198 0.78945 0.52234
 H354 H 0.27450 0.81943 0.49145
 H355 H 0.20540 0.78822 0.48185
 H356 H 0.22822 0.81780 0.45093
   
