data_POSCAR
  _audit_creation_date              2014-09-24
  _audit_creation_method            'ToBaCCo'
  _symmetry_space_group_name_H-M    'P1'
  _symmetry_Int_Tables_number       1
  _symmetry_cell_setting            triclinic
  loop_
  _symmetry_equiv_pos_as_xyz
 x,y,z
_cell_length_a 20.9437
_cell_length_b 20.6194
_cell_length_c 23.8942
_cell_angle_alpha 91.121100
_cell_angle_beta 90.162200
_cell_angle_gamma 89.318200
loop_
  _atom_site_label
  _atom_site_type_symbol
  _atom_site_fract_x
  _atom_site_fract_y
  _atom_site_fract_z
Si1 Si 1.25923 0.25451 0.24495
 Si2 Si 0.76044 -0.24191 0.25132
 Si3 Si 0.75730 0.24973 -0.25668
 Si4 Si 1.25865 -0.25588 -0.24585
 Si5 Si 0.24039 0.24948 0.75333
 Si6 Si 0.74419 0.75196 0.75159
 Si7 Si 0.74119 0.24463 0.25337
 Si8 Si 0.24070 0.74750 0.24671
 O9 O 1.10762 0.03739 0.06922
 O10 O 0.88925 -0.02711 0.07079
 O11 O 0.96395 0.11527 0.06928
 O12 O 1.03195 -0.10760 0.07053
 O13 O 0.87677 0.07995 0.03705
 O14 O 1.11943 -0.07330 0.03910
 O15 O 0.92487 -0.11792 0.04086
 O16 O 1.07105 0.12595 0.03764
 C17 C 1.10180 0.09684 0.07445
 C18 C 0.89897 -0.08521 0.07907
 C19 C 0.90624 0.10724 0.07596
 C20 C 1.08991 -0.10101 0.07685
 O21 O 1.10707 -0.03647 -0.06915
 O22 O 0.88813 0.03381 -0.06993
 O23 O 1.03025 0.10992 -0.07018
 O24 O 0.96291 -0.11078 -0.06843
 O25 O 0.87598 -0.07323 -0.03581
 O26 O 1.11811 0.07363 -0.03894
 O27 O 1.07093 -0.12419 -0.03769
 O28 O 0.92376 0.12392 -0.04006
 Co29 Co 1.10177 0.00045 0.00008
 Co30 Co 0.89353 0.00319 0.00048
 Co31 Co 0.99719 0.10743 -0.00061
 Co32 Co 0.99759 -0.10386 0.00110
 O33 O 0.99759 0.00177 0.00025
 C34 C 1.10126 -0.09572 -0.07458
 C35 C 0.89619 0.09212 -0.07776
 C36 C 1.08795 0.10102 -0.07694
 C37 C 0.90485 -0.10234 -0.07436
 O38 O 1.12549 0.57483 0.53837
 O39 O 0.88414 0.42731 0.53685
 O40 O 0.93037 0.62541 0.54008
 O41 O 1.07943 0.37731 0.53348
 O42 O 0.89405 0.53647 0.56866
 O43 O 1.11326 0.46598 0.56752
 O44 O 0.97252 0.38887 0.56581
 O45 O 1.03846 0.61061 0.57211
 C46 C 1.09660 0.60212 0.57787
 C47 C 0.91473 0.39771 0.57347
 C48 C 0.89984 0.59552 0.57593
 C49 C 1.10576 0.40713 0.57286
 O50 O 1.12537 0.42649 0.45853
 O51 O 0.88308 0.57619 0.46124
 O52 O 1.07788 0.62474 0.46346
 O53 O 0.93069 0.37710 0.45886
 O54 O 0.89477 0.46615 0.42819
 O55 O 1.11230 0.53553 0.42937
 O56 O 1.03815 0.39117 0.42569
 O57 O 0.97078 0.61415 0.43273
 Co58 Co 1.10806 0.50072 0.49850
 Co59 Co 0.90026 0.50148 0.49860
 Co60 Co 1.00450 0.60710 0.50197
 Co61 Co 1.00526 0.39519 0.49606
 O62 O 1.00440 0.50115 0.49880
 C63 C 1.09608 0.39937 0.41941
 C64 C 0.91306 0.60635 0.42528
 C65 C 1.10497 0.59466 0.42423
 C66 C 0.89959 0.40663 0.42265
 O67 O 0.61607 0.07241 0.53550
 O68 O 0.37138 -0.07935 0.53514
 O69 O 0.42112 0.11925 0.54168
 O70 O 0.56628 -0.12566 0.54050
 O71 O 0.38207 0.03082 0.56953
 O72 O 0.60167 -0.03507 0.57086
 O73 O 0.45930 -0.11509 0.56641
 O74 O 0.52977 0.10561 0.57151
 C75 C 0.58846 0.10132 0.57456
 C76 C 0.40127 -0.10812 0.57266
 C77 C 0.39117 0.08943 0.57796
 C78 C 0.59396 -0.09376 0.57823
 O79 O 0.61611 -0.08099 0.46575
 O80 O 0.37075 0.07247 0.46291
 O81 O 0.56522 0.11721 0.46010
 O82 O 0.42267 -0.12709 0.45686
 O83 O 0.38297 -0.03804 0.42855
 O84 O 0.60239 0.02664 0.43007
 O85 O 0.53128 -0.11425 0.42865
 O86 O 0.45872 0.10727 0.43299
 Co87 Co 0.59752 -0.00422 0.50045
 Co88 Co 0.38836 -0.00354 0.49910
 Co89 Co 0.49382 0.10112 0.50175
 Co90 Co 0.49492 -0.10934 0.49795
 O91 O 0.49342 -0.00398 0.49976
 C92 C 0.58945 -0.10678 0.42491
 C93 C 0.40079 0.10133 0.42611
 C94 C 0.59389 0.08535 0.42270
 C95 C 0.39154 -0.09708 0.42069
 O96 O 0.63541 0.57184 0.03899
 O97 O 0.40635 0.46669 0.06975
 O98 O 0.44506 0.59004 0.07301
 O99 O 0.56663 0.37218 0.03290
 O100 O 0.36523 0.56581 0.02459
 O101 O 0.62148 0.45483 0.06611
 O102 O 0.45173 0.37831 0.04443
 O103 O 0.55147 0.59861 0.08153
 C104 C 0.60978 0.59698 0.08034
 C105 C 0.41756 0.40882 0.07879
 C106 C 0.38700 0.59620 0.06592
 C107 C 0.60266 0.39761 0.07049
 O108 O 0.63056 0.42277 -0.03789
 O109 O 0.40999 0.52855 -0.07159
 O110 O 0.56562 0.62596 -0.03300
 O111 O 0.43522 0.41058 -0.06474
 O112 O 0.34732 0.44440 -0.02426
 O113 O 0.62364 0.54160 -0.06289
 O114 O 0.54483 0.40473 -0.08027
 O115 O 0.44765 0.61934 -0.03948
 Co116 Co 0.61647 0.49770 0.00139
 Co117 Co 0.41332 0.49518 -0.00126
 Co118 Co 0.50294 0.60057 0.01876
 Co119 Co 0.50086 0.40023 -0.01514
 O120 O 0.51112 0.50133 0.00279
 C121 C 0.60341 0.40400 -0.08106
 C122 C 0.41763 0.58816 -0.07706
 C123 C 0.60619 0.60001 -0.06715
 C124 C 0.37540 0.40430 -0.05952
 C125 C 1.17058 0.23704 0.15781
 C126 C 1.21053 0.20511 0.19567
 C127 C 1.21368 0.13714 0.19483
 C128 C 1.17711 0.10147 0.15630
 C129 C 1.13714 0.13346 0.11804
 C130 C 1.13389 0.20160 0.11956
 H131 H 1.16786 0.28954 0.15778
 H132 H 1.24488 0.11152 0.22321
 H133 H 1.18090 0.04902 0.15581
 H134 H 1.10374 0.22767 0.09052
 C135 C 1.23558 0.65026 0.66992
 C136 C 1.20673 0.69355 0.70815
 C137 C 1.14031 0.70352 0.70616
 C138 C 1.10348 0.67184 0.66519
 C139 C 1.13281 0.63017 0.62551
 C140 C 1.19900 0.61851 0.62925
 H141 H 1.28684 0.64260 0.67033
 H142 H 1.11705 0.73776 0.73449
 H143 H 1.05264 0.68183 0.66322
 H144 H 1.22300 0.58639 0.59948
 C145 C 0.72123 0.19970 0.63715
 C146 C 0.70570 0.20200 0.69412
 C147 C 0.65098 0.16970 0.71237
 C148 C 0.61068 0.13846 0.67357
 C149 C 0.62643 0.13701 0.61654
 C150 C 0.68237 0.16716 0.59892
 H151 H 0.76361 0.22270 0.62166
 H152 H 0.63889 0.16959 0.75639
 H153 H 0.56837 0.11428 0.68807
 H154 H 0.69580 0.16605 0.55514
 C155 C 0.73309 0.70524 0.14379
 C156 C 0.71647 0.70563 0.20064
 C157 C 0.66536 0.66760 0.21814
 C158 C 0.63012 0.63167 0.17902
 C159 C 0.64736 0.63159 0.12243
 C160 C 0.69960 0.66762 0.10523
 H161 H 0.77116 0.73436 0.12813
 H162 H 0.65088 0.66752 0.26151
 H163 H 0.58959 0.60404 0.19279
 H164 H 0.71299 0.66864 0.06147
 C165 C 0.79404 -0.12337 0.20175
 C166 C 0.81222 -0.18792 0.21090
 C167 C 0.86440 -0.21507 0.18194
 C168 C 0.89474 -0.18005 0.14088
 C169 C 0.87378 -0.11705 0.12862
 C170 C 0.82507 -0.08780 0.16097
 H171 H 0.75360 -0.10169 0.22349
 H172 H 0.87849 -0.26517 0.18793
 H173 H 0.93252 -0.20347 0.11679
 H174 H 0.80835 -0.03910 0.15239
 C175 C 0.78269 0.35342 0.67231
 C176 C 0.80981 0.30054 0.69996
 C177 C 0.87339 0.28240 0.68891
 C178 C 0.90900 0.31608 0.64969
 C179 C 0.88091 0.36736 0.62014
 C180 C 0.81786 0.38652 0.63268
 H181 H 0.73342 0.36754 0.67973
 H182 H 0.89476 0.24059 0.70858
 H183 H 0.95737 0.30005 0.64055
 H184 H 0.79508 0.42601 0.61066
 C185 C 0.26962 -0.16585 0.66733
 C186 C 0.30364 -0.20547 0.70430
 C187 C 0.37015 -0.21088 0.69943
 C188 C 0.40213 -0.17780 0.65753
 C189 C 0.36798 -0.13925 0.61947
 C190 C 0.30147 -0.13283 0.62538
 H191 H 0.21812 -0.16166 0.67009
 H192 H 0.39737 -0.24203 0.72675
 H193 H 0.45343 -0.18374 0.65405
 H194 H 0.27388 -0.10338 0.59685
 C195 C 0.30554 0.37150 0.19802
 C196 C 0.31302 0.30393 0.20120
 C197 C 0.35870 0.27225 0.16750
 C198 C 0.39567 0.30723 0.13034
 C199 C 0.38680 0.37463 0.12536
 C200 C 0.34219 0.40664 0.16041
 H201 H 0.26977 0.39695 0.22282
 H202 H 0.36469 0.22005 0.16890
 H203 H 0.42928 0.28098 0.10372
 H204 H 0.33371 0.45835 0.15710
 C205 C 0.85692 0.22319 -0.18037
 C206 C 0.80534 0.19659 -0.20998
 C207 C 0.78740 0.13256 -0.19969
 C208 C 0.81873 0.09691 -0.15822
 C209 C 0.86787 0.12530 -0.12624
 C210 C 0.88763 0.18813 -0.13874
 H211 H 0.87290 0.27178 -0.18848
 H212 H 0.74793 0.11081 -0.22213
 H213 H 0.80279 0.04834 -0.14959
 H214 H 0.92605 0.21084 -0.11541
 C215 C 0.77985 0.65922 0.32966
 C216 C 0.80914 0.70805 0.29941
 C217 C 0.87368 0.72189 0.30935
 C218 C 0.90851 0.68698 0.34874
 C219 C 0.87882 0.63874 0.37967
 C220 C 0.81440 0.62464 0.36932
 H221 H 0.72988 0.64870 0.32398
 H222 H 0.89696 0.76105 0.28843
 H223 H 0.95792 0.69938 0.35646
 H224 H 0.79028 0.58781 0.39278
 C225 C 0.37031 0.20718 0.30078
 C226 C 0.30389 0.20316 0.29513
 C227 C 0.26967 0.16365 0.33122
 C228 C 0.30128 0.12913 0.37295
 C229 C 0.36773 0.13395 0.37949
 C230 C 0.40205 0.17257 0.34242
 H231 H 0.39767 0.23829 0.27425
 H232 H 0.21820 0.16056 0.32784
 H233 H 0.27358 0.09973 0.40080
 H234 H 0.45330 0.17733 0.34646
 C235 C 0.30746 0.62681 -0.19878
 C236 C 0.31268 0.69449 -0.20096
 C237 C 0.35611 0.72611 -0.16542
 C238 C 0.39282 0.69097 -0.12730
 C239 C 0.38627 0.62337 -0.12348
 C240 C 0.34406 0.59147 -0.16045
 H241 H 0.27355 0.60134 -0.22512
 H242 H 0.36045 0.77839 -0.16614
 H243 H 0.42464 0.71714 -0.09937
 H244 H 0.33742 0.53956 -0.15825
 C245 C 1.16969 -0.23696 -0.15898
 C246 C 1.20909 -0.20566 -0.19692
 C247 C 1.21167 -0.13773 -0.19596
 C248 C 1.17535 -0.10153 -0.15711
 C249 C 1.13613 -0.13292 -0.11862
 C250 C 1.13323 -0.20100 -0.12040
 H251 H 1.16741 -0.28943 -0.15899
 H252 H 1.24241 -0.11257 -0.22440
 H253 H 1.17883 -0.04915 -0.15651
 H254 H 1.10366 -0.22664 -0.09125
 C255 C 1.14037 0.29617 0.29215
 C256 C 1.20660 0.30576 0.29018
 C257 C 1.23493 0.34951 0.32780
 C258 C 1.19801 0.38221 0.36790
 C259 C 1.13208 0.37085 0.37179
 C260 C 1.10321 0.32872 0.33268
 H261 H 1.11762 0.26156 0.26424
 H262 H 1.28605 0.35687 0.32735
 H263 H 1.22165 0.41470 0.39724
 H264 H 1.05258 0.31899 0.33484
 C265 C 0.73354 -0.15809 0.34103
 C266 C 0.70615 -0.19324 0.29680
 C267 C 0.63941 -0.19455 0.29109
 C268 C 0.60045 -0.16512 0.33202
 C269 C 0.62816 -0.13316 0.37826
 C270 C 0.69499 -0.12812 0.38128
 H271 H 0.78495 -0.15574 0.34564
 H272 H 0.61717 -0.21926 0.25600
 H273 H 0.54905 -0.16852 0.32820
 H274 H 0.71786 -0.10286 0.41592
 C275 C 0.74126 0.34131 -0.16833
 C276 C 0.70980 0.30532 -0.21015
 C277 C 0.64299 0.30925 -0.21376
 C278 C 0.60801 0.34348 -0.17287
 C279 C 0.63956 0.37492 -0.12824
 C280 C 0.70654 0.37542 -0.12748
 H281 H 0.79271 0.34180 -0.16597
 H282 H 0.61739 0.28508 -0.24724
 H283 H 0.55635 0.34359 -0.17519
 H284 H 0.73217 0.40064 -0.09436
 C285 C 1.12441 0.20394 -0.20152
 C286 C 1.19091 0.19693 -0.20375
 C287 C 1.22241 0.15449 -0.16771
 C288 C 1.18815 0.12070 -0.12835
 C289 C 1.12186 0.12976 -0.12386
 C290 C 1.08987 0.17024 -0.16173
 H291 H 1.09952 0.23738 -0.22851
 H292 H 1.27393 0.14914 -0.16870
 H293 H 1.21395 0.08948 -0.09997
 H294 H 1.03872 0.17789 -0.15909
 C295 C 1.15547 0.73231 0.33212
 C296 C 1.19475 0.70042 0.29258
 C297 C 1.20193 0.63263 0.29473
 C298 C 1.17132 0.59767 0.33649
 C299 C 1.13338 0.62996 0.37701
 C300 C 1.12488 0.69751 0.37362
 H301 H 1.14964 0.78461 0.33193
 H302 H 1.23280 0.60659 0.26559
 H303 H 1.17882 0.54567 0.33802
 H304 H 1.09577 0.72385 0.40400
 C305 C 0.63865 0.21925 0.32518
 C306 C 0.69047 0.19138 0.29632
 C307 C 0.70750 0.12644 0.30584
 C308 C 0.67390 0.09033 0.34485
 C309 C 0.62372 0.11922 0.37568
 C310 C 0.60559 0.18359 0.36454
 H311 H 0.62531 0.26950 0.31890
 H312 H 0.74847 0.10438 0.28526
 H313 H 0.68920 0.04101 0.35291
 H314 H 0.56705 0.20710 0.38760
 C315 C 0.73102 0.65585 -0.16798
 C316 C 0.69841 0.70370 -0.19771
 C317 C 0.63495 0.71951 -0.18341
 C318 C 0.60440 0.68701 -0.14000
 C319 C 0.63693 0.63789 -0.11119
 C320 C 0.70036 0.62255 -0.12588
 H321 H 0.78064 0.64456 -0.17694
 H322 H 0.60960 0.75783 -0.20477
 H323 H 0.55547 0.69957 -0.12945
 H324 H 0.72681 0.58536 -0.10394
 C325 C 0.76685 -0.15260 -0.16612
 C326 C 0.79592 -0.19763 -0.20270
 C327 C 0.86206 -0.20859 -0.19956
 C328 C 0.89852 -0.17576 -0.15913
 C329 C 0.86898 -0.13212 -0.12117
 C330 C 0.80306 -0.11978 -0.12595
 H331 H 0.71573 -0.14415 -0.16756
 H332 H 0.88529 -0.24424 -0.22661
 H333 H 0.94921 -0.18625 -0.15623
 H334 H 0.77901 -0.08613 -0.09748
 C335 C 0.79528 0.27678 0.35913
 C336 C 0.78855 0.29644 0.30354
 C337 C 0.81998 0.35270 0.28664
 C338 C 0.85495 0.39017 0.32545
 C339 C 0.86149 0.37000 0.38097
 C340 C 0.83183 0.31271 0.39718
 H341 H 0.77324 0.23294 0.37339
 H342 H 0.81777 0.36753 0.24348
 H343 H 0.87825 0.43373 0.31186
 H344 H 0.83632 0.29604 0.43976
 C345 C 0.33435 -0.23604 0.32715
 C346 C 0.29039 -0.20498 0.29187
 C347 C 0.28196 -0.13729 0.29771
 C348 C 0.31634 -0.10176 0.33812
 C349 C 0.35939 -0.13311 0.37413
 C350 C 0.36867 -0.20057 0.36751
 H351 H 0.34118 -0.28819 0.32446
 H352 H 0.24727 -0.11157 0.27265
 H353 H 0.30769 -0.05000 0.34233
 H354 H 0.40137 -0.22638 0.39456
 C355 C 0.24530 0.33844 -0.15519
 C356 C 0.28152 0.29938 -0.19247
 C357 C 0.34730 0.29332 -0.18456
 C358 C 0.37678 0.32638 -0.14030
 C359 C 0.34105 0.36615 -0.10291
 C360 C 0.27486 0.37181 -0.11069
 H361 H 0.19402 0.34260 -0.16028
 H362 H 0.37588 0.26231 -0.21192
 H363 H 0.42799 0.32094 -0.13559
 H364 H 0.24624 0.40232 -0.08292
 C365 C 1.12710 -0.20670 0.20111
 C366 C 1.19383 -0.20192 0.20394
 C367 C 1.22528 -0.16077 0.16722
 C368 C 1.19100 -0.12602 0.12752
 C369 C 1.12453 -0.13229 0.12319
 C370 C 1.09265 -0.17184 0.16114
 H371 H 1.10153 -0.23896 0.22803
 H372 H 1.27684 -0.15673 0.16810
 H373 H 1.21689 -0.09576 0.09904
 H374 H 1.04141 -0.17755 0.15872
 C375 C 1.15418 0.26876 0.66532
 C376 C 1.19310 0.29988 0.70489
 C377 C 1.20062 0.36730 0.70325
 C378 C 1.17065 0.40305 0.66126
 C379 C 1.13314 0.37154 0.62039
 C380 C 1.12412 0.30427 0.62361
 H381 H 1.14841 0.21663 0.66574
 H382 H 1.23133 0.39205 0.73301
 H383 H 1.17833 0.45485 0.65976
 H384 H 1.09518 0.27868 0.59294
 C385 C 0.64555 -0.22837 0.67377
 C386 C 0.69171 -0.19762 0.70694
 C387 C 0.70214 -0.13101 0.70107
 C388 C 0.66813 -0.09601 0.66093
 C389 C 0.62380 -0.12747 0.62582
 C390 C 0.61169 -0.19361 0.63367
 H391 H 0.63726 -0.27986 0.67752
 H392 H 0.73837 -0.10652 0.72561
 H393 H 0.67850 -0.04514 0.65574
 H394 H 0.57752 -0.21910 0.60750
 C395 C 0.65474 0.25792 0.16177
 C396 C 0.68828 0.29086 0.20454
 C397 C 0.68535 0.35866 0.20694
 C398 C 0.65542 0.39296 0.16422
 C399 C 0.62668 0.36011 0.11862
 C400 C 0.62432 0.29220 0.11898
 H401 H 0.65353 0.20562 0.16016
 H402 H 0.70731 0.38557 0.24092
 H403 H 0.65616 0.44548 0.16626
 H404 H 0.60130 0.26557 0.08519
 C405 C 0.85974 0.21517 0.19952
 C406 C 0.79636 0.19615 0.20778
 C407 C 0.77223 0.14377 0.17652
 C408 C 0.80913 0.11358 0.13506
 C409 C 0.87130 0.13470 0.12446
 C410 C 0.89722 0.18434 0.15823
 H411 H 0.87967 0.25528 0.22324
 H412 H 0.72418 0.12694 0.18308
 H413 H 0.78834 0.07465 0.11027
 H414 H 0.94523 0.20123 0.15105
 C415 C 0.78772 0.63440 0.69717
 C416 C 0.79318 0.70204 0.70166
 C417 C 0.83466 0.73393 0.66581
 C418 C 0.87055 0.69895 0.62617
 C419 C 0.86508 0.63121 0.62105
 C420 C 0.82363 0.59914 0.65729
 H421 H 0.75488 0.60885 0.72347
 H422 H 0.83902 0.78621 0.66824
 H423 H 0.90183 0.72518 0.59884
 H424 H 0.81799 0.54706 0.65403
 C425 C 0.28334 0.13147 0.70089
 C426 C 0.29343 0.19843 0.70751
 C427 C 0.33869 0.22827 0.67395
 C428 C 0.37227 0.19214 0.63334
 C429 C 0.36077 0.12545 0.62526
 C430 C 0.31699 0.09518 0.66035
 H431 H 0.24756 0.10736 0.72519
 H432 H 0.34651 0.28000 0.67786
 H433 H 0.40586 0.21689 0.60708
 H434 H 0.30693 0.04401 0.65502
 C435 C 0.34954 0.70432 0.19161
 C436 C 0.28332 0.69905 0.19674
 C437 C 0.24999 0.66043 0.15721
 C438 C 0.28255 0.62743 0.11357
 C439 C 0.34902 0.63262 0.10884
 C440 C 0.38186 0.67137 0.14852
 H441 H 0.37673 0.73490 0.21994
 H442 H 0.19853 0.65648 0.15959
 H443 H 0.25603 0.59769 0.08401
 H444 H 0.43317 0.67670 0.14614
   
