data_POSCAR
  _audit_creation_date              2014-09-24
  _audit_creation_method            'ToBaCCo'
  _symmetry_space_group_name_H-M    'P1'
  _symmetry_Int_Tables_number       1
  _symmetry_cell_setting            triclinic
  loop_
  _symmetry_equiv_pos_as_xyz
 x,y,z
_cell_length_a 62.8004
_cell_length_b 62.4760
_cell_length_c 28.6203
_cell_angle_alpha 90.015200
_cell_angle_beta 90.163000
_cell_angle_gamma 119.273100
loop_
  _atom_site_label
  _atom_site_type_symbol
  _atom_site_fract_x
  _atom_site_fract_y
  _atom_site_fract_z
C1 C 0.15644 0.41856 0.49674
 C2 C 0.16766 0.41946 0.45386
 C3 C 0.19226 0.42510 0.45414
 C4 C 0.20631 0.43228 0.49581
 C5 C 0.19470 0.43288 0.53775
 C6 C 0.16976 0.42591 0.53871
 C7 C 0.23334 0.44105 0.49510
 C8 C 0.24613 0.44199 0.53664
 C9 C 0.27172 0.45318 0.53724
 C10 C 0.28453 0.46171 0.49529
 C11 C 0.27234 0.45963 0.45318
 C12 C 0.24695 0.44987 0.45337
 H13 H 0.13730 0.41346 0.49708
 H14 H 0.20034 0.42422 0.42147
 H15 H 0.20518 0.43990 0.56949
 H16 H 0.23651 0.43464 0.56901
 H17 H 0.30421 0.46961 0.49524
 H18 H 0.23831 0.45016 0.42091
 C19 C 0.58567 -0.26109 0.50063
 C20 C 0.58583 -0.25069 0.45704
 C21 C 0.58142 -0.23069 0.45562
 C22 C 0.57437 -0.22275 0.49617
 C23 C 0.57282 -0.23485 0.53888
 C24 C 0.57849 -0.25397 0.54157
 C25 C 0.56645 -0.20358 0.49332
 C26 C 0.56565 -0.19089 0.53377
 C27 C 0.55505 -0.17563 0.53239
 C28 C 0.54693 -0.17148 0.48948
 C29 C 0.54883 -0.18256 0.44846
 C30 C 0.55809 -0.19887 0.45061
 H31 H 0.58980 -0.27599 0.50229
 H32 H 0.58307 -0.22178 0.42247
 H33 H 0.56590 -0.23044 0.56978
 H34 H 0.57264 -0.19319 0.56680
 H35 H 0.53938 -0.15918 0.48776
 H36 H 0.55764 -0.20846 0.41892
 C37 C 1.27530 0.83008 0.51237
 C38 C 1.26408 0.82422 0.46811
 C39 C 1.24085 0.80328 0.46389
 C40 C 1.22976 0.78737 0.50226
 C41 C 1.24178 0.79385 0.54602
 C42 C 1.26433 0.81515 0.55110
 C43 C 1.20712 0.76300 0.49581
 C44 C 1.19181 0.75057 0.53413
 C45 C 1.17278 0.72614 0.52988
 C46 C 1.16815 0.71487 0.48568
 C47 C 1.18239 0.72710 0.44695
 C48 C 1.20185 0.75095 0.45206
 H49 H 1.29305 0.84618 0.51704
 H50 H 1.23174 0.79912 0.43033
 H51 H 1.23458 0.78179 0.57581
 H52 H 1.19498 0.75963 0.56764
 H53 H 1.15346 0.69622 0.48100
 H54 H 1.21354 0.75929 0.42224
 C55 C 0.83795 0.55950 0.51441
 C56 C 0.83230 0.56534 0.47044
 C57 C 0.81139 0.56794 0.46573
 C58 C 0.79539 0.56337 0.50382
 C59 C 0.80169 0.55750 0.54761
 C60 C 0.82290 0.55568 0.55292
 C61 C 0.77119 0.56235 0.49709
 C62 C 0.75876 0.56553 0.53535
 C63 C 0.73447 0.56076 0.53096
 C64 C 0.72335 0.55449 0.48666
 C65 C 0.73559 0.55224 0.44792
 C66 C 0.75931 0.55598 0.45317
 H67 H 0.85394 0.55735 0.51883
 H68 H 0.80744 0.57302 0.43203
 H69 H 0.78955 0.55278 0.57718
 H70 H 0.76773 0.57115 0.56896
 H71 H 0.70480 0.55103 0.48189
 H72 H 0.76770 0.55248 0.42335
 C73 C 0.45296 0.28517 0.50892
 C74 C 0.44581 0.27263 0.46633
 C75 C 0.43648 0.24720 0.46573
 C76 C 0.43638 0.23442 0.50665
 C77 C 0.44302 0.24749 0.54954
 C78 C 0.45103 0.27285 0.55110
 C79 C 0.43176 0.20843 0.50349
 C80 C 0.42557 0.19307 0.54338
 C81 C 0.42440 0.16995 0.54119
 C82 C 0.42771 0.16158 0.49764
 C83 C 0.43382 0.17630 0.45791
 C84 C 0.43595 0.19957 0.46091
 H85 H 0.45961 0.30477 0.50903
 H86 H 0.43032 0.23774 0.43269
 H87 H 0.44343 0.23851 0.58149
 H88 H 0.42207 0.19910 0.57642
 H89 H 0.42674 0.14383 0.49454
 H90 H 0.44248 0.21112 0.43036
 C91 C 0.71333 0.17079 0.50977
 C92 C 0.72541 0.17621 0.46675
 C93 C 0.75024 0.19387 0.46507
 C94 C 0.76259 0.20759 0.50530
 C95 C 0.74986 0.20153 0.54827
 C96 C 0.72540 0.18303 0.55061
 C97 C 0.78766 0.22954 0.50156
 C98 C 0.80301 0.23911 0.54128
 C99 C 0.82498 0.26162 0.53921
 C100 C 0.83232 0.27355 0.49583
 C101 C 0.81773 0.26433 0.45602
 C102 C 0.79549 0.24252 0.45892
 H103 H 0.69428 0.15685 0.51162
 H104 H 0.75951 0.19743 0.43187
 H105 H 0.75822 0.21189 0.57969
 H106 H 0.79774 0.22942 0.57416
 H107 H 0.84924 0.29074 0.49283
 H108 H 0.78386 0.23677 0.42835
 N109 N 0.97753 0.52303 0.05463
 N110 N 0.96321 0.53178 0.06879
 N111 N 1.02943 0.53180 0.07948
 N112 N 1.04779 0.54357 0.10864
 N113 N 1.02872 0.54691 0.04840
 N114 N 1.04653 0.56956 0.05608
 N115 N 0.97831 0.50813 0.08613
 N116 N 0.96463 0.50635 0.12229
 C117 C 0.95501 0.52082 0.11078
 C118 C 1.05840 0.56701 0.09352
 N119 N 1.02642 0.46919 0.04836
 N120 N 1.04098 0.46020 0.05946
 N121 N 0.97668 0.46134 0.08565
 N122 N 0.96004 0.45062 0.11825
 N123 N 0.97515 0.44529 0.05426
 N124 N 0.95741 0.42307 0.06497
 N125 N 1.02782 0.48502 0.08010
 N126 N 1.04323 0.48714 0.11345
 Mn127 Mn 1.00307 0.49658 0.08309
 C128 C 1.05168 0.47199 0.09975
 C129 C 0.94809 0.42683 0.10487
 N130 N 1.02508 0.54535 -0.05279
 N131 N 1.04051 0.56792 -0.06683
 N132 N 0.97232 0.50504 -0.07748
 N133 N 0.95420 0.49963 -0.10676
 N134 N 0.97388 0.52125 -0.04650
 N135 N 0.95690 0.52758 -0.05440
 N136 N 1.02348 0.52924 -0.08408
 N137 N 1.03779 0.54032 -0.11986
 Mn138 Mn 1.00131 0.53441 0.00095
 C139 C 1.04856 0.56434 -0.10846
 C140 C 0.94463 0.51362 -0.09189
 N141 N 0.97189 0.44353 -0.04685
 N142 N 0.95648 0.42048 -0.05848
 N143 N 1.02226 0.48269 -0.08406
 N144 N 1.03715 0.48582 -0.11884
 N145 N 1.02315 0.46787 -0.05254
 N146 N 1.03884 0.46055 -0.06518
 N147 N 0.97116 0.45862 -0.07794
 N148 N 0.95525 0.44635 -0.11109
 Mn149 Mn 0.99915 0.45622 0.00083
 Mn150 Mn 0.99730 0.49391 -0.08108
 Cl151 Cl 1.00022 0.49528 0.00096
 C152 C 0.94590 0.42267 -0.09822
 C153 C 1.04762 0.47224 -0.10641
 N154 N 0.46976 0.49813 0.08438
 N155 N 0.45877 0.50453 0.11609
 N156 N 0.47830 0.45544 0.05250
 N157 N 0.47139 0.43239 0.06363
 N158 N 0.49420 0.47054 0.08303
 N159 N 0.49879 0.45830 0.11525
 N160 N 0.45394 0.48303 0.05367
 N161 N 0.43163 0.47861 0.06402
 C162 C 0.43507 0.49239 0.10285
 C163 C 0.48468 0.43461 0.10256
 N164 N 0.49197 0.46969 -0.08064
 N165 N 0.49756 0.45749 -0.11118
 N166 N 0.45234 0.48212 -0.04767
 N167 N 0.42950 0.47604 -0.05810
 N168 N 0.46733 0.49709 -0.07927
 N169 N 0.45527 0.50190 -0.11149
 N170 N 0.47708 0.45485 -0.04875
 N171 N 0.47190 0.43195 -0.05718
 Mn172 Mn 0.46512 0.46857 0.00246
 C173 C 0.48504 0.43406 -0.09618
 C174 C 0.43179 0.48891 -0.09770
 N175 N 0.54021 0.51494 0.08088
 N176 N 0.55201 0.50863 0.11105
 N177 N 0.53072 0.55729 0.05044
 N178 N 0.53973 0.58055 0.06276
 N179 N 0.51611 0.54274 0.08302
 N180 N 0.51493 0.55571 0.11825
 N181 N 0.55513 0.52967 0.04889
 N182 N 0.57768 0.53403 0.05692
 Mn183 Mn 0.50504 0.50658 0.08313
 C184 C 0.57527 0.52051 0.09564
 C185 C 0.52931 0.57921 0.10479
 N186 N 0.51328 0.54163 -0.08136
 N187 N 0.50933 0.55393 -0.11439
 N188 N 0.55367 0.52933 -0.05242
 N189 N 0.57624 0.53627 -0.06622
 N190 N 0.53782 0.51428 -0.08311
 N191 N 0.54908 0.51049 -0.11820
 N192 N 0.52903 0.55669 -0.05056
 N193 N 0.53625 0.57976 -0.06206
 Mn194 Mn 0.50256 0.50565 -0.08132
 Mn195 Mn 0.54238 0.54348 -0.00090
 Cl196 Cl 0.50378 0.50610 0.00086
 C197 C 0.52343 0.57761 -0.10164
 C198 C 0.57295 0.52394 -0.10697
 N199 N 0.44396 -0.02674 0.05253
 N200 N 0.42129 -0.04187 0.06602
 N201 N 0.48442 0.02505 0.08286
 N202 N 0.48963 0.04218 0.11455
 N203 N 0.46876 0.02485 0.05212
 N204 N 0.46271 0.04184 0.06247
 N205 N 0.45962 -0.02647 0.08338
 N206 N 0.44813 -0.04137 0.11826
 C207 C 0.42432 -0.05117 0.10674
 C208 C 0.47617 0.05264 0.10129
 N209 N 0.54541 0.02545 0.05017
 N210 N 0.56817 0.04178 0.06123
 N211 N 0.50541 -0.02618 0.08151
 N212 N 0.49984 -0.04392 0.11192
 N213 N 0.52054 -0.02613 0.04986
 N214 N 0.52591 -0.04379 0.05835
 N215 N 0.53020 0.02543 0.08157
 N216 N 0.54203 0.04184 0.11429
 Mn217 Mn 0.49494 -0.00054 0.08256
 C218 C 0.56560 0.05208 0.10103
 C219 C 0.51261 -0.05481 0.09706
 N220 N 0.46775 0.02456 -0.04910
 N221 N 0.45919 0.03937 -0.06132
 N222 N 0.45841 -0.02689 -0.08057
 N223 N 0.44691 -0.04476 -0.11095
 N224 N 0.44324 -0.02707 -0.04886
 N225 N 0.42081 -0.04504 -0.05727
 N226 N 0.48275 0.02463 -0.08110
 N227 N 0.48476 0.03940 -0.11567
 Mn228 Mn 0.45566 -0.00111 0.00166
 C229 C 0.47038 0.04881 -0.10259
 C230 C 0.42356 -0.05598 -0.09599
 N231 N 0.52004 -0.02600 -0.05152
 N232 N 0.52728 -0.04191 -0.06351
 N233 N 0.52894 0.02539 -0.08200
 N234 N 0.54016 0.04285 -0.11315
 N235 N 0.54455 0.02555 -0.05115
 N236 N 0.56695 0.04309 -0.06086
 N237 N 0.50434 -0.02623 -0.08221
 N238 N 0.50025 -0.04241 -0.11538
 Mn239 Mn 0.53293 -0.00028 -0.00066
 Mn240 Mn 0.49362 -0.00076 -0.08175
 Cl241 Cl 0.49428 -0.00067 0.00044
 C242 C 0.51439 -0.05224 -0.10312
 C243 C 0.56377 0.05383 -0.09944
 C244 C 1.13173 0.42072 0.33393
 N245 N 1.12019 0.41464 0.37566
 N246 N 1.13144 0.41290 0.41359
 C247 C 1.15485 0.41729 0.41184
 N248 N 1.16614 0.42244 0.36946
 N249 N 1.15480 0.42416 0.33120
 C250 C 1.12018 0.42666 0.29504
 N251 N 1.12850 0.42951 0.25038
 N252 N 1.11843 0.43655 0.21675
 C253 C 1.10004 0.44137 0.22697
 N254 N 1.09184 0.43845 0.27149
 N255 N 1.10160 0.43112 0.30473
 C256 C 1.08944 0.45061 0.19197
 N257 N 1.07957 0.46452 0.20642
 N258 N 1.06835 0.47192 0.17638
 C259 C 1.06627 0.46547 0.13071
 N260 N 1.07624 0.45162 0.11589
 N261 N 1.08781 0.44445 0.14601
 C262 C 0.58352 0.71014 0.33933
 N263 N 0.58870 0.70428 0.38181
 N264 N 0.59079 0.71782 0.41910
 C265 C 0.58769 0.73782 0.41589
 N266 N 0.58346 0.74428 0.37279
 N267 N 0.58138 0.73068 0.33520
 C268 C 0.57730 0.69246 0.30086
 N269 N 0.57450 0.69794 0.25606
 N270 N 0.56708 0.68074 0.22275
 C271 C 0.56186 0.65746 0.23340
 N272 N 0.56476 0.65215 0.27806
 N273 N 0.57242 0.66931 0.31103
 C274 C 0.55236 0.63768 0.19850
 N275 N 0.53947 0.61409 0.21314
 N276 N 0.53156 0.59564 0.18280
 C277 C 0.53643 0.60003 0.13662
 N278 N 0.54927 0.62365 0.12169
 N279 N 0.55696 0.64221 0.15212
 C280 C 0.30436 -0.13697 0.35366
 N281 N 0.31333 -0.13062 0.39761
 N282 N 0.29993 -0.14267 0.43429
 C283 C 0.27695 -0.16176 0.42889
 N284 N 0.26773 -0.16783 0.38471
 N285 N 0.28117 -0.15565 0.34777
 C286 C 0.32064 -0.12474 0.31402
 N287 N 0.31242 -0.12782 0.26916
 N288 N 0.32801 -0.11693 0.23401
 C289 C 0.35233 -0.10289 0.24262
 N290 N 0.36038 -0.09992 0.28739
 N291 N 0.34487 -0.11054 0.32233
 C292 C 0.37026 -0.09102 0.20513
 N293 N 0.39424 -0.08212 0.21498
 N294 N 0.41116 -0.07012 0.18285
 C295 C 0.40484 -0.06638 0.13957
 N296 N 0.38079 -0.07541 0.12927
 N297 N 0.36374 -0.08765 0.16151
 C298 C 0.87226 0.56281 0.35520
 N299 N 0.85257 0.56601 0.34845
 N300 N 0.84028 0.56776 0.38493
 C301 C 0.84728 0.56644 0.42943
 N302 N 0.86729 0.56380 0.43576
 N303 N 0.87948 0.56199 0.39951
 C304 C 0.88460 0.55808 0.31624
 N305 N 0.90019 0.54946 0.32576
 N306 N 0.91069 0.54369 0.29145
 C307 C 0.90619 0.54647 0.24615
 N308 N 0.89078 0.55537 0.23633
 N309 N 0.88003 0.56095 0.27085
 C310 C 0.91769 0.53925 0.20933
 N311 N 0.91919 0.54689 0.16435
 N312 N 0.93075 0.54081 0.13228
 C313 C 0.94091 0.52670 0.14410
 N314 N 0.93908 0.51889 0.18882
 N315 N 0.92778 0.52511 0.22079
 C316 C 0.45883 0.31398 0.34366
 N317 N 0.47183 0.32406 0.38319
 N318 N 0.46747 0.31081 0.42183
 C319 C 0.44996 0.28686 0.42267
 N320 N 0.43702 0.27659 0.38289
 N321 N 0.44128 0.28996 0.34410
 C322 C 0.46379 0.32951 0.30215
 N323 N 0.44864 0.32221 0.26441
 N324 N 0.45282 0.33752 0.22868
 C325 C 0.47235 0.36056 0.22948
 N326 N 0.48757 0.36759 0.26690
 N327 N 0.48336 0.35240 0.30249
 C328 C 0.47638 0.37867 0.19295
 N329 N 0.49520 0.40184 0.19778
 N330 N 0.49812 0.41930 0.16782
 C331 C 0.48240 0.41430 0.13166
 N332 N 0.46373 0.39100 0.12610
 N333 N 0.46074 0.37346 0.15633
 C334 C 0.68391 0.14496 0.34540
 N335 N 0.67323 0.14546 0.38613
 N336 N 0.68653 0.15507 0.42442
 C337 C 0.71112 0.16471 0.42374
 N338 N 0.72194 0.16430 0.38283
 N339 N 0.70855 0.15446 0.34436
 C340 C 0.66845 0.13425 0.30391
 N341 N 0.67675 0.12856 0.26456
 N342 N 0.66169 0.11764 0.22850
 C343 C 0.63795 0.11226 0.23056
 N344 N 0.62991 0.11828 0.26966
 N345 N 0.64482 0.12900 0.30557
 C346 C 0.62029 0.09867 0.19330
 N347 N 0.59682 0.09357 0.19854
 N348 N 0.57978 0.07943 0.16793
 C349 C 0.58548 0.06987 0.13065
 N350 N 0.60906 0.07526 0.12465
 N351 N 0.62621 0.08944 0.15553
 C352 C 0.42489 0.13150 -0.34200
 N353 N 0.42459 0.15300 -0.33698
 N354 N 0.42327 0.16506 -0.37451
 C355 C 0.42229 0.15610 -0.41838
 N356 N 0.42172 0.13418 -0.42267
 N357 N 0.42304 0.12221 -0.38547
 C358 C 0.42996 0.11943 -0.30281
 N359 N 0.42965 0.12579 -0.25745
 N360 N 0.43582 0.11527 -0.22323
 C361 C 0.44283 0.09835 -0.23343
 N362 N 0.44302 0.09207 -0.27866
 N363 N 0.43663 0.10231 -0.31257
 C364 C 0.45096 0.08717 -0.19742
 N365 N 0.46497 0.07721 -0.21040
 N366 N 0.47163 0.06571 -0.17952
 C367 C 0.46437 0.06350 -0.13442
 N368 N 0.45043 0.07357 -0.12104
 N369 N 0.44394 0.08538 -0.15202
 C370 C 0.69242 0.55633 -0.35488
 N371 N 0.68301 0.55204 -0.39869
 N372 N 0.69686 0.55421 -0.43532
 C373 C 0.72075 0.56064 -0.42996
 N374 N 0.73031 0.56535 -0.38592
 N375 N 0.71642 0.56328 -0.34906
 C376 C 0.67603 0.55189 -0.31512
 N377 N 0.68448 0.55874 -0.27077
 N378 N 0.66892 0.55402 -0.23546
 C379 C 0.64442 0.54206 -0.24337
 N380 N 0.63613 0.53523 -0.28763
 N381 N 0.65160 0.54010 -0.32276
 C382 C 0.62664 0.53648 -0.20569
 N383 N 0.60267 0.52114 -0.21470
 N384 N 0.58587 0.51674 -0.18243
 C385 C 0.59230 0.52756 -0.13985
 N386 N 0.61633 0.54279 -0.13038
 N387 N 0.63325 0.54712 -0.16276
 C388 C 0.86248 0.29989 -0.34318
 N389 N 0.87062 0.30859 -0.38657
 N390 N 0.85901 0.29566 -0.42416
 C391 C 0.83860 0.27343 -0.42032
 N392 N 0.83080 0.26433 -0.37661
 N393 N 0.84252 0.27732 -0.33870
 C394 C 0.87402 0.31626 -0.30307
 N395 N 0.86980 0.30825 -0.25807
 N396 N 0.88006 0.32410 -0.22274
 C397 C 0.89451 0.34846 -0.23139
 N398 N 0.89859 0.35627 -0.27627
 N399 N 0.88865 0.34051 -0.31133
 C400 C 0.90567 0.36677 -0.19400
 N401 N 0.91346 0.39063 -0.20425
 N402 N 0.92541 0.40810 -0.17274
 C403 C 0.93024 0.40248 -0.12971
 N404 N 0.92223 0.37854 -0.11892
 N405 N 0.91001 0.36092 -0.15054
 C406 C 0.54240 -0.14542 -0.34668
 N407 N 0.52995 -0.14774 -0.38682
 N408 N 0.53421 -0.15719 -0.42490
 C409 C 0.55106 -0.16483 -0.42459
 N410 N 0.56349 -0.16267 -0.38423
 N411 N 0.55932 -0.15302 -0.34598
 C412 C 0.53739 -0.13447 -0.30560
 N413 N 0.55171 -0.12793 -0.26670
 N414 N 0.54735 -0.11680 -0.23105
 C415 C 0.52845 -0.11199 -0.23307
 N416 N 0.51408 -0.11883 -0.27172
 N417 N 0.51847 -0.12981 -0.30723
 C418 C 0.52407 -0.09825 -0.19614
 N419 N 0.50553 -0.09320 -0.20148
 N420 N 0.50219 -0.07917 -0.17079
 C421 C 0.51719 -0.06967 -0.13334
 N422 N 0.53560 -0.07496 -0.12733
 N423 N 0.53900 -0.08903 -0.15827
 C424 C 0.31228 0.46565 -0.33903
 N425 N 0.32226 0.47946 -0.37767
 N426 N 0.30925 0.47533 -0.41659
 C427 C 0.28563 0.45725 -0.41865
 N428 N 0.27545 0.44349 -0.37976
 N429 N 0.28859 0.44753 -0.34068
 C430 C 0.32762 0.47027 -0.29727
 N431 N 0.32030 0.45462 -0.26031
 N432 N 0.33545 0.45849 -0.22443
 C433 C 0.35834 0.47818 -0.22431
 N434 N 0.36538 0.49389 -0.26095
 N435 N 0.35035 0.49001 -0.29666
 C436 C 0.37631 0.48183 -0.18775
 N437 N 0.39951 0.50047 -0.19234
 N438 N 0.41682 0.50302 -0.16243
 C439 C 0.41164 0.48714 -0.12648
 N440 N 0.38832 0.46867 -0.12112
 N441 N 0.37092 0.46603 -0.15134
 C442 C 1.13555 0.68408 -0.35604
 N443 N 1.13063 0.67464 -0.39983
 N444 N 1.14222 0.68848 -0.43641
 C445 C 1.15937 0.71243 -0.43105
 N446 N 1.16404 0.72204 -0.38704
 N447 N 1.15232 0.70814 -0.35021
 C448 C 1.12356 0.66766 -0.31634
 N449 N 1.12522 0.67614 -0.27195
 N450 N 1.11429 0.66052 -0.23675
 C451 C 1.10158 0.63593 -0.24481
 N452 N 1.10007 0.62761 -0.28910
 N453 N 1.11077 0.64314 -0.32411
 C454 C 1.08929 0.61805 -0.20726
 N455 N 1.08008 0.59385 -0.21668
 N456 N 1.06774 0.57702 -0.18447
 C457 C 1.06400 0.58365 -0.14151
 N458 N 1.07336 0.60791 -0.13164
 N459 N 1.08589 0.62486 -0.16398
 C460 C 0.84337 0.53560 -0.32246
 N461 N 0.83576 0.55257 -0.32191
 N462 N 0.82841 0.55849 -0.36129
 C463 C 0.82877 0.54788 -0.40256
 N464 N 0.83622 0.53085 -0.40285
 N465 N 0.84324 0.52474 -0.36356
 C466 C 0.85332 0.53000 -0.28062
 N467 N 0.85706 0.51040 -0.28123
 N468 N 0.86855 0.50639 -0.24611
 C469 C 0.87692 0.52190 -0.20904
 N470 N 0.87286 0.54137 -0.20789
 N471 N 0.86118 0.54531 -0.24306
 C472 C 0.89225 0.51865 -0.17399
 N473 N 0.90385 0.53535 -0.13939
 N474 N 0.91992 0.53340 -0.11150
 C475 C 0.92494 0.51474 -0.11750
 N476 N 0.91301 0.49793 -0.15147
 N477 N 0.89698 0.49981 -0.17908
 C478 C 0.46888 0.31301 -0.32644
 N479 N 0.45702 0.28809 -0.32478
 N480 N 0.45169 0.27492 -0.36418
 C481 C 0.45759 0.28620 -0.40664
 N482 N 0.46947 0.31111 -0.40770
 N483 N 0.47514 0.32420 -0.36858
 C484 C 0.47429 0.32834 -0.28446
 N485 N 0.49183 0.35220 -0.28683
 N486 N 0.49523 0.36753 -0.25184
 C487 C 0.48108 0.35971 -0.21313
 N488 N 0.46370 0.33568 -0.21017
 N489 N 0.46041 0.32020 -0.24525
 C490 C 0.48335 0.37799 -0.17824
 N491 N 0.46733 0.37230 -0.14231
 N492 N 0.46821 0.38996 -0.11459
 C493 C 0.48507 0.41383 -0.12213
 N494 N 0.50122 0.41932 -0.15746
 N495 N 0.50039 0.40178 -0.18489
 C496 C 0.68428 0.16057 -0.32646
 N497 N 0.70842 0.16738 -0.32546
 N498 N 0.72190 0.17549 -0.36413
 C499 C 0.71163 0.17681 -0.40516
 N500 N 0.68762 0.17030 -0.40577
 N501 N 0.67425 0.16245 -0.36720
 C502 C 0.66840 0.14930 -0.28588
 N503 N 0.64480 0.14420 -0.28794
 N504 N 0.62927 0.13158 -0.25406
 C505 C 0.63665 0.12346 -0.21677
 N506 N 0.66040 0.12889 -0.21414
 N507 N 0.67602 0.14162 -0.24812
 C508 C 0.61842 0.10718 -0.18276
 N509 N 0.62452 0.09719 -0.14641
 N510 N 0.60726 0.08069 -0.11860
 C511 C 0.58335 0.07357 -0.12641
 N512 N 0.57738 0.08379 -0.16232
 N513 N 0.59457 0.10029 -0.18988
 C514 C 1.13666 0.43509 -0.34430
 N515 N 1.15972 0.43853 -0.34125
 N516 N 1.17041 0.43511 -0.37865
 C517 C 1.15838 0.42799 -0.42035
 N518 N 1.13513 0.42407 -0.42250
 N519 N 1.12458 0.42767 -0.38550
 C520 C 1.12512 0.44104 -0.30571
 N521 N 1.10704 0.44623 -0.31573
 N522 N 1.09622 0.45195 -0.28201
 C523 C 1.10280 0.45240 -0.23675
 N524 N 1.12082 0.44705 -0.22635
 N525 N 1.13195 0.44162 -0.26038
 C526 C 1.09029 0.45882 -0.20079
 N527 N 1.08864 0.45129 -0.15572
 N528 N 1.07537 0.45581 -0.12487
 C529 C 1.06359 0.46819 -0.13811
 N530 N 1.06564 0.47599 -0.18287
 N531 N 1.07861 0.47128 -0.21363
 C532 C 0.56518 0.70370 -0.33993
 N533 N 0.57211 0.69769 -0.38035
 N534 N 0.57713 0.71186 -0.41779
 C535 C 0.57512 0.73254 -0.41692
 N536 N 0.56847 0.73876 -0.37600
 N537 N 0.56368 0.72465 -0.33811
 C538 C 0.55757 0.68631 -0.30099
 N539 N 0.55918 0.69350 -0.25566
 N540 N 0.55264 0.67704 -0.22122
 C541 C 0.54392 0.65288 -0.23119
 N542 N 0.54213 0.64584 -0.27646
 N543 N 0.54897 0.66223 -0.31062
 C544 C 0.53687 0.63417 -0.19473
 N545 N 0.52199 0.61034 -0.20630
 N546 N 0.51713 0.59259 -0.17567
 C547 C 0.52715 0.59790 -0.13235
 N548 N 0.54187 0.62178 -0.12027
 N549 N 0.54658 0.63967 -0.15096
 C550 C 0.30438 -0.16316 -0.32430
 N551 N 0.31509 -0.16345 -0.36518
 N552 N 0.30211 -0.17095 -0.40441
 C553 C 0.27782 -0.17872 -0.40429
 N554 N 0.26688 -0.17897 -0.36321
 N555 N 0.27999 -0.17115 -0.32388
 C556 C 0.31975 -0.15240 -0.28276
 N557 N 0.31178 -0.14490 -0.24532
 N558 N 0.32709 -0.13236 -0.21058
 C559 C 0.35083 -0.12701 -0.21209
 N560 N 0.35852 -0.13501 -0.24901
 N561 N 0.34332 -0.14739 -0.28367
 C562 C 0.36887 -0.11066 -0.17768
 N563 N 0.39270 -0.10397 -0.18393
 N564 N 0.40986 -0.08712 -0.15665
 C565 C 0.40390 -0.07632 -0.12186
 N566 N 0.38000 -0.08328 -0.11476
 N567 N 0.36275 -0.10015 -0.14234
 C568 C 0.52919 -0.16150 0.32387
 N569 N 0.54743 -0.16728 0.32414
 N570 N 0.55311 -0.17496 0.36335
 C571 C 0.54094 -0.17686 0.40371
 N572 N 0.52253 -0.17138 0.40308
 N573 N 0.51672 -0.16396 0.36392
 C574 C 0.52422 -0.15060 0.28270
 N575 N 0.50498 -0.14640 0.28326
 N576 N 0.50168 -0.13399 0.24892
 C577 C 0.51752 -0.12519 0.21266
 N578 N 0.53658 -0.12973 0.21149
 N579 N 0.53985 -0.14226 0.24593
 C580 C 0.51512 -0.10891 0.17855
 N581 N 0.53144 -0.09818 0.14332
 N582 N 0.53029 -0.08148 0.11585
 C583 C 0.51287 -0.07491 0.12295
 N584 N 0.49645 -0.08591 0.15767
 N585 N 0.49752 -0.10261 0.18484
 C586 C 0.31442 0.47913 0.33125
 N587 N 0.29048 0.46171 0.32975
 N588 N 0.27673 0.45611 0.36808
 C589 C 0.28649 0.46760 0.40933
 N590 N 0.31032 0.48525 0.41043
 N591 N 0.32397 0.49095 0.37217
 C592 C 0.33056 0.48383 0.29098
 N593 N 0.35420 0.50178 0.29371
 N594 N 0.36984 0.50471 0.25983
 C595 C 0.36250 0.48976 0.22189
 N596 N 0.33874 0.47199 0.21864
 N597 N 0.32302 0.46909 0.25261
 C598 C 0.38073 0.49163 0.18765
 N599 N 0.37452 0.47604 0.15064
 N600 N 0.39171 0.47665 0.12242
 C601 C 0.41565 0.49279 0.13047
 N602 N 0.42174 0.50851 0.16707
 N603 N 0.40463 0.50797 0.19505
 C604 C 1.16329 0.68777 0.32131
 N605 N 1.16966 0.71193 0.32160
 N606 N 1.17670 0.72486 0.36124
 C607 C 1.17729 0.71397 0.40198
 N608 N 1.17118 0.68993 0.40139
 N609 N 1.16444 0.67714 0.36182
 C610 C 1.15312 0.67243 0.27948
 N611 N 1.14935 0.64913 0.27972
 N612 N 1.13740 0.63380 0.24489
 C613 C 1.12863 0.64109 0.20848
 N614 N 1.13278 0.66458 0.20763
 N615 N 1.14487 0.68001 0.24253
 C616 C 1.11263 0.62277 0.17408
 N617 N 1.10138 0.62848 0.13947
 N618 N 1.08470 0.61091 0.11214
 C619 C 1.07868 0.58707 0.11875
 N620 N 1.09022 0.58152 0.15277
 N621 N 1.10689 0.59901 0.17982
 C622 C 0.45242 0.15121 0.33737
 N623 N 0.45951 0.14792 0.38031
 N624 N 0.45361 0.15605 0.41832
 C625 C 0.44058 0.16804 0.41495
 N626 N 0.43372 0.17170 0.37189
 N627 N 0.43940 0.16325 0.33372
 C628 C 0.45833 0.14093 0.29649
 N629 N 0.44584 0.13661 0.25554
 N630 N 0.45007 0.12509 0.22045
 C631 C 0.46705 0.11770 0.22512
 N632 N 0.47974 0.12247 0.26573
 N633 N 0.47541 0.13376 0.30074
 C634 C 0.47062 0.10297 0.18919
 N635 N 0.48787 0.09622 0.19621
 N636 N 0.48996 0.08083 0.16702
 C637 C 0.47492 0.07155 0.12958
 N638 N 0.45786 0.07857 0.12182
 N639 N 0.45574 0.09404 0.15121
 C640 C 0.69620 0.53328 0.32246
 N641 N 0.68584 0.52136 0.36275
 N642 N 0.69870 0.52697 0.40219
 C643 C 0.72252 0.54456 0.40289
 N644 N 0.73316 0.55617 0.36236
 N645 N 0.72017 0.55072 0.32283
 C646 C 0.68074 0.52862 0.28092
 N647 N 0.68816 0.54432 0.24405
 N648 N 0.67265 0.54145 0.20947
 C649 C 0.64924 0.52273 0.21057
 N650 N 0.64211 0.50681 0.24690
 N651 N 0.65752 0.50972 0.28139
 C652 C 0.63088 0.52091 0.17647
 N653 N 0.60720 0.50374 0.18287
 N654 N 0.58974 0.50330 0.15587
 C655 C 0.59525 0.51994 0.12120
 N656 N 0.61900 0.53691 0.11396
 N657 N 0.63654 0.53744 0.14127
 C658 C 0.84250 0.30756 0.33557
 N659 N 0.84400 0.31778 0.37808
 N660 N 0.83564 0.30386 0.41597
 C661 C 0.82521 0.27910 0.41290
 N662 N 0.82322 0.26871 0.37021
 N663 N 0.83187 0.28272 0.33218
 C664 C 0.85381 0.32368 0.29524
 N665 N 0.85877 0.31533 0.25512
 N666 N 0.87142 0.33092 0.22094
 C667 C 0.87943 0.35534 0.22574
 N668 N 0.87402 0.36349 0.26547
 N669 N 0.86153 0.34800 0.29954
 C670 C 0.89547 0.37330 0.19107
 N671 N 0.90407 0.39753 0.19930
 N672 N 0.92034 0.41438 0.17091
 C673 C 0.92865 0.40770 0.13307
 N674 N 0.91984 0.38343 0.12419
 N675 N 0.90353 0.36649 0.15281
   
