data_POSCAR
  _audit_creation_date              2014-09-24
  _audit_creation_method            'ToBaCCo'
  _symmetry_space_group_name_H-M    'P1'
  _symmetry_Int_Tables_number       1
  _symmetry_cell_setting            triclinic
  loop_
  _symmetry_equiv_pos_as_xyz
 x,y,z
_cell_length_a 19.5589
_cell_length_b 19.7131
_cell_length_c 19.5007
_cell_angle_alpha 79.141300
_cell_angle_beta 105.824800
_cell_angle_gamma 78.755400
loop_
  _atom_site_label
  _atom_site_type_symbol
  _atom_site_fract_x
  _atom_site_fract_y
  _atom_site_fract_z
O1 O 0.59694 0.45789 0.01890
 O2 O 0.40810 0.47857 0.02562
 O3 O 0.50592 0.37438 0.01769
 O4 O 0.49687 0.56057 0.02784
 O5 O 0.45832 0.59680 -0.09376
 O6 O 0.45929 0.41194 -0.10365
 O7 O 0.36443 0.51885 -0.09559
 O8 O 0.55369 0.48921 -0.10284
 Cu9 Cu 0.50685 0.46393 0.03479
 Cu10 Cu 0.45489 0.50787 -0.11117
 C11 C 0.60732 0.47043 -0.04327
 C12 C 0.35396 0.50222 -0.03382
 C13 C 0.48157 0.36194 -0.04484
 C14 C 0.47641 0.61029 -0.03113
 O15 O -0.03342 0.60360 0.49375
 O16 O -0.04127 0.41663 0.50391
 O17 O -0.03583 0.49807 0.59569
 O18 O -0.04457 0.52124 0.40195
 O19 O 0.07687 0.48699 0.43632
 O20 O 0.08560 0.46422 0.63120
 O21 O 0.08015 0.38136 0.54021
 O22 O 0.08787 0.56766 0.52877
 Cu23 Cu -0.05096 0.51366 0.49561
 Cu24 Cu 0.09477 0.47164 0.53768
 C25 C 0.02914 0.61723 0.51033
 C26 C 0.01803 0.36748 0.52212
 C27 C 0.02604 0.47774 0.64643
 C28 C 0.01451 0.50623 0.38626
 O29 O 0.48501 0.08142 0.58945
 O30 O 0.44732 0.08075 0.39423
 O31 O 0.36702 0.08690 0.48279
 O32 O 0.56241 0.07307 0.50115
 O33 O 0.58698 -0.04487 0.53352
 O34 O 0.39177 -0.03096 0.51409
 O35 O 0.47145 -0.03714 0.42580
 O36 O 0.50670 -0.03623 0.62103
 Cu37 Cu 0.46252 0.09243 0.48877
 Cu38 Cu 0.49139 -0.04910 0.52666
 C39 C 0.50197 0.02308 0.63848
 C40 C 0.45504 0.02145 0.37702
 C41 C 0.34632 0.03003 0.49631
 C42 C 0.60768 0.01194 0.51954
 C43 C 0.50676 -0.04992 -0.03875
 C44 C 0.50170 -0.10449 0.01682
 C45 C 0.49883 -0.08978 0.08396
 C46 C 0.49604 -0.02129 0.09605
 C47 C 0.50223 0.03319 0.04107
 C48 C 0.50771 0.01768 -0.02517
 H49 H 0.51210 0.05937 -0.06693
 H50 H 0.50110 -0.13291 0.12860
 C51 C -0.01909 0.52670 1.07158
 C52 C -0.07785 0.51725 1.01605
 C53 C -0.06848 0.51312 0.94772
 C54 C -0.00127 0.51371 0.93463
 C55 C 0.05720 0.52258 0.99067
 C56 C 0.04664 0.53063 1.05741
 H57 H 0.09065 0.53961 1.09956
 H58 H -0.11516 0.51238 0.90309
 C59 C 0.03856 0.02132 0.48951
 C60 C -0.01611 0.07739 0.49404
 C61 C -0.08483 0.06553 0.49370
 C62 C -0.10075 0.00008 0.48868
 C63 C -0.04680 -0.05605 0.48336
 C64 C 0.02138 -0.04358 0.48183
 H65 H 0.06083 -0.08387 0.47166
 H66 H -0.12635 0.10696 0.49995
 C67 C -0.31801 0.46428 0.95268
 C68 C -0.26658 0.48139 1.00227
 C69 C -0.19416 0.47980 0.99313
 C70 C -0.15048 0.51675 1.02617
 H71 H -0.27921 0.50003 1.04741
 H72 H -0.17710 0.44827 0.95795
 H73 H -0.30692 0.45115 0.90456
 H74 H -0.16839 0.54707 1.06190
 C75 C 0.28210 0.50895 0.96772
 C76 C 0.26718 0.48875 1.03060
 C77 C 0.19287 0.49013 1.03541
 C78 C 0.12959 0.52384 0.98086
 H79 H 0.31193 0.46672 1.08223
 H80 H 0.19100 0.46128 1.08766
 H81 H 0.23829 0.52875 0.91547
 H82 H 0.13024 0.55296 0.92849
 C83 C 0.03546 -0.31361 0.51056
 C84 C -0.02187 -0.25656 0.49310
 C85 C -0.00814 -0.18701 0.50047
 C86 C -0.06180 -0.12601 0.47577
 H87 H -0.07795 -0.26106 0.47444
 H88 H 0.04777 -0.18647 0.52825
 H89 H 0.09074 -0.30655 0.52754
 H90 H -0.11794 -0.12778 0.45080
 C91 C 0.01530 0.29376 0.52010
 C92 C -0.04696 0.27969 0.48388
 C93 C -0.05485 0.20863 0.47468
 C94 C -0.00144 0.14710 0.50275
 H95 H -0.09632 0.32329 0.45755
 H96 H -0.10905 0.20815 0.44176
 H97 H 0.06615 0.25213 0.54519
 H98 H 0.05392 0.14693 0.53265
 C99 C 0.51476 0.02558 -0.28828
 C100 C 0.52158 -0.03076 -0.23403
 C101 C 0.53140 -0.02248 -0.15885
 C102 C 0.50614 -0.06182 -0.11236
 H103 H 0.51547 -0.08136 -0.24557
 H104 H 0.55741 0.01843 -0.14340
 H105 H 0.51573 0.07680 -0.27573
 H106 H 0.48105 -0.10242 -0.13063
 C107 C 0.44821 0.02111 0.30003
 C108 C 0.44813 -0.03849 0.27673
 C109 C 0.44958 -0.04302 0.20254
 C110 C 0.48764 -0.00854 0.16665
 H111 H 0.44579 -0.08636 0.31289
 H112 H 0.42272 -0.08064 0.17986
 H113 H 0.44538 0.07046 0.26251
 H114 H 0.51501 0.02786 0.19101
 C115 C 0.47400 -0.31546 -0.02737
 C116 C 0.47389 -0.29498 0.03426
 C117 C 0.46980 -0.22098 0.04019
 C118 C 0.50300 -0.17785 0.00690
 H119 H 0.47206 -0.33278 0.08147
 H120 H 0.44067 -0.20337 0.07615
 H121 H 0.46947 -0.27664 -0.07686
 H122 H 0.53292 -0.19725 -0.02777
 C123 C 0.47649 0.28965 -0.05079
 C124 C 0.49214 0.23442 0.00766
 C125 C 0.48159 0.16473 -0.00327
 C126 C 0.50575 0.10545 0.05250
 H127 H 0.51266 0.24051 0.06309
 H128 H 0.45373 0.16239 -0.05863
 H129 H 0.45645 0.28236 -0.10581
 H130 H 0.53112 0.11013 0.10749
 C131 C -0.31584 0.00851 0.52208
 C132 C -0.26472 -0.05311 0.53617
 C133 C -0.18952 -0.05516 0.53325
 C134 C -0.17581 -0.00445 0.48656
 H135 H -0.27721 -0.10370 0.55238
 H136 H -0.14486 -0.09987 0.56989
 H137 H -0.30204 0.05908 0.51023
 H138 H -0.22062 0.03996 0.44961
 C139 C 0.26894 0.03510 0.49255
 C140 C 0.24816 -0.02284 0.51844
 C141 C 0.17310 -0.02445 0.51930
 C142 C 0.11238 0.03045 0.48902
 H143 H 0.28910 -0.07382 0.54207
 H144 H 0.16849 -0.07560 0.54692
 H145 H 0.23016 0.08725 0.47063
 H146 H 0.11607 0.08272 0.46371
 C147 C 0.01101 0.50893 1.30951
 C148 C -0.04662 0.49694 1.26210
 C149 C -0.04904 0.49197 1.18701
 C150 C -0.02244 0.53442 1.14488
 H151 H -0.09088 0.48386 1.28085
 H152 H -0.07435 0.45262 1.16620
 H153 H 0.05907 0.51443 1.29380
 H154 H 0.00368 0.57276 1.16720
 C155 C 0.02921 0.47193 0.72370
 C156 C -0.03057 0.47176 0.74459
 C157 C -0.03168 0.47158 0.81994
 C158 C 0.00638 0.50717 0.86191
 H159 H -0.08109 0.46990 0.70544
 H160 H -0.06937 0.44519 0.83851
 H161 H 0.08147 0.46809 0.76378
 H162 H 0.04252 0.53402 0.84105
   
