data_POSCAR
  _audit_creation_date              2014-09-24
  _audit_creation_method            'ToBaCCo'
  _symmetry_space_group_name_H-M    'P1'
  _symmetry_Int_Tables_number       1
  _symmetry_cell_setting            triclinic
  loop_
  _symmetry_equiv_pos_as_xyz
 x,y,z
_cell_length_a 38.6162
_cell_length_b 38.8617
_cell_length_c 33.5894
_cell_angle_alpha 90.252400
_cell_angle_beta 89.974700
_cell_angle_gamma 88.312300
loop_
  _atom_site_label
  _atom_site_type_symbol
  _atom_site_fract_x
  _atom_site_fract_y
  _atom_site_fract_z
O1 O 0.04167 0.30077 -0.02285
 O2 O -0.01850 0.28718 0.05809
 O3 O 0.04640 0.27067 0.04621
 O4 O -0.02673 0.29716 -0.01863
 O5 O -0.03116 0.24262 -0.03563
 O6 O 0.04016 0.21614 0.02942
 O7 O -0.02519 0.23300 0.04147
 O8 O 0.03736 0.24614 -0.04028
 Cu9 Cu 0.01096 0.29376 0.01715
 Cu10 Cu 0.00461 0.22959 -0.00337
 C11 C 0.05073 0.27561 -0.04472
 C12 C -0.03180 0.25845 0.06482
 C13 C 0.05574 0.23894 0.04871
 C14 C -0.04154 0.27369 -0.03841
 O15 O 0.46584 0.76065 0.53557
 O16 O 0.53592 0.75966 0.46116
 O17 O 0.46909 0.76321 0.45864
 O18 O 0.53345 0.75749 0.53844
 O19 O 0.53239 0.70085 0.53655
 O20 O 0.46798 0.70650 0.45544
 O21 O 0.53499 0.70302 0.45828
 O22 O 0.46466 0.70397 0.53279
 Cu23 Cu 0.50123 0.76589 0.49895
 Cu24 Cu 0.50000 0.69784 0.49571
 C25 C 0.45276 0.73253 0.54627
 C26 C 0.54732 0.73124 0.44672
 C27 C 0.45799 0.73595 0.44287
 C28 C 0.54427 0.72835 0.55098
 O29 O 1.03666 0.71103 0.02587
 O30 O 0.97193 0.72622 -0.05119
 O31 O 1.04003 0.73428 -0.04452
 O32 O 0.96976 0.71723 0.02655
 O33 O 0.96536 0.77312 0.03821
 O34 O 1.03639 0.78989 -0.03071
 O35 O 0.96865 0.78185 -0.03800
 O36 O 1.03194 0.76593 0.04299
 Cu37 Cu 1.00443 0.71700 -0.01303
 Cu38 Cu 1.00044 0.78309 0.00430
 C39 C 1.04556 0.73583 0.04763
 C40 C 0.95896 0.75590 -0.05794
 C41 C 1.05105 0.76470 -0.04854
 C42 C 0.95621 0.74277 0.04547
 O43 O 0.54346 0.23017 0.54301
 O44 O 0.47908 0.22778 0.46219
 O45 O 0.54510 0.23473 0.46614
 O46 O 0.47596 0.22353 0.53916
 O47 O 0.46779 0.27987 0.54295
 O48 O 0.53820 0.29123 0.47044
 O49 O 0.47182 0.28423 0.46623
 O50 O 0.53532 0.28655 0.54808
 Cu51 Cu 0.51168 0.22337 0.50256
 Cu52 Cu 0.50260 0.29117 0.50770
 C53 C 0.55067 0.25879 0.55885
 C54 C 0.46495 0.25569 0.44987
 C55 C 0.55342 0.26472 0.45565
 C56 C 0.45918 0.24969 0.55241
 O57 O 0.70920 0.04382 -0.03014
 O58 O 0.70287 -0.02983 0.03735
 O59 O 0.70879 0.03582 0.04598
 O60 O 0.70513 -0.02292 -0.03999
 O61 O 0.76208 -0.02904 -0.03901
 O62 O 0.76586 0.03014 0.04626
 O63 O 0.75949 -0.03593 0.03846
 O64 O 0.76628 0.03750 -0.03033
 Cu65 Cu 0.70076 0.00712 0.00297
 Cu66 Cu 0.76915 -0.00015 0.00374
 C67 C 0.73876 0.05359 -0.04107
 C68 C 0.72991 -0.04492 0.05079
 C69 C 0.73799 0.04301 0.06075
 C70 C 0.73305 -0.03586 -0.05434
 O71 O 0.21275 0.45859 0.53013
 O72 O 0.20665 0.52929 0.45786
 O73 O 0.21260 0.46240 0.45267
 O74 O 0.20945 0.52535 0.53500
 O75 O 0.26638 0.52832 0.53298
 O76 O 0.26970 0.46370 0.45240
 O77 O 0.26347 0.53037 0.45489
 O78 O 0.26985 0.46146 0.53005
 Cu79 Cu 0.20467 0.49368 0.49403
 Cu80 Cu 0.27307 0.49629 0.49249
 C81 C 0.24222 0.44829 0.54267
 C82 C 0.23388 0.54139 0.44305
 C83 C 0.24169 0.45250 0.43827
 C84 C 0.23744 0.53730 0.54836
 O85 O 0.29188 1.02700 0.03234
 O86 O 0.28762 0.96379 -0.04909
 O87 O 0.28775 1.03096 -0.04422
 O88 O 0.29024 0.96038 0.02877
 O89 O 0.23316 0.96239 0.03105
 O90 O 0.23096 1.03366 -0.04009
 O91 O 0.23051 0.96637 -0.04643
 O92 O 0.23516 1.02913 0.03607
 Cu93 Cu 0.29508 0.99506 -0.00859
 Cu94 Cu 0.22674 0.99790 -0.00468
 C95 C 0.26428 1.03914 0.04842
 C96 C 0.25842 0.95452 -0.06195
 C97 C 0.25890 1.04548 -0.05343
 C98 C 0.26198 0.94984 0.04301
 O99 O 0.77387 0.46913 0.46438
 O100 O 0.77443 0.53720 0.54026
 O101 O 0.77369 0.46990 0.54106
 O102 O 0.77175 0.53547 0.46215
 O103 O 0.71473 0.53659 0.46368
 O104 O 0.71653 0.47183 0.54295
 O105 O 0.71735 0.53906 0.54118
 O106 O 0.71685 0.46926 0.46625
 Cu107 Cu 0.77917 0.50310 0.50205
 Cu108 Cu 0.71063 0.50451 0.50368
 C109 C 0.74540 0.45727 0.45242
 C110 C 0.74610 0.54969 0.55398
 C111 C 0.74532 0.45900 0.55464
 C112 C 0.74279 0.54660 0.44864
 C113 C 0.25535 0.26200 0.23404
 C114 C 0.28217 0.23831 0.23638
 C115 C 0.28492 0.20848 0.20864
 C116 C 0.30905 0.24008 0.26796
 C117 C 0.25311 0.29227 0.26124
 C118 C 0.22610 0.25800 0.20552
 C119 C 0.28465 0.17495 0.22398
 C120 C 0.28226 0.14672 0.19838
 C121 C 0.28047 0.15164 0.15711
 C122 C 0.28282 0.18491 0.14154
 C123 C 0.28513 0.21322 0.16717
 C124 C 0.29986 0.24180 0.30844
 C125 C 0.32532 0.24521 0.33765
 C126 C 0.36037 0.24653 0.32688
 C127 C 0.36968 0.24302 0.28661
 C128 C 0.34421 0.23993 0.25738
 C129 C 0.28061 0.31501 0.26470
 C130 C 0.27876 0.34219 0.29211
 C131 C 0.24912 0.34739 0.31579
 C132 C 0.22143 0.32508 0.31187
 C133 C 0.22334 0.29784 0.28467
 C134 C 0.21502 0.28579 0.18155
 C135 C 0.18784 0.28210 0.15440
 C136 C 0.17197 0.25026 0.15003
 C137 C 0.18231 0.22290 0.17492
 C138 C 0.20858 0.22691 0.20287
 H139 H 0.28458 0.17079 0.25585
 H140 H 0.28071 0.12111 0.21073
 H141 H 0.28170 0.18901 0.10969
 H142 H 0.28573 0.23888 0.15480
 H143 H 0.27294 0.24094 0.31734
 H144 H 0.31768 0.24726 0.36862
 H145 H 0.35187 0.23807 0.22640
 H146 H 0.30362 0.31142 0.24654
 H147 H 0.30033 0.35924 0.29479
 H148 H 0.19845 0.32871 0.33010
 H149 H 0.20188 0.28060 0.28248
 H150 H 0.22746 0.31034 0.18385
 H151 H 0.17907 0.30412 0.13710
 H152 H 0.16972 0.19840 0.17293
 H153 H 0.21534 0.20561 0.22229
 H154 H 0.39667 0.24314 0.27784
 C155 C 0.75278 0.72498 0.23201
 C156 C 0.72636 0.74900 0.22988
 C157 C 0.72761 0.77912 0.20313
 C158 C 0.69622 0.74770 0.25725
 C159 C 0.75326 0.69875 0.26405
 C160 C 0.78284 0.72455 0.20413
 C161 C 0.75369 0.80328 0.20731
 C162 C 0.75365 0.83255 0.18324
 C163 C 0.72754 0.83803 0.15466
 C164 C 0.70218 0.81318 0.14963
 C165 C 0.70185 0.78428 0.17420
 C166 C 0.69040 0.77427 0.28507
 C167 C 0.66567 0.77089 0.31505
 C168 C 0.64627 0.74100 0.31747
 C169 C 0.65045 0.71542 0.28805
 C170 C 0.67537 0.71869 0.25821
 C171 C 0.75309 0.66366 0.25429
 C172 C 0.75090 0.63904 0.28429
 C173 C 0.74866 0.64926 0.32440
 C174 C 0.75052 0.68425 0.33425
 C175 C 0.75299 0.70883 0.30429
 C176 C 0.77835 0.72879 0.16285
 C177 C 0.80708 0.73063 0.13768
 C178 C 0.84074 0.72737 0.15321
 C179 C 0.84516 0.72031 0.19386
 C180 C 0.81654 0.71937 0.21915
 H181 H 0.77366 0.79974 0.22968
 H182 H 0.77358 0.85126 0.18739
 H183 H 0.68223 0.81659 0.12723
 H184 H 0.68162 0.76581 0.17055
 H185 H 0.70621 0.79683 0.28477
 H186 H 0.66248 0.79107 0.33721
 H187 H 0.67930 0.69808 0.23671
 H188 H 0.75374 0.65544 0.22343
 H189 H 0.75027 0.61204 0.27627
 H190 H 0.74934 0.69254 0.36507
 H191 H 0.75393 0.73579 0.31237
 H192 H 0.75266 0.73115 0.15012
 H193 H 0.80308 0.73528 0.10622
 H194 H 0.87091 0.71669 0.20622
 H195 H 0.82081 0.71535 0.25067
 H196 H 0.63520 0.69249 0.28901
 C197 C 0.74369 0.23986 0.25469
 C198 C 0.77104 0.26100 0.25715
 C199 C 0.80089 0.25780 0.22962
 C200 C 0.77131 0.28932 0.28682
 C201 C 0.71296 0.24542 0.28057
 C202 C 0.74367 0.20957 0.22775
 C203 C 0.83434 0.25228 0.24495
 C204 C 0.86280 0.24990 0.21935
 C205 C 0.85827 0.25403 0.17816
 C206 C 0.82473 0.25881 0.16272
 C207 C 0.79618 0.26074 0.18831
 C208 C 0.76922 0.28227 0.32772
 C209 C 0.76405 0.30908 0.35509
 C210 C 0.76104 0.34320 0.34187
 C211 C 0.76514 0.35038 0.30124
 C212 C 0.77026 0.32357 0.27387
 C213 C 0.69300 0.27621 0.27875
 C214 C 0.66650 0.28270 0.30636
 C215 C 0.65984 0.25849 0.33602
 C216 C 0.67884 0.22718 0.33674
 C217 C 0.70518 0.22064 0.30911
 C218 C 0.71538 0.20479 0.20231
 C219 C 0.71471 0.17612 0.17722
 C220 C 0.74217 0.15171 0.17751
 C221 C 0.77043 0.15633 0.20294
 C222 C 0.77102 0.18491 0.22824
 H223 H 0.83835 0.24975 0.27673
 H224 H 0.88850 0.24581 0.23168
 H225 H 0.82079 0.26195 0.13100
 H226 H 0.77051 0.26513 0.17604
 H227 H 0.77032 0.25594 0.33819
 H228 H 0.76143 0.30319 0.38642
 H229 H 0.77189 0.32942 0.24243
 H230 H 0.69853 0.29544 0.25659
 H231 H 0.65163 0.30674 0.30511
 H232 H 0.67361 0.20809 0.35920
 H233 H 0.72033 0.19678 0.31084
 H234 H 0.69397 0.22342 0.20169
 H235 H 0.69283 0.17291 0.15751
 H236 H 0.79177 0.13762 0.20346
 H237 H 0.79267 0.18767 0.24836
 H238 H 0.76355 0.37668 0.29073
 C239 C 0.26849 0.75328 0.23802
 C240 C 0.24162 0.73147 0.23917
 C241 C 0.21252 0.73425 0.21063
 C242 C 0.24023 0.70334 0.26876
 C243 C 0.29668 0.75095 0.26775
 C244 C 0.27023 0.78145 0.20840
 C245 C 0.19051 0.76366 0.20953
 C246 C 0.16363 0.76597 0.18165
 C247 C 0.15876 0.73905 0.15437
 C248 C 0.18077 0.70967 0.15575
 C249 C 0.20725 0.70719 0.18385
 C250 C 0.21275 0.70284 0.29604
 C251 C 0.21108 0.67656 0.32413
 C252 C 0.23646 0.64995 0.32475
 C253 C 0.26413 0.65059 0.29766
 C254 C 0.26594 0.67705 0.26974
 C255 C 0.33069 0.74349 0.25520
 C256 C 0.35750 0.74110 0.28297
 C257 C 0.35072 0.74700 0.32353
 C258 C 0.31663 0.75427 0.33611
 C259 C 0.28975 0.75636 0.30836
 C260 C 0.26708 0.77503 0.16734
 C261 C 0.26568 0.80236 0.14040
 C262 C 0.26802 0.83637 0.15409
 C263 C 0.27364 0.84255 0.19474
 C264 C 0.27448 0.81534 0.22169
 H265 H 0.19419 0.78469 0.23021
 H266 H 0.14675 0.78872 0.18123
 H267 H 0.17705 0.68838 0.13543
 H268 H 0.22398 0.68433 0.18441
 H269 H 0.19278 0.72301 0.29577
 H270 H 0.18980 0.67671 0.34516
 H271 H 0.28721 0.67694 0.24870
 H272 H 0.33635 0.73917 0.22395
 H273 H 0.38361 0.73496 0.27287
 H274 H 0.31096 0.75870 0.36733
 H275 H 0.26361 0.76237 0.31842
 H276 H 0.26498 0.74897 0.15627
 H277 H 0.26203 0.79706 0.10902
 H278 H 0.27640 0.86859 0.20568
 H279 H 0.27750 0.82085 0.25312
 H280 H 0.28402 0.63034 0.29783
 C281 C 0.75793 0.28112 0.77157
 C282 C 0.73389 0.25610 0.77268
 C283 C 0.70457 0.25622 0.74383
 C284 C 0.73644 0.22691 0.80114
 C285 C 0.78607 0.28375 0.80146
 C286 C 0.75750 0.30702 0.73934
 C287 C 0.68214 0.28520 0.73995
 C288 C 0.65707 0.28645 0.70992
 C289 C 0.65379 0.25861 0.68359
 C290 C 0.67478 0.22886 0.68900
 C291 C 0.70003 0.22772 0.71880
 C292 C 0.70722 0.21799 0.82325
 C293 C 0.70908 0.19050 0.84988
 C294 C 0.74028 0.17160 0.85515
 C295 C 0.76925 0.17980 0.83220
 C296 C 0.76730 0.20712 0.80526
 C297 C 0.82054 0.28554 0.78854
 C298 C 0.84742 0.28813 0.81604
 C299 C 0.84030 0.28971 0.85700
 C300 C 0.80579 0.28814 0.87001
 C301 C 0.77883 0.28539 0.84243
 C302 C 0.76181 0.29675 0.69950
 C303 C 0.75939 0.32105 0.66909
 C304 C 0.75217 0.35584 0.67811
 C305 C 0.74916 0.36623 0.71806
 C306 C 0.75195 0.34197 0.74852
 H307 H 0.68469 0.30718 0.75955
 H308 H 0.64080 0.30944 0.70658
 H309 H 0.67213 0.20685 0.66946
 H310 H 0.71680 0.20501 0.72152
 H311 H 0.68300 0.23249 0.82009
 H312 H 0.68620 0.18404 0.86663
 H313 H 0.78985 0.21275 0.78754
 H314 H 0.82670 0.28428 0.75709
 H315 H 0.87389 0.28842 0.80541
 H316 H 0.79978 0.28893 0.90150
 H317 H 0.75237 0.28452 0.85299
 H318 H 0.76666 0.26989 0.69204
 H319 H 0.76263 0.31270 0.63847
 H320 H 0.74407 0.39304 0.72557
 H321 H 0.74883 0.35026 0.77917
 H322 H 0.79338 0.16515 0.83532
 C323 C 0.23977 0.72474 0.75700
 C324 C 0.26359 0.74987 0.75349
 C325 C 0.29222 0.74691 0.72382
 C326 C 0.26178 0.78186 0.77801
 C327 C 0.21282 0.72533 0.78888
 C328 C 0.23831 0.69656 0.72711
 C329 C 0.31428 0.71749 0.72234
 C330 C 0.34011 0.71437 0.69327
 C331 C 0.34452 0.74078 0.66557
 C332 C 0.32338 0.77068 0.66786
 C333 C 0.29740 0.77373 0.69676
 C334 C 0.29107 0.79202 0.79930
 C335 C 0.28970 0.82186 0.82267
 C336 C 0.25916 0.84229 0.82474
 C337 C 0.22991 0.83234 0.80327
 C338 C 0.23131 0.80255 0.77973
 C339 C 0.17813 0.71946 0.77907
 C340 C 0.15210 0.72303 0.80783
 C341 C 0.16012 0.73286 0.84701
 C342 C 0.19508 0.73695 0.85728
 C343 C 0.22120 0.73250 0.82873
 C344 C 0.23219 0.70408 0.68683
 C345 C 0.23083 0.67756 0.65873
 C346 C 0.23536 0.64311 0.67050
 C347 C 0.24189 0.63566 0.71075
 C348 C 0.24283 0.66217 0.73895
 H349 H 0.31131 0.69686 0.74353
 H350 H 0.35655 0.69132 0.69217
 H351 H 0.32666 0.79140 0.64684
 H352 H 0.28088 0.79673 0.69754
 H353 H 0.31484 0.77654 0.79825
 H354 H 0.31241 0.82898 0.83936
 H355 H 0.20862 0.79553 0.76297
 H356 H 0.17093 0.71335 0.74875
 H357 H 0.12550 0.71923 0.79907
 H358 H 0.20216 0.74497 0.88701
 H359 H 0.24785 0.73600 0.83746
 H360 H 0.22840 0.73050 0.67725
 H361 H 0.22604 0.68387 0.62780
 H362 H 0.24615 0.60928 0.72029
 H363 H 0.24766 0.65597 0.76990
 H364 H 0.20612 0.84778 0.80459
 C365 C 0.26423 0.23832 0.75061
 C366 C 0.23967 0.26418 0.75211
 C367 C 0.23987 0.29371 0.72425
 C368 C 0.21145 0.26381 0.78196
 C369 C 0.26443 0.20995 0.77992
 C370 C 0.29220 0.23717 0.72026
 C371 C 0.26905 0.31429 0.72080
 C372 C 0.27030 0.33958 0.69137
 C373 C 0.24236 0.34469 0.66515
 C374 C 0.21248 0.32544 0.67004
 C375 C 0.21123 0.30016 0.69941
 C376 C 0.21152 0.28728 0.81372
 C377 C 0.18623 0.28604 0.84332
 C378 C 0.16001 0.26185 0.84110
 C379 C 0.15960 0.23862 0.80901
 C380 C 0.18545 0.23933 0.77980
 C381 C 0.26121 0.17587 0.76678
 C382 C 0.26002 0.14908 0.79428
 C383 C 0.26201 0.15615 0.83515
 C384 C 0.26641 0.19005 0.84826
 C385 C 0.26780 0.21678 0.82079
 C386 C 0.28470 0.23978 0.67943
 C387 C 0.31153 0.24015 0.65155
 C388 C 0.34618 0.23665 0.66394
 C389 C 0.35362 0.23333 0.70463
 C390 C 0.32684 0.23348 0.73254
 H391 H 0.29118 0.31007 0.74015
 H392 H 0.29337 0.35454 0.68834
 H393 H 0.19047 0.32948 0.65046
 H394 H 0.18841 0.28474 0.70179
 H395 H 0.23151 0.30617 0.81586
 H396 H 0.18660 0.30451 0.86756
 H397 H 0.18517 0.22099 0.75545
 H398 H 0.25896 0.17017 0.73531
 H399 H 0.25691 0.12295 0.78381
 H400 H 0.26844 0.19574 0.87976
 H401 H 0.27121 0.24282 0.83135
 H402 H 0.25814 0.24196 0.66921
 H403 H 0.30530 0.24322 0.62030
 H404 H 0.38020 0.23078 0.71474
 H405 H 0.33317 0.23131 0.76386
 H406 H 0.13933 0.22004 0.80665
 C407 C 0.73280 0.76952 0.74853
 C408 C 0.76108 0.74767 0.74757
 C409 C 0.76305 0.71856 0.71877
 C410 C 0.79023 0.75102 0.77601
 C411 C 0.73150 0.80118 0.77345
 C412 C 0.70186 0.76254 0.72406
 C413 C 0.76564 0.68460 0.73265
 C414 C 0.76280 0.65702 0.70612
 C415 C 0.75720 0.66308 0.66540
 C416 C 0.75661 0.69698 0.65123
 C417 C 0.75966 0.72453 0.67770
 C418 C 0.78403 0.75312 0.81719
 C419 C 0.81145 0.75715 0.84370
 C420 C 0.84555 0.75888 0.82954
 C421 C 0.85188 0.75589 0.78849
 C422 C 0.82441 0.75201 0.76191
 C423 C 0.75861 0.82454 0.77256
 C424 C 0.75800 0.85315 0.79786
 C425 C 0.72990 0.85928 0.82360
 C426 C 0.70224 0.83672 0.82354
 C427 C 0.70298 0.80792 0.79853
 C428 C 0.69180 0.78557 0.69396
 C429 C 0.66534 0.77724 0.66767
 C430 C 0.64847 0.74593 0.67140
 C431 C 0.65716 0.72375 0.70292
 C432 C 0.68383 0.73197 0.72905
 H433 H 0.76846 0.67950 0.76418
 H434 H 0.76408 0.63095 0.71741
 H435 H 0.75284 0.70211 0.61983
 H436 H 0.75818 0.75058 0.66638
 H437 H 0.75794 0.75162 0.82876
 H438 H 0.80615 0.75874 0.87533
 H439 H 0.82974 0.75009 0.73031
 H440 H 0.78047 0.82029 0.75276
 H441 H 0.77953 0.87040 0.79762
 H442 H 0.68048 0.84107 0.84348
 H443 H 0.68173 0.79036 0.79951
 H444 H 0.70539 0.80929 0.68986
 H445 H 0.65859 0.79478 0.64373
 H446 H 0.64398 0.69974 0.70649
 H447 H 0.69109 0.71413 0.75250
 H448 H 0.87812 0.75627 0.77714
 C449 C 0.30256 0.10879 0.10842
 C450 C 0.29872 0.08074 0.08318
 C451 C 0.26656 0.06475 0.07855
 C452 C 0.23809 0.07685 0.10288
 C453 C 0.24215 0.10627 0.12776
 C454 C 0.27463 0.12205 0.13040
 C455 C 0.21343 0.11912 0.14959
 N456 N 0.18313 0.10252 0.14850
 N457 N 0.17971 0.07386 0.12728
 C458 C 0.20600 0.06031 0.10489
 H459 H 0.32764 0.12046 0.11060
 H460 H 0.32125 0.07238 0.06608
 H461 H 0.21479 0.14212 0.16771
 H462 H 0.20138 0.03616 0.09043
 C463 C 0.77627 0.62897 0.60677
 C464 C 0.77373 0.60142 0.58049
 C465 C 0.74714 0.57776 0.58406
 C466 C 0.72260 0.58212 0.61545
 C467 C 0.72467 0.61093 0.64152
 C468 C 0.75223 0.63400 0.63753
 C469 C 0.69874 0.61590 0.67060
 N470 N 0.67367 0.59251 0.67474
 N471 N 0.67278 0.56453 0.65182
 C472 C 0.69641 0.55842 0.62257
 H473 H 0.79740 0.64644 0.60325
 H474 H 0.79271 0.59876 0.55683
 H475 H 0.69796 0.63823 0.68991
 H476 H 0.69461 0.53478 0.60589
 C477 C 0.75604 0.87680 0.10744
 C478 C 0.75659 0.90538 0.08274
 C479 C 0.72757 0.92798 0.07879
 C480 C 0.69782 0.92218 0.10339
 C481 C 0.69782 0.89301 0.12909
 C482 C 0.72679 0.86974 0.13005
 C483 C 0.66923 0.88869 0.15449
 N484 N 0.64221 0.91162 0.15402
 N485 N 0.64203 0.93893 0.13038
 C486 C 0.66874 0.94520 0.10554
 H487 H 0.77861 0.85957 0.10831
 H488 H 0.77984 0.90889 0.06532
 H489 H 0.66831 0.86780 0.17551
 H490 H 0.66671 0.96880 0.08920
 C491 C 0.24682 0.40491 0.64225
 C492 C 0.24673 0.42995 0.61265
 C493 C 0.24422 0.42071 0.57246
 C494 C 0.24267 0.38557 0.56170
 C495 C 0.24307 0.36003 0.59175
 C496 C 0.24438 0.36998 0.63241
 C497 C 0.24269 0.32526 0.57991
 N498 N 0.24123 0.31696 0.54069
 N499 N 0.24029 0.34100 0.51254
 C500 C 0.24097 0.37499 0.52168
 H501 H 0.24803 0.41289 0.67315
 H502 H 0.24796 0.45682 0.62118
 H503 H 0.24391 0.30460 0.60136
 H504 H 0.24043 0.39340 0.49762
 C505 C 0.89262 0.22935 0.12210
 C506 C 0.92030 0.22949 0.09547
 C507 C 0.94495 0.25542 0.09703
 C508 C 0.94317 0.27958 0.12930
 C509 C 0.91404 0.28030 0.15511
 C510 C 0.88869 0.25488 0.15139
 C511 C 0.91112 0.30678 0.18382
 N512 N 0.93722 0.32890 0.18884
 N513 N 0.96598 0.32638 0.16711
 C514 C 0.97003 0.30239 0.13794
 H515 H 0.87365 0.20948 0.11934
 H516 H 0.92115 0.21018 0.07208
 H517 H 0.88845 0.31014 0.20244
 H518 H 0.99476 0.30084 0.12299
 C519 C 0.39993 0.75838 0.63634
 C520 C 0.42582 0.75641 0.60749
 C521 C 0.42385 0.73336 0.57537
 C522 C 0.39439 0.71241 0.57187
 C523 C 0.36822 0.71418 0.60165
 C524 C 0.37127 0.73727 0.63414
 C525 C 0.33919 0.69343 0.59727
 N526 N 0.33648 0.67262 0.56501
 N527 N 0.36064 0.67137 0.53672
 C528 C 0.38930 0.69064 0.53887
 H529 H 0.40240 0.77637 0.66084
 H530 H 0.44787 0.77283 0.61057
 H531 H 0.31841 0.69384 0.61887
 H532 H 0.40727 0.68912 0.51428
 C533 C 0.09566 0.74608 0.13995
 C534 C 0.06758 0.74398 0.11398
 C535 C 0.07222 0.73089 0.07518
 C536 C 0.10629 0.72174 0.06209
 C537 C 0.13434 0.73195 0.08527
 C538 C 0.12949 0.73993 0.12594
 C539 C 0.16513 0.73818 0.06512
 N540 N 0.16525 0.73707 0.02449
 N541 N 0.13913 0.72592 0.00169
 C542 C 0.11439 0.70950 0.02335
 H543 H 0.09104 0.75333 0.17072
 H544 H 0.04196 0.75173 0.12449
 H545 H 0.18757 0.74756 0.08061
 H546 H 0.09511 0.69547 0.00702
 C547 C 0.59328 0.26542 0.65923
 C548 C 0.56835 0.26531 0.62917
 C549 C 0.57799 0.25985 0.58942
 C550 C 0.61353 0.25577 0.57951
 C551 C 0.63897 0.25684 0.60992
 C552 C 0.62858 0.26057 0.65027
 C553 C 0.67410 0.25489 0.59869
 N554 N 0.68288 0.25097 0.55980
 N555 N 0.65897 0.24903 0.53140
 C556 C 0.62465 0.25127 0.53990
 H557 H 0.58492 0.26866 0.68984
 H558 H 0.54125 0.26876 0.63706
 H559 H 0.69469 0.25694 0.62029
 H560 H 0.60643 0.24977 0.51562
 C561 C 0.75116 0.10963 0.86940
 C562 C 0.75075 0.08107 0.89437
 C563 C 0.74100 0.08470 0.93431
 C564 C 0.73296 0.11790 0.94992
 C565 C 0.73404 0.14705 0.92475
 C566 C 0.74219 0.14265 0.88381
 C567 C 0.72756 0.17980 0.94173
 N568 N 0.71967 0.18280 0.98096
 N569 N 0.71803 0.15537 1.00441
 C570 C 0.72444 0.12307 0.99028
 H571 H 0.75768 0.10582 0.83828
 H572 H 0.75714 0.05580 0.88218
 H573 H 0.72919 0.20307 0.92443
 H574 H 0.72314 0.10184 1.01080
 C575 C 0.26077 0.61699 0.38148
 C576 C 0.25970 0.59116 0.40994
 C577 C 0.23178 0.56884 0.41209
 C578 C 0.20418 0.57290 0.38391
 C579 C 0.20582 0.59902 0.35438
 C580 C 0.23409 0.62147 0.35376
 C581 C 0.17948 0.60128 0.32544
 N582 N 0.15275 0.57957 0.32660
 N583 N 0.15068 0.55558 0.35450
 C584 C 0.17530 0.55143 0.38296
 H585 H 0.28260 0.63389 0.38129
 H586 H 0.28100 0.58886 0.43084
 H587 H 0.18003 0.61974 0.30152
 H588 H 0.17156 0.53117 0.40393
 C589 C 0.23494 0.87403 0.88292
 C590 C 0.23462 0.90124 0.91009
 C591 C 0.25704 0.92868 0.90561
 C592 C 0.27871 0.92968 0.87149
 C593 C 0.27911 0.90186 0.84390
 C594 C 0.25765 0.87344 0.85038
 C595 C 0.30056 0.90379 0.81016
 N596 N 0.32015 0.93173 0.80455
 N597 N 0.31956 0.95796 0.83019
 C598 C 0.29945 0.95800 0.86329
 H599 H 0.21815 0.85264 0.88809
 H600 H 0.21767 0.90016 0.93575
 H601 H 0.30154 0.88363 0.78787
 H602 H 0.29937 0.98052 0.88226
 C603 C 0.77917 0.37773 0.39943
 C604 C 0.77537 0.40546 0.42542
 C605 C 0.74645 0.42820 0.42346
 C606 C 0.72034 0.42211 0.39449
 C607 C 0.72398 0.39315 0.36860
 C608 C 0.75412 0.37152 0.37056
 C609 C 0.69713 0.38660 0.34156
 N610 N 0.66927 0.40851 0.33931
 N611 N 0.66650 0.43648 0.36221
 C612 C 0.69104 0.44413 0.38946
 H613 H 0.80224 0.36126 0.40141
 H614 H 0.79549 0.40915 0.44737
 H615 H 0.69788 0.36418 0.32236
 H616 H 0.68727 0.46756 0.40624
 C617 C 0.09792 0.27253 0.85785
 C618 C 0.07141 0.27841 0.88565
 C619 C 0.07902 0.27932 0.92644
 C620 C 0.11367 0.27392 0.93897
 C621 C 0.13811 0.26087 0.91188
 C622 C 0.13161 0.26353 0.87062
 C623 C 0.16627 0.24247 0.92787
 N624 N 0.16776 0.23759 0.96812
 N625 N 0.14759 0.25416 0.99530
 C626 C 0.12445 0.27764 0.97875
 H627 H 0.09203 0.27426 0.82638
 H628 H 0.04496 0.28210 0.87544
 H629 H 0.18493 0.22913 0.90883
 H630 H 0.10806 0.29313 0.99862
 C631 C 0.59498 0.76105 0.35598
 C632 C 0.57160 0.75874 0.38727
 C633 C 0.57405 0.73171 0.41481
 C634 C 0.60164 0.70678 0.41087
 C635 C 0.62578 0.70944 0.37905
 C636 C 0.62194 0.73659 0.35112
 C637 C 0.65377 0.68541 0.37706
 N638 N 0.65696 0.66016 0.40460
 N639 N 0.63432 0.65748 0.43420
 C640 C 0.60699 0.67991 0.43837
 H641 H 0.59190 0.78214 0.33516
 H642 H 0.55102 0.77818 0.38963
 H643 H 0.67346 0.68666 0.35432
 H644 H 0.59024 0.67662 0.46352
 C645 C 0.87886 0.73398 0.88540
 C646 C 0.90637 0.73318 0.91197
 C647 C 0.93081 0.75918 0.91228
 C648 C 0.92726 0.78668 0.88474
 C649 C 0.89874 0.78771 0.85792
 C650 C 0.87470 0.76079 0.85805
 C651 C 0.89510 0.81593 0.83206
 N652 N 0.91921 0.84059 0.83194
 N653 N 0.94664 0.83895 0.85594
 C654 C 0.95157 0.81284 0.88219
 H655 H 0.86079 0.71317 0.88588
 H656 H 0.90845 0.71199 0.93279
 H657 H 0.87327 0.81873 0.81207
 H658 H 0.97466 0.81273 0.90029
 C659 C 0.39059 0.22573 0.38749
 C660 C 0.41620 0.22762 0.41651
 C661 C 0.43951 0.25462 0.41686
 C662 C 0.43717 0.28000 0.38653
 C663 C 0.41038 0.27856 0.35762
 C664 C 0.38733 0.25079 0.35781
 C665 C 0.40734 0.30531 0.32961
 N666 N 0.43082 0.33054 0.32916
 N667 N 0.45704 0.33089 0.35484
 C668 C 0.46114 0.30649 0.38330
 H669 H 0.37324 0.20432 0.38804
 H670 H 0.41753 0.20793 0.43923
 H671 H 0.38647 0.30655 0.30819
 H672 H 0.48345 0.30790 0.40251
 C673 C 0.75446 0.88586 0.88345
 C674 C 0.75518 0.91119 0.91274
 C675 C 0.73202 0.93967 0.91182
 C676 C 0.70854 0.94328 0.87941
 C677 C 0.70750 0.91705 0.84988
 C678 C 0.73044 0.88805 0.85239
 C679 C 0.68401 0.92113 0.81816
 N680 N 0.66333 0.94985 0.81595
 N681 N 0.66476 0.97480 0.84313
 C682 C 0.68672 0.97264 0.87458
 H683 H 0.77229 0.86387 0.88555
 H684 H 0.77350 0.90801 0.93697
 H685 H 0.68221 0.90200 0.79483
 H686 H 0.68732 0.99429 0.89476
 C687 C 0.26951 0.37462 0.37785
 C688 C 0.26757 0.39991 0.40736
 C689 C 0.24317 0.42727 0.40505
 C690 C 0.22119 0.42981 0.37120
 C691 C 0.22307 0.40392 0.34127
 C692 C 0.24712 0.37591 0.34509
 C693 C 0.20135 0.40743 0.30781
 N694 N 0.17938 0.43513 0.30462
 N695 N 0.17789 0.45964 0.33242
 C696 C 0.19811 0.45801 0.36538
 H697 H 0.28818 0.35344 0.38099
 H698 H 0.28483 0.39767 0.43272
 H699 H 0.20194 0.38874 0.28387
 H700 H 0.19642 0.47909 0.38618
 C701 C 0.28718 0.10458 0.86759
 C702 C 0.28678 0.07835 0.89554
 C703 C 0.25824 0.07430 0.92106
 C704 C 0.23015 0.09924 0.91932
 C705 C 0.23053 0.12553 0.89000
 C706 C 0.25937 0.12810 0.86433
 C707 C 0.20203 0.14887 0.88746
 N708 N 0.17587 0.14742 0.91417
 N709 N 0.17640 0.12435 0.94330
 C710 C 0.20259 0.10058 0.94709
 H711 H 0.30954 0.10661 0.84832
 H712 H 0.30878 0.06039 0.89615
 H713 H 0.20037 0.16842 0.86467
 H714 H 0.20179 0.08415 0.97276
 C715 C 0.77084 0.62017 0.38483
 C716 C 0.76953 0.59513 0.41418
 C717 C 0.74221 0.57213 0.41578
 C718 C 0.71548 0.57469 0.38654
 C719 C 0.71637 0.60110 0.35743
 C720 C 0.74478 0.62332 0.35610
 C721 C 0.68849 0.60461 0.33062
 N722 N 0.66256 0.58191 0.33138
 N723 N 0.66264 0.55597 0.35710
 C724 C 0.68818 0.55144 0.38442
 H725 H 0.79267 0.63707 0.38426
 H726 H 0.79014 0.59387 0.43605
 H727 H 0.68688 0.62530 0.30923
 H728 H 0.68686 0.52934 0.40344
 C729 C 0.10361 0.76327 0.86181
 C730 C 0.07729 0.77430 0.88788
 C731 C 0.08095 0.76918 0.92890
 C732 C 0.11222 0.75411 0.94307
 C733 C 0.13422 0.73592 0.91693
 C734 C 0.13203 0.74297 0.87558
 C735 C 0.15487 0.70925 0.93307
 N736 N 0.15434 0.70314 0.97303
 C737 C 0.12087 0.75485 0.98345
 H738 H 0.10092 0.76939 0.83053
 H739 H 0.05353 0.78559 0.87589
 H740 H 0.16918 0.69149 0.91389
 H741 H 0.10733 0.77350 1.00255
 C742 C 0.60344 0.24450 0.36314
 C743 C 0.57792 0.24598 0.39195
 C744 C 0.58043 0.26791 0.42481
 C745 C 0.60912 0.28996 0.42821
 C746 C 0.63566 0.28883 0.39813
 C747 C 0.63240 0.26500 0.36599
 C748 C 0.66551 0.30940 0.39968
 N749 N 0.67032 0.33385 0.42756
 C750 C 0.61236 0.31103 0.46179
 H751 H 0.60097 0.22650 0.33862
 H752 H 0.55613 0.22920 0.38890
 H753 H 0.68566 0.30647 0.37752
 H754 H 0.59446 0.31245 0.48646
 C755 C 0.87197 0.26252 0.91294
 C756 C 0.90074 0.25852 0.93750
 C757 C 0.92794 0.28164 0.93615
 C758 C 0.92541 0.31015 0.90988
 C759 C 0.89561 0.31456 0.88531
 C760 C 0.86925 0.28985 0.88607
 C761 C 0.89320 0.34370 0.86068
 N762 N 0.91955 0.36596 0.85942
 N763 N 0.94809 0.36106 0.88112
 C764 C 0.95202 0.33391 0.90611
 H765 H 0.85218 0.24334 0.91395
 H766 H 0.90199 0.23666 0.95745
 H767 H 0.87054 0.34913 0.84262
 H768 H 0.97605 0.33120 0.92231
 C769 C 0.37788 0.72036 0.38285
 C770 C 0.40417 0.71712 0.41102
 C771 C 0.43261 0.73866 0.41008
 C772 C 0.43507 0.76335 0.37920
 C773 C 0.40781 0.76722 0.35114
 C774 C 0.37922 0.74522 0.35289
 C775 C 0.40992 0.79344 0.32251
 N776 N 0.43837 0.81298 0.32081
 N777 N 0.46476 0.80820 0.34585
 C778 C 0.46416 0.78405 0.37482
 H779 H 0.35622 0.70330 0.38445
 H780 H 0.40188 0.69811 0.43430
 H781 H 0.38923 0.79876 0.30159
 H782 H 0.48669 0.78105 0.39360
 C783 C 0.28831 0.86741 0.09471
 C784 C 0.28733 0.89517 0.06863
 C785 C 0.26269 0.92214 0.07318
 C786 C 0.23881 0.92122 0.10539
 C787 C 0.23901 0.89225 0.13099
 C788 C 0.26455 0.86558 0.12605
 C789 C 0.21329 0.89083 0.16063
 N790 N 0.19056 0.91769 0.16592
 N791 N 0.19172 0.94579 0.14354
 C792 C 0.21509 0.94858 0.11369
 H793 H 0.30799 0.84726 0.09057
 H794 H 0.30580 0.89537 0.04435
 H795 H 0.21086 0.86860 0.17953
 H796 H 0.21513 0.97245 0.09744
 C797 C 0.77144 0.40888 0.64573
 C798 C 0.77014 0.43337 0.61566
 C799 C 0.74599 0.43133 0.58471
 C800 C 0.72301 0.40340 0.58371
 C801 C 0.72374 0.37895 0.61501
 C802 C 0.74861 0.38155 0.64588
 C803 C 0.69921 0.35284 0.61451
 N804 N 0.67699 0.35027 0.58348
 N805 N 0.67751 0.37209 0.55308
 C806 C 0.69976 0.39842 0.55202
 H807 H 0.79064 0.41116 0.66904
 H808 H 0.78796 0.45438 0.61684
 H809 H 0.69729 0.33452 0.63847
 H810 H 0.69928 0.41473 0.52609
 C811 C 0.76554 0.11987 0.11938
 C812 C 0.76464 0.09342 0.09141
 C813 C 0.73974 0.06800 0.09386
 C814 C 0.71640 0.06829 0.12652
 C815 C 0.71716 0.09544 0.15482
 C816 C 0.74154 0.12168 0.15057
 C817 C 0.69384 0.09504 0.18700
 N818 N 0.67152 0.06896 0.19057
 N819 N 0.67111 0.04319 0.16434
 C820 C 0.69285 0.04188 0.13262
 H821 H 0.78447 0.13969 0.11600
 H822 H 0.78278 0.09355 0.06679
 H823 H 0.69346 0.11492 0.20963
 H824 H 0.69199 0.01983 0.11310
 C825 C 0.25780 0.61607 0.60850
 C826 C 0.25870 0.59032 0.57957
 C827 C 0.23640 0.56256 0.58156
 C828 C 0.21322 0.56040 0.61430
 C829 C 0.21151 0.58732 0.64308
 C830 C 0.23444 0.61510 0.64037
 C831 C 0.18647 0.58568 0.67342
 N832 N 0.16624 0.55788 0.67619
 N833 N 0.16923 0.53171 0.65062
 C834 C 0.19205 0.53191 0.61995
 H835 H 0.27559 0.63701 0.60603
 H836 H 0.27670 0.59242 0.55500
 H837 H 0.18259 0.60623 0.69486
 H838 H 0.19369 0.50949 0.60091
 C839 C 0.87520 0.71064 0.09344
 C840 C 0.90356 0.71358 0.06810
 C841 C 0.92913 0.73755 0.07592
 C842 C 0.92661 0.75808 0.11101
 C843 C 0.89689 0.75628 0.13566
 C844 C 0.87130 0.73183 0.12713
 C845 C 0.89356 0.77962 0.16776
 N846 N 0.91954 0.80112 0.17634
 N847 N 0.94852 0.80108 0.15491
 C848 C 0.95303 0.78026 0.12273
 H849 H 0.85595 0.69178 0.08653
 H850 H 0.90505 0.69762 0.04159
 H851 H 0.87052 0.78126 0.18598
 H852 H 0.97750 0.78093 0.10723
 C853 C 0.39892 0.26395 0.63921
 C854 C 0.42579 0.26740 0.61207
 C855 C 0.42939 0.24509 0.57937
 C856 C 0.40476 0.21902 0.57359
 C857 C 0.37798 0.21490 0.60200
 C858 C 0.37480 0.23801 0.63467
 C859 C 0.35539 0.18745 0.59689
 N860 N 0.35818 0.16696 0.56424
 N861 N 0.38206 0.17197 0.53645
 C862 C 0.40529 0.19730 0.53987
 H863 H 0.39678 0.28191 0.66393
 H864 H 0.44416 0.28755 0.61688
 H865 H 0.33565 0.18194 0.61856
 H866 H 0.42342 0.20035 0.51581
 C867 C 0.11102 0.23509 0.13868
 C868 C 0.08254 0.22942 0.11425
 C869 C 0.08629 0.22972 0.07287
 C870 C 0.11933 0.23440 0.05642
 C871 C 0.14549 0.24780 0.08021
 C872 C 0.14262 0.24539 0.12231
 C873 C 0.17152 0.26523 0.06032
 N874 N 0.16931 0.27019 0.02009
 C875 C 0.12603 0.22995 0.01569
 H876 H 0.10781 0.23363 0.17067
 H877 H 0.05729 0.22620 0.12758
 H878 H 0.19190 0.27764 0.07634
 H879 H 0.10821 0.21499 -0.00190
 C880 C 0.59158 0.75724 0.64161
 C881 C 0.56651 0.75282 0.61283
 C882 C 0.57052 0.72751 0.58332
 C883 C 0.60037 0.70495 0.58385
 C884 C 0.62688 0.70978 0.61329
 C885 C 0.62182 0.73671 0.64192
 C886 C 0.65845 0.68989 0.61418
 N887 N 0.66569 0.66351 0.58907
 C888 C 0.60462 0.67918 0.55500
 H889 H 0.58775 0.77763 0.66344
 H890 H 0.54387 0.76999 0.61317
 H891 H 0.67845 0.69555 0.63546
 H892 H 0.58676 0.67363 0.53148
   
