data_POSCAR
  _audit_creation_date              2014-09-24
  _audit_creation_method            'ToBaCCo'
  _symmetry_space_group_name_H-M    'P1'
  _symmetry_Int_Tables_number       1
  _symmetry_cell_setting            triclinic
  loop_
  _symmetry_equiv_pos_as_xyz
 x,y,z
_cell_length_a 16.9434
_cell_length_b 16.9349
_cell_length_c 13.3897
_cell_angle_alpha 90.111200
_cell_angle_beta 89.972600
_cell_angle_gamma 90.074300
loop_
  _atom_site_label
  _atom_site_type_symbol
  _atom_site_fract_x
  _atom_site_fract_y
  _atom_site_fract_z
O1 O 0.08906 0.31008 -0.09434
 O2 O -0.06557 0.30371 0.10558
 O3 O 0.09148 0.29432 0.09517
 O4 O -0.07390 0.32007 -0.08623
 O5 O -0.06942 0.19291 -0.10530
 O6 O 0.08094 0.16518 0.09066
 O7 O -0.07978 0.17637 0.08332
 O8 O 0.08322 0.18220 -0.09753
 Cu9 Cu 0.01107 0.32015 0.00545
 Cu10 Cu 0.00307 0.17153 -0.01087
 C11 C 0.11705 0.24405 -0.12333
 C12 C -0.10330 0.24001 0.12477
 C13 C 0.11679 0.22678 0.12236
 C14 C -0.10320 0.25673 -0.12201
 O15 O 0.41081 0.81044 0.59686
 O16 O 0.56977 0.80421 0.40278
 O17 O 0.40998 0.79608 0.40469
 O18 O 0.57204 0.82294 0.59252
 O19 O 0.57225 0.69506 0.59979
 O20 O 0.41608 0.66684 0.41124
 O21 O 0.57019 0.67466 0.40610
 O22 O 0.41256 0.68239 0.59376
 Cu23 Cu 0.48936 0.82116 0.49809
 Cu24 Cu 0.49542 0.67274 0.50953
 C25 C 0.38095 0.74461 0.62334
 C26 C 0.60068 0.73894 0.37496
 C27 C 0.38268 0.72886 0.37802
 C28 C 0.60361 0.75921 0.62298
 O29 O 0.91582 0.69174 -0.11213
 O30 O 1.07211 0.69401 0.08559
 O31 O 0.90784 0.70385 0.08557
 O32 O 1.07004 0.68147 -0.10353
 O33 O 1.07402 0.80894 -0.09594
 O34 O 0.92177 0.83260 0.09755
 O35 O 1.07050 0.82367 0.09273
 O36 O 0.90630 0.81705 -0.08523
 Cu37 Cu 0.98866 0.67969 -0.00788
 Cu38 Cu 0.99390 0.82737 -0.00803
 C39 C 0.88029 0.75680 -0.12736
 C40 C 1.10220 0.75854 0.11834
 C41 C 0.88401 0.77007 0.12077
 C42 C 1.10318 0.74614 -0.12798
 O43 O 0.58784 0.19156 0.60280
 O44 O 0.43073 0.19360 0.40663
 O45 O 0.59128 0.20232 0.41008
 O46 O 0.42848 0.17990 0.59730
 O47 O 0.42792 0.30788 0.60043
 O48 O 0.58467 0.33167 0.41244
 O49 O 0.43050 0.32324 0.40615
 O50 O 0.58658 0.31942 0.59503
 Cu51 Cu 0.51089 0.17891 0.50302
 Cu52 Cu 0.50473 0.32727 0.50971
 C53 C 0.61712 0.25794 0.62801
 C54 C 0.39995 0.25837 0.37695
 C55 C 0.61878 0.26906 0.38194
 C56 C 0.39736 0.24426 0.62658
 O57 O 0.68040 -0.06830 0.09852
 O58 O 0.70191 0.08612 -0.10009
 O59 O 0.69780 -0.07165 -0.09293
 O60 O 0.69212 0.09379 0.09133
 O61 O 0.81814 0.07692 0.11047
 O62 O 0.82718 -0.06337 -0.09982
 O63 O 0.82918 0.09426 -0.07609
 O64 O 0.80758 -0.07825 0.08891
 Cu65 Cu 0.68007 0.01082 -0.00092
 Cu66 Cu 0.82804 0.00598 0.01047
 C67 C 0.74382 -0.10435 0.12133
 C68 C 0.76720 0.12160 -0.11733
 C69 C 0.76340 -0.09796 -0.12631
 C70 C 0.75766 0.11631 0.12804
 O71 O 0.17884 0.57071 0.40409
 O72 O 0.20272 0.41014 0.59413
 O73 O 0.19366 0.57030 0.59504
 O74 O 0.18981 0.40989 0.40228
 O75 O 0.31770 0.41123 0.40820
 O76 O 0.32316 0.57048 0.59421
 O77 O 0.33203 0.41650 0.58990
 O78 O 0.30672 0.57094 0.39939
 Cu79 Cu 0.17851 0.48915 0.49986
 Cu80 Cu 0.32681 0.49518 0.49123
 C81 C 0.24304 0.60166 0.37397
 C82 C 0.26959 0.38283 0.62175
 C83 C 0.25864 0.60125 0.62399
 C84 C 0.25578 0.37959 0.37755
 O85 O 0.29560 0.91191 -0.10227
 O86 O 0.31974 1.06991 0.09081
 O87 O 0.31162 0.90733 0.08903
 O88 O 0.30585 1.06896 -0.10130
 O89 O 0.17747 1.07655 -0.08672
 O90 O 0.18389 0.91474 0.09677
 O91 O 0.19180 1.06948 0.10127
 O92 O 0.16696 0.91585 -0.09057
 Cu93 Cu 0.32094 0.98855 -0.00645
 Cu94 Cu 0.17266 0.99463 0.00858
 C95 C 0.22850 0.88313 -0.12634
 C96 C 0.25612 1.10040 0.12392
 C97 C 0.24596 0.87987 0.11988
 C98 C 0.24138 1.10405 -0.12319
 O99 O 0.79637 0.59055 0.59400
 O100 O 0.82126 0.42842 0.40664
 O101 O 0.81091 0.58859 0.40250
 O102 O 0.80492 0.43054 0.59751
 O103 O 0.67539 0.43148 0.59649
 O104 O 0.68296 0.58677 0.40680
 O105 O 0.69333 0.42760 0.40186
 O106 O 0.66708 0.58527 0.58834
 Cu107 Cu 0.82116 0.51059 0.50145
 Cu108 Cu 0.67272 0.50488 0.49174
 C109 C 0.72954 0.61866 0.62044
 C110 C 0.75722 0.39708 0.37666
 C111 C 0.74499 0.61803 0.37627
 C112 C 0.73962 0.40060 0.62693
 C113 C 0.25439 0.17223 0.18781
 C114 C 0.18812 0.22539 0.19161
 C115 C 0.19384 0.29073 0.25590
 C116 C 0.26100 0.30762 0.31363
 C117 C 0.32774 0.25496 0.30957
 C118 C 0.32183 0.18849 0.24620
 H119 H 0.37091 0.14753 0.24302
 H120 H 0.14435 0.33119 0.25957
 C121 C 0.74592 0.82347 0.18488
 C122 C 0.81212 0.77001 0.18860
 C123 C 0.80634 0.70454 0.25205
 C124 C 0.73959 0.68872 0.31101
 C125 C 0.67286 0.74142 0.30719
 C126 C 0.67863 0.80739 0.24348
 H127 H 0.62947 0.84824 0.24038
 H128 H 0.85564 0.66378 0.25479
 C129 C 0.82855 0.24336 0.18968
 C130 C 0.76379 0.18781 0.19151
 C131 C 0.69751 0.20288 0.25153
 C132 C 0.69049 0.26942 0.31329
 C133 C 0.75493 0.32502 0.31305
 C134 C 0.82100 0.31094 0.25134
 H135 H 0.86821 0.35422 0.25230
 H136 H 0.64959 0.16031 0.25069
 C137 C 0.17430 0.75488 0.18592
 C138 C 0.24082 0.80803 0.18340
 C139 C 0.30706 0.79230 0.24301
 C140 C 0.31192 0.72745 0.30792
 C141 C 0.24598 0.67341 0.30988
 C142 C 0.17960 0.68867 0.24928
 H143 H 0.13067 0.64737 0.25107
 H144 H 0.35620 0.83337 0.24036
 C145 C 0.68680 0.26416 0.69499
 C146 C 0.74160 0.32915 0.69588
 C147 C 0.80835 0.32207 0.75801
 C148 C 0.82329 0.25495 0.81746
 C149 C 0.76661 0.19080 0.81924
 C150 C 0.69987 0.19897 0.75741
 H151 H 0.65655 0.15180 0.75565
 H152 H 0.85117 0.36973 0.75864
 C153 C 0.30938 0.73980 0.68799
 C154 C 0.25583 0.67386 0.69132
 C155 C 0.18914 0.68073 0.75392
 C156 C 0.17184 0.74905 0.81133
 C157 C 0.22711 0.81474 0.80901
 C158 C 0.29372 0.80674 0.74657
 H159 H 0.33559 0.85518 0.74275
 H160 H 0.14822 0.63146 0.75603
 C161 C 0.27025 0.31151 0.69085
 C162 C 0.32567 0.24707 0.69067
 C163 C 0.31173 0.18114 0.75226
 C164 C 0.24425 0.17320 0.81370
 C165 C 0.18874 0.23818 0.81293
 C166 C 0.20397 0.30457 0.75308
 H167 H 0.16170 0.35262 0.75412
 H168 H 0.35483 0.13386 0.75077
 C169 C 0.72934 0.69044 0.68878
 C170 C 0.67686 0.75724 0.68482
 C171 C 0.69493 0.82502 0.74178
 C172 C 0.76143 0.83029 0.80514
 C173 C 0.81282 0.76232 0.81076
 C174 C 0.79440 0.69509 0.75326
 H175 H 0.83318 0.64427 0.75709
 H176 H 0.65479 0.87478 0.73845
   
