data_POSCAR
  _audit_creation_date              2014-09-24
  _audit_creation_method            'ToBaCCo'
  _symmetry_space_group_name_H-M    'P1'
  _symmetry_Int_Tables_number       1
  _symmetry_cell_setting            triclinic
  loop_
  _symmetry_equiv_pos_as_xyz
 x,y,z
_cell_length_a 23.1048
_cell_length_b 23.1623
_cell_length_c 23.0768
_cell_angle_alpha 90.130500
_cell_angle_beta 90.128100
_cell_angle_gamma 90.000800
loop_
  _atom_site_label
  _atom_site_type_symbol
  _atom_site_fract_x
  _atom_site_fract_y
  _atom_site_fract_z
C1 C 0.44800 1.00042 -0.62404
 C2 C 0.50062 0.99997 -0.65381
 C3 C 0.55336 0.99945 -0.62404
 C4 C 0.55404 0.99966 -0.56271
 C5 C 0.50089 0.99985 -0.53200
 C6 C 0.44759 1.00009 -0.56272
 C7 C 0.39544 0.99998 -0.53130
 C8 C 0.39559 0.99958 -0.47101
 C9 C 0.44787 0.99951 -0.43974
 C10 C 0.50101 0.99978 -0.47043
 C11 C 0.60632 0.99971 -0.53128
 C12 C 0.60643 0.99999 -0.47098
 C13 C 0.55426 1.00000 -0.43963
 C14 C 0.55374 1.00020 -0.37829
 C15 C 0.50106 0.99966 -0.34865
 C16 C 0.44845 0.99918 -0.37853
 H17 H 0.35392 1.00010 -0.55316
 H18 H 0.35422 0.99943 -0.44908
 H19 H 0.64774 0.99963 -0.55313
 H20 H 0.64791 1.00009 -0.44907
 H21 H 0.50051 1.00001 -0.70091
 H22 H 0.50088 0.99961 -0.30158
 C23 C -0.55271 1.38001 0.00077
 C24 C -0.50008 1.35038 0.00026
 C25 C -0.44746 1.38003 -0.00033
 C26 C -0.44691 1.44104 -0.00015
 C27 C -0.50010 1.47166 0.00010
 C28 C -0.55328 1.44102 0.00043
 C29 C -0.60551 1.47213 0.00040
 C30 C -0.60557 1.53222 -0.00002
 C31 C -0.55336 1.56358 -0.00018
 C32 C -0.50011 1.53300 0.00002
 C33 C -0.39470 1.47217 -0.00020
 C34 C -0.39466 1.53227 0.00005
 C35 C -0.44688 1.56361 0.00014
 C36 C -0.44743 1.62471 0.00033
 C37 C -0.50014 1.65435 -0.00014
 C38 C -0.55284 1.62469 -0.00053
 H39 H -0.64689 1.45021 0.00059
 H40 H -0.64704 1.55398 -0.00011
 H41 H -0.35330 1.45027 -0.00034
 H42 H -0.35319 1.55404 0.00009
 H43 H -0.50007 1.30351 0.00032
 H44 H -0.50015 1.70128 -0.00020
 C45 C 0.00045 0.37609 0.44813
 C46 C -0.00006 0.34648 0.50085
 C47 C -0.00059 0.37615 0.55368
 C48 C -0.00034 0.43727 0.55432
 C49 C -0.00009 0.46786 0.50107
 C50 C 0.00017 0.43721 0.44771
 C51 C 0.00013 0.46851 0.39549
 C52 C -0.00021 0.52859 0.39562
 C53 C -0.00030 0.55979 0.44794
 C54 C -0.00010 0.52923 0.50117
 C55 C -0.00032 0.46862 0.60664
 C56 C 0.00001 0.52872 0.60672
 C57 C 0.00008 0.55995 0.55449
 C58 C 0.00033 0.62108 0.55396
 C59 C -0.00013 0.65057 0.50117
 C60 C -0.00057 0.62080 0.44848
 H61 H 0.00027 0.44670 0.35394
 H62 H -0.00031 0.55044 0.35419
 H63 H -0.00045 0.44686 0.64811
 H64 H 0.00009 0.55058 0.64824
 H65 H -0.00006 0.29955 0.50076
 H66 H -0.00014 0.69747 0.50097
 O67 O -0.14893 1.00172 -0.07833
 O68 O 0.14858 0.99780 -0.07793
 O69 O -0.00214 1.07770 -0.14902
 O70 O 0.00167 0.92158 -0.14920
 O71 O 0.00168 0.85080 -0.07879
 O72 O -0.00203 1.14863 -0.07844
 O73 O 0.07818 0.99776 -0.14911
 O74 O -0.07865 1.00156 -0.14932
 Zr75 Zr -0.00019 0.99970 -0.10199
 O76 O 0.05224 0.94723 -0.05253
 O77 O -0.05254 1.05230 -0.05255
 C78 C -0.13192 1.00250 -0.13178
 C79 C 0.13149 0.99688 -0.13143
 C80 C -0.00296 1.13102 -0.13186
 C81 C 0.00253 0.86830 -0.13215
 H82 H 0.07674 1.07654 -0.07680
 O83 O 0.05198 1.05201 -0.05213
 H84 H -0.07710 0.92294 -0.07719
 O85 O -0.05229 0.94752 -0.05240
 O86 O 0.14874 1.00180 0.07838
 O87 O -0.14880 0.99801 0.07800
 O88 O 0.07844 1.14870 0.00224
 O89 O 0.07847 0.85093 -0.00193
 O90 O -0.07874 0.85097 0.00167
 O91 O -0.07858 1.14873 -0.00172
 O92 O 0.00197 1.07796 0.14936
 O93 O -0.00190 0.92188 0.14912
 O94 O 0.00189 1.14877 0.07899
 O95 O -0.00195 0.85097 0.07853
 O96 O 0.14869 1.07775 0.00227
 O97 O -0.14886 1.07781 -0.00197
 O98 O -0.14893 0.92198 0.00169
 O99 O 0.14869 0.92192 -0.00179
 O100 O 0.07851 1.00181 0.14941
 O101 O -0.07842 0.99806 0.14921
 Zr102 Zr 0.10143 0.99982 0.00018
 Zr103 Zr -0.10164 0.99986 -0.00009
 Zr104 Zr -0.00008 1.10183 0.00020
 Zr105 Zr -0.00013 0.89778 -0.00007
 Zr106 Zr -0.00000 0.99989 0.10211
 O107 O -0.05247 0.94737 0.05251
 O108 O 0.05237 1.05237 0.05280
 C109 C 0.13179 1.00269 0.13184
 C110 C -0.13173 0.99718 0.13150
 C111 C 0.13171 1.13107 0.00317
 C112 C 0.13174 0.86859 -0.00274
 C113 C -0.13201 0.86866 0.00251
 C114 C -0.13186 1.13112 -0.00272
 C115 C 0.00281 1.13124 0.13236
 C116 C -0.00278 0.86857 0.13194
 H117 H -0.07691 1.07671 0.07712
 O118 O -0.05216 1.05212 0.05239
 H119 H 0.07686 0.92306 0.07710
 O120 O 0.05207 0.94760 0.05237
 C121 C 0.39811 1.00127 0.34396
 C122 C 0.35472 1.00206 0.31487
 C123 C 0.30480 1.00292 0.27958
 C124 C 0.26311 1.00346 0.24813
 C125 C 0.21563 1.00374 0.20958
 C126 C 0.17645 1.00355 0.17504
 C127 C -0.39690 0.99864 0.34394
 C128 C -0.35369 0.99787 0.31478
 C129 C -0.30400 0.99703 0.27936
 C130 C -0.26253 0.99650 0.24782
 C131 C -0.21528 0.99620 0.20919
 C132 C -0.17627 0.99636 0.17462
 C133 C -0.39649 1.00103 -0.34613
 C134 C -0.35332 1.00181 -0.31671
 C135 C -0.30378 1.00265 -0.28089
 C136 C -0.26245 1.00319 -0.24897
 C137 C -0.21539 1.00349 -0.20992
 C138 C -0.17648 1.00332 -0.17508
 C139 C 0.39591 0.99827 -0.34471
 C140 C 0.35281 0.99746 -0.31543
 C141 C 0.30328 0.99660 -0.27981
 C142 C 0.26196 0.99606 -0.24808
 C143 C 0.21488 0.99579 -0.20926
 C144 C 0.17598 0.99600 -0.17459
 C145 C 0.39480 1.34609 0.00172
 C146 C 0.35189 1.31651 0.00256
 C147 C 0.30271 1.28040 0.00344
 C148 C 0.26172 1.24824 0.00399
 C149 C 0.21498 1.20902 0.00427
 C150 C 0.17625 1.17417 0.00407
 C151 C 0.39734 0.65661 -0.00135
 C152 C 0.35407 0.68572 -0.00211
 C153 C 0.30434 0.72110 -0.00294
 C154 C 0.26283 0.75261 -0.00347
 C155 C 0.21551 0.79116 -0.00375
 C156 C 0.17642 0.82562 -0.00358
 C157 C -0.39761 0.65666 0.00108
 C158 C -0.35436 0.68579 0.00181
 C159 C -0.30463 0.72119 0.00261
 C160 C -0.26312 0.75270 0.00313
 C161 C -0.21580 0.79125 0.00343
 C162 C -0.17671 0.82570 0.00328
 C163 C -0.39495 1.34613 -0.00122
 C164 C -0.35203 1.31656 -0.00202
 C165 C -0.30284 1.28046 -0.00287
 C166 C -0.26184 1.24831 -0.00342
 C167 C -0.21511 1.20909 -0.00372
 C168 C -0.17638 1.17423 -0.00355
 C169 C 0.00130 1.34410 0.39820
 C170 C 0.00210 1.31488 0.35487
 C171 C 0.00296 1.27933 0.30510
 C172 C 0.00351 1.24768 0.26356
 C173 C 0.00382 1.20895 0.21621
 C174 C 0.00365 1.17436 0.17709
 C175 C -0.00144 1.34418 -0.39652
 C176 C -0.00223 1.31492 -0.35336
 C177 C -0.00309 1.27927 -0.30381
 C178 C -0.00364 1.24752 -0.26249
 C179 C -0.00395 1.20871 -0.21538
 C180 C -0.00379 1.17409 -0.17644
 C181 C 0.00112 0.65323 -0.39622
 C182 C 0.00186 0.68278 -0.35312
 C183 C 0.00267 0.71885 -0.30373
 C184 C 0.00319 0.75098 -0.26256
 C185 C 0.00348 0.79020 -0.21563
 C186 C 0.00332 0.82508 -0.17677
 C187 C -0.00141 0.65457 0.39586
 C188 C -0.00216 0.68397 0.35281
 C189 C -0.00297 0.71982 0.30342
 C190 C -0.00349 0.75174 0.26224
 C191 C -0.00377 0.79074 0.21530
 C192 C -0.00360 0.82546 0.17647
   
