data_POSCAR
  _audit_creation_date              2014-09-24
  _audit_creation_method            'ToBaCCo'
  _symmetry_space_group_name_H-M    'P1'
  _symmetry_Int_Tables_number       1
  _symmetry_cell_setting            triclinic
  loop_
  _symmetry_equiv_pos_as_xyz
 x,y,z
_cell_length_a 55.3123
_cell_length_b 55.3079
_cell_length_c 55.3478
_cell_angle_alpha 89.995700
_cell_angle_beta 89.996100
_cell_angle_gamma 90.035300
loop_
  _atom_site_label
  _atom_site_type_symbol
  _atom_site_fract_x
  _atom_site_fract_y
  _atom_site_fract_z
N1 N 0.16907 0.22644 0.23219
 N2 N 0.17555 0.20721 0.24458
 C3 C 0.16000 0.20409 0.26307
 C4 C 0.14300 0.22237 0.26217
 C5 C 0.14929 0.23623 0.24239
 H6 H 0.16094 0.18971 0.27627
 H7 H 0.14009 0.25221 0.23590
 Cu8 Cu 0.20380 0.18836 0.23537
 Cu9 Cu 0.18659 0.23735 0.20372
 Cu10 Cu 0.23684 0.20404 0.18679
 N11 N 0.23214 0.16990 0.22567
 N12 N 0.24486 0.17604 0.20655
 C13 C 0.26324 0.16034 0.20379
 C14 C 0.26200 0.14352 0.22220
 C15 C 0.24209 0.15009 0.23577
 H16 H 0.27657 0.16111 0.18952
 H17 H 0.23540 0.14105 0.25175
 N18 N 0.22584 0.23292 0.16910
 N19 N 0.20660 0.24552 0.17546
 C20 C 0.20370 0.26397 0.15984
 C21 C 0.22203 0.26294 0.14295
 C22 C 0.23575 0.24310 0.14932
 H23 H 0.18940 0.27727 0.16067
 H24 H 0.25172 0.23659 0.14014
 H25 H 0.20022 0.20384 0.19431
 H26 H 0.21972 0.22333 0.21384
 N27 N 0.66938 0.72677 0.73224
 N28 N 0.67586 0.70751 0.74458
 C29 C 0.66033 0.70437 0.76310
 C30 C 0.64336 0.72268 0.76226
 C31 C 0.64963 0.73657 0.74249
 H32 H 0.66125 0.68993 0.77624
 H33 H 0.64043 0.75255 0.73602
 Cu34 Cu 0.70393 0.68857 0.73505
 Cu35 Cu 0.68686 0.73769 0.70372
 Cu36 Cu 0.73714 0.70434 0.68671
 N37 N 0.73239 0.67020 0.72560
 N38 N 0.74513 0.67637 0.70650
 C39 C 0.76350 0.66067 0.70372
 C40 C 0.76224 0.64383 0.72210
 C41 C 0.74233 0.65038 0.73568
 H42 H 0.77683 0.66144 0.68945
 H43 H 0.73560 0.64128 0.75162
 N44 N 0.72612 0.73322 0.66907
 N45 N 0.70688 0.74582 0.67545
 C46 C 0.70402 0.76430 0.65985
 C47 C 0.72236 0.76326 0.64299
 C48 C 0.73605 0.74340 0.64932
 H49 H 0.68974 0.77761 0.66070
 H50 H 0.75203 0.73690 0.64014
 H51 H 0.70052 0.70426 0.69403
 H52 H 0.72000 0.72358 0.71370
 N53 N 0.33012 0.77366 0.73234
 N54 N 0.32362 0.79288 0.74474
 C55 C 0.33919 0.79603 0.76322
 C56 C 0.35622 0.77775 0.76231
 C57 C 0.34993 0.76389 0.74254
 H58 H 0.33826 0.81044 0.77639
 H59 H 0.35916 0.74795 0.73601
 Cu60 Cu 0.29548 0.81176 0.73524
 Cu61 Cu 0.31262 0.76274 0.70382
 Cu62 Cu 0.26239 0.79615 0.68679
 N63 N 0.26704 0.83024 0.72579
 N64 N 0.25441 0.82418 0.70658
 C65 C 0.23611 0.83996 0.70373
 C66 C 0.23728 0.85674 0.72220
 C67 C 0.25711 0.85005 0.73591
 H68 H 0.22290 0.83925 0.68934
 H69 H 0.26378 0.85902 0.75194
 N70 N 0.27336 0.76720 0.66914
 N71 N 0.29258 0.75458 0.67554
 C72 C 0.29542 0.73606 0.66000
 C73 C 0.27708 0.73705 0.64312
 C74 C 0.26341 0.75696 0.64941
 H75 H 0.30968 0.72273 0.66088
 H76 H 0.24743 0.76346 0.64022
 H77 H 0.29903 0.79619 0.69417
 H78 H 0.27950 0.77681 0.71372
 N79 N 0.83147 0.27353 0.23259
 N80 N 0.82523 0.29303 0.24467
 C81 C 0.84076 0.29624 0.26316
 C82 C 0.85751 0.27768 0.26260
 C83 C 0.85109 0.26360 0.24299
 H84 H 0.83990 0.31082 0.27616
 H85 H 0.86003 0.24737 0.23676
 Cu86 Cu 0.79699 0.31170 0.23516
 Cu87 Cu 0.81388 0.26240 0.20419
 Cu88 Cu 0.76363 0.29584 0.18710
 N89 N 0.76875 0.33037 0.22565
 N90 N 0.75582 0.32401 0.20674
 C91 C 0.73736 0.33962 0.20407
 C92 C 0.73876 0.35660 0.22232
 C93 C 0.75886 0.35023 0.23571
 H94 H 0.72382 0.33865 0.19000
 H95 H 0.76567 0.35939 0.25158
 N96 N 0.77453 0.26679 0.16959
 N97 N 0.79374 0.25415 0.17599
 C98 C 0.79662 0.23569 0.16037
 C99 C 0.77832 0.23677 0.14346
 C100 C 0.76463 0.25664 0.14980
 H101 H 0.81092 0.22240 0.16119
 H102 H 0.74872 0.26321 0.14056
 H103 H 0.80022 0.29568 0.19430
 H104 H 0.78074 0.27655 0.21412
 N105 N 0.83096 0.72655 0.26785
 N106 N 0.82467 0.70707 0.25576
 C107 C 0.84020 0.70388 0.23726
 C108 C 0.85698 0.72240 0.23785
 C109 C 0.85060 0.73645 0.25746
 H110 H 0.83935 0.68934 0.22423
 H111 H 0.85959 0.75267 0.26367
 Cu112 Cu 0.79643 0.68838 0.26527
 Cu113 Cu 0.81332 0.73769 0.29621
 Cu114 Cu 0.76301 0.70423 0.31327
 N115 N 0.76819 0.66968 0.27477
 N116 N 0.75524 0.67603 0.29365
 C117 C 0.73679 0.66038 0.29632
 C118 C 0.73823 0.64340 0.27809
 C119 C 0.75833 0.64980 0.26470
 H120 H 0.72323 0.66134 0.31037
 H121 H 0.76517 0.64064 0.24886
 N122 N 0.77390 0.73330 0.33074
 N123 N 0.79313 0.74594 0.32435
 C124 C 0.79598 0.76444 0.33992
 C125 C 0.77764 0.76338 0.35678
 C126 C 0.76396 0.74349 0.35047
 H127 H 0.81029 0.77775 0.33910
 H128 H 0.74803 0.73693 0.35970
 H129 H 0.79961 0.70442 0.30612
 H130 H 0.78018 0.72352 0.28626
 N131 N 0.33092 0.22663 -0.23262
 N132 N 0.32455 0.20729 -0.24490
 C133 C 0.34018 0.20411 -0.26333
 C134 C 0.35713 0.22252 -0.26254
 C135 C 0.35070 0.23649 -0.24284
 H136 H 0.33930 0.18960 -0.27640
 H137 H 0.35977 0.25257 -0.23639
 Cu138 Cu 0.29624 0.18842 -0.23568
 Cu139 Cu 0.31330 0.23754 -0.20415
 Cu140 Cu 0.26305 0.20417 -0.18721
 N141 N 0.26783 0.16994 -0.22599
 N142 N 0.25508 0.17613 -0.20692
 C143 C 0.23666 0.16043 -0.20415
 C144 C 0.23791 0.14357 -0.22251
 C145 C 0.25787 0.15010 -0.23606
 H146 H 0.22329 0.16125 -0.18992
 H147 H 0.26458 0.14101 -0.25200
 N148 N 0.27397 0.23310 -0.16955
 N149 N 0.29321 0.24573 -0.17590
 C150 C 0.29605 0.26421 -0.16029
 C151 C 0.27768 0.26316 -0.14343
 C152 C 0.26401 0.24327 -0.14980
 H153 H 0.31034 0.27754 -0.16110
 H154 H 0.24803 0.23672 -0.14064
 H155 H 0.29967 0.20403 -0.19464
 H156 H 0.28019 0.22341 -0.21426
 N157 N 0.66920 0.27311 -0.23247
 N158 N 0.67556 0.29246 -0.24476
 C159 C 0.65995 0.29560 -0.26321
 C160 C 0.64304 0.27716 -0.26243
 C161 C 0.64946 0.26322 -0.24271
 H162 H 0.66084 0.31010 -0.27629
 H163 H 0.64039 0.24713 -0.23626
 Cu164 Cu 0.70381 0.31137 -0.23551
 Cu165 Cu 0.68681 0.26226 -0.20397
 Cu166 Cu 0.73699 0.29575 -0.18702
 N167 N 0.73214 0.32993 -0.22585
 N168 N 0.74490 0.32378 -0.20675
 C169 C 0.76325 0.33951 -0.20398
 C170 C 0.76198 0.35636 -0.22234
 C171 C 0.74206 0.34978 -0.23592
 H172 H 0.77662 0.33874 -0.18973
 H173 H 0.73534 0.35885 -0.25187
 N174 N 0.72611 0.26682 -0.16935
 N175 N 0.70689 0.25414 -0.17570
 C176 C 0.70409 0.23568 -0.16006
 C177 C 0.72244 0.23679 -0.14320
 C178 C 0.73608 0.25670 -0.14958
 H179 H 0.68983 0.22232 -0.16086
 H180 H 0.75203 0.26329 -0.14042
 H181 H 0.70040 0.29579 -0.19444
 H182 H 0.71993 0.27644 -0.21401
 N183 N 0.16934 0.77384 0.26784
 N184 N 0.17570 0.79326 0.25568
 C185 C 0.16016 0.79646 0.23720
 C186 C 0.14331 0.77801 0.23784
 C187 C 0.14965 0.76399 0.25748
 H188 H 0.16101 0.81102 0.22418
 H189 H 0.14060 0.74782 0.26373
 Cu190 Cu 0.20384 0.81212 0.26522
 Cu191 Cu 0.18688 0.76277 0.29626
 Cu192 Cu 0.23715 0.79621 0.31339
 N193 N 0.23226 0.83060 0.27471
 N194 N 0.24506 0.82438 0.29375
 C195 C 0.26347 0.84008 0.29649
 C196 C 0.26218 0.85698 0.27812
 C197 C 0.24217 0.85044 0.26461
 H198 H 0.27689 0.83918 0.31068
 H199 H 0.23537 0.85952 0.24870
 N200 N 0.22620 0.76714 0.33090
 N201 N 0.20698 0.75451 0.32447
 C202 C 0.20407 0.73602 0.34005
 C203 C 0.22236 0.73705 0.35698
 C204 C 0.23607 0.75694 0.35068
 H205 H 0.18976 0.72272 0.33920
 H206 H 0.25199 0.76349 0.35994
 H207 H 0.20057 0.79606 0.30613
 H208 H 0.22004 0.77694 0.28635
 N209 N 0.47664 0.41872 0.48244
 N210 N 0.45738 0.42517 0.49480
 C211 C 0.45425 0.40962 0.51329
 C212 C 0.47256 0.39263 0.51246
 C213 C 0.48644 0.39894 0.49268
 H214 H 0.43983 0.41056 0.52646
 H215 H 0.50245 0.38977 0.48623
 Cu216 Cu 0.43848 0.45338 0.48548
 Cu217 Cu 0.48750 0.43633 0.45391
 Cu218 Cu 0.45402 0.48650 0.43690
 N219 N 0.41988 0.48165 0.47579
 N220 N 0.42600 0.49437 0.45667
 C221 C 0.41022 0.51266 0.45384
 C222 C 0.39337 0.51136 0.47220
 C223 C 0.40000 0.49151 0.48584
 H224 H 0.41095 0.52598 0.43956
 H225 H 0.39095 0.48480 0.50181
 N226 N 0.48296 0.47561 0.41924
 N227 N 0.49562 0.45640 0.42561
 C228 C 0.51408 0.45359 0.40998
 C229 C 0.51299 0.47192 0.39308
 C230 C 0.49309 0.48556 0.39946
 H231 H 0.52743 0.43933 0.41080
 H232 H 0.48651 0.50151 0.39027
 H233 H 0.47334 0.46954 0.46388
 H234 H 0.45395 0.44997 0.44437
 N235 N -0.02361 -0.08096 0.98204
 N236 N -0.04302 -0.07466 0.99421
 C237 C -0.04619 -0.09018 1.01271
 C238 C -0.02773 -0.10699 1.01207
 C239 C -0.01372 -0.10063 0.99241
 H240 H -0.06069 -0.08930 1.02579
 H241 H 0.00244 -0.10966 0.98615
 Cu242 Cu -0.06181 -0.04645 0.98487
 Cu243 Cu -0.01260 -0.06332 0.95361
 Cu244 Cu -0.04603 -0.01302 0.93668
 N245 N -0.08042 -0.01820 0.97532
 N246 N -0.07412 -0.00523 0.95642
 C247 C -0.08975 0.01324 0.95384
 C248 C -0.10667 0.01177 0.97213
 C249 C -0.10026 -0.00835 0.98545
 H250 H -0.08882 0.02681 0.93980
 H251 H -0.10938 -0.01521 1.00131
 N252 N -0.01704 -0.02389 0.91904
 N253 N -0.00441 -0.04313 0.92539
 C254 C 0.01402 -0.04599 0.90972
 C255 C 0.01293 -0.02767 0.89282
 C256 C -0.00692 -0.01398 0.89923
 H257 H 0.02730 -0.06030 0.91050
 H258 H -0.01351 0.00195 0.89002
 H259 H -0.02671 -0.03018 0.96363
 H260 H -0.04592 -0.04961 0.94388
 N261 N 1.02353 0.58083 0.98219
 N262 N 1.04278 0.57435 0.99456
 C263 C 1.04591 0.58989 1.01304
 C264 C 1.02762 0.60687 1.01219
 C265 C 1.01374 0.60060 0.99242
 H266 H 1.06033 0.58896 1.02621
 H267 H 0.99775 0.60979 0.98595
 Cu268 Cu 1.06167 0.54617 0.98532
 Cu269 Cu 1.01268 0.56330 0.95368
 Cu270 Cu 1.04606 0.51310 0.93672
 N271 N 1.08018 0.51789 0.97561
 N272 N 1.07403 0.50514 0.95651
 C273 C 1.08975 0.48680 0.95374
 C274 C 1.10659 0.48810 0.97211
 C275 C 1.10003 0.50801 0.98567
 H276 H 1.08898 0.47344 0.93949
 H277 H 1.10911 0.51475 1.00161
 N278 N 1.01719 0.52405 0.91903
 N279 N 1.00456 0.54327 0.92539
 C280 C 0.98613 0.54614 0.90974
 C281 C 0.98723 0.52783 0.89283
 C282 C 1.00708 0.51414 0.89922
 H283 H 0.97282 0.56042 0.91055
 H284 H 1.01364 0.49819 0.89004
 H285 H 1.02675 0.53014 0.96374
 H286 H 1.04622 0.54969 0.94425
 N287 N 0.52362 0.08106 0.48233
 N288 N 0.54306 0.07474 0.49447
 C289 C 0.54628 0.09027 0.51296
 C290 C 0.52783 0.10710 0.51238
 C291 C 0.51377 0.10073 0.49274
 H292 H 0.56085 0.08942 0.52596
 H293 H 0.49759 0.10976 0.48651
 Cu294 Cu 0.56198 0.04667 0.48490
 Cu295 Cu 0.51263 0.06340 0.45385
 Cu296 Cu 0.54611 0.01318 0.43677
 N297 N 0.58052 0.01836 0.47539
 N298 N 0.57422 0.00542 0.45647
 C299 C 0.58990 -0.01298 0.45378
 C300 C 0.60687 -0.01150 0.47201
 C301 C 0.60044 0.00856 0.48542
 H302 H 0.58898 -0.02652 0.43972
 H303 H 0.60963 0.01544 0.50123
 N304 N 0.51709 0.02403 0.41921
 N305 N 0.50442 0.04323 0.42559
 C306 C 0.48597 0.04606 0.40994
 C307 C 0.48709 0.02775 0.39301
 C308 C 0.50698 0.01410 0.39940
 H309 H 0.47265 0.06033 0.41073
 H310 H 0.51359 -0.00181 0.39019
 H311 H 0.52690 0.03020 0.46376
 H312 H 0.54600 0.04969 0.44395
 N313 N -0.02379 0.08109 0.51769
 N314 N -0.04305 0.07459 0.50534
 C315 C -0.04624 0.09013 0.48686
 C316 C -0.02796 0.10715 0.48770
 C317 C -0.01404 0.10089 0.50745
 H318 H -0.06064 0.08914 0.47369
 H319 H 0.00197 0.11010 0.51387
 Cu320 Cu -0.06169 0.04622 0.51448
 Cu321 Cu -0.01285 0.06351 0.54617
 Cu322 Cu -0.04631 0.01328 0.56315
 N323 N -0.08047 0.01818 0.52430
 N324 N -0.07434 0.00543 0.54340
 C325 C -0.09014 -0.01287 0.54620
 C326 C -0.10699 -0.01152 0.52786
 C327 C -0.10037 0.00836 0.51426
 H328 H -0.08939 -0.02625 0.56043
 H329 H -0.10942 0.01508 0.49830
 N330 N -0.01736 0.02418 0.58079
 N331 N -0.00470 0.04341 0.57443
 C332 C 0.01374 0.04626 0.59009
 C333 C 0.01262 0.02793 0.60699
 C334 C -0.00726 0.01426 0.60059
 H335 H 0.02707 0.06054 0.58929
 H336 H -0.01386 -0.00169 0.60977
 H337 H -0.02684 0.03026 0.53622
 H338 H -0.04636 0.04981 0.55559
 N339 N 0.47647 0.58107 0.01793
 N340 N 0.45700 0.57480 0.00582
 C341 C 0.45382 0.59032 -0.01268
 C342 C 0.47234 0.60710 -0.01209
 C343 C 0.48638 0.60071 0.00754
 H344 H 0.43929 0.58947 -0.02571
 H345 H 0.50260 0.60971 0.01375
 Cu346 Cu 0.43825 0.54658 0.01531
 Cu347 Cu 0.48755 0.56339 0.04634
 Cu348 Cu 0.45401 0.51311 0.06335
 N349 N 0.41952 0.51836 0.02479
 N350 N 0.42583 0.50539 0.04368
 C351 C 0.41014 0.48697 0.04633
 C352 C 0.39318 0.48845 0.02809
 C353 C 0.39963 0.50854 0.01471
 H354 H 0.41106 0.47342 0.06039
 H355 H 0.39049 0.51539 -0.00114
 N356 N 0.48309 0.52395 0.08089
 N357 N 0.49576 0.54318 0.07452
 C358 C 0.51423 0.54601 0.09014
 C359 C 0.51313 0.52767 0.10702
 C360 C 0.49323 0.51401 0.10066
 H361 H 0.52755 0.56030 0.08934
 H362 H 0.48664 0.49807 0.10987
 H363 H 0.47333 0.53023 0.03638
 H364 H 0.45423 0.54969 0.05621
 N365 N 0.52369 -0.08103 0.01801
 N366 N 0.54316 -0.07475 0.00589
 C367 C 0.54632 -0.09027 -0.01263
 C368 C 0.52780 -0.10704 -0.01204
 C369 C 0.51377 -0.10067 0.00760
 H370 H 0.56085 -0.08940 -0.02568
 H371 H 0.49756 -0.10966 0.01382
 Cu372 Cu 0.56192 -0.04655 0.01539
 Cu373 Cu 0.51263 -0.06337 0.04644
 Cu374 Cu 0.54619 -0.01313 0.06349
 N375 N 0.58067 -0.01835 0.02489
 N376 N 0.57437 -0.00540 0.04381
 C377 C 0.59007 0.01300 0.04647
 C378 C 0.60703 0.01155 0.02822
 C379 C 0.60056 -0.00852 0.01482
 H380 H 0.58917 0.02654 0.06055
 H381 H 0.60970 -0.01535 -0.00105
 N382 N 0.51710 -0.02397 0.08105
 N383 N 0.50443 -0.04318 0.07466
 C384 C 0.48596 -0.04602 0.09028
 C385 C 0.48704 -0.02771 0.10720
 C386 C 0.50695 -0.01404 0.10084
 H387 H 0.47264 -0.06032 0.08947
 H388 H 0.51356 0.00187 0.11007
 H389 H 0.52685 -0.03021 0.03651
 H390 H 0.54596 -0.04970 0.05630
 N391 N 1.02312 0.41929 0.51736
 N392 N 1.04220 0.42596 0.50483
 C393 C 1.04529 0.41050 0.48627
 C394 C 1.02716 0.39334 0.48727
 C395 C 1.01341 0.39944 0.50718
 H396 H 1.05956 0.41162 0.47295
 H397 H 0.99759 0.39004 0.51381
 Cu398 Cu 1.06091 0.45427 0.51410
 Cu399 Cu 1.01235 0.43668 0.54602
 Cu400 Cu 1.04590 0.48693 0.56300
 N401 N 1.07971 0.48237 0.52379
 N402 N 1.07379 0.49495 0.54307
 C403 C 1.08967 0.51317 0.54591
 C404 C 1.10636 0.51197 0.52739
 C405 C 1.09954 0.49225 0.51366
 H406 H 1.08915 0.52634 0.56034
 H407 H 1.10842 0.48565 0.49755
 N408 N 1.01708 0.47587 0.58079
 N409 N 1.00440 0.45665 0.57443
 C410 C 0.98597 0.45380 0.59009
 C411 C 0.98711 0.47211 0.60700
 C412 C 1.00700 0.48578 0.60060
 H413 H 0.97259 0.43956 0.58926
 H414 H 1.01356 0.50175 0.60976
 H415 H 1.02620 0.46995 0.53627
 H416 H 1.04586 0.45035 0.55538
 Si417 Si 0.37385 -0.00043 0.25022
 Si418 Si 0.12592 -0.00047 0.74964
 Si419 Si 0.62598 0.49977 0.25006
 Si420 Si 0.87423 0.50010 0.74992
 Si421 Si 0.24997 0.37575 -0.00011
 Si422 Si 0.75020 0.12435 0.00020
 Si423 Si 0.25016 0.62409 0.49994
 Si424 Si 0.74991 0.87586 0.49989
 Si425 Si -0.00043 0.25007 0.37457
 Si426 Si 0.00015 0.75001 0.12507
 Si427 Si 0.50017 0.24981 0.62610
 Si428 Si 0.49982 0.75009 0.87469
 C429 C 0.08487 0.23388 0.30906
 N430 N 0.08976 0.24982 0.29107
 N431 N 0.10828 0.24612 0.27613
 C432 C 0.12260 0.22637 0.27867
 N433 N 0.11774 0.21042 0.29668
 N434 N 0.09918 0.21409 0.31159
 C435 C 0.06434 0.23793 0.32538
 N436 N 0.05834 0.22126 0.34238
 N437 N 0.03950 0.22487 0.35693
 C438 C 0.02608 0.24529 0.35505
 N439 N 0.03207 0.26199 0.33814
 N440 N 0.05087 0.25837 0.32354
 C441 C 0.58517 0.73408 0.80914
 N442 N 0.59007 0.75005 0.79117
 N443 N 0.60860 0.74638 0.77624
 C444 C 0.62294 0.72664 0.77877
 N445 N 0.61807 0.71067 0.79675
 N446 N 0.59950 0.71431 0.81165
 C447 C 0.56462 0.73810 0.82546
 N448 N 0.55865 0.72141 0.84244
 N449 N 0.53979 0.72497 0.85700
 C450 C 0.52634 0.74537 0.85513
 N451 N 0.53230 0.76209 0.83824
 N452 N 0.55111 0.75851 0.82364
 C453 C 0.41448 0.76628 0.80912
 N454 N 0.40955 0.75033 0.79114
 N455 N 0.39101 0.75403 0.77623
 C456 C 0.37668 0.77378 0.77878
 N457 N 0.38158 0.78973 0.79678
 N458 N 0.40017 0.78606 0.81166
 C459 C 0.43502 0.76220 0.82545
 N460 N 0.44101 0.77886 0.84246
 N461 N 0.45984 0.77526 0.85703
 C462 C 0.47326 0.75483 0.85516
 N463 N 0.46728 0.73814 0.83825
 N464 N 0.44849 0.74176 0.82364
 C465 C -0.08571 0.26622 0.30904
 N466 N -0.09028 0.25051 0.29076
 N467 N -0.10869 0.25426 0.27571
 C468 C -0.12326 0.27383 0.27840
 N469 N -0.11872 0.28952 0.29673
 N470 N -0.10025 0.28581 0.31175
 C471 C -0.06523 0.26214 0.32540
 N472 N -0.05937 0.27873 0.34253
 N473 N -0.04051 0.27514 0.35708
 C474 C -0.02697 0.25481 0.35507
 N475 N -0.03283 0.23819 0.33805
 N476 N -0.05163 0.24181 0.32345
 C477 C -0.08519 0.73400 0.19059
 N478 N -0.09936 0.71407 0.18831
 N479 N -0.11784 0.71038 0.20332
 C480 C -0.12276 0.72645 0.22119
 N481 N -0.10859 0.74636 0.22347
 N482 N -0.09016 0.75008 0.20844
 C483 C -0.06468 0.73802 0.17424
 N484 N -0.05122 0.75849 0.17597
 N485 N -0.03240 0.76206 0.16138
 C486 C -0.02637 0.74528 0.14459
 N487 N -0.03978 0.72482 0.14280
 N488 N -0.05865 0.72126 0.15736
 C489 C 0.41444 0.23377 0.69145
 N490 N 0.39971 0.21433 0.68854
 N491 N 0.38109 0.21069 0.70340
 C492 C 0.37655 0.22630 0.72181
 N493 N 0.39132 0.24572 0.72471
 N494 N 0.40988 0.24940 0.70981
 C495 C 0.43508 0.23779 0.67518
 N496 N 0.44874 0.25812 0.67716
 N497 N 0.46761 0.26170 0.66262
 C498 C 0.47353 0.24507 0.64563
 N499 N 0.45993 0.22475 0.64360
 N500 N 0.44100 0.22119 0.65809
 C501 C 0.58583 0.26584 0.69149
 N502 N 0.59037 0.25023 0.70986
 N503 N 0.60890 0.25393 0.72479
 C504 C 0.62366 0.27335 0.72189
 N505 N 0.61914 0.28895 0.70347
 N506 N 0.60055 0.28529 0.68858
 C507 C 0.56521 0.26182 0.67521
 N508 N 0.55931 0.27841 0.65810
 N509 N 0.54039 0.27486 0.64361
 C510 C 0.52678 0.25455 0.64565
 N511 N 0.53268 0.23793 0.66266
 N512 N 0.55154 0.24151 0.67720
 C513 C 0.08542 0.76630 0.19065
 N514 N 0.09041 0.75027 0.20853
 N515 N 0.10885 0.75404 0.22354
 C516 C 0.12301 0.77395 0.22120
 N517 N 0.11807 0.78997 0.20329
 N518 N 0.09958 0.78623 0.18830
 C519 C 0.06491 0.76220 0.17429
 N520 N 0.05888 0.77890 0.15735
 N521 N 0.04004 0.77528 0.14278
 C522 C 0.02667 0.75479 0.14460
 N523 N 0.03270 0.73806 0.16145
 N524 N 0.05149 0.74171 0.17606
 C525 C 0.30860 0.08520 0.23421
 N526 N 0.31129 0.09946 0.21442
 N527 N 0.29647 0.11807 0.21062
 C528 C 0.27838 0.12305 0.22643
 N529 N 0.27568 0.10878 0.24621
 N530 N 0.29053 0.09021 0.25004
 C531 C 0.32482 0.06458 0.23830
 N532 N 0.32291 0.05104 0.25868
 N533 N 0.33744 0.03216 0.26225
 C534 C 0.35435 0.02617 0.24557
 N535 N 0.35632 0.03967 0.22521
 N536 N 0.34183 0.05858 0.22165
 C537 C 0.80883 0.58551 0.73389
 N538 N 0.81148 0.59981 0.71413
 N539 N 0.79665 0.61841 0.71039
 C540 C 0.77859 0.62334 0.72625
 N541 N 0.77591 0.60903 0.74599
 N542 N 0.79078 0.59047 0.74976
 C543 C 0.82510 0.56495 0.73796
 N544 N 0.82322 0.55142 0.75835
 N545 N 0.83780 0.53260 0.76194
 C546 C 0.85473 0.52665 0.74525
 N547 N 0.85665 0.54013 0.72488
 N548 N 0.84212 0.55900 0.72131
 C549 C 0.80869 0.41467 0.76586
 N550 N 0.79063 0.40973 0.75000
 N551 N 0.77572 0.39118 0.75376
 C552 C 0.77838 0.37685 0.77350
 N553 N 0.79646 0.38176 0.78934
 N554 N 0.81133 0.40036 0.78561
 C555 C 0.82499 0.43525 0.76181
 N556 N 0.84202 0.44118 0.77847
 N557 N 0.85658 0.46005 0.77493
 C558 C 0.85468 0.47356 0.75458
 N559 N 0.83774 0.46763 0.73789
 N560 N 0.82313 0.44881 0.74145
 C561 C 0.30820 -0.08587 0.26625
 N562 N 0.28955 -0.09028 0.25092
 N563 N 0.27460 -0.10879 0.25477
 C564 C 0.27779 -0.12363 0.27407
 N565 N 0.29649 -0.11923 0.28936
 N566 N 0.31139 -0.10067 0.28555
 C567 C 0.32453 -0.06530 0.26215
 N568 N 0.34178 -0.05955 0.27864
 N569 N 0.35636 -0.04069 0.27509
 C570 C 0.35427 -0.02701 0.25487
 N571 N 0.33711 -0.03275 0.23833
 N572 N 0.32248 -0.05156 0.24192
 C573 C 0.19150 -0.08590 0.73372
 N574 N 0.18846 -0.10060 0.71432
 N575 N 0.20329 -0.11922 0.71062
 C576 C 0.22177 -0.12378 0.72612
 N577 N 0.22483 -0.10903 0.74550
 N578 N 0.20995 -0.09046 0.74925
 C579 C 0.17519 -0.06533 0.73777
 N580 N 0.17717 -0.05164 0.75805
 N581 N 0.16255 -0.03283 0.76160
 C582 C 0.14548 -0.02705 0.74501
 N583 N 0.14345 -0.04069 0.72475
 N584 N 0.15802 -0.05955 0.72122
 C585 C 0.69181 0.41461 0.23427
 N586 N 0.71001 0.40985 0.25003
 N587 N 0.72499 0.39138 0.24622
 C588 C 0.72228 0.37697 0.22656
 N589 N 0.70405 0.38170 0.21083
 N590 N 0.68911 0.40021 0.21459
 C591 C 0.67544 0.43511 0.23831
 N592 N 0.65837 0.44092 0.22166
 N593 N 0.64373 0.45972 0.22516
 C594 C 0.64560 0.47328 0.24548
 N595 N 0.66258 0.46749 0.26217
 N596 N 0.67727 0.44873 0.25864
 C597 C 0.69144 0.58524 0.26602
 N598 N 0.68866 0.59962 0.28569
 N599 N 0.70354 0.61819 0.28950
 C600 C 0.72179 0.62299 0.27382
 N601 N 0.72459 0.60860 0.25415
 N602 N 0.70966 0.59007 0.25030
 C603 C 0.67515 0.56467 0.26193
 N604 N 0.67709 0.55107 0.24161
 N605 N 0.66249 0.53223 0.23804
 C606 C 0.64550 0.52634 0.25469
 N607 N 0.64351 0.53990 0.27500
 N608 N 0.65806 0.55878 0.27854
 C609 C 0.19120 0.08525 0.76559
 N610 N 0.18852 0.09956 0.78534
 N611 N 0.20337 0.11817 0.78910
 C612 C 0.22148 0.12310 0.77329
 N613 N 0.22417 0.10879 0.75355
 N614 N 0.20928 0.09022 0.74975
 C615 C 0.17496 0.06460 0.76153
 N616 N 0.17688 0.05103 0.74117
 N617 N 0.16236 0.03214 0.73761
 C618 C 0.14543 0.02614 0.75430
 N619 N 0.14346 0.03967 0.77464
 N620 N 0.15794 0.05860 0.77817
 C621 C 0.23381 0.31000 0.08499
 N622 N 0.24969 0.29194 0.08985
 N623 N 0.24591 0.27694 0.10829
 C624 C 0.22614 0.27948 0.12259
 N625 N 0.21026 0.29755 0.11776
 N626 N 0.21400 0.31252 0.09927
 C627 C 0.23791 0.32640 0.06454
 N628 N 0.22126 0.34344 0.05863
 N629 N 0.22487 0.35806 0.03983
 C630 C 0.24528 0.35620 0.02639
 N631 N 0.26196 0.33926 0.03230
 N632 N 0.25834 0.32460 0.05105
 C633 C 0.73413 0.81032 0.58510
 N634 N 0.71434 0.81285 0.59939
 N635 N 0.71061 0.79788 0.61787
 C636 C 0.72649 0.77981 0.62268
 N637 N 0.74626 0.77727 0.60838
 N638 N 0.75003 0.79227 0.58994
 C639 C 0.73816 0.82666 0.56462
 N640 N 0.75853 0.82484 0.55106
 N641 N 0.76206 0.83946 0.53227
 C642 C 0.74532 0.85636 0.52638
 N643 N 0.72497 0.85823 0.53989
 N644 N 0.72146 0.84365 0.55873
 C645 C 0.76591 0.81031 0.41476
 N646 N 0.75002 0.79224 0.40991
 N647 N 0.75379 0.77727 0.39144
 C648 C 0.77354 0.77987 0.37713
 N649 N 0.78942 0.79796 0.38195
 N650 N 0.78569 0.81289 0.40046
 C651 C 0.76184 0.82664 0.43523
 N652 N 0.77850 0.84369 0.44112
 N653 N 0.77493 0.85828 0.45994
 C654 C 0.75455 0.85636 0.47341
 N655 N 0.73786 0.83941 0.46752
 N656 N 0.74144 0.82478 0.44875
 C657 C 0.26585 0.31014 -0.08540
 N658 N 0.28565 0.31270 -0.09968
 N659 N 0.28939 0.29777 -0.11819
 C660 C 0.27352 0.27968 -0.12306
 N661 N 0.25373 0.27711 -0.10877
 N662 N 0.24995 0.29208 -0.09030
 C663 C 0.26179 0.32649 -0.06489
 N664 N 0.24140 0.32466 -0.05134
 N665 N 0.23786 0.33929 -0.03255
 C666 C 0.25458 0.35621 -0.02665
 N667 N 0.27495 0.35809 -0.04014
 N668 N 0.27848 0.34351 -0.05898
 C669 C 0.73431 0.18991 -0.08512
 N670 N 0.71452 0.18730 -0.09940
 N671 N 0.71077 0.20220 -0.11793
 C672 C 0.72662 0.22031 -0.12281
 N673 N 0.74639 0.22293 -0.10852
 N674 N 0.75018 0.20799 -0.09002
 C675 C 0.73837 0.17360 -0.06458
 N676 N 0.75875 0.17545 -0.05103
 N677 N 0.76230 0.16084 -0.03223
 C678 C 0.74558 0.14390 -0.02632
 N679 N 0.72522 0.14200 -0.03982
 N680 N 0.72169 0.15657 -0.05866
 C681 C 0.23399 0.68999 0.41496
 N682 N 0.24989 0.70807 0.41014
 N683 N 0.24615 0.72308 0.39170
 C684 C 0.22640 0.72053 0.37736
 N685 N 0.21050 0.70245 0.38216
 N686 N 0.21420 0.68747 0.40065
 C687 C 0.23809 0.67356 0.43538
 N688 N 0.22144 0.65649 0.44127
 N689 N 0.22506 0.64182 0.46002
 C690 C 0.24548 0.64366 0.47345
 N691 N 0.26216 0.66064 0.46757
 N692 N 0.25853 0.67534 0.44886
 C693 C 0.26553 0.68980 0.58526
 N694 N 0.24958 0.70783 0.59002
 N695 N 0.25325 0.72288 0.60846
 C696 C 0.27299 0.72042 0.62282
 N697 N 0.28891 0.70236 0.61810
 N698 N 0.28527 0.68735 0.59963
 C699 C 0.26162 0.67341 0.56475
 N700 N 0.27838 0.65644 0.55892
 N701 N 0.27498 0.64184 0.54007
 C702 C 0.25467 0.64365 0.52648
 N703 N 0.23788 0.66052 0.53231
 N704 N 0.24130 0.67516 0.55111
 C705 C 0.76654 0.18992 0.08536
 N706 N 0.75069 0.20800 0.09025
 N707 N 0.75447 0.22294 0.10874
 C708 C 0.77422 0.22032 0.12305
 N709 N 0.79008 0.20223 0.11818
 N710 N 0.78632 0.18733 0.09964
 C711 C 0.76239 0.17358 0.06488
 N712 N 0.77900 0.15652 0.05894
 N713 N 0.77535 0.14193 0.04013
 C714 C 0.75493 0.14385 0.02671
 N715 N 0.73828 0.16081 0.03266
 N716 N 0.74195 0.17544 0.05142
 C717 C 0.48400 0.33466 0.55973
 N718 N 0.49997 0.33948 0.54173
 N719 N 0.49629 0.35790 0.52666
 C720 C 0.47652 0.37224 0.52906
 N721 N 0.46054 0.36745 0.54707
 N722 N 0.46420 0.34897 0.56210
 C723 C 0.48807 0.31425 0.57627
 N724 N 0.47139 0.30839 0.59332
 N725 N 0.47500 0.28970 0.60808
 C726 C 0.49546 0.27630 0.60640
 N727 N 0.51217 0.28215 0.58945
 N728 N 0.50854 0.30080 0.57464
 C729 C -0.01612 0.83520 0.05939
 N730 N -0.00009 0.84014 0.04148
 N731 N -0.00382 0.85855 0.02643
 C732 C -0.02369 0.87274 0.02875
 N733 N -0.03972 0.86784 0.04668
 N734 N -0.03602 0.84937 0.06171
 C735 C -0.01203 0.81472 0.07578
 N736 N -0.02873 0.80869 0.09274
 N737 N -0.02511 0.78987 0.10733
 C738 C -0.00463 0.77652 0.10553
 N739 N 0.01209 0.78255 0.08867
 N740 N 0.00845 0.80132 0.07404
 C741 C 0.01618 0.66482 0.05934
 N742 N 0.00021 0.66001 0.04135
 N743 N 0.00389 0.64156 0.02632
 C744 C 0.02364 0.62722 0.02877
 N745 N 0.03961 0.63201 0.04678
 N746 N 0.03596 0.65051 0.06177
 C747 C 0.01215 0.68530 0.07574
 N748 N 0.02885 0.69124 0.09273
 N749 N 0.02528 0.71005 0.10734
 C750 C 0.00487 0.72349 0.10552
 N751 N -0.01185 0.71756 0.08862
 N752 N -0.00827 0.69879 0.07397
 C753 C 0.51634 0.16481 0.55995
 N754 N 0.53625 0.15061 0.56215
 N755 N 0.53991 0.13221 0.54703
 C756 C 0.52384 0.12737 0.52912
 N757 N 0.50395 0.14157 0.52692
 N758 N 0.50027 0.15993 0.54206
 C759 C 0.51228 0.18522 0.57649
 N760 N 0.49179 0.19863 0.57486
 N761 N 0.48816 0.21732 0.58961
 C762 C 0.50490 0.22327 0.60649
 N763 N 0.52539 0.20990 0.60817
 N764 N 0.52900 0.19116 0.59346
 C765 C -0.01656 0.16502 0.44044
 N766 N -0.03636 0.15069 0.43805
 N767 N -0.04000 0.13222 0.45309
 C768 C -0.02401 0.12747 0.47108
 N769 N -0.00424 0.14181 0.47348
 N770 N -0.00057 0.16023 0.45841
 C771 C -0.01252 0.18546 0.42400
 N772 N 0.00793 0.19895 0.42573
 N773 N 0.01154 0.21768 0.41104
 C774 C -0.00518 0.22358 0.39414
 N775 N -0.02562 0.21015 0.39235
 N776 N -0.02921 0.19137 0.40701
 C777 C 0.48389 0.66488 0.94051
 N778 N 0.49998 0.65996 0.95837
 N779 N 0.49628 0.64156 0.97346
 C780 C 0.47638 0.62737 0.97121
 N781 N 0.46030 0.63224 0.95333
 N782 N 0.46397 0.65069 0.93827
 C783 C 0.48791 0.68535 0.92408
 N784 N 0.47115 0.69131 0.90717
 N785 N 0.47469 0.71013 0.89254
 C786 C 0.49514 0.72356 0.89427
 N787 N 0.51193 0.71759 0.91108
 N788 N 0.50838 0.69882 0.92574
 C789 C 0.51611 0.83522 0.94054
 N790 N 0.53605 0.84938 0.93827
 N791 N 0.53977 0.86782 0.95334
 C792 C 0.52372 0.87270 0.97125
 N793 N 0.50381 0.85853 0.97352
 N794 N 0.50006 0.84015 0.95843
 C795 C 0.51201 0.81477 0.92409
 N796 N 0.49152 0.80135 0.92580
 N797 N 0.48787 0.78260 0.91113
 C798 C 0.50460 0.77661 0.89426
 N799 N 0.52509 0.78998 0.89250
 N800 N 0.52872 0.80878 0.90713
 C801 C 0.01583 0.33518 0.44032
 N802 N -0.00004 0.33991 0.45841
 N803 N 0.00362 0.35841 0.47338
 C804 C 0.02324 0.37291 0.47076
 N805 N 0.03913 0.36821 0.45266
 N806 N 0.03551 0.34965 0.43772
 C807 C 0.01177 0.31470 0.42394
 N808 N 0.02839 0.30882 0.40686
 N809 N 0.02476 0.29002 0.39224
 C810 C 0.00435 0.27656 0.39412
 N811 N -0.01230 0.28244 0.41109
 N812 N -0.00865 0.30118 0.42576
 C813 C 0.33508 0.55805 0.48390
 N814 N 0.34939 0.56064 0.46414
 N815 N 0.36796 0.54576 0.46043
 C816 C 0.37285 0.52771 0.47631
 N817 N 0.35851 0.52507 0.49604
 N818 N 0.33998 0.53999 0.49978
 C819 C 0.31463 0.57446 0.48797
 N820 N 0.30111 0.57272 0.50838
 N821 N 0.28244 0.58748 0.51199
 C822 C 0.27664 0.60448 0.49531
 N823 N 0.29009 0.60626 0.47492
 N824 N 0.30881 0.59154 0.47133
 C825 C 0.83536 0.05867 -0.01567
 N826 N 0.84984 0.06154 -0.03526
 N827 N 0.86833 0.04661 -0.03910
 C828 C 0.87297 0.02823 -0.02353
 N829 N 0.85849 0.02534 -0.00394
 N830 N 0.84003 0.04031 -0.00006
 C831 C 0.81487 0.07502 -0.01158
 N832 N 0.80114 0.07301 0.00866
 N833 N 0.78237 0.08767 0.01219
 C834 C 0.77668 0.10479 -0.00439
 N835 N 0.79037 0.10685 -0.02460
 N836 N 0.80918 0.09224 -0.02811
 C837 C 0.66516 0.05839 0.01621
 N838 N 0.66036 0.04018 0.00047
 N839 N 0.64186 0.02522 0.00430
 C840 C 0.62747 0.02796 0.02398
 N841 N 0.63226 0.04618 0.03970
 N842 N 0.65079 0.06110 0.03591
 C843 C 0.68563 0.07479 0.01211
 N844 N 0.69144 0.09190 0.02873
 N845 N 0.71021 0.10659 0.02517
 C846 C 0.72371 0.10474 0.00481
 N847 N 0.71791 0.08772 -0.01184
 N848 N 0.69919 0.07299 -0.00826
 C849 C 0.16489 0.55840 0.51573
 N850 N 0.15990 0.54039 0.49982
 N851 N 0.14128 0.52555 0.50355
 C852 C 0.12695 0.52823 0.52328
 N853 N 0.13195 0.54624 0.53918
 N854 N 0.15059 0.56104 0.53549
 C855 C 0.18545 0.57470 0.51171
 N856 N 0.19128 0.59178 0.52835
 N857 N 0.21010 0.60640 0.52483
 C858 C 0.22366 0.60451 0.50451
 N859 N 0.21784 0.58752 0.48784
 N860 N 0.19906 0.57285 0.49137
 C861 C 0.16476 0.44139 -0.01596
 N862 N 0.15038 0.43863 -0.03564
 N863 N 0.13183 0.45351 -0.03942
 C864 C 0.12704 0.47172 -0.02369
 N865 N 0.14144 0.47450 -0.00403
 N866 N 0.15996 0.45958 -0.00022
 C867 C 0.18528 0.42507 -0.01190
 N868 N 0.19894 0.42701 0.00839
 N869 N 0.21772 0.41236 0.01193
 C870 C 0.22348 0.39531 -0.00470
 N871 N 0.20986 0.39332 -0.02496
 N872 N 0.19104 0.40792 -0.02848
 C873 C 0.66491 0.94166 0.48400
 N874 N 0.66028 0.96000 0.49963
 N875 N 0.64180 0.97497 0.49581
 C876 C 0.62728 0.97209 0.47624
 N877 N 0.63190 0.95373 0.46064
 N878 N 0.65040 0.93881 0.46443
 C879 C 0.68536 0.92528 0.48808
 N880 N 0.69101 0.90804 0.47155
 N881 N 0.70978 0.89339 0.47509
 C882 C 0.72345 0.89541 0.49532
 N883 N 0.71780 0.91255 0.51189
 N884 N 0.69907 0.92726 0.50833
 C885 C 0.83489 0.94171 0.51588
 N886 N 0.84926 0.93897 0.53557
 N887 N 0.86778 0.95388 0.53936
 C888 C 0.87255 0.97212 0.52365
 N889 N 0.85816 0.97490 0.50399
 N890 N 0.83966 0.95994 0.50016
 C891 C 0.81444 0.92533 0.51178
 N892 N 0.80081 0.92725 0.49147
 N893 N 0.78209 0.91252 0.48788
 C894 C 0.77636 0.89543 0.50448
 N895 N 0.78995 0.89346 0.52476
 N896 N 0.80872 0.90813 0.52833
 C897 C 0.33504 0.44163 0.01601
 N898 N 0.33985 0.45987 0.00030
 N899 N 0.35836 0.47482 0.00415
 C900 C 0.37274 0.47203 0.02383
 N901 N 0.36795 0.45379 0.03952
 N902 N 0.34941 0.43888 0.03570
 C903 C 0.31456 0.42526 0.01189
 N904 N 0.30874 0.40812 0.02848
 N905 N 0.28996 0.39345 0.02489
 C906 C 0.27646 0.39535 0.00454
 N907 N 0.28227 0.41239 -0.01209
 N908 N 0.30100 0.42711 -0.00848
 C909 C 0.56003 0.48375 0.33509
 N910 N 0.54194 0.49961 0.33992
 N911 N 0.52694 0.49583 0.35837
 C912 C 0.52951 0.47607 0.37270
 N913 N 0.54762 0.46023 0.36789
 N914 N 0.56258 0.46398 0.34940
 C915 C 0.57645 0.48783 0.31463
 N916 N 0.59352 0.47118 0.30879
 N917 N 0.60819 0.47475 0.29003
 C918 C 0.60636 0.49513 0.27654
 N919 N 0.58939 0.51182 0.28237
 N920 N 0.57468 0.50823 0.30109
 C921 C 0.05983 -0.01621 0.83463
 N922 N 0.04180 -0.00027 0.83945
 N923 N 0.02683 -0.00393 0.85796
 C924 C 0.02938 -0.02365 0.87236
 N925 N 0.04742 -0.03957 0.86754
 N926 N 0.06234 -0.03594 0.84900
 C927 C 0.07626 -0.01222 0.81416
 N928 N 0.09330 -0.02892 0.80837
 N929 N 0.10801 -0.02542 0.78963
 C930 C 0.10626 -0.00506 0.77611
 N931 N 0.08932 0.01168 0.78188
 N932 N 0.07456 0.00816 0.80058
 C933 C 0.05963 0.01598 0.66496
 N934 N 0.06219 0.03580 0.65072
 N935 N 0.04722 0.03961 0.63225
 C936 C 0.02910 0.02377 0.62740
 N937 N 0.02649 0.00399 0.64168
 N938 N 0.04150 0.00014 0.66011
 C939 C 0.07614 0.01177 0.68533
 N940 N 0.07441 -0.00871 0.69876
 N941 N 0.08923 -0.01241 0.71737
 C942 C 0.10627 0.00423 0.72319
 N943 N 0.10805 0.02469 0.70981
 N944 N 0.09327 0.02837 0.69115
 C945 C 0.56011 0.51589 0.16504
 N946 N 0.54202 0.50001 0.16019
 N947 N 0.52703 0.50379 0.14173
 C948 C 0.52962 0.52356 0.12742
 N949 N 0.54771 0.53943 0.13226
 N950 N 0.56266 0.53569 0.15076
 C951 C 0.57653 0.51178 0.18548
 N952 N 0.59359 0.52844 0.19136
 N953 N 0.60826 0.52484 0.21011
 C954 C 0.60643 0.50442 0.22355
 N955 N 0.58947 0.48772 0.21766
 N956 N 0.57476 0.49134 0.19895
 C957 C 0.44000 -0.01620 0.16527
 N958 N 0.43749 -0.03594 0.15090
 N959 N 0.45247 -0.03959 0.13240
 C960 C 0.47054 -0.02367 0.12762
 N961 N 0.47309 -0.00396 0.14201
 N962 N 0.45807 -0.00027 0.16048
 C963 C 0.42353 -0.01219 0.18571
 N964 N 0.42524 0.00819 0.19927
 N965 N 0.41047 0.01172 0.21795
 C966 C 0.39350 -0.00501 0.22373
 N967 N 0.39174 -0.02538 0.21022
 N968 N 0.40646 -0.02889 0.19149
 C969 C 0.94008 0.48403 0.66492
 N970 N 0.93750 0.46424 0.65064
 N971 N 0.95247 0.46045 0.63217
 C972 C 0.97060 0.47629 0.62735
 N973 N 0.97320 0.49607 0.64164
 N974 N 0.95820 0.49988 0.66007
 C975 C 0.92368 0.48814 0.68535
 N976 N 0.92548 0.50855 0.69886
 N977 N 0.91077 0.51215 0.71758
 C978 C 0.89380 0.49546 0.72344
 N979 N 0.89195 0.47506 0.70998
 N980 N 0.90661 0.47148 0.69122
 C981 C 0.94026 0.51615 0.83480
 N982 N 0.93773 0.53592 0.84911
 N983 N 0.95269 0.53964 0.86761
 C984 C 0.97075 0.52375 0.87243
 N985 N 0.97332 0.50401 0.85809
 N986 N 0.95833 0.50026 0.83962
 C987 C 0.92383 0.51208 0.81437
 N988 N 0.92556 0.49166 0.80086
 N989 N 0.91081 0.48806 0.78218
 C990 C 0.89385 0.50475 0.77636
 N991 N 0.89206 0.52516 0.78982
 N992 N 0.90677 0.52874 0.80855
 C993 C 0.44013 0.01589 0.33496
 N994 N 0.45824 0.00005 0.33980
 N995 N 0.47323 0.00386 0.35825
 C996 C 0.47063 0.02362 0.37258
 N997 N 0.45253 0.03946 0.36774
 N998 N 0.43757 0.03568 0.34924
 C999 C 0.42363 0.01172 0.31457
 N1000 N 0.40652 0.02834 0.30875
 N1001 N 0.39175 0.02469 0.29008
 C1002 C 0.39351 0.00425 0.27667
 N1003 N 0.41053 -0.01240 0.28248
 N1004 N 0.42534 -0.00873 0.30111
   
