data_POSCAR
  _audit_creation_date              2014-09-24
  _audit_creation_method            'ToBaCCo'
  _symmetry_space_group_name_H-M    'P1'
  _symmetry_Int_Tables_number       1
  _symmetry_cell_setting            triclinic
  loop_
  _symmetry_equiv_pos_as_xyz
 x,y,z
_cell_length_a 18.3346
_cell_length_b 18.0880
_cell_length_c 19.0980
_cell_angle_alpha 86.323400
_cell_angle_beta 88.960700
_cell_angle_gamma 90.005100
loop_
  _atom_site_label
  _atom_site_type_symbol
  _atom_site_fract_x
  _atom_site_fract_y
  _atom_site_fract_z
C1 C -0.09873 0.49061 0.28415
 C2 C -0.03055 0.50291 0.25154
 C3 C -0.01898 0.56600 0.20620
 C4 C -0.07710 0.61492 0.18981
 C5 C -0.14662 0.59927 0.22040
 C6 C -0.15782 0.53764 0.26879
 C7 C 0.02355 0.44267 0.25583
 C8 C 0.00642 0.37629 0.22601
 C9 C 0.05513 0.31664 0.22978
 C10 C 0.12154 0.32415 0.26355
 C11 C 0.13988 0.39011 0.29390
 C12 C 0.09026 0.44995 0.28958
 H13 H -0.10646 0.44136 0.31906
 H14 H 0.03363 0.57295 0.17999
 H15 H -0.04428 0.37261 0.19825
 H16 H 0.10169 0.50143 0.31294
 H17 H -0.19079 0.63733 0.20817
 H18 H 0.15951 0.27808 0.26597
 C19 C -0.10126 0.48131 0.70664
 C20 C -0.03891 0.47878 0.74823
 C21 C -0.03031 0.42134 0.80022
 C22 C -0.08528 0.36734 0.81258
 C23 C -0.14813 0.37190 0.77195
 C24 C -0.15599 0.42721 0.71805
 C25 C 0.01432 0.53978 0.74135
 C26 C 0.00144 0.60333 0.77782
 C27 C 0.04969 0.66443 0.77096
 C28 C 0.11101 0.65954 0.72554
 C29 C 0.12500 0.59517 0.68973
 C30 C 0.07640 0.53522 0.69824
 H31 H -0.10627 0.52506 0.66563
 H32 H 0.01747 0.42152 0.83268
 H33 H -0.04664 0.60304 0.81120
 H34 H 0.08536 0.48610 0.66960
 H35 H -0.19065 0.33040 0.78078
 H36 H 0.14866 0.70572 0.71828
 C37 C 0.26187 -0.09113 0.51571
 C38 C 0.22560 -0.02299 0.51493
 C39 C 0.17696 -0.00796 0.56951
 C40 C 0.16399 -0.06177 0.62422
 C41 C 0.20052 -0.12959 0.62520
 C42 C 0.25021 -0.14520 0.57147
 C43 C 0.24280 0.03382 0.45876
 C44 C 0.21081 0.03125 0.39274
 C45 C 0.23046 0.08385 0.33771
 C46 C 0.28314 0.13733 0.35022
 C47 C 0.31667 0.13833 0.41513
 C48 C 0.29563 0.08734 0.46988
 H49 H 0.30110 -0.09906 0.47399
 H50 H 0.14928 0.04501 0.56926
 H51 H 0.16989 -0.01062 0.38601
 H52 H 0.32201 0.08754 0.52022
 H53 H 0.19026 -0.17015 0.66862
 H54 H 0.29920 0.17828 0.30891
 C55 C 0.73943 -0.08962 0.49283
 C56 C 0.77415 -0.02023 0.49356
 C57 C 0.82564 0.00127 0.44109
 C58 C 0.84282 -0.04580 0.38791
 C59 C 0.80946 -0.11581 0.38852
 C60 C 0.75678 -0.13841 0.43990
 C61 C 0.76063 0.02825 0.55174
 C62 C 0.79234 0.01066 0.61695
 C63 C 0.78310 0.05739 0.67296
 C64 C 0.74027 0.12162 0.66186
 C65 C 0.70762 0.13954 0.59688
 C66 C 0.71893 0.09296 0.54153
 H67 H 0.70140 -0.10555 0.53505
 H68 H 0.85244 0.05464 0.44183
 H69 H 0.82639 -0.03810 0.62175
 H70 H 0.69363 0.10549 0.49134
 H71 H 0.82459 -0.15289 0.34826
 H72 H 0.73135 0.15779 0.70439
 C73 C 0.49791 0.29223 1.10754
 C74 C 0.48831 0.25857 1.04407
 C75 C 0.42699 0.21318 1.03593
 C76 C 0.37776 0.19690 1.09263
 C77 C 0.39097 0.22819 1.15704
 C78 C 0.44857 0.27832 1.16410
 C79 C 0.54217 0.27124 0.98576
 C80 C 0.60721 0.22960 0.98418
 C81 C 0.65711 0.23931 0.92669
 C82 C 0.63954 0.29098 0.87124
 C83 C 0.57624 0.33421 0.87373
 C84 C 0.52786 0.32446 0.93110
 H85 H 0.54402 0.32880 1.11289
 H86 H 0.42029 0.18812 0.98647
 H87 H 0.61695 0.18915 1.02712
 H88 H 0.47859 0.35747 0.93277
 H89 H 0.35360 0.21696 1.20097
 H90 H 0.67644 0.29968 0.82639
 C91 C 0.51303 0.73628 1.09013
 C92 C 0.53145 0.74756 1.01861
 C93 C 0.59989 0.77675 0.99777
 C94 C 0.65044 0.79487 1.04810
 C95 C 0.62976 0.78598 1.11960
 C96 C 0.56300 0.75456 1.14109
 C97 C 0.47729 0.73375 0.96535
 C98 C 0.41400 0.77678 0.96221
 C99 C 0.36361 0.76974 0.90818
 C100 C 0.37895 0.71944 0.85692
 C101 C 0.44119 0.67447 0.86132
 C102 C 0.49028 0.68148 0.91565
 H103 H 0.45975 0.71424 1.10518
 H104 H 0.61347 0.78529 0.94231
 H105 H 0.40727 0.81807 1.00029
 H106 H 0.53915 0.64776 0.91833
 H107 H 0.66488 0.80412 1.16000
 H108 H 0.34131 0.71331 0.81446
 B109 B 1.01181 1.06822 0.04696
 B110 B 1.01190 1.07677 -0.04128
 B111 B 1.08770 1.04571 0.00037
 B112 B 1.06045 0.99166 0.07158
 B113 B 0.96833 0.98854 0.07353
 B114 B 0.93758 1.04155 0.00335
 B115 B 1.01586 0.92531 -0.04649
 B116 B 1.01670 0.91651 0.04267
 B117 B 0.94015 0.94798 0.00077
 B118 B 0.96695 1.00301 -0.07059
 B119 B 1.05945 1.00567 -0.07215
 B120 B 1.08991 0.95279 -0.00217
 B121 B 0.56652 0.51693 0.44079
 B122 B 0.57160 0.51645 0.52964
 B123 B 0.53535 0.59026 0.48385
 B124 B 0.48693 0.55858 0.41718
 B125 B 0.49373 0.46463 0.42105
 B126 B 0.54603 0.43852 0.49111
 B127 B 0.42233 0.50561 0.54061
 B128 B 0.41762 0.50593 0.45234
 B129 B 0.45391 0.43214 0.49826
 B130 B 0.50178 0.46392 0.56518
 B131 B 0.49542 0.55729 0.56024
 B132 B 0.44376 0.58335 0.49057
 C133 C 1.04124 1.24783 0.19470
 C134 C 0.97480 1.22492 0.17717
 C135 C 0.96484 1.15903 0.13688
 C136 C 1.01424 1.14024 0.08890
 H137 H 0.92622 1.25277 0.19460
 H138 H 0.91500 1.12777 0.14556
 H139 H 1.08839 1.21433 0.18331
 H140 H 1.06024 1.17654 0.07638
 C141 C 0.93046 0.67678 0.14134
 C142 C 0.99404 0.70889 0.12065
 C143 C 0.99397 0.77439 0.07060
 C144 C 1.02508 0.83793 0.08640
 H145 H 1.04502 0.69207 0.14445
 H146 H 0.95949 0.77264 0.02586
 H147 H 0.88087 0.70267 0.12169
 H148 H 1.05520 0.83639 0.13434
 C149 C 0.91944 1.30874 -0.13612
 C150 C 0.98189 1.28247 -0.10985
 C151 C 0.97998 1.21436 -0.06447
 C152 C 1.01516 1.15449 -0.08403
 H153 H 1.03428 1.30369 -0.12886
 H154 H 0.94402 1.21190 -0.01889
 H155 H 0.86993 1.27813 -0.12159
 H156 H 1.04778 1.15839 -0.13202
 C157 C 1.03966 0.72946 -0.19214
 C158 C 0.98260 0.74167 -0.14858
 C159 C 0.97255 0.80780 -0.10737
 C160 C 1.02522 0.85577 -0.09381
 H161 H 0.93816 0.70279 -0.14196
 H162 H 0.91923 0.81329 -0.08365
 H163 H 1.08088 0.77213 -0.20014
 H164 H 1.07896 0.84724 -0.11512
 C165 C 1.19981 1.08629 0.27078
 C166 C 1.16186 1.03140 0.24512
 C167 C 1.13195 1.04116 0.17434
 C168 C 1.10445 0.98402 0.14285
 H169 H 1.15390 0.97883 0.27452
 H170 H 1.13248 1.09586 0.14847
 H171 H 1.21006 1.13539 0.23627
 H172 H 1.10807 0.93023 0.17018
 C173 C 1.11195 0.95090 -0.31902
 C174 C 1.13014 0.99114 -0.26594
 C175 C 1.08389 0.98822 -0.20251
 C176 C 1.10496 1.01700 -0.14350
 H177 H 1.18162 1.02078 -0.26728
 H178 H 1.03371 0.95707 -0.20336
 H179 H 1.06274 0.91749 -0.31562
 H180 H 1.15631 1.04653 -0.14284
 C181 C 0.89624 0.97808 0.33210
 C182 C 0.88493 0.96407 0.26539
 C183 C 0.93830 0.98345 0.20875
 C184 C 0.91802 0.97958 0.14235
 H185 H 0.83465 0.93713 0.25199
 H186 H 0.99277 0.99903 0.22196
 H187 H 0.94365 1.00971 0.34550
 H188 H 0.86088 0.96950 0.13359
 C189 C 0.81611 1.04338 -0.26112
 C190 C 0.84718 0.97871 -0.23941
 C191 C 0.88187 0.96588 -0.17051
 C192 C 0.92285 1.01657 -0.14167
 H193 H 0.84298 0.93055 -0.26968
 H194 H 0.87741 0.91086 -0.14643
 H195 H 0.81407 1.08689 -0.22458
 H196 H 0.93046 1.06992 -0.16989
 C197 C 1.31708 1.14908 0.08842
 C198 C 1.28410 1.13281 0.02888
 C199 C 1.22121 1.08116 0.03162
 C200 C 1.16006 1.09629 -0.00413
 H201 H 1.29976 1.16039 -0.02110
 H202 H 1.22470 1.03173 0.06623
 H203 H 1.29248 1.12690 0.13738
 H204 H 1.15807 1.14701 -0.03738
 C205 C 0.72388 1.20052 -0.07876
 C206 C 0.75412 1.15602 -0.02822
 C207 C 0.82617 1.12129 -0.04041
 C208 C 0.86038 1.08225 0.01109
 H209 H 0.72798 1.14637 0.02272
 H210 H 0.85173 1.12952 -0.09169
 H211 H 0.75473 1.20918 -0.12766
 H212 H 0.83350 1.07639 0.06200
 C213 C 1.29935 0.81180 -0.09713
 C214 C 1.27137 0.84963 -0.04504
 C215 C 1.20357 0.89130 -0.05443
 C216 C 1.16451 0.90944 0.00135
 H217 H 1.29518 0.84713 0.00641
 H218 H 1.18575 0.90529 -0.10710
 H219 H 1.26866 0.81082 -0.14518
 H220 H 1.18395 0.89301 0.05329
 C221 C 0.71938 0.82273 0.02660
 C222 C 0.77544 0.82200 0.07066
 C223 C 0.84611 0.85753 0.05720
 C224 C 0.86459 0.90446 0.00290
 H225 H 0.77156 0.79248 0.12158
 H226 H 0.88262 0.84858 0.10035
 H227 H 0.72765 0.84303 -0.02754
 H228 H 0.82559 0.91868 -0.03735
 C229 C 0.77484 0.52061 0.30301
 C230 C 0.71027 0.55041 0.28494
 C231 C 0.64209 0.53218 0.32479
 C232 C 0.63968 0.52210 0.39493
 H233 H 0.70494 0.58629 0.23787
 H234 H 0.59226 0.53389 0.29548
 H235 H 0.77483 0.47802 0.34568
 H236 H 0.68994 0.52211 0.42375
 C237 C 0.21092 0.39210 0.32969
 C238 C 0.23993 0.45212 0.35544
 C239 C 0.31121 0.44719 0.38940
 C240 C 0.34096 0.50643 0.41549
 H241 H 0.21240 0.50499 0.35140
 H242 H 0.33981 0.39487 0.39177
 H243 H 0.24173 0.34081 0.33449
 H244 H 0.31197 0.55864 0.41104
 C245 C 0.77906 0.42348 0.67387
 C246 C 0.75084 0.48098 0.63637
 C247 C 0.68383 0.47002 0.59747
 C248 C 0.64695 0.52654 0.56742
 H249 H 0.77468 0.53572 0.63650
 H250 H 0.66251 0.41452 0.59715
 H251 H 0.75099 0.37055 0.67472
 H252 H 0.66759 0.58220 0.57081
 C253 C 0.18742 0.59368 0.63954
 C254 C 0.23032 0.53428 0.63362
 C255 C 0.29027 0.53618 0.58099
 C256 C 0.35188 0.49757 0.59127
 H257 H 0.22280 0.48550 0.66901
 H258 H 0.28435 0.57281 0.53461
 H259 H 0.19964 0.64410 0.60774
 H260 H 0.35609 0.46086 0.63807
 C261 C 0.55143 0.73854 0.21731
 C262 C 0.50643 0.68628 0.24471
 C263 C 0.51661 0.65683 0.31720
 C264 C 0.47250 0.60445 0.34539
 H265 H 0.46858 0.65863 0.21226
 H266 H 0.56500 0.67232 0.34412
 H267 H 0.58930 0.76328 0.25213
 H268 H 0.42313 0.59274 0.31808
 C269 C 0.45442 0.62013 0.80885
 C270 C 0.46090 0.64209 0.74120
 C271 C 0.46601 0.58827 0.68742
 C272 C 0.49759 0.60692 0.62547
 H273 H 0.46122 0.70076 0.72519
 H274 H 0.44126 0.53449 0.69832
 H275 H 0.45914 0.56205 0.82596
 H276 H 0.52249 0.66114 0.61747
 C277 C 0.45470 0.31668 0.23046
 C278 C 0.46914 0.38935 0.23055
 C279 C 0.46062 0.43165 0.29396
 C280 C 0.49738 0.41627 0.35317
 H281 H 0.47678 0.42118 0.18097
 H282 H 0.42539 0.47905 0.28908
 H283 H 0.43803 0.28709 0.27920
 H284 H 0.53509 0.37020 0.35451
 C285 C 0.56235 0.39116 0.81687
 C286 C 0.54922 0.37224 0.75189
 C287 C 0.54293 0.42822 0.69290
 C288 C 0.50471 0.41346 0.63660
 H289 H 0.54390 0.31416 0.74179
 H290 H 0.57142 0.48036 0.69516
 H291 H 0.56339 0.44898 0.82860
 H292 H 0.47343 0.36256 0.63874
 C293 C 0.72570 0.79041 0.43663
 C294 C 0.66578 0.76580 0.47209
 C295 C 0.63884 0.68958 0.46531
 C296 C 0.56976 0.67160 0.48220
 H297 H 0.63447 0.80177 0.50431
 H298 H 0.67620 0.64857 0.44711
 H299 H 0.75047 0.75346 0.40041
 H300 H 0.53392 0.71507 0.49868
 C301 C 0.65701 0.20346 0.59080
 C302 C 0.64839 0.24731 0.53221
 C303 C 0.59436 0.30784 0.53181
 C304 C 0.59911 0.36829 0.48759
 H305 H 0.68189 0.23987 0.48589
 H306 H 0.55109 0.30279 0.57060
 H307 H 0.62675 0.21623 0.63787
 H308 H 0.64334 0.37215 0.44918
 C309 C 0.28774 0.78701 0.57724
 C310 C 0.32900 0.76047 0.52620
 C311 C 0.36814 0.69034 0.53808
 C312 C 0.39693 0.65695 0.48397
 H313 H 0.33319 0.78837 0.47456
 H314 H 0.37180 0.66570 0.59094
 H315 H 0.28196 0.75321 0.62612
 H316 H 0.39023 0.68254 0.43166
 C317 C 0.37511 0.19208 0.42316
 C318 C 0.37665 0.23427 0.47758
 C319 C 0.42700 0.29700 0.47556
 C320 C 0.41028 0.35698 0.50918
 H321 H 0.33555 0.22769 0.51908
 H322 H 0.47424 0.29636 0.44103
 H323 H 0.41242 0.20349 0.37911
 H324 H 0.36133 0.35678 0.54182
   
