data_POSCAR
  _audit_creation_date              2014-09-24
  _audit_creation_method            'ToBaCCo'
  _symmetry_space_group_name_H-M    'P1'
  _symmetry_Int_Tables_number       1
  _symmetry_cell_setting            triclinic
  loop_
  _symmetry_equiv_pos_as_xyz
 x,y,z
_cell_length_a 17.0898
_cell_length_b 25.4663
_cell_length_c 23.1133
_cell_angle_alpha 89.895200
_cell_angle_beta 89.969800
_cell_angle_gamma 89.535200
loop_
  _atom_site_label
  _atom_site_type_symbol
  _atom_site_fract_x
  _atom_site_fract_y
  _atom_site_fract_z
O1 O 0.25660 0.29484 0.16997
 O2 O 0.32788 0.19678 0.27561
 O3 O 0.25672 0.18896 0.18132
 O4 O 0.34708 0.29358 0.26631
 O5 O 0.23664 0.30527 0.31465
 O6 O 0.14210 0.20727 0.22084
 O7 O 0.21571 0.20445 0.32268
 O8 O 0.15045 0.30800 0.22280
 Cu9 Cu 0.30642 0.24423 0.21652
 Cu10 Cu 0.17513 0.25679 0.27530
 C11 C 0.19185 0.31842 0.17897
 C12 C 0.28382 0.18468 0.31780
 C13 C 0.18401 0.18043 0.18603
 C14 C 0.30858 0.31544 0.30670
 O15 O 0.83900 0.29925 0.21917
 O16 O 0.74837 0.21015 0.32400
 O17 O 0.83040 0.19430 0.22296
 O18 O 0.75861 0.30701 0.30818
 O19 O 0.64849 0.30472 0.25844
 O20 O 0.72255 0.19511 0.17077
 O21 O 0.64509 0.20244 0.26780
 O22 O 0.73241 0.29667 0.16510
 Cu23 Cu 0.80580 0.25001 0.27236
 Cu24 Cu 0.67616 0.24934 0.21047
 C25 C 0.80019 0.31467 0.17541
 C26 C 0.68028 0.19232 0.31508
 C27 C 0.79053 0.17721 0.18067
 C28 C 0.69104 0.32556 0.29703
 O29 O 0.84733 0.69744 0.75447
 O30 O 0.76435 0.80749 0.67027
 O31 O 0.85030 0.80020 0.76369
 O32 O 0.76171 0.70630 0.66228
 O33 O 0.65351 0.70704 0.71456
 O34 O 0.74817 0.79275 0.82109
 O35 O 0.66143 0.80866 0.72819
 O36 O 0.73844 0.69267 0.80543
 Cu37 Cu 0.81683 0.75329 0.70749
 Cu38 Cu 0.68958 0.75057 0.77270
 C39 C 0.80622 0.67520 0.79310
 C40 C 0.69871 0.82679 0.68508
 C41 C 0.81582 0.81086 0.81108
 C42 C 0.69186 0.69145 0.67066
 O43 O 0.22789 0.70040 0.67338
 O44 O 0.16256 0.80610 0.77060
 O45 O 0.24076 0.80208 0.67498
 O46 O 0.15417 0.70514 0.77363
 O47 O 0.26905 0.69262 0.81504
 O48 O 0.34936 0.79974 0.72677
 O49 O 0.26951 0.79544 0.82332
 O50 O 0.34261 0.69868 0.71761
 Cu51 Cu 0.18506 0.75373 0.71828
 Cu52 Cu 0.31878 0.74618 0.77580
 C53 C 0.29725 0.68273 0.67799
 C54 C 0.20412 0.81797 0.81398
 C55 C 0.30990 0.81773 0.68455
 C56 C 0.19732 0.68112 0.81002
 C57 C 1.03498 0.03111 0.03799
 C58 C 0.95235 0.02608 0.03729
 C59 C 0.91749 -0.01140 0.00132
 C60 C 0.96296 -0.04383 -0.03459
 C61 C 1.04500 -0.03726 -0.03575
 C62 C 1.07987 0.00043 -0.00029
 H63 H 1.14286 0.00507 -0.00161
 H64 H 0.85432 -0.01506 0.00098
 C65 C 0.53676 0.54272 0.52160
 C66 C 0.45467 0.53672 0.52639
 C67 C 0.41729 0.49849 0.49287
 C68 C 0.46001 0.46569 0.45555
 C69 C 0.54144 0.47391 0.44861
 C70 C 0.57913 0.51110 0.48299
 H71 H 0.64182 0.51623 0.47889
 H72 H 0.35443 0.49397 0.49618
 C73 C -0.04537 0.45816 0.01971
 C74 C 0.03633 0.46350 0.02567
 C75 C 0.07614 0.49975 -0.00878
 C76 C 0.03732 0.52862 -0.05206
 C77 C -0.04466 0.52185 -0.05929
 C78 C -0.08497 0.48713 -0.02283
 H79 H -0.14784 0.48320 -0.02705
 H80 H 0.13844 0.50485 -0.00232
 C81 C 0.45725 0.97692 0.54471
 C82 C 0.53944 0.98170 0.54540
 C83 C 0.57552 1.01917 0.50999
 C84 C 0.53057 1.05255 0.47445
 C85 C 0.44808 1.04820 0.47495
 C86 C 0.41231 1.01061 0.51003
 H87 H 0.34912 1.00704 0.50976
 H88 H 0.63877 1.02199 0.50961
 C89 C 1.05331 0.12136 0.07795
 C90 C 1.08620 0.15682 0.11649
 C91 C 1.14932 0.14194 0.15162
 C92 C 1.17628 0.08901 0.15040
 C93 C 1.13673 0.05155 0.11577
 C94 C 1.07575 0.06820 0.07791
 C95 C 1.15843 -0.00171 0.12156
 N96 N 1.21820 -0.01580 0.15698
 N97 N 1.25700 0.01952 0.18784
 C98 C 1.23789 0.07123 0.18600
 H99 H 1.00953 0.13577 0.04802
 H100 H 1.06543 0.19717 0.11604
 H101 H 1.12783 -0.03254 0.09920
 H102 H 1.27011 0.09771 0.21319
 C103 C 0.57925 0.57517 0.61734
 C104 C 0.61564 0.61142 0.65308
 C105 C 0.65478 0.65473 0.62979
 C106 C 0.65591 0.66213 0.56888
 C107 C 0.61774 0.62550 0.53249
 C108 C 0.57963 0.58154 0.55717
 C109 C 0.61654 0.63520 0.47252
 N110 N 0.65223 0.67823 0.45068
 N111 N 0.68839 0.71245 0.48470
 C112 C 0.69120 0.70604 0.54290
 H113 H 0.54983 0.54199 0.63680
 H114 H 0.61391 0.60528 0.69947
 H115 H 0.58675 0.60949 0.44279
 H116 H 0.72010 0.73579 0.56800
 C117 C -0.12044 0.37704 0.03994
 C118 C -0.15776 0.34245 0.07762
 C119 C -0.16569 0.35442 0.13650
 C120 C -0.13914 0.40352 0.15723
 C121 C -0.10203 0.43889 0.11875
 C122 C -0.09069 0.42470 0.06009
 C123 C -0.07838 0.48791 0.14017
 N124 N -0.09035 0.50018 0.19655
 N125 N -0.12502 0.46695 0.23276
 C126 C -0.15011 0.41923 0.21505
 H127 H -0.11276 0.36595 -0.00494
 H128 H -0.17831 0.30529 0.06104
 H129 H -0.05149 0.51686 0.11246
 H130 H -0.17940 0.39454 0.24618
 C131 C 0.41275 0.94061 0.63845
 C132 C 0.37810 0.90183 0.67207
 C133 C 0.34515 0.85745 0.64634
 C134 C 0.34859 0.85153 0.58534
 C135 C 0.38551 0.89054 0.55128
 C136 C 0.41735 0.93542 0.57829
 C137 C 0.39085 0.88275 0.49114
 N138 N 0.36048 0.83897 0.46697
 N139 N 0.32558 0.80239 0.49884
 C140 C 0.31874 0.80707 0.55705
 H141 H 0.43645 0.97490 0.65956
 H142 H 0.37615 0.90682 0.71860
 H143 H 0.41936 0.91078 0.46316
 H144 H 0.29076 0.77566 0.58041
 C145 C -0.14486 0.58989 -0.07902
 C146 C -0.17958 0.62749 -0.11456
 C147 C -0.16168 0.63005 -0.17372
 C148 C -0.11213 0.59084 -0.19822
 C149 C -0.07638 0.55265 -0.16171
 C150 C -0.09064 0.55374 -0.10134
 C151 C -0.02741 0.51440 -0.18685
 N152 N -0.01546 0.51433 -0.24482
 N153 N -0.04977 0.54957 -0.27927
 C154 C -0.09795 0.58753 -0.25812
 H155 H -0.15682 0.59105 -0.03299
 H156 H -0.21802 0.65645 -0.09495
 H157 H 0.00076 0.48427 -0.16101
 H158 H -0.12586 0.61375 -0.28865
 C159 C 0.37724 1.06513 0.38371
 C160 C 0.33797 1.09828 0.34548
 C161 C 0.31443 1.14870 0.36249
 C162 C 0.32920 1.16556 0.41992
 C163 C 0.37259 1.13266 0.45789
 C164 C 0.39791 1.08260 0.43890
 C165 C 0.39001 1.15124 0.51360
 N166 N 0.36458 1.19948 0.53020
 N167 N 0.32320 1.23027 0.49482
 C168 C 0.30461 1.21502 0.44037
 H169 H 0.39506 1.02641 0.36918
 H170 H 0.32732 1.08472 0.30196
 H171 H 0.42335 1.12781 0.54409
 H172 H 0.27164 1.24200 0.41357
 C173 C 1.10584 -0.12364 -0.05623
 C174 C 1.14527 -0.15867 -0.09236
 C175 C 1.17453 -0.14199 -0.14580
 C176 C 1.16734 -0.08859 -0.16209
 C177 C 1.12814 -0.05278 -0.12502
 C178 C 1.09550 -0.07101 -0.07243
 C179 C 1.12048 -0.00020 -0.14298
 N180 N 1.15112 0.01523 -0.19436
 N181 N 1.18847 -0.01837 -0.22901
 C182 C 1.19752 -0.06974 -0.21472
 H183 H 1.08092 -0.13801 -0.01615
 H184 H 1.14986 -0.19958 -0.07974
 H185 H 1.09021 0.02870 -0.11684
 H186 H 1.22842 -0.09529 -0.24443
 C187 C 0.64629 0.40941 0.42646
 C188 C 0.68136 0.37294 0.38982
 C189 C 0.66070 0.37042 0.33117
 C190 C 0.60920 0.40917 0.30801
 C191 C 0.57254 0.44573 0.34570
 C192 C 0.58828 0.44370 0.40581
 C193 C 0.52179 0.48374 0.32188
 N194 N 0.50901 0.48500 0.26404
 N195 N 0.54424 0.45124 0.22845
 C196 C 0.59418 0.41368 0.24829
 H197 H 0.66037 0.40829 0.47215
 H198 H 0.72199 0.34466 0.40826
 H199 H 0.49305 0.51289 0.34863
 H200 H 0.62308 0.38895 0.21685
 C201 C 0.93229 -0.07892 -0.13209
 C202 C 0.89946 -0.11550 -0.16928
 C203 C 0.85242 -0.15630 -0.14821
 C204 C 0.84379 -0.16218 -0.08701
 C205 C 0.88003 -0.12563 -0.04909
 C206 C 0.92361 -0.08327 -0.07206
 C207 C 0.87403 -0.13388 0.01099
 N208 N 0.83465 -0.17582 0.03174
 N209 N 0.80192 -0.21057 -0.00343
 C210 C 0.80576 -0.20561 -0.06175
 H211 H 0.96474 -0.04662 -0.15052
 H212 H 0.90772 -0.11000 -0.21540
 H213 H 0.90148 -0.10807 0.04182
 H214 H 0.78136 -0.23691 -0.08713
 C215 C 0.35625 0.43965 0.38636
 C216 C 0.32055 0.40360 0.34989
 C217 C 0.34826 0.35184 0.34630
 C218 C 0.40980 0.33509 0.38328
 C219 C 0.44141 0.37071 0.42391
 C220 C 0.41806 0.42429 0.42262
 C221 C 0.49466 0.35122 0.46518
 N222 N 0.51946 0.30057 0.46259
 N223 N 0.49337 0.26789 0.42220
 C224 C 0.43947 0.28337 0.38251
 H225 H 0.33647 0.48017 0.38543
 H226 H 0.27219 0.41668 0.32324
 H227 H 0.51696 0.37593 0.49932
 H228 H 0.41933 0.25474 0.35167
 C229 C 0.05568 0.61855 -0.09230
 C230 C 0.09243 0.65461 -0.12802
 C231 C 0.16410 0.64260 -0.15451
 C232 C 0.19754 0.59168 -0.14645
 C233 C 0.15423 0.55274 -0.11625
 C234 C 0.08324 0.56671 -0.08768
 C235 C 0.18241 0.50059 -0.11741
 N236 N 0.25198 0.48919 -0.14271
 N237 N 0.29455 0.52607 -0.16823
 C238 C 0.26969 0.57665 -0.17132
 H239 H 0.00408 0.63122 -0.06891
 H240 H 0.06649 0.69342 -0.13249
 H241 H 0.14953 0.46847 -0.09938
 H242 H 0.30608 0.60385 -0.19459
 C243 C 0.56427 1.08360 0.37592
 C244 C 0.59759 1.11889 0.33735
 C245 C 0.64354 1.16071 0.35697
 C246 C 0.65056 1.16896 0.41789
 C247 C 0.61334 1.13390 0.45712
 C248 C 0.57066 1.09062 0.43573
 C249 C 0.61784 1.14430 0.51678
 N250 N 0.65643 1.18713 0.53592
 N251 N 0.69002 1.22057 0.49946
 C252 C 0.68794 1.21330 0.44139
 H253 H 0.53340 1.05014 0.35875
 H254 H 0.59077 1.11155 0.29144
 H255 H 0.59003 1.11932 0.54843
 H256 H 0.71332 1.24341 0.41467
 C257 C 0.08470 0.37506 0.05218
 C258 C 0.12431 0.33997 0.08816
 C259 C 0.16238 0.35779 0.13779
 C260 C 0.16259 0.41206 0.15062
 C261 C 0.12220 0.44788 0.11412
 C262 C 0.08187 0.42884 0.06499
 C263 C 0.12226 0.50141 0.12898
 N264 N 0.16117 0.51762 0.17679
 N265 N 0.19985 0.48397 0.21067
 C266 C 0.20185 0.43177 0.19920
 H267 H 0.05486 0.36004 0.01439
 H268 H 0.12304 0.29840 0.07827
 H269 H 0.09162 0.53050 0.10331
 H270 H 0.23462 0.40611 0.22765
 C271 C 0.60580 0.89608 0.55890
 C272 C 0.64384 0.85862 0.59290
 C273 C 0.66400 0.86956 0.65033
 C274 C 0.64843 0.92010 0.67323
 C275 C 0.61084 0.95856 0.63826
 C276 C 0.58808 0.94583 0.58111
 C277 C 0.59620 1.00841 0.66208
 N278 N 0.61822 1.01881 0.71723
 N279 N 0.65385 0.98278 0.74999
 C280 C 0.66977 0.93382 0.72991
 H281 H 0.58819 0.88578 0.51537
 H282 H 0.65520 0.82014 0.57482
 H283 H 0.56752 1.03912 0.63737
 H284 H 0.69939 0.90627 0.75826
 C285 C 0.90274 0.05731 0.13213
 C286 C 0.86528 0.09465 0.16658
 C287 C 0.82466 0.13707 0.14171
 C288 C 0.82124 0.14160 0.08036
 C289 C 0.85880 0.10319 0.04537
 C290 C 0.90113 0.06145 0.07174
 C291 C 0.85687 0.10961 -0.01517
 N292 N 0.81980 0.15164 -0.03886
 N293 N 0.78543 0.18806 -0.00619
 C294 C 0.78537 0.18478 0.05234
 H295 H 0.93569 0.02592 0.15271
 H296 H 0.86901 0.09081 0.21320
 H297 H 0.88523 0.08211 -0.04404
 H298 H 0.75853 0.21668 0.07580
 C299 C 0.41239 0.62638 0.55490
 C300 C 0.37507 0.66171 0.59166
 C301 C 0.32700 0.64388 0.63633
 C302 C 0.31531 0.58940 0.64363
 C303 C 0.35765 0.55314 0.60884
 C304 C 0.40690 0.57202 0.56397
 C305 C 0.35052 0.49930 0.62149
 N306 N 0.30049 0.48324 0.66340
 N307 N 0.25794 0.51730 0.69401
 C308 C 0.26379 0.56982 0.68563
 H309 H 0.44818 0.64168 0.52016
 H310 H 0.38493 0.70331 0.58574
 H311 H 0.38437 0.46979 0.59891
 H312 H 0.22798 0.59584 0.71164
   
