data_POSCAR
  _audit_creation_date              2014-09-24
  _audit_creation_method            'ToBaCCo'
  _symmetry_space_group_name_H-M    'P1'
  _symmetry_Int_Tables_number       1
  _symmetry_cell_setting            triclinic
  loop_
  _symmetry_equiv_pos_as_xyz
 x,y,z
_cell_length_a 43.7739
_cell_length_b 46.2840
_cell_length_c 8.5214
_cell_angle_alpha 89.665600
_cell_angle_beta 90.238000
_cell_angle_gamma 90.048500
loop_
  _atom_site_label
  _atom_site_type_symbol
  _atom_site_fract_x
  _atom_site_fract_y
  _atom_site_fract_z
C1 C 0.16806 0.25074 0.22702
 C2 C 0.18320 0.22492 0.26940
 C3 C 0.21529 0.22586 0.28596
 C4 C 0.23203 0.25124 0.25484
 C5 C 0.21618 0.27637 0.20986
 C6 C 0.18422 0.27642 0.19856
 C7 C 0.26602 0.25136 0.27098
 C8 C 0.28155 0.27615 0.32286
 C9 C 0.31342 0.27622 0.33873
 C10 C 0.32989 0.25102 0.30509
 C11 C 0.31507 0.22558 0.25496
 C12 C 0.28304 0.22645 0.23558
 H13 H 0.14367 0.25087 0.20642
 H14 H 0.22737 0.20713 0.33013
 H15 H 0.22860 0.29606 0.18424
 H16 H 0.26889 0.29528 0.35508
 H17 H 0.35432 0.25132 0.32397
 H18 H 0.27122 0.20807 0.18634
 C19 C 0.83031 0.25084 0.18379
 C20 C 0.81403 0.27652 0.15680
 C21 C 0.78228 0.27683 0.18030
 C22 C 0.76681 0.25191 0.23263
 C23 C 0.78375 0.22657 0.26139
 C24 C 0.81535 0.22570 0.23506
 C25 C 0.73305 0.25210 0.25578
 C26 C 0.71567 0.22717 0.22443
 C27 C 0.68382 0.22635 0.24937
 C28 C 0.66953 0.25186 0.30160
 C29 C 0.68635 0.27709 0.33125
 C30 C 0.71807 0.27698 0.30929
 H31 H 0.85473 0.25037 0.16411
 H32 H 0.76960 0.29634 0.15363
 H33 H 0.77246 0.20745 0.30659
 H34 H 0.72703 0.20876 0.17343
 H35 H 0.64528 0.25220 0.32475
 H36 H 0.73109 0.29616 0.33772
 C37 C 0.67000 0.75172 0.68558
 C38 C 0.68486 0.72647 0.73602
 C39 C 0.71655 0.72709 0.76086
 C40 C 0.73368 0.75227 0.73089
 C41 C 0.71831 0.77733 0.67962
 C42 C 0.68647 0.77728 0.65781
 C43 C 0.76757 0.75204 0.75096
 C44 C 0.78329 0.77669 0.80430
 C45 C 0.81532 0.77648 0.82689
 C46 C 0.83115 0.75051 0.79658
 C47 C 0.81585 0.72575 0.74375
 C48 C 0.78425 0.72686 0.71900
 H49 H 0.64551 0.75145 0.66696
 H50 H 0.72776 0.70788 0.80561
 H51 H 0.73112 0.79673 0.65231
 H52 H 0.77015 0.79550 0.83638
 H53 H 0.85568 0.74939 0.80989
 H54 H 0.77276 0.70800 0.67266
 C55 C 0.33077 0.75180 0.69798
 C56 C 0.31452 0.77773 0.68092
 C57 C 0.28269 0.77761 0.70104
 C58 C 0.26719 0.75209 0.74459
 C59 C 0.28423 0.72648 0.76498
 C60 C 0.31582 0.72602 0.73800
 C61 C 0.23337 0.75200 0.76810
 C62 C 0.21601 0.72719 0.73349
 C63 C 0.18420 0.72611 0.75965
 C64 C 0.16983 0.75135 0.81485
 C65 C 0.18656 0.77651 0.84716
 C66 C 0.21829 0.77655 0.82554
 H67 H 0.35524 0.75165 0.67926
 H68 H 0.27014 0.79750 0.68326
 H69 H 0.27295 0.70667 0.79993
 H70 H 0.22727 0.70907 0.67920
 H71 H 0.14559 0.75153 0.83830
 H72 H 0.23118 0.79563 0.85715
 O73 O 0.97096 -0.02437 0.00588
 O74 O 1.03026 0.02986 0.08946
 O75 O 1.03037 -0.02466 0.01418
 O76 O 0.97114 0.03020 0.08088
 O77 O 0.96987 0.01873 0.33305
 O78 O 1.02925 -0.03630 0.26612
 O79 O 1.02916 0.01839 0.34165
 O80 O 0.96973 -0.03598 0.25784
 Cu81 Cu 1.00080 0.00393 0.02249
 Cu82 Cu 0.99937 -0.01008 0.32476
 C83 C 0.96041 -0.03944 0.11804
 C84 C 1.03950 0.03353 0.22914
 C85 C 1.03975 -0.03984 0.12904
 C86 C 0.96074 0.03398 0.21786
 O87 O 0.47044 0.51878 0.82804
 O88 O 0.53041 0.46466 0.75366
 O89 O 0.52978 0.51945 0.82788
 O90 O 0.47087 0.46410 0.75340
 O91 O 0.47065 0.47552 0.50109
 O92 O 0.52940 0.53071 0.57534
 O93 O 0.53007 0.47609 0.50139
 O94 O 0.47027 0.53003 0.57546
 Cu95 Cu 0.50043 0.49047 0.81587
 Cu96 Cu 0.50009 0.50426 0.51323
 C97 C 0.46045 0.53375 0.71363
 C98 C 0.54025 0.46113 0.61527
 C99 C 0.53927 0.53466 0.71365
 C100 C 0.46088 0.46042 0.61499
 O101 O -0.02950 0.53103 -0.09162
 O102 O 0.02957 0.47676 -0.00519
 O103 O 0.02961 0.53124 -0.08506
 O104 O -0.02978 0.47655 -0.01226
 O105 O -0.02892 0.46476 -0.26329
 O106 O 0.03062 0.51959 -0.33630
 O107 O 0.03058 0.46492 -0.25613
 O108 O -0.02870 0.51943 -0.34294
 Cu109 Cu -0.00011 0.50510 -0.02352
 Cu110 Cu 0.00100 0.49088 -0.32473
 C111 C -0.03887 0.53465 -0.23132
 C112 C 0.03994 0.46153 -0.11613
 C113 C 0.03990 0.53491 -0.22261
 C114 C -0.03928 0.46130 -0.12563
 O115 O 0.47061 1.03189 0.41334
 O116 O 0.53000 0.97733 0.48973
 O117 O 0.52973 1.03185 0.41066
 O118 O 0.47058 0.97750 0.49341
 O119 O 0.46975 0.96565 0.24242
 O120 O 0.52907 1.02026 0.15927
 O121 O 0.52930 0.96555 0.23865
 O122 O 0.46976 1.02022 0.16206
 Cu123 Cu 0.50032 1.00583 0.47681
 Cu124 Cu 0.49941 0.99161 0.17554
 C125 C 0.46036 1.03549 0.27522
 C126 C 0.53959 0.96211 0.37688
 C127 C 0.53915 1.03551 0.27149
 C128 C 0.46022 0.96232 0.38178
 C129 C 1.11870 0.17318 0.34238
 C130 C 1.13263 0.14674 0.31052
 C131 C 1.16366 0.14593 0.27331
 C132 C 1.18058 0.17153 0.26411
 C133 C 1.16667 0.19868 0.29055
 C134 C 1.13544 0.19883 0.33297
 C135 C 1.11449 0.12081 0.30589
 C136 C 1.09851 0.09967 0.29664
 C137 C 1.07888 0.07568 0.27959
 C138 C 1.06134 0.05595 0.25959
 H139 H 1.09469 0.17404 0.37243
 H140 H 1.17462 0.12556 0.24684
 H141 H 1.20408 0.16982 0.22665
 H142 H 1.12374 0.21862 0.36236
 C143 C 0.62115 0.67393 0.83723
 C144 C 0.63286 0.64802 0.77874
 C145 C 0.66205 0.64751 0.71255
 C146 C 0.67926 0.67290 0.70213
 C147 C 0.66741 0.69920 0.75738
 C148 C 0.63831 0.69936 0.82683
 C149 C 0.61416 0.62243 0.77737
 C150 C 0.59797 0.60139 0.77103
 C151 C 0.57833 0.57733 0.75747
 C152 C 0.56089 0.55742 0.74051
 H153 H 0.59854 0.67458 0.88831
 H154 H 0.67123 0.62763 0.66573
 H155 H 0.70141 0.67215 0.64624
 H156 H 0.62874 0.71919 0.87211
 C157 C -0.15919 0.35442 0.13198
 C158 C -0.13572 0.35240 0.02150
 C159 C -0.12963 0.32588 -0.04991
 C160 C -0.14645 0.30135 -0.00868
 C161 C -0.16961 0.30299 0.10492
 C162 C -0.17611 0.32988 0.17323
 C163 C -0.11679 0.37705 -0.01317
 C164 C -0.10012 0.39717 -0.04078
 C165 C -0.07972 0.42013 -0.07163
 C166 C -0.06161 0.43921 -0.09684
 H167 H -0.16400 0.37481 0.18852
 H168 H -0.11153 0.32407 -0.13564
 H169 H -0.14123 0.28103 -0.06491
 H170 H -0.19361 0.33174 0.26205
 C171 C 0.37548 0.83581 0.67919
 C172 C 0.36471 0.85453 0.56210
 C173 C 0.33689 0.84873 0.48679
 C174 C 0.32012 0.82401 0.52713
 C175 C 0.33115 0.80479 0.64263
 C176 C 0.35884 0.81114 0.71929
 C177 C 0.38297 0.87907 0.51722
 C178 C 0.39938 0.89900 0.48234
 C179 C 0.41970 0.92166 0.44457
 C180 C 0.43783 0.94049 0.41469
 H181 H 0.39694 0.84012 0.73845
 H182 H 0.32839 0.86306 0.39561
 H183 H 0.29899 0.81953 0.46536
 H184 H 0.36767 0.79695 0.81024
 C185 C -0.16205 0.64661 -0.23748
 C186 C -0.13310 0.64714 -0.30647
 C187 C -0.12145 0.67312 -0.36629
 C188 C -0.13837 0.69860 -0.35397
 C189 C -0.16715 0.69842 -0.28107
 C190 C -0.17902 0.67206 -0.22514
 C191 C -0.11441 0.62158 -0.30509
 C192 C -0.09813 0.60063 -0.29787
 C193 C -0.07832 0.57675 -0.28224
 C194 C -0.06070 0.55705 -0.26256
 H195 H -0.17117 0.62667 -0.18957
 H196 H -0.09902 0.67379 -0.41944
 H197 H -0.12883 0.71850 -0.40000
 H198 H -0.20096 0.67131 -0.16694
 C199 C 0.38016 1.17503 0.17711
 C200 C 0.36634 1.14825 0.20314
 C201 C 0.33519 1.14686 0.23714
 C202 C 0.31804 1.17223 0.24938
 C203 C 0.33184 1.19969 0.22937
 C204 C 0.36319 1.20045 0.18959
 C205 C 0.38471 1.12248 0.20562
 C206 C 0.40087 1.10145 0.21334
 C207 C 0.42068 1.07757 0.22871
 C208 C 0.43838 1.05790 0.24711
 H209 H 0.40426 1.17634 0.14947
 H210 H 0.32431 1.12620 0.25902
 H211 H 0.29444 1.17002 0.28443
 H212 H 0.37484 1.22055 0.16474
 C213 C 1.16032 -0.14565 -0.12197
 C214 C 1.13685 -0.14808 -0.01150
 C215 C 1.13080 -0.17484 0.05915
 C216 C 1.14757 -0.19923 0.01666
 C217 C 1.17061 -0.19718 -0.09753
 C218 C 1.17718 -0.17003 -0.16446
 C219 C 1.11776 -0.12364 0.02299
 C220 C 1.10093 -0.10368 0.04982
 C221 C 1.08036 -0.08088 0.07913
 C222 C 1.06214 -0.06189 0.10264
 H223 H 1.16510 -0.12506 -0.17790
 H224 H 1.11271 -0.17697 0.14486
 H225 H 1.14232 -0.21976 0.07183
 H226 H 1.19462 -0.16788 -0.25357
 C227 C 0.66041 0.35510 0.35766
 C228 C 0.63711 0.35299 0.46928
 C229 C 0.63105 0.32640 0.54171
 C230 C 0.64763 0.30186 0.49999
 C231 C 0.67051 0.30358 0.38482
 C232 C 0.67709 0.33056 0.31595
 C233 C 0.61822 0.37759 0.50359
 C234 C 0.60150 0.39761 0.53085
 C235 C 0.58098 0.42039 0.56133
 C236 C 0.56275 0.43929 0.58640
 H237 H 0.66521 0.37556 0.30038
 H238 H 0.61310 0.32451 0.62836
 H239 H 0.64239 0.28146 0.55672
 H240 H 0.69442 0.33246 0.22613
 C241 C 0.83690 -0.14576 -0.11400
 C242 C 0.86501 -0.14862 -0.03710
 C243 C 0.87598 -0.17608 0.00113
 C244 C 0.85941 -0.20067 -0.04044
 C245 C 0.83130 -0.19842 -0.12234
 C246 C 0.82011 -0.17033 -0.15556
 C247 C 0.88337 -0.12363 -0.00218
 C248 C 0.89977 -0.10336 0.02614
 C249 C 0.92002 -0.08038 0.05853
 C250 C 0.93809 -0.06137 0.08579
 H251 H 0.82825 -0.12455 -0.14501
 H252 H 0.89758 -0.17854 0.06241
 H253 H 0.86855 -0.22133 -0.00370
 H254 H 0.79922 -0.16703 -0.22146
 C255 C 0.33978 0.35416 0.36462
 C256 C 0.36392 0.35184 0.47230
 C257 C 0.37050 0.32513 0.54220
 C258 C 0.35355 0.30067 0.50193
 C259 C 0.32979 0.30260 0.39075
 C260 C 0.32273 0.32969 0.32437
 C261 C 0.38301 0.37641 0.50546
 C262 C 0.39984 0.39645 0.53191
 C263 C 0.42040 0.41930 0.56165
 C264 C 0.43858 0.43833 0.58629
 H265 H 0.33456 0.37472 0.30938
 H266 H 0.38910 0.32310 0.62585
 H267 H 0.35919 0.28017 0.55671
 H268 H 0.30470 0.33175 0.23760
 C269 C 0.16425 0.64736 -0.26248
 C270 C 0.13283 0.64865 -0.29038
 C271 C 0.11865 0.67544 -0.31028
 C272 C 0.13558 0.70092 -0.29811
 C273 C 0.16729 0.70023 -0.26489
 C274 C 0.18137 0.67278 -0.25057
 C275 C 0.11467 0.62272 -0.28850
 C276 C 0.09874 0.60151 -0.28147
 C277 C 0.07920 0.57738 -0.26706
 C278 C 0.06171 0.55751 -0.24957
 H279 H 0.17543 0.62669 -0.24532
 H280 H 0.09431 0.67668 -0.33313
 H281 H 0.12362 0.72103 -0.31829
 H282 H 0.20528 0.67060 -0.22044
 C283 C 0.66347 1.14765 0.22997
 C284 C 0.63213 1.14905 0.19979
 C285 C 0.61811 1.17588 0.17845
 C286 C 0.63515 1.20130 0.19101
 C287 C 0.66678 1.20050 0.22600
 C288 C 0.68067 1.17301 0.24234
 C289 C 0.61387 1.12318 0.20097
 C290 C 0.59789 1.10200 0.20776
 C291 C 0.57834 1.07790 0.22261
 C292 C 0.56088 1.05805 0.24143
 H293 H 0.67450 1.12695 0.24845
 H294 H 0.59384 1.17721 0.15402
 H295 H 0.62333 1.22145 0.16946
 H296 H 0.70449 1.17074 0.27413
 C297 C 0.16085 0.34596 -0.00869
 C298 C 0.13388 0.35277 0.07087
 C299 C 0.12388 0.33506 0.19393
 C300 C 0.14048 0.31047 0.23631
 C301 C 0.16738 0.30320 0.15603
 C302 C 0.17757 0.32134 0.03384
 C303 C 0.11582 0.37738 0.02477
 C304 C 0.09971 0.39749 -0.01123
 C305 C 0.07982 0.42042 -0.05045
 C306 C 0.06202 0.43949 -0.08162
 H307 H 0.16873 0.35947 -0.10456
 H308 H 0.10307 0.34014 0.25642
 H309 H 0.13231 0.29713 0.33218
 H310 H 0.19804 0.31612 -0.03101
 C311 C 0.66013 0.85531 0.63423
 C312 C 0.63630 0.85338 0.52467
 C313 C 0.62987 0.82691 0.45324
 C314 C 0.64669 0.80231 0.49362
 C315 C 0.67019 0.80385 0.60642
 C316 C 0.67706 0.83070 0.67462
 C317 C 0.61736 0.87808 0.49080
 C318 C 0.60063 0.89819 0.46347
 C319 C 0.58015 0.92108 0.43250
 C320 C 0.56197 0.94010 0.40677
 H321 H 0.66522 0.87567 0.69075
 H322 H 0.61150 0.82517 0.36816
 H323 H 0.64118 0.78203 0.43746
 H324 H 0.69484 0.83247 0.76278
 C325 C 0.83756 0.14663 0.21208
 C326 C 0.86691 0.14706 0.27773
 C327 C 0.87890 0.17294 0.33580
 C328 C 0.86188 0.19843 0.32543
 C329 C 0.83263 0.19835 0.25644
 C330 C 0.82048 0.17209 0.20172
 C331 C 0.88550 0.12143 0.27636
 C332 C 0.90167 0.10040 0.27042
 C333 C 0.92138 0.07642 0.25789
 C334 C 0.93893 0.05660 0.24234
 H335 H 0.82815 0.12677 0.16564
 H336 H 0.90163 0.17353 0.38649
 H337 H 0.87167 0.21823 0.37035
 H338 H 0.79819 0.17142 0.14630
 C339 C 0.34523 0.65286 0.87615
 C340 C 0.36687 0.64684 0.76032
 C341 C 0.37155 0.66649 0.63746
 C342 C 0.35487 0.69213 0.63045
 C343 C 0.33322 0.69855 0.74656
 C344 C 0.32841 0.67858 0.86921
 C345 C 0.38480 0.62081 0.76645
 C346 C 0.40079 0.59963 0.76482
 C347 C 0.42057 0.57567 0.75503
 C348 C 0.43833 0.55602 0.73986
 H349 H 0.34148 0.63781 0.97201
 H350 H 0.38818 0.66200 0.54694
 H351 H 0.35871 0.70685 0.53323
 H352 H 0.31204 0.68307 0.96079
   
