data_POSCAR
  _audit_creation_date              2014-09-24
  _audit_creation_method            'ToBaCCo'
  _symmetry_space_group_name_H-M    'P1'
  _symmetry_Int_Tables_number       1
  _symmetry_cell_setting            triclinic
  loop_
  _symmetry_equiv_pos_as_xyz
 x,y,z
_cell_length_a 46.1751
_cell_length_b 32.8358
_cell_length_c 34.2426
_cell_angle_alpha 90.190700
_cell_angle_beta 90.443000
_cell_angle_gamma 84.981700
loop_
  _atom_site_label
  _atom_site_type_symbol
  _atom_site_fract_x
  _atom_site_fract_y
  _atom_site_fract_z
C1 C 1.22766 0.22693 0.20106
 C2 C 1.24815 0.25104 0.17708
 C3 C 1.26490 0.27441 0.19942
 C4 C 1.25959 0.27169 0.24372
 C5 C 1.24734 0.20217 0.23024
 C6 C 1.26400 0.22565 0.25257
 C7 C 1.21001 0.25887 0.22579
 C8 C 1.22663 0.28218 0.24819
 H9 H 1.24996 0.24878 0.14552
 H10 H 1.27315 0.29088 0.26187
 H11 H 1.24829 0.16908 0.23268
 H12 H 1.18643 0.26097 0.22750
 C13 C 0.72969 -0.27323 0.20051
 C14 C 0.74966 -0.24837 0.17651
 C15 C 0.76609 -0.22464 0.19889
 C16 C 0.76110 -0.22783 0.24319
 C17 C 0.74975 -0.29768 0.22941
 C18 C 0.76610 -0.27387 0.25178
 C19 C 0.71172 -0.24184 0.22551
 C20 C 0.72813 -0.21820 0.24789
 H21 H 0.75094 -0.24970 0.14485
 H22 H 0.77452 -0.20842 0.26130
 H23 H 0.75074 -0.33074 0.23223
 H24 H 0.68814 -0.24013 0.22716
 C25 C 0.72809 0.22535 -0.29909
 C26 C 0.74739 0.24808 -0.32251
 C27 C 0.76460 0.27350 -0.29926
 C28 C 0.75923 0.27131 -0.25720
 C29 C 0.74679 0.20234 -0.27093
 C30 C 0.76395 0.22777 -0.24779
 C31 C 0.71070 0.25588 -0.27637
 C32 C 0.72786 0.28123 -0.25324
 H33 H 0.74916 0.24561 -0.35410
 H34 H 0.77253 0.29113 -0.23923
 H35 H 0.74863 0.16916 -0.26863
 H36 H 0.68711 0.25741 -0.27447
 C37 C 1.22982 -0.27648 -0.29948
 C38 C 1.25017 -0.25197 -0.32323
 C39 C 1.26688 -0.22887 -0.30058
 C40 C 1.26180 -0.23233 -0.25636
 C41 C 1.24955 -0.30166 -0.27073
 C42 C 1.26621 -0.27849 -0.24816
 C43 C 1.21220 -0.24493 -0.27425
 C44 C 1.22891 -0.22193 -0.25168
 H45 H 1.25147 -0.25306 -0.35489
 H46 H 1.27545 -0.21344 -0.23802
 H47 H 1.25011 -0.33470 -0.26817
 H48 H 1.18861 -0.24264 -0.27263
 C49 C 0.23088 0.22298 0.80187
 C50 C 0.24990 0.24731 0.82422
 C51 C 0.26663 0.27194 0.80029
 C52 C 0.26137 0.26784 0.75844
 C53 C 0.21229 0.25342 0.77628
 C54 C 0.22825 0.27685 0.75347
 C55 C 0.25063 0.19799 0.77310
 C56 C 0.26654 0.22160 0.75029
 H57 H 0.25181 0.24637 0.85588
 H58 H 0.27435 0.28705 0.73985
 H59 H 0.18869 0.25481 0.77478
 H60 H 0.25200 0.16484 0.77107
 C61 C 0.72826 0.72171 0.79850
 C62 C 0.74859 0.74390 0.82127
 C63 C 0.76571 0.76839 0.79746
 C64 C 0.75924 0.76599 0.75556
 C65 C 0.71086 0.75259 0.77602
 C66 C 0.72791 0.77698 0.75224
 C67 C 0.74586 0.69775 0.77001
 C68 C 0.76294 0.72230 0.74627
 H69 H 0.75113 0.74165 0.85281
 H70 H 0.77248 0.78514 0.73720
 H71 H 0.68725 0.75414 0.77383
 H72 H 0.74707 0.66457 0.76793
 C73 C 0.72966 0.21842 0.29782
 C74 C 0.75073 0.24230 0.32156
 C75 C 0.76726 0.26518 0.29900
 C76 C 0.76131 0.26220 0.25483
 C77 C 0.71186 0.25049 0.27317
 C78 C 0.72842 0.27328 0.25064
 C79 C 0.74864 0.19308 0.26855
 C80 C 0.76513 0.21611 0.24604
 H81 H 0.75259 0.24100 0.35320
 H82 H 0.77482 0.28098 0.23658
 H83 H 0.68824 0.25312 0.27172
 H84 H 0.74913 0.16002 0.26601
 C85 C 0.22824 0.71933 0.29970
 C86 C 0.24887 0.74410 0.32336
 C87 C 0.26521 0.76723 0.30070
 C88 C 0.25942 0.76363 0.25647
 C89 C 0.21016 0.75068 0.27465
 C90 C 0.22640 0.77376 0.25198
 C91 C 0.24770 0.69418 0.27080
 C92 C 0.26397 0.71743 0.24818
 H93 H 0.25096 0.74262 0.35497
 H94 H 0.27268 0.78262 0.23808
 H95 H 0.18654 0.75282 0.27325
 H96 H 0.24893 0.66103 0.26892
 O97 O 1.03538 0.06702 0.06777
 O98 O 1.06938 0.02748 0.03233
 C99 C 1.06197 0.05492 0.05844
 O100 O 0.95907 -0.07446 0.06309
 O101 O 0.92620 -0.03420 0.02604
 C102 C 0.93281 -0.06229 0.05191
 O103 O 1.04001 -0.07361 0.07103
 O104 O 1.07143 -0.04040 0.03345
 C105 C 1.06586 -0.06480 0.06144
 O106 O 0.95386 0.07395 0.06189
 O107 O 0.92369 0.03593 0.02594
 C108 C 0.92840 0.06397 0.05135
 Zr109 Zr 0.99558 0.04855 0.04505
 O110 O 0.99441 0.04366 0.10651
 O111 O 0.99197 0.11322 0.04872
 Zr112 Zr 0.99922 -0.05466 0.04479
 O113 O 0.99650 -0.05856 0.10624
 O114 O 1.00043 -0.11912 0.03926
 O115 O 1.02309 -0.00423 0.05368
 O116 O 0.97201 -0.00164 0.05104
 O117 O 0.95648 0.07423 -0.07348
 O118 O 0.92501 0.03686 -0.04002
 C119 C 0.93063 0.06495 -0.06468
 O120 O 1.04275 -0.07562 -0.07502
 O121 O 1.07262 -0.04077 -0.03564
 C122 C 1.06812 -0.06596 -0.06367
 O123 O 0.96164 -0.07643 -0.07371
 O124 O 0.92746 -0.03455 -0.04088
 C125 C 0.93500 -0.06391 -0.06515
 O126 O 1.03765 0.06631 -0.07346
 O127 O 1.07020 0.02762 -0.03485
 C128 C 1.06381 0.05441 -0.06181
 Zr129 Zr 0.99734 0.04824 -0.05341
 O130 O 0.99531 0.04719 -0.11522
 O131 O 0.99751 0.11267 -0.05326
 Zr132 Zr 1.00111 -0.05509 -0.05333
 O133 O 0.99881 -0.05647 -0.11506
 O134 O 1.00673 -0.11974 -0.05140
 Zr135 Zr 1.04172 -0.00528 -0.00239
 Zr136 Zr 0.95485 -0.00085 -0.00610
 O137 O 0.97408 -0.00211 -0.06167
 O138 O 1.02522 -0.00468 -0.06001
 O139 O 0.97027 0.05770 -0.00526
 O140 O 1.02607 -0.06359 -0.00307
 O141 O 1.02145 0.05462 -0.00315
 O142 O 0.97435 -0.06132 -0.00538
 H143 H 0.95879 -0.00081 0.07373
 H144 H 1.04043 -0.08782 -0.00247
 H145 H 0.96142 -0.00143 -0.08520
 H146 H 1.03374 0.07786 -0.00286
 H147 H 1.02084 -0.13085 0.04163
 H148 H 0.99105 -0.12901 -0.03498
 H149 H 1.01258 -0.03754 -0.12487
 H150 H 1.01321 0.03162 -0.12467
 H151 H 0.98355 0.12333 -0.03312
 H152 H 1.00565 0.12367 0.02993
 H153 H 0.99274 0.07204 0.11670
 H154 H 1.00337 -0.03304 0.11690
 O155 O 1.03499 0.56586 0.57415
 O156 O 1.06825 0.52745 0.53664
 C157 C 1.06135 0.55421 0.56351
 O158 O 0.95932 0.42344 0.56949
 O159 O 0.92567 0.46415 0.53423
 C160 C 0.93283 0.43546 0.55927
 O161 O 1.04019 0.42465 0.57478
 O162 O 1.07055 0.45939 0.53692
 C163 C 1.06571 0.43418 0.56456
 O164 O 0.95351 0.57320 0.57038
 O165 O 0.92277 0.53585 0.53471
 C166 C 0.92787 0.56369 0.56017
 Zr167 Zr 0.99494 0.54809 0.55196
 O168 O 0.99396 0.54365 0.61348
 O169 O 0.99520 0.61251 0.55428
 Zr170 Zr 0.99894 0.44496 0.55101
 O171 O 0.99666 0.44288 0.61265
 O172 O 1.00308 0.38056 0.54613
 O173 O 1.02283 0.49541 0.55924
 O174 O 0.97158 0.49766 0.55840
 O175 O 0.95344 0.57419 0.43466
 O176 O 0.92283 0.53640 0.46916
 C177 C 0.92785 0.56462 0.44439
 O178 O 1.04066 0.42566 0.42992
 O179 O 1.07108 0.46076 0.46837
 C180 C 1.06621 0.43558 0.44043
 O181 O 0.95943 0.42398 0.43342
 O182 O 0.92564 0.46514 0.46771
 C183 C 0.93295 0.43622 0.44288
 O184 O 1.03492 0.56696 0.43248
 O185 O 1.06826 0.52838 0.47011
 C186 C 1.06132 0.55525 0.44338
 Zr187 Zr 0.99482 0.54862 0.45329
 O188 O 0.99166 0.54773 0.39156
 O189 O 0.99532 0.61302 0.45285
 Zr190 Zr 0.99904 0.44541 0.45263
 O191 O 0.99568 0.44467 0.39096
 O192 O 1.00475 0.38076 0.45357
 Zr193 Zr 1.04013 0.49499 0.50251
 Zr194 Zr 0.95340 0.49884 0.50186
 O195 O 0.97161 0.49818 0.44560
 O196 O 1.02276 0.49601 0.44539
 O197 O 0.96865 0.55756 0.50247
 O198 O 1.02475 0.43660 0.50204
 O199 O 1.01968 0.55483 0.50291
 O200 O 0.97324 0.43851 0.50154
 H201 H 0.95857 0.49804 0.58129
 H202 H 1.03908 0.41230 0.50195
 H203 H 0.95857 0.49894 0.42245
 H204 H 1.03158 0.57852 0.50332
 H205 H 1.00361 0.36999 0.57321
 H206 H 0.99034 0.37139 0.47201
 H207 H 1.00949 0.46339 0.38084
 H208 H 1.00966 0.53293 0.38151
 H209 H 0.97964 0.62444 0.47027
 H210 H 0.97978 0.62417 0.53634
 H211 H 0.99301 0.57206 0.62356
 H212 H 1.00660 0.46631 0.62273
 O213 O 0.53616 0.06666 0.57265
 O214 O 0.56939 0.02832 0.53517
 C215 C 0.56252 0.05503 0.56212
 O216 O 0.46065 -0.07573 0.56740
 O217 O 0.42715 -0.03496 0.53192
 C218 C 0.43423 -0.06357 0.55705
 O219 O 0.54193 -0.07485 0.57246
 O220 O 0.57249 -0.04000 0.53485
 C221 C 0.56755 -0.06548 0.56225
 O222 O 0.45476 0.07339 0.56800
 O223 O 0.42406 0.03600 0.53219
 C224 C 0.42913 0.06380 0.55770
 Zr225 Zr 0.49641 0.04848 0.55004
 O226 O 0.49528 0.04383 0.61154
 O227 O 0.49658 0.11289 0.55240
 Zr228 Zr 0.50042 -0.05455 0.54918
 O229 O 0.49746 -0.05524 0.61081
 O230 O 0.50646 -0.11921 0.54799
 O231 O 0.52433 -0.00423 0.55750
 O232 O 0.47304 -0.00181 0.55633
 O233 O 0.45532 0.07483 0.43241
 O234 O 0.42454 0.03704 0.46663
 C235 C 0.42967 0.06527 0.44188
 O236 O 0.54214 -0.07374 0.42792
 O237 O 0.57259 -0.03922 0.46687
 C238 C 0.56771 -0.06413 0.43874
 O239 O 0.46090 -0.07550 0.43106
 O240 O 0.42728 -0.03497 0.46604
 C241 C 0.43445 -0.06364 0.44093
 O242 O 0.53678 0.06714 0.43066
 O243 O 0.56990 0.02835 0.46844
 C244 C 0.56310 0.05527 0.44173
 Zr245 Zr 0.49662 0.04908 0.45126
 O246 O 0.49361 0.04813 0.38952
 O247 O 0.49739 0.11344 0.45082
 Zr248 Zr 0.50049 -0.05414 0.45057
 O249 O 0.49711 -0.05494 0.38891
 O250 O 0.50668 -0.11879 0.45136
 Zr251 Zr 0.54165 -0.00483 0.50078
 Zr252 Zr 0.45502 -0.00054 0.49962
 O253 O 0.47325 -0.00124 0.44344
 O254 O 0.52441 -0.00368 0.44354
 O255 O 0.47031 0.05814 0.50036
 O256 O 0.52606 -0.06313 0.50012
 O257 O 0.52132 0.05509 0.50107
 O258 O 0.47476 -0.06102 0.49950
 H259 H 0.45996 -0.00131 0.57917
 H260 H 0.54038 -0.08744 0.50006
 H261 H 0.46016 -0.00050 0.42034
 H262 H 0.53324 0.07875 0.50151
 H263 H 0.49016 -0.12913 0.53283
 H264 H 0.49036 -0.12880 0.46601
 H265 H 0.51081 -0.03609 0.37878
 H266 H 0.51160 0.03323 0.37953
 H267 H 0.48167 0.12495 0.46812
 H268 H 0.48122 0.12447 0.53433
 H269 H 0.49386 0.07224 0.62165
 H270 H 0.50951 -0.03399 0.62090
 O271 O 0.53830 0.56446 0.07207
 O272 O 0.57118 0.52681 0.03341
 C273 C 0.56454 0.55311 0.06080
 O274 O 0.46271 0.42184 0.06635
 O275 O 0.42868 0.46329 0.03228
 C276 C 0.43611 0.43408 0.05670
 O277 O 0.54423 0.42328 0.06999
 O278 O 0.57411 0.45917 0.03226
 C279 C 0.56962 0.43321 0.05942
 O280 O 0.45694 0.57167 0.06996
 O281 O 0.42614 0.53447 0.03435
 C282 C 0.43129 0.56202 0.06005
 Zr283 Zr 0.49812 0.54684 0.05038
 O284 O 0.49783 0.54129 0.11183
 O285 O 0.49826 0.61123 0.05342
 Zr286 Zr 0.50233 0.44361 0.04797
 O287 O 0.50072 0.44084 0.10963
 O288 O 0.50655 0.37924 0.04290
 O289 O 0.52616 0.49409 0.05645
 O290 O 0.47501 0.49615 0.05655
 O291 O 0.45503 0.57400 -0.06611
 O292 O 0.42506 0.53545 -0.03130
 C293 C 0.42963 0.56388 -0.05604
 O294 O 0.54260 0.42600 -0.07398
 O295 O 0.57331 0.46083 -0.03574
 C296 C 0.56822 0.43586 -0.06376
 O297 O 0.46113 0.42460 -0.06892
 O298 O 0.42792 0.46488 -0.03283
 C299 C 0.43476 0.43665 -0.05848
 O300 O 0.53664 0.56771 -0.07002
 O301 O 0.57039 0.52815 -0.03390
 C302 C 0.56315 0.55567 -0.05995
 Zr303 Zr 0.49689 0.54905 -0.04846
 O304 O 0.49309 0.54972 -0.11013
 O305 O 0.49729 0.61347 -0.04741
 Zr306 Zr 0.50124 0.44559 -0.05046
 O307 O 0.49729 0.44577 -0.11207
 O308 O 0.50687 0.38093 -0.05047
 Zr309 Zr 0.54274 0.49465 -0.00065
 Zr310 Zr 0.45639 0.49818 0.00027
 O311 O 0.47380 0.49847 -0.05637
 O312 O 0.52476 0.49649 -0.05745
 O313 O 0.47130 0.55706 0.00139
 O314 O 0.52750 0.43614 -0.00162
 O315 O 0.52230 0.55444 0.00087
 O316 O 0.47615 0.43786 -0.00114
 H317 H 0.46221 0.49613 0.07966
 H318 H 0.54185 0.41187 -0.00229
 H319 H 0.46046 0.49939 -0.07921
 H320 H 0.53427 0.57805 0.00127
 H321 H 0.50798 0.36864 0.06997
 H322 H 0.49306 0.37134 -0.03129
 H323 H 0.51123 0.46430 -0.12220
 H324 H 0.51053 0.53398 -0.12075
 H325 H 0.48085 0.62451 -0.03107
 H326 H 0.48305 0.62297 0.03523
 H327 H 0.49699 0.56953 0.12230
 H328 H 0.51165 0.46329 0.11977
 C329 C 1.12759 0.11440 0.10694
 C330 C 1.12672 0.15725 0.10158
 C331 C 1.14881 0.17948 0.11828
 C332 C 1.17162 0.15875 0.14023
 C333 C 1.17310 0.11572 0.14433
 C334 C 1.15103 0.09344 0.12757
 C335 C 1.15303 0.05043 0.13188
 C336 C 1.17629 0.03000 0.15199
 C337 C 1.19775 0.05182 0.16861
 C338 C 1.19625 0.09421 0.16499
 C339 C 1.14743 0.22231 0.11266
 C340 C 1.12494 0.24257 0.09099
 C341 C 1.10336 0.22082 0.07460
 C342 C 1.10409 0.17868 0.07980
 C343 C 1.19260 0.18200 0.16021
 C344 C 1.20906 0.20197 0.17790
 C345 C 1.10438 0.09214 0.09100
 C346 C 1.08493 0.07466 0.07690
 H347 H 1.13681 0.03216 0.11955
 H348 H 1.17773 -0.00295 0.15461
 H349 H 1.21571 0.03580 0.18429
 H350 H 1.21354 0.10985 0.17824
 H351 H 1.16377 0.24055 0.12471
 H352 H 1.12428 0.27531 0.08688
 H353 H 1.08595 0.23668 0.05776
 H354 H 1.08681 0.16314 0.06644
 C355 C 1.12821 0.61271 0.60911
 C356 C 1.12735 0.65556 0.60390
 C357 C 1.15001 0.67741 0.61948
 C358 C 1.17330 0.65627 0.64017
 C359 C 1.17479 0.61323 0.64396
 C360 C 1.15216 0.59131 0.62827
 C361 C 1.15412 0.54826 0.63222
 C362 C 1.17788 0.52746 0.65097
 C363 C 1.19989 0.54894 0.66660
 C364 C 1.19845 0.59136 0.66329
 C365 C 1.14868 0.72028 0.61411
 C366 C 1.12565 0.74091 0.59375
 C367 C 1.10348 0.71952 0.57846
 C368 C 1.10417 0.67735 0.58344
 C369 C 1.19461 0.67916 0.65967
 C370 C 1.21121 0.69889 0.67724
 C371 C 1.10448 0.59086 0.59444
 C372 C 1.08463 0.57366 0.58123
 H373 H 1.13747 0.53024 0.62064
 H374 H 1.17926 0.49449 0.65333
 H375 H 1.21824 0.53264 0.68125
 H376 H 1.21617 0.60676 0.67572
 H377 H 1.16547 0.73824 0.62534
 H378 H 1.12503 0.77367 0.58981
 H379 H 1.08563 0.73568 0.56265
 H380 H 1.08643 0.66208 0.57096
 C381 C 0.62989 0.11100 0.61039
 C382 C 0.64140 0.14259 0.58891
 C383 C 0.66373 0.16444 0.60554
 C384 C 0.67446 0.15443 0.64344
 C385 C 0.66392 0.12156 0.66414
 C386 C 0.64147 0.09987 0.64761
 C387 C 0.63100 0.06748 0.66902
 C388 C 0.64251 0.05665 0.70566
 C389 C 0.66456 0.07774 0.72176
 C390 C 0.67517 0.10992 0.70142
 C391 C 0.67470 0.19618 0.58376
 C392 C 0.66402 0.20593 0.54646
 C393 C 0.64225 0.18448 0.53012
 C394 C 0.63095 0.15320 0.55098
 C395 C 0.69492 0.17947 0.66223
 C396 C 0.71090 0.20071 0.67930
 C397 C 0.60583 0.09053 0.59438
 C398 C 0.58587 0.07408 0.58036
 H399 H 0.61400 0.05001 0.65758
 H400 H 0.63438 0.03162 0.72153
 H401 H 0.67350 0.06912 0.75016
 H402 H 0.69239 0.12534 0.71511
 H403 H 0.69173 0.21360 0.59521
 H404 H 0.67271 0.23021 0.53013
 H405 H 0.63407 0.19212 0.50113
 H406 H 0.61405 0.13740 0.53699
 C407 C 0.63069 0.61256 0.10732
 C408 C 0.62913 0.65552 0.10254
 C409 C 0.65117 0.67807 0.11880
 C410 C 0.67458 0.65752 0.13976
 C411 C 0.67675 0.61441 0.14320
 C412 C 0.65474 0.59181 0.12683
 C413 C 0.65737 0.54871 0.13048
 C414 C 0.68120 0.52853 0.14962
 C415 C 0.70263 0.55067 0.16589
 C416 C 0.70052 0.59315 0.16287
 C417 C 0.64913 0.72103 0.11383
 C418 C 0.62597 0.74111 0.09328
 C419 C 0.60439 0.71905 0.07735
 C420 C 0.60581 0.67676 0.08187
 C421 C 0.69533 0.68105 0.15968
 C422 C 0.71149 0.70139 0.17737
 C423 C 0.60748 0.59001 0.09204
 C424 C 0.58788 0.57249 0.07851
 H425 H 0.64119 0.53021 0.11840
 H426 H 0.68310 0.49553 0.15179
 H427 H 0.72104 0.53484 0.18081
 H428 H 0.71780 0.60907 0.17578
 H429 H 0.66546 0.73952 0.12554
 H430 H 0.62479 0.77395 0.08967
 H431 H 0.58644 0.73477 0.06140
 H432 H 0.58850 0.66097 0.06890
 C433 C 0.86711 -0.11478 0.10677
 C434 C 0.84518 -0.13252 0.08511
 C435 C 0.82394 -0.15345 0.10484
 C436 C 0.82467 -0.15629 0.14613
 C437 C 0.84591 -0.13714 0.16784
 C438 C 0.86719 -0.11631 0.14811
 C439 C 0.88822 -0.09742 0.17045
 C440 C 0.88818 -0.09897 0.21112
 C441 C 0.86740 -0.11940 0.23039
 C442 C 0.84648 -0.13838 0.20915
 C443 C 0.80235 -0.17122 0.08254
 C444 C 0.80155 -0.16794 0.04196
 C445 C 0.82213 -0.14712 0.02273
 C446 C 0.84389 -0.12982 0.04387
 C447 C 0.80394 -0.17961 0.16607
 C448 C 0.78676 -0.19971 0.18175
 C449 C 0.89001 -0.09587 0.08662
 C450 C 0.90940 -0.08051 0.07039
 H451 H 0.90480 -0.08109 0.15679
 H452 H 0.90436 -0.08423 0.22776
 H453 H 0.86745 -0.12052 0.26199
 H454 H 0.83071 -0.15382 0.22545
 H455 H 0.78577 -0.18754 0.09618
 H456 H 0.78479 -0.18150 0.02537
 H457 H 0.82123 -0.14435 -0.00875
 H458 H 0.85950 -0.11407 0.02757
 C459 C 0.86768 0.38007 0.61297
 C460 C 0.86969 0.37239 0.65364
 C461 C 0.84793 0.35163 0.67251
 C462 C 0.82429 0.33854 0.65062
 C463 C 0.82186 0.34720 0.61015
 C464 C 0.84354 0.36816 0.59132
 C465 C 0.84044 0.37682 0.55096
 C466 C 0.81656 0.36527 0.52983
 C467 C 0.79557 0.34436 0.54811
 C468 C 0.79809 0.33532 0.58779
 C469 C 0.85043 0.34438 0.71317
 C470 C 0.87370 0.35736 0.73462
 C471 C 0.89497 0.37762 0.71620
 C472 C 0.89312 0.38508 0.67618
 C473 C 0.80274 0.31564 0.66952
 C474 C 0.78489 0.29613 0.68461
 C475 C 0.89056 0.39984 0.59346
 C476 C 0.90978 0.41608 0.57762
 H477 H 0.85631 0.39277 0.53537
 H478 H 0.81442 0.37238 0.49904
 H479 H 0.77720 0.33518 0.53147
 H480 H 0.78112 0.31917 0.60073
 H481 H 0.83439 0.32881 0.72882
 H482 H 0.87522 0.35169 0.76572
 H483 H 0.91299 0.38765 0.73301
 H484 H 0.91017 0.40103 0.66320
 C485 C 0.36916 -0.11821 0.61108
 C486 C 0.37075 -0.12444 0.65198
 C487 C 0.34926 -0.14558 0.67092
 C488 C 0.32634 -0.16040 0.64884
 C489 C 0.32423 -0.15298 0.60814
 C490 C 0.34565 -0.13168 0.58923
 C491 C 0.34295 -0.12431 0.54859
 C492 C 0.31966 -0.13744 0.52729
 C493 C 0.29889 -0.15867 0.54567
 C494 C 0.30105 -0.16648 0.58561
 C495 C 0.35132 -0.15150 0.71181
 C496 C 0.37391 -0.13680 0.73341
 C497 C 0.39492 -0.11611 0.71490
 C498 C 0.39350 -0.10997 0.67466
 C499 C 0.30528 -0.18396 0.66775
 C500 C 0.28783 -0.20412 0.68274
 C501 C 0.39198 -0.09862 0.59146
 C502 C 0.41117 -0.08262 0.57546
 H503 H 0.35865 -0.10812 0.53293
 H504 H 0.31778 -0.13124 0.49630
 H505 H 0.28097 -0.16906 0.52891
 H506 H 0.28427 -0.18293 0.59863
 H507 H 0.33545 -0.16734 0.72752
 H508 H 0.37510 -0.14146 0.76468
 H509 H 0.41241 -0.10471 0.73182
 H510 H 0.41032 -0.09362 0.66161
 C511 C 0.37133 0.37689 0.10921
 C512 C 0.35554 0.39628 0.14044
 C513 C 0.33377 0.37582 0.15964
 C514 C 0.32777 0.33617 0.14738
 C515 C 0.34327 0.31703 0.11575
 C516 C 0.36515 0.33739 0.09670
 C517 C 0.38041 0.31754 0.06530
 C518 C 0.37418 0.27876 0.05295
 C519 C 0.35271 0.25894 0.07144
 C520 C 0.33739 0.27769 0.10250
 C521 C 0.31839 0.39579 0.19085
 C522 C 0.32425 0.43490 0.20271
 C523 C 0.34543 0.45495 0.18385
 C524 C 0.36099 0.43599 0.15310
 C525 C 0.30554 0.31512 0.16697
 C526 C 0.28706 0.29703 0.18242
 C527 C 0.39416 0.39733 0.09031
 C528 C 0.41325 0.41414 0.07484
 H529 H 0.39716 0.33181 0.04980
 H530 H 0.38596 0.26414 0.02876
 H531 H 0.34788 0.22887 0.06167
 H532 H 0.32089 0.26103 0.11590
 H533 H 0.30165 0.38147 0.20633
 H534 H 0.31225 0.44976 0.22660
 H535 H 0.34979 0.48537 0.19309
 H536 H 0.37725 0.45283 0.13932
 C537 C 0.86541 0.12790 -0.12692
 C538 C 0.85835 0.11229 -0.16407
 C539 C 0.83741 0.13453 -0.18822
 C540 C 0.82368 0.17236 -0.17518
 C541 C 0.83073 0.18798 -0.13805
 C542 C 0.85168 0.16571 -0.11385
 C543 C 0.85858 0.18214 -0.07703
 C544 C 0.84523 0.21957 -0.06451
 C545 C 0.82464 0.24121 -0.08805
 C546 C 0.81736 0.22572 -0.12443
 C547 C 0.83079 0.11827 -0.22528
 C548 C 0.84464 0.08135 -0.23823
 C549 C 0.86525 0.05978 -0.21473
 C550 C 0.87201 0.07480 -0.17799
 C551 C 0.80226 0.19474 -0.20013
 C552 C 0.78438 0.21140 -0.22198
 C553 C 0.88762 0.10569 -0.10305
 C554 C 0.90679 0.08701 -0.08465
 H555 H 0.87438 0.16635 -0.05763
 H556 H 0.85094 0.23188 -0.03640
 H557 H 0.81428 0.27021 -0.07811
 H558 H 0.80126 0.24367 -0.14177
 H559 H 0.81496 0.13393 -0.24473
 H560 H 0.83940 0.06947 -0.26671
 H561 H 0.87614 0.03132 -0.22504
 H562 H 0.88813 0.05676 -0.16077
 C563 C 0.86129 0.62517 0.38321
 C564 C 0.84944 0.66494 0.39352
 C565 C 0.82940 0.68697 0.36791
 C566 C 0.82135 0.66902 0.33225
 C567 C 0.83238 0.62865 0.32266
 C568 C 0.85239 0.60667 0.34823
 C569 C 0.86324 0.56643 0.33794
 C570 C 0.85454 0.54843 0.30339
 C571 C 0.83497 0.56990 0.27836
 C572 C 0.82396 0.60956 0.28770
 C573 C 0.81794 0.72676 0.37866
 C574 C 0.82598 0.74427 0.41381
 C575 C 0.84557 0.72273 0.43885
 C576 C 0.85726 0.68351 0.42895
 C577 C 0.80187 0.69174 0.30507
 C578 C 0.78570 0.70867 0.28129
 C579 C 0.88390 0.60405 0.40709
 C580 C 0.90354 0.58612 0.42512
 H581 H 0.87844 0.54837 0.35649
 H582 H 0.86305 0.51768 0.29602
 H583 H 0.82829 0.55573 0.25155
 H584 H 0.80876 0.62496 0.26727
 H585 H 0.80262 0.74465 0.36012
 H586 H 0.81696 0.77472 0.42166
 H587 H 0.85174 0.73647 0.46611
 H588 H 0.87233 0.66783 0.44941
 C589 C 0.36333 0.12583 0.37992
 C590 C 0.35612 0.10881 0.34342
 C591 C 0.33540 0.13039 0.31850
 C592 C 0.32200 0.16892 0.33015
 C593 C 0.32882 0.18563 0.36691
 C594 C 0.34955 0.16400 0.39190
 C595 C 0.35616 0.18142 0.42839
 C596 C 0.34272 0.21918 0.43987
 C597 C 0.32242 0.24027 0.41549
 C598 C 0.31546 0.22383 0.37938
 C599 C 0.32868 0.11281 0.28206
 C600 C 0.34215 0.07512 0.27052
 C601 C 0.36248 0.05411 0.29484
 C602 C 0.36941 0.07053 0.33093
 C603 C 0.30140 0.19109 0.30397
 C604 C 0.28438 0.20785 0.28106
 C605 C 0.38591 0.10477 0.40400
 C606 C 0.40544 0.08683 0.42230
 H607 H 0.37172 0.16605 0.44840
 H608 H 0.34809 0.23214 0.46783
 H609 H 0.31202 0.26956 0.42458
 H610 H 0.29956 0.24135 0.36138
 H611 H 0.31303 0.12795 0.26206
 H612 H 0.33680 0.06218 0.24253
 H613 H 0.37302 0.02499 0.28568
 H614 H 0.38529 0.05287 0.34883
 C615 C 0.36169 0.62224 -0.11616
 C616 C 0.35098 0.60180 -0.14900
 C617 C 0.33062 0.62299 -0.17465
 C618 C 0.32108 0.66445 -0.16723
 C619 C 0.33076 0.68428 -0.13340
 C620 C 0.35113 0.66305 -0.10772
 C621 C 0.36061 0.68345 -0.07413
 C622 C 0.35023 0.72372 -0.06611
 C623 C 0.33034 0.74452 -0.09127
 C624 C 0.32067 0.72518 -0.12461
 C625 C 0.32039 0.60203 -0.20751
 C626 C 0.32996 0.56129 -0.21472
 C627 C 0.34986 0.54054 -0.18960
 C628 C 0.36036 0.56042 -0.15710
 C629 C 0.30168 0.68656 -0.19486
 C630 C 0.28562 0.70348 -0.21875
 C631 C 0.38491 0.60199 -0.09274
 C632 C 0.40497 0.58478 -0.07501
 H633 H 0.37597 0.66844 -0.05364
 H634 H 0.35765 0.73885 -0.04022
 H635 H 0.32235 0.77580 -0.08491
 H636 H 0.30514 0.74254 -0.14329
 H637 H 0.30483 0.61679 -0.22787
 H638 H 0.32185 0.54573 -0.23994
 H639 H 0.35720 0.50886 -0.19529
 H640 H 0.37572 0.54293 -0.13833
 C641 C 1.13943 -0.11337 -0.12359
 C642 C 1.14592 -0.09502 -0.15946
 C643 C 1.16849 -0.11346 -0.18328
 C644 C 1.18425 -0.15018 -0.17112
 C645 C 1.17919 -0.16679 -0.13396
 C646 C 1.15666 -0.14831 -0.11008
 C647 C 1.15162 -0.16582 -0.07332
 C648 C 1.16845 -0.20059 -0.06048
 C649 C 1.19049 -0.21867 -0.08385
 C650 C 1.19587 -0.20213 -0.12025
 C651 C 1.17439 -0.09498 -0.21928
 C652 C 1.15844 -0.05920 -0.23141
 C653 C 1.13627 -0.04122 -0.20818
 C654 C 1.12999 -0.05878 -0.17258
 C655 C 1.20266 -0.17362 -0.19870
 C656 C 1.21588 -0.19476 -0.22251
 C657 C 1.11427 -0.09729 -0.10157
 C658 C 1.09312 -0.08357 -0.08402
 H659 H 1.13476 -0.15275 -0.05409
 H660 H 1.16435 -0.21357 -0.03227
 H661 H 1.20350 -0.24566 -0.07374
 H662 H 1.21335 -0.21709 -0.13735
 H663 H 1.19153 -0.10781 -0.23821
 H664 H 1.16331 -0.04536 -0.25896
 H665 H 1.12398 -0.01338 -0.21768
 H666 H 1.11270 -0.04350 -0.15539
 C667 C 1.13661 0.38857 0.37802
 C668 C 1.14283 0.40732 0.34222
 C669 C 1.16530 0.38925 0.31796
 C670 C 1.18124 0.35243 0.32952
 C671 C 1.17631 0.33524 0.36648
 C672 C 1.15392 0.35337 0.39083
 C673 C 1.14910 0.33529 0.42740
 C674 C 1.16597 0.30030 0.43959
 C675 C 1.18786 0.28255 0.41577
 C676 C 1.19304 0.29966 0.37956
 C677 C 1.17097 0.40827 0.28215
 C678 C 1.15490 0.44418 0.27061
 C679 C 1.13283 0.46176 0.29423
 C680 C 1.12675 0.44366 0.32965
 C681 C 1.19989 0.32965 0.30162
 C682 C 1.21337 0.30899 0.27762
 C683 C 1.11177 0.40463 0.40081
 C684 C 1.09091 0.41825 0.41912
 H685 H 1.13237 0.34806 0.44697
 H686 H 1.16202 0.28687 0.46765
 H687 H 1.20090 0.25540 0.42540
 H688 H 1.21040 0.28493 0.36211
 H689 H 1.18800 0.39577 0.26290
 H690 H 1.15962 0.45845 0.24320
 H691 H 1.12045 0.48970 0.28518
 H692 H 1.10952 0.45862 0.34715
 C693 C 0.63832 -0.11100 0.37698
 C694 C 0.64459 -0.09237 0.34116
 C695 C 0.66707 -0.11054 0.31703
 C696 C 0.68295 -0.14733 0.32878
 C697 C 0.67808 -0.16427 0.36586
 C698 C 0.65566 -0.14604 0.39007
 C699 C 0.65086 -0.16385 0.42677
 C700 C 0.66780 -0.19866 0.43924
 C701 C 0.68974 -0.21650 0.41555
 C702 C 0.69488 -0.19967 0.37920
 C703 C 0.67282 -0.09168 0.28116
 C704 C 0.65680 -0.05578 0.26947
 C705 C 0.63470 -0.03808 0.29298
 C706 C 0.62855 -0.05605 0.32844
 C707 C 0.70142 -0.17039 0.30096
 C708 C 0.71480 -0.19126 0.27707
 C709 C 0.61336 -0.09503 0.39949
 C710 C 0.59242 -0.08146 0.41759
 H711 H 0.63409 -0.15097 0.44624
 H712 H 0.66390 -0.21183 0.46745
 H713 H 0.70286 -0.24351 0.42538
 H714 H 0.71230 -0.21444 0.36186
 H715 H 0.68989 -0.10428 0.26202
 H716 H 0.66157 -0.04163 0.24202
 H717 H 0.62236 -0.01017 0.28381
 H718 H 0.61131 -0.04099 0.34586
 C719 C 0.63841 0.38776 -0.12596
 C720 C 0.64562 0.40681 -0.16118
 C721 C 0.66800 0.38813 -0.18522
 C722 C 0.68295 0.35048 -0.17393
 C723 C 0.67703 0.33286 -0.13749
 C724 C 0.65467 0.35155 -0.11342
 C725 C 0.64879 0.33300 -0.07743
 C726 C 0.66458 0.29701 -0.06555
 C727 C 0.68647 0.27875 -0.08906
 C728 C 0.69270 0.29632 -0.12468
 C729 C 0.67460 0.40743 -0.22053
 C730 C 0.65953 0.44421 -0.23178
 C731 C 0.63756 0.46242 -0.20834
 C732 C 0.63059 0.44406 -0.17342
 C733 C 0.70160 0.32743 -0.20165
 C734 C 0.71510 0.30656 -0.22549
 C735 C 0.61359 0.40449 -0.10349
 C736 C 0.59279 0.41844 -0.08526
 H737 H 0.63204 0.34615 -0.05808
 H738 H 0.65979 0.28320 -0.03798
 H739 H 0.69869 0.25083 -0.07965
 H740 H 0.71001 0.28113 -0.14191
 H741 H 0.69159 0.39446 -0.23961
 H742 H 0.66493 0.45867 -0.25881
 H743 H 0.62598 0.49104 -0.21714
 H744 H 0.61349 0.45953 -0.15602
 C745 C 1.13153 0.11168 -0.10519
 C746 C 1.13187 0.15410 -0.09790
 C747 C 1.15432 0.17579 -0.11371
 C748 C 1.17627 0.15490 -0.13665
 C749 C 1.17678 0.11211 -0.14223
 C750 C 1.15434 0.09037 -0.12635
 C751 C 1.15531 0.04757 -0.13217
 C752 C 1.17793 0.02683 -0.15291
 C753 C 1.19975 0.04815 -0.16870
 C754 C 1.19926 0.09034 -0.16359
 C755 C 1.15411 0.21827 -0.10633
 C756 C 1.13241 0.23868 -0.08375
 C757 C 1.11048 0.21743 -0.06817
 C758 C 1.11006 0.17566 -0.07513
 C759 C 1.19702 0.17794 -0.15663
 C760 C 1.21305 0.19793 -0.17452
 C761 C 1.10757 0.09028 -0.09105
 C762 C 1.08746 0.07349 -0.07849
 H763 H 1.13878 0.02969 -0.12048
 H764 H 1.17860 -0.00596 -0.15667
 H765 H 1.21722 0.03190 -0.18488
 H766 H 1.21681 0.10560 -0.17618
 H767 H 1.17080 0.23609 -0.11766
 H768 H 1.13265 0.27114 -0.07829
 H769 H 1.09370 0.23340 -0.05058
 H770 H 1.09257 0.16048 -0.06231
 C771 C 1.12806 0.61175 0.39604
 C772 C 1.12799 0.65462 0.40066
 C773 C 1.15034 0.67558 0.38360
 C774 C 1.17259 0.65354 0.36201
 C775 C 1.17333 0.61048 0.35875
 C776 C 1.15100 0.58946 0.37591
 C777 C 1.15222 0.54638 0.37242
 C778 C 1.17498 0.52467 0.35273
 C779 C 1.19669 0.54526 0.33571
 C780 C 1.19595 0.58770 0.33851
 C781 C 1.14976 0.71849 0.38843
 C782 C 1.12778 0.74003 0.40967
 C783 C 1.10593 0.71952 0.42640
 C784 C 1.10589 0.67733 0.42198
 C785 C 1.19364 0.67554 0.34140
 C786 C 1.20999 0.69480 0.32325
 C787 C 1.10441 0.59084 0.41190
 C788 C 1.08460 0.57430 0.42568
 H789 H 1.13577 0.52903 0.38509
 H790 H 1.17583 0.49170 0.35074
 H791 H 1.21426 0.52825 0.32036
 H792 H 1.21339 0.60238 0.32497
 H793 H 1.16634 0.73581 0.37607
 H794 H 1.12773 0.77281 0.41319
 H795 H 1.08891 0.73637 0.44291
 H796 H 1.08843 0.66276 0.43560
 C797 C 0.62998 0.11151 0.39507
 C798 C 0.62989 0.15438 0.39960
 C799 C 0.65223 0.17525 0.38249
 C800 C 0.67439 0.15310 0.36086
 C801 C 0.67522 0.11002 0.35784
 C802 C 0.65294 0.08909 0.37513
 C803 C 0.65419 0.04598 0.37190
 C804 C 0.67695 0.02419 0.35230
 C805 C 0.69863 0.04471 0.33512
 C806 C 0.69786 0.08716 0.33769
 C807 C 0.65172 0.21816 0.38726
 C808 C 0.62973 0.23980 0.40840
 C809 C 0.60780 0.21938 0.42506
 C810 C 0.60776 0.17717 0.42081
 C811 C 0.69518 0.17501 0.33984
 C812 C 0.71138 0.19416 0.32140
 C813 C 0.60629 0.09073 0.41072
 C814 C 0.58643 0.07424 0.42429
 H815 H 0.63778 0.02869 0.38472
 H816 H 0.67783 -0.00880 0.35049
 H817 H 0.71621 0.02764 0.31984
 H818 H 0.71529 0.10180 0.32407
 H819 H 0.66835 0.23540 0.37494
 H820 H 0.62971 0.27258 0.41187
 H821 H 0.59077 0.23630 0.44150
 H822 H 0.59030 0.16265 0.43449
 C823 C 0.62930 0.61360 -0.10734
 C824 C 0.62866 0.65658 -0.10308
 C825 C 0.65090 0.67798 -0.11990
 C826 C 0.67366 0.65628 -0.14088
 C827 C 0.67489 0.61314 -0.14388
 C828 C 0.65267 0.59170 -0.12696
 C829 C 0.65442 0.54857 -0.13017
 C830 C 0.67755 0.52722 -0.14941
 C831 C 0.69914 0.54821 -0.16622
 C832 C 0.69791 0.59069 -0.16365
 C833 C 0.64970 0.72099 -0.11547
 C834 C 0.62723 0.74221 -0.09484
 C835 C 0.60551 0.72126 -0.07832
 C836 C 0.60608 0.67896 -0.08234
 C837 C 0.69470 0.67867 -0.16117
 C838 C 0.71099 0.69825 -0.17919
 C839 C 0.60585 0.59216 -0.09154
 C840 C 0.58624 0.57516 -0.07775
 H841 H 0.63808 0.53092 -0.11766
 H842 H 0.67877 0.49421 -0.15122
 H843 H 0.71700 0.53145 -0.18122
 H844 H 0.71529 0.60568 -0.17700
 H845 H 0.66615 0.73864 -0.12767
 H846 H 0.62670 0.77507 -0.09162
 H847 H 0.58811 0.73786 -0.06229
 H848 H 0.58869 0.66407 -0.06892
 C849 C 0.87090 -0.12402 -0.11780
 C850 C 0.86097 -0.15851 -0.09899
 C851 C 0.83917 -0.18041 -0.11702
 C852 C 0.82747 -0.16786 -0.15387
 C853 C 0.83741 -0.13342 -0.17269
 C854 C 0.85917 -0.11144 -0.15462
 C855 C 0.86878 -0.07722 -0.17413
 C856 C 0.85729 -0.06511 -0.21045
 C857 C 0.83601 -0.08651 -0.22805
 C858 C 0.82609 -0.12029 -0.20951
 C859 C 0.82958 -0.21468 -0.09754
 C860 C 0.84129 -0.22713 -0.06144
 C861 C 0.86272 -0.20592 -0.04396
 C862 C 0.87245 -0.17189 -0.06231
 C863 C 0.80526 -0.19043 -0.17233
 C864 C 0.78677 -0.20951 -0.18700
 C865 C 0.89342 -0.10193 -0.09943
 C866 C 0.91228 -0.08422 -0.08390
 H867 H 0.88526 -0.05954 -0.16160
 H868 H 0.86499 -0.03906 -0.22510
 H869 H 0.82717 -0.07694 -0.25625
 H870 H 0.80953 -0.13599 -0.22438
 H871 H 0.81299 -0.23223 -0.10998
 H872 H 0.83370 -0.25340 -0.04695
 H873 H 0.87170 -0.21566 -0.01587
 H874 H 0.88900 -0.15624 -0.04738
 C875 C 0.86982 0.37638 0.38870
 C876 C 0.85725 0.34473 0.40875
 C877 C 0.83613 0.32255 0.38970
 C878 C 0.82785 0.33198 0.35062
 C879 C 0.84059 0.36338 0.33047
 C880 C 0.86168 0.38563 0.34954
 C881 C 0.87440 0.41654 0.32862
 C882 C 0.86662 0.42502 0.28989
 C883 C 0.84584 0.40346 0.27136
 C884 C 0.83286 0.37300 0.29128
 C885 C 0.82385 0.29105 0.41035
 C886 C 0.83245 0.28143 0.44856
 C887 C 0.85334 0.30282 0.46703
 C888 C 0.86554 0.33432 0.44760
 C889 C 0.80650 0.30897 0.33115
 C890 C 0.78870 0.28934 0.31581
 C891 C 0.89168 0.39858 0.40805
 C892 C 0.91023 0.41626 0.42412
 H893 H 0.89060 0.43424 0.34183
 H894 H 0.87684 0.44833 0.27410
 H895 H 0.83981 0.41026 0.24132
 H896 H 0.81687 0.35697 0.27559
 H897 H 0.80759 0.27342 0.39720
 H898 H 0.82288 0.25720 0.46389
 H899 H 0.85997 0.29521 0.49670
 H900 H 0.88153 0.35029 0.46336
 C901 C 0.37052 -0.12366 0.38805
 C902 C 0.35890 -0.15631 0.40782
 C903 C 0.33726 -0.17815 0.38939
 C904 C 0.32745 -0.16741 0.35117
 C905 C 0.33927 -0.13505 0.33126
 C906 C 0.36087 -0.11314 0.34971
 C907 C 0.37255 -0.08121 0.32899
 C908 C 0.36326 -0.07135 0.29110
 C909 C 0.34203 -0.09259 0.27318
 C910 C 0.33007 -0.12407 0.29291
 C911 C 0.32598 -0.21062 0.40981
 C912 C 0.33597 -0.22146 0.44718
 C913 C 0.35730 -0.20037 0.46503
 C914 C 0.36860 -0.16801 0.44581
 C915 C 0.30544 -0.18995 0.33231
 C916 C 0.28714 -0.20910 0.31732
 C917 C 0.39280 -0.10156 0.40686
 C918 C 0.41159 -0.08384 0.42251
 H919 H 0.38907 -0.06373 0.34172
 H920 H 0.37266 -0.04722 0.27546
 H921 H 0.33486 -0.08472 0.24378
 H922 H 0.31368 -0.13980 0.27770
 H923 H 0.30942 -0.22805 0.39711
 H924 H 0.32712 -0.24639 0.46236
 H925 H 0.36497 -0.20889 0.49407
 H926 H 0.38501 -0.15235 0.46106
 C927 C 0.36848 0.38225 -0.11188
 C928 C 0.34987 0.35955 -0.08954
 C929 C 0.32827 0.33812 -0.10851
 C930 C 0.32529 0.33970 -0.14971
 C931 C 0.34308 0.36380 -0.17187
 C932 C 0.36469 0.38521 -0.15289
 C933 C 0.38213 0.40925 -0.17564
 C934 C 0.37832 0.41208 -0.21598
 C935 C 0.35727 0.39101 -0.23455
 C936 C 0.33981 0.36705 -0.21290
 C937 C 0.31003 0.31545 -0.08556
 C938 C 0.31282 0.31437 -0.04502
 C939 C 0.33377 0.33559 -0.02646
 C940 C 0.35228 0.35776 -0.04831
 C941 C 0.30418 0.31606 -0.16909
 C942 C 0.28662 0.29569 -0.18411
 C943 C 0.39186 0.40179 -0.09280
 C944 C 0.41144 0.41770 -0.07707
 H945 H 0.39875 0.42627 -0.16252
 H946 H 0.39178 0.43072 -0.23291
 H947 H 0.35441 0.39331 -0.26589
 H948 H 0.32366 0.35133 -0.22860
 H949 H 0.29330 0.29861 -0.09862
 H950 H 0.29855 0.29712 -0.02791
 H951 H 0.33561 0.33498 0.00504
 H952 H 0.36826 0.37373 -0.03253
 C953 C 1.13532 -0.11583 0.12450
 C954 C 1.14378 -0.09683 0.15946
 C955 C 1.16620 -0.11635 0.18326
 C956 C 1.17994 -0.15479 0.17202
 C957 C 1.17263 -0.17261 0.13596
 C958 C 1.15022 -0.15311 0.11215
 C959 C 1.14291 -0.17191 0.07658
 C960 C 1.15735 -0.20893 0.06487
 C961 C 1.17933 -0.22793 0.08809
 C962 C 1.18696 -0.21014 0.12328
 C963 C 1.17406 -0.09706 0.21831
 C964 C 1.16015 -0.05953 0.22957
 C965 C 1.13814 -0.04051 0.20639
 C966 C 1.12998 -0.05877 0.17167
 C967 C 1.19887 -0.17816 0.19943
 C968 C 1.21268 -0.19918 0.22300
 C969 C 1.11069 -0.09781 0.10200
 C970 C 1.09011 -0.08295 0.08351
 H971 H 1.12603 -0.15823 0.05746
 H972 H 1.15141 -0.22296 0.03767
 H973 H 1.19052 -0.25665 0.07881
 H974 H 1.20428 -0.22598 0.14030
 H975 H 1.19114 -0.11065 0.23719
 H976 H 1.16649 -0.04512 0.25641
 H977 H 1.12745 -0.01131 0.21521
 H978 H 1.11290 -0.04266 0.15448
 C979 C 1.13648 0.38455 0.62554
 C980 C 1.14482 0.40408 0.66028
 C981 C 1.16751 0.38524 0.68403
 C982 C 1.18160 0.34699 0.67294
 C983 C 1.17451 0.32879 0.63699
 C984 C 1.15183 0.34761 0.61321
 C985 C 1.14471 0.32846 0.57775
 C986 C 1.15961 0.29173 0.56611
 C987 C 1.18186 0.27337 0.58932
 C988 C 1.18930 0.29153 0.62441
 C989 C 1.17526 0.40498 0.71889
 C990 C 1.16096 0.44231 0.73000
 C991 C 1.13868 0.46068 0.70685
 C992 C 1.13063 0.44194 0.67233
 C993 C 1.20057 0.32406 0.70052
 C994 C 1.21439 0.30341 0.72429
 C995 C 1.11144 0.40166 0.60341
 C996 C 1.09046 0.41609 0.58554
 H997 H 1.12763 0.34165 0.55866
 H998 H 1.15383 0.27742 0.53898
 H999 H 1.19340 0.24489 0.58011
 H1000 H 1.20684 0.27623 0.64142
 H1001 H 1.19254 0.39190 0.73773
 H1002 H 1.16722 0.45708 0.75670
 H1003 H 1.12769 0.48974 0.71553
 H1004 H 1.11332 0.45756 0.65514
 C1005 C 0.63750 -0.12157 0.62091
 C1006 C 0.64028 -0.16474 0.62358
 C1007 C 0.66244 -0.18467 0.64749
 C1008 C 0.68162 -0.16130 0.66871
 C1009 C 0.67994 -0.11834 0.66420
 C1010 C 0.65785 -0.09839 0.64010
 C1011 C 0.65654 -0.05539 0.63609
 C1012 C 0.67658 -0.03278 0.65520
 C1013 C 0.69801 -0.05226 0.67900
 C1014 C 0.69975 -0.09457 0.68362
 C1015 C 0.66458 -0.22787 0.65005
 C1016 C 0.64540 -0.25069 0.62954
 C1017 C 0.62373 -0.23119 0.60617
 C1018 C 0.62109 -0.18872 0.60312
 C1019 C 0.70097 -0.18138 0.69775
 C1020 C 0.71488 -0.19994 0.72292
 C1021 C 0.61300 -0.10115 0.59979
 C1022 C 0.59227 -0.08477 0.58263
 H1023 H 0.64023 -0.03890 0.61791
 H1024 H 0.67553 0.00001 0.65143
 H1025 H 0.71345 -0.03452 0.69386
 H1026 H 0.71690 -0.10849 0.70219
 H1027 H 0.68117 -0.24448 0.66768
 H1028 H 0.64739 -0.28370 0.63180
 H1029 H 0.60889 -0.24905 0.59028
 H1030 H 0.60394 -0.17497 0.58446
 C1031 C 0.64038 0.38284 0.11983
 C1032 C 0.64815 0.40230 0.15487
 C1033 C 0.67016 0.38317 0.17949
 C1034 C 0.68419 0.34474 0.16890
 C1035 C 0.67789 0.32674 0.13254
 C1036 C 0.65582 0.34580 0.10795
 C1037 C 0.64937 0.32676 0.07216
 C1038 C 0.66441 0.28997 0.06096
 C1039 C 0.68611 0.27143 0.08494
 C1040 C 0.69284 0.28945 0.12039
 C1041 C 0.67726 0.40278 0.21470
 C1042 C 0.66299 0.44032 0.22528
 C1043 C 0.64138 0.45900 0.20126
 C1044 C 0.63398 0.44037 0.16639
 C1045 C 0.70218 0.32140 0.19724
 C1046 C 0.71525 0.30036 0.22140
 C1047 C 0.61558 0.39998 0.09729
 C1048 C 0.59460 0.41469 0.07963
 H1049 H 0.63275 0.34014 0.05248
 H1050 H 0.65919 0.27574 0.03356
 H1051 H 0.69779 0.24292 0.07604
 H1052 H 0.70999 0.27402 0.13801
 H1053 H 0.69403 0.38947 0.23420
 H1054 H 0.66876 0.45501 0.25224
 H1055 H 0.63042 0.48822 0.20951
 H1056 H 0.61719 0.45625 0.14853
 C1057 C 0.86195 0.11946 0.11525
 C1058 C 0.86083 0.10673 0.15465
 C1059 C 0.84046 0.12715 0.18051
 C1060 C 0.82129 0.16009 0.16678
 C1061 C 0.82175 0.17196 0.12710
 C1062 C 0.84216 0.15152 0.10121
 C1063 C 0.84223 0.16380 0.06166
 C1064 C 0.82257 0.19529 0.04801
 C1065 C 0.80268 0.21536 0.07334
 C1066 C 0.80221 0.20400 0.11250
 C1067 C 0.83983 0.11399 0.21982
 C1068 C 0.85872 0.08151 0.23315
 C1069 C 0.87862 0.06148 0.20786
 C1070 C 0.87979 0.07385 0.16906
 C1071 C 0.80114 0.18146 0.19370
 C1072 C 0.78468 0.19802 0.21711
 C1073 C 0.88433 0.10047 0.08998
 C1074 C 0.90394 0.08414 0.07105
 H1075 H 0.85728 0.14903 0.04087
 H1076 H 0.82272 0.20408 0.01761
 H1077 H 0.78747 0.23978 0.06257
 H1078 H 0.78629 0.22041 0.13109
 H1079 H 0.82470 0.12849 0.24065
 H1080 H 0.85786 0.07179 0.26327
 H1081 H 0.89321 0.03620 0.21833
 H1082 H 0.89562 0.05720 0.15053
 C1083 C 0.86233 0.62363 0.62303
 C1084 C 0.86199 0.61476 0.66348
 C1085 C 0.84132 0.63646 0.68810
 C1086 C 0.82101 0.66688 0.67217
 C1087 C 0.82111 0.67543 0.63165
 C1088 C 0.84184 0.65372 0.60700
 C1089 C 0.84153 0.66276 0.56662
 C1090 C 0.82131 0.69240 0.55099
 C1091 C 0.80108 0.71366 0.57507
 C1092 C 0.80088 0.70540 0.61498
 C1093 C 0.84150 0.62709 0.72847
 C1094 C 0.86151 0.59715 0.74403
 C1095 C 0.88168 0.57589 0.71995
 C1096 C 0.88203 0.58446 0.68014
 C1097 C 0.79986 0.68866 0.69763
 C1098 C 0.78251 0.70528 0.71997
 C1099 C 0.88440 0.60252 0.59847
 C1100 C 0.90368 0.58479 0.57985
 H1101 H 0.85680 0.64694 0.54674
 H1102 H 0.82132 0.69885 0.52002
 H1103 H 0.78544 0.73667 0.56277
 H1104 H 0.78473 0.72269 0.63256
 H1105 H 0.82623 0.64274 0.74845
 H1106 H 0.86134 0.59041 0.77495
 H1107 H 0.89716 0.55262 0.73217
 H1108 H 0.89812 0.56699 0.66264
 C1109 C 0.36399 0.12257 0.62169
 C1110 C 0.36464 0.11367 0.66215
 C1111 C 0.34452 0.13525 0.68756
 C1112 C 0.32379 0.16554 0.67237
 C1113 C 0.32276 0.17391 0.63182
 C1114 C 0.34293 0.15231 0.60637
 C1115 C 0.34148 0.16107 0.56594
 C1116 C 0.32062 0.19029 0.55104
 C1117 C 0.30094 0.21149 0.57593
 C1118 C 0.30192 0.20355 0.61591
 C1119 C 0.34566 0.12588 0.72794
 C1120 C 0.36605 0.09600 0.74273
 C1121 C 0.38572 0.07485 0.71787
 C1122 C 0.38515 0.08346 0.67805
 C1123 C 0.30332 0.18731 0.69864
 C1124 C 0.28654 0.20390 0.72166
 C1125 C 0.38576 0.10199 0.59645
 C1126 C 0.40496 0.08461 0.57750
 H1127 H 0.35632 0.14531 0.54546
 H1128 H 0.31967 0.19645 0.52001
 H1129 H 0.28481 0.23418 0.56420
 H1130 H 0.28617 0.22078 0.63414
 H1131 H 0.33082 0.14146 0.74851
 H1132 H 0.36658 0.08922 0.77366
 H1133 H 0.40151 0.05162 0.72948
 H1134 H 0.40087 0.06606 0.65993
 C1135 C 0.36475 0.61944 0.12296
 C1136 C 0.36178 0.60633 0.16198
 C1137 C 0.34075 0.62720 0.18665
 C1138 C 0.32276 0.66105 0.17217
 C1139 C 0.32528 0.67360 0.13291
 C1140 C 0.34635 0.65272 0.10821
 C1141 C 0.34851 0.66582 0.06909
 C1142 C 0.33032 0.69856 0.05472
 C1143 C 0.30973 0.71897 0.07887
 C1144 C 0.30716 0.70678 0.11756
 C1145 C 0.33827 0.61359 0.22559
 C1146 C 0.35605 0.58035 0.23974
 C1147 C 0.37664 0.55998 0.21562
 C1148 C 0.37954 0.57264 0.17717
 C1149 C 0.30173 0.68265 0.19789
 C1150 C 0.28449 0.69932 0.22032
 C1151 C 0.38746 0.59944 0.09872
 C1152 C 0.40708 0.58250 0.08014
 H1153 H 0.36416 0.65081 0.04921
 H1154 H 0.33218 0.70811 0.02468
 H1155 H 0.29564 0.74436 0.06756
 H1156 H 0.29081 0.72355 0.13523
 H1157 H 0.32258 0.62840 0.24551
 H1158 H 0.35382 0.57032 0.26957
 H1159 H 0.39037 0.53410 0.22669
 H1160 H 0.39578 0.55561 0.15954
   
