data_POSCAR
  _audit_creation_date              2014-09-24
  _audit_creation_method            'ToBaCCo'
  _symmetry_space_group_name_H-M    'P1'
  _symmetry_Int_Tables_number       1
  _symmetry_cell_setting            triclinic
  loop_
  _symmetry_equiv_pos_as_xyz
 x,y,z
_cell_length_a 50.1522
_cell_length_b 55.6459
_cell_length_c 55.4829
_cell_angle_alpha 90.106100
_cell_angle_beta 90.617500
_cell_angle_gamma 90.216900
loop_
  _atom_site_label
  _atom_site_type_symbol
  _atom_site_fract_x
  _atom_site_fract_y
  _atom_site_fract_z
O1 O 0.33335 0.35844 0.01187
 O2 O 0.35635 0.31293 -0.03124
 O3 O 0.32527 0.34979 -0.03352
 O4 O 0.36513 0.32190 0.01431
 O5 O 0.33130 0.29829 0.02371
 O6 O 0.29078 0.32697 -0.02431
 O7 O 0.32253 0.28938 -0.02166
 O8 O 0.29917 0.33525 0.02127
 Cu9 Cu 0.34846 0.33804 -0.01057
 Cu10 Cu 0.30748 0.31010 0.00065
 C11 C 0.31226 0.35471 0.02376
 C12 C 0.34345 0.29338 -0.03371
 C13 C 0.30119 0.34347 -0.03698
 C14 C 0.35519 0.30535 0.02708
 O15 O 0.67383 0.63867 0.02346
 O16 O 0.63809 0.66685 -0.02726
 O17 O 0.67675 0.63566 -0.02269
 O18 O 0.63465 0.66823 0.01941
 O19 O 0.66365 0.69820 0.02073
 O20 O 0.70540 0.66582 -0.02355
 O21 O 0.66634 0.69738 -0.02632
 O22 O 0.70353 0.66808 0.02329
 Cu23 Cu 0.65289 0.64942 -0.00199
 Cu24 Cu 0.68760 0.68546 -0.00154
 C25 C 0.69492 0.64843 0.03188
 C26 C 0.64577 0.68711 -0.03512
 C27 C 0.69849 0.64471 -0.02995
 C28 C 0.64201 0.68849 0.02758
 O29 O 0.61911 0.32627 1.01438
 O30 O 0.65409 0.35841 0.96674
 O31 O 0.62494 0.31973 0.96831
 O32 O 0.64948 0.36373 1.01308
 O33 O 0.68515 0.34150 1.01982
 O34 O 0.66038 0.29722 0.97525
 O35 O 0.69022 0.33668 0.97325
 O36 O 0.65445 0.30358 1.02125
 Cu37 Cu 0.63341 0.34424 0.98987
 Cu38 Cu 0.67622 0.31749 0.99788
 C39 C 0.63060 0.30957 1.02595
 C40 C 0.67810 0.35341 0.96206
 C41 C 0.63828 0.30076 0.96449
 C42 C 0.67134 0.36006 1.02423
 O43 O 0.36475 0.67119 1.02830
 O44 O 0.32890 0.64797 0.97514
 O45 O 0.36867 0.67665 0.98191
 O46 O 0.32497 0.64162 1.02070
 O47 O 0.29754 0.67232 1.02416
 O48 O 0.34054 0.70709 0.98273
 O49 O 0.29988 0.67761 0.97770
 O50 O 0.33772 0.70240 1.02955
 Cu51 Cu 0.34972 0.65639 1.00149
 Cu52 Cu 0.31616 0.69302 1.00380
 C53 C 0.35767 0.69091 1.03774
 C54 C 0.30801 0.65852 0.96762
 C55 C 0.36198 0.69758 0.97533
 C56 C 0.30359 0.65061 1.02872
 O57 O -0.02825 0.38229 0.33931
 O58 O 0.02529 0.35582 0.37650
 O59 O 0.02353 0.38611 0.34120
 O60 O -0.02647 0.35414 0.37618
 O61 O -0.02443 0.32302 0.35151
 O62 O 0.02580 0.35587 0.31544
 O63 O 0.02760 0.32512 0.35132
 O64 O -0.02603 0.35171 0.31400
 Cu65 Cu -0.00166 0.37265 0.36076
 Cu66 Cu 0.00098 0.33582 0.33052
 C67 C -0.03635 0.37147 0.32039
 C68 C 0.03551 0.33592 0.37029
 C69 C 0.03313 0.37669 0.32242
 C70 C -0.03400 0.33324 0.37005
 O71 O 0.03114 0.67008 0.63819
 O72 O -0.02054 0.63115 0.66421
 O73 O -0.02008 0.66755 0.63462
 O74 O 0.03112 0.63317 0.66617
 O75 O 0.02865 0.65743 0.69764
 O76 O -0.02405 0.69208 0.66564
 O77 O -0.02328 0.65535 0.69567
 O78 O 0.02770 0.69499 0.66903
 Cu79 Cu 0.00556 0.64802 0.64773
 Cu80 Cu 0.00187 0.67741 0.68518
 C81 C 0.03808 0.68927 0.64906
 C82 C -0.03037 0.63637 0.68455
 C83 C -0.03046 0.68593 0.64424
 C84 C 0.03874 0.63932 0.68712
 O85 O 0.96176 0.66228 0.35751
 O86 O 1.01209 0.62537 0.32779
 O87 O 1.01255 0.65538 0.36353
 O88 O 0.96124 0.63268 0.32158
 O89 O 0.96988 0.66221 0.29626
 O90 O 1.02109 0.68545 0.33885
 O91 O 1.02080 0.65491 0.30249
 O92 O 0.97012 0.69231 0.33272
 Cu93 Cu 0.98607 0.64094 0.34506
 Cu94 Cu 0.99639 0.67673 0.31504
 C95 C 0.95734 0.68355 0.35032
 C96 C 1.02492 0.63368 0.31008
 C97 C 1.02540 0.67438 0.35854
 C98 C 0.95676 0.64350 0.30182
 O99 O 0.98329 0.32554 0.64126
 O100 O 1.03475 0.36550 0.66654
 O101 O 1.03517 0.32691 0.64036
 O102 O 0.98324 0.36433 0.66702
 O103 O 0.98476 0.34245 0.70019
 O104 O 1.03645 0.30419 0.67291
 O105 O 1.03651 0.34339 0.69955
 O106 O 0.98469 0.30313 0.67406
 Cu107 Cu 1.00899 0.34771 0.65046
 Cu108 Cu 1.01080 0.32103 0.69002
 C109 C 0.97518 0.30758 0.65326
 C110 C 1.04414 0.36147 0.68745
 C111 C 1.04457 0.30908 0.65187
 C112 C 0.97538 0.36000 0.68821
 O113 O 0.36463 0.02936 0.34081
 O114 O 0.34040 -0.02248 0.37460
 O115 O 0.37631 -0.01605 0.34214
 O116 O 0.32735 0.02272 0.37210
 O117 O 0.29794 0.01469 0.34323
 O118 O 0.34698 -0.02409 0.31322
 O119 O 0.31064 -0.03047 0.34601
 O120 O 0.33603 0.02151 0.31125
 Cu121 Cu 0.35505 0.00422 0.36031
 Cu122 Cu 0.31988 -0.00526 0.32548
 C123 C 0.35494 0.03408 0.32020
 C124 C 0.32150 -0.03528 0.36624
 C125 C 0.36998 -0.02669 0.32262
 C126 C 0.30423 0.02512 0.36286
 O127 O 0.63279 0.01378 0.66061
 O128 O 0.68143 -0.02936 0.63722
 O129 O 0.64392 -0.03097 0.66936
 O130 O 0.66981 0.01533 0.62888
 O131 O 0.69865 0.02715 0.65692
 O132 O 0.67283 -0.01996 0.69759
 O133 O 0.71083 -0.01743 0.66470
 O134 O 0.66149 0.02504 0.68899
 Cu135 Cu 0.65413 -0.00910 0.64627
 Cu136 Cu 0.68890 0.00462 0.68000
 C137 C 0.63890 0.02692 0.67857
 C138 C 0.70463 -0.03031 0.64656
 C139 C 0.65361 -0.03321 0.69045
 C140 C 0.68839 0.02925 0.63598
 O141 O 0.30083 1.01841 0.64469
 O142 O 0.34538 0.97464 0.67304
 O143 O 0.30590 0.97173 0.64252
 O144 O 0.33820 1.02073 0.67732
 O145 O 0.30882 1.01571 0.70626
 O146 O 0.27738 0.96624 0.67207
 O147 O 0.31723 0.96972 0.70300
 O148 O 0.27103 1.01261 0.67314
 Cu149 Cu 0.32542 0.99690 0.65647
 Cu150 Cu 0.29070 0.99056 0.69155
 C151 C 0.27833 1.02290 0.65384
 C152 C 0.33925 0.96496 0.69287
 C153 C 0.28614 0.96061 0.65147
 C154 C 0.32897 1.02649 0.69780
 O155 O 0.65735 0.97498 0.32029
 O156 O 0.67541 1.01893 0.36724
 O157 O 0.64240 1.01832 0.33102
 O158 O 0.68953 0.97528 0.35726
 O159 O 0.72170 0.98969 0.33448
 O160 O 0.67390 1.03256 0.30739
 O161 O 0.70719 1.03322 0.34399
 O162 O 0.68894 0.98939 0.29686
 Cu163 Cu 0.66299 0.99538 0.34625
 Cu164 Cu 0.70119 1.01258 0.31830
 C165 C 0.66976 0.97496 0.30046
 C166 C 0.69453 1.03346 0.36370
 C167 C 0.64995 1.03262 0.31468
 C168 C 0.71370 0.97539 0.35073
 C169 C 0.85561 0.77678 0.47430
 C170 C 0.86546 0.76688 0.49574
 C171 C 0.86098 0.77755 0.51825
 C172 C 0.84468 0.79823 0.51950
 C173 C 0.83445 0.80854 0.49789
 C174 C 0.84024 0.79796 0.47522
 C175 C 0.83002 0.80857 0.45411
 C176 C 0.81470 0.82931 0.45514
 C177 C 0.80865 0.84008 0.47735
 C178 C 0.81854 0.82960 0.49892
 C179 C 0.83879 0.80922 0.54165
 C180 C 0.82272 0.82954 0.54266
 C181 C 0.81233 0.84000 0.52153
 C182 C 0.79630 0.86084 0.52242
 C183 C 0.78762 0.87153 0.50089
 C184 C 0.79324 0.86126 0.47848
 H185 H 0.83368 0.80093 0.43652
 H186 H 0.80773 0.83685 0.43826
 H187 H 0.84654 0.80231 0.55851
 H188 H 0.81896 0.83727 0.56021
 H189 H 0.87729 0.75066 0.49480
 H190 H 0.77478 0.88715 0.50161
 C191 C 0.15227 0.22719 0.47656
 C192 C 0.14741 0.23953 0.49811
 C193 C 0.15554 0.23055 0.52047
 C194 C 0.16933 0.20846 0.52171
 C195 C 0.17469 0.19570 0.50011
 C196 C 0.16634 0.20516 0.47747
 C197 C 0.17282 0.19257 0.45633
 C198 C 0.18694 0.17110 0.45736
 C199 C 0.19503 0.16123 0.47956
 C200 C 0.18866 0.17352 0.50115
 C201 C 0.17845 0.19905 0.54379
 C202 C 0.19141 0.17701 0.54484
 C203 C 0.19666 0.16390 0.52376
 C204 C 0.20963 0.14138 0.52469
 C205 C 0.21541 0.12930 0.50323
 C206 C 0.20920 0.13931 0.48071
 H207 H 0.16740 0.19934 0.43870
 H208 H 0.19115 0.16212 0.44051
 H209 H 0.17573 0.20862 0.56055
 H210 H 0.19736 0.17041 0.56242
 H211 H 0.13601 0.25604 0.49771
 H212 H 0.22669 0.11273 0.50409
 C213 C 0.15173 0.76672 0.51800
 C214 C 0.13951 0.75958 0.49640
 C215 C 0.14446 0.77137 0.47461
 C216 C 0.16244 0.79108 0.47446
 C217 C 0.17505 0.79861 0.49631
 C218 C 0.16963 0.78642 0.51820
 C219 C 0.18299 0.79368 0.53941
 C220 C 0.20115 0.81269 0.53926
 C221 C 0.20678 0.82510 0.51786
 C222 C 0.19376 0.81789 0.49612
 C223 C 0.16895 0.80288 0.45291
 C224 C 0.18734 0.82164 0.45271
 C225 C 0.20001 0.82945 0.47405
 C226 C 0.21957 0.84783 0.47377
 C227 C 0.23205 0.85472 0.49539
 C228 C 0.22585 0.84391 0.51731
 H229 H 0.17982 0.78450 0.55631
 H230 H 0.21117 0.81724 0.55603
 H231 H 0.16045 0.79743 0.43577
 H232 H 0.19188 0.82959 0.43546
 H233 H 0.12541 0.74478 0.49679
 H234 H 0.24660 0.86920 0.49529
 C235 C 0.79158 0.14574 0.52842
 C236 C 0.78508 0.13364 0.50699
 C237 C 0.79381 0.14172 0.48455
 C238 C 0.81072 0.16209 0.48344
 C239 C 0.81782 0.17448 0.50499
 C240 C 0.80805 0.16641 0.52753
 C241 C 0.81428 0.17968 0.54844
 C242 C 0.82997 0.20032 0.54733
 C243 C 0.84044 0.20830 0.52534
 C244 C 0.83418 0.19536 0.50392
 C245 C 0.82004 0.17085 0.46131
 C246 C 0.83632 0.19107 0.46030
 C247 C 0.84371 0.20358 0.48135
 C248 C 0.85955 0.22463 0.48031
 C249 C 0.86534 0.23721 0.50161
 C250 C 0.85624 0.22936 0.52396
 H251 H 0.80663 0.17455 0.56585
 H252 H 0.83347 0.21012 0.56391
 H253 H 0.81463 0.16244 0.44437
 H254 H 0.84250 0.19706 0.44269
 H255 H 0.77337 0.11726 0.50783
 H256 H 0.87789 0.25311 0.50096
 C257 C 0.53032 0.80855 0.87271
 C258 C 0.50664 0.80147 0.88380
 C259 C 0.48189 0.81099 0.87704
 C260 C 0.48070 0.82878 0.85890
 C261 C 0.50454 0.83650 0.84762
 C262 C 0.52947 0.82647 0.85464
 C263 C 0.55268 0.83400 0.84282
 C264 C 0.55152 0.85090 0.82436
 C265 C 0.52708 0.86090 0.81693
 C266 C 0.50334 0.85371 0.82870
 C267 C 0.45622 0.83838 0.85111
 C268 C 0.45504 0.85515 0.83259
 C269 C 0.47830 0.86309 0.82109
 C270 C 0.47712 0.87946 0.80161
 C271 C 0.50077 0.88635 0.79031
 C272 C 0.52560 0.87722 0.79744
 H273 H 0.57199 0.82662 0.84744
 H274 H 0.57000 0.85568 0.81568
 H275 H 0.43756 0.83270 0.85890
 H276 H 0.43552 0.86142 0.82712
 H277 H 0.50753 0.78837 0.89823
 H278 H 0.49993 0.89941 0.77584
 C279 C 0.52173 0.19313 0.12763
 C280 C 0.49734 0.20136 0.11842
 C281 C 0.47293 0.19244 0.12659
 C282 C 0.47276 0.17397 0.14405
 C283 C 0.49731 0.16523 0.15353
 C284 C 0.52187 0.17483 0.14527
 C285 C 0.54583 0.16648 0.15550
 C286 C 0.54579 0.14913 0.17352
 C287 C 0.52177 0.13928 0.18197
 C288 C 0.49727 0.14739 0.17184
 C289 C 0.44873 0.16459 0.15290
 C290 C 0.44870 0.14702 0.17069
 C291 C 0.47269 0.13821 0.18047
 C292 C 0.47275 0.12112 0.19927
 C293 C 0.49705 0.11327 0.20897
 C294 C 0.52152 0.12218 0.20084
 H295 H 0.56492 0.17361 0.15004
 H296 H 0.56488 0.14392 0.18102
 H297 H 0.42960 0.17096 0.14646
 H298 H 0.42956 0.14076 0.17700
 H299 H 0.49736 0.21483 0.10432
 H300 H 0.49684 0.09959 0.22285
 C301 C 0.51663 0.14395 0.76825
 C302 C 0.49256 0.13742 0.75688
 C303 C 0.46799 0.14564 0.76502
 C304 C 0.46702 0.16101 0.78533
 C305 C 0.49119 0.16819 0.79691
 C306 C 0.51606 0.15985 0.78821
 C307 C 0.53971 0.16801 0.79944
 C308 C 0.53901 0.18361 0.81906
 C309 C 0.51465 0.19161 0.82832
 C310 C 0.49049 0.18381 0.81720
 C311 C 0.44271 0.16976 0.79409
 C312 C 0.44202 0.18468 0.81427
 C313 C 0.46566 0.19185 0.82614
 C314 C 0.46515 0.20664 0.84689
 C315 C 0.48914 0.21368 0.85797
 C316 C 0.51382 0.20700 0.84860
 H317 H 0.55910 0.16271 0.79302
 H318 H 0.55783 0.18912 0.82710
 H319 H 0.42395 0.16513 0.78545
 H320 H 0.42272 0.19051 0.82052
 H321 H 0.49266 0.12481 0.74197
 H322 H 0.48860 0.22589 0.87323
 C323 C 0.52838 0.79835 0.13514
 C324 C 0.50300 0.79037 0.12795
 C325 C 0.47972 0.79966 0.13804
 C326 C 0.48169 0.81825 0.15540
 C327 C 0.50724 0.82651 0.16303
 C328 C 0.53065 0.81638 0.15304
 C329 C 0.55571 0.82415 0.16163
 C330 C 0.55782 0.84167 0.17943
 C331 C 0.53496 0.85220 0.18928
 C332 C 0.50941 0.84472 0.18095
 C333 C 0.45887 0.82835 0.16580
 C334 C 0.46101 0.84648 0.18307
 C335 C 0.48607 0.85513 0.19079
 C336 C 0.48852 0.87338 0.20857
 C337 C 0.51403 0.88091 0.21600
 C338 C 0.53706 0.87025 0.20705
 H339 H 0.57403 0.81656 0.15495
 H340 H 0.57763 0.84702 0.18529
 H341 H 0.43906 0.82224 0.16085
 H342 H 0.44271 0.85333 0.19052
 H343 H 0.50125 0.77712 0.11367
 H344 H 0.51613 0.89506 0.22935
 C345 C 0.80205 0.47285 0.87605
 C346 C 0.79212 0.49429 0.88550
 C347 C 0.80079 0.51688 0.87743
 C348 C 0.81951 0.51801 0.85848
 C349 C 0.82975 0.49639 0.84858
 C350 C 0.82121 0.47378 0.85760
 C351 C 0.83130 0.45266 0.84730
 C352 C 0.84950 0.45360 0.82862
 C353 C 0.85839 0.47572 0.81943
 C354 C 0.84833 0.49736 0.82938
 C355 C 0.82840 0.54011 0.84922
 C356 C 0.84623 0.54104 0.83017
 C357 C 0.85647 0.51992 0.81993
 C358 C 0.87420 0.52067 0.80021
 C359 C 0.88410 0.49909 0.79090
 C360 C 0.87651 0.47673 0.80012
 H361 H 0.82493 0.43508 0.85329
 H362 H 0.85607 0.43668 0.82120
 H363 H 0.82164 0.55704 0.85647
 H364 H 0.85172 0.55860 0.82351
 H365 H 0.77709 0.49323 0.89934
 H366 H 0.89871 0.49973 0.77666
 C367 C 0.12824 0.52402 0.19567
 C368 C 0.11980 0.50233 0.20590
 C369 C 0.12871 0.48006 0.19753
 C370 C 0.14647 0.47925 0.17795
 C371 C 0.15510 0.50099 0.16709
 C372 C 0.14578 0.52344 0.17584
 C373 C 0.15473 0.54467 0.16484
 C374 C 0.17244 0.54397 0.14572
 C375 C 0.18240 0.52203 0.13708
 C376 C 0.17346 0.50028 0.14773
 C377 C 0.15647 0.45730 0.16943
 C378 C 0.17440 0.45660 0.15053
 C379 C 0.18307 0.47782 0.13929
 C380 C 0.20176 0.47721 0.12039
 C381 C 0.21032 0.49883 0.11015
 C382 C 0.20087 0.52120 0.11796
 H383 H 0.14829 0.56215 0.17096
 H384 H 0.17820 0.56095 0.13785
 H385 H 0.15091 0.44038 0.17753
 H386 H 0.18171 0.43916 0.14516
 H387 H 0.10545 0.50274 0.22037
 H388 H 0.22480 0.49816 0.09585
 C389 C 0.83650 0.47655 0.22526
 C390 C 0.84145 0.49889 0.23611
 C391 C 0.83072 0.52008 0.22693
 C392 C 0.81402 0.51927 0.20630
 C393 C 0.80879 0.49684 0.19486
 C394 C 0.82030 0.47542 0.20421
 C395 C 0.81444 0.45343 0.19281
 C396 C 0.79740 0.45236 0.17281
 C397 C 0.78551 0.47325 0.16340
 C398 C 0.79134 0.49575 0.17451
 C399 C 0.80162 0.54007 0.19740
 C400 C 0.78435 0.53898 0.17763
 C401 C 0.77904 0.51708 0.16584
 C402 C 0.76094 0.51570 0.14618
 C403 C 0.75535 0.49348 0.13558
 C404 C 0.76715 0.47219 0.14381
 H405 H 0.82256 0.43671 0.19952
 H406 H 0.79322 0.43484 0.16516
 H407 H 0.80473 0.55736 0.20595
 H408 H 0.77488 0.55549 0.17197
 H409 H 0.85437 0.49993 0.25190
 H410 H 0.74171 0.49290 0.12028
 C411 C 0.23819 0.48118 0.85585
 C412 C 0.25027 0.50295 0.86222
 C413 C 0.23898 0.52500 0.85592
 C414 C 0.21524 0.52547 0.84189
 C415 C 0.20300 0.50346 0.83475
 C416 C 0.21461 0.48122 0.84162
 C417 C 0.20309 0.45974 0.83309
 C418 C 0.18027 0.45996 0.81866
 C419 C 0.16813 0.48170 0.81196
 C420 C 0.17966 0.50369 0.81999
 C421 C 0.20412 0.54720 0.83382
 C422 C 0.18108 0.54744 0.81966
 C423 C 0.16849 0.52592 0.81255
 C424 C 0.14577 0.52601 0.79726
 C425 C 0.13455 0.50416 0.78970
 C426 C 0.14551 0.48208 0.79653
 H427 H 0.21195 0.44247 0.83690
 H428 H 0.17266 0.44282 0.81241
 H429 H 0.21340 0.56431 0.83788
 H430 H 0.17364 0.56473 0.81385
 H431 H 0.26854 0.50275 0.87289
 H432 H 0.11682 0.50435 0.77833
 C433 C 0.30306 0.37355 0.04028
 C434 C 0.27828 0.37263 0.05140
 C435 C 0.26834 0.39279 0.06597
 N436 N 0.24281 0.39272 0.07384
 N437 N 0.23332 0.41133 0.08623
 C438 C 0.24910 0.43064 0.09126
 N439 N 0.27468 0.43058 0.08359
 N440 N 0.28413 0.41204 0.07117
 C441 C 0.23885 0.45186 0.10393
 C442 C 0.21219 0.45431 0.11044
 H443 H 0.26528 0.35729 0.04842
 H444 H 0.25270 0.46644 0.10758
 H445 H 0.31571 0.38920 0.04275
 H446 H 0.19859 0.43940 0.10762
 C447 C 0.70989 0.63656 0.05144
 C448 C 0.69927 0.61685 0.06353
 C449 C 0.71461 0.60237 0.08089
 N450 N 0.70225 0.58424 0.09268
 N451 N 0.71594 0.56985 0.10735
 C452 C 0.74259 0.57296 0.11077
 N453 N 0.75497 0.59124 0.09913
 N454 N 0.74123 0.60572 0.08446
 C455 C 0.75810 0.55591 0.12557
 C456 C 0.74581 0.53642 0.13669
 H457 H 0.67898 0.61123 0.05959
 H458 H 0.77961 0.55764 0.12627
 H459 H 0.72970 0.64305 0.05598
 H460 H 0.72444 0.53407 0.13466
 C461 C 0.69143 0.36800 0.94369
 C462 C 0.71901 0.36916 0.94096
 C463 C 0.73120 0.38805 0.92594
 N464 N 0.75812 0.39043 0.92481
 N465 N 0.76906 0.40852 0.91255
 C466 C 0.75342 0.42487 0.90102
 N467 N 0.72658 0.42233 0.90199
 N468 N 0.71569 0.40429 0.91418
 C469 C 0.76468 0.44596 0.88878
 C470 C 0.79194 0.44984 0.88599
 H471 H 0.73183 0.35735 0.95134
 H472 H 0.75084 0.45938 0.88213
 H473 H 0.67890 0.38021 0.93348
 H474 H 0.80598 0.43599 0.89117
 C475 C 0.29252 0.64793 0.94760
 C476 C 0.30311 0.62952 0.93366
 C477 C 0.28680 0.61434 0.91760
 N478 N 0.29887 0.59761 0.90373
 N479 N 0.28447 0.58211 0.89070
 C480 C 0.25742 0.58264 0.89115
 N481 N 0.24530 0.59953 0.90486
 N482 N 0.25972 0.61513 0.91785
 C483 C 0.24147 0.56428 0.87839
 C484 C 0.25343 0.54673 0.86422
 H485 H 0.32401 0.62499 0.93569
 H486 H 0.22020 0.56354 0.88152
 H487 H 0.27214 0.65370 0.94472
 H488 H 0.27492 0.54678 0.86247
 C489 C 0.05667 0.32559 0.38557
 C490 C 0.06614 0.30224 0.38249
 C491 C 0.08604 0.29177 0.39912
 N492 N 0.09088 0.26777 0.39881
 N493 N 0.10797 0.25802 0.41453
 C494 C 0.12101 0.27197 0.43101
 N495 N 0.11645 0.29598 0.43106
 N496 N 0.09929 0.30570 0.41544
 C497 C 0.13847 0.26159 0.44973
 C498 C 0.14059 0.23690 0.45380
 H499 H 0.05781 0.29097 0.36834
 H500 H 0.14837 0.27399 0.46198
 H501 H 0.06422 0.33643 0.40039
 H502 H 0.13170 0.22450 0.44096
 C503 C 0.05787 0.70540 0.63811
 C504 C 0.07277 0.69815 0.61835
 C505 C 0.08972 0.71461 0.60450
 N506 N 0.10482 0.70570 0.58647
 N507 N 0.11881 0.72034 0.57246
 C508 C 0.11821 0.74451 0.57584
 N509 N 0.10329 0.75345 0.59404
 N510 N 0.08932 0.73877 0.60815
 C511 C 0.13166 0.76084 0.55891
 C512 C 0.14581 0.75191 0.53936
 H513 H 0.07130 0.67971 0.61215
 H514 H 0.12831 0.78000 0.56046
 H515 H 0.06021 0.72341 0.64529
 H516 H 0.14784 0.73264 0.53729
 C517 C 0.93758 0.69834 0.36293
 C518 C 0.92076 0.68813 0.37999
 C519 C 0.90389 0.70229 0.39615
 N520 N 0.88877 0.69070 0.41261
 N521 N 0.87490 0.70299 0.42879
 C522 C 0.87559 0.72734 0.42911
 N523 N 0.89047 0.73902 0.41244
 N524 N 0.90437 0.72671 0.39623
 C525 C 0.86225 0.74023 0.44869
 C526 C 0.86313 0.76514 0.45127
 H527 H 0.92093 0.66884 0.38259
 H528 H 0.85304 0.72956 0.46266
 H529 H 0.93690 0.71746 0.35939
 H530 H 0.87086 0.77615 0.43685
 C531 C 0.95493 0.29146 0.64268
 C532 C 0.93991 0.29851 0.62268
 C533 C 0.92245 0.28203 0.60909
 N534 N 0.90687 0.29084 0.59109
 N535 N 0.89242 0.27612 0.57722
 C536 C 0.89309 0.25199 0.58073
 N537 N 0.90851 0.24315 0.59888
 N538 N 0.92291 0.25791 0.61286
 C539 C 0.87909 0.23558 0.56400
 C540 C 0.86365 0.24437 0.54496
 H541 H 0.94165 0.31677 0.61612
 H542 H 0.88284 0.21647 0.56538
 H543 H 0.95216 0.27377 0.65041
 H544 H 0.86127 0.26361 0.54301
 C545 C 0.36683 0.05410 0.30687
 C546 C 0.36571 0.05597 0.28183
 C547 C 0.38427 0.07200 0.26903
 N548 N 0.38607 0.07117 0.24464
 N549 N 0.40460 0.08400 0.23326
 C550 C 0.42199 0.09809 0.24591
 N551 N 0.41992 0.09917 0.27021
 N552 N 0.40143 0.08640 0.28154
 C553 C 0.44416 0.11070 0.23425
 C554 C 0.44786 0.11110 0.20942
 H555 H 0.35326 0.04374 0.27144
 H556 H 0.45888 0.11933 0.24585
 H557 H 0.37999 0.06595 0.31700
 H558 H 0.43263 0.10396 0.19738
 C559 C 0.61942 0.04467 0.68684
 C560 C 0.62330 0.05858 0.70751
 C561 C 0.60368 0.07672 0.71480
 N562 N 0.60470 0.08640 0.73727
 N563 N 0.58655 0.10240 0.74414
 C564 C 0.56692 0.10946 0.72867
 N565 N 0.56616 0.10004 0.70612
 N566 N 0.58417 0.08396 0.69932
 C567 C 0.54573 0.12596 0.73615
 C568 C 0.54166 0.13230 0.76017
 H569 H 0.64069 0.05573 0.71887
 H570 H 0.53171 0.13185 0.72242
 H571 H 0.60137 0.04683 0.67617
 H572 H 0.55627 0.12702 0.77363
 C573 C 0.35850 0.94827 0.70377
 C574 C 0.35814 0.94146 0.72794
 C575 C 0.38025 0.92744 0.73850
 N576 N 0.38248 0.92463 0.76275
 N577 N 0.40327 0.91304 0.77236
 C578 C 0.42252 0.90379 0.75803
 N579 N 0.42009 0.90637 0.73382
 N580 N 0.39941 0.91797 0.72425
 C581 C 0.44631 0.89187 0.76800
 C582 C 0.45158 0.88978 0.79264
 H583 H 0.34247 0.94787 0.73957
 H584 H 0.46063 0.88491 0.75530
 H585 H 0.37495 0.94267 0.69261
 H586 H 0.43691 0.89583 0.80544
 C587 C 0.66084 0.95902 0.28089
 C588 C 0.64467 0.93920 0.28534
 C589 C 0.62833 0.92802 0.26630
 N590 N 0.61692 0.90624 0.27007
 N591 N 0.59961 0.89712 0.25412
 C592 C 0.59283 0.90960 0.23397
 N593 N 0.60431 0.93134 0.23014
 N594 N 0.62186 0.94034 0.24596
 C595 C 0.57135 0.90109 0.21793
 C596 C 0.56285 0.87730 0.21799
 H597 H 0.64227 0.93287 0.30365
 H598 H 0.56086 0.91410 0.20688
 H599 H 0.66532 0.96405 0.26251
 H600 H 0.57448 0.86373 0.22727
 C601 C 0.35332 0.27481 0.94982
 C602 C 0.36924 0.28072 0.93029
 C603 C 0.38355 0.26248 0.91634
 N604 N 0.39313 0.26803 0.89426
 N605 N 0.40823 0.25247 0.88233
 C606 C 0.41454 0.23087 0.89219
 N607 N 0.40491 0.22530 0.91426
 N608 N 0.38955 0.24076 0.92606
 C609 C 0.43393 0.21497 0.88063
 C610 C 0.44023 0.21695 0.85634
 H611 H 0.37192 0.29942 0.92544
 H612 H 0.44498 0.20253 0.89189
 H613 H 0.34832 0.25620 0.95332
 H614 H 0.42791 0.22770 0.84441
 C615 C 0.62991 0.69877 0.94579
 C616 C 0.63393 0.72263 0.93894
 C617 C 0.61488 0.73519 0.92299
 N618 N 0.61723 0.75922 0.91925
 N619 N 0.59900 0.77100 0.90621
 C620 C 0.57780 0.75911 0.89638
 N621 N 0.57568 0.73506 0.89986
 N622 N 0.59384 0.72333 0.91290
 C623 C 0.55611 0.77177 0.88376
 C624 C 0.55540 0.79664 0.88057
 H625 H 0.65029 0.73284 0.94679
 H626 H 0.53899 0.76114 0.87811
 H627 H 0.61322 0.68877 0.93827
 H628 H 0.57281 0.80747 0.88478
 C629 C 0.37349 0.70048 0.05802
 C630 C 0.37065 0.72393 0.06651
 C631 C 0.38995 0.73444 0.08374
 N632 N 0.38985 0.75842 0.08830
 N633 N 0.40858 0.76834 0.10241
 C634 C 0.42799 0.75458 0.11255
 N635 N 0.42779 0.73058 0.10831
 N636 N 0.40915 0.72069 0.09418
 C637 C 0.45032 0.76519 0.12624
 C638 C 0.45380 0.78988 0.12934
 H639 H 0.35534 0.73541 0.05891
 H640 H 0.46580 0.75313 0.13256
 H641 H 0.38934 0.68929 0.06515
 H642 H 0.43801 0.80213 0.12426
 C643 C 0.61548 0.29754 0.04497
 C644 C 0.62248 0.27545 0.05494
 C645 C 0.60460 0.26345 0.07212
 N646 N 0.60708 0.23962 0.07688
 N647 N 0.58964 0.22848 0.09109
 C648 C 0.56925 0.24086 0.10114
 N649 N 0.56713 0.26472 0.09673
 N650 N 0.58443 0.27579 0.08249
 C651 C 0.54832 0.22896 0.11513
 C652 C 0.54653 0.20414 0.11820
 H653 H 0.64010 0.26616 0.04882
 H654 H 0.53238 0.24017 0.12181
 H655 H 0.59693 0.30589 0.05019
 H656 H 0.56282 0.19270 0.11278
 C657 C 0.26041 0.03981 0.64142
 C658 C 0.27078 0.05769 0.62661
 C659 C 0.25439 0.07182 0.60976
 N660 N 0.26451 0.09229 0.60019
 N661 N 0.25113 0.10419 0.58316
 C662 C 0.22726 0.09589 0.57483
 N663 N 0.21710 0.07542 0.58441
 N664 N 0.23036 0.06364 0.60166
 C665 C 0.21362 0.10769 0.55446
 C666 C 0.21980 0.13109 0.54755
 H667 H 0.29210 0.06095 0.62673
 H668 H 0.19890 0.09754 0.54421
 H669 H 0.23906 0.03787 0.64345
 H670 H 0.23281 0.14203 0.55882
 C671 C 0.70172 0.04942 0.38198
 C672 C 0.72395 0.06448 0.38047
 C673 C 0.73268 0.07949 0.40089
 N674 N 0.75703 0.09019 0.40065
 N675 N 0.76554 0.10316 0.41944
 C676 C 0.74992 0.10597 0.43908
 N677 N 0.72547 0.09549 0.43920
 N678 N 0.71703 0.08243 0.42049
 C679 C 0.75901 0.11983 0.46015
 C680 C 0.78506 0.12837 0.46268
 H681 H 0.73622 0.06427 0.36451
 H682 H 0.74472 0.12319 0.47426
 H683 H 0.69017 0.04923 0.39838
 H684 H 0.79913 0.12528 0.44837
 C685 C 0.72495 0.95438 0.63550
 C686 C 0.71791 0.93534 0.62038
 C687 C 0.73713 0.92378 0.60431
 N688 N 0.73168 0.90174 0.59497
 N689 N 0.74765 0.89198 0.57865
 C690 C 0.76948 0.90405 0.57081
 N691 N 0.77493 0.92612 0.58012
 N692 N 0.75913 0.93576 0.59669
 C693 C 0.78557 0.89445 0.55103
 C694 C 0.78558 0.87006 0.54538
 H695 H 0.69734 0.92935 0.61950
 H696 H 0.79683 0.90689 0.54007
 H697 H 0.74578 0.95893 0.63830
 H698 H 0.77645 0.85737 0.55760
 C699 C 0.31262 0.94420 0.38067
 C700 C 0.28829 0.93251 0.37706
 C701 C 0.27943 0.91380 0.39396
 N702 N 0.25342 0.90698 0.39467
 N703 N 0.24513 0.89122 0.41109
 C704 C 0.26262 0.88163 0.42726
 N705 N 0.28865 0.88814 0.42624
 N706 N 0.29688 0.90393 0.40994
 C707 C 0.25396 0.86560 0.44667
 C708 C 0.22729 0.86048 0.45135
 H709 H 0.27485 0.93833 0.36284
 H710 H 0.26922 0.85868 0.45874
 H711 H 0.32515 0.93918 0.39586
 H712 H 0.21192 0.86645 0.43891
 C713 C 0.06352 0.37866 0.69757
 C714 C 0.07136 0.37852 0.72174
 C715 C 0.08695 0.39849 0.73223
 N716 N 0.09259 0.39898 0.75622
 N717 N 0.10548 0.41766 0.76601
 C718 C 0.11315 0.43651 0.75215
 N719 N 0.10767 0.43592 0.72818
 N720 N 0.09481 0.41729 0.71841
 C721 C 0.12642 0.45775 0.76254
 C722 C 0.13306 0.45980 0.78691
 H723 H 0.06453 0.36433 0.73353
 H724 H 0.13110 0.47245 0.75049
 H725 H 0.07014 0.39306 0.68594
 H726 H 0.12966 0.44479 0.79889
 C727 C 0.04458 0.61802 0.29859
 C728 C 0.05466 0.62207 0.27562
 C729 C 0.07195 0.60420 0.26399
 N730 N 0.07633 0.60502 0.23988
 N731 N 0.09069 0.58800 0.22915
 C732 C 0.10130 0.56966 0.24220
 N733 N 0.09725 0.56910 0.26631
 N734 N 0.08284 0.58599 0.27699
 C735 C 0.11571 0.54974 0.23085
 C736 C 0.11787 0.54679 0.20597
 H737 H 0.04829 0.63766 0.26543
 H738 H 0.12366 0.53597 0.24267
 H739 H 0.04984 0.60165 0.30803
 H740 H 0.11100 0.56084 0.19399
 C741 C 0.94213 0.38197 0.30558
 C742 C 0.92573 0.39986 0.31474
 C743 C 0.90484 0.41187 0.30044
 N744 N 0.88761 0.42673 0.31170
 N745 N 0.86945 0.43896 0.29914
 C746 C 0.86786 0.43689 0.27482
 N747 N 0.88498 0.42187 0.26345
 N748 N 0.90310 0.40951 0.27607
 C749 C 0.84930 0.45252 0.26153
 C750 C 0.84901 0.45507 0.23650
 H751 H 0.92822 0.40539 0.33338
 H752 H 0.83719 0.46455 0.27217
 H753 H 0.93879 0.37518 0.28748
 H754 H 0.85972 0.44249 0.22532
 C755 C 0.95032 0.61967 0.69529
 C756 C 0.94243 0.62143 0.71928
 C757 C 0.92642 0.60249 0.73084
 N758 N 0.92236 0.60302 0.75500
 N759 N 0.90916 0.58527 0.76582
 C760 C 0.89947 0.56638 0.75283
 N761 N 0.90328 0.56601 0.72866
 N762 N 0.91651 0.58370 0.71787
 C763 C 0.88630 0.54581 0.76439
 C764 C 0.88352 0.54357 0.78930
 H765 H 0.94960 0.63622 0.73031
 H766 H 0.87959 0.53125 0.75280
 H767 H 0.94373 0.60450 0.68447
 H768 H 0.88910 0.55843 0.80094
 C769 C 0.71536 0.63094 0.95571
 C770 C 0.71051 0.60641 0.95231
 C771 C 0.72995 0.58986 0.94193
 N772 N 0.73115 0.56709 0.95048
 N773 N 0.74810 0.55133 0.94124
 C774 C 0.76415 0.55760 0.92280
 N775 N 0.76295 0.58039 0.91406
 N776 N 0.74623 0.59634 0.92360
 C777 C 0.78184 0.53935 0.91264
 C778 C 0.78886 0.53876 0.88838
 H779 H 0.69324 0.59817 0.96053
 H780 H 0.78702 0.52438 0.92418
 H781 H 0.73368 0.63882 0.94913
 H782 H 0.78370 0.55385 0.87699
 C783 C 0.28584 0.35524 0.94560
 C784 C 0.29704 0.37274 0.93075
 C785 C 0.28123 0.38906 0.91561
 N786 N 0.29404 0.40490 0.90122
 N787 N 0.28046 0.42132 0.88882
 C788 C 0.25352 0.42261 0.89043
 N789 N 0.24062 0.40659 0.90464
 N790 N 0.25423 0.39009 0.91704
 C791 C 0.23866 0.44186 0.87816
 C792 C 0.25162 0.45909 0.86426
 H793 H 0.31843 0.37563 0.93107
 H794 H 0.21745 0.44340 0.88130
 H795 H 0.26473 0.35122 0.94417
 H796 H 0.27311 0.45837 0.86264
 C797 C 0.28620 0.63621 0.04193
 C798 C 0.28987 0.61137 0.04308
 C799 C 0.27023 0.59476 0.05316
 N800 N 0.26815 0.57233 0.04377
 N801 N 0.25114 0.55647 0.05288
 C802 C 0.23588 0.56231 0.07200
 N803 N 0.23792 0.58478 0.08153
 N804 N 0.25471 0.60082 0.07215
 C805 C 0.21848 0.54385 0.08230
 C806 C 0.21188 0.54330 0.10664
 H807 H 0.30643 0.60325 0.03371
 H808 H 0.21334 0.52870 0.07087
 H809 H 0.26843 0.64411 0.04951
 H810 H 0.21687 0.55860 0.11791
 C811 C 0.67975 0.37674 0.04152
 C812 C 0.70374 0.37476 0.05443
 C813 C 0.71153 0.39258 0.07291
 N814 N 0.73663 0.39271 0.08239
 N815 N 0.74391 0.40914 0.09875
 C816 C 0.72622 0.42589 0.10637
 N817 N 0.70110 0.42555 0.09709
 N818 N 0.69389 0.40924 0.08068
 C819 C 0.73382 0.44508 0.12337
 C820 C 0.75997 0.44941 0.13121
 H821 H 0.71734 0.36017 0.05065
 H822 H 0.71826 0.45738 0.12871
 H823 H 0.66689 0.39195 0.04494
 H824 H 0.77547 0.43664 0.12697
 C825 C 0.95181 0.69994 0.63074
 C826 C 0.94755 0.69513 0.60626
 C827 C 0.93455 0.71180 0.58948
 N828 N 0.94167 0.71116 0.56601
 N829 N 0.93050 0.72592 0.55008
 C830 C 0.91147 0.74164 0.55691
 N831 N 0.90409 0.74227 0.58043
 N832 N 0.91560 0.72768 0.59652
 C833 C 0.89951 0.75724 0.53853
 C834 C 0.87379 0.76655 0.53987
 H835 H 0.95720 0.67979 0.59808
 H836 H 0.91067 0.75956 0.52209
 H837 H 0.94321 0.71585 0.63878
 H838 H 0.86266 0.76462 0.55636
 C839 C 0.94711 0.32197 0.38434
 C840 C 0.93841 0.29832 0.38117
 C841 C 0.91967 0.28759 0.39840
 N842 N 0.91664 0.26337 0.39984
 N843 N 0.90105 0.25370 0.41660
 C844 C 0.88781 0.26793 0.43238
 N845 N 0.89045 0.29209 0.43061
 N846 N 0.90609 0.30172 0.41398
 C847 C 0.87215 0.25791 0.45222
 C848 C 0.87120 0.23346 0.45749
 H849 H 0.94662 0.28721 0.36704
 H850 H 0.86232 0.27049 0.46409
 H851 H 0.93951 0.33221 0.39940
 H852 H 0.87999 0.22069 0.44519
 C853 C 0.06357 0.29441 0.64114
 C854 C 0.07464 0.30023 0.61892
 C855 C 0.09162 0.28376 0.60530
 N856 N 0.10529 0.29225 0.58617
 N857 N 0.11915 0.27741 0.57230
 C858 C 0.11969 0.25347 0.57692
 N859 N 0.10607 0.24494 0.59614
 N860 N 0.09234 0.25984 0.61016
 C861 C 0.13296 0.23683 0.56029
 C862 C 0.14885 0.24537 0.54168
 H863 H 0.07038 0.31750 0.61077
 H864 H 0.12843 0.21783 0.56149
 H865 H 0.06962 0.27805 0.65022
 H866 H 0.15219 0.26456 0.54017
 C867 C 0.04413 0.68285 0.37526
 C868 C 0.05763 0.70471 0.37291
 C869 C 0.07594 0.71348 0.39197
 N870 N 0.08389 0.73683 0.39241
 N871 N 0.09967 0.74504 0.41012
 C872 C 0.10820 0.73011 0.42795
 N873 N 0.10053 0.70673 0.42731
 N874 N 0.08466 0.69858 0.40971
 C875 C 0.12490 0.73875 0.44815
 C876 C 0.13005 0.76306 0.45250
 H877 H 0.05365 0.71621 0.35757
 H878 H 0.13267 0.72541 0.46052
 H879 H 0.04744 0.67221 0.39136
 H880 H 0.12276 0.77626 0.43975
 C881 C 0.64171 0.94921 0.70706
 C882 C 0.62188 0.93338 0.69902
 C883 C 0.60488 0.91927 0.71519
 N884 N 0.58496 0.90570 0.70551
 N885 N 0.56778 0.89427 0.71959
 C886 C 0.56986 0.89592 0.74392
 N887 N 0.59000 0.90927 0.75371
 N888 N 0.60721 0.92077 0.73958
 C889 C 0.54912 0.88479 0.75878
 C890 C 0.54942 0.88511 0.78390
 H891 H 0.61717 0.93249 0.67993
 H892 H 0.53214 0.87686 0.74946
 H893 H 0.64732 0.94979 0.72596
 H894 H 0.56687 0.89151 0.79365
 C895 C 0.38982 0.95784 0.31106
 C896 C 0.38562 0.94747 0.28841
 C897 C 0.40595 0.93235 0.27697
 N898 N 0.40280 0.92510 0.25372
 N899 N 0.42136 0.91175 0.24312
 C900 C 0.44366 0.90507 0.25547
 N901 N 0.44667 0.91216 0.27874
 N902 N 0.42820 0.92556 0.28929
 C903 C 0.46488 0.89100 0.24413
 C904 C 0.46502 0.88509 0.21966
 H905 H 0.36729 0.95098 0.27856
 H906 H 0.48152 0.88568 0.25550
 H907 H 0.40852 0.95493 0.32053
 H908 H 0.44794 0.88953 0.20846
 C909 C 0.63022 0.04905 0.30416
 C910 C 0.63396 0.06063 0.28220
 C911 C 0.61229 0.07438 0.27069
 N912 N 0.61387 0.08080 0.24715
 N913 N 0.59367 0.09214 0.23631
 C914 C 0.57124 0.09755 0.24869
 N915 N 0.56985 0.09144 0.27229
 N916 N 0.58996 0.08002 0.28307
 C917 C 0.54818 0.10905 0.23702
 C918 C 0.54640 0.11296 0.21223
 H919 H 0.65236 0.05813 0.27247
 H920 H 0.53155 0.11384 0.24833
 H921 H 0.61123 0.05055 0.31315
 H922 H 0.56329 0.10883 0.20100
 C923 C 0.34191 0.04545 0.71235
 C924 C 0.36212 0.05999 0.70327
 C925 C 0.37711 0.07721 0.71845
 N926 N 0.39507 0.09221 0.70818
 N927 N 0.40988 0.10700 0.72172
 C928 C 0.40737 0.10733 0.74608
 N929 N 0.38930 0.09241 0.75636
 N930 N 0.37438 0.07768 0.74279
 C931 C 0.42531 0.12211 0.76132
 C932 C 0.44425 0.13739 0.75127
 H933 H 0.36758 0.05839 0.68450
 H934 H 0.42530 0.11929 0.78063
 H935 H 0.33561 0.04774 0.73082
 H936 H 0.44493 0.13916 0.73184
 C937 C 0.62474 0.70016 0.04524
 C938 C 0.62901 0.72321 0.05439
 C939 C 0.61013 0.73378 0.07157
 N940 N 0.61192 0.75733 0.07787
 N941 N 0.59416 0.76703 0.09273
 C942 C 0.57408 0.75346 0.10188
 N943 N 0.57252 0.72991 0.09579
 N944 N 0.59017 0.72027 0.08094
 C945 C 0.55333 0.76379 0.11720
 C946 C 0.55197 0.78816 0.12286
 H947 H 0.64580 0.73382 0.04834
 H948 H 0.53781 0.75180 0.12346
 H949 H 0.60742 0.69006 0.05094
 H950 H 0.56801 0.80005 0.11760
 C951 C 0.37212 0.29449 0.04578
 C952 C 0.36657 0.27233 0.05628
 C953 C 0.38606 0.26089 0.07258
 N954 N 0.38426 0.23708 0.07767
 N955 N 0.40295 0.22638 0.09112
 C956 C 0.42398 0.23919 0.10005
 N957 N 0.42547 0.26303 0.09530
 N958 N 0.40691 0.27367 0.08180
 C959 C 0.44586 0.22777 0.11348
 C960 C 0.44812 0.20299 0.11645
 H961 H 0.34877 0.26246 0.05103
 H962 H 0.46174 0.23934 0.12015
 H963 H 0.39076 0.30353 0.05004
 H964 H 0.43196 0.19126 0.11076
 C965 C 0.62753 0.28213 0.94824
 C966 C 0.60906 0.28748 0.93014
 C967 C 0.59417 0.26864 0.91707
 N968 N 0.58353 0.27330 0.89499
 N969 N 0.56817 0.25706 0.88382
 C970 C 0.56258 0.23569 0.89449
 N971 N 0.57315 0.23107 0.91660
 N972 N 0.58883 0.24717 0.92762
 C973 C 0.54323 0.21891 0.88352
 C974 C 0.53804 0.21859 0.85882
 H975 H 0.60498 0.30608 0.92573
 H976 H 0.53181 0.20735 0.89527
 H977 H 0.63376 0.26370 0.95097
 H978 H 0.55107 0.22828 0.84675
 C979 C 0.37979 0.71026 0.95881
 C980 C 0.37665 0.73414 0.95185
 C981 C 0.39610 0.74550 0.93565
 N982 N 0.39584 0.76959 0.93175
 N983 N 0.41416 0.77984 0.91779
 C984 C 0.43327 0.76630 0.90718
 N985 N 0.43329 0.74225 0.91088
 N986 N 0.41508 0.73206 0.92483
 C987 C 0.45462 0.77695 0.89274
 C988 C 0.45776 0.80157 0.88914
 H989 H 0.36042 0.74473 0.95891
 H990 H 0.46922 0.76477 0.88531
 H991 H 0.39667 0.70018 0.95222
 H992 H 0.44272 0.81393 0.89541
 C993 C 0.73284 0.95954 0.36301
 C994 C 0.72408 0.94007 0.37657
 C995 C 0.74119 0.92769 0.39418
 N996 N 0.73323 0.90632 0.40341
 N997 N 0.74724 0.89580 0.42093
 C998 C 0.76957 0.90642 0.43011
 N999 N 0.77755 0.92782 0.42090
 N1000 N 0.76366 0.93824 0.40319
 C1001 C 0.78411 0.89567 0.45052
 C1002 C 0.78056 0.87167 0.45676
 H1003 H 0.70341 0.93442 0.37519
 H1004 H 0.79786 0.90676 0.46087
 H1005 H 0.75385 0.96407 0.36259
 H1006 H 0.76857 0.86001 0.44531
 C1007 C 0.27270 0.94119 0.63792
 C1008 C 0.28340 0.93129 0.61708
 C1009 C 0.26925 0.91289 0.60266
 N1010 N 0.28188 0.90200 0.58414
 N1011 N 0.26908 0.88607 0.57024
 C1012 C 0.24312 0.88045 0.57425
 N1013 N 0.23049 0.89129 0.59284
 N1014 N 0.24333 0.90715 0.60684
 C1015 C 0.22825 0.86435 0.55771
 C1016 C 0.24081 0.85279 0.53866
 H1017 H 0.30279 0.93726 0.61103
 H1018 H 0.20675 0.86331 0.55920
 H1019 H 0.25392 0.93443 0.64465
 H1020 H 0.26218 0.85486 0.53679
 C1021 C 0.28416 0.03957 0.37535
 C1022 C 0.29150 0.05779 0.39134
 C1023 C 0.27198 0.07029 0.40636
 N1024 N 0.27773 0.09245 0.41526
 N1025 N 0.26098 0.10340 0.43012
 C1026 C 0.23800 0.09245 0.43689
 N1027 N 0.23230 0.07022 0.42810
 N1028 N 0.24890 0.05940 0.41297
 C1029 C 0.22069 0.10358 0.45495
 C1030 C 0.22095 0.12828 0.45898
 H1031 H 0.31225 0.06314 0.39286
 H1032 H 0.20825 0.09208 0.46589
 H1033 H 0.26325 0.03585 0.37187
 H1034 H 0.23137 0.13989 0.44654
 C1035 C 0.69760 0.04795 0.61939
 C1036 C 0.71965 0.06262 0.62410
 C1037 C 0.72851 0.08049 0.60633
 N1038 N 0.75274 0.09128 0.60864
 N1039 N 0.76129 0.10658 0.59190
 C1040 C 0.74578 0.11175 0.57236
 N1041 N 0.72144 0.10125 0.57029
 N1042 N 0.71297 0.08592 0.58692
 C1043 C 0.75530 0.12695 0.55263
 C1044 C 0.78130 0.13579 0.55133
 H1045 H 0.73119 0.06029 0.64053
 H1046 H 0.74183 0.12972 0.53750
 H1047 H 0.68683 0.04979 0.60246
 H1048 H 0.79461 0.13425 0.56674
 C1049 C 0.93642 0.63396 0.28501
 C1050 C 0.91770 0.61714 0.29266
 C1051 C 0.89947 0.60428 0.27618
 N1052 N 0.88104 0.58911 0.28544
 N1053 N 0.86575 0.57567 0.27100
 C1054 C 0.86831 0.57682 0.24669
 N1055 N 0.88652 0.59224 0.23736
 N1056 N 0.90181 0.60578 0.25184
 C1057 C 0.85357 0.56000 0.23085
 C1058 C 0.83707 0.54230 0.24040
 H1059 H 0.91696 0.61243 0.31159
 H1060 H 0.85815 0.55967 0.21181
 H1061 H 0.93641 0.63996 0.26645
 H1062 H 0.83375 0.54195 0.25966
 C1063 C 0.95562 0.37617 0.69877
 C1064 C 0.94932 0.37586 0.72316
 C1065 C 0.93298 0.39489 0.73394
 N1066 N 0.92969 0.39581 0.75817
 N1067 N 0.91617 0.41376 0.76818
 C1068 C 0.90546 0.43143 0.75430
 N1069 N 0.90854 0.43037 0.73008
 N1070 N 0.92205 0.41246 0.72009
 C1071 C 0.89160 0.45201 0.76496
 C1072 C 0.88859 0.45479 0.78974
 H1073 H 0.95797 0.36236 0.73488
 H1074 H 0.88393 0.46568 0.75288
 H1075 H 0.94733 0.39000 0.68723
 H1076 H 0.89531 0.44071 0.80177
 C1077 C 0.05934 0.62460 0.69872
 C1078 C 0.06583 0.62563 0.72318
 C1079 C 0.08351 0.60737 0.73395
 N1080 N 0.08762 0.60645 0.75817
 N1081 N 0.10226 0.58891 0.76791
 C1082 C 0.11325 0.57171 0.75374
 N1083 N 0.10936 0.57282 0.72959
 N1084 N 0.09482 0.59030 0.71989
 C1085 C 0.12785 0.55121 0.76385
 C1086 C 0.13353 0.54851 0.78830
 H1087 H 0.05650 0.63881 0.73471
 H1088 H 0.13387 0.53721 0.75146
 H1089 H 0.06840 0.61095 0.68756
 H1090 H 0.12925 0.56290 0.80082
 C1091 C 0.05285 0.39072 0.30908
 C1092 C 0.05981 0.38605 0.28529
 C1093 C 0.07657 0.40323 0.27201
 N1094 N 0.07859 0.40183 0.24766
 N1095 N 0.09215 0.41847 0.23553
 C1096 C 0.10422 0.43703 0.24736
 N1097 N 0.10255 0.43817 0.27168
 N1098 N 0.08899 0.42161 0.28376
 C1099 C 0.11756 0.45665 0.23450
 C1100 C 0.11867 0.45804 0.20947
 H1101 H 0.05120 0.37080 0.27582
 H1102 H 0.12579 0.47125 0.24522
 H1103 H 0.06059 0.40670 0.31792
 H1104 H 0.11170 0.44310 0.19854
   
