data_POSCAR
  _audit_creation_date              2014-09-24
  _audit_creation_method            'ToBaCCo'
  _symmetry_space_group_name_H-M    'P1'
  _symmetry_Int_Tables_number       1
  _symmetry_cell_setting            triclinic
  loop_
  _symmetry_equiv_pos_as_xyz
 x,y,z
_cell_length_a 36.4302
_cell_length_b 37.3103
_cell_length_c 37.3861
_cell_angle_alpha 91.893400
_cell_angle_beta 85.671100
_cell_angle_gamma 85.527800
loop_
  _atom_site_label
  _atom_site_type_symbol
  _atom_site_fract_x
  _atom_site_fract_y
  _atom_site_fract_z
C1 C 0.29205 0.46841 1.00742
 C2 C 0.27257 0.50213 1.00662
 C3 C 0.29111 0.53355 1.00896
 C4 C 0.32963 0.53178 1.01176
 C5 C 0.34892 0.49741 1.01085
 C6 C 0.33023 0.46595 1.00995
 C7 C 0.23248 0.50465 1.00409
 C8 C 0.20870 0.50490 1.03533
 C9 C 0.17007 0.50837 1.03363
 C10 C 0.15612 0.50989 0.99943
 C11 C 0.17988 0.51044 0.96803
 C12 C 0.21811 0.50758 0.97056
 H13 H 0.27751 0.44417 1.00629
 H14 H 0.27502 0.55929 1.00978
 H15 H 0.22058 0.50380 1.06103
 H16 H 0.23668 0.50780 0.94652
 H17 H 0.37879 0.49472 1.01021
 H18 H 0.12666 0.51008 0.99695
 C19 C 0.72191 0.45720 -0.00005
 C20 C 0.73774 0.49016 0.00011
 C21 C 0.71523 0.52239 0.00101
 C22 C 0.67670 0.52183 0.00162
 C23 C 0.66106 0.48854 0.00067
 C24 C 0.68350 0.45623 0.00087
 C25 C 0.77790 0.49069 0.00042
 C26 C 0.79988 0.49079 -0.03194
 C27 C 0.83869 0.48862 -0.03222
 C28 C 0.85471 0.48809 0.00104
 C29 C 0.83269 0.48795 0.03359
 C30 C 0.79426 0.48929 0.03303
 H31 H 0.73943 0.43231 -0.00034
 H32 H 0.72765 0.54786 0.00163
 H33 H 0.78660 0.49093 -0.05693
 H34 H 0.77706 0.48896 0.05797
 H35 H 0.63138 0.48781 0.00066
 H36 H 0.88436 0.48855 0.00182
 C37 C 0.03015 0.21730 0.50623
 C38 C -0.00186 0.23862 0.49963
 C39 C -0.03400 0.22226 0.49225
 C40 C -0.03442 0.18470 0.49193
 C41 C -0.00245 0.16364 0.49935
 C42 C 0.03002 0.17970 0.50616
 C43 C -0.00178 0.27808 0.50027
 C44 C -0.00695 0.29673 0.46889
 C45 C -0.00799 0.33458 0.46912
 C46 C -0.00284 0.35318 0.50162
 C47 C 0.00156 0.33468 0.53332
 C48 C 0.00277 0.29707 0.53236
 H49 H 0.05525 0.22994 0.51089
 H50 H -0.05869 0.23875 0.48695
 H51 H -0.00892 0.28146 0.44402
 H52 H 0.00622 0.28266 0.55675
 H53 H -0.00277 0.13462 0.49958
 H54 H -0.00388 0.38232 0.50283
 C55 C 1.02690 0.78944 0.50781
 C56 C 0.99328 0.77382 0.50614
 C57 C 0.96094 0.79546 0.50182
 C58 C 0.96190 0.83266 0.49897
 C59 C 0.99554 0.84826 0.50087
 C60 C 1.02869 0.82677 0.50408
 C61 C 0.99184 0.73459 0.50676
 C62 C 0.99827 0.71605 0.53798
 C63 C 0.99600 0.67852 0.53854
 C64 C 0.98428 0.66081 0.50800
 C65 C 0.97934 0.67881 0.47609
 C66 C 0.98384 0.71576 0.47567
 H67 H 1.05163 0.77240 0.51181
 H68 H 0.93498 0.78329 0.50041
 H69 H 1.00625 0.73082 0.56121
 H70 H 0.98161 0.73002 0.45104
 H71 H 0.99604 0.87704 0.49793
 H72 H 0.97959 0.63250 0.50876
 C73 C 0.50703 0.03076 0.20645
 C74 C 0.49908 -0.00073 0.22393
 C75 C 0.49106 -0.03118 0.20386
 C76 C 0.49151 -0.03051 0.16634
 C77 C 0.49997 0.00100 0.14910
 C78 C 0.50740 0.03175 0.16900
 C79 C 0.50004 -0.00214 0.26312
 C80 C 0.46801 -0.00772 0.28464
 C81 C 0.46863 -0.00787 0.32209
 C82 C 0.50230 -0.00553 0.33766
 C83 C 0.53488 -0.00091 0.31621
 C84 C 0.53308 0.00230 0.27905
 H85 H 0.51287 0.05443 0.22194
 H86 H 0.48515 -0.05558 0.21739
 H87 H 0.44227 -0.01044 0.27240
 H88 H 0.55760 0.00747 0.26236
 H89 H 0.50079 0.00163 0.12008
 H90 H 0.50295 -0.00661 0.36654
 C91 C 0.50200 0.02414 0.79145
 C92 C 0.49662 -0.00737 0.77188
 C93 C 0.49042 -0.03903 0.78981
 C94 C 0.48970 -0.03966 0.82760
 C95 C 0.49596 -0.00766 0.84668
 C96 C 0.50095 0.02433 0.82886
 C97 C 0.49571 -0.00631 0.73270
 C98 C 0.52743 0.00074 0.71140
 C99 C 0.52612 0.00382 0.67429
 C100 C 0.49235 0.00208 0.65886
 C101 C 0.46018 -0.00446 0.68006
 C102 C 0.46253 -0.01012 0.71682
 H103 H 0.50582 0.04882 0.77760
 H104 H 0.48524 -0.06284 0.77419
 H105 H 0.55324 0.00325 0.72358
 H106 H 0.43821 -0.01615 0.73335
 H107 H 0.49748 -0.00744 0.87552
 H108 H 0.49123 0.00548 0.63027
 C109 C 0.30514 0.01129 0.47414
 H110 H 0.30075 0.03234 0.49494
 C111 C 0.33345 0.01274 0.44716
 H112 H 0.35088 0.03497 0.44726
 C113 C 0.28860 -0.04397 0.44940
 H114 H 0.27172 -0.06651 0.45097
 C115 C 0.31672 -0.04354 0.42176
 H116 H 0.32098 -0.06544 0.40176
 N117 N 0.28310 -0.01650 0.47462
 C118 C 0.18899 0.03106 0.54346
 H119 H 0.18875 0.01171 0.56438
 C120 C 0.16133 0.05921 0.54436
 H121 H 0.13964 0.06138 0.56597
 C122 C 0.21601 0.05015 0.48834
 H123 H 0.23655 0.04576 0.46592
 C124 C 0.18902 0.07890 0.48835
 H125 H 0.18924 0.09680 0.46612
 Zn126 Zn 0.24748 -0.01556 0.51435
 N127 N 0.21536 0.02685 0.51558
 C128 C 0.28180 0.01554 0.57072
 N129 N 0.27458 -0.01648 0.55548
 C130 C 0.29219 -0.04794 0.56468
 C131 C 0.31803 -0.04796 0.59045
 C132 C 0.30836 0.01684 0.59564
 C133 C 0.19925 -0.05787 0.48126
 C134 C 0.17170 -0.08163 0.47923
 C135 C 0.17938 -0.09641 0.54080
 C136 C 0.20718 -0.07262 0.54155
 N137 N 0.21654 -0.05393 0.51199
 H138 H 0.26873 0.04032 0.56177
 H139 H 0.28731 -0.07287 0.55092
 H140 H 0.33221 -0.07318 0.59709
 H141 H 0.31551 0.04276 0.60562
 H142 H 0.20594 -0.04147 0.45872
 H143 H 0.15754 -0.08391 0.45489
 H144 H 0.17126 -0.11033 0.56474
 H145 H 0.21978 -0.06772 0.56631
 C146 C 0.16111 0.08348 0.51650
 C147 C 0.33917 -0.01466 0.42034
 C148 C 0.16130 -0.10088 0.50938
 C149 C 0.32691 -0.01519 0.60584
 C150 C 0.67203 0.03024 0.51392
 H151 H 0.66493 0.03179 0.48654
 C152 C 0.64375 0.02817 0.54080
 H153 H 0.61544 0.02822 0.53377
 C154 C 0.71693 0.02654 0.55656
 H155 H 0.74545 0.02454 0.56267
 C156 C 0.68932 0.02448 0.58441
 H157 H 0.69676 0.02161 0.61173
 N158 N 0.70801 0.02876 0.52188
 C159 C 0.78323 0.08470 0.45410
 H160 H 0.76847 0.08143 0.43042
 C161 C 0.81164 0.10788 0.45348
 H162 H 0.81759 0.12312 0.42987
 C163 C 0.79663 0.06653 0.51212
 H164 H 0.79217 0.04907 0.53413
 C165 C 0.82542 0.08904 0.51247
 H166 H 0.84222 0.08932 0.53517
 Zn167 Zn 0.74469 0.02604 0.48208
 N168 N 0.77629 0.06443 0.48316
 C169 C 0.70171 0.05453 0.42737
 N170 N 0.71936 0.02432 0.43951
 C171 C 0.71273 -0.00893 0.42675
 C172 C 0.68667 -0.01281 0.40171
 C173 C 0.67631 0.05189 0.40140
 C174 C 0.77360 -0.04071 0.50911
 C175 C 0.80096 -0.06894 0.51073
 C176 C 0.83305 -0.04727 0.45777
 C177 C 0.80528 -0.01943 0.45726
 N178 N 0.77667 -0.01628 0.48301
 H179 H 0.70536 0.08056 0.43955
 H180 H 0.72562 -0.03261 0.43801
 H181 H 0.67987 -0.03956 0.39392
 H182 H 0.66182 0.07613 0.39272
 H183 H 0.75053 -0.03788 0.52917
 H184 H 0.79898 -0.08768 0.53218
 H185 H 0.85635 -0.04878 0.43784
 H186 H 0.80712 0.00052 0.43699
 C187 C 0.83377 0.10926 0.48251
 C188 C 0.65237 0.02437 0.57633
 C189 C 0.83121 -0.07214 0.48498
 C190 C 0.66790 0.01783 0.38880
 C191 C 0.48945 0.18998 1.03814
 H192 H 0.46985 0.19159 1.01778
 C193 C 0.48859 0.16255 1.06251
 H194 H 0.46805 0.14316 1.06119
 C195 C 0.54191 0.21168 1.06300
 H196 H 0.56341 0.23008 1.06219
 C197 C 0.54205 0.18458 1.08793
 H198 H 0.56336 0.18243 1.10662
 N199 N 0.51610 0.21353 1.03848
 C200 C 0.47942 0.30254 0.97452
 H201 H 0.50285 0.30174 0.95485
 C202 C 0.45264 0.33145 0.97613
 H203 H 0.45535 0.35289 0.95750
 C204 C 0.44874 0.27682 1.02449
 H205 H 0.44804 0.25617 1.04404
 C206 C 0.42106 0.30510 1.02677
 H207 H 0.39882 0.30586 1.04778
 Zn208 Zn 0.51965 0.24380 0.99917
 N209 N 0.47744 0.27640 0.99894
 C210 C 0.49926 0.21509 0.93309
 N211 N 0.52457 0.21275 0.95802
 C212 C 0.54974 0.18387 0.95832
 C213 C 0.54816 0.15442 0.93464
 C214 C 0.49712 0.18647 0.90852
 C215 C 0.55661 0.29707 1.02960
 C216 C 0.58121 0.32373 1.03098
 C217 C 0.61246 0.29882 0.97526
 C218 C 0.58713 0.27248 0.97493
 N219 N 0.55970 0.27245 1.00171
 H220 H 0.47912 0.23798 0.93373
 H221 H 0.56914 0.18254 0.97886
 H222 H 0.56670 0.13055 0.93669
 H223 H 0.47573 0.18775 0.88989
 H224 H 0.53388 0.29692 1.04995
 H225 H 0.57750 0.34404 1.05260
 H226 H 0.63354 0.29949 0.95332
 H227 H 0.58836 0.25317 0.95257
 C228 C 0.42373 0.33342 1.00318
 C229 C 0.51568 0.15920 1.08708
 C230 C 0.60932 0.32497 1.00343
 C231 C 0.52050 0.15500 0.91056
 C232 C 0.45847 0.78477 -0.06215
 H233 H 0.43333 0.77455 -0.05085
 C234 C 0.45644 0.81276 -0.08595
 H235 H 0.42978 0.82337 -0.09365
 C236 C 0.52351 0.78627 -0.06299
 H237 H 0.54928 0.77688 -0.05255
 C238 C 0.52265 0.81470 -0.08638
 H239 H 0.54791 0.82684 -0.09432
 N240 N 0.49158 0.77262 -0.05069
 C241 C 0.44117 0.70606 0.02918
 H242 H 0.45120 0.71844 0.05268
 C243 C 0.41861 0.67774 0.03323
 H244 H 0.40992 0.66972 0.05993
 C245 C 0.44288 0.69902 -0.03418
 H246 H 0.45377 0.70647 -0.06036
 C247 C 0.42127 0.66977 -0.03132
 H248 H 0.41501 0.65525 -0.05539
 Zn249 Zn 0.49203 0.74636 -0.00858
 N250 N 0.45263 0.71633 -0.00414
 C251 C 0.45739 0.79241 0.04866
 N252 N 0.48977 0.78169 0.02928
 C253 C 0.52039 0.79990 0.03233
 C254 C 0.51933 0.82990 0.05575
 C255 C 0.45527 0.82199 0.07283
 C256 C 0.54091 0.69045 -0.03753
 C257 C 0.56592 0.66034 -0.03614
 C258 C 0.57974 0.68127 0.02285
 C259 C 0.55407 0.71077 0.02056
 N260 N 0.53478 0.71438 -0.00907
 H261 H 0.43273 0.77909 0.04436
 H262 H 0.54541 0.79172 0.01569
 H263 H 0.54373 0.84452 0.05742
 H264 H 0.42936 0.83037 0.08804
 H265 H 0.52472 0.69365 -0.06047
 H266 H 0.56925 0.64055 -0.05824
 H267 H 0.59409 0.67792 0.04701
 H268 H 0.54794 0.72942 0.04334
 C269 C 0.40992 0.65817 0.00276
 C270 C 0.48860 0.82915 -0.09677
 C271 C 0.58457 0.65488 -0.00510
 C272 C 0.48629 0.84158 0.07582
 C273 C 1.03430 0.46961 0.20207
 H274 H 1.01984 0.44599 0.20794
 C275 C 1.05926 0.46923 0.17174
 H276 H 1.06451 0.44510 0.15463
 C277 C 1.04218 0.53109 0.21479
 H278 H 1.03350 0.55591 0.22973
 C279 C 1.06758 0.53174 0.18508
 H280 H 1.07938 0.55667 0.17843
 N281 N 1.02609 0.50031 0.22280
 C282 C 0.95340 0.46027 0.30856
 H283 H 0.92927 0.47854 0.30603
 C284 C 0.95323 0.43564 0.33581
 H285 H 0.92885 0.43490 0.35416
 C286 C 1.01556 0.44094 0.28952
 H287 H 1.04023 0.44418 0.27238
 C288 C 1.01662 0.41594 0.31659
 H289 H 1.04195 0.39956 0.31980
 Zn290 Zn 0.98373 0.50213 0.25573
 N291 N 0.98427 0.46262 0.28619
 C292 C 0.92345 0.47410 0.22263
 N293 N 0.94419 0.50263 0.22598
 C294 C 0.94270 0.52987 0.20273
 C295 C 0.92165 0.52791 0.17318
 C296 C 0.90150 0.47136 0.19370
 C297 C 1.01162 0.55427 0.29949
 C298 C 1.01003 0.58099 0.32658
 C299 C 0.94345 0.58311 0.32945
 C300 C 0.94633 0.55754 0.30092
 N301 N 0.98011 0.54356 0.28672
 H302 H 0.92576 0.45230 0.24086
 H303 H 0.95999 0.55189 0.20573
 H304 H 0.92241 0.54874 0.15369
 H305 H 0.88620 0.44789 0.19035
 H306 H 1.03809 0.54107 0.28966
 H307 H 1.03552 0.58903 0.33634
 H308 H 0.91644 0.59213 0.34208
 H309 H 0.92166 0.54728 0.29154
 C310 C 0.98521 0.41336 0.34021
 C311 C 1.07525 0.50092 0.16251
 C312 C 0.97565 0.59525 0.34257
 C313 C 0.90202 0.49765 0.16768
 C314 C -0.00861 0.52396 0.81779
 H315 H 0.01737 0.53456 0.82269
 C316 C -0.03452 0.52092 0.84661
 H317 H -0.02818 0.52878 0.87347
 C318 C -0.04849 0.50040 0.77732
 H319 H -0.05369 0.49230 0.75025
 C320 C -0.07528 0.49671 0.80559
 H321 H -0.10093 0.48544 0.80031
 N322 N -0.01520 0.51231 0.78414
 C323 C 0.04839 0.47079 0.68554
 H324 H 0.06610 0.49236 0.68134
 C325 C 0.04547 0.44583 0.65751
 H326 H 0.06077 0.44851 0.63187
 C327 C 0.00579 0.44168 0.72327
 H328 H -0.00961 0.44009 0.74892
 C329 C 0.00211 0.41601 0.69589
 H330 H -0.01652 0.39508 0.70039
 Zn331 Zn 0.02585 0.51047 0.74906
 N332 N 0.02743 0.46936 0.71711
 C333 C 0.07315 0.47795 0.79465
 N334 N 0.06833 0.50808 0.77544
 C335 C 0.08718 0.53743 0.78191
 C336 C 0.11051 0.53776 0.80985
 C337 C 0.09517 0.47766 0.82362
 C338 C -0.01204 0.56484 0.71277
 C339 C -0.01617 0.58868 0.68501
 C340 C 0.05027 0.58649 0.67506
 C341 C 0.05314 0.56223 0.70246
 N342 N 0.02222 0.55146 0.72038
 H343 H 0.05712 0.45537 0.78955
 H344 H 0.08173 0.56182 0.76784
 H345 H 0.12411 0.56183 0.81576
 H346 H 0.09645 0.45456 0.84041
 H347 H -0.03625 0.55527 0.72664
 H348 H -0.04356 0.59759 0.67782
 H349 H 0.07505 0.59369 0.66004
 H350 H 0.08006 0.55012 0.70759
 C351 C 0.02100 0.41898 0.66214
 C352 C -0.06760 0.50584 0.84079
 C353 C 0.01528 0.59854 0.66501
 C354 C 0.11261 0.50855 0.83252
 C355 C 0.08474 0.15907 0.54140
 C356 C 0.06439 0.15674 0.51059
 C357 C 0.07709 0.13197 0.48257
 C358 C 0.10898 0.10941 0.48467
 C359 C 0.12955 0.11091 0.51479
 C360 C 0.11801 0.13650 0.54316
 C361 C 0.07244 0.18276 0.57086
 C362 C 0.09330 0.18548 0.60047
 C363 C 0.12660 0.16467 0.60141
 C364 C 0.13894 0.14038 0.57312
 H365 H 0.04659 0.19917 0.57149
 H366 H 0.08364 0.20394 0.62274
 H367 H 0.14286 0.16723 0.62429
 H368 H 0.16511 0.12497 0.57483
 H369 H 0.06197 0.12993 0.45880
 H370 H 0.11725 0.08995 0.46283
 C371 C 0.62318 0.56468 0.02892
 C372 C 0.65294 0.55611 0.00248
 C373 C 0.65979 0.58024 -0.02472
 C374 C 0.63756 0.61210 -0.02650
 C375 C 0.60746 0.62077 -0.00136
 C376 C 0.59952 0.59663 0.02627
 C377 C 0.61659 0.54243 0.05821
 C378 C 0.58609 0.55013 0.08284
 C379 C 0.56169 0.58005 0.07892
 C380 C 0.56818 0.60313 0.05098
 H381 H 0.63500 0.51911 0.06260
 H382 H 0.58125 0.53265 0.10495
 H383 H 0.53775 0.58558 0.09782
 H384 H 0.54824 0.62582 0.04889
 H385 H 0.68237 0.57413 -0.04511
 H386 H 0.64379 0.63013 -0.04786
 C387 C 0.90695 -0.14866 0.46361
 C388 C 0.92760 -0.14459 0.49403
 C389 C 0.91528 -0.11842 0.52085
 C390 C 0.88325 -0.09618 0.51797
 C391 C 0.86256 -0.09930 0.48811
 C392 C 0.87390 -0.12611 0.46089
 C393 C 0.91875 -0.17410 0.43545
 C394 C 0.89773 -0.17824 0.40614
 C395 C 0.86486 -0.15702 0.40411
 C396 C 0.85298 -0.13111 0.43110
 H397 H 0.94432 -0.19085 0.43559
 H398 H 0.90700 -0.19804 0.38490
 H399 H 0.84855 -0.16054 0.38140
 H400 H 0.82720 -0.11529 0.42855
 H401 H 0.93072 -0.11510 0.54424
 H402 H 0.87500 -0.07568 0.53886
 C403 C 0.37137 0.42111 1.04115
 C404 C 0.35116 0.43048 1.01141
 C405 C 0.35329 0.40699 0.98124
 C406 C 0.37623 0.37523 0.97951
 C407 C 0.39789 0.36616 1.00780
 C408 C 0.39582 0.38929 1.03894
 C409 C 0.36783 0.44282 1.07306
 C410 C 0.38954 0.43465 1.10128
 C411 C 0.41497 0.40469 1.09836
 C412 C 0.41820 0.38216 1.06758
 H413 H 0.34799 0.46601 1.07659
 H414 H 0.38675 0.45174 1.12545
 H415 H 0.43215 0.39874 1.12015
 H416 H 0.43856 0.35941 1.06649
 H417 H 0.33792 0.41385 0.95837
 H418 H 0.37772 0.35789 0.95553
 C419 C 0.93018 0.14020 0.45796
 C420 C 0.93132 0.16728 0.48533
 C421 C 0.89995 0.17622 0.50889
 C422 C 0.86833 0.15782 0.50680
 C423 C 0.86702 0.12985 0.48113
 C424 C 0.89813 0.12073 0.45636
 C425 C 0.96025 0.13202 0.43213
 C426 C 0.95954 0.10419 0.40645
 C427 C 0.92903 0.08403 0.40597
 C428 C 0.89860 0.09205 0.43064
 H429 H 0.98443 0.14715 0.43136
 H430 H 0.98290 0.09810 0.38696
 H431 H 0.92885 0.06213 0.38627
 H432 H 0.87573 0.07539 0.42936
 H433 H 0.90039 0.19683 0.52993
 H434 H 0.84487 0.16491 0.52598
 C435 C 0.38034 0.56681 0.03335
 C436 C 0.34870 0.56362 0.01336
 C437 C 0.33757 0.59261 -0.00767
 C438 C 0.35769 0.62270 -0.01066
 C439 C 0.39025 0.62494 0.00651
 C440 C 0.40253 0.59628 0.02783
 C441 C 0.38943 0.54262 0.06028
 C442 C 0.42218 0.54407 0.07707
 C443 C 0.44618 0.57009 0.06807
 C444 C 0.43648 0.59615 0.04388
 H445 H 0.37102 0.52285 0.06911
 H446 H 0.42902 0.52478 0.09703
 H447 H 0.47201 0.57064 0.08053
 H448 H 0.45588 0.61604 0.03792
 H449 H 0.31402 0.59155 -0.02358
 H450 H 0.34793 0.64435 -0.02703
 C451 C 0.09567 -0.17126 0.48372
 C452 C 0.06268 -0.15720 0.50432
 C453 C 0.06388 -0.12577 0.52592
 C454 C 0.09642 -0.10901 0.52828
 C455 C 0.12905 -0.12262 0.50885
 C456 C 0.12913 -0.15418 0.48677
 C457 C 0.09582 -0.20003 0.45802
 C458 C 0.12839 -0.21354 0.43856
 C459 C 0.16136 -0.19828 0.44346
 C460 C 0.16180 -0.16868 0.46707
 H461 H 0.07081 -0.21183 0.45181
 H462 H 0.12799 -0.23580 0.41932
 H463 H 0.18657 -0.20898 0.42836
 H464 H 0.18789 -0.15716 0.46962
 H465 H 0.03952 -0.11439 0.54204
 H466 H 0.09595 -0.08464 0.54497
 C467 C 0.67017 0.39844 1.03172
 C468 C 0.66673 0.42137 1.00239
 C469 C 0.64693 0.41100 0.97364
 C470 C 0.63009 0.37878 0.97371
 C471 C 0.63254 0.35588 1.00253
 C472 C 0.65354 0.36511 1.03142
 C473 C 0.68902 0.40823 1.06179
 C474 C 0.69284 0.38504 1.09000
 C475 C 0.67790 0.35185 1.08896
 C476 C 0.65840 0.34187 1.06004
 H477 H 0.70075 0.43388 1.06398
 H478 H 0.70756 0.39282 1.11274
 H479 H 0.68127 0.33382 1.11078
 H480 H 0.64743 0.31574 1.06019
 H481 H 0.64416 0.42824 0.95108
 H482 H 0.61392 0.37223 0.95158
 C483 C 0.54353 0.06746 1.12391
 C484 C 0.51392 0.06534 1.15043
 C485 C 0.48780 0.09479 1.15733
 C486 C 0.48953 0.12546 1.13728
 C487 C 0.51756 0.12765 1.10990
 C488 C 0.54512 0.09870 1.10313
 C489 C 0.57152 0.03913 1.11752
 C490 C 0.59978 0.04105 1.09051
 C491 C 0.60071 0.07107 1.06944
 C492 C 0.57369 0.09966 1.07553
 H493 H 0.57196 0.01542 1.13343
 H494 H 0.62100 0.01907 1.08583
 H495 H 0.62255 0.07226 1.04831
 H496 H 0.57544 0.12233 1.05838
 H497 H 0.46499 0.09344 1.17747
 H498 H 0.46825 0.14735 1.14251
 C499 C 0.02400 0.62410 0.56657
 C500 C 0.00448 0.65896 0.56918
 C501 C -0.00855 0.67343 0.60348
 C502 C -0.00495 0.65349 0.63405
 C503 C 0.01170 0.61836 0.63160
 C504 C 0.02571 0.60305 0.59760
 C505 C 0.04377 0.61036 0.53432
 C506 C 0.06041 0.57537 0.53154
 C507 C 0.05849 0.55353 0.56090
 C508 C 0.04155 0.56716 0.59372
 H509 H 0.04724 0.62669 0.51116
 H510 H 0.07482 0.56514 0.50645
 H511 H 0.07089 0.52614 0.55848
 H512 H 0.04109 0.54927 0.61589
 H513 H -0.02342 0.69977 0.60671
 H514 H -0.01566 0.66546 0.65992
 C515 C 0.46433 0.92699 -0.12016
 C516 C 0.48479 0.92796 -0.15422
 C517 C 0.50311 0.89561 -0.16916
 C518 C 0.50376 0.86401 -0.15033
 C519 C 0.48628 0.86337 -0.11582
 C520 C 0.46680 0.89513 -0.10014
 C521 C 0.43973 0.95620 -0.10629
 C522 C 0.42203 0.95592 -0.07195
 C523 C 0.42774 0.92625 -0.05095
 C524 C 0.44967 0.89600 -0.06485
 H525 H 0.43328 0.97914 -0.12213
 H526 H 0.40383 0.97884 -0.06160
 H527 H 0.41444 0.92634 -0.02407
 H528 H 0.45293 0.87343 -0.04765
 H529 H 0.51905 0.89495 -0.19486
 H530 H 0.51873 0.83991 -0.16257
 C531 C 0.96211 0.34525 0.41166
 C532 C 0.98789 0.35350 0.43716
 C533 C 1.01138 0.38097 0.42959
 C534 C 1.01088 0.39889 0.39761
 C535 C 0.98678 0.39042 0.37181
 C536 C 0.96250 0.36308 0.37839
 C537 C 0.93412 0.32172 0.41930
 C538 C 0.90996 0.31322 0.39369
 C539 C 0.91244 0.32849 0.36026
 C540 C 0.93822 0.35340 0.35266
 H541 H 0.92988 0.31032 0.44533
 H542 H 0.88905 0.29479 0.39989
 H543 H 0.89380 0.32155 0.34038
 H544 H 0.93888 0.36505 0.32652
 H545 H 1.03150 0.38794 0.44803
 H546 H 1.02930 0.42004 0.39312
 C547 C 0.45994 0.93610 0.11828
 C548 C 0.48589 0.93655 0.14475
 C549 C 0.50944 0.90572 0.14893
 C550 C 0.50860 0.87520 0.12674
 C551 C 0.48442 0.87452 0.09938
 C552 C 0.45993 0.90525 0.09470
 C553 C 0.43391 0.96561 0.11478
 C554 C 0.40985 0.96560 0.08751
 C555 C 0.41123 0.93635 0.06326
 C556 C 0.43603 0.90647 0.06662
 H557 H 0.43169 0.98879 0.13320
 H558 H 0.39020 0.98851 0.08504
 H559 H 0.39280 0.93673 0.04187
 H560 H 0.43635 0.88463 0.04686
 H561 H 0.52949 0.90563 0.16892
 H562 H 0.52747 0.85198 0.13059
 C563 C -0.02566 0.37863 0.58341
 C564 C 0.00399 0.35494 0.56773
 C565 C 0.03719 0.35136 0.58436
 C566 C 0.04190 0.37170 0.61539
 C567 C 0.01346 0.39606 0.63085
 C568 C -0.02071 0.39979 0.61487
 C569 C -0.06021 0.38170 0.56851
 C570 C -0.08872 0.40598 0.58343
 C571 C -0.08345 0.42760 0.61335
 C572 C -0.04985 0.42468 0.62898
 H573 H -0.06562 0.36530 0.54539
 H574 H -0.11500 0.40815 0.57162
 H575 H -0.10558 0.44666 0.62459
 H576 H -0.04701 0.44221 0.65205
 H577 H 0.06000 0.33327 0.57270
 H578 H 0.06819 0.36883 0.62718
 C579 C 0.47479 0.07399 0.87363
 C580 C 0.50404 0.05837 0.84953
 C581 C 0.53721 0.07497 0.84554
 C582 C 0.54201 0.10629 0.86541
 C583 C 0.51390 0.12174 0.89009
 C584 C 0.48022 0.10509 0.89507
 C585 C 0.44005 0.05956 0.87661
 C586 C 0.41227 0.07370 0.90199
 C587 C 0.41841 0.10258 0.92464
 C588 C 0.45196 0.11825 0.92130
 H589 H 0.43389 0.03761 0.85906
 H590 H 0.38591 0.06208 0.90420
 H591 H 0.39696 0.11312 0.94469
 H592 H 0.45550 0.14046 0.93968
 H593 H 0.55968 0.06338 0.82707
 H594 H 0.56793 0.11858 0.86156
 C595 C 0.94953 0.66957 0.41655
 C596 C 0.97423 0.65789 0.44234
 C597 C 0.99723 0.62624 0.43481
 C598 C 0.99660 0.60659 0.40282
 C599 C 0.97417 0.61841 0.37601
 C600 C 0.95080 0.65068 0.38249
 C601 C 0.92331 0.69932 0.42386
 C602 C 0.90130 0.71215 0.39739
 C603 C 0.90474 0.69553 0.36330
 C604 C 0.92918 0.66509 0.35580
 H605 H 0.91926 0.71272 0.45010
 H606 H 0.88167 0.73528 0.40327
 H607 H 0.88810 0.70607 0.34265
 H608 H 0.93117 0.65331 0.32886
 H609 H 1.01654 0.61669 0.45368
 H610 H 1.01428 0.58183 0.39891
 C611 C 1.11244 0.53144 0.07099
 C612 C 1.14606 0.50880 0.06547
 C613 C 1.15508 0.48484 0.09246
 C614 C 1.13153 0.48210 0.12316
 C615 C 1.09785 0.50288 0.12811
 C616 C 1.08744 0.52695 0.10142
 C617 C 1.10412 0.56027 0.04856
 C618 C 1.07022 0.58060 0.05290
 C619 C 1.04423 0.57340 0.08032
 C620 C 1.05275 0.54710 0.10463
 H621 H 1.12407 0.56814 0.02822
 H622 H 1.06418 0.60211 0.03498
 H623 H 1.01772 0.58891 0.08334
 H624 H 1.03197 0.54283 0.12595
 H625 H 1.18007 0.46692 0.08938
 H626 H 1.13975 0.46359 0.14338
 C627 C 0.58840 -0.02016 0.64449
 C628 C 0.56022 0.00821 0.65133
 C629 C 0.56370 0.04101 0.63483
 C630 C 0.59441 0.04609 0.61163
 C631 C 0.62256 0.01850 0.60416
 C632 C 0.61978 -0.01504 0.62060
 C633 C 0.58541 -0.05401 0.65986
 C634 C 0.61278 -0.08200 0.65213
 C635 C 0.64329 -0.07708 0.62866
 C636 C 0.64676 -0.04410 0.61278
 H637 H 0.56181 -0.05933 0.67764
 H638 H 0.61011 -0.10776 0.66414
 H639 H 0.66425 -0.09905 0.62247
 H640 H 0.67056 -0.04187 0.59416
 H641 H 0.54221 0.06276 0.63969
 H642 H 0.59596 0.07163 0.59883
 C643 C -0.10578 0.46586 0.92756
 C644 C -0.13912 0.48852 0.93488
 C645 C -0.14977 0.51270 0.90865
 C646 C -0.12686 0.51714 0.87784
 C647 C -0.09257 0.49754 0.87196
 C648 C -0.08208 0.47101 0.89633
 C649 C -0.09668 0.43647 0.94906
 C650 C -0.06383 0.41485 0.94191
 C651 C -0.03987 0.42114 0.91249
 C652 C -0.04901 0.44856 0.88956
 H653 H -0.11540 0.42906 0.97078
 H654 H -0.05726 0.39271 0.95894
 H655 H -0.01453 0.40407 0.90686
 H656 H -0.03032 0.45137 0.86612
 H657 H -0.17501 0.53016 0.91294
 H658 H -0.13531 0.53715 0.85911
 C659 C 0.40474 0.01856 0.34599
 C660 C 0.43387 -0.00915 0.34517
 C661 C 0.43019 -0.03851 0.36719
 C662 C 0.39861 -0.04061 0.39023
 C663 C 0.36969 -0.01342 0.39194
 C664 C 0.37208 0.01595 0.36894
 C665 C 0.40764 0.04931 0.32518
 C666 C 0.37841 0.07580 0.32559
 C667 C 0.34589 0.07238 0.34675
 C668 C 0.34263 0.04283 0.36829
 H669 H 0.43247 0.05342 0.30863
 H670 H 0.38097 0.09907 0.30931
 H671 H 0.32314 0.09285 0.34667
 H672 H 0.31678 0.04115 0.38417
 H673 H 0.45223 -0.05981 0.36685
 H674 H 0.39720 -0.06312 0.40773
 C675 C 0.13817 0.54147 0.92505
 C676 C 0.16447 0.51320 0.93247
 C677 C 0.17428 0.48546 0.90653
 C678 C 0.15770 0.48479 0.87415
 C679 C 0.13009 0.51132 0.86702
 C680 C 0.11930 0.53950 0.89315
 C681 C 0.13033 0.57182 0.94868
 C682 C 0.10197 0.59779 0.94304
 C683 C 0.08113 0.59413 0.91366
 C684 C 0.08959 0.56537 0.88888
 H685 H 0.14650 0.57596 0.97129
 H686 H 0.09595 0.62066 0.96171
 H687 H 0.05855 0.61391 0.90981
 H688 H 0.07230 0.56354 0.86677
 H689 H 0.19445 0.46372 0.91170
 H690 H 0.16608 0.46300 0.85465
 C691 C 0.60397 -0.01719 0.32055
 C692 C 0.57028 0.00276 0.33297
 C693 C 0.57024 0.02790 0.36165
 C694 C 0.60228 0.03308 0.37843
 C695 C 0.63599 0.01412 0.36659
 C696 C 0.63729 -0.01023 0.33640
 C697 C 0.60532 -0.04452 0.29328
 C698 C 0.63887 -0.06230 0.27992
 C699 C 0.67165 -0.05345 0.29349
 C700 C 0.67101 -0.02771 0.32145
 H701 H 0.58058 -0.05276 0.28226
 H702 H 0.63946 -0.08289 0.25875
 H703 H 0.69769 -0.06687 0.28254
 H704 H 0.69716 -0.02147 0.33100
 H705 H 0.54497 0.04357 0.37142
 H706 H 0.60043 0.05160 0.40155
 C707 C 0.87619 0.45988 0.07698
 C708 C 0.84977 0.48760 0.06843
 C709 C 0.84024 0.51663 0.09297
 C710 C 0.85702 0.51904 0.12512
 C711 C 0.88418 0.49273 0.13365
 C712 C 0.89455 0.46309 0.10914
 C713 C 0.88453 0.42881 0.05438
 C714 C 0.91225 0.40284 0.06177
 C715 C 0.93196 0.40717 0.09185
 C716 C 0.92330 0.43690 0.11540
 H717 H 0.86937 0.42410 0.03119
 H718 H 0.91858 0.37934 0.04396
 H719 H 0.95387 0.38721 0.09715
 H720 H 0.93959 0.43918 0.13822
 H721 H 0.82002 0.53797 0.08690
 H722 H 0.84901 0.54193 0.14341
 C723 C 0.39108 0.01288 0.67707
 C724 C 0.42457 -0.00666 0.66334
 C725 C 0.42434 -0.02951 0.63288
 C726 C 0.39227 -0.03271 0.61553
 C727 C 0.35878 -0.01401 0.62852
 C728 C 0.35769 0.00780 0.66052
 C729 C 0.39000 0.03804 0.70630
 C730 C 0.35660 0.05527 0.72080
 C731 C 0.32371 0.04804 0.70644
 C732 C 0.32411 0.02459 0.67659
 H733 H 0.41482 0.04503 0.71804
 H734 H 0.35621 0.07416 0.74346
 H735 H 0.29779 0.06098 0.71825
 H736 H 0.29789 0.01954 0.66646
 H737 H 0.44947 -0.04478 0.62206
 H738 H 0.39396 -0.04934 0.59107
   
