data_POSCAR
  _audit_creation_date              2014-09-24
  _audit_creation_method            'ToBaCCo'
  _symmetry_space_group_name_H-M    'P1'
  _symmetry_Int_Tables_number       1
  _symmetry_cell_setting            triclinic
  loop_
  _symmetry_equiv_pos_as_xyz
 x,y,z
_cell_length_a 48.2063
_cell_length_b 32.8515
_cell_length_c 21.4029
_cell_angle_alpha 89.943400
_cell_angle_beta 89.963300
_cell_angle_gamma 90.046000
loop_
  _atom_site_label
  _atom_site_type_symbol
  _atom_site_fract_x
  _atom_site_fract_y
  _atom_site_fract_z
O1 O 0.76187 0.20081 0.55974
 O2 O 0.71550 0.24124 0.43796
 O3 O 0.76211 0.20068 0.43846
 O4 O 0.71528 0.24137 0.55923
 O5 O 0.73871 0.29928 0.55917
 O6 O 0.78554 0.25858 0.43840
 O7 O 0.73893 0.29914 0.43790
 O8 O 0.78531 0.25872 0.55968
 Cu9 Cu 0.73633 0.21518 0.49884
 Cu10 Cu 0.76448 0.28477 0.49877
 C11 C 0.78156 0.22281 0.57987
 C12 C 0.71923 0.27715 0.41780
 C13 C 0.78189 0.22262 0.41845
 C14 C 0.71894 0.27733 0.57918
 O15 O 0.26195 0.70052 0.56254
 O16 O 0.21519 0.74142 0.44179
 O17 O 0.26170 0.70064 0.44126
 O18 O 0.21543 0.74130 0.56307
 O19 O 0.23898 0.79910 0.56285
 O20 O 0.28526 0.75844 0.44104
 O21 O 0.23875 0.79922 0.44157
 O22 O 0.28550 0.75831 0.56232
 Cu23 Cu 0.23619 0.71514 0.50220
 Cu24 Cu 0.26450 0.78460 0.50193
 C25 C 0.28178 0.72237 0.58240
 C26 C 0.21893 0.77735 0.42171
 C27 C 0.28144 0.72255 0.42099
 C28 C 0.21924 0.77720 0.58308
 O29 O 0.26160 0.29932 -0.56342
 O30 O 0.21489 0.25872 -0.44213
 O31 O 0.26148 0.29932 -0.44214
 O32 O 0.21497 0.25864 -0.56342
 O33 O 0.23838 0.20078 -0.56323
 O34 O 0.28490 0.24146 -0.44195
 O35 O 0.23830 0.20085 -0.44194
 O36 O 0.28501 0.24146 -0.56323
 Cu37 Cu 0.23587 0.28484 -0.50283
 Cu38 Cu 0.26401 0.21530 -0.50260
 C39 C 0.28136 0.27739 -0.58336
 C40 C 0.21857 0.22281 -0.42193
 C41 C 0.28118 0.27738 -0.42195
 C42 C 0.21865 0.22269 -0.58335
 O43 O -0.21463 0.74181 -0.44033
 O44 O -0.26119 0.70115 -0.56161
 O45 O -0.21463 0.74198 -0.56161
 O46 O -0.26119 0.70106 -0.44034
 O47 O -0.28468 0.75887 -0.44025
 O48 O -0.23812 0.79977 -0.56153
 O49 O -0.28469 0.75894 -0.56153
 O50 O -0.23812 0.79961 -0.44024
 Cu51 Cu -0.23554 0.71567 -0.50100
 Cu52 Cu -0.26377 0.78513 -0.50090
 C53 C -0.21838 0.77769 -0.42020
 C54 C -0.28096 0.72304 -0.58160
 C55 C -0.21835 0.77793 -0.58161
 C56 C -0.28093 0.72294 -0.42022
 N57 N 0.02933 1.07265 -0.06617
 N58 N 0.04931 1.09932 -0.07688
 N59 N -0.02902 1.04419 -0.10923
 N60 N -0.04897 1.05057 -0.15025
 N61 N -0.02905 1.07266 -0.06618
 N62 N -0.04906 1.09925 -0.07674
 N63 N 0.02929 1.04417 -0.10919
 N64 N 0.04921 1.05060 -0.15033
 C65 C 0.06157 1.08484 -0.12920
 C66 C -0.06133 1.08476 -0.12901
 N67 N -0.02917 0.92817 -0.06566
 N68 N -0.04917 0.90151 -0.07616
 N69 N 0.02922 0.95653 -0.10882
 N70 N 0.04925 0.95010 -0.14967
 N71 N 0.02921 0.92815 -0.06554
 N72 N 0.04926 0.90157 -0.07577
 N73 N -0.02909 0.95656 -0.10891
 N74 N -0.04899 0.95007 -0.15000
 Mn75 Mn 0.00010 1.00036 -0.10967
 C76 C -0.06139 0.91589 -0.12860
 C77 C 0.06161 0.91597 -0.12808
 N78 N -0.02912 1.07281 0.06859
 N79 N -0.04912 1.09945 0.07897
 N80 N 0.02919 1.04439 0.11189
 N81 N 0.04920 1.05079 0.15275
 N82 N 0.02926 1.07277 0.06860
 N83 N 0.04935 1.09930 0.07883
 N84 N -0.02913 1.04442 0.11186
 N85 N -0.04910 1.05091 0.15284
 Mn86 Mn 0.00010 1.07321 0.00121
 C87 C -0.06143 1.08508 0.13136
 C88 C 0.06163 1.08489 0.13117
 N89 N 0.02915 0.92827 0.06921
 N90 N 0.04913 0.90165 0.07982
 N91 N -0.02920 0.95677 0.11218
 N92 N -0.04921 0.95041 0.15313
 N93 N -0.02923 0.92831 0.06911
 N94 N -0.04930 0.90175 0.07957
 N95 N 0.02911 0.95674 0.11225
 N96 N 0.04905 0.95033 0.15332
 Mn97 Mn -0.00001 0.92774 0.00178
 Mn98 Mn -0.00001 1.00058 0.11268
 Cl99 Cl 0.00005 1.00047 0.00150
 C100 C 0.06140 0.91612 0.13211
 C101 C -0.06161 0.91624 0.13181
 N102 N 0.52897 0.57214 -0.06792
 N103 N 0.54904 0.59871 -0.07828
 N104 N 0.47061 0.54376 -0.11103
 N105 N 0.45066 0.55025 -0.15201
 N106 N 0.47059 0.57212 -0.06782
 N107 N 0.45059 0.59875 -0.07823
 N108 N 0.52892 0.54377 -0.11114
 N109 N 0.54892 0.55021 -0.15207
 C110 C 0.56133 0.58433 -0.13061
 C111 C 0.43830 0.58440 -0.13058
 N112 N 0.47054 0.42763 -0.06807
 N113 N 0.45052 0.40102 -0.07856
 N114 N 0.52889 0.45613 -0.11132
 N115 N 0.54884 0.44977 -0.15240
 N116 N 0.52892 0.42764 -0.06822
 N117 N 0.54892 0.40104 -0.07880
 N118 N 0.47059 0.45612 -0.11118
 N119 N 0.45062 0.44974 -0.15217
 Mn120 Mn 0.49975 0.49995 -0.11180
 C121 C 0.43824 0.41553 -0.13084
 C122 C 0.56120 0.41555 -0.13114
 N123 N 0.47062 0.57192 0.06695
 N124 N 0.45061 0.59851 0.07750
 N125 N 0.52897 0.54347 0.10994
 N126 N 0.54894 0.54987 0.15091
 N127 N 0.52900 0.57196 0.06682
 N128 N 0.54902 0.59858 0.07730
 N129 N 0.47066 0.54344 0.11007
 N130 N 0.45070 0.54980 0.15113
 Mn131 Mn 0.49979 0.57252 -0.00049
 C132 C 0.43834 0.58400 0.12984
 C133 C 0.56131 0.58409 0.12958
 N134 N 0.52894 0.42746 0.06653
 N135 N 0.54901 0.40092 0.07676
 N136 N 0.47062 0.45579 0.10992
 N137 N 0.45065 0.44931 0.15094
 N138 N 0.47056 0.42743 0.06670
 N139 N 0.45052 0.40081 0.07715
 N140 N 0.52893 0.45582 0.10975
 N141 N 0.54896 0.44942 0.15056
 Mn142 Mn 0.49974 0.42706 -0.00076
 Mn143 Mn 0.49979 0.49963 0.11055
 Cl144 Cl 0.49977 0.49979 -0.00062
 C145 C 0.56134 0.41532 0.12902
 C146 C 0.43825 0.41516 0.12954
 C147 C 0.35058 0.33563 0.20207
 C148 C 0.35580 0.30244 0.25230
 C149 C 0.33704 0.32594 0.29771
 C150 C 0.33145 0.35882 0.24820
 C151 C 0.37553 0.35962 0.22740
 C152 C 0.35674 0.38307 0.27284
 C153 C 0.38107 0.32675 0.27694
 C154 C 0.36201 0.34995 0.32288
 C155 C 0.31613 0.30767 0.33882
 C156 C 0.29949 0.29317 0.37454
 C157 C 0.39743 0.37887 0.19015
 C158 C 0.41586 0.39518 0.16145
 H159 H 0.34614 0.32997 0.15194
 H160 H 0.35517 0.26907 0.24430
 H161 H 0.31080 0.37179 0.23684
 H162 H 0.35736 0.41644 0.28091
 H163 H 0.40171 0.31376 0.28837
 H164 H 0.36650 0.35565 0.37298
 C165 C -0.14930 0.83677 0.20399
 C166 C -0.14406 0.80344 0.25398
 C167 C -0.16281 0.82681 0.29958
 C168 C -0.16842 0.85982 0.25030
 C169 C -0.12436 0.86069 0.22945
 C170 C -0.14312 0.88402 0.27507
 C171 C -0.11879 0.82768 0.27875
 C172 C -0.13784 0.85075 0.32487
 C173 C -0.18368 0.80842 0.34060
 C174 C -0.20028 0.79382 0.37630
 C175 C -0.10247 0.88000 0.19231
 C176 C -0.08402 0.89632 0.16368
 H177 H -0.15375 0.83126 0.15382
 H178 H -0.14470 0.77009 0.24577
 H179 H -0.18908 0.87282 0.23906
 H180 H -0.14250 0.91736 0.28335
 H181 H -0.09815 0.81467 0.29007
 H182 H -0.13334 0.85631 0.37501
 C183 C 0.61845 0.67299 0.27600
 C184 C 0.63724 0.64994 0.32271
 C185 C 0.66242 0.67344 0.29736
 C186 C 0.64394 0.69679 0.25116
 C187 C 0.62397 0.63964 0.22728
 C188 C 0.64913 0.66312 0.20175
 C189 C 0.64247 0.61634 0.27349
 C190 C 0.66798 0.64009 0.24866
 C191 C 0.68332 0.69178 0.33831
 C192 C 0.69994 0.70634 0.37389
 C193 C 0.60210 0.62036 0.19013
 C194 C 0.58368 0.60404 0.16148
 H195 H 0.59785 0.68632 0.28686
 H196 H 0.63255 0.64470 0.37287
 H197 H 0.64479 0.73008 0.24242
 H198 H 0.65376 0.66831 0.15156
 H199 H 0.64164 0.58305 0.28230
 H200 H 0.68859 0.62677 0.23787
 C201 C 0.14381 1.11675 0.27242
 C202 C 0.16869 1.14191 0.24756
 C203 C 0.16304 1.17404 0.29809
 C204 C 0.13850 1.14914 0.32347
 C205 C 0.12450 1.14031 0.22824
 C206 C 0.11890 1.17244 0.27879
 C207 C 0.14902 1.16518 0.20268
 C208 C 0.14375 1.19764 0.25393
 C209 C 0.18395 1.19234 0.33899
 C210 C 0.20057 1.20688 0.37461
 C211 C 0.10256 1.12106 0.19128
 C212 C 0.08408 1.10478 0.16282
 H213 H 0.14361 1.08328 0.27964
 H214 H 0.18940 1.12957 0.23518
 H215 H 0.13438 1.14273 0.37357
 H216 H 0.09820 1.18479 0.29125
 H217 H 0.15308 1.17155 0.15256
 H218 H 0.14397 1.23111 0.24677
 C219 C 0.64864 0.33598 -0.20400
 C220 C 0.64335 0.30307 -0.25455
 C221 C 0.66226 0.32668 -0.29965
 C222 C 0.66792 0.35928 -0.24982
 C223 C 0.62382 0.36024 -0.22926
 C224 C 0.64274 0.38381 -0.27439
 C225 C 0.61820 0.32765 -0.27912
 C226 C 0.63741 0.35096 -0.32475
 C227 C 0.68315 0.30846 -0.34073
 C228 C 0.69980 0.29397 -0.37635
 C229 C 0.60196 0.37941 -0.19194
 C230 C 0.58356 0.39565 -0.16316
 H231 H 0.65300 0.33004 -0.15389
 H232 H 0.64384 0.26966 -0.24684
 H233 H 0.68860 0.37207 -0.23823
 H234 H 0.64226 0.41722 -0.28217
 H235 H 0.59753 0.31484 -0.29079
 H236 H 0.63300 0.35695 -0.37483
 C237 C 0.14924 0.83643 -0.19988
 C238 C 0.14398 0.80326 -0.25004
 C239 C 0.16281 0.82673 -0.29545
 C240 C 0.16845 0.85959 -0.24601
 C241 C 0.12436 0.86047 -0.22536
 C242 C 0.14321 0.88390 -0.27080
 C243 C 0.11877 0.82762 -0.27482
 C244 C 0.13791 0.85080 -0.32075
 C245 C 0.18367 0.80843 -0.33649
 C246 C 0.20024 0.79388 -0.37220
 C247 C 0.10247 0.87973 -0.18828
 C248 C 0.08402 0.89603 -0.15976
 H249 H 0.15363 0.83076 -0.14972
 H250 H 0.14454 0.76988 -0.24196
 H251 H 0.18912 0.87251 -0.23463
 H252 H 0.14267 0.91727 -0.27894
 H253 H 0.09811 0.81468 -0.28628
 H254 H 0.13346 0.85652 -0.37089
 C255 C 0.36065 0.61831 -0.28220
 C256 C 0.33278 0.63572 -0.25812
 C257 C 0.33734 0.67369 -0.29882
 C258 C 0.36490 0.65652 -0.32342
 C259 C 0.37573 0.63999 -0.22846
 C260 C 0.38026 0.67796 -0.26918
 C261 C 0.34819 0.65713 -0.20369
 C262 C 0.35239 0.69544 -0.24510
 C263 C 0.31648 0.69198 -0.33992
 C264 C 0.29988 0.70653 -0.37560
 C265 C 0.39757 0.62074 -0.19118
 C266 C 0.41596 0.60441 -0.16247
 H267 H 0.36427 0.58639 -0.29709
 H268 H 0.31301 0.61856 -0.25403
 H269 H 0.37156 0.65645 -0.37309
 H270 H 0.40002 0.69513 -0.27333
 H271 H 0.34158 0.65716 -0.15400
 H272 H 0.34875 0.72737 -0.23029
 C273 C -0.14903 1.16362 -0.20222
 C274 C -0.14372 1.19715 -0.25190
 C275 C -0.16213 1.17364 -0.29804
 C276 C -0.16781 1.14043 -0.24907
 C277 C -0.12384 1.14010 -0.22729
 C278 C -0.14226 1.11664 -0.27345
 C279 C -0.11821 1.17331 -0.27627
 C280 C -0.13692 1.15011 -0.32293
 C281 C -0.18292 1.19182 -0.33938
 C282 C -0.19945 1.20626 -0.37528
 C283 C -0.10204 1.12094 -0.18983
 C284 C -0.08366 1.10468 -0.16101
 H285 H -0.15375 1.16894 -0.15212
 H286 H -0.14457 1.23047 -0.24351
 H287 H -0.18844 1.12712 -0.23836
 H288 H -0.14143 1.08333 -0.28191
 H289 H -0.09758 1.18663 -0.28706
 H290 H -0.13215 1.14473 -0.37300
 C291 C 0.61866 0.67354 -0.27644
 C292 C 0.64442 0.69673 -0.25179
 C293 C 0.66255 0.67341 -0.29869
 C294 C 0.63710 0.65052 -0.32386
 C295 C 0.62409 0.63976 -0.22832
 C296 C 0.64225 0.61648 -0.27524
 C297 C 0.64952 0.66262 -0.20297
 C298 C 0.66802 0.63961 -0.25059
 C299 C 0.68342 0.69168 -0.33983
 C300 C 0.70002 0.70622 -0.37557
 C301 C 0.60220 0.62054 -0.19107
 C302 C 0.58375 0.60426 -0.16242
 H303 H 0.59813 0.68729 -0.28668
 H304 H 0.64556 0.72994 -0.24262
 H305 H 0.63221 0.64573 -0.37400
 H306 H 0.64112 0.58327 -0.28448
 H307 H 0.65436 0.66736 -0.15281
 H308 H 0.68857 0.62588 -0.24043
 C309 C 0.14134 1.11707 -0.27676
 C310 C 0.13620 1.15185 -0.32414
 C311 C 0.16219 1.17369 -0.29957
 C312 C 0.16765 1.13915 -0.25273
 C313 C 0.12395 1.14026 -0.22829
 C314 C 0.14992 1.16207 -0.20355
 C315 C 0.11852 1.17479 -0.27516
 C316 C 0.14482 1.19693 -0.25112
 C317 C 0.18297 1.19182 -0.34114
 C318 C 0.19952 1.20624 -0.37711
 C319 C 0.10219 1.12112 -0.19051
 C320 C 0.08386 1.10484 -0.16143
 H321 H 0.13969 1.08402 -0.28691
 H322 H 0.13076 1.14782 -0.37415
 H323 H 0.18810 1.12470 -0.24397
 H324 H 0.15531 1.16605 -0.15351
 H325 H 0.09809 1.18925 -0.28398
 H326 H 0.14649 1.22998 -0.24104
 C327 C 0.35720 0.38368 -0.27498
 C328 C 0.36259 0.35052 -0.32480
 C329 C 0.33748 0.32663 -0.29996
 C330 C 0.33176 0.35954 -0.25067
 C331 C 0.37575 0.36016 -0.22914
 C332 C 0.35066 0.33629 -0.20413
 C333 C 0.38143 0.32725 -0.27846
 C334 C 0.35602 0.30306 -0.25415
 C335 C 0.31670 0.30845 -0.34132
 C336 C 0.30017 0.29398 -0.37719
 C337 C 0.39754 0.37932 -0.19165
 C338 C 0.41591 0.39559 -0.16282
 H339 H 0.35792 0.41705 -0.28315
 H340 H 0.36729 0.35619 -0.37485
 H341 H 0.31109 0.37260 -0.23972
 H342 H 0.34602 0.33067 -0.15405
 H343 H 0.40209 0.31417 -0.28948
 H344 H 0.35528 0.26969 -0.24604
 C345 C -0.14244 0.88399 -0.27276
 C346 C -0.13700 0.85103 -0.32286
 C347 C -0.16204 0.82692 -0.29814
 C348 C -0.16780 0.85963 -0.24856
 C349 C -0.12380 0.86041 -0.22716
 C350 C -0.14881 0.83632 -0.20227
 C351 C -0.11807 0.82770 -0.27677
 C352 C -0.14341 0.80329 -0.25257
 C353 C -0.18282 0.80875 -0.33955
 C354 C -0.19936 0.79430 -0.37544
 C355 C -0.10203 0.87958 -0.18957
 C356 C -0.08368 0.89587 -0.16065
 H357 H -0.14182 0.91738 -0.28066
 H358 H -0.13235 0.85690 -0.37288
 H359 H -0.18849 0.87255 -0.23742
 H360 H -0.15340 0.83050 -0.15222
 H361 H -0.09739 0.81477 -0.28798
 H362 H -0.14405 0.76990 -0.24473
 C363 C 0.35135 0.66446 0.20319
 C364 C 0.33177 0.64113 0.24829
 C365 C 0.33764 0.67312 0.29890
 C366 C 0.35686 0.69677 0.25452
 C367 C 0.37588 0.63945 0.22816
 C368 C 0.38172 0.67144 0.27879
 C369 C 0.35665 0.61584 0.27256
 C370 C 0.36220 0.64809 0.32370
 C371 C 0.31689 0.69139 0.34024
 C372 C 0.30038 0.70590 0.37614
 C373 C 0.39766 0.62022 0.19070
 C374 C 0.41602 0.60393 0.16187
 H375 H 0.34716 0.67096 0.15318
 H376 H 0.31098 0.62888 0.23622
 H377 H 0.35670 0.73026 0.24757
 H378 H 0.40249 0.68370 0.29094
 H379 H 0.35680 0.58236 0.27958
 H380 H 0.36645 0.64154 0.37368
 C381 C -0.14162 1.11749 0.27760
 C382 C -0.13659 1.15238 0.32477
 C383 C -0.16248 1.17416 0.29961
 C384 C -0.16783 1.13952 0.25296
 C385 C -0.12406 1.14058 0.22921
 C386 C -0.14992 1.16233 0.20389
 C387 C -0.11874 1.17521 0.27589
 C388 C -0.14493 1.19730 0.25125
 C389 C -0.18336 1.19238 0.34073
 C390 C -0.19998 1.20685 0.37643
 C391 C -0.10219 1.12137 0.19193
 C392 C -0.08379 1.10507 0.16322
 H393 H -0.14003 1.08447 0.28805
 H394 H -0.13132 1.14846 0.37490
 H395 H -0.18826 1.12505 0.24399
 H396 H -0.15514 1.16620 0.15373
 H397 H -0.09832 1.18969 0.28493
 H398 H -0.14654 1.23033 0.24088
 C399 C 0.64334 0.38360 0.27067
 C400 C 0.63803 0.35103 0.32158
 C401 C 0.66269 0.32641 0.29634
 C402 C 0.66834 0.35872 0.24596
 C403 C 0.62418 0.35999 0.22624
 C404 C 0.64882 0.33539 0.20083
 C405 C 0.61858 0.32768 0.27665
 C406 C 0.64355 0.30276 0.25194
 C407 C 0.68359 0.30820 0.33738
 C408 C 0.70019 0.29374 0.37309
 C409 C 0.60226 0.37917 0.18917
 C410 C 0.58378 0.39542 0.16067
 H411 H 0.64303 0.41704 0.27799
 H412 H 0.63381 0.35729 0.37165
 H413 H 0.68904 0.37127 0.23380
 H414 H 0.65298 0.32919 0.15073
 H415 H 0.59790 0.31512 0.28889
 H416 H 0.64388 0.26931 0.24469
 C417 C 0.11840 0.82714 0.27881
 C418 C 0.14398 0.80358 0.25415
 C419 C 0.16233 0.82694 0.30059
 C420 C 0.13705 0.85020 0.32577
 C421 C 0.12394 0.86064 0.23024
 C422 C 0.14231 0.88396 0.27670
 C423 C 0.14920 0.83740 0.20489
 C424 C 0.16791 0.86045 0.25204
 C425 C 0.18320 0.80864 0.34165
 C426 C 0.19982 0.79408 0.37726
 C427 C 0.10211 0.87988 0.19292
 C428 C 0.08372 0.89617 0.16414
 H429 H 0.09781 0.81364 0.28943
 H430 H 0.14492 0.77031 0.24534
 H431 H 0.13226 0.85528 0.37590
 H432 H 0.14139 0.91722 0.28558
 H433 H 0.15394 0.83237 0.15473
 H434 H 0.18851 0.87393 0.24149
   
