data_POSCAR
  _audit_creation_date              2014-09-24
  _audit_creation_method            'ToBaCCo'
  _symmetry_space_group_name_H-M    'P1'
  _symmetry_Int_Tables_number       1
  _symmetry_cell_setting            triclinic
  loop_
  _symmetry_equiv_pos_as_xyz
 x,y,z
_cell_length_a 28.1184
_cell_length_b 28.2323
_cell_length_c 28.1995
_cell_angle_alpha 92.376900
_cell_angle_beta 90.321500
_cell_angle_gamma 119.410600
loop_
  _atom_site_label
  _atom_site_type_symbol
  _atom_site_fract_x
  _atom_site_fract_y
  _atom_site_fract_z
C1 C 0.52377 0.10641 0.02999
 H2 H 0.55840 0.11989 0.00746
 C3 C 0.51735 0.14507 0.05731
 H4 H 0.54784 0.18759 0.05569
 C5 C 0.44208 0.03533 0.05892
 H6 H 0.41208 -0.00746 0.05839
 C7 C 0.43395 0.07273 0.08685
 H8 H 0.39753 0.05788 0.10749
 N9 N 0.48702 0.05250 0.03190
 C10 C 0.55714 -0.05166 0.01987
 H11 H 0.57753 -0.03672 -0.01301
 C12 C 0.56960 -0.08522 0.04617
 H13 H 0.60084 -0.09406 0.03369
 C14 C 0.49127 -0.05878 0.07527
 H15 H 0.45998 -0.04936 0.08607
 C16 C 0.50234 -0.09253 0.10258
 H17 H 0.47930 -0.10851 0.13423
 Zn18 Zn 0.49687 0.00021 -0.00511
 N19 N 0.51819 -0.03946 0.03449
 C20 C 0.60412 0.06894 -0.03506
 N21 N 0.55148 0.03618 -0.05063
 C22 C 0.53731 0.03117 -0.09753
 C23 C 0.57576 0.06294 -0.13016
 C24 C 0.64404 0.10109 -0.06660
 C25 C 0.40292 -0.03000 -0.06320
 C26 C 0.35504 -0.06605 -0.08894
 C27 C 0.36077 -0.14078 -0.05609
 C28 C 0.40891 -0.10330 -0.03188
 N29 N 0.42952 -0.04909 -0.03640
 H30 H 0.61462 0.07173 0.00231
 H31 H 0.49583 0.00385 -0.10969
 H32 H 0.56327 0.05947 -0.16711
 H33 H 0.68517 0.12871 -0.05320
 H34 H 0.41964 0.01347 -0.06539
 H35 H 0.33614 -0.04818 -0.10964
 H36 H 0.34672 -0.18355 -0.05176
 H37 H 0.43034 -0.11781 -0.01012
 C38 C 0.54116 -0.10718 0.08768
 C39 C 0.47241 0.12855 0.08682
 C40 C 0.33317 -0.12306 -0.08666
 C41 C 0.62952 0.09971 -0.11451
 C42 C -0.08453 0.44587 0.59934
 H43 H -0.07850 0.41082 0.59768
 C44 C -0.12399 0.44683 0.56994
 H45 H -0.14674 0.41280 0.54483
 C46 C -0.06101 0.53268 0.63420
 H47 H -0.03710 0.56548 0.66004
 C48 C -0.10054 0.53514 0.60566
 H49 H -0.10637 0.57024 0.60968
 N50 N -0.05404 0.48829 0.63067
 C51 C 0.08630 0.46762 0.66361
 H52 H 0.08419 0.46634 0.70186
 C53 C 0.12985 0.46681 0.64076
 H54 H 0.16032 0.46355 0.66179
 C55 C 0.04913 0.47407 0.59013
 H56 H 0.01857 0.47851 0.57057
 C57 C 0.09180 0.47312 0.56584
 H58 H 0.09315 0.47633 0.52768
 Zn59 Zn -0.00686 0.47872 0.67233
 N60 N 0.04711 0.47130 0.63818
 C61 C -0.04110 0.37386 0.70991
 N62 N -0.05159 0.41572 0.70552
 C63 C -0.09690 0.41401 0.72401
 C64 C -0.13399 0.36896 0.74798
 C65 C -0.07677 0.32825 0.73456
 C66 C 0.06589 0.58820 0.69919
 C67 C 0.10057 0.63149 0.73049
 C68 C 0.06081 0.57296 0.79584
 C69 C 0.02661 0.53100 0.76339
 N70 N 0.03048 0.53897 0.71602
 H71 H -0.00534 0.37560 0.69428
 H72 H -0.10434 0.44775 0.71976
 H73 H -0.16991 0.36837 0.76237
 H74 H -0.06817 0.29508 0.73765
 H75 H 0.06875 0.59313 0.66129
 H76 H 0.12996 0.66984 0.71642
 H77 H 0.05798 0.56542 0.83332
 H78 H -0.00123 0.49140 0.77605
 C79 C 0.13341 0.47037 0.59121
 C80 C -0.13344 0.49134 0.57358
 C81 C 0.09945 0.62352 0.77936
 C82 C -0.12401 0.32551 0.75376
 C83 C 0.56440 0.49047 0.39614
 H84 H 0.52630 0.45256 0.39160
 C85 C 0.60650 0.49331 0.42454
 H86 H 0.59987 0.45728 0.44212
 C87 C 0.61889 0.58268 0.37747
 H88 H 0.62392 0.61694 0.35800
 C89 C 0.66245 0.58727 0.40534
 H90 H 0.70049 0.62533 0.40652
 N91 N 0.57105 0.53478 0.37355
 C92 C 0.40304 0.49510 0.34291
 H93 H 0.40442 0.49886 0.30485
 C94 C 0.35528 0.48334 0.36659
 H95 H 0.32058 0.47893 0.34614
 C96 C 0.44855 0.50036 0.41550
 H97 H 0.48534 0.50841 0.43463
 C98 C 0.40164 0.48851 0.44060
 H99 H 0.40283 0.48674 0.47885
 Zn100 Zn 0.51246 0.52369 0.33286
 N101 N 0.44834 0.50318 0.36749
 C102 C 0.45563 0.41916 0.28381
 N103 N 0.50251 0.46800 0.28764
 C104 C 0.54631 0.47788 0.26108
 C105 C 0.54377 0.43830 0.22832
 C106 C 0.45149 0.37807 0.25172
 C107 C 0.53655 0.63241 0.32967
 C108 C 0.54307 0.67915 0.30869
 C109 C 0.53175 0.63357 0.23167
 C110 C 0.52551 0.58781 0.25410
 N111 N 0.52781 0.58792 0.30228
 H112 H 0.42178 0.41162 0.30618
 H113 H 0.58354 0.51660 0.26575
 H114 H 0.57959 0.44688 0.20826
 H115 H 0.41406 0.33927 0.24921
 H116 H 0.53756 0.63119 0.36794
 H117 H 0.55040 0.71406 0.33136
 H118 H 0.52850 0.63202 0.19329
 H119 H 0.51707 0.55166 0.23288
 C120 C 0.35406 0.47986 0.41625
 C121 C 0.65662 0.54207 0.42943
 C122 C 0.53969 0.67981 0.25895
 C123 C 0.49583 0.38758 0.22323
 C124 C 0.21641 0.45805 0.49413
 C125 C 0.26868 0.48258 0.51562
 N126 N 0.27590 0.50136 0.56163
 C127 C 0.23316 0.49693 0.58720
 C128 C 0.18055 0.47286 0.56569
 N129 N 0.17377 0.45401 0.51944
 N130 N 0.20925 0.43928 0.44812
 C131 C 0.25219 0.44462 0.42230
 C132 C 0.30518 0.47052 0.44331
 N133 N 0.31162 0.48834 0.48983
 H134 H 0.24075 0.51362 0.62341
 H135 H 0.24460 0.42837 0.38598
 C136 C 0.53969 0.80871 0.18657
 C137 C 0.55654 0.77443 0.16423
 N138 N 0.57010 0.78045 0.11793
 C139 C 0.56723 0.81905 0.09272
 C140 C 0.54956 0.85326 0.11472
 N141 N 0.53633 0.84696 0.16138
 N142 N 0.52507 0.80195 0.23261
 C143 C 0.52616 0.76212 0.25734
 C144 C 0.54230 0.72689 0.23491
 N145 N 0.55721 0.73438 0.18870
 H146 H 0.57677 0.82134 0.05553
 H147 H 0.51261 0.75706 0.29349
 C148 C 0.22518 0.74571 0.86843
 C149 C 0.20112 0.75981 0.83215
 N150 N 0.21997 0.81313 0.82451
 C151 C 0.26225 0.85319 0.85114
 C152 C 0.28830 0.83947 0.88712
 N153 N 0.26790 0.78539 0.89436
 N154 N 0.20650 0.69252 0.87650
 C155 C 0.16488 0.65255 0.84949
 C156 C 0.14121 0.66630 0.81213
 N157 N 0.16014 0.71995 0.80444
 H158 H 0.27565 0.89457 0.84237
 H159 H 0.15190 0.61051 0.85610
 C160 C 0.78509 0.54227 0.51006
 C161 C 0.73970 0.49367 0.49308
 N162 N 0.73594 0.44535 0.50271
 C163 C 0.77584 0.44328 0.52833
 C164 C 0.82222 0.49196 0.54504
 N165 N 0.82522 0.54039 0.53561
 N166 N 0.78806 0.59050 0.50099
 C167 C 0.74778 0.59232 0.47542
 C168 C 0.70219 0.54345 0.45780
 N169 N 0.69971 0.49543 0.46755
 H170 H 0.77045 0.40385 0.53622
 H171 H 0.75131 0.63151 0.46980
 C172 C 0.49249 0.26317 0.13156
 C173 C 0.46343 0.25042 0.17364
 N174 N 0.43629 0.19791 0.18626
 C175 C 0.43715 0.15751 0.15883
 C176 C 0.46682 0.17015 0.11668
 N177 N 0.49358 0.22302 0.10433
 N178 N 0.52026 0.31565 0.11909
 C179 C 0.52103 0.35627 0.14724
 C180 C 0.49297 0.34401 0.19016
 N181 N 0.46427 0.29098 0.20194
 H182 H 0.41626 0.11649 0.17082
 H183 H 0.54331 0.39766 0.13609
 C184 C -0.23881 0.19449 0.83144
 C185 C -0.25575 0.21970 0.79872
 N186 N -0.30957 0.20365 0.79325
 C187 C -0.34742 0.16374 0.81937
 C188 C -0.33070 0.13915 0.85320
 N189 N -0.27649 0.15530 0.85830
 N190 N -0.18483 0.21066 0.83667
 C191 C -0.14694 0.25137 0.81099
 C192 C -0.16371 0.27785 0.77922
 N193 N -0.21796 0.26096 0.77389
 H194 H -0.38987 0.15292 0.81499
 H195 H -0.10413 0.26413 0.81656
   
