data_POSCAR
  _audit_creation_date              2014-09-24
  _audit_creation_method            'ToBaCCo'
  _symmetry_space_group_name_H-M    'P1'
  _symmetry_Int_Tables_number       1
  _symmetry_cell_setting            triclinic
  loop_
  _symmetry_equiv_pos_as_xyz
 x,y,z
_cell_length_a 43.4886
_cell_length_b 40.4063
_cell_length_c 41.1986
_cell_angle_alpha 90.513600
_cell_angle_beta 91.410200
_cell_angle_gamma 90.436700
loop_
  _atom_site_label
  _atom_site_type_symbol
  _atom_site_fract_x
  _atom_site_fract_y
  _atom_site_fract_z
C1 C 0.24722 0.49480 1.00605
 C2 C 0.75113 0.51479 -0.00991
 C3 C -0.00363 0.24174 0.48320
 C4 C 1.00312 0.75310 0.51609
 C5 C 0.49353 -0.01071 0.25532
 C6 C 0.50183 0.01885 0.74654
 C7 C 0.29309 0.02616 0.45385
 H8 H 0.29229 0.04788 0.46935
 C9 C 0.31250 0.02570 0.42739
 H10 H 0.32681 0.04710 0.42277
 C11 C 0.27643 -0.02873 0.44211
 H12 H 0.26289 -0.05016 0.44836
 C13 C 0.29572 -0.03037 0.41554
 H14 H 0.29643 -0.05292 0.40120
 N15 N 0.27540 -0.00069 0.46056
 C16 C 0.20687 0.04409 0.52217
 H17 H 0.20967 0.02893 0.54354
 C18 C 0.18516 0.06933 0.52161
 H19 H 0.17118 0.07343 0.54264
 C20 C 0.22077 0.05606 0.46822
 H21 H 0.23419 0.05031 0.44722
 C22 C 0.19908 0.08134 0.46650
 H23 H 0.19640 0.09531 0.44431
 Zn24 Zn 0.25135 0.00178 0.49812
 N25 N 0.22429 0.03811 0.49583
 C26 C 0.28091 0.03475 0.55201
 N27 N 0.27900 0.00630 0.53411
 C28 C 0.29793 -0.01960 0.54045
 C29 C 0.31912 -0.01799 0.56640
 C30 C 0.30218 0.03762 0.57790
 C31 C 0.20702 -0.04469 0.47703
 C32 C 0.18667 -0.07139 0.47945
 C33 C 0.20604 -0.08031 0.53412
 C34 C 0.22632 -0.05372 0.53050
 N35 N 0.22649 -0.03655 0.50225
 H36 H 0.26630 0.05542 0.54599
 H37 H 0.29640 -0.04162 0.52535
 H38 H 0.33400 -0.03886 0.57115
 H39 H 0.30351 0.06037 0.59198
 H40 H 0.20704 -0.03006 0.45516
 H41 H 0.17096 -0.07719 0.45937
 H42 H 0.20585 -0.09346 0.55691
 H43 H 0.24118 -0.04623 0.55068
 C44 C 0.18091 0.08815 0.49341
 C45 C 0.31415 -0.00294 0.40800
 C46 C 0.18580 -0.08929 0.50843
 C47 C 0.32142 0.01091 0.58544
 C48 C 0.69733 0.01900 0.53537
 H49 H 0.69478 0.03302 0.51322
 C50 C 0.67578 0.02235 0.55970
 H51 H 0.65679 0.03924 0.55628
 C52 C 0.72460 -0.02095 0.56619
 H53 H 0.74323 -0.03840 0.56826
 C54 C 0.70375 -0.01804 0.59139
 H55 H 0.70648 -0.03331 0.61272
 N56 N 0.72093 -0.00265 0.53879
 C57 C 0.79429 0.02615 0.47466
 H58 H 0.79598 0.00360 0.46048
 C59 C 0.81615 0.05125 0.47142
 H60 H 0.83453 0.04801 0.45443
 C61 C 0.76893 0.05714 0.51500
 H62 H 0.75095 0.05893 0.53255
 C63 C 0.79020 0.08310 0.51227
 H64 H 0.78845 0.10472 0.52781
 Zn65 Zn 0.74622 -0.00849 0.50233
 N66 N 0.77153 0.02926 0.49649
 C67 C 0.72157 0.00415 0.43886
 N68 N 0.71981 -0.01530 0.46557
 C69 C 0.69709 -0.03833 0.46825
 C70 C 0.67425 -0.04163 0.44404
 C71 C 0.69933 0.00140 0.41384
 C72 C 0.79615 -0.04097 0.53050
 C73 C 0.81944 -0.06440 0.53303
 C74 C 0.79374 -0.09659 0.49060
 C75 C 0.77099 -0.07231 0.48865
 N76 N 0.77285 -0.04496 0.50818
 H77 H 0.73953 0.02266 0.43740
 H78 H 0.69608 -0.05324 0.48989
 H79 H 0.65577 -0.05937 0.44704
 H80 H 0.70031 0.01791 0.39332
 H81 H 0.79728 -0.01881 0.54543
 H82 H 0.83831 -0.06032 0.55030
 H83 H 0.79266 -0.11758 0.47408
 H84 H 0.75257 -0.07473 0.47069
 C85 C 0.81455 0.07994 0.49074
 C86 C 0.67864 0.00338 0.58798
 C87 C 0.81878 -0.09226 0.51241
 C88 C 0.67487 -0.02112 0.41673
 C89 C 0.48820 0.20454 1.04992
 H90 H 0.47237 0.20249 1.02932
 C91 C 0.48804 0.18054 1.07405
 H92 H 0.47199 0.15995 1.07199
 C93 C 0.52899 0.23337 1.07729
 H94 H 0.54537 0.25356 1.07817
 C95 C 0.52918 0.21023 1.10233
 H96 H 0.54572 0.21276 1.12230
 N97 N 0.50861 0.23019 1.05179
 C98 C 0.47068 0.31204 0.99590
 H99 H 0.48852 0.31524 0.97833
 C100 C 0.44531 0.33299 0.99556
 H101 H 0.44394 0.35253 0.97777
 C102 C 0.45134 0.28306 1.04089
 H103 H 0.45384 0.26360 1.05856
 C104 C 0.42557 0.30354 1.04147
 H105 H 0.40823 0.29933 1.05943
 Zn106 Zn 0.50815 0.25999 1.01650
 N107 N 0.47308 0.28745 1.01811
 C108 C 0.48278 0.23724 0.95604
 N109 N 0.50697 0.23459 0.97744
 C110 C 0.53025 0.21310 0.97192
 C111 C 0.53034 0.19410 0.94342
 C112 C 0.48167 0.21825 0.92754
 C113 C 0.54644 0.30981 1.04323
 C114 C 0.57146 0.33164 1.04511
 C115 C 0.58993 0.30803 0.99524
 C116 C 0.56452 0.28671 0.99427
 N117 N 0.54350 0.28776 1.01819
 H118 H 0.46409 0.25377 0.96116
 H119 H 0.54886 0.21089 0.98966
 H120 H 0.54902 0.17709 0.93937
 H121 H 0.46223 0.22053 0.91079
 H122 H 0.52911 0.31060 1.06161
 H123 H 0.57341 0.34902 1.06523
 H124 H 0.60599 0.30734 0.97558
 H125 H 0.56139 0.26990 0.97396
 C126 C 0.42221 0.32879 1.01845
 C127 C 0.50878 0.18323 1.10057
 C128 C 0.59353 0.33102 1.02078
 C129 C 0.50577 0.19653 0.92090
 C130 C 0.47218 0.80294 -0.04821
 H131 H 0.45742 0.80533 -0.02765
 C132 C 0.47212 0.82749 -0.07179
 H133 H 0.45715 0.84861 -0.06920
 C134 C 0.51019 0.77314 -0.07624
 H135 H 0.52526 0.75206 -0.07767
 C136 C 0.51068 0.79704 -0.10056
 H137 H 0.52645 0.79441 -0.12035
 N138 N 0.49170 0.77692 -0.05029
 C139 C 0.45920 0.69828 0.01193
 H140 H 0.47642 0.70019 0.03127
 C141 C 0.43482 0.67597 0.01439
 H142 H 0.43371 0.66041 0.03559
 C143 C 0.44032 0.71607 -0.03944
 H144 H 0.44262 0.73195 -0.06024
 C145 C 0.41542 0.69404 -0.03795
 H146 H 0.39847 0.69331 -0.05765
 Zn147 Zn 0.49522 0.74750 -0.01480
 N148 N 0.46159 0.71765 -0.01470
 C149 C 0.46623 0.78131 0.03487
 N150 N 0.49444 0.77195 0.02483
 C151 C 0.52031 0.77971 0.04267
 C152 C 0.51847 0.79910 0.07082
 C153 C 0.46331 0.80035 0.06298
 C154 C 0.53122 0.69012 -0.02028
 C155 C 0.55813 0.67194 -0.02282
 C156 C 0.58735 0.72305 -0.02122
 C157 C 0.55975 0.74035 -0.01908
 N158 N 0.53245 0.72370 -0.01803
 H159 H 0.44588 0.77416 0.02083
 H160 H 0.54251 0.77151 0.03495
 H161 H 0.53946 0.80621 0.08383
 H162 H 0.44057 0.80758 0.07033
 H163 H 0.50937 0.67728 -0.02027
 H164 H 0.55670 0.64519 -0.02410
 H165 H 0.60893 0.73655 -0.02186
 H166 H 0.56008 0.76711 -0.01842
 C167 C 0.41241 0.67368 -0.01069
 C168 C 0.49213 0.82512 -0.09792
 C169 C 0.58663 0.68841 -0.02315
 C170 C 0.48970 0.81019 0.08101
 C171 C 1.03063 0.48749 0.19202
 H172 H 1.01154 0.47029 0.18917
 C173 C 1.05492 0.48624 0.17055
 H174 H 1.05425 0.46816 0.15098
 C175 C 1.05418 0.53248 0.22064
 H176 H 1.05371 0.55051 0.24015
 C177 C 1.07889 0.53223 0.19957
 H178 H 1.09748 0.54995 0.20328
 N179 N 1.03083 0.51011 0.21666
 C180 C 0.97432 0.46459 0.29047
 H181 H 0.95684 0.48311 0.29393
 C182 C 0.97421 0.43582 0.30905
 H183 H 0.95659 0.43225 0.32685
 C184 C 1.01955 0.44742 0.26437
 H185 H 1.03756 0.45222 0.24745
 C186 C 1.02060 0.41866 0.28281
 H187 H 1.03927 0.40141 0.27969
 Zn188 Zn 0.99686 0.50972 0.24456
 N189 N 0.99657 0.46968 0.26835
 C190 C 0.93634 0.49270 0.22098
 N191 N 0.96085 0.51357 0.21823
 C192 C 0.96127 0.53726 0.19500
 C193 C 0.93666 0.54020 0.17291
 C194 C 0.91093 0.49526 0.19977
 C195 C 1.02117 0.54302 0.29902
 C196 C 1.02261 0.56674 0.32384
 C197 C 0.98058 0.59560 0.29745
 C198 C 0.97968 0.57105 0.27329
 N199 N 0.99966 0.54530 0.27467
 H200 H 0.93660 0.47357 0.23905
 H201 H 0.98117 0.55330 0.19316
 H202 H 0.93763 0.55852 0.15392
 H203 H 0.89184 0.47806 0.20166
 H204 H 1.03665 0.52219 0.29961
 H205 H 1.03940 0.56416 0.34348
 H206 H 0.96401 0.61546 0.29659
 H207 H 0.96252 0.57221 0.25393
 C208 C 0.99776 0.41265 0.30548
 C209 C 1.07952 0.50877 0.17421
 C210 C 1.00184 0.59317 0.32345
 C211 C 0.91126 0.51888 0.17512
 C212 C -0.04706 0.46049 0.79747
 H213 H -0.03203 0.43932 0.79915
 C214 C -0.07356 0.46173 0.81598
 H215 H -0.07876 0.44151 0.83207
 C216 C -0.05767 0.51346 0.77588
 H217 H -0.05112 0.53408 0.76107
 C218 C -0.08420 0.51577 0.79396
 H219 H -0.09804 0.53789 0.79225
 N220 N -0.03979 0.48604 0.77771
 C221 C 0.02027 0.44747 0.70361
 H222 H 0.03805 0.46635 0.70497
 C223 C 0.02052 0.42360 0.67899
 H224 H 0.03867 0.42404 0.66146
 C225 C -0.02587 0.42491 0.72387
 H226 H -0.04445 0.42613 0.74070
 C227 C -0.02625 0.40021 0.69986
 H228 H -0.04510 0.38255 0.69844
 Zn229 Zn -0.00295 0.48456 0.75415
 N230 N -0.00288 0.44800 0.72517
 C231 C 0.05169 0.45804 0.78303
 N232 N 0.03039 0.48247 0.78438
 C233 C 0.03202 0.50634 0.80783
 C234 C 0.05617 0.50672 0.83076
 C235 C 0.07628 0.45749 0.80552
 C236 C -0.02206 0.52847 0.70584
 C237 C -0.02164 0.55699 0.68702
 C238 C 0.02625 0.57311 0.71392
 C239 C 0.02458 0.54459 0.73274
 N240 N 0.00043 0.52319 0.72869
 H241 H 0.04976 0.43906 0.76444
 H242 H 0.01454 0.52522 0.80856
 H243 H 0.05689 0.52584 0.84936
 H244 H 0.09334 0.43823 0.80370
 H245 H -0.04066 0.51071 0.70269
 H246 H -0.03985 0.56104 0.66913
 H247 H 0.04553 0.59002 0.71734
 H248 H 0.04264 0.53955 0.75044
 C249 C -0.00319 0.39991 0.67669
 C250 C -0.09230 0.48984 0.81452
 C251 C 0.00271 0.57971 0.69107
 C252 C 0.07885 0.48219 0.82969
 C253 C 0.08100 0.18271 0.48846
 C254 C 0.06026 0.18008 0.46162
 C255 C 0.03382 0.19968 0.46033
 C256 C 0.02685 0.22189 0.48573
 C257 C 0.04912 0.22628 0.51094
 C258 C 0.07549 0.20678 0.51249
 C259 C 0.10794 0.15975 0.48998
 C260 C 0.12853 0.15846 0.51690
 C261 C 0.15245 0.13560 0.51772
 C262 C 0.15662 0.11364 0.49169
 C263 C 0.13656 0.11505 0.46457
 C264 C 0.11211 0.13752 0.46371
 C265 C 0.06581 0.15772 0.43632
 C266 C 0.09135 0.13713 0.43718
 H267 H 0.05005 0.15596 0.41557
 H268 H 0.09453 0.12010 0.41708
 H269 H 0.01781 0.19697 0.43985
 H270 H 0.04685 0.24494 0.52957
 H271 H 0.16774 0.13501 0.53886
 H272 H 0.13928 0.09772 0.44462
 H273 H 0.09137 0.21113 0.53262
 H274 H 0.12623 0.17439 0.53782
 C275 C 0.69110 0.60063 -0.02184
 C276 C 0.68862 0.57280 -0.04277
 C277 C 0.70933 0.54674 -0.03947
 C278 C 0.73222 0.54678 -0.01465
 C279 C 0.73645 0.57590 0.00403
 C280 C 0.71601 0.60233 0.00070
 C281 C 0.66632 0.62622 -0.02386
 C282 C 0.66532 0.65388 -0.00279
 C283 C 0.64002 0.67504 -0.00353
 C284 C 0.61523 0.66906 -0.02522
 C285 C 0.61680 0.64278 -0.04747
 C286 C 0.64188 0.62127 -0.04681
 C287 C 0.66473 0.57033 -0.06607
 C288 C 0.64186 0.59410 -0.06808
 H289 H 0.66316 0.54913 -0.08236
 H290 H 0.62332 0.59057 -0.08587
 H291 H 0.70651 0.52508 -0.05504
 H292 H 0.75522 0.57850 0.02153
 H293 H 0.63921 0.69527 0.01386
 H294 H 0.59787 0.63842 -0.06465
 H295 H 0.71983 0.62358 0.01635
 H296 H 0.68330 0.65901 0.01508
 C297 C 0.92454 -0.17904 0.50865
 C298 C 0.91955 -0.21336 0.51243
 C299 C 0.94479 -0.23505 0.51400
 C300 C 0.97534 -0.22300 0.51268
 C301 C 0.97931 -0.18920 0.50507
 C302 C 0.95457 -0.16765 0.50357
 C303 C 0.89757 -0.15626 0.50944
 C304 C 0.90090 -0.12157 0.50953
 C305 C 0.87525 -0.10123 0.51065
 C306 C 0.84554 -0.11476 0.51168
 C307 C 0.84185 -0.14935 0.51179
 C308 C 0.86771 -0.17016 0.51131
 C309 C 0.88943 -0.22568 0.51456
 C310 C 0.86405 -0.20460 0.51347
 H311 H 0.88541 -0.25202 0.51703
 H312 H 0.84125 -0.21537 0.51507
 H313 H 0.94078 -0.26132 0.51716
 H314 H 1.00156 -0.17876 0.49988
 H315 H 0.87867 -0.07465 0.51036
 H316 H 0.81895 -0.15997 0.51306
 H317 H 0.95952 -0.14216 0.49800
 H318 H 0.92311 -0.10955 0.50925
 C319 C 0.31797 0.41849 1.01587
 C320 C 0.30573 0.42692 0.98495
 C321 C 0.28205 0.45021 0.98214
 C322 C 0.26949 0.46533 1.00976
 C323 C 0.28250 0.45738 1.04035
 C324 C 0.30591 0.43405 1.04345
 C325 C 0.34415 0.39446 1.01765
 C326 C 0.35808 0.38438 1.04718
 C327 C 0.38311 0.36286 1.04740
 C328 C 0.39491 0.35074 1.01826
 C329 C 0.38075 0.36005 0.98878
 C330 C 0.35564 0.38169 0.98825
 C331 C 0.31777 0.41285 0.95684
 C332 C 0.34220 0.39078 0.95845
 H333 H 0.30839 0.41931 0.93313
 H334 H 0.35088 0.38088 0.93595
 H335 H 0.27412 0.45740 0.95811
 H336 H 0.27511 0.46993 1.06209
 H337 H 0.39368 0.35624 1.07049
 H338 H 0.38926 0.35033 0.96611
 H339 H 0.31478 0.42928 1.06761
 H340 H 0.35019 0.39299 1.07036
 C341 C 0.91507 0.17576 0.48767
 C342 C 0.94506 0.16272 0.49045
 C343 C 0.97078 0.18371 0.48964
 C344 C 0.96794 0.21806 0.48411
 C345 C 0.93784 0.23093 0.48285
 C346 C 0.91190 0.21025 0.48425
 C347 C 0.88824 0.15209 0.48875
 C348 C 0.85725 0.16226 0.48721
 C349 C 0.83324 0.13896 0.48811
 C350 C 0.83957 0.10504 0.49010
 C351 C 0.87024 0.09478 0.49195
 C352 C 0.89443 0.11785 0.49156
 C353 C 0.94946 0.12863 0.49396
 C354 C 0.92473 0.10667 0.49421
 H355 H 0.97249 0.11867 0.49613
 H356 H 0.92943 0.08049 0.49660
 H357 H 0.99296 0.17257 0.49393
 H358 H 0.93441 0.25733 0.48047
 H359 H 0.80967 0.14740 0.48676
 H360 H 0.87528 0.06863 0.49421
 H361 H 0.88962 0.22173 0.48252
 H362 H 0.85111 0.18799 0.48535
 C363 C 0.31494 0.57558 0.00115
 C364 C 0.30532 0.55825 -0.02732
 C365 C 0.28298 0.53306 -0.02573
 C366 C 0.26942 0.52475 0.00391
 C367 C 0.28080 0.54076 0.03232
 C368 C 0.30268 0.56606 0.03097
 C369 C 0.33891 0.60222 -0.00149
 C370 C 0.34891 0.62190 0.02518
 C371 C 0.37224 0.64539 0.02185
 C372 C 0.38624 0.65006 -0.00810
 C373 C 0.37562 0.63148 -0.03514
 C374 C 0.35205 0.60778 -0.03208
 C375 C 0.31863 0.56555 -0.05708
 C376 C 0.34171 0.58953 -0.05934
 H377 H 0.31141 0.55216 -0.07890
 H378 H 0.35159 0.59388 -0.08284
 H379 H 0.27653 0.51944 -0.04765
 H380 H 0.27308 0.53341 0.05598
 H381 H 0.37934 0.66004 0.04291
 H382 H 0.38622 0.63485 -0.05844
 H383 H 0.31021 0.57721 0.05370
 H384 H 0.33903 0.61962 0.04881
 C385 C 0.08687 -0.18520 0.51972
 C386 C 0.08265 -0.20863 0.49425
 C387 C 0.05696 -0.23004 0.49365
 C388 C 0.03383 -0.22693 0.51691
 C389 C 0.03922 -0.20447 0.54290
 C390 C 0.06509 -0.18402 0.54433
 C391 C 0.11374 -0.16180 0.51874
 C392 C 0.12027 -0.13818 0.54339
 C393 C 0.14426 -0.11543 0.54031
 C394 C 0.16231 -0.11551 0.51262
 C395 C 0.15681 -0.13970 0.48847
 C396 C 0.13290 -0.16299 0.49148
 C397 C 0.10354 -0.20977 0.46889
 C398 C 0.12785 -0.18715 0.46729
 H399 H 0.10045 -0.22775 0.44937
 H400 H 0.14277 -0.18841 0.44664
 H401 H 0.05519 -0.24853 0.47463
 H402 H 0.02248 -0.20197 0.56180
 H403 H 0.14809 -0.09696 0.55924
 H404 H 0.17106 -0.14020 0.46724
 H405 H 0.06701 -0.16684 0.56444
 H406 H 0.10699 -0.13652 0.56508
 C407 C 0.68880 0.43179 1.01121
 C408 C 0.67913 0.46481 1.01521
 C409 C 0.69929 0.49099 1.00912
 C410 C 0.72925 0.48547 0.99776
 C411 C 0.73978 0.45257 0.99774
 C412 C 0.71975 0.42607 1.00359
 C413 C 0.66553 0.40463 1.01547
 C414 C 0.67173 0.37103 1.00912
 C415 C 0.64860 0.34700 1.01158
 C416 C 0.61883 0.35583 1.02064
 C417 C 0.61268 0.38906 1.02771
 C418 C 0.63551 0.41341 1.02483
 C419 C 0.64929 0.47176 1.02513
 C420 C 0.62802 0.44659 1.03011
 H421 H 0.64209 0.49714 1.02868
 H422 H 0.60508 0.45328 1.03737
 H423 H 0.69120 0.51583 1.01356
 H424 H 0.76349 0.44730 0.99232
 H425 H 0.65393 0.32144 1.00613
 H426 H 0.58960 0.39626 1.03403
 H427 H 0.72891 0.40138 1.00208
 H428 H 0.69404 0.36296 1.00150
 C429 C 0.50854 0.07659 1.19416
 C430 C 0.51181 0.04432 1.18131
 C431 C 0.50879 0.01678 1.20131
 C432 C 0.50005 0.02002 1.23399
 C433 C 0.49976 0.05228 1.24731
 C434 C 0.50348 0.08015 1.22770
 C435 C 0.51015 0.10524 1.17119
 C436 C 0.50720 0.13856 1.18112
 C437 C 0.50743 0.16407 1.15830
 C438 C 0.51015 0.15685 1.12516
 C439 C 0.51385 0.12399 1.11515
 C440 C 0.51413 0.09831 1.13776
 C441 C 0.51723 0.03940 1.14826
 C442 C 0.51808 0.06578 1.12691
 H443 H 0.51995 0.01460 1.13853
 H444 H 0.52152 0.06058 1.10141
 H445 H 0.51290 -0.00730 1.19069
 H446 H 0.49546 0.05592 1.27286
 H447 H 0.50472 0.18943 1.16643
 H448 H 0.51650 0.11845 1.08956
 H449 H 0.50174 0.10417 1.23910
 H450 H 0.50443 0.14537 1.20625
 C451 C 0.00514 0.68992 0.60210
 C452 C 0.02976 0.69045 0.58044
 C453 C 0.02914 0.71207 0.55412
 C454 C 0.00423 0.73370 0.54850
 C455 C -0.01806 0.73600 0.57269
 C456 C -0.01791 0.71406 0.59879
 C457 C 0.00459 0.66330 0.62721
 C458 C -0.02112 0.65722 0.64652
 C459 C -0.02147 0.63040 0.66768
 C460 C 0.00398 0.60945 0.67054
 C461 C 0.02998 0.61575 0.65213
 C462 C 0.03016 0.64188 0.62994
 C463 C 0.05454 0.66885 0.58463
 C464 C 0.05503 0.64552 0.60931
 H465 H 0.07373 0.66974 0.56834
 H466 H 0.07459 0.62914 0.61136
 H467 H 0.04740 0.71090 0.53670
 H468 H -0.03603 0.75423 0.57165
 H469 H -0.04179 0.62576 0.68168
 H470 H 0.04942 0.59915 0.65383
 H471 H -0.03606 0.71627 0.61605
 H472 H -0.04154 0.67217 0.64478
 C473 C 0.50597 0.93593 -0.18519
 C474 C 0.50262 0.92977 -0.21891
 C475 C 0.50274 0.95639 -0.24078
 C476 C 0.50501 0.98947 -0.22948
 C477 C 0.51239 0.99443 -0.19617
 C478 C 0.51248 0.96833 -0.17446
 C479 C 0.50281 0.90766 -0.16228
 C480 C 0.50204 0.91225 -0.12839
 C481 C 0.49840 0.88538 -0.10791
 C482 C 0.49545 0.85317 -0.12052
 C483 C 0.49604 0.84821 -0.15431
 C484 C 0.49911 0.87531 -0.17529
 C485 C 0.49887 0.89718 -0.23039
 C486 C 0.49766 0.87048 -0.20905
 H487 H 0.49673 0.89224 -0.25624
 H488 H 0.49472 0.84576 -0.21914
 H489 H 0.49958 0.95156 -0.26658
 H490 H 0.51817 1.01858 -0.18623
 H491 H 0.49821 0.88979 -0.08194
 H492 H 0.49333 0.82339 -0.16424
 H493 H 0.51780 0.97412 -0.14933
 H494 H 0.50370 0.93642 -0.11715
 C495 C 1.00361 0.30595 0.39830
 C496 C 0.97737 0.28534 0.40105
 C497 C 0.97585 0.26213 0.42630
 C498 C 0.99897 0.26121 0.45095
 C499 C 1.02542 0.28114 0.44697
 C500 C 1.02784 0.30281 0.42116
 C501 C 1.00365 0.33178 0.37245
 C502 C 1.02928 0.35235 0.36695
 C503 C 1.02738 0.37792 0.34455
 C504 C 0.99994 0.38373 0.32712
 C505 C 0.97466 0.36251 0.33125
 C506 C 0.97650 0.33627 0.35342
 C507 C 0.95208 0.28938 0.37971
 C508 C 0.95140 0.31474 0.35687
 H509 H 0.93192 0.27366 0.38167
 H510 H 0.93080 0.31769 0.34187
 H511 H 0.95592 0.24615 0.42708
 H512 H 1.04387 0.28122 0.46511
 H513 H 1.04721 0.39389 0.34151
 H514 H 0.95359 0.36654 0.31727
 H515 H 1.04827 0.31803 0.42064
 H516 H 1.05095 0.34937 0.37982
 C517 C 0.48396 0.90647 0.18631
 C518 C 0.50641 0.90454 0.21165
 C519 C 0.50886 0.92985 0.23537
 C520 C 0.48986 0.95797 0.23344
 C521 C 0.46576 0.95767 0.20987
 C522 C 0.46286 0.93257 0.18675
 C523 C 0.48389 0.88096 0.15973
 C524 C 0.46435 0.88284 0.13205
 C525 C 0.46612 0.85959 0.10707
 C526 C 0.48724 0.83358 0.10888
 C527 C 0.50665 0.83122 0.13658
 C528 C 0.50535 0.85489 0.16178
 C529 C 0.52662 0.87768 0.21270
 C530 C 0.52593 0.85325 0.18845
 H531 H 0.54359 0.87578 0.23229
 H532 H 0.54233 0.83324 0.19017
 H533 H 0.52591 0.92756 0.25470
 H534 H 0.44983 0.97811 0.20838
 H535 H 0.45141 0.86266 0.08574
 H536 H 0.52302 0.81119 0.13839
 H537 H 0.44427 0.93458 0.16912
 H538 H 0.44806 0.90255 0.12866
 C539 C -0.01052 0.31164 0.56508
 C540 C -0.00990 0.27721 0.57066
 C541 C -0.00864 0.25495 0.54422
 C542 C -0.00737 0.26648 0.51198
 C543 C -0.01187 0.30072 0.50708
 C544 C -0.01302 0.32283 0.53302
 C545 C -0.00901 0.33486 0.59354
 C546 C -0.00531 0.36929 0.59004
 C547 C -0.00338 0.39001 0.61717
 C548 C -0.00521 0.37710 0.64847
 C549 C -0.00876 0.34280 0.65241
 C550 C -0.00995 0.32152 0.62514
 C551 C -0.01046 0.26541 0.60255
 C552 C -0.01111 0.28710 0.62918
 H553 H -0.01047 0.23901 0.60698
 H554 H -0.01165 0.27675 0.65334
 H555 H -0.00750 0.22858 0.54868
 H556 H -0.01465 0.31118 0.48318
 H557 H -0.00064 0.41641 0.61367
 H558 H -0.00966 0.33270 0.67666
 H559 H -0.01614 0.34861 0.52736
 H560 H -0.00324 0.38071 0.56663
 C561 C 0.50176 0.10615 0.81050
 C562 C 0.47658 0.08390 0.80891
 C563 C 0.47648 0.05735 0.78690
 C564 C 0.50118 0.05204 0.76588
 C565 C 0.52408 0.07687 0.76469
 C566 C 0.52465 0.10322 0.78704
 C567 C 0.50298 0.13140 0.83745
 C568 C 0.52912 0.15131 0.84444
 C569 C 0.52991 0.17272 0.87132
 C570 C 0.50449 0.17524 0.89147
 C571 C 0.47817 0.15606 0.88436
 C572 C 0.47751 0.13368 0.85813
 C573 C 0.45197 0.08766 0.82988
 C574 C 0.45215 0.11248 0.85354
 H575 H 0.43239 0.07093 0.82820
 H576 H 0.43267 0.11419 0.86937
 H577 H 0.45785 0.03939 0.78740
 H578 H 0.54207 0.07600 0.74715
 H579 H 0.55048 0.18730 0.87651
 H580 H 0.45873 0.15741 0.90030
 H581 H 0.54328 0.12093 0.78576
 H582 H 0.54948 0.14991 0.83004
 C583 C 0.99654 0.68292 0.43387
 C584 C 0.99961 0.71721 0.42822
 C585 C 1.00081 0.73967 0.45462
 C586 C 0.99976 0.72842 0.48697
 C587 C 0.99278 0.69455 0.49149
 C588 C 0.99167 0.67225 0.46563
 C589 C 0.99784 0.65936 0.40574
 C590 C 0.99887 0.62480 0.40974
 C591 C 1.00037 0.60371 0.38294
 C592 C 1.00080 0.61637 0.35142
 C593 C 1.00009 0.65082 0.34705
 C594 C 0.99926 0.67240 0.37406
 C595 C 1.00142 0.72868 0.39629
 C596 C 1.00066 0.70679 0.36975
 H597 H 1.00334 0.75498 0.39172
 H598 H 1.00195 0.71690 0.34555
 H599 H 1.00359 0.76590 0.45014
 H600 H 0.98789 0.68458 0.51505
 H601 H 1.00086 0.57724 0.38686
 H602 H 1.00095 0.66075 0.32273
 H603 H 0.98660 0.64676 0.47107
 H604 H 0.99906 0.61351 0.43335
 C605 C 1.17790 0.50457 0.08115
 C606 C 1.18956 0.47308 0.07296
 C607 C 1.21251 0.47012 0.04969
 C608 C 1.22472 0.49823 0.03438
 C609 C 1.21156 0.52916 0.04148
 C610 C 1.18905 0.53242 0.06478
 C611 C 1.15322 0.50668 0.10589
 C612 C 1.14094 0.53695 0.11662
 C613 C 1.11736 0.53754 0.13900
 C614 C 1.10538 0.50803 0.15134
 C615 C 1.11792 0.47778 0.14139
 C616 C 1.14176 0.47690 0.11900
 C617 C 1.17768 0.44460 0.08739
 C618 C 1.15415 0.44645 0.10971
 H619 H 1.18647 0.42042 0.08103
 H620 H 1.14552 0.42364 0.11988
 H621 H 1.22031 0.44568 0.04292
 H622 H 1.21842 0.55112 0.02858
 H623 H 1.10803 0.56119 0.14621
 H624 H 1.10924 0.45486 0.15129
 H625 H 1.18017 0.55689 0.06895
 H626 H 1.14915 0.56046 0.10803
 C627 C 0.58107 0.00930 0.68214
 C628 C 0.55071 0.00596 0.66949
 C629 C 0.52563 0.00806 0.69009
 C630 C 0.52955 0.01565 0.72351
 C631 C 0.56000 0.01703 0.73612
 C632 C 0.58530 0.01430 0.71587
 C633 C 0.60716 0.00724 0.65888
 C634 C 0.63844 0.00945 0.66873
 C635 C 0.66171 0.00785 0.64583
 C636 C 0.65435 0.00448 0.61262
 C637 C 0.62339 0.00187 0.60268
 C638 C 0.59992 0.00293 0.62538
 C639 C 0.54527 0.00078 0.63618
 C640 C 0.56931 -0.00040 0.61459
 H641 H 0.52196 -0.00186 0.62652
 H642 H 0.56381 -0.00397 0.58898
 H643 H 0.50307 0.00335 0.67944
 H644 H 0.56421 0.02079 0.76191
 H645 H 0.68552 0.00982 0.65402
 H646 H 0.61757 -0.00144 0.57709
 H647 H 0.60793 0.01639 0.72705
 H648 H 0.64538 0.01244 0.69390
 C649 C -0.19212 0.50467 0.90431
 C650 C -0.19135 0.53376 0.92356
 C651 C -0.21117 0.53702 0.94953
 C652 C -0.23174 0.51140 0.95765
 C653 C -0.23527 0.48463 0.93567
 C654 C -0.21538 0.48101 0.90968
 C655 C -0.16781 0.50033 0.87948
 C656 C -0.16390 0.47062 0.86188
 C657 C -0.13957 0.46721 0.84056
 C658 C -0.11884 0.49342 0.83605
 C659 C -0.12278 0.52315 0.85315
 C660 C -0.14664 0.52662 0.87506
 C661 C -0.17017 0.55907 0.91755
 C662 C -0.14856 0.55577 0.89346
 H663 H -0.16998 0.58160 0.93205
 H664 H -0.13238 0.57590 0.88998
 H665 H -0.20921 0.55879 0.96506
 H666 H -0.25297 0.46608 0.93836
 H667 H -0.13691 0.44403 0.82756
 H668 H -0.10639 0.54323 0.85040
 H669 H -0.21841 0.45947 0.89423
 H670 H -0.17892 0.44954 0.86485
 C671 C 0.40872 -0.00779 0.31105
 C672 C 0.42872 -0.03513 0.31258
 C673 C 0.45491 -0.03584 0.29356
 C674 C 0.46245 -0.00931 0.27308
 C675 C 0.44066 0.01609 0.26917
 C676 C 0.41445 0.01709 0.28817
 C677 C 0.38260 -0.00652 0.33415
 C678 C 0.36318 0.02108 0.33697
 C679 C 0.34051 0.02191 0.36043
 C680 C 0.33645 -0.00482 0.38143
 C681 C 0.35514 -0.03272 0.37827
 C682 C 0.37835 -0.03357 0.35526
 C683 C 0.42290 -0.06137 0.33358
 C684 C 0.39805 -0.06077 0.35422
 H685 H 0.43805 -0.08255 0.33439
 H686 H 0.39476 -0.08150 0.37032
 H687 H 0.47052 -0.05657 0.29570
 H688 H 0.44344 0.03538 0.25152
 H689 H 0.32624 0.04366 0.36234
 H690 H 0.35257 -0.05321 0.39483
 H691 H 0.39897 0.03754 0.28458
 H692 H 0.36561 0.04257 0.32189
 C693 C 0.17837 0.48497 0.92686
 C694 C 0.19067 0.51639 0.93560
 C695 C 0.21348 0.51928 0.96018
 C696 C 0.22524 0.49118 0.97614
 C697 C 0.21204 0.46017 0.96791
 C698 C 0.18941 0.45699 0.94345
 C699 C 0.15330 0.48311 0.90116
 C700 C 0.13939 0.45308 0.89075
 C701 C 0.11551 0.45282 0.86743
 C702 C 0.10488 0.48242 0.85377
 C703 C 0.11900 0.51237 0.86352
 C704 C 0.14294 0.51295 0.88702
 C705 C 0.17966 0.54492 0.92031
 C706 C 0.15633 0.54324 0.89656
 H707 H 0.18908 0.56901 0.92700
 H708 H 0.14847 0.56608 0.88566
 H709 H 0.22148 0.54375 0.96748
 H710 H 0.21884 0.43816 0.98093
 H711 H 0.10490 0.42938 0.86055
 H712 H 0.11141 0.53536 0.85270
 H713 H 0.18044 0.43248 0.93846
 H714 H 0.14641 0.42954 0.90041
 C715 C 0.57073 -0.01389 0.32635
 C716 C 0.57608 -0.01775 0.29285
 C717 C 0.55125 -0.01670 0.27021
 C718 C 0.52079 -0.01195 0.28040
 C719 C 0.51675 -0.00449 0.31362
 C720 C 0.54099 -0.00603 0.33613
 C721 C 0.59719 -0.01678 0.35002
 C722 C 0.59325 -0.01716 0.38384
 C723 C 0.61854 -0.01914 0.40509
 C724 C 0.64844 -0.02082 0.39333
 C725 C 0.65267 -0.02133 0.35961
 C726 C 0.62717 -0.02000 0.33789
 C727 C 0.60623 -0.02200 0.28228
 C728 C 0.63128 -0.02240 0.30427
 H729 H 0.61058 -0.02456 0.25660
 H730 H 0.65417 -0.02521 0.29485
 H731 H 0.55553 -0.01981 0.24456
 H732 H 0.49488 0.00322 0.32283
 H733 H 0.61471 -0.01871 0.43098
 H734 H 0.67572 -0.02323 0.35036
 H735 H 0.53603 -0.00015 0.36103
 H736 H 0.57084 -0.01623 0.39443
 C737 C 0.81684 0.51699 0.07322
 C738 C 0.82683 0.50922 0.04171
 C739 C 0.80575 0.50760 0.01561
 C740 C 0.77457 0.51621 0.01914
 C741 C 0.76465 0.52287 0.05085
 C742 C 0.78539 0.52350 0.07741
 C743 C 0.84037 0.51779 0.10051
 C744 C 0.83285 0.52286 0.13330
 C745 C 0.85583 0.52315 0.15770
 C746 C 0.88673 0.51909 0.14981
 C747 C 0.89444 0.51396 0.11744
 C748 C 0.87161 0.51267 0.09294
 C749 C 0.85795 0.50339 0.03611
 C750 C 0.87993 0.50564 0.06107
 H751 H 0.86555 0.49757 0.01186
 H752 H 0.90379 0.50140 0.05539
 H753 H 0.81422 0.49924 -0.00747
 H754 H 0.74065 0.52791 0.05504
 H755 H 0.84956 0.52683 0.18275
 H756 H 0.91832 0.51008 0.11148
 H757 H 0.77639 0.52942 0.10091
 H758 H 0.80943 0.52625 0.14060
 C759 C 0.41719 0.01732 0.68596
 C760 C 0.43892 0.04330 0.68376
 C761 C 0.46516 0.04382 0.70422
 C762 C 0.47084 0.01840 0.72686
 C763 C 0.44719 -0.00509 0.73133
 C764 C 0.42105 -0.00592 0.71093
 C765 C 0.39107 0.01577 0.66154
 C766 C 0.37038 -0.01122 0.65917
 C767 C 0.34753 -0.01244 0.63478
 C768 C 0.34447 0.01332 0.61241
 C769 C 0.36455 0.04059 0.61487
 C770 C 0.38814 0.04168 0.63877
 C771 C 0.43462 0.06833 0.66083
 C772 C 0.40950 0.06781 0.63914
 H773 H 0.45106 0.08854 0.65946
 H774 H 0.40731 0.08764 0.62171
 H775 H 0.48215 0.06335 0.70162
 H776 H 0.44833 -0.02300 0.75055
 H777 H 0.33223 -0.03371 0.63326
 H778 H 0.36265 0.06027 0.59722
 H779 H 0.40409 -0.02491 0.71519
 H780 H 0.37196 -0.03202 0.67534
   
