data_POSCAR
  _audit_creation_date              2014-09-24
  _audit_creation_method            'ToBaCCo'
  _symmetry_space_group_name_H-M    'P1'
  _symmetry_Int_Tables_number       1
  _symmetry_cell_setting            triclinic
  loop_
  _symmetry_equiv_pos_as_xyz
 x,y,z
_cell_length_a 24.2328
_cell_length_b 24.0163
_cell_length_c 24.2839
_cell_angle_alpha 90.204600
_cell_angle_beta 89.746500
_cell_angle_gamma 90.277400
loop_
  _atom_site_label
  _atom_site_type_symbol
  _atom_site_fract_x
  _atom_site_fract_y
  _atom_site_fract_z
N1 N 0.10589 0.23670 0.25810
 N2 N 0.12250 0.19515 0.28888
 C3 C 0.08748 0.18934 0.33177
 C4 C 0.04710 0.22950 0.32753
 C5 C 0.06004 0.25881 0.28041
 H6 H 0.09088 0.15814 0.36355
 H7 H 0.03721 0.29314 0.26317
 Cu8 Cu 0.18730 0.15192 0.26838
 Cu9 Cu 0.14277 0.25632 0.18938
 Cu10 Cu 0.27714 0.20824 0.17858
 N11 N 0.25618 0.11496 0.24938
 N12 N 0.29090 0.13709 0.21382
 C13 C 0.33485 0.10352 0.20803
 C14 C 0.32721 0.05795 0.24165
 C15 C 0.27703 0.06650 0.26743
 H16 H 0.36965 0.11165 0.18117
 H17 H 0.25715 0.03913 0.29678
 N18 N 0.24737 0.26726 0.13135
 N19 N 0.19599 0.28494 0.13488
 C20 C 0.18760 0.32340 0.09566
 C21 C 0.23581 0.32979 0.06588
 C22 C 0.27281 0.29362 0.08942
 H23 H 0.14896 0.34448 0.08858
 H24 H 0.31478 0.28616 0.07609
 H25 H 0.19561 0.18858 0.17499
 H26 H 0.21427 0.24126 0.22857
 N27 N 0.62913 0.75684 0.76223
 N28 N 0.64578 0.71407 0.79127
 C29 C 0.60757 0.70226 0.82995
 C30 C 0.56513 0.74004 0.82516
 C31 C 0.58010 0.77411 0.78191
 H32 H 0.61098 0.66942 0.86006
 H33 H 0.55727 0.80930 0.76644
 Cu34 Cu 0.71675 0.67943 0.77743
 Cu35 Cu 0.67354 0.78788 0.70275
 Cu36 Cu 0.78832 0.71139 0.66321
 N37 N 0.77431 0.63102 0.74929
 N38 N 0.80142 0.64273 0.70373
 C39 C 0.83865 0.60238 0.69397
 C40 C 0.83457 0.56361 0.73572
 C41 C 0.79342 0.58300 0.77006
 H42 H 0.86734 0.60180 0.65972
 H43 H 0.77875 0.56365 0.80756
 N44 N 0.76102 0.77576 0.62101
 N45 N 0.71696 0.80439 0.63587
 C46 C 0.70767 0.84417 0.59815
 C47 C 0.74797 0.84080 0.55805
 C48 C 0.78109 0.79707 0.57369
 H49 H 0.67375 0.87322 0.59944
 H50 H 0.81655 0.78138 0.55148
 H51 H 0.70547 0.71074 0.68330
 H52 H 0.75079 0.75900 0.72289
 N53 N 0.37554 0.74318 0.76558
 N54 N 0.36776 0.79235 0.78823
 C55 C 0.40761 0.80186 0.82556
 C56 C 0.44202 0.75624 0.82637
 C57 C 0.42052 0.71971 0.78791
 H58 H 0.41150 0.83920 0.85028
 H59 H 0.43640 0.67910 0.77702
 Cu60 Cu 0.30629 0.83890 0.76644
 Cu61 Cu 0.32562 0.71324 0.70987
 Cu62 Cu 0.24290 0.81238 0.64744
 N63 N 0.24065 0.87969 0.74522
 N64 N 0.21651 0.86969 0.69780
 C65 C 0.17521 0.90617 0.69073
 C66 C 0.17319 0.94045 0.73640
 C67 C 0.21516 0.92263 0.77023
 H68 H 0.14950 0.90827 0.65449
 H69 H 0.22729 0.94082 0.80917
 N70 N 0.25714 0.73869 0.61512
 N71 N 0.28695 0.70026 0.63965
 C72 C 0.28866 0.65469 0.60726
 C73 C 0.25838 0.66503 0.56041
 C74 C 0.23904 0.71856 0.56666
 H75 H 0.31167 0.61737 0.61626
 H76 H 0.21419 0.74139 0.53764
 H77 H 0.32084 0.79099 0.67869
 H78 H 0.25746 0.76651 0.71538
 N79 N 0.86286 0.23618 0.27206
 N80 N 0.85369 0.28464 0.29560
 C81 C 0.89318 0.29469 0.33310
 C82 C 0.92857 0.24985 0.33338
 C83 C 0.90815 0.21332 0.29436
 H84 H 0.89586 0.33187 0.35819
 H85 H 0.92535 0.17354 0.28246
 Cu86 Cu 0.78997 0.32909 0.27661
 Cu87 Cu 0.81550 0.20769 0.21371
 Cu88 Cu 0.73841 0.31070 0.15021
 N89 N 0.73124 0.37576 0.24912
 N90 N 0.71075 0.36835 0.19960
 C91 C 0.67200 0.40718 0.19045
 C92 C 0.66809 0.44036 0.23684
 C93 C 0.70624 0.41945 0.27317
 H94 H 0.64887 0.41133 0.15270
 H95 H 0.71534 0.43533 0.31387
 N96 N 0.75465 0.23830 0.11559
 N97 N 0.78248 0.19855 0.14038
 C98 C 0.78609 0.15430 0.10641
 C99 C 0.75938 0.16694 0.05803
 C100 C 0.73960 0.22023 0.06534
 H101 H 0.80733 0.11605 0.11586
 H102 H 0.71575 0.24399 0.03622
 H103 H 0.81246 0.28749 0.18773
 H104 H 0.74605 0.26026 0.21628
 N105 N 0.87394 0.75809 0.22908
 N106 N 0.86232 0.71075 0.20433
 C107 C 0.90212 0.69950 0.16724
 C108 C 0.94029 0.74225 0.16878
 C109 C 0.92130 0.77875 0.20838
 H110 H 0.90279 0.66346 0.14041
 H111 H 0.94017 0.81771 0.22079
 Cu112 Cu 0.79483 0.67010 0.22060
 Cu113 Cu 0.82551 0.78987 0.28455
 Cu114 Cu 0.73879 0.69224 0.34535
 N115 N 0.73305 0.62596 0.24699
 N116 N 0.71121 0.63450 0.29591
 C117 C 0.67134 0.59633 0.30480
 C118 C 0.66798 0.56242 0.25885
 C119 C 0.70773 0.58225 0.22307
 H120 H 0.64739 0.59289 0.34232
 H121 H 0.71837 0.56506 0.18322
 N122 N 0.75727 0.76447 0.37969
 N123 N 0.78927 0.80198 0.35581
 C124 C 0.79390 0.84667 0.38903
 C125 C 0.76317 0.83686 0.43583
 C126 C 0.74027 0.78465 0.42865
 H127 H 0.81826 0.88341 0.38007
 H128 H 0.71326 0.76303 0.45707
 H129 H 0.81571 0.71045 0.31040
 H130 H 0.75268 0.74146 0.27926
 N131 N 0.38690 0.24698 -0.25518
 N132 N 0.36234 0.21650 -0.29333
 C133 C 0.39537 0.21332 -0.33789
 C134 C 0.44284 0.24325 -0.32734
 C135 C 0.43623 0.26419 -0.27466
 H136 H 0.38625 0.18951 -0.37467
 H137 H 0.46552 0.28934 -0.25193
 Cu138 Cu 0.29152 0.17792 -0.28157
 Cu139 Cu 0.35347 0.26183 -0.18235
 Cu140 Cu 0.23500 0.19468 -0.15684
 N141 N 0.23583 0.12685 -0.25322
 N142 N 0.21362 0.13336 -0.20417
 C143 C 0.17607 0.09290 -0.19569
 C144 C 0.17464 0.05952 -0.24193
 C145 C 0.21297 0.08209 -0.27773
 H146 H 0.15147 0.08811 -0.15875
 H147 H 0.22335 0.06714 -0.31853
 N148 N 0.25525 0.26080 -0.11571
 N149 N 0.30229 0.28670 -0.12496
 C150 C 0.30781 0.32844 -0.08820
 C151 C 0.26153 0.32874 -0.05470
 C152 C 0.22907 0.28543 -0.07327
 H153 H 0.34323 0.35587 -0.08553
 H154 H 0.18994 0.27208 -0.05614
 H155 H 0.32321 0.18271 -0.20429
 H156 H 0.28574 0.24610 -0.22740
 N157 N 0.62632 0.24225 -0.27008
 N158 N 0.63778 0.28920 -0.29544
 C159 C 0.59811 0.29959 -0.33254
 C160 C 0.56009 0.25668 -0.33046
 C161 C 0.57911 0.22098 -0.29041
 H162 H 0.59719 0.33548 -0.35930
 H163 H 0.56010 0.18245 -0.27705
 Cu164 Cu 0.70440 0.33130 -0.27928
 Cu165 Cu 0.67464 0.21197 -0.21392
 Cu166 Cu 0.76289 0.31001 -0.15613
 N167 N 0.76572 0.37669 -0.25382
 N168 N 0.78843 0.36822 -0.20556
 C169 C 0.82825 0.40651 -0.19730
 C170 C 0.83071 0.44053 -0.24292
 C171 C 0.79041 0.42066 -0.27792
 H172 H 0.85316 0.40963 -0.16057
 H173 H 0.77939 0.43762 -0.31754
 N174 N 0.74610 0.23794 -0.12150
 N175 N 0.71291 0.20041 -0.14362
 C176 C 0.70925 0.15632 -0.10967
 C177 C 0.74205 0.16654 -0.06438
 C178 C 0.76504 0.21837 -0.07335
 H179 H 0.68398 0.11984 -0.11698
 H180 H 0.79310 0.24041 -0.04639
 H181 H 0.68499 0.29152 -0.18892
 H182 H 0.74721 0.25998 -0.22193
 N183 N 0.12653 0.74291 0.23200
 N184 N 0.14354 0.78533 0.20227
 C185 C 0.10589 0.79574 0.16308
 C186 C 0.06353 0.75746 0.16841
 C187 C 0.07789 0.72455 0.21240
 H188 H 0.10937 0.82823 0.13251
 H189 H 0.05471 0.68968 0.22874
 Cu190 Cu 0.21387 0.82189 0.21648
 Cu191 Cu 0.16939 0.71383 0.29268
 Cu192 Cu 0.28351 0.79155 0.33173
 N193 N 0.27145 0.87078 0.24469
 N194 N 0.29770 0.85936 0.29051
 C195 C 0.33528 0.89953 0.30042
 C196 C 0.33256 0.93797 0.25841
 C197 C 0.29157 0.91864 0.22380
 H198 H 0.36299 0.90016 0.33518
 H199 H 0.27770 0.93785 0.18612
 N200 N 0.25514 0.72822 0.37480
 N201 N 0.21126 0.69900 0.36024
 C202 C 0.20174 0.65942 0.39829
 C203 C 0.24178 0.66374 0.43822
 C204 C 0.27488 0.70766 0.42223
 H205 H 0.16837 0.62944 0.39694
 H206 H 0.31066 0.72341 0.44382
 H207 H 0.20099 0.79168 0.31090
 H208 H 0.24674 0.74317 0.27205
 N209 N 0.50029 0.36804 0.51442
 N210 N 0.46417 0.38919 0.54911
 C211 C 0.45862 0.35504 0.59258
 C212 C 0.49323 0.31031 0.58481
 C213 C 0.51920 0.31981 0.53494
 H214 H 0.43075 0.36163 0.62687
 H215 H 0.54860 0.29290 0.51452
 Cu216 Cu 0.42533 0.45752 0.53344
 Cu217 Cu 0.51658 0.40273 0.44368
 Cu218 Cu 0.46392 0.53527 0.42564
 N219 N 0.37893 0.51644 0.50547
 N220 N 0.39400 0.54666 0.46295
 C221 C 0.35510 0.58502 0.45309
 C222 C 0.31360 0.57832 0.49155
 C223 C 0.32990 0.53459 0.52419
 H224 H 0.35727 0.61583 0.42078
 H225 H 0.30781 0.51751 0.55911
 N226 N 0.52041 0.50330 0.37731
 N227 N 0.54008 0.45255 0.38331
 C228 C 0.57715 0.44288 0.34291
 C229 C 0.58043 0.48967 0.31011
 C230 C 0.54393 0.52701 0.33294
 H231 H 0.59999 0.40465 0.33765
 H232 H 0.53488 0.56834 0.31802
 H233 H 0.50668 0.47942 0.47702
 H234 H 0.44731 0.45312 0.43549
 N235 N 0.00547 -0.12777 1.01409
 N236 N -0.03456 -0.10906 1.04567
 C237 C -0.04285 -0.14501 1.08730
 C238 C -0.00559 -0.18797 1.08157
 C239 C 0.02448 -0.17574 1.03490
 H240 H -0.07379 -0.14038 1.11916
 H241 H 0.05721 -0.20047 1.01705
 Cu242 Cu -0.07226 -0.03990 1.02944
 Cu243 Cu 0.02917 -0.08959 0.94793
 Cu244 Cu -0.03891 0.03267 0.91610
 N245 N -0.12048 0.01745 1.00080
 N246 N -0.10763 0.04539 0.95607
 C247 C -0.14711 0.08334 0.94648
 C248 C -0.18661 0.07894 0.98742
 C249 C -0.16853 0.03672 1.02117
 H250 H -0.14658 0.11274 0.91284
 H251 H -0.18863 0.02163 1.05810
 N252 N 0.02217 0.00245 0.87135
 N253 N 0.04731 -0.04468 0.88297
 C254 C 0.08640 -0.05446 0.84464
 C255 C 0.08591 -0.01143 0.80741
 C256 C 0.04480 0.02389 0.82531
 H257 H 0.11367 -0.08994 0.84405
 H258 H 0.03236 0.06232 0.80603
 H259 H 0.00750 -0.01127 0.97318
 H260 H -0.04582 -0.05042 0.93337
 N261 N 1.00244 0.63037 1.01024
 N262 N 1.03552 0.60765 1.04644
 C263 C 1.04033 0.64183 1.09017
 C264 C 1.00851 0.68826 1.08081
 C265 C 0.98495 0.67972 1.02982
 H266 H 1.06601 0.63410 1.12561
 H267 H 0.95802 0.70787 1.00814
 Cu268 Cu 1.07203 0.53751 1.03191
 Cu269 Cu 0.98730 0.59574 0.93937
 Cu270 Cu 1.03885 0.46263 0.92005
 N271 N 1.11924 0.47837 1.00481
 N272 N 1.10677 0.44930 0.96059
 C273 C 1.14601 0.41064 0.95207
 C274 C 1.18489 0.41601 0.99324
 C275 C 1.16664 0.45922 1.02596
 H276 H 1.14580 0.38042 0.91895
 H277 H 1.18634 0.47528 1.06265
 N278 N 0.98299 0.49567 0.87165
 N279 N 0.96383 0.54658 0.87864
 C280 C 0.92609 0.55687 0.83949
 C281 C 0.92154 0.51037 0.80632
 C282 C 0.95826 0.47246 0.82762
 H283 H 0.90327 0.59522 0.83557
 H284 H 0.96623 0.43097 0.81216
 H285 H 0.99408 0.51744 0.97114
 H286 H 1.05605 0.54373 0.93312
 N287 N 0.49814 0.12885 0.51507
 N288 N 0.53503 0.10802 0.54862
 C289 C 0.54115 0.14228 0.59211
 C290 C 0.50599 0.18674 0.58567
 C291 C 0.47924 0.17696 0.53642
 H292 H 0.57022 0.13611 0.62513
 H293 H 0.44969 0.20388 0.51671
 Cu294 Cu 0.57471 0.04042 0.53105
 Cu295 Cu 0.48148 0.09433 0.44426
 Cu296 Cu 0.54087 -0.03451 0.41950
 N297 N 0.62375 -0.01574 0.50124
 N298 N 0.61069 -0.04498 0.45732
 C299 C 0.65093 -0.08206 0.44702
 C300 C 0.69115 -0.07550 0.48664
 C301 C 0.67269 -0.03316 0.52036
 H302 H 0.65043 -0.11223 0.41384
 H303 H 0.69308 -0.01682 0.55655
 N304 N 0.48182 -0.00380 0.37357
 N305 N 0.45927 0.04534 0.38267
 C306 C 0.42019 0.05413 0.34442
 C307 C 0.41840 0.00855 0.30967
 C308 C 0.45809 -0.02722 0.32910
 H309 H 0.39471 0.09088 0.34203
 H310 H 0.46883 -0.06740 0.31203
 H311 H 0.49513 0.01634 0.47361
 H312 H 0.55325 0.04762 0.43342
 N313 N -0.01226 0.13270 0.49662
 N314 N -0.06357 0.12505 0.48040
 C315 C -0.07148 0.15610 0.43480
 C316 C -0.02283 0.18392 0.42239
 C317 C 0.01378 0.16794 0.46231
 H318 H -0.11075 0.16245 0.41490
 H319 H 0.05507 0.18407 0.46842
 Cu320 Cu -0.11788 0.08820 0.52994
 Cu321 Cu 0.01451 0.10433 0.56607
 Cu322 Cu -0.05327 -0.01733 0.59280
 N323 N -0.13806 0.00945 0.51479
 N324 N -0.11143 -0.03120 0.53938
 C325 C -0.13871 -0.07948 0.53189
 C326 C -0.18558 -0.06904 0.50197
 C327 C -0.18419 -0.01239 0.49200
 H328 H -0.12838 -0.11822 0.55180
 H329 H -0.21733 0.01151 0.47430
 N330 N 0.01597 0.00328 0.62974
 N331 N 0.04149 0.05086 0.61996
 C332 C 0.08442 0.05623 0.65437
 C333 C 0.08590 0.00967 0.68736
 C334 C 0.04214 -0.02317 0.67069
 H335 H 0.11111 0.09236 0.65668
 H336 H 0.02882 -0.06201 0.68894
 H337 H -0.03032 0.03785 0.53622
 H338 H -0.05587 0.06778 0.60332
 N339 N 0.50700 0.61984 -0.02362
 N340 N 0.45854 0.61100 -0.04622
 C341 C 0.44961 0.64985 -0.08485
 C342 C 0.49492 0.68470 -0.08677
 C343 C 0.53067 0.66458 -0.04745
 H344 H 0.41259 0.65302 -0.10929
 H345 H 0.57053 0.68168 -0.03647
 Cu346 Cu 0.41164 0.54981 -0.02304
 Cu347 Cu 0.53479 0.57219 0.03501
 Cu348 Cu 0.43203 0.49675 0.10213
 N349 N 0.36753 0.48802 0.00380
 N350 N 0.37522 0.46757 0.05328
 C351 C 0.33787 0.42699 0.06252
 C352 C 0.30550 0.42168 0.01615
 C353 C 0.32525 0.46099 -0.02023
 H354 H 0.33438 0.40343 0.10026
 H355 H 0.30951 0.46951 -0.06093
 N356 N 0.50499 0.51154 0.13439
 N357 N 0.54497 0.53791 0.10796
 C358 C 0.59025 0.53884 0.13993
 C359 C 0.57795 0.51198 0.18868
 C360 C 0.52369 0.49521 0.18381
 H361 H 0.62902 0.55833 0.12887
 H362 H 0.49981 0.47219 0.21387
 H363 H 0.48022 0.50396 0.03419
 H364 H 0.45674 0.57145 0.06425
 N365 N 0.49933 -0.13131 -0.01786
 N366 N 0.53879 -0.11189 -0.04985
 C367 C 0.54761 -0.14802 -0.09141
 C368 C 0.51143 -0.19208 -0.08527
 C369 C 0.48129 -0.18018 -0.03840
 H370 H 0.57784 -0.14253 -0.12385
 H371 H 0.44874 -0.20539 -0.02060
 Cu372 Cu 0.57472 -0.04134 -0.03459
 Cu373 Cu 0.47453 -0.09180 0.04785
 Cu374 Cu 0.54149 0.03262 0.07798
 N375 N 0.62325 0.01634 -0.00637
 N376 N 0.61047 0.04486 0.03814
 C377 C 0.65016 0.08306 0.04751
 C378 C 0.68970 0.07813 0.00666
 C379 C 0.67146 0.03541 -0.02681
 H380 H 0.64963 0.11310 0.08080
 H381 H 0.69139 0.02001 -0.06374
 N382 N 0.48037 0.00269 0.12307
 N383 N 0.45557 -0.04513 0.11213
 C384 C 0.41674 -0.05465 0.15084
 C385 C 0.41700 -0.01079 0.18767
 C386 C 0.45784 0.02475 0.16900
 H387 H 0.39014 -0.09088 0.15228
 H388 H 0.47054 0.06352 0.18797
 H389 H 0.49492 -0.01344 0.02191
 H390 H 0.54885 -0.05068 0.06175
 N391 N 0.98880 0.37348 0.47514
 N392 N 1.03664 0.38158 0.45059
 C393 C 1.04483 0.34066 0.41337
 C394 C 0.99961 0.30538 0.41469
 C395 C 0.96493 0.32739 0.45429
 H396 H 1.08087 0.33684 0.38722
 H397 H 0.92526 0.31098 0.46708
 Cu398 Cu 1.08234 0.44596 0.46897
 Cu399 Cu 0.96100 0.42388 0.53188
 Cu400 Cu 1.06535 0.49882 0.59559
 N401 N 1.12930 0.50601 0.49622
 N402 N 1.12180 0.52676 0.54585
 C403 C 1.15934 0.56705 0.55507
 C404 C 1.19190 0.57207 0.50873
 C405 C 1.17208 0.53259 0.47217
 H406 H 1.16286 0.59067 0.59292
 H407 H 1.18783 0.52386 0.43132
 N408 N 0.99284 0.48595 0.62954
 N409 N 0.95207 0.45989 0.60429
 C410 C 0.90719 0.46049 0.63715
 C411 C 0.92066 0.48816 0.68523
 C412 C 0.97511 0.50372 0.67907
 H413 H 0.86799 0.44142 0.62717
 H414 H 0.99982 0.52686 0.70833
 H415 H 1.01546 0.49234 0.52897
 H416 H 1.03955 0.42469 0.55761
 Si417 Si 0.37322 -0.00238 0.24958
 Si418 Si 0.13079 -0.00201 0.74687
 Si419 Si 0.62340 0.50100 0.24835
 Si420 Si 0.87663 0.50076 0.74586
 Si421 Si 0.24707 0.37396 0.00493
 Si422 Si 0.75131 0.12220 -0.00327
 Si423 Si 0.25075 0.61984 0.49945
 Si424 Si 0.75451 0.88356 0.49527
 Si425 Si -0.01251 0.24170 0.37350
 Si426 Si 0.00179 0.75016 0.12514
 Si427 Si 0.50062 0.24923 0.62980
 Si428 Si 0.50366 0.74673 0.86957
   
