data_POSCAR
  _audit_creation_date              2014-09-24
  _audit_creation_method            'ToBaCCo'
  _symmetry_space_group_name_H-M    'P1'
  _symmetry_Int_Tables_number       1
  _symmetry_cell_setting            triclinic
  loop_
  _symmetry_equiv_pos_as_xyz
 x,y,z
_cell_length_a 41.5844
_cell_length_b 41.6704
_cell_length_c 14.5763
_cell_angle_alpha 89.567400
_cell_angle_beta 90.269100
_cell_angle_gamma 120.034400
loop_
  _atom_site_label
  _atom_site_type_symbol
  _atom_site_fract_x
  _atom_site_fract_y
  _atom_site_fract_z
C1 C 0.18118 0.50419 0.41276
 C2 C 0.16784 0.50855 0.49716
 C3 C 0.18420 0.50853 0.58130
 C4 C 0.21874 0.50955 0.58058
 C5 C 0.23370 0.50618 0.49585
 C6 C 0.21544 0.50450 0.41157
 C7 C 0.23304 0.50518 0.32897
 C8 C 0.26607 0.50442 0.32850
 C9 C 0.28302 0.50290 0.41048
 C10 C 0.26753 0.50532 0.49531
 C11 C 0.24028 0.51675 0.66017
 C12 C 0.27325 0.51592 0.65963
 C13 C 0.28625 0.50787 0.57946
 C14 C 0.31889 0.50517 0.57885
 C15 C 0.33409 0.50434 0.49411
 C16 C 0.31619 0.50129 0.41055
 H17 H 0.22239 0.50780 0.26345
 H18 H 0.27879 0.50661 0.26287
 H19 H 0.23340 0.52563 0.72243
 H20 H 0.28948 0.52419 0.72150
 H21 H 0.14334 0.51132 0.49850
 H22 H 0.36062 0.50532 0.49366
 C23 C 0.49080 -0.32283 0.41292
 C24 C 0.48964 -0.34041 0.49586
 C25 C 0.49230 -0.32431 0.58153
 C26 C 0.49103 -0.29101 0.58493
 C27 C 0.49179 -0.27250 0.50182
 C28 C 0.49128 -0.28863 0.41546
 C29 C 0.48953 -0.27087 0.33526
 C30 C 0.49069 -0.23701 0.33826
 C31 C 0.49334 -0.21948 0.42195
 C32 C 0.49253 -0.23796 0.50510
 C33 C 0.48685 -0.27675 0.66810
 C34 C 0.48690 -0.24340 0.67103
 C35 C 0.49185 -0.22235 0.59136
 C36 C 0.49387 -0.18731 0.59377
 C37 C 0.49345 -0.17060 0.51027
 C38 C 0.49528 -0.18470 0.42504
 H39 H 0.48586 -0.28329 0.26923
 H40 H 0.48814 -0.22548 0.27394
 H41 H 0.48167 -0.29203 0.73160
 H42 H 0.48103 -0.23560 0.73605
 H43 H 0.48732 -0.36744 0.49284
 H44 H 0.49214 -0.14536 0.51237
 C45 C 1.18906 0.67833 0.42203
 C46 C 1.17237 0.66254 0.50595
 C47 C 1.18619 0.68035 0.59024
 C48 C 1.22098 0.71383 0.59096
 C49 C 1.23917 0.72990 0.50641
 C50 C 1.22379 0.71136 0.42220
 C51 C 1.24487 0.72502 0.34205
 C52 C 1.27803 0.75853 0.34154
 C53 C 1.29145 0.77997 0.42109
 C54 C 1.27325 0.76433 0.50593
 C55 C 1.23918 0.73075 0.67308
 C56 C 1.27260 0.76425 0.67270
 C57 C 1.28936 0.78253 0.59019
 C58 C 1.32271 0.81741 0.58883
 C59 C 1.34005 0.83162 0.50400
 C60 C 1.32402 0.81522 0.42004
 H61 H 1.23734 0.70899 0.28015
 H62 H 1.29404 0.76601 0.27935
 H63 H 1.22871 0.71767 0.73878
 H64 H 1.28568 0.77478 0.73817
 H65 H 1.14720 0.63580 0.50437
 H66 H 1.36683 0.85677 0.50221
 C67 C 0.67873 0.49653 0.58922
 C68 C 0.66119 0.49331 0.50461
 C69 C 0.67664 0.49163 0.42101
 C70 C 0.70972 0.48998 0.42194
 C71 C 0.72971 0.49623 0.50545
 C72 C 0.71493 0.50107 0.58882
 C73 C 0.73762 0.51201 0.66718
 C74 C 0.77202 0.51400 0.66692
 C75 C 0.78525 0.50506 0.58839
 C76 C 0.76489 0.49823 0.50518
 C77 C 0.72304 0.48147 0.34301
 C78 C 0.75741 0.48338 0.34274
 C79 C 0.77972 0.49374 0.42149
 C80 C 0.81597 0.49877 0.42059
 C81 C 0.83421 0.50305 0.50413
 C82 C 0.81899 0.50443 0.58847
 H83 H 0.73007 0.52099 0.72835
 H84 H 0.78881 0.52454 0.72770
 H85 H 0.70641 0.47159 0.28184
 H86 H 0.76541 0.47515 0.28117
 H87 H 0.63500 0.49304 0.50312
 H88 H 0.86132 0.50528 0.50328
 C89 C 0.50355 0.31816 0.41667
 C90 C 0.50627 0.33517 0.50086
 C91 C 0.50532 0.31836 0.58495
 C92 C 0.50692 0.28526 0.58525
 C93 C 0.50636 0.26831 0.50041
 C94 C 0.50525 0.28510 0.41585
 C95 C 0.50787 0.26944 0.33341
 C96 C 0.50947 0.23691 0.33312
 C97 C 0.50816 0.21846 0.41512
 C98 C 0.50766 0.23483 0.50009
 C99 C 0.51144 0.26990 0.66683
 C100 C 0.51234 0.23699 0.66665
 C101 C 0.50908 0.21815 0.58468
 C102 C 0.50986 0.18455 0.58366
 C103 C 0.51382 0.17126 0.49906
 C104 C 0.50976 0.18540 0.41533
 H105 H 0.51046 0.28297 0.26826
 H106 H 0.51365 0.22757 0.26793
 H107 H 0.51638 0.28402 0.73130
 H108 H 0.51777 0.22775 0.73116
 H109 H 0.50823 0.36204 0.50152
 H110 H 0.51839 0.14786 0.49811
 C111 C 0.68473 0.18474 0.41369
 C112 C 0.66911 0.16819 0.49798
 C113 C 0.68383 0.18507 0.58236
 C114 C 0.71494 0.22141 0.58290
 C115 C 0.73174 0.23889 0.49829
 C116 C 0.71593 0.22102 0.41338
 C117 C 0.73061 0.24088 0.33164
 C118 C 0.76208 0.27584 0.33172
 C119 C 0.78002 0.29269 0.41380
 C120 C 0.76378 0.27496 0.49841
 C121 C 0.72848 0.24176 0.66411
 C122 C 0.75990 0.27690 0.66421
 C123 C 0.77919 0.29338 0.58293
 C124 C 0.81179 0.32885 0.58203
 C125 C 0.82538 0.34636 0.49722
 C126 C 0.81236 0.32788 0.41402
 H127 H 0.71723 0.23071 0.26682
 H128 H 0.77092 0.29027 0.26685
 H129 H 0.71407 0.23187 0.72801
 H130 H 0.76736 0.29178 0.72802
 H131 H 0.64434 0.14104 0.49791
 H132 H 0.84865 0.37448 0.49609
 O133 O 0.95082 0.53762 -0.16224
 O134 O 0.90850 0.48647 -0.08080
 C135 C 0.91724 0.51177 -0.14330
 O136 O 1.05163 0.47473 -0.17431
 O137 O 1.09376 0.52303 -0.08545
 C138 C 1.08523 0.49933 -0.15131
 O139 O 0.94803 0.42766 -0.18179
 O140 O 0.90701 0.43320 -0.08749
 C141 C 0.91472 0.41904 -0.15700
 O142 O 1.05412 0.59039 -0.15273
 O143 O 1.09491 0.57799 -0.07511
 C144 C 1.08732 0.59690 -0.13354
 Zr145 Zr 1.00192 0.54750 -0.10679
 O146 O 1.00537 0.55775 -0.24967
 O147 O 0.99889 0.59611 -0.08447
 Zr148 Zr 1.00008 0.46526 -0.12329
 O149 O 1.00373 0.46788 -0.26819
 O150 O 0.99492 0.41205 -0.12460
 O151 O 0.96832 0.49106 -0.13394
 O152 O 1.03283 0.52222 -0.13244
 O153 O 1.05373 0.58183 0.17314
 O154 O 1.09471 0.57365 0.08483
 C155 C 1.08697 0.58946 0.15070
 O156 O 0.94819 0.42041 0.16203
 O157 O 0.90709 0.42976 0.07630
 C158 C 0.91493 0.41308 0.14039
 O159 O 1.05121 0.46627 0.15137
 O160 O 1.09353 0.51876 0.07422
 C161 C 1.08483 0.49205 0.13270
 O162 O 0.95028 0.52970 0.17778
 O163 O 0.90819 0.48276 0.08584
 C164 C 0.91670 0.50528 0.15437
 Zr165 Zr 1.00164 0.54122 0.12106
 O166 O 1.00458 0.54094 0.26608
 O167 O 0.99906 0.59071 0.12304
 Zr168 Zr 0.99986 0.45901 0.10448
 O169 O 1.00209 0.45022 0.24675
 O170 O 0.99442 0.40641 0.08054
 Zr171 Zr 0.94498 0.47622 -0.00141
 Zr172 Zr 1.05677 0.53026 -0.00074
 O173 O 1.03256 0.51502 0.13060
 O174 O 0.96808 0.48388 0.13131
 O175 O 1.03583 0.56699 0.00852
 O176 O 0.96674 0.44034 -0.01046
 O177 O 0.96878 0.53409 0.00784
 O178 O 1.03376 0.47228 -0.01034
 H179 H 1.04861 0.53125 -0.18800
 H180 H 0.94891 0.41335 -0.01351
 H181 H 1.04824 0.52122 0.18630
 H182 H 0.95179 0.54429 0.01076
 H183 H 1.01837 0.41459 -0.10050
 H184 H 1.01911 0.41045 0.06270
 H185 H 1.00119 0.47071 0.27793
 H186 H 0.98619 0.51570 0.28733
 H187 H 1.02276 0.61089 0.09813
 H188 H 1.02366 0.61580 -0.06389
 H189 H 0.99388 0.53332 -0.27987
 H190 H 0.98705 0.47676 -0.29060
 O191 O 0.41491 0.46627 0.16320
 O192 O 0.42220 0.51527 0.07449
 C193 C 0.40632 0.49111 0.13977
 O194 O 0.57763 0.52581 0.16876
 O195 O 0.56953 0.47619 0.08308
 C196 C 0.58565 0.50047 0.14746
 O197 O 0.52347 0.57490 0.17300
 O198 O 0.47521 0.56814 0.08206
 C199 C 0.49832 0.58311 0.14960
 O200 O 0.46319 0.41141 0.15618
 O201 O 0.51499 0.42168 0.07625
 C202 C 0.48909 0.40390 0.13649
 Zr203 Zr 0.45408 0.45405 0.10650
 O204 O 0.44656 0.44450 0.24940
 O205 O 0.40178 0.40582 0.08554
 Zr206 Zr 0.53568 0.53557 0.11741
 O207 O 0.53707 0.53387 0.26250
 O208 O 0.58461 0.58825 0.11611
 O209 O 0.47820 0.51082 0.12994
 O210 O 0.51054 0.47869 0.13029
 O211 O 0.46825 0.41604 -0.17038
 O212 O 0.51756 0.42396 -0.08173
 C213 C 0.49340 0.40783 -0.14656
 O214 O 0.52754 0.57851 -0.16928
 O215 O 0.47811 0.57100 -0.08307
 C216 C 0.50249 0.58696 -0.14764
 O217 O 0.58257 0.53061 -0.15835
 O218 O 0.57176 0.47846 -0.07842
 C219 C 0.58958 0.50430 -0.13906
 O220 O 0.41874 0.46998 -0.17993
 O221 O 0.42524 0.51806 -0.09056
 C222 C 0.41044 0.49505 -0.15799
 Zr223 Zr 0.45804 0.45781 -0.12167
 O224 O 0.45962 0.45604 -0.26659
 O225 O 0.40531 0.40891 -0.12025
 Zr226 Zr 0.53967 0.53938 -0.11066
 O227 O 0.54918 0.54682 -0.25352
 O228 O 0.58792 0.59162 -0.08965
 Zr229 Zr 0.46885 0.52456 -0.00339
 Zr230 Zr 0.52483 0.46887 -0.00091
 O231 O 0.51502 0.48300 -0.13315
 O232 O 0.48279 0.51517 -0.13565
 O233 O 0.46679 0.43285 -0.00751
 O234 O 0.52681 0.55968 0.00321
 O235 O 0.43374 0.46669 -0.00891
 O236 O 0.56090 0.52678 0.00480
 H237 H 0.51763 0.47008 0.18628
 H238 H 0.53658 0.58679 0.00486
 H239 H 0.52358 0.47583 -0.18856
 H240 H 0.40658 0.45692 -0.01135
 H241 H 0.60487 0.58512 0.09053
 H242 H 0.60846 0.58719 -0.07272
 H243 H 0.52779 0.52560 -0.28320
 H244 H 0.46749 0.48128 -0.28979
 H245 H 0.40856 0.38873 -0.09411
 H246 H 0.40628 0.38534 0.06981
 H247 H 0.46760 0.46604 0.27914
 H248 H 0.51182 0.52638 0.28473
 O249 O 0.47494 0.05122 0.17242
 O250 O 0.52316 0.09244 0.08129
 C251 C 0.49987 0.08449 0.14814
 O252 O 0.53437 -0.05304 0.16086
 O253 O 0.48235 -0.09447 0.08121
 C254 C 0.50830 -0.08636 0.14154
 O255 O 0.58289 0.04967 0.16982
 O256 O 0.57580 0.09158 0.08136
 C257 C 0.59132 0.08313 0.14748
 O258 O 0.41981 -0.05193 0.16928
 O259 O 0.42811 -0.09382 0.08569
 C260 C 0.41178 -0.08539 0.14902
 Zr261 Zr 0.46236 -0.00063 0.11814
 O262 O 0.45935 -0.00317 0.26319
 O263 O 0.41258 0.00113 0.10784
 Zr264 Zr 0.54368 -0.00132 0.11165
 O265 O 0.54955 -0.00399 0.25511
 O266 O 0.59609 0.00260 0.09391
 O267 O 0.51977 0.03168 0.13288
 O268 O 0.48707 -0.03272 0.13344
 O269 O 0.41606 -0.05248 -0.15566
 O270 O 0.42609 -0.09420 -0.07463
 C271 C 0.40831 -0.08592 -0.13497
 O272 O 0.58068 0.04947 -0.17442
 O273 O 0.57436 0.09145 -0.08614
 C274 C 0.58926 0.08293 -0.15272
 O275 O 0.53074 -0.05376 -0.16468
 O276 O 0.48056 -0.09476 -0.07823
 C277 C 0.50511 -0.08700 -0.14193
 O278 O 0.47203 0.05067 -0.16809
 O279 O 0.52178 0.09214 -0.08191
 C280 C 0.49755 0.08404 -0.14682
 Zr281 Zr 0.45972 -0.00090 -0.11022
 O282 O 0.45233 -0.00472 -0.25417
 O283 O 0.41139 0.00353 -0.09659
 Zr284 Zr 0.54095 -0.00173 -0.11653
 O285 O 0.54041 -0.00556 -0.26127
 O286 O 0.59353 0.00176 -0.11135
 Zr287 Zr 0.53005 0.05471 -0.00049
 Zr288 Zr 0.47329 -0.05691 0.00232
 O289 O 0.48393 -0.03315 -0.13015
 O290 O 0.51676 0.03136 -0.13288
 O291 O 0.43771 -0.03450 0.00533
 O292 O 0.56486 0.03156 -0.00349
 O293 O 0.47209 0.03229 0.00353
 O294 O 0.53128 -0.03542 -0.00195
 H295 H 0.47968 -0.04832 0.18959
 H296 H 0.59205 0.04886 -0.00472
 H297 H 0.47524 -0.04903 -0.18533
 H298 H 0.46227 0.04961 0.00397
 H299 H 0.59167 -0.02223 0.07682
 H300 H 0.58985 -0.02199 -0.08639
 H301 H 0.53237 0.01147 -0.28598
 H302 H 0.47734 0.00873 -0.28186
 H303 H 0.39237 -0.01915 -0.06495
 H304 H 0.40489 0.00183 0.17169
 H305 H 0.48463 0.01376 0.28679
 H306 H 0.53036 0.00008 0.28335
 C307 C 1.12170 0.51788 0.28111
 C308 C 1.11661 0.48512 0.34089
 C309 C 1.15877 0.49943 0.33236
 C310 C 1.16370 0.53205 0.27202
 C311 C 1.15133 0.47512 0.24643
 C312 C 1.10925 0.46126 0.25496
 C313 C 1.11421 0.49396 0.19523
 C314 C 1.15598 0.50799 0.18487
 H315 H 1.10907 0.53524 0.29552
 H316 H 1.09844 0.47445 0.40225
 H317 H 1.18634 0.56125 0.27887
 H318 H 1.16281 0.45670 0.23192
 H319 H 1.08676 0.43200 0.24747
 H320 H 1.17187 0.51720 0.11974
 C321 C 0.46633 0.62309 0.20645
 C322 C 0.46171 0.61689 0.31158
 C323 C 0.49285 0.65725 0.32752
 C324 C 0.49766 0.66380 0.22230
 C325 C 0.52202 0.64454 0.32739
 C326 C 0.49079 0.60428 0.31236
 C327 C 0.49547 0.61073 0.20829
 C328 C 0.52673 0.65081 0.22276
 H329 H 0.44321 0.61382 0.15638
 H330 H 0.43525 0.60327 0.35026
 H331 H 0.50170 0.68726 0.17810
 H332 H 0.54529 0.65335 0.37687
 H333 H 0.48794 0.57963 0.34951
 H334 H 0.55365 0.66457 0.18569
 C335 C 0.39466 -0.11315 0.31313
 C336 C 0.35534 -0.12127 0.33789
 C337 C 0.34200 -0.16326 0.33872
 C338 C 0.38132 -0.15499 0.31333
 C339 C 0.33159 -0.16543 0.23578
 C340 C 0.34550 -0.12322 0.23515
 C341 C 0.38466 -0.11537 0.21083
 C342 C 0.37139 -0.15704 0.21004
 H343 H 0.42054 -0.09121 0.34544
 H344 H 0.34882 -0.10612 0.39018
 H345 H 0.39603 -0.16805 0.34644
 H346 H 0.30568 -0.18499 0.19935
 H347 H 0.33098 -0.10986 0.20243
 H348 H 0.37822 -0.17157 0.15676
 C349 C 0.84519 0.47234 0.21767
 C350 C 0.84850 0.46989 0.32317
 C351 C 0.83794 0.50014 0.33589
 C352 C 0.83445 0.50283 0.23065
 C353 C 0.87942 0.53042 0.33064
 C354 C 0.88981 0.50005 0.31869
 C355 C 0.88638 0.50255 0.21425
 C356 C 0.87618 0.53296 0.22576
 H357 H 0.83136 0.44829 0.17074
 H358 H 0.83719 0.44420 0.36512
 H359 H 0.81325 0.50536 0.18988
 H360 H 0.89385 0.55470 0.37668
 H361 H 0.91276 0.49898 0.35518
 H362 H 0.88791 0.55903 0.18511
 C363 C 0.51348 0.39238 0.28821
 C364 C 0.48060 0.36145 0.34143
 C365 C 0.49840 0.33671 0.33178
 C366 C 0.53112 0.36764 0.27798
 C367 C 0.47658 0.32069 0.24165
 C368 C 0.45913 0.34579 0.25136
 C369 C 0.49196 0.37672 0.19824
 C370 C 0.50955 0.35213 0.18679
 H371 H 0.52857 0.42207 0.30762
 H372 H 0.46763 0.36570 0.40307
 H373 H 0.56076 0.37620 0.28862
 H374 H 0.46062 0.29104 0.22202
 H375 H 0.42940 0.33683 0.23995
 H376 H 0.52130 0.34842 0.12218
 C377 C 0.61150 0.11162 0.31079
 C378 C 0.65124 0.11952 0.33037
 C379 C 0.66513 0.16159 0.32926
 C380 C 0.62536 0.15351 0.30902
 C381 C 0.67295 0.16306 0.22495
 C382 C 0.65867 0.12079 0.22641
 C383 C 0.61914 0.11318 0.20737
 C384 C 0.63281 0.15490 0.20462
 H385 H 0.58606 0.09028 0.34616
 H386 H 0.65885 0.10460 0.38162
 H387 H 0.61211 0.16706 0.34551
 H388 H 0.69786 0.18191 0.18415
 H389 H 0.67218 0.10697 0.19176
 H390 H 0.62484 0.16927 0.15261
 C391 C 0.51943 0.11948 -0.30129
 C392 C 0.48594 0.11924 -0.34736
 C393 C 0.50571 0.16193 -0.33669
 C394 C 0.53897 0.16200 -0.28993
 C395 C 0.48649 0.15687 -0.24280
 C396 C 0.46718 0.11421 -0.25355
 C397 C 0.50061 0.11441 -0.20770
 C398 C 0.52003 0.15668 -0.19507
 H399 H 0.53286 0.10383 -0.32554
 H400 H 0.47102 0.10270 -0.40863
 H401 H 0.56844 0.18256 -0.30407
 H402 H 0.47182 0.17113 -0.21743
 H403 H 0.43756 0.09431 -0.23816
 H404 H 0.53400 0.17177 -0.13141
 C405 C 0.61406 0.50798 -0.30394
 C406 C 0.65674 0.53200 -0.30791
 C407 C 0.65904 0.49715 -0.33004
 C408 C 0.61620 0.47302 -0.32538
 C409 C 0.66152 0.48999 -0.22654
 C410 C 0.65914 0.52525 -0.20396
 C411 C 0.61661 0.50135 -0.20075
 C412 C 0.61849 0.46626 -0.22196
 H413 H 0.59431 0.51521 -0.33656
 H414 H 0.67240 0.55920 -0.34345
 H415 H 0.59795 0.45129 -0.37484
 H416 H 0.67967 0.48117 -0.19190
 H417 H 0.67667 0.54672 -0.15318
 H418 H 0.60252 0.43919 -0.18602
 C419 C 0.88005 0.35549 -0.24962
 C420 C 0.83726 0.33625 -0.23947
 C421 C 0.83433 0.34778 -0.33900
 C422 C 0.87710 0.36660 -0.34887
 C423 C 0.83821 0.38443 -0.30472
 C424 C 0.84137 0.37337 -0.20450
 C425 C 0.88372 0.39206 -0.21642
 C426 C 0.88083 0.40327 -0.31530
 H427 H 0.89759 0.34381 -0.22663
 H428 H 0.82120 0.30893 -0.20491
 H429 H 0.89253 0.36391 -0.40752
 H430 H 0.82043 0.39590 -0.32706
 H431 H 0.82695 0.37647 -0.14424
 H432 H 0.89898 0.43100 -0.34646
 C433 C 0.53340 -0.12559 -0.22255
 C434 C 0.50496 -0.16782 -0.22113
 C435 C 0.49729 -0.16612 -0.32483
 C436 C 0.52602 -0.12409 -0.32578
 C437 C 0.46613 -0.15770 -0.30164
 C438 C 0.47352 -0.15923 -0.19781
 C439 C 0.50205 -0.11757 -0.20075
 C440 C 0.49470 -0.11589 -0.30355
 H441 H 0.56118 -0.11206 -0.18947
 H442 H 0.51112 -0.18690 -0.18139
 H443 H 0.54804 -0.10910 -0.37794
 H444 H 0.43846 -0.17085 -0.33509
 H445 H 0.45185 -0.17349 -0.14454
 H446 H 0.49073 -0.09424 -0.33788
 C447 C 0.34323 0.46707 -0.23698
 C448 C 0.33004 0.49595 -0.23704
 C449 C 0.33802 0.50225 -0.34133
 C450 C 0.35070 0.47308 -0.34096
 C451 C 0.37814 0.53314 -0.32190
 C452 C 0.37060 0.52715 -0.21731
 C453 C 0.38316 0.49818 -0.21869
 C454 C 0.39082 0.50412 -0.32216
 H455 H 0.32912 0.43977 -0.20148
 H456 H 0.30528 0.49066 -0.19688
 H457 H 0.34252 0.45045 -0.39145
 H458 H 0.39216 0.55998 -0.35915
 H459 H 0.37918 0.54954 -0.16599
 H460 H 0.41583 0.50720 -0.35739
 C461 C 1.12337 0.60785 -0.28339
 C462 C 1.12090 0.63804 -0.33899
 C463 C 1.16352 0.66326 -0.32946
 C464 C 1.16581 0.63307 -0.27322
 C465 C 1.15773 0.67992 -0.24080
 C466 C 1.11514 0.65429 -0.25037
 C467 C 1.11751 0.62406 -0.19482
 C468 C 1.15974 0.64919 -0.18344
 H469 H 1.10890 0.57802 -0.30122
 H470 H 1.10322 0.63298 -0.40061
 H471 H 1.18700 0.62462 -0.28222
 H472 H 1.17095 0.70968 -0.22263
 H473 H 1.09418 0.66302 -0.24050
 H474 H 1.17544 0.65367 -0.11851
 C475 C 0.85002 0.47438 -0.22453
 C476 C 0.83099 0.49828 -0.22739
 C477 C 0.83970 0.50542 -0.33111
 C478 C 0.85818 0.48112 -0.32807
 C479 C 0.87727 0.54017 -0.31012
 C480 C 0.86904 0.53341 -0.20593
 C481 C 0.88739 0.50933 -0.20460
 C482 C 0.89570 0.51597 -0.30781
 H483 H 0.83910 0.44733 -0.18859
 H484 H 0.80451 0.48951 -0.19079
 H485 H 0.85403 0.45955 -0.37850
 H486 H 0.88861 0.56738 -0.34551
 H487 H 0.87375 0.55492 -0.15472
 H488 H 0.92239 0.52306 -0.34134
 C489 C 0.52130 0.36299 -0.19638
 C490 C 0.48837 0.32549 -0.23044
 C491 C 0.50145 0.33737 -0.33053
 C492 C 0.53410 0.37440 -0.29705
 C493 C 0.47652 0.35511 -0.33768
 C494 C 0.46375 0.34364 -0.23786
 C495 C 0.49655 0.38053 -0.20546
 C496 C 0.50934 0.39212 -0.30495
 H497 H 0.53970 0.36650 -0.13732
 H498 H 0.47826 0.29812 -0.19691
 H499 H 0.56317 0.38676 -0.32143
 H500 H 0.45753 0.35194 -0.39514
 H501 H 0.43472 0.33121 -0.21297
 H502 H 0.51800 0.41976 -0.33557
 C503 C 0.62979 0.15460 -0.21208
 C504 C 0.67042 0.16369 -0.22859
 C505 C 0.66360 0.16197 -0.33350
 C506 C 0.62333 0.15297 -0.31712
 C507 C 0.65064 0.12010 -0.33236
 C508 C 0.65709 0.12162 -0.22780
 C509 C 0.61708 0.11308 -0.21264
 C510 C 0.61042 0.11128 -0.31664
 H511 H 0.62078 0.16855 -0.16227
 H512 H 0.69476 0.18308 -0.18697
 H513 H 0.60978 0.16589 -0.35614
 H514 H 0.65929 0.10557 -0.38137
 H515 H 0.67073 0.10833 -0.19039
 H516 H 0.58559 0.08951 -0.35288
 C517 C 1.11361 0.50994 -0.31442
 C518 C 1.15575 0.53766 -0.31353
 C519 C 1.16304 0.50595 -0.33778
 C520 C 1.12074 0.47808 -0.33795
 C521 C 1.16476 0.49772 -0.23454
 C522 C 1.15731 0.52974 -0.20990
 C523 C 1.11534 0.50208 -0.21189
 C524 C 1.12227 0.47019 -0.23504
 H525 H 1.09223 0.51462 -0.34770
 H526 H 1.16947 0.56537 -0.34689
 H527 H 1.10521 0.45645 -0.39023
 H528 H 1.18381 0.49087 -0.19697
 H529 H 1.17214 0.55106 -0.15654
 H530 H 1.10819 0.44234 -0.20223
 C531 C 0.48223 0.63888 -0.19671
 C532 C 0.51618 0.67135 -0.24639
 C533 C 0.49619 0.65689 -0.33935
 C534 C 0.46251 0.62500 -0.29070
 C535 C 0.51439 0.63250 -0.34917
 C536 C 0.53393 0.64653 -0.25622
 C537 C 0.50008 0.61454 -0.20850
 C538 C 0.48048 0.60053 -0.30122
 H539 H 0.46908 0.64124 -0.13297
 H540 H 0.53177 0.70058 -0.22322
 H541 H 0.43325 0.61721 -0.30409
 H542 H 0.52875 0.62954 -0.40982
 H543 H 0.56339 0.65527 -0.24146
 H544 H 0.46601 0.57125 -0.32396
 C545 C 0.35069 -0.11227 -0.24989
 C546 C 0.36641 -0.11796 -0.33962
 C547 C 0.34042 -0.16044 -0.33080
 C548 C 0.32432 -0.15469 -0.24097
 C549 C 0.37038 -0.16379 -0.27624
 C550 C 0.39638 -0.12149 -0.28574
 C551 C 0.38072 -0.11566 -0.19605
 C552 C 0.35483 -0.15776 -0.18531
 H553 H 0.34258 -0.09096 -0.23860
 H554 H 0.37170 -0.09975 -0.40038
 H555 H 0.29458 -0.16742 -0.22192
 H556 H 0.37811 -0.18540 -0.28680
 H557 H 0.42621 -0.10760 -0.30449
 H558 H 0.35020 -0.17386 -0.12090
 C559 C 0.48171 -0.12351 0.29061
 C560 C 0.46717 -0.16547 0.28119
 C561 C 0.49982 -0.16098 0.34073
 C562 C 0.51445 -0.11894 0.34965
 C563 C 0.52395 -0.15359 0.25422
 C564 C 0.49112 -0.15776 0.19352
 C565 C 0.50554 -0.11605 0.20427
 C566 C 0.53825 -0.11158 0.26321
 H567 H 0.46464 -0.11061 0.30569
 H568 H 0.43789 -0.18797 0.28868
 H569 H 0.52525 -0.10101 0.41105
 H570 H 0.54192 -0.16559 0.23934
 H571 H 0.48169 -0.17342 0.12835
 H572 H 0.56765 -0.08933 0.25536
 C573 C 0.35638 0.51375 0.18664
 C574 C 0.32169 0.47976 0.22953
 C575 C 0.33484 0.49673 0.32592
 C576 C 0.36901 0.53045 0.28372
 C577 C 0.35702 0.47613 0.33594
 C578 C 0.34426 0.45952 0.23977
 C579 C 0.37844 0.49343 0.19881
 C580 C 0.39122 0.51008 0.29471
 H581 H 0.35644 0.52925 0.12432
 H582 H 0.29311 0.46599 0.20102
 H583 H 0.37814 0.55959 0.30122
 H584 H 0.35738 0.45972 0.39590
 H585 H 0.33425 0.43023 0.22111
 H586 H 0.42001 0.52260 0.32162
 C587 C 1.11539 0.60677 0.31465
 C588 C 1.15710 0.61918 0.31412
 C589 C 1.16641 0.65897 0.33686
 C590 C 1.12457 0.64653 0.33678
 C591 C 1.16850 0.66844 0.23326
 C592 C 1.15906 0.62824 0.21017
 C593 C 1.11753 0.61598 0.21175
 C594 C 1.12646 0.65556 0.23349
 H595 H 1.09318 0.58143 0.34854
 H596 H 1.16972 0.60425 0.34827
 H597 H 1.11003 0.65401 0.38873
 H598 H 1.18856 0.69368 0.19508
 H599 H 1.17304 0.62043 0.15744
 H600 H 1.11354 0.67034 0.19983
 C601 C 0.52298 0.15725 0.19291
 C602 C 0.48889 0.15799 0.23437
 C603 C 0.50597 0.16239 0.33118
 C604 C 0.53977 0.16191 0.29048
 C605 C 0.48538 0.11970 0.34250
 C606 C 0.46869 0.11529 0.24595
 C607 C 0.50268 0.11496 0.20641
 C608 C 0.51942 0.11938 0.30271
 H609 H 0.53846 0.17236 0.13042
 H610 H 0.47504 0.17248 0.20431
 H611 H 0.56888 0.18227 0.30842
 H612 H 0.46915 0.10338 0.40301
 H613 H 0.43934 0.09580 0.22714
 H614 H 0.53192 0.10330 0.33094
 C615 C 0.60411 0.49151 0.31176
 C616 C 0.61693 0.46264 0.31400
 C617 C 0.65675 0.49371 0.33534
 C618 C 0.64391 0.52270 0.33248
 C619 C 0.66577 0.49995 0.23155
 C620 C 0.62549 0.46859 0.20982
 C621 C 0.61285 0.49750 0.20863
 C622 C 0.65249 0.52873 0.22897
 H623 H 0.57864 0.48824 0.34493
 H624 H 0.60245 0.43560 0.35045
 H625 H 0.65147 0.54528 0.38276
 H626 H 0.69105 0.50491 0.19428
 H627 H 0.61760 0.44626 0.15867
 H628 H 0.66690 0.55601 0.19340
 C629 C 0.84234 0.36333 0.18663
 C630 C 0.84214 0.33068 0.23989
 C631 C 0.83639 0.34626 0.33038
 C632 C 0.83636 0.37843 0.27814
 C633 C 0.87899 0.36963 0.34328
 C634 C 0.88476 0.35445 0.25280
 C635 C 0.88453 0.38658 0.20130
 C636 C 0.87883 0.40185 0.29154
 H637 H 0.82764 0.36097 0.12109
 H638 H 0.82804 0.30133 0.21764
 H639 H 0.81574 0.38755 0.28802
 H640 H 0.89501 0.37243 0.40680
 H641 H 0.90490 0.34475 0.24182
 H642 H 0.89443 0.43131 0.31279
   
