data_POSCAR
  _audit_creation_date              2014-09-24
  _audit_creation_method            'ToBaCCo'
  _symmetry_space_group_name_H-M    'P1'
  _symmetry_Int_Tables_number       1
  _symmetry_cell_setting            triclinic
  loop_
  _symmetry_equiv_pos_as_xyz
 x,y,z
_cell_length_a 42.4700
_cell_length_b 42.0814
_cell_length_c 15.1615
_cell_angle_alpha 90.003000
_cell_angle_beta 89.975000
_cell_angle_gamma 120.046100
loop_
  _atom_site_label
  _atom_site_type_symbol
  _atom_site_fract_x
  _atom_site_fract_y
  _atom_site_fract_z
O1 O 0.19605 0.45217 0.40031
 O2 O 0.25246 0.44856 0.58045
 O3 O 0.19130 0.44897 0.57171
 O4 O 0.25564 0.44885 0.41210
 O5 O 0.28652 0.50951 0.41406
 O6 O 0.22329 0.50932 0.58162
 O7 O 0.28446 0.50875 0.58334
 O8 O 0.22542 0.51223 0.40989
 Cu9 Cu 0.22049 0.44364 0.49059
 Cu10 Cu 0.25782 0.51608 0.49700
 C11 C 0.20067 0.48299 0.37473
 C12 C 0.27894 0.47787 0.61131
 C13 C 0.19643 0.47878 0.60537
 C14 C 0.28285 0.47904 0.38876
 O15 O 0.55307 -0.24688 0.40122
 O16 O 0.55150 -0.18895 0.58005
 O17 O 0.55440 -0.24908 0.57263
 O18 O 0.54504 -0.18885 0.41144
 O19 O 0.48587 -0.22560 0.41225
 O20 O 0.49496 -0.28188 0.58300
 O21 O 0.49162 -0.22141 0.58286
 O22 O 0.49395 -0.28296 0.41147
 Cu23 Cu 0.55696 -0.21517 0.49016
 Cu24 Cu 0.48567 -0.25646 0.49815
 C25 C 0.52416 -0.27516 0.37585
 C26 C 0.52135 -0.19462 0.61095
 C27 C 0.52619 -0.27566 0.60687
 C28 C 0.51350 -0.19656 0.38554
 O29 O 1.25169 0.80030 0.41072
 O30 O 1.19105 0.74190 0.58722
 O31 O 1.25629 0.80082 0.57920
 O32 O 1.18942 0.73966 0.41506
 O33 O 1.21737 0.70747 0.40885
 O34 O 1.28008 0.76479 0.58206
 O35 O 1.21521 0.70645 0.58075
 O36 O 1.27995 0.76818 0.41205
 Cu37 Cu 1.21916 0.77378 0.49891
 Cu38 Cu 1.25060 0.73318 0.49583
 C39 C 1.27685 0.79490 0.38349
 C40 C 1.19210 0.71389 0.61406
 C41 C 1.28056 0.79386 0.60610
 C42 C 1.19251 0.71351 0.38256
 O43 O 0.74233 0.54721 0.57008
 O44 O 0.80106 0.53778 0.40595
 O45 O 0.74209 0.54319 0.39836
 O46 O 0.80127 0.54268 0.57437
 O47 O 0.76848 0.48230 0.58275
 O48 O 0.70709 0.48311 0.41231
 O49 O 0.76589 0.47768 0.41200
 O50 O 0.70959 0.48723 0.58222
 Cu51 Cu 0.77490 0.54879 0.48587
 Cu52 Cu 0.73437 0.47652 0.49788
 C53 C 0.71606 0.51898 0.60538
 C54 C 0.79417 0.50587 0.38343
 C55 C 0.71401 0.51327 0.37696
 C56 C 0.79543 0.51254 0.60782
 O57 O 0.44078 0.19020 0.58314
 O58 O 0.43535 0.25252 0.42155
 O59 O 0.43586 0.19013 0.41083
 O60 O 0.44156 0.25180 0.58931
 O61 O 0.50140 0.28221 0.57908
 O62 O 0.49563 0.22016 0.40019
 O63 O 0.49527 0.28271 0.40965
 O64 O 0.50019 0.21997 0.57144
 Cu65 Cu 0.43234 0.21781 0.50146
 Cu66 Cu 0.50410 0.25407 0.48818
 C67 C 0.47148 0.19481 0.60723
 C68 C 0.46450 0.27917 0.39127
 C69 C 0.46481 0.19433 0.37539
 C70 C 0.47230 0.27771 0.61444
 O71 O 0.72938 0.19298 0.41086
 O72 O 0.79877 0.25057 0.57416
 O73 O 0.73408 0.19379 0.57942
 O74 O 0.79585 0.24978 0.40277
 O75 O 0.77428 0.28771 0.41101
 O76 O 0.70949 0.22922 0.58328
 O77 O 0.77487 0.28618 0.58267
 O78 O 0.70803 0.23107 0.41248
 Cu79 Cu 0.76697 0.21824 0.49056
 Cu80 Cu 0.73949 0.26237 0.49746
 C81 C 0.70597 0.20149 0.38608
 C82 C 0.79842 0.27794 0.60827
 C83 C 0.71109 0.20156 0.61108
 C84 C 0.79616 0.27870 0.37766
 N85 N 1.03294 0.54781 0.15081
 N86 N 1.05947 0.56709 0.20682
 N87 N 0.95464 0.52703 0.09265
 N88 N 0.92446 0.52853 0.10329
 N89 N 0.95709 0.50632 0.15377
 N90 N 0.92917 0.49362 0.20784
 N91 N 1.03154 0.56917 0.08993
 N92 N 1.05749 0.60346 0.10227
 C93 C 1.07462 0.60196 0.17608
 C94 C 0.90862 0.50711 0.17528
 N95 N 0.95547 0.50690 -0.16013
 N96 N 0.92987 0.49957 -0.21924
 N97 N 1.03092 0.56933 -0.09947
 N98 N 1.05699 0.60360 -0.11232
 N99 N 1.03179 0.54790 -0.16117
 N100 N 1.05815 0.56706 -0.21802
 N101 N 0.95426 0.52762 -0.09712
 N102 N 0.92764 0.53452 -0.11110
 Mn103 Mn 0.99278 0.54868 -0.00345
 C104 C 0.91273 0.51718 -0.18797
 C105 C 1.07355 0.60193 -0.18727
 N106 N 0.96010 0.43986 0.15231
 N107 N 0.93246 0.42158 0.20648
 N108 N 1.03697 0.45925 0.08904
 N109 N 1.06553 0.45498 0.09957
 N110 N 1.03667 0.48149 0.14929
 N111 N 1.06503 0.49318 0.20203
 N112 N 0.96032 0.41811 0.09057
 N113 N 0.93289 0.38431 0.10118
 Mn114 Mn 0.99679 0.49389 0.15244
 C115 C 0.91586 0.38710 0.17373
 C116 C 1.08289 0.47659 0.16993
 N117 N 1.03472 0.48066 -0.16228
 N118 N 1.06038 0.48859 -0.22161
 N119 N 0.95947 0.41823 -0.09987
 N120 N 0.93363 0.38395 -0.11401
 N121 N 0.95860 0.43998 -0.16076
 N122 N 0.93237 0.42116 -0.21790
 N123 N 1.03596 0.45945 -0.10054
 N124 N 1.06275 0.45293 -0.11547
 Mn125 Mn 0.99518 0.49387 -0.16209
 Mn126 Mn 0.99814 0.43832 -0.00521
 Cl127 Cl 0.99572 0.49369 -0.00469
 C128 C 1.07759 0.47087 -0.19176
 C129 C 0.91714 0.38618 -0.18844
 N130 N 0.46282 0.42898 0.09041
 N131 N 0.45248 0.39451 0.11001
 N132 N 0.44925 0.49187 0.14852
 N133 N 0.43181 0.50009 0.20789
 N134 N 0.42669 0.46976 0.08833
 N135 N 0.39318 0.46244 0.10494
 N136 N 0.48514 0.45124 0.15064
 N137 N 0.49058 0.43265 0.21285
 C138 C 0.47023 0.39736 0.18642
 C139 C 0.39706 0.48203 0.17897
 N140 N 0.53993 0.58030 0.08513
 N141 N 0.54806 0.61461 0.09827
 N142 N 0.55382 0.51786 0.14754
 N143 N 0.57032 0.50598 0.20033
 N144 N 0.57627 0.53964 0.08697
 N145 N 0.60887 0.54350 0.09790
 N146 N 0.51808 0.55890 0.14713
 N147 N 0.51098 0.57808 0.20447
 Mn148 Mn 0.50159 0.50501 0.14925
 C149 C 0.53008 0.61293 0.17363
 C150 C 0.60474 0.52199 0.16862
 N151 N 0.42599 0.46823 -0.10139
 N152 N 0.39211 0.45968 -0.11738
 N153 N 0.48407 0.44909 -0.16238
 N154 N 0.49046 0.42940 -0.21978
 N155 N 0.46262 0.42805 -0.09925
 N156 N 0.45436 0.39372 -0.11140
 N157 N 0.44778 0.48954 -0.16381
 N158 N 0.42915 0.49592 -0.22418
 Mn159 Mn 0.44420 0.44842 -0.00552
 C160 C 0.39438 0.47698 -0.19436
 C161 C 0.47152 0.39470 -0.18744
 N162 N 0.57574 0.53857 -0.10306
 N163 N 0.60932 0.54606 -0.11875
 N164 N 0.51731 0.55714 -0.16543
 N165 N 0.51085 0.57610 -0.22474
 N166 N 0.53965 0.57904 -0.10460
 N167 N 0.54885 0.61341 -0.12066
 N168 N 0.55350 0.51674 -0.16417
 N169 N 0.57150 0.50899 -0.22330
 Mn170 Mn 0.55827 0.55976 -0.00889
 Mn171 Mn 0.50067 0.50315 -0.16504
 Cl172 Cl 0.50116 0.50409 -0.00772
 C173 C 0.60636 0.52764 -0.19430
 C174 C 0.53090 0.61120 -0.19617
 N175 N 0.41574 -0.04323 0.08592
 N176 N 0.38306 -0.07215 0.09848
 N177 N 0.47245 0.03573 0.14693
 N178 N 0.48014 0.06308 0.20146
 N179 N 0.45025 0.03414 0.08454
 N180 N 0.44220 0.06045 0.09496
 N181 N 0.43809 -0.04128 0.14814
 N182 N 0.42146 -0.06872 0.20402
 C183 C 0.38721 -0.08810 0.17209
 C184 C 0.46120 0.07823 0.16800
 N185 N 0.56544 0.04135 0.09468
 N186 N 0.59737 0.07136 0.10584
 N187 N 0.50734 -0.03696 0.15401
 N188 N 0.49568 -0.06595 0.20520
 N189 N 0.53035 -0.03621 0.09514
 N190 N 0.53499 -0.06482 0.10485
 N191 N 0.54202 0.03992 0.15319
 N192 N 0.55735 0.06855 0.20610
 Mn193 Mn 0.49002 -0.00058 0.15146
 C194 C 0.59178 0.08830 0.17528
 C195 C 0.51288 -0.08324 0.17355
 N196 N 0.45272 0.03408 -0.10581
 N197 N 0.44644 0.06152 -0.11786
 N198 N 0.44181 -0.04102 -0.16399
 N199 N 0.42688 -0.06959 -0.21700
 N200 N 0.41831 -0.04333 -0.10445
 N201 N 0.38676 -0.07384 -0.11520
 N202 N 0.47669 0.03585 -0.16337
 N203 N 0.48747 0.06444 -0.21569
 Mn204 Mn 0.43370 -0.00467 -0.01012
 C205 C 0.46851 0.08026 -0.18636
 C206 C 0.39269 -0.09017 -0.18541
 N207 N 0.53281 -0.03623 -0.09492
 N208 N 0.54035 -0.06290 -0.10554
 N209 N 0.54639 0.03987 -0.15790
 N210 N 0.56479 0.06645 -0.21534
 N211 N 0.56778 0.04113 -0.09404
 N212 N 0.60102 0.06888 -0.10556
 N213 N 0.51110 -0.03720 -0.15784
 N214 N 0.50319 -0.06448 -0.21279
 Mn215 Mn 0.54955 0.00249 0.00034
 Mn216 Mn 0.49398 -0.00055 -0.16177
 Cl217 Cl 0.49180 -0.00081 -0.00506
 C218 C 0.52143 -0.08032 -0.17906
 C219 C 0.59907 0.08436 -0.18203
 C220 C 1.17797 0.51681 0.27216
 C221 C 1.17508 0.48394 0.30781
 C222 C 1.14436 0.45013 0.28542
 C223 C 1.11581 0.44838 0.23667
 C224 C 1.11627 0.48033 0.21012
 C225 C 1.14768 0.51488 0.22581
 C226 C 1.21006 0.55146 0.27925
 C227 C 1.21141 0.58323 0.24759
 C228 C 1.18137 0.58134 0.20607
 C229 C 1.14996 0.54754 0.19403
 H230 H 1.23507 0.55477 0.30541
 H231 H 1.23617 0.60947 0.25413
 H232 H 1.18273 0.60611 0.18114
 H233 H 1.12784 0.54728 0.15808
 H234 H 1.14142 0.42448 0.30893
 H235 H 1.09216 0.42176 0.22390
 C236 C 0.55715 0.70975 0.26024
 C237 C 0.52569 0.70077 0.31254
 C238 C 0.49595 0.66481 0.30745
 C239 C 0.49817 0.63752 0.26104
 C240 C 0.53011 0.64463 0.21740
 C241 C 0.56021 0.68112 0.21706
 C242 C 0.58531 0.74649 0.24726
 C243 C 0.61714 0.75446 0.20285
 C244 C 0.62169 0.72626 0.16979
 C245 C 0.59364 0.68998 0.17652
 H246 H 0.58279 0.76964 0.26799
 H247 H 0.63850 0.78271 0.19447
 H248 H 0.64688 0.73256 0.13738
 H249 H 0.59902 0.66937 0.15050
 H250 H 0.47107 0.65685 0.34361
 H251 H 0.47465 0.61010 0.26100
 C252 C 0.30022 -0.17910 0.23083
 C253 C 0.30447 -0.17802 0.32353
 C254 C 0.33520 -0.14906 0.36239
 C255 C 0.36131 -0.12071 0.31140
 C256 C 0.35787 -0.12032 0.21933
 C257 C 0.32741 -0.15031 0.17770
 C258 C 0.26971 -0.20843 0.18985
 C259 C 0.26620 -0.20991 0.09832
 C260 C 0.29313 -0.18257 0.04616
 C261 C 0.32356 -0.15317 0.08504
 H262 H 0.24861 -0.23057 0.22817
 H263 H 0.24269 -0.23263 0.06763
 H264 H 0.29054 -0.18425 -0.02497
 H265 H 0.34405 -0.13342 0.04133
 H266 H 0.33867 -0.14797 0.43339
 H267 H 0.38430 -0.09846 0.34496
 C268 C 0.82851 0.47326 0.33560
 C269 C 0.82008 0.50184 0.32529
 C270 C 0.83814 0.52857 0.26003
 C271 C 0.86519 0.52856 0.20818
 C272 C 0.87465 0.50132 0.21825
 C273 C 0.85427 0.47180 0.27775
 C274 C 0.81319 0.44676 0.40382
 C275 C 0.82007 0.41775 0.40915
 C276 C 0.84224 0.41437 0.34717
 C277 C 0.85904 0.44090 0.28184
 H278 H 0.79642 0.44815 0.45520
 H279 H 0.80787 0.39760 0.46131
 H280 H 0.84686 0.39135 0.35054
 H281 H 0.87511 0.43638 0.23384
 H282 H 0.83208 0.55049 0.25093
 H283 H 0.87992 0.55103 0.16245
 C284 C 0.45337 0.33254 0.37973
 C285 C 0.46282 0.30797 0.33959
 C286 C 0.47257 0.31221 0.25039
 C287 C 0.47333 0.34049 0.20067
 C288 C 0.46533 0.36583 0.23951
 C289 C 0.45469 0.36174 0.32940
 C290 C 0.44335 0.32920 0.46956
 C291 C 0.43500 0.35396 0.50903
 C292 C 0.43578 0.38216 0.45963
 C293 C 0.44500 0.38584 0.37045
 H294 H 0.44180 0.30750 0.51016
 H295 H 0.42768 0.35111 0.57819
 H296 H 0.42912 0.40121 0.49056
 H297 H 0.44416 0.40755 0.33440
 H298 H 0.47995 0.29366 0.21927
 H299 H 0.48150 0.34341 0.13207
 C300 C 0.63992 0.17048 0.33122
 C301 C 0.67594 0.17611 0.32689
 C302 C 0.68356 0.15569 0.26623
 C303 C 0.65638 0.12894 0.21376
 C304 C 0.62060 0.12204 0.21852
 C305 C 0.61273 0.14478 0.27267
 C306 C 0.62958 0.18855 0.39388
 C307 C 0.59489 0.18439 0.39269
 C308 C 0.56970 0.16219 0.32978
 C309 C 0.57839 0.14254 0.27026
 H310 H 0.64741 0.20550 0.44568
 H311 H 0.58762 0.19875 0.44051
 H312 H 0.54313 0.15979 0.32788
 H313 H 0.55816 0.12629 0.22145
 H314 H 0.71074 0.15962 0.26126
 H315 H 0.66319 0.11238 0.17191
 C316 C 0.50591 0.17532 -0.29093
 C317 C 0.47296 0.17083 -0.32903
 C318 C 0.43983 0.13949 -0.30499
 C319 C 0.43897 0.11152 -0.25457
 C320 C 0.47107 0.11333 -0.22676
 C321 C 0.50481 0.14567 -0.24205
 C322 C 0.53970 0.20860 -0.29632
 C323 C 0.57138 0.21151 -0.26124
 C324 C 0.57029 0.18204 -0.21741
 C325 C 0.53736 0.14960 -0.20662
 H326 H 0.54239 0.23350 -0.32323
 H327 H 0.59687 0.23714 -0.26659
 H328 H 0.59494 0.18466 -0.18945
 H329 H 0.53765 0.12810 -0.16821
 H330 H 0.41400 0.13533 -0.32892
 H331 H 0.41295 0.08720 -0.24155
 C332 C 0.70084 0.55589 -0.29056
 C333 C 0.69252 0.52237 -0.33390
 C334 C 0.65764 0.49162 -0.32170
 C335 C 0.63064 0.49424 -0.27632
 C336 C 0.63715 0.52751 -0.24010
 C337 C 0.67247 0.55890 -0.24730
 C338 C 0.73673 0.58617 -0.28598
 C339 C 0.74382 0.61937 -0.24882
 C340 C 0.71558 0.62329 -0.21502
 C341 C 0.68026 0.59350 -0.21407
 H342 H 0.76002 0.58450 -0.30782
 H343 H 0.77142 0.64227 -0.24662
 H344 H 0.72112 0.64943 -0.18817
 H345 H 0.65941 0.59832 -0.18793
 H346 H 0.65022 0.46536 -0.35141
 H347 H 0.60404 0.46988 -0.27041
 C348 C 0.84958 0.29141 -0.28648
 C349 C 0.82515 0.30065 -0.32927
 C350 C 0.82975 0.33573 -0.31404
 C351 C 0.85920 0.36219 -0.26691
 C352 C 0.88549 0.35505 -0.23211
 C353 C 0.88092 0.31939 -0.24149
 C354 C 0.84343 0.25506 -0.28449
 C355 C 0.86895 0.24728 -0.24825
 C356 C 0.90101 0.27522 -0.21257
 C357 C 0.90703 0.31090 -0.20889
 H358 H 0.81852 0.23185 -0.30750
 H359 H 0.86384 0.21936 -0.24807
 H360 H 0.92108 0.26912 -0.18623
 H361 H 0.93248 0.33146 -0.18083
 H362 H 0.81145 0.34384 -0.34264
 H363 H 0.86187 0.38905 -0.25926
 C364 C 0.49501 -0.17697 -0.25720
 C365 C 0.52148 -0.16782 -0.32477
 C366 C 0.54867 -0.13093 -0.33555
 C367 C 0.54897 -0.10324 -0.28502
 C368 C 0.52219 -0.11135 -0.22166
 C369 C 0.49522 -0.14831 -0.20607
 C370 C 0.46866 -0.21371 -0.23800
 C371 C 0.44235 -0.22185 -0.17316
 C372 C 0.44202 -0.19380 -0.12531
 C373 C 0.46831 -0.15733 -0.14092
 H374 H 0.46838 -0.23656 -0.27106
 H375 H 0.42224 -0.25015 -0.15956
 H376 H 0.42153 -0.20035 -0.07512
 H377 H 0.46749 -0.13631 -0.10146
 H378 H 0.56924 -0.12312 -0.38626
 H379 H 0.56964 -0.07500 -0.29764
 C380 C 0.29827 0.44351 -0.28673
 C381 C 0.30401 0.47643 -0.32902
 C382 C 0.33828 0.50838 -0.31909
 C383 C 0.36688 0.50766 -0.27621
 C384 C 0.36271 0.47515 -0.24076
 C385 C 0.32835 0.44248 -0.24710
 C386 C 0.26338 0.41175 -0.28020
 C387 C 0.25897 0.37907 -0.24582
 C388 C 0.28892 0.37720 -0.21625
 C389 C 0.32325 0.40849 -0.21642
 H390 H 0.23884 0.41179 -0.29814
 H391 H 0.23211 0.35501 -0.24236
 H392 H 0.28544 0.35150 -0.19152
 H393 H 0.34560 0.40540 -0.19328
 H394 H 0.34389 0.53420 -0.34830
 H395 H 0.39277 0.53294 -0.27122
 C396 C 1.14373 0.69884 -0.27160
 C397 C 1.16623 0.68971 -0.32358
 C398 C 1.15985 0.65358 -0.31905
 C399 C 1.13015 0.62629 -0.27362
 C400 C 1.10536 0.63362 -0.23019
 C401 C 1.11198 0.67030 -0.22904
 C402 C 1.15249 0.73568 -0.25807
 C403 C 1.12885 0.74394 -0.21326
 C404 C 1.09613 0.71592 -0.18053
 C405 C 1.08765 0.67951 -0.18816
 H406 H 1.17814 0.75866 -0.27871
 H407 H 1.13589 0.77227 -0.20432
 H408 H 1.07743 0.72247 -0.14776
 H409 H 1.06166 0.65908 -0.16247
 H410 H 1.17677 0.64550 -0.35510
 H411 H 1.12613 0.59875 -0.27411
 C412 C 0.84125 0.54198 -0.26766
 C413 C 0.82181 0.51272 -0.32787
 C414 C 0.83104 0.48524 -0.33539
 C415 C 0.86016 0.48732 -0.28859
 C416 C 0.88168 0.51726 -0.23344
 C417 C 0.87256 0.54546 -0.22352
 C418 C 0.83012 0.56788 -0.25026
 C419 C 0.85082 0.59817 -0.19669
 C420 C 0.88306 0.60346 -0.16009
 C421 C 0.89403 0.57766 -0.17350
 H422 H 0.80505 0.56468 -0.27654
 H423 H 0.84204 0.61791 -0.18455
 H424 H 0.89966 0.62767 -0.12074
 H425 H 0.91988 0.58422 -0.14574
 H426 H 0.81645 0.46253 -0.38059
 H427 H 0.86629 0.46541 -0.29697
 C428 C 0.44589 0.29627 -0.25784
 C429 C 0.47379 0.30490 -0.32080
 C430 C 0.50082 0.34159 -0.33248
 C431 C 0.49946 0.36964 -0.28753
 C432 C 0.47062 0.36238 -0.23036
 C433 C 0.44292 0.32512 -0.21605
 C434 C 0.42076 0.25945 -0.23559
 C435 C 0.39151 0.25094 -0.17994
 C436 C 0.38655 0.27875 -0.14594
 C437 C 0.41173 0.31539 -0.16385
 H438 H 0.42379 0.23692 -0.25949
 H439 H 0.37232 0.22258 -0.16414
 H440 H 0.36311 0.27193 -0.10500
 H441 H 0.40540 0.33529 -0.13778
 H442 H 0.52245 0.34893 -0.38000
 H443 H 0.52101 0.39757 -0.29941
 C444 C 0.69498 0.15946 -0.25683
 C445 C 0.68484 0.17660 -0.32247
 C446 C 0.64814 0.16559 -0.33379
 C447 C 0.62138 0.13633 -0.28589
 C448 C 0.63015 0.11655 -0.22572
 C449 C 0.66764 0.12810 -0.21082
 C450 C 0.73201 0.17294 -0.23645
 C451 C 0.74226 0.15462 -0.17701
 C452 C 0.71598 0.12242 -0.13742
 C453 C 0.67918 0.10909 -0.15422
 H454 H 0.75331 0.19805 -0.26531
 H455 H 0.77076 0.16518 -0.16256
 H456 H 0.72415 0.10766 -0.09318
 H457 H 0.66073 0.08342 -0.12338
 H458 H 0.63991 0.17854 -0.38334
 H459 H 0.59327 0.12848 -0.29808
 C460 C 1.15008 0.44791 -0.27214
 C461 C 1.16950 0.47773 -0.33099
 C462 C 1.15987 0.50492 -0.33762
 C463 C 1.13036 0.50204 -0.29111
 C464 C 1.10886 0.47153 -0.23752
 C465 C 1.11830 0.44354 -0.22885
 C466 C 1.16164 0.42228 -0.25534
 C467 C 1.14081 0.39137 -0.20363
 C468 C 1.10805 0.38520 -0.16830
 C469 C 1.09670 0.41075 -0.18091
 H470 H 1.18711 0.42613 -0.28065
 H471 H 1.14988 0.37184 -0.19202
 H472 H 1.09135 0.36051 -0.13054
 H473 H 1.07046 0.40353 -0.15436
 H474 H 1.17448 0.52801 -0.38182
 H475 H 1.12395 0.52380 -0.29845
 C476 C 0.56216 0.70712 -0.29191
 C477 C 0.52895 0.70012 -0.33294
 C478 C 0.49760 0.66567 -0.31926
 C479 C 0.49919 0.63774 -0.27482
 C480 C 0.53198 0.64284 -0.24130
 C481 C 0.56402 0.67765 -0.24999
 C482 C 0.59331 0.74265 -0.28855
 C483 C 0.62612 0.74816 -0.25439
 C484 C 0.62872 0.71870 -0.22205
 C485 C 0.59809 0.68379 -0.21951
 H486 H 0.59269 0.76690 -0.30878
 H487 H 0.64970 0.77548 -0.25321
 H488 H 0.65450 0.72302 -0.19739
 H489 H 0.60176 0.66190 -0.19427
 H490 H 0.47154 0.65926 -0.34688
 H491 H 0.47437 0.61153 -0.26753
 C492 C 0.34674 -0.17192 -0.34242
 C493 C 0.31011 -0.17951 -0.33589
 C494 C 0.30145 -0.16037 -0.27389
 C495 C 0.32822 -0.13308 -0.22154
 C496 C 0.36454 -0.12444 -0.22804
 C497 C 0.37352 -0.14588 -0.28390
 C498 C 0.35799 -0.18839 -0.40733
 C499 C 0.39332 -0.18252 -0.40811
 C500 C 0.41828 -0.16005 -0.34519
 C501 C 0.40860 -0.14195 -0.28346
 H502 H 0.34034 -0.20533 -0.45947
 H503 H 0.40130 -0.19576 -0.45731
 H504 H 0.44542 -0.15624 -0.34507
 H505 H 0.42868 -0.12557 -0.23453
 H506 H 0.27375 -0.16583 -0.26764
 H507 H 0.32062 -0.11751 -0.17834
 C508 C 0.47667 -0.16965 0.31353
 C509 C 0.50949 -0.17102 0.32447
 C510 C 0.54051 -0.14639 0.27613
 C511 C 0.54053 -0.11955 0.22274
 C512 C 0.50926 -0.11689 0.21367
 C513 C 0.47636 -0.14371 0.25334
 C514 C 0.44430 -0.19229 0.36152
 C515 C 0.41207 -0.19242 0.34295
 C516 C 0.41125 -0.16972 0.27780
 C517 C 0.44307 -0.14525 0.23400
 H518 H 0.44279 -0.20976 0.41491
 H519 H 0.38746 -0.21051 0.37895
 H520 H 0.38591 -0.17081 0.26185
 H521 H 0.44112 -0.12818 0.18346
 H522 H 0.56563 -0.14699 0.28186
 H523 H 0.56576 -0.09961 0.19162
 C524 C 0.32910 0.45894 0.36510
 C525 C 0.31160 0.47834 0.33604
 C526 C 0.32196 0.49759 0.25615
 C527 C 0.34903 0.49756 0.20422
 C528 C 0.36657 0.47864 0.23154
 C529 C 0.35653 0.45878 0.31172
 C530 C 0.32075 0.44050 0.44722
 C531 C 0.33798 0.42137 0.47422
 C532 C 0.36386 0.42017 0.42038
 C533 C 0.37327 0.43875 0.34003
 H534 H 0.30117 0.44079 0.49185
 H535 H 0.33113 0.40733 0.53719
 H536 H 0.37680 0.40488 0.44112
 H537 H 0.39360 0.43711 0.30037
 H538 H 0.30892 0.51263 0.23376
 H539 H 0.35686 0.51300 0.14313
 C540 C 1.14792 0.69880 0.25513
 C541 C 1.16549 0.68802 0.31813
 C542 C 1.15517 0.65098 0.32558
 C543 C 1.12650 0.62445 0.27692
 C544 C 1.10638 0.63354 0.21924
 C545 C 1.11722 0.67139 0.20728
 C546 C 1.16053 0.73627 0.23776
 C547 C 1.14225 0.74677 0.17901
 C548 C 1.11102 0.72033 0.13693
 C549 C 1.09844 0.68313 0.15092
 H550 H 1.18501 0.75787 0.26771
 H551 H 1.15223 0.77559 0.16657
 H552 H 1.09649 0.72869 0.09268
 H553 H 1.07375 0.66450 0.11732
 H554 H 1.16854 0.64211 0.37223
 H555 H 1.11954 0.59615 0.28647
 C556 C 0.48822 0.17546 0.24064
 C557 C 0.46245 0.16705 0.30961
 C558 C 0.43499 0.13042 0.32215
 C559 C 0.43415 0.10218 0.27270
 C560 C 0.46066 0.10959 0.20896
 C561 C 0.48758 0.14631 0.19100
 C562 C 0.51434 0.21200 0.21882
 C563 C 0.54008 0.21947 0.15292
 C564 C 0.54010 0.19090 0.10667
 C565 C 0.51400 0.15462 0.12491
 H566 H 0.51474 0.23518 0.25054
 H567 H 0.56000 0.24762 0.13724
 H568 H 0.56015 0.19691 0.05563
 H569 H 0.51454 0.13319 0.08656
 H570 H 0.41494 0.12323 0.37392
 H571 H 0.41345 0.07410 0.28682
 C572 C 0.69597 0.52738 0.22828
 C573 C 0.68743 0.51380 0.31565
 C574 C 0.65244 0.50105 0.34831
 C575 C 0.62644 0.50341 0.29820
 C576 C 0.63402 0.51797 0.21236
 C577 C 0.66881 0.52863 0.17486
 C578 C 0.73060 0.53859 0.19206
 C579 C 0.73838 0.55028 0.10475
 C580 C 0.71176 0.55041 0.05164
 C581 C 0.67728 0.53945 0.08567
 H582 H 0.75172 0.53781 0.23032
 H583 H 0.76500 0.55862 0.07766
 H584 H 0.71772 0.55865 -0.01681
 H585 H 0.65753 0.53853 0.03979
 H586 H 0.64553 0.49040 0.41496
 H587 H 0.60022 0.49444 0.32858
 C588 C 0.81798 0.32337 0.24743
 C589 C 0.82423 0.30330 0.31377
 C590 C 0.85936 0.30859 0.32450
 C591 C 0.88847 0.33484 0.27552
 C592 C 0.88335 0.35642 0.21379
 C593 C 0.84795 0.35031 0.19735
 C594 C 0.78276 0.31716 0.22881
 C595 C 0.77743 0.33776 0.16464
 C596 C 0.80682 0.36449 0.11701
 C597 C 0.84178 0.37063 0.13253
 H598 H 0.75896 0.29600 0.26212
 H599 H 0.75028 0.33278 0.15136
 H600 H 0.80246 0.38033 0.06726
 H601 H 0.86388 0.39135 0.09346
 H602 H 0.86474 0.29350 0.37445
 H603 H 0.91550 0.33933 0.28836
   
