data_POSCAR
  _audit_creation_date              2014-09-24
  _audit_creation_method            'ToBaCCo'
  _symmetry_space_group_name_H-M    'P1'
  _symmetry_Int_Tables_number       1
  _symmetry_cell_setting            triclinic
  loop_
  _symmetry_equiv_pos_as_xyz
 x,y,z
_cell_length_a 37.4393
_cell_length_b 37.7612
_cell_length_c 37.3760
_cell_angle_alpha 88.536800
_cell_angle_beta 89.097900
_cell_angle_gamma 88.366100
loop_
  _atom_site_label
  _atom_site_type_symbol
  _atom_site_fract_x
  _atom_site_fract_y
  _atom_site_fract_z
C1 C 0.17744 0.53204 1.03452
 H2 H 0.17677 0.54996 1.01147
 C3 C 0.14994 0.53345 1.06006
 H4 H 0.12838 0.55294 1.05655
 C5 C 0.20548 0.48366 1.06561
 H6 H 0.22637 0.46338 1.06687
 C7 C 0.17875 0.48442 1.09214
 H8 H 0.18003 0.46445 1.11334
 N9 N 0.20418 0.50712 1.03742
 C10 C 0.28744 0.54402 0.96410
 H11 H 0.28767 0.52285 0.94511
 C12 C 0.31280 0.57031 0.96106
 H13 H 0.33232 0.56935 0.93938
 C14 C 0.26295 0.56954 1.01662
 H15 H 0.24421 0.56836 1.03889
 C16 C 0.28802 0.59631 1.01473
 H17 H 0.28788 0.61532 1.03584
 Zn18 Zn 0.23536 0.50334 0.99744
 N19 N 0.26345 0.54387 0.99174
 C20 C 0.20280 0.52324 0.93134
 N21 N 0.20567 0.49790 0.95772
 C22 C 0.18376 0.46983 0.95921
 C23 C 0.15729 0.46663 0.93378
 C24 C 0.17649 0.52120 0.90538
 C25 C 0.29099 0.46569 1.03054
 C26 C 0.31812 0.43990 1.03448
 C27 C 0.29721 0.41188 0.98163
 C28 C 0.27028 0.43818 0.97883
 N29 N 0.26777 0.46442 1.00307
 H30 H 0.21974 0.54593 0.93133
 H31 H 0.18608 0.45054 0.98102
 H32 H 0.13956 0.44447 0.93597
 H33 H 0.17400 0.54256 0.88575
 H34 H 0.28889 0.48734 1.04893
 H35 H 0.33669 0.44175 1.05625
 H36 H 0.29918 0.39220 0.96118
 H37 H 0.25227 0.43830 0.95652
 C38 C 0.31382 0.59660 0.98686
 C39 C 0.14998 0.50924 1.08924
 C40 C 0.32180 0.41268 1.00973
 C41 C 0.15294 0.49272 0.90669
 C42 C 0.78546 0.53511 -0.04334
 H43 H 0.78267 0.55462 -0.02271
 C44 C 0.81209 0.53838 -0.06964
 H45 H 0.82946 0.56083 -0.06932
 C46 C 0.76766 0.48094 -0.06720
 H47 H 0.75131 0.45784 -0.06520
 C48 C 0.79410 0.48306 -0.09392
 H49 H 0.79722 0.46137 -0.11209
 N50 N 0.76413 0.50658 -0.04240
 C51 C 0.68071 0.53703 0.03433
 H52 H 0.68502 0.51600 0.05412
 C53 C 0.65191 0.56091 0.03824
 H54 H 0.63501 0.55863 0.06187
 C55 C 0.69764 0.56473 -0.02074
 H56 H 0.71479 0.56529 -0.04426
 C57 C 0.66900 0.58915 -0.01795
 H58 H 0.66467 0.60875 -0.03921
 Zn59 Zn 0.73473 0.50031 -0.00138
 N60 N 0.70250 0.53898 0.00496
 C61 C 0.76886 0.51978 0.06252
 N62 N 0.76618 0.49463 0.03737
 C63 C 0.78931 0.46629 0.03628
 C64 C 0.81710 0.46276 0.06060
 C65 C 0.79651 0.51744 0.08726
 C66 C 0.68315 0.46160 -0.03358
 C67 C 0.65750 0.43586 -0.03642
 C68 C 0.67917 0.40816 0.01836
 C69 C 0.70464 0.43441 0.02002
 N70 N 0.70594 0.46054 -0.00563
 H71 H 0.75065 0.54251 0.06238
 H72 H 0.78674 0.44691 0.01572
 H73 H 0.83492 0.43980 0.05911
 H74 H 0.79909 0.53826 0.10637
 H75 H 0.68426 0.48319 -0.05313
 H76 H 0.63910 0.43766 -0.05852
 H77 H 0.67797 0.38864 0.03994
 H78 H 0.72222 0.43477 0.04265
 C79 C 0.64501 0.58664 0.01119
 C80 C 0.81717 0.51191 -0.09504
 C81 C 0.65482 0.40895 -0.01004
 C82 C 0.82175 0.48928 0.08574
 C83 C -0.01808 0.28642 0.44240
 H84 H -0.03933 0.26771 0.44186
 C85 C -0.01771 0.31472 0.41752
 H86 H -0.03851 0.31696 0.39768
 C87 C 0.03353 0.30734 0.46990
 H88 H 0.05328 0.30434 0.49067
 C89 C 0.03445 0.33642 0.44619
 H90 H 0.05594 0.35468 0.44859
 N91 N 0.00716 0.28350 0.46816
 C92 C -0.05502 0.21389 0.53364
 H93 H -0.05092 0.22795 0.55799
 C94 C -0.08082 0.18789 0.53307
 H95 H -0.09685 0.18251 0.55687
 C96 C -0.03718 0.20136 0.47407
 H97 H -0.01896 0.20568 0.45174
 C98 C -0.06313 0.17567 0.47209
 H99 H -0.06472 0.16044 0.44804
 Zn100 Zn 0.00548 0.25035 0.50692
 N101 N -0.03381 0.22009 0.50438
 C102 C -0.02792 0.29797 0.55327
 N103 N 0.00257 0.27817 0.54827
 C104 C 0.03193 0.28281 0.56843
 C105 C 0.03148 0.30879 0.59442
 C106 C -0.02972 0.32380 0.57933
 C107 C 0.06803 0.21758 0.47762
 C108 C 0.09508 0.19132 0.47627
 C109 C 0.07872 0.17251 0.53646
 C110 C 0.05159 0.19863 0.53641
 N111 N 0.04675 0.22045 0.50728
 H112 H -0.05036 0.29470 0.53590
 H113 H 0.05636 0.26785 0.56301
 H114 H 0.05545 0.31318 0.60935
 H115 H -0.05378 0.34018 0.58179
 H116 H 0.06298 0.23455 0.45440
 H117 H 0.11107 0.18846 0.45205
 H118 H 0.08128 0.15466 0.55945
 H119 H 0.03356 0.20083 0.55919
 C120 C -0.08513 0.16850 0.50203
 C121 C 0.00792 0.34105 0.42003
 C122 C 0.10057 0.16834 0.50587
 C123 C 0.00050 0.32983 0.59990
 C124 C 0.98118 0.71614 0.55639
 H125 H 0.95725 0.73189 0.55096
 C126 C 0.98036 0.68931 0.58285
 H127 H 0.95562 0.68530 0.59748
 C128 C 1.04089 0.69985 0.54081
 H129 H 1.06391 0.70331 0.52335
 C130 C 1.04128 0.67286 0.56697
 H131 H 1.06498 0.65594 0.56983
 N132 N 1.01110 0.72069 0.53587
 C133 C 0.95117 0.78506 0.46144
 H134 H 0.95862 0.76989 0.43822
 C135 C 0.92425 0.81140 0.45883
 H136 H 0.91070 0.81600 0.43367
 C137 C 0.96181 0.79995 0.52150
 H138 H 0.97770 0.79633 0.54532
 C139 C 0.93467 0.82602 0.52029
 H140 H 0.92988 0.84232 0.54338
 Zn141 Zn 1.01080 0.75025 0.49436
 N142 N 0.96941 0.78000 0.49243
 C143 C 0.98434 0.69841 0.45131
 N144 N 1.01317 0.71878 0.45601
 C145 C 1.04474 0.71201 0.43868
 C146 C 1.04843 0.68303 0.41626
 C147 C 0.98670 0.66952 0.42878
 C148 C 1.07075 0.78520 0.52171
 C149 C 1.09622 0.81160 0.52110
 C150 C 1.07852 0.82795 0.46088
 C151 C 1.05342 0.80135 0.46268
 N152 N 1.04985 0.78079 0.49282
 H153 H 0.96003 0.70356 0.46656
 H154 H 1.06769 0.72772 0.44393
 H155 H 1.07412 0.67701 0.40378
 H156 H 0.96388 0.65275 0.42685
 H157 H 1.06662 0.76935 0.54583
 H158 H 1.11131 0.81549 0.54503
 H159 H 1.08039 0.84457 0.43691
 H160 H 1.03592 0.79772 0.44039
 C161 C 0.91580 0.83225 0.48846
 C162 C 1.01065 0.66690 0.58808
 C163 C 1.10010 0.83365 0.49039
 C164 C 1.01933 0.66115 0.41146
 C165 C 0.47222 -0.03939 0.30686
 H166 H 0.49462 -0.05794 0.30430
 C167 C 0.44817 -0.04297 0.33555
 H168 H 0.45185 -0.06517 0.35408
 C169 C 0.44104 0.01222 0.28561
 H170 H 0.43901 0.03432 0.26676
 C171 C 0.41645 0.00975 0.31403
 H172 H 0.39538 0.02984 0.31647
 N173 N 0.46853 -0.01192 0.28286
 C174 C 0.53619 -0.04002 0.19130
 H175 H 0.55258 -0.01687 0.18986
 C176 C 0.53818 -0.06446 0.16391
 H177 H 0.55662 -0.06001 0.14171
 C178 C 0.49081 -0.07238 0.22104
 H179 H 0.47130 -0.07454 0.24253
 C180 C 0.49228 -0.09784 0.19450
 H181 H 0.47359 -0.11909 0.19659
 Zn182 Zn 0.50646 -0.00524 0.24956
 N183 N 0.51240 -0.04405 0.21882
 C184 C 0.57608 -0.02203 0.27675
 N185 N 0.54748 0.00098 0.27724
 C186 C 0.54515 0.02772 0.30086
 C187 C 0.57192 0.03180 0.32577
 C188 C 0.60354 -0.01902 0.30142
 C189 C 0.46870 0.03354 0.19759
 C190 C 0.46298 0.05971 0.17114
 C191 C 0.51617 0.08827 0.19012
 C192 C 0.52080 0.06156 0.21635
 N193 N 0.49734 0.03478 0.21938
 H194 H 0.57704 -0.04346 0.25809
 H195 H 0.52180 0.04527 0.30101
 H196 H 0.56904 0.05285 0.34485
 H197 H 0.62553 -0.03812 0.30071
 H198 H 0.45095 0.01146 0.20005
 H199 H 0.44049 0.05779 0.15348
 H200 H 0.53622 0.10822 0.18739
 H201 H 0.54404 0.06141 0.23313
 C202 C 0.51581 -0.09374 0.16489
 C203 C 0.42044 -0.01745 0.34007
 C204 C 0.48705 0.08734 0.16678
 C205 C 0.60129 0.00790 0.32690
 C206 C 0.55753 -0.02382 0.69713
 H207 H 0.53874 -0.04480 0.70145
 C208 C 0.58291 -0.02613 0.66953
 H209 H 0.58372 -0.04924 0.65293
 C210 C 0.57775 0.03264 0.71239
 H211 H 0.57466 0.05605 0.72833
 C212 C 0.60354 0.03152 0.68489
 H213 H 0.61999 0.05429 0.68038
 N214 N 0.55522 0.00531 0.71770
 C215 C 0.48547 -0.03347 0.80363
 H216 H 0.46250 -0.01593 0.79934
 C217 C 0.48594 -0.05699 0.83305
 H218 H 0.46304 -0.05738 0.85107
 C219 C 0.54460 -0.05120 0.78726
 H220 H 0.56792 -0.04768 0.77026
 C221 C 0.54642 -0.07472 0.81671
 H222 H 0.57099 -0.08974 0.82176
 Zn223 Zn 0.51529 0.00826 0.74912
 N224 N 0.51457 -0.03085 0.78160
 C225 C 0.45235 -0.01708 0.71732
 N226 N 0.47485 0.01040 0.71949
 C227 C 0.47198 0.03915 0.69700
 C228 C 0.44622 0.04078 0.67043
 C229 C 0.42626 -0.01665 0.69091
 C230 C 0.54568 0.05004 0.79955
 C231 C 0.54581 0.07409 0.82724
 C232 C 0.48681 0.09489 0.80985
 C233 C 0.48784 0.07045 0.78236
 N234 N 0.51674 0.04819 0.77826
 H235 H 0.45566 -0.04008 0.73488
 H236 H 0.49051 0.06044 0.69911
 H237 H 0.44458 0.06409 0.65305
 H238 H 0.40931 -0.03923 0.68869
 H239 H 0.56805 0.03163 0.79600
 H240 H 0.56908 0.07474 0.84397
 H241 H 0.46303 0.11143 0.81379
 H242 H 0.46472 0.06786 0.76579
 C243 C 0.51702 -0.07752 0.84024
 C244 C 0.60605 0.00190 0.66270
 C245 C 0.51543 0.09592 0.83356
 C246 C 0.42371 0.01202 0.66632
 C247 C 0.21779 -0.03414 0.50370
 C248 C 0.23597 -0.00255 0.50746
 C249 C 0.21671 0.02966 0.51026
 C250 C 0.17925 0.03058 0.50822
 C251 C 0.16135 -0.00118 0.50406
 C252 C 0.18024 -0.03380 0.50281
 C253 C 0.27529 -0.00310 0.50703
 C254 C 0.29410 -0.00997 0.47514
 C255 C 0.33156 -0.01066 0.47417
 C256 C 0.35005 -0.00399 0.50573
 C257 C 0.33141 0.00314 0.53791
 C258 C 0.29395 0.00330 0.53831
 H259 H 0.23312 -0.05870 0.50104
 H260 H 0.23106 0.05400 0.51250
 H261 H 0.27946 -0.01470 0.45100
 H262 H 0.27923 0.00849 0.56293
 H263 H 0.13244 -0.00055 0.50259
 H264 H 0.37889 -0.00425 0.50528
 C265 C 0.80038 -0.02826 0.49065
 C266 C 0.78193 0.00456 0.49016
 C267 C 0.80093 0.03603 0.48977
 C268 C 0.83848 0.03482 0.48987
 C269 C 0.85668 0.00183 0.49041
 C270 C 0.83791 -0.02981 0.49087
 C271 C 0.74265 0.00589 0.49088
 C272 C 0.72417 0.00766 0.52371
 C273 C 0.68658 0.00873 0.52479
 C274 C 0.66798 0.00749 0.49253
 C275 C 0.68618 0.00533 0.45948
 C276 C 0.72376 0.00483 0.45887
 H277 H 0.78543 -0.05240 0.49053
 H278 H 0.78640 0.06125 0.49016
 H279 H 0.73932 0.00746 0.54813
 H280 H 0.73855 0.00408 0.43377
 H281 H 0.88565 0.00076 0.49068
 H282 H 0.63900 0.00801 0.49317
 C283 C 0.52303 0.28980 0.99952
 C284 C 0.49110 0.27139 1.00126
 C285 C 0.45824 0.28996 1.00329
 C286 C 0.45708 0.32725 1.00282
 C287 C 0.48935 0.34537 1.00172
 C288 C 0.52244 0.32698 1.00045
 C289 C 0.49234 0.23251 1.00090
 C290 C 0.48920 0.21288 1.03302
 C291 C 0.49224 0.17566 1.03311
 C292 C 0.49727 0.15852 1.00041
 C293 C 0.50079 0.17811 0.96801
 C294 C 0.49809 0.21516 0.96859
 H295 H 0.54804 0.27490 0.99721
 H296 H 0.43398 0.27511 1.00533
 H297 H 0.48436 0.22686 1.05761
 H298 H 0.50076 0.23064 0.94390
 H299 H 0.48871 0.37410 1.00184
 H300 H 0.49834 0.12985 1.00042
 C301 C 0.50991 0.71239 0.01324
 C302 C 0.47806 0.73216 0.00850
 C303 C 0.44595 0.71483 0.00363
 C304 C 0.44551 0.67756 0.00394
 C305 C 0.47785 0.65811 0.00785
 C306 C 0.51022 0.67531 0.01285
 C307 C 0.47892 0.77111 0.00780
 C308 C 0.47313 0.79014 -0.02427
 C309 C 0.47861 0.82662 -0.02629
 C310 C 0.48808 0.84442 0.00461
 C311 C 0.49149 0.82608 0.03777
 C312 C 0.48796 0.78895 0.03866
 H313 H 0.53467 0.72605 0.01667
 H314 H 0.42173 0.73057 -0.00070
 H315 H 0.46615 0.77624 -0.04810
 H316 H 0.49294 0.77330 0.06278
 H317 H 0.47759 0.62954 0.00646
 H318 H 0.49138 0.87286 0.00299
 C319 C 0.98230 0.52589 0.28346
 C320 C 0.98745 0.49294 0.26768
 C321 C 0.99568 0.46284 0.28894
 C322 C 1.00008 0.46547 0.32607
 C323 C 0.99605 0.49920 0.34147
 C324 C 0.98704 0.52931 0.32022
 C325 C 0.98731 0.49066 0.22852
 C326 C 1.01987 0.49050 0.20956
 C327 C 1.02056 0.49106 0.17187
 C328 C 0.98787 0.49128 0.15378
 C329 C 0.95506 0.48984 0.17268
 C330 C 0.95505 0.49039 0.21016
 H331 H 0.97591 0.54912 0.26687
 H332 H 0.99942 0.43747 0.27623
 H333 H 1.04418 0.49177 0.22465
 H334 H 0.93000 0.49037 0.22511
 H335 H 0.99804 0.50228 0.37004
 H336 H 0.98809 0.49279 0.12480
 C337 C -0.00817 0.53147 0.70821
 C338 C -0.01105 0.49943 0.72754
 C339 C -0.01150 0.46739 0.70954
 C340 C -0.00841 0.46717 0.67205
 C341 C -0.00491 0.49940 0.65290
 C342 C -0.00562 0.53178 0.67064
 C343 C -0.01223 0.49943 0.76681
 C344 C -0.04512 0.50062 0.78512
 C345 C -0.04635 0.50088 0.82275
 C346 C -0.01410 0.50075 0.84151
 C347 C 0.01905 0.50008 0.82338
 C348 C 0.01970 0.49895 0.78581
 H349 H -0.00712 0.55585 0.72273
 H350 H -0.01313 0.44275 0.72489
 H351 H -0.06938 0.50196 0.76974
 H352 H 0.04476 0.49733 0.77104
 H353 H -0.00236 0.49930 0.62397
 H354 H -0.01481 0.50130 0.87051
 C355 C 0.12646 0.13817 0.50292
 C356 C 0.14399 0.12403 0.53108
 C357 C 0.16705 0.09180 0.52857
 C358 C 0.15813 0.06427 0.50894
 H359 H 0.14227 0.13681 0.55667
 H360 H 0.18987 0.08946 0.54598
 H361 H 0.13125 0.12734 0.47664
 H362 H 0.13305 0.06547 0.49479
 C363 C 0.61255 0.61012 0.01172
 C364 C 0.58218 0.60107 0.02882
 C365 C 0.54804 0.62168 0.02687
 C366 C 0.54501 0.65572 0.01591
 H367 H 0.58088 0.57580 0.04298
 H368 H 0.52457 0.60783 0.03597
 H369 H 0.61300 0.63384 -0.00509
 H370 H 0.56882 0.67045 0.00992
 C371 C 0.89017 -0.13743 0.48451
 C372 C 0.86980 -0.12556 0.51171
 C373 C 0.84728 -0.09294 0.50880
 C374 C 0.85831 -0.06392 0.49097
 H375 H 0.86892 -0.14042 0.53686
 H376 H 0.82296 -0.09173 0.52484
 H377 H 0.88811 -0.12447 0.45838
 H378 H 0.88462 -0.06425 0.47842
 C379 C 0.35308 0.38777 1.01293
 C380 C 0.35825 0.35864 0.99344
 C381 C 0.39130 0.33620 0.99478
 C382 C 0.42312 0.34844 1.00398
 H383 H 0.33760 0.34997 0.97610
 H384 H 0.38942 0.30967 0.98490
 H385 H 0.37288 0.39411 1.03239
 H386 H 0.42514 0.37608 1.01044
 C387 C 0.88994 0.13881 0.50265
 C388 C 0.87248 0.12902 0.47365
 C389 C 0.84982 0.09766 0.47395
 C390 C 0.85942 0.06737 0.49110
 H391 H 0.87377 0.14496 0.44919
 H392 H 0.82657 0.09863 0.45704
 H393 H 0.88551 0.12486 0.52797
 H394 H 0.88484 0.06555 0.50462
 C395 C 0.34407 0.62126 -0.01471
 C396 C 0.34687 0.64950 0.00606
 C397 C 0.37934 0.67094 0.00705
 C398 C 0.41224 0.65776 -0.00046
 H399 H 0.32475 0.65799 0.02297
 H400 H 0.37598 0.69724 0.01760
 H401 H 0.36539 0.61526 -0.03370
 H402 H 0.41548 0.63023 -0.00755
 C403 C 0.12379 -0.13546 0.48896
 C404 C 0.15052 -0.13088 0.51173
 C405 C 0.17209 -0.09865 0.51165
 C406 C 0.15984 -0.06668 0.50002
 H407 H 0.15798 -0.15170 0.53078
 H408 H 0.19775 -0.10117 0.52451
 H409 H 0.11892 -0.11579 0.46789
 H410 H 0.13270 -0.06375 0.49057
 C411 C 0.62457 0.38454 0.98803
 C412 C 0.61993 0.35613 1.00972
 C413 C 0.58765 0.33449 1.00920
 C414 C 0.55551 0.34766 0.99921
 H415 H 0.64046 0.34742 1.02819
 H416 H 0.59028 0.30779 1.02017
 H417 H 0.60489 0.39073 0.96772
 H418 H 0.55259 0.37549 0.99183
 C419 C 0.48250 0.11239 1.13581
 C420 C 0.49993 0.14282 1.13165
 C421 C 0.49808 0.16571 1.09897
 C422 C 0.49036 0.15370 1.06654
 H423 H 0.51600 0.15221 1.15302
 H424 H 0.50672 0.19258 1.10164
 H425 H 0.46396 0.10508 1.11551
 H426 H 0.48520 0.12587 1.06365
 C427 C 0.01055 0.63530 0.61252
 C428 C -0.01422 0.62963 0.63820
 C429 C -0.01530 0.59671 0.66042
 C430 C -0.00273 0.56516 0.64916
 H431 H -0.03401 0.65003 0.64442
 H432 H -0.02956 0.59842 0.68573
 H433 H 0.03208 0.61587 0.60905
 H434 H 0.00814 0.56309 0.62225
 C435 C 0.52083 0.90107 -0.12622
 C436 C 0.49326 0.88630 -0.10890
 C437 C 0.49824 0.86784 -0.07407
 C438 C 0.47383 0.84575 -0.06086
 H439 H 0.46687 0.88757 -0.12042
 H440 H 0.52245 0.87186 -0.05932
 H441 H 0.54742 0.89732 -0.11541
 H442 H 0.45100 0.83964 -0.07685
 C443 C 1.00569 0.37115 0.39703
 C444 C 1.02267 0.40303 0.40345
 C445 C 1.01946 0.43365 0.38172
 C446 C 1.00726 0.43426 0.34644
 H447 H 1.03646 0.40606 0.42833
 H448 H 1.02903 0.45768 0.39289
 H449 H 0.98705 0.37059 0.37521
 H450 H 1.00477 0.40923 0.33330
 C451 C 0.51624 0.88376 0.13537
 C452 C 0.49863 0.85151 0.13467
 C453 C 0.49387 0.83198 0.10383
 C454 C 0.49822 0.84542 0.06863
 H455 H 0.48887 0.83963 0.15942
 H456 H 0.48286 0.80609 0.10835
 H457 H 0.53175 0.89178 0.11201
 H458 H 0.50401 0.87319 0.06476
 C459 C 0.00165 0.36016 0.62410
 C460 C -0.02731 0.37327 0.64126
 C461 C -0.02649 0.40555 0.66263
 C462 C -0.00755 0.43372 0.65228
 H463 H -0.05226 0.35952 0.64069
 H464 H -0.04452 0.40722 0.68550
 H465 H 0.02728 0.37204 0.62791
 H466 H 0.00724 0.43317 0.62712
 C467 C 0.51189 0.11838 0.86547
 C468 C 0.52858 0.11009 0.89626
 C469 C 0.52280 0.12883 0.93021
 C470 C 0.50656 0.16076 0.93316
 H471 H 0.54565 0.08654 0.89803
 H472 H 0.53359 0.11548 0.95377
 H473 H 0.49244 0.14008 0.86436
 H474 H 0.49853 0.17566 0.90938
 C475 C 1.02481 0.62787 0.39176
 C476 C 0.99855 0.61199 0.37506
 C477 C 1.00468 0.57703 0.35921
 C478 C 0.98167 0.56447 0.33607
 H479 H 0.97229 0.62464 0.37315
 H480 H 1.02841 0.56144 0.36634
 H481 H 1.05149 0.61589 0.39123
 H482 H 0.95940 0.58114 0.32696
 C483 C 1.12032 0.50942 0.11281
 C484 C 1.11832 0.48970 0.14505
 C485 C 1.08682 0.48613 0.16534
 C486 C 1.05250 0.49265 0.15157
 H487 H 1.14237 0.47800 0.15647
 H488 H 1.08979 0.47485 0.19203
 H489 H 1.09777 0.52665 0.10571
 H490 H 1.05008 0.49728 0.12298
 C491 C 0.62995 0.00008 0.63064
 C492 C 0.65662 0.02227 0.62329
 C493 C 0.67836 0.02090 0.58987
 C494 C 0.66570 0.00957 0.55887
 H495 H 0.66409 0.04142 0.64260
 H496 H 0.70465 0.03195 0.59069
 H497 H 0.62520 -0.02092 0.61224
 H498 H 0.63806 0.00201 0.55774
 C499 C -0.15138 0.51397 0.88036
 C500 C -0.14534 0.49272 0.85252
 C501 C -0.11203 0.49293 0.83070
 C502 C -0.08045 0.50237 0.84352
 H503 H -0.16550 0.47482 0.84438
 H504 H -0.11350 0.48214 0.80427
 H505 H -0.13209 0.53387 0.88590
 H506 H -0.07888 0.50974 0.87124
 C507 C 0.39632 -0.01727 0.37202
 C508 C 0.40503 -0.03312 0.40341
 C509 C 0.38418 -0.02940 0.43715
 C510 C 0.35043 -0.01660 0.43950
 H511 H 0.43037 -0.04729 0.40599
 H512 H 0.39786 -0.03823 0.46117
 H513 H 0.37227 -0.00082 0.37023
 H514 H 0.33552 -0.01077 0.41541
 C515 C 0.12196 0.49039 0.88260
 C516 C 0.11644 0.51126 0.85349
 C517 C 0.08394 0.51010 0.83159
 C518 C 0.05217 0.49976 0.84468
 H519 H 0.13658 0.52936 0.84419
 H520 H 0.08612 0.52076 0.80455
 H521 H 0.10272 0.47035 0.88947
 H522 H 0.04957 0.49258 0.87280
 C523 C 0.62724 0.01137 0.35625
 C524 C 0.65426 -0.01170 0.36361
 C525 C 0.67694 -0.00910 0.39550
 C526 C 0.66483 0.00452 0.42641
 H527 H 0.66071 -0.03328 0.34604
 H528 H 0.70324 -0.02162 0.39407
 H529 H 0.62295 0.03377 0.37348
 H530 H 0.63718 0.01353 0.42852
 C531 C 0.85312 0.48920 0.10955
 C532 C 0.88434 0.47285 0.10106
 C533 C 0.91761 0.47438 0.12169
 C534 C 0.92047 0.48871 0.15397
 H535 H 0.88700 0.45886 0.07625
 H536 H 0.94094 0.46213 0.10919
 H537 H 0.85095 0.50531 0.13300
 H538 H 0.89695 0.49857 0.16805
 C539 C 0.39869 0.01028 0.63602
 C540 C 0.40411 0.02768 0.60468
 C541 C 0.38293 0.02315 0.57216
 C542 C 0.35042 0.00913 0.57167
 H543 H 0.42727 0.04391 0.60103
 H544 H 0.39502 0.03274 0.54741
 H545 H 0.37737 -0.00839 0.63865
 H546 H 0.33667 0.00266 0.59657
   
