data_POSCAR
  _audit_creation_date              2014-09-24
  _audit_creation_method            'ToBaCCo'
  _symmetry_space_group_name_H-M    'P1'
  _symmetry_Int_Tables_number       1
  _symmetry_cell_setting            triclinic
  loop_
  _symmetry_equiv_pos_as_xyz
 x,y,z
_cell_length_a 18.9020
_cell_length_b 18.6424
_cell_length_c 18.9352
_cell_angle_alpha 75.984700
_cell_angle_beta 111.813800
_cell_angle_gamma 62.098500
loop_
  _atom_site_label
  _atom_site_type_symbol
  _atom_site_fract_x
  _atom_site_fract_y
  _atom_site_fract_z
O1 O 0.62651 0.48881 0.02485
 O2 O 0.49046 0.45715 0.11017
 O3 O 0.61099 0.35786 0.07615
 O4 O 0.50730 0.59072 0.05800
 O5 O 0.38306 0.65684 -0.07709
 O6 O 0.48567 0.42359 -0.05814
 O7 O 0.36591 0.52722 -0.02594
 O8 O 0.50308 0.55632 -0.11116
 Cu9 Cu 0.57057 0.46728 0.08071
 Cu10 Cu 0.42258 0.54738 -0.08160
 C11 C 0.58744 0.52902 -0.05770
 C12 C 0.40547 0.48565 0.05671
 C13 C 0.56534 0.35088 0.01282
 C14 C 0.42829 0.66359 -0.01332
 O15 O -0.02332 0.63110 0.49819
 O16 O -0.12579 0.51156 0.44326
 O17 O -0.05465 0.52870 0.58054
 O18 O -0.09313 0.61562 0.36287
 O19 O 0.05250 0.48681 0.41855
 O20 O 0.09013 0.39891 0.63583
 O21 O 0.02116 0.38392 0.50011
 O22 O 0.12392 0.50270 0.55723
 Cu23 Cu -0.08917 0.58447 0.46560
 Cu24 Cu 0.08693 0.43043 0.53345
 C25 C 0.06732 0.58764 0.53690
 C26 C -0.06922 0.42697 0.46283
 C27 C 0.02393 0.44893 0.64493
 C28 C -0.02663 0.56604 0.35389
 O29 O 0.48134 0.03807 0.59940
 O30 O 0.40956 0.11983 0.36947
 O31 O 0.35221 0.06354 0.46030
 O32 O 0.54155 0.09263 0.51316
 O33 O 0.64394 -0.05145 0.54227
 O34 O 0.45530 -0.08129 0.49134
 O35 O 0.51399 -0.02615 0.40387
 O36 O 0.58757 -0.10748 0.63420
 Cu37 Cu 0.43551 0.09359 0.48143
 Cu38 Cu 0.56087 -0.08167 0.52210
 C39 C 0.54778 -0.04889 0.65629
 C40 C 0.44855 0.06097 0.34733
 C41 C 0.37149 -0.01349 0.46634
 C42 C 0.62502 0.02518 0.53717
 O43 O 0.47249 0.03406 -0.12708
 O44 O 0.38514 0.11034 0.00493
 O45 O 0.48060 0.13433 -0.05225
 O46 O 0.37584 0.00979 -0.06902
 O47 O 0.51439 -0.12037 0.05137
 O48 O 0.61925 0.00412 0.06800
 O49 O 0.52269 -0.02001 0.12605
 O50 O 0.60983 -0.09648 -0.00598
 Cu51 Cu 0.41498 0.08479 -0.07314
 Cu52 Cu 0.58012 -0.07087 0.07212
 C53 C 0.55464 -0.04468 -0.08949
 C54 C 0.44043 0.05863 0.08845
 C55 C 0.56694 0.09100 0.01187
 C56 C 0.42803 -0.07702 -0.01274
 O57 O -0.15571 0.59797 0.90380
 O58 O 0.07609 0.55970 0.98790
 O59 O -0.02309 0.53594 0.87293
 O60 O -0.05766 0.62321 1.02124
 O61 O 0.01910 0.47885 1.12534
 O62 O 0.05401 0.39151 0.97715
 O63 O 0.15179 0.41721 1.09442
 O64 O -0.08027 0.45535 1.00981
 Cu65 Cu -0.04793 0.59399 0.93632
 Cu66 Cu 0.04395 0.42096 1.06184
 C67 C -0.15768 0.53369 0.94246
 C68 C 0.15354 0.48155 1.05539
 C69 C 0.02182 0.44873 0.90010
 C70 C -0.02561 0.56602 1.09826
 O71 O -0.00728 -0.09080 0.46170
 O72 O -0.10833 0.15299 0.40575
 O73 O 0.02807 0.02034 0.40235
 O74 O -0.13910 0.03760 0.46498
 O75 O -0.03112 -0.00977 0.60109
 O76 O 0.13595 -0.02688 0.53843
 O77 O 0.00409 0.10145 0.54169
 O78 O 0.10534 -0.14256 0.59763
 Cu79 Cu -0.06762 0.03555 0.41962
 Cu80 Cu 0.06451 -0.02500 0.58378
 C81 C 0.06604 -0.15784 0.53878
 C82 C -0.06916 0.16841 0.46453
 C83 C 0.11063 -0.00666 0.46006
 C84 C -0.11376 0.01741 0.54335
 C85 C -0.36020 0.54715 0.90907
 C86 C -0.40287 0.61180 0.82347
 C87 C -0.33190 0.61490 0.82408
 C88 C -0.25103 0.55092 0.90970
 O89 O -0.26802 0.50997 0.96148
 H90 H -0.47768 0.65432 0.76830
 H91 H -0.33854 0.65928 0.76914
 C92 C 0.35551 0.46897 1.08814
 C93 C 0.39524 0.41170 1.17544
 C94 C 0.32456 0.40803 1.17500
 C95 C 0.24649 0.46503 1.08790
 O96 O 0.26504 0.50183 1.03505
 H97 H 0.46801 0.37433 1.23203
 H98 H 0.32926 0.36855 1.23121
 C99 C 0.10323 -0.36467 0.55618
 C100 C 0.19999 -0.40293 0.60372
 C101 C 0.19992 -0.33009 0.60589
 C102 C 0.10339 -0.25370 0.55911
 O103 O 0.04483 -0.27422 0.52867
 H104 H 0.26264 -0.47475 0.63293
 H105 H 0.26216 -0.33158 0.63533
 C106 C -0.10680 0.37625 0.44364
 C107 C -0.20343 0.41528 0.39262
 C108 C -0.20309 0.34179 0.39255
 C109 C -0.10649 0.26440 0.44365
 O110 O -0.04813 0.28486 0.47511
 H111 H -0.26611 0.48809 0.35970
 H112 H -0.26533 0.34367 0.36123
 C113 C 0.57754 -0.07954 -0.25614
 C114 C 0.65402 -0.17035 -0.18691
 C115 C 0.65856 -0.16902 -0.11367
 C116 C 0.58375 -0.07747 -0.14405
 O117 O 0.53457 -0.02305 -0.23036
 H118 H 0.70044 -0.22993 -0.18999
 H119 H 0.70845 -0.22809 -0.04675
 C120 C 0.41708 0.09321 0.25498
 C121 C 0.33835 0.18302 0.18544
 C122 C 0.33409 0.18183 0.11223
 C123 C 0.41120 0.09121 0.14304
 O124 O 0.46167 0.03734 0.22960
 H125 H 0.29045 0.24187 0.18839
 H126 H 0.28263 0.24038 0.04499
 C127 C 0.39103 -0.24246 -0.02457
 C128 C 0.29593 -0.16278 -0.08592
 C129 C 0.29563 -0.08938 -0.08619
 C130 C 0.39066 -0.12988 -0.02477
 O131 O 0.44864 -0.22281 0.01300
 H132 H 0.23508 -0.15869 -0.12791
 H133 H 0.23456 -0.01512 -0.12897
 C134 C 0.60306 0.25680 0.02426
 C135 C 0.69809 0.17720 0.08627
 C136 C 0.69880 0.10367 0.08631
 C137 C 0.60407 0.14400 0.02418
 O138 O 0.54588 0.23695 -0.01384
 H139 H 0.75857 0.17321 0.12894
 H140 H 0.75986 0.02944 0.12950
 C141 C -0.29863 0.03512 0.55951
 C142 C -0.27263 0.06564 0.61663
 C143 C -0.19565 0.05917 0.62172
 C144 C -0.18247 0.02699 0.56593
 O145 O -0.24447 0.01196 0.52842
 H146 H -0.30494 0.08833 0.65123
 H147 H -0.15588 0.07820 0.65928
 C148 C 0.29518 -0.02351 0.44386
 C149 C 0.26922 -0.05384 0.38654
 C150 C 0.19238 -0.04769 0.38145
 C151 C 0.17924 -0.01587 0.43746
 O152 O 0.24113 -0.00077 0.47509
 H153 H 0.30149 -0.07622 0.35181
 H154 H 0.15268 -0.06669 0.34375
 C155 C -0.04216 0.60015 1.26713
 C156 C -0.09740 0.69369 1.20526
 C157 C -0.09694 0.69393 1.13331
 C158 C -0.04155 0.60039 1.15697
 O159 O -0.00777 0.54333 1.23825
 H160 H -0.13306 0.75423 1.21211
 H161 H -0.13380 0.75479 1.07077
 C162 C 0.03904 0.41475 0.73148
 C163 C 0.09301 0.32127 0.79277
 C164 C 0.09220 0.32098 0.86459
 C165 C 0.03784 0.41442 0.84140
 O166 O 0.00502 0.47147 0.76053
 H167 H 0.12792 0.26085 0.78555
 H168 H 0.12803 0.26014 0.92670
   
