data_POSCAR
  _audit_creation_date              2014-09-24
  _audit_creation_method            'ToBaCCo'
  _symmetry_space_group_name_H-M    'P1'
  _symmetry_Int_Tables_number       1
  _symmetry_cell_setting            triclinic
  loop_
  _symmetry_equiv_pos_as_xyz
 x,y,z
_cell_length_a 54.6185
_cell_length_b 31.2020
_cell_length_c 17.2981
_cell_angle_alpha 89.939400
_cell_angle_beta 90.174200
_cell_angle_gamma 89.979900
loop_
  _atom_site_label
  _atom_site_type_symbol
  _atom_site_fract_x
  _atom_site_fract_y
  _atom_site_fract_z
C1 C 0.72506 0.24551 0.53580
 C2 C 0.72520 0.23982 0.45435
 C3 C 0.74480 0.21849 0.41946
 C4 C 0.76548 0.20486 0.46159
 C5 C 0.76606 0.21188 0.54339
 C6 C 0.74592 0.23272 0.57819
 H7 H 0.74541 0.23518 0.64062
 H8 H 0.74491 0.21614 0.35690
 C9 C 0.23211 0.76224 0.54555
 C10 C 0.23137 0.76203 0.46371
 C11 C 0.24993 0.74120 0.42263
 C12 C 0.26921 0.72019 0.46044
 C13 C 0.27016 0.71994 0.54263
 C14 C 0.25176 0.74196 0.58358
 H15 H 0.25207 0.74187 0.64624
 H16 H 0.24948 0.74169 0.35992
 C17 C 0.26490 0.28479 -0.54286
 C18 C 0.26797 0.27588 -0.46339
 C19 C 0.24930 0.25477 -0.42307
 C20 C 0.22716 0.24298 -0.45962
 C21 C 0.22472 0.24979 -0.54119
 C22 C 0.24335 0.27214 -0.58035
 H23 H 0.24213 0.27691 -0.64234
 H24 H 0.25145 0.25068 -0.36118
 C25 C -0.23883 0.79877 -0.53994
 C26 C -0.23718 0.79168 -0.45934
 C27 C -0.25614 0.76963 -0.42185
 C28 C -0.27698 0.75484 -0.46204
 C29 C -0.27818 0.76097 -0.54399
 C30 C -0.25943 0.78429 -0.58055
 H31 H -0.25967 0.78807 -0.64288
 H32 H -0.25527 0.76655 -0.35947
 O33 O -0.03406 0.92549 0.13877
 O34 O -0.06021 0.96625 0.06549
 C35 C -0.05583 0.93846 0.11964
 O36 O 0.03798 1.07248 0.13428
 O37 O 0.06383 1.02963 0.06431
 C38 C 0.05970 1.05951 0.11463
 O39 O -0.03069 1.07350 0.14188
 O40 O -0.05853 1.03780 0.06640
 C41 C -0.05297 1.06434 0.12134
 O42 O 0.03402 0.91627 0.13079
 O43 O 0.06205 0.95573 0.06271
 C44 C 0.05634 0.92622 0.11249
 Zr45 Zr 0.00042 0.94267 0.09305
 O46 O 0.00306 0.93861 0.21489
 O47 O -0.00405 0.87536 0.08593
 Zr48 Zr 0.00302 1.05106 0.09716
 O49 O 0.00590 1.04965 0.21924
 O50 O 0.00181 1.11888 0.09862
 O51 O -0.02003 0.99833 0.11042
 O52 O 0.02288 0.99516 0.10977
 O53 O 0.03435 0.92138 -0.14342
 O54 O 0.06211 0.95763 -0.06828
 C55 C 0.05661 0.93049 -0.12229
 O56 O -0.03087 1.07536 -0.14340
 O57 O -0.05854 1.03907 -0.06849
 C58 C -0.05311 1.06578 -0.12313
 O59 O 0.03815 1.07516 -0.13266
 O60 O 0.06393 1.03123 -0.06390
 C61 C 0.05989 1.06209 -0.11254
 O62 O -0.03407 0.93116 -0.15157
 O63 O -0.06027 0.96745 -0.07151
 C64 C -0.05588 0.94234 -0.12949
 Zr65 Zr 0.00043 0.94481 -0.10108
 O66 O 0.00148 0.93854 -0.22264
 O67 O -0.00383 0.87748 -0.09248
 Zr68 Zr 0.00302 1.05328 -0.09760
 O69 O 0.00582 1.05561 -0.21958
 O70 O 0.00159 1.12105 -0.09302
 Zr71 Zr -0.03488 1.00068 -0.00216
 Zr72 Zr 0.03814 0.99525 -0.00172
 O73 O 0.02288 0.99778 -0.11356
 O74 O -0.01995 1.00084 -0.11467
 O75 O 0.02227 0.93368 -0.00422
 O76 O -0.01819 1.06149 -0.00016
 O77 O -0.02134 0.93756 -0.00450
 O78 O 0.02509 1.05888 0.00025
 H79 H 0.03384 0.99400 0.15546
 H80 H -0.02871 1.08736 0.00034
 H81 H 0.03383 0.99809 -0.15912
 H82 H -0.03334 0.91376 -0.00556
 H83 H 0.01581 1.12942 0.06787
 H84 H 0.01624 1.13098 -0.06450
 H85 H -0.00743 1.03748 -0.24095
 H86 H 0.00407 0.96760 -0.24372
 H87 H 0.01229 0.86513 -0.07860
 H88 H 0.01033 0.86365 0.05844
 H89 H -0.00775 0.96100 0.23645
 H90 H -0.00835 1.03357 0.23921
 O91 O 0.46779 0.42639 0.14726
 O92 O 0.44114 0.46505 0.07204
 C93 C 0.44585 0.43821 0.12742
 O94 O 0.53895 0.57417 0.13300
 O95 O 0.56476 0.53100 0.06363
 C96 C 0.56066 0.56150 0.11272
 O97 O 0.47038 0.57375 0.14360
 O98 O 0.44246 0.53671 0.07060
 C99 C 0.44809 0.56382 0.12454
 O100 O 0.53597 0.41896 0.13890
 O101 O 0.56343 0.45681 0.06543
 C102 C 0.55811 0.42862 0.11797
 Zr103 Zr 0.50202 0.44316 0.09925
 O104 O 0.50262 0.43710 0.22105
 O105 O 0.50008 0.37588 0.08710
 Zr106 Zr 0.50400 0.55154 0.09824
 O107 O 0.50700 0.55181 0.22029
 O108 O 0.50234 0.61935 0.09679
 O109 O 0.48134 0.49864 0.11467
 O110 O 0.52426 0.49630 0.11276
 O111 O 0.53535 0.41586 -0.13135
 O112 O 0.56296 0.45627 -0.06288
 C113 C 0.55762 0.42613 -0.11159
 O114 O 0.46921 0.57380 -0.13917
 O115 O 0.44194 0.53638 -0.06466
 C116 C 0.44708 0.56387 -0.11842
 O117 O 0.53802 0.57394 -0.13186
 O118 O 0.56440 0.53077 -0.06383
 C119 C 0.55992 0.56161 -0.11218
 O120 O 0.46638 0.42386 -0.13852
 O121 O 0.44069 0.46443 -0.06382
 C122 C 0.44468 0.43657 -0.11782
 Zr123 Zr 0.50133 0.44250 -0.09546
 O124 O 0.50373 0.44233 -0.21758
 O125 O 0.49765 0.37498 -0.09414
 Zr126 Zr 0.50327 0.55065 -0.09710
 O127 O 0.50577 0.54774 -0.21915
 O128 O 0.50176 0.61836 -0.10209
 Zr129 Zr 0.46605 0.49915 0.00254
 Zr130 Zr 0.53899 0.49504 0.00073
 O131 O 0.52360 0.49538 -0.11090
 O132 O 0.48033 0.49780 -0.11069
 O133 O 0.52342 0.43328 0.00174
 O134 O 0.48249 0.56016 0.00113
 O135 O 0.48004 0.43629 0.00280
 O136 O 0.52553 0.55837 -0.00003
 H137 H 0.53553 0.49627 0.15772
 H138 H 0.47195 0.58601 0.00134
 H139 H 0.53475 0.49469 -0.15598
 H140 H 0.46840 0.41194 0.00375
 H141 H 0.51642 0.62984 0.06636
 H142 H 0.51390 0.62940 -0.06461
 H143 H 0.49054 0.53440 -0.23871
 H144 H 0.49036 0.46065 -0.23760
 H145 H 0.50990 0.36370 -0.05709
 H146 H 0.49957 0.36415 0.14031
 H147 H 0.50846 0.46469 0.24211
 H148 H 0.49360 0.53373 0.24072
 C149 C 0.27972 0.34185 0.36678
 C150 C 0.29836 0.36123 0.32397
 C151 C 0.32215 0.34419 0.32462
 C152 C 0.32675 0.30642 0.36682
 C153 C 0.30810 0.28699 0.40927
 C154 C 0.28455 0.30492 0.41061
 C155 C 0.34147 0.36575 0.27895
 C156 C 0.36527 0.36374 0.29802
 C157 C 0.38529 0.38389 0.25294
 C158 C 0.40938 0.37052 0.26777
 C159 C 0.42898 0.38812 0.22711
 C160 C 0.42499 0.41977 0.17063
 C161 C 0.40090 0.43366 0.15628
 C162 C 0.38126 0.41606 0.19710
 H163 H 0.26160 0.35595 0.36655
 H164 H 0.29428 0.38994 0.29109
 H165 H 0.34456 0.29126 0.36613
 H166 H 0.31202 0.25781 0.44096
 H167 H 0.33557 0.38411 0.22929
 H168 H 0.37066 0.34590 0.34902
 H169 H 0.41307 0.34603 0.31072
 H170 H 0.44729 0.37671 0.23989
 H171 H 0.39720 0.45835 0.11376
 H172 H 0.36314 0.42834 0.18516
 C173 C -0.22288 0.85287 0.36579
 C174 C -0.20384 0.87040 0.32222
 C175 C -0.18007 0.85349 0.32731
 C176 C -0.17583 0.81792 0.37579
 C177 C -0.19488 0.80038 0.41919
 C178 C -0.21850 0.81795 0.41511
 C179 C -0.16050 0.87262 0.27909
 C180 C -0.13664 0.87005 0.29726
 C181 C -0.11663 0.88796 0.24921
 C182 C -0.09276 0.87292 0.26214
 C183 C -0.07313 0.88894 0.21953
 C184 C -0.07686 0.92068 0.16301
 C185 C -0.10075 0.93598 0.15010
 C186 C -0.12043 0.91993 0.19285
 H187 H -0.24103 0.86665 0.36133
 H188 H -0.20765 0.89743 0.28470
 H189 H -0.15805 0.80278 0.37907
 H190 H -0.19128 0.77271 0.45533
 H191 H -0.16624 0.88957 0.22762
 H192 H -0.13119 0.85351 0.34956
 H193 H -0.08926 0.84852 0.30540
 H194 H -0.05498 0.87649 0.23128
 H195 H -0.10424 0.96080 0.10765
 H196 H -0.13836 0.93344 0.18240
 C197 C 0.69320 0.76284 0.34607
 C198 C 0.67479 0.74362 0.30179
 C199 C 0.66732 0.70149 0.31707
 C200 C 0.67866 0.67874 0.37751
 C201 C 0.69686 0.69803 0.42228
 C202 C 0.70402 0.74077 0.40858
 C203 C 0.64673 0.68309 0.27234
 C204 C 0.64420 0.64093 0.25994
 C205 C 0.62279 0.62231 0.21961
 C206 C 0.62555 0.58353 0.17969
 C207 C 0.60546 0.56412 0.14384
 C208 C 0.58207 0.58275 0.14854
 C209 C 0.57929 0.62150 0.18891
 C210 C 0.59943 0.64113 0.22400
 H211 H 0.69804 0.79579 0.33370
 H212 H 0.66621 0.76186 0.25578
 H213 H 0.67309 0.64643 0.39184
 H214 H 0.70543 0.67927 0.46760
 H215 H 0.63361 0.70521 0.24740
 H216 H 0.65859 0.61918 0.27788
 H217 H 0.64332 0.56821 0.17626
 H218 H 0.60820 0.53412 0.11360
 H219 H 0.56150 0.63661 0.19373
 H220 H 0.59651 0.67039 0.25624
 C221 C 0.19474 1.25386 0.35245
 C222 C 0.17551 1.23586 0.30999
 C223 C 0.16720 1.19435 0.32634
 C224 C 0.17833 1.17116 0.38659
 C225 C 0.19735 1.18925 0.42962
 C226 C 0.20564 1.23120 0.41419
 C227 C 0.14620 1.17689 0.28224
 C228 C 0.14319 1.13488 0.26923
 C229 C 0.12176 1.11718 0.22759
 C230 C 0.12433 1.07859 0.18691
 C231 C 0.10428 1.06020 0.14917
 C232 C 0.08108 1.07966 0.15267
 C233 C 0.07847 1.11815 0.19396
 C234 C 0.09860 1.13679 0.23092
 H235 H 0.20029 1.28634 0.33902
 H236 H 0.16706 1.25447 0.26422
 H237 H 0.17209 1.13934 0.40175
 H238 H 0.20581 1.16999 0.47447
 H239 H 0.13337 1.19959 0.25746
 H240 H 0.15733 1.11258 0.28704
 H241 H 0.14194 1.06267 0.18422
 H242 H 0.10687 1.03036 0.11833
 H243 H 0.06083 1.13387 0.19793
 H244 H 0.09582 1.16592 0.26364
 C245 C 0.68034 0.25169 -0.44779
 C246 C 0.66004 0.26953 -0.41089
 C247 C 0.66300 0.29765 -0.34844
 C248 C 0.68691 0.30733 -0.32323
 C249 C 0.70726 0.28943 -0.36008
 C250 C 0.70438 0.26209 -0.42435
 C251 C 0.64079 0.31747 -0.31409
 C252 C 0.64031 0.33591 -0.24405
 C253 C 0.61853 0.35800 -0.21181
 C254 C 0.62227 0.38918 -0.15469
 C255 C 0.60254 0.41126 -0.12272
 C256 C 0.57839 0.40235 -0.14635
 C257 C 0.57453 0.37060 -0.20270
 C258 C 0.59438 0.34860 -0.23512
 H259 H 0.67708 0.22906 -0.49407
 H260 H 0.64188 0.26118 -0.43126
 H261 H 0.69022 0.32979 -0.27687
 H262 H 0.72530 0.29902 -0.34058
 H263 H 0.62431 0.31706 -0.34895
 H264 H 0.65673 0.33642 -0.20900
 H265 H 0.64063 0.39688 -0.13524
 H266 H 0.60628 0.43540 -0.07934
 H267 H 0.55618 0.36268 -0.22175
 H268 H 0.59062 0.32389 -0.27729
 C269 C 0.20201 0.75883 -0.34570
 C270 C 0.18357 0.77688 -0.30041
 C271 C 0.17483 0.81819 -0.31632
 C272 C 0.18547 0.84187 -0.37672
 C273 C 0.20437 0.82419 -0.42087
 C274 C 0.21251 0.78214 -0.40678
 C275 C 0.15505 0.83611 -0.26796
 C276 C 0.13700 0.86015 -0.29756
 C277 C 0.11649 0.87641 -0.25025
 C278 C 0.09317 0.87993 -0.28380
 C279 C 0.07353 0.89616 -0.24128
 C280 C 0.07699 0.91025 -0.16489
 C281 C 0.10039 0.90697 -0.13135
 C282 C 0.11993 0.88992 -0.17343
 H283 H 0.20793 0.72639 -0.33345
 H284 H 0.17575 0.75822 -0.25377
 H285 H 0.17952 0.87430 -0.38882
 H286 H 0.21265 0.84339 -0.46591
 H287 H 0.15436 0.82653 -0.20778
 H288 H 0.13633 0.86580 -0.35937
 H289 H 0.09015 0.87000 -0.34305
 H290 H 0.05578 0.89879 -0.26896
 H291 H 0.10361 0.91778 -0.07270
 H292 H 0.13784 0.88840 -0.14655
 C293 C 0.29590 0.65605 -0.43793
 C294 C 0.31451 0.63461 -0.39809
 C295 C 0.32641 0.65416 -0.33560
 C296 C 0.31859 0.69483 -0.31112
 C297 C 0.29964 0.71602 -0.35002
 C298 C 0.28850 0.69753 -0.41562
 C299 C 0.34645 0.63097 -0.29598
 C300 C 0.36607 0.65102 -0.26661
 C301 C 0.38660 0.62776 -0.22955
 C302 C 0.41036 0.64453 -0.23499
 C303 C 0.43011 0.62346 -0.20003
 C304 C 0.42637 0.58565 -0.15744
 C305 C 0.40248 0.56923 -0.15110
 C306 C 0.38282 0.58994 -0.18700
 H307 H 0.28690 0.63959 -0.48517
 H308 H 0.31985 0.60284 -0.41682
 H309 H 0.32699 0.71017 -0.26160
 H310 H 0.29450 0.74776 -0.33067
 H311 H 0.34580 0.59627 -0.29603
 H312 H 0.36791 0.68536 -0.27404
 H313 H 0.41367 0.67383 -0.26693
 H314 H 0.44825 0.63714 -0.20541
 H315 H 0.39895 0.54033 -0.11832
 H316 H 0.36462 0.57678 -0.18000
 C317 C -0.20676 1.21987 -0.34358
 C318 C -0.18743 1.20518 -0.29744
 C319 C -0.17574 1.16638 -0.31432
 C320 C -0.18461 1.14115 -0.37539
 C321 C -0.20427 1.15531 -0.42052
 C322 C -0.21506 1.19580 -0.40759
 C323 C -0.15476 1.15236 -0.26636
 C324 C -0.13534 1.13219 -0.29657
 C325 C -0.11419 1.11788 -0.24947
 C326 C -0.09089 1.11611 -0.28331
 C327 C -0.07078 1.10069 -0.24140
 C328 C -0.07375 1.08577 -0.16537
 C329 C -0.09709 1.08768 -0.13142
 C330 C -0.11708 1.10373 -0.17286
 H331 H -0.21439 1.25112 -0.33099
 H332 H -0.18110 1.22484 -0.24982
 H333 H -0.17660 1.11014 -0.38754
 H334 H -0.21110 1.13426 -0.46536
 H335 H -0.15469 1.16123 -0.20584
 H336 H -0.13440 1.12750 -0.35857
 H337 H -0.08828 1.12652 -0.34248
 H338 H -0.05307 1.09918 -0.26930
 H339 H -0.09996 1.07629 -0.07297
 H340 H -0.13490 1.10370 -0.14567
 C341 C 0.67883 0.74788 -0.43708
 C342 C 0.65943 0.72837 -0.39837
 C343 C 0.66376 0.69855 -0.33916
 C344 C 0.68815 0.68961 -0.31791
 C345 C 0.70762 0.70925 -0.35660
 C346 C 0.70329 0.73757 -0.41872
 C347 C 0.64229 0.67662 -0.30438
 C348 C 0.64305 0.65245 -0.24012
 C349 C 0.62135 0.62972 -0.20873
 C350 C 0.62507 0.59406 -0.16055
 C351 C 0.60518 0.57167 -0.12976
 C352 C 0.58105 0.58462 -0.14618
 C353 C 0.57733 0.62064 -0.19366
 C354 C 0.59720 0.64308 -0.22424
 H355 H 0.67461 0.77119 -0.48160
 H356 H 0.64088 0.73642 -0.41538
 H357 H 0.69255 0.66651 -0.27347
 H358 H 0.72610 0.70014 -0.34070
 H359 H 0.62510 0.68018 -0.33490
 H360 H 0.66016 0.64779 -0.20978
 H361 H 0.64345 0.58329 -0.14705
 H362 H 0.60875 0.54425 -0.09297
 H363 H 0.55901 0.63194 -0.20654
 H364 H 0.59344 0.67130 -0.25856
 C365 C 0.18327 1.24312 -0.42782
 C366 C 0.16358 1.22767 -0.38484
 C367 C 0.16727 1.19760 -0.32578
 C368 C 0.19135 1.18495 -0.30768
 C369 C 0.21115 1.20063 -0.35040
 C370 C 0.20735 1.22885 -0.41305
 C371 C 0.14555 1.18054 -0.28476
 C372 C 0.14501 1.14183 -0.25094
 C373 C 0.12279 1.12321 -0.21485
 C374 C 0.12569 1.08999 -0.16089
 C375 C 0.10532 1.07042 -0.12732
 C376 C 0.08146 1.08338 -0.14750
 C377 C 0.07852 1.11652 -0.20183
 C378 C 0.09892 1.13614 -0.23537
 H379 H 0.17959 1.26666 -0.47239
 H380 H 0.14529 1.23876 -0.39877
 H381 H 0.19505 1.16303 -0.26060
 H382 H 0.22931 1.18893 -0.33650
 H383 H 0.12919 1.20008 -0.28593
 H384 H 0.16140 1.12237 -0.24991
 H385 H 0.14382 1.07911 -0.14456
 H386 H 0.10832 1.04494 -0.08579
 H387 H 0.06043 1.12708 -0.21918
 H388 H 0.09577 1.16056 -0.27863
 C389 C 0.30492 0.26137 -0.38114
 C390 C 0.32628 0.27524 -0.34392
 C391 C 0.33272 0.31881 -0.34394
 C392 C 0.31751 0.34824 -0.38294
 C393 C 0.29625 0.33434 -0.42025
 C394 C 0.28989 0.29077 -0.42025
 C395 C 0.35564 0.33244 -0.30480
 C396 C 0.35848 0.37168 -0.27453
 C397 C 0.38094 0.38614 -0.23400
 C398 C 0.37885 0.41925 -0.17978
 C399 C 0.39948 0.43501 -0.14163
 C400 C 0.42290 0.41854 -0.15768
 C401 C 0.42509 0.38546 -0.21241
 C402 C 0.40430 0.36932 -0.25017
 H403 H 0.30037 0.22758 -0.38085
 H404 H 0.33776 0.25192 -0.31480
 H405 H 0.32221 0.38187 -0.38626
 H406 H 0.28487 0.35753 -0.45010
 H407 H 0.36993 0.30873 -0.29728
 H408 H 0.34318 0.39377 -0.27550
 H409 H 0.36111 0.43296 -0.16664
 H410 H 0.39701 0.46046 -0.09989
 H411 H 0.44285 0.37218 -0.22638
 H412 H 0.40667 0.34451 -0.29313
 C413 C -0.20472 0.78184 -0.35774
 C414 C -0.18524 0.79737 -0.31332
 C415 C -0.17676 0.83938 -0.32360
 C416 C -0.18866 0.86624 -0.37706
 C417 C -0.20851 0.85103 -0.42016
 C418 C -0.21644 0.80839 -0.41214
 C419 C -0.15599 0.85489 -0.27641
 C420 C -0.13880 0.88099 -0.30508
 C421 C -0.11768 0.89577 -0.25867
 C422 C -0.09485 0.90081 -0.29444
 C423 C -0.07462 0.91513 -0.25208
 C424 C -0.07705 0.92586 -0.17363
 C425 C -0.10002 0.92154 -0.13812
 C426 C -0.12012 0.90629 -0.18007
 H427 H -0.21053 0.74892 -0.35011
 H428 H -0.17646 0.77629 -0.27185
 H429 H -0.18295 0.89921 -0.38443
 H430 H -0.21773 0.87265 -0.45968
 H431 H -0.15401 0.84234 -0.21828
 H432 H -0.13938 0.88977 -0.36570
 H433 H -0.09264 0.89324 -0.35513
 H434 H -0.05718 0.91861 -0.28106
 H435 H -0.10241 0.92970 -0.07775
 H436 H -0.13766 0.90360 -0.15146
 C437 C 0.28386 0.67242 0.35403
 C438 C 0.30266 0.65504 0.30935
 C439 C 0.32707 0.66738 0.32167
 C440 C 0.33222 0.69876 0.37791
 C441 C 0.31340 0.71619 0.42243
 C442 C 0.28914 0.70261 0.41175
 C443 C 0.34644 0.64744 0.27387
 C444 C 0.36986 0.64426 0.29679
 C445 C 0.38932 0.62368 0.25019
 C446 C 0.41379 0.63425 0.26602
 C447 C 0.43284 0.61515 0.22486
 C448 C 0.42785 0.58469 0.16712
 C449 C 0.40334 0.57378 0.15160
 C450 C 0.38428 0.59293 0.19280
 H451 H 0.26521 0.66179 0.34452
 H452 H 0.29816 0.63135 0.26582
 H453 H 0.35063 0.71047 0.38709
 H454 H 0.31775 0.74026 0.46541
 H455 H 0.34085 0.63415 0.21888
 H456 H 0.37533 0.65743 0.35202
 H457 H 0.41820 0.65753 0.31036
 H458 H 0.45149 0.62419 0.23862
 H459 H 0.39885 0.55006 0.10816
 H460 H 0.36577 0.58270 0.18050
 C461 C -0.21852 1.15908 0.35833
 C462 C -0.19895 1.14167 0.31733
 C463 C -0.17479 1.15374 0.33412
 C464 C -0.17061 1.18403 0.39297
 C465 C -0.19022 1.20148 0.43415
 C466 C -0.21447 1.18852 0.41877
 C467 C -0.15475 1.13267 0.29066
 C468 C -0.13189 1.14814 0.28538
 C469 C -0.11212 1.12616 0.24216
 C470 C -0.08770 1.13458 0.26239
 C471 C -0.06849 1.11450 0.22341
 C472 C -0.07329 1.08575 0.16269
 C473 C -0.09775 1.07782 0.14156
 C474 C -0.11695 1.09792 0.18053
 H475 H -0.23682 1.14798 0.34475
 H476 H -0.20272 1.11835 0.27249
 H477 H -0.15230 1.19386 0.40882
 H478 H -0.18635 1.22534 0.47793
 H479 H -0.15931 1.10300 0.26174
 H480 H -0.12706 1.17752 0.31475
 H481 H -0.08347 1.15648 0.30911
 H482 H -0.04988 1.12151 0.24102
 H483 H -0.10213 1.05624 0.09451
 H484 H -0.13543 1.09172 0.16104
 C485 C 0.69577 0.23856 0.34221
 C486 C 0.67876 0.25890 0.29399
 C487 C 0.67259 0.30200 0.30605
 C488 C 0.68453 0.32508 0.36480
 C489 C 0.70185 0.30502 0.41196
 C490 C 0.70719 0.26129 0.40244
 C491 C 0.65364 0.32232 0.25721
 C492 C 0.63725 0.34953 0.28697
 C493 C 0.61716 0.36844 0.24107
 C494 C 0.59446 0.37493 0.27664
 C495 C 0.57515 0.39359 0.23578
 C496 C 0.57841 0.40725 0.15911
 C497 C 0.60126 0.40132 0.12361
 C498 C 0.62045 0.38165 0.16404
 H499 H 0.69978 0.20494 0.33327
 H500 H 0.66991 0.24068 0.24854
 H501 H 0.68062 0.35873 0.37386
 H502 H 0.71098 0.32357 0.45638
 H503 H 0.65196 0.31217 0.19754
 H504 H 0.63741 0.35582 0.34859
 H505 H 0.59162 0.36528 0.33613
 H506 H 0.55781 0.39824 0.26483
 H507 H 0.60423 0.41173 0.06464
 H508 H 0.63797 0.37775 0.13580
 C509 C 0.21761 0.81451 0.36384
 C510 C 0.19938 0.83336 0.31849
 C511 C 0.17480 0.82118 0.32680
 C512 C 0.16887 0.78916 0.38127
 C513 C 0.18717 0.77030 0.42669
 C514 C 0.21165 0.78296 0.41846
 C515 C 0.15627 0.84165 0.27579
 C516 C 0.13226 0.84261 0.29161
 C517 C 0.11367 0.86322 0.24111
 C518 C 0.08915 0.85090 0.24973
 C519 C 0.07071 0.87053 0.20641
 C520 C 0.07630 0.90337 0.15359
 C521 C 0.10089 0.91550 0.14409
 C522 C 0.11940 0.89577 0.18756
 H523 H 0.23644 0.82451 0.35634
 H524 H 0.20450 0.85763 0.27673
 H525 H 0.15033 0.77766 0.38787
 H526 H 0.18231 0.74534 0.46742
 H527 H 0.16297 0.85685 0.22378
 H528 H 0.12557 0.82747 0.34367
 H529 H 0.08419 0.82608 0.29065
 H530 H 0.05199 0.86033 0.21539
 H531 H 0.10581 0.94095 0.10446
 H532 H 0.13795 0.90715 0.18054
   
