data_POSCAR
  _audit_creation_date              2014-09-24
  _audit_creation_method            'ToBaCCo'
  _symmetry_space_group_name_H-M    'P1'
  _symmetry_Int_Tables_number       1
  _symmetry_cell_setting            triclinic
  loop_
  _symmetry_equiv_pos_as_xyz
 x,y,z
_cell_length_a 26.6831
_cell_length_b 26.4546
_cell_length_c 27.7325
_cell_angle_alpha 89.972100
_cell_angle_beta 90.000000
_cell_angle_gamma 75.174200
loop_
  _atom_site_label
  _atom_site_type_symbol
  _atom_site_fract_x
  _atom_site_fract_y
  _atom_site_fract_z
O1 O -0.07883 0.30076 0.04216
 O2 O 0.01030 0.31491 -0.05550
 O3 O -0.07903 0.29915 -0.04780
 O4 O 0.01518 0.31948 0.04268
 O5 O 0.04832 0.23413 0.04933
 O6 O -0.03677 0.21576 -0.05031
 O7 O 0.05850 0.23596 -0.03882
 O8 O -0.03916 0.21675 0.04734
 Cu9 Cu -0.03521 0.31759 -0.00383
 Cu10 Cu 0.00987 0.21680 -0.00003
 C11 C -0.07489 0.25593 0.06065
 C12 C 0.05103 0.27835 -0.06245
 C13 C -0.07352 0.25355 -0.06477
 C14 C 0.04664 0.28049 0.06219
 O15 O 0.45127 0.79009 0.54745
 O16 O 0.54906 0.78550 0.45294
 O17 O 0.45078 0.78983 0.45427
 O18 O 0.54989 0.78539 0.54750
 O19 O 0.56802 0.69921 0.54775
 O20 O 0.46965 0.70356 0.45409
 O21 O 0.56734 0.69931 0.45291
 O22 O 0.47003 0.70383 0.54782
 Cu23 Cu 0.49870 0.79638 0.50057
 Cu24 Cu 0.52085 0.69279 0.50070
 C25 C 0.44389 0.74770 0.56372
 C26 C 0.57417 0.74170 0.43604
 C27 C 0.44342 0.74738 0.43816
 C28 C 0.57525 0.74157 0.56421
 O29 O 0.97678 0.69731 -0.04554
 O30 O 1.07452 0.70588 0.04601
 O31 O 0.97979 0.69793 0.04947
 O32 O 1.07361 0.70463 -0.04600
 O33 O 1.04320 0.79034 -0.04889
 O34 O 0.95209 0.78397 0.04903
 O35 O 1.04619 0.79203 0.04504
 O36 O 0.94927 0.78326 -0.04621
 Cu37 Cu 1.02845 0.69265 0.00080
 Cu38 Cu 0.99454 0.79598 -0.00032
 C39 C 0.94695 0.73902 -0.06241
 C40 C 1.07694 0.75055 0.06096
 C41 C 0.95110 0.73991 0.06668
 C42 C 1.07467 0.74867 -0.06368
 O43 O 0.45279 0.20686 0.44999
 O44 O 0.55020 0.20302 0.54557
 O45 O 0.45124 0.20620 0.54481
 O46 O 0.55159 0.20345 0.45232
 O47 O 0.53219 0.28971 0.45265
 O48 O 0.43290 0.29238 0.54538
 O49 O 0.53073 0.28928 0.54617
 O50 O 0.43432 0.29303 0.45032
 Cu51 Cu 0.50305 0.19625 0.49815
 Cu52 Cu 0.48027 0.29969 0.49867
 C53 C 0.42753 0.25071 0.43322
 C54 C 0.55735 0.24553 0.56192
 C55 C 0.42554 0.24989 0.56152
 C56 C 0.55921 0.24614 0.43691
 O57 O 0.69443 0.05242 -0.04414
 O58 O 0.68983 -0.04034 0.05448
 O59 O 0.69465 0.05482 0.04802
 O60 O 0.68475 -0.04472 -0.04209
 O61 O 0.77020 -0.07011 -0.04816
 O62 O 0.77920 0.02102 0.05003
 O63 O 0.77175 -0.07965 0.03988
 O64 O 0.77944 0.02199 -0.04730
 Cu65 Cu 0.68208 0.00771 0.00375
 Cu66 Cu 0.78374 -0.02782 0.00032
 C67 C 0.73805 0.05368 -0.06191
 C68 C 0.72988 -0.07744 0.06244
 C69 C 0.73891 0.05439 0.06495
 C70 C 0.72557 -0.07365 -0.06088
 O71 O 0.19567 0.58099 0.45310
 O72 O 0.17858 0.48902 0.54742
 O73 O 0.19544 0.58159 0.54572
 O74 O 0.17894 0.48831 0.45258
 O75 O 0.26325 0.45140 0.45458
 O76 O 0.27984 0.54533 0.54650
 O77 O 0.26319 0.45342 0.54747
 O78 O 0.27988 0.54389 0.45211
 Cu79 Cu 0.17848 0.53834 0.49964
 Cu80 Cu 0.28012 0.49501 0.50010
 C81 C 0.24068 0.57808 0.43660
 C82 C 0.21819 0.45597 0.56366
 C83 C 0.24046 0.57931 0.56189
 C84 C 0.21845 0.45406 0.43785
 O85 O 0.29834 0.94842 -0.04678
 O86 O 0.29591 1.05136 0.04373
 O87 O 0.29835 0.95215 0.04594
 O88 O 0.29571 1.04812 -0.05112
 O89 O 0.21031 1.06736 -0.05147
 O90 O 0.21278 0.97210 0.04527
 O91 O 0.21042 1.07055 0.04373
 O92 O 0.21284 0.97091 -0.04855
 Cu93 Cu 0.30572 0.99841 -0.00208
 Cu94 Cu 0.20302 1.02258 -0.00247
 C95 C 0.25583 0.94254 -0.06357
 C96 C 0.25257 1.07761 0.06008
 C97 C 0.25585 0.94553 0.06187
 C98 C 0.25251 1.07310 -0.06894
 O99 O 0.81235 0.41940 0.45491
 O100 O 0.82847 0.51162 0.54995
 O101 O 0.81213 0.41823 0.54761
 O102 O 0.82818 0.51296 0.45485
 O103 O 0.74377 0.54911 0.45666
 O104 O 0.72770 0.45396 0.54825
 O105 O 0.74388 0.54697 0.54938
 O106 O 0.72805 0.45582 0.45378
 Cu107 Cu 0.82889 0.46230 0.50183
 Cu108 Cu 0.72736 0.50483 0.50202
 C109 C 0.76743 0.42173 0.43838
 C110 C 0.78876 0.54496 0.56571
 C111 C 0.76709 0.41972 0.56340
 C112 C 0.78856 0.54726 0.44023
 C113 C 0.24016 0.23183 0.21036
 C114 C 0.19642 0.27560 0.21114
 C115 C 0.19056 0.31149 0.24911
 C116 C 0.22802 0.30597 0.28554
 C117 C 0.27353 0.26411 0.28321
 C118 C 0.27855 0.22711 0.24598
 H119 H 0.31254 0.19427 0.24484
 H120 H 0.15635 0.34411 0.25033
 C121 C 0.75289 0.76967 0.21083
 C122 C 0.80306 0.73493 0.21668
 C123 C 0.81245 0.69930 0.25521
 C124 C 0.77412 0.69860 0.28956
 C125 C 0.72463 0.73411 0.28473
 C126 C 0.71464 0.76867 0.24543
 H127 H 0.67613 0.79444 0.24149
 H128 H 0.85055 0.67265 0.25920
 C129 C 0.78427 0.23748 0.21314
 C130 C 0.75126 0.20341 0.21417
 C131 C 0.71679 0.20626 0.25292
 C132 C 0.71453 0.24225 0.29059
 C133 C 0.74805 0.27589 0.28958
 C134 C 0.78241 0.27310 0.25090
 H135 H 0.80794 0.29910 0.25010
 H136 H 0.69090 0.18064 0.25340
 C137 C 0.22360 0.75972 0.21004
 C138 C 0.25685 0.79352 0.21106
 C139 C 0.29200 0.78991 0.24924
 C140 C 0.29417 0.75365 0.28658
 C141 C 0.26043 0.72035 0.28557
 C142 C 0.22576 0.72353 0.24725
 H143 H 0.19983 0.69794 0.24660
 H144 H 0.31784 0.81558 0.24992
 C145 C 0.71114 0.24022 0.71005
 C146 C 0.74705 0.27132 0.70956
 C147 C 0.78302 0.26667 0.74716
 C148 C 0.78369 0.23219 0.78564
 C149 C 0.74779 0.20110 0.78645
 C150 C 0.71215 0.20533 0.74842
 H151 H 0.68473 0.18133 0.74877
 H152 H 0.81028 0.29087 0.74689
 C153 C 0.29241 0.75407 0.71352
 C154 C 0.25835 0.72115 0.71339
 C155 C 0.22298 0.72399 0.75107
 C156 C 0.22033 0.75945 0.78898
 C157 C 0.25411 0.79300 0.78909
 C158 C 0.28978 0.78975 0.75133
 H159 H 0.31590 0.81514 0.75148
 H160 H 0.19694 0.69850 0.75071
 C161 C 0.22928 0.30615 0.71455
 C162 C 0.27182 0.26144 0.71178
 C163 C 0.27592 0.22145 0.74588
 C164 C 0.23990 0.22580 0.78364
 C165 C 0.19979 0.27294 0.78901
 C166 C 0.19511 0.31213 0.75377
 H167 H 0.16429 0.34774 0.75648
 H168 H 0.30758 0.18649 0.74304
 C169 C 0.77244 0.69614 0.71644
 C170 C 0.72412 0.73419 0.71714
 C171 C 0.71319 0.77096 0.75455
 C172 C 0.74898 0.77087 0.79154
 C173 C 0.79781 0.73336 0.79064
 C174 C 0.80839 0.69593 0.75349
 H175 H 0.84571 0.66750 0.75236
 H176 H 0.67592 0.79954 0.75531
 C177 C 0.20661 0.13051 0.12879
 C178 C 0.25073 0.11588 0.09929
 C179 C 0.29286 0.13738 0.10832
 C180 C 0.29002 0.17430 0.14511
 C181 C 0.24528 0.18980 0.17372
 C182 C 0.20427 0.16642 0.16605
 H183 H 0.17395 0.11385 0.12331
 H184 H 0.32747 0.12651 0.08630
 H185 H 0.32219 0.19168 0.15049
 H186 H 0.16988 0.17676 0.18841
 C187 C 0.78434 0.63553 0.59199
 C188 C 0.79402 0.58228 0.60327
 C189 C 0.80282 0.56600 0.65133
 C190 C 0.79870 0.60304 0.68816
 C191 C 0.78603 0.65670 0.67720
 C192 C 0.78142 0.67241 0.62861
 H193 H 0.77744 0.64863 0.55499
 H194 H 0.80999 0.52496 0.66054
 H195 H 0.80256 0.59004 0.72533
 H196 H 0.77262 0.71349 0.61925
 C197 C 0.70211 0.89637 0.14023
 C198 C 0.72863 0.88388 0.09634
 C199 C 0.75649 0.83198 0.08789
 C200 C 0.75876 0.79373 0.12302
 C201 C 0.73958 0.80765 0.16971
 C202 C 0.70932 0.85915 0.17730
 H203 H 0.67994 0.93602 0.14756
 H204 H 0.77553 0.82070 0.05358
 H205 H 0.77821 0.75370 0.11429
 H206 H 0.69296 0.87141 0.21241
 C207 C 0.21129 0.43578 0.65025
 C208 C 0.21267 0.41994 0.60196
 C209 C 0.21491 0.36787 0.59071
 C210 C 0.21737 0.33140 0.62755
 C211 C 0.21910 0.34635 0.67603
 C212 C 0.21443 0.39913 0.68719
 H213 H 0.21014 0.47591 0.65925
 H214 H 0.21633 0.35521 0.55347
 H215 H 0.22014 0.29102 0.61825
 H216 H 0.21573 0.41143 0.72432
 C217 C 0.90218 0.20889 0.13228
 C218 C 0.88811 0.24949 0.09829
 C219 C 0.83889 0.28472 0.10139
 C220 C 0.80446 0.27951 0.13789
 C221 C 0.81889 0.23939 0.17209
 C222 C 0.86811 0.20444 0.16939
 H223 H 0.94014 0.18164 0.13106
 H224 H 0.82709 0.31632 0.07563
 H225 H 0.76687 0.30733 0.14006
 H226 H 0.88054 0.17443 0.19654
 C227 C 0.40644 0.70484 0.62996
 C228 C 0.40484 0.74934 0.60175
 C229 C 0.36608 0.79549 0.61070
 C230 C 0.32925 0.79685 0.64683
 C231 C 0.33080 0.75223 0.67471
 C232 C 0.37013 0.70653 0.66653
 H233 H 0.43637 0.66901 0.62439
 H234 H 0.36400 0.83038 0.58954
 H235 H 0.29944 0.83264 0.65300
 H236 H 0.37329 0.67240 0.68895
 C237 C 0.10291 0.79318 0.13336
 C238 C 0.11538 0.75430 0.09777
 C239 C 0.16413 0.71817 0.09855
 C240 C 0.20010 0.72118 0.13431
 C241 C 0.18734 0.75972 0.17008
 C242 C 0.13829 0.79514 0.16991
 H243 H 0.06515 0.82084 0.13384
 H244 H 0.17439 0.68781 0.07143
 H245 H 0.23752 0.69294 0.13467
 H246 H 0.12710 0.82365 0.19850
 C247 C 0.59506 0.28855 0.62814
 C248 C 0.59700 0.24424 0.59953
 C249 C 0.63710 0.19882 0.60730
 C250 C 0.67473 0.19798 0.64263
 C251 C 0.67278 0.24236 0.67099
 C252 C 0.63217 0.28732 0.66399
 H253 H 0.56418 0.32383 0.62349
 H254 H 0.63958 0.16409 0.58581
 H255 H 0.70534 0.16262 0.64804
 H256 H 0.62840 0.32107 0.68696
 C257 C 0.78711 0.08809 0.87431
 C258 C 0.74076 0.09201 0.89989
 C259 C 0.69704 0.13262 0.88830
 C260 C 0.69969 0.16848 0.85194
 C261 C 0.74601 0.16442 0.82646
 C262 C 0.78954 0.12368 0.83769
 H263 H 0.82132 0.05694 0.88202
 H264 H 0.66080 0.13672 0.90735
 H265 H 0.66552 0.19943 0.84357
 H266 H 0.82510 0.11865 0.81740
 C267 C 0.21638 0.66648 0.39904
 C268 C 0.24729 0.61483 0.39887
 C269 C 0.28357 0.59829 0.36179
 C270 C 0.28796 0.63267 0.32472
 C271 C 0.25767 0.68447 0.32547
 C272 C 0.22192 0.70124 0.36277
 H273 H 0.18818 0.67996 0.42738
 H274 H 0.30730 0.55841 0.36074
 H275 H 0.31470 0.61888 0.29535
 H276 H 0.19779 0.74098 0.36329
 C277 C 0.21156 0.90943 0.87185
 C278 C 0.25588 0.90525 0.90062
 C279 C 0.30005 0.86399 0.89178
 C280 C 0.29883 0.82653 0.85649
 C281 C 0.25430 0.83089 0.82820
 C282 C 0.21177 0.87394 0.83477
 H283 H 0.17750 0.94174 0.87627
 H284 H 0.33501 0.85977 0.91294
 H285 H 0.33276 0.79438 0.85089
 H286 H 0.17921 0.88115 0.81038
 C287 C 0.72408 0.39941 0.36434
 C288 C 0.76105 0.38412 0.40111
 C289 C 0.79253 0.33266 0.40166
 C290 C 0.78687 0.29697 0.36621
 C291 C 0.75037 0.31247 0.32923
 C292 C 0.71959 0.36412 0.32804
 H293 H 0.69984 0.43907 0.36290
 H294 H 0.82126 0.32001 0.42971
 H295 H 0.81158 0.25749 0.36706
 H296 H 0.69245 0.37717 0.29881
 C297 C 0.07249 0.30902 0.85924
 C298 C 0.08779 0.28400 0.90350
 C299 C 0.14078 0.26226 0.91217
 C300 C 0.17750 0.26459 0.87696
 C301 C 0.16180 0.28195 0.83004
 C302 C 0.10883 0.30603 0.82219
 H303 H 0.03190 0.32648 0.85168
 H304 H 0.15396 0.24452 0.94669
 H305 H 0.21812 0.24964 0.88568
 H306 H 0.09497 0.32068 0.78690
 C307 C 0.63075 0.69367 0.36990
 C308 C 0.61113 0.74010 0.39598
 C309 C 0.62654 0.78522 0.38291
 C310 C 0.66215 0.78348 0.34564
 C311 C 0.68284 0.73671 0.32062
 C312 C 0.66584 0.69216 0.33218
 H313 H 0.61904 0.65846 0.37867
 H314 H 0.61186 0.82164 0.40212
 H315 H 0.67479 0.81827 0.33724
 H316 H 0.68089 0.65586 0.31288
 C317 C 0.90133 0.68906 0.88694
 C318 C 0.91171 0.73671 0.90048
 C319 C 0.88658 0.78245 0.87531
 C320 C 0.85200 0.78065 0.83805
 C321 C 0.83903 0.73383 0.82679
 C322 C 0.86481 0.68781 0.85095
 H323 H 0.92014 0.65294 0.90513
 H324 H 0.89430 0.81974 0.88367
 H325 H 0.83438 0.81631 0.81869
 H326 H 0.85590 0.65107 0.84265
 C327 C 0.37094 0.20941 0.38212
 C328 C 0.39020 0.25281 0.39319
 C329 C 0.37351 0.29855 0.36549
 C330 C 0.33757 0.30126 0.32832
 C331 C 0.31636 0.25883 0.31883
 C332 C 0.33420 0.21247 0.34539
 H333 H 0.38328 0.17354 0.40266
 H334 H 0.38822 0.33237 0.37259
 H335 H 0.32517 0.33709 0.30773
 H336 H 0.31850 0.17921 0.33870
 C337 C 0.71365 0.90240 0.85413
 C338 C 0.72208 0.88752 0.90253
 C339 C 0.73403 0.83441 0.91493
 C340 C 0.73942 0.79633 0.87904
 C341 C 0.73455 0.81090 0.83017
 C342 C 0.71981 0.86430 0.81812
 H343 H 0.70499 0.94331 0.84408
 H344 H 0.74100 0.82244 0.95222
 H345 H 0.75006 0.75543 0.88917
 H346 H 0.71584 0.87643 0.78071
 C347 C 0.20376 0.43454 0.35252
 C348 C 0.21307 0.41726 0.40019
 C349 C 0.22268 0.36390 0.41081
 C350 C 0.22435 0.32782 0.37376
 C351 C 0.21871 0.34455 0.32547
 C352 C 0.20685 0.39835 0.31527
 H353 H 0.19674 0.47572 0.34393
 H354 H 0.22996 0.35016 0.44759
 H355 H 0.23227 0.28665 0.38255
 H356 H 0.20223 0.41215 0.27836
 C357 C 0.20482 0.12574 0.86546
 C358 C 0.25107 0.10692 0.89175
 C359 C 0.29546 0.12273 0.87765
 C360 C 0.29239 0.15980 0.84103
 C361 C 0.24538 0.18054 0.81681
 C362 C 0.20256 0.16084 0.82743
 H363 H 0.17016 0.11346 0.87421
 H364 H 0.33193 0.10859 0.89648
 H365 H 0.32612 0.17400 0.83310
 H366 H 0.16631 0.17525 0.80831
 C367 C 0.77902 0.63901 0.41430
 C368 C 0.79375 0.58550 0.40350
 C369 C 0.80794 0.56928 0.35622
 C370 C 0.80397 0.60633 0.31943
 C371 C 0.78640 0.66001 0.32966
 C372 C 0.77660 0.67602 0.37784
 H373 H 0.76811 0.65208 0.45073
 H374 H 0.81913 0.52804 0.34735
 H375 H 0.81203 0.59306 0.28262
 H376 H 0.76431 0.71718 0.38681
 C377 C 0.10261 0.79554 0.87015
 C378 C 0.11069 0.75143 0.90035
 C379 C 0.15524 0.71006 0.89332
 C380 C 0.19185 0.71391 0.85840
 C381 C 0.18357 0.75804 0.82851
 C382 C 0.13754 0.79757 0.83322
 H383 H 0.06791 0.82733 0.87335
 H384 H 0.16265 0.67535 0.91570
 H385 H 0.22633 0.68207 0.85411
 H386 H 0.12774 0.82934 0.80761
 C387 C 0.59933 0.29050 0.37345
 C388 C 0.59972 0.24532 0.40028
 C389 C 0.63884 0.19941 0.39142
 C390 C 0.67686 0.19884 0.35653
 C391 C 0.67630 0.24402 0.32975
 C392 C 0.63685 0.28962 0.33811
 H393 H 0.56927 0.32624 0.37897
 H394 H 0.64015 0.16401 0.41154
 H395 H 0.70658 0.16303 0.35017
 H396 H 0.63415 0.32417 0.31642
 C397 C 0.90514 0.20746 0.86205
 C398 C 0.88945 0.24497 0.89855
 C399 C 0.83807 0.27593 0.89895
 C400 C 0.80315 0.26993 0.86325
 C401 C 0.81921 0.23350 0.82615
 C402 C 0.87046 0.20247 0.82554
 H403 H 0.94465 0.18347 0.86078
 H404 H 0.82500 0.30498 0.92683
 H405 H 0.76393 0.29468 0.86376
 H406 H 0.88372 0.17500 0.79645
 C407 C 0.36586 0.79496 0.39080
 C408 C 0.40452 0.74884 0.40009
 C409 C 0.40652 0.70430 0.37186
 C410 C 0.37080 0.70597 0.33481
 C411 C 0.33166 0.75170 0.32615
 C412 C 0.32959 0.79630 0.35418
 H413 H 0.36350 0.82988 0.41197
 H414 H 0.43643 0.66851 0.37770
 H415 H 0.37434 0.67185 0.31232
 H416 H 0.29989 0.83210 0.34765
 C417 C 0.21297 0.91154 0.13011
 C418 C 0.25635 0.90672 0.10014
 C419 C 0.30011 0.86465 0.10719
 C420 C 0.30002 0.82753 0.14305
 C421 C 0.25641 0.83222 0.17258
 C422 C 0.21337 0.87503 0.16653
 H423 H 0.17911 0.94411 0.12598
 H424 H 0.33408 0.86011 0.08460
 H425 H 0.33386 0.79506 0.14774
 H426 H 0.18037 0.88067 0.19041
 C427 C 0.72132 0.39474 0.63463
 C428 C 0.76052 0.38114 0.59967
 C429 C 0.79401 0.33061 0.60014
 C430 C 0.78822 0.29422 0.63489
 C431 C 0.74938 0.30807 0.67005
 C432 C 0.71653 0.35879 0.67019
 H433 H 0.69556 0.43371 0.63541
 H434 H 0.82452 0.31925 0.57351
 H435 H 0.81461 0.25556 0.63499
 H436 H 0.68791 0.37089 0.69837
 C437 C 0.78880 0.08720 0.12946
 C438 C 0.74319 0.09315 0.10225
 C439 C 0.70102 0.13633 0.11147
 C440 C 0.70429 0.17259 0.14716
 C441 C 0.74968 0.16642 0.17445
 C442 C 0.79178 0.12325 0.16561
 H443 H 0.82171 0.05407 0.12356
 H444 H 0.66537 0.14212 0.09110
 H445 H 0.67121 0.20537 0.15381
 H446 H 0.82643 0.11668 0.18744
 C447 C 0.21588 0.66782 0.59906
 C448 C 0.24688 0.61622 0.59940
 C449 C 0.28282 0.59963 0.63675
 C450 C 0.28673 0.63389 0.67398
 C451 C 0.25633 0.68561 0.67314
 C452 C 0.22098 0.70249 0.63552
 H453 H 0.18790 0.68125 0.57053
 H454 H 0.30653 0.55974 0.63793
 H455 H 0.31308 0.62001 0.70363
 H456 H 0.19673 0.74218 0.63498
 C457 C 0.90388 0.69062 0.11948
 C458 C 0.91662 0.73754 0.10789
 C459 C 0.89621 0.78218 0.13615
 C460 C 0.86201 0.78048 0.17394
 C461 C 0.84646 0.73454 0.18314
 C462 C 0.86899 0.68917 0.15673
 H463 H 0.91945 0.65548 0.09867
 H464 H 0.90615 0.81861 0.12866
 H465 H 0.84551 0.81570 0.19436
 H466 H 0.85763 0.65331 0.16341
 C467 C 0.36590 0.20913 0.60938
 C468 C 0.38727 0.25166 0.60061
 C469 C 0.37222 0.29616 0.63007
 C470 C 0.33627 0.29837 0.66709
 C471 C 0.31322 0.25683 0.67467
 C472 C 0.32898 0.21181 0.64592
 H473 H 0.37694 0.17424 0.58736
 H474 H 0.38863 0.32920 0.62477
 H475 H 0.32585 0.33298 0.68951
 H476 H 0.31191 0.17921 0.65106
 C477 C 0.06743 0.29073 0.14826
 C478 C 0.08245 0.28826 0.09974
 C479 C 0.13391 0.28619 0.08771
 C480 C 0.17053 0.28493 0.12399
 C481 C 0.15631 0.28454 0.17276
 C482 C 0.10414 0.28908 0.18463
 H483 H 0.02790 0.29158 0.15797
 H484 H 0.14606 0.28369 0.05031
 H485 H 0.21043 0.28204 0.11408
 H486 H 0.09240 0.28873 0.22198
 C487 C 0.63134 0.69382 0.63067
 C488 C 0.61282 0.73985 0.60373
 C489 C 0.62960 0.78448 0.61567
 C490 C 0.66507 0.78275 0.65308
 C491 C 0.68417 0.73650 0.67940
 C492 C 0.66620 0.69236 0.66854
 H493 H 0.61858 0.65901 0.62275
 H494 H 0.61584 0.82055 0.59568
 H495 H 0.67843 0.81724 0.66092
 H496 H 0.67980 0.65654 0.68892
   
