data_POSCAR
  _audit_creation_date              2014-09-24
  _audit_creation_method            'ToBaCCo'
  _symmetry_space_group_name_H-M    'P1'
  _symmetry_Int_Tables_number       1
  _symmetry_cell_setting            triclinic
  loop_
  _symmetry_equiv_pos_as_xyz
 x,y,z
_cell_length_a 38.1994
_cell_length_b 39.1002
_cell_length_c 38.7851
_cell_angle_alpha 90.112600
_cell_angle_beta 89.814600
_cell_angle_gamma 90.257300
loop_
  _atom_site_label
  _atom_site_type_symbol
  _atom_site_fract_x
  _atom_site_fract_y
  _atom_site_fract_z
C1 C 0.14218 0.15711 0.18329
 N2 N 0.17201 0.14220 0.17124
 C3 C 0.18491 0.15087 0.13963
 N4 N 0.16795 0.17447 0.12037
 C5 C 0.13871 0.18986 0.13247
 N6 N 0.12582 0.18099 0.16384
 C7 C -0.13778 0.84507 0.19798
 N8 N -0.16668 0.86148 0.18625
 C9 C -0.18713 0.84711 0.16159
 N10 N -0.17862 0.81588 0.14867
 C11 C -0.14965 0.79938 0.15994
 N12 N -0.12923 0.81411 0.18454
 C13 C -0.16770 0.15347 -0.19050
 N14 N -0.15273 0.18511 -0.17821
 C15 C -0.16499 0.20081 -0.14951
 N16 N -0.19193 0.18680 -0.13134
 C17 C -0.20749 0.15706 -0.14125
 N18 N -0.19604 0.14047 -0.16986
 C19 C 0.16968 0.84241 -0.21664
 N20 N 0.19497 0.85658 -0.19674
 C21 C 0.20303 0.84285 -0.16568
 N22 N 0.18578 0.81434 -0.15468
 C23 C 0.16029 0.80003 -0.17451
 N24 N 0.15213 0.81433 -0.20529
 C25 C 0.17201 1.16536 0.79809
 N26 N 0.20194 1.15345 0.81256
 C27 C 0.21979 1.17273 0.83587
 N28 N 0.20739 1.20393 0.84490
 C29 C 0.17713 1.21587 0.83131
 N30 N 0.15954 1.19657 0.80772
 C31 C 0.84836 0.84411 0.79486
 N32 N 0.82001 0.86043 0.80823
 C33 C 0.80079 0.84586 0.83379
 N34 N 0.80991 0.81460 0.84597
 C35 C 0.83824 0.79804 0.83301
 N36 N 0.85751 0.81301 0.80753
 C37 C 0.15230 0.83717 1.20930
 N38 N 0.18718 0.84256 1.20425
 C39 C 0.20524 0.82304 1.18127
 N40 N 0.18832 0.79810 1.16347
 C41 C 0.15352 0.79270 1.16824
 N42 N 0.13564 0.81236 1.19104
 C43 C 0.84150 1.16863 1.19261
 N44 N 0.80696 1.15577 1.18412
 C45 C 0.78728 1.17087 1.15941
 N46 N 0.79977 1.19846 1.14221
 C47 C 0.83170 1.21213 1.14869
 N48 N 0.85248 1.19802 1.17309
 O49 O 0.45069 1.04948 1.07313
 O50 O 0.41027 1.01623 1.04485
 C51 C 0.41872 1.04051 1.06608
 O52 O 0.54209 1.03803 0.94403
 O53 O 0.58168 1.00940 0.97765
 C54 C 0.57377 1.02981 0.95254
 O55 O 0.44418 1.04302 0.95189
 O56 O 0.40686 1.01255 0.98682
 C57 C 0.41306 1.03462 0.96270
 O58 O 0.54928 1.04385 1.07154
 O59 O 0.58510 1.01075 1.03766
 C60 C 0.57998 1.03344 1.06146
 Zr61 Zr 0.49854 1.02903 1.05429
 O62 O 0.50376 1.08274 1.04925
 O63 O 0.49757 1.03394 1.10861
 Zr64 Zr 0.49391 1.02451 0.96755
 O65 O 0.49899 1.07846 0.96648
 O66 O 0.48755 1.02338 0.91339
 O67 O 0.46499 1.03399 1.01216
 O68 O 0.52691 1.03239 1.00909
 O69 O 0.54571 0.92562 1.07636
 O70 O 0.58321 0.95443 1.04019
 C71 C 0.57681 0.93340 1.06527
 O72 O 0.44278 0.91725 0.96037
 O73 O 0.40623 0.95316 0.99025
 C74 C 0.41198 0.92737 0.96994
 O75 O 0.54039 0.91970 0.95142
 O76 O 0.58095 0.95236 0.98020
 C77 C 0.57234 0.92890 0.95808
 O78 O 0.44720 0.92610 1.07937
 O79 O 0.40842 0.95779 1.04772
 C80 C 0.41569 0.93579 1.07145
 Zr81 Zr 0.49625 0.94246 1.05879
 O82 O 0.49823 0.88836 1.06037
 O83 O 0.49552 0.94493 1.11332
 Zr84 Zr 0.49248 0.93815 0.97187
 O85 O 0.49541 0.88415 0.97242
 O86 O 0.48556 0.93731 0.91770
 Zr87 Zr 0.44324 0.98444 1.01564
 Zr88 Zr 0.54731 0.98251 1.01060
 O89 O 0.52459 0.93351 1.01418
 O90 O 0.46303 0.93420 1.01719
 O91 O 0.52877 0.98538 1.06180
 O92 O 0.46250 0.98139 0.96485
 O93 O 0.46753 0.98671 1.06429
 O94 O 0.52404 0.98045 0.96141
 H95 H 0.54349 1.05190 1.00748
 H96 H 0.44565 0.98028 0.94551
 H97 H 0.53986 0.91310 1.01429
 H98 H 0.45306 0.98815 1.08548
 H99 H 0.50333 1.00549 0.90432
 H100 H 0.50688 0.94715 0.90702
 H101 H 0.48096 0.87616 0.99202
 H102 H 0.47610 0.87947 1.05058
 H103 H 0.51592 0.95882 1.12058
 H104 H 0.51389 1.01675 1.11793
 H105 H 0.48213 1.09132 1.03838
 H106 H 0.47849 1.08817 0.97863
 O107 O -0.06261 0.46457 0.05580
 O108 O -0.03727 0.42290 0.02239
 C109 C -0.05816 0.43287 0.04675
 O110 O -0.05527 0.55844 -0.07047
 O111 O -0.01595 0.59143 -0.04034
 C112 C -0.04066 0.58760 -0.06279
 O113 O -0.07284 0.46316 -0.06398
 O114 O -0.04202 0.42232 -0.03460
 C115 C -0.06706 0.43168 -0.05487
 O116 O -0.04649 0.55986 0.05586
 O117 O -0.01195 0.59217 0.01984
 C118 C -0.03334 0.58884 0.04558
 Zr119 Zr -0.03891 0.50977 0.03596
 O120 O -0.09318 0.52051 0.03751
 O121 O -0.03751 0.50750 0.09044
 Zr122 Zr -0.04487 0.50863 -0.05095
 O123 O -0.09887 0.52004 -0.04741
 O124 O -0.04906 0.50380 -0.10515
 O125 O -0.05286 0.47981 -0.00633
 O126 O -0.04391 0.53956 -0.00767
 O127 O 0.07296 0.54377 0.04763
 O128 O 0.04458 0.58454 0.01588
 C129 C 0.06733 0.57522 0.03869
 O130 O 0.05438 0.44647 -0.07371
 O131 O 0.01750 0.41431 -0.03986
 C132 C 0.04109 0.41745 -0.06375
 O133 O 0.06536 0.54220 -0.07796
 O134 O 0.04058 0.58370 -0.04395
 C135 C 0.06080 0.57388 -0.06891
 O136 O 0.06203 0.44828 0.04687
 O137 O 0.02204 0.41513 0.01788
 C138 C 0.04793 0.41905 0.03907
 Zr139 Zr 0.04894 0.49806 0.02991
 O140 O 0.10399 0.49445 0.02449
 O141 O 0.05351 0.49512 0.08419
 Zr142 Zr 0.04287 0.49692 -0.05699
 O143 O 0.09799 0.49305 -0.06097
 O144 O 0.03795 0.49285 -0.11120
 Zr145 Zr -0.00509 0.45309 -0.00941
 Zr146 Zr 0.00921 0.55349 -0.01146
 O147 O 0.05638 0.52609 -0.01453
 O148 O 0.04833 0.46629 -0.01335
 O149 O 0.00977 0.53398 0.03913
 O150 O -0.00567 0.47333 -0.05964
 O151 O 0.00134 0.47483 0.03988
 O152 O 0.00287 0.53278 -0.06130
 H153 H -0.06171 0.55790 -0.00664
 H154 H -0.00945 0.45765 -0.07938
 H155 H 0.07878 0.53887 -0.01608
 H156 H 0.00073 0.46008 0.06060
 H157 H -0.03260 0.52046 -0.11555
 H158 H 0.02703 0.51418 -0.11950
 H159 H 0.10529 0.47364 -0.04639
 H160 H 0.10914 0.47252 0.01279
 H161 H 0.04074 0.51480 0.09405
 H162 H -0.01791 0.52223 0.09810
 H163 H -0.10571 0.50030 0.02827
 H164 H -0.10942 0.50355 -0.03106
 O165 O 0.93693 0.07911 0.54379
 O166 O 0.96786 0.04825 0.58359
 C167 C 0.94456 0.07071 0.57522
 O168 O 0.93996 -0.04612 0.45123
 O169 O 0.97436 -0.01573 0.41350
 C170 C 0.95065 -0.03852 0.42040
 O171 O 0.93330 -0.03966 0.54724
 O172 O 0.96697 -0.00927 0.58556
 C173 C 0.94198 -0.03062 0.57828
 O174 O 0.94238 0.07739 0.44731
 O175 O 0.97526 0.04368 0.41115
 C176 C 0.95205 0.06720 0.41688
 Zr177 Zr 0.95801 0.06048 0.49679
 O178 O 0.90287 0.06180 0.49175
 O179 O 0.96043 0.11459 0.49844
 Zr180 Zr 0.95613 -0.02590 0.49934
 O181 O 0.90104 -0.02630 0.49375
 O182 O 0.95627 -0.07979 0.50485
 O183 O 0.94905 0.01836 0.52860
 O184 O 0.95172 0.01641 0.46800
 O185 O 1.06592 0.07620 0.45150
 O186 O 1.03436 0.04321 0.41363
 C187 C 1.05769 0.06638 0.42056
 O188 O 1.06123 -0.04293 0.55195
 O189 O 1.02692 -0.01026 0.58776
 C190 C 1.05050 -0.03332 0.58229
 O191 O 1.06294 -0.04788 0.45518
 O192 O 1.03350 -0.01585 0.41515
 C193 C 1.05555 -0.03949 0.42367
 O194 O 1.06427 0.07729 0.54804
 O195 O 1.02928 0.04761 0.58588
 C196 C 1.05391 0.06954 0.57896
 Zr197 Zr 1.04617 0.05909 0.49975
 O198 O 1.10157 0.05807 0.49832
 O199 O 1.04646 0.11323 0.50143
 Zr200 Zr 1.04441 -0.02718 0.50233
 O201 O 1.09983 -0.02749 0.50091
 O202 O 1.04332 -0.08110 0.50719
 Zr203 Zr 0.99926 0.01814 0.55106
 Zr204 Zr 1.00301 0.01498 0.44805
 O205 O 1.05274 0.01492 0.47133
 O206 O 1.05106 0.01680 0.53215
 O207 O 1.00334 0.06552 0.46712
 O208 O 0.99895 -0.03191 0.53093
 O209 O 1.00110 0.06688 0.52814
 O210 O 1.00128 -0.03424 0.47016
 H211 H 0.93151 0.01606 0.45205
 H212 H 0.99768 -0.05162 0.54691
 H213 H 1.07406 0.01416 0.45673
 H214 H 1.00093 0.08749 0.54304
 H215 H 0.96923 -0.08945 0.48500
 H216 H 1.02917 -0.09024 0.48792
 H217 H 1.10826 -0.01417 0.52096
 H218 H 1.10951 0.04439 0.51822
 H219 H 1.03359 0.12146 0.48100
 H220 H 0.97340 0.12236 0.47775
 H221 H 0.89276 0.04831 0.51092
 H222 H 0.89144 -0.00956 0.51036
 C223 C 1.12704 0.14761 0.21459
 C224 C 1.14166 0.12390 0.23714
 C225 C 1.12249 0.11222 0.26817
 C226 C 1.14089 0.10463 0.29841
 C227 C 1.12299 0.09359 0.32796
 C228 C 1.08640 0.08935 0.32742
 C229 C 1.06819 0.09605 0.29688
 C230 C 1.08596 0.10762 0.26761
 C231 C 1.06673 0.07619 0.35747
 C232 C 1.07690 0.08186 0.39154
 H233 H 1.16793 0.11449 0.23268
 H234 H 1.16909 0.10749 0.29924
 H235 H 1.13789 0.08762 0.35084
 H236 H 1.04008 0.09240 0.29570
 H237 H 1.07115 0.11226 0.24434
 H238 H 1.04250 0.06254 0.35251
 H239 H 1.10230 0.15929 0.22149
 H240 H 1.09928 0.09802 0.39710
 C241 C 0.88271 -0.14071 0.22410
 C242 C 0.87304 -0.11087 0.24149
 C243 C 0.89272 -0.09721 0.27119
 C244 C 0.87424 -0.08090 0.29777
 C245 C 0.89187 -0.06780 0.32638
 C246 C 0.92848 -0.07021 0.32858
 C247 C 0.94714 -0.08557 0.30151
 C248 C 0.92939 -0.09935 0.27316
 C249 C 0.94755 -0.05559 0.35820
 C250 C 0.93369 -0.05620 0.39150
 H251 H 0.84840 -0.09870 0.23533
 H252 H 0.84602 -0.07859 0.29653
 H253 H 0.87690 -0.05518 0.34641
 H254 H 0.97543 -0.08718 0.30248
 H255 H 0.94438 -0.11102 0.25257
 H256 H 0.97345 -0.04500 0.35383
 H257 H 0.90587 -0.15438 0.23220
 H258 H 0.90963 -0.07008 0.39658
 C259 C 0.84593 0.13384 0.77609
 C260 C 0.87055 0.14827 0.75407
 C261 C 0.88382 0.12953 0.72375
 C262 C 0.89911 0.14783 0.69649
 C263 C 0.91223 0.13064 0.66765
 C264 C 0.91076 0.09476 0.66592
 C265 C 0.89601 0.07641 0.69341
 C266 C 0.88225 0.09363 0.72193
 C267 C 0.92618 0.07590 0.63673
 C268 C 0.92618 0.08854 0.60316
 H269 H 0.87941 0.17431 0.75847
 H270 H 0.90086 0.17547 0.69750
 H271 H 0.92432 0.14536 0.64718
 H272 H 0.89502 0.04872 0.69272
 H273 H 0.87102 0.07881 0.74280
 H274 H 0.93694 0.05078 0.64168
 H275 H 0.83939 0.14418 0.79295
 H276 H 0.91217 0.11180 0.59717
 C277 C 1.16141 -0.14200 0.75000
 C278 C 1.13089 -0.14998 0.73212
 C279 C 1.12103 -0.13185 0.70035
 C280 C 1.08564 -0.12481 0.69440
 C281 C 1.07565 -0.10620 0.66542
 C282 C 1.10093 -0.09489 0.64155
 C283 C 1.13615 -0.10331 0.64663
 C284 C 1.14624 -0.12136 0.67602
 C285 C 1.09080 -0.07488 0.61104
 C286 C 1.06430 -0.05063 0.61283
 H287 H 1.11205 -0.16744 0.74351
 H288 H 1.06578 -0.13307 0.71261
 H289 H 1.04814 -0.10093 0.66156
 H290 H 1.15591 -0.09530 0.62822
 H291 H 1.17365 -0.12728 0.67957
 H292 H 1.10510 -0.07854 0.58716
 H293 H 1.17870 -0.12212 0.74043
 H294 H 1.05231 -0.04484 0.63751
 C295 C 0.21480 1.13571 1.12593
 C296 C 0.23608 1.11303 1.14391
 C297 C 0.26655 1.09700 1.12688
 C298 C 0.29770 1.09206 1.14523
 C299 C 0.32705 1.07798 1.12886
 C300 C 0.32536 1.06808 1.09400
 C301 C 0.29381 1.07196 1.07611
 C302 C 0.26476 1.08647 1.09227
 C303 C 0.35520 1.05212 1.07591
 C304 C 0.39020 1.05842 1.08414
 H305 H 0.23170 1.10853 1.17115
 H306 H 0.29946 1.09958 1.17207
 H307 H 0.35070 1.07433 1.14366
 H308 H 0.29170 1.06396 1.04944
 H309 H 0.24076 1.08907 1.07775
 H310 H 0.34925 1.03569 1.05414
 H311 H 0.22215 1.14263 1.09983
 H312 H 0.39688 1.07678 1.10400
 C313 C 0.22808 0.85911 0.85464
 C314 C 0.23911 0.84673 0.88650
 C315 C 0.26538 0.86549 0.90709
 C316 C 0.29087 0.84725 0.92520
 C317 C 0.31751 0.86464 0.94268
 C318 C 0.31861 0.90060 0.94280
 C319 C 0.29190 0.91882 0.92647
 C320 C 0.26563 0.90144 0.90849
 C321 C 0.34775 0.91953 0.95898
 C322 C 0.38205 0.90780 0.95670
 H323 H 0.23044 0.82180 0.89531
 H324 H 0.29080 0.81954 0.92491
 H325 H 0.33730 0.84997 0.95594
 H326 H 0.29201 0.94653 0.92668
 H327 H 0.24562 0.91614 0.89559
 H328 H 0.34270 0.94469 0.96959
 H329 H 0.23967 0.88251 0.84482
 H330 H 0.38747 0.88423 0.94300
 C331 C 0.78374 0.86489 1.14980
 C332 C 0.76014 0.85120 1.12602
 C333 C 0.72975 0.87068 1.11338
 C334 C 0.69885 0.85312 1.10499
 C335 C 0.66967 0.87089 1.09304
 C336 C 0.67114 0.90656 1.08870
 C337 C 0.70238 0.92400 1.09607
 C338 C 0.73139 0.90630 1.10859
 C339 C 0.64107 0.92578 1.07504
 C340 C 0.60650 0.91615 1.08160
 H341 H 0.76271 0.82480 1.11787
 H342 H 0.69723 0.82561 1.10796
 H343 H 0.64627 0.85660 1.08651
 H344 H 0.70424 0.95140 1.09233
 H345 H 0.75523 0.92041 1.11383
 H346 H 0.64632 0.94875 1.06027
 H347 H 0.77907 0.89021 1.16020
 H348 H 0.60097 0.89525 1.09910
 C349 C 0.76516 1.14337 0.87841
 C350 C 0.74710 1.11384 0.86816
 C351 C 0.71856 1.09799 0.88842
 C352 C 0.69300 1.07883 0.87099
 C353 C 0.66605 1.06267 0.88917
 C354 C 0.66445 1.06500 0.92529
 C355 C 0.69052 1.08338 0.94286
 C356 C 0.71724 1.10003 0.92459
 C357 C 0.63625 1.04800 0.94504
 C358 C 0.60228 1.04512 0.93230
 H359 H 0.75290 1.10247 0.84329
 H360 H 0.69383 1.07645 0.84316
 H361 H 0.64687 1.04787 0.87498
 H362 H 0.69002 1.08512 0.97074
 H363 H 0.73717 1.11375 0.93885
 H364 H 0.64166 1.03995 0.97121
 H365 H 0.75750 1.15649 0.90184
 H366 H 0.59577 1.05662 0.90777
 C367 C 0.12171 0.21621 0.11156
 C368 C 0.09778 0.23913 0.12568
 C369 C 0.08422 0.26832 0.10586
 C370 C 0.07821 0.29940 0.12289
 C371 C 0.06720 0.32802 0.10448
 C372 C 0.06144 0.32581 0.06877
 C373 C 0.06585 0.29433 0.05202
 C374 C 0.07749 0.26583 0.07033
 C375 C 0.05006 0.35579 0.04880
 C376 C 0.06154 0.38876 0.05669
 H377 H 0.09182 0.23785 0.15299
 H378 H 0.08279 0.30171 0.15035
 H379 H 0.06287 0.35174 0.11826
 H380 H 0.06093 0.29198 0.02462
 H381 H 0.08099 0.24187 0.05674
 H382 H 0.03337 0.35163 0.02663
 H383 H 0.13046 0.21940 0.08518
 H384 H 0.08075 0.39261 0.07683
 C385 C -0.14726 0.23205 -0.13765
 C386 C -0.16152 0.25434 -0.11335
 C387 C -0.14147 0.28422 -0.10070
 C388 C -0.15868 0.31498 -0.09310
 C389 C -0.13970 0.34353 -0.08159
 C390 C -0.10329 0.34139 -0.07687
 C391 C -0.08638 0.31031 -0.08352
 C392 C -0.10517 0.28208 -0.09553
 C393 C -0.08218 0.37019 -0.06352
 C394 C -0.09027 0.40466 -0.06843
 H395 H -0.18824 0.25068 -0.10462
 H396 H -0.18674 0.31699 -0.09645
 H397 H -0.15360 0.36690 -0.07575
 H398 H -0.05843 0.30790 -0.07954
 H399 H -0.09133 0.25841 -0.10021
 H400 H -0.05784 0.36375 -0.05084
 H401 H -0.12212 0.23809 -0.14917
 H402 H -0.11304 0.41188 -0.08322
 C403 C 0.14035 0.77008 -0.16264
 C404 C 0.15232 0.74856 -0.13669
 C405 C 0.13144 0.71908 -0.12449
 C406 C 0.14846 0.68918 -0.11394
 C407 C 0.12912 0.66112 -0.10196
 C408 C 0.09243 0.66289 -0.09969
 C409 C 0.07551 0.69304 -0.10959
 C410 C 0.09476 0.72079 -0.12219
 C411 C 0.07142 0.63481 -0.08477
 C412 C 0.08062 0.60041 -0.08749
 H413 H 0.17838 0.75232 -0.12635
 H414 H 0.17674 0.68752 -0.11511
 H415 H 0.14293 0.63853 -0.09355
 H416 H 0.04730 0.69512 -0.10748
 H417 H 0.08099 0.74386 -0.12928
 H418 H 0.04725 0.64152 -0.07174
 H419 H 0.11605 0.76410 -0.17570
 H420 H 0.10259 0.59283 -0.10343
 C421 C -0.14098 0.76564 0.14547
 C422 C -0.10923 0.74950 0.15213
 C423 C -0.09967 0.71634 0.13644
 C424 C -0.06429 0.70943 0.12981
 C425 C -0.05442 0.67875 0.11408
 C426 C -0.07982 0.65418 0.10514
 C427 C -0.11505 0.66044 0.11312
 C428 C -0.12498 0.69136 0.12840
 C429 C -0.07018 0.62189 0.08774
 C430 C -0.04272 0.62033 0.06405
 H431 H -0.08964 0.76275 0.16733
 H432 H -0.04428 0.72806 0.13630
 H433 H -0.02691 0.67420 0.10924
 H434 H -0.13497 0.64163 0.10693
 H435 H -0.15237 0.69546 0.13420
 H436 H -0.08664 0.59959 0.09165
 H437 H -0.15955 0.75401 0.12793
 H438 H -0.02838 0.64341 0.05758
 C439 C 1.15500 0.14546 0.77322
 C440 C 1.12660 0.15719 0.75398
 C441 C 1.11084 0.13673 0.72579
 C442 C 1.09813 0.15351 0.69648
 C443 C 1.08394 0.13484 0.66904
 C444 C 1.08154 0.09898 0.67070
 C445 C 1.09304 0.08228 0.70055
 C446 C 1.10791 0.10091 0.72773
 C447 C 1.06621 0.07878 0.64212
 C448 C 1.07069 0.08805 0.60764
 H449 H 1.11772 0.18328 0.75737
 H450 H 1.09967 0.18112 0.69460
 H451 H 1.07435 0.14854 0.64678
 H452 H 1.09095 0.05472 0.70263
 H453 H 1.11662 0.08732 0.75041
 H454 H 1.05246 0.05526 0.64828
 H455 H 1.16568 0.12047 0.76745
 H456 H 1.08737 0.10963 0.60130
 C457 C 0.86811 -0.14116 0.76833
 C458 C 0.85829 -0.11074 0.75213
 C459 C 0.87844 -0.09524 0.72347
 C460 C 0.86053 -0.07658 0.69827
 C461 C 0.87870 -0.06136 0.67093
 C462 C 0.91531 -0.06401 0.66868
 C463 C 0.93338 -0.08181 0.69442
 C464 C 0.91511 -0.09761 0.72144
 C465 C 0.93512 -0.04774 0.64025
 C466 C 0.92193 -0.04591 0.60680
 H467 H 0.83366 -0.09888 0.75904
 H468 H 0.83232 -0.07401 0.69959
 H469 H 0.86414 -0.04703 0.65196
 H470 H 0.96164 -0.08379 0.69341
 H471 H 0.92976 -0.11102 0.74101
 H472 H 0.96167 -0.03921 0.64519
 H473 H 0.89115 -0.15458 0.75933
 H474 H 0.89707 -0.05791 0.60084
 C475 C 1.13316 -0.14354 0.23295
 C476 C 1.14830 -0.11912 0.25465
 C477 C 1.12769 -0.10086 0.28118
 C478 C 1.14385 -0.09168 0.31227
 C479 C 1.12467 -0.07584 0.33849
 C480 C 1.08899 -0.06845 0.33385
 C481 C 1.07323 -0.07618 0.30218
 C482 C 1.09230 -0.09246 0.27611
 C483 C 1.06804 -0.05201 0.36130
 C484 C 1.07462 -0.05749 0.39620
 H485 H 1.17644 -0.11545 0.25438
 H486 H 1.17123 -0.09737 0.31653
 H487 H 1.13792 -0.06909 0.36218
 H488 H 1.04596 -0.07009 0.29782
 H489 H 1.07938 -0.09816 0.25196
 H490 H 1.04604 -0.03630 0.35383
 H491 H 1.10543 -0.14899 0.23535
 H492 H 1.09463 -0.07548 0.40380
 C493 C 0.86625 0.15240 0.22120
 C494 C 0.85514 0.12654 0.24324
 C495 C 0.87814 0.11312 0.27063
 C496 C 0.86295 0.09824 0.29998
 C497 C 0.88392 0.08654 0.32691
 C498 C 0.92059 0.08889 0.32472
 C499 C 0.93592 0.10255 0.29483
 C500 C 0.91489 0.11503 0.26817
 C501 C 0.94290 0.07670 0.35321
 C502 C 0.93357 0.08242 0.38750
 H503 H 0.82818 0.11779 0.24214
 H504 H 0.83475 0.09621 0.30234
 H505 H 0.87147 0.07530 0.34934
 H506 H 0.96414 0.10421 0.29245
 H507 H 0.92736 0.12596 0.24561
 H508 H 0.96738 0.06411 0.34716
 H509 H 0.85288 0.15993 0.20687
 H510 H 0.91092 0.09809 0.39314
 C511 C 0.16464 0.24754 -0.15758
 C512 C 0.13186 0.26049 -0.16649
 C513 C 0.11872 0.29296 -0.15173
 C514 C 0.08300 0.29624 -0.14394
 C515 C 0.07031 0.32606 -0.12836
 C516 C 0.09314 0.35339 -0.12079
 C517 C 0.12856 0.35064 -0.12999
 C518 C 0.14132 0.32067 -0.14508
 C519 C 0.08078 0.38520 -0.10402
 C520 C 0.05279 0.38580 -0.08080
 H521 H 0.11413 0.24505 -0.18183
 H522 H 0.06501 0.27541 -0.14927
 H523 H 0.04263 0.32775 -0.12262
 H524 H 0.14653 0.37156 -0.12496
 H525 H 0.16882 0.31931 -0.15173
 H526 H 0.09562 0.40848 -0.10840
 H527 H 0.18066 0.26182 -0.13954
 H528 H 0.03957 0.36219 -0.07400
 C529 C -0.15732 0.24049 0.12972
 C530 C -0.12657 0.25856 0.13682
 C531 C -0.11539 0.28815 0.11584
 C532 C -0.09863 0.31591 0.13182
 C533 C -0.08750 0.34403 0.11237
 C534 C -0.09232 0.34445 0.07646
 C535 C -0.10839 0.31635 0.06039
 C536 C -0.12019 0.28858 0.07992
 C537 C -0.07858 0.37264 0.05501
 C538 C -0.07685 0.40643 0.06652
 H539 H -0.11142 0.25235 0.15952
 H540 H -0.09430 0.31587 0.15941
 H541 H -0.07424 0.36492 0.12532
 H542 H -0.11178 0.31592 0.03267
 H543 H -0.13224 0.26710 0.06682
 H544 H -0.06989 0.36657 0.02909
 H545 H -0.17411 0.24938 0.10916
 H546 H -0.08874 0.41349 0.09089
 C547 C -0.15294 0.76603 -0.15373
 C548 C -0.12305 0.74811 -0.16394
 C549 C -0.11315 0.71490 -0.14857
 C550 C -0.07758 0.70651 -0.14617
 C551 C -0.06723 0.67586 -0.13086
 C552 C -0.09236 0.65271 -0.11806
 C553 C -0.12798 0.66036 -0.12181
 C554 C -0.13834 0.69129 -0.13668
 C555 C -0.08194 0.62055 -0.10089
 C556 C -0.05194 0.61880 -0.08061
 H557 H -0.10483 0.75988 -0.18185
 H558 H -0.05772 0.72402 -0.15564
 H559 H -0.03956 0.67021 -0.12934
 H560 H -0.14779 0.64266 -0.11262
 H561 H -0.16602 0.69648 -0.13916
 H562 H -0.09939 0.59867 -0.10220
 H563 H -0.16964 0.75536 -0.13382
 H564 H -0.03641 0.64170 -0.07657
 C565 C 0.13479 0.76622 0.14863
 C566 C 0.15214 0.74330 0.12701
 C567 C 0.13363 0.71640 0.10737
 C568 C 0.15147 0.68626 0.09887
 C569 C 0.13452 0.66004 0.08086
 C570 C 0.09944 0.66374 0.07074
 C571 C 0.08201 0.69439 0.07812
 C572 C 0.09885 0.72047 0.09638
 C573 C 0.08048 0.63649 0.05206
 C574 C 0.08818 0.60187 0.05583
 H575 H 0.18048 0.74380 0.12590
 H576 H 0.17847 0.68284 0.10654
 H577 H 0.14908 0.63719 0.07456
 H578 H 0.05515 0.69799 0.07006
 H579 H 0.08473 0.74388 0.10142
 H580 H 0.05802 0.64382 0.03678
 H581 H 0.10673 0.76426 0.15216
 H582 H 0.10866 0.59387 0.07322
 C583 C 0.25238 1.16044 0.85166
 C584 C 0.26326 1.12652 0.84919
 C585 C 0.29477 1.11370 0.86706
 C586 C 0.29549 1.07955 0.87801
 C587 C 0.32449 1.06681 0.89564
 C588 C 0.35362 1.08794 0.90227
 C589 C 0.35345 1.12173 0.89021
 C590 C 0.32421 1.13463 0.87299
 C591 C 0.38476 1.07498 0.92067
 C592 C 0.38230 1.04983 0.94603
 H593 H 0.24668 1.10816 0.83602
 H594 H 0.27336 1.06279 0.87325
 H595 H 0.32426 1.04028 0.90355
 H596 H 0.37584 1.13829 0.89446
 H597 H 0.32493 1.16078 0.86392
 H598 H 0.41002 1.08637 0.91493
 H599 H 0.26709 1.17830 0.86737
 H600 H 0.35676 1.04053 0.95392
 C601 C 0.24253 0.82928 1.17407
 C602 C 0.25973 0.85900 1.18461
 C603 C 0.29441 0.86868 1.17062
 C604 C 0.30153 0.90330 1.16434
 C605 C 0.33239 0.91309 1.14764
 C606 C 0.35698 0.88839 1.13738
 C607 C 0.35105 0.85400 1.14577
 C608 C 0.31984 0.84411 1.16201
 C609 C 0.38822 0.89822 1.11709
 C610 C 0.38570 0.92268 1.09119
 H611 H 0.24544 0.87788 1.19945
 H612 H 0.28255 0.92270 1.17116
 H613 H 0.33685 0.93995 1.14241
 H614 H 0.36995 0.83466 1.13859
 H615 H 0.31550 0.81729 1.16748
 H616 H 0.41262 0.88483 1.12112
 H617 H 0.25563 0.81163 1.15684
 H618 H 0.36029 0.93342 1.08535
 C619 C 0.75215 1.15804 1.15059
 C620 C 0.73983 1.12581 1.16019
 C621 C 0.70596 1.11234 1.14747
 C622 C 0.70267 1.07736 1.14010
 C623 C 0.67178 1.06437 1.12579
 C624 C 0.64338 1.08614 1.11905
 C625 C 0.64602 1.12078 1.12811
 C626 C 0.67710 1.13387 1.14196
 C627 C 0.61092 1.07329 1.10268
 C628 C 0.61157 1.04728 1.07807
 H629 H 0.75693 1.10879 1.17424
 H630 H 0.72437 1.06020 1.14458
 H631 H 0.67016 1.03728 1.12014
 H632 H 0.62428 1.13791 1.12368
 H633 H 0.67848 1.16080 1.14835
 H634 H 0.58643 1.08599 1.10845
 H635 H 0.73646 1.17371 1.13368
 H636 H 0.63648 1.03663 1.07018
 C637 C 0.77100 0.86467 0.84862
 C638 C 0.74832 0.85001 0.87275
 C639 C 0.71921 0.86898 0.88912
 C640 C 0.69004 0.85069 0.90131
 C641 C 0.66236 0.86765 0.91753
 C642 C 0.66354 0.90331 0.92223
 C643 C 0.69307 0.92152 0.91077
 C644 C 0.72058 0.90460 0.89417
 C645 C 0.63511 0.92187 0.94013
 C646 C 0.60033 0.91083 0.93950
 H647 H 0.75118 0.82318 0.87904
 H648 H 0.68864 0.82317 0.89823
 H649 H 0.64050 0.85267 0.92703
 H650 H 0.69480 0.94893 0.91458
 H651 H 0.74317 0.91938 0.88611
 H652 H 0.64151 0.94578 0.95286
 H653 H 0.76671 0.89058 0.83989
 H654 H 0.59306 0.88878 0.92415
   
