data_POSCAR
  _audit_creation_date              2014-09-24
  _audit_creation_method            'ToBaCCo'
  _symmetry_space_group_name_H-M    'P1'
  _symmetry_Int_Tables_number       1
  _symmetry_cell_setting            triclinic
  loop_
  _symmetry_equiv_pos_as_xyz
 x,y,z
_cell_length_a 36.5980
_cell_length_b 37.9724
_cell_length_c 39.1149
_cell_angle_alpha 89.750200
_cell_angle_beta 89.790800
_cell_angle_gamma 89.254100
loop_
  _atom_site_label
  _atom_site_type_symbol
  _atom_site_fract_x
  _atom_site_fract_y
  _atom_site_fract_z
O1 O 0.37325 0.31034 -0.02860
 O2 O 0.32404 0.36453 0.03338
 O3 O 0.36789 0.31105 0.03776
 O4 O 0.33017 0.36386 -0.03266
 O5 O 0.28207 0.32960 -0.03526
 O6 O 0.32159 0.27455 0.03435
 O7 O 0.27649 0.32948 0.03061
 O8 O 0.32636 0.27450 -0.03223
 Cu9 Cu 0.35356 0.34090 0.00287
 Cu10 Cu 0.29689 0.29828 -0.00083
 C11 C 0.35827 0.28351 -0.04131
 C12 C 0.29184 0.35669 0.04231
 C13 C 0.35150 0.28371 0.04794
 C14 C 0.29960 0.35629 -0.04584
 O15 O 0.67817 0.63882 0.03484
 O16 O 0.63194 0.68551 -0.03443
 O17 O 0.67482 0.63162 -0.03061
 O18 O 0.63662 0.69440 0.03159
 O19 O 0.68416 0.72889 0.02410
 O20 O 0.72338 0.66476 -0.03746
 O21 O 0.67961 0.71983 -0.04173
 O22 O 0.72687 0.67192 0.02807
 Cu23 Cu 0.65049 0.65941 0.00113
 Cu24 Cu 0.70832 0.69996 -0.00730
 C25 C 0.71061 0.64660 0.04278
 C26 C 0.64776 0.71026 -0.05013
 C27 C 0.70577 0.63704 -0.04439
 C28 C 0.65368 0.72242 0.03827
 O29 O 0.67050 0.35924 0.95160
 O30 O 0.61857 0.31458 1.01841
 O31 O 0.66462 0.36542 1.01730
 O32 O 0.62311 0.30969 0.95222
 O33 O 0.66726 0.27009 0.95863
 O34 O 0.71029 0.32747 1.02332
 O35 O 0.66308 0.27535 1.02477
 O36 O 0.71587 0.32088 0.95776
 Cu37 Cu 0.63969 0.34102 0.98429
 Cu38 Cu 0.69363 0.29442 0.99176
 C39 C 0.70217 0.34810 0.94355
 C40 C 0.63171 0.28733 1.03291
 C41 C 0.69481 0.35663 1.03102
 C42 C 0.63776 0.28037 0.94441
 O43 O 0.39064 0.68419 1.03005
 O44 O 0.33950 0.63333 0.96791
 O45 O 0.38551 0.68417 0.96358
 O46 O 0.34467 0.63346 1.03373
 O47 O 0.29861 0.67136 1.03667
 O48 O 0.34066 0.72351 0.96671
 O49 O 0.29347 0.67135 0.97093
 O50 O 0.34559 0.72327 1.03309
 Cu51 Cu 0.36970 0.65508 0.99849
 Cu52 Cu 0.31505 0.70142 1.00211
 C53 C 0.37705 0.71236 1.04218
 C54 C 0.30758 0.64308 0.95930
 C55 C 0.37031 0.71248 0.95321
 C56 C 0.31435 0.64313 1.04683
 O57 O 0.03373 0.33923 0.37385
 O58 O -0.02749 0.37360 0.30738
 O59 O -0.03477 0.33595 0.36156
 O60 O 0.04148 0.38236 0.32244
 O61 O 0.05338 0.33746 0.28835
 O62 O -0.02033 0.28816 0.33239
 O63 O -0.01594 0.32659 0.27586
 O64 O 0.04956 0.29449 0.34081
 Cu65 Cu 0.00221 0.36260 0.34422
 Cu66 Cu 0.01783 0.30708 0.30592
 C67 C 0.05187 0.31093 0.36889
 C68 C -0.03275 0.35557 0.28065
 C69 C -0.03989 0.30375 0.35492
 C70 C 0.06028 0.36839 0.29870
 O71 O 0.02979 0.67637 0.63190
 O72 O -0.01892 0.62373 0.69504
 O73 O -0.03929 0.66333 0.64369
 O74 O 0.04782 0.63636 0.68236
 O75 O 0.04254 0.67974 0.71949
 O76 O -0.03961 0.71213 0.67396
 O77 O -0.02719 0.67071 0.72747
 O78 O 0.02975 0.72176 0.66700
 Cu79 Cu 0.00482 0.64554 0.65955
 Cu80 Cu 0.00090 0.70082 0.70050
 C81 C 0.03900 0.70762 0.63882
 C82 C -0.03099 0.63797 0.72212
 C83 C -0.05355 0.69305 0.65093
 C84 C 0.05919 0.65241 0.70851
 O85 O 1.02324 0.61783 0.31975
 O86 O 0.95407 0.65443 0.37736
 O87 O 0.95373 0.60802 0.32866
 O88 O 1.02385 0.66049 0.36985
 O89 O 1.01239 0.70496 0.33492
 O90 O 0.94309 0.65074 0.29145
 O91 O 0.94293 0.69795 0.34109
 O92 O 1.01304 0.66084 0.28261
 Cu93 Cu 0.98954 0.63077 0.35242
 Cu94 Cu 0.97672 0.68289 0.30861
 C95 C 1.03024 0.63309 0.29162
 C96 C 0.93742 0.68290 0.36967
 C97 C 0.93681 0.61992 0.30278
 C98 C 1.02974 0.69185 0.36024
 O99 O 0.99101 0.33163 0.61678
 O100 O 1.03230 0.39269 0.67715
 O101 O 1.05688 0.34917 0.63212
 O102 O 0.96654 0.38030 0.65972
 O103 O 0.96780 0.34262 0.70278
 O104 O 1.05320 0.30381 0.66729
 O105 O 1.03720 0.34995 0.71545
 O106 O 0.98438 0.29255 0.65828
 Cu107 Cu 1.01142 0.36739 0.64231
 Cu108 Cu 1.01041 0.31805 0.69009
 C109 C 0.98084 0.30156 0.62717
 C110 C 1.04238 0.38164 0.70636
 C111 C 1.06969 0.32020 0.64343
 C112 C 0.95290 0.36861 0.68730
 O113 O 0.37574 0.02545 0.33216
 O114 O 0.31037 -0.03694 0.36653
 O115 O 0.36119 -0.03847 0.32070
 O116 O 0.32500 0.02904 0.37894
 O117 O 0.28451 0.04626 0.34051
 O118 O 0.32288 -0.02013 0.28074
 O119 O 0.26972 -0.01996 0.32803
 O120 O 0.33570 0.04449 0.29392
 Cu121 Cu 0.34672 -0.00682 0.35382
 Cu122 Cu 0.29869 0.01411 0.30702
 C123 C 0.36756 0.04472 0.30668
 C124 C 0.27904 -0.03935 0.35319
 C125 C 0.34948 -0.03970 0.29027
 C126 C 0.29883 0.04928 0.36988
 O127 O 0.63667 0.02814 0.67062
 O128 O 0.70942 -0.02063 0.62770
 O129 O 0.65565 -0.03621 0.66909
 O130 O 0.69081 0.04525 0.63108
 O131 O 0.73006 0.05023 0.67346
 O132 O 0.68777 -0.02652 0.71567
 O133 O 0.74400 -0.01762 0.67378
 O134 O 0.67324 0.03960 0.71393
 Cu135 Cu 0.66990 0.00340 0.64495
 Cu136 Cu 0.71275 0.01217 0.69862
 C137 C 0.64209 0.04164 0.69969
 C138 C 0.73883 -0.02781 0.64329
 C139 C 0.66373 -0.04386 0.69980
 C140 C 0.71711 0.06109 0.64517
 O141 O 0.37032 0.96311 0.65863
 O142 O 0.30310 1.02470 0.62177
 O143 O 0.35565 1.03017 0.66641
 O144 O 0.32025 0.95978 0.61245
 O145 O 0.27956 0.94647 0.65211
 O146 O 0.31792 1.01531 0.70798
 O147 O 0.26401 1.01208 0.66316
 O148 O 0.33065 0.94854 0.69876
 Cu149 Cu 0.34140 0.99607 0.63597
 Cu150 Cu 0.29411 0.97935 0.68471
 C151 C 0.36184 0.94501 0.68480
 C152 C 0.27190 1.02816 0.63569
 C153 C 0.34361 1.03437 0.69658
 C154 C 0.29338 0.94164 0.62255
 O155 O 0.62301 0.97556 0.33715
 O156 O 0.67658 1.03814 0.38578
 O157 O 0.63385 1.04323 0.33398
 O158 O 0.66663 0.97090 0.38898
 O159 O 0.71287 0.96102 0.35381
 O160 O 0.68072 1.03492 0.29913
 O161 O 0.72456 1.02840 0.35274
 O162 O 0.66911 0.96733 0.30138
 Cu163 Cu 0.64532 1.00783 0.36483
 Cu164 Cu 0.70156 0.99718 0.32316
 C165 C 0.63665 0.96080 0.31094
 C166 C 0.70980 1.04357 0.37835
 C167 C 0.65160 1.05150 0.30728
 C168 C 0.69535 0.95363 0.38098
 C169 C 0.87201 0.73464 0.51440
 C170 C 0.86147 0.74894 0.48279
 C171 C 0.83950 0.77953 0.48233
 C172 C 0.82644 0.79450 0.51309
 C173 C 0.83491 0.77741 0.54429
 C174 C 0.85825 0.74786 0.54518
 C175 C 0.80564 0.82868 0.51297
 C176 C 0.80835 0.85180 0.54097
 C177 C 0.78933 0.88400 0.54136
 C178 C 0.76762 0.89357 0.51334
 C179 C 0.76484 0.87141 0.48500
 C180 C 0.78377 0.83901 0.48487
 H181 H 0.89281 0.71434 0.51489
 H182 H 0.83337 0.79200 0.45817
 H183 H 0.82395 0.78729 0.56818
 H184 H 0.82590 0.84543 0.56239
 H185 H 0.75269 0.91841 0.51357
 H186 H 0.78059 0.82178 0.46316
 C187 C 0.13307 0.26852 0.51378
 C188 C 0.13389 0.25076 0.48237
 C189 C 0.15224 0.21799 0.48045
 C190 C 0.16968 0.20333 0.50942
 C191 C 0.16799 0.22180 0.54064
 C192 C 0.14927 0.25404 0.54306
 C193 C 0.18889 0.16848 0.50756
 C194 C 0.18923 0.14596 0.53629
 C195 C 0.20872 0.11407 0.53577
 C196 C 0.22765 0.10412 0.50617
 C197 C 0.22785 0.12594 0.47720
 C198 C 0.20810 0.15796 0.47782
 H199 H 0.11877 0.29355 0.51582
 H200 H 0.15193 0.20333 0.45682
 H201 H 0.18129 0.21138 0.56326
 H202 H 0.17426 0.15294 0.55926
 H203 H 0.24313 0.07959 0.50598
 H204 H 0.20913 0.17518 0.45571
 C205 C 0.08519 0.76346 0.49210
 C206 C 0.09682 0.77957 0.52212
 C207 C 0.12077 0.80796 0.52018
 C208 C 0.13634 0.81808 0.48856
 C209 C 0.12571 0.79981 0.45878
 C210 C 0.10006 0.77278 0.46048
 C211 C 0.16575 0.84523 0.48693
 C212 C 0.17358 0.86294 0.45601
 C213 C 0.20391 0.88476 0.45329
 C214 C 0.22521 0.89144 0.48207
 C215 C 0.21719 0.87558 0.51359
 C216 C 0.18796 0.85204 0.51564
 H217 H 0.06494 0.74305 0.49370
 H218 H 0.12818 0.82081 0.54371
 H219 H 0.13830 0.80514 0.43430
 H220 H 0.15708 0.85916 0.43348
 H221 H 0.24807 0.90914 0.47966
 H222 H 0.18386 0.83820 0.53949
 C223 C 0.91353 0.24173 0.48813
 C224 C 0.91020 0.22547 0.52023
 C225 C 0.88449 0.19856 0.52444
 C226 C 0.86123 0.18876 0.49743
 C227 C 0.86575 0.20535 0.46529
 C228 C 0.89206 0.23134 0.46059
 C229 C 0.83156 0.16243 0.50312
 C230 C 0.81734 0.14304 0.47547
 C231 C 0.78745 0.12077 0.48015
 C232 C 0.77349 0.11575 0.51306
 C233 C 0.78682 0.13448 0.54087
 C234 C 0.81572 0.15784 0.53593
 H235 H 0.93264 0.26293 0.48428
 H236 H 0.88290 0.18524 0.54888
 H237 H 0.84818 0.19935 0.44400
 H238 H 0.82871 0.14564 0.45006
 H239 H 0.75197 0.09693 0.51724
 H240 H 0.82464 0.17315 0.55754
 C241 C 0.51489 0.88929 0.74257
 C242 C 0.48121 0.87497 0.75184
 C243 C 0.47945 0.85161 0.77973
 C244 C 0.51072 0.84345 0.79946
 C245 C 0.54427 0.85886 0.78950
 C246 C 0.54670 0.88016 0.76022
 C247 C 0.50875 0.81803 0.82919
 C248 C 0.54088 0.80136 0.84152
 C249 C 0.53973 0.77745 0.86871
 C250 C 0.50630 0.76870 0.88339
 C251 C 0.47377 0.78324 0.87086
 C252 C 0.47499 0.80881 0.84477
 H253 H 0.51623 0.90842 0.72207
 H254 H 0.45355 0.83950 0.78517
 H255 H 0.56902 0.85445 0.80388
 H256 H 0.56718 0.80571 0.82980
 H257 H 0.50539 0.75028 0.90458
 H258 H 0.44942 0.82052 0.83660
 C259 C 0.52040 0.11226 0.24892
 C260 C 0.48480 0.11676 0.23658
 C261 C 0.47915 0.13804 0.20754
 C262 C 0.50802 0.15718 0.19244
 C263 C 0.54351 0.15273 0.20655
 C264 C 0.54966 0.12979 0.23412
 C265 C 0.50097 0.18131 0.16228
 C266 C 0.53016 0.19379 0.14194
 C267 C 0.52398 0.21738 0.11487
 C268 C 0.48822 0.22611 0.10559
 C269 C 0.45876 0.21436 0.12502
 C270 C 0.46506 0.19291 0.15373
 H271 H 0.52577 0.09497 0.27043
 H272 H 0.45221 0.13877 0.19654
 H273 H 0.56676 0.16682 0.19682
 H274 H 0.55809 0.18612 0.14698
 H275 H 0.48310 0.24247 0.08339
 H276 H 0.44167 0.18609 0.16915
 C277 C 0.48068 0.09062 0.75852
 C278 C 0.51536 0.09713 0.77206
 C279 C 0.51788 0.11853 0.80114
 C280 C 0.48714 0.13698 0.81425
 C281 C 0.45270 0.13061 0.79905
 C282 C 0.44945 0.10690 0.77193
 C283 C 0.49152 0.16372 0.84236
 C284 C 0.46082 0.17701 0.86047
 C285 C 0.46433 0.20470 0.88368
 C286 C 0.49898 0.21698 0.89190
 C287 C 0.52994 0.20399 0.87516
 C288 C 0.52623 0.17808 0.85004
 H289 H 0.47764 0.07315 0.73700
 H290 H 0.54405 0.12052 0.81341
 H291 H 0.42815 0.14415 0.80730
 H292 H 0.43370 0.16727 0.85600
 H293 H 0.50172 0.23750 0.91088
 H294 H 0.55058 0.17046 0.83615
 C295 C 0.49491 0.90603 0.23625
 C296 C 0.53002 0.89331 0.22846
 C297 C 0.53511 0.87112 0.20017
 C298 C 0.50549 0.86194 0.17904
 C299 C 0.47044 0.87600 0.18723
 C300 C 0.46499 0.89666 0.21643
 C301 C 0.51057 0.83610 0.15022
 C302 C 0.48050 0.81678 0.13825
 C303 C 0.48460 0.79187 0.11228
 C304 C 0.51906 0.78529 0.09822
 C305 C 0.54969 0.80256 0.11054
 C306 C 0.54545 0.82861 0.13573
 H307 H 0.49064 0.92308 0.25810
 H308 H 0.56208 0.86010 0.19593
 H309 H 0.44687 0.87065 0.17165
 H310 H 0.45374 0.81966 0.14970
 H311 H 0.52239 0.76623 0.07793
 H312 H 0.56959 0.84217 0.14405
 C313 C 0.75795 0.48883 0.88904
 C314 C 0.77268 0.45855 0.87403
 C315 C 0.79940 0.46140 0.84875
 C316 C 0.80986 0.49464 0.83615
 C317 C 0.79335 0.52511 0.85060
 C318 C 0.76774 0.52238 0.87746
 C319 C 0.83787 0.49711 0.80823
 C320 C 0.85999 0.52711 0.80490
 C321 C 0.88735 0.52865 0.77975
 C322 C 0.89285 0.50003 0.75776
 C323 C 0.87148 0.46994 0.76066
 C324 C 0.84377 0.46879 0.78538
 H325 H 0.73924 0.48593 0.91025
 H326 H 0.81178 0.43736 0.83922
 H327 H 0.79970 0.55096 0.84074
 H328 H 0.85719 0.54888 0.82250
 H329 H 0.91431 0.50090 0.73860
 H330 H 0.82687 0.44567 0.78628
 C331 C 0.24663 0.50513 0.10197
 C332 C 0.22819 0.47452 0.11100
 C333 C 0.19965 0.47618 0.13470
 C334 C 0.19135 0.50772 0.15213
 C335 C 0.21079 0.53843 0.14310
 C336 C 0.23831 0.53724 0.11790
 C337 C 0.16460 0.50754 0.18122
 C338 C 0.14566 0.53855 0.19109
 C339 C 0.12272 0.53838 0.21983
 C340 C 0.11708 0.50705 0.23785
 C341 C 0.13490 0.47587 0.22835
 C342 C 0.15891 0.47630 0.20040
 H343 H 0.26765 0.50390 0.08244
 H344 H 0.18496 0.45226 0.14016
 H345 H 0.20599 0.56292 0.15650
 H346 H 0.14890 0.56291 0.17703
 H347 H 0.09843 0.50707 0.25946
 H348 H 0.17390 0.45230 0.19470
 C349 C 0.75706 0.49978 0.09570
 C350 C 0.77468 0.52903 0.10900
 C351 C 0.80239 0.52438 0.13301
 C352 C 0.81050 0.49073 0.14665
 C353 C 0.79171 0.46140 0.13337
 C354 C 0.76539 0.46569 0.10741
 C355 C 0.83713 0.48690 0.17558
 C356 C 0.85558 0.45466 0.18203
 C357 C 0.87943 0.45124 0.20980
 C358 C 0.88648 0.48027 0.23048
 C359 C 0.86881 0.51259 0.22461
 C360 C 0.84383 0.51556 0.19765
 H361 H 0.73717 0.50394 0.07573
 H362 H 0.81661 0.54751 0.14153
 H363 H 0.79641 0.43532 0.14375
 H364 H 0.85172 0.43209 0.16573
 H365 H 0.90585 0.47752 0.25125
 H366 H 0.82906 0.54022 0.19486
 C367 C 0.24677 0.49850 0.89953
 C368 C 0.23245 0.53176 0.89181
 C369 C 0.20368 0.53492 0.86865
 C370 C 0.19145 0.50556 0.85010
 C371 C 0.20703 0.47207 0.85765
 C372 C 0.23454 0.46852 0.88253
 C373 C 0.16436 0.51082 0.82177
 C374 C 0.14153 0.48330 0.81079
 C375 C 0.11643 0.48869 0.78393
 C376 C 0.11290 0.52258 0.76969
 C377 C 0.13553 0.54982 0.77966
 C378 C 0.16155 0.54383 0.80499
 H379 H 0.26759 0.49589 0.91896
 H380 H 0.19194 0.56085 0.86454
 H381 H 0.19917 0.44899 0.84349
 H382 H 0.14282 0.45790 0.82331
 H383 H 0.09288 0.52802 0.75003
 H384 H 0.17962 0.56520 0.81103
 C385 C 0.29051 0.39776 0.09185
 C386 C 0.27213 0.38024 0.06581
 C387 C 0.23509 0.38945 0.06039
 C388 C 0.21961 0.41936 0.07660
 C389 C 0.24111 0.44016 0.09828
 C390 C 0.27534 0.42674 0.10780
 C391 C 0.31174 0.44319 0.11316
 C392 C 0.32848 0.41123 0.09531
 H393 H 0.21931 0.37583 0.04129
 H394 H 0.19212 0.42777 0.07007
 H395 H 0.31898 0.44463 0.14069
 H396 H 0.31563 0.46793 0.09847
 H397 H 0.34546 0.39445 0.11254
 H398 H 0.34135 0.41798 0.07039
 C399 C 0.76733 0.61798 0.06625
 C400 C 0.72960 0.62455 0.06828
 C401 C 0.70915 0.60404 0.09137
 C402 C 0.72493 0.57424 0.10704
 C403 C 0.76143 0.56462 0.10004
 C404 C 0.78301 0.58853 0.08198
 C405 C 0.80862 0.58217 0.05283
 C406 C 0.79149 0.61426 0.03556
 H407 H 0.68011 0.60886 0.09464
 H408 H 0.70778 0.55703 0.12212
 H409 H 0.80317 0.55710 0.03928
 H410 H 0.83757 0.58608 0.06022
 H411 H 0.77609 0.60780 0.01197
 H412 H 0.81062 0.63661 0.03293
 C413 C 0.70668 0.38636 0.89158
 C414 C 0.72358 0.36812 0.91851
 C415 C 0.76119 0.37387 0.92371
 C416 C 0.77880 0.40188 0.90676
 C417 C 0.75901 0.42386 0.88418
 C418 C 0.72412 0.41328 0.87455
 C419 C 0.68926 0.43325 0.86874
 C420 C 0.67003 0.40375 0.88783
 H421 H 0.77577 0.35962 0.94357
 H422 H 0.80647 0.40843 0.91382
 H423 H 0.68196 0.43462 0.84121
 H424 H 0.68784 0.45877 0.88242
 H425 H 0.65146 0.38839 0.87133
 H426 H 0.65804 0.41261 0.91254
 C427 C 0.30417 0.59837 0.91286
 C428 C 0.28658 0.62047 0.93640
 C429 C 0.24831 0.61731 0.93979
 C430 C 0.23000 0.58906 0.92418
 C431 C 0.24981 0.56361 0.90524
 C432 C 0.28634 0.57088 0.89767
 C433 C 0.32044 0.54886 0.89566
 C434 C 0.34007 0.57926 0.91263
 H435 H 0.23315 0.63462 0.95678
 H436 H 0.20108 0.58570 0.92894
 H437 H 0.32936 0.54433 0.86883
 H438 H 0.32007 0.52499 0.91210
 H439 H 0.36033 0.59210 0.89557
 H440 H 0.35008 0.57253 0.93868
 C441 C 0.06685 0.30583 0.43040
 C442 C 0.07508 0.29709 0.39662
 C443 C 0.10577 0.27511 0.39059
 C444 C 0.12565 0.26038 0.41819
 C445 C 0.11475 0.26679 0.45238
 C446 C 0.08589 0.29091 0.45742
 C447 C 0.05202 0.28743 0.47859
 C448 C 0.03117 0.30387 0.44893
 H449 H 0.11391 0.26875 0.36467
 H450 H 0.14899 0.24357 0.41262
 H451 H 0.05234 0.30449 0.50160
 H452 H 0.04479 0.25950 0.48356
 H453 H 0.01972 0.33041 0.45484
 H454 H 0.01175 0.28553 0.43668
 C455 C 0.05971 0.76409 0.61142
 C456 C 0.06058 0.72721 0.61344
 C457 C 0.08064 0.70878 0.58831
 C458 C 0.09435 0.72644 0.55956
 C459 C 0.08823 0.76289 0.55527
 C460 C 0.07343 0.78164 0.58288
 C461 C 0.04317 0.80834 0.58346
 C462 C 0.02814 0.78916 0.61460
 H463 H 0.08356 0.68038 0.58961
 H464 H 0.10764 0.71122 0.53960
 H465 H 0.02519 0.80676 0.56067
 H466 H 0.05318 0.83513 0.58937
 H467 H 0.00143 0.77642 0.60989
 H468 H 0.02946 0.80496 0.63841
 C469 C 0.90947 0.73607 0.39728
 C470 C 0.91345 0.69939 0.39551
 C471 C 0.89958 0.67921 0.42272
 C472 C 0.88076 0.69532 0.44983
 C473 C 0.87586 0.73226 0.45107
 C474 C 0.89103 0.75224 0.42442
 C475 C 0.87283 0.77809 0.40083
 C476 C 0.89327 0.76065 0.37154
 H477 H 0.90328 0.65086 0.42309
 H478 H 0.87029 0.67876 0.47014
 H479 H 0.88164 0.80553 0.40560
 H480 H 0.84275 0.77457 0.39936
 H481 H 0.91419 0.77786 0.35970
 H482 H 0.87508 0.74718 0.35316
 C483 C 0.93607 0.25589 0.60908
 C484 C 0.96669 0.27640 0.60226
 C485 C 0.98379 0.27257 0.57017
 C486 C 0.96727 0.25293 0.54420
 C487 C 0.93268 0.23761 0.54947
 C488 C 0.91922 0.23721 0.58315
 C489 C 0.88193 0.24570 0.59664
 C490 C 0.90039 0.26609 0.62500
 H491 H 1.00894 0.28625 0.56461
 H492 H 0.98052 0.25185 0.51944
 H493 H 0.86766 0.22185 0.60603
 H494 H 0.86575 0.26271 0.57893
 H495 H 0.89677 0.25394 0.65067
 H496 H 0.89490 0.29495 0.62379
 C497 C 0.43272 0.05447 0.29417
 C498 C 0.39649 0.06589 0.29115
 C499 C 0.38933 0.09675 0.27213
 C500 C 0.41790 0.11385 0.25460
 C501 C 0.45393 0.09976 0.25499
 C502 C 0.46053 0.07073 0.27642
 C503 C 0.47932 0.03641 0.26889
 C504 C 0.44880 0.01859 0.28852
 H505 H 0.36172 0.10714 0.27017
 H506 H 0.41145 0.13764 0.24043
 H507 H 0.50623 0.03388 0.28182
 H508 H 0.47959 0.03007 0.24116
 H509 H 0.45812 0.00609 0.31276
 H510 H 0.43138 0.00179 0.27222
 C511 C 0.57612 0.04385 0.71234
 C512 C 0.61076 0.05787 0.71724
 C513 C 0.61391 0.08709 0.73890
 C514 C 0.58306 0.10017 0.75674
 C515 C 0.54871 0.08346 0.75418
 C516 C 0.54608 0.05605 0.73047
 C517 C 0.53143 0.01973 0.73495
 C518 C 0.56435 0.00642 0.71488
 H519 H 0.64010 0.09954 0.74226
 H520 H 0.58648 0.12315 0.77256
 H521 H 0.50526 0.01603 0.72116
 H522 H 0.53135 0.01094 0.76211
 H523 H 0.55714 -0.00462 0.68955
 H524 H 0.58335 -0.01018 0.73036
 C525 C 0.38543 0.90759 0.73295
 C526 C 0.38876 0.92003 0.69935
 C527 C 0.42002 0.90953 0.68066
 C528 C 0.44919 0.89192 0.69703
 C529 C 0.44782 0.88485 0.73248
 C530 C 0.41431 0.89043 0.74914
 C531 C 0.40616 0.90785 0.78249
 C532 C 0.37454 0.92668 0.76477
 H533 H 0.42304 0.91699 0.65406
 H534 H 0.47373 0.88614 0.68243
 H535 H 0.42818 0.92586 0.79064
 H536 H 0.39716 0.88870 0.80228
 H537 H 0.37821 0.95565 0.76262
 H538 H 0.34735 0.91840 0.77439
 C539 C 0.62086 0.92882 0.25704
 C540 C 0.61408 0.93607 0.29157
 C541 C 0.58292 0.92101 0.30671
 C542 C 0.55674 0.90424 0.28650
 C543 C 0.56109 0.90244 0.25071
 C544 C 0.59488 0.91234 0.23703
 C545 C 0.60317 0.93493 0.20674
 C546 C 0.63154 0.95301 0.22862
 H547 H 0.57740 0.92441 0.33373
 H548 H 0.53192 0.89505 0.29856
 H549 H 0.57985 0.95247 0.19951
 H550 H 0.61534 0.91948 0.18538
 H551 H 0.62468 0.98105 0.23411
 H552 H 0.66003 0.94802 0.21981
 C553 C 0.37665 0.22648 0.93089
 C554 C 0.37862 0.26323 0.93293
 C555 C 0.40402 0.28041 0.91176
 C556 C 0.43033 0.26095 0.89356
 C557 C 0.43188 0.22398 0.89639
 C558 C 0.40286 0.20715 0.91286
 C559 C 0.40366 0.17851 0.93908
 C560 C 0.37508 0.19964 0.95884
 H561 H 0.40538 0.30889 0.91138
 H562 H 0.45116 0.27492 0.87941
 H563 H 0.43039 0.17637 0.95243
 H564 H 0.39311 0.15334 0.92891
 H565 H 0.38523 0.20978 0.98364
 H566 H 0.34810 0.18658 0.96011
 C567 C 0.60739 0.70916 0.89873
 C568 C 0.62830 0.72813 0.92198
 C569 C 0.62617 0.76519 0.92024
 C570 C 0.59883 0.78183 0.90029
 C571 C 0.57369 0.76150 0.88186
 C572 C 0.58094 0.72540 0.87900
 C573 C 0.55744 0.69349 0.87911
 C574 C 0.58656 0.67568 0.90119
 H575 H 0.64273 0.78104 0.93697
 H576 H 0.59514 0.81012 0.90195
 H577 H 0.55527 0.68165 0.85327
 H578 H 0.53107 0.69704 0.89281
 H579 H 0.60086 0.65350 0.88811
 H580 H 0.57674 0.66984 0.92751
 C581 C 0.42472 0.71639 0.08748
 C582 C 0.39859 0.73273 0.06654
 C583 C 0.39601 0.76983 0.06768
 C584 C 0.42301 0.78939 0.08461
 C585 C 0.45280 0.77204 0.10050
 C586 C 0.45103 0.73544 0.10404
 C587 C 0.47845 0.70600 0.10185
 C588 C 0.44938 0.68508 0.08329
 H589 H 0.37533 0.78375 0.05298
 H590 H 0.42227 0.81786 0.08280
 H591 H 0.48531 0.69494 0.12742
 H592 H 0.50230 0.71163 0.08524
 H593 H 0.43975 0.66194 0.09813
 H594 H 0.45660 0.67975 0.05615
 C595 C 0.58462 0.28818 0.07911
 C596 C 0.60975 0.26942 0.05907
 C597 C 0.61099 0.23245 0.06321
 C598 C 0.58380 0.21520 0.08260
 C599 C 0.55500 0.23472 0.09784
 C600 C 0.55807 0.27143 0.09786
 C601 C 0.53167 0.30154 0.09369
 C602 C 0.56116 0.31996 0.07294
 H603 H 0.63096 0.21676 0.04932
 H604 H 0.58382 0.18670 0.08361
 H605 H 0.52550 0.31481 0.11836
 H606 H 0.50752 0.29544 0.07784
 H607 H 0.57194 0.34374 0.08572
 H608 H 0.55365 0.32354 0.04562
 C609 C 0.24117 0.08558 0.62238
 C610 C 0.24404 0.04914 0.61805
 C611 C 0.22516 0.03394 0.59066
 C612 C 0.20923 0.05539 0.56526
 C613 C 0.21215 0.09231 0.56695
 C614 C 0.22520 0.10680 0.59739
 C615 C 0.25244 0.13523 0.60261
 C616 C 0.26989 0.11196 0.62991
 H617 H 0.22648 0.00575 0.58671
 H618 H 0.19837 0.04313 0.54257
 H619 H 0.23957 0.15959 0.61308
 H620 H 0.27030 0.13933 0.57990
 H621 H 0.26706 0.12292 0.65610
 H622 H 0.29785 0.10254 0.62302
 C623 C 0.71268 0.08459 0.42549
 C624 C 0.72991 0.06562 0.39953
 C625 C 0.76859 0.06838 0.39808
 C626 C 0.78789 0.08732 0.42361
 C627 C 0.76893 0.10403 0.45093
 C628 C 0.73095 0.10260 0.44968
 C629 C 0.69680 0.11242 0.46860
 C630 C 0.67621 0.09179 0.44117
 H631 H 0.78405 0.05465 0.37848
 H632 H 0.81745 0.08753 0.42273
 H633 H 0.69118 0.14125 0.46785
 H634 H 0.69479 0.09999 0.49427
 H635 H 0.65858 0.10862 0.42456
 H636 H 0.66329 0.06748 0.45120
 C637 C 0.77241 0.91629 0.63070
 C638 C 0.76694 0.95232 0.62469
 C639 C 0.78033 0.96645 0.59383
 C640 C 0.79242 0.94408 0.56749
 C641 C 0.79079 0.90725 0.57155
 C642 C 0.78427 0.89413 0.60456
 C643 C 0.75967 0.86523 0.61591
 C644 C 0.74662 0.88945 0.64438
 H645 H 0.77696 0.99429 0.58837
 H646 H 0.79881 0.95544 0.54277
 H647 H 0.77528 0.84187 0.62537
 H648 H 0.73809 0.85938 0.59689
 H649 H 0.75464 0.87998 0.67025
 H650 H 0.71745 0.89765 0.64186
 C651 C 0.21837 0.94580 0.37866
 C652 C 0.25353 0.93539 0.36822
 C653 C 0.26691 0.90246 0.37962
 C654 C 0.24825 0.88372 0.40515
 C655 C 0.21604 0.89773 0.41972
 C656 C 0.19996 0.92728 0.40412
 C657 C 0.18502 0.96017 0.41987
 C658 C 0.20513 0.98044 0.39218
 H659 H 0.29367 0.89311 0.37158
 H660 H 0.26097 0.86034 0.41603
 H661 H 0.19585 0.96481 0.44598
 H662 H 0.15481 0.96217 0.41755
 H663 H 0.22763 0.99681 0.40227
 H664 H 0.18646 0.99414 0.37398
 C665 C 0.04783 0.44172 0.72887
 C666 C 0.05971 0.40672 0.72943
 C667 C 0.09104 0.39808 0.74867
 C668 C 0.10899 0.42421 0.76774
 C669 C 0.09545 0.45932 0.76848
 C670 C 0.06488 0.46707 0.74815
 C671 C 0.02938 0.48425 0.75777
 C672 C 0.01067 0.45646 0.73652
 H673 H 0.10213 0.37151 0.74826
 H674 H 0.13383 0.41695 0.78107
 H675 H 0.02647 0.51119 0.74680
 H676 H 0.02334 0.48213 0.78558
 H677 H -0.00286 0.46740 0.71332
 H678 H -0.00636 0.43823 0.75194
 C679 C 0.04968 0.60637 0.23649
 C680 C 0.05833 0.61716 0.26963
 C681 C 0.09040 0.60371 0.28473
 C682 C 0.11368 0.58093 0.26663
 C683 C 0.10528 0.57064 0.23309
 C684 C 0.07272 0.58323 0.21853
 C685 C 0.06847 0.60401 0.18626
 C686 C 0.04347 0.62897 0.20574
 H687 H 0.09676 0.60981 0.31106
 H688 H 0.13729 0.56970 0.27950
 H689 H 0.05407 0.58895 0.16620
 H690 H 0.09439 0.61632 0.17775
 H691 H 0.01464 0.62824 0.19697
 H692 H 0.05481 0.65583 0.20860
 C693 C 0.90437 0.37321 0.26305
 C694 C 0.94144 0.36903 0.25509
 C695 C 0.95421 0.38446 0.22457
 C696 C 0.93194 0.40873 0.20648
 C697 C 0.89659 0.41720 0.21853
 C698 C 0.88231 0.39659 0.24501
 C699 C 0.86103 0.40645 0.27632
 C700 C 0.88534 0.38080 0.29608
 H701 H 0.98253 0.38121 0.21708
 H702 H 0.94377 0.42374 0.18569
 H703 H 0.83215 0.39789 0.27485
 H704 H 0.86470 0.43429 0.28407
 H705 H 0.87042 0.35755 0.30598
 H706 H 0.90305 0.39400 0.31502
 C707 C 0.91610 0.62125 0.75937
 C708 C 0.95181 0.61526 0.74771
 C709 C 0.96896 0.58306 0.75641
 C710 C 0.94868 0.55562 0.77088
 C711 C 0.91082 0.55984 0.77641
 C712 C 0.89592 0.59393 0.77348
 C713 C 0.86165 0.60618 0.75630
 C714 C 0.88371 0.63598 0.74084
 H715 H 0.99705 0.57792 0.74887
 H716 H 0.96171 0.53009 0.77435
 H717 H 0.84071 0.61540 0.77498
 H718 H 0.85173 0.58715 0.73701
 H719 H 0.87542 0.66235 0.75060
 H720 H 0.88661 0.63423 0.71258
 C721 C 0.70092 0.58212 0.92410
 C722 C 0.72062 0.61168 0.93341
 C723 C 0.75690 0.61306 0.92045
 C724 C 0.77207 0.58466 0.90107
 C725 C 0.75143 0.55414 0.89400
 C726 C 0.71535 0.55494 0.90577
 C727 C 0.68111 0.53405 0.90842
 C728 C 0.66502 0.56488 0.92916
 H729 H 0.77409 0.63522 0.92629
 H730 H 0.80033 0.58606 0.89299
 H731 H 0.68422 0.50977 0.92411
 H732 H 0.66781 0.53047 0.88320
 H733 H 0.65980 0.55816 0.95642
 H734 H 0.64248 0.57926 0.91593
 C735 C 0.24838 0.37693 0.91835
 C736 C 0.28520 0.37818 0.92837
 C737 C 0.30680 0.40469 0.91329
 C738 C 0.29058 0.43214 0.89427
 C739 C 0.25234 0.43415 0.89032
 C740 C 0.23226 0.40450 0.89988
 C741 C 0.19726 0.40214 0.91933
 C742 C 0.21472 0.37210 0.93954
 H743 H 0.33583 0.40595 0.91837
 H744 H 0.30752 0.45368 0.88577
 H745 H 0.17433 0.39358 0.90291
 H746 H 0.19149 0.42595 0.93500
 H747 H 0.20175 0.34627 0.93480
 H748 H 0.21899 0.37850 0.96695
 C749 C 0.26181 0.62717 0.08291
 C750 C 0.29807 0.62181 0.07192
 C751 C 0.31677 0.59196 0.08522
 C752 C 0.29790 0.56589 0.10351
 C753 C 0.25985 0.56879 0.10881
 C754 C 0.24314 0.60119 0.10091
 C755 C 0.20819 0.60889 0.08271
 C756 C 0.22846 0.63720 0.06297
 H757 H 0.34534 0.58722 0.07929
 H758 H 0.31250 0.54205 0.11085
 H759 H 0.18686 0.61972 0.10018
 H760 H 0.19932 0.58665 0.06645
 H761 H 0.21868 0.66431 0.06898
 H762 H 0.23130 0.63135 0.03523
 C763 C 0.69352 0.41090 0.06406
 C764 C 0.71132 0.38005 0.05374
 C765 C 0.74773 0.37573 0.06569
 C766 C 0.76508 0.40287 0.08456
 C767 C 0.74650 0.43500 0.09220
 C768 C 0.70999 0.43685 0.08198
 C769 C 0.67705 0.46049 0.08016
 C770 C 0.65871 0.43110 0.05980
 H771 H 0.76349 0.35237 0.05912
 H772 H 0.79347 0.39932 0.09159
 H773 H 0.68115 0.48453 0.06443
 H774 H 0.66451 0.46506 0.10571
 H775 H 0.65344 0.43830 0.03266
 H776 H 0.63557 0.41862 0.07352
 C777 C 0.89695 0.68373 0.61012
 C778 C 0.91646 0.70551 0.63205
 C779 C 0.90704 0.74181 0.63083
 C780 C 0.88511 0.75547 0.60393
 C781 C 0.87154 0.73309 0.57816
 C782 C 0.87538 0.69680 0.58430
 C783 C 0.87786 0.66300 0.56472
 C784 C 0.90229 0.64885 0.59343
 H785 H 0.91981 0.76024 0.64798
 H786 H 0.88198 0.78377 0.60152
 H787 H 0.89297 0.66426 0.54019
 H788 H 0.85112 0.64953 0.56342
 H789 H 0.93098 0.64407 0.58504
 H790 H 0.88970 0.62714 0.60833
 C791 C 0.93201 0.24850 0.37381
 C792 C 0.93379 0.28543 0.37391
 C793 C 0.91096 0.30348 0.39752
 C794 C 0.89319 0.28514 0.42393
 C795 C 0.89745 0.24843 0.42707
 C796 C 0.91425 0.23040 0.39997
 C797 C 0.94260 0.20183 0.40073
 C798 C 0.96211 0.22151 0.37228
 H799 H 0.90968 0.33199 0.39787
 H800 H 0.87949 0.29998 0.44392
 H801 H 0.93155 0.17614 0.39242
 H802 H 0.95815 0.20104 0.42511
 H803 H 0.96240 0.20707 0.34762
 H804 H 0.98897 0.23209 0.38023
 C805 C 0.10904 0.26932 0.62998
 C806 C 0.10077 0.30550 0.62767
 C807 C 0.12125 0.32538 0.60390
 C808 C 0.14255 0.30848 0.57874
 C809 C 0.14326 0.27145 0.57652
 C810 C 0.12974 0.25261 0.60467
 C811 C 0.10666 0.22051 0.60561
 C812 C 0.08400 0.23861 0.63312
 H813 H 0.11771 0.35371 0.60221
 H814 H 0.15441 0.32429 0.55854
 H815 H 0.12204 0.19705 0.61515
 H816 H 0.09141 0.21643 0.58143
 H817 H 0.08620 0.22549 0.65849
 H818 H 0.05561 0.24491 0.62480
 C819 C 0.07768 0.69677 0.40322
 C820 C 0.05456 0.71211 0.37868
 C821 C 0.05539 0.74933 0.37598
 C822 C 0.07277 0.76957 0.40147
 C823 C 0.09004 0.75289 0.42958
 C824 C 0.09495 0.71636 0.42764
 C825 C 0.09615 0.68630 0.45248
 C826 C 0.07657 0.66475 0.42546
 H827 H 0.03955 0.76297 0.35657
 H828 H 0.06983 0.79797 0.40083
 H829 H 0.07918 0.69001 0.47572
 H830 H 0.12454 0.67685 0.45731
 H831 H 0.04835 0.65761 0.43320
 H832 H 0.09361 0.64279 0.41511
 C833 C 0.62436 0.90238 0.70034
 C834 C 0.64265 0.92885 0.71792
 C835 C 0.63461 0.93230 0.75317
 C836 C 0.60472 0.91438 0.76795
 C837 C 0.58251 0.89272 0.74772
 C838 C 0.59531 0.88480 0.71478
 C839 C 0.57750 0.87951 0.68087
 C840 C 0.60938 0.89931 0.66505
 H841 H 0.64860 0.95168 0.76837
 H842 H 0.59700 0.92008 0.79412
 H843 H 0.55120 0.89390 0.67761
 H844 H 0.57706 0.85128 0.67350
 H845 H 0.60090 0.92507 0.65382
 H846 H 0.62697 0.88252 0.64839
 C847 C 0.38403 0.90502 0.27488
 C848 C 0.36905 0.93775 0.26543
 C849 C 0.37970 0.95156 0.23334
 C850 C 0.40922 0.93617 0.21499
 C851 C 0.42786 0.90641 0.22821
 C852 C 0.41232 0.88956 0.25654
 C853 C 0.42875 0.87325 0.28783
 C854 C 0.39781 0.89052 0.30806
 H855 H 0.36850 0.97653 0.22456
 H856 H 0.41972 0.94954 0.19258
 H857 H 0.45599 0.88381 0.29435
 H858 H 0.42722 0.84404 0.28748
 H859 H 0.40765 0.91109 0.32580
 H860 H 0.37873 0.87120 0.31954
 C861 C 0.62165 0.11070 0.29849
 C862 C 0.63710 0.07977 0.28502
 C863 C 0.63279 0.07412 0.24965
 C864 C 0.60747 0.09473 0.23074
 C865 C 0.58672 0.12155 0.24686
 C866 C 0.59748 0.13142 0.27979
 C867 C 0.57661 0.14199 0.31116
 C868 C 0.60299 0.11886 0.33157
 H869 H 0.64504 0.05110 0.23776
 H870 H 0.60063 0.08659 0.20507
 H871 H 0.54812 0.13241 0.31198
 H872 H 0.57946 0.17049 0.31678
 H873 H 0.58949 0.09568 0.34328
 H874 H 0.62063 0.13407 0.34906
 C875 C 0.37837 0.09033 0.70552
 C876 C 0.36101 0.06057 0.71891
 C877 C 0.36529 0.05405 0.75426
 C878 C 0.39161 0.07256 0.77328
 C879 C 0.41353 0.09819 0.75734
 C880 C 0.40367 0.10885 0.72428
 C881 C 0.42535 0.11806 0.69312
 C882 C 0.39774 0.09734 0.67256
 H883 H 0.35168 0.03201 0.76622
 H884 H 0.39764 0.06403 0.79913
 H885 H 0.45316 0.10608 0.69250
 H886 H 0.42430 0.14678 0.68755
 H887 H 0.40985 0.07321 0.66090
 H888 H 0.38116 0.11413 0.65500
 C889 C 0.62952 0.78253 0.05294
 C890 C 0.63729 0.74765 0.06253
 C891 C 0.62345 0.73577 0.09410
 C892 C 0.59831 0.75657 0.11271
 C893 C 0.58600 0.78932 0.09977
 C894 C 0.60404 0.80284 0.07100
 C895 C 0.58894 0.81890 0.03905
 C896 C 0.61676 0.79682 0.01934
 H897 H 0.62938 0.70918 0.10276
 H898 H 0.58519 0.74522 0.13498
 H899 H 0.59419 0.84763 0.03747
 H900 H 0.56021 0.81127 0.03412
 H901 H 0.63800 0.81284 0.00646
 H902 H 0.60414 0.77642 0.00300
 C903 C 0.38325 0.27743 0.10436
 C904 C 0.36838 0.26208 0.07512
 C905 C 0.37556 0.22591 0.06994
 C906 C 0.40247 0.20817 0.08963
 C907 C 0.42167 0.22615 0.11529
 C908 C 0.40882 0.25973 0.12430
 C909 C 0.42849 0.29290 0.13236
 C910 C 0.40054 0.31228 0.11029
 H911 H 0.36401 0.21264 0.04812
 H912 H 0.41114 0.18192 0.08218
 H913 H 0.45658 0.29353 0.12164
 H914 H 0.42635 0.29978 0.15989
 H915 H 0.41282 0.32385 0.08684
 H916 H 0.38249 0.33040 0.12512
 C917 C 0.60046 0.27229 0.89138
 C918 C 0.61936 0.25783 0.91929
 C919 C 0.61588 0.22127 0.92498
 C920 C 0.58898 0.20202 0.90741
 C921 C 0.56581 0.21896 0.88353
 C922 C 0.57467 0.25331 0.87373
 C923 C 0.55196 0.28546 0.86649
 C924 C 0.58020 0.30628 0.88618
 H925 H 0.63070 0.20856 0.94563
 H926 H 0.58370 0.17515 0.91518
 H927 H 0.52478 0.28541 0.87918
 H928 H 0.55142 0.29203 0.83878
 H929 H 0.56906 0.31756 0.91029
 H930 H 0.59563 0.32496 0.86981
 C931 C 0.39030 0.76930 0.92596
 C932 C 0.38790 0.73247 0.92534
 C933 C 0.40729 0.71448 0.89944
 C934 C 0.43242 0.73232 0.87856
 C935 C 0.43895 0.76847 0.88331
 C936 C 0.41552 0.78695 0.90547
 C937 C 0.42426 0.81236 0.93317
 C938 C 0.39675 0.79319 0.95549
 H939 H 0.40543 0.68613 0.89732
 H940 H 0.44948 0.71716 0.86120
 H941 H 0.41552 0.83969 0.92657
 H942 H 0.45287 0.80956 0.94238
 H943 H 0.37219 0.80950 0.96171
 H944 H 0.40939 0.77933 0.97770
 C945 C 0.74135 0.90663 0.39763
 C946 C 0.70866 0.92519 0.40400
 C947 C 0.69009 0.91749 0.43479
 C948 C 0.70698 0.89680 0.46034
 C949 C 0.74255 0.88298 0.45545
 C950 C 0.75780 0.88580 0.42271
 C951 C 0.79528 0.89639 0.41203
 C952 C 0.77734 0.91923 0.38465
 H953 H 0.66398 0.92991 0.44048
 H954 H 0.69359 0.89417 0.48494
 H955 H 0.81133 0.87389 0.40140
 H956 H 0.80951 0.91181 0.43197
 H957 H 0.78316 0.90993 0.35826
 H958 H 0.78116 0.94791 0.38876
 C959 C 0.24208 0.90297 0.60340
 C960 C 0.27752 0.91576 0.59891
 C961 C 0.29602 0.90633 0.56851
 C962 C 0.27728 0.89019 0.54151
 C963 C 0.23955 0.88339 0.54424
 C964 C 0.22355 0.88720 0.57667
 C965 C 0.18796 0.90371 0.58690
 C966 C 0.20818 0.92090 0.61621
 H967 H 0.32409 0.91403 0.56439
 H968 H 0.29170 0.88557 0.51770
 H969 H 0.16790 0.88382 0.59559
 H970 H 0.17752 0.92289 0.56759
 H971 H 0.19978 0.91084 0.64174
 H972 H 0.20931 0.95005 0.61401
 C973 C 0.25275 0.09571 0.38813
 C974 C 0.28495 0.07620 0.39412
 C975 C 0.30283 0.08174 0.42550
 C976 C 0.28563 0.10109 0.45173
 C977 C 0.25016 0.11533 0.44720
 C978 C 0.23575 0.11485 0.41410
 C979 C 0.19849 0.10558 0.40203
 C980 C 0.21703 0.08480 0.37352
 H981 H 0.32875 0.06884 0.43088
 H982 H 0.29877 0.10237 0.47645
 H983 H 0.18300 0.12904 0.39264
 H984 H 0.18356 0.08875 0.42060
 H985 H 0.21225 0.09635 0.34775
 H986 H 0.21268 0.05598 0.37544
 C987 C 0.77131 0.09742 0.62859
 C988 C 0.73361 0.09128 0.62725
 C989 C 0.71310 0.11065 0.60306
 C990 C 0.73077 0.12972 0.57708
 C991 C 0.76925 0.12936 0.57462
 C992 C 0.78884 0.11603 0.60263
 C993 C 0.82152 0.09212 0.60356
 C994 C 0.80251 0.07191 0.63197
 H995 H 0.68371 0.10785 0.60185
 H996 H 0.71447 0.14084 0.55654
 H997 H 0.84637 0.10594 0.61230
 H998 H 0.82503 0.07663 0.57967
 H999 H 0.81639 0.07416 0.65708
 H1000 H 0.79515 0.04467 0.62465
 C1001 C 0.89987 0.60284 0.25148
 C1002 C 0.91046 0.59694 0.28542
 C1003 C 0.89836 0.56574 0.30135
 C1004 C 0.88171 0.53917 0.28213
 C1005 C 0.87680 0.54324 0.24659
 C1006 C 0.88332 0.57660 0.23252
 C1007 C 0.90358 0.58643 0.20077
 C1008 C 0.92176 0.61506 0.22150
 H1009 H 0.90446 0.56054 0.32798
 H1010 H 0.87533 0.51444 0.29456
 H1011 H 0.88503 0.59700 0.18065
 H1012 H 0.92290 0.56540 0.19215
 H1013 H 0.91375 0.64210 0.21323
 H1014 H 0.95162 0.61059 0.22495
 C1015 C 0.91033 0.38151 0.73649
 C1016 C 0.92113 0.38738 0.70251
 C1017 C 0.90521 0.41663 0.68545
 C1018 C 0.88522 0.44230 0.70378
 C1019 C 0.88018 0.43886 0.73934
 C1020 C 0.89008 0.40664 0.75443
 C1021 C 0.91037 0.39951 0.78681
 C1022 C 0.93255 0.37210 0.76726
 H1023 H 0.91161 0.42185 0.65887
 H1024 H 0.87694 0.46638 0.69086
 H1025 H 0.89254 0.38793 0.80687
 H1026 H 0.92679 0.42233 0.79520
 H1027 H 0.92755 0.34473 0.77613
 H1028 H 0.96184 0.37906 0.76441
 C1029 C 0.11741 0.61665 0.71180
 C1030 C 0.09020 0.63721 0.72772
 C1031 C 0.08908 0.63650 0.76379
 C1032 C 0.10865 0.61028 0.78205
 C1033 C 0.13000 0.58503 0.76444
 C1034 C 0.13724 0.59149 0.72981
 C1035 C 0.14073 0.56799 0.69938
 C1036 C 0.11843 0.59539 0.67972
 H1037 H 0.06928 0.65259 0.77748
 H1038 H 0.10316 0.60692 0.80909
 H1039 H 0.12654 0.54249 0.70211
 H1040 H 0.16945 0.56577 0.69023
 H1041 H 0.09128 0.58542 0.67202
 H1042 H 0.13424 0.60845 0.65905
 C1043 C 0.09996 0.38520 0.24861
 C1044 C 0.08982 0.38913 0.28299
 C1045 C 0.10527 0.41726 0.30112
 C1046 C 0.12422 0.44390 0.28373
 C1047 C 0.12780 0.44307 0.24783
 C1048 C 0.11855 0.41171 0.23136
 C1049 C 0.09745 0.40620 0.19929
 C1050 C 0.07714 0.37728 0.21812
 H1051 H 0.09971 0.42052 0.32814
 H1052 H 0.13267 0.46684 0.29788
 H1053 H 0.11507 0.39613 0.17820
 H1054 H 0.07979 0.42922 0.19252
 H1055 H 0.08299 0.35056 0.20781
 H1056 H 0.04775 0.38357 0.22231
   
