data_POSCAR
  _audit_creation_date              2014-09-24
  _audit_creation_method            'ToBaCCo'
  _symmetry_space_group_name_H-M    'P1'
  _symmetry_Int_Tables_number       1
  _symmetry_cell_setting            triclinic
  loop_
  _symmetry_equiv_pos_as_xyz
 x,y,z
_cell_length_a 27.0238
_cell_length_b 26.9908
_cell_length_c 27.0492
_cell_angle_alpha 90.032900
_cell_angle_beta 90.084300
_cell_angle_gamma 90.029100
loop_
  _atom_site_label
  _atom_site_type_symbol
  _atom_site_fract_x
  _atom_site_fract_y
  _atom_site_fract_z
O1 O 0.44787 1.05445 -0.54182
 O2 O 0.54602 1.04821 -0.44713
 O3 O 0.54413 1.05252 -0.54421
 O4 O 0.44943 1.05113 -0.44666
 O5 O 0.44692 0.96949 -0.45013
 O6 O 0.54322 0.97086 -0.54643
 O7 O 0.54287 0.96669 -0.44947
 O8 O 0.44687 0.97280 -0.54560
 Cu9 Cu 0.49751 1.05977 -0.49460
 Cu10 Cu 0.49514 0.96178 -0.49827
 C11 C 0.43023 1.01454 -0.55952
 C12 C 0.56061 1.00631 -0.43127
 C13 C 0.55950 1.01199 -0.56246
 C14 C 0.43129 1.01016 -0.43235
 O15 O -0.55278 1.44755 0.02614
 O16 O -0.46120 1.54874 0.02730
 O17 O -0.55680 1.54403 0.02397
 O18 O -0.45598 1.45276 0.03024
 O19 O -0.45368 1.44977 -0.05119
 O20 O -0.55286 1.54331 -0.05740
 O21 O -0.45772 1.54628 -0.05415
 O22 O -0.55092 1.44686 -0.05526
 Cu23 Cu -0.50705 1.49814 0.03506
 Cu24 Cu -0.50348 1.49590 -0.06267
 C25 C -0.56831 1.43038 -0.01484
 C26 C -0.44413 1.56513 -0.01329
 C27 C -0.57148 1.56022 -0.01768
 C28 C -0.43718 1.43600 -0.00937
 O29 O -0.01391 0.45000 0.45433
 O30 O -0.01518 0.54551 0.55166
 O31 O -0.01665 0.54625 0.45598
 O32 O -0.01394 0.44912 0.55103
 O33 O 0.06764 0.45116 0.55121
 O34 O 0.06496 0.54846 0.45557
 O35 O 0.06634 0.54767 0.55078
 O36 O 0.06766 0.45201 0.45375
 Cu37 Cu -0.02306 0.49724 0.50332
 Cu38 Cu 0.07487 0.49956 0.50278
 C39 C 0.02711 0.43516 0.43686
 C40 C 0.02536 0.56359 0.56745
 C41 C 0.02358 0.56444 0.43991
 C42 C 0.02720 0.43395 0.56795
 O43 O -0.13091 1.00134 -0.06533
 O44 O 0.12340 0.99014 -0.06371
 O45 O -0.00329 1.06250 -0.12504
 O46 O -0.00366 0.92839 -0.12438
 O47 O -0.00649 0.86866 -0.06354
 O48 O -0.00127 1.12362 -0.06542
 O49 O 0.06355 0.99214 -0.12448
 O50 O -0.07006 1.00050 -0.12502
 Zr51 Zr -0.00351 0.99583 -0.08453
 O52 O 0.03986 0.94986 -0.04211
 O53 O -0.04720 1.04213 -0.04272
 C54 C -0.11589 1.00287 -0.11092
 C55 C 0.10917 0.98945 -0.10953
 C56 C -0.00262 1.10851 -0.11105
 C57 C -0.00489 0.88268 -0.10939
 H58 H 0.06411 1.06005 -0.06333
 O59 O 0.04216 1.03976 -0.04226
 H60 H -0.07166 0.93201 -0.06346
 O61 O -0.04988 0.95261 -0.04241
 O62 O 0.12321 0.99428 0.06929
 O63 O -0.13141 0.99835 0.06897
 O64 O 0.06669 1.12210 0.00377
 O65 O 0.05897 0.86720 0.00217
 O66 O -0.07417 0.87107 0.00553
 O67 O -0.06776 1.12571 -0.00119
 O68 O -0.00173 1.06387 0.12920
 O69 O -0.00707 0.93018 0.12990
 O70 O 0.00078 1.12435 0.06907
 O71 O -0.00983 0.86974 0.06971
 O72 O 0.12507 1.05977 0.00505
 O73 O -0.12928 1.06643 -0.00164
 O74 O -0.13319 0.93265 0.00386
 O75 O 0.12124 0.92562 0.00123
 O76 O 0.06316 0.99762 0.12964
 O77 O -0.07087 0.99591 0.12910
 Zr78 Zr 0.08294 0.99394 0.00268
 Zr79 Zr -0.09101 0.99864 0.00195
 Zr80 Zr -0.00155 1.08383 0.00198
 Zr81 Zr -0.00647 0.90956 0.00282
 Zr82 Zr -0.00399 0.99695 0.08923
 O83 O -0.05012 0.95310 0.04725
 O84 O 0.04211 1.04049 0.04713
 C85 C 0.10893 0.99627 0.11500
 C86 C -0.11669 0.99615 0.11469
 C87 C 0.11198 1.10606 0.00552
 C88 C 0.10518 0.88023 0.00124
 C89 C -0.11959 0.88656 0.00607
 C90 C -0.11382 1.11190 -0.00340
 C91 C 0.00027 1.10969 0.11485
 C92 C -0.00978 0.88436 0.11541
 H93 H -0.06849 1.06439 0.06730
 O94 O -0.04761 1.04267 0.04655
 H95 H 0.05984 0.92911 0.06873
 O96 O 0.03940 0.95072 0.04742
 C97 C 0.36537 1.06140 0.39341
 C98 C 0.32589 1.06274 0.35995
 C99 C 0.31030 1.01946 0.33577
 C100 C 0.33422 0.97445 0.34653
 C101 C 0.37340 0.97303 0.38021
 C102 C 0.38952 1.01649 0.40391
 C103 C 0.26847 1.02208 0.30048
 C104 C 0.26477 0.99169 0.26148
 C105 C 0.22417 0.99446 0.22488
 C106 C 0.23355 0.97884 0.17639
 C107 C 0.19621 0.97995 0.14077
 C108 C 0.14826 0.99589 0.15310
 C109 C 0.13857 1.01092 0.20190
 C110 C 0.17623 1.01038 0.23748
 H111 H 0.37662 1.09544 0.41142
 H112 H 0.30774 1.09775 0.35259
 H113 H 0.32219 0.94009 0.32974
 H114 H 0.39091 0.93777 0.38784
 H115 H 0.24185 1.05169 0.30517
 H116 H 0.29424 0.96553 0.25410
 H117 H 0.27004 0.96599 0.16594
 H118 H 0.20485 0.96766 0.10365
 H119 H 0.10196 1.02325 0.21253
 H120 H 0.16746 1.02145 0.27491
 C121 C -0.39227 1.05752 0.37282
 C122 C -0.35902 1.05817 0.33329
 C123 C -0.33609 1.01439 0.31736
 C124 C -0.34784 0.96956 0.34119
 C125 C -0.38147 0.96882 0.38044
 C126 C -0.40396 1.01282 0.39678
 C127 C -0.30123 1.01659 0.27518
 C128 C -0.26309 0.98527 0.27022
 C129 C -0.22661 0.98886 0.22957
 C130 C -0.17801 0.97299 0.23831
 C131 C -0.14239 0.97577 0.20110
 C132 C -0.15483 0.99365 0.15386
 C133 C -0.20382 1.00858 0.14469
 C134 C -0.23937 1.00641 0.18225
 H135 H -0.40928 1.09200 0.38422
 H136 H -0.35089 1.09308 0.31529
 H137 H -0.33192 0.93488 0.32899
 H138 H -0.39000 0.93373 0.39785
 H139 H -0.30530 1.04699 0.24937
 H140 H -0.25606 0.95808 0.29881
 H141 H -0.16741 0.95886 0.27429
 H142 H -0.10515 0.96337 0.20923
 H143 H -0.21460 1.02227 0.10862
 H144 H -0.27688 1.01770 0.17390
 C145 C -0.39059 0.95749 -0.37270
 C146 C -0.35701 0.95478 -0.33348
 C147 C -0.33522 0.99781 -0.31431
 C148 C -0.34828 1.04397 -0.33455
 C149 C -0.38244 1.04686 -0.37336
 C150 C -0.40411 1.00362 -0.39306
 C151 C -0.30023 0.99336 -0.27238
 C152 C -0.26198 1.02428 -0.26590
 C153 C -0.22547 1.01812 -0.22555
 C154 C -0.17618 1.03184 -0.23400
 C155 C -0.14060 1.02626 -0.19694
 C156 C -0.15380 1.00787 -0.15015
 C157 C -0.20343 0.99510 -0.14128
 C158 C -0.23892 0.99991 -0.17871
 H159 H -0.40646 0.92329 -0.38648
 H160 H -0.34773 0.91883 -0.31827
 H161 H -0.33301 1.07797 -0.31977
 H162 H -0.39197 1.08309 -0.38769
 H163 H -0.30421 0.96163 -0.24819
 H164 H -0.25492 1.05291 -0.29305
 H165 H -0.16505 1.04636 -0.26963
 H166 H -0.10280 1.03691 -0.20480
 H167 H -0.21478 0.98107 -0.10555
 H168 H -0.27693 0.99016 -0.17070
 C169 C 0.36713 1.05421 -0.38221
 C170 C 0.32782 1.05381 -0.34874
 C171 C 0.31215 1.00933 -0.32704
 C172 C 0.33601 0.96492 -0.34012
 C173 C 0.37503 0.96523 -0.37399
 C174 C 0.39105 1.00990 -0.39534
 C175 C 0.27001 1.01041 -0.29219
 C176 C 0.26503 0.97794 -0.25509
 C177 C 0.22419 0.98069 -0.21887
 C178 C 0.23284 0.96489 -0.17028
 C179 C 0.19549 0.96784 -0.13481
 C180 C 0.14831 0.98576 -0.14750
 C181 C 0.13917 1.00025 -0.19656
 C182 C 0.17680 0.99792 -0.23191
 H183 H 0.37831 1.08918 -0.39834
 H184 H 0.30976 1.08843 -0.33953
 H185 H 0.32397 0.92976 -0.32514
 H186 H 0.39247 0.93044 -0.38365
 H187 H 0.24412 1.04089 -0.29538
 H188 H 0.29365 0.95060 -0.24867
 H189 H 0.26889 0.95098 -0.15954
 H190 H 0.20353 0.95582 -0.09746
 H191 H 0.10313 1.01396 -0.20751
 H192 H 0.16857 1.00907 -0.26946
 C193 C 0.37457 1.37688 -0.06062
 C194 C 0.33635 1.34197 -0.06124
 C195 C 0.31802 1.32209 -0.01704
 C196 C 0.33824 1.33828 0.02808
 C197 C 0.37604 1.37370 0.02885
 C198 C 0.39474 1.39363 -0.01552
 C199 C 0.27653 1.28628 -0.01920
 C200 C 0.27006 1.25038 0.01439
 C201 C 0.22905 1.21410 0.01143
 C202 C 0.23661 1.16593 0.02928
 C203 C 0.19871 1.13074 0.02700
 C204 C 0.15203 1.14340 0.00781
 C205 C 0.14408 1.19201 -0.00905
 C206 C 0.18227 1.22697 -0.00748
 H207 H 0.38764 1.39129 -0.09562
 H208 H 0.32112 1.33031 -0.09645
 H209 H 0.32409 1.32463 0.06292
 H210 H 0.39027 1.38567 0.06436
 H211 H 0.25219 1.28799 -0.05102
 H212 H 0.29730 1.24533 0.04337
 H213 H 0.27217 1.15532 0.04449
 H214 H 0.20581 1.09375 0.04079
 H215 H 0.10846 1.20289 -0.02391
 H216 H 0.17486 1.26422 -0.02033
 C217 C 0.37792 0.61842 -0.06527
 C218 C 0.34344 0.65698 -0.06695
 C219 C 0.32169 0.67483 -0.02345
 C220 C 0.33561 0.65392 0.02207
 C221 C 0.37046 0.61576 0.02392
 C222 C 0.39223 0.59746 -0.01972
 C223 C 0.28606 0.71634 -0.02643
 C224 C 0.24869 0.72167 0.00561
 C225 C 0.21256 0.76269 0.00276
 C226 C 0.16423 0.75450 0.01959
 C227 C 0.12927 0.79252 0.01843
 C228 C 0.14225 0.83996 0.00136
 C229 C 0.19090 0.84844 -0.01487
 C230 C 0.22572 0.81010 -0.01440
 H231 H 0.39387 0.60566 -0.09971
 H232 H 0.33353 0.67279 -0.10242
 H233 H 0.32055 0.66775 0.05647
 H234 H 0.38058 0.60098 0.05976
 H235 H 0.28927 0.74158 -0.05739
 H236 H 0.24246 0.69348 0.03342
 H237 H 0.15340 0.71843 0.03342
 H238 H 0.09223 0.78493 0.03168
 H239 H 0.20201 0.88464 -0.02807
 H240 H 0.26309 0.81793 -0.02644
 C241 C -0.39620 0.63108 -0.05733
 C242 C -0.36346 0.67116 -0.05706
 C243 C -0.34183 0.68733 -0.01275
 C244 C -0.35455 0.66343 0.03167
 C245 C -0.38766 0.62364 0.03148
 C246 C -0.40863 0.60686 -0.01306
 C247 C -0.30686 0.72952 -0.01403
 C248 C -0.26914 0.73394 0.01785
 C249 C -0.23197 0.77402 0.01463
 C250 C -0.18350 0.76425 0.03027
 C251 C -0.14709 0.80077 0.02720
 C252 C -0.15862 0.84829 0.00933
 C253 C -0.20751 0.85855 -0.00521
 C254 C -0.24385 0.82168 -0.00279
 H255 H -0.41209 0.61934 -0.09220
 H256 H -0.35454 0.68924 -0.09167
 H257 H -0.33963 0.67587 0.06670
 H258 H -0.39684 0.60603 0.06625
 H259 H -0.31019 0.75551 -0.04436
 H260 H -0.26279 0.70509 0.04494
 H261 H -0.17359 0.72797 0.04425
 H262 H -0.10990 0.79182 0.03919
 H263 H -0.21754 0.89487 -0.01893
 H264 H -0.28125 0.83075 -0.01391
 C265 C -0.37157 1.39150 0.03876
 C266 C -0.33137 1.35905 0.04137
 C267 C -0.31452 1.33444 -0.00104
 C268 C -0.33795 1.34386 -0.04658
 C269 C -0.37790 1.37670 -0.04930
 C270 C -0.39532 1.40069 -0.00661
 C271 C -0.27212 1.29990 0.00342
 C272 C -0.26668 1.26023 -0.02589
 C273 C -0.22657 1.22344 -0.01943
 C274 C -0.23559 1.17425 -0.03339
 C275 C -0.19906 1.13818 -0.02771
 C276 C -0.15220 1.15066 -0.00874
 C277 C -0.14266 1.20019 0.00425
 C278 C -0.17958 1.23626 -0.00082
 H279 H -0.38377 1.40974 0.07227
 H280 H -0.31371 1.35272 0.07679
 H281 H -0.32504 1.32662 -0.08030
 H282 H -0.39511 1.38332 -0.08487
 H283 H -0.24689 1.30533 0.03410
 H284 H -0.29478 1.25206 -0.05330
 H285 H -0.27128 1.16355 -0.04826
 H286 H -0.20742 1.10051 -0.03876
 H287 H -0.10682 1.21098 0.01866
 H288 H -0.17100 1.27416 0.00907
 C289 C 0.07172 1.38764 0.37081
 C290 C 0.07180 1.35425 0.33125
 C291 C 0.02803 1.33043 0.31658
 C292 C -0.01622 1.34148 0.34162
 C293 C -0.01640 1.37518 0.38089
 C294 C 0.02759 1.39854 0.39604
 C295 C 0.02945 1.29528 0.27446
 C296 C -0.00137 1.25652 0.27087
 C297 C 0.00066 1.21985 0.23017
 C298 C -0.01532 1.17138 0.23959
 C299 C -0.01486 1.13569 0.20226
 C300 C 0.00076 1.14789 0.15421
 C301 C 0.01616 1.19668 0.14445
 C302 C 0.01630 1.23234 0.18213
 H303 H 0.10616 1.40534 0.38127
 H304 H 0.10627 1.34667 0.31229
 H305 H -0.05095 1.32495 0.33039
 H306 H -0.05109 1.38309 0.39925
 H307 H 0.05869 1.29979 0.24750
 H308 H -0.02722 1.24926 0.30056
 H309 H -0.02796 1.16097 0.27613
 H310 H -0.02745 1.09861 0.21098
 H311 H 0.02824 1.20726 0.10779
 H312 H 0.02768 1.26974 0.17330
 C313 C 0.07178 1.38495 -0.36690
 C314 C 0.07158 1.35101 -0.32781
 C315 C 0.02759 1.32737 -0.31358
 C316 C -0.01653 1.33903 -0.33865
 C317 C -0.01643 1.37320 -0.37741
 C318 C 0.02770 1.39654 -0.39202
 C319 C 0.02851 1.29204 -0.27166
 C320 C -0.00301 1.25383 -0.26819
 C321 C -0.00192 1.21758 -0.22717
 C322 C -0.01811 1.16909 -0.23635
 C323 C -0.01809 1.13378 -0.19868
 C324 C -0.00283 1.14643 -0.15059
 C325 C 0.01250 1.19532 -0.14107
 C326 C 0.01314 1.23055 -0.17904
 H327 H 0.10631 1.40260 -0.37698
 H328 H 0.10596 1.34297 -0.30879
 H329 H -0.05142 1.32269 -0.32775
 H330 H -0.05109 1.38160 -0.39572
 H331 H 0.05771 1.29616 -0.24449
 H332 H -0.02883 1.24682 -0.29805
 H333 H -0.03034 1.15834 -0.27298
 H334 H -0.03040 1.09657 -0.20724
 H335 H 0.02440 1.20624 -0.10440
 H336 H 0.02459 1.26800 -0.17042
 C337 C 0.06937 0.62420 -0.38154
 C338 C 0.06881 0.66320 -0.34756
 C339 C 0.02408 0.68003 -0.32752
 C340 C -0.02041 0.65771 -0.34279
 C341 C -0.02001 0.61905 -0.37720
 C342 C 0.02492 0.60168 -0.39709
 C343 C 0.02495 0.72175 -0.29202
 C344 C -0.00845 0.72668 -0.25580
 C345 C -0.00664 0.76728 -0.21911
 C346 C -0.02453 0.75844 -0.17132
 C347 C -0.02351 0.79581 -0.13565
 C348 C -0.00549 0.84324 -0.14735
 C349 C 0.01157 0.85245 -0.19554
 C350 C 0.01120 0.81477 -0.23107
 H351 H 0.10475 0.61222 -0.39604
 H352 H 0.10352 0.68008 -0.33659
 H353 H -0.05569 0.67071 -0.32906
 H354 H -0.05506 0.60306 -0.38835
 H355 H 0.05581 0.74731 -0.29398
 H356 H -0.03627 0.69824 -0.25066
 H357 H -0.03888 0.72229 -0.16141
 H358 H -0.03742 0.78768 -0.09900
 H359 H 0.02553 0.88866 -0.20568
 H360 H 0.02406 0.82313 -0.26801
 C361 C 0.06537 0.63100 0.39069
 C362 C 0.06356 0.67031 0.35713
 C363 C 0.01870 0.68390 0.33480
 C364 C -0.02467 0.65803 0.34741
 C365 C -0.02295 0.61900 0.38125
 C366 C 0.02209 0.60498 0.40318
 C367 C 0.01815 0.72588 0.29964
 C368 C -0.01426 0.72904 0.26224
 C369 C -0.01346 0.76979 0.22576
 C370 C -0.02903 0.76009 0.17727
 C371 C -0.02793 0.79733 0.14152
 C372 C -0.01213 0.84544 0.15380
 C373 C 0.00208 0.85557 0.20279
 C374 C 0.00159 0.81807 0.23843
 H375 H 0.10057 0.62136 0.40727
 H376 H 0.09737 0.68997 0.34830
 H377 H -0.06015 0.66845 0.33202
 H378 H -0.05700 0.59996 0.39041
 H379 H 0.04731 0.75325 0.30292
 H380 H -0.04011 0.69903 0.25582
 H381 H -0.04128 0.72331 0.16681
 H382 H -0.03954 0.78841 0.10424
 H383 H 0.01423 0.89230 0.21346
 H384 H 0.01248 0.82707 0.27589
   
