data_POSCAR
  _audit_creation_date              2014-09-24
  _audit_creation_method            'ToBaCCo'
  _symmetry_space_group_name_H-M    'P1'
  _symmetry_Int_Tables_number       1
  _symmetry_cell_setting            triclinic
  loop_
  _symmetry_equiv_pos_as_xyz
 x,y,z
_cell_length_a 22.1106
_cell_length_b 22.1598
_cell_length_c 22.3447
_cell_angle_alpha 85.214400
_cell_angle_beta 97.400500
_cell_angle_gamma 96.146800
loop_
  _atom_site_label
  _atom_site_type_symbol
  _atom_site_fract_x
  _atom_site_fract_y
  _atom_site_fract_z
C1 C 0.61583 0.60216 0.00166
 C2 C 0.63172 0.54203 0.01046
 C3 C 0.58427 0.49428 0.01336
 C4 C 0.52223 0.50580 0.00327
 C5 C 0.50807 0.56649 -0.00798
 C6 C 0.55444 0.61538 -0.00622
 C7 C 0.47206 0.45470 0.00496
 C8 C 0.41499 0.46426 0.02224
 C9 C 0.36682 0.41770 0.02221
 C10 C 0.37685 0.35947 0.00734
 C11 C 0.43384 0.34813 -0.00868
 C12 C 0.48057 0.39616 -0.01074
 H13 H 0.65195 0.63941 0.00127
 H14 H 0.59484 0.44812 0.02482
 H15 H 0.46078 0.57492 -0.01933
 H16 H 0.40749 0.50815 0.03629
 H17 H 0.34057 0.32307 0.00837
 H18 H 0.52345 0.38750 -0.02533
 C19 C 0.00189 0.64272 0.38127
 C20 C -0.00843 0.65837 0.43855
 C21 C -0.01113 0.61185 0.48573
 C22 C 0.00297 0.55264 0.47778
 C23 C 0.01782 0.54024 0.42108
 C24 C 0.01313 0.58344 0.37129
 C25 C 0.00249 0.50336 0.52811
 C26 C -0.00792 0.44142 0.51546
 C27 C -0.00357 0.39492 0.56185
 C28 C 0.00481 0.41033 0.62222
 C29 C 0.01155 0.47155 0.63611
 C30 C 0.01318 0.51748 0.58909
 H31 H 0.00101 0.67720 0.34377
 H32 H -0.02505 0.62092 0.52826
 H33 H 0.03409 0.49700 0.41655
 H34 H -0.01855 0.42858 0.46935
 H35 H 0.00596 0.37471 0.65829
 H36 H 0.02250 0.56426 0.60069
 C37 C 0.60564 -0.00907 0.61548
 C38 C 0.54437 -0.01776 0.62692
 C39 C 0.49756 -0.01772 0.57789
 C40 C 0.51133 -0.00489 0.51789
 C41 C 0.57344 0.00618 0.50811
 C42 C 0.62124 0.00218 0.55603
 C43 C 0.46120 -0.00300 0.46566
 C44 C 0.47136 -0.01621 0.40720
 C45 C 0.42542 -0.01237 0.35768
 C46 C 0.36736 0.00257 0.36754
 C47 C 0.35508 0.01325 0.42561
 C48 C 0.40281 0.01261 0.47377
 H49 H 0.64031 -0.00995 0.65411
 H50 H 0.45058 -0.02907 0.58647
 H51 H 0.58508 0.01803 0.46275
 H52 H 0.51510 -0.02992 0.39963
 H53 H 0.33130 0.00662 0.33027
 H54 H 0.39491 0.02611 0.51723
 O55 O 0.45307 -0.02764 -0.09977
 O56 O 0.43081 -0.03637 0.06184
 O57 O 0.43277 0.04998 -0.02512
 O58 O 0.45563 -0.11325 -0.01296
 O59 O 0.55470 -0.09020 0.01283
 O60 O 0.53213 0.07236 -0.00037
 O61 O 0.52997 -0.01302 0.08647
 O62 O 0.55245 -0.00543 -0.07506
 Cu63 Cu 0.43308 -0.03420 -0.02123
 Cu64 Cu 0.55221 -0.00692 0.00842
 C65 C 0.50669 -0.01519 -0.11490
 C66 C 0.47637 -0.02551 0.10165
 C67 C 0.47874 0.08896 -0.01475
 C68 C 0.50937 -0.12937 0.00148
 O69 O -0.07040 0.54654 0.99490
 O70 O 0.09302 0.52192 1.00706
 O71 O 0.00153 0.51232 0.92279
 O72 O 0.02285 0.55877 1.07859
 O73 O 0.00137 0.46315 1.11177
 O74 O -0.02138 0.41688 0.95579
 O75 O 0.07093 0.42634 1.04012
 O76 O -0.09193 0.45119 1.02886
 Cu77 Cu 0.01376 0.54457 0.99745
 Cu78 Cu -0.01257 0.42978 1.03750
 C79 C -0.10896 0.50310 1.01010
 C80 C 0.10970 0.46978 1.02537
 C81 C -0.01289 0.45675 0.91275
 C82 C 0.01599 0.51875 1.12178
 O83 O -0.03446 -0.04438 0.42522
 O84 O -0.01865 0.11987 0.44881
 O85 O 0.05438 0.04290 0.42180
 O86 O -0.10749 0.03291 0.44883
 O87 O -0.08005 0.01276 0.54640
 O88 O 0.08168 0.02175 0.51920
 O89 O 0.00913 0.09883 0.54614
 O90 O -0.00740 -0.06461 0.52283
 Cu91 Cu -0.02909 0.03999 0.42636
 Cu92 Cu 0.00373 0.01528 0.54339
 C93 C -0.02374 -0.08246 0.47011
 C94 C -0.00276 0.13719 0.50182
 C95 C 0.09553 0.03326 0.46567
 C96 C -0.12134 0.02128 0.50224
 C97 C -0.30544 0.53289 1.01603
 C98 C -0.28280 0.47847 1.01986
 C99 C -0.21671 0.47070 1.02369
 C100 C -0.17401 0.51380 1.00589
 H101 H -0.31238 0.43655 1.02123
 H102 H -0.20344 0.42601 1.03996
 H103 H -0.27329 0.57329 1.01640
 H104 H -0.18634 0.55795 0.98696
 C105 C 0.30589 0.43324 1.03393
 C106 C 0.25918 0.39201 1.04599
 C107 C 0.19612 0.40695 1.04926
 C108 C 0.17469 0.45993 1.02775
 H109 H 0.26611 0.34436 1.05382
 H110 H 0.16496 0.37050 1.06655
 H111 H 0.29966 0.48114 1.03149
 H112 H 0.20418 0.49658 1.00865
 C113 C -0.01493 -0.27992 0.44564
 C114 C -0.01854 -0.25623 0.49849
 C115 C -0.01821 -0.19026 0.50558
 C116 C -0.02949 -0.14785 0.46010
 H117 H -0.01672 -0.28443 0.54030
 H118 H -0.00761 -0.17638 0.55141
 H119 H -0.01313 -0.24906 0.40566
 H120 H -0.04274 -0.16042 0.41421
 C121 C -0.00850 0.33076 0.54572
 C122 C 0.01965 0.28743 0.58090
 C123 C 0.01639 0.22302 0.56698
 C124 C 0.00075 0.20251 0.51173
 H125 H 0.04615 0.29860 0.62336
 H126 H 0.02940 0.19124 0.60478
 H127 H -0.03426 0.32002 0.50279
 H128 H -0.00995 0.23360 0.47280
 C129 C 0.53204 -0.02722 -0.30892
 C130 C 0.48030 -0.01453 -0.28915
 C131 C 0.47106 -0.01915 -0.22430
 C132 C 0.51700 -0.01211 -0.17908
 H133 H 0.44262 -0.00016 -0.32102
 H134 H 0.42414 -0.02514 -0.21406
 H135 H 0.56883 -0.04247 -0.27632
 H136 H 0.56384 -0.00230 -0.18894
 C137 C 0.44101 -0.02110 0.29614
 C138 C 0.39904 -0.03404 0.24863
 C139 C 0.41240 -0.03820 0.18566
 C140 C 0.46771 -0.02577 0.16622
 H141 H 0.35116 -0.04217 0.25500
 H142 H 0.37310 -0.05010 0.15311
 H143 H 0.48916 -0.01662 0.29067
 H144 H 0.50784 -0.01332 0.19730
 C145 C 0.54257 -0.32288 -0.01130
 C146 C 0.48707 -0.30269 -0.01212
 C147 C 0.47712 -0.23750 -0.01401
 C148 C 0.52053 -0.19386 0.00474
 H149 H 0.44602 -0.33366 -0.01186
 H150 H 0.43113 -0.22575 -0.02960
 H151 H 0.58181 -0.28943 -0.01321
 H152 H 0.56608 -0.20489 0.02285
 C153 C 0.44769 0.28611 -0.01975
 C154 C 0.40457 0.24011 -0.03321
 C155 C 0.41680 0.17606 -0.03606
 C156 C 0.47091 0.15428 -0.01759
 H157 H 0.35690 0.24849 -0.04218
 H158 H 0.37771 0.14480 -0.05095
 H159 H 0.49559 0.27873 -0.01569
 H160 H 0.51065 0.18399 -0.00176
 C161 C -0.31758 0.00947 0.54211
 C162 C -0.26754 0.00267 0.58256
 C163 C -0.20358 0.00797 0.56799
 C164 C -0.18623 0.01779 0.51236
 H165 H -0.27149 -0.00851 0.62982
 H166 H -0.16880 0.00246 0.60636
 H167 H -0.31133 0.01994 0.49509
 H168 H -0.21936 0.02338 0.47286
 C169 C 0.29199 0.02559 0.43399
 C170 C 0.26878 0.01369 0.48695
 C171 C 0.20464 0.01969 0.49666
 C172 C 0.15961 0.03417 0.45327
 H173 H 0.29718 -0.00420 0.52605
 H174 H 0.19387 0.00876 0.54250
 H175 H 0.26330 0.04123 0.39412
 H176 H 0.16840 0.04444 0.40690
 C177 C 0.01791 0.56959 1.31168
 C178 C 0.01948 0.51299 1.29449
 C179 C 0.01676 0.49747 1.23119
 C180 C 0.02428 0.53772 1.18396
 H181 H 0.01744 0.47389 1.32654
 H182 H 0.00713 0.44955 1.22361
 H183 H 0.01585 0.60686 1.27728
 H184 H 0.03601 0.58560 1.18997
 C185 C 0.01773 0.48924 0.69920
 C186 C -0.00549 0.45388 0.74386
 C187 C -0.00016 0.47463 0.80520
 C188 C -0.01933 0.43765 0.85072
 H189 H -0.02988 0.40983 0.73535
 H190 H 0.02056 0.52027 0.81336
 H191 H 0.03933 0.53431 0.70858
 H192 H -0.03838 0.39147 0.84271
   
