data_POSCAR
  _audit_creation_date              2014-09-24
  _audit_creation_method            'ToBaCCo'
  _symmetry_space_group_name_H-M    'P1'
  _symmetry_Int_Tables_number       1
  _symmetry_cell_setting            triclinic
  loop_
  _symmetry_equiv_pos_as_xyz
 x,y,z
_cell_length_a 54.3088
_cell_length_b 50.7660
_cell_length_c 48.7134
_cell_angle_alpha 88.954500
_cell_angle_beta 89.117000
_cell_angle_gamma 89.149900
loop_
  _atom_site_label
  _atom_site_type_symbol
  _atom_site_fract_x
  _atom_site_fract_y
  _atom_site_fract_z
N1 N 0.58712 0.67673 0.61995
 N2 N 0.57674 0.66348 0.64037
 C3 C 0.55634 0.67662 0.64880
 C4 C 0.55368 0.69903 0.63258
 C5 C 0.57353 0.69854 0.61447
 H6 H 0.54420 0.67040 0.66541
 H7 H 0.57806 0.71318 0.59889
 Cu8 Cu 0.59078 0.63023 0.65366
 Cu9 Cu 0.61800 0.66533 0.60273
 Cu10 Cu 0.64380 0.60659 0.62680
 N11 N 0.60520 0.59702 0.66659
 N12 N 0.62623 0.58822 0.65636
 C13 C 0.63236 0.56533 0.66905
 C14 C 0.61403 0.55937 0.68816
 C15 C 0.59706 0.57984 0.68598
 H16 H 0.64874 0.55383 0.66435
 H17 H 0.58016 0.58205 0.69779
 N18 N 0.65880 0.62798 0.59701
 N19 N 0.64917 0.65050 0.58804
 C20 C 0.66391 0.66052 0.56805
 C21 C 0.68353 0.64336 0.56411
 C22 C 0.67976 0.62296 0.58280
 H23 H 0.66062 0.67887 0.55701
 H24 H 0.69156 0.60589 0.58606
 H25 H 0.61333 0.62555 0.61030
 H26 H 0.63096 0.64401 0.63613
 N27 N 0.90247 0.33693 0.11090
 N28 N 0.91500 0.35280 0.12631
 C29 C 0.93703 0.34164 0.13189
 C30 C 0.93829 0.31737 0.11955
 C31 C 0.91600 0.31493 0.10640
 H32 H 0.95103 0.35042 0.14421
 H33 H 0.91028 0.29885 0.09385
 Cu34 Cu 0.90139 0.38625 0.13852
 Cu35 Cu 0.87061 0.34714 0.09581
 Cu36 Cu 0.84270 0.40227 0.12350
 N37 N 0.88297 0.41274 0.15895
 N38 N 0.85993 0.41859 0.15329
 C39 C 0.85134 0.43650 0.17119
 C40 C 0.86999 0.44225 0.18893
 C41 C 0.88989 0.42684 0.18062
 H42 H 0.83279 0.44455 0.17153
 H43 H 0.90780 0.42540 0.18998
 N44 N 0.82837 0.38278 0.09331
 N45 N 0.83861 0.36124 0.08318
 C46 C 0.82488 0.35300 0.06226
 C47 C 0.80520 0.37035 0.05911
 C48 C 0.80800 0.38894 0.07904
 H49 H 0.82950 0.33640 0.04948
 H50 H 0.79636 0.40609 0.08237
 H51 H 0.87258 0.38731 0.10078
 H52 H 0.86158 0.36704 0.13110
 N53 N 0.41484 0.15998 -0.09828
 N54 N 0.42137 0.15198 -0.12289
 C55 C 0.44300 0.16295 -0.13017
 C56 C 0.45038 0.17854 -0.10888
 C57 C 0.43219 0.17608 -0.08895
 H58 H 0.45260 0.15992 -0.14949
 H59 H 0.43131 0.18595 -0.06946
 Cu60 Cu 0.40082 0.12815 -0.14298
 Cu61 Cu 0.38338 0.15085 -0.08119
 Cu62 Cu 0.34472 0.11183 -0.11872
 N63 N 0.37960 0.10505 -0.16309
 N64 N 0.35738 0.09938 -0.15389
 C65 C 0.34681 0.08283 -0.17133
 C66 C 0.36337 0.07763 -0.19239
 C67 C 0.38399 0.09210 -0.18660
 H68 H 0.32876 0.07442 -0.16844
 H69 H 0.40098 0.09291 -0.19842
 N70 N 0.33548 0.12607 -0.08255
 N71 N 0.35067 0.13979 -0.06769
 C72 C 0.33961 0.14530 -0.04348
 C73 C 0.31632 0.13485 -0.04326
 C74 C 0.31426 0.12276 -0.06830
 H75 H 0.34773 0.15636 -0.02724
 H76 H 0.29869 0.11185 -0.07532
 H77 H 0.37871 0.11553 -0.10092
 H78 H 0.36537 0.14575 -0.11770
 N79 N 0.09905 0.81952 0.38883
 N80 N 0.08160 0.83445 0.37802
 C81 C 0.06054 0.82081 0.37762
 C82 C 0.06522 0.79583 0.38847
 C83 C 0.08985 0.79568 0.39524
 H84 H 0.04346 0.82826 0.36919
 H85 H 0.10032 0.77946 0.40416
 Cu86 Cu 0.08888 0.86918 0.36280
 Cu87 Cu 0.13243 0.83223 0.39332
 Cu88 Cu 0.13739 0.90020 0.38767
 N89 N 0.09842 0.90366 0.34867
 N90 N 0.11780 0.91558 0.35811
 C91 C 0.12087 0.93851 0.34427
 C92 C 0.10245 0.94095 0.32502
 C93 C 0.08847 0.91860 0.32848
 H94 H 0.13551 0.95217 0.34789
 H95 H 0.07262 0.91335 0.31669
 N96 N 0.16137 0.87776 0.40729
 N97 N 0.16012 0.85181 0.40836
 C98 C 0.17928 0.84214 0.42280
 C99 C 0.19313 0.86300 0.43130
 C100 C 0.18130 0.88533 0.42102
 H101 H 0.18252 0.82149 0.42752
 H102 H 0.18671 0.90557 0.42328
 H103 H 0.11675 0.86768 0.40154
 H104 H 0.13357 0.86602 0.36790
 C105 C 0.10087 0.14958 0.11179
 C106 C 0.12464 0.14308 0.10226
 C107 C 0.13852 0.12410 0.11600
 C108 C 0.12866 0.11112 0.13925
 C109 C 0.10502 0.11718 0.14834
 C110 C 0.09103 0.13657 0.13454
 C111 C 0.08354 0.16778 0.10302
 N112 N 0.06347 0.16602 0.11989
 C113 C 0.06773 0.14682 0.13902
 C114 C 0.10027 0.10151 0.17110
 N115 N 0.12049 0.08612 0.17599
 C116 C 0.13794 0.09194 0.15670
 C117 C 0.16052 0.12140 0.10183
 N118 N 0.16016 0.13815 0.07974
 C119 C 0.13832 0.15143 0.07983
 H120 H 0.08540 0.18128 0.08568
 H121 H 0.05501 0.14119 0.15535
 H122 H 0.08351 0.10172 0.18339
 H123 H 0.15607 0.08283 0.15549
 H124 H 0.17519 0.10750 0.10664
 H125 H 0.13262 0.16573 0.06433
 C126 C 0.38973 0.87059 0.59681
 C127 C 0.36801 0.88273 0.58735
 C128 C 0.35860 0.90484 0.60023
 C129 C 0.37072 0.91508 0.62283
 C130 C 0.39212 0.90308 0.63217
 C131 C 0.40160 0.88060 0.61919
 C132 C 0.40329 0.84912 0.58807
 N133 N 0.42283 0.84569 0.60483
 C134 C 0.42203 0.86490 0.62390
 C135 C 0.40017 0.91752 0.65382
 N136 N 0.38409 0.93780 0.65800
 C137 C 0.36600 0.93652 0.63911
 C138 C 0.33762 0.91252 0.58658
 N139 N 0.33395 0.89549 0.56594
 C140 C 0.35252 0.87722 0.56617
 H141 H 0.39922 0.83679 0.57086
 H142 H 0.43551 0.86758 0.63970
 H143 H 0.41660 0.91366 0.66564
 H144 H 0.35084 0.95042 0.63687
 H145 H 0.32578 0.92922 0.59135
 H146 H 0.35487 0.86129 0.55188
 C147 C 0.88865 0.64254 0.40334
 C148 C 0.86686 0.63024 0.41211
 C149 C 0.86034 0.60654 0.40091
 C150 C 0.87526 0.59501 0.38056
 C151 C 0.89679 0.60705 0.37199
 C152 C 0.90362 0.63090 0.38359
 C153 C 0.89940 0.66587 0.41017
 N154 N 0.92059 0.66845 0.39533
 C155 C 0.92331 0.64721 0.37893
 C156 C 0.90707 0.59189 0.35151
 N157 N 0.89213 0.57123 0.34725
 C158 C 0.87272 0.57284 0.36512
 C159 C 0.83872 0.59888 0.41351
 N160 N 0.83188 0.61737 0.43197
 C161 C 0.84896 0.63670 0.43127
 H162 H 0.89232 0.68002 0.42479
 H163 H 0.93815 0.64413 0.36419
 H164 H 0.92381 0.59601 0.33995
 H165 H 0.85768 0.55913 0.36670
 H166 H 0.82875 0.58101 0.40975
 H167 H 0.84881 0.65380 0.44422
 C168 C 0.62861 0.32412 -0.13414
 C169 C 0.65028 0.33261 -0.12196
 C170 C 0.66180 0.35502 -0.13192
 C171 C 0.65198 0.36910 -0.15432
 C172 C 0.63057 0.36080 -0.16631
 C173 C 0.61888 0.33806 -0.15623
 C174 C 0.61326 0.30334 -0.12846
 N175 N 0.59451 0.30432 -0.14664
 C176 C 0.59789 0.32536 -0.16379
 C177 C 0.62509 0.37853 -0.18715
 N178 N 0.64275 0.39723 -0.18808
 C179 C 0.65932 0.39153 -0.16823
 C180 C 0.68189 0.35905 -0.11577
 N181 N 0.68283 0.33960 -0.09626
 C182 C 0.66372 0.32321 -0.10002
 H183 H 0.61577 0.28849 -0.11249
 H184 H 0.58578 0.33111 -0.18038
 H185 H 0.60960 0.37764 -0.20080
 H186 H 0.67544 0.40304 -0.16410
 H187 H 0.69487 0.37493 -0.11816
 H188 H 0.65966 0.30601 -0.08737
 C189 C -0.04158 0.30000 0.12009
 C190 C -0.04217 0.27465 0.10956
 C191 C -0.02024 0.25734 0.10965
 N192 N -0.02268 0.23082 0.10854
 N193 N -0.00287 0.21499 0.10866
 C194 C 0.02009 0.22517 0.10954
 N195 N 0.02253 0.25169 0.11027
 N196 N 0.00273 0.26749 0.11048
 C197 C 0.04214 0.20807 0.10953
 C198 C 0.04145 0.18187 0.11846
 H199 H -0.05921 0.26679 0.10216
 H200 H 0.05967 0.21682 0.10421
 H201 H -0.02492 0.30646 0.12974
 H202 H 0.02441 0.17393 0.12672
 C203 C 0.53413 0.71923 0.63514
 C204 C 0.52901 0.73731 0.61407
 C205 C 0.50961 0.75765 0.61679
 N206 N 0.50117 0.77059 0.59413
 N207 N 0.48368 0.78916 0.59631
 C208 C 0.47416 0.79562 0.62128
 N209 N 0.48277 0.78285 0.64396
 N210 N 0.50010 0.76413 0.64176
 C211 C 0.45514 0.81635 0.62409
 C212 C 0.44136 0.82547 0.60187
 H213 H 0.53890 0.73602 0.59466
 H214 H 0.45122 0.82382 0.64438
 H215 H 0.52294 0.71922 0.65374
 H216 H 0.44371 0.81619 0.58213
 C217 C 1.04929 0.77459 0.39131
 C218 C 1.02418 0.77664 0.38580
 C219 C 1.00797 0.75370 0.38740
 N220 N 0.98316 0.75730 0.38807
 N221 N 0.96823 0.73670 0.38893
 C222 C 0.97758 0.71173 0.38891
 N223 N 1.00238 0.70813 0.38804
 N224 N 1.01732 0.72873 0.38741
 C225 C 0.96135 0.68882 0.38901
 C226 C 0.93645 0.69075 0.39618
 H227 H 1.01588 0.79558 0.38072
 H228 H 0.96937 0.66982 0.38404
 H229 H 1.05686 0.75585 0.39840
 H230 H 0.92900 0.70923 0.40367
 C231 C 0.47231 0.19510 -0.10742
 C232 C 0.48620 0.20205 -0.13066
 C233 C 0.50739 0.21967 -0.12930
 N234 N 0.51716 0.23025 -0.15274
 N235 N 0.53615 0.24651 -0.15182
 C236 C 0.54616 0.25267 -0.12741
 N237 N 0.53654 0.24188 -0.10400
 N238 N 0.51745 0.22576 -0.10490
 C239 C 0.56709 0.27062 -0.12599
 C240 C 0.57448 0.28633 -0.14832
 H241 H 0.48077 0.19544 -0.15065
 H242 H 0.57616 0.27231 -0.10650
 H243 H 0.47684 0.20310 -0.08770
 H244 H 0.56405 0.28606 -0.16710
 C245 C 0.09848 -0.03797 0.30436
 C246 C 0.11656 -0.01971 0.29746
 C247 C 0.11306 0.00030 0.27560
 N248 N 0.13260 0.01416 0.26587
 N249 N 0.12981 0.03204 0.24576
 C250 C 0.10733 0.03682 0.23474
 N251 N 0.08774 0.02315 0.24465
 N252 N 0.09056 0.00515 0.26465
 C253 C 0.10393 0.05643 0.21247
 C254 C 0.12380 0.06730 0.19801
 H255 H 0.13425 -0.02084 0.30737
 H256 H 0.08530 0.06156 0.20665
 H257 H 0.08133 -0.03776 0.29330
 H258 H 0.14232 0.06054 0.20263
 C259 C 0.61230 0.53756 -0.29406
 C260 C 0.63108 0.51865 -0.29150
 C261 C 0.62900 0.49574 -0.27274
 N262 N 0.64943 0.48136 -0.26629
 N263 N 0.64791 0.46055 -0.24934
 C264 C 0.62586 0.45320 -0.23838
 N265 N 0.60538 0.46741 -0.24505
 N266 N 0.60692 0.48836 -0.26185
 C267 C 0.62395 0.43023 -0.21966
 C268 C 0.64456 0.41916 -0.20694
 H269 H 0.64829 0.52100 -0.30271
 H270 H 0.60583 0.42272 -0.21478
 H271 H 0.59582 0.53570 -0.28138
 H272 H 0.66233 0.42829 -0.21001
 C273 C 0.35974 1.05934 0.78497
 C274 C 0.37929 1.05012 0.76875
 C275 C 0.37601 1.03051 0.74731
 N276 N 0.39604 1.01865 0.73569
 N277 N 0.39344 1.00056 0.71652
 C278 C 0.37069 0.99374 0.70817
 N279 N 0.35066 1.00578 0.71960
 N280 N 0.35325 1.02378 0.73889
 C281 C 0.36755 0.97374 0.68706
 C282 C 0.38700 0.95749 0.67842
 H283 H 0.39782 1.05645 0.77269
 H284 H 0.34933 0.97117 0.67895
 H285 H 0.34141 1.05188 0.78201
 H286 H 0.40472 0.95897 0.68815
 C287 C 0.86787 0.46016 0.21225
 C288 C 0.88804 0.46768 0.22746
 C289 C 0.88521 0.48552 0.25081
 N290 N 0.90535 0.49585 0.26251
 N291 N 0.90291 0.51223 0.28349
 C292 C 0.88022 0.51874 0.29363
 N293 N 0.86013 0.50823 0.28209
 N294 N 0.86256 0.49198 0.26104
 C295 C 0.87697 0.53700 0.31652
 C296 C 0.89616 0.55196 0.32637
 H297 H 0.90638 0.46089 0.22179
 H298 H 0.85852 0.53976 0.32474
 H299 H 0.84974 0.46805 0.21724
 H300 H 0.91424 0.55041 0.31677
 C301 C 0.29818 0.13601 -0.02057
 C302 C 0.27326 0.13151 -0.02452
 C303 C 0.25512 0.13228 -0.00182
 N304 N 0.23073 0.13389 -0.00734
 N305 N 0.21405 0.13427 0.01298
 C306 C 0.22114 0.13283 0.03959
 N307 N 0.24552 0.13101 0.04512
 N308 N 0.26222 0.13086 0.02479
 C309 C 0.20286 0.13242 0.06218
 C310 C 0.17841 0.14012 0.05824
 H311 H 0.26664 0.12813 -0.04499
 H312 H 0.20892 0.12642 0.08244
 H313 H 0.30451 0.14146 -0.00050
 H314 H 0.17301 0.14840 0.03853
 C315 C 0.70406 0.64675 0.54432
 C316 C 0.72013 0.62606 0.53778
 C317 C 0.74082 0.62915 0.51823
 N318 N 0.75321 0.60749 0.50926
 N319 N 0.77214 0.60984 0.49173
 C320 C 0.77949 0.63397 0.48264
 N321 N 0.76720 0.65566 0.49176
 N322 N 0.74815 0.65330 0.50917
 C323 C 0.80063 0.63677 0.46360
 C324 C 0.81084 0.61519 0.45000
 H325 H 0.71714 0.60666 0.54670
 H326 H 0.80784 0.65627 0.45976
 H327 H 0.70610 0.66575 0.53414
 H328 H 0.80225 0.59614 0.45242
 C329 C 0.78637 0.37113 0.03774
 C330 C 0.78218 0.35004 0.02060
 C331 C 0.76410 0.35204 -0.00155
 N332 N 0.75655 0.33003 -0.01420
 N333 N 0.74028 0.33174 -0.03441
 C334 C 0.73115 0.35555 -0.04282
 N335 N 0.73887 0.37754 -0.03033
 N336 N 0.75497 0.37582 -0.01002
 C337 C 0.71342 0.35799 -0.06524
 C338 C 0.70063 0.33654 -0.07493
 H339 H 0.79201 0.33155 0.02374
 H340 H 0.70947 0.37753 -0.07342
 H341 H 0.77529 0.38895 0.03566
 H342 H 0.70298 0.31739 -0.06507
 C343 C 0.21522 0.86118 0.44842
 C344 C 0.22574 0.88329 0.45978
 C345 C 0.24713 0.88141 0.47791
 N346 N 0.25474 0.90314 0.49099
 N347 N 0.27389 0.90176 0.50775
 C348 C 0.28619 0.87859 0.51199
 N349 N 0.27869 0.85689 0.49876
 N350 N 0.25948 0.85825 0.48207
 C351 C 0.30728 0.87668 0.53057
 C352 C 0.31377 0.89744 0.54727
 H353 H 0.21763 0.90260 0.45608
 H354 H 0.31733 0.85816 0.53171
 H355 H 0.22283 0.84177 0.45296
 H356 H 0.30268 0.91536 0.54704
   
