data_POSCAR
  _audit_creation_date              2014-09-24
  _audit_creation_method            'ToBaCCo'
  _symmetry_space_group_name_H-M    'P1'
  _symmetry_Int_Tables_number       1
  _symmetry_cell_setting            triclinic
  loop_
  _symmetry_equiv_pos_as_xyz
 x,y,z
_cell_length_a 52.8404
_cell_length_b 52.8924
_cell_length_c 15.9057
_cell_angle_alpha 90.036800
_cell_angle_beta 89.991100
_cell_angle_gamma 119.900900
loop_
  _atom_site_label
  _atom_site_type_symbol
  _atom_site_fract_x
  _atom_site_fract_y
  _atom_site_fract_z
C1 C 0.22432 0.49651 0.45739
 C2 C 0.22668 0.49990 0.54695
 C3 C 0.25238 0.50410 0.58668
 C4 C 0.27420 0.50134 0.54329
 C5 C 0.27063 0.49604 0.45525
 C6 C 0.24623 0.49390 0.41436
 H7 H 0.24514 0.49116 0.34662
 H8 H 0.25416 0.50709 0.65428
 C9 C 0.50008 -0.27352 0.45740
 C10 C 0.50104 -0.27202 0.54695
 C11 C 0.50012 -0.24903 0.58809
 C12 C 0.49992 -0.22600 0.54390
 C13 C 0.50048 -0.22679 0.45436
 C14 C 0.49969 -0.25060 0.41329
 H15 H 0.49958 -0.25056 0.34511
 H16 H 0.50023 -0.24901 0.65627
 C17 C 1.27419 0.77349 0.45550
 C18 C 1.27251 0.77302 0.54520
 C19 C 1.24915 0.74950 0.58600
 C20 C 1.22619 0.72700 0.54095
 C21 C 1.22701 0.72770 0.45211
 C22 C 1.25114 0.75032 0.41094
 H23 H 1.25133 0.74993 0.34281
 H24 H 1.24840 0.74920 0.65419
 C25 C 0.77355 0.50102 0.45551
 C26 C 0.77259 0.49780 0.54466
 C27 C 0.74829 0.49595 0.58789
 C28 C 0.72582 0.49821 0.54636
 C29 C 0.72744 0.50105 0.45713
 C30 C 0.75086 0.50204 0.41369
 H31 H 0.75161 0.50396 0.34564
 H32 H 0.74734 0.49371 0.65564
 C33 C 0.49769 0.27193 0.45512
 C34 C 0.50104 0.27446 0.54419
 C35 C 0.50264 0.25200 0.58802
 C36 C 0.49996 0.22700 0.54719
 C37 C 0.49696 0.22548 0.45800
 C38 C 0.49625 0.24794 0.41397
 H39 H 0.49425 0.24659 0.34595
 H40 H 0.50498 0.25351 0.65574
 C41 C 0.72781 0.22620 0.45544
 C42 C 0.72686 0.22712 0.54416
 C43 C 0.74899 0.25126 0.58716
 C44 C 0.77297 0.27415 0.54466
 C45 C 0.77353 0.27260 0.45506
 C46 C 0.75079 0.24913 0.41229
 H47 H 0.75129 0.24844 0.34412
 H48 H 0.74781 0.25149 0.65516
 O49 O 0.96000 0.43726 0.16012
 O50 O 0.92744 0.44315 0.07869
 C51 C 0.93369 0.43049 0.13837
 O52 O 1.04180 0.56809 0.13881
 O53 O 1.07376 0.55876 0.06578
 C54 C 1.06798 0.57392 0.11851
 O55 O 0.96016 0.52573 0.14902
 O56 O 0.92756 0.48546 0.07394
 C57 C 0.93383 0.50561 0.12978
 O58 O 1.04144 0.47683 0.15467
 O59 O 1.07347 0.51472 0.07092
 C60 C 1.06757 0.49587 0.13050
 Zr61 Zr 1.00054 0.46924 0.10986
 O62 O 1.00356 0.47182 0.24262
 O63 O 0.99795 0.42797 0.11141
 Zr64 Zr 1.00069 0.53321 0.10066
 O65 O 1.00431 0.53744 0.23309
 O66 O 0.99755 0.57150 0.09142
 O67 O 0.97465 0.48854 0.12288
 O68 O 1.02595 0.51403 0.11990
 O69 O 1.04069 0.47247 -0.14376
 O70 O 1.07330 0.51320 -0.07030
 C71 C 1.06706 0.49230 -0.12353
 O72 O 0.95874 0.52029 -0.16021
 O73 O 0.92677 0.48354 -0.07344
 C74 C 0.93258 0.50135 -0.13577
 O75 O 1.04038 0.56356 -0.15551
 O76 O 1.07302 0.55692 -0.07676
 C77 C 1.06672 0.57035 -0.13403
 O78 O 0.95899 0.43539 -0.15319
 O79 O 0.92684 0.44117 -0.06944
 C80 C 0.93276 0.42847 -0.12984
 Zr81 Zr 0.99984 0.46602 -0.10107
 O82 O 1.00182 0.46115 -0.23231
 O83 O 0.99616 0.42456 -0.08475
 Zr84 Zr 0.99979 0.52991 -0.11055
 O85 O 1.00239 0.53028 -0.24344
 O86 O 0.99643 0.56817 -0.11274
 Zr87 Zr 0.95645 0.47786 0.00121
 Zr88 Zr 1.04390 0.52131 -0.00186
 O89 O 1.02503 0.51032 -0.12245
 O90 O 0.97386 0.48488 -0.12165
 O91 O 1.02650 0.47576 0.00428
 O92 O 0.97466 0.52342 -0.00475
 O93 O 0.97449 0.45027 0.00553
 O94 O 1.02651 0.54954 -0.00654
 H95 H 1.03901 0.52125 0.16950
 H96 H 0.96140 0.53160 -0.00643
 H97 H 1.03777 0.51607 -0.17274
 H98 H 0.96100 0.42891 0.00710
 H99 H 1.01486 0.58619 0.06019
 H100 H 1.01390 0.58380 -0.08435
 H101 H 0.98651 0.51129 -0.26403
 H102 H 0.99899 0.47645 -0.25868
 H103 H 1.01530 0.42773 -0.06517
 H104 H 1.01546 0.43005 0.08246
 H105 H 0.98794 0.47535 0.26331
 H106 H 0.98914 0.51879 0.25741
 O107 O 0.56213 0.52198 0.16154
 O108 O 0.55652 0.48388 0.07909
 C109 C 0.56904 0.50260 0.13930
 O110 O 0.43104 0.47251 0.13886
 O111 O 0.44040 0.51410 0.06795
 C112 C 0.42513 0.49286 0.11957
 O113 O 0.47383 0.43371 0.14770
 O114 O 0.51431 0.44172 0.07286
 C115 C 0.49407 0.42764 0.12828
 O116 O 0.52277 0.56400 0.15650
 O117 O 0.48439 0.55786 0.07428
 C118 C 0.50348 0.57093 0.13335
 Zr119 Zr 0.53016 0.53068 0.11135
 O120 O 0.52859 0.53158 0.24423
 O121 O 0.57045 0.57017 0.10691
 Zr122 Zr 0.46630 0.46684 0.10083
 O123 O 0.46227 0.46617 0.23335
 O124 O 0.42809 0.42544 0.09162
 O125 O 0.51102 0.48554 0.12324
 O126 O 0.48531 0.51115 0.12145
 O127 O 0.52768 0.56886 -0.13834
 O128 O 0.48591 0.55945 -0.06795
 C129 C 0.50721 0.57470 -0.11946
 O130 O 0.47993 0.43915 -0.16220
 O131 O 0.51644 0.44346 -0.07476
 C132 C 0.49880 0.43179 -0.13773
 O133 O 0.43650 0.47773 -0.15590
 O134 O 0.44239 0.51605 -0.07380
 C135 C 0.42944 0.49699 -0.13293
 O136 O 0.56562 0.52493 -0.14853
 O137 O 0.55881 0.48587 -0.06875
 C138 C 0.57213 0.50517 -0.12699
 Zr139 Zr 0.53348 0.53372 -0.09949
 O140 O 0.53532 0.53886 -0.23168
 O141 O 0.57484 0.57186 -0.08787
 Zr142 Zr 0.46970 0.46989 -0.11036
 O143 O 0.46843 0.47153 -0.24312
 O144 O 0.43144 0.42835 -0.11126
 Zr145 Zr 0.52184 0.47839 0.00133
 Zr146 Zr 0.47799 0.52202 0.00016
 O147 O 0.48919 0.51465 -0.12086
 O148 O 0.51487 0.48906 -0.12118
 O149 O 0.52349 0.55017 0.00659
 O150 O 0.47626 0.45100 -0.00527
 O151 O 0.54927 0.52392 0.00690
 O152 O 0.44988 0.47650 -0.00597
 H153 H 0.47802 0.51685 0.17123
 H154 H 0.46821 0.42962 -0.00773
 H155 H 0.48360 0.52190 -0.17094
 H156 H 0.57069 0.53201 0.00888
 H157 H 0.41381 0.42780 0.05724
 H158 H 0.41533 0.43068 -0.08822
 H159 H 0.48823 0.47740 -0.26392
 H160 H 0.53030 0.51982 -0.25676
 H161 H 0.57239 0.58551 -0.05074
 H162 H 0.57624 0.57597 0.16615
 H163 H 0.52319 0.51185 0.26448
 H164 H 0.48069 0.46883 0.25747
 O165 O 0.52502 -0.04044 0.14940
 O166 O 0.48530 -0.07274 0.07179
 C167 C 0.50511 -0.06668 0.12865
 O168 O 0.47502 0.04053 0.15276
 O169 O 0.51460 0.07301 0.07502
 C170 C 0.49453 0.06681 0.13116
 O171 O 0.43808 -0.04092 0.16189
 O172 O 0.44284 -0.07303 0.07523
 C173 C 0.43095 -0.06709 0.13775
 O174 O 0.56749 0.04100 0.14274
 O175 O 0.55857 0.07329 0.07019
 C176 C 0.57346 0.06724 0.12322
 Zr177 Zr 0.53309 0.00020 0.10110
 O178 O 0.53824 -0.00001 0.23301
 O179 O 0.57232 -0.00040 0.08117
 Zr180 Zr 0.46897 -0.00008 0.11057
 O181 O 0.47189 0.00286 0.24329
 O182 O 0.42717 -0.00385 0.11458
 O183 O 0.48838 -0.02584 0.12216
 O184 O 0.51374 0.02538 0.12186
 O185 O 0.56439 0.04110 -0.15199
 O186 O 0.55730 0.07331 -0.07242
 C187 C 0.57104 0.06731 -0.12959
 O188 O 0.43435 -0.04032 -0.15064
 O189 O 0.44159 -0.07269 -0.07274
 C190 C 0.42798 -0.06658 -0.12994
 O191 O 0.47357 0.04125 -0.14401
 O192 O 0.51346 0.07347 -0.06678
 C193 C 0.49327 0.06749 -0.12233
 O194 O 0.52096 -0.04040 -0.16128
 O195 O 0.48391 -0.07279 -0.07592
 C196 C 0.50196 -0.06665 -0.13787
 Zr197 Zr 0.53035 0.00031 -0.10968
 O198 O 0.53085 0.00342 -0.24244
 O199 O 0.56886 -0.00265 -0.11230
 Zr200 Zr 0.46631 0.00026 -0.10041
 O201 O 0.46109 0.00113 -0.23193
 O202 O 0.42525 -0.00244 -0.08330
 Zr203 Zr 0.47795 -0.04354 -0.00018
 Zr204 Zr 0.52135 0.04383 0.00098
 O205 O 0.51079 0.02556 -0.12042
 O206 O 0.48526 -0.02557 -0.12220
 O207 O 0.54966 0.02654 -0.00457
 O208 O 0.45029 -0.02559 0.00532
 O209 O 0.52354 -0.02543 -0.00504
 O210 O 0.47572 0.02633 0.00597
 H211 H 0.52061 0.03850 0.17131
 H212 H 0.42891 -0.03904 0.00715
 H213 H 0.51697 0.03857 -0.17008
 H214 H 0.53169 -0.03872 -0.00711
 H215 H 0.42812 0.01227 0.08070
 H216 H 0.42882 0.01707 -0.06622
 H217 H 0.47975 0.00526 -0.25779
 H218 H 0.51154 -0.01185 -0.26310
 H219 H 0.58344 0.01312 -0.07609
 H220 H 0.57984 -0.00097 0.13777
 H221 H 0.52737 0.00874 0.25869
 H222 H 0.47725 -0.01161 0.26289
 C223 C 1.16111 0.50072 0.31354
 N224 N 1.16464 0.50858 0.39562
 N225 N 1.18529 0.50775 0.44143
 C226 C 1.20265 0.49811 0.40834
 N227 N 1.19949 0.49111 0.32504
 N228 N 1.17919 0.49239 0.27855
 C229 C 1.13714 0.49980 0.26514
 N230 N 1.13975 0.50538 0.18130
 N231 N 1.11762 0.50427 0.13794
 C232 C 1.09196 0.49689 0.17672
 N233 N 1.08932 0.49108 0.26030
 N234 N 1.11158 0.49272 0.30386
 C235 C 0.49930 0.65972 0.31857
 N236 N 0.50281 0.66081 0.40312
 N237 N 0.50261 0.68196 0.44793
 C238 C 0.49939 0.70325 0.41047
 N239 N 0.49569 0.70185 0.32546
 N240 N 0.49550 0.68050 0.28047
 C241 C 0.50037 0.63683 0.26946
 N242 N 0.48861 0.62973 0.19116
 N243 N 0.48956 0.60872 0.14731
 C244 C 0.50272 0.59446 0.17982
 N245 N 0.51465 0.60175 0.25778
 N246 N 0.51336 0.62245 0.30197
 C247 C 0.34195 -0.16069 0.31962
 N248 N 0.34095 -0.15892 0.40435
 N249 N 0.31947 -0.18028 0.44798
 C250 C 0.29774 -0.20413 0.40930
 N251 N 0.29907 -0.20583 0.32405
 N252 N 0.32075 -0.18464 0.28014
 C253 C 0.36517 -0.13660 0.27196
 N254 N 0.37183 -0.14066 0.19248
 N255 N 0.39296 -0.11854 0.14972
 C256 C 0.40786 -0.09154 0.18456
 N257 N 0.40107 -0.08749 0.26380
 N258 N 0.38022 -0.10966 0.30689
 C259 C 0.84068 0.50449 0.30745
 N260 N 0.81424 0.47977 0.31111
 N261 N 0.79279 0.47877 0.35767
 C262 C 0.79705 0.50246 0.40221
 N263 N 0.82325 0.52741 0.39709
 N264 N 0.84474 0.52834 0.35090
 C265 C 0.86473 0.50516 0.25930
 N266 N 0.89230 0.52805 0.26661
 N267 N 0.91429 0.52825 0.22507
 C268 C 0.90951 0.50563 0.17435
 N269 N 0.88190 0.48281 0.16665
 N270 N 0.85993 0.48253 0.20859
 C271 C 0.49478 0.33548 0.30556
 N272 N 0.47080 0.31586 0.34878
 N273 N 0.47157 0.29535 0.39544
 C274 C 0.49647 0.29395 0.40127
 N275 N 0.52030 0.31321 0.35699
 N276 N 0.51947 0.33363 0.30995
 C277 C 0.49426 0.35885 0.25716
 N278 N 0.51704 0.37670 0.20701
 N279 N 0.51687 0.39843 0.16510
 C280 C 0.49398 0.40321 0.17229
 N281 N 0.47120 0.38534 0.22239
 N282 N 0.47130 0.36353 0.26387
 C283 C 0.66401 0.15942 0.30700
 N284 N 0.68235 0.15453 0.35517
 N285 N 0.70255 0.17571 0.40280
 C286 C 0.70484 0.20242 0.40504
 N287 N 0.68687 0.20749 0.35577
 N288 N 0.66673 0.18634 0.30785
 C289 C 0.64128 0.13578 0.25619
 N290 N 0.62408 0.14092 0.20363
 N291 N 0.60287 0.11922 0.15976
 C292 C 0.59803 0.09157 0.16700
 N293 N 0.61532 0.08648 0.21925
 N294 N 0.63660 0.10819 0.26282
 C295 C 0.49792 0.16077 -0.30788
 N296 N 0.50564 0.18708 -0.27317
 N297 N 0.50645 0.20841 -0.31995
 C298 C 0.49998 0.20453 -0.40361
 N299 N 0.49265 0.17819 -0.43756
 N300 N 0.49148 0.15676 -0.39095
 C301 C 0.49610 0.13670 -0.25719
 N302 N 0.48068 0.10891 -0.28613
 N303 N 0.47929 0.08689 -0.24195
 C304 C 0.49348 0.09182 -0.16743
 N305 N 0.50897 0.11964 -0.13830
 N306 N 0.51008 0.14167 -0.18214
 C307 C 0.66072 0.49975 -0.31136
 N308 N 0.67965 0.49265 -0.27541
 N309 N 0.70046 0.49199 -0.32128
 C310 C 0.70305 0.49802 -0.40520
 N311 N 0.68370 0.50472 -0.44031
 N312 N 0.66314 0.50573 -0.39467
 C313 C 0.63820 0.50149 -0.26171
 N314 N 0.62965 0.48829 -0.18557
 N315 N 0.60868 0.48953 -0.14223
 C316 C 0.59581 0.50435 -0.17298
 N317 N 0.60457 0.51774 -0.24870
 N318 N 0.62526 0.51621 -0.29239
 C319 C 0.83894 0.34025 -0.31461
 N320 N 0.84176 0.33883 -0.39881
 N321 N 0.82036 0.31794 -0.44396
 C322 C 0.79531 0.29724 -0.40744
 N323 N 0.79257 0.29893 -0.32269
 N324 N 0.81384 0.32005 -0.27726
 C325 C 0.86312 0.36294 -0.26539
 N326 N 0.85870 0.37038 -0.18726
 N327 N 0.88086 0.39128 -0.14380
 C328 C 0.90827 0.40515 -0.17650
 N329 N 0.91266 0.39754 -0.25430
 N330 N 0.89048 0.37693 -0.29807
 C331 C 0.49841 -0.15992 -0.31973
 N332 N 0.49603 -0.18373 -0.28026
 N333 N 0.49647 -0.20496 -0.32430
 C334 C 0.49903 -0.20347 -0.40966
 N335 N 0.50081 -0.17974 -0.44829
 N336 N 0.50075 -0.15834 -0.40455
 C337 C 0.49913 -0.13587 -0.27201
 N338 N 0.51079 -0.10895 -0.30692
 N339 N 0.51185 -0.08686 -0.26386
 C340 C 0.50095 -0.09098 -0.18469
 N341 N 0.48910 -0.11795 -0.14987
 N342 N 0.48838 -0.13999 -0.19259
 C343 C 0.34112 0.50214 -0.31863
 N344 N 0.32314 0.51051 -0.28299
 N345 N 0.30187 0.51061 -0.32784
 C346 C 0.29783 0.50265 -0.41041
 N347 N 0.31629 0.49475 -0.44554
 N348 N 0.33736 0.49436 -0.40079
 C349 C 0.36382 0.50072 -0.26925
 N350 N 0.37649 0.48563 -0.29896
 N351 N 0.39706 0.48411 -0.25472
 C352 C 0.40589 0.49780 -0.17937
 N353 N 0.39329 0.51299 -0.14962
 N354 N 0.37247 0.51427 -0.19355
 C355 C 1.15872 0.66074 -0.31777
 N356 N 1.15256 0.67262 -0.38476
 N357 N 1.17395 0.69344 -0.43016
 C358 C 1.20231 0.70310 -0.41076
 N359 N 1.20847 0.69143 -0.34306
 N360 N 1.18708 0.67054 -0.29764
 C361 C 1.13500 0.63766 -0.26842
 N362 N 1.14077 0.62439 -0.20413
 N363 N 1.11906 0.60310 -0.16056
 C364 C 1.09083 0.59441 -0.17961
 N365 N 1.08512 0.60778 -0.24361
 N366 N 1.10679 0.62900 -0.28721
 C367 C 0.83861 0.49653 -0.31773
 N368 N 0.81336 0.49101 -0.27984
 N369 N 0.79206 0.49123 -0.32427
 C370 C 0.79495 0.49669 -0.40850
 N371 N 0.82019 0.50171 -0.44557
 N372 N 0.84159 0.50181 -0.40141
 C373 C 0.86279 0.49761 -0.26957
 N374 N 0.85849 0.48570 -0.19163
 N375 N 0.88071 0.48676 -0.14888
 C376 C 0.90802 0.50007 -0.18220
 N377 N 0.91228 0.51209 -0.25987
 N378 N 0.89005 0.51075 -0.30291
 C379 C 0.50324 0.34247 -0.31982
 N380 N 0.50860 0.32271 -0.28150
 N381 N 0.50809 0.30097 -0.32543
 C382 C 0.50248 0.29819 -0.40958
 N383 N 0.49761 0.31842 -0.44713
 N384 N 0.49780 0.33995 -0.40346
 C385 C 0.50243 0.36578 -0.27203
 N386 N 0.48950 0.38009 -0.30556
 N387 N 0.48826 0.40104 -0.26251
 C388 C 0.50019 0.40865 -0.18466
 N389 N 0.51331 0.39447 -0.15119
 N390 N 0.51427 0.37327 -0.19394
 C391 C 0.66151 0.15988 -0.31151
 N392 N 0.67373 0.15372 -0.37768
 N393 N 0.69429 0.17507 -0.42377
 C394 C 0.70334 0.20340 -0.40599
 N395 N 0.69138 0.20959 -0.33900
 N396 N 0.67073 0.18822 -0.29284
 C397 C 0.63856 0.13609 -0.26199
 N398 N 0.62482 0.14161 -0.19843
 N399 N 0.60350 0.11975 -0.15530
 C400 C 0.59527 0.09162 -0.17410
 N401 N 0.60914 0.08618 -0.23730
 N402 N 0.63038 0.10799 -0.28041
 C403 C 1.15974 0.49208 -0.30051
 N404 N 1.15386 0.47553 -0.37080
 N405 N 1.17542 0.47785 -0.41952
 C406 C 1.20377 0.49706 -0.40071
 N407 N 1.20960 0.51257 -0.32796
 N408 N 1.18803 0.51038 -0.27935
 C409 C 1.13580 0.49111 -0.25076
 N410 N 1.14134 0.51045 -0.18746
 N411 N 1.11949 0.51061 -0.14596
 C412 C 1.09129 0.49139 -0.16612
 N413 N 1.08579 0.47189 -0.22885
 N414 N 1.10762 0.47180 -0.27050
 C415 C 0.50569 0.66611 -0.29925
 N416 N 0.52890 0.68472 -0.34689
 N417 N 0.52752 0.70454 -0.39535
 C418 C 0.50271 0.70621 -0.39880
 N419 N 0.47970 0.68802 -0.34993
 N420 N 0.48114 0.66827 -0.30121
 C421 C 0.50677 0.64335 -0.24883
 N422 N 0.48426 0.62578 -0.19745
 N423 N 0.48470 0.60433 -0.15471
 C424 C 0.50762 0.59960 -0.16194
 N425 N 0.53019 0.61727 -0.21297
 N426 N 0.52981 0.63880 -0.25543
 C427 C 0.33579 -0.16006 -0.30564
 N428 N 0.31669 -0.15565 -0.35163
 N429 N 0.29620 -0.17710 -0.39785
 C430 C 0.29430 -0.20365 -0.40050
 N431 N 0.31296 -0.20829 -0.35316
 N432 N 0.33337 -0.18686 -0.30658
 C433 C 0.35927 -0.13594 -0.25805
 N434 N 0.37673 -0.14076 -0.20568
 N435 N 0.39849 -0.11870 -0.16435
 C436 C 0.40372 -0.09100 -0.17437
 N437 N 0.38627 -0.08621 -0.22676
 N438 N 0.36441 -0.10827 -0.26769
 C439 C 0.50401 -0.16003 0.30454
 N440 N 0.52755 -0.15561 0.35038
 N441 N 0.52660 -0.17699 0.39694
 C442 C 0.50193 -0.20347 0.40015
 N443 N 0.47859 -0.20813 0.35293
 N444 N 0.47961 -0.18677 0.30600
 C445 C 0.50464 -0.13599 0.25662
 N446 N 0.48230 -0.14081 0.20450
 N447 N 0.48256 -0.11879 0.16306
 C448 C 0.50507 -0.09111 0.17269
 N449 N 0.52739 -0.08631 0.22476
 N450 N 0.52721 -0.10834 0.26581
 C451 C 0.33336 0.49310 0.30117
 N452 N 0.33225 0.51809 0.30920
 N453 N 0.31227 0.51898 0.35829
 C454 C 0.29273 0.49493 0.40120
 N455 N 0.29346 0.46978 0.39210
 N456 N 0.31355 0.46894 0.34336
 C457 C 0.35621 0.49246 0.25004
 N458 N 0.36022 0.46904 0.25287
 N459 N 0.38183 0.46898 0.20990
 C460 C 0.40012 0.49224 0.16195
 N461 N 0.39592 0.51554 0.15834
 N462 N 0.37439 0.51567 0.20174
 C463 C 1.16070 0.66472 0.30027
 N464 N 1.18769 0.66752 0.30102
 N465 N 1.20876 0.68746 0.34968
 C466 C 1.20350 0.70511 0.39987
 N467 N 1.17674 0.70276 0.39757
 N468 N 1.15567 0.68280 0.34919
 C469 C 1.13701 0.64203 0.24936
 N470 N 1.10943 0.63745 0.25622
 N471 N 1.08760 0.61613 0.21316
 C472 C 1.09252 0.59867 0.16116
 N473 N 1.12017 0.60342 0.15360
 N474 N 1.14201 0.62470 0.19697
 C475 C 0.49458 0.15895 0.31016
 N476 N 0.47041 0.15469 0.35230
 N477 N 0.47107 0.17589 0.39916
 C478 C 0.49608 0.20193 0.40653
 N479 N 0.52011 0.20638 0.36338
 N480 N 0.51938 0.18524 0.31608
 C481 C 0.49413 0.13528 0.26092
 N482 N 0.51691 0.14039 0.21039
 N483 N 0.51686 0.11866 0.16782
 C484 C 0.49410 0.09102 0.17474
 N485 N 0.47131 0.08594 0.22511
 N486 N 0.47127 0.10769 0.26720
 C487 C 0.66186 0.50236 0.31372
 N488 N 0.66346 0.47760 0.32008
 N489 N 0.68452 0.47728 0.36525
 C490 C 0.70471 0.50171 0.40540
 N491 N 0.70357 0.52666 0.39739
 N492 N 0.68238 0.52692 0.35276
 C493 C 0.63794 0.50244 0.26736
 N494 N 0.63288 0.52508 0.27563
 N495 N 0.61080 0.52499 0.23512
 C496 C 0.59306 0.50234 0.18449
 N497 N 0.59818 0.47974 0.17585
 N498 N 0.62015 0.47972 0.21694
 C499 C 0.84048 0.33764 0.31119
 N500 N 0.81381 0.33551 0.31457
 N501 N 0.79236 0.31455 0.35961
 C502 C 0.79686 0.29500 0.40267
 N503 N 0.82327 0.29663 0.39753
 N504 N 0.84476 0.31771 0.35297
 C505 C 0.86455 0.36155 0.26525
 N506 N 0.89228 0.36683 0.27495
 N507 N 0.91432 0.38893 0.23487
 C508 C 0.90941 0.40647 0.18333
 N509 N 0.88165 0.40113 0.17332
 N510 N 0.85962 0.37915 0.21392
   
