data_POSCAR
  _audit_creation_date              2014-09-24
  _audit_creation_method            'ToBaCCo'
  _symmetry_space_group_name_H-M    'P1'
  _symmetry_Int_Tables_number       1
  _symmetry_cell_setting            triclinic
  loop_
  _symmetry_equiv_pos_as_xyz
 x,y,z
_cell_length_a 39.9631
_cell_length_b 39.7636
_cell_length_c 44.2156
_cell_angle_alpha 89.914200
_cell_angle_beta 90.201300
_cell_angle_gamma 120.651600
loop_
  _atom_site_label
  _atom_site_type_symbol
  _atom_site_fract_x
  _atom_site_fract_y
  _atom_site_fract_z
C1 C 0.03297 0.50789 1.31560
 C2 C -0.00326 0.49140 1.32993
 C3 C -0.03823 0.47692 1.31384
 C4 C -0.03705 0.47908 1.28175
 C5 C -0.00078 0.49485 1.26660
 C6 C 0.03431 0.50920 1.28348
 C7 C 0.06942 0.52263 1.26770
 C8 C 0.07071 0.52525 1.23634
 C9 C 0.03678 0.51340 1.21935
 C10 C 0.00053 0.49712 1.23442
 C11 C -0.07057 0.46886 1.26450
 C12 C -0.06921 0.47129 1.23316
 C13 C -0.03422 0.48422 1.21743
 C14 C -0.03242 0.48791 1.18536
 C15 C 0.00410 0.50602 1.17129
 C16 C 0.03827 0.51810 1.18767
 H17 H 0.09641 0.53114 1.27934
 H18 H 0.09873 0.53683 1.22551
 H19 H -0.09820 0.46008 1.27500
 H20 H -0.09584 0.46422 1.22151
 H21 H -0.00427 0.49016 1.35446
 H22 H 0.00603 0.50932 1.14688
 C23 C 0.47584 0.51292 1.31340
 C24 C 0.49054 0.49271 1.32908
 C25 C 0.51125 0.47761 1.31441
 C26 C 0.51499 0.48089 1.28230
 C27 C 0.49922 0.50059 1.26606
 C28 C 0.47987 0.51687 1.28170
 C29 C 0.46414 0.53587 1.26521
 C30 C 0.46729 0.53889 1.23389
 C31 C 0.48630 0.52305 1.21784
 C32 C 0.50222 0.50351 1.23399
 C33 C 0.53159 0.46279 1.26572
 C34 C 0.53505 0.46616 1.23440
 C35 C 0.52057 0.48636 1.21809
 C36 C 0.52362 0.48963 1.18622
 C37 C 0.50789 0.50903 1.17069
 C38 C 0.48906 0.52542 1.18595
 H39 H 0.44871 0.54816 1.27636
 H40 H 0.45430 0.55350 1.22237
 H41 H 0.54135 0.44494 1.27660
 H42 H 0.54872 0.45220 1.22304
 H43 H 0.48805 0.49124 1.35354
 H44 H 0.50992 0.51101 1.14621
 C45 C 0.46620 0.96523 1.31400
 C46 C 0.47897 1.00110 1.32861
 C47 C 0.49916 1.03694 1.31330
 C48 C 0.50330 1.03687 1.28139
 C49 C 0.48892 1.00090 1.26578
 C50 C 0.47057 0.96501 1.28207
 C51 C 0.45416 0.92977 1.26565
 C52 C 0.45706 0.92960 1.23440
 C53 C 0.47491 0.96461 1.21791
 C54 C 0.49136 1.00071 1.23359
 C55 C 0.51810 1.07153 1.26441
 C56 C 0.52075 1.07135 1.23311
 C57 C 0.50855 1.03646 1.21708
 C58 C 0.50953 1.03575 1.18488
 C59 C 0.49289 0.99947 1.17014
 C60 C 0.47583 0.96432 1.18602
 H61 H 0.43755 0.90166 1.27655
 H62 H 0.44419 0.90150 1.22324
 H63 H 0.52631 1.09918 1.27500
 H64 H 0.53099 1.09890 1.22164
 H65 H 0.47686 1.00139 1.35307
 H66 H 0.49351 0.99841 1.14562
 C67 C 1.03366 0.50491 0.81375
 C68 C 0.99749 0.48704 0.82840
 C69 C 0.96251 0.47064 0.81238
 C70 C 0.96293 0.47135 0.78045
 C71 C 0.99897 0.48830 0.76493
 C72 C 1.03442 0.50471 0.78153
 C73 C 1.06917 0.51729 0.76549
 C74 C 1.06963 0.51669 0.73408
 C75 C 1.03535 0.50339 0.71706
 C76 C 0.99945 0.48782 0.73272
 C77 C 0.92822 0.45528 0.76369
 C78 C 0.92870 0.45482 0.73225
 C79 C 0.96393 0.47079 0.71630
 C80 C 0.96446 0.46901 0.68438
 C81 C 0.99990 0.48357 0.66933
 C82 C 1.03557 0.50201 0.68489
 H83 H 1.09638 0.52641 0.77701
 H84 H 1.09717 0.52550 0.72337
 H85 H 0.90024 0.44246 0.77475
 H86 H 0.90098 0.44107 0.72060
 H87 H 0.99635 0.48711 0.85292
 H88 H 0.99967 0.48273 0.64479
 C89 C 0.52686 0.49226 0.68606
 C90 C 0.50994 0.51035 0.67027
 C91 C 0.49231 0.52809 0.68541
 C92 C 0.49130 0.52779 0.71738
 C93 C 0.50869 0.50986 0.73373
 C94 C 0.52670 0.49219 0.71804
 C95 C 0.54434 0.47523 0.73471
 C96 C 0.54376 0.47500 0.76616
 C97 C 0.52584 0.49207 0.78219
 C98 C 0.50785 0.50939 0.76584
 C99 C 0.47290 0.54438 0.73339
 C100 C 0.47181 0.54364 0.76486
 C101 C 0.48890 0.52609 0.78152
 C102 C 0.48788 0.52510 0.81349
 C103 C 0.50596 0.50817 0.82928
 C104 C 0.52495 0.49183 0.81416
 H105 H 0.55894 0.46204 0.72362
 H106 H 0.55737 0.46108 0.77777
 H107 H 0.45897 0.55795 0.72173
 H108 H 0.45749 0.55708 0.77600
 H109 H 0.51014 0.51027 0.64573
 H110 H 0.50519 0.50765 0.85382
 C111 C 0.48253 -0.03306 0.81565
 C112 C 0.49952 0.00337 0.83027
 C113 C 0.51979 0.03852 0.81445
 C114 C 0.52272 0.03800 0.78268
 C115 C 0.50500 0.00167 0.76715
 C116 C 0.48499 -0.03404 0.78356
 C117 C 0.46594 -0.06938 0.76721
 C118 C 0.46813 -0.06988 0.73582
 C119 C 0.48817 -0.03500 0.71925
 C120 C 0.50675 0.00113 0.73504
 C121 C 0.54307 0.07288 0.76608
 C122 C 0.54496 0.07228 0.73471
 C123 C 0.52662 0.03678 0.71873
 C124 C 0.52786 0.03602 0.68681
 C125 C 0.51030 0.00022 0.67163
 C126 C 0.49013 -0.03520 0.68728
 H127 H 0.44836 -0.09719 0.77831
 H128 H 0.45356 -0.09803 0.72467
 H129 H 0.55772 0.10107 0.77720
 H130 H 0.56106 0.10001 0.72307
 H131 H 0.49822 0.00457 0.85473
 H132 H 0.51106 -0.00003 0.64710
 O133 O 0.39092 0.65851 0.97369
 O134 O 0.38745 0.72151 0.96338
 C135 C 0.36903 0.73925 0.95890
 O136 O 0.33939 0.73223 0.97428
 O137 O 0.27664 0.66466 0.96408
 C138 C 0.25823 0.62799 0.95983
 O139 O 0.26436 0.60479 0.97553
 O140 O 0.33086 0.60886 0.96475
 C141 C 0.36703 0.62798 0.95906
 O142 O 0.39040 0.67042 1.03364
 O143 O 0.38965 0.73480 1.02352
 C144 C 0.36511 0.73886 1.03898
 O145 O 0.32880 0.71904 1.03394
 O146 O 0.26412 0.65358 1.02404
 C147 C 0.26038 0.62554 1.04034
 O148 O 0.27919 0.60832 1.03540
 O149 O 0.34386 0.60892 1.02456
 C150 C 0.37358 0.63411 1.03922
 Cr151 Cr 0.38753 0.69517 0.99857
 Cr152 Cr 0.30329 0.69138 0.99905
 Cr153 Cr 0.30556 0.60980 1.00001
 O154 O 0.33219 0.66545 0.99917
 O155 O 0.61178 0.34863 0.97444
 O156 O 0.61143 0.28325 0.96609
 C157 C 0.62807 0.26360 0.96228
 O158 O 0.65626 0.26806 0.97882
 O159 O 0.72285 0.33213 0.96946
 C160 C 0.74163 0.36799 0.96213
 O161 O 0.73657 0.39362 0.97501
 O162 O 0.67268 0.39371 0.96365
 C163 C 0.63650 0.37723 0.95873
 O164 O 0.61234 0.33887 1.03446
 O165 O 0.60700 0.27102 1.02596
 C166 C 0.62906 0.26441 1.04246
 O167 O 0.66563 0.28253 1.03910
 O168 O 0.73332 0.34524 1.02970
 C169 C 0.74120 0.37739 1.04197
 O170 O 0.72483 0.39632 1.03447
 O171 O 0.66176 0.39858 1.02355
 C172 C 0.63180 0.37554 1.03901
 Cr173 Cr 0.61278 0.31145 1.00030
 Cr174 Cr 0.69355 0.30814 1.00418
 Cr175 Cr 0.69777 0.39338 0.99927
 O176 O 0.66820 0.33775 1.00135
 O177 O 0.65886 0.39401 0.52555
 O178 O 0.72202 0.39037 0.53309
 C179 C 0.73966 0.37168 0.53709
 O180 O 0.73266 0.34204 0.52122
 O181 O 0.66692 0.27755 0.53174
 C182 C 0.63141 0.26053 0.53932
 O183 O 0.60688 0.26738 0.52666
 O184 O 0.61166 0.33401 0.53728
 C185 C 0.63016 0.37054 0.54176
 O186 O 0.66631 0.39130 0.46531
 O187 O 0.73201 0.39245 0.47296
 C188 C 0.73594 0.36827 0.45687
 O189 O 0.71627 0.33178 0.46129
 O190 O 0.65225 0.26656 0.47189
 C191 C 0.62109 0.26078 0.45934
 O192 O 0.60368 0.27862 0.46695
 O193 O 0.60601 0.34457 0.47747
 C194 C 0.62971 0.37383 0.46154
 Cr195 Cr 0.69367 0.38987 0.49922
 Cr196 Cr 0.69101 0.30560 0.49666
 Cr197 Cr 0.60921 0.30721 0.50196
 O198 O 0.66455 0.33407 0.49926
 O199 O 0.34542 0.60962 0.52438
 O200 O 0.28031 0.60760 0.53596
 C201 C 0.26132 0.62433 0.54193
 O202 O 0.26562 0.65398 0.52754
 O203 O 0.33063 0.72022 0.53501
 C204 C 0.36714 0.73985 0.53919
 O205 O 0.39085 0.73526 0.52312
 O206 O 0.39255 0.67126 0.53223
 C207 C 0.37576 0.63506 0.53827
 O208 O 0.33095 0.60896 0.46484
 O209 O 0.26480 0.60439 0.47673
 C210 C 0.25670 0.62696 0.46223
 O211 O 0.27399 0.66356 0.46690
 O212 O 0.33754 0.73177 0.47475
 C213 C 0.36692 0.73892 0.45887
 O214 O 0.38593 0.72172 0.46304
 O215 O 0.39088 0.65949 0.47202
 C216 C 0.36674 0.62840 0.45817
 Cr217 Cr 0.30644 0.60988 0.50044
 Cr218 Cr 0.30308 0.69137 0.50097
 Cr219 Cr 0.38787 0.69575 0.49767
 O220 O 0.33244 0.66564 0.49972
 C221 C 0.42885 0.56728 0.36932
 C222 C 0.40737 0.52639 0.36418
 C223 C 0.42253 0.50886 0.34547
 C224 C 0.45858 0.53162 0.33137
 C225 C 0.47933 0.57213 0.33566
 C226 C 0.46471 0.58987 0.35436
 C227 C 0.41272 0.58451 0.39090
 C228 C 0.43309 0.62428 0.39927
 C229 C 0.41773 0.63851 0.42063
 C230 C 0.38148 0.61368 0.43397
 C231 C 0.36048 0.57424 0.42522
 C232 C 0.37603 0.55941 0.40424
 C233 C 0.37112 0.50324 0.37793
 C234 C 0.35562 0.51945 0.39729
 H235 H 0.35452 0.47202 0.37378
 H236 H 0.32755 0.50022 0.40750
 H237 H 0.40654 0.47747 0.34201
 H238 H 0.50728 0.58997 0.32485
 H239 H 0.43451 0.66909 0.42691
 H240 H 0.33262 0.55466 0.43562
 H241 H 0.48206 0.62116 0.35693
 H242 H 0.46126 0.64476 0.39012
 C243 C 0.42376 0.86545 0.37116
 C244 C 0.40985 0.89166 0.37410
 C245 C 0.42391 0.92436 0.35506
 C246 C 0.45105 0.93119 0.33220
 C247 C 0.46475 0.90503 0.32939
 C248 C 0.45127 0.87262 0.34845
 C249 C 0.40882 0.83153 0.39266
 C250 C 0.42210 0.80477 0.39271
 C251 C 0.40812 0.77444 0.41387
 C252 C 0.38025 0.76969 0.43534
 C253 C 0.36635 0.79578 0.43508
 C254 C 0.38066 0.82672 0.41428
 C255 C 0.38195 0.88515 0.39599
 C256 C 0.36747 0.85325 0.41549
 H257 H 0.37112 0.90509 0.39812
 H258 H 0.34595 0.84959 0.43208
 H259 H 0.41289 0.94413 0.35757
 H260 H 0.48696 0.91030 0.31296
 H261 H 0.41935 0.75475 0.41351
 H262 H 0.34508 0.79273 0.45170
 H263 H 0.46303 0.85379 0.34515
 H264 H 0.44364 0.80701 0.37692
 C265 C 0.12921 0.55430 0.37600
 C266 C 0.12834 0.57765 0.35219
 C267 C 0.09738 0.56171 0.33127
 C268 C 0.06636 0.52293 0.33429
 C269 C 0.06709 0.50040 0.35851
 C270 C 0.09810 0.51557 0.37881
 C271 C 0.16245 0.57227 0.39796
 C272 C 0.16706 0.55059 0.42108
 C273 C 0.19777 0.56863 0.44153
 C274 C 0.22480 0.60883 0.43972
 C275 C 0.22099 0.63073 0.41642
 C276 C 0.19035 0.61259 0.39530
 C277 C 0.15762 0.61709 0.35009
 C278 C 0.18761 0.63432 0.37143
 H279 H 0.15691 0.63515 0.33201
 H280 H 0.20912 0.66510 0.36911
 H281 H 0.09636 0.58015 0.31362
 H282 H 0.04357 0.47053 0.36161
 H283 H 0.20003 0.55092 0.45915
 H284 H 0.24210 0.66169 0.41450
 H285 H 0.09655 0.49665 0.39691
 H286 H 0.14749 0.51960 0.42374
 C287 C 0.56479 0.43313 0.37262
 C288 C 0.52506 0.42123 0.37600
 C289 C 0.50762 0.43574 0.35648
 C290 C 0.52868 0.46136 0.33270
 C291 C 0.56806 0.47277 0.32926
 C292 C 0.58584 0.45884 0.34881
 C293 C 0.58261 0.41800 0.39477
 C294 C 0.62238 0.42966 0.39458
 C295 C 0.63761 0.41526 0.41614
 C296 C 0.61358 0.38860 0.43827
 C297 C 0.57390 0.37662 0.43848
 C298 C 0.55844 0.39136 0.41726
 C299 C 0.50285 0.39491 0.39885
 C300 C 0.51908 0.38003 0.41885
 H301 H 0.47235 0.38559 0.40130
 H302 H 0.50060 0.35971 0.43612
 H303 H 0.47714 0.42634 0.35942
 H304 H 0.58568 0.49378 0.31207
 H305 H 0.66833 0.42502 0.41542
 H306 H 0.55504 0.35635 0.45563
 H307 H 0.61616 0.46888 0.34505
 H308 H 0.64231 0.45016 0.37821
 C309 C 0.55324 0.13743 0.36964
 C310 C 0.51304 0.11001 0.37245
 C311 C 0.49531 0.07692 0.35370
 C312 C 0.51653 0.07153 0.33083
 C313 C 0.55609 0.09980 0.32732
 C314 C 0.57423 0.13223 0.34642
 C315 C 0.57167 0.17071 0.39166
 C316 C 0.61221 0.19647 0.39345
 C317 C 0.62810 0.22595 0.41526
 C318 C 0.60399 0.23104 0.43533
 C319 C 0.56360 0.20602 0.43350
 C320 C 0.54740 0.17530 0.41244
 C321 C 0.49070 0.11585 0.39383
 C322 C 0.50737 0.14828 0.41294
 H323 H 0.45978 0.09516 0.39569
 H324 H 0.48881 0.15159 0.42899
 H325 H 0.46460 0.05570 0.35640
 H326 H 0.57354 0.09602 0.31048
 H327 H 0.65941 0.24487 0.41650
 H328 H 0.54494 0.20933 0.44948
 H329 H 0.60469 0.15276 0.34268
 H330 H 0.63220 0.19369 0.37882
 C331 C 0.86042 0.42886 0.36845
 C332 C 0.89199 0.46710 0.37378
 C333 C 0.92505 0.48268 0.35541
 C334 C 0.92708 0.46148 0.33079
 C335 C 0.89519 0.42398 0.32495
 C336 C 0.86231 0.40784 0.34349
 C337 C 0.82669 0.41249 0.38990
 C338 C 0.79537 0.37358 0.38844
 C339 C 0.76559 0.35934 0.40988
 C340 C 0.76597 0.38366 0.43300
 C341 C 0.79659 0.42260 0.43425
 C342 C 0.82711 0.43691 0.41337
 C343 C 0.89056 0.48966 0.39743
 C344 C 0.85857 0.47508 0.41655
 H345 H 0.91459 0.51911 0.40126
 H346 H 0.85890 0.49371 0.43457
 H347 H 0.94918 0.51192 0.35995
 H348 H 0.89626 0.40647 0.30664
 H349 H 0.74229 0.32913 0.40846
 H350 H 0.79751 0.44152 0.45229
 H351 H 0.83891 0.37883 0.33805
 H352 H 0.79375 0.35347 0.37136
 C353 C 0.57689 0.44373 1.12809
 C354 C 0.54150 0.41807 1.14299
 C355 C 0.52492 0.43304 1.16289
 C356 C 0.54303 0.47335 1.16801
 C357 C 0.57819 0.49868 1.15363
 C358 C 0.59513 0.48417 1.13404
 C359 C 0.59272 0.42680 1.10596
 C360 C 0.62729 0.44990 1.08964
 C361 C 0.63998 0.43305 1.06834
 C362 C 0.61873 0.39268 1.06268
 C363 C 0.58469 0.36923 1.07936
 C364 C 0.57154 0.38595 1.10079
 C365 C 0.52244 0.37780 1.13737
 C366 C 0.53711 0.36210 1.11672
 H367 H 0.49544 0.35814 1.14883
 H368 H 0.52097 0.33080 1.11291
 H369 H 0.49740 0.41355 1.17379
 H370 H 0.59225 0.52994 1.15725
 H371 H 0.66649 0.45194 1.05605
 H372 H 0.56802 0.33797 1.07536
 H373 H 0.62206 0.50519 1.12345
 H374 H 0.64488 0.48108 1.09272
 C375 C 0.86985 0.44517 1.12677
 C376 C 0.87191 0.42021 1.14856
 C377 C 0.90344 0.43493 1.16885
 C378 C 0.93428 0.47389 1.16673
 C379 C 0.93299 0.49780 1.14386
 C380 C 0.90105 0.48393 1.12450
 C381 C 0.83549 0.42867 1.10591
 C382 C 0.82841 0.45215 1.08612
 C383 C 0.79701 0.43529 1.06613
 C384 C 0.77220 0.39464 1.06505
 C385 C 0.77806 0.37101 1.08541
 C386 C 0.80893 0.38787 1.10635
 C387 C 0.84338 0.38040 1.14906
 C388 C 0.81316 0.36439 1.12788
 H389 H 0.84512 0.36109 1.16549
 H390 H 0.79250 0.33323 1.12862
 H391 H 0.90502 0.41549 1.18528
 H392 H 0.95652 0.52777 1.14135
 H393 H 0.79276 0.45408 1.05079
 H394 H 0.75834 0.33962 1.08516
 H395 H 0.90183 0.50372 1.10742
 H396 H 0.84665 0.48357 1.08585
 C397 C 0.55630 0.13456 1.12672
 C398 C 0.57917 0.13323 1.15067
 C399 C 0.56324 0.10124 1.17074
 C400 C 0.52507 0.06962 1.16657
 C401 C 0.50328 0.07066 1.14195
 C402 C 0.51836 0.10267 1.12257
 C403 C 0.57405 0.16904 1.10587
 C404 C 0.55250 0.17444 1.08316
 C405 C 0.57050 0.20587 1.06329
 C406 C 0.61054 0.23290 1.06534
 C407 C 0.63214 0.22869 1.08867
 C408 C 0.61401 0.19730 1.10920
 C409 C 0.61815 0.16309 1.15368
 C410 C 0.63539 0.19402 1.13306
 H411 H 0.63589 0.16205 1.17184
 H412 H 0.66587 0.21584 1.13596
 H413 H 0.58117 0.10004 1.18869
 H414 H 0.47391 0.04671 1.13793
 H415 H 0.55293 0.20848 1.04578
 H416 H 0.66294 0.24981 1.09088
 H417 H 0.50004 0.10135 1.10411
 H418 H 0.52166 0.15482 1.08031
 C419 C 0.43967 0.57658 1.12858
 C420 C 0.42230 0.53545 1.13072
 C421 C 0.43823 0.51917 1.15000
 C422 C 0.47122 0.54320 1.16743
 C423 C 0.48815 0.58382 1.16586
 C424 C 0.47256 0.60044 1.14671
 C425 C 0.42259 0.59272 1.10666
 C426 C 0.43831 0.63311 1.10191
 C427 C 0.42211 0.64653 1.08038
 C428 C 0.38973 0.62011 1.06311
 C429 C 0.37344 0.57986 1.06816
 C430 C 0.38965 0.56606 1.08950
 C431 C 0.38944 0.51075 1.11335
 C432 C 0.37340 0.52572 1.09327
 H433 H 0.37607 0.47929 1.11513
 H434 H 0.34813 0.50534 1.08017
 H435 H 0.42529 0.48769 1.15126
 H436 H 0.51381 0.60266 1.17918
 H437 H 0.43528 0.67774 1.07708
 H438 H 0.34842 0.55902 1.05503
 H439 H 0.48690 0.63189 1.14623
 H440 H 0.46335 0.65482 1.11427
 C441 C 0.14039 0.57078 1.13213
 C442 C 0.12492 0.53201 1.14275
 C443 C 0.09247 0.51537 1.16201
 C444 C 0.07510 0.53683 1.17060
 C445 C 0.09087 0.57537 1.16076
 C446 C 0.12327 0.59234 1.14190
 C447 C 0.17332 0.58660 1.11002
 C448 C 0.18958 0.62419 1.09732
 C449 C 0.21829 0.63671 1.07529
 C450 C 0.23197 0.61238 1.06539
 C451 C 0.21717 0.57543 1.07875
 C452 C 0.18774 0.56227 1.10075
 C453 C 0.14122 0.50981 1.13340
 C454 C 0.17197 0.52463 1.11288
 H455 H 0.12956 0.48024 1.14166
 H456 H 0.18308 0.50602 1.10597
 H457 H 0.07989 0.48537 1.16958
 H458 H 0.07750 0.59209 1.16723
 H459 H 0.22957 0.66560 1.06573
 H460 H 0.22757 0.55641 1.07131
 H461 H 0.13380 0.62201 1.13482
 H462 H 0.18020 0.64425 1.10361
 C463 C 0.42438 0.86227 1.12928
 C464 C 0.46535 0.88634 1.13150
 C465 C 0.48188 0.91887 1.15081
 C466 C 0.45820 0.92787 1.16806
 C467 C 0.41774 0.90389 1.16630
 C468 C 0.40091 0.87132 1.14726
 C469 C 0.40792 0.82892 1.10724
 C470 C 0.36765 0.80391 1.10262
 C471 C 0.35384 0.77439 1.08083
 C472 C 0.37974 0.76886 1.06315
 C473 C 0.41988 0.79299 1.06815
 C474 C 0.43408 0.82293 1.08981
 C475 C 0.48959 0.87831 1.11402
 C476 C 0.47430 0.84725 1.09366
 H477 H 0.52093 0.89663 1.11584
 H478 H 0.49431 0.84254 1.08040
 H479 H 0.51323 0.93775 1.15208
 H480 H 0.39915 0.91088 1.17932
 H481 H 0.32271 0.75611 1.07763
 H482 H 0.44028 0.78902 1.05474
 H483 H 0.36960 0.85410 1.14665
 H484 H 0.34628 0.80687 1.11527
 C485 C 0.57256 0.43633 0.63050
 C486 C 0.59060 0.47762 0.63101
 C487 C 0.57601 0.49563 0.64971
 C488 C 0.54370 0.47314 0.66812
 C489 C 0.52609 0.43239 0.66801
 C490 C 0.54036 0.41410 0.64953
 C491 C 0.58801 0.41822 0.60913
 C492 C 0.57146 0.37747 0.60609
 C493 C 0.58570 0.36207 0.58474
 C494 C 0.61695 0.38682 0.56595
 C495 C 0.63437 0.42745 0.56947
 C496 C 0.62006 0.44324 0.59063
 C497 C 0.62268 0.50068 0.61252
 C498 C 0.63714 0.48387 0.59282
 H499 H 0.63659 0.53227 0.61304
 H500 H 0.66176 0.50300 0.57873
 H501 H 0.58944 0.52720 0.64976
 H502 H 0.50084 0.41470 0.68199
 H503 H 0.57177 0.33061 0.58266
 H504 H 0.65856 0.44699 0.55516
 H505 H 0.52547 0.38263 0.65024
 H506 H 0.54715 0.35694 0.61962
 C507 C 0.57298 0.13710 0.62939
 C508 C 0.59369 0.11716 0.63307
 C509 C 0.57919 0.08452 0.65226
 C510 C 0.54468 0.07194 0.66831
 C511 C 0.52486 0.09235 0.66551
 C512 C 0.53878 0.12460 0.64634
 C513 C 0.58813 0.17027 0.60727
 C514 C 0.56805 0.18989 0.60016
 C515 C 0.58248 0.21944 0.57843
 C516 C 0.61749 0.23061 0.56344
 C517 C 0.63815 0.21182 0.57077
 C518 C 0.62345 0.18142 0.59212
 C519 C 0.62851 0.12971 0.61744
 C520 C 0.64330 0.16143 0.59767
 H521 H 0.64456 0.11470 0.62048
 H522 H 0.67030 0.16990 0.58605
 H523 H 0.59450 0.06864 0.65460
 H524 H 0.49813 0.08280 0.67787
 H525 H 0.56601 0.23353 0.57325
 H526 H 0.66502 0.21991 0.55906
 H527 H 0.52221 0.13907 0.64501
 H528 H 0.54080 0.18241 0.61063
 C529 C 0.86432 0.42745 0.62622
 C530 C 0.88542 0.40767 0.62750
 C531 C 0.91745 0.42085 0.64707
 C532 C 0.92881 0.45347 0.66560
 C533 C 0.90784 0.47289 0.66460
 C534 C 0.87587 0.46002 0.64528
 C535 C 0.83114 0.41321 0.60418
 C536 C 0.80885 0.43130 0.60053
 C537 C 0.77901 0.41759 0.57903
 C538 C 0.77044 0.38542 0.56064
 C539 C 0.79209 0.36683 0.56447
 C540 C 0.82228 0.38050 0.58587
 C541 C 0.87482 0.37521 0.60899
 C542 C 0.84390 0.36187 0.58867
 H543 H 0.89088 0.36000 0.61005
 H544 H 0.83705 0.33678 0.57470
 H545 H 0.93394 0.40605 0.64771
 H546 H 0.91666 0.49847 0.67854
 H547 H 0.76278 0.43248 0.57670
 H548 H 0.78585 0.34191 0.55048
 H549 H 0.86097 0.47624 0.64538
 H550 H 0.81413 0.45625 0.61383
 C551 C 0.44274 0.57854 0.62756
 C552 C 0.42530 0.53742 0.63002
 C553 C 0.44126 0.52134 0.64947
 C554 C 0.47430 0.54556 0.66676
 C555 C 0.49129 0.58617 0.66487
 C556 C 0.47570 0.60259 0.64556
 C557 C 0.42564 0.59445 0.60550
 C558 C 0.44146 0.63480 0.60039
 C559 C 0.42510 0.64800 0.57884
 C560 C 0.39246 0.62138 0.56191
 C561 C 0.37618 0.58119 0.56723
 C562 C 0.39254 0.56762 0.58858
 C563 C 0.39235 0.51254 0.61283
 C564 C 0.37623 0.52732 0.59265
 H565 H 0.37893 0.48110 0.61486
 H566 H 0.35084 0.50681 0.57972
 H567 H 0.42828 0.48987 0.65098
 H568 H 0.51703 0.60516 0.67807
 H569 H 0.43825 0.67917 0.57531
 H570 H 0.35099 0.56021 0.55433
 H571 H 0.49008 0.63404 0.64485
 H572 H 0.46667 0.65663 0.61253
 C573 C 0.43300 0.86349 0.62968
 C574 C 0.47414 0.88565 0.63166
 C575 C 0.49244 0.91788 0.65123
 C576 C 0.47042 0.92849 0.66905
 C577 C 0.42976 0.90641 0.66748
 C578 C 0.41117 0.87416 0.64816
 C579 C 0.41470 0.83032 0.60743
 C580 C 0.37415 0.80703 0.60303
 C581 C 0.35871 0.77743 0.58120
 C582 C 0.38323 0.77015 0.56323
 C583 C 0.42361 0.79271 0.56792
 C584 C 0.43942 0.82262 0.58963
 C585 C 0.49683 0.87602 0.61372
 C586 C 0.47985 0.84516 0.59320
 H587 H 0.52828 0.89287 0.61533
 H588 H 0.49875 0.83915 0.57963
 H589 H 0.52393 0.93525 0.65230
 H590 H 0.41241 0.91466 0.68086
 H591 H 0.32745 0.76044 0.57822
 H592 H 0.44300 0.78742 0.55433
 H593 H 0.37982 0.85843 0.64772
 H594 H 0.35384 0.81139 0.61595
 C595 C 0.13644 0.55663 0.62963
 C596 C 0.10819 0.51666 0.62562
 C597 C 0.07484 0.49894 0.64384
 C598 C 0.07007 0.51965 0.66755
 C599 C 0.09914 0.55886 0.67233
 C600 C 0.13176 0.57718 0.65360
 C601 C 0.17015 0.57515 0.60819
 C602 C 0.19668 0.61579 0.60726
 C603 C 0.22661 0.63174 0.58592
 C604 C 0.23143 0.60750 0.56567
 C605 C 0.20556 0.56705 0.56660
 C606 C 0.17435 0.55089 0.58699
 C607 C 0.11359 0.49447 0.60372
 C608 C 0.14646 0.51100 0.58534
 H609 H 0.09227 0.46370 0.60095
 H610 H 0.14945 0.49249 0.56892
 H611 H 0.05301 0.46846 0.64018
 H612 H 0.09593 0.57591 0.68995
 H613 H 0.24607 0.66313 0.58521
 H614 H 0.20859 0.54838 0.55033
 H615 H 0.15297 0.60736 0.65825
 H616 H 0.19410 0.63579 0.62217
 C617 C 0.43156 0.56957 0.86976
 C618 C 0.47270 0.58909 0.86812
 C619 C 0.49073 0.57487 0.84912
 C620 C 0.46845 0.54154 0.83144
 C621 C 0.42783 0.52261 0.83243
 C622 C 0.40948 0.53645 0.85130
 C623 C 0.41355 0.58466 0.89156
 C624 C 0.37305 0.56650 0.89603
 C625 C 0.35790 0.58085 0.91756
 C626 C 0.38267 0.61376 0.93509
 C627 C 0.42297 0.63248 0.93028
 C628 C 0.43850 0.61811 0.90899
 C629 C 0.49564 0.62234 0.88573
 C630 C 0.47891 0.63665 0.90562
 H631 H 0.52708 0.63739 0.88431
 H632 H 0.49798 0.66232 0.91894
 H633 H 0.52221 0.58937 0.84831
 H634 H 0.41033 0.49665 0.81893
 H635 H 0.32669 0.56583 0.92069
 H636 H 0.44255 0.65793 0.94363
 H637 H 0.37812 0.52057 0.85134
 H638 H 0.35259 0.54091 0.88347
 C639 C 0.13290 0.56008 0.87134
 C640 C 0.10288 0.52110 0.87668
 C641 C 0.07039 0.50320 0.85749
 C642 C 0.06757 0.52283 0.83200
 C643 C 0.09785 0.56128 0.82642
 C644 C 0.13004 0.57967 0.84575
 C645 C 0.16627 0.57864 0.89329
 C646 C 0.19610 0.61821 0.89158
 C647 C 0.22603 0.63422 0.91307
 C648 C 0.22727 0.61109 0.93653
 C649 C 0.19787 0.57165 0.93829
 C650 C 0.16723 0.55552 0.91729
 C651 C 0.10544 0.50002 0.90106
 C652 C 0.13718 0.51668 0.92068
 H653 H 0.08261 0.47004 0.90498
 H654 H 0.13785 0.49907 0.93914
 H655 H 0.04758 0.47333 0.86196
 H656 H 0.09603 0.57776 0.80759
 H657 H 0.24833 0.66478 0.91127
 H658 H 0.19816 0.55364 0.95661
 H659 H 0.15220 0.60923 0.84033
 H660 H 0.19657 0.63742 0.87413
 C661 C 0.42882 0.86839 0.87391
 C662 C 0.45620 0.87154 0.85222
 C663 C 0.47294 0.90344 0.83213
 C664 C 0.46364 0.93311 0.83393
 C665 C 0.43755 0.93037 0.85635
 C666 C 0.42009 0.89843 0.87579
 C667 C 0.41156 0.83408 0.89492
 C668 C 0.38202 0.82702 0.91560
 C669 C 0.36803 0.79584 0.93570
 C670 C 0.38299 0.77065 0.93589
 C671 C 0.41151 0.77652 0.91459
 C672 C 0.42550 0.80774 0.89389
 C673 C 0.46766 0.84357 0.85145
 C674 C 0.45314 0.81275 0.87216
 H675 H 0.48885 0.84604 0.83501
 H676 H 0.46357 0.79241 0.87105
 H677 H 0.49463 0.90615 0.81606
 H678 H 0.43005 0.95288 0.85857
 H679 H 0.34575 0.79192 0.95159
 H680 H 0.42281 0.75686 0.91412
 H681 H 0.40048 0.89836 0.89249
 H682 H 0.36919 0.84515 0.91668
 C683 C 0.57718 0.44269 0.87058
 C684 C 0.53618 0.42467 0.86845
 C685 C 0.51949 0.44062 0.84962
 C686 C 0.54300 0.47430 0.83270
 C687 C 0.58349 0.49207 0.83449
 C688 C 0.60050 0.47645 0.85313
 C689 C 0.59378 0.42543 0.89184
 C690 C 0.63408 0.44151 0.89628
 C691 C 0.64796 0.42535 0.91744
 C692 C 0.62208 0.39266 0.93464
 C693 C 0.58194 0.37577 0.92969
 C694 C 0.56768 0.39192 0.90870
 C695 C 0.51204 0.39114 0.88537
 C696 C 0.52745 0.37510 0.90503
 H697 H 0.48069 0.37729 0.88361
 H698 H 0.50751 0.34936 0.91788
 H699 H 0.48811 0.42706 0.84823
 H700 H 0.60194 0.51832 0.82162
 H701 H 0.67908 0.43895 0.92067
 H702 H 0.56154 0.35043 0.94271
 H703 H 0.63183 0.49145 0.85375
 H704 H 0.65538 0.46685 0.88400
 C705 C 0.86213 0.42184 0.87014
 C706 C 0.88601 0.46287 0.86664
 C707 C 0.91782 0.47841 0.84687
 C708 C 0.92625 0.45373 0.83027
 C709 C 0.90216 0.41318 0.83294
 C710 C 0.87034 0.39730 0.85257
 C711 C 0.82982 0.40658 0.89292
 C712 C 0.80553 0.36645 0.89933
 C713 C 0.77679 0.35392 0.92157
 C714 C 0.77133 0.38099 0.93791
 C715 C 0.79502 0.42095 0.93131
 C716 C 0.82419 0.43388 0.90927
 C717 C 0.87851 0.48820 0.88329
 C718 C 0.84815 0.47402 0.90402
 H719 H 0.89663 0.51957 0.88045
 H720 H 0.84376 0.49489 0.91650
 H721 H 0.93669 0.50982 0.84481
 H722 H 0.90859 0.39383 0.82033
 H723 H 0.75891 0.32290 0.92606
 H724 H 0.79128 0.44229 0.94374
 H725 H 0.85299 0.36588 0.85398
 H726 H 0.80850 0.34429 0.88772
 C727 C 0.56790 0.14038 0.87147
 C728 C 0.58411 0.11593 0.87125
 C729 C 0.56899 0.08353 0.85182
 C730 C 0.53794 0.07505 0.83240
 C731 C 0.52237 0.09958 0.83201
 C732 C 0.53720 0.13199 0.85122
 C733 C 0.58362 0.17349 0.89378
 C734 C 0.56861 0.19861 0.89680
 C735 C 0.58330 0.22803 0.91875
 C736 C 0.61347 0.23337 0.93820
 C737 C 0.62909 0.20895 0.93495
 C738 C 0.61432 0.17909 0.91318
 C739 C 0.61483 0.12346 0.89076
 C740 C 0.62970 0.15444 0.91118
 H741 H 0.62735 0.10487 0.89044
 H742 H 0.65327 0.15881 0.92598
 H743 H 0.58085 0.06432 0.85215
 H744 H 0.49814 0.09310 0.81722
 H745 H 0.57073 0.24647 0.92060
 H746 H 0.65240 0.21265 0.94978
 H747 H 0.52387 0.14968 0.85016
 H748 H 0.54523 0.19579 0.88272
   
