data_POSCAR
  _audit_creation_date              2014-09-24
  _audit_creation_method            'ToBaCCo'
  _symmetry_space_group_name_H-M    'P1'
  _symmetry_Int_Tables_number       1
  _symmetry_cell_setting            triclinic
  loop_
  _symmetry_equiv_pos_as_xyz
 x,y,z
_cell_length_a 44.9313
_cell_length_b 44.9253
_cell_length_c 30.7222
_cell_angle_alpha 89.984500
_cell_angle_beta 89.980300
_cell_angle_gamma 89.635700
loop_
  _atom_site_label
  _atom_site_type_symbol
  _atom_site_fract_x
  _atom_site_fract_y
  _atom_site_fract_z
O1 O -0.03647 0.28750 0.02864
 O2 O 0.02074 0.28410 -0.05806
 O3 O -0.03804 0.28333 -0.05522
 O4 O 0.02224 0.28888 0.02642
 O5 O 0.02318 0.23990 0.03142
 O6 O -0.03638 0.23439 -0.04936
 O7 O 0.02130 0.23520 -0.05265
 O8 O -0.03437 0.23855 0.03413
 Cu9 Cu -0.00792 0.29093 -0.01516
 Cu10 Cu -0.00633 0.23218 -0.00862
 C11 C -0.04549 0.26336 0.04563
 C12 C 0.03104 0.25891 -0.06989
 C13 C -0.04792 0.25780 -0.06541
 C14 C 0.03309 0.26515 0.04267
 O15 O 0.53653 0.77761 0.44465
 O16 O 0.48016 0.78280 0.53225
 O17 O 0.53869 0.78087 0.52895
 O18 O 0.47803 0.77990 0.44747
 O19 O 0.47705 0.73090 0.45153
 O20 O 0.53687 0.73187 0.53256
 O21 O 0.47927 0.73378 0.53591
 O22 O 0.53469 0.72862 0.44863
 Cu23 Cu 0.50842 0.78526 0.48792
 Cu24 Cu 0.50677 0.72644 0.49253
 C25 C 0.54550 0.75210 0.43213
 C26 C 0.47003 0.75901 0.54893
 C27 C 0.54832 0.75635 0.54429
 C28 C 0.46711 0.75512 0.43577
 O29 O 1.03785 0.71641 0.03223
 O30 O 0.98143 0.71609 -0.05560
 O31 O 1.04009 0.71901 -0.05157
 O32 O 0.97917 0.71311 0.02916
 O33 O 0.97667 0.76212 0.03203
 O34 O 1.03665 0.76791 -0.04807
 O35 O 0.97906 0.76510 -0.05227
 O36 O 1.03418 0.76530 0.03538
 Cu37 Cu 1.00979 0.71118 -0.01181
 Cu38 Cu 1.00621 0.76993 -0.00794
 C39 C 1.04620 0.74116 0.04810
 C40 C 0.97050 0.74070 -0.06868
 C41 C 1.04933 0.74463 -0.06273
 C42 C 0.96746 0.73680 0.04420
 O43 O 0.51988 0.21558 0.53049
 O44 O 0.46338 0.22118 0.44319
 O45 O 0.52189 0.21888 0.44571
 O46 O 0.46135 0.21763 0.52745
 O47 O 0.46324 0.26661 0.53147
 O48 O 0.52286 0.26787 0.45014
 O49 O 0.46524 0.27015 0.44757
 O50 O 0.52081 0.26459 0.53453
 Cu51 Cu 0.49156 0.21335 0.48627
 Cu52 Cu 0.49325 0.27215 0.49134
 C53 C 0.53003 0.23930 0.54733
 C54 C 0.45439 0.24674 0.43093
 C55 C 0.53276 0.24372 0.43412
 C56 C 0.45178 0.24210 0.54304
 O57 O 0.72231 -0.03637 0.05494
 O58 O 0.71862 0.02031 -0.03251
 O59 O 0.71974 -0.03828 -0.02944
 O60 O 0.72056 0.02218 0.05229
 O61 O 0.76960 0.02273 0.04916
 O62 O 0.76880 -0.03711 -0.03184
 O63 O 0.76762 0.02047 -0.03522
 O64 O 0.77134 -0.03490 0.05214
 Cu65 Cu 0.71534 -0.00807 0.01162
 Cu66 Cu 0.77418 -0.00706 0.00829
 C67 C 0.74761 -0.04553 0.06806
 C68 C 0.74268 0.03021 -0.04874
 C69 C 0.74430 -0.04822 -0.04420
 C70 C 0.74533 0.03289 0.06445
 O71 O 0.21404 0.48012 0.55722
 O72 O 0.21230 0.53676 0.46973
 O73 O 0.21063 0.47806 0.47259
 O74 O 0.21547 0.53885 0.55365
 O75 O 0.26446 0.53664 0.54950
 O76 O 0.25966 0.47685 0.46894
 O77 O 0.26131 0.53444 0.46590
 O78 O 0.26305 0.47893 0.55313
 Cu79 Cu 0.20813 0.50852 0.51375
 Cu80 Cu 0.26696 0.50645 0.50902
 C81 C 0.23897 0.46967 0.56977
 C82 C 0.23673 0.54562 0.45349
 C83 C 0.23451 0.46700 0.45711
 C84 C 0.24093 0.54851 0.56464
 O85 O 0.27640 1.03792 0.05649
 O86 O 0.28268 0.98115 -0.03051
 O87 O 0.27978 1.03970 -0.02771
 O88 O 0.27976 0.97936 0.05441
 O89 O 0.23081 0.97753 0.05022
 O90 O 0.23089 1.03709 -0.03120
 O91 O 0.23370 0.97952 -0.03426
 O92 O 0.22753 1.03509 0.05260
 Cu93 Cu 0.28461 1.00965 0.01359
 Cu94 Cu 0.22591 1.00699 0.00895
 C95 C 0.25074 1.04659 0.06893
 C96 C 0.25908 0.97065 -0.04720
 C97 C 0.25513 1.04906 -0.04303
 C98 C 0.25515 0.96810 0.06620
 O99 O 0.78588 0.51914 0.55691
 O100 O 0.78722 0.46300 0.46881
 O101 O 0.78919 0.52164 0.47226
 O102 O 0.78420 0.46046 0.55267
 O103 O 0.73521 0.46288 0.54874
 O104 O 0.74016 0.52308 0.46885
 O105 O 0.73821 0.46555 0.46521
 O106 O 0.73687 0.52054 0.55306
 Cu107 Cu 0.79161 0.49098 0.51310
 Cu108 Cu 0.73276 0.49332 0.50865
 C109 C 0.76101 0.52958 0.56973
 C110 C 0.76273 0.45433 0.45258
 C111 C 0.76533 0.53285 0.45696
 C112 C 0.75872 0.45083 0.56362
 C113 C 0.19612 0.21615 0.17746
 C114 C 0.22125 0.20385 0.19715
 C115 C 0.23788 0.22076 0.22651
 C116 C 0.23035 0.25090 0.23491
 C117 C 0.20499 0.26306 0.21384
 C118 C 0.18771 0.24549 0.18605
 C119 C 0.24893 0.26939 0.26514
 C120 C 0.23691 0.29480 0.28631
 C121 C 0.25460 0.31200 0.31406
 C122 C 0.28393 0.30347 0.32249
 C123 C 0.29608 0.27829 0.30269
 C124 C 0.27905 0.26176 0.27338
 H125 H 0.18302 0.20280 0.15521
 H126 H 0.25646 0.21005 0.24260
 H127 H 0.19857 0.28609 0.21835
 H128 H 0.21390 0.30130 0.28192
 H129 H 0.29738 0.31648 0.34472
 H130 H 0.28965 0.24315 0.25720
 C131 C 0.80306 0.78412 0.17726
 C132 C 0.77776 0.79615 0.19687
 C133 C 0.76129 0.77909 0.22624
 C134 C 0.76909 0.74903 0.23470
 C135 C 0.79463 0.73713 0.21373
 C136 C 0.81178 0.75488 0.18596
 C137 C 0.75063 0.73040 0.26495
 C138 C 0.76282 0.70507 0.28610
 C139 C 0.74525 0.68779 0.31396
 C140 C 0.71590 0.69619 0.32254
 C141 C 0.70359 0.72128 0.30274
 C142 C 0.72048 0.73787 0.27329
 H143 H 0.81605 0.79761 0.15503
 H144 H 0.74261 0.78964 0.24230
 H145 H 0.80130 0.71418 0.21832
 H146 H 0.78584 0.69867 0.28162
 H147 H 0.70256 0.68312 0.34487
 H148 H 0.70973 0.75640 0.25712
 C149 C 0.79116 0.20585 0.17314
 C150 C 0.79905 0.23507 0.18270
 C151 C 0.78146 0.25210 0.21097
 C152 C 0.75647 0.23950 0.23205
 C153 C 0.74928 0.20955 0.22248
 C154 C 0.76617 0.19318 0.19243
 C155 C 0.73829 0.25743 0.26381
 C156 C 0.70847 0.24976 0.27358
 C157 C 0.69193 0.26637 0.30379
 C158 C 0.70428 0.29153 0.32301
 C159 C 0.73334 0.29987 0.31327
 C160 C 0.75054 0.28259 0.28484
 H161 H 0.80458 0.19288 0.15062
 H162 H 0.78753 0.27508 0.21596
 H163 H 0.73089 0.19855 0.23830
 H164 H 0.69773 0.23120 0.25783
 H165 H 0.69119 0.30471 0.34571
 H166 H 0.77342 0.28899 0.27976
 C167 C 0.20856 0.79686 0.17749
 C168 C 0.20008 0.76780 0.18692
 C169 C 0.21744 0.75027 0.21485
 C170 C 0.24285 0.76223 0.23568
 C171 C 0.25060 0.79209 0.22625
 C172 C 0.23391 0.80892 0.19652
 C173 C 0.26095 0.74374 0.26690
 C174 C 0.29090 0.75096 0.27653
 C175 C 0.30738 0.73391 0.30626
 C176 C 0.29484 0.70871 0.32511
 C177 C 0.26567 0.70075 0.31547
 C178 C 0.24852 0.71848 0.28754
 H179 H 0.19533 0.81019 0.15515
 H180 H 0.21091 0.72740 0.21967
 H181 H 0.26931 0.80265 0.24187
 H182 H 0.30182 0.76954 0.26106
 H183 H 0.30789 0.69519 0.34744
 H184 H 0.22556 0.71235 0.28255
 C185 C 0.69591 0.28041 0.67321
 C186 C 0.68392 0.25445 0.69056
 C187 C 0.70028 0.23756 0.72072
 C188 C 0.72970 0.24578 0.73230
 C189 C 0.74162 0.27169 0.71264
 C190 C 0.72449 0.28924 0.68453
 C191 C 0.74782 0.22785 0.76450
 C192 C 0.77371 0.24000 0.78388
 C193 C 0.79141 0.22307 0.81204
 C194 C 0.78276 0.19449 0.82367
 C195 C 0.75684 0.18228 0.80661
 C196 C 0.73978 0.19843 0.77641
 H197 H 0.68289 0.29385 0.65075
 H198 H 0.68962 0.21840 0.73487
 H199 H 0.76419 0.27871 0.71845
 H200 H 0.78059 0.26258 0.77784
 H201 H 0.79632 0.18164 0.84620
 H202 H 0.72063 0.18760 0.76250
 C203 C 0.30394 0.71794 0.67566
 C204 C 0.31619 0.74382 0.69283
 C205 C 0.30005 0.76089 0.72303
 C206 C 0.27059 0.75294 0.73486
 C207 C 0.25842 0.72705 0.71546
 C208 C 0.27533 0.70934 0.68725
 C209 C 0.25270 0.77116 0.76702
 C210 C 0.22666 0.75942 0.78655
 C211 C 0.20927 0.77664 0.81478
 C212 C 0.21834 0.80512 0.82625
 C213 C 0.24438 0.81695 0.80897
 C214 C 0.26114 0.80051 0.77874
 H215 H 0.31678 0.70440 0.65312
 H216 H 0.31092 0.77998 0.73699
 H217 H 0.23583 0.72019 0.72152
 H218 H 0.21943 0.73694 0.78059
 H219 H 0.20503 0.81818 0.84881
 H220 H 0.28038 0.81108 0.76466
 C221 C 0.28894 0.29793 0.67736
 C222 C 0.26389 0.31030 0.69728
 C223 C 0.24707 0.29330 0.72633
 C224 C 0.25439 0.26307 0.73427
 C225 C 0.27960 0.25083 0.71296
 C226 C 0.29704 0.26843 0.68543
 C227 C 0.23581 0.24453 0.76437
 C228 C 0.24802 0.21931 0.78576
 C229 C 0.23039 0.20194 0.81333
 C230 C 0.20092 0.21010 0.82134
 C231 C 0.18857 0.23513 0.80137
 C232 C 0.20559 0.25191 0.77228
 H233 H 0.30218 0.31133 0.65534
 H234 H 0.22852 0.30396 0.74259
 H235 H 0.28577 0.22770 0.71711
 H236 H 0.27115 0.21312 0.78167
 H237 H 0.18750 0.19692 0.84342
 H238 H 0.19494 0.27046 0.75599
 C239 C 0.71125 0.70062 0.67855
 C240 C 0.73632 0.68828 0.69842
 C241 C 0.75317 0.70531 0.72734
 C242 C 0.74590 0.73555 0.73518
 C243 C 0.72065 0.74777 0.71390
 C244 C 0.70316 0.73013 0.68652
 C245 C 0.76454 0.75412 0.76513
 C246 C 0.75243 0.77945 0.78630
 C247 C 0.77011 0.79686 0.81372
 C248 C 0.79954 0.78862 0.82185
 C249 C 0.81180 0.76346 0.80210
 C250 C 0.79473 0.74666 0.77312
 H251 H 0.69798 0.68719 0.65662
 H252 H 0.77174 0.69465 0.74357
 H253 H 0.71451 0.77091 0.71794
 H254 H 0.72933 0.78573 0.78215
 H255 H 0.81300 0.80184 0.84381
 H256 H 0.80533 0.72803 0.75697
 C257 C 0.24045 0.12087 0.15174
 C258 C 0.26905 0.11103 0.14040
 C259 C 0.27273 0.08549 0.11471
 C260 C 0.24773 0.06975 0.09944
 C261 C 0.21918 0.07916 0.11302
 C262 C 0.21565 0.10446 0.13884
 C263 C 0.23581 0.14953 0.17163
 C264 C 0.23009 0.17410 0.18512
 H265 H 0.28840 0.12371 0.14994
 H266 H 0.29505 0.07895 0.10522
 H267 H 0.19935 0.06762 0.10248
 H268 H 0.19340 0.11196 0.14721
 C269 C 0.75470 0.60468 0.65499
 C270 C 0.72993 0.58663 0.64795
 C271 C 0.73242 0.56123 0.62205
 C272 C 0.75979 0.55349 0.60277
 C273 C 0.78503 0.57075 0.61208
 C274 C 0.78243 0.59636 0.63785
 C275 C 0.75034 0.63358 0.67417
 C276 C 0.74485 0.65835 0.68707
 H277 H 0.70832 0.59298 0.66071
 H278 H 0.71262 0.54832 0.61569
 H279 H 0.80636 0.56540 0.59754
 H280 H 0.80168 0.61037 0.64268
 C281 C 0.75699 0.87902 0.15229
 C282 C 0.78105 0.89801 0.14526
 C283 C 0.77755 0.92345 0.11964
 C284 C 0.74986 0.93028 0.10061
 C285 C 0.72534 0.91198 0.10980
 C286 C 0.72895 0.88636 0.13531
 C287 C 0.76236 0.85032 0.17165
 C288 C 0.76856 0.82579 0.18489
 H289 H 0.80290 0.89244 0.15791
 H290 H 0.79683 0.93715 0.11337
 H291 H 0.70378 0.91661 0.09546
 H292 H 0.71024 0.87164 0.14017
 C293 C 0.24555 0.39402 0.65406
 C294 C 0.27034 0.41203 0.64688
 C295 C 0.26778 0.43759 0.62129
 C296 C 0.24032 0.44552 0.60247
 C297 C 0.21509 0.42826 0.61188
 C298 C 0.21776 0.40250 0.63734
 C299 C 0.24991 0.36505 0.67309
 C300 C 0.25538 0.34025 0.68593
 H301 H 0.29200 0.40556 0.65932
 H302 H 0.28758 0.45049 0.61485
 H303 H 0.19369 0.43375 0.59769
 H304 H 0.19849 0.38853 0.64229
 C305 C 0.87769 0.25875 0.12750
 C306 C 0.88320 0.28479 0.10381
 C307 C 0.90928 0.28725 0.07905
 C308 C 0.92982 0.26349 0.07741
 C309 C 0.92468 0.23808 0.10297
 C310 C 0.89884 0.23578 0.12784
 C311 C 0.84938 0.25368 0.14798
 C312 C 0.82604 0.24663 0.16421
 H313 H 0.86687 0.30263 0.10312
 H314 H 0.91259 0.30699 0.05943
 H315 H 0.94012 0.21947 0.10250
 H316 H 0.89477 0.21550 0.14593
 C317 C 0.39732 0.75964 0.63939
 C318 C 0.40483 0.78585 0.61732
 C319 C 0.42949 0.78623 0.58936
 C320 C 0.44659 0.76026 0.58277
 C321 C 0.43958 0.73449 0.60656
 C322 C 0.41516 0.73423 0.63463
 C323 C 0.36933 0.75706 0.66188
 C324 C 0.34529 0.75238 0.67786
 H325 H 0.39096 0.80555 0.62032
 H326 H 0.43431 0.80638 0.57139
 H327 H 0.45239 0.71419 0.60243
 H328 H 0.40941 0.71374 0.65116
 C329 C 0.12142 0.74682 0.12970
 C330 C 0.10412 0.77208 0.12105
 C331 C 0.07855 0.76992 0.09564
 C332 C 0.06971 0.74232 0.07824
 C333 C 0.08644 0.71666 0.08908
 C334 C 0.11230 0.71898 0.11440
 C335 C 0.14951 0.75068 0.15136
 C336 C 0.17288 0.75691 0.16820
 H337 H 0.11096 0.79374 0.13276
 H338 H 0.06627 0.79019 0.08857
 H339 H 0.08038 0.69502 0.07648
 H340 H 0.12558 0.69927 0.12090
 C341 C 0.60274 0.23833 0.63769
 C342 C 0.59536 0.21225 0.61524
 C343 C 0.57069 0.21195 0.58731
 C344 C 0.55347 0.23790 0.58114
 C345 C 0.56036 0.26352 0.60531
 C346 C 0.58478 0.26369 0.63335
 C347 C 0.63077 0.24093 0.66004
 C348 C 0.65483 0.24570 0.67586
 H349 H 0.60933 0.19260 0.61789
 H350 H 0.56596 0.19193 0.56903
 H351 H 0.54745 0.28379 0.60150
 H352 H 0.59043 0.28409 0.65017
 C353 C 0.74243 0.10146 0.86149
 C354 C 0.76899 0.08688 0.87220
 C355 C 0.76889 0.06274 0.90072
 C356 C 0.74207 0.05259 0.91920
 C357 C 0.71518 0.06648 0.90647
 C358 C 0.71542 0.09095 0.87809
 C359 C 0.74408 0.12922 0.83821
 C360 C 0.74834 0.15320 0.82178
 H361 H 0.79005 0.09495 0.85985
 H362 H 0.79007 0.05262 0.90915
 H363 H 0.69408 0.05931 0.91977
 H364 H 0.69473 0.10227 0.87035
 C365 C 0.24225 0.62208 0.37091
 C366 C 0.26563 0.60142 0.37234
 C367 C 0.26314 0.57571 0.39747
 C368 C 0.23713 0.57021 0.42152
 C369 C 0.21305 0.59028 0.41814
 C370 C 0.21569 0.61623 0.39312
 C371 C 0.24727 0.65031 0.35014
 C372 C 0.25421 0.67366 0.33383
 H373 H 0.28632 0.60576 0.35541
 H374 H 0.28201 0.56063 0.39928
 H375 H 0.19283 0.58671 0.43655
 H376 H 0.19752 0.63219 0.39244
 C377 C 0.26058 0.89800 0.86226
 C378 C 0.23516 0.91590 0.86647
 C379 C 0.23517 0.94029 0.89458
 C380 C 0.26069 0.94723 0.91896
 C381 C 0.28670 0.93009 0.91292
 C382 C 0.28655 0.90543 0.88493
 C383 C 0.25809 0.87000 0.83977
 C384 C 0.25330 0.84597 0.82381
 H385 H 0.21484 0.91022 0.84949
 H386 H 0.21486 0.95315 0.89827
 H387 H 0.30664 0.93485 0.93136
 H388 H 0.30625 0.89151 0.88238
 C389 C 0.75672 0.37827 0.36943
 C390 C 0.73341 0.39901 0.37118
 C391 C 0.73606 0.42461 0.39647
 C392 C 0.76216 0.42991 0.42039
 C393 C 0.78616 0.40978 0.41669
 C394 C 0.78336 0.38395 0.39149
 C395 C 0.75158 0.35016 0.34846
 C396 C 0.74464 0.32689 0.33196
 H397 H 0.71266 0.39480 0.35435
 H398 H 0.71725 0.43974 0.39853
 H399 H 0.80645 0.41321 0.43499
 H400 H 0.80148 0.36794 0.39054
 C401 C 0.10510 0.25205 0.84620
 C402 C 0.09384 0.28019 0.85722
 C403 C 0.06830 0.28269 0.88325
 C404 C 0.05409 0.25698 0.89923
 C405 C 0.06490 0.22887 0.88594
 C406 C 0.09013 0.22651 0.85973
 C407 C 0.13388 0.24864 0.82622
 C408 C 0.15864 0.24359 0.81288
 H409 H 0.10542 0.30012 0.84720
 H410 H 0.06064 0.30470 0.89251
 H411 H 0.05454 0.20851 0.89698
 H412 H 0.09874 0.20461 0.85162
 C413 C 0.62074 0.74173 0.34768
 C414 C 0.61313 0.77003 0.36343
 C415 C 0.58761 0.77389 0.38906
 C416 C 0.56965 0.74936 0.39959
 C417 C 0.57675 0.72134 0.38183
 C418 C 0.60210 0.71759 0.35610
 C419 C 0.64937 0.73634 0.32812
 C420 C 0.67389 0.73025 0.31478
 H421 H 0.62757 0.78882 0.35749
 H422 H 0.58277 0.79571 0.40237
 H423 H 0.56333 0.70204 0.38915
 H424 H 0.60789 0.69554 0.34441
 C425 C 0.89539 0.74547 0.84587
 C426 C 0.90383 0.71802 0.86383
 C427 C 0.92946 0.71588 0.88966
 C428 C 0.94659 0.74132 0.89824
 C429 C 0.93873 0.76839 0.87818
 C430 C 0.91334 0.77042 0.85220
 C431 C 0.86647 0.74950 0.82658
 C432 C 0.84170 0.75487 0.81356
 H433 H 0.88991 0.69864 0.85956
 H434 H 0.93490 0.69478 0.90483
 H435 H 0.95156 0.78834 0.88396
 H436 H 0.90690 0.79183 0.83882
 C437 C 0.37898 0.25751 0.34702
 C438 C 0.38658 0.22914 0.36253
 C439 C 0.41216 0.22516 0.38797
 C440 C 0.43018 0.24963 0.39854
 C441 C 0.42308 0.27772 0.38101
 C442 C 0.39767 0.28160 0.35547
 C443 C 0.35031 0.26302 0.32769
 C444 C 0.32577 0.26921 0.31453
 H445 H 0.37209 0.21040 0.35657
 H446 H 0.41699 0.20329 0.40112
 H447 H 0.43656 0.29697 0.38838
 H448 H 0.39189 0.30369 0.34396
 C449 C 0.74879 0.87480 0.87355
 C450 C 0.72186 0.88232 0.89387
 C451 C 0.71985 0.90815 0.91934
 C452 C 0.74487 0.92646 0.92503
 C453 C 0.77146 0.91912 0.90328
 C454 C 0.77335 0.89354 0.87776
 C455 C 0.75270 0.84690 0.85121
 C456 C 0.75900 0.82376 0.83351
 H457 H 0.70276 0.86786 0.89103
 H458 H 0.69912 0.91319 0.93585
 H459 H 0.79108 0.93279 0.90681
 H460 H 0.79433 0.88788 0.86231
 C461 C 0.23503 0.39028 0.37407
 C462 C 0.20889 0.39817 0.39624
 C463 C 0.20809 0.42398 0.42196
 C464 C 0.23357 0.44185 0.42606
 C465 C 0.25930 0.43417 0.40244
 C466 C 0.25997 0.40866 0.37666
 C467 C 0.23797 0.36228 0.35165
 C468 C 0.24374 0.33902 0.33386
 H469 H 0.18951 0.38399 0.39471
 H470 H 0.18801 0.42928 0.43994
 H471 H 0.27922 0.44752 0.40471
 H472 H 0.28035 0.40273 0.35981
 C473 C 0.25077 0.12464 0.87535
 C474 C 0.27842 0.11471 0.89079
 C475 C 0.28021 0.08904 0.91670
 C476 C 0.25424 0.07322 0.92786
 C477 C 0.22675 0.08310 0.91088
 C478 C 0.22512 0.10850 0.88495
 C479 C 0.24754 0.15224 0.85198
 C480 C 0.24152 0.17521 0.83361
 H481 H 0.29843 0.12711 0.88362
 H482 H 0.30178 0.08217 0.92900
 H483 H 0.20624 0.07161 0.91828
 H484 H 0.20359 0.11600 0.87322
 C485 C 0.76499 0.60959 0.37395
 C486 C 0.79110 0.60167 0.39617
 C487 C 0.79184 0.57587 0.42190
 C488 C 0.76633 0.55804 0.42599
 C489 C 0.74063 0.56574 0.40234
 C490 C 0.74003 0.59125 0.37653
 C491 C 0.76208 0.63759 0.35152
 C492 C 0.75625 0.66083 0.33373
 H493 H 0.81050 0.61583 0.39464
 H494 H 0.81189 0.57053 0.43990
 H495 H 0.72069 0.55241 0.40458
 H496 H 0.71966 0.59720 0.35965
 C497 C 0.12856 0.75477 0.86521
 C498 C 0.11128 0.77960 0.87623
 C499 C 0.08451 0.77612 0.89849
 C500 C 0.07444 0.74757 0.91032
 C501 C 0.09135 0.72253 0.89727
 C502 C 0.11836 0.72616 0.87507
 C503 C 0.15739 0.75947 0.84616
 C504 C 0.18134 0.76596 0.83139
 H505 H 0.11894 0.80184 0.86866
 H506 H 0.07218 0.79599 0.90749
 H507 H 0.08438 0.70021 0.90561
 H508 H 0.13160 0.70677 0.86663
 C509 C 0.60924 0.24910 0.35100
 C510 C 0.59183 0.27439 0.35918
 C511 C 0.56631 0.27234 0.38485
 C512 C 0.55775 0.24488 0.40277
 C513 C 0.57458 0.21924 0.39278
 C514 C 0.60033 0.22140 0.36723
 C515 C 0.63789 0.25272 0.33076
 C516 C 0.66237 0.25785 0.31667
 H517 H 0.59864 0.29598 0.34714
 H518 H 0.55375 0.29246 0.39170
 H519 H 0.56859 0.19781 0.40621
 H520 H 0.61383 0.20172 0.36150
 C521 C 0.87200 0.24683 0.86103
 C522 C 0.89155 0.22284 0.86699
 C523 C 0.91831 0.22681 0.88913
 C524 C 0.92598 0.25492 0.90563
 C525 C 0.90687 0.27929 0.89779
 C526 C 0.87989 0.27520 0.87575
 C527 C 0.84313 0.24124 0.84268
 C528 C 0.81922 0.23420 0.82834
 H529 H 0.88565 0.20078 0.85577
 H530 H 0.93258 0.20763 0.89450
 H531 H 0.91211 0.30115 0.91036
 H532 H 0.86485 0.29391 0.87141
 C533 C 0.39032 0.75027 0.35322
 C534 C 0.40754 0.72484 0.36138
 C535 C 0.43316 0.72671 0.38685
 C536 C 0.44201 0.75411 0.40461
 C537 C 0.42535 0.77987 0.39467
 C538 C 0.39951 0.77791 0.36930
 C539 C 0.36161 0.74690 0.33311
 C540 C 0.33706 0.74204 0.31910
 H541 H 0.40052 0.70330 0.34945
 H542 H 0.44556 0.70649 0.39369
 H543 H 0.43156 0.80127 0.40797
 H544 H 0.38617 0.79770 0.36359
 C545 C 0.25095 0.89175 0.14972
 C546 C 0.27844 0.90072 0.13283
 C547 C 0.28024 0.92647 0.10718
 C548 C 0.25445 0.94320 0.09774
 C549 C 0.22723 0.93460 0.11635
 C550 C 0.22553 0.90910 0.14212
 C551 C 0.24756 0.86305 0.16989
 C552 C 0.24249 0.83852 0.18387
 H553 H 0.29820 0.88727 0.13809
 H554 H 0.30149 0.93250 0.09320
 H555 H 0.20700 0.94709 0.10993
 H556 H 0.20409 0.90224 0.15467
 C557 C 0.74795 0.37007 0.63580
 C558 C 0.72408 0.38990 0.63095
 C559 C 0.72801 0.41685 0.60925
 C560 C 0.75597 0.42443 0.59208
 C561 C 0.78024 0.40500 0.59877
 C562 C 0.77619 0.37784 0.62039
 C563 C 0.74237 0.34109 0.65388
 C564 C 0.73542 0.31713 0.66813
 H565 H 0.70213 0.38410 0.64273
 H566 H 0.70891 0.43135 0.60476
 H567 H 0.80198 0.41016 0.58567
 H568 H 0.79481 0.36259 0.62388
 C569 C 0.74999 0.10994 0.14644
 C570 C 0.72242 0.10080 0.13009
 C571 C 0.72050 0.07486 0.10495
 C572 C 0.74625 0.05805 0.09551
 C573 C 0.77357 0.06683 0.11359
 C574 C 0.77539 0.09256 0.13884
 C575 C 0.75336 0.13877 0.16619
 C576 C 0.75816 0.16341 0.17989
 H577 H 0.70267 0.11427 0.13538
 H578 H 0.69917 0.06871 0.09139
 H579 H 0.79377 0.05430 0.10714
 H580 H 0.79688 0.09955 0.15099
 C581 C 0.25154 0.62877 0.63804
 C582 C 0.22332 0.62109 0.62245
 C583 C 0.21933 0.59408 0.60042
 C584 C 0.24362 0.57471 0.59347
 C585 C 0.27155 0.58219 0.61082
 C586 C 0.27543 0.60898 0.63293
 C587 C 0.25711 0.65765 0.65644
 C588 C 0.26416 0.68154 0.67086
 H589 H 0.20470 0.63631 0.62611
 H590 H 0.19761 0.58900 0.58720
 H591 H 0.29067 0.56774 0.60615
 H592 H 0.29736 0.61471 0.64482
 C593 C 0.89053 0.73611 0.12680
 C594 C 0.89891 0.71007 0.10475
 C595 C 0.92482 0.70966 0.07922
 C596 C 0.94227 0.73544 0.07516
 C597 C 0.93412 0.76105 0.09867
 C598 C 0.90851 0.76133 0.12429
 C599 C 0.86238 0.73866 0.14893
 C600 C 0.83898 0.74420 0.16647
 H601 H 0.88503 0.69047 0.10622
 H602 H 0.93050 0.68966 0.06130
 H603 H 0.94715 0.78120 0.09644
 H604 H 0.90220 0.78164 0.14104
 C605 C 0.37482 0.24663 0.62541
 C606 C 0.39411 0.27083 0.62226
 C607 C 0.41969 0.26888 0.59671
 C608 C 0.42647 0.24258 0.57388
 C609 C 0.40763 0.21785 0.57852
 C610 C 0.38180 0.21994 0.60402
 C611 C 0.34694 0.25074 0.64775
 C612 C 0.32385 0.25718 0.66551
 H613 H 0.38889 0.29162 0.63853
 H614 H 0.43379 0.28826 0.59400
 H615 H 0.41223 0.19736 0.56117
 H616 H 0.36691 0.20112 0.60603
 C617 C 0.10946 0.26525 0.12626
 C618 C 0.09079 0.24050 0.12454
 C619 C 0.06536 0.24100 0.09859
 C620 C 0.05808 0.26638 0.07393
 C621 C 0.07621 0.29173 0.07720
 C622 C 0.10194 0.29109 0.10308
 C623 C 0.13746 0.26231 0.14864
 C624 C 0.16072 0.25648 0.16637
 H625 H 0.09645 0.22034 0.14216
 H626 H 0.05179 0.22119 0.09698
 H627 H 0.07120 0.31153 0.05841
 H628 H 0.11636 0.31030 0.10391
 C629 C 0.62537 0.75176 0.62646
 C630 C 0.61817 0.77856 0.60552
 C631 C 0.59233 0.78063 0.58006
 C632 C 0.57369 0.75579 0.57500
 C633 C 0.58071 0.72935 0.59735
 C634 C 0.60630 0.72741 0.62286
 C635 C 0.65324 0.74773 0.64883
 C636 C 0.67634 0.74135 0.66661
 H637 H 0.63287 0.79750 0.60787
 H638 H 0.58754 0.80124 0.56309
 H639 H 0.56678 0.70988 0.59432
 H640 H 0.61170 0.70653 0.63878
   
