data_POSCAR
  _audit_creation_date              2014-09-24
  _audit_creation_method            'ToBaCCo'
  _symmetry_space_group_name_H-M    'P1'
  _symmetry_Int_Tables_number       1
  _symmetry_cell_setting            triclinic
  loop_
  _symmetry_equiv_pos_as_xyz
 x,y,z
_cell_length_a 36.1304
_cell_length_b 35.7827
_cell_length_c 35.5295
_cell_angle_alpha 89.960400
_cell_angle_beta 90.400100
_cell_angle_gamma 90.416400
loop_
  _atom_site_label
  _atom_site_type_symbol
  _atom_site_fract_x
  _atom_site_fract_y
  _atom_site_fract_z
N1 N 0.14361 0.16500 0.24016
 N2 N 0.16590 0.13655 0.23572
 C3 C 0.15973 0.11138 0.26315
 C4 C 0.13252 0.12494 0.28683
 C5 C 0.12233 0.15879 0.27060
 H6 H 0.17316 0.08454 0.26495
 H7 H 0.10198 0.17820 0.28095
 Cu8 Cu 0.20149 0.13563 0.19496
 Cu9 Cu 0.14612 0.20879 0.20722
 Cu10 Cu 0.19480 0.19627 0.12379
 N11 N 0.23794 0.13701 0.15501
 N12 N 0.23559 0.16095 0.12706
 C13 C 0.26242 0.15369 0.10193
 C14 C 0.28189 0.12259 0.11425
 C15 C 0.26619 0.11374 0.14868
 H16 H 0.26587 0.16836 0.07554
 H17 H 0.27474 0.09189 0.16780
 N18 N 0.16052 0.23804 0.13189
 N19 N 0.14277 0.24325 0.16382
 C20 C 0.12085 0.27330 0.16019
 C21 C 0.12453 0.28727 0.12407
 C22 C 0.15036 0.26467 0.10713
 H23 H 0.10262 0.28362 0.18178
 H24 H 0.16009 0.26684 0.07849
 H25 H 0.15646 0.17497 0.16273
 H26 H 0.19725 0.20207 0.18044
 N27 N -0.14576 0.82419 0.24762
 N28 N -0.16424 0.85525 0.24210
 C29 C -0.15415 0.88044 0.26835
 C30 C -0.12886 0.86396 0.29246
 C31 C -0.12368 0.82838 0.27812
 H32 H -0.16512 0.90840 0.27048
 H33 H -0.10584 0.80693 0.28948
 Cu34 Cu -0.20315 0.85801 0.20429
 Cu35 Cu -0.15338 0.78070 0.21501
 Cu36 Cu -0.20023 0.79994 0.13118
 N37 N -0.23973 0.86054 0.16418
 N38 N -0.24045 0.83599 0.13668
 C39 C -0.26895 0.84394 0.11328
 C40 C -0.28588 0.87622 0.12612
 C41 C -0.26692 0.88541 0.15885
 H42 H -0.27521 0.82899 0.08752
 H43 H -0.27280 0.90841 0.17756
 N44 N -0.16583 0.75761 0.13706
 N45 N -0.15030 0.74890 0.16963
 C46 C -0.12854 0.71894 0.16479
 C47 C -0.12891 0.70923 0.12701
 C48 C -0.15359 0.73394 0.11050
 H49 H -0.11288 0.70577 0.18712
 H50 H -0.16132 0.73514 0.08107
 H51 H -0.16097 0.81726 0.17151
 H52 H -0.20349 0.79180 0.18691
 N53 N -0.15682 0.17835 -0.26050
 N54 N -0.18050 0.15028 -0.25992
 C55 C -0.17100 0.12538 -0.28663
 C56 C -0.13996 0.13892 -0.30517
 C57 C -0.13148 0.17229 -0.28727
 H58 H -0.18557 0.09945 -0.29222
 H59 H -0.10831 0.19070 -0.29299
 Cu60 Cu -0.22113 0.14927 -0.22375
 Cu61 Cu -0.16097 0.22101 -0.22683
 Cu62 Cu -0.20213 0.19579 -0.14334
 N63 N -0.25207 0.14361 -0.17921
 N64 N -0.24259 0.16007 -0.14747
 C65 C -0.26461 0.14780 -0.11980
 C66 C -0.28955 0.12222 -0.13476
 C67 C -0.28154 0.12106 -0.17294
 H68 H -0.26286 0.15716 -0.09088
 H69 H -0.29437 0.10316 -0.19388
 N70 N -0.17137 0.24110 -0.14878
 N71 N -0.15660 0.25139 -0.18106
 C72 C -0.13677 0.28296 -0.17580
 C73 C -0.13960 0.29312 -0.13845
 C74 C -0.16149 0.26597 -0.12203
 H75 H -0.11994 0.29639 -0.19700
 H76 H -0.16850 0.26379 -0.09256
 H77 H -0.17090 0.18023 -0.18937
 H78 H -0.21122 0.21176 -0.19759
 N79 N 0.15002 0.83241 -0.24276
 N80 N 0.16771 0.86368 -0.23487
 C81 C 0.15544 0.89091 -0.25792
 C82 C 0.12843 0.87595 -0.28149
 C83 C 0.12655 0.83844 -0.27165
 H84 H 0.16530 0.91952 -0.25756
 H85 H 0.10931 0.81702 -0.28441
 Cu86 Cu 0.20616 0.86500 -0.19629
 Cu87 Cu 0.15786 0.78664 -0.21388
 Cu88 Cu 0.20652 0.79844 -0.13017
 N89 N 0.24800 0.85908 -0.16204
 N90 N 0.24783 0.83319 -0.13584
 C91 C 0.27893 0.83617 -0.11503
 C92 C 0.30052 0.86509 -0.12943
 C93 C 0.27939 0.87931 -0.15899
 H94 H 0.28416 0.81978 -0.09000
 H95 H 0.28637 0.90248 -0.17722
 N96 N 0.17395 0.75529 -0.13968
 N97 N 0.15633 0.75016 -0.17198
 C98 C 0.13442 0.71970 -0.16898
 C99 C 0.13854 0.70513 -0.13311
 C100 C 0.16400 0.72818 -0.11539
 H101 H 0.11496 0.71033 -0.19030
 H102 H 0.17289 0.72660 -0.08630
 H103 H 0.16527 0.81875 -0.16723
 H104 H 0.20809 0.79742 -0.18656
 N105 N 0.17600 1.14769 0.75419
 N106 N 0.14802 1.17087 0.75582
 C107 C 0.12464 1.16369 0.72700
 C108 C 0.13900 1.13470 0.70591
 C109 C 0.17135 1.12487 0.72449
 H110 H 0.09894 1.17821 0.72187
 H111 H 0.18981 1.10229 0.71746
 Cu112 Cu 0.14454 1.20677 0.79664
 Cu113 Cu 0.21687 1.14977 0.79016
 Cu114 Cu 0.19338 1.19050 0.87524
 N115 N 0.14587 1.24269 0.83767
 N116 N 0.16284 1.23487 0.86951
 C117 C 0.15598 1.26201 0.89465
 C118 C 0.13476 1.28920 0.87717
 C119 C 0.12855 1.27564 0.84109
 H120 H 0.16523 1.26146 0.92366
 H121 H 0.11189 1.28840 0.81926
 N122 N 0.23685 1.15811 0.86897
 N123 N 0.24665 1.14409 0.83620
 C124 C 0.27899 1.12613 0.84031
 C125 C 0.29046 1.12952 0.87733
 C126 C 0.26277 1.14942 0.89489
 H127 H 0.29339 1.11192 0.81796
 H128 H 0.26184 1.15748 0.92420
 H129 H 0.17766 1.15671 0.82939
 H130 H 0.20709 1.19888 0.82067
 N131 N 0.83946 0.87297 0.76725
 N132 N 0.86769 0.85001 0.76836
 C133 C 0.88938 0.85661 0.73836
 C134 C 0.87335 0.88472 0.71723
 C135 C 0.84204 0.89477 0.73658
 H136 H 0.91481 0.84209 0.73228
 H137 H 0.82298 0.91680 0.72917
 Cu138 Cu 0.87333 0.81340 0.80845
 Cu139 Cu 0.80227 0.87422 0.80607
 Cu140 Cu 0.80449 0.80338 0.87166
 N141 N 0.86888 0.76931 0.84017
 N142 N 0.84173 0.76542 0.86432
 C143 C 0.84504 0.73244 0.88207
 C144 C 0.87573 0.71445 0.86818
 C145 C 0.89061 0.73893 0.84201
 H146 H 0.82668 0.72232 0.90378
 H147 H 0.91572 0.73523 0.82607
 N148 N 0.76891 0.84448 0.87361
 N149 N 0.76726 0.87086 0.84774
 C150 C 0.73841 0.89321 0.85503
 C151 C 0.72090 0.87998 0.88678
 C152 C 0.74141 0.84956 0.89835
 H153 H 0.73016 0.91690 0.83813
 H154 H 0.73621 0.83206 0.92259
 H155 H 0.83230 0.84877 0.84898
 H156 H 0.80679 0.81711 0.81535
 N157 N 0.16904 0.86004 1.24184
 N158 N 0.14338 0.83375 1.24209
 C159 C 0.12195 0.83822 1.27257
 C160 C 0.13507 0.86869 1.29265
 C161 C 0.16461 0.88224 1.27200
 H162 H 0.09844 0.82081 1.27970
 H163 H 0.18122 0.90680 1.27809
 Cu164 Cu 0.14092 0.79676 1.20217
 Cu165 Cu 0.20574 0.86417 1.20193
 Cu166 Cu 0.20811 0.79058 1.13840
 N167 N 0.13853 0.75929 1.16269
 N168 N 0.16562 0.75692 1.13829
 C169 C 0.15888 0.72822 1.11486
 C170 C 0.12619 0.71123 1.12549
 C171 C 0.11358 0.73192 1.15559
 H172 H 0.17662 0.71997 1.09196
 H173 H 0.08873 0.72670 1.17161
 N174 N 0.24775 0.82822 1.14270
 N175 N 0.24647 0.85706 1.16585
 C176 C 0.27553 0.87984 1.15884
 C177 C 0.29562 0.86457 1.12978
 C178 C 0.27752 0.83183 1.12047
 H179 H 0.28059 0.90652 1.17229
 H180 H 0.28430 0.81344 1.09742
 H181 H 0.17875 0.83430 1.15951
 H182 H 0.20669 0.80749 1.19459
 N183 N 0.83204 1.14534 1.24435
 N184 N 0.85679 1.17244 1.24522
 C185 C 0.88318 1.16406 1.27075
 C186 C 0.87472 1.12963 1.28622
 C187 C 0.84167 1.11892 1.26938
 H188 H 0.90750 1.18092 1.27664
 H189 H 0.82633 1.09329 1.27417
 Cu190 Cu 0.85388 1.21389 1.21015
 Cu191 Cu 0.79223 1.14384 1.20719
 Cu192 Cu 0.77415 1.22858 1.16375
 N193 N 0.84892 1.25456 1.17446
 N194 N 0.81763 1.26033 1.15629
 C195 C 0.82231 1.28884 1.13199
 C196 C 0.85845 1.30131 1.13524
 C197 C 0.87464 1.27901 1.16225
 H198 H 0.80154 1.29861 1.11232
 H199 H 0.90336 1.27955 1.17107
 N200 N 0.73980 1.18546 1.16164
 N201 N 0.74739 1.15274 1.17694
 C202 C 0.72148 1.12768 1.16605
 C203 C 0.69670 1.14532 1.14231
 C204 C 0.70869 1.18213 1.14080
 H205 H 0.72166 1.09828 1.17313
 H206 H 0.69689 1.20430 1.12395
 H207 H 0.80891 1.18432 1.16816
 H208 H 0.78774 1.19957 1.21333
 O209 O 0.44228 1.06747 1.06257
 O210 O 0.40576 1.02803 1.02707
 C211 C 0.41028 1.05479 1.05127
 O212 O 0.55656 1.06703 0.93600
 O213 O 0.59530 1.03403 0.97433
 C214 C 0.58961 1.05766 0.94761
 O215 O 0.45128 1.06914 0.93549
 O216 O 0.41020 1.02967 0.96494
 C217 C 0.41797 1.05751 0.94298
 O218 O 0.54510 1.07280 1.07245
 O219 O 0.58962 1.04120 1.03976
 C220 C 0.57921 1.06608 1.06410
 Zr221 Zr 0.49653 1.04939 1.04876
 O222 O 0.49677 1.10858 1.04807
 O223 O 0.48939 1.04852 1.10786
 Zr224 Zr 0.50303 1.04770 0.95353
 O225 O 0.50533 1.10642 0.94749
 O226 O 0.50127 1.04308 0.89411
 O227 O 0.46680 1.05404 0.99876
 O228 O 0.53127 1.05716 1.00316
 O229 O 0.55377 0.93892 1.07411
 O230 O 0.59407 0.97620 1.04122
 C231 C 0.58696 0.95083 1.06615
 O232 O 0.45782 0.92803 0.93571
 O233 O 0.41364 0.96406 0.96384
 C234 C 0.42376 0.93715 0.94187
 O235 O 0.56081 0.93678 0.94082
 O236 O 0.59779 0.97448 0.97772
 C237 C 0.59290 0.94809 0.95317
 O238 O 0.45007 0.93009 1.06457
 O239 O 0.40971 0.96323 1.02769
 C240 C 0.41695 0.93738 1.05229
 Zr241 Zr 0.50157 0.95520 1.05091
 O242 O 0.50781 0.89657 1.05515
 O243 O 0.49419 0.95887 1.10987
 Zr244 Zr 0.50685 0.95402 0.95547
 O245 O 0.51125 0.89543 0.95038
 O246 O 0.50678 0.95829 0.89598
 Zr247 Zr 0.44694 0.99840 0.99840
 Zr248 Zr 0.55675 1.00456 1.00624
 O249 O 0.53610 0.94935 1.00552
 O250 O 0.47186 0.94530 1.00113
 O251 O 0.53181 1.00441 1.05962
 O252 O 0.47276 0.99913 0.94549
 O253 O 0.46650 1.00038 1.05432
 O254 O 0.53847 1.00237 0.94971
 H255 H 0.54647 1.08021 1.00301
 H256 H 0.45683 0.99832 0.92266
 H257 H 0.55316 0.92790 1.00731
 H258 H 0.44846 0.99946 1.07514
 H259 H 0.52532 1.03295 0.88593
 H260 H 0.53160 0.96709 0.88816
 H261 H 0.50720 0.88504 0.97577
 H262 H 0.49106 0.88498 1.03629
 H263 H 0.51668 0.97073 1.12068
 H264 H 0.51116 1.03593 1.11901
 H265 H 0.47624 1.11673 1.03149
 H266 H 0.49614 1.11698 0.97130
 O267 O 0.06378 0.55158 -0.07222
 O268 O 0.02963 0.59312 -0.03795
 C269 C 0.05413 0.58538 -0.06332
 O270 O -0.06742 0.44555 -0.07344
 O271 O -0.03395 0.40530 -0.03682
 C272 C -0.05804 0.41200 -0.06307
 O273 O -0.06493 0.55027 -0.07713
 O274 O -0.03344 0.59184 -0.03922
 C275 C -0.05623 0.58392 -0.06650
 O276 O 0.06834 0.44728 -0.06618
 O277 O 0.03151 0.40613 -0.03353
 C278 C 0.05845 0.41386 -0.05625
 Zr279 Zr 0.04526 0.49915 -0.05104
 O280 O 0.04264 0.49608 -0.11040
 O281 O 0.10370 0.50349 -0.05216
 Zr282 Zr -0.04796 0.49846 -0.05429
 O283 O -0.04854 0.49530 -0.11372
 O284 O -0.10636 0.49942 -0.05207
 O285 O -0.00099 0.53221 -0.06041
 O286 O -0.00110 0.46598 -0.05909
 O287 O 0.06233 0.44718 0.06377
 O288 O 0.02721 0.40582 0.02907
 C289 C 0.05202 0.41355 0.05446
 O290 O -0.06872 0.55176 0.06156
 O291 O -0.03342 0.59265 0.02690
 C292 C -0.05804 0.58514 0.05231
 O293 O -0.07407 0.44812 0.05670
 O294 O -0.03721 0.40626 0.02624
 C295 C -0.06448 0.41423 0.04842
 O296 O 0.06177 0.55273 0.06340
 O297 O 0.02922 0.59363 0.02615
 C298 C 0.05374 0.58628 0.05192
 Zr299 Zr 0.04265 0.49980 0.04431
 O300 O 0.03835 0.50373 0.10365
 O301 O 0.10106 0.50028 0.04889
 Zr302 Zr -0.05059 0.49985 0.04055
 O303 O -0.05106 0.49634 0.10003
 O304 O -0.10899 0.50387 0.03879
 Zr305 Zr -0.00210 0.55510 -0.00580
 Zr306 Zr -0.00293 0.44351 -0.00439
 O307 O -0.00454 0.46719 0.04972
 O308 O -0.00383 0.53337 0.04928
 O309 O 0.05104 0.46632 -0.00272
 O310 O -0.05575 0.53185 -0.00750
 O311 O 0.05118 0.53169 -0.00359
 O312 O -0.05671 0.46575 -0.00678
 H313 H -0.00011 0.44879 -0.08091
 H314 H -0.07745 0.54862 -0.00810
 H315 H -0.00595 0.45025 0.07169
 H316 H 0.07339 0.54808 -0.00365
 H317 H -0.11512 0.49863 -0.07855
 H318 H -0.11781 0.48760 0.01804
 H319 H -0.03311 0.51509 0.10971
 H320 H 0.03070 0.47911 0.11374
 H321 H 0.11069 0.48154 0.03109
 H322 H 0.11332 0.48782 -0.03144
 H323 H 0.06859 0.49714 -0.11921
 H324 H -0.02531 0.50710 -0.12243
 O325 O 1.06768 -0.06309 0.55851
 O326 O 1.03224 -0.02615 0.59683
 C327 C 1.05702 -0.05170 0.59139
 O328 O 1.07100 0.06306 0.44394
 O329 O 1.03623 0.02652 0.40374
 C330 C 1.06134 0.05177 0.41053
 O331 O 1.07382 0.06541 0.54930
 O332 O 1.03613 0.03632 0.59210
 C333 C 1.06377 0.05795 0.58351
 O334 O 1.06926 -0.06969 0.45257
 O335 O 1.03617 -0.03700 0.40812
 C336 C 1.06111 -0.06110 0.41788
 Zr337 Zr 1.04892 -0.04742 0.50396
 O338 O 1.10742 -0.04977 0.50457
 O339 O 1.04531 -0.10619 0.51027
 Zr340 Zr 1.05075 0.04722 0.49764
 O341 O 1.10902 0.05211 0.49567
 O342 O 1.04725 0.10631 0.49818
 O343 O 1.05664 0.00187 0.53429
 O344 O 1.05723 -0.00221 0.46873
 O345 O 0.93637 -0.06900 0.45032
 O346 O 0.97315 -0.03873 0.40742
 C347 C 0.94687 -0.06211 0.41622
 O348 O 0.93684 0.07014 0.54627
 O349 O 0.97045 0.03857 0.59105
 C350 C 0.94576 0.06288 0.58098
 O351 O 0.94048 0.06566 0.44094
 O352 O 0.97427 0.02735 0.40269
 C353 C 0.95006 0.05344 0.40803
 O354 O 0.93206 -0.05772 0.55471
 O355 O 0.96771 -0.02220 0.59476
 C356 C 0.94081 -0.04545 0.58808
 Zr357 Zr 0.95592 -0.04610 0.50152
 O358 O 0.89773 -0.05085 0.49796
 O359 O 0.95895 -0.10470 0.50963
 Zr360 Zr 0.95780 0.04846 0.49528
 O361 O 0.89936 0.04952 0.49046
 O362 O 0.96012 0.10759 0.49432
 Zr363 Zr 1.00237 0.00416 0.55564
 Zr364 Zr 1.00430 -0.00310 0.44351
 O365 O 0.95058 -0.00081 0.46575
 O366 O 0.94885 0.00350 0.53142
 O367 O 1.00286 -0.05622 0.46927
 O368 O 1.00402 0.05671 0.52906
 O369 O 1.00152 -0.05125 0.53598
 O370 O 1.00502 0.05285 0.46218
 H371 H 1.07958 -0.00325 0.45293
 H372 H 1.00470 0.07937 0.54507
 H373 H 0.92903 -0.00140 0.44846
 H374 H 1.00005 -0.07192 0.55433
 H375 H 1.03992 0.11459 0.47264
 H376 H 0.97535 0.11518 0.47255
 H377 H 0.88908 0.03648 0.51267
 H378 H 0.88804 -0.02514 0.49851
 H379 H 0.96901 -0.11577 0.48637
 H380 H 1.03410 -0.11654 0.48699
 H381 H 1.11646 -0.03150 0.52348
 H382 H 1.11888 0.02650 0.49743
 C383 C 1.13775 0.08313 0.34326
 C384 C 1.11723 0.10747 0.31905
 C385 C 1.07954 0.11330 0.32682
 C386 C 1.06169 0.09403 0.35567
 C387 C 1.08088 0.06871 0.37833
 C388 C 1.11904 0.06277 0.37212
 C389 C 1.17681 0.08061 0.34175
 C390 C 1.19610 0.05569 0.36466
 C391 C 1.17726 0.03359 0.39047
 C392 C 1.13920 0.03738 0.39461
 H393 H 1.19320 0.09877 0.32416
 H394 H 1.22592 0.05387 0.36269
 H395 H 1.19234 0.01419 0.40810
 H396 H 1.12583 0.02040 0.41570
 H397 H 1.06307 0.13180 0.30946
 H398 H 1.03259 0.09920 0.36059
 C399 C 0.86804 -0.09764 0.35264
 C400 C 0.88850 -0.11902 0.32641
 C401 C 0.92684 -0.12246 0.33136
 C402 C 0.94523 -0.10393 0.36059
 C403 C 0.92606 -0.08100 0.38553
 C404 C 0.88709 -0.07745 0.38153
 C405 C 0.82895 -0.09636 0.35135
 C406 C 0.80939 -0.07355 0.37583
 C407 C 0.82819 -0.05184 0.40226
 C408 C 0.86658 -0.05375 0.40522
 H409 H 0.81300 -0.11341 0.33202
 H410 H 0.77948 -0.07264 0.37422
 H411 H 0.81292 -0.03373 0.42087
 H412 H 0.87984 -0.03624 0.42603
 H413 H 0.94284 -0.13904 0.31193
 H414 H 0.97464 -0.10779 0.36398
 C415 C 0.89655 0.14131 0.63364
 C416 C 0.88119 0.12077 0.66412
 C417 C 0.88809 0.08230 0.66676
 C418 C 0.91003 0.06419 0.64033
 C419 C 0.92626 0.08404 0.61064
 C420 C 0.92073 0.12320 0.60799
 C421 C 0.88789 0.17930 0.62740
 C422 C 0.90531 0.19973 0.59909
 C423 C 0.93146 0.18283 0.57635
 C424 C 0.93914 0.14497 0.58062
 H425 H 0.86718 0.19350 0.64370
 H426 H 0.89871 0.22892 0.59501
 H427 H 0.94561 0.19903 0.55502
 H428 H 0.96009 0.13317 0.56276
 H429 H 0.87665 0.06611 0.68974
 H430 H 0.91387 0.03427 0.64274
 C431 C 1.07003 -0.11291 0.67909
 C432 C 1.10759 -0.10447 0.68806
 C433 C 1.12657 -0.07792 0.66620
 C434 C 1.10964 -0.06087 0.63528
 C435 C 1.07335 -0.07018 0.62481
 C436 C 1.05350 -0.09703 0.64624
 C437 C 1.04808 -0.13612 0.70232
 C438 C 1.01243 -0.14677 0.69138
 C439 C 0.99767 -0.13401 0.65758
 C440 C 1.01763 -0.10885 0.63552
 H441 H 1.05773 -0.14571 0.72943
 H442 H 0.99618 -0.16500 0.70923
 H443 H 0.97015 -0.14271 0.64896
 H444 H 1.00457 -0.09868 0.61023
 H445 H 1.15514 -0.07084 0.67257
 H446 H 1.12520 -0.04054 0.61906
 C447 C 0.31723 1.06478 1.10072
 C448 C 0.31099 1.10381 1.09599
 C449 C 0.33614 1.12466 1.07421
 C450 C 0.36844 1.10852 1.06050
 C451 C 0.37657 1.07102 1.06778
 C452 C 0.35113 1.04894 1.08846
 C453 C 0.28969 1.04043 1.11513
 C454 C 0.29739 1.00312 1.12266
 C455 C 0.33216 0.98901 1.11498
 C456 C 0.35863 1.01129 1.09734
 H457 H 0.26168 1.04954 1.11987
 H458 H 0.27632 0.98511 1.13462
 H459 H 0.33827 0.96048 1.12210
 H460 H 0.38502 0.99891 1.09118
 H461 H 0.33191 1.15421 1.06928
 H462 H 0.38742 1.12555 1.04425
 C463 C 0.36006 0.85840 0.90667
 C464 C 0.33416 0.87981 0.88517
 C465 C 0.34129 0.91821 0.88020
 C466 C 0.37065 0.93585 0.89849
 C467 C 0.39435 0.91600 0.92216
 C468 C 0.38937 0.87699 0.92650
 C469 C 0.35909 0.81889 0.90737
 C470 C 0.38323 0.79874 0.93033
 C471 C 0.40938 0.81731 0.95244
 C472 C 0.41275 0.85605 0.95042
 H473 H 0.34086 0.80299 0.88917
 H474 H 0.38174 0.76852 0.93083
 H475 H 0.42774 0.80155 0.97056
 H476 H 0.43392 0.86930 0.96756
 H477 H 0.32285 0.93565 0.86386
 H478 H 0.37457 0.96558 0.89462
 C479 C 0.68322 0.93576 1.10946
 C480 C 0.68446 0.89597 1.10974
 C481 C 0.65422 0.87581 1.09494
 C482 C 0.62211 0.89401 1.08305
 C483 C 0.61937 0.93303 1.08463
 C484 C 0.65009 0.95422 1.09816
 C485 C 0.71512 0.95780 1.11712
 C486 C 0.71361 0.99665 1.11673
 C487 C 0.68050 1.01447 1.10878
 C488 C 0.64890 0.99358 1.10005
 H489 H 0.74194 0.94547 1.12187
 H490 H 0.73831 1.01302 1.12252
 H491 H 0.67961 1.04461 1.10866
 H492 H 0.62362 1.00849 1.09472
 H493 H 0.65471 0.84554 1.09401
 H494 H 0.59946 0.87744 1.07162
 C495 C 0.68980 1.08765 0.92188
 C496 C 0.68322 1.10209 0.88515
 C497 C 0.64778 1.09852 0.86935
 C498 C 0.61824 1.08502 0.89055
 C499 C 0.62294 1.07340 0.92807
 C500 C 0.65962 1.07418 0.94404
 C501 C 0.72636 1.08402 0.93609
 C502 C 0.73310 1.07114 0.97236
 C503 C 0.70380 1.06102 0.99517
 C504 C 0.66770 1.06223 0.98134
 H505 H 0.75028 1.09005 0.91901
 H506 H 0.76122 1.06903 0.98280
 H507 H 0.70904 1.05180 1.02374
 H508 H 0.64700 1.05477 1.00140
 H509 H 0.64223 1.10842 0.84105
 H510 H 0.59123 1.08360 0.87716
 C511 C 0.06520 0.32220 0.10886
 C512 C 0.10425 0.31874 0.10661
 C513 C 0.12481 0.34637 0.08791
 C514 C 0.10755 0.37742 0.07210
 C515 C 0.06918 0.38175 0.07440
 C516 C 0.04775 0.35456 0.09375
 C517 C 0.04287 0.29390 0.12501
 C518 C 0.00486 0.29870 0.12891
 C519 C -0.01169 0.33148 0.11663
 C520 C 0.00936 0.35909 0.09899
 H521 H 0.05425 0.26765 0.13436
 H522 H -0.01180 0.27698 0.14179
 H523 H -0.04099 0.33538 0.12069
 H524 H -0.00455 0.38421 0.09017
 H525 H 0.15460 0.34404 0.08578
 H526 H 0.12424 0.39800 0.05746
 C527 C -0.08126 0.31467 -0.10550
 C528 C -0.11747 0.32189 -0.11878
 C529 C -0.13283 0.35715 -0.11377
 C530 C -0.11286 0.38548 -0.09588
 C531 C -0.07670 0.37970 -0.08230
 C532 C -0.06038 0.34367 -0.08739
 C533 C -0.06539 0.27897 -0.11006
 C534 C -0.02961 0.27178 -0.09745
 C535 C -0.00889 0.29993 -0.08044
 C536 C -0.02384 0.33540 -0.07569
 H537 H -0.08044 0.25626 -0.12338
 H538 H -0.01782 0.24431 -0.10112
 H539 H 0.01909 0.29436 -0.07103
 H540 H -0.00578 0.35576 -0.06329
 H541 H -0.16061 0.36282 -0.12384
 H542 H -0.12617 0.41226 -0.09229
 C543 C 0.07684 0.67974 -0.11102
 C544 C 0.11556 0.67583 -0.11524
 C545 C 0.13278 0.64322 -0.10261
 C546 C 0.11222 0.61425 -0.08655
 C547 C 0.07371 0.61690 -0.08243
 C548 C 0.05564 0.64974 -0.09551
 C549 C 0.05872 0.71311 -0.12147
 C550 C 0.02047 0.71623 -0.11850
 C551 C -0.00041 0.68626 -0.10544
 C552 C 0.01689 0.65329 -0.09441
 H553 H 0.07381 0.73722 -0.13165
 H554 H 0.00693 0.74191 -0.12667
 H555 H -0.03012 0.68867 -0.10375
 H556 H -0.00034 0.63048 -0.08578
 H557 H 0.16244 0.64008 -0.10541
 H558 H 0.12668 0.58964 -0.07672
 C559 C -0.07209 0.66716 0.11933
 C560 C -0.10817 0.67874 0.10799
 C561 C -0.12587 0.65980 0.07819
 C562 C -0.10920 0.62964 0.06040
 C563 C -0.07473 0.61670 0.07248
 C564 C -0.05636 0.63463 0.10283
 C565 C -0.05052 0.68757 0.14565
 C566 C -0.01667 0.67395 0.15862
 C567 C -0.00321 0.64024 0.14512
 C568 C -0.02248 0.62096 0.11703
 H569 H -0.05881 0.71465 0.15571
 H570 H -0.00072 0.68969 0.17916
 H571 H 0.02294 0.62965 0.15548
 H572 H -0.01045 0.59552 0.10631
 H573 H -0.15316 0.66811 0.06874
 H574 H -0.12347 0.61606 0.03716
 C575 C 1.14222 0.10169 0.64227
 C576 C 1.12153 0.11591 0.67292
 C577 C 1.08307 0.11034 0.67336
 C578 C 1.06506 0.09091 0.64459
 C579 C 1.08493 0.07568 0.61466
 C580 C 1.12407 0.07965 0.61415
 C581 C 1.18041 0.10941 0.63831
 C582 C 1.20085 0.09274 0.60983
 C583 C 1.18376 0.06825 0.58469
 C584 C 1.14577 0.06170 0.58671
 H585 H 1.19480 0.12885 0.65655
 H586 H 1.23018 0.09859 0.60748
 H587 H 1.19993 0.05457 0.56325
 H588 H 1.13387 0.04190 0.56707
 H589 H 1.06670 0.12084 0.69644
 H590 H 1.03519 0.08807 0.64555
 C591 C 0.86695 -0.09195 0.65005
 C592 C 0.88826 -0.09706 0.68331
 C593 C 0.92409 -0.08234 0.68548
 C594 C 0.93957 -0.06381 0.65501
 C595 C 0.92004 -0.05992 0.62099
 C596 C 0.88248 -0.07197 0.61913
 C597 C 0.83066 -0.10657 0.64663
 C598 C 0.80926 -0.09947 0.61467
 C599 C 0.82341 -0.07755 0.58573
 C600 C 0.85953 -0.06374 0.58791
 H601 H 0.81848 -0.12369 0.66841
 H602 H 0.78136 -0.11054 0.61260
 H603 H 0.80630 -0.07117 0.56147
 H604 H 0.86863 -0.04559 0.56553
 H605 H 0.94035 -0.08528 0.71105
 H606 H 0.96772 -0.05355 0.65782
 C607 C 1.13935 -0.10156 0.35775
 C608 C 1.11822 -0.11450 0.32648
 C609 C 1.07982 -0.10970 0.32626
 C610 C 1.06221 -0.09212 0.35595
 C611 C 1.08215 -0.07903 0.38720
 C612 C 1.12135 -0.08247 0.38769
 C613 C 1.17792 -0.10739 0.36020
 C614 C 1.19866 -0.09235 0.38981
 C615 C 1.18151 -0.07131 0.41747
 C616 C 1.14331 -0.06628 0.41647
 H617 H 1.19243 -0.12383 0.33961
 H618 H 1.22825 -0.09674 0.39109
 H619 H 1.19788 -0.05888 0.43987
 H620 H 1.13150 -0.04888 0.43792
 H621 H 1.06326 -0.11892 0.30243
 H622 H 1.03262 -0.08844 0.35435
 C623 C 0.90257 0.06966 0.31203
 C624 C 0.89660 0.10873 0.31452
 C625 C 0.91010 0.12835 0.34582
 C626 C 0.92760 0.10983 0.37533
 C627 C 0.93205 0.07094 0.37477
 C628 C 0.91894 0.05037 0.34303
 C629 C 0.89303 0.04927 0.27925
 C630 C 0.89656 0.01055 0.27815
 C631 C 0.90973 -0.00856 0.30946
 C632 C 0.92066 0.01103 0.34158
 H633 H 0.88337 0.06294 0.25397
 H634 H 0.88877 -0.00472 0.25300
 H635 H 0.91174 -0.03870 0.30873
 H636 H 0.92972 -0.00506 0.36529
 H637 H 0.90617 0.15827 0.34793
 H638 H 0.93749 0.12612 0.39910
 C639 C 0.13578 0.34503 -0.07749
 C640 C 0.11796 0.32298 -0.10574
 C641 C 0.08219 0.33270 -0.11771
 C642 C 0.06364 0.36250 -0.10163
 C643 C 0.07949 0.38265 -0.07198
 C644 C 0.11578 0.37425 -0.05961
 C645 C 0.17327 0.33987 -0.06737
 C646 C 0.18960 0.36076 -0.03849
 C647 C 0.16926 0.38763 -0.01955
 C648 C 0.13277 0.39466 -0.03014
 H649 H 0.19075 0.32063 -0.08225
 H650 H 0.21829 0.35623 -0.03092
 H651 H 0.18202 0.40360 0.00300
 H652 H 0.11809 0.41627 -0.01520
 H653 H 0.06803 0.31681 -0.13945
 H654 H 0.03658 0.36987 -0.11247
 C655 C -0.10915 0.31917 0.07510
 C656 C -0.12256 0.32867 0.11111
 C657 C -0.11741 0.36475 0.12492
 C658 C -0.09905 0.39161 0.10370
 C659 C -0.08518 0.38350 0.06772
 C660 C -0.09089 0.34684 0.05276
 C661 C -0.11353 0.28253 0.06091
 C662 C -0.10106 0.27335 0.02516
 C663 C -0.08459 0.30048 0.00275
 C664 C -0.07985 0.33685 0.01612
 H665 H -0.12661 0.26067 0.07726
 H666 H -0.10461 0.24517 0.01461
 H667 H -0.07560 0.29325 -0.02523
 H668 H -0.06827 0.35676 -0.00301
 H669 H -0.12738 0.37212 0.15262
 H670 H -0.09508 0.41901 0.11610
 C671 C -0.09318 0.65138 -0.14156
 C672 C -0.10850 0.67900 -0.11769
 C673 C -0.10744 0.67376 -0.07861
 C674 C -0.09064 0.64264 -0.06288
 C675 C -0.07429 0.61558 -0.08562
 C676 C -0.07499 0.61993 -0.12532
 C677 C -0.09577 0.65400 -0.18115
 C678 C -0.07875 0.62775 -0.20412
 C679 C -0.05899 0.59841 -0.18824
 C680 C -0.05705 0.59443 -0.14926
 H681 H -0.11128 0.67592 -0.19479
 H682 H -0.08072 0.63032 -0.23443
 H683 H -0.04528 0.57850 -0.20622
 H684 H -0.04098 0.57154 -0.13822
 H685 H -0.11889 0.69450 -0.05989
 H686 H -0.09019 0.63976 -0.03250
 C687 C 0.12920 0.64512 0.10041
 C688 C 0.10884 0.67796 0.10804
 C689 C 0.07207 0.68053 0.09575
 C690 C 0.05523 0.65121 0.07623
 C691 C 0.07441 0.61813 0.06888
 C692 C 0.11248 0.61590 0.07894
 C693 C 0.16586 0.64054 0.11373
 C694 C 0.18660 0.60961 0.10323
 C695 C 0.17141 0.58290 0.07919
 C696 C 0.13484 0.58604 0.06694
 H697 H 0.17884 0.66054 0.13249
 H698 H 0.21479 0.60673 0.11324
 H699 H 0.18802 0.55961 0.07000
 H700 H 0.12485 0.56563 0.04699
 H701 H 0.05637 0.70569 0.10086
 H702 H 0.02668 0.65421 0.06732
 C703 C 0.34842 1.13397 0.91866
 C704 C 0.32438 1.11351 0.89429
 C705 C 0.33244 1.07621 0.88590
 C706 C 0.36302 1.05871 0.90177
 C707 C 0.38664 1.07793 0.92641
 C708 C 0.37938 1.11571 0.93545
 C709 C 0.34300 1.17229 0.92620
 C710 C 0.36606 1.19144 0.95136
 C711 C 0.39512 1.17306 0.96917
 C712 C 0.40193 1.13562 0.96126
 H713 H 0.32141 1.18804 0.91246
 H714 H 0.36133 1.22072 0.95708
 H715 H 0.41267 1.18798 0.98898
 H716 H 0.42485 1.12247 0.97568
 H717 H 0.31450 1.06018 0.86732
 H718 H 0.36834 1.02988 0.89471
 C719 C 0.32098 0.89300 1.07009
 C720 C 0.32561 0.88258 1.10829
 C721 C 0.35983 0.88808 1.12605
 C722 C 0.38918 0.90475 1.10695
 C723 C 0.38553 0.91597 1.06918
 C724 C 0.35150 0.90838 1.04997
 C725 C 0.28649 0.88867 1.05140
 C726 C 0.28282 0.89674 1.01322
 C727 C 0.31327 0.90901 0.99292
 C728 C 0.34717 0.91463 1.01104
 H729 H 0.26202 0.87912 1.06595
 H730 H 0.25637 0.89291 0.99920
 H731 H 0.31063 0.91420 0.96301
 H732 H 0.37008 0.92256 0.99397
 H733 H 0.36370 0.87991 1.15517
 H734 H 0.41467 0.90994 1.12237
 C735 C 0.66103 1.13250 1.08136
 C736 C 0.66624 1.12721 1.12070
 C737 C 0.64189 1.10365 1.14030
 C738 C 0.61331 1.08475 1.12166
 C739 C 0.60797 1.08912 1.08289
 C740 C 0.63047 1.11482 1.06286
 C741 C 0.68582 1.15415 1.05959
 C742 C 0.67848 1.16148 1.02174
 C743 C 0.64664 1.14721 1.00475
 C744 C 0.62301 1.12375 1.02490
 H745 H 0.71129 1.16523 1.07115
 H746 H 0.69754 1.17843 1.00556
 H747 H 0.64081 1.15334 0.97547
 H748 H 0.59922 1.11242 1.01034
 H749 H 0.64540 1.09939 1.17030
 H750 H 0.59580 1.06581 1.13747
 C751 C 0.65771 0.87262 0.91701
 C752 C 0.68739 0.89546 0.90428
 C753 C 0.68565 0.93431 0.90884
 C754 C 0.65525 0.95084 0.92565
 C755 C 0.62586 0.92894 0.93881
 C756 C 0.62762 0.88941 0.93612
 C757 C 0.65662 0.83365 0.91051
 C758 C 0.62849 0.81146 0.92551
 C759 C 0.60092 0.82752 0.94710
 C760 C 0.60039 0.86608 0.95245
 H761 H 0.67690 0.81990 0.89331
 H762 H 0.62828 0.78160 0.92061
 H763 H 0.57962 0.81009 0.95946
 H764 H 0.57883 0.87721 0.96997
 H765 H 0.70809 0.95210 0.89929
 H766 H 0.65437 0.98105 0.92782
   
