data_POSCAR
  _audit_creation_date              2014-09-24
  _audit_creation_method            'ToBaCCo'
  _symmetry_space_group_name_H-M    'P1'
  _symmetry_Int_Tables_number       1
  _symmetry_cell_setting            triclinic
  loop_
  _symmetry_equiv_pos_as_xyz
 x,y,z
_cell_length_a 55.4067
_cell_length_b 55.5355
_cell_length_c 55.5280
_cell_angle_alpha 89.968400
_cell_angle_beta 90.036400
_cell_angle_gamma 89.928400
loop_
  _atom_site_label
  _atom_site_type_symbol
  _atom_site_fract_x
  _atom_site_fract_y
  _atom_site_fract_z
C1 C 0.16234 0.18121 0.19609
 C2 C 0.16224 0.19866 0.17782
 C3 C 0.17985 0.19826 0.16011
 C4 C 0.19776 0.18040 0.16045
 C5 C 0.19786 0.16314 0.17850
 C6 C 0.18004 0.16355 0.19642
 C7 C 0.14729 0.17701 0.21537
 N8 N 0.15555 0.15732 0.22721
 C9 C 0.17549 0.14888 0.21590
 C10 C 0.21702 0.14793 0.17413
 N11 N 0.22837 0.15567 0.15396
 C12 C 0.21687 0.17543 0.14538
 C13 C 0.17510 0.21702 0.14458
 N14 N 0.15514 0.22864 0.15254
 C15 C 0.14707 0.21767 0.17278
 H16 H 0.13147 0.18735 0.22032
 H17 H 0.18576 0.13317 0.22133
 H18 H 0.22222 0.13236 0.18469
 H19 H 0.22193 0.18531 0.12934
 H20 H 0.18525 0.22180 0.12863
 H21 H 0.13128 0.22305 0.18293
 C22 C -0.15808 0.82209 0.19864
 C23 C -0.15837 0.80422 0.18081
 C24 C -0.17636 0.80419 0.16346
 C25 C -0.19430 0.82204 0.16374
 C26 C -0.19402 0.83971 0.18136
 C27 C -0.17580 0.83973 0.19891
 C28 C -0.14273 0.82664 0.21762
 N29 N -0.15081 0.84653 0.22920
 C30 C -0.17095 0.85475 0.21804
 C31 C -0.21340 0.85469 0.17714
 N32 N -0.22526 0.84642 0.15748
 C33 C -0.21386 0.82654 0.14907
 C34 C -0.17204 0.78495 0.14843
 N35 N -0.15196 0.77347 0.15634
 C36 C -0.14340 0.78498 0.17605
 H37 H -0.12687 0.81634 0.22258
 H38 H -0.18121 0.87047 0.22340
 H39 H -0.21846 0.87042 0.18751
 H40 H -0.21933 0.81622 0.13345
 H41 H -0.18261 0.77970 0.13289
 H42 H -0.12746 0.77978 0.18609
 C43 C -0.16338 0.17636 -0.19669
 C44 C -0.16392 0.19418 -0.17881
 C45 C -0.18167 0.19371 -0.16124
 C46 C -0.19909 0.17541 -0.16134
 C47 C -0.19857 0.15781 -0.17903
 C48 C -0.18061 0.15829 -0.19680
 C49 C -0.14810 0.17219 -0.21581
 N50 N -0.15577 0.15211 -0.22734
 C51 C -0.17556 0.14340 -0.21599
 C52 C -0.21742 0.14228 -0.17455
 N53 N -0.22918 0.15016 -0.15467
 C54 C -0.21825 0.17032 -0.14638
 C55 C -0.17766 0.21299 -0.14618
 N56 N -0.15799 0.22497 -0.15427
 C57 C -0.14939 0.21374 -0.17414
 H58 H -0.13255 0.18284 -0.22088
 H59 H -0.18543 0.12741 -0.22124
 H60 H -0.22216 0.12643 -0.18487
 H61 H -0.22374 0.18042 -0.13062
 H62 H -0.18814 0.21790 -0.13047
 H63 H -0.13371 0.21935 -0.18432
 C64 C 0.16173 0.82235 -0.19755
 C65 C 0.16085 0.80413 -0.18008
 C66 C 0.17802 0.80336 -0.16194
 C67 C 0.19629 0.82079 -0.16105
 C68 C 0.19716 0.83881 -0.17832
 C69 C 0.17978 0.83959 -0.19668
 C70 C 0.14730 0.82769 -0.21705
 N71 N 0.15626 0.84764 -0.22783
 C72 C 0.17606 0.85515 -0.21565
 C73 C 0.21654 0.85333 -0.17287
 N74 N 0.22727 0.84446 -0.15281
 C75 C 0.21516 0.82463 -0.14536
 C76 C 0.17259 0.78397 -0.14745
 N77 N 0.15265 0.77315 -0.15645
 C78 C 0.14525 0.78521 -0.17633
 H79 H 0.13144 0.81790 -0.22288
 H80 H 0.18682 0.87078 -0.22019
 H81 H 0.22232 0.86919 -0.18264
 H82 H 0.21967 0.81393 -0.12966
 H83 H 0.18231 0.77822 -0.13153
 H84 H 0.12965 0.78060 -0.18714
 C85 C 0.18211 1.16343 0.80308
 C86 C 0.19953 1.16330 0.82140
 C87 C 0.19910 1.18087 0.83911
 C88 C 0.18125 1.19877 0.83871
 C89 C 0.16402 1.19891 0.82060
 C90 C 0.16445 1.18113 0.80268
 C91 C 0.17791 1.14838 0.78382
 N92 N 0.15821 1.15665 0.77193
 C93 C 0.14977 1.17658 0.78317
 C94 C 0.14879 1.21805 0.82494
 N95 N 0.15651 1.22933 0.84515
 C96 C 0.17626 1.21781 0.85378
 C97 C 0.21784 1.17610 0.85470
 N98 N 0.22947 1.15617 0.84677
 C99 C 0.21854 1.14813 0.82650
 H100 H 0.18823 1.13255 0.77894
 H101 H 0.13406 1.18685 0.77769
 H102 H 0.13323 1.22328 0.81434
 H103 H 0.18610 1.22281 0.86988
 H104 H 0.22259 1.18622 0.87067
 H105 H 0.22394 1.13236 0.81637
 C106 C 0.82156 0.84033 0.80042
 C107 C 0.80369 0.83999 0.81827
 C108 C 0.80372 0.82203 0.83560
 C109 C 0.82164 0.80417 0.83528
 C110 C 0.83931 0.80451 0.81763
 C111 C 0.83927 0.82269 0.80010
 C112 C 0.82612 0.85574 0.78152
 N113 N 0.84609 0.84775 0.76994
 C114 C 0.85435 0.82763 0.78102
 C115 C 0.85444 0.78527 0.82186
 N116 N 0.84625 0.77345 0.84156
 C117 C 0.82628 0.78472 0.84998
 C118 C 0.78452 0.82636 0.85073
 N119 N 0.77302 0.84642 0.84290
 C120 C 0.78447 0.85496 0.82314
 H121 H 0.81582 0.87160 0.77665
 H122 H 0.87017 0.81747 0.77569
 H123 H 0.87024 0.78031 0.81149
 H124 H 0.81602 0.77926 0.86565
 H125 H 0.77935 0.81583 0.86632
 H126 H 0.77926 0.87091 0.81318
 C127 C 0.17678 0.83654 1.19770
 C128 C 0.19458 0.83603 1.17977
 C129 C 0.19409 0.81829 1.16223
 C130 C 0.17581 0.80086 1.16242
 C131 C 0.15822 0.80136 1.18014
 C132 C 0.15870 0.81930 1.19788
 C133 C 0.17259 0.85181 1.21678
 N134 N 0.15251 0.84414 1.22835
 C135 C 0.14380 0.82435 1.21707
 C136 C 0.14272 0.78251 1.17574
 N137 N 0.15058 0.77076 1.15587
 C138 C 0.17073 0.78172 1.14752
 C139 C 0.21333 0.82234 1.14708
 N140 N 0.22530 0.84201 1.15510
 C141 C 0.21410 0.85058 1.17500
 H142 H 0.18323 0.86738 1.22179
 H143 H 0.12779 0.81450 1.22235
 H144 H 0.12687 0.77774 1.18608
 H145 H 0.18080 0.77622 1.13174
 H146 H 0.21821 0.81190 1.13135
 H147 H 0.21971 0.86627 1.18513
 C148 C 0.82082 1.16288 1.19923
 C149 C 0.80263 1.16194 1.18169
 C150 C 0.80187 1.17907 1.16354
 C151 C 0.81930 1.19733 1.16272
 C152 C 0.83728 1.19825 1.18005
 C153 C 0.83805 1.18093 1.19841
 C154 C 0.82617 1.14844 1.21869
 N155 N 0.84614 1.15741 1.22951
 C156 C 0.85364 1.17720 1.21739
 C157 C 0.85185 1.21756 1.17459
 N158 N 0.84305 1.22822 1.15448
 C159 C 0.82322 1.21611 1.14700
 C160 C 0.78260 1.17351 1.14890
 N161 N 0.77183 1.15354 1.15781
 C162 C 0.78381 1.14624 1.17779
 H163 H 0.81641 1.13257 1.22445
 H164 H 0.86930 1.18794 1.22194
 H165 H 0.86774 1.22335 1.18437
 H166 H 0.81260 1.22056 1.13123
 H167 H 0.77693 1.18312 1.13289
 H168 H 0.77926 1.13061 1.18852
 O169 O 0.53378 0.95486 0.95861
 O170 O 0.56030 0.97662 0.98179
 C171 C 0.55538 0.96122 0.96500
 O172 O 0.46590 1.04071 0.96100
 O173 O 0.43948 1.01754 0.98288
 C174 C 0.44433 1.03429 0.96738
 O175 O 0.53374 1.03832 0.95855
 O176 O 0.56028 1.01653 0.98175
 C177 C 0.55536 1.03195 0.96496
 O178 O 0.46592 0.95253 0.96106
 O179 O 0.43950 0.97575 0.98292
 C180 C 0.44434 0.95900 0.96745
 Zr181 Zr 0.49988 0.96612 0.97235
 O182 O 0.49701 0.96610 0.93433
 O183 O 0.50268 0.92810 0.97259
 Zr184 Zr 0.49985 1.02707 0.97230
 O185 O 0.49700 1.02706 0.93428
 O186 O 0.50262 1.06509 0.97248
 O187 O 0.52134 0.99658 0.96758
 O188 O 0.47891 0.99661 0.96797
 O189 O 0.46613 0.95251 1.04464
 O190 O 0.43959 0.97575 1.02287
 C191 C 0.44451 0.95896 1.03831
 O192 O 0.53393 1.03839 1.04681
 O193 O 0.56037 1.01656 1.02357
 C194 C 0.55551 1.03202 1.04034
 O195 O 0.46607 1.04077 1.04459
 O196 O 0.43957 1.01756 1.02285
 C197 C 0.44447 1.03435 1.03827
 O198 O 0.53401 0.95487 1.04693
 O199 O 0.56041 0.97663 1.02363
 C200 C 0.55559 0.96122 1.04045
 Zr201 Zr 0.50003 0.96614 1.03328
 O202 O 0.49733 0.96619 1.07131
 O203 O 0.50287 0.92812 1.03315
 Zr204 Zr 0.49998 1.02708 1.03324
 O205 O 0.49728 1.02694 1.07127
 O206 O 0.50274 1.06509 1.03316
 Zr207 Zr 0.53578 0.99659 1.00273
 Zr208 Zr 0.46408 0.99663 1.00285
 O209 O 0.47906 0.99662 1.03769
 O210 O 0.52151 0.99660 1.03793
 O211 O 0.47845 0.96145 1.00286
 O212 O 0.52087 1.03145 1.00273
 O213 O 0.52093 0.96173 1.00278
 O214 O 0.47841 1.03179 1.00280
 H215 H 0.46792 0.99662 0.95389
 H216 H 0.53184 1.04553 1.00269
 H217 H 0.46811 0.99663 1.05179
 H218 H 0.53193 0.94766 1.00278
 H219 H 0.48904 1.07141 0.98215
 H220 H 0.48929 1.07142 1.02328
 H221 H 0.51088 1.01725 1.07758
 H222 H 0.51071 0.97614 1.07760
 H223 H 0.48931 0.92180 1.02345
 H224 H 0.48912 0.92181 0.98230
 H225 H 0.51038 0.97602 0.92797
 H226 H 0.51035 1.01709 0.92795
 O227 O -0.04714 0.46595 0.03855
 O228 O -0.02396 0.43956 0.01662
 C229 C -0.04069 0.44442 0.03215
 O230 O -0.04485 0.53385 -0.04740
 O231 O -0.02301 0.56017 -0.02409
 C232 C -0.03846 0.55536 -0.04092
 O233 O -0.04728 0.46613 -0.04514
 O234 O -0.02401 0.43964 -0.02338
 C235 C -0.04083 0.44456 -0.03882
 O236 O -0.04477 0.53364 0.04097
 O237 O -0.02298 0.56007 0.01775
 C238 C -0.03839 0.55519 0.03457
 Zr239 Zr -0.03359 0.49981 0.02715
 O240 O -0.07170 0.50265 0.02670
 O241 O -0.03381 0.49698 0.06517
 Zr242 Zr -0.03358 0.49994 -0.03377
 O243 O -0.07168 0.50279 -0.03363
 O244 O -0.03352 0.49725 -0.07180
 O245 O -0.03829 0.47841 -0.00334
 O246 O -0.03797 0.52081 -0.00327
 O247 O 0.03884 0.53349 0.04093
 O248 O 0.01701 0.56000 0.01775
 C249 C 0.03247 0.55505 0.03453
 O250 O 0.04120 0.46602 -0.04508
 O251 O 0.01791 0.43958 -0.02337
 C252 C 0.03473 0.44447 -0.03878
 O253 O 0.03886 0.53373 -0.04731
 O254 O 0.01700 0.56011 -0.02407
 C255 C 0.03249 0.55526 -0.04084
 O256 O 0.04111 0.46580 0.03857
 O257 O 0.01790 0.43948 0.01663
 C258 C 0.03464 0.44428 0.03218
 Zr259 Zr 0.02753 0.49970 0.02719
 O260 O 0.06564 0.50238 0.02695
 O261 O 0.02757 0.49688 0.06521
 Zr262 Zr 0.02750 0.49985 -0.03375
 O263 O 0.06560 0.50256 -0.03373
 O264 O 0.02728 0.49716 -0.07178
 Zr265 Zr -0.00304 0.46405 -0.00335
 Zr266 Zr -0.00301 0.53559 -0.00322
 O267 O 0.03192 0.52068 -0.00324
 O268 O 0.03222 0.47831 -0.00331
 O269 O -0.00302 0.52116 0.03192
 O270 O -0.00305 0.47899 -0.03818
 O271 O -0.00304 0.47886 0.03153
 O272 O -0.00303 0.52135 -0.03842
 H273 H -0.05206 0.53182 -0.00325
 H274 H -0.00306 0.46807 -0.05229
 H275 H 0.04604 0.53161 -0.00321
 H276 H -0.00303 0.46792 0.04564
 H277 H -0.02357 0.51062 -0.07808
 H278 H 0.01764 0.51078 -0.07807
 H279 H 0.07193 0.48925 -0.02370
 H280 H 0.07195 0.48870 0.01744
 H281 H 0.01766 0.51026 0.07157
 H282 H -0.02347 0.51001 0.07154
 H283 H -0.07801 0.48882 0.01741
 H284 H -0.07800 0.48935 -0.02378
 O285 O 0.95885 0.04481 0.53430
 O286 O 0.98227 0.02294 0.56057
 C287 C 0.96542 0.03841 0.55581
 O288 O 0.96104 -0.04093 0.46639
 O289 O 0.98272 -0.01764 0.43992
 C290 C 0.96729 -0.03443 0.44483
 O291 O 0.95907 -0.03883 0.53410
 O292 O 0.98239 -0.01705 0.56048
 C293 C 0.96562 -0.03254 0.55564
 O294 O 0.96081 0.04727 0.46660
 O295 O 0.98259 0.02416 0.44002
 C296 C 0.96706 0.04088 0.44501
 Zr297 Zr 0.97237 0.03357 0.50036
 O298 O 0.93425 0.03340 0.49779
 O299 O 0.97238 0.07158 0.50318
 Zr300 Zr 0.97252 -0.02736 0.50023
 O301 O 0.93440 -0.02729 0.49764
 O302 O 0.97273 -0.06539 0.50288
 O303 O 0.96783 0.00304 0.52177
 O304 O 0.96794 0.00315 0.47940
 O305 O 1.04468 0.04733 0.46621
 O306 O 1.02269 0.02421 0.43986
 C307 C 1.03823 0.04092 0.44468
 O308 O 1.04742 -0.03873 0.53376
 O309 O 1.02427 -0.01698 0.56031
 C310 C 1.04104 -0.03244 0.55534
 O311 O 1.04481 -0.04082 0.46605
 O312 O 1.02276 -0.01757 0.43977
 C313 C 1.03832 -0.03433 0.44454
 O314 O 1.04721 0.04496 0.53391
 O315 O 1.02415 0.02303 0.56038
 C316 C 1.04085 0.03856 0.55547
 Zr317 Zr 1.03345 0.03364 0.50010
 O318 O 1.07155 0.03357 0.49725
 O319 O 1.03323 0.07166 0.50288
 Zr320 Zr 1.03360 -0.02729 0.49998
 O321 O 1.07169 -0.02712 0.49706
 O322 O 1.03362 -0.06532 0.50264
 Zr323 Zr 1.00315 0.00305 0.53595
 Zr324 Zr 1.00281 0.00323 0.46439
 O325 O 1.03782 0.00323 0.47911
 O326 O 1.03834 0.00313 0.52148
 O327 O 1.00279 0.03837 0.47878
 O328 O 1.00317 -0.03177 0.52100
 O329 O 1.00300 0.03794 0.52114
 O330 O 1.00297 -0.03197 0.47864
 H331 H 0.95377 0.00315 0.46852
 H332 H 1.00326 -0.04590 0.53190
 H333 H 1.05189 0.00327 0.46811
 H334 H 1.00301 0.05201 0.53211
 H335 H 0.98253 -0.07165 0.48937
 H336 H 1.02373 -0.07161 0.48922
 H337 H 1.07806 -0.01743 0.51058
 H338 H 1.07793 0.02370 0.51066
 H339 H 1.02341 0.07797 0.48939
 H340 H 0.98218 0.07793 0.48973
 H341 H 0.92803 0.02356 0.51127
 H342 H 0.92812 -0.01757 0.51118
 C343 C 1.14546 0.14758 0.24654
 C344 C 1.13626 0.13867 0.26408
 C345 C 1.12525 0.12792 0.28495
 C346 C 1.10665 0.13992 0.29707
 C347 C 1.09581 0.12938 0.31722
 C348 C 1.10344 0.10665 0.32550
 C349 C 1.12221 0.09477 0.31321
 C350 C 1.13303 0.10535 0.29309
 C351 C 1.09181 0.09530 0.34676
 C352 C 1.08683 0.07046 0.34696
 C353 C 1.07592 0.05976 0.36697
 C354 C 1.06985 0.07371 0.38706
 C355 C 1.07468 0.09844 0.38705
 C356 C 1.08557 0.10919 0.36703
 C357 C 1.05869 0.06256 0.40763
 C358 C 1.04935 0.05289 0.42468
 H359 H 1.10044 0.15736 0.29088
 H360 H 1.08122 0.13883 0.32609
 H361 H 1.12872 0.07742 0.31933
 H362 H 1.14745 0.09594 0.28387
 H363 H 1.09107 0.05935 0.33151
 H364 H 1.07219 0.04062 0.36675
 H365 H 1.07009 0.10939 0.40253
 H366 H 1.08942 0.12829 0.36755
 C367 C 0.85947 -0.14350 0.24832
 C368 C 0.86881 -0.13438 0.26568
 C369 C 0.87995 -0.12340 0.28636
 C370 C 0.89987 -0.13434 0.29737
 C371 C 0.91078 -0.12361 0.31737
 C372 C 0.90186 -0.10176 0.32665
 C373 C 0.88179 -0.09093 0.31547
 C374 C 0.87093 -0.10169 0.29546
 C375 C 0.91348 -0.09027 0.34785
 C376 C 0.89936 -0.07941 0.36590
 C377 C 0.91031 -0.06840 0.38573
 C378 C 0.93548 -0.06809 0.38780
 C379 C 0.94968 -0.07890 0.36998
 C380 C 0.93878 -0.08993 0.35014
 C381 C 0.94672 -0.05644 0.40805
 C382 C 0.95611 -0.04650 0.42491
 H383 H 0.90696 -0.15119 0.29051
 H384 H 0.92600 -0.13254 0.32576
 H385 H 0.87471 -0.07396 0.32197
 H386 H 0.85556 -0.09303 0.28703
 H387 H 0.87985 -0.07964 0.36482
 H388 H 0.89914 -0.06012 0.39944
 H389 H 0.96919 -0.07867 0.37135
 H390 H 0.95014 -0.09785 0.33640
 C391 C 0.85462 0.14236 0.75349
 C392 C 0.86410 0.13345 0.73609
 C393 C 0.87548 0.12277 0.71538
 C394 C 0.86412 0.12365 0.69287
 C395 C 0.87516 0.11324 0.67276
 C396 C 0.89775 0.10183 0.67490
 C397 C 0.90901 0.10105 0.69762
 C398 C 0.89793 0.11145 0.71770
 C399 C 0.90954 0.09079 0.65356
 C400 C 0.93457 0.09312 0.64999
 C401 C 0.94568 0.08260 0.62999
 C402 C 0.93196 0.06962 0.61329
 C403 C 0.90705 0.06723 0.61664
 C404 C 0.89589 0.07775 0.63663
 C405 C 0.94351 0.05864 0.59284
 C406 C 0.95339 0.04943 0.57583
 H407 H 0.84676 0.13243 0.69086
 H408 H 0.86617 0.11441 0.65548
 H409 H 0.92625 0.09212 0.69992
 H410 H 0.90686 0.11060 0.73505
 H411 H 0.94552 0.10331 0.66251
 H412 H 0.96498 0.08460 0.62754
 H413 H 0.89627 0.05715 0.60387
 H414 H 0.87664 0.07539 0.63902
 C415 C 1.14693 -0.14168 0.75293
 C416 C 1.13839 -0.13198 0.73545
 C417 C 1.12809 -0.12043 0.71464
 C418 C 1.12947 -0.13153 0.69206
 C419 C 1.11922 -0.12046 0.67188
 C420 C 1.10744 -0.09809 0.67401
 C421 C 1.10624 -0.08703 0.69678
 C422 C 1.11649 -0.09815 0.71695
 C423 C 1.09626 -0.08646 0.65264
 C424 C 1.09806 -0.06143 0.64915
 C425 C 1.08729 -0.05049 0.62916
 C426 C 1.07458 -0.06440 0.61242
 C427 C 1.07274 -0.08931 0.61569
 C428 C 1.08351 -0.10029 0.63565
 C429 C 1.06307 -0.05309 0.59211
 C430 C 1.05317 -0.04365 0.57522
 H431 H 1.13846 -0.14875 0.69006
 H432 H 1.12072 -0.12927 0.65455
 H433 H 1.09703 -0.06998 0.69907
 H434 H 1.11524 -0.08944 0.73436
 H435 H 1.10799 -0.05034 0.66175
 H436 H 1.08882 -0.03118 0.62679
 H437 H 1.06283 -0.10023 0.60290
 H438 H 1.08151 -0.11954 0.63801
 C439 C 0.24746 1.14529 1.14397
 C440 C 0.26480 1.13584 1.13484
 C441 C 0.28543 1.12452 1.12388
 C442 C 0.30789 1.13602 1.12415
 C443 C 0.32792 1.12505 1.11345
 C444 C 0.32572 1.10241 1.10229
 C445 C 0.30305 1.09099 1.10213
 C446 C 0.28306 1.10199 1.11287
 C447 C 0.34696 1.09074 1.09086
 C448 C 0.34456 1.07855 1.06878
 C449 C 0.36452 1.06742 1.05811
 C450 C 0.38711 1.06831 1.06935
 C451 C 0.38971 1.08044 1.09128
 C452 C 0.36978 1.09160 1.10197
 C453 C 0.40753 1.05655 1.05847
 C454 C 0.42450 1.04652 1.04929
 H455 H 0.30990 1.15349 1.13257
 H456 H 0.34504 1.13442 1.11361
 H457 H 0.30085 1.07343 1.09398
 H458 H 0.26578 1.09289 1.11261
 H459 H 0.32732 1.07784 1.05962
 H460 H 0.36232 1.05812 1.04110
 H461 H 0.40710 1.08116 1.10017
 H462 H 0.37214 1.10058 1.11911
 C463 C 0.24638 0.85390 0.85801
 C464 C 0.26374 0.86254 0.86783
 C465 C 0.28441 0.87298 0.87954
 C466 C 0.28272 0.89583 0.89001
 C467 C 0.30281 0.90606 0.90129
 C468 C 0.32489 0.89355 0.90223
 C469 C 0.32640 0.87056 0.89166
 C470 C 0.30628 0.86036 0.88041
 C471 C 0.34628 0.90450 0.91405
 C472 C 0.36935 0.90230 0.90368
 C473 C 0.38941 0.91293 0.91464
 C474 C 0.38671 0.92583 0.93610
 C475 C 0.36387 0.92800 0.94664
 C476 C 0.34378 0.91742 0.93570
 C477 C 0.40726 0.93720 0.94713
 C478 C 0.42431 0.94699 0.95638
 H479 H 0.26590 0.90579 0.88937
 H480 H 0.30116 0.92391 0.90895
 H481 H 0.34305 0.86037 0.89234
 H482 H 0.30777 0.84263 0.87241
 H483 H 0.37181 0.89273 0.88687
 H484 H 0.40700 0.91122 0.90628
 H485 H 0.36158 0.93793 0.96327
 H486 H 0.32633 0.91916 0.94429
 C487 C 0.75521 0.85635 1.14784
 C488 C 0.73747 0.86540 1.13904
 C489 C 0.71635 0.87621 1.12845
 C490 C 0.70433 0.86464 1.10956
 C491 C 0.68393 0.87521 1.09912
 C492 C 0.67528 0.89754 1.10744
 C493 C 0.68747 0.90900 1.12649
 C494 C 0.70785 0.89839 1.13692
 C495 C 0.65374 0.90888 1.09619
 C496 C 0.65313 0.93383 1.09176
 C497 C 0.63300 0.94443 1.08084
 C498 C 0.61319 0.93026 1.07424
 C499 C 0.61356 0.90546 1.07868
 C500 C 0.63368 0.89482 1.08958
 C501 C 0.59268 0.94112 1.06258
 C502 C 0.57563 0.95025 1.05260
 H503 H 0.71080 0.84751 1.10281
 H504 H 0.67515 0.86609 1.08428
 H505 H 0.68108 0.92605 1.13350
 H506 H 0.71698 0.90747 1.15158
 H507 H 0.66840 0.94509 1.09635
 H508 H 0.63295 0.96363 1.07739
 H509 H 0.59831 0.89433 1.07368
 H510 H 0.63346 0.87563 1.09304
 C511 C 0.75182 1.13963 0.85529
 C512 C 0.73455 1.13006 0.86439
 C513 C 0.71396 1.11866 0.87533
 C514 C 0.71718 1.09906 0.89086
 C515 C 0.69722 1.08807 0.90161
 C516 C 0.67373 1.09658 0.89699
 C517 C 0.67069 1.11628 0.88132
 C518 C 0.69068 1.12723 0.87057
 C519 C 0.65251 1.08506 0.90858
 C520 C 0.63339 1.09918 0.91747
 C521 C 0.61353 1.08835 0.92858
 C522 C 0.61249 1.06329 0.93094
 C523 C 0.63137 1.04907 0.92209
 C524 C 0.65126 1.05986 0.91099
 C525 C 0.59221 1.05221 0.94271
 C526 C 0.57530 1.04296 0.95276
 H527 H 0.73514 1.09234 0.89473
 H528 H 0.70018 1.07316 0.91384
 H529 H 0.65283 1.12306 0.87717
 H530 H 0.68797 1.14236 0.85853
 H531 H 0.63396 1.11863 0.91618
 H532 H 0.59907 1.09954 0.93546
 H533 H 0.63074 1.02964 0.92380
 H534 H 0.66554 1.04848 0.90407
 C535 C 0.14432 0.24856 0.14139
 C536 C 0.13498 0.26567 0.13177
 C537 C 0.12378 0.28607 0.12028
 C538 C 0.10305 0.28290 0.10623
 C539 C 0.09210 0.30270 0.09511
 C540 C 0.10176 0.32596 0.09790
 C541 C 0.12264 0.32893 0.11203
 C542 C 0.13356 0.30911 0.12314
 C543 C 0.09006 0.34702 0.08619
 C544 C 0.10408 0.36523 0.07550
 C545 C 0.09303 0.38505 0.06451
 C546 C 0.06784 0.38694 0.06407
 C547 C 0.05374 0.36893 0.07465
 C548 C 0.06475 0.34910 0.08563
 C549 C 0.05642 0.40733 0.05278
 C550 C 0.04663 0.42429 0.04336
 H551 H 0.09537 0.26513 0.10383
 H552 H 0.07624 0.29977 0.08410
 H553 H 0.13034 0.34663 0.11477
 H554 H 0.14956 0.31177 0.13404
 H555 H 0.12359 0.36401 0.07536
 H556 H 0.10412 0.39886 0.05631
 H557 H 0.03423 0.37025 0.07447
 H558 H 0.05347 0.33555 0.09398
 C559 C -0.14797 0.24554 -0.14362
 C560 C -0.13931 0.26321 -0.13444
 C561 C -0.12886 0.28423 -0.12345
 C562 C -0.11665 0.28226 -0.10148
 C563 C -0.10630 0.30261 -0.09088
 C564 C -0.10802 0.32526 -0.10216
 C565 C -0.12041 0.32706 -0.12422
 C566 C -0.13076 0.30668 -0.13478
 C567 C -0.09675 0.34683 -0.09105
 C568 C -0.08453 0.36380 -0.10538
 C569 C -0.07358 0.38388 -0.09486
 C570 C -0.07472 0.38731 -0.06992
 C571 C -0.08694 0.37062 -0.05553
 C572 C -0.09789 0.35051 -0.06600
 C573 C -0.06302 0.40772 -0.05905
 C574 C -0.05301 0.42466 -0.04987
 H575 H -0.11501 0.26496 -0.09259
 H576 H -0.09661 0.30057 -0.07406
 H577 H -0.12230 0.34428 -0.13319
 H578 H -0.14024 0.30843 -0.15176
 H579 H -0.08305 0.36131 -0.12466
 H580 H -0.06406 0.39664 -0.10616
 H581 H -0.08796 0.37311 -0.03620
 H582 H -0.10742 0.33795 -0.05452
 C583 C 0.14132 0.75286 -0.14659
 C584 C 0.13159 0.73543 -0.13806
 C585 C 0.12002 0.71464 -0.12778
 C586 C 0.13046 0.69183 -0.13035
 C587 C 0.11938 0.67166 -0.12014
 C588 C 0.09767 0.67405 -0.10719
 C589 C 0.08727 0.69706 -0.10481
 C590 C 0.09839 0.71720 -0.11503
 C591 C 0.08607 0.65268 -0.09602
 C592 C 0.06083 0.64991 -0.09657
 C593 C 0.04994 0.62992 -0.08578
 C594 C 0.06412 0.61248 -0.07430
 C595 C 0.08923 0.61503 -0.07372
 C596 C 0.10015 0.63498 -0.08452
 C597 C 0.05291 0.59215 -0.06278
 C598 C 0.04358 0.57522 -0.05290
 H599 H 0.14716 0.68963 -0.14024
 H600 H 0.12766 0.65416 -0.12256
 H601 H 0.07076 0.69954 -0.09469
 H602 H 0.09020 0.73479 -0.11286
 H603 H 0.04953 0.66306 -0.10555
 H604 H 0.03048 0.62811 -0.08635
 H605 H 0.10036 0.60169 -0.06478
 H606 H 0.11959 0.63676 -0.08349
 C607 C -0.14159 0.75306 0.14568
 C608 C -0.13267 0.73553 0.13647
 C609 C -0.12205 0.71464 0.12536
 C610 C -0.10054 0.70497 0.13440
 C611 C -0.09013 0.68479 0.12349
 C612 C -0.10114 0.67399 0.10336
 C613 C -0.12280 0.68382 0.09445
 C614 C -0.13316 0.70401 0.10538
 C615 C -0.09003 0.65265 0.09163
 C616 C -0.10450 0.63350 0.08347
 C617 C -0.09404 0.61354 0.07220
 C618 C -0.06903 0.61244 0.06894
 C619 C -0.05447 0.63135 0.07706
 C620 C -0.06488 0.65132 0.08834
 C621 C -0.05832 0.59207 0.05702
 C622 C -0.04928 0.57513 0.04687
 H623 H -0.09182 0.71301 0.14990
 H624 H -0.07362 0.67746 0.13095
 H625 H -0.13154 0.67613 0.07881
 H626 H -0.14978 0.71140 0.09819
 H627 H -0.12387 0.63385 0.08600
 H628 H -0.10547 0.59899 0.06602
 H629 H -0.03509 0.63073 0.07453
 H630 H -0.05330 0.66591 0.09413
 C631 C 1.14843 0.14651 0.75265
 C632 C 1.13947 0.13726 0.73516
 C633 C 1.12865 0.12620 0.71436
 C634 C 1.13951 0.10612 0.70366
 C635 C 1.12887 0.09524 0.68360
 C636 C 1.10717 0.10430 0.67399
 C637 C 1.09643 0.12454 0.68486
 C638 C 1.10712 0.13540 0.70490
 C639 C 1.09569 0.09262 0.65284
 C640 C 1.07050 0.08962 0.65187
 C641 C 1.05968 0.07862 0.63198
 C642 C 1.07386 0.07050 0.61278
 C643 C 1.09893 0.07339 0.61355
 C644 C 1.10980 0.08436 0.63345
 C645 C 1.06260 0.05920 0.59235
 C646 C 1.05286 0.04977 0.57540
 H647 H 1.15614 0.09880 0.71090
 H648 H 1.13740 0.07950 0.67583
 H649 H 1.07991 0.13213 0.67769
 H650 H 1.09859 0.15098 0.71301
 H651 H 1.05918 0.09548 0.66665
 H652 H 1.04025 0.07640 0.63160
 H653 H 1.11007 0.06721 0.59876
 H654 H 1.12920 0.08668 0.63353
 C655 C 0.85617 -0.14183 0.75097
 C656 C 0.86538 -0.13235 0.73374
 C657 C 0.87648 -0.12104 0.71324
 C658 C 0.86886 -0.09820 0.70576
 C659 C 0.87977 -0.08713 0.68594
 C660 C 0.89847 -0.09878 0.67337
 C661 C 0.90596 -0.12177 0.68102
 C662 C 0.89502 -0.13281 0.70082
 C663 C 0.91019 -0.08698 0.65242
 C664 C 0.93534 -0.08850 0.64920
 C665 C 0.94638 -0.07739 0.62949
 C666 C 0.93246 -0.06466 0.61273
 C667 C 0.90745 -0.06302 0.61577
 C668 C 0.89636 -0.07410 0.63548
 C669 C 0.94391 -0.05327 0.59247
 C670 C 0.95370 -0.04378 0.57558
 H671 H 0.85458 -0.08890 0.71530
 H672 H 0.87382 -0.06930 0.68068
 H673 H 0.92009 -0.13133 0.67152
 H674 H 0.90101 -0.15053 0.70644
 H675 H 0.94651 -0.09799 0.66210
 H676 H 0.96577 -0.07870 0.62736
 H677 H 0.89650 -0.05325 0.60286
 H678 H 0.87695 -0.07285 0.63731
 C679 C 1.14269 -0.14543 0.24745
 C680 C 1.13372 -0.13591 0.26478
 C681 C 1.12295 -0.12449 0.28539
 C682 C 1.11134 -0.10224 0.28287
 C683 C 1.10085 -0.09111 0.30286
 C684 C 1.10182 -0.10212 0.32568
 C685 C 1.11352 -0.12451 0.32802
 C686 C 1.12402 -0.13560 0.30799
 C687 C 1.09069 -0.09029 0.34693
 C688 C 1.07785 -0.10390 0.36403
 C689 C 1.06731 -0.09271 0.38398
 C690 C 1.06949 -0.06781 0.38711
 C691 C 1.08226 -0.05412 0.37023
 C692 C 1.09279 -0.06526 0.35027
 C693 C 1.05854 -0.05624 0.40754
 C694 C 1.04933 -0.04636 0.42453
 H695 H 1.11035 -0.09352 0.26543
 H696 H 1.09169 -0.07405 0.30041
 H697 H 1.11484 -0.13328 0.34539
 H698 H 1.13302 -0.15280 0.31015
 H699 H 1.07565 -0.12314 0.36179
 H700 H 1.05739 -0.10346 0.39690
 H701 H 1.08409 -0.03483 0.37251
 H702 H 1.10282 -0.05435 0.33760
 C703 C 0.85688 0.14804 0.24870
 C704 C 0.86663 0.13945 0.26611
 C705 C 0.87823 0.12905 0.28685
 C706 C 0.86556 0.12671 0.30851
 C707 C 0.87669 0.11627 0.32857
 C708 C 0.90068 0.10805 0.32721
 C709 C 0.91331 0.11061 0.30537
 C710 C 0.90213 0.12103 0.28533
 C711 C 0.91240 0.09662 0.34838
 C712 C 0.93665 0.10162 0.35405
 C713 C 0.94771 0.09062 0.37385
 C714 C 0.93472 0.07449 0.38822
 C715 C 0.91059 0.06945 0.38277
 C716 C 0.89948 0.08044 0.36300
 C717 C 0.94619 0.06289 0.40837
 C718 C 0.95575 0.05296 0.42517
 H719 H 0.84706 0.13291 0.30989
 H720 H 0.86660 0.11484 0.34520
 H721 H 0.93168 0.10417 0.30367
 H722 H 0.91208 0.12268 0.26862
 H723 H 0.94697 0.11421 0.34332
 H724 H 0.96640 0.09467 0.37794
 H725 H 0.90040 0.05691 0.39371
 H726 H 0.88091 0.07596 0.35891
 C727 C 0.14612 0.24836 -0.14483
 C728 C 0.13667 0.26563 -0.13564
 C729 C 0.12537 0.28617 -0.12459
 C730 C 0.10812 0.28288 -0.10650
 C731 C 0.09712 0.30281 -0.09572
 C732 C 0.10325 0.32632 -0.10292
 C733 C 0.12063 0.32943 -0.12112
 C734 C 0.13162 0.30947 -0.13186
 C735 C 0.09150 0.34749 -0.09153
 C736 C 0.08439 0.36739 -0.10555
 C737 C 0.07314 0.38722 -0.09484
 C738 C 0.06888 0.38744 -0.07001
 C739 C 0.07595 0.36777 -0.05589
 C740 C 0.08718 0.34792 -0.06656
 C741 C 0.05702 0.40770 -0.05904
 C742 C 0.04693 0.42457 -0.04982
 H743 H 0.10311 0.26492 -0.10077
 H744 H 0.08359 0.29982 -0.08198
 H745 H 0.12595 0.34729 -0.12683
 H746 H 0.14502 0.31221 -0.14580
 H747 H 0.08718 0.36746 -0.12485
 H748 H 0.06765 0.40231 -0.10594
 H749 H 0.07277 0.36779 -0.03664
 H750 H 0.09272 0.33301 -0.05525
 C751 C -0.14685 0.24828 0.14300
 C752 C -0.13808 0.26550 0.13312
 C753 C -0.12746 0.28597 0.12132
 C754 C -0.13385 0.30933 0.12833
 C755 C -0.12338 0.32922 0.11697
 C756 C -0.10635 0.32598 0.09846
 C757 C -0.10010 0.30241 0.09152
 C758 C -0.11060 0.28256 0.10288
 C759 C -0.09503 0.34706 0.08655
 C760 C -0.07026 0.34691 0.08099
 C761 C -0.05956 0.36678 0.06987
 C762 C -0.07344 0.38705 0.06414
 C763 C -0.09811 0.38739 0.06954
 C764 C -0.10885 0.36753 0.08070
 C765 C -0.06229 0.40750 0.05281
 C766 C -0.05261 0.42447 0.04336
 H767 H -0.14682 0.31217 0.14264
 H768 H -0.12833 0.34712 0.12292
 H769 H -0.08727 0.29934 0.07714
 H770 H -0.10557 0.26456 0.09728
 H771 H -0.05908 0.33156 0.08556
 H772 H -0.04043 0.36638 0.06583
 H773 H -0.10903 0.40297 0.06512
 H774 H -0.12801 0.36806 0.08449
 C775 C -0.14362 0.75408 -0.14876
 C776 C -0.13437 0.73650 -0.13994
 C777 C -0.12331 0.71556 -0.12936
 C778 C -0.13470 0.69314 -0.13094
 C779 C -0.12406 0.67282 -0.12050
 C780 C -0.10185 0.67467 -0.10834
 C781 C -0.09050 0.69728 -0.10694
 C782 C -0.10118 0.71758 -0.11738
 C783 C -0.09067 0.65316 -0.09696
 C784 C -0.06559 0.64936 -0.09825
 C785 C -0.05507 0.62927 -0.08724
 C786 C -0.06947 0.61273 -0.07481
 C787 C -0.09444 0.61629 -0.07350
 C788 C -0.10499 0.63635 -0.08450
 C789 C -0.05859 0.59232 -0.06309
 C790 C -0.04944 0.57534 -0.05308
 H791 H -0.15181 0.69136 -0.14024
 H792 H -0.13308 0.65561 -0.12215
 H793 H -0.07356 0.69936 -0.09744
 H794 H -0.09224 0.73487 -0.11600
 H795 H -0.05412 0.66180 -0.10796
 H796 H -0.03572 0.62667 -0.08838
 H797 H -0.10573 0.60364 -0.06383
 H798 H -0.12430 0.63894 -0.08291
 C799 C 0.13948 0.75067 0.14542
 C800 C 0.12995 0.73341 0.13635
 C801 C 0.11859 0.71286 0.12540
 C802 C 0.09744 0.71579 0.11193
 C803 C 0.08654 0.69590 0.10103
 C804 C 0.09669 0.67278 0.10346
 C805 C 0.11792 0.67002 0.11712
 C806 C 0.12878 0.68994 0.12801
 C807 C 0.08530 0.65169 0.09163
 C808 C 0.09960 0.63402 0.08038
 C809 C 0.08886 0.61428 0.06904
 C810 C 0.06372 0.61192 0.06881
 C811 C 0.04933 0.62936 0.07999
 C812 C 0.06003 0.64912 0.09133
 C813 C 0.05271 0.59174 0.05689
 C814 C 0.04348 0.57492 0.04677
 H815 H 0.08945 0.73348 0.10973
 H816 H 0.07040 0.69866 0.09037
 H817 H 0.12599 0.65242 0.11958
 H818 H 0.14513 0.68747 0.13846
 H819 H 0.11906 0.63566 0.08000
 H820 H 0.10016 0.60094 0.06033
 H821 H 0.02985 0.62768 0.07994
 H822 H 0.04855 0.66225 0.10009
 C823 C 0.24938 1.14536 0.85799
 C824 C 0.26647 1.13603 0.86767
 C825 C 0.28682 1.12482 0.87926
 C826 C 0.28373 1.11252 0.90103
 C827 C 0.30345 1.10148 0.91224
 C828 C 0.32655 1.10261 0.90179
 C829 C 0.32948 1.11509 0.87992
 C830 C 0.30973 1.12611 0.86874
 C831 C 0.34747 1.09073 0.91359
 C832 C 0.37017 1.10207 0.91419
 C833 C 0.38986 1.09079 0.92521
 C834 C 0.38715 1.06807 0.93576
 C835 C 0.36465 1.05666 0.93528
 C836 C 0.34493 1.06790 0.92429
 C837 C 0.40743 1.05636 0.94695
 C838 C 0.42435 1.04639 0.95629
 H839 H 0.26608 1.11148 0.90936
 H840 H 0.30067 1.09229 0.92921
 H841 H 0.34696 1.11602 0.87128
 H842 H 0.31230 1.13554 0.85185
 H843 H 0.37261 1.11977 0.90639
 H844 H 0.40719 1.09980 0.92553
 H845 H 0.36238 1.03902 0.94332
 H846 H 0.32778 1.05857 0.92385
 C847 C 0.24580 0.85209 1.14433
 C848 C 0.26340 0.86079 1.13503
 C849 C 0.28435 0.87126 1.12388
 C850 C 0.28192 0.88471 1.10270
 C851 C 0.30222 0.89503 1.09192
 C852 C 0.32525 0.89206 1.10223
 C853 C 0.32750 0.87845 1.12350
 C854 C 0.30717 0.86812 1.13424
 C855 C 0.34677 0.90327 1.09094
 C856 C 0.36465 0.91417 1.10526
 C857 C 0.38471 0.92507 1.09460
 C858 C 0.38720 0.92520 1.06953
 C859 C 0.36960 0.91430 1.05513
 C860 C 0.34951 0.90340 1.06574
 C861 C 0.40761 0.93686 1.05857
 C862 C 0.42456 0.94683 1.04935
 H863 H 0.26433 0.88731 1.09458
 H864 H 0.29985 0.90567 1.07575
 H865 H 0.34500 0.87558 1.13170
 H866 H 0.30925 0.85769 1.15060
 H867 H 0.36290 0.91466 1.12467
 H868 H 0.39818 0.93356 1.10591
 H869 H 0.37137 0.91427 1.03569
 H870 H 0.33623 0.89489 1.05425
 C871 C 0.75180 1.14197 1.14768
 C872 C 0.73461 1.13201 1.13889
 C873 C 0.71414 1.12014 1.12826
 C874 C 0.69170 1.12073 1.13980
 C875 C 0.67176 1.10939 1.12936
 C876 C 0.67404 1.09729 1.10721
 C877 C 0.69670 1.09673 1.09581
 C878 C 0.71661 1.10810 1.10627
 C879 C 0.65283 1.08547 1.09595
 C880 C 0.65521 1.06293 1.08463
 C881 C 0.63530 1.05198 1.07374
 C882 C 0.61278 1.06341 1.07398
 C883 C 0.61019 1.08578 1.08527
 C884 C 0.63007 1.09675 1.09621
 C885 C 0.59243 1.05233 1.06235
 C886 C 0.57549 1.04306 1.05241
 H887 H 0.68962 1.12995 1.15687
 H888 H 0.65463 1.10987 1.13872
 H889 H 0.69895 1.08783 1.07861
 H890 H 0.73388 1.10760 1.09715
 H891 H 0.67241 1.05367 1.08440
 H892 H 0.63748 1.03464 1.06508
 H893 H 0.59285 1.09483 1.08548
 H894 H 0.62774 1.11425 1.10449
 C895 C 0.75271 0.85686 0.85370
 C896 C 0.73526 0.86588 0.86302
 C897 C 0.71447 0.87667 0.87419
 C898 C 0.70522 0.89842 0.86540
 C899 C 0.68510 0.90899 0.87633
 C900 C 0.67397 0.89789 0.89622
 C901 C 0.68340 0.87599 0.90488
 C902 C 0.70352 0.86548 0.89393
 C903 C 0.65268 0.90914 0.90795
 C904 C 0.63321 0.89489 0.91577
 C905 C 0.61330 0.90546 0.92704
 C906 C 0.61258 0.93039 0.93065
 C907 C 0.63180 0.94473 0.92287
 C908 C 0.65172 0.93420 0.91157
 C909 C 0.59225 0.94120 0.94258
 C910 C 0.57533 0.95030 0.95274
 H911 H 0.71354 0.90721 0.85009
 H912 H 0.67809 0.92568 0.86906
 H913 H 0.67544 0.86718 0.92035
 H914 H 0.71059 0.84867 0.90092
 H915 H 0.63328 0.87560 0.91295
 H916 H 0.59849 0.89420 0.93296
 H917 H 0.63145 0.96404 0.92566
 H918 H 0.66656 0.94561 0.90605
   
