data_POSCAR
  _audit_creation_date              2014-09-24
  _audit_creation_method            'ToBaCCo'
  _symmetry_space_group_name_H-M    'P1'
  _symmetry_Int_Tables_number       1
  _symmetry_cell_setting            triclinic
  loop_
  _symmetry_equiv_pos_as_xyz
 x,y,z
_cell_length_a 38.7020
_cell_length_b 41.5659
_cell_length_c 28.1912
_cell_angle_alpha 89.923500
_cell_angle_beta 89.924100
_cell_angle_gamma 90.123300
loop_
  _atom_site_label
  _atom_site_type_symbol
  _atom_site_fract_x
  _atom_site_fract_y
  _atom_site_fract_z
C1 C 0.34373 0.23521 0.32062
 C2 C 0.34257 0.26818 0.32174
 C3 C 0.30891 0.27670 0.31110
 N4 N 0.28934 0.25016 0.30396
 C5 C 0.31050 0.22468 0.31031
 C6 C 0.29614 0.30843 0.31036
 C7 C 0.26453 0.31634 0.28851
 C8 C 0.24661 0.34483 0.29500
 C9 C 0.21956 0.34450 0.26330
 C10 C 0.22203 0.31594 0.23812
 N11 N 0.24925 0.29878 0.25413
 C12 C 0.20172 0.30740 0.19846
 C13 C 0.20070 0.27547 0.18158
 C14 C 0.18914 0.26615 0.13721
 C15 C 0.18982 0.23315 0.13672
 C16 C 0.20125 0.22345 0.18113
 N17 N 0.20836 0.24939 0.20825
 C18 C 0.20315 0.19128 0.19762
 C19 C 0.22455 0.18356 0.23688
 C20 C 0.22060 0.15691 0.26613
 C21 C 0.24791 0.15711 0.29721
 C22 C 0.26767 0.18402 0.28648
 N23 N 0.25289 0.20043 0.25032
 C24 C 0.29941 0.19219 0.30850
 H25 H 0.36655 0.22075 0.32640
 H26 H 0.36412 0.28406 0.32896
 H27 H 0.26356 0.22015 0.23262
 H28 H 0.25279 0.36410 0.31937
 H29 H 0.20074 0.36346 0.25866
 H30 H 0.18118 0.28151 0.10821
 H31 H 0.18263 0.21804 0.10708
 H32 H 0.25260 0.13952 0.32479
 H33 H 0.25950 0.27827 0.23830
 H34 H 0.20012 0.13916 0.26533
 C35 C 0.84220 0.23496 0.17372
 C36 C 0.84111 0.26789 0.17082
 C37 C 0.80896 0.27709 0.18768
 N38 N 0.79034 0.25098 0.20056
 C39 C 0.81062 0.22521 0.19204
 C40 C 0.79624 0.30888 0.18766
 C41 C 0.76556 0.31777 0.21129
 C42 C 0.74766 0.34618 0.20385
 C43 C 0.72056 0.34632 0.23556
 C44 C 0.72296 0.31815 0.26178
 N45 N 0.75040 0.30088 0.24666
 C46 C 0.70186 0.30985 0.30086
 C47 C 0.70136 0.27843 0.31996
 C48 C 0.68917 0.27043 0.36466
 C49 C 0.69026 0.23753 0.36772
 C50 C 0.70250 0.22647 0.32442
 N51 N 0.70972 0.25159 0.29547
 C52 C 0.70522 0.19371 0.31090
 C53 C 0.72685 0.18463 0.27243
 C54 C 0.72456 0.15599 0.24722
 C55 C 0.75159 0.15572 0.21556
 C56 C 0.76912 0.18450 0.22136
 N57 N 0.75384 0.20211 0.25579
 C58 C 0.79973 0.19301 0.19714
 H59 H 0.86363 0.21993 0.16302
 H60 H 0.86152 0.28328 0.15745
 H61 H 0.76356 0.22323 0.27059
 H62 H 0.75359 0.36489 0.17834
 H63 H 0.70154 0.36521 0.23918
 H64 H 0.68047 0.28664 0.39219
 H65 H 0.68282 0.22339 0.39834
 H66 H 0.75754 0.13661 0.19082
 H67 H 0.76041 0.28051 0.26311
 H68 H 0.70542 0.13716 0.25107
 C69 C 0.84372 0.73351 0.82136
 C70 C 0.84308 0.76647 0.82294
 C71 C 0.80969 0.77555 0.81172
 N72 N 0.78976 0.74931 0.80384
 C73 C 0.81045 0.72347 0.81020
 C74 C 0.79760 0.80754 0.81104
 C75 C 0.76635 0.81625 0.78885
 C76 C 0.74904 0.84503 0.79571
 C77 C 0.72212 0.84549 0.76385
 C78 C 0.72402 0.81709 0.73817
 N79 N 0.75089 0.79932 0.75396
 C80 C 0.70302 0.80906 0.69891
 C81 C 0.70105 0.77725 0.68159
 C82 C 0.68659 0.76813 0.63870
 C83 C 0.68657 0.73511 0.63813
 C84 C 0.70111 0.72526 0.68062
 N85 N 0.71008 0.75101 0.70700
 C86 C 0.70264 0.69322 0.69704
 C87 C 0.72420 0.68421 0.73520
 C88 C 0.72115 0.65596 0.76103
 C89 C 0.74844 0.65532 0.79220
 C90 C 0.76758 0.68312 0.78436
 N91 N 0.75234 0.70081 0.74996
 C92 C 0.79913 0.69102 0.80720
 H93 H 0.86628 0.71872 0.82728
 H94 H 0.86482 0.78199 0.83074
 H95 H 0.76269 0.72130 0.73395
 H96 H 0.75548 0.86393 0.82058
 H97 H 0.70364 0.86478 0.75962
 H98 H 0.67670 0.78361 0.61100
 H99 H 0.67659 0.72007 0.60997
 H100 H 0.75361 0.63648 0.81775
 H101 H 0.76084 0.77876 0.73792
 H102 H 0.70136 0.63766 0.75776
 C103 C 0.19332 0.73480 0.86786
 C104 C 0.19248 0.76773 0.86707
 C105 C 0.20163 0.77707 0.82150
 N106 N 0.20861 0.75095 0.79456
 C107 C 0.20292 0.72506 0.82273
 C108 C 0.20145 0.80916 0.80442
 C109 C 0.22284 0.81818 0.76565
 C110 C 0.21929 0.84574 0.73814
 C111 C 0.24657 0.84619 0.70676
 C112 C 0.26548 0.81852 0.71509
 N113 N 0.25086 0.80154 0.75085
 C114 C 0.29634 0.81026 0.69146
 C115 C 0.30925 0.77858 0.69047
 C116 C 0.34148 0.76978 0.67345
 C117 C 0.34245 0.73678 0.67433
 C118 C 0.31071 0.72664 0.69163
 N119 N 0.29047 0.75221 0.70155
 C120 C 0.29958 0.69440 0.69445
 C121 C 0.26863 0.68551 0.71742
 C122 C 0.25082 0.65709 0.70962
 C123 C 0.22357 0.65673 0.74096
 C124 C 0.22608 0.68459 0.76794
 N125 N 0.25329 0.70228 0.75266
 C126 C 0.20485 0.69271 0.80718
 H127 H 0.18768 0.71974 0.89824
 H128 H 0.18595 0.78311 0.89669
 H129 H 0.26312 0.72285 0.76896
 H130 H 0.19913 0.86368 0.74016
 H131 H 0.25168 0.86459 0.68045
 H132 H 0.36195 0.78547 0.66108
 H133 H 0.36386 0.72198 0.66286
 H134 H 0.20426 0.63796 0.74360
 H135 H 0.26134 0.78134 0.76733
 H136 H 0.25679 0.63862 0.68386
 O137 O 0.96830 -0.01006 -0.05392
 O138 O 1.03520 0.04012 0.00156
 O139 O 1.03561 -0.01077 -0.05320
 O140 O 0.96836 0.04012 0.00147
 O141 O 0.96831 0.00864 0.06452
 O142 O 1.03401 -0.04273 0.00934
 O143 O 1.03567 0.00797 0.06393
 O144 O 0.96733 -0.04156 0.00912
 Cu145 Cu 1.00199 0.01800 -0.03237
 Cu146 Cu 1.00132 -0.02002 0.04311
 C147 C 0.95643 -0.03445 -0.03208
 C148 C 1.04668 0.03283 0.04232
 C149 C 1.04577 -0.03586 -0.03149
 C150 C 0.95707 0.03318 0.04260
 O151 O 0.53384 0.54314 0.49438
 O152 O 0.46734 0.49194 0.44037
 O153 O 0.46719 0.54237 0.49509
 O154 O 0.53472 0.49179 0.44035
 O155 O 0.53369 0.46008 0.50321
 O156 O 0.46800 0.51128 0.55858
 O157 O 0.46702 0.46086 0.50388
 O158 O 0.53530 0.51139 0.55718
 Cu159 Cu 0.50088 0.52038 0.46111
 Cu160 Cu 0.50115 0.48282 0.53711
 C161 C 0.54555 0.53639 0.53521
 C162 C 0.45573 0.46767 0.46275
 C163 C 0.45631 0.53557 0.53649
 C164 C 0.54509 0.46682 0.46215
 O165 O 0.03914 0.50829 -0.06128
 O166 O -0.03066 0.45738 -0.01376
 O167 O -0.02810 0.50878 -0.06648
 O168 O 0.03596 0.45691 -0.00783
 O169 O 0.03519 0.48871 0.05484
 O170 O -0.03191 0.53834 -0.00176
 O171 O -0.03224 0.48692 0.05115
 O172 O 0.03496 0.54004 0.00115
 Cu173 Cu 0.00441 0.47984 -0.04379
 Cu174 Cu 0.00130 0.51652 0.03283
 C175 C 0.04852 0.53322 -0.03864
 C176 C -0.04310 0.46314 0.02706
 C177 C -0.04117 0.53231 -0.04404
 C178 C 0.04651 0.46397 0.03351
 O179 O 0.46774 1.04066 0.50306
 O180 O 0.53478 0.99115 0.56015
 O181 O 0.53459 1.04244 0.50636
 O182 O 0.46731 0.98933 0.55625
 O183 O 0.46903 0.95974 0.49139
 O184 O 0.53903 1.01053 0.44413
 O185 O 0.53561 0.95923 0.49761
 O186 O 0.47181 1.01101 0.43846
 Cu187 Cu 0.50088 1.01892 0.53794
 Cu188 Cu 0.50421 0.98212 0.46145
 C189 C 0.45865 1.03457 0.46072
 C190 C 0.54611 0.96636 0.53894
 C191 C 0.54830 1.03552 0.46670
 C192 C 0.45649 0.96553 0.53215
 C193 C 1.14108 0.11970 0.13324
 C194 C 1.17442 0.11179 0.14857
 C195 C 1.19507 0.13541 0.16952
 C196 C 1.18254 0.16695 0.17598
 C197 C 1.14867 0.17347 0.16033
 N198 N 1.12935 0.15019 0.13940
 C199 C 1.11848 0.09611 0.10948
 N200 N 1.09699 0.10656 0.07459
 C201 C 1.07466 0.08657 0.05199
 C202 C 1.07237 0.05406 0.06512
 C203 C 1.09409 0.04274 0.10127
 C204 C 1.11745 0.06364 0.12324
 H205 H 1.22124 0.12916 0.17941
 H206 H 1.13707 0.19684 0.16576
 H207 H 1.05810 0.09631 0.02462
 H208 H 1.09298 0.01784 0.11250
 H209 H 1.18479 0.08789 0.14323
 H210 H 1.13374 0.05473 0.15152
 C211 C 0.63571 0.62481 0.63040
 C212 C 0.62206 0.65366 0.64789
 C213 C 0.64371 0.67544 0.67078
 C214 C 0.67909 0.66892 0.67535
 C215 C 0.69162 0.63943 0.65822
 N216 N 0.66986 0.61827 0.63658
 C217 C 0.61353 0.60205 0.60442
 N218 N 0.61423 0.57012 0.61522
 C219 C 0.59312 0.54851 0.59330
 C220 C 0.57015 0.55876 0.55786
 C221 C 0.56985 0.59144 0.54544
 C222 C 0.59123 0.61316 0.56891
 H223 H 0.63296 0.69765 0.68435
 H224 H 0.71874 0.63350 0.66137
 H225 H 0.59422 0.52343 0.60358
 H226 H 0.55242 0.60035 0.51844
 H227 H 0.59488 0.65921 0.64401
 H228 H 0.59046 0.63839 0.55935
 C229 C -0.14308 0.37715 0.11053
 C230 C -0.16170 0.35338 0.08579
 C231 C -0.18216 0.33155 0.11091
 C232 C -0.18453 0.33361 0.16034
 C233 C -0.16694 0.35843 0.18363
 N234 N -0.14675 0.37916 0.15853
 C235 C -0.11885 0.39958 0.08649
 N236 N -0.10806 0.42632 0.11017
 C237 C -0.08454 0.44723 0.09170
 C238 C -0.07001 0.44159 0.04683
 C239 C -0.08083 0.41428 0.02167
 C240 C -0.10504 0.39323 0.04131
 H241 H -0.19580 0.31279 0.09195
 H242 H -0.16846 0.36071 0.22183
 H243 H -0.07691 0.46797 0.11240
 H244 H -0.07011 0.40881 -0.01289
 H245 H -0.16065 0.35139 0.04761
 H246 H -0.11178 0.37184 0.02162
 C247 C 0.35635 0.87939 0.61502
 C248 C 0.33776 0.85572 0.59004
 C249 C 0.31746 0.83366 0.61494
 C250 C 0.31519 0.83539 0.66442
 C251 C 0.33262 0.86020 0.68796
 N252 N 0.35271 0.88115 0.66305
 C253 C 0.38060 0.90192 0.59116
 N254 N 0.39138 0.92860 0.61500
 C255 C 0.41495 0.94953 0.59666
 C256 C 0.42953 0.94397 0.55180
 C257 C 0.41871 0.91673 0.52649
 C258 C 0.39446 0.89565 0.54598
 H259 H 0.30391 0.81493 0.59579
 H260 H 0.33116 0.86224 0.72618
 H261 H 0.42258 0.97022 0.61748
 H262 H 0.42946 0.91131 0.49194
 H263 H 0.33876 0.85395 0.55183
 H264 H 0.38775 0.87431 0.52618
 C265 C -0.13808 0.61809 -0.13357
 C266 C -0.15455 0.61281 -0.17727
 C267 C -0.17557 0.63673 -0.19651
 C268 C -0.18059 0.66605 -0.17252
 C269 C -0.16458 0.66973 -0.12803
 N270 N -0.14407 0.64616 -0.11019
 C271 C -0.11421 0.59441 -0.11178
 N272 N -0.10540 0.59825 -0.06537
 C273 C -0.08270 0.57855 -0.04293
 C274 C -0.06700 0.55314 -0.06754
 C275 C -0.07571 0.54857 -0.11535
 C276 C -0.09913 0.56913 -0.13763
 H277 H -0.18700 0.63263 -0.23104
 H278 H -0.16868 0.69118 -0.10704
 H279 H -0.07674 0.58301 -0.00602
 H280 H -0.06401 0.52943 -0.13582
 H281 H -0.15152 0.59063 -0.19671
 H282 H -0.10437 0.56551 -0.17486
 C283 C 0.36209 1.11994 0.36973
 C284 C 0.34479 1.11381 0.32690
 C285 C 0.32384 1.13752 0.30703
 C286 C 0.31974 1.16752 0.32949
 C287 C 0.33655 1.17207 0.37327
 N288 N 0.35695 1.14865 0.39175
 C289 C 0.38587 1.09641 0.39201
 N290 N 0.39487 1.10074 0.43826
 C291 C 0.41750 1.08112 0.46103
 C292 C 0.43292 1.05534 0.43693
 C293 C 0.42402 1.05032 0.38927
 C294 C 0.40068 1.07077 0.36667
 H295 H 0.31171 1.13269 0.27316
 H296 H 0.33308 1.19403 0.39328
 H297 H 0.42364 1.08595 0.49778
 H298 H 0.43550 1.03089 0.36918
 H299 H 0.34711 1.09107 0.30867
 H300 H 0.39528 1.06682 0.32954
 C301 C 1.13571 -0.12438 -0.12696
 C302 C 1.12419 -0.15578 -0.13548
 C303 C 1.14561 -0.17734 -0.15901
 C304 C 1.17898 -0.16809 -0.17385
 C305 C 1.18910 -0.13595 -0.16543
 N306 N 1.16752 -0.11524 -0.14261
 C307 C 1.11383 -0.10145 -0.10077
 N308 N 1.11165 -0.07027 -0.11536
 C309 C 1.09058 -0.04866 -0.09347
 C310 C 1.07049 -0.05807 -0.05427
 C311 C 1.07327 -0.08986 -0.03795
 C312 C 1.09471 -0.11159 -0.06119
 H313 H 1.13579 -0.20127 -0.16614
 H314 H 1.21466 -0.12761 -0.17507
 H315 H 1.08938 -0.02427 -0.10686
 H316 H 1.05828 -0.09817 -0.00786
 H317 H 1.09866 -0.16351 -0.12452
 H318 H 1.09636 -0.13609 -0.04829
 C319 C 0.63483 0.37844 0.36644
 C320 C 0.62143 0.34902 0.35055
 C321 C 0.64311 0.32720 0.32793
 C322 C 0.67828 0.33432 0.32185
 C323 C 0.69056 0.36434 0.33742
 N324 N 0.66877 0.38549 0.35892
 C325 C 0.61268 0.40120 0.39238
 N326 N 0.61300 0.43304 0.38092
 C327 C 0.59197 0.45464 0.40292
 C328 C 0.56949 0.44448 0.43915
 C329 C 0.56957 0.41191 0.45219
 C330 C 0.59086 0.39021 0.42866
 H331 H 0.63260 0.30448 0.31581
 H332 H 0.71754 0.37067 0.33328
 H333 H 0.59278 0.47963 0.39214
 H334 H 0.55254 0.40306 0.47982
 H335 H 0.59442 0.34302 0.35557
 H336 H 0.59041 0.36506 0.43881
 C337 C 0.86074 -0.11973 -0.12533
 C338 C 0.85267 -0.11785 -0.17393
 C339 C 0.83171 -0.14136 -0.19440
 C340 C 0.81897 -0.16683 -0.16690
 C341 C 0.82754 -0.16798 -0.11866
 N342 N 0.84799 -0.14480 -0.09941
 C343 C 0.88397 -0.09626 -0.10168
 N344 N 0.89824 -0.10439 -0.05919
 C345 C 0.92066 -0.08483 -0.03580
 C346 C 0.93028 -0.05506 -0.05539
 C347 C 0.91530 -0.04580 -0.09858
 C348 C 0.89204 -0.06612 -0.12163
 H349 H 0.82588 -0.14003 -0.23193
 H350 H 0.81814 -0.18739 -0.09645
 H351 H 0.93145 -0.09288 -0.00245
 H352 H 0.92165 -0.02287 -0.11470
 H353 H 0.86295 -0.09913 -0.19652
 H354 H 0.88060 -0.05798 -0.15443
 C355 C 0.35898 0.38202 0.37235
 C356 C 0.35011 0.38385 0.32400
 C357 C 0.32911 0.36014 0.30411
 C358 C 0.31713 0.33452 0.33194
 C359 C 0.32636 0.33349 0.37995
 N360 N 0.34686 0.35685 0.39862
 C361 C 0.38248 0.40558 0.39530
 N362 N 0.39739 0.39753 0.43742
 C363 C 0.42011 0.41716 0.46012
 C364 C 0.42939 0.44690 0.44017
 C365 C 0.41379 0.45606 0.39736
 C366 C 0.39022 0.43568 0.37503
 H367 H 0.32277 0.36137 0.26673
 H368 H 0.31755 0.31398 0.40240
 H369 H 0.43138 0.40919 0.49321
 H370 H 0.41985 0.47898 0.38100
 H371 H 0.35985 0.40266 0.30113
 H372 H 0.37830 0.44377 0.34251
 C373 C 0.14423 0.62151 -0.12452
 C374 C 0.17773 0.61385 -0.13959
 C375 C 0.19799 0.63738 -0.16158
 C376 C 0.18492 0.66858 -0.16941
 C377 C 0.15114 0.67505 -0.15318
 N378 N 0.13213 0.65183 -0.13142
 C379 C 0.12159 0.59762 -0.10125
 N380 N 0.09897 0.60773 -0.06742
 C381 C 0.07628 0.58738 -0.04596
 C382 C 0.07480 0.55491 -0.05933
 C383 C 0.09781 0.54396 -0.09422
 C384 C 0.12145 0.56517 -0.11498
 H385 H 0.22424 0.63130 -0.17138
 H386 H 0.13933 0.69829 -0.15907
 H387 H 0.05876 0.59683 -0.01949
 H388 H 0.09739 0.51909 -0.10562
 H389 H 0.18844 0.59016 -0.13356
 H390 H 0.13858 0.55651 -0.14250
 C391 C 0.64430 1.12339 0.38061
 C392 C 0.67841 1.11605 0.36799
 C393 C 0.69875 1.13935 0.34562
 C394 C 0.68517 1.16997 0.33498
 C395 C 0.65074 1.17612 0.34868
 N396 N 0.63166 1.15316 0.37093
 C397 C 0.62158 1.09969 0.40411
 N398 N 0.59817 1.11013 0.43666
 C399 C 0.57539 1.08989 0.45816
 C400 C 0.57464 1.05716 0.44608
 C401 C 0.59847 1.04586 0.41249
 C402 C 0.62221 1.06699 0.39176
 H403 H 0.72539 1.13358 0.33754
 H404 H 0.63851 1.19883 0.34037
 H405 H 0.55720 1.09958 0.48358
 H406 H 0.59862 1.02078 0.40214
 H407 H 0.68947 1.09279 0.37615
 H408 H 0.64003 1.05805 0.36527
 C409 C 0.13941 0.37812 0.12859
 C410 C 0.17428 0.38495 0.13767
 C411 C 0.19477 0.36186 0.16007
 C412 C 0.18036 0.33237 0.17436
 C413 C 0.14524 0.32672 0.16499
 N414 N 0.12603 0.34924 0.14218
 C415 C 0.11697 0.40117 0.10363
 N416 N 0.09394 0.38990 0.07120
 C417 C 0.07191 0.40966 0.04763
 C418 C 0.07160 0.44275 0.05731
 C419 C 0.09487 0.45488 0.09098
 C420 C 0.11792 0.43420 0.11381
 H421 H 0.22188 0.36692 0.16606
 H422 H 0.13314 0.30435 0.17564
 H423 H 0.05407 0.39938 0.02225
 H424 H 0.09529 0.48029 0.09943
 H425 H 0.18574 0.40753 0.12655
 H426 H 0.13561 0.44375 0.14001
 C427 C 0.63956 0.88058 0.63301
 C428 C 0.67482 0.88694 0.63980
 C429 C 0.69565 0.86362 0.66107
 C430 C 0.68123 0.83439 0.67646
 C431 C 0.64568 0.82936 0.66979
 N432 N 0.62612 0.85205 0.64794
 C433 C 0.61683 0.90362 0.60857
 N434 N 0.59317 0.89225 0.57709
 C435 C 0.57097 0.91198 0.55381
 C436 C 0.57117 0.94516 0.56278
 C437 C 0.59505 0.95740 0.59555
 C438 C 0.61827 0.93672 0.61809
 H439 H 0.72303 0.86824 0.66523
 H440 H 0.63355 0.80725 0.68156
 H441 H 0.55265 0.90164 0.52914
 H442 H 0.59587 0.98289 0.60341
 H443 H 0.68627 0.90926 0.62762
 H444 H 0.63652 0.94633 0.64350
 C445 C 0.86202 0.11940 0.13461
 C446 C 0.85605 0.11930 0.18387
 C447 C 0.83530 0.14306 0.20401
 C448 C 0.82075 0.16702 0.17546
 C449 C 0.82702 0.16626 0.12650
 N450 N 0.84738 0.14292 0.10763
 C451 C 0.88512 0.09576 0.11133
 N452 N 0.89877 0.10315 0.06810
 C453 C 0.92108 0.08335 0.04504
 C454 C 0.93116 0.05411 0.06572
 C455 C 0.91678 0.04561 0.10971
 C456 C 0.89367 0.06618 0.13246
 H457 H 0.83113 0.14316 0.24202
 H458 H 0.81603 0.18439 0.10345
 H459 H 0.93136 0.09078 0.01102
 H460 H 0.92348 0.02309 0.12671
 H461 H 0.86791 0.10182 0.20707
 H462 H 0.88266 0.05869 0.16596
 C463 C 0.36179 0.62151 0.63002
 C464 C 0.35531 0.62055 0.67914
 C465 C 0.33466 0.64413 0.69986
 C466 C 0.32074 0.66881 0.67207
 C467 C 0.32761 0.66900 0.62325
 N468 N 0.34782 0.64577 0.60377
 C469 C 0.38466 0.59792 0.60618
 N470 N 0.39861 0.60575 0.56328
 C471 C 0.42077 0.58600 0.53984
 C472 C 0.43041 0.55640 0.55979
 C473 C 0.41570 0.54746 0.60337
 C474 C 0.39271 0.56796 0.62647
 H475 H 0.33002 0.64350 0.73775
 H476 H 0.31712 0.68771 0.60078
 H477 H 0.43134 0.59378 0.50616
 H478 H 0.42204 0.52466 0.61978
 H479 H 0.36664 0.60248 0.70184
 H480 H 0.38143 0.56009 0.65961
   
