data_POSCAR
  _audit_creation_date              2014-09-24
  _audit_creation_method            'ToBaCCo'
  _symmetry_space_group_name_H-M    'P1'
  _symmetry_Int_Tables_number       1
  _symmetry_cell_setting            triclinic
  loop_
  _symmetry_equiv_pos_as_xyz
 x,y,z
_cell_length_a 26.1980
_cell_length_b 26.2469
_cell_length_c 26.1578
_cell_angle_alpha 90.116500
_cell_angle_beta 89.981700
_cell_angle_gamma 90.595500
loop_
  _atom_site_label
  _atom_site_type_symbol
  _atom_site_fract_x
  _atom_site_fract_y
  _atom_site_fract_z
O1 O 0.58976 0.11518 -0.01675
 O2 O 0.63584 0.04142 -0.01659
 C3 C 0.63249 0.09065 -0.01867
 O4 O 0.44586 0.01895 0.13615
 O5 O 0.38210 0.02156 0.07628
 C6 C 0.39833 0.02324 0.12316
 O7 O 0.58668 0.00869 0.11962
 O8 O 0.63424 -0.01178 0.04933
 C9 C 0.63009 -0.00070 0.09762
 O10 O 0.44943 0.13534 -0.00823
 O11 O 0.38379 0.07867 0.00615
 C12 C 0.40152 0.12449 -0.00128
 Zr13 Zr 0.51394 0.08811 -0.00878
 O14 O 0.52337 0.15060 0.04183
 O15 O 0.52088 0.13731 -0.07252
 Zr16 Zr 0.51143 0.00696 0.09110
 O17 O 0.52044 0.06540 0.14620
 O18 O 0.51603 -0.04804 0.15006
 O19 O 0.55917 0.04875 0.04280
 O20 O 0.47079 0.06133 0.05176
 O21 O 0.41534 -0.00124 -0.11840
 O22 O 0.36721 0.01235 -0.04647
 C23 C 0.37209 0.00670 -0.09553
 O24 O 0.55171 -0.13821 0.00400
 O25 O 0.61759 -0.08099 -0.00662
 C26 C 0.59966 -0.12713 -0.00272
 O27 O 0.41219 -0.11654 0.02543
 O28 O 0.36575 -0.04298 0.02162
 C29 C 0.36939 -0.09196 0.02710
 O30 O 0.55459 -0.02815 -0.13284
 O31 O 0.61907 -0.02709 -0.07347
 C32 C 0.60218 -0.03239 -0.11990
 Zr33 Zr 0.48998 -0.00943 -0.08875
 O34 O 0.46982 -0.06810 -0.14078
 O35 O 0.49765 0.04262 -0.15014
 Zr36 Zr 0.48761 -0.09048 0.01116
 O37 O 0.46703 -0.15136 -0.03821
 O38 O 0.49192 -0.14147 0.07358
 Zr39 Zr 0.57614 -0.01237 -0.00672
 Zr40 Zr 0.42548 0.01007 0.00907
 O41 O 0.44352 -0.05077 -0.04014
 O42 O 0.53171 -0.06436 -0.04989
 O43 O 0.45703 0.05239 -0.05191
 O44 O 0.54354 -0.05412 0.05386
 O45 O 0.54618 0.03864 -0.06067
 O46 O 0.45419 -0.04135 0.06367
 H47 H 0.45399 0.08758 0.07300
 H48 H 0.56620 -0.07586 0.07466
 H49 H 0.41571 -0.07066 -0.05665
 H50 H 0.56954 0.05404 -0.08626
 H51 H 0.48154 -0.06298 0.15491
 H52 H 0.46692 -0.13027 0.09950
 H53 H 0.49293 -0.15292 -0.06566
 H54 H 0.49070 -0.09805 -0.13222
 H55 H 0.46981 0.06763 -0.14723
 H56 H 0.48908 0.13410 -0.09269
 H57 H 0.55426 0.14445 0.06257
 H58 H 0.54077 0.09280 0.12991
 O59 O 0.01709 0.58654 -0.11847
 O60 O 0.01809 0.63413 -0.04494
 C61 C 0.01863 0.62976 -0.09435
 O62 O -0.13205 0.44121 -0.02310
 O63 O -0.07125 0.37894 -0.02485
 C64 C -0.11820 0.39409 -0.02768
 O65 O -0.11873 0.58239 -0.00859
 O66 O -0.04815 0.63189 0.00861
 C67 C -0.09667 0.62613 0.00006
 O68 O 0.01504 0.44599 -0.13741
 O69 O 0.00056 0.38124 -0.08073
 C70 C 0.00970 0.39796 -0.12669
 Zr71 Zr 0.01284 0.51129 -0.09077
 O72 O -0.03519 0.51738 -0.15547
 O73 O 0.07774 0.51990 -0.13841
 Zr74 Zr -0.08827 0.50805 -0.01119
 O75 O -0.13863 0.51509 -0.07403
 O76 O -0.15046 0.51133 0.04040
 O77 O -0.04000 0.55614 -0.05241
 O78 O -0.04736 0.46720 -0.06469
 O79 O 0.12223 0.41715 -0.00049
 O80 O 0.05094 0.36722 -0.01331
 C81 C 0.09990 0.37332 -0.00837
 O82 O -0.00339 0.55285 0.13543
 O83 O 0.00679 0.61790 0.07783
 C84 C 0.00235 0.60070 0.12412
 O85 O -0.02182 0.41332 0.11476
 O86 O -0.01813 0.36508 0.04169
 C87 C -0.02299 0.36992 0.09093
 O88 O 0.13443 0.55727 0.02652
 O89 O 0.07422 0.62008 0.02461
 C90 C 0.12070 0.60448 0.03080
 Zr91 Zr 0.09154 0.49113 0.00830
 O92 O 0.14126 0.47277 0.06921
 O93 O 0.15466 0.49910 -0.04175
 Zr94 Zr -0.00963 0.48807 0.08791
 O95 O 0.03715 0.47028 0.15122
 O96 O -0.07409 0.49187 0.13665
 Zr97 Zr 0.00843 0.57525 0.00934
 Zr98 Zr -0.00510 0.42408 -0.01216
 O99 O 0.04292 0.44442 0.04929
 O100 O 0.05124 0.53294 0.06243
 O101 O 0.05608 0.45633 -0.05393
 O102 O -0.05233 0.54192 0.05050
 O103 O 0.06350 0.54567 -0.04087
 O104 O -0.06089 0.45251 0.03824
 H105 H -0.06749 0.44924 -0.09139
 H106 H -0.07374 0.56391 0.07242
 H107 H 0.05964 0.41744 0.06952
 H108 H 0.08869 0.56951 -0.05629
 H109 H -0.15128 0.47901 0.05976
 H110 H -0.09737 0.46335 0.12754
 H111 H 0.06726 0.49324 0.14990
 H112 H 0.13545 0.49767 0.09697
 H113 H 0.15123 0.47266 -0.06857
 H114 H 0.09776 0.48826 -0.13595
 H115 H -0.06152 0.54281 -0.14722
 H116 H -0.12853 0.54608 -0.09312
 O117 O 0.11691 0.00228 0.41391
 O118 O 0.04466 0.01319 0.36562
 C119 C 0.09370 0.00861 0.37046
 O120 O -0.00811 -0.13454 0.55501
 O121 O 0.00543 -0.07626 0.61904
 C122 C -0.00235 -0.12247 0.60275
 O123 O -0.01304 -0.11748 0.41417
 O124 O -0.01730 -0.04495 0.36589
 C125 C -0.01608 -0.09416 0.37064
 O126 O 0.13363 -0.00993 0.55554
 O127 O 0.07373 -0.01519 0.61936
 C128 C 0.12060 -0.01466 0.60316
 Zr129 Zr 0.08820 -0.00256 0.48954
 O130 O 0.14100 -0.06259 0.48144
 O131 O 0.14830 0.05174 0.48442
 Zr132 Zr -0.00767 -0.08871 0.48912
 O133 O 0.04639 -0.14780 0.48247
 O134 O -0.06802 -0.14255 0.48205
 O135 O 0.04201 -0.04733 0.44254
 O136 O 0.05119 -0.05807 0.53199
 O137 O 0.01537 0.11897 0.58611
 O138 O 0.01563 0.04621 0.63439
 C139 C 0.01807 0.09536 0.62962
 O140 O -0.13688 0.01897 0.44490
 O141 O -0.07721 0.02025 0.38075
 C142 C -0.12382 0.02316 0.39721
 O143 O -0.12146 -0.00633 0.58547
 O144 O -0.04880 -0.01294 0.63394
 C145 C -0.09799 -0.01206 0.62889
 O146 O -0.00443 0.13700 0.44569
 O147 O -0.01200 0.07841 0.38091
 C148 C -0.00953 0.12498 0.39777
 Zr149 Zr 0.00382 0.09093 0.51109
 O150 O -0.04774 0.14978 0.52954
 O151 O 0.06438 0.14480 0.50625
 Zr152 Zr -0.09234 0.00457 0.51043
 O153 O -0.14557 0.06163 0.52965
 O154 O -0.15244 -0.04963 0.50376
 Zr155 Zr -0.01026 0.01052 0.42441
 Zr156 Zr 0.00621 -0.00829 0.57565
 O157 O -0.04581 0.04916 0.55609
 O158 O -0.05580 0.06086 0.46729
 O159 O 0.05851 0.04544 0.54559
 O160 O -0.06180 -0.04299 0.45559
 O161 O 0.04825 0.05603 0.45642
 O162 O -0.05266 -0.05442 0.54479
 H163 H 0.07297 -0.08287 0.55003
 H164 H -0.08639 -0.06038 0.43249
 H165 H -0.06353 0.06821 0.58348
 H166 H 0.06837 0.07908 0.43401
 H167 H -0.09095 -0.13784 0.51168
 H168 H -0.14772 -0.07546 0.53079
 H169 H -0.14058 0.09005 0.50534
 H170 H -0.07581 0.14828 0.50430
 H171 H 0.08936 0.13654 0.53327
 H172 H 0.14663 0.07352 0.51526
 H173 H 0.13251 -0.08115 0.44956
 H174 H 0.06797 -0.14017 0.45237
 C175 C -0.32287 0.17214 -0.03975
 C176 C -0.27970 0.20398 -0.03905
 C177 C -0.23247 0.18517 -0.02160
 C178 C -0.22919 0.13395 -0.00655
 C179 C -0.27268 0.10235 -0.00720
 C180 C -0.32010 0.12153 -0.02285
 C181 C -0.18991 0.21821 -0.01840
 C182 C -0.19447 0.26985 -0.03186
 C183 C -0.24175 0.28787 -0.05033
 C184 C -0.28376 0.25482 -0.05418
 C185 C -0.24687 0.33913 -0.06354
 C186 C -0.20616 0.37292 -0.05697
 C187 C -0.15925 0.35620 -0.03742
 C188 C -0.15320 0.30420 -0.02594
 H189 H -0.35906 0.18728 -0.05248
 H190 H -0.19333 0.11868 0.00680
 H191 H -0.26955 0.06347 0.00612
 H192 H -0.15376 0.20413 -0.00435
 H193 H -0.32008 0.26907 -0.06768
 H194 H -0.28274 0.35337 -0.07805
 H195 H -0.21166 0.41252 -0.06693
 H196 H -0.11719 0.29090 -0.01084
 C197 C 0.32498 0.82643 0.04941
 C198 C 0.28166 0.79468 0.04912
 C199 C 0.23412 0.81397 0.03309
 C200 C 0.23058 0.86554 0.01950
 C201 C 0.27415 0.89697 0.01958
 C202 C 0.32198 0.87737 0.03339
 C203 C 0.19154 0.78101 0.02943
 C204 C 0.19636 0.72891 0.04084
 C205 C 0.24380 0.71039 0.05832
 C206 C 0.28584 0.74340 0.06282
 C207 C 0.24906 0.65866 0.06959
 C208 C 0.20846 0.62496 0.06173
 C209 C 0.16146 0.64219 0.04282
 C210 C 0.15522 0.69464 0.03356
 H211 H 0.36148 0.81085 0.06059
 H212 H 0.19444 0.88119 0.00740
 H213 H 0.27072 0.93607 0.00698
 H214 H 0.15523 0.79552 0.01629
 H215 H 0.32233 0.72877 0.07541
 H216 H 0.28503 0.64400 0.08340
 H217 H 0.21423 0.58499 0.06989
 H218 H 0.11921 0.70844 0.01893
 C219 C 0.31291 0.16128 -0.00649
 C220 C 0.28047 0.20379 -0.00656
 C221 C 0.30159 0.25325 -0.00018
 C222 C 0.35425 0.25965 0.00586
 C223 C 0.38606 0.21760 0.00543
 C224 C 0.36602 0.16803 -0.00077
 C225 C 0.26993 0.29580 0.00011
 C226 C 0.21719 0.28993 -0.00602
 C227 C 0.19563 0.24081 -0.01280
 C228 C 0.22743 0.19791 -0.01302
 C229 C 0.14262 0.23563 -0.01907
 C230 C 0.11139 0.27862 -0.01811
 C231 C 0.13262 0.32760 -0.01090
 C232 C 0.18575 0.33274 -0.00520
 H233 H 0.29698 0.12330 -0.01144
 H234 H 0.37093 0.29729 0.01088
 H235 H 0.42666 0.22408 0.01036
 H236 H 0.28641 0.33358 0.00518
 H237 H 0.21096 0.16016 -0.01815
 H238 H 0.12528 0.19836 -0.02448
 H239 H 0.07059 0.27343 -0.02272
 H240 H 0.20289 0.37013 0.00025
 C241 C -0.31148 0.83655 0.00006
 C242 C -0.27854 0.79450 -0.00216
 C243 C -0.29908 0.74522 -0.01119
 C244 C -0.35170 0.73863 -0.01779
 C245 C -0.38406 0.78028 -0.01509
 C246 C -0.36457 0.82961 -0.00608
 C247 C -0.26688 0.70305 -0.01315
 C248 C -0.21426 0.70913 -0.00577
 C249 C -0.19332 0.75813 0.00335
 C250 C -0.22559 0.80065 0.00492
 C251 C -0.14049 0.76354 0.01100
 C252 C -0.10887 0.72082 0.00978
 C253 C -0.12950 0.67189 0.00079
 C254 C -0.18240 0.66662 -0.00705
 H255 H -0.29595 0.87432 0.00735
 H256 H -0.36795 0.70113 -0.02481
 H257 H -0.42461 0.77374 -0.02031
 H258 H -0.28288 0.66537 -0.02007
 H259 H -0.20960 0.83829 0.01195
 H260 H -0.12365 0.80075 0.01815
 H261 H -0.06830 0.72612 0.01605
 H262 H -0.19911 0.62927 -0.01388
 C263 C -0.00250 -0.31000 0.15960
 C264 C -0.00463 -0.27658 0.20172
 C265 C -0.00076 -0.29648 0.25180
 C266 C 0.00559 -0.34875 0.25917
 C267 C 0.00746 -0.38150 0.21744
 C268 C 0.00301 -0.36281 0.16731
 C269 C -0.00345 -0.26402 0.29402
 C270 C -0.00970 -0.21167 0.28721
 C271 C -0.01340 -0.19110 0.23753
 C272 C -0.01100 -0.22381 0.19487
 C273 C -0.01917 -0.13823 0.23172
 C274 C -0.02073 -0.10625 0.27476
 C275 C -0.01691 -0.12674 0.32426
 C276 C -0.01176 -0.17967 0.32982
 H277 H -0.00607 -0.29509 0.12116
 H278 H 0.00876 -0.36442 0.29733
 H279 H 0.01215 -0.42180 0.22463
 H280 H -0.00060 -0.27954 0.33234
 H281 H -0.01400 -0.20829 0.15661
 H282 H -0.02204 -0.12162 0.19396
 H283 H -0.02459 -0.06558 0.26930
 H284 H -0.00854 -0.19636 0.36754
 C285 C 0.01048 0.31106 0.84115
 C286 C 0.01587 0.27746 0.79933
 C287 C 0.02504 0.29749 0.74998
 C288 C 0.02896 0.34998 0.74288
 C289 C 0.02366 0.38294 0.78404
 C290 C 0.01424 0.36449 0.83402
 C291 C 0.02981 0.26494 0.70798
 C292 C 0.02518 0.21227 0.71416
 C293 C 0.01654 0.19149 0.76322
 C294 C 0.01204 0.22426 0.80570
 C295 C 0.01184 0.13838 0.76848
 C296 C 0.01429 0.10658 0.72538
 C297 C 0.02144 0.12737 0.67631
 C298 C 0.02790 0.18031 0.67143
 H299 H 0.00352 0.29545 0.87890
 H300 H 0.03605 0.36575 0.70524
 H301 H 0.02702 0.42333 0.77602
 H302 H 0.03645 0.28074 0.67021
 H303 H 0.00502 0.20848 0.84338
 H304 H 0.00530 0.12153 0.80572
 H305 H 0.00924 0.06591 0.73035
 H306 H 0.03374 0.19710 0.63401
 C307 C -0.01939 0.32913 0.17645
 C308 C -0.02039 0.28688 0.20876
 C309 C -0.03034 0.23782 0.18868
 C310 C -0.03906 0.23234 0.13581
 C311 C -0.03730 0.27504 0.10344
 C312 C -0.02742 0.32388 0.12357
 C313 C -0.03089 0.19547 0.22181
 C314 C -0.02123 0.20205 0.27449
 C315 C -0.01115 0.25159 0.29375
 C316 C -0.01088 0.29343 0.26092
 C317 C -0.00125 0.25888 0.34572
 C318 C -0.00128 0.21762 0.37885
 C319 C -0.01107 0.16787 0.36091
 C320 C -0.02111 0.16027 0.30839
 H321 H -0.01114 0.36632 0.19282
 H322 H -0.04680 0.19508 0.11948
 H323 H -0.04364 0.26986 0.06283
 H324 H -0.03849 0.15766 0.20664
 H325 H -0.00294 0.33124 0.27606
 H326 H 0.00674 0.29662 0.36085
 H327 H 0.00695 0.22497 0.41879
 H328 H -0.02872 0.12218 0.29404
 C329 C 0.00308 -0.32741 0.82283
 C330 C 0.00368 -0.28488 0.79091
 C331 C 0.02097 -0.23726 0.80968
 C332 C 0.03658 -0.23322 0.86098
 C333 C 0.03559 -0.27615 0.89293
 C334 C 0.01943 -0.32375 0.87379
 C335 C 0.02249 -0.19493 0.77670
 C336 C 0.00690 -0.20006 0.72540
 C337 C -0.01097 -0.24795 0.70748
 C338 C -0.01255 -0.28981 0.74026
 C339 C -0.02665 -0.25364 0.65675
 C340 C -0.02399 -0.21258 0.62343
 C341 C -0.00563 -0.16475 0.64001
 C342 C 0.00925 -0.15851 0.69143
 H343 H -0.01049 -0.36361 0.80777
 H344 H 0.04977 -0.19702 0.87627
 H345 H 0.04809 -0.27227 0.93223
 H346 H 0.03611 -0.15835 0.79076
 H347 H -0.02599 -0.32648 0.72615
 H348 H -0.04070 -0.29004 0.64267
 H349 H -0.03651 -0.21852 0.58438
 H350 H 0.02325 -0.12182 0.70474
 C351 C 0.32842 -0.00978 0.82134
 C352 C 0.28531 -0.00984 0.78981
 C353 C 0.23822 0.00790 0.80879
 C354 C 0.23524 0.02486 0.85968
 C355 C 0.27859 0.02458 0.89112
 C356 C 0.32569 0.00759 0.87209
 C357 C 0.19529 0.00864 0.77644
 C358 C 0.19926 -0.00788 0.72538
 C359 C 0.24657 -0.02608 0.70707
 C360 C 0.28903 -0.02717 0.73937
 C361 C 0.25113 -0.04221 0.65633
 C362 C 0.20967 -0.03919 0.62332
 C363 C 0.16257 -0.02041 0.64039
 C364 C 0.15722 -0.00564 0.69189
 H365 H 0.36421 -0.02365 0.80618
 H366 H 0.19948 0.03847 0.87510
 H367 H 0.27532 0.03799 0.93015
 H368 H 0.15916 0.02259 0.79074
 H369 H 0.32525 -0.04088 0.72499
 H370 H 0.28705 -0.05646 0.64189
 H371 H 0.21463 -0.05143 0.58408
 H372 H 0.12109 0.00904 0.70534
 C373 C -0.33059 0.01707 0.17861
 C374 C -0.28732 0.01936 0.20983
 C375 C -0.23927 0.00547 0.19015
 C376 C -0.23534 -0.00916 0.13867
 C377 C -0.27871 -0.01074 0.10729
 C378 C -0.32729 0.00168 0.12693
 C379 C -0.19632 0.00594 0.22249
 C380 C -0.20124 0.02007 0.27418
 C381 C -0.24939 0.03525 0.29303
 C382 C -0.29191 0.03494 0.26079
 C383 C -0.25472 0.04950 0.34427
 C384 C -0.21326 0.04700 0.37733
 C385 C -0.16547 0.03043 0.35988
 C386 C -0.15932 0.01810 0.30778
 H387 H -0.36697 0.02762 0.19515
 H388 H -0.19876 -0.01969 0.12269
 H389 H -0.27405 -0.02251 0.06785
 H390 H -0.15945 -0.00540 0.20771
 H391 H -0.32886 0.04600 0.27567
 H392 H -0.29129 0.06162 0.35909
 H393 H -0.21891 0.05738 0.41701
 H394 H -0.12267 0.00514 0.29389
 C395 C 0.30862 0.02055 0.15835
 C396 C 0.27488 0.02319 0.20021
 C397 C 0.29412 0.03628 0.24912
 C398 C 0.34601 0.04750 0.25536
 C399 C 0.37915 0.04441 0.21395
 C400 C 0.36118 0.03024 0.16522
 C401 C 0.26151 0.03713 0.29142
 C402 C 0.20975 0.02483 0.28586
 C403 C 0.18981 0.01267 0.23709
 C404 C 0.22255 0.01197 0.19442
 C405 C 0.13759 0.00093 0.23219
 C406 C 0.10581 0.00046 0.27532
 C407 C 0.12587 0.01128 0.32406
 C408 C 0.17784 0.02392 0.32875
 H409 H 0.29429 0.00947 0.12103
 H410 H 0.36118 0.05789 0.29253
 H411 H 0.41924 0.05265 0.22037
 H412 H 0.27663 0.04662 0.32891
 H413 H 0.20751 0.00205 0.15705
 H414 H 0.12145 -0.00835 0.19515
 H415 H 0.06582 -0.00938 0.27071
 H416 H 0.19365 0.03303 0.36601
 C417 C -0.30868 -0.03147 0.84418
 C418 C -0.27552 -0.03471 0.80200
 C419 C -0.29504 -0.04976 0.75377
 C420 C -0.34665 -0.06294 0.74878
 C421 C -0.37935 -0.05906 0.79054
 C422 C -0.36110 -0.04226 0.83833
 C423 C -0.26312 -0.05006 0.71086
 C424 C -0.21188 -0.03511 0.71524
 C425 C -0.19166 -0.02158 0.76357
 C426 C -0.22359 -0.02161 0.80675
 C427 C -0.14006 -0.00731 0.76756
 C428 C -0.10920 -0.00531 0.72393
 C429 C -0.12954 -0.01708 0.67552
 C430 C -0.18083 -0.03259 0.67168
 H431 H -0.29414 -0.01844 0.88080
 H432 H -0.36206 -0.07499 0.71221
 H433 H -0.41937 -0.06824 0.78503
 H434 H -0.27848 -0.06077 0.67380
 H435 H -0.20834 -0.01037 0.84369
 H436 H -0.12375 0.00297 0.80427
 H437 H -0.06973 0.00666 0.72792
 H438 H -0.19677 -0.04239 0.63465
   
