data_POSCAR
  _audit_creation_date              2014-09-24
  _audit_creation_method            'ToBaCCo'
  _symmetry_space_group_name_H-M    'P1'
  _symmetry_Int_Tables_number       1
  _symmetry_cell_setting            triclinic
  loop_
  _symmetry_equiv_pos_as_xyz
 x,y,z
_cell_length_a 40.1449
_cell_length_b 41.1105
_cell_length_c 40.6362
_cell_angle_alpha 90.310600
_cell_angle_beta 89.947600
_cell_angle_gamma 88.273300
loop_
  _atom_site_label
  _atom_site_type_symbol
  _atom_site_fract_x
  _atom_site_fract_y
  _atom_site_fract_z
C1 C 0.11315 0.11946 0.16469
 C2 C 0.14142 0.10459 0.15014
 C3 C 0.15559 0.11815 0.12204
 C4 C 0.14120 0.14636 0.10822
 C5 C 0.11297 0.16129 0.12270
 C6 C 0.09884 0.14778 0.15087
 H7 H 0.15342 0.08355 0.16168
 H8 H 0.15305 0.15778 0.08741
 H9 H 0.07794 0.16025 0.16295
 C10 C -0.11373 0.87976 0.16587
 C11 C -0.09973 0.85113 0.15212
 C12 C -0.11446 0.83699 0.12450
 C13 C -0.14299 0.85162 0.11047
 C14 C -0.15701 0.88020 0.12419
 C15 C -0.14231 0.89434 0.15180
 H16 H -0.07842 0.83906 0.16371
 H17 H -0.15513 0.83997 0.08988
 H18 H -0.15399 0.91576 0.16315
 C19 C -0.13210 0.13408 -0.17142
 C20 C -0.11692 0.16067 -0.15665
 C21 C -0.12995 0.17417 -0.12749
 C22 C -0.15804 0.16086 -0.11284
 C23 C -0.17329 0.13421 -0.12760
 C24 C -0.16021 0.12078 -0.15682
 H25 H -0.09599 0.17185 -0.16861
 H26 H -0.16884 0.17216 -0.09096
 H27 H -0.17275 0.10100 -0.16896
 C28 C 0.13155 0.86301 -0.16954
 C29 C 0.11733 0.83551 -0.15583
 C30 C 0.13086 0.82167 -0.12720
 C31 C 0.15847 0.83552 -0.11211
 C32 C 0.17270 0.86309 -0.12580
 C33 C 0.15908 0.87689 -0.15443
 H34 H 0.09687 0.82398 -0.16828
 H35 H 0.16981 0.82391 -0.09079
 H36 H 0.17087 0.89737 -0.16590
 C37 C 0.11009 1.12236 0.83989
 C38 C 0.09292 1.14782 0.85636
 C39 C 0.10598 1.16076 0.88548
 C40 C 0.13615 1.14811 0.89812
 C41 C 0.15332 1.12270 0.88163
 C42 C 0.14015 1.10975 0.85266
 H43 H 0.07031 1.15843 0.84582
 H44 H 0.14697 1.15898 0.91985
 H45 H 0.15404 1.09088 0.83927
 C46 C 0.88443 0.87510 0.83044
 C47 C 0.89846 0.84640 0.84373
 C48 C 0.88411 0.83246 0.87158
 C49 C 0.85593 0.84741 0.88627
 C50 C 0.84193 0.87606 0.87299
 C51 C 0.85624 0.88993 0.84518
 H52 H 0.91955 0.83424 0.83165
 H53 H 0.84402 0.83606 0.90708
 H54 H 0.84455 0.91142 0.83421
 C55 C 0.13043 0.86515 1.16936
 C56 C 0.15705 0.87970 1.15337
 C57 C 0.16985 0.86631 1.12406
 C58 C 0.15579 0.83852 1.11048
 C59 C 0.12906 0.82399 1.12633
 C60 C 0.11631 0.83737 1.15571
 H61 H 0.16884 0.90049 1.16449
 H62 H 0.16660 0.82737 1.08853
 H63 H 0.09652 0.82533 1.16861
 C64 C 0.86776 1.14068 1.17403
 C65 C 0.88319 1.16607 1.15761
 C66 C 0.87010 1.17770 1.12780
 C67 C 0.84173 1.16374 1.11429
 C68 C 0.82639 1.13827 1.13064
 C69 C 0.83946 1.12672 1.16043
 H70 H 0.90451 1.17761 1.16855
 H71 H 0.83086 1.17353 1.09187
 H72 H 0.82684 1.10775 1.17360
 N73 N 0.46838 0.94189 0.96374
 N74 N 0.44170 0.92392 0.96263
 N75 N 0.53690 0.96736 0.94129
 N76 N 0.56496 0.96758 0.92429
 N77 N 0.53847 0.94467 0.96393
 N78 N 0.56758 0.92887 0.96285
 N79 N 0.46663 0.96472 0.94125
 N80 N 0.43867 0.96286 0.92433
 C81 C 0.42376 0.93702 0.93768
 C82 C 0.58351 0.94313 0.93773
 N83 N 0.53050 1.05959 0.96537
 N84 N 0.55734 1.07736 0.96472
 N85 N 0.46171 1.03473 0.94212
 N86 N 0.43366 1.03490 0.92514
 N87 N 0.46033 1.05725 0.96520
 N88 N 0.43136 1.07329 0.96446
 N89 N 0.53196 1.03724 0.94214
 N90 N 0.55986 1.03925 0.92513
 Mn91 Mn 0.49927 1.00101 0.94125
 C92 C 0.57505 1.06465 0.93922
 C93 C 0.41530 1.05938 0.93910
 N94 N 0.53822 0.94418 1.03473
 N95 N 0.56741 0.92853 1.03550
 N96 N 0.46619 0.96389 1.05748
 N97 N 0.43788 0.96207 1.07386
 N98 N 0.46808 0.94139 1.03440
 N99 N 0.44116 0.92373 1.03456
 N100 N 0.53645 0.96656 1.05794
 N101 N 0.56443 0.96669 1.07501
 Mn102 Mn 0.50335 0.94262 0.99920
 C103 C 0.58316 0.94252 1.06103
 C104 C 0.42293 0.93660 1.05961
 N105 N 0.46010 1.05677 1.03587
 N106 N 0.43112 1.07280 1.03688
 N107 N 0.53154 1.03643 1.05882
 N108 N 0.55917 1.03841 1.07623
 N109 N 0.53021 1.05912 1.03616
 N110 N 0.55686 1.07709 1.03761
 N111 N 0.46133 1.03394 1.05839
 N112 N 0.43319 1.03390 1.07525
 Mn113 Mn 0.49529 1.05859 1.00065
 Mn114 Mn 0.49885 1.00019 1.05860
 Cl115 Cl 0.49918 1.00061 0.99993
 C116 C 0.41493 1.05858 1.06184
 C117 C 0.57433 1.06414 1.06298
 N118 N 0.03508 0.46289 0.05782
 N119 N 0.03510 0.43564 0.07488
 N120 N 0.06034 0.52989 0.03443
 N121 N 0.07817 0.55637 0.03505
 N122 N 0.03720 0.53141 0.05734
 N123 N 0.03875 0.55893 0.07408
 N124 N 0.05841 0.46143 0.03512
 N125 N 0.07491 0.43320 0.03627
 C126 C 0.06037 0.41769 0.06142
 C127 C 0.06469 0.57388 0.06020
 N128 N 0.03755 0.52984 -0.05928
 N129 N 0.03918 0.55695 -0.07639
 N130 N 0.05828 0.46005 -0.03560
 N131 N 0.07182 0.43041 -0.03380
 N132 N 0.03521 0.46121 -0.05859
 N133 N 0.03276 0.43244 -0.07284
 N134 N 0.06059 0.52883 -0.03634
 N135 N 0.07845 0.55526 -0.03729
 Mn136 Mn 0.05984 0.49506 -0.00065
 C137 C 0.06510 0.57218 -0.06269
 C138 C 0.05613 0.41375 -0.05758
 N139 N -0.03438 0.53560 0.05736
 N140 N -0.03436 0.56308 0.07431
 N141 N -0.05966 0.46823 0.03484
 N142 N -0.07687 0.44136 0.03510
 N143 N -0.03654 0.46710 0.05772
 N144 N -0.03752 0.43946 0.07405
 N145 N -0.05739 0.53691 0.03439
 N146 N -0.07355 0.56538 0.03515
 Mn147 Mn 0.00033 0.49924 0.05798
 C148 C -0.05922 0.58110 0.06050
 C149 C -0.06314 0.42404 0.06004
 N150 N -0.03639 0.46591 -0.05891
 N151 N -0.03773 0.43832 -0.07551
 N152 N -0.05719 0.53607 -0.03650
 N153 N -0.07342 0.56448 -0.03770
 N154 N -0.03399 0.53431 -0.05935
 N155 N -0.03393 0.56141 -0.07664
 N156 N -0.05947 0.46734 -0.03595
 N157 N -0.07693 0.44058 -0.03633
 Mn158 Mn 0.00063 0.49784 -0.05943
 Mn159 Mn -0.05890 0.50219 -0.00080
 Cl160 Cl 0.00046 0.49859 -0.00071
 C161 C -0.06333 0.42309 -0.06145
 C162 C -0.05895 0.57967 -0.06316
 N163 N 1.06477 -0.03305 0.53496
 N164 N 1.08249 -0.03479 0.56231
 N165 N 1.04317 -0.05557 0.46522
 N166 N 1.04562 -0.07317 0.43803
 N167 N 1.06551 -0.03286 0.46546
 N168 N 1.08370 -0.03443 0.43835
 N169 N 1.04241 -0.05573 0.53445
 N170 N 1.04437 -0.07350 0.56136
 C171 C 1.06969 -0.06038 0.57819
 C172 C 1.07122 -0.05995 0.42183
 N173 N 0.94770 -0.03316 0.46426
 N174 N 0.93150 -0.03342 0.43600
 N175 N 0.97081 -0.05594 0.53383
 N176 N 0.97069 -0.07239 0.56165
 N177 N 0.94689 -0.03340 0.53384
 N178 N 0.92996 -0.03398 0.56171
 N179 N 0.97160 -0.05573 0.46434
 N180 N 0.97218 -0.07187 0.43615
 Mn181 Mn 1.00697 -0.05614 0.49946
 C182 C 0.94669 -0.05804 0.41909
 C183 C 0.94475 -0.05877 0.57843
 N184 N 1.06303 0.03722 0.46604
 N185 N 1.07948 0.03744 0.43788
 N186 N 1.03838 0.05956 0.53552
 N187 N 1.03777 0.07585 0.56361
 N188 N 1.06229 0.03702 0.53570
 N189 N 1.07846 0.03743 0.56400
 N190 N 1.03912 0.05979 0.46613
 N191 N 1.03880 0.07587 0.43811
 Mn192 Mn 1.06437 0.00213 0.50054
 C193 C 1.06448 0.06208 0.42111
 C194 C 1.06325 0.06217 0.58078
 N195 N 0.94439 0.03661 0.53427
 N196 N 0.92572 0.03837 0.56102
 N197 N 0.96753 0.05959 0.46551
 N198 N 0.96491 0.07804 0.43909
 N199 N 0.94521 0.03689 0.46494
 N200 N 0.92682 0.03927 0.43806
 N201 N 0.96676 0.05927 0.53473
 N202 N 0.96389 0.07705 0.56179
 Mn203 Mn 0.94560 0.00168 0.49932
 Mn204 Mn 1.00299 0.05995 0.50048
 Cl205 Cl 1.00499 0.00191 0.49995
 C206 C 0.93797 0.06393 0.57760
 C207 C 0.93924 0.06524 0.42250
 C208 C 1.07776 0.07849 0.32295
 C209 C 1.10058 0.05898 0.30434
 C210 C 1.10495 0.06515 0.27025
 C211 C 1.08677 0.09104 0.25513
 C212 C 1.06278 0.10951 0.27339
 C213 C 1.05831 0.10328 0.30744
 C214 C 1.03416 0.12205 0.32520
 C215 C 1.01477 0.14610 0.30968
 C216 C 1.01913 0.15217 0.27636
 C217 C 1.04292 0.13425 0.25832
 C218 C 1.12768 0.04515 0.25204
 C219 C 1.14559 0.01976 0.26709
 C220 C 1.14148 0.01386 0.30048
 C221 C 1.11933 0.03322 0.31903
 C222 C 1.09461 0.10030 0.22165
 C223 C 1.10254 0.10891 0.19451
 C224 C 1.07398 0.07290 0.35796
 C225 C 1.07026 0.06818 0.38694
 H226 H 1.02971 0.11810 0.35112
 H227 H 0.99621 0.16002 0.32357
 H228 H 1.00394 0.17081 0.26440
 H229 H 1.04525 0.13968 0.23241
 H230 H 1.13158 0.04872 0.22597
 H231 H 1.16271 0.00456 0.25276
 H232 H 1.15539 -0.00593 0.31204
 H233 H 1.11680 0.02753 0.34486
 C234 C 0.92920 -0.07486 0.32144
 C235 C 0.89756 -0.06632 0.30816
 C236 C 0.89056 -0.07333 0.27466
 C237 C 0.91525 -0.08880 0.25463
 C238 C 0.94741 -0.09589 0.26744
 C239 C 0.95439 -0.08900 0.30102
 C240 C 0.98656 -0.09680 0.31344
 C241 C 1.01110 -0.11100 0.29325
 C242 C 1.00438 -0.11740 0.26034
 C243 C 0.97289 -0.11006 0.24746
 C244 C 0.85862 -0.06487 0.26199
 C245 C 0.83434 -0.04983 0.28186
 C246 C 0.84120 -0.04293 0.31462
 C247 C 0.87239 -0.05103 0.32777
 C248 C 0.90663 -0.09932 0.22167
 C249 C 0.89786 -0.10880 0.19504
 C250 C 0.93555 -0.06944 0.35617
 C251 C 0.94050 -0.06462 0.38500
 H252 H 0.99307 -0.09205 0.33882
 H253 H 1.03542 -0.11715 0.30321
 H254 H 1.02363 -0.12822 0.24474
 H255 H 0.96877 -0.11548 0.22172
 H256 H 0.85213 -0.06958 0.23660
 H257 H 0.81008 -0.04349 0.27175
 H258 H 0.82226 -0.03123 0.32996
 H259 H 0.87654 -0.04510 0.35338
 C260 C 0.91141 0.08873 0.67170
 C261 C 0.93388 0.08099 0.69753
 C262 C 0.92564 0.08986 0.73046
 C263 C 0.89479 0.10602 0.73737
 C264 C 0.87217 0.11348 0.71155
 C265 C 0.88055 0.10484 0.67861
 C266 C 0.85761 0.11260 0.65319
 C267 C 0.82723 0.12845 0.66014
 C268 C 0.81902 0.13691 0.69235
 C269 C 0.84112 0.12958 0.71786
 C270 C 0.94870 0.08229 0.75582
 C271 C 0.97890 0.06610 0.74887
 C272 C 0.98674 0.05709 0.71672
 C273 C 0.96466 0.06445 0.69124
 C274 C 0.88618 0.11521 0.77090
 C275 C 0.87810 0.12360 0.79829
 C276 C 0.92018 0.08026 0.63804
 C277 C 0.92791 0.07303 0.61026
 H278 H 0.86286 0.10648 0.62774
 H279 H 0.80997 0.13418 0.64040
 H280 H 0.79539 0.14924 0.69763
 H281 H 0.83358 0.13666 0.74251
 H282 H 0.94363 0.08879 0.78122
 H283 H 0.99635 0.06059 0.76850
 H284 H 1.01020 0.04468 0.71138
 H285 H 0.97208 0.05715 0.66661
 C286 C 1.09246 -0.08732 0.67240
 C287 C 1.10453 -0.11936 0.67885
 C288 C 1.11077 -0.12925 0.71178
 C289 C 1.10515 -0.10697 0.73805
 C290 C 1.09278 -0.07504 0.73164
 C291 C 1.08632 -0.06521 0.69871
 C292 C 1.07364 -0.03328 0.69293
 C293 C 1.06758 -0.01171 0.71894
 C294 C 1.07413 -0.02119 0.75109
 C295 C 1.08661 -0.05249 0.75753
 C296 C 1.12257 -0.16151 0.71764
 C297 C 1.12797 -0.18335 0.69171
 C298 C 1.12190 -0.17365 0.65951
 C299 C 1.11033 -0.14205 0.65301
 C300 C 1.11307 -0.11675 0.77147
 C301 C 1.12076 -0.12554 0.79873
 C302 C 1.08523 -0.07756 0.63883
 C303 C 1.07863 -0.06970 0.61101
 H304 H 1.06834 -0.02463 0.66833
 H305 H 1.05803 0.01260 0.71407
 H306 H 1.06954 -0.00419 0.77114
 H307 H 1.09125 -0.05883 0.78296
 H308 H 1.12761 -0.17024 0.74226
 H309 H 1.13690 -0.20795 0.69664
 H310 H 1.12615 -0.19070 0.63944
 H311 H 1.10596 -0.13567 0.62754
 C312 C 0.31602 1.07616 1.08120
 C313 C 0.29589 1.09297 1.05783
 C314 C 0.26141 1.09883 1.06425
 C315 C 0.24741 1.08828 1.09419
 C316 C 0.26742 1.07108 1.11733
 C317 C 0.30186 1.06512 1.11089
 C318 C 0.32157 1.04871 1.13483
 C319 C 0.30767 1.03867 1.16437
 C320 C 0.27389 1.04403 1.17047
 C321 C 0.25386 1.06001 1.14730
 C322 C 0.24175 1.11564 1.04056
 C323 C 0.25585 1.12675 1.01152
 C324 C 0.28966 1.12144 1.00545
 C325 C 0.30954 1.10462 1.02817
 C326 C 0.21335 1.09772 1.10266
 C327 C 0.18578 1.10672 1.11108
 C328 C 0.35128 1.07032 1.07481
 C329 C 0.38047 1.06521 1.06929
 H330 H 0.34794 1.04378 1.13115
 H331 H 0.32323 1.02672 1.18266
 H332 H 0.26318 1.03594 1.19336
 H333 H 0.22771 1.06367 1.15319
 H334 H 0.21532 1.12031 1.04421
 H335 H 0.24045 1.13951 0.99362
 H336 H 0.30048 1.13011 0.98284
 H337 H 0.33565 1.10084 1.02220
 C338 C 0.32866 0.91085 0.91655
 C339 C 0.32250 0.89137 0.88852
 C340 C 0.28953 0.88193 0.88138
 C341 C 0.26289 0.89199 0.90233
 C342 C 0.26906 0.91134 0.93046
 C343 C 0.30204 0.92093 0.93753
 C344 C 0.30763 0.94028 0.96580
 C345 C 0.28145 0.94948 0.98673
 C346 C 0.24920 0.94015 0.97979
 C347 C 0.24291 0.92134 0.95195
 C348 C 0.28401 0.86245 0.85315
 C349 C 0.31028 0.85263 0.83261
 C350 C 0.34251 0.86188 0.83961
 C351 C 0.34871 0.88101 0.86721
 C352 C 0.22930 0.88252 0.89438
 C353 C 0.20222 0.87381 0.88586
 C354 C 0.36243 0.92021 0.92385
 C355 C 0.39054 0.92781 0.92988
 H356 H 0.33229 0.94809 0.97227
 H357 H 0.28627 0.96363 1.00865
 H358 H 0.22897 0.94736 0.99615
 H359 H 0.21746 0.91454 0.94759
 H360 H 0.25940 0.85456 0.84661
 H361 H 0.30557 0.83775 0.81115
 H362 H 0.36284 0.85421 0.82356
 H363 H 0.37423 0.88756 0.87160
 C364 C 0.68187 0.92418 1.08049
 C365 C 0.69695 0.89453 1.06937
 C366 C 0.73119 0.88763 1.07587
 C367 C 0.75010 0.91028 1.09370
 C368 C 0.73529 0.94033 1.10401
 C369 C 0.70101 0.94723 1.09756
 C370 C 0.68656 0.97711 1.10876
 C371 C 0.70551 0.99963 1.12566
 C372 C 0.73912 0.99304 1.13160
 C373 C 0.75396 0.96373 1.12102
 C374 C 0.74571 0.85779 1.06457
 C375 C 0.72682 0.83525 1.04769
 C376 C 0.69323 0.84181 1.04173
 C377 C 0.67838 0.87116 1.05216
 C378 C 0.78389 0.90140 1.10356
 C379 C 0.81127 0.89253 1.11252
 C380 C 0.64670 0.93083 1.07435
 C381 C 0.61757 0.93609 1.06873
 H382 H 0.66056 0.98344 1.10449
 H383 H 0.69411 1.02244 1.13392
 H384 H 0.75379 1.01075 1.14445
 H385 H 0.78019 0.95965 1.12620
 H386 H 0.77176 0.85155 1.06864
 H387 H 0.73829 0.81251 1.03931
 H388 H 0.67856 0.82405 1.02900
 H389 H 0.65220 0.87519 1.04675
 C390 C 0.67031 1.09007 0.91781
 C391 C 0.69759 1.07011 0.92834
 C392 C 0.73068 1.07859 0.92025
 C393 C 0.73627 1.10718 0.90204
 C394 C 0.70898 1.12736 0.89191
 C395 C 0.67591 1.11874 0.89976
 C396 C 0.64904 1.13920 0.88920
 C397 C 0.65467 1.16738 0.87138
 C398 C 0.68701 1.17583 0.86372
 C399 C 0.71393 1.15617 0.87381
 C400 C 0.75752 1.05800 0.93054
 C401 C 0.75184 1.02979 0.94832
 C402 C 0.71952 1.02156 0.95634
 C403 C 0.69261 1.04148 0.94669
 C404 C 0.76986 1.11574 0.89291
 C405 C 0.79700 1.12392 0.88400
 C406 C 0.63646 1.08108 0.92524
 C407 C 0.60831 1.07373 0.93139
 H408 H 0.62342 1.13370 0.89458
 H409 H 0.63384 1.18273 0.86350
 H410 H 0.69127 1.19774 0.84987
 H411 H 0.73859 1.16386 0.86727
 H412 H 0.78309 1.06342 0.92486
 H413 H 0.77263 1.01416 0.95579
 H414 H 0.71522 0.99945 0.96982
 H415 H 0.66792 1.03402 0.95345
 C416 C 0.07800 0.32143 0.08134
 C417 C 0.06086 0.29744 0.06348
 C418 C 0.06641 0.26395 0.07091
 C419 C 0.08904 0.25475 0.09613
 C420 C 0.10652 0.27877 0.11364
 C421 C 0.10100 0.31220 0.10618
 C422 C 0.11889 0.33576 0.12388
 C423 C 0.14163 0.32655 0.14822
 C424 C 0.14702 0.29386 0.15557
 C425 C 0.12973 0.27015 0.13860
 C426 C 0.04915 0.24039 0.05268
 C427 C 0.02728 0.24962 0.02755
 C428 C 0.02197 0.28234 0.02019
 C429 C 0.03825 0.30610 0.03807
 C430 C 0.09516 0.22071 0.10399
 C431 C 0.10213 0.19311 0.11185
 C432 C 0.07191 0.35564 0.07439
 C433 C 0.06687 0.38408 0.06876
 H434 H 0.11562 0.36151 0.11904
 H435 H 0.15516 0.34488 0.16144
 H436 H 0.16473 0.28681 0.17450
 H437 H 0.13489 0.24506 0.14525
 H438 H 0.05255 0.21464 0.05752
 H439 H 0.01449 0.23128 0.01361
 H440 H 0.00534 0.28936 0.00036
 H441 H 0.03328 0.33124 0.03144
 C442 C -0.08210 0.32820 -0.08319
 C443 C -0.07926 0.30371 -0.05888
 C444 C -0.08688 0.27106 -0.06692
 C445 C -0.09690 0.26311 -0.09928
 C446 C -0.09784 0.28726 -0.12402
 C447 C -0.09066 0.31994 -0.11589
 C448 C -0.09197 0.34370 -0.14100
 C449 C -0.09980 0.33533 -0.17328
 C450 C -0.10669 0.30333 -0.18127
 C451 C -0.10588 0.27949 -0.15701
 C452 C -0.08420 0.24702 -0.04221
 C453 C -0.07369 0.25490 -0.01056
 C454 C -0.06586 0.28673 -0.00283
 C455 C -0.06884 0.31104 -0.02650
 C456 C -0.10743 0.23054 -0.10720
 C457 C -0.11722 0.20430 -0.11543
 C458 C -0.07610 0.36187 -0.07481
 C459 C -0.07085 0.38992 -0.06853
 H460 H -0.08664 0.36890 -0.13606
 H461 H -0.10044 0.35376 -0.19220
 H462 H -0.11268 0.29691 -0.20640
 H463 H -0.11135 0.25493 -0.16450
 H464 H -0.08982 0.22189 -0.04721
 H465 H -0.07141 0.23620 0.00802
 H466 H -0.05714 0.29254 0.02158
 H467 H -0.06256 0.33547 -0.01925
 C468 C 0.08817 0.66590 -0.08396
 C469 C 0.06666 0.69185 -0.07342
 C470 C 0.07416 0.72445 -0.08143
 C471 C 0.10339 0.73088 -0.09949
 C472 C 0.12507 0.70492 -0.10970
 C473 C 0.11737 0.67234 -0.10200
 C474 C 0.13929 0.64677 -0.11265
 C475 C 0.16808 0.65323 -0.13031
 C476 C 0.17566 0.68509 -0.13782
 C477 C 0.15452 0.71073 -0.12770
 C478 C 0.05200 0.74994 -0.07121
 C479 C 0.02316 0.74342 -0.05361
 C480 C 0.01587 0.71156 -0.04569
 C481 C 0.03740 0.68599 -0.05520
 C482 C 0.11135 0.76400 -0.10795
 C483 C 0.11944 0.79079 -0.11606
 C484 C 0.08019 0.63255 -0.07656
 C485 C 0.07357 0.60485 -0.07044
 H486 H 0.13447 0.62156 -0.10745
 H487 H 0.18460 0.63339 -0.13819
 H488 H 0.19805 0.69000 -0.15158
 H489 H 0.16156 0.73508 -0.13414
 H490 H 0.05663 0.77510 -0.07688
 H491 H 0.00632 0.76317 -0.04619
 H492 H -0.00678 0.70658 -0.03242
 H493 H 0.03064 0.66162 -0.04849
 C494 C -0.07593 0.67777 0.08084
 C495 C -0.05196 0.69530 0.09865
 C496 C -0.05761 0.72900 0.10532
 C497 C -0.08739 0.74485 0.09452
 C498 C -0.11106 0.72747 0.07617
 C499 C -0.10539 0.69380 0.06945
 C500 C -0.12978 0.67678 0.05175
 C501 C -0.15895 0.69256 0.04104
 C502 C -0.16430 0.72558 0.04719
 C503 C -0.14073 0.74296 0.06455
 C504 C -0.03325 0.74607 0.12299
 C505 C -0.00420 0.73023 0.13400
 C506 C 0.00116 0.69720 0.12782
 C507 C -0.02234 0.67981 0.11033
 C508 C -0.09505 0.77825 0.10429
 C509 C -0.10302 0.80542 0.11310
 C510 C -0.07035 0.64332 0.07411
 C511 C -0.06563 0.61480 0.06816
 H512 H -0.12671 0.65109 0.04620
 H513 H -0.17754 0.67905 0.02797
 H514 H -0.18690 0.73778 0.03858
 H515 H -0.14604 0.76861 0.06877
 H516 H -0.03633 0.77181 0.12833
 H517 H 0.01429 0.74368 0.14731
 H518 H 0.02380 0.68502 0.13635
 H519 H -0.01694 0.65421 0.10590
 C520 C 1.07612 0.08003 0.67901
 C521 C 1.10129 0.06307 0.69696
 C522 C 1.10543 0.06959 0.73108
 C523 C 1.08465 0.09330 0.74696
 C524 C 1.05846 0.10909 0.72937
 C525 C 1.05424 0.10252 0.69526
 C526 C 1.02793 0.11869 0.67818
 C527 C 1.00620 0.14046 0.69441
 C528 C 1.01028 0.14680 0.72778
 C529 C 1.03616 0.13146 0.74515
 C530 C 1.13048 0.05202 0.74861
 C531 C 1.15077 0.02862 0.73291
 C532 C 1.14679 0.02233 0.69953
 C533 C 1.12245 0.03936 0.68161
 C534 C 1.09175 0.10295 0.78062
 C535 C 1.09918 0.11155 0.80801
 C536 C 1.07243 0.07399 0.64397
 C537 C 1.06885 0.06879 0.61498
 H538 H 1.02361 0.11440 0.65226
 H539 H 0.98599 0.15236 0.68105
 H540 H 0.99327 0.16363 0.74030
 H541 H 1.03825 0.13700 0.77112
 H542 H 1.13438 0.05593 0.77466
 H543 H 1.16965 0.01525 0.74675
 H544 H 1.16256 0.00408 0.68746
 H545 H 1.12014 0.03345 0.65575
 C546 C 0.92610 -0.07733 0.67542
 C547 C 0.89416 -0.06997 0.68883
 C548 C 0.88726 -0.07778 0.72212
 C549 C 0.91236 -0.09280 0.74182
 C550 C 0.94474 -0.09876 0.72889
 C551 C 0.95162 -0.09109 0.69554
 C552 C 0.98406 -0.09771 0.68302
 C553 C 1.00892 -0.11153 0.70289
 C554 C 1.00229 -0.11872 0.73557
 C555 C 0.97056 -0.11252 0.74855
 C556 C 0.85503 -0.07049 0.73490
 C557 C 0.83038 -0.05585 0.71537
 C558 C 0.83715 -0.04815 0.68285
 C559 C 0.86863 -0.05507 0.66959
 C560 C 0.90408 -0.10376 0.77463
 C561 C 0.89566 -0.11345 0.80122
 C562 C 0.93249 -0.07110 0.64088
 C563 C 0.93779 -0.06576 0.61224
 H564 H 0.99056 -0.09231 0.65782
 H565 H 1.03344 -0.11679 0.69286
 H566 H 1.02181 -0.12926 0.75089
 H567 H 0.96653 -0.11852 0.77412
 H568 H 0.84857 -0.07583 0.76012
 H569 H 0.80589 -0.05042 0.72556
 H570 H 0.81792 -0.03672 0.66781
 H571 H 0.87270 -0.04852 0.64418
 C572 C 1.09420 -0.08617 0.32709
 C573 C 1.10910 -0.11712 0.32031
 C574 C 1.11513 -0.12697 0.28721
 C575 C 1.10644 -0.10571 0.26107
 C576 C 1.09134 -0.07484 0.26782
 C577 C 1.08511 -0.06508 0.30094
 C578 C 1.06959 -0.03431 0.30707
 C579 C 1.06064 -0.01373 0.28125
 C580 C 1.06694 -0.02312 0.24890
 C581 C 1.08211 -0.05334 0.24210
 C582 C 1.12981 -0.15817 0.28107
 C583 C 1.13825 -0.17901 0.30687
 C584 C 1.13242 -0.16933 0.33924
 C585 C 1.11804 -0.13876 0.34603
 C586 C 1.11378 -0.11547 0.22738
 C587 C 1.12095 -0.12421 0.19984
 C588 C 1.08708 -0.07659 0.36087
 C589 C 1.08045 -0.06894 0.38885
 H590 H 1.06435 -0.02576 0.33183
 H591 H 1.04909 0.00978 0.28643
 H592 H 1.06007 -0.00689 0.22898
 H593 H 1.08644 -0.05966 0.21654
 H594 H 1.13482 -0.16684 0.25632
 H595 H 1.14937 -0.20281 0.30173
 H596 H 1.13904 -0.18559 0.35921
 H597 H 1.11399 -0.13235 0.37161
 C598 C 0.91270 0.09425 0.32979
 C599 C 0.93525 0.08786 0.30356
 C600 C 0.92684 0.09786 0.27110
 C601 C 0.89580 0.11390 0.26502
 C602 C 0.87321 0.12024 0.29124
 C603 C 0.88170 0.11042 0.32372
 C604 C 0.85870 0.11696 0.34951
 C605 C 0.82813 0.13271 0.34337
 C606 C 0.81981 0.14231 0.31161
 C607 C 0.84200 0.13623 0.28575
 C608 C 0.94986 0.09138 0.24531
 C609 C 0.98020 0.07519 0.25136
 C610 C 0.98825 0.06518 0.28304
 C611 C 0.96624 0.07147 0.30895
 C612 C 0.88675 0.12340 0.23179
 C613 C 0.87838 0.13139 0.20445
 C614 C 0.92142 0.08415 0.36295
 C615 C 0.92914 0.07563 0.39030
 H616 H 0.86405 0.10994 0.37463
 H617 H 0.81081 0.13747 0.36337
 H618 H 0.79604 0.15454 0.30696
 H619 H 0.83439 0.14420 0.26149
 H620 H 0.94467 0.09873 0.22026
 H621 H 0.99760 0.07048 0.23141
 H622 H 1.01187 0.05286 0.28767
 H623 H 0.97383 0.06340 0.33319
 C624 C 0.05892 0.31435 -0.06450
 C625 C 0.03896 0.29877 -0.08818
 C626 C 0.04395 0.26493 -0.09452
 C627 C 0.06876 0.24700 -0.07706
 C628 C 0.08569 0.26176 -0.05064
 C629 C 0.08088 0.29563 -0.04443
 C630 C 0.09856 0.31005 -0.01832
 C631 C 0.11996 0.29138 0.00149
 C632 C 0.12450 0.25820 -0.00446
 C633 C 0.10780 0.24347 -0.03038
 C634 C 0.02418 0.24989 -0.11867
 C635 C -0.00003 0.26778 -0.13598
 C636 C -0.00481 0.30090 -0.12988
 C637 C 0.01437 0.31636 -0.10625
 C638 C 0.07988 0.21507 -0.08891
 C639 C 0.09092 0.18969 -0.10004
 C640 C 0.05815 0.34962 -0.06201
 C641 C 0.05768 0.37892 -0.06025
 H642 H 0.09549 0.33569 -0.01253
 H643 H 0.13289 0.30269 0.02170
 H644 H 0.14101 0.24379 0.01110
 H645 H 0.11193 0.21756 -0.03405
 H646 H 0.02700 0.22414 -0.12409
 H647 H -0.01512 0.25590 -0.15426
 H648 H -0.02342 0.31472 -0.14359
 H649 H 0.00956 0.34211 -0.10213
 C650 C -0.08190 0.32818 0.07583
 C651 C -0.05814 0.30799 0.09232
 C652 C -0.06556 0.27514 0.09930
 C653 C -0.09672 0.26282 0.08996
 C654 C -0.11932 0.28224 0.07126
 C655 C -0.11194 0.31506 0.06422
 C656 C -0.13495 0.33405 0.04554
 C657 C -0.16436 0.32091 0.03402
 C658 C -0.17160 0.28881 0.04093
 C659 C -0.14947 0.26960 0.05940
 C660 C -0.04149 0.25535 0.11575
 C661 C -0.01090 0.26767 0.12503
 C662 C -0.00375 0.29986 0.11844
 C663 C -0.02697 0.31989 0.10220
 C664 C -0.10688 0.23146 0.10201
 C665 C -0.11669 0.20638 0.11319
 C666 C -0.07549 0.36232 0.07069
 C667 C -0.07018 0.39064 0.06619
 H668 H -0.13036 0.35910 0.03942
 H669 H -0.18162 0.33572 0.01963
 H670 H -0.19447 0.27870 0.03190
 H671 H -0.15604 0.24469 0.06394
 H672 H -0.04596 0.23013 0.12128
 H673 H 0.00734 0.25217 0.13742
 H674 H 0.01998 0.30933 0.12583
 H675 H -0.02014 0.34468 0.09734
 C676 C -0.07634 0.67588 -0.08439
 C677 C -0.10608 0.69177 -0.07329
 C678 C -0.11218 0.72523 -0.08040
 C679 C -0.08864 0.74254 -0.09883
 C680 C -0.05854 0.72688 -0.10925
 C681 C -0.05245 0.69339 -0.10218
 C682 C -0.02247 0.67809 -0.11344
 C683 C 0.00094 0.69545 -0.13094
 C684 C -0.00487 0.72828 -0.13754
 C685 C -0.03426 0.74393 -0.12693
 C686 C -0.14212 0.74058 -0.06906
 C687 C -0.16557 0.72325 -0.05161
 C688 C -0.15981 0.69043 -0.04509
 C689 C -0.13035 0.67480 -0.05549
 C690 C -0.09665 0.77569 -0.10889
 C691 C -0.10491 0.80268 -0.11779
 C692 C -0.07040 0.64158 -0.07742
 C693 C -0.06547 0.61319 -0.07123
 H694 H -0.01670 0.65268 -0.10865
 H695 H 0.02385 0.68344 -0.13915
 H696 H 0.01353 0.74171 -0.15089
 H697 H -0.03769 0.76951 -0.13258
 H698 H -0.14775 0.76608 -0.07354
 H699 H -0.18839 0.73534 -0.04324
 H700 H -0.17829 0.67696 -0.03193
 H701 H -0.12694 0.64928 -0.04960
 C702 C 0.08773 0.66795 0.08098
 C703 C 0.11677 0.67460 0.09922
 C704 C 0.12417 0.70724 0.10732
 C705 C 0.10236 0.73305 0.09732
 C706 C 0.07345 0.72644 0.07883
 C707 C 0.06625 0.69378 0.07040
 C708 C 0.03734 0.68774 0.05170
 C709 C 0.01585 0.71319 0.04210
 C710 C 0.02284 0.74511 0.05042
 C711 C 0.05132 0.75181 0.06855
 C712 C 0.15348 0.71327 0.12548
 C713 C 0.17480 0.68779 0.13532
 C714 C 0.16752 0.65586 0.12741
 C715 C 0.13884 0.64919 0.10964
 C716 C 0.10994 0.76622 0.10638
 C717 C 0.11780 0.79305 0.11491
 C718 C 0.07980 0.63450 0.07359
 C719 C 0.07318 0.60670 0.06763
 H720 H 0.03085 0.66332 0.04462
 H721 H -0.00652 0.70808 0.02843
 H722 H 0.00605 0.76477 0.04291
 H723 H 0.05570 0.77700 0.07455
 H724 H 0.16030 0.73767 0.13221
 H725 H 0.19708 0.69286 0.14917
 H726 H 0.18419 0.63615 0.13505
 H727 H 0.13425 0.62394 0.10411
 C728 C 0.31718 1.07991 0.91851
 C729 C 0.29202 1.06807 0.93936
 C730 C 0.25796 1.07635 0.93308
 C731 C 0.24927 1.09617 0.90583
 C732 C 0.27445 1.10775 0.88483
 C733 C 0.30847 1.09961 0.89120
 C734 C 0.33318 1.11153 0.86991
 C735 C 0.32453 1.13093 0.84306
 C736 C 0.29127 1.13891 0.83681
 C737 C 0.26642 1.12754 0.85735
 C738 C 0.23330 1.06464 0.95452
 C739 C 0.24204 1.04548 0.98154
 C740 C 0.27532 1.03745 0.98772
 C741 C 0.30011 1.04831 0.96680
 C742 C 0.21457 1.10471 0.89905
 C743 C 0.18628 1.11251 0.89198
 C744 C 0.35205 1.07243 0.92545
 C745 C 0.38102 1.06650 0.93134
 H746 H 0.35941 1.10597 0.87372
 H747 H 0.34376 1.13981 0.82703
 H748 H 0.28468 1.15402 0.81592
 H749 H 0.24092 1.13445 0.85142
 H750 H 0.20710 1.07038 0.95077
 H751 H 0.22291 1.03697 0.99789
 H752 H 0.28201 1.02301 1.00902
 H753 H 0.32565 1.04144 0.97264
 C754 C 0.32615 0.91435 1.07813
 C755 C 0.31090 0.92572 1.10761
 C756 C 0.27729 0.91827 1.11447
 C757 C 0.25921 0.89920 1.09196
 C758 C 0.27415 0.88858 1.06206
 C759 C 0.30782 0.89596 1.05523
 C760 C 0.32251 0.88434 1.02558
 C761 C 0.30433 0.86625 1.00316
 C762 C 0.27126 0.85945 1.00963
 C763 C 0.25623 0.87035 1.03876
 C764 C 0.26260 0.92985 1.14417
 C765 C 0.28078 0.94785 1.16665
 C766 C 0.31382 0.95467 1.16016
 C767 C 0.32875 0.94407 1.13091
 C768 C 0.22645 0.88828 1.10111
 C769 C 0.20009 0.87859 1.11057
 C770 C 0.36068 0.92157 1.07155
 C771 C 0.38926 0.92806 1.06630
 H772 H 0.34807 0.88926 1.01934
 H773 H 0.31587 0.85776 0.98047
 H774 H 0.25714 0.84571 0.99195
 H775 H 0.23044 0.86449 1.04276
 H776 H 0.23698 0.92512 1.15035
 H777 H 0.26921 0.95642 1.18929
 H778 H 0.32801 0.96819 1.17791
 H779 H 0.35445 0.95021 1.12693
 C780 C 0.66896 1.09037 1.08593
 C781 C 0.69654 1.07113 1.07458
 C782 C 0.72948 1.08005 1.08274
 C783 C 0.73460 1.10839 1.10181
 C784 C 0.70700 1.12778 1.11288
 C785 C 0.67409 1.11869 1.10499
 C786 C 0.64689 1.13837 1.11648
 C787 C 0.65208 1.16628 1.13516
 C788 C 0.68426 1.17521 1.14284
 C789 C 0.71149 1.15628 1.13193
 C790 C 0.75665 1.06019 1.07160
 C791 C 0.75142 1.03228 1.05288
 C792 C 0.71923 1.02362 1.04481
 C793 C 0.69202 1.04281 1.05532
 C794 C 0.76806 1.11767 1.11056
 C795 C 0.79512 1.12651 1.11900
 C796 C 0.63529 1.08107 1.07810
 C797 C 0.60733 1.07346 1.07148
 H798 H 0.62137 1.13244 1.11115
 H799 H 0.63100 1.18106 1.14371
 H800 H 0.68817 1.19693 1.15734
 H801 H 0.73602 1.16427 1.13860
 H802 H 0.78213 1.06593 1.07734
 H803 H 0.77245 1.01724 1.04470
 H804 H 0.71529 1.00173 1.03061
 H805 H 0.66745 1.03500 1.04850
 C806 C 0.68215 0.92366 0.91852
 C807 C 0.70195 0.94635 0.90193
 C808 C 0.73608 0.93863 0.89535
 C809 C 0.75009 0.90818 0.90511
 C810 C 0.73059 0.88598 0.92268
 C811 C 0.69649 0.89368 0.92928
 C812 C 0.67731 0.87075 0.94621
 C813 C 0.69142 0.84106 0.95626
 C814 C 0.72487 0.83371 0.95019
 C815 C 0.74436 0.85581 0.93360
 C816 C 0.75541 0.96165 0.87875
 C817 C 0.74137 0.99140 0.86876
 C818 C 0.70792 0.99882 0.87491
 C819 C 0.68833 0.97667 0.89135
 C820 C 0.78357 0.89841 0.89485
 C821 C 0.81064 0.88890 0.88541
 C822 C 0.64704 0.93094 0.92445
 C823 C 0.61792 0.93654 0.92997
 H824 H 0.65123 0.87540 0.95173
 H825 H 0.67627 0.82366 0.96879
 H826 H 0.73576 0.81070 0.95828
 H827 H 0.77027 0.84898 0.92946
 H828 H 0.78155 0.95694 0.87347
 H829 H 0.75652 1.00881 0.85621
 H830 H 0.69715 1.02199 0.86716
 H831 H 0.66250 0.98364 0.89583
   
