data_POSCAR
  _audit_creation_date              2014-09-24
  _audit_creation_method            'ToBaCCo'
  _symmetry_space_group_name_H-M    'P1'
  _symmetry_Int_Tables_number       1
  _symmetry_cell_setting            triclinic
  loop_
  _symmetry_equiv_pos_as_xyz
 x,y,z
_cell_length_a 36.8032
_cell_length_b 37.1604
_cell_length_c 35.6008
_cell_angle_alpha 90.150700
_cell_angle_beta 90.000000
_cell_angle_gamma 90.000000
loop_
  _atom_site_label
  _atom_site_type_symbol
  _atom_site_fract_x
  _atom_site_fract_y
  _atom_site_fract_z
C1 C 1.25156 0.25005 0.25005
 C2 C 0.74990 -0.24995 0.25005
 C3 C 0.75002 0.25005 -0.24995
 C4 C 1.25126 -0.24995 -0.24995
 C5 C 0.25002 0.25005 0.75005
 C6 C 0.74884 0.75005 0.75005
 C7 C 0.74859 0.25005 0.25005
 C8 C 0.25003 0.75005 0.25005
 N9 N 0.96186 0.03851 -0.06589
 N10 N 0.93817 0.04652 -0.09247
 N11 N 1.03828 0.06355 -0.03997
 N12 N 1.06197 0.08906 -0.04805
 N13 N 1.03822 0.03861 -0.06621
 N14 N 1.06188 0.04653 -0.09284
 N15 N 0.96194 0.06345 -0.03965
 N16 N 0.93832 0.08905 -0.04769
 C17 C 0.92333 0.07773 -0.08030
 C18 C 1.07683 0.07770 -0.08070
 N19 N 1.03885 0.03860 0.06718
 N20 N 1.06289 0.04644 0.09349
 N21 N 0.96233 0.06342 0.04142
 N22 N 0.93843 0.08877 0.04950
 N23 N 0.96251 0.03853 0.06759
 N24 N 0.93872 0.04636 0.09417
 N25 N 1.03864 0.06352 0.04105
 N26 N 1.06254 0.08893 0.04888
 Mn27 Mn 1.00030 0.06375 0.00072
 C28 C 1.07779 0.07753 0.08126
 C29 C 0.92358 0.07740 0.08208
 N30 N 1.03837 -0.03913 -0.06630
 N31 N 1.06223 -0.04685 -0.09283
 N32 N 0.96224 -0.06422 -0.03985
 N33 N 0.93845 -0.08972 -0.04779
 N34 N 0.96203 -0.03929 -0.06596
 N35 N 0.93810 -0.04721 -0.09237
 N36 N 1.03855 -0.06404 -0.04016
 N37 N 1.06252 -0.08932 -0.04820
 Mn38 Mn 1.00012 -0.00033 -0.06641
 C39 C 1.07741 -0.07785 -0.08073
 C40 C 0.92326 -0.07836 -0.08023
 N41 N 0.96266 -0.03921 0.06741
 N42 N 0.93879 -0.04695 0.09387
 N43 N 1.03895 -0.06416 0.04094
 N44 N 1.06245 -0.08985 0.04907
 N45 N 1.03903 -0.03922 0.06719
 N46 N 1.06259 -0.04736 0.09387
 N47 N 0.96261 -0.06416 0.04118
 N48 N 0.93869 -0.08950 0.04908
 Mn49 Mn 1.00077 -0.00032 0.06766
 Mn50 Mn 1.00059 -0.06441 0.00052
 Cl51 Cl 1.00045 -0.00033 0.00063
 C52 C 0.92372 -0.07802 0.08162
 C53 C 1.07737 -0.07864 0.08176
 N54 N 0.96186 0.46159 0.56598
 N55 N 0.93817 0.45358 0.59256
 N56 N 1.03828 0.43656 0.54006
 N57 N 1.06197 0.41104 0.54814
 N58 N 1.03822 0.46149 0.56630
 N59 N 1.06188 0.45357 0.59294
 N60 N 0.96194 0.43665 0.53975
 N61 N 0.93832 0.41105 0.54779
 C62 C 0.92333 0.42237 0.58040
 C63 C 1.07683 0.42241 0.58079
 N64 N 1.03885 0.46150 0.43292
 N65 N 1.06289 0.45367 0.40660
 N66 N 0.96233 0.43668 0.45867
 N67 N 0.93843 0.41133 0.45060
 N68 N 0.96251 0.46157 0.43251
 N69 N 0.93872 0.45374 0.40592
 N70 N 1.03864 0.43658 0.45904
 N71 N 1.06254 0.41117 0.45121
 Mn72 Mn 1.00030 0.43635 0.49937
 C73 C 1.07779 0.42258 0.41884
 C74 C 0.92358 0.42270 0.41801
 N75 N 1.03837 0.53923 0.56639
 N76 N 1.06223 0.54695 0.59292
 N77 N 0.96224 0.56432 0.53994
 N78 N 0.93845 0.58982 0.54789
 N79 N 0.96203 0.53939 0.56606
 N80 N 0.93810 0.54731 0.59247
 N81 N 1.03855 0.56414 0.54025
 N82 N 1.06252 0.58943 0.54829
 Mn83 Mn 1.00012 0.50044 0.56650
 C84 C 1.07741 0.57795 0.58082
 C85 C 0.92326 0.57847 0.58032
 N86 N 0.96266 0.53931 0.43268
 N87 N 0.93878 0.54705 0.40622
 N88 N 1.03895 0.56426 0.45915
 N89 N 1.06244 0.58995 0.45102
 N90 N 1.03903 0.53932 0.43290
 N91 N 1.06259 0.54746 0.40622
 N92 N 0.96261 0.56426 0.45891
 N93 N 0.93869 0.58960 0.45101
 Mn94 Mn 1.00077 0.50042 0.43243
 Mn95 Mn 1.00059 0.56452 0.49957
 Cl96 Cl 1.00045 0.50043 0.49947
 C97 C 0.92372 0.57812 0.41847
 C98 C 1.07737 0.57874 0.41833
 N99 N 0.56390 0.03786 0.53998
 N100 N 0.58941 0.06173 0.54768
 N101 N 0.53893 -0.03762 0.56649
 N102 N 0.54658 -0.06150 0.59273
 N103 N 0.56407 -0.03771 0.54030
 N104 N 0.58949 -0.06164 0.54799
 N105 N 0.53876 0.03799 0.56618
 N106 N 0.54653 0.06196 0.59244
 C107 C 0.57783 0.07688 0.58008
 C108 C 0.57783 -0.07655 0.58039
 N109 N 0.43540 -0.03809 0.54021
 N110 N 0.41025 -0.06231 0.54778
 N111 N 0.46031 0.03775 0.56610
 N112 N 0.45262 0.06191 0.59217
 N113 N 0.43514 0.03745 0.53993
 N114 N 0.40967 0.06141 0.54747
 N115 N 0.46054 -0.03783 0.56641
 N116 N 0.45315 -0.06189 0.59254
 Mn117 Mn 0.49963 0.00008 0.56665
 C118 C 0.42207 -0.07722 0.58011
 C119 C 0.42132 0.07675 0.57973
 N120 N 0.56398 -0.03825 0.45942
 N121 N 0.58934 -0.06234 0.45204
 N122 N 0.53868 0.03703 0.43284
 N123 N 0.54621 0.06097 0.40660
 N124 N 0.56381 0.03729 0.45905
 N125 N 0.58907 0.06138 0.45139
 N126 N 0.53882 -0.03855 0.43324
 N127 N 0.54641 -0.06286 0.40729
 Mn128 Mn 0.56424 -0.00020 0.49968
 C129 C 0.57763 -0.07776 0.41985
 C130 C 0.57735 0.07623 0.41898
 N131 N 0.43515 0.03691 0.45905
 N132 N 0.40995 0.06111 0.45159
 N133 N 0.46035 -0.03880 0.43306
 N134 N 0.45243 -0.06261 0.40667
 N135 N 0.43521 -0.03867 0.45927
 N136 N 0.40956 -0.06237 0.45142
 N137 N 0.46030 0.03682 0.43286
 N138 N 0.45288 0.06097 0.40684
 Mn139 Mn 0.43492 -0.00060 0.49962
 Mn140 Mn 0.49955 -0.00088 0.43264
 Cl141 Cl 0.49958 -0.00041 0.49965
 C142 C 0.42176 0.07617 0.41933
 C143 C 0.42105 -0.07744 0.41893
 N144 N 0.56398 0.53835 0.04067
 N145 N 0.58933 0.56244 0.04806
 N146 N 0.53868 0.46307 0.06726
 N147 N 0.54621 0.43913 0.09349
 N148 N 0.56381 0.46281 0.04104
 N149 N 0.58907 0.43872 0.04870
 N150 N 0.53882 0.53865 0.06686
 N151 N 0.54641 0.56296 0.09280
 C152 C 0.57762 0.57787 0.08025
 C153 C 0.57735 0.42387 0.08111
 N154 N 0.43515 0.46319 0.04105
 N155 N 0.40995 0.43899 0.04850
 N156 N 0.46035 0.53890 0.06703
 N157 N 0.45243 0.56271 0.09343
 N158 N 0.43521 0.53877 0.04083
 N159 N 0.40956 0.56247 0.04868
 N160 N 0.46030 0.46328 0.06723
 N161 N 0.45288 0.43913 0.09326
 Mn162 Mn 0.49955 0.50098 0.06746
 C163 C 0.42176 0.42393 0.08077
 C164 C 0.42105 0.57754 0.08116
 N165 N 0.56390 0.46224 -0.03989
 N166 N 0.58941 0.43837 -0.04759
 N167 N 0.53893 0.53772 -0.06639
 N168 N 0.54658 0.56160 -0.09264
 N169 N 0.56407 0.53781 -0.04020
 N170 N 0.58949 0.56174 -0.04789
 N171 N 0.53876 0.46211 -0.06609
 N172 N 0.54653 0.43814 -0.09234
 Mn173 Mn 0.56424 0.50030 0.00042
 C174 C 0.57783 0.42322 -0.07999
 C175 C 0.57783 0.57666 -0.08029
 N176 N 0.43539 0.53819 -0.04012
 N177 N 0.41025 0.56241 -0.04769
 N178 N 0.46031 0.46235 -0.06601
 N179 N 0.45262 0.43819 -0.09208
 N180 N 0.43514 0.46265 -0.03983
 N181 N 0.40968 0.43869 -0.04737
 N182 N 0.46054 0.53794 -0.06632
 N183 N 0.45315 0.56199 -0.09245
 Mn184 Mn 0.43492 0.50070 0.00047
 Mn185 Mn 0.49962 0.50003 -0.06656
 Cl186 Cl 0.49958 0.50051 0.00045
 C187 C 0.42207 0.57732 -0.08001
 C188 C 0.42132 0.42335 -0.07964
 C189 C 1.14553 0.18181 0.14227
 C190 C 1.14576 0.18306 0.18575
 C191 C 1.18748 0.18314 0.18499
 C192 C 1.18762 0.18225 0.14185
 C193 C 1.14647 0.14050 0.14392
 C194 C 1.18820 0.14056 0.14315
 C195 C 1.14635 0.14141 0.18707
 C196 C 1.18844 0.14184 0.18667
 C197 C 1.21010 0.20697 0.20796
 C198 C 1.22872 0.22653 0.22694
 C199 C 1.12299 0.11722 0.12124
 C200 C 1.10286 0.09869 0.10283
 H201 H 1.12764 0.19798 0.12373
 H202 H 1.12857 0.20080 0.20350
 H203 H 1.20484 0.19934 0.12354
 H204 H 1.20538 0.12282 0.12539
 H205 H 1.12914 0.12433 0.20541
 H206 H 1.20635 0.12570 0.20523
 C207 C 1.14532 0.64205 0.68701
 C208 C 1.18742 0.64183 0.68729
 C209 C 1.18713 0.68312 0.68504
 C210 C 1.14541 0.68368 0.68512
 C211 C 1.14608 0.64060 0.64389
 C212 C 1.14581 0.68189 0.64166
 C213 C 1.18781 0.64001 0.64378
 C214 C 1.18790 0.68168 0.64192
 C215 C 1.20978 0.70691 0.70803
 C216 C 1.22842 0.72648 0.72699
 C217 C 1.12258 0.61740 0.62112
 C218 C 1.10245 0.59897 0.60259
 H219 H 1.12758 0.62546 0.70530
 H220 H 1.20479 0.62566 0.70635
 H221 H 1.12823 0.70190 0.70236
 H222 H 1.12846 0.69810 0.62263
 H223 H 1.20497 0.62179 0.62654
 H224 H 1.20565 0.69829 0.62366
 C225 C 0.64178 0.14603 0.68535
 C226 C 0.68383 0.14567 0.68404
 C227 C 0.68369 0.18700 0.68313
 C228 C 0.64198 0.18771 0.68480
 C229 C 0.64097 0.14588 0.64220
 C230 C 0.64080 0.18720 0.64127
 C231 C 0.68269 0.14518 0.64056
 C232 C 0.68291 0.18687 0.63999
 C233 C 0.70748 0.20953 0.70630
 C234 C 0.72688 0.22786 0.72580
 C235 C 0.61761 0.12228 0.61970
 C236 C 0.59902 0.10204 0.60147
 H237 H 0.62459 0.12900 0.70377
 H238 H 0.70179 0.12885 0.70185
 H239 H 0.62552 0.20546 0.70327
 H240 H 0.62283 0.20401 0.62345
 H241 H 0.69919 0.12744 0.62211
 H242 H 0.70012 0.20391 0.62161
 C243 C 0.64039 0.68834 0.14126
 C244 C 0.64183 0.68847 0.18478
 C245 C 0.68352 0.68779 0.18280
 C246 C 0.68249 0.68805 0.13968
 C247 C 0.64063 0.64702 0.14185
 C248 C 0.68233 0.64636 0.13990
 C249 C 0.64170 0.64679 0.18498
 C250 C 0.68373 0.64648 0.18336
 C251 C 0.70737 0.71004 0.20603
 C252 C 0.72679 0.72814 0.22565
 C253 C 0.61724 0.62351 0.11944
 C254 C 0.59869 0.60322 0.10136
 H255 H 0.62227 0.70524 0.12370
 H256 H 0.62550 0.70607 0.20354
 H257 H 0.69958 0.70527 0.12137
 H258 H 0.69869 0.62877 0.12116
 H259 H 0.62463 0.62959 0.20333
 H260 H 0.70183 0.62955 0.20091
 C261 C 0.85533 -0.14153 0.18750
 C262 C 0.81323 -0.14178 0.18725
 C263 C 0.81401 -0.18309 0.18535
 C264 C 0.85574 -0.18318 0.18595
 C265 C 0.85506 -0.14063 0.14435
 C266 C 0.85582 -0.18194 0.14248
 C267 C 0.81333 -0.14052 0.14373
 C268 C 0.81373 -0.18220 0.14221
 C269 C 0.79137 -0.20684 0.20823
 C270 C 0.77274 -0.22639 0.22711
 C271 C 0.87855 -0.11747 0.12169
 C272 C 0.89868 -0.09904 0.10325
 H273 H 0.87267 -0.12451 0.20586
 H274 H 0.79545 -0.12557 0.20595
 H275 H 0.87291 -0.20098 0.20356
 H276 H 0.87358 -0.19819 0.12380
 H277 H 0.79617 -0.12271 0.12612
 H278 H 0.79638 -0.19923 0.12387
 C279 C 0.81344 0.35926 0.64310
 C280 C 0.81383 0.31756 0.64161
 C281 C 0.81424 0.31667 0.68476
 C282 C 0.81349 0.35799 0.68663
 C283 C 0.85519 0.35917 0.64355
 C284 C 0.85559 0.35826 0.68670
 C285 C 0.85592 0.31784 0.64170
 C286 C 0.85598 0.31660 0.68518
 C287 C 0.79158 0.29293 0.70781
 C288 C 0.77292 0.27347 0.72685
 C289 C 0.87858 0.38245 0.62074
 C290 C 0.89854 0.40105 0.60219
 H291 H 0.79619 0.37705 0.62557
 H292 H 0.79642 0.30055 0.62331
 H293 H 0.79579 0.37425 0.70538
 H294 H 0.87298 0.37526 0.70503
 H295 H 0.87360 0.30155 0.62297
 H296 H 0.87324 0.29881 0.70272
 C297 C 0.35907 -0.14639 0.68513
 C298 C 0.31703 -0.14621 0.68384
 C299 C 0.31736 -0.18752 0.68298
 C300 C 0.35907 -0.18807 0.68463
 C301 C 0.35983 -0.14654 0.64200
 C302 C 0.36020 -0.18786 0.64110
 C303 C 0.31811 -0.14601 0.64037
 C304 C 0.31809 -0.18770 0.63985
 C305 C 0.29370 -0.20988 0.70619
 C306 C 0.27436 -0.22803 0.72575
 C307 C 0.38295 -0.12293 0.61953
 C308 C 0.40128 -0.10258 0.60136
 H309 H 0.37622 -0.12917 0.70348
 H310 H 0.29900 -0.12936 0.70165
 H311 H 0.37559 -0.20565 0.70313
 H312 H 0.37824 -0.20468 0.62328
 H313 H 0.30156 -0.12844 0.62189
 H314 H 0.30092 -0.20493 0.62154
 C315 C 0.31800 0.35452 0.14073
 C316 C 0.31813 0.31283 0.14001
 C317 C 0.31748 0.31281 0.18314
 C318 C 0.31699 0.35412 0.18420
 C319 C 0.35971 0.35414 0.14229
 C320 C 0.35903 0.35409 0.18543
 C321 C 0.36024 0.31283 0.14119
 C322 C 0.35919 0.31241 0.18472
 C323 C 0.29393 0.29029 0.20629
 C324 C 0.27464 0.27204 0.22581
 C325 C 0.38273 0.37794 0.11992
 C326 C 0.40099 0.39843 0.10186
 H327 H 0.30134 0.37211 0.12237
 H328 H 0.30100 0.29561 0.12165
 H329 H 0.29892 0.37081 0.20213
 H330 H 0.37614 0.37130 0.20383
 H331 H 0.37832 0.29616 0.12325
 H332 H 0.37581 0.29482 0.20310
 C333 C 0.85523 0.14150 -0.18662
 C334 C 0.81313 0.14210 -0.18617
 C335 C 0.81424 0.18343 -0.18467
 C336 C 0.85597 0.18316 -0.18547
 C337 C 0.85519 0.14094 -0.14346
 C338 C 0.85627 0.18227 -0.14198
 C339 C 0.81345 0.14118 -0.14264
 C340 C 0.81418 0.18288 -0.14151
 C341 C 0.79158 0.20717 -0.20772
 C342 C 0.77292 0.22663 -0.22676
 C343 C 0.87858 0.11765 -0.12064
 C344 C 0.89854 0.09906 -0.10210
 H345 H 0.87234 0.12421 -0.20495
 H346 H 0.79515 0.12585 -0.20462
 H347 H 0.87323 0.20067 -0.20331
 H348 H 0.87424 0.19856 -0.12354
 H349 H 0.79620 0.12367 -0.12479
 H350 H 0.79707 0.20018 -0.12320
 C351 C 0.85516 0.64146 0.31259
 C352 C 0.81306 0.64188 0.31302
 C353 C 0.81401 0.68319 0.31475
 C354 C 0.85573 0.68312 0.31396
 C355 C 0.85506 0.64073 0.35574
 C356 C 0.85598 0.68205 0.35744
 C357 C 0.81333 0.64078 0.35654
 C358 C 0.81390 0.68247 0.35789
 C359 C 0.79137 0.70695 0.29186
 C360 C 0.77274 0.72649 0.27298
 C361 C 0.87855 0.61757 0.37841
 C362 C 0.89868 0.59914 0.39684
 H363 H 0.87236 0.62432 0.29422
 H364 H 0.79515 0.62566 0.29446
 H365 H 0.87290 0.70080 0.29621
 H366 H 0.87388 0.69830 0.37598
 H367 H 0.79617 0.62310 0.37430
 H368 H 0.79669 0.69963 0.37623
 C369 C 0.35885 0.14584 0.31467
 C370 C 0.31682 0.14598 0.31608
 C371 C 0.31748 0.18729 0.31695
 C372 C 0.35918 0.18752 0.31519
 C373 C 0.35971 0.14596 0.35781
 C374 C 0.36041 0.18727 0.35872
 C375 C 0.31800 0.14575 0.35954
 C376 C 0.31831 0.18744 0.36008
 C377 C 0.29392 0.20981 0.29381
 C378 C 0.27464 0.22806 0.27429
 C379 C 0.38273 0.12216 0.38017
 C380 C 0.40099 0.10167 0.39823
 H381 H 0.37581 0.12848 0.29627
 H382 H 0.29861 0.12928 0.29830
 H383 H 0.37580 0.20497 0.29666
 H384 H 0.37863 0.20394 0.37650
 H385 H 0.30135 0.12831 0.37806
 H386 H 0.30132 0.20480 0.37844
 C387 C 0.35893 0.64635 -0.18503
 C388 C 0.31689 0.64631 -0.18359
 C389 C 0.31736 0.68762 -0.18288
 C390 C 0.35906 0.68803 -0.18469
 C391 C 0.35982 0.64664 -0.14190
 C392 C 0.36033 0.68796 -0.14116
 C393 C 0.31812 0.64625 -0.14012
 C394 C 0.31823 0.68794 -0.13976
 C395 C 0.29370 0.70998 -0.20610
 C396 C 0.27435 0.72813 -0.22566
 C397 C 0.38295 0.62303 -0.11943
 C398 C 0.40128 0.60269 -0.10127
 H399 H 0.37595 0.62900 -0.20338
 H400 H 0.29874 0.62946 -0.20128
 H401 H 0.37558 0.70549 -0.20331
 H402 H 0.37849 0.70478 -0.12346
 H403 H 0.30156 0.62880 -0.12152
 H404 H 0.30118 0.70530 -0.12145
 C405 C 1.18776 -0.14156 -0.14189
 C406 C 1.18617 -0.18324 -0.14181
 C407 C 1.18713 -0.18302 -0.18495
 C408 C 1.18910 -0.14172 -0.18542
 C409 C 1.14608 -0.14049 -0.14379
 C410 C 1.14705 -0.14028 -0.18694
 C411 C 1.14414 -0.18180 -0.14336
 C412 C 1.14546 -0.18193 -0.18683
 C413 C 1.20978 -0.20681 -0.20793
 C414 C 1.22842 -0.22638 -0.22690
 C415 C 1.12258 -0.11730 -0.12102
 C416 C 1.10245 -0.09886 -0.10249
 H417 H 1.20489 -0.12469 -0.12317
 H418 H 1.20250 -0.20120 -0.12354
 H419 H 1.20786 -0.12553 -0.20301
 H420 H 1.13073 -0.12233 -0.20524
 H421 H 1.12539 -0.19802 -0.12579
 H422 H 1.12832 -0.19880 -0.20554
 C423 C 1.14627 0.35862 0.31302
 C424 C 1.18837 0.35826 0.31334
 C425 C 1.18748 0.31696 0.31510
 C426 C 1.14576 0.31697 0.31443
 C427 C 1.14648 0.35960 0.35617
 C428 C 1.14561 0.31829 0.35790
 C429 C 1.18820 0.35961 0.35687
 C430 C 1.18770 0.31793 0.35824
 C431 C 1.21010 0.29313 0.29213
 C432 C 1.22872 0.27357 0.27315
 C433 C 1.12300 0.38288 0.37885
 C434 C 1.10286 0.40142 0.39727
 H435 H 1.12901 0.37564 0.29469
 H436 H 1.20622 0.37440 0.29473
 H437 H 1.12856 0.29917 0.29673
 H438 H 1.12778 0.30212 0.37650
 H439 H 1.20539 0.37741 0.37457
 H440 H 1.20497 0.30089 0.37655
 C441 C 0.68233 -0.14623 0.36016
 C442 C 0.68252 -0.18791 0.36041
 C443 C 0.68352 -0.18769 0.31729
 C444 C 0.68370 -0.14638 0.31670
 C445 C 0.64063 -0.14692 0.35824
 C446 C 0.64167 -0.14672 0.31511
 C447 C 0.64042 -0.18823 0.35887
 C448 C 0.64183 -0.18840 0.31535
 C449 C 0.70737 -0.20994 0.29406
 C450 C 0.72679 -0.22804 0.27444
 C451 C 0.61725 -0.12341 0.38065
 C452 C 0.59869 -0.10311 0.39873
 H453 H 0.69869 -0.12861 0.37888
 H454 H 0.69964 -0.20511 0.37872
 H455 H 0.70178 -0.12945 0.29912
 H456 H 0.62457 -0.12954 0.29676
 H457 H 0.62233 -0.20514 0.37645
 H458 H 0.62550 -0.20602 0.29661
 C459 C 0.64193 0.35422 -0.18526
 C460 C 0.68397 0.35443 -0.18378
 C461 C 0.68369 0.31311 -0.18304
 C462 C 0.64198 0.31254 -0.18486
 C463 C 0.64097 0.35423 -0.14211
 C464 C 0.64066 0.31290 -0.14133
 C465 C 0.68269 0.35478 -0.14031
 C466 C 0.68277 0.31308 -0.13990
 C467 C 0.70748 0.29058 -0.20621
 C468 C 0.72688 0.27224 -0.22571
 C469 C 0.61761 0.37783 -0.11961
 C470 C 0.59902 0.39806 -0.10138
 H471 H 0.62486 0.37137 -0.20367
 H472 H 0.70205 0.37126 -0.20147
 H473 H 0.62552 0.29491 -0.20346
 H474 H 0.62257 0.29609 -0.12364
 H475 H 0.69918 0.37240 -0.12173
 H476 H 0.69986 0.29593 -0.12152
 C477 C 1.18673 0.14066 -0.14334
 C478 C 1.18671 0.14195 -0.18686
 C479 C 1.18590 0.18326 -0.18495
 C480 C 1.18629 0.18235 -0.14181
 C481 C 1.14499 0.14072 -0.14382
 C482 C 1.14420 0.18203 -0.14194
 C483 C 1.14461 0.14164 -0.18697
 C484 C 1.14417 0.18329 -0.18542
 C485 C 1.20852 0.20704 -0.20793
 C486 C 1.22715 0.22656 -0.22689
 C487 C 1.12162 0.11745 -0.12104
 C488 C 1.10165 0.09891 -0.10250
 H489 H 1.20398 0.12287 -0.12579
 H490 H 1.20444 0.12574 -0.20561
 H491 H 1.20367 0.19938 -0.12350
 H492 H 1.12648 0.19828 -0.12320
 H493 H 1.12724 0.12462 -0.20530
 H494 H 1.12691 0.20108 -0.20295
 C495 C 1.18730 0.64211 0.35583
 C496 C 1.18747 0.64337 0.31231
 C497 C 1.18671 0.68470 0.31415
 C498 C 1.18691 0.68381 0.35731
 C499 C 1.14555 0.64217 0.35520
 C500 C 1.14481 0.68351 0.35702
 C501 C 1.14536 0.64308 0.31203
 C502 C 1.14496 0.68475 0.31353
 C503 C 1.20950 0.70845 0.29115
 C504 C 1.22827 0.72790 0.27210
 C505 C 1.12207 0.61882 0.37795
 C506 C 1.10211 0.60016 0.39648
 H507 H 1.20450 0.62434 0.37344
 H508 H 1.20525 0.62711 0.29366
 H509 H 1.20421 0.70083 0.37570
 H510 H 1.12704 0.69981 0.37565
 H511 H 1.12806 0.62608 0.29361
 H512 H 1.12776 0.70252 0.29592
 C513 C 0.68156 0.14535 0.35911
 C514 C 0.68283 0.14580 0.31565
 C515 C 0.68238 0.18712 0.31674
 C516 C 0.68147 0.18704 0.35988
 C517 C 0.63984 0.14575 0.35731
 C518 C 0.63936 0.18707 0.35844
 C519 C 0.64079 0.14586 0.31417
 C520 C 0.64067 0.18754 0.31492
 C521 C 0.70610 0.20971 0.29373
 C522 C 0.72547 0.22801 0.27429
 C523 C 0.61664 0.12198 0.37961
 C524 C 0.59824 0.10158 0.39770
 H525 H 0.69811 0.12774 0.37755
 H526 H 0.70098 0.12909 0.29782
 H527 H 0.69849 0.20422 0.37838
 H528 H 0.62120 0.20376 0.37627
 H529 H 0.62378 0.12869 0.29563
 H530 H 0.62416 0.20516 0.29646
 C531 C 0.68213 0.64540 -0.14067
 C532 C 0.68323 0.64570 -0.18414
 C533 C 0.68279 0.68702 -0.18321
 C534 C 0.68205 0.68709 -0.14007
 C535 C 0.64041 0.64581 -0.14229
 C536 C 0.63994 0.68714 -0.14133
 C537 C 0.64118 0.64576 -0.18544
 C538 C 0.64108 0.68745 -0.18486
 C539 C 0.70642 0.70956 -0.20636
 C540 C 0.72573 0.72789 -0.22582
 C541 C 0.61725 0.62216 -0.11982
 C542 C 0.59883 0.60187 -0.10162
 H543 H 0.69875 0.62785 -0.12223
 H544 H 0.70130 0.62892 -0.20199
 H545 H 0.69916 0.70434 -0.12171
 H546 H 0.62186 0.70389 -0.12348
 H547 H 0.62409 0.62853 -0.20384
 H548 H 0.62449 0.70501 -0.20331
 C549 C 0.81274 -0.14125 -0.14221
 C550 C 0.81228 -0.14216 -0.18574
 C551 C 0.81321 -0.18349 -0.18446
 C552 C 0.81329 -0.18295 -0.14131
 C553 C 0.85447 -0.14120 -0.14318
 C554 C 0.85538 -0.18253 -0.14192
 C555 C 0.85438 -0.14175 -0.18634
 C556 C 0.85494 -0.18341 -0.18541
 C557 C 0.79044 -0.20713 -0.20757
 C558 C 0.77173 -0.22655 -0.22667
 C559 C 0.87806 -0.11805 -0.12038
 C560 C 0.89822 -0.09956 -0.10189
 H561 H 0.79564 -0.12366 -0.12420
 H562 H 0.79430 -0.12584 -0.20404
 H563 H 0.79615 -0.20018 -0.12305
 H564 H 0.87334 -0.19889 -0.12364
 H565 H 0.87150 -0.12453 -0.20463
 H566 H 0.87205 -0.20100 -0.20342
 C567 C 0.81283 0.36014 0.35612
 C568 C 0.81259 0.35838 0.31261
 C569 C 0.81311 0.31708 0.31477
 C570 C 0.81297 0.31846 0.35791
 C571 C 0.85456 0.35978 0.35539
 C572 C 0.85506 0.31848 0.35753
 C573 C 0.85470 0.35839 0.31225
 C574 C 0.85485 0.31675 0.31406
 C575 C 0.79025 0.29320 0.29202
 C576 C 0.77149 0.27361 0.27315
 C577 C 0.87826 0.38310 0.37791
 C578 C 0.89848 0.40162 0.39629
 H579 H 0.79580 0.37824 0.37364
 H580 H 0.79487 0.37451 0.29386
 H581 H 0.79557 0.30175 0.37643
 H582 H 0.87277 0.30231 0.37626
 H583 H 0.87208 0.37508 0.29370
 H584 H 0.87188 0.29865 0.29654
 C585 C 0.35802 -0.18771 0.35755
 C586 C 0.31590 -0.18752 0.35886
 C587 C 0.31508 -0.18768 0.31571
 C588 C 0.35681 -0.18824 0.31402
 C589 C 0.35772 -0.14637 0.35661
 C590 C 0.35687 -0.14655 0.31346
 C591 C 0.31599 -0.14582 0.35828
 C592 C 0.31482 -0.14635 0.31480
 C593 C 0.29134 -0.21035 0.29253
 C594 C 0.27197 -0.22881 0.27301
 C595 C 0.38110 -0.12271 0.37915
 C596 C 0.39974 -0.10250 0.39743
 H597 H 0.37604 -0.20447 0.37536
 H598 H 0.29877 -0.20460 0.37727
 H599 H 0.37333 -0.20594 0.29555
 H600 H 0.37398 -0.12949 0.29500
 H601 H 0.29944 -0.12814 0.37672
 H602 H 0.29679 -0.12958 0.29699
 C603 C 0.31682 0.35460 -0.14005
 C604 C 0.31581 0.35420 -0.18353
 C605 C 0.31610 0.31288 -0.18271
 C606 C 0.31675 0.31291 -0.13957
 C607 C 0.35854 0.35404 -0.14159
 C608 C 0.35887 0.31272 -0.14074
 C609 C 0.35786 0.35399 -0.18473
 C610 C 0.35782 0.31231 -0.18427
 C611 C 0.29245 0.29039 -0.20601
 C612 C 0.27313 0.27212 -0.22562
 C613 C 0.38175 0.37770 -0.11905
 C614 C 0.40023 0.39803 -0.10087
 H615 H 0.30023 0.37225 -0.12160
 H616 H 0.29783 0.37099 -0.20136
 H617 H 0.29955 0.29576 -0.12130
 H618 H 0.37686 0.29594 -0.12290
 H619 H 0.37504 0.37111 -0.20305
 H620 H 0.37437 0.29465 -0.20274
 C621 C 1.14543 -0.14291 0.18806
 C622 C 1.14496 -0.18458 0.18663
 C623 C 1.18671 -0.18460 0.18595
 C624 C 1.18753 -0.14327 0.18772
 C625 C 1.14555 -0.14207 0.14490
 C626 C 1.18730 -0.14207 0.14419
 C627 C 1.14474 -0.18341 0.14314
 C628 C 1.18684 -0.18377 0.14278
 C629 C 1.20950 -0.20835 0.20895
 C630 C 1.22827 -0.22779 0.22800
 C631 C 1.12207 -0.11872 0.12214
 C632 C 1.10211 -0.10006 0.10361
 H633 H 1.12818 -0.12586 0.20649
 H634 H 1.12776 -0.20231 0.20430
 H635 H 1.20537 -0.12700 0.20631
 H636 H 1.20450 -0.12435 0.12652
 H637 H 1.12692 -0.19971 0.12457
 H638 H 1.20409 -0.20084 0.12439
 C639 C 1.18672 0.35904 0.64299
 C640 C 1.18712 0.35816 0.68652
 C641 C 1.18590 0.31685 0.68505
 C642 C 1.18588 0.31735 0.64189
 C643 C 1.14499 0.35939 0.64391
 C644 C 1.14380 0.31806 0.64246
 C645 C 1.14503 0.35887 0.68707
 C646 C 1.14418 0.31721 0.68595
 C647 C 1.20852 0.29307 0.70802
 C648 C 1.22715 0.27355 0.72698
 C649 C 1.12162 0.38265 0.62114
 C650 C 1.10165 0.40120 0.60259
 H651 H 1.20397 0.37651 0.62509
 H652 H 1.20519 0.37437 0.70492
 H653 H 1.20291 0.29999 0.62357
 H654 H 1.12574 0.30182 0.62408
 H655 H 1.12800 0.37622 0.70541
 H656 H 1.12693 0.29974 0.70385
 C657 C 0.64123 -0.14561 0.68553
 C658 C 0.64108 -0.18729 0.68500
 C659 C 0.68279 -0.18691 0.68331
 C660 C 0.68328 -0.14560 0.68418
 C661 C 0.64041 -0.14571 0.64239
 C662 C 0.68213 -0.14535 0.64071
 C663 C 0.63989 -0.18703 0.64148
 C664 C 0.68200 -0.18704 0.64017
 C665 C 0.70642 -0.20946 0.70645
 C666 C 0.72573 -0.22779 0.72591
 C667 C 0.61725 -0.12206 0.61991
 C668 C 0.59883 -0.10177 0.60171
 H669 H 0.62419 -0.12834 0.70393
 H670 H 0.62450 -0.20481 0.70351
 H671 H 0.70139 -0.12882 0.70198
 H672 H 0.69874 -0.12784 0.62223
 H673 H 0.62177 -0.20379 0.62367
 H674 H 0.69906 -0.20433 0.62181
 C675 C 0.68154 0.35434 0.14054
 C676 C 0.68323 0.35430 0.18399
 C677 C 0.68238 0.31298 0.18335
 C678 C 0.68105 0.31265 0.14023
 C679 C 0.63984 0.35435 0.14278
 C680 C 0.63896 0.31303 0.14211
 C681 C 0.64121 0.35466 0.18591
 C682 C 0.64069 0.31298 0.18562
 C683 C 0.70610 0.29039 0.20636
 C684 C 0.72547 0.27209 0.22580
 C685 C 0.61664 0.37812 0.12048
 C686 C 0.59824 0.39852 0.10239
 H687 H 0.69807 0.37161 0.12174
 H688 H 0.70172 0.37101 0.20145
 H689 H 0.69773 0.29513 0.12173
 H690 H 0.62046 0.29634 0.12464
 H691 H 0.62455 0.37217 0.20445
 H692 H 0.62419 0.29569 0.20444
 C693 C 0.81283 0.14027 0.14363
 C694 C 0.81228 0.14171 0.18716
 C695 C 0.81311 0.18302 0.18532
 C696 C 0.81329 0.18195 0.14218
 C697 C 0.85456 0.14032 0.14470
 C698 C 0.85537 0.18163 0.14290
 C699 C 0.85438 0.14140 0.18786
 C700 C 0.85484 0.18305 0.18637
 C701 C 0.79025 0.20690 0.20807
 C702 C 0.77149 0.22649 0.22694
 C703 C 0.87825 0.11700 0.12219
 C704 C 0.89848 0.09848 0.10380
 H705 H 0.79581 0.12241 0.12583
 H706 H 0.79430 0.12557 0.20563
 H707 H 0.79615 0.19892 0.12364
 H708 H 0.87334 0.19781 0.12444
 H709 H 0.87150 0.12445 0.20641
 H710 H 0.87187 0.20090 0.20417
 C711 C 0.81273 0.64082 0.64289
 C712 C 0.81283 0.64228 0.68641
 C713 C 0.81321 0.68359 0.68456
 C714 C 0.81273 0.68250 0.64141
 C715 C 0.85447 0.64130 0.64327
 C716 C 0.85482 0.68262 0.64144
 C717 C 0.85493 0.64240 0.68642
 C718 C 0.85494 0.68405 0.68492
 C719 C 0.79044 0.70723 0.70767
 C720 C 0.77173 0.72665 0.72677
 C721 C 0.87806 0.61815 0.62047
 C722 C 0.89822 0.59966 0.60198
 H723 H 0.79563 0.62278 0.62537
 H724 H 0.79531 0.62596 0.70519
 H725 H 0.79513 0.69929 0.62316
 H726 H 0.87233 0.69896 0.62268
 H727 H 0.87252 0.62564 0.70470
 H728 H 0.87206 0.70208 0.70243
 C729 C 0.35886 0.18738 0.64083
 C730 C 0.31675 0.18719 0.63966
 C731 C 0.31610 0.18722 0.68280
 C732 C 0.35781 0.18780 0.68436
 C733 C 0.35854 0.14606 0.64168
 C734 C 0.35786 0.14612 0.68483
 C735 C 0.31682 0.14550 0.64015
 C736 C 0.31581 0.14590 0.68362
 C737 C 0.29245 0.20971 0.70610
 C738 C 0.27313 0.22799 0.72571
 C739 C 0.38175 0.12240 0.61914
 C740 C 0.40023 0.10207 0.60096
 H741 H 0.37685 0.20416 0.62298
 H742 H 0.29954 0.20433 0.62139
 H743 H 0.37437 0.20546 0.70283
 H744 H 0.37504 0.12899 0.70314
 H745 H 0.30023 0.12785 0.62170
 H746 H 0.29784 0.12911 0.70146
 C747 C 0.35814 0.68781 0.14268
 C748 C 0.31603 0.68775 0.14124
 C749 C 0.31508 0.68778 0.18439
 C750 C 0.35680 0.68822 0.18620
 C751 C 0.35772 0.64647 0.14348
 C752 C 0.35674 0.64653 0.18663
 C753 C 0.31599 0.64605 0.14168
 C754 C 0.31469 0.64645 0.18516
 C755 C 0.29134 0.71045 0.20756
 C756 C 0.27197 0.72891 0.22708
 C757 C 0.38110 0.62281 0.12095
 C758 C 0.39974 0.60261 0.10267
 H759 H 0.37627 0.70457 0.12499
 H760 H 0.29901 0.70493 0.12283
 H761 H 0.37332 0.70581 0.20478
 H762 H 0.37375 0.62936 0.20509
 H763 H 0.29944 0.62847 0.12312
 H764 H 0.29656 0.62967 0.20285
   
