data_POSCAR
  _audit_creation_date              2014-09-24
  _audit_creation_method            'ToBaCCo'
  _symmetry_space_group_name_H-M    'P1'
  _symmetry_Int_Tables_number       1
  _symmetry_cell_setting            triclinic
  loop_
  _symmetry_equiv_pos_as_xyz
 x,y,z
_cell_length_a 42.8064
_cell_length_b 42.9959
_cell_length_c 42.7597
_cell_angle_alpha 89.940400
_cell_angle_beta 90.038500
_cell_angle_gamma 89.947500
loop_
  _atom_site_label
  _atom_site_type_symbol
  _atom_site_fract_x
  _atom_site_fract_y
  _atom_site_fract_z
C1 C 0.15944 0.18392 0.20287
 C2 C 0.15928 0.20645 0.17912
 C3 C 0.18227 0.20619 0.15640
 C4 C 0.20583 0.18350 0.15725
 C5 C 0.20586 0.16131 0.18056
 C6 C 0.18267 0.16169 0.20371
 C7 C 0.13973 0.17810 0.22758
 N8 N 0.15047 0.15290 0.24382
 C9 C 0.17693 0.14290 0.22910
 C10 C 0.23060 0.14170 0.17495
 N11 N 0.24600 0.15143 0.14877
 C12 C 0.23081 0.17726 0.13801
 C13 C 0.17586 0.23016 0.13601
 N14 N 0.14964 0.24506 0.14591
 C15 C 0.13939 0.23068 0.17230
 H16 H 0.11945 0.19195 0.23339
 H17 H 0.19071 0.12278 0.23542
 H18 H 0.23696 0.12213 0.18953
 H19 H 0.23644 0.19012 0.11702
 H20 H 0.18943 0.23643 0.11561
 H21 H 0.11863 0.23699 0.18528
 C22 C -0.15594 0.81983 0.20597
 C23 C -0.15689 0.79603 0.18359
 C24 C -0.18129 0.79470 0.16239
 C25 C -0.20488 0.81738 0.16309
 C26 C -0.20373 0.84089 0.18497
 C27 C -0.17931 0.84190 0.20681
 C28 C -0.13507 0.82701 0.22935
 N29 N -0.14530 0.85284 0.24483
 C30 C -0.17249 0.86196 0.23086
 C31 C -0.22869 0.86024 0.17938
 N32 N -0.24530 0.84917 0.15452
 C33 C -0.23074 0.82265 0.14469
 C34 C -0.17592 0.76951 0.14327
 N35 N -0.14882 0.75562 0.15228
 C36 C -0.13705 0.77174 0.17694
 H37 H -0.11449 0.81352 0.23497
 H38 H -0.18623 0.88220 0.23689
 H39 H -0.23418 0.88071 0.19297
 H40 H -0.23731 0.80870 0.12473
 H41 H -0.19033 0.76228 0.12379
 H42 H -0.11568 0.76615 0.18927
 C43 C -0.16182 0.18126 -0.20675
 C44 C -0.16364 0.20558 -0.18502
 C45 C -0.18655 0.20532 -0.16226
 C46 C -0.20784 0.18057 -0.16081
 C47 C -0.20559 0.15629 -0.18177
 C48 C -0.18239 0.15664 -0.20496
 C49 C -0.14203 0.17555 -0.23137
 N50 N -0.14979 0.14781 -0.24475
 C51 C -0.17451 0.13613 -0.22835
 C52 C -0.22859 0.13524 -0.17427
 N53 N -0.24518 0.14618 -0.14932
 C54 C -0.23233 0.17405 -0.14110
 C55 C -0.18191 0.23107 -0.14371
 N56 N -0.15652 0.24673 -0.15449
 C57 C -0.14534 0.23135 -0.17988
 H58 H -0.12279 0.19037 -0.23817
 H59 H -0.18676 0.11471 -0.23336
 H60 H -0.23314 0.11396 -0.18691
 H61 H -0.23938 0.18845 -0.12162
 H62 H -0.19518 0.23716 -0.12306
 H63 H -0.12502 0.23807 -0.19333
 C64 C 0.16163 0.81641 -0.20650
 C65 C 0.16067 0.79332 -0.18332
 C66 C 0.18209 0.79373 -0.15908
 C67 C 0.20498 0.81705 -0.15790
 C68 C 0.20606 0.83953 -0.18090
 C69 C 0.18399 0.83944 -0.20515
 C70 C 0.14311 0.82252 -0.23208
 N71 N 0.15332 0.84909 -0.24628
 C72 C 0.17854 0.85937 -0.22971
 C73 C 0.23054 0.85898 -0.17394
 N74 N 0.24454 0.84910 -0.14701
 C75 C 0.22865 0.82340 -0.13709
 C76 C 0.17504 0.76924 -0.13960
 N77 N 0.14991 0.75392 -0.15145
 C78 C 0.14102 0.76852 -0.17823
 H79 H 0.12281 0.80909 -0.23869
 H80 H 0.19247 0.87966 -0.23499
 H81 H 0.23682 0.87936 -0.18736
 H82 H 0.23417 0.80947 -0.11675
 H83 H 0.18737 0.76301 -0.11839
 H84 H 0.12123 0.76205 -0.19259
 C85 C 0.18532 1.16166 0.79588
 C86 C 0.20856 1.16265 0.81899
 C87 C 0.20748 1.18519 0.84200
 C88 C 0.18328 1.20720 0.84207
 C89 C 0.16016 1.20591 0.81963
 C90 C 0.16117 1.18292 0.79637
 C91 C 0.18020 1.14210 0.77099
 N92 N 0.15325 1.15068 0.75621
 C93 C 0.14158 1.17577 0.77192
 C94 C 0.13939 1.22950 0.82595
 N95 N 0.14941 1.24553 0.85161
 C96 C 0.17640 1.23172 0.86149
 C97 C 0.23208 1.17976 0.86199
 N98 N 0.24808 1.15445 0.85168
 C99 C 0.23391 1.14396 0.82526
 H100 H 0.19475 1.12241 0.76507
 H101 H 0.12071 1.18865 0.76593
 H102 H 0.11898 1.23483 0.81203
 H103 H 0.18990 1.23815 0.88185
 H104 H 0.23774 1.19310 0.88269
 H105 H 0.24084 1.12355 0.81219
 C106 C 0.81888 0.84280 0.79293
 C107 C 0.79532 0.84202 0.81566
 C108 C 0.79420 0.81785 0.83698
 C109 C 0.81693 0.79433 0.83607
 C110 C 0.84025 0.79528 0.81384
 C111 C 0.84097 0.81947 0.79180
 C112 C 0.82575 0.86355 0.76946
 N113 N 0.85140 0.85329 0.75358
 C114 C 0.86074 0.82618 0.76737
 C115 C 0.85982 0.77052 0.81947
 N116 N 0.84902 0.75425 0.84467
 C117 C 0.82249 0.76881 0.85467
 C118 C 0.76922 0.82338 0.85646
 N119 N 0.75529 0.85039 0.84752
 C120 C 0.77115 0.86193 0.82257
 H121 H 0.81217 0.88407 0.76402
 H122 H 0.88096 0.81252 0.76097
 H123 H 0.88025 0.76493 0.80573
 H124 H 0.80878 0.76252 0.87494
 H125 H 0.76215 0.80916 0.87612
 H126 H 0.76547 0.88321 0.81026
 C127 C 0.18010 0.83791 1.20473
 C128 C 0.20335 0.83731 1.18164
 C129 C 0.20381 0.81367 1.15973
 C130 C 0.18080 0.79047 1.16045
 C131 C 0.15784 0.79117 1.18319
 C132 C 0.15771 0.81491 1.20565
 C133 C 0.17366 0.85831 1.22861
 N134 N 0.14791 0.84821 1.24446
 C135 C 0.13816 0.82149 1.23028
 C136 C 0.13793 0.76674 1.17744
 N137 N 0.14825 0.75119 1.15179
 C138 C 0.17457 0.76549 1.14134
 C139 C 0.22855 0.81933 1.13997
 N140 N 0.24302 0.84589 1.14930
 C141 C 0.22770 0.85702 1.17478
 H142 H 0.18751 0.87858 1.23419
 H143 H 0.11775 0.80804 1.23647
 H144 H 0.11731 0.76087 1.19084
 H145 H 0.18763 0.75885 1.12073
 H146 H 0.23507 0.80551 1.11986
 H147 H 0.23386 0.87787 1.18752
 C148 C 0.81669 1.16205 1.20929
 C149 C 0.79331 1.16101 1.18632
 C150 C 0.79226 1.18353 1.16322
 C151 C 0.81444 1.20751 1.16291
 C152 C 0.83740 1.20853 1.18565
 C153 C 0.83839 1.18573 1.20910
 C154 C 0.82417 1.14258 1.23370
 N155 N 0.84994 1.15387 1.24871
 C156 C 0.85855 1.18049 1.23359
 C157 C 0.85645 1.23337 1.17883
 N158 N 0.84558 1.24750 1.15254
 C159 C 0.81980 1.23186 1.14271
 C160 C 0.76795 1.17609 1.14355
 N161 N 0.75411 1.14970 1.15424
 C162 C 0.76950 1.14035 1.18043
 H163 H 0.81119 1.12196 1.24003
 H164 H 0.87877 1.19460 1.23887
 H165 H 0.87683 1.24051 1.19198
 H166 H 0.80650 1.23719 1.12184
 H167 H 0.76081 1.18903 1.12301
 H168 H 0.76423 1.11963 1.19382
 O169 O 0.54391 0.94379 0.94479
 O170 O 0.57811 0.97095 0.97567
 C171 C 0.57199 0.95131 0.95351
 O172 O 0.45704 1.05561 0.94869
 O173 O 0.42243 1.02578 0.97655
 C174 C 0.42886 1.04765 0.95665
 O175 O 0.54488 1.05228 0.94646
 O176 O 0.57871 1.02280 0.97575
 C177 C 0.57284 1.04355 0.95450
 O178 O 0.45594 0.94213 0.94696
 O179 O 0.42192 0.97152 0.97603
 C180 C 0.42793 0.95021 0.95548
 Zr181 Zr 0.50003 0.95894 0.96212
 O182 O 0.49683 0.96031 0.91272
 O183 O 0.50296 0.90980 0.96109
 Zr184 Zr 0.50073 1.03750 0.96336
 O185 O 0.49752 1.03789 0.91394
 O186 O 0.50452 1.08659 0.96389
 O187 O 0.52830 0.99805 0.95676
 O188 O 0.47323 0.99857 0.95693
 O189 O 0.45550 0.93993 1.05516
 O190 O 0.42179 0.97093 1.02742
 C191 C 0.42754 0.94869 1.04709
 O192 O 0.54436 1.05033 1.06045
 O193 O 0.57837 1.02280 1.02967
 C194 C 0.57239 1.04246 1.05184
 O195 O 0.45651 1.05451 1.05671
 O196 O 0.42226 1.02477 1.02835
 C197 C 0.42843 1.04638 1.04853
 O198 O 0.54354 0.94204 1.05860
 O199 O 0.57804 0.97105 1.02969
 C200 C 0.57168 0.95043 1.05090
 Zr201 Zr 0.49970 0.95760 1.04134
 O202 O 0.49595 0.95755 1.09071
 O203 O 0.50278 0.90847 1.04120
 Zr204 Zr 0.50034 1.03619 1.04259
 O205 O 0.49639 1.03450 1.09192
 O206 O 0.50435 1.08522 1.04424
 Zr207 Zr 0.54655 0.99716 1.00255
 Zr208 Zr 0.45388 0.99799 1.00214
 O209 O 0.47282 0.99706 1.04754
 O210 O 0.52789 0.99656 1.04818
 O211 O 0.47206 0.95241 1.00150
 O212 O 0.52761 1.04233 1.00318
 O213 O 0.52687 0.95233 1.00179
 O214 O 0.47282 1.04323 1.00291
 H215 H 0.45903 0.99896 0.93862
 H216 H 0.54186 1.06048 1.00346
 H217 H 0.45842 0.99691 1.06567
 H218 H 0.54083 0.93394 1.00166
 H219 H 0.48713 1.09471 0.97674
 H220 H 0.48837 1.09388 1.02997
 H221 H 0.51448 1.02259 1.09997
 H222 H 0.51412 0.96905 1.09908
 H223 H 0.48618 0.90064 1.02718
 H224 H 0.48556 0.90160 0.97386
 H225 H 0.51495 0.97227 0.90491
 H226 H 0.51532 1.02568 0.90575
 O227 O -0.06123 0.45632 0.05172
 O228 O -0.03107 0.42220 0.02371
 C229 C -0.05284 0.42834 0.04384
 O230 O -0.05859 0.54419 -0.05922
 O231 O -0.02929 0.57793 -0.02975
 C232 C -0.04988 0.57203 -0.05121
 O233 O -0.06215 0.45665 -0.05662
 O234 O -0.03200 0.42233 -0.02872
 C235 C -0.05391 0.42861 -0.04870
 O236 O -0.05794 0.54378 0.05462
 O237 O -0.02984 0.57761 0.02421
 C238 C -0.04979 0.57168 0.04621
 Zr239 Zr -0.04341 0.49996 0.03698
 O240 O -0.09272 0.50381 0.03728
 O241 O -0.04288 0.49635 0.08636
 Zr242 Zr -0.04392 0.50021 -0.04212
 O243 O -0.09322 0.50408 -0.04220
 O244 O -0.04374 0.49691 -0.09152
 O245 O -0.05000 0.47240 -0.00259
 O246 O -0.04914 0.52711 -0.00248
 O247 O 0.05084 0.54287 0.05410
 O248 O 0.02238 0.57726 0.02455
 C249 C 0.04277 0.57092 0.04609
 O250 O 0.05275 0.45578 -0.05707
 O251 O 0.02210 0.42194 -0.02920
 C252 C 0.04406 0.42789 -0.04917
 O253 O 0.05006 0.54334 -0.06017
 O254 O 0.02229 0.57736 -0.02970
 C255 C 0.04229 0.57131 -0.05161
 O256 O 0.05283 0.45533 0.05109
 O257 O 0.02270 0.42163 0.02250
 C258 C 0.04451 0.42747 0.04272
 Zr259 Zr 0.03562 0.49933 0.03655
 O260 O 0.08498 0.50235 0.03616
 O261 O 0.03587 0.49572 0.08593
 Zr262 Zr 0.03509 0.49961 -0.04261
 O263 O 0.08442 0.50282 -0.04337
 O264 O 0.03416 0.49614 -0.09199
 Zr265 Zr -0.00449 0.45362 -0.00294
 Zr266 Zr -0.00377 0.54593 -0.00262
 O267 O 0.04130 0.52639 -0.00298
 O268 O 0.04127 0.47174 -0.00313
 O269 O -0.00366 0.52735 0.04301
 O270 O -0.00464 0.47291 -0.04817
 O271 O -0.00404 0.47265 0.04239
 O272 O -0.00425 0.52766 -0.04838
 H273 H -0.06738 0.54132 -0.00240
 H274 H -0.00484 0.45877 -0.06645
 H275 H 0.05970 0.54036 -0.00303
 H276 H -0.00396 0.45851 0.06070
 H277 H -0.03160 0.51472 -0.09966
 H278 H 0.02205 0.51405 -0.10003
 H279 H 0.09265 0.48619 -0.02966
 H280 H 0.09295 0.48468 0.02369
 H281 H 0.02322 0.51312 0.09419
 H282 H -0.03032 0.51388 0.09447
 H283 H -0.10112 0.48649 0.02460
 H284 H -0.10148 0.48725 -0.02878
 O285 O 1.05908 -0.05427 0.54367
 O286 O 1.03056 -0.02488 0.57816
 C287 C 1.05140 -0.04585 0.57182
 O288 O 1.06012 0.05769 0.45657
 O289 O 1.03019 0.02960 0.42218
 C290 C 1.05119 0.05039 0.42844
 O291 O 1.06300 0.05386 0.54473
 O292 O 1.03143 0.02693 0.57855
 C293 C 1.05395 0.04620 0.57272
 O294 O 1.05602 -0.05617 0.45562
 O295 O 1.02963 -0.02411 0.42180
 C296 C 1.04862 -0.04688 0.42763
 Zr297 Zr 1.04228 -0.03833 0.49979
 O298 O 1.09161 -0.03930 0.49623
 O299 O 1.04119 -0.08746 0.50282
 Zr300 Zr 1.04492 0.04030 0.50052
 O301 O 1.09422 0.03855 0.49703
 O302 O 1.04651 0.08935 0.50447
 O303 O 1.04971 0.00049 0.52805
 O304 O 1.04928 0.00109 0.47300
 O305 O 0.94802 -0.05214 0.45552
 O306 O 0.97784 -0.02333 0.42164
 C307 C 0.95685 -0.04423 0.42754
 O308 O 0.94896 0.05786 0.54473
 O309 O 0.97772 0.02796 0.57863
 C310 C 0.95677 0.04898 0.57275
 O311 O 0.95178 0.06151 0.45676
 O312 O 0.97838 0.03038 0.42233
 C313 C 0.95913 0.05279 0.42860
 O314 O 0.94563 -0.05079 0.54354
 O315 O 0.97616 -0.02350 0.57802
 C316 C 0.95408 -0.04316 0.57170
 Zr317 Zr 0.96325 -0.03567 0.49975
 O318 O 0.91394 -0.03342 0.49645
 O319 O 0.96134 -0.08479 0.50254
 Zr320 Zr 0.96589 0.04298 0.50057
 O321 O 0.91658 0.04446 0.49713
 O322 O 0.96748 0.09204 0.50450
 Zr323 Zr 1.00408 0.00181 0.54655
 Zr324 Zr 1.00404 0.00280 0.45380
 O325 O 0.95884 0.00411 0.47304
 O326 O 0.95846 0.00355 0.52804
 O327 O 1.00256 -0.04281 0.47189
 O328 O 1.00559 0.04702 0.52770
 O329 O 1.00260 -0.04298 0.52683
 O330 O 1.00557 0.04802 0.47275
 H331 H 1.06752 0.00069 0.45875
 H332 H 1.00612 0.06512 0.54202
 H333 H 0.94056 0.00477 0.45883
 H334 H 1.00209 -0.06136 0.54081
 H335 H 1.03411 0.09808 0.48702
 H336 H 0.98069 0.09990 0.48726
 H337 H 0.90807 0.03192 0.51455
 H338 H 0.90631 -0.02148 0.51468
 H339 H 0.97408 -0.09317 0.48519
 H340 H 1.02729 -0.09503 0.48600
 H341 H 1.10012 -0.02803 0.51450
 H342 H 1.10193 0.02532 0.51433
 C343 C 1.10889 0.11189 0.32303
 C344 C 1.13989 0.10501 0.31511
 C345 C 1.15371 0.11853 0.28880
 C346 C 1.13701 0.13978 0.26985
 C347 C 1.10594 0.14693 0.27846
 C348 C 1.09206 0.13294 0.30448
 C349 C 1.09397 0.09667 0.35025
 C350 C 1.06444 0.08283 0.34720
 C351 C 1.05061 0.06774 0.37260
 C352 C 1.06584 0.06663 0.40173
 C353 C 1.09520 0.08088 0.40490
 C354 C 1.10925 0.09553 0.37931
 H355 H 1.17775 0.11263 0.28399
 H356 H 1.09169 0.16253 0.26471
 H357 H 1.02789 0.05711 0.36948
 H358 H 1.10751 0.08031 0.42703
 H359 H 1.06809 0.13868 0.31022
 H360 H 1.05229 0.08322 0.32497
 H361 H 1.15334 0.08875 0.32905
 H362 H 1.13197 0.10622 0.38225
 C363 C 0.89820 -0.10424 0.32188
 C364 C 0.86703 -0.09753 0.31448
 C365 C 0.85266 -0.11150 0.28875
 C366 C 0.86895 -0.13309 0.26990
 C367 C 0.90032 -0.13980 0.27778
 C368 C 0.91476 -0.12535 0.30323
 C369 C 0.91338 -0.08918 0.34903
 C370 C 0.94285 -0.07523 0.34587
 C371 C 0.95691 -0.06050 0.37136
 C372 C 0.94197 -0.05989 0.40063
 C373 C 0.91266 -0.07422 0.40385
 C374 C 0.89839 -0.08850 0.37822
 H375 H 0.82845 -0.10583 0.28445
 H376 H 0.91429 -0.15557 0.26397
 H377 H 0.97959 -0.04979 0.36821
 H378 H 0.90057 -0.07404 0.42609
 H379 H 0.93887 -0.13092 0.30855
 H380 H 0.95477 -0.07532 0.32353
 H381 H 0.85381 -0.08120 0.32850
 H382 H 0.87574 -0.09930 0.38125
 C383 C 0.89457 0.10634 0.67798
 C384 C 0.87558 0.08857 0.69779
 C385 C 0.86049 0.10236 0.72324
 C386 C 0.86461 0.13427 0.73000
 C387 C 0.88405 0.15182 0.70993
 C388 C 0.89851 0.13807 0.68413
 C389 C 0.91045 0.09173 0.65103
 C390 C 0.90768 0.10462 0.62099
 C391 C 0.92253 0.09065 0.59549
 C392 C 0.94092 0.06384 0.59968
 C393 C 0.94405 0.05134 0.62993
 C394 C 0.92867 0.06493 0.65528
 H395 H 0.84645 0.08755 0.73803
 H396 H 0.88755 0.17645 0.71337
 H397 H 0.91978 0.10100 0.57255
 H398 H 0.95832 0.03097 0.63406
 H399 H 0.91313 0.15220 0.66911
 H400 H 0.89366 0.12528 0.61721
 H401 H 0.87221 0.06399 0.69341
 H402 H 0.93138 0.05480 0.67833
 C403 C 1.11184 -0.10687 0.67607
 C404 C 1.13315 -0.09081 0.69495
 C405 C 1.14732 -0.10552 0.72042
 C406 C 1.14012 -0.13669 0.72812
 C407 C 1.11859 -0.15260 0.70884
 C408 C 1.10489 -0.13794 0.68307
 C409 C 1.09666 -0.09112 0.64927
 C410 C 1.09560 -0.10550 0.61982
 C411 C 1.08123 -0.09062 0.59453
 C412 C 1.06719 -0.06131 0.59837
 C413 C 1.06815 -0.04701 0.62790
 C414 C 1.08297 -0.06167 0.65304
 H415 H 1.16310 -0.09182 0.73448
 H416 H 1.11264 -0.17666 0.71299
 H417 H 1.08076 -0.10224 0.57208
 H418 H 1.05766 -0.02436 0.63152
 H419 H 1.08844 -0.15080 0.66882
 H420 H 1.10618 -0.12812 0.61632
 H421 H 1.13897 -0.06681 0.68990
 H422 H 1.08332 -0.05022 0.67559
 C423 C 0.32379 1.10819 1.10702
 C424 C 0.31588 1.13887 1.09926
 C425 C 0.28999 1.15325 1.11298
 C426 C 0.27159 1.13746 1.13538
 C427 C 0.28021 1.10673 1.14337
 C428 C 0.30574 1.09226 1.12915
 C429 C 0.35060 1.09261 1.09182
 C430 C 0.34698 1.06298 1.07859
 C431 C 0.37221 1.04815 1.06423
 C432 C 0.40172 1.06244 1.06332
 C433 C 0.40537 1.09206 1.07672
 C434 C 0.37995 1.10714 1.09059
 H435 H 0.28509 1.17701 1.10639
 H436 H 0.26681 1.09314 1.15983
 H437 H 0.36869 1.02531 1.05419
 H438 H 0.42780 1.10368 1.07623
 H439 H 0.31150 1.06856 1.13557
 H440 H 0.32450 1.05144 1.07909
 H441 H 0.32951 1.15160 1.08218
 H442 H 0.38328 1.12994 1.10078
 C443 C 0.32237 0.89025 0.89676
 C444 C 0.30352 0.86916 0.91312
 C445 C 0.27785 0.85523 0.89857
 C446 C 0.26994 0.86250 0.86730
 C447 C 0.28904 0.88399 0.85118
 C448 C 0.31499 0.89741 0.86565
 C449 C 0.34959 0.90498 0.91211
 C450 C 0.37876 0.90564 0.89711
 C451 C 0.40437 0.91993 0.91140
 C452 C 0.40113 0.93430 0.94071
 C453 C 0.37191 0.93361 0.95571
 C454 C 0.34645 0.91886 0.94165
 H455 H 0.26387 0.83948 0.91239
 H456 H 0.28475 0.89003 0.82704
 H457 H 0.42657 0.92017 0.89927
 H458 H 0.36878 0.94433 0.97840
 H459 H 0.32916 0.91374 0.85258
 H460 H 0.38176 0.89490 0.87441
 H461 H 0.30882 0.86325 0.93718
 H462 H 0.32414 0.91878 0.95358
 C463 C 0.67619 0.89130 1.11269
 C464 C 0.68359 0.86019 1.10628
 C465 C 0.70963 0.84614 1.12013
 C466 C 0.72878 0.86273 1.14126
 C467 C 0.72064 0.89389 1.14797
 C468 C 0.69491 0.90798 1.13366
 C469 C 0.64928 0.90650 1.09717
 C470 C 0.65282 0.93575 1.08297
 C471 C 0.62762 0.94996 1.06787
 C472 C 0.59824 0.93541 1.06708
 C473 C 0.59461 0.90630 1.08163
 C474 C 0.61998 0.89186 1.09630
 H475 H 0.71411 0.82205 1.11456
 H476 H 0.73455 0.90809 1.16343
 H477 H 0.63108 0.97246 1.05699
 H478 H 0.57227 0.89450 1.08130
 H479 H 0.68956 0.93201 1.13908
 H480 H 0.67524 0.94740 1.08317
 H481 H 0.66947 0.84685 1.09010
 H482 H 0.61666 0.86939 1.10726
 C483 C 0.67813 1.10245 0.89397
 C484 C 0.69793 1.08559 0.87413
 C485 C 0.72324 1.10010 0.85953
 C486 C 0.72984 1.13188 0.86484
 C487 C 0.70985 1.14849 0.88516
 C488 C 0.68426 1.13402 0.89925
 C489 C 0.65112 1.08717 0.90915
 C490 C 0.62145 1.10108 0.90823
 C491 C 0.59593 1.08673 0.92263
 C492 C 0.59971 1.05842 0.93868
 C493 C 0.62949 1.04461 0.93971
 C494 C 0.65488 1.05871 0.92485
 H495 H 0.73795 1.08591 0.84480
 H496 H 0.71316 1.17297 0.88970
 H497 H 0.57333 1.09801 0.92152
 H498 H 0.63316 1.02283 0.95188
 H499 H 0.66933 1.14748 0.91458
 H500 H 0.61795 1.12293 0.89609
 H501 H 0.69361 1.06118 0.86966
 H502 H 0.67760 1.04766 0.92605
 C503 C 0.10602 0.32263 0.10150
 C504 C 0.10520 0.31940 0.13418
 C505 C 0.11943 0.29394 0.14871
 C506 C 0.13503 0.27132 0.13090
 C507 C 0.13602 0.27465 0.09821
 C508 C 0.12152 0.29996 0.08364
 C509 C 0.09066 0.34953 0.08611
 C510 C 0.07217 0.34526 0.05931
 C511 C 0.05720 0.37055 0.04519
 C512 C 0.06066 0.40071 0.05742
 C513 C 0.07948 0.40499 0.08404
 C514 C 0.09418 0.37965 0.09831
 H515 H 0.11854 0.29211 0.17394
 H516 H 0.14762 0.25742 0.08388
 H517 H 0.04295 0.36646 0.02467
 H518 H 0.08262 0.42789 0.09407
 H519 H 0.12269 0.30200 0.05843
 H520 H 0.06885 0.32226 0.04958
 H521 H 0.09320 0.33640 0.14849
 H522 H 0.10856 0.38363 0.11876
 C523 C -0.11451 0.32495 -0.11003
 C524 C -0.09606 0.30287 -0.12567
 C525 C -0.10989 0.27752 -0.14062
 C526 C -0.14246 0.27353 -0.14004
 C527 C -0.16095 0.29569 -0.12452
 C528 C -0.14712 0.32127 -0.10982
 C529 C -0.09960 0.35150 -0.09374
 C530 C -0.11156 0.38177 -0.09694
 C531 C -0.09686 0.40685 -0.08223
 C532 C -0.07008 0.40209 -0.06375
 C533 C -0.05850 0.37168 -0.06015
 C534 C -0.07301 0.34671 -0.07509
 H535 H -0.09502 0.26065 -0.15206
 H536 H -0.18611 0.29329 -0.12391
 H537 H -0.10643 0.42996 -0.08542
 H538 H -0.03798 0.36713 -0.04604
 H539 H -0.16185 0.33787 -0.09778
 H540 H -0.13193 0.38611 -0.11135
 H541 H -0.07089 0.30530 -0.12644
 H542 H -0.06354 0.32355 -0.07191
 C543 C 0.10420 0.67586 -0.11028
 C544 C 0.10520 0.67931 -0.14294
 C545 C 0.12020 0.70489 -0.15644
 C546 C 0.13475 0.72738 -0.13758
 C547 C 0.13400 0.72373 -0.10493
 C548 C 0.11879 0.69832 -0.09143
 C549 C 0.08783 0.64908 -0.09582
 C550 C 0.06844 0.65356 -0.06973
 C551 C 0.05339 0.62837 -0.05569
 C552 C 0.05753 0.59804 -0.06729
 C553 C 0.07676 0.59359 -0.09356
 C554 C 0.09165 0.61888 -0.10775
 H555 H 0.12066 0.70695 -0.18166
 H556 H 0.14473 0.74082 -0.08980
 H557 H 0.03873 0.63269 -0.03551
 H558 H 0.08042 0.57056 -0.10311
 H559 H 0.11864 0.69609 -0.06620
 H560 H 0.06476 0.67663 -0.06028
 H561 H 0.09397 0.66246 -0.15801
 H562 H 0.10664 0.61475 -0.12771
 C563 C -0.10680 0.67682 0.10868
 C564 C -0.08821 0.70008 0.12227
 C565 C -0.10199 0.72576 0.13678
 C566 C -0.13466 0.72888 0.13776
 C567 C -0.15325 0.70560 0.12418
 C568 C -0.13947 0.67976 0.10992
 C569 C -0.09213 0.64979 0.09292
 C570 C -0.10360 0.61956 0.09775
 C571 C -0.08975 0.59414 0.08280
 C572 C -0.06431 0.59846 0.06246
 C573 C -0.05293 0.62877 0.05761
 C574 C -0.06660 0.65411 0.07277
 H575 H -0.08707 0.74346 0.14677
 H576 H -0.17847 0.70725 0.12485
 H577 H -0.09911 0.57113 0.08703
 H578 H -0.03341 0.63297 0.04209
 H579 H -0.15436 0.66230 0.09941
 H580 H -0.12309 0.61555 0.11338
 H581 H -0.06298 0.69829 0.12187
 H582 H -0.05749 0.67719 0.06836
 C583 C 1.11277 0.10647 0.67822
 C584 C 1.14403 0.10085 0.68613
 C585 C 1.15749 0.11540 0.71207
 C586 C 1.14013 0.13646 0.73059
 C587 C 1.10878 0.14227 0.72199
 C588 C 1.09529 0.12728 0.69637
 C589 C 1.09821 0.09044 0.65127
 C590 C 1.06895 0.07611 0.65457
 C591 C 1.05490 0.06130 0.62916
 C592 C 1.06961 0.06091 0.59977
 C593 C 1.09895 0.07520 0.59648
 C594 C 1.11323 0.08962 0.62209
 H595 H 1.18176 0.11048 0.71691
 H596 H 1.09403 0.15764 0.73544
 H597 H 1.03223 0.05061 0.63244
 H598 H 1.11088 0.07519 0.57416
 H599 H 1.07112 0.13210 0.69060
 H600 H 1.05704 0.07621 0.67691
 H601 H 1.15798 0.08482 0.67247
 H602 H 1.13575 0.10065 0.61896
 C603 C 0.89345 -0.10299 0.67628
 C604 C 0.89956 -0.13434 0.68278
 C605 C 0.88591 -0.14882 0.70865
 C606 C 0.86516 -0.13244 0.72837
 C607 C 0.85894 -0.10092 0.72129
 C608 C 0.87318 -0.08637 0.69580
 C609 C 0.90851 -0.08750 0.64939
 C610 C 0.92485 -0.05957 0.65364
 C611 C 0.93974 -0.04524 0.62841
 C612 C 0.93797 -0.05820 0.59829
 C613 C 0.92121 -0.08599 0.59401
 C614 C 0.90687 -0.10067 0.61941
 H615 H 0.89108 -0.17314 0.71241
 H616 H 0.84387 -0.08692 0.73585
 H617 H 0.95260 -0.02400 0.63250
 H618 H 0.91960 -0.09666 0.57114
 H619 H 0.86818 -0.06209 0.69117
 H620 H 0.92658 -0.04915 0.67663
 H621 H 0.91523 -0.14757 0.66800
 H622 H 0.89426 -0.12217 0.61564
 C623 C 1.10590 -0.10828 0.32200
 C624 C 1.09875 -0.13920 0.31461
 C625 C 1.11248 -0.15362 0.28876
 C626 C 1.13426 -0.13763 0.26982
 C627 C 1.14152 -0.10657 0.27780
 C628 C 1.12733 -0.09210 0.30334
 C629 C 1.09094 -0.09282 0.34904
 C630 C 1.07770 -0.06313 0.34567
 C631 C 1.06367 -0.04839 0.37114
 C632 C 1.06301 -0.06287 0.40063
 C633 C 1.07634 -0.09257 0.40401
 C634 C 1.08996 -0.10751 0.37837
 H635 H 1.10642 -0.17760 0.28437
 H636 H 1.15746 -0.09281 0.26397
 H637 H 1.05368 -0.02547 0.36780
 H638 H 1.07607 -0.10435 0.42640
 H639 H 1.13330 -0.06821 0.30869
 H640 H 1.07797 -0.05145 0.32322
 H641 H 1.08220 -0.15214 0.32866
 H642 H 1.10018 -0.13035 0.38154
 C643 C 0.89653 0.11270 0.32503
 C644 C 0.87486 0.09562 0.30750
 C645 C 0.85904 0.10936 0.28246
 C646 C 0.86488 0.14056 0.27384
 C647 C 0.88679 0.15752 0.29175
 C648 C 0.90216 0.14382 0.31712
 C649 C 0.91333 0.09792 0.35140
 C650 C 0.91492 0.11261 0.38067
 C651 C 0.92991 0.09805 0.40581
 C652 C 0.94402 0.06877 0.40195
 C653 C 0.94294 0.05443 0.37244
 C654 C 0.92754 0.06875 0.34749
 H655 H 0.84304 0.09491 0.26945
 H656 H 0.89177 0.18166 0.28687
 H657 H 0.93047 0.10971 0.42824
 H658 H 0.95349 0.03182 0.36874
 H659 H 0.91883 0.15746 0.33035
 H660 H 0.90400 0.13506 0.38424
 H661 H 0.87002 0.07158 0.31330
 H662 H 0.92684 0.05711 0.32505
 C663 C 0.10537 0.32291 -0.10714
 C664 C 0.08909 0.30397 -0.12823
 C665 C 0.10374 0.27847 -0.14219
 C666 C 0.13505 0.27081 -0.13498
 C667 C 0.15111 0.29003 -0.11353
 C668 C 0.13653 0.31583 -0.10006
 C669 C 0.08975 0.34986 -0.09234
 C670 C 0.10425 0.37915 -0.09190
 C671 C 0.08933 0.40463 -0.07811
 C672 C 0.05988 0.40113 -0.06404
 C673 C 0.04556 0.37170 -0.06426
 C674 C 0.06025 0.34640 -0.07849
 H675 H 0.08995 0.26441 -0.15790
 H676 H 0.17528 0.28591 -0.10754
 H677 H 0.10098 0.42698 -0.07819
 H678 H 0.02285 0.36828 -0.05368
 H679 H 0.14953 0.33010 -0.08375
 H680 H 0.12694 0.38239 -0.10259
 H681 H 0.06500 0.30906 -0.13411
 H682 H 0.04873 0.32398 -0.07835
 C683 C -0.11243 0.32455 0.10596
 C684 C -0.14501 0.32064 0.10552
 C685 C -0.15879 0.29536 0.12077
 C686 C -0.14030 0.27369 0.13703
 C687 C -0.10775 0.27778 0.13767
 C688 C -0.09395 0.30286 0.12219
 C689 C -0.09766 0.35108 0.08951
 C690 C -0.07074 0.34649 0.07133
 C691 C -0.05644 0.37151 0.05622
 C692 C -0.06862 0.40176 0.05916
 C693 C -0.09567 0.40632 0.07723
 C694 C -0.11012 0.38120 0.09212
 H695 H -0.18395 0.29290 0.12012
 H696 H -0.09289 0.26128 0.14971
 H697 H -0.03563 0.36716 0.04251
 H698 H -0.10567 0.42930 0.07991
 H699 H -0.06881 0.30548 0.12313
 H700 H -0.06085 0.32345 0.06864
 H701 H -0.15977 0.33691 0.09301
 H702 H -0.13072 0.38541 0.10619
 C703 C -0.10830 0.67660 -0.11297
 C704 C -0.09163 0.69510 -0.13415
 C705 C -0.10590 0.72056 -0.14865
 C706 C -0.13720 0.72864 -0.14188
 C707 C -0.15372 0.70974 -0.12048
 C708 C -0.13951 0.68398 -0.10646
 C709 C -0.09312 0.64972 -0.09752
 C710 C -0.10802 0.62066 -0.09675
 C711 C -0.09378 0.59531 -0.08204
 C712 C -0.06460 0.59869 -0.06735
 C713 C -0.04974 0.62782 -0.06805
 C714 C -0.06376 0.65304 -0.08323
 H715 H -0.09176 0.73433 -0.16432
 H716 H -0.17791 0.71417 -0.11486
 H717 H -0.10582 0.57317 -0.08179
 H718 H -0.02717 0.63107 -0.05706
 H719 H -0.15284 0.67002 -0.09014
 H720 H -0.13057 0.61752 -0.10780
 H721 H -0.06751 0.68974 -0.13962
 H722 H -0.05192 0.67529 -0.08337
 C723 C 0.10332 0.67419 0.10808
 C724 C 0.08565 0.69726 0.12317
 C725 C 0.10040 0.72232 0.13778
 C726 C 0.13312 0.72500 0.13732
 C727 C 0.15078 0.70195 0.12220
 C728 C 0.13604 0.67670 0.10787
 C729 C 0.08765 0.64771 0.09244
 C730 C 0.09889 0.61726 0.09640
 C731 C 0.08415 0.59230 0.08160
 C732 C 0.05804 0.59729 0.06225
 C733 C 0.04686 0.62781 0.05827
 C734 C 0.06141 0.65272 0.07334
 H735 H 0.08619 0.73991 0.14896
 H736 H 0.17602 0.70333 0.12171
 H737 H 0.09340 0.56911 0.08513
 H738 H 0.02684 0.63250 0.04350
 H739 H 0.15020 0.65936 0.09620
 H740 H 0.11890 0.61274 0.11123
 H741 H 0.06040 0.69577 0.12387
 H742 H 0.05245 0.67600 0.06966
 C743 C 0.32546 1.11097 0.89688
 C744 C 0.32289 1.11066 0.86412
 C745 C 0.29759 1.12502 0.84930
 C746 C 0.27448 1.14022 0.86691
 C747 C 0.27724 1.14080 0.89966
 C748 C 0.30239 1.12620 0.91450
 C749 C 0.35200 1.09522 0.91258
 C750 C 0.34698 1.07650 0.93906
 C751 C 0.37192 1.06110 0.95344
 C752 C 0.40246 1.06431 0.94178
 C753 C 0.40748 1.08336 0.91551
 C754 C 0.38250 1.09853 0.90100
 H755 H 0.29618 1.12442 0.82404
 H756 H 0.25961 1.15204 0.91385
 H757 H 0.36726 1.04669 0.97369
 H758 H 0.43070 1.08633 0.90593
 H759 H 0.30393 1.12699 0.93977
 H760 H 0.32365 1.07334 0.94832
 H761 H 0.34021 1.09887 0.84998
 H762 H 0.38706 1.11307 0.88082
 C763 C 0.32150 0.88831 1.10514
 C764 C 0.29855 0.90659 1.11976
 C765 C 0.27294 0.89267 1.13433
 C766 C 0.26956 0.86017 1.13440
 C767 C 0.29245 0.84187 1.11969
 C768 C 0.31825 0.85580 1.10534
 C769 C 0.34866 0.90322 1.08973
 C770 C 0.37900 0.89148 1.09410
 C771 C 0.40465 0.90613 1.08021
 C772 C 0.40045 0.93269 1.06145
 C773 C 0.37000 0.94411 1.05674
 C774 C 0.34444 0.92961 1.07082
 H775 H 0.25552 0.90737 1.14519
 H776 H 0.29058 0.81677 1.11963
 H777 H 0.42776 0.89668 1.08426
 H778 H 0.36586 0.96445 1.04236
 H779 H 0.33549 0.84117 1.09406
 H780 H 0.38293 0.87130 1.10876
 H781 H 0.30061 0.93169 1.12019
 H782 H 0.32128 0.93893 1.06673
 C783 C 0.67713 1.10304 1.11187
 C784 C 0.69901 1.11903 1.09343
 C785 C 0.72413 1.13447 1.10733
 C786 C 0.72806 1.13401 1.13995
 C787 C 0.70623 1.11790 1.15839
 C788 C 0.68092 1.10271 1.14450
 C789 C 0.65038 1.08687 1.09705
 C790 C 0.62013 1.08982 1.10941
 C791 C 0.59479 1.07528 1.09487
 C792 C 0.59924 1.05725 1.06781
 C793 C 0.62964 1.05393 1.05578
 C794 C 0.65489 1.06868 1.07016
 H795 H 0.74075 1.14642 1.09253
 H796 H 0.70854 1.11740 1.18359
 H797 H 0.57171 1.07826 1.10478
 H798 H 0.63393 1.04021 1.03499
 H799 H 0.66450 1.09039 1.15925
 H800 H 0.61598 1.10389 1.12998
 H801 H 0.69649 1.11989 1.06824
 H802 H 0.67802 1.06574 1.06036
 C803 C 0.67695 0.89294 0.89165
 C804 C 0.67931 0.86040 0.89002
 C805 C 0.70507 0.84642 0.87567
 C806 C 0.72876 0.86472 0.86234
 C807 C 0.72622 0.89727 0.86374
 C808 C 0.70067 0.91124 0.87839
 C809 C 0.65000 0.90783 0.90739
 C810 C 0.65474 0.93253 0.92830
 C811 C 0.62944 0.94652 0.94333
 C812 C 0.59876 0.93637 0.93751
 C813 C 0.59403 0.91170 0.91645
 C814 C 0.61942 0.89747 0.90168
 H815 H 0.70633 0.82129 0.87468
 H816 H 0.74428 0.91192 0.85392
 H817 H 0.63397 0.96531 0.95953
 H818 H 0.57072 0.90325 0.91149
 H819 H 0.69929 0.93638 0.87913
 H820 H 0.67812 0.94074 0.93337
 H821 H 0.66144 0.84577 0.90027
 H822 H 0.61513 0.87861 0.88547
   
