data_POSCAR
  _audit_creation_date              2014-09-24
  _audit_creation_method            'ToBaCCo'
  _symmetry_space_group_name_H-M    'P1'
  _symmetry_Int_Tables_number       1
  _symmetry_cell_setting            triclinic
  loop_
  _symmetry_equiv_pos_as_xyz
 x,y,z
_cell_length_a 25.7006
_cell_length_b 26.0806
_cell_length_c 25.5997
_cell_angle_alpha 90.504900
_cell_angle_beta 90.358600
_cell_angle_gamma 84.519000
loop_
  _atom_site_label
  _atom_site_type_symbol
  _atom_site_fract_x
  _atom_site_fract_y
  _atom_site_fract_z
Si1 Si -0.00225 0.51000 0.24076
 Si2 Si 0.00333 0.50783 0.75552
 Si3 Si 0.25910 0.01175 0.49692
 Si4 Si 0.73433 -0.02606 0.49485
 Si5 Si 0.47616 0.24920 1.00549
 Si6 Si 0.52311 0.74707 1.00607
 B7 B 0.99795 1.06130 0.03273
 B8 B 0.99546 1.06286 -0.03428
 B9 B 1.05160 1.03788 -0.00362
 B10 B 1.03449 1.00645 0.05154
 B11 B 0.96635 1.00930 0.05397
 B12 B 0.94298 1.04528 0.00006
 B13 B 0.99822 0.95435 -0.03534
 B14 B 1.00054 0.95395 0.03131
 B15 B 0.94406 0.97884 -0.00067
 B16 B 0.96205 1.00986 -0.05608
 B17 B 1.02899 1.00628 -0.05783
 B18 B 1.05391 0.97166 -0.00362
 B19 B 0.55510 0.48604 0.46698
 B20 B 0.55783 0.48524 0.53364
 B21 B 0.53554 0.54141 0.50116
 B22 B 0.49938 0.52418 0.44811
 B23 B 0.49871 0.45833 0.44782
 B24 B 0.53428 0.43341 0.50052
 B25 B 0.44871 0.49635 0.53871
 B26 B 0.44538 0.49654 0.47073
 B27 B 0.46704 0.44076 0.50333
 B28 B 0.50407 0.45699 0.55673
 B29 B 0.50418 0.52300 0.55797
 B30 B 0.46815 0.54778 0.50495
 C31 C 1.05082 1.38685 0.14484
 C32 C 1.01178 1.35228 0.14881
 C33 C 0.96780 1.36734 0.18043
 C34 C 0.96237 1.41593 0.20470
 C35 C 1.00181 1.44916 0.20127
 C36 C 1.04605 1.43413 0.17133
 C37 C 0.92992 1.33344 0.18868
 C38 C 0.93570 1.28390 0.16794
 C39 C 0.97875 1.26706 0.13620
 C40 C 1.01559 1.30284 0.12384
 C41 C 1.05414 1.28841 0.08608
 C42 C 1.05737 1.24015 0.06230
 C43 C 1.02392 1.20369 0.07686
 C44 C 0.98520 1.21609 0.11489
 C45 C 0.95500 1.17664 0.13050
 C46 C 0.96095 1.12813 0.10674
 C47 C 0.99658 1.11610 0.06593
 C48 C 1.02832 1.15520 0.05240
 H49 H 1.08654 1.37748 0.12352
 H50 H 0.92780 1.42684 0.22751
 H51 H 1.07756 1.45860 0.16872
 H52 H 0.89599 1.34489 0.21252
 H53 H 0.90470 1.26007 0.17599
 H54 H 1.08121 1.31446 0.07260
 H55 H 1.08687 1.23103 0.03268
 H56 H 0.92758 1.18153 0.16228
 H57 H 0.93894 1.09955 0.12314
 H58 H 1.05409 1.15027 0.01952
 C59 C 1.02509 0.61244 0.12245
 C60 C 1.01409 0.66101 0.14708
 C61 C 0.99554 0.66215 0.19914
 C62 C 0.99348 0.61643 0.22666
 C63 C 1.00306 0.56882 0.20149
 C64 C 1.01825 0.56695 0.14909
 C65 C 0.97810 0.70879 0.22315
 C66 C 0.97628 0.75437 0.19550
 C67 C 0.99567 0.75505 0.14420
 C68 C 1.01898 0.70851 0.12138
 C69 C 1.04750 0.71148 0.07471
 C70 C 1.05226 0.75886 0.05121
 C71 C 1.02504 0.80388 0.07089
 C72 C 0.99421 0.80148 0.11577
 C73 C 0.95989 0.84457 0.12826
 C74 C 0.95975 0.88937 0.09940
 C75 C 0.99804 0.89721 0.06160
 C76 C 1.02782 0.85128 0.04578
 H77 H 1.03664 0.60884 0.08200
 H78 H 0.98199 0.61792 0.26740
 H79 H 1.02550 0.53054 0.12874
 H80 H 0.96398 0.70985 0.26300
 H81 H 0.96190 0.78930 0.21589
 H82 H 1.06875 0.67798 0.05728
 H83 H 1.07610 0.76001 0.01658
 H84 H 0.92942 0.84277 0.15694
 H85 H 0.92544 0.91508 0.10427
 H86 H 1.05467 0.85125 0.01467
 C87 C 1.05219 1.35537 -0.21507
 C88 C 1.02599 1.34379 -0.16900
 C89 C 0.99253 1.38383 -0.14535
 C90 C 0.98768 1.43388 -0.16619
 C91 C 1.01441 1.44435 -0.21156
 C92 C 1.04570 1.40450 -0.23623
 C93 C 0.96307 1.37330 -0.10194
 C94 C 0.96402 1.32346 -0.08301
 C95 C 0.99600 1.28222 -0.10589
 C96 C 1.02994 1.29325 -0.14731
 C97 C 1.06685 1.25347 -0.16537
 C98 C 1.06837 1.20382 -0.14568
 C99 C 1.03221 1.19142 -0.10852
 C100 C 0.99548 1.23030 -0.08864
 C101 C 0.95970 1.21549 -0.05209
 C102 C 0.96023 1.16459 -0.03664
 C103 C 0.99454 1.12360 -0.05746
 C104 C 1.03293 1.14021 -0.09104
 H105 H 1.07589 1.32668 -0.23720
 H106 H 0.96188 1.46421 -0.14816
 H107 H 1.06441 1.41063 -0.27308
 H108 H 0.93784 1.40365 -0.08324
 H109 H 0.93974 1.31876 -0.04959
 H110 H 1.09609 1.25987 -0.19396
 H111 H 1.09741 1.17456 -0.16065
 H112 H 0.93080 1.24235 -0.03383
 H113 H 0.93566 1.15998 -0.00383
 H114 H 1.06431 1.11416 -0.10443
 C115 C 1.05204 0.61982 -0.14284
 C116 C 1.02136 0.66502 -0.15883
 C117 C 0.98182 0.65987 -0.19668
 C118 C 0.97825 0.61290 -0.22212
 C119 C 1.00695 0.56794 -0.20485
 C120 C 1.04377 0.57161 -0.16471
 C121 C 0.94609 0.70165 -0.20922
 C122 C 0.94724 0.74812 -0.18286
 C123 C 0.98738 0.75557 -0.14669
 C124 C 1.02771 0.71507 -0.13832
 C125 C 1.07370 0.72691 -0.11231
 C126 C 1.07938 0.77719 -0.09524
 C127 C 1.03720 0.81532 -0.09792
 C128 C 0.98965 0.80329 -0.12038
 C129 C 0.94545 0.83857 -0.11410
 C130 C 0.94864 0.88415 -0.08647
 C131 C 0.99645 0.89906 -0.06679
 C132 C 1.04131 0.86474 -0.07663
 H133 H 1.08119 0.62080 -0.11236
 H134 H 0.95283 0.61190 -0.25588
 H135 H 1.06731 0.53756 -0.15142
 H136 H 0.91579 0.69781 -0.23827
 H137 H 0.91820 0.77892 -0.19378
 H138 H 1.10684 0.69852 -0.10771
 H139 H 1.11600 0.78556 -0.07737
 H140 H 0.90722 0.83053 -0.12788
 H141 H 0.91308 0.90929 -0.08443
 H142 H 1.07922 0.87379 -0.06380
 C143 C 1.13872 1.04744 0.38949
 C144 C 1.16448 1.03946 0.34074
 C145 C 1.21900 1.02513 0.34152
 C146 C 1.24640 1.02137 0.38894
 C147 C 1.22022 1.02781 0.43664
 C148 C 1.16628 1.04080 0.43676
 C149 C 1.24575 1.01273 0.29516
 C150 C 1.21916 1.01179 0.24787
 C151 C 1.16487 1.02576 0.24482
 C152 C 1.13782 1.04300 0.29150
 C153 C 1.08528 1.06370 0.28724
 C154 C 1.05932 1.06505 0.23950
 C155 C 1.08389 1.04372 0.19475
 C156 C 1.13653 1.02332 0.19671
 C157 C 1.15825 1.00157 0.15015
 C158 C 1.12751 0.99724 0.10526
 C159 C 1.07321 1.01253 0.10410
 C160 C 1.05521 1.04181 0.14822
 H161 H 1.09698 1.05616 0.39234
 H162 H 1.28813 1.01020 0.38870
 H163 H 1.14514 1.04473 0.47316
 H164 H 1.28755 1.00189 0.29566
 H165 H 1.24252 1.00087 0.21405
 H166 H 1.06357 1.08041 0.32012
 H167 H 1.01891 1.08135 0.23801
 H168 H 1.19893 0.98759 0.14685
 H169 H 1.14889 0.98720 0.07037
 H170 H 1.01659 1.06013 0.14901
 C171 C 1.21474 0.95043 -0.36254
 C172 C 1.17716 0.98758 -0.34110
 C173 C 1.16217 1.03198 -0.37148
 C174 C 1.18510 1.03884 -0.42059
 C175 C 1.22342 1.00218 -0.44031
 C176 C 1.23739 0.95787 -0.41082
 C177 C 1.12508 1.06977 -0.35228
 C178 C 1.10239 1.06467 -0.30372
 C179 C 1.11572 1.02111 -0.27212
 C180 C 1.15438 0.98233 -0.29061
 C181 C 1.16946 0.94014 -0.25761
 C182 C 1.14792 0.93623 -0.20821
 C183 C 1.10999 0.97365 -0.18973
 C184 C 1.09252 1.01572 -0.22200
 C185 C 1.05085 1.04960 -0.20352
 C186 C 1.03128 1.04467 -0.15358
 C187 C 1.05300 1.00748 -0.11776
 C188 C 1.08913 0.96903 -0.13923
 H189 H 1.22796 0.91514 -0.34302
 H190 H 1.17360 1.07315 -0.44299
 H191 H 1.26678 0.92846 -0.42413
 H192 H 1.11376 1.10405 -0.37486
 H193 H 1.07531 1.09649 -0.29141
 H194 H 1.19868 0.90961 -0.26833
 H195 H 1.16137 0.90359 -0.18408
 H196 H 1.03104 1.07939 -0.22725
 H197 H 0.99669 1.06960 -0.14415
 H198 H 1.10035 0.93458 -0.11778
 C199 C 0.75219 0.96654 0.33472
 C200 C 0.80282 0.98087 0.32527
 C201 C 0.83613 0.98636 0.36921
 C202 C 0.81690 0.98339 0.42057
 C203 C 0.76564 0.97181 0.42884
 C204 C 0.73458 0.96094 0.38566
 C205 C 0.88824 0.99506 0.36144
 C206 C 0.90836 0.99675 0.31121
 C207 C 0.87621 0.99266 0.26669
 C208 C 0.82198 0.98846 0.27373
 C209 C 0.78892 0.99324 0.22919
 C210 C 0.80888 1.00099 0.17937
 C211 C 0.86273 1.00092 0.17163
 C212 C 0.89667 0.99391 0.21521
 C213 C 0.94992 0.98285 0.20529
 C214 C 0.96870 0.98405 0.15476
 C215 C 0.93812 1.00389 0.11210
 C216 C 0.88341 1.00596 0.12076
 H217 H 0.72587 0.95839 0.30337
 H218 H 0.84158 0.99032 0.45389
 H219 H 0.69518 0.95061 0.39136
 H220 H 0.91400 0.99960 0.39450
 H221 H 0.94897 1.00377 0.30791
 H222 H 0.74705 0.99337 0.23224
 H223 H 0.78209 1.00579 0.14653
 H224 H 0.97708 0.96848 0.23536
 H225 H 1.00725 0.96508 0.14903
 H226 H 0.85667 1.00879 0.08812
 C227 C 0.77433 1.04422 -0.36610
 C228 C 0.81143 1.00787 -0.34308
 C229 C 0.83401 0.96728 -0.37542
 C230 C 0.81452 0.95973 -0.42620
 C231 C 0.77328 0.99277 -0.44622
 C232 C 0.75662 1.03724 -0.41716
 C233 C 0.87486 0.93358 -0.35632
 C234 C 0.89421 0.93965 -0.30610
 C235 C 0.87180 0.97855 -0.27199
 C236 C 0.82770 1.01104 -0.28962
 C237 C 0.80015 1.04373 -0.25264
 C238 C 0.81635 1.04531 -0.20038
 C239 C 0.86264 1.01730 -0.18388
 C240 C 0.89132 0.98512 -0.22028
 C241 C 0.93907 0.96099 -0.20372
 C242 C 0.95781 0.96910 -0.15395
 C243 C 0.93167 1.00156 -0.11531
 C244 C 0.88073 1.02159 -0.13149
 H245 H 0.75897 1.07870 -0.34563
 H246 H 0.83072 0.92730 -0.44926
 H247 H 0.72874 1.06664 -0.43294
 H248 H 0.89226 0.90226 -0.38051
 H249 H 0.92528 0.91141 -0.29421
 H250 H 0.76450 1.06688 -0.26277
 H251 H 0.79347 1.07013 -0.17316
 H252 H 0.96453 0.93699 -0.22913
 H253 H 0.99434 0.94733 -0.14723
 H254 H 0.85310 1.03937 -0.10490
 C255 C 1.35416 1.18344 0.07599
 C256 C 1.33251 1.15653 0.03416
 C257 C 1.36141 1.15102 -0.01299
 C258 C 1.40709 1.17545 -0.01906
 C259 C 1.42347 1.20764 0.02017
 C260 C 1.39930 1.20829 0.06896
 C261 C 1.34364 1.12283 -0.05469
 C262 C 1.29541 1.10360 -0.05254
 C263 C 1.26274 1.11264 -0.00864
 C264 C 1.28274 1.13648 0.03668
 C265 C 1.25153 1.14077 0.08211
 C266 C 1.20190 1.12363 0.08255
 C267 C 1.18090 1.10308 0.03747
 C268 C 1.21066 1.09845 -0.00871
 C269 C 1.18615 1.08195 -0.05403
 C270 C 1.13630 1.06613 -0.05235
 C271 C 1.10735 1.06517 -0.00597
 C272 C 1.13015 1.08716 0.03827
 H273 H 1.33656 1.18723 0.11406
 H274 H 1.42807 1.17206 -0.05576
 H275 H 1.41461 1.22849 0.10178
 H276 H 1.36658 1.11682 -0.09000
 H277 H 1.28477 1.08163 -0.08614
 H278 H 1.26436 1.15717 0.11815
 H279 H 1.17943 1.12728 0.11832
 H280 H 1.20418 1.08127 -0.09197
 H281 H 1.12293 1.05284 -0.08879
 H282 H 1.10874 1.09272 0.07412
 C283 C 0.60772 1.16794 0.06368
 C284 C 0.64306 1.16525 0.02127
 C285 C 0.62275 1.17937 -0.02881
 C286 C 0.57049 1.19927 -0.03482
 C287 C 0.53822 1.20696 0.00868
 C288 C 0.55611 1.18873 0.05726
 C289 C 0.65501 1.17528 -0.07242
 C290 C 0.70774 1.15921 -0.06743
 C291 C 0.73058 1.14748 -0.01815
 C292 C 0.69767 1.14982 0.02687
 C293 C 0.72068 1.13761 0.07603
 C294 C 0.77351 1.12160 0.08079
 C295 C 0.80555 1.11749 0.03697
 C296 C 0.78510 1.13210 -0.01258
 C297 C 0.82061 1.13088 -0.05436
 C298 C 0.87139 1.10773 -0.04849
 C299 C 0.88941 1.08497 -0.00124
 C300 C 0.85774 1.09703 0.04230
 H301 H 0.61887 1.15578 0.10257
 H302 H 0.55594 1.21106 -0.07305
 H303 H 0.53097 1.19340 0.09114
 H304 H 0.63942 1.18514 -0.11088
 H305 H 0.72962 1.15621 -0.10325
 H306 H 0.69891 1.13975 0.11188
 H307 H 0.78920 1.11125 0.11910
 H308 H 0.81022 1.14599 -0.09244
 H309 H 0.89620 1.10613 -0.08247
 H310 H 0.87192 1.08943 0.08052
 C311 C 1.40269 0.85768 -0.03874
 C312 C 1.35872 0.84453 -0.01017
 C313 C 1.36709 0.80370 0.02596
 C314 C 1.41657 0.77645 0.03143
 C315 C 1.45973 0.78998 0.00327
 C316 C 1.45215 0.83053 -0.03223
 C317 C 1.32580 0.78916 0.05578
 C318 C 1.27614 0.81473 0.05137
 C319 C 1.26540 0.85568 0.01612
 C320 C 1.30684 0.86971 -0.01648
 C321 C 1.29459 0.90758 -0.05489
 C322 C 1.24395 0.93102 -0.06095
 C323 C 1.20374 0.91909 -0.02798
 C324 C 1.21418 0.88232 0.01168
 C325 C 1.17348 0.87576 0.04696
 C326 C 1.12453 0.90353 0.04172
 C327 C 1.11163 0.93710 -0.00037
 C328 C 1.15344 0.94504 -0.03375
 H329 H 1.40015 0.88853 -0.06662
 H330 H 1.42052 0.74315 0.05649
 H331 H 1.48410 0.84020 -0.05644
 H332 H 1.33194 0.75754 0.08304
 H333 H 1.24633 0.80032 0.07509
 H334 H 1.32322 0.91924 -0.08177
 H335 H 1.23637 0.95950 -0.09136
 H336 H 1.17928 0.85230 0.08135
 H337 H 1.09866 0.90245 0.07451
 H338 H 1.14861 0.97294 -0.06357
 C339 C 0.67987 0.76482 0.02929
 C340 C 0.68542 0.81706 0.01865
 C341 C 0.63904 0.84963 0.00794
 C342 C 0.58996 0.82969 0.00536
 C343 C 0.58604 0.77731 0.01315
 C344 C 0.63110 0.74569 0.02684
 C345 C 0.64184 0.90194 -0.00028
 C346 C 0.68962 0.92260 0.00013
 C347 C 0.73719 0.89139 0.00754
 C348 C 0.73511 0.83796 0.01809
 C349 C 0.78282 0.80726 0.02678
 C350 C 0.83080 0.82796 0.02486
 C351 C 0.83349 0.87991 0.01376
 C352 C 0.78679 0.91191 0.00454
 C353 C 0.79184 0.96283 -0.00997
 C354 C 0.84041 0.98155 -0.01256
 C355 C 0.88750 0.95239 0.00035
 C356 C 0.88274 0.89982 0.01067
 H357 H 0.71233 0.73756 0.03966
 H358 H 0.55516 0.85494 -0.00321
 H359 H 0.62895 0.70549 0.03572
 H360 H 0.60661 0.92734 -0.00724
 H361 H 0.68767 0.96360 -0.00542
 H362 H 0.78462 0.76669 0.03482
 H363 H 0.86625 0.80286 0.03177
 H364 H 0.75912 0.98935 -0.02132
 H365 H 0.83887 1.01932 -0.02653
 H366 H 0.91708 0.87296 0.01320
 C367 C 0.84532 0.56064 0.28409
 C368 C 0.83302 0.52591 0.32315
 C369 C 0.87215 0.48616 0.33710
 C370 C 0.92190 0.48303 0.31416
 C371 C 0.93347 0.51802 0.27588
 C372 C 0.89435 0.55609 0.26044
 C373 C 0.86108 0.44891 0.37294
 C374 C 0.81134 0.44874 0.39360
 C375 C 0.77075 0.48681 0.38006
 C376 C 0.78261 0.52780 0.34696
 C377 C 0.74384 0.56935 0.33932
 C378 C 0.69451 0.56967 0.36167
 C379 C 0.68118 0.52781 0.39070
 C380 C 0.71882 0.48563 0.39920
 C381 C 0.70267 0.44342 0.42602
 C382 C 0.65212 0.44385 0.44478
 C383 C 0.61347 0.48518 0.43810
 C384 C 0.63042 0.52800 0.41147
 H385 H 0.81708 0.59019 0.26916
 H386 H 0.95077 0.45160 0.32419
 H387 H 0.90057 0.58173 0.22866
 H388 H 0.89093 0.41883 0.38435
 H389 H 0.80630 0.41875 0.42126
 H390 H 0.75105 0.60301 0.31737
 H391 H 0.66617 0.60258 0.35525
 H392 H 0.72803 0.40878 0.43292
 H393 H 0.64587 0.41123 0.46695
 H394 H 0.60453 0.56249 0.40643
 C395 C 0.10270 0.49283 0.36603
 C396 C 0.15141 0.50028 0.34282
 C397 C 0.15105 0.51392 0.28939
 C398 C 0.10461 0.51662 0.26023
 C399 C 0.05725 0.50733 0.28325
 C400 C 0.05638 0.49675 0.33661
 C401 C 0.19696 0.52504 0.26510
 C402 C 0.24377 0.52282 0.29255
 C403 C 0.24696 0.50749 0.34530
 C404 C 0.20017 0.49523 0.37064
 C405 C 0.20398 0.47717 0.42246
 C406 C 0.25148 0.47220 0.44893
 C407 C 0.29692 0.48593 0.42538
 C408 C 0.29544 0.50368 0.37353
 C409 C 0.34323 0.51495 0.35177
 C410 C 0.38913 0.51161 0.38151
 C411 C 0.39048 0.49914 0.43510
 C412 C 0.34402 0.48158 0.45376
 H413 H 0.09889 0.48481 0.40696
 H414 H 0.10546 0.52654 0.21926
 H415 H 0.02015 0.49131 0.35593
 H416 H 0.19665 0.53611 0.22435
 H417 H 0.27699 0.53287 0.27083
 H418 H 0.17097 0.46541 0.44343
 H419 H 0.25251 0.45789 0.48860
 H420 H 0.34722 0.52487 0.31135
 H421 H 0.42408 0.51343 0.35954
 H422 H 0.34297 0.46525 0.49126
 C423 C 0.84519 0.54099 0.72621
 C424 C 0.83528 0.51246 0.68094
 C425 C 0.87601 0.47711 0.66135
 C426 C 0.92717 0.47698 0.68188
 C427 C 0.93697 0.50860 0.72471
 C428 C 0.89463 0.53700 0.74892
 C429 C 0.86474 0.44181 0.62241
 C430 C 0.81361 0.44009 0.60406
 C431 C 0.77295 0.47666 0.62092
 C432 C 0.78524 0.51592 0.65655
 C433 C 0.74787 0.55833 0.66536
 C434 C 0.69925 0.56132 0.64087
 C435 C 0.68490 0.52043 0.61017
 C436 C 0.72065 0.47653 0.60207
 C437 C 0.70168 0.43324 0.57820
 C438 C 0.64998 0.43500 0.56061
 C439 C 0.61638 0.48112 0.56080
 C440 C 0.63474 0.52301 0.58784
 H441 H 0.81448 0.56430 0.74641
 H442 H 0.95885 0.45148 0.66560
 H443 H 0.89942 0.55655 0.78581
 H444 H 0.89528 0.41424 0.60727
 H445 H 0.80712 0.41151 0.57453
 H446 H 0.75655 0.59101 0.68896
 H447 H 0.67210 0.59519 0.64732
 H448 H 0.72518 0.39667 0.57578
 H449 H 0.63634 0.39914 0.54848
 H450 H 0.60963 0.55844 0.59212
 C451 C 0.10717 0.53242 0.63585
 C452 C 0.15661 0.52214 0.66097
 C453 C 0.15697 0.50534 0.71338
 C454 C 0.11026 0.50160 0.73969
 C455 C 0.06204 0.51202 0.71466
 C456 C 0.06044 0.52718 0.66256
 C457 C 0.20386 0.49188 0.73958
 C458 C 0.25120 0.49376 0.71469
 C459 C 0.25354 0.51109 0.66285
 C460 C 0.20556 0.52709 0.63607
 C461 C 0.20826 0.54811 0.58572
 C462 C 0.25595 0.55115 0.56138
 C463 C 0.30256 0.53212 0.58560
 C464 C 0.30227 0.51245 0.63664
 C465 C 0.35118 0.49558 0.65914
 C466 C 0.39689 0.49331 0.62972
 C467 C 0.39643 0.50573 0.57630
 C468 C 0.34949 0.53150 0.55813
 H469 H 0.10335 0.54376 0.59553
 H470 H 0.11160 0.48945 0.78011
 H471 H 0.02327 0.53558 0.64281
 H472 H 0.20397 0.47880 0.77969
 H473 H 0.28539 0.48166 0.73756
 H474 H 0.17407 0.56316 0.56424
 H475 H 0.25619 0.56714 0.52243
 H476 H 0.35585 0.48396 0.69928
 H477 H 0.43292 0.48504 0.65070
 H478 H 0.34773 0.54850 0.52079
 C479 C 0.54225 0.62601 0.11053
 C480 C 0.52496 0.64899 0.15836
 C481 C 0.50396 0.70121 0.15803
 C482 C 0.50603 0.73040 0.11268
 C483 C 0.52236 0.70693 0.06553
 C484 C 0.53976 0.65450 0.06453
 C485 C 0.48039 0.72370 0.20268
 C486 C 0.47565 0.69471 0.24733
 C487 C 0.49809 0.64332 0.24994
 C488 C 0.52662 0.62159 0.20620
 C489 C 0.55762 0.57441 0.21250
 C490 C 0.56001 0.54928 0.26023
 C491 C 0.52843 0.56813 0.30171
 C492 C 0.49518 0.61374 0.29592
 C493 C 0.45903 0.62685 0.33570
 C494 C 0.45901 0.59732 0.38074
 C495 C 0.49724 0.55628 0.39156
 C496 C 0.53018 0.54165 0.34915
 H497 H 0.55574 0.58562 0.10733
 H498 H 0.49284 0.77115 0.11361
 H499 H 0.55243 0.63549 0.02851
 H500 H 0.46409 0.76361 0.20260
 H501 H 0.45675 0.71420 0.28052
 H502 H 0.58280 0.55774 0.18197
 H503 H 0.58598 0.51430 0.26434
 H504 H 0.42853 0.65809 0.33165
 H505 H 0.42809 0.60714 0.40645
 H506 H 0.55928 0.51071 0.35220
 C507 C 0.57390 0.64532 0.88660
 C508 C 0.53087 0.64696 0.85167
 C509 C 0.48544 0.67946 0.86509
 C510 C 0.48328 0.70798 0.91178
 C511 C 0.52629 0.70625 0.94556
 C512 C 0.57150 0.67468 0.93255
 C513 C 0.44240 0.68399 0.83166
 C514 C 0.44377 0.65828 0.78409
 C515 C 0.48822 0.62591 0.76836
 C516 C 0.53168 0.61851 0.80356
 C517 C 0.57419 0.58276 0.78952
 C518 C 0.57514 0.55676 0.74187
 C519 C 0.53445 0.56612 0.70583
 C520 C 0.49064 0.60061 0.71859
 C521 C 0.45092 0.60817 0.68079
 C522 C 0.45564 0.58395 0.63233
 C523 C 0.50045 0.55165 0.61690
 C524 C 0.53757 0.54093 0.65697
 H525 H 0.61043 0.62275 0.87909
 H526 H 0.44779 0.73186 0.92126
 H527 H 0.60547 0.67247 0.95763
 H528 H 0.40742 0.70849 0.84196
 H529 H 0.40879 0.66439 0.76078
 H530 H 0.60724 0.57339 0.81490
 H531 H 0.60867 0.52980 0.73271
 H532 H 0.41544 0.63286 0.68686
 H533 H 0.42200 0.59097 0.60750
 H534 H 0.56931 0.51245 0.65186
 C535 C 0.54098 0.34149 0.11321
 C536 C 0.49917 0.35573 0.14767
 C537 C 0.44803 0.34614 0.13149
 C538 C 0.44011 0.32117 0.08383
 C539 C 0.48292 0.30065 0.05473
 C540 C 0.53282 0.31380 0.06771
 C541 C 0.40564 0.35809 0.16454
 C542 C 0.41345 0.37472 0.21535
 C543 C 0.46405 0.38136 0.23431
 C544 C 0.50684 0.37590 0.19875
 C545 C 0.55603 0.38944 0.21598
 C546 C 0.56363 0.40538 0.26699
 C547 C 0.52300 0.40731 0.30297
 C548 C 0.47322 0.39401 0.28758
 C549 C 0.43528 0.39207 0.32671
 C550 C 0.44503 0.40800 0.37759
 C551 C 0.49231 0.42785 0.39193
 C552 C 0.53190 0.42349 0.35417
 H553 H 0.58096 0.34760 0.12196
 H554 H 0.40102 0.31355 0.07196
 H555 H 0.56632 0.30008 0.04429
 H556 H 0.36633 0.35200 0.15193
 H557 H 0.37897 0.38258 0.23899
 H558 H 0.58935 0.38915 0.19064
 H559 H 0.60191 0.41586 0.27851
 H560 H 0.39772 0.37814 0.31929
 H561 H 0.41342 0.40678 0.40471
 H562 H 0.57044 0.43357 0.36346
 C563 C 0.42116 0.29790 0.85952
 C564 C 0.46398 0.32093 0.83820
 C565 C 0.50775 0.32607 0.87127
 C566 C 0.50897 0.30717 0.92228
 C567 C 0.46810 0.28115 0.94101
 C568 C 0.42335 0.27845 0.91024
 C569 C 0.55065 0.34925 0.85321
 C570 C 0.55206 0.36643 0.80233
 C571 C 0.51047 0.36075 0.76711
 C572 C 0.46514 0.33878 0.78552
 C573 C 0.42273 0.33550 0.75060
 C574 C 0.42413 0.35413 0.69996
 C575 C 0.46811 0.37577 0.68174
 C576 C 0.51214 0.37786 0.71443
 C577 C 0.55623 0.39707 0.69269
 C578 C 0.55409 0.41895 0.64337
 C579 C 0.50838 0.42407 0.61249
 C580 C 0.46751 0.39708 0.63143
 H581 H 0.38571 0.29362 0.83796
 H582 H 0.54308 0.31064 0.94674
 H583 H 0.38997 0.26098 0.92496
 H584 H 0.58379 0.35391 0.87866
 H585 H 0.58630 0.38484 0.79212
 H586 H 0.38733 0.31939 0.76139
 H587 H 0.39019 0.35198 0.67495
 H588 H 0.59331 0.39600 0.71271
 H589 H 0.58937 0.43265 0.63216
 H590 H 0.43239 0.39695 0.61027
 C591 C 0.74072 0.81461 0.50735
 C592 C 0.68789 0.80398 0.50660
 C593 C 0.64910 0.84660 0.50297
 C594 C 0.66303 0.89740 0.50268
 C595 C 0.71545 0.90705 0.50311
 C596 C 0.75405 0.86527 0.50434
 C597 C 0.59656 0.83835 0.49812
 C598 C 0.58180 0.78881 0.49376
 C599 C 0.61906 0.74545 0.49607
 C600 C 0.67220 0.75268 0.50663
 C601 C 0.70707 0.70841 0.51709
 C602 C 0.68982 0.65890 0.51715
 C603 C 0.63810 0.65158 0.50388
 C604 C 0.60396 0.69487 0.48977
 C605 C 0.55670 0.68585 0.46638
 C606 C 0.54000 0.63718 0.46636
 C607 C 0.56643 0.59502 0.49271
 C608 C 0.61963 0.60184 0.50396
 H609 H 0.77244 0.78437 0.50731
 H610 H 0.63294 0.92930 0.49965
 H611 H 0.79484 0.87135 0.50101
 H612 H 0.56663 0.87053 0.49619
 H613 H 0.54040 0.78519 0.49042
 H614 H 0.74741 0.71128 0.52762
 H615 H 0.71715 0.62623 0.52734
 H616 H 0.53171 0.71599 0.44758
 H617 H 0.50237 0.63598 0.45024
 H618 H 0.64772 0.56912 0.50940
 C619 C 0.61446 0.08260 0.53879
 C620 C 0.61787 0.12153 0.50093
 C621 C 0.64546 0.10736 0.45447
 C622 C 0.67492 0.05971 0.45007
 C623 C 0.67710 0.02438 0.49087
 C624 C 0.64337 0.03436 0.53334
 C625 C 0.64667 0.14200 0.41368
 C626 C 0.62540 0.19232 0.41959
 C627 C 0.60393 0.21064 0.46765
 C628 C 0.59782 0.17438 0.50828
 C629 C 0.57478 0.19290 0.55561
 C630 C 0.56039 0.24531 0.56373
 C631 C 0.56852 0.28138 0.52523
 C632 C 0.58964 0.26423 0.47666
 C633 C 0.59683 0.30180 0.43925
 C634 C 0.58181 0.35333 0.44887
 C635 C 0.56045 0.37245 0.49626
 C636 C 0.55481 0.33449 0.53473
 H637 H 0.59184 0.08904 0.57395
 H638 H 0.69990 0.05294 0.41650
 H639 H 0.64368 0.00709 0.56503
 H640 H 0.66583 0.13054 0.37720
 H641 H 0.62818 0.21618 0.38587
 H642 H 0.56858 0.16783 0.58776
 H643 H 0.54347 0.25779 0.60095
 H644 H 0.61398 0.29321 0.40158
 H645 H 0.58901 0.37807 0.41816
 H646 H 0.53710 0.34416 0.57130
 C647 C 0.27549 0.85874 0.45535
 C648 C 0.32380 0.83928 0.47744
 C649 C 0.35596 0.87540 0.49956
 C650 C 0.33951 0.92845 0.50023
 C651 C 0.29036 0.94619 0.48066
 C652 C 0.25896 0.91110 0.45775
 C653 C 0.40337 0.85824 0.52295
 C654 C 0.41865 0.80601 0.52721
 C655 C 0.38714 0.76850 0.50768
 C656 C 0.34021 0.78531 0.48020
 C657 C 0.31145 0.74755 0.45657
 C658 C 0.32794 0.69524 0.45989
 C659 C 0.37296 0.67822 0.48783
 C660 C 0.40199 0.71464 0.51333
 C661 C 0.44524 0.69564 0.54330
 C662 C 0.46297 0.64387 0.54194
 C663 C 0.43823 0.60694 0.51228
 C664 C 0.39039 0.62514 0.48849
 H665 H 0.24819 0.83441 0.43843
 H666 H 0.36315 0.95537 0.51942
 H667 H 0.22004 0.92374 0.44374
 H668 H 0.42855 0.88550 0.53917
 H669 H 0.45612 0.79634 0.54545
 H670 H 0.27655 0.75719 0.43385
 H671 H 0.30529 0.66785 0.44008
 H672 H 0.46751 0.71986 0.56725
 H673 H 0.49941 0.63386 0.56217
 H674 H 0.36921 0.59953 0.46493
 C675 C 0.37478 0.10876 0.46806
 C676 C 0.35801 0.15450 0.49618
 C677 C 0.31426 0.15294 0.52943
 C678 C 0.28801 0.10823 0.53283
 C679 C 0.30366 0.06433 0.50305
 C680 C 0.34763 0.06471 0.47124
 C681 C 0.29569 0.19649 0.55808
 C682 C 0.31824 0.24246 0.55333
 C683 C 0.36068 0.24695 0.51946
 C684 C 0.38195 0.20191 0.49155
 C685 C 0.42602 0.20608 0.45970
 C686 C 0.44810 0.25249 0.45482
 C687 C 0.42724 0.29683 0.48114
 C688 C 0.38292 0.29492 0.51304
 C689 C 0.36233 0.34154 0.53654
 C690 C 0.38697 0.38668 0.53158
 C691 C 0.43373 0.38871 0.50356
 C692 C 0.45099 0.34303 0.47595
 H693 H 0.40762 0.10621 0.44194
 H694 H 0.25379 0.10872 0.55718
 H695 H 0.36011 0.03143 0.44730
 H696 H 0.26268 0.19527 0.58406
 H697 H 0.30148 0.27388 0.57723
 H698 H 0.44480 0.17389 0.43817
 H699 H 0.48212 0.25359 0.43017
 H700 H 0.32734 0.34463 0.55972
 H701 H 0.37010 0.41894 0.55390
 H702 H 0.48309 0.34257 0.44938
   
