data_POSCAR
  _audit_creation_date              2014-09-24
  _audit_creation_method            'ToBaCCo'
  _symmetry_space_group_name_H-M    'P1'
  _symmetry_Int_Tables_number       1
  _symmetry_cell_setting            triclinic
  loop_
  _symmetry_equiv_pos_as_xyz
 x,y,z
_cell_length_a 15.0602
_cell_length_b 25.3226
_cell_length_c 19.1226
_cell_angle_alpha 90.000000
_cell_angle_beta 90.000000
_cell_angle_gamma 90.000000
loop_
  _atom_site_label
  _atom_site_type_symbol
  _atom_site_fract_x
  _atom_site_fract_y
  _atom_site_fract_z
B1 B -0.06367 -0.04467 0.02769
 B2 B 0.04411 -0.04243 0.04917
 B3 B 0.01340 -0.05627 -0.03354
 B4 B -0.07726 -0.02054 -0.05354
 B5 B -0.10144 0.01668 0.01841
 B6 B -0.02577 0.00219 0.08213
 B7 B 0.06367 0.04467 -0.02769
 B8 B -0.04411 0.04243 -0.04918
 B9 B -0.01340 0.05627 0.03354
 B10 B 0.07726 0.02054 0.05354
 B11 B 0.10144 -0.01668 -0.01841
 B12 B 0.02577 -0.00219 -0.08213
 B13 B 0.53647 0.47717 0.57172
 B14 B 0.42732 0.47562 0.55123
 B15 B 0.47817 0.53408 0.56855
 B16 B 0.58247 0.53118 0.53617
 B17 B 0.59634 0.47118 0.49744
 B18 B 0.49990 0.43711 0.50824
 B19 B 0.46353 0.52283 0.42828
 B20 B 0.57268 0.52438 0.44877
 B21 B 0.52183 0.46592 0.43145
 B22 B 0.41753 0.46882 0.46383
 B23 B 0.40366 0.52882 0.50256
 B24 B 0.50010 0.56289 0.49176
 B25 B 0.56367 0.04467 0.52769
 B26 B 0.45589 0.04243 0.54917
 B27 B 0.48660 0.05627 0.46646
 B28 B 0.57726 0.02054 0.44646
 B29 B 0.60144 -0.01668 0.51841
 B30 B 0.52577 -0.00219 0.58213
 B31 B 0.43633 -0.04467 0.47231
 B32 B 0.54411 -0.04243 0.45082
 B33 B 0.51340 -0.05627 0.53354
 B34 B 0.42274 -0.02054 0.55354
 B35 B 0.39856 0.01668 0.48159
 B36 B 0.47423 0.00219 0.41787
 B37 B -0.03647 0.52283 0.07172
 B38 B 0.07268 0.52438 0.05123
 B39 B 0.02183 0.46592 0.06855
 B40 B -0.08247 0.46882 0.03617
 B41 B -0.09634 0.52882 -0.00256
 B42 B 0.00010 0.56289 0.00824
 B43 B 0.03647 0.47717 -0.07172
 B44 B -0.07268 0.47562 -0.05123
 B45 B -0.02183 0.53408 -0.06855
 B46 B 0.08247 0.53118 -0.03617
 B47 B 0.09634 0.47118 0.00256
 B48 B -0.00010 0.43711 -0.00824
 B49 B 0.06367 0.45533 0.47231
 B50 B -0.04411 0.45757 0.45083
 B51 B -0.01340 0.44373 0.53354
 B52 B 0.07726 0.47946 0.55354
 B53 B 0.10144 0.51668 0.48159
 B54 B 0.02577 0.50219 0.41787
 B55 B -0.06367 0.54467 0.52769
 B56 B 0.04411 0.54243 0.54917
 B57 B 0.01340 0.55627 0.46646
 B58 B -0.07726 0.52054 0.44646
 B59 B -0.10144 0.48332 0.51841
 B60 B -0.02577 0.49781 0.58213
 B61 B 0.46353 -0.02283 -0.07172
 B62 B 0.57268 -0.02438 -0.05123
 B63 B 0.52183 0.03408 -0.06855
 B64 B 0.41753 0.03118 -0.03617
 B65 B 0.40366 -0.02882 0.00256
 B66 B 0.50010 -0.06289 -0.00824
 B67 B 0.53647 0.02283 0.07172
 B68 B 0.42732 0.02438 0.05123
 B69 B 0.47817 -0.03408 0.06855
 B70 B 0.58247 -0.03118 0.03617
 B71 B 0.59634 0.02882 -0.00256
 B72 B 0.49990 0.06289 0.00824
 B73 B 0.43633 0.54467 -0.02769
 B74 B 0.54411 0.54243 -0.04918
 B75 B 0.51340 0.55627 0.03354
 B76 B 0.42274 0.52054 0.05354
 B77 B 0.39856 0.48332 -0.01841
 B78 B 0.47423 0.49781 -0.08213
 B79 B 0.56367 0.45533 0.02769
 B80 B 0.45589 0.45757 0.04917
 B81 B 0.48660 0.44373 -0.03354
 B82 B 0.57726 0.47946 -0.05354
 B83 B 0.60144 0.51668 0.01841
 B84 B 0.52577 0.50219 0.08213
 B85 B 0.03647 0.02283 0.42828
 B86 B -0.07268 0.02438 0.44877
 B87 B -0.02183 -0.03408 0.43145
 B88 B 0.08247 -0.03118 0.46383
 B89 B 0.09634 0.02882 0.50256
 B90 B -0.00010 0.06289 0.49176
 B91 B -0.03647 -0.02283 0.57172
 B92 B 0.07268 -0.02438 0.55123
 B93 B 0.02183 0.03408 0.56855
 B94 B -0.08247 0.03118 0.53617
 B95 B -0.09634 -0.02882 0.49744
 B96 B 0.00010 -0.06289 0.50824
 B97 B 0.78724 0.29826 0.27384
 B98 B 0.67786 0.28731 0.28152
 B99 B 0.72105 0.29620 0.20224
 B100 B 0.82297 0.27005 0.19928
 B101 B 0.84313 0.24094 0.27857
 B102 B 0.75196 0.25191 0.33068
 B103 B 0.69949 0.19225 0.22068
 B104 B 0.80825 0.20531 0.20959
 B105 B 0.76554 0.19338 0.28950
 B106 B 0.66270 0.22142 0.29472
 B107 B 0.64288 0.24923 0.21527
 B108 B 0.73277 0.23832 0.16340
 B109 B 0.73446 0.80662 0.78950
 B110 B 0.69175 0.79469 0.70959
 B111 B 0.80051 0.80775 0.72068
 B112 B 0.83730 0.77858 0.79472
 B113 B 0.74804 0.74809 0.83068
 B114 B 0.65687 0.75906 0.77857
 B115 B 0.77895 0.70380 0.70224
 B116 B 0.82214 0.71269 0.78152
 B117 B 0.71276 0.70174 0.77384
 B118 B 0.67703 0.72995 0.69928
 B119 B 0.76723 0.76168 0.66340
 B120 B 0.85712 0.75077 0.71527
 B121 B 0.28724 0.20174 0.72616
 B122 B 0.17786 0.21269 0.71848
 B123 B 0.22105 0.20380 0.79776
 B124 B 0.32297 0.22995 0.80072
 B125 B 0.34313 0.25906 0.72143
 B126 B 0.25196 0.24809 0.66932
 B127 B 0.19949 0.30775 0.77932
 B128 B 0.30825 0.29469 0.79041
 B129 B 0.26554 0.30662 0.71050
 B130 B 0.16270 0.27858 0.70528
 B131 B 0.14288 0.25077 0.78473
 B132 B 0.23277 0.26168 0.83660
 B133 B 0.21276 0.79826 0.22616
 B134 B 0.32214 0.78731 0.21848
 B135 B 0.27895 0.79620 0.29776
 B136 B 0.17703 0.77005 0.30072
 B137 B 0.15687 0.74094 0.22143
 B138 B 0.24804 0.75191 0.16932
 B139 B 0.30051 0.69225 0.27932
 B140 B 0.19175 0.70531 0.29041
 B141 B 0.23446 0.69338 0.21050
 B142 B 0.33730 0.72142 0.20528
 B143 B 0.35712 0.74923 0.28473
 B144 B 0.26723 0.73832 0.33660
 B145 B 0.27895 0.70380 0.79776
 B146 B 0.32214 0.71269 0.71848
 B147 B 0.21276 0.70174 0.72616
 B148 B 0.17703 0.72995 0.80072
 B149 B 0.26723 0.76168 0.83660
 B150 B 0.35712 0.75077 0.78473
 B151 B 0.23446 0.80662 0.71050
 B152 B 0.19175 0.79469 0.79041
 B153 B 0.30051 0.80775 0.77932
 B154 B 0.33730 0.77858 0.70528
 B155 B 0.24804 0.74809 0.66932
 B156 B 0.15687 0.75906 0.72143
 B157 B 0.19949 0.19225 0.27932
 B158 B 0.30825 0.20531 0.29041
 B159 B 0.26554 0.19338 0.21050
 B160 B 0.16270 0.22142 0.20528
 B161 B 0.14288 0.24923 0.28473
 B162 B 0.23277 0.23832 0.33660
 B163 B 0.28724 0.29826 0.22616
 B164 B 0.17786 0.28731 0.21848
 B165 B 0.22105 0.29620 0.29776
 B166 B 0.32297 0.27005 0.30072
 B167 B 0.34313 0.24094 0.22143
 B168 B 0.25196 0.25191 0.16932
 B169 B 0.80051 0.69225 0.22068
 B170 B 0.69175 0.70531 0.20959
 B171 B 0.73446 0.69338 0.28950
 B172 B 0.83730 0.72142 0.29472
 B173 B 0.85712 0.74923 0.21527
 B174 B 0.76723 0.73832 0.16340
 B175 B 0.71276 0.79826 0.27384
 B176 B 0.82214 0.78731 0.28152
 B177 B 0.77895 0.79620 0.20224
 B178 B 0.67703 0.77005 0.19928
 B179 B 0.65687 0.74094 0.27857
 B180 B 0.74804 0.75191 0.33068
 B181 B 0.72105 0.20380 0.70224
 B182 B 0.67786 0.21269 0.78152
 B183 B 0.78724 0.20174 0.77384
 B184 B 0.82297 0.22995 0.69928
 B185 B 0.73277 0.26168 0.66340
 B186 B 0.64288 0.25077 0.71527
 B187 B 0.76554 0.30662 0.78950
 B188 B 0.80825 0.29469 0.70959
 B189 B 0.69949 0.30775 0.72068
 B190 B 0.66270 0.27858 0.79472
 B191 B 0.75196 0.24809 0.83068
 B192 B 0.84313 0.25906 0.77857
 N193 N 0.16723 0.44310 0.85890
 C194 C 0.07740 0.44586 0.86478
 N195 N 0.02833 0.40630 0.83669
 N196 N 0.06651 0.36477 0.80685
 C197 C 0.15593 0.36071 0.80464
 N198 N 0.20572 0.40144 0.82904
 N199 N 0.47167 0.59370 0.33669
 C200 C 0.42260 0.55414 0.36478
 N201 N 0.33277 0.55690 0.35890
 N202 N 0.29428 0.59856 0.32904
 C203 C 0.34407 0.63929 0.30464
 N204 N 0.43349 0.63523 0.30685
 N205 N 0.83277 0.94310 0.64110
 C206 C 0.92260 0.94586 0.63522
 N207 N 0.97167 0.90630 0.66331
 N208 N 0.93349 0.86477 0.69315
 C209 C 0.84407 0.86071 0.69536
 N210 N 0.79428 0.90144 0.67096
 N211 N 0.52833 0.09370 0.16331
 C212 C 0.57740 0.05414 0.13522
 N213 N 0.66723 0.05690 0.14110
 N214 N 0.70572 0.09856 0.17096
 C215 C 0.65593 0.13929 0.19536
 N216 N 0.56651 0.13523 0.19315
 N217 N 0.85676 0.05713 0.33372
 C218 C 0.85727 0.05802 0.40469
 N219 N 0.81700 0.09934 0.43750
 N220 N 0.78348 0.13973 0.40162
 C221 C 0.78894 0.14069 0.33100
 N222 N 0.82305 0.09767 0.29771
 N223 N 0.31700 0.40066 0.56250
 C224 C 0.35727 0.44198 0.59531
 N225 N 0.35676 0.44287 0.66628
 N226 N 0.32306 0.40233 0.70229
 C227 C 0.28894 0.35931 0.66900
 N228 N 0.28348 0.36027 0.59838
 N229 N 0.64324 0.94287 0.83372
 C230 C 0.64273 0.94198 0.90469
 N231 N 0.68300 0.90066 0.93750
 N232 N 0.71652 0.86027 0.90162
 C233 C 0.71106 0.85931 0.83100
 N234 N 0.67694 0.90233 0.79771
 N235 N 0.14324 0.55713 0.16628
 C236 C 0.14273 0.55802 0.09531
 N237 N 0.18300 0.59934 0.06250
 N238 N 0.21652 0.63973 0.09838
 C239 C 0.21106 0.64069 0.16900
 N240 N 0.17694 0.59767 0.20229
 N241 N 0.39372 0.92815 0.17475
 C242 C 0.45721 0.92116 0.12564
 N243 N 0.48509 0.87063 0.11253
 N244 N 0.44791 0.82884 0.14342
 C245 C 0.38131 0.83581 0.18991
 N246 N 0.35812 0.88641 0.20686
 N247 N 0.60628 0.42815 0.32525
 C248 C 0.54279 0.42116 0.37436
 N249 N 0.51491 0.37063 0.38747
 N250 N 0.55209 0.32884 0.35658
 C251 C 0.61869 0.33581 0.31009
 N252 N 0.64188 0.38641 0.29314
 N253 N 0.98509 0.62937 0.88747
 C254 C 0.95721 0.57883 0.87436
 N255 N 0.89372 0.57185 0.82525
 N256 N 0.85812 0.61359 0.79314
 C257 C 0.88131 0.66419 0.81009
 N258 N 0.94791 0.67116 0.85658
 N259 N 0.01491 0.12937 0.61253
 C260 C 0.04279 0.07883 0.62564
 N261 N 0.10628 0.07185 0.67475
 N262 N 0.14188 0.11359 0.70686
 C263 C 0.11869 0.16419 0.68991
 N264 N 0.05209 0.17116 0.64342
 N265 N 0.10189 0.36165 0.44580
 C266 C 0.12425 0.41288 0.43863
 N267 N 0.18436 0.42692 0.38869
 N268 N 0.21886 0.39095 0.34571
 C269 C 0.19258 0.34000 0.35081
 N270 N 0.13583 0.32598 0.40288
 N271 N 0.39811 0.63835 0.94580
 C272 C 0.37575 0.58712 0.93863
 N273 N 0.31564 0.57308 0.88869
 N274 N 0.28114 0.60905 0.84571
 C275 C 0.30742 0.66000 0.85081
 N276 N 0.36417 0.67402 0.90288
 N277 N 0.60189 0.13835 0.55420
 C278 C 0.62425 0.08712 0.56137
 N279 N 0.68436 0.07308 0.61131
 N280 N 0.71886 0.10905 0.65429
 C281 C 0.69258 0.16000 0.64919
 N282 N 0.63583 0.17402 0.59712
 N283 N 0.81564 0.92692 0.11131
 C284 C 0.87575 0.91288 0.06137
 N285 N 0.89811 0.86165 0.05420
 N286 N 0.86417 0.82598 0.09712
 C287 C 0.80742 0.84000 0.14919
 N288 N 0.78114 0.89095 0.15429
 N289 N 0.95172 0.09943 0.83959
 C290 C 0.91155 0.08335 0.89983
 N291 N 0.82975 0.10179 0.91493
 N292 N 0.79074 0.13627 0.87287
 C293 C 0.82997 0.15276 0.81273
 N294 N 0.91210 0.13406 0.79706
 N295 N 0.04828 0.59943 0.66041
 C296 C 0.08845 0.58335 0.60017
 N297 N 0.17025 0.60179 0.58507
 N298 N 0.20926 0.63627 0.62713
 C299 C 0.17003 0.65276 0.68727
 N300 N 0.08790 0.63406 0.70294
 N301 N 0.54828 0.90057 0.33959
 C302 C 0.58845 0.91665 0.39983
 N303 N 0.67025 0.89821 0.41493
 N304 N 0.70926 0.86373 0.37287
 C305 C 0.67003 0.84724 0.31273
 N306 N 0.58790 0.86594 0.29706
 N307 N 0.32975 0.39821 0.08507
 C308 C 0.41155 0.41665 0.10017
 N309 N 0.45172 0.40057 0.16041
 N310 N 0.41210 0.36594 0.20294
 C311 C 0.32997 0.34724 0.18727
 N312 N 0.29074 0.36373 0.12713
 N313 N 0.51533 0.61075 0.14398
 C314 C 0.53489 0.60817 0.07443
 N315 N 0.59954 0.63966 0.04900
 N316 N 0.64553 0.67052 0.09165
 C317 C 0.63021 0.67055 0.16170
 N318 N 0.56154 0.64185 0.18686
 N319 N 0.01533 0.88925 0.85602
 C320 C 0.03489 0.89183 0.92557
 N321 N 0.09954 0.86034 0.95100
 N322 N 0.14553 0.82948 0.90835
 C323 C 0.13021 0.82945 0.83830
 N324 N 0.06154 0.85815 0.81314
 N325 N 0.48467 0.11075 0.35602
 C326 C 0.46511 0.10817 0.42557
 N327 N 0.40046 0.13966 0.45100
 N328 N 0.35447 0.17052 0.40835
 C329 C 0.36979 0.17055 0.33830
 N330 N 0.43846 0.14185 0.31314
 N331 N 0.90046 0.36034 0.54900
 C332 C 0.96511 0.39183 0.57443
 N333 N 0.98467 0.38925 0.64398
 N334 N 0.93846 0.35815 0.68686
 C335 C 0.86979 0.32945 0.66170
 N336 N 0.85447 0.32948 0.59165
 N337 N 0.97167 0.59370 0.16331
 C338 C 0.92260 0.55414 0.13522
 N339 N 0.83277 0.55690 0.14110
 N340 N 0.79428 0.59856 0.17096
 C341 C 0.84407 0.63929 0.19536
 N342 N 0.93349 0.63523 0.19315
 N343 N 0.66723 0.44310 0.64110
 C344 C 0.57740 0.44586 0.63522
 N345 N 0.52833 0.40630 0.66331
 N346 N 0.56651 0.36477 0.69315
 C347 C 0.65593 0.36071 0.69536
 N348 N 0.70572 0.40144 0.67096
 N349 N 0.02833 0.09370 0.33669
 C350 C 0.07740 0.05414 0.36478
 N351 N 0.16723 0.05690 0.35890
 N352 N 0.20572 0.09856 0.32904
 C353 C 0.15593 0.13929 0.30464
 N354 N 0.06651 0.13523 0.30685
 N355 N 0.33277 0.94310 0.85890
 C356 C 0.42260 0.94586 0.86478
 N357 N 0.47167 0.90630 0.83669
 N358 N 0.43349 0.86477 0.80685
 C359 C 0.34407 0.86071 0.80464
 N360 N 0.29428 0.90144 0.82904
 N361 N 0.14324 0.94287 0.66628
 C362 C 0.14273 0.94198 0.59531
 N363 N 0.18300 0.90066 0.56250
 N364 N 0.21652 0.86027 0.59838
 C365 C 0.21106 0.85931 0.66900
 N366 N 0.17694 0.90233 0.70229
 N367 N 0.64324 0.55713 0.33372
 C368 C 0.64273 0.55802 0.40469
 N369 N 0.68300 0.59934 0.43750
 N370 N 0.71652 0.63973 0.40162
 C371 C 0.71106 0.64069 0.33100
 N372 N 0.67694 0.59767 0.29771
 N373 N 0.35676 0.05713 0.16628
 C374 C 0.35727 0.05802 0.09531
 N375 N 0.31700 0.09934 0.06250
 N376 N 0.28348 0.13973 0.09838
 C377 C 0.28894 0.14069 0.16900
 N378 N 0.32305 0.09767 0.20229
 N379 N 0.81700 0.40066 0.93750
 C380 C 0.85727 0.44198 0.90469
 N381 N 0.85676 0.44287 0.83372
 N382 N 0.82306 0.40233 0.79771
 C383 C 0.78894 0.35931 0.83100
 N384 N 0.78348 0.36027 0.90162
 N385 N 0.51491 0.12937 0.88747
 C386 C 0.54279 0.07883 0.87436
 N387 N 0.60628 0.07185 0.82525
 N388 N 0.64188 0.11359 0.79314
 C389 C 0.61869 0.16419 0.81009
 N390 N 0.55209 0.17116 0.85658
 N391 N 0.48509 0.62937 0.61253
 C392 C 0.45721 0.57883 0.62564
 N393 N 0.39372 0.57185 0.67475
 N394 N 0.35812 0.61359 0.70686
 C395 C 0.38131 0.66419 0.68991
 N396 N 0.44791 0.67116 0.64342
 N397 N 0.10628 0.42815 0.17475
 C398 C 0.04279 0.42116 0.12564
 N399 N 0.01491 0.37063 0.11253
 N400 N 0.05209 0.32884 0.14342
 C401 C 0.11869 0.33581 0.18991
 N402 N 0.14188 0.38641 0.20686
 N403 N 0.89372 0.92815 0.32525
 C404 C 0.95721 0.92116 0.37436
 N405 N 0.98509 0.87063 0.38747
 N406 N 0.94791 0.82884 0.35658
 C407 C 0.88131 0.83581 0.31009
 N408 N 0.85812 0.88641 0.29314
 N409 N 0.89811 0.63835 0.55420
 C410 C 0.87575 0.58712 0.56137
 N411 N 0.81564 0.57308 0.61131
 N412 N 0.78114 0.60905 0.65429
 C413 C 0.80742 0.66000 0.64919
 N414 N 0.86417 0.67402 0.59712
 N415 N 0.60189 0.36165 0.05420
 C416 C 0.62425 0.41288 0.06137
 N417 N 0.68436 0.42692 0.11131
 N418 N 0.71886 0.39095 0.15429
 C419 C 0.69258 0.34000 0.14919
 N420 N 0.63583 0.32598 0.09712
 N421 N 0.31564 0.92692 0.38869
 C422 C 0.37575 0.91288 0.43863
 N423 N 0.39811 0.86165 0.44580
 N424 N 0.36417 0.82598 0.40288
 C425 C 0.30742 0.84000 0.35081
 N426 N 0.28114 0.89095 0.34571
 N427 N 0.10189 0.13835 0.94580
 C428 C 0.12425 0.08712 0.93863
 N429 N 0.18436 0.07308 0.88869
 N430 N 0.21886 0.10905 0.84571
 C431 C 0.19258 0.16000 0.85081
 N432 N 0.13583 0.17402 0.90288
 N433 N 0.04828 0.90057 0.16041
 C434 C 0.08845 0.91665 0.10017
 N435 N 0.17025 0.89821 0.08507
 N436 N 0.20926 0.86373 0.12713
 C437 C 0.17003 0.84724 0.18727
 N438 N 0.08790 0.86594 0.20294
 N439 N 0.82975 0.39821 0.41493
 C440 C 0.91155 0.41665 0.39983
 N441 N 0.95172 0.40057 0.33959
 N442 N 0.91210 0.36594 0.29706
 C443 C 0.82997 0.34724 0.31273
 N444 N 0.79074 0.36373 0.37287
 N445 N 0.45172 0.09943 0.66041
 C446 C 0.41155 0.08335 0.60017
 N447 N 0.32975 0.10179 0.58507
 N448 N 0.29074 0.13627 0.62713
 C449 C 0.32997 0.15276 0.68727
 N450 N 0.41210 0.13406 0.70294
 N451 N 0.54828 0.59943 0.83959
 C452 C 0.58845 0.58335 0.89983
 N453 N 0.67025 0.60179 0.91493
 N454 N 0.70926 0.63627 0.87287
 C455 C 0.67003 0.65276 0.81273
 N456 N 0.58790 0.63406 0.79706
 N457 N 0.40046 0.36034 0.95100
 C458 C 0.46511 0.39183 0.92557
 N459 N 0.48467 0.38925 0.85602
 N460 N 0.43846 0.35815 0.81314
 C461 C 0.36979 0.32945 0.83830
 N462 N 0.35447 0.32948 0.90835
 N463 N 0.98467 0.11075 0.14398
 C464 C 0.96511 0.10817 0.07443
 N465 N 0.90046 0.13966 0.04900
 N466 N 0.85447 0.17052 0.09165
 C467 C 0.86979 0.17055 0.16170
 N468 N 0.93846 0.14185 0.18686
 N469 N 0.51533 0.88925 0.64398
 C470 C 0.53489 0.89183 0.57443
 N471 N 0.59954 0.86034 0.54900
 N472 N 0.64553 0.82948 0.59165
 C473 C 0.63021 0.82945 0.66170
 N474 N 0.56154 0.85815 0.68686
 N475 N 0.01533 0.61075 0.35602
 C476 C 0.03489 0.60817 0.42557
 N477 N 0.09954 0.63966 0.45100
 N478 N 0.14553 0.67052 0.40835
 C479 C 0.13021 0.67055 0.33830
 N480 N 0.06154 0.64185 0.31314
   
