data_POSCAR
  _audit_creation_date              2014-09-24
  _audit_creation_method            'ToBaCCo'
  _symmetry_space_group_name_H-M    'P1'
  _symmetry_Int_Tables_number       1
  _symmetry_cell_setting            triclinic
  loop_
  _symmetry_equiv_pos_as_xyz
 x,y,z
_cell_length_a 40.0352
_cell_length_b 16.5396
_cell_length_c 15.8655
_cell_angle_alpha 90.867500
_cell_angle_beta 90.025700
_cell_angle_gamma 90.193800
loop_
  _atom_site_label
  _atom_site_type_symbol
  _atom_site_fract_x
  _atom_site_fract_y
  _atom_site_fract_z
C1 C 0.85341 0.22853 0.46770
 C2 C 0.85246 0.22325 0.55340
 C3 C 0.81943 0.20978 0.57529
 N4 N 0.79994 0.20979 0.50566
 C5 C 0.82070 0.22133 0.43944
 C6 C 0.80816 0.19210 0.65777
 C7 C 0.77438 0.20100 0.68249
 C8 C 0.76078 0.17018 0.75592
 C9 C 0.72773 0.19144 0.75712
 C10 C 0.72180 0.23442 0.68422
 N11 N 0.75041 0.24029 0.63913
 C12 C 0.69048 0.26676 0.66113
 C13 C 0.68386 0.29023 0.57716
 C14 C 0.65874 0.34255 0.55259
 C15 C 0.65866 0.34202 0.46633
 C16 C 0.68442 0.29160 0.44101
 N17 N 0.70000 0.26023 0.50866
 C18 C 0.69145 0.27057 0.35657
 C19 C 0.72307 0.24121 0.33064
 C20 C 0.73039 0.20756 0.25228
 C21 C 0.76430 0.19253 0.25132
 C22 C 0.77669 0.21671 0.32947
 N23 N 0.75142 0.24689 0.37696
 C24 C 0.81076 0.21542 0.35387
 H25 H 0.87607 0.23533 0.43173
 H26 H 0.87394 0.22742 0.59467
 H27 H 0.75390 0.27721 0.43459
 H28 H 0.77308 0.13427 0.80311
 H29 H 0.70995 0.17485 0.80525
 H30 H 0.64208 0.37744 0.59251
 H31 H 0.64182 0.37557 0.42663
 H32 H 0.77821 0.16720 0.19881
 H33 H 0.75392 0.27439 0.58520
 H34 H 0.71320 0.19586 0.20083
 C35 C 0.17139 0.87836 0.45210
 C36 C 0.17495 0.88840 0.53762
 C37 C 0.19462 0.82504 0.56519
 N38 N 0.20372 0.77770 0.49873
 C39 C 0.18951 0.81020 0.42963
 C40 C 0.20308 0.81005 0.65069
 C41 C 0.22846 0.75484 0.67311
 C42 C 0.23202 0.72148 0.75246
 C43 C 0.25940 0.67208 0.74907
 C44 C 0.27184 0.67580 0.66767
 N45 N 0.25291 0.72663 0.62173
 C46 C 0.30151 0.63762 0.64052
 C47 C 0.31057 0.62738 0.55496
 C48 C 0.34031 0.59390 0.52667
 C49 C 0.33850 0.59083 0.44041
 C50 C 0.30763 0.62199 0.41871
 N51 N 0.29046 0.64325 0.48890
 C52 C 0.29504 0.62538 0.33557
 C53 C 0.26290 0.65414 0.31570
 C54 C 0.24664 0.63986 0.23978
 C55 C 0.21715 0.68221 0.24330
 C56 C 0.21644 0.72206 0.32091
 N57 N 0.24444 0.70460 0.36456
 C58 C 0.19153 0.77743 0.34680
 H59 H 0.15747 0.91755 0.41095
 H60 H 0.16438 0.93725 0.57498
 H61 H 0.25235 0.73324 0.41974
 H62 H 0.21631 0.73076 0.80721
 H63 H 0.26904 0.63752 0.80104
 H64 H 0.36093 0.57210 0.56396
 H65 H 0.35739 0.56601 0.39877
 H66 H 0.19867 0.68452 0.19361
 H67 H 0.25840 0.74776 0.56194
 H68 H 0.25520 0.60306 0.18713
 C69 C 0.33888 0.38882 -0.44503
 C70 C 0.34184 0.38318 -0.53057
 C71 C 0.31296 0.34615 -0.56095
 N72 N 0.29173 0.33304 -0.49591
 C73 C 0.30797 0.35689 -0.42469
 C74 C 0.30561 0.33224 -0.64813
 C75 C 0.27208 0.32271 -0.67703
 C76 C 0.26047 0.34248 -0.75674
 C77 C 0.22740 0.31992 -0.76075
 C78 C 0.21949 0.28593 -0.68394
 N79 N 0.24680 0.28844 -0.63318
 C80 C 0.18825 0.25045 -0.66310
 C81 C 0.18163 0.22512 -0.57996
 C82 C 0.16170 0.15968 -0.55917
 C83 C 0.15972 0.15943 -0.47308
 C84 C 0.17827 0.22518 -0.44414
 N85 N 0.19226 0.26446 -0.50958
 C86 C 0.18124 0.25030 -0.35872
 C87 C 0.21012 0.29220 -0.32995
 C88 C 0.21346 0.33037 -0.25186
 C89 C 0.24568 0.35859 -0.24682
 C90 C 0.26114 0.33841 -0.32249
 N91 N 0.23931 0.29774 -0.37271
 C92 C 0.29494 0.35525 -0.34148
 H93 H 0.35687 0.41760 -0.40334
 H94 H 0.36228 0.40860 -0.56608
 H95 H 0.24493 0.26801 -0.42907
 H96 H 0.27383 0.37193 -0.80693
 H97 H 0.21121 0.32794 -0.81454
 H98 H 0.15005 0.11633 -0.60181
 H99 H 0.14640 0.11540 -0.43601
 H100 H 0.25615 0.39116 -0.19339
 H101 H 0.24895 0.26037 -0.57524
 H102 H 0.19476 0.33776 -0.20320
 C103 C -0.15383 0.84312 -0.54790
 C104 C -0.15111 0.82680 -0.46399
 C105 C -0.18263 0.80479 -0.43681
 N106 N -0.20450 0.80683 -0.50192
 C107 C -0.18686 0.82823 -0.57110
 C108 C -0.19088 0.79142 -0.35139
 C109 C -0.22342 0.77371 -0.32221
 C110 C -0.23346 0.77830 -0.23853
 C111 C -0.26647 0.75612 -0.23632
 C112 C -0.27561 0.73605 -0.31844
 N113 N -0.24913 0.74682 -0.37022
 C114 C -0.30717 0.70563 -0.34399
 C115 C -0.31435 0.69147 -0.43012
 C116 C -0.33452 0.62962 -0.46111
 C117 C -0.33671 0.64023 -0.54629
 C118 C -0.31810 0.70882 -0.56421
 N119 N -0.30388 0.73927 -0.49323
 C120 C -0.31553 0.74520 -0.64409
 C121 C -0.28724 0.79236 -0.66485
 C122 C -0.28518 0.84429 -0.73229
 C123 C -0.25298 0.87313 -0.73391
 C124 C -0.23605 0.83847 -0.66688
 N125 N -0.25737 0.78966 -0.62494
 C126 C -0.20107 0.84392 -0.65196
 H127 H -0.13379 0.86801 -0.58509
 H128 H -0.12873 0.83469 -0.42640
 H129 H -0.25097 0.74838 -0.57884
 H130 H -0.21881 0.79605 -0.18405
 H131 H -0.28159 0.75474 -0.17992
 H132 H -0.34614 0.58157 -0.42583
 H133 H -0.35029 0.60153 -0.59005
 H134 H -0.24351 0.91441 -0.78037
 H135 H -0.24784 0.72998 -0.43347
 H136 H -0.30472 0.85956 -0.77638
 O137 O -0.04067 0.86126 0.15932
 O138 O -0.07996 0.92917 0.08275
 C139 C -0.07124 0.87995 0.14185
 O140 O 0.04853 1.15322 0.14141
 O141 O 0.08496 1.07864 0.06005
 C142 C 0.07854 1.13296 0.11749
 O143 O -0.04664 1.14121 0.15340
 O144 O -0.08283 1.06238 0.07512
 C145 C -0.07662 1.11638 0.13257
 O146 O 0.05177 0.86313 0.14424
 O147 O 0.08653 0.93909 0.06198
 C148 C 0.08121 0.88680 0.12069
 Zr149 Zr 0.00409 0.90065 0.10348
 O150 O 0.00916 0.89684 0.23606
 O151 O 0.00215 0.77272 0.09599
 Zr152 Zr 0.00125 1.10576 0.10402
 O153 O 0.00618 1.10917 0.23690
 O154 O -0.00348 1.23318 0.10242
 O155 O -0.02666 1.00106 0.12345
 O156 O 0.03168 1.00584 0.11625
 O157 O 0.04683 0.85815 -0.15596
 O158 O 0.08476 0.93799 -0.08394
 C159 C 0.07693 0.88314 -0.14044
 O160 O -0.04927 1.13490 -0.15289
 O161 O -0.08400 1.05849 -0.07055
 C162 C -0.07849 1.10920 -0.13038
 O163 O 0.04418 1.14672 -0.15670
 O164 O 0.08291 1.07504 -0.08212
 C165 C 0.07474 1.12705 -0.13863
 O166 O -0.04622 0.85903 -0.15651
 O167 O -0.08246 0.92748 -0.06950
 C168 C -0.07605 0.87879 -0.13217
 Zr169 Zr 0.00053 0.89670 -0.10745
 O170 O 0.00109 0.88394 -0.24012
 O171 O -0.00154 0.76929 -0.09683
 Zr172 Zr -0.00155 1.10217 -0.10782
 O173 O -0.00052 1.10666 -0.24111
 O174 O -0.00611 1.22964 -0.10017
 Zr175 Zr -0.04863 0.99707 0.00262
 Zr176 Zr 0.05094 1.00487 -0.00744
 O177 O 0.02778 1.00123 -0.12663
 O178 O -0.03010 0.99709 -0.12174
 O179 O 0.03276 0.88514 -0.00515
 O180 O -0.02954 1.11590 0.00044
 O181 O -0.02700 0.88162 0.00096
 O182 O 0.02979 1.12170 -0.00481
 H183 H 0.04701 1.00807 0.16527
 H184 H -0.04536 1.16185 0.00099
 H185 H 0.04133 1.00174 -0.17884
 H186 H -0.04214 0.83412 0.00228
 H187 H 0.01524 1.25449 0.06857
 H188 H 0.01528 1.25174 -0.07847
 H189 H -0.01782 1.06892 -0.26286
 H190 H -0.00554 0.93682 -0.26274
 H191 H 0.02062 0.75085 -0.07744
 H192 H 0.02346 0.75364 0.07135
 H193 H -0.00383 0.94264 0.25954
 H194 H -0.01290 1.07893 0.26062
 O195 O 0.45101 0.36499 0.15792
 O196 O 0.41687 0.43325 0.06688
 C197 C 0.42167 0.38743 0.13114
 O198 O 0.54815 0.64111 0.15346
 O199 O 0.58581 0.55996 0.08373
 C200 C 0.57838 0.61720 0.13709
 O201 O 0.45486 0.63764 0.14938
 O202 O 0.41885 0.56286 0.06663
 C203 C 0.42512 0.61518 0.12633
 O204 O 0.54602 0.34884 0.16154
 O205 O 0.58465 0.42013 0.08570
 C206 C 0.57664 0.36814 0.14249
 Zr207 Zr 0.49990 0.39184 0.11153
 O208 O 0.50056 0.38652 0.24464
 O209 O 0.49460 0.26442 0.10555
 Zr210 Zr 0.50202 0.59679 0.10673
 O211 O 0.50296 0.60271 0.24010
 O212 O 0.49947 0.72444 0.10105
 O213 O 0.47121 0.49643 0.12164
 O214 O 0.52948 0.49370 0.12856
 O215 O 0.55143 0.33887 -0.13702
 O216 O 0.58737 0.41588 -0.05650
 C217 C 0.58121 0.36104 -0.11358
 O218 O 0.46192 0.62644 -0.16272
 O219 O 0.42236 0.55851 -0.08653
 C220 C 0.43136 0.60663 -0.14649
 O221 O 0.55435 0.62700 -0.14314
 O222 O 0.58902 0.55268 -0.05950
 C223 C 0.58375 0.60394 -0.11889
 O224 O 0.45869 0.34905 -0.15671
 O225 O 0.42077 0.42515 -0.08209
 C226 C 0.42850 0.37269 -0.14046
 Zr227 Zr 0.50425 0.38398 -0.09916
 O228 O 0.50992 0.36873 -0.23093
 O229 O 0.49936 0.25719 -0.08613
 Zr230 Zr 0.50634 0.58959 -0.10417
 O231 O 0.51238 0.59369 -0.23646
 O232 O 0.50387 0.71752 -0.09774
 Zr233 Zr 0.45328 0.49310 -0.00362
 Zr234 Zr 0.55295 0.48877 0.00979
 O235 O 0.53408 0.48492 -0.11414
 O236 O 0.47630 0.48753 -0.12294
 O237 O 0.53215 0.37121 0.01042
 O238 O 0.47485 0.60911 -0.00306
 O239 O 0.47239 0.37491 0.00255
 O240 O 0.53447 0.60774 0.00474
 H241 H 0.54321 0.49506 0.18050
 H242 H 0.45975 0.65634 -0.00610
 H243 H 0.54932 0.48241 -0.16325
 H244 H 0.45617 0.32949 0.00177
 H245 H 0.51935 0.74314 0.06984
 H246 H 0.52564 0.73795 -0.07676
 H247 H 0.49864 0.54952 -0.26100
 H248 H 0.49847 0.41462 -0.25748
 H249 H 0.52039 0.23694 -0.06150
 H250 H 0.51635 0.24159 0.08785
 H251 H 0.48743 0.43303 0.26586
 H252 H 0.48441 0.56877 0.26086
 C253 C 0.33168 0.33388 0.29062
 C254 C 0.36332 0.31013 0.30598
 C255 C 0.39206 0.32002 0.24788
 C256 C 0.39137 0.36473 0.17824
 H257 H 0.36926 0.28219 0.36535
 H258 H 0.41560 0.29474 0.26817
 H259 H 0.32552 0.34754 0.22638
 H260 H 0.36833 0.39217 0.15786
 C261 C -0.18049 0.86905 0.28052
 C262 C -0.15091 0.83522 0.26321
 C263 C -0.12853 0.86768 0.19823
 C264 C -0.09689 0.84271 0.19495
 H265 H -0.14247 0.78386 0.29910
 H266 H -0.13706 0.91572 0.15789
 H267 H -0.18965 0.91285 0.23631
 H268 H -0.08861 0.79684 0.23834
 C269 C 0.65918 0.73318 0.29451
 C270 C 0.62686 0.72289 0.31456
 C271 C 0.60056 0.70045 0.25361
 C272 C 0.60613 0.65435 0.18495
 H273 H 0.61870 0.73201 0.37907
 H274 H 0.57513 0.71331 0.27274
 H275 H 0.66573 0.73695 0.22844
 H276 H 0.63135 0.63636 0.16864
 C277 C 0.16374 1.23759 0.27305
 C278 C 0.13073 1.23852 0.28988
 C279 C 0.10373 1.21796 0.22955
 C280 C 0.10753 1.16941 0.16188
 H281 H 0.12229 1.25628 0.35230
 H282 H 0.07879 1.23551 0.24876
 H283 H 0.17156 1.23152 0.20801
 H284 H 0.13217 1.14827 0.14425
 C285 C 0.66574 0.27465 -0.27548
 C286 C 0.63294 0.26503 -0.29060
 C287 C 0.60623 0.28109 -0.22858
 C288 C 0.61012 0.32757 -0.15932
 H289 H 0.62461 0.24409 -0.35212
 H290 H 0.58140 0.26164 -0.24712
 H291 H 0.67383 0.28287 -0.21084
 H292 H 0.63450 0.35073 -0.14176
 C293 C 0.18505 0.84730 -0.28260
 C294 C 0.15178 0.85253 -0.28334
 C295 C 0.13262 0.88025 -0.20918
 C296 C 0.10221 0.84935 -0.19768
 H297 H 0.13791 0.82840 -0.33687
 H298 H 0.14250 0.92714 -0.16764
 H299 H 0.19769 0.86031 -0.22342
 H300 H 0.09369 0.80166 -0.24038
 C301 C 0.32383 0.60557 -0.29365
 C302 C 0.35340 0.63972 -0.27798
 C303 C 0.37561 0.60912 -0.21199
 C304 C 0.40604 0.64088 -0.20234
 H305 H 0.36156 0.69011 -0.31594
 H306 H 0.36778 0.55829 -0.17446
 H307 H 0.31478 0.55762 -0.25414
 H308 H 0.41379 0.69002 -0.24251
 C309 C -0.16893 1.16422 -0.28154
 C310 C -0.14440 1.11208 -0.30057
 C311 C -0.11945 1.08613 -0.23902
 C312 C -0.10699 1.13574 -0.17965
 H313 H -0.14306 1.08447 -0.36285
 H314 H -0.10830 1.02712 -0.24898
 H315 H -0.17295 1.17973 -0.21572
 H316 H -0.11498 1.19810 -0.17429
 C317 C 0.66848 0.68800 -0.28214
 C318 C 0.63557 0.69344 -0.29757
 C319 C 0.60892 0.67587 -0.23655
 C320 C 0.61288 0.63298 -0.16621
 H321 H 0.62697 0.71505 -0.35788
 H322 H 0.58409 0.69392 -0.25556
 H323 H 0.67640 0.67621 -0.21850
 H324 H 0.63722 0.61126 -0.14774
 C325 C 0.15583 1.23194 -0.29954
 C326 C 0.12334 1.22403 -0.31996
 C327 C 0.09671 1.20106 -0.26026
 C328 C 0.10220 1.16179 -0.18826
 H329 H 0.11509 1.23741 -0.38320
 H330 H 0.07128 1.21048 -0.28119
 H331 H 0.16251 1.22951 -0.23364
 H332 H 0.12737 1.14720 -0.16911
 C333 C 0.31752 0.37710 -0.26993
 C334 C 0.34667 0.33954 -0.25889
 C335 C 0.37064 0.36693 -0.19403
 C336 C 0.40188 0.33866 -0.19442
 H337 H 0.35383 0.29116 -0.30208
 H338 H 0.36339 0.41410 -0.14964
 H339 H 0.30993 0.42336 -0.22511
 H340 H 0.40891 0.29279 -0.24060
 C341 C -0.16366 0.79994 -0.28867
 C342 C -0.16220 0.86389 -0.23619
 C343 C -0.13458 0.88076 -0.17695
 C344 C -0.10421 0.84703 -0.18220
 H345 H -0.18239 0.90737 -0.23677
 H346 H -0.13888 0.92936 -0.13175
 H347 H -0.14397 0.75545 -0.29085
 H348 H -0.09869 0.80152 -0.22975
 C349 C 0.31671 0.59745 0.26546
 C350 C 0.34327 0.64151 0.24377
 C351 C 0.36784 0.61202 0.18183
 C352 C 0.39715 0.65013 0.17412
 H353 H 0.34804 0.69838 0.27671
 H354 H 0.36317 0.55566 0.14799
 H355 H 0.31116 0.54057 0.23356
 H356 H 0.40210 0.70409 0.21186
 C357 C -0.16352 1.19347 0.28979
 C358 C -0.13681 1.24058 0.27409
 C359 C -0.10650 1.21238 0.22836
 C360 C -0.10654 1.14908 0.17504
 H361 H -0.13535 1.29973 0.30417
 H362 H -0.08342 1.24503 0.23993
 H363 H -0.16571 1.13378 0.26165
 H364 H -0.12990 1.11950 0.15926
 C365 C 0.66331 0.27779 0.29592
 C366 C 0.66534 0.32370 0.22737
 C367 C 0.63638 0.34830 0.17519
 C368 C 0.60406 0.33101 0.19092
 H369 H 0.68930 0.34986 0.21123
 H370 H 0.64243 0.38738 0.12317
 H371 H 0.63951 0.25374 0.31577
 H372 H 0.59704 0.29244 0.24231
 C373 C 0.16650 0.80244 0.28310
 C374 C 0.13378 0.79231 0.29712
 C375 C 0.10664 0.81487 0.23881
 C376 C 0.11044 0.85644 0.16729
 H377 H 0.12600 0.76571 0.35599
 H378 H 0.08170 0.79966 0.25987
 H379 H 0.17552 0.82405 0.22329
 H380 H 0.13494 0.87453 0.14590
   
