data_POSCAR
  _audit_creation_date              2014-09-24
  _audit_creation_method            'ToBaCCo'
  _symmetry_space_group_name_H-M    'P1'
  _symmetry_Int_Tables_number       1
  _symmetry_cell_setting            triclinic
  loop_
  _symmetry_equiv_pos_as_xyz
 x,y,z
_cell_length_a 48.1422
_cell_length_b 32.8217
_cell_length_c 21.4782
_cell_angle_alpha 90.056700
_cell_angle_beta 89.890600
_cell_angle_gamma 90.046500
loop_
  _atom_site_label
  _atom_site_type_symbol
  _atom_site_fract_x
  _atom_site_fract_y
  _atom_site_fract_z
O1 O 0.76200 0.20044 0.55891
 O2 O 0.71537 0.24101 0.43816
 O3 O 0.76197 0.20033 0.43795
 O4 O 0.71542 0.24114 0.55911
 O5 O 0.73895 0.29904 0.55893
 O6 O 0.78550 0.25823 0.43778
 O7 O 0.73890 0.29891 0.43799
 O8 O 0.78553 0.25834 0.55873
 Cu9 Cu 0.73632 0.21489 0.49854
 Cu10 Cu 0.76459 0.28447 0.49833
 C11 C 0.78175 0.22244 0.57889
 C12 C 0.71913 0.27692 0.41804
 C13 C 0.78172 0.22228 0.41774
 C14 C 0.71920 0.27708 0.57915
 O15 O 0.23809 0.79966 0.56232
 O16 O 0.28480 0.75869 0.44153
 O17 O 0.23831 0.79962 0.44137
 O18 O 0.28460 0.75875 0.56247
 O19 O 0.26094 0.70097 0.56235
 O20 O 0.21465 0.74183 0.44124
 O21 O 0.26114 0.70090 0.44141
 O22 O 0.21444 0.74188 0.56220
 Cu23 Cu 0.26384 0.78501 0.50194
 Cu24 Cu 0.23540 0.71557 0.50180
 C25 C 0.21825 0.77780 0.58233
 C26 C 0.28097 0.72277 0.42140
 C27 C 0.21855 0.77772 0.42118
 C28 C 0.28071 0.72285 0.58251
 O29 O 0.26146 0.29942 -0.56352
 O30 O 0.21500 0.25863 -0.44220
 O31 O 0.26159 0.29939 -0.44257
 O32 O 0.21484 0.25864 -0.56315
 O33 O 0.23835 0.20079 -0.56351
 O34 O 0.28510 0.24153 -0.44293
 O35 O 0.23852 0.20077 -0.44255
 O36 O 0.28496 0.24157 -0.56388
 Cu37 Cu 0.23585 0.28485 -0.50284
 Cu38 Cu 0.26410 0.21533 -0.50327
 C39 C 0.28119 0.27750 -0.58384
 C40 C 0.21881 0.22272 -0.42220
 C41 C 0.28134 0.27744 -0.42269
 C42 C 0.21857 0.22271 -0.58334
 O43 O -0.26174 0.70037 -0.55882
 O44 O -0.21542 0.74119 -0.43756
 O45 O -0.26197 0.70028 -0.43787
 O46 O -0.21521 0.74130 -0.55850
 O47 O -0.23881 0.79909 -0.55840
 O48 O -0.28556 0.75806 -0.43778
 O49 O -0.23901 0.79897 -0.43746
 O50 O -0.28534 0.75815 -0.55873
 Cu51 Cu -0.23620 0.71496 -0.49819
 Cu52 Cu -0.26456 0.78440 -0.49808
 C53 C -0.28148 0.72226 -0.57893
 C54 C -0.21927 0.77708 -0.41738
 C55 C -0.28178 0.72214 -0.41778
 C56 C -0.21899 0.77723 -0.57848
 N57 N -0.02905 0.92786 -0.06623
 N58 N -0.04920 0.90130 -0.07621
 N59 N 0.02938 0.95622 -0.10964
 N60 N 0.04941 0.94972 -0.15048
 N61 N 0.02940 0.92790 -0.06648
 N62 N 0.04947 0.90129 -0.07678
 N63 N -0.02902 0.95618 -0.10940
 N64 N -0.04911 0.94973 -0.14994
 C65 C -0.06154 0.91563 -0.12828
 C66 C 0.06180 0.91559 -0.12903
 N67 N 0.02942 1.07249 -0.06701
 N68 N 0.04950 1.09908 -0.07749
 N69 N -0.02900 1.04393 -0.10977
 N70 N -0.04897 1.05030 -0.15060
 N71 N -0.02903 1.07246 -0.06683
 N72 N -0.04905 1.09908 -0.07728
 N73 N 0.02939 1.04397 -0.10996
 N74 N 0.04943 1.05032 -0.15083
 Mn75 Mn 0.00019 1.00007 -0.11033
 C76 C 0.06182 1.08456 -0.12961
 C77 C -0.06135 1.08456 -0.12937
 N78 N 0.02938 0.92821 0.06780
 N79 N 0.04945 0.90165 0.07812
 N80 N -0.02905 0.95667 0.11098
 N81 N -0.04907 0.95029 0.15188
 N82 N -0.02907 0.92815 0.06803
 N83 N -0.04913 0.90153 0.07854
 N84 N 0.02935 0.95672 0.11076
 N85 N 0.04937 0.95040 0.15148
 Mn86 Mn 0.00017 0.92755 0.00078
 C87 C 0.06176 0.91618 0.13016
 C88 C -0.06146 0.91603 0.13069
 N89 N -0.02905 1.07275 0.06745
 N90 N -0.04918 1.09928 0.07760
 N91 N 0.02937 1.04447 0.11043
 N92 N 0.04940 1.05099 0.15110
 N93 N 0.02941 1.07280 0.06728
 N94 N 0.04950 1.09943 0.07740
 N95 N -0.02903 1.04442 0.11062
 N96 N -0.04912 1.05085 0.15133
 Mn97 Mn 0.00019 1.07310 0.00022
 Mn98 Mn 0.00016 1.00058 0.11134
 Cl99 Cl 0.00018 1.00033 0.00050
 C100 C -0.06154 1.08494 0.12978
 C101 C 0.06181 1.08513 0.12954
 N102 N 0.52925 0.57204 -0.06695
 N103 N 0.54935 0.59866 -0.07716
 N104 N 0.47083 0.54374 -0.11012
 N105 N 0.45076 0.55016 -0.15069
 N106 N 0.47080 0.57208 -0.06689
 N107 N 0.45068 0.59861 -0.07686
 N108 N 0.52923 0.54369 -0.11016
 N109 N 0.54927 0.55019 -0.15095
 C110 C 0.56168 0.58434 -0.12941
 C111 C 0.43834 0.58426 -0.12899
 N112 N 0.47065 0.42748 -0.06778
 N113 N 0.45060 0.40087 -0.07834
 N114 N 0.52914 0.45594 -0.11064
 N115 N 0.54923 0.44961 -0.15138
 N116 N 0.52910 0.42744 -0.06774
 N117 N 0.54919 0.40088 -0.07812
 N118 N 0.47075 0.45599 -0.11066
 N119 N 0.45079 0.44961 -0.15156
 Mn120 Mn 0.49999 0.49984 -0.11104
 C121 C 0.43836 0.41536 -0.13044
 C122 C 0.56159 0.41540 -0.13013
 N123 N 0.47069 0.57185 0.06738
 N124 N 0.45066 0.59849 0.07790
 N125 N 0.52905 0.54329 0.11024
 N126 N 0.54906 0.54961 0.15102
 N127 N 0.52914 0.57178 0.06733
 N128 N 0.54924 0.59833 0.07775
 N129 N 0.47065 0.54334 0.11027
 N130 N 0.45062 0.54975 0.15114
 Mn131 Mn 0.49997 0.57241 0.00022
 C132 C 0.43829 0.58401 0.12999
 C133 C 0.56151 0.58381 0.12978
 N134 N 0.52900 0.42719 0.06653
 N135 N 0.54908 0.40060 0.07662
 N136 N 0.47056 0.45559 0.10974
 N137 N 0.45045 0.44917 0.15038
 N138 N 0.47054 0.42725 0.06651
 N139 N 0.45038 0.40071 0.07655
 N140 N 0.52896 0.45554 0.10974
 N141 N 0.54898 0.44906 0.15042
 Mn142 Mn 0.49982 0.42686 -0.00062
 Mn143 Mn 0.49981 0.49944 0.11064
 Cl144 Cl 0.49990 0.49964 -0.00020
 C145 C 0.56138 0.41493 0.12881
 C146 C 0.43801 0.41507 0.12872
 C147 C 0.33542 0.32509 0.29537
 N148 N 0.35780 0.30321 0.27653
 N149 N 0.37726 0.32026 0.24085
 C150 C 0.37494 0.35973 0.22294
 N151 N 0.35252 0.38158 0.24164
 N152 N 0.33306 0.36452 0.27732
 C153 C 0.31540 0.30753 0.33701
 C154 C 0.29906 0.29319 0.37352
 C155 C 0.39673 0.37881 0.18783
 C156 C 0.41540 0.39518 0.15996
 C157 C -0.16362 0.82592 0.29869
 N158 N -0.16614 0.86524 0.28022
 N159 N -0.14674 0.88233 0.24442
 C160 C -0.12421 0.86062 0.22600
 N161 N -0.12171 0.82126 0.24435
 N162 N -0.14112 0.80417 0.28016
 C163 C -0.18365 0.80828 0.34026
 C164 C -0.20004 0.79387 0.37660
 C165 C -0.10252 0.87973 0.19057
 C166 C -0.08395 0.89612 0.16237
 C167 C 0.66353 0.67375 0.29765
 N168 N 0.64117 0.69560 0.27886
 N169 N 0.62181 0.67854 0.24300
 C170 C 0.62424 0.63911 0.22485
 N171 N 0.64663 0.61729 0.24351
 N172 N 0.66598 0.63435 0.27937
 C173 C 0.68345 0.69134 0.33938
 C174 C 0.69973 0.70570 0.37591
 C175 C 0.60257 0.62003 0.18947
 C176 C 0.58401 0.60367 0.16135
 C177 C 0.16416 1.17521 0.29640
 N178 N 0.14155 1.19688 0.27868
 N179 N 0.12210 1.17985 0.24302
 C180 C 0.12469 1.14062 0.22399
 N181 N 0.14734 1.11897 0.24157
 N182 N 0.16678 1.13601 0.27723
 C183 C 0.18422 1.19274 0.33791
 C184 C 0.20061 1.20705 0.37425
 C185 C 0.10295 1.12152 0.18880
 C186 C 0.08435 1.10511 0.16086
 C187 C 0.66395 0.32554 -0.29762
 N188 N 0.66639 0.36495 -0.27934
 N189 N 0.64696 0.38199 -0.24355
 C190 C 0.62450 0.36015 -0.22497
 N191 N 0.62210 0.32071 -0.24312
 N192 N 0.64154 0.30367 -0.27890
 C193 C 0.68397 0.30798 -0.33927
 C194 C 0.70032 0.29363 -0.37575
 C195 C 0.60277 0.37921 -0.18968
 C196 C 0.58415 0.39555 -0.16163
 C197 C 0.16396 0.82546 -0.29695
 N198 N 0.16657 0.86473 -0.27809
 N199 N 0.14717 0.88179 -0.24222
 C200 C 0.12457 0.86010 -0.22412
 N201 N 0.12199 0.82080 -0.24285
 N202 N 0.14139 0.80374 -0.27872
 C203 C 0.18397 0.80789 -0.33865
 C204 C 0.20033 0.79353 -0.37514
 C205 C 0.10288 0.87920 -0.18871
 C206 C 0.08430 0.89562 -0.16057
 C207 C 0.33587 0.67426 -0.29478
 N208 N 0.35821 0.69619 -0.27588
 N209 N 0.37766 0.67911 -0.24040
 C210 C 0.37535 0.63958 -0.22276
 N211 N 0.35298 0.61768 -0.24153
 N212 N 0.33353 0.63476 -0.27701
 C213 C 0.31586 0.69187 -0.33620
 C214 C 0.29953 0.70625 -0.37251
 C215 C 0.39712 0.62050 -0.18784
 C216 C 0.41576 0.60413 -0.16010
 C217 C -0.16310 1.17429 -0.29786
 N218 N -0.14046 1.19595 -0.28008
 N219 N -0.12114 1.17899 -0.24411
 C220 C -0.12388 1.13985 -0.22483
 N221 N -0.14655 1.11822 -0.24249
 N222 N -0.16588 1.13518 -0.27845
 C223 C -0.18305 1.19174 -0.33960
 C224 C -0.19938 1.20599 -0.37608
 C225 C -0.10227 1.12083 -0.18928
 C226 C -0.08377 1.10447 -0.16103
 C227 C 0.66390 0.67447 -0.29715
 N228 N 0.64136 0.69619 -0.27883
 N229 N 0.62195 0.67914 -0.24298
 C230 C 0.62450 0.63984 -0.22436
 N231 N 0.64708 0.61816 -0.24255
 N232 N 0.66648 0.63521 -0.27840
 C233 C 0.68392 0.69204 -0.33883
 C234 C 0.70029 0.70640 -0.37528
 C235 C 0.60279 0.62074 -0.18898
 C236 C 0.58420 0.60432 -0.16088
 C237 C 0.16379 1.17438 -0.29834
 N238 N 0.14136 1.19619 -0.27960
 N239 N 0.12202 1.17918 -0.24353
 C240 C 0.12453 1.13985 -0.22511
 N241 N 0.14699 1.11806 -0.24372
 N242 N 0.16633 1.13507 -0.27979
 C243 C 0.18372 1.19189 -0.34026
 C244 C 0.20000 1.20620 -0.37692
 C245 C 0.10287 1.12080 -0.18954
 C246 C 0.08432 1.10444 -0.16128
 C247 C 0.33655 0.32566 -0.29939
 N248 N 0.33385 0.36479 -0.27995
 N249 N 0.35318 0.38175 -0.24390
 C250 C 0.37580 0.36009 -0.22619
 N251 N 0.37848 0.32093 -0.24551
 N252 N 0.35915 0.30398 -0.28156
 C253 C 0.31659 0.30820 -0.34118
 C254 C 0.30025 0.29393 -0.37767
 C255 C 0.39742 0.37911 -0.19055
 C256 C 0.41593 0.39546 -0.16221
 C257 C -0.16409 0.82560 -0.29439
 N258 N -0.16644 0.86506 -0.27631
 N259 N -0.14698 0.88213 -0.24073
 C260 C -0.12459 0.86026 -0.22217
 N261 N -0.12228 0.82077 -0.24012
 N262 N -0.14174 0.80371 -0.27569
 C263 C -0.18411 0.80802 -0.33591
 C264 C -0.20044 0.79366 -0.37231
 C265 C -0.10281 0.87935 -0.18718
 C266 C -0.08415 0.89573 -0.15941
 C267 C 0.33626 0.67416 0.29830
 N268 N 0.35883 0.69586 0.27998
 N269 N 0.37821 0.67878 0.24409
 C270 C 0.37561 0.63948 0.22542
 N271 N 0.35302 0.61780 0.24361
 N272 N 0.33364 0.63488 0.27951
 C273 C 0.31626 0.69177 0.33997
 C274 C 0.29989 0.70616 0.37640
 C275 C 0.39728 0.62036 0.18993
 C276 C 0.41582 0.60395 0.16169
 C277 C -0.16403 1.17477 0.29688
 N278 N -0.14160 1.19666 0.27826
 N279 N -0.12215 1.17964 0.24250
 C280 C -0.12454 1.14022 0.22427
 N281 N -0.14700 1.11836 0.24276
 N282 N -0.16645 1.13538 0.27852
 C283 C -0.18405 1.19230 0.33857
 C284 C -0.20039 1.20661 0.37511
 C285 C -0.10277 1.12117 0.18907
 C286 C -0.08412 1.10482 0.16111
 C287 C 0.66374 0.32515 0.29541
 N288 N 0.66634 0.36437 0.27643
 N289 N 0.64689 0.38135 0.24082
 C290 C 0.62426 0.35963 0.22312
 N291 N 0.62170 0.32038 0.24198
 N292 N 0.64115 0.30340 0.27758
 C293 C 0.68381 0.30767 0.33686
 C294 C 0.70020 0.29340 0.37314
 C295 C 0.60252 0.37866 0.18799
 C296 C 0.58392 0.39501 0.16008
 C297 C 0.16364 0.82624 0.29785
 N298 N 0.16615 0.86563 0.27967
 N299 N 0.14682 0.88269 0.24383
 C300 C 0.12441 0.86087 0.22508
 N301 N 0.12193 0.82145 0.24313
 N302 N 0.14126 0.80438 0.27897
 C303 C 0.18353 0.80865 0.33956
 C304 C 0.19979 0.79429 0.37606
 C305 C 0.10278 0.87995 0.18974
 C306 C 0.08424 0.89632 0.16166
   
