data_POSCAR
  _audit_creation_date              2014-09-24
  _audit_creation_method            'ToBaCCo'
  _symmetry_space_group_name_H-M    'P1'
  _symmetry_Int_Tables_number       1
  _symmetry_cell_setting            triclinic
  loop_
  _symmetry_equiv_pos_as_xyz
 x,y,z
_cell_length_a 51.0065
_cell_length_b 51.8273
_cell_length_c 8.9595
_cell_angle_alpha 90.074400
_cell_angle_beta 89.944300
_cell_angle_gamma 89.996200
loop_
  _atom_site_label
  _atom_site_type_symbol
  _atom_site_fract_x
  _atom_site_fract_y
  _atom_site_fract_z
C1 C 0.32353 0.26423 0.42201
 C2 C 0.32339 0.23779 0.42758
 C3 C 0.30305 0.22957 0.33611
 N4 N 0.29042 0.25018 0.27802
 C5 C 0.30305 0.27132 0.32963
 C6 C 0.29690 0.20364 0.29957
 C7 C 0.27200 0.19742 0.23854
 C8 C 0.26672 0.17636 0.14763
 C9 C 0.24023 0.17639 0.12133
 C10 C 0.22988 0.19745 0.19681
 N11 N 0.24950 0.21059 0.26491
 C12 C 0.20282 0.20367 0.20660
 C13 C 0.19490 0.22963 0.22844
 C14 C 0.17031 0.23796 0.27500
 C15 C 0.17058 0.26439 0.26881
 C16 C 0.19540 0.27139 0.22137
 N17 N 0.21030 0.25019 0.19771
 C18 C 0.20368 0.29686 0.19285
 C19 C 0.23048 0.30341 0.18321
 C20 C 0.24031 0.32613 0.12377
 C21 C 0.26687 0.32613 0.15075
 C22 C 0.27245 0.30340 0.22576
 N23 N 0.25023 0.28954 0.24358
 C24 C 0.29699 0.29683 0.28740
 H25 H 0.33692 0.27678 0.48133
 H26 H 0.33654 0.22618 0.49412
 H27 H 0.24815 0.27311 0.30943
 H28 H 0.28054 0.16264 0.10174
 H29 H 0.22994 0.16269 0.05152
 H30 H 0.15394 0.22644 0.31272
 H31 H 0.15448 0.27700 0.29851
 H32 H 0.28042 0.34128 0.12002
 H33 H 0.24727 0.22618 0.33766
 H34 H 0.22949 0.34129 0.06828
 C35 C 0.82403 0.26201 0.06910
 C36 C 0.82400 0.23559 0.07482
 C37 C 0.80322 0.22862 0.16560
 N38 N 0.79060 0.24986 0.21638
 C39 C 0.80351 0.27040 0.15899
 C40 C 0.79693 0.20307 0.20637
 C41 C 0.77219 0.19634 0.26526
 C42 C 0.76644 0.17340 0.33773
 C43 C 0.73985 0.17332 0.36328
 C44 C 0.73011 0.19622 0.30571
 N45 N 0.74999 0.21023 0.24726
 C46 C 0.70331 0.20297 0.29899
 C47 C 0.69497 0.22859 0.27514
 C48 C 0.66954 0.23612 0.24254
 C49 C 0.66959 0.26259 0.23931
 C50 C 0.69504 0.27028 0.26993
 N51 N 0.71054 0.24949 0.29129
 C52 C 0.70339 0.29597 0.28958
 C53 C 0.73019 0.30274 0.29452
 C54 C 0.73991 0.32521 0.35730
 C55 C 0.76644 0.32533 0.33133
 C56 C 0.77224 0.30311 0.25073
 N57 N 0.75001 0.28920 0.23121
 C58 C 0.79728 0.29649 0.19224
 H59 H 0.83737 0.27350 0.00298
 H60 H 0.83743 0.22296 0.01627
 H61 H 0.74801 0.27278 0.16484
 H62 H 0.77993 0.15817 0.36803
 H63 H 0.72894 0.15805 0.41737
 H64 H 0.65270 0.22388 0.22293
 H65 H 0.65279 0.27474 0.21695
 H66 H 0.77986 0.34003 0.37011
 H67 H 0.74813 0.22683 0.18286
 H68 H 0.72906 0.33987 0.41729
 C69 C 0.66949 0.73730 0.75896
 C70 C 0.66934 0.76378 0.75777
 C71 C 0.69479 0.77147 0.72672
 N72 N 0.71045 0.75066 0.70909
 C73 C 0.69501 0.72976 0.72834
 C74 C 0.70303 0.79719 0.70557
 C75 C 0.72980 0.80410 0.70038
 C76 C 0.73946 0.82721 0.64518
 C77 C 0.76604 0.82717 0.67084
 C78 C 0.77186 0.80404 0.74098
 N79 N 0.74971 0.79001 0.75765
 C80 C 0.79663 0.79719 0.79873
 C81 C 0.80302 0.77154 0.83649
 C82 C 0.82380 0.76435 0.92639
 C83 C 0.82397 0.73791 0.92890
 C84 C 0.80353 0.72974 0.83790
 N85 N 0.79054 0.75043 0.78300
 C86 C 0.79742 0.70374 0.80167
 C87 C 0.77241 0.69723 0.74258
 C88 C 0.76664 0.67518 0.66041
 C89 C 0.74009 0.67525 0.63545
 C90 C 0.73033 0.69753 0.70025
 N91 N 0.75014 0.71102 0.76379
 C92 C 0.70350 0.70413 0.70730
 H93 H 0.65270 0.72507 0.77986
 H94 H 0.65244 0.77592 0.77775
 H95 H 0.74810 0.72723 0.83176
 H96 H 0.72852 0.84258 0.59245
 H97 H 0.77949 0.84252 0.64186
 H98 H 0.83713 0.77684 0.98654
 H99 H 0.83732 0.72625 0.99383
 H100 H 0.72923 0.66065 0.57505
 H101 H 0.74790 0.77320 0.82027
 H102 H 0.78010 0.66060 0.62033
 C103 C 0.17083 0.76279 0.72967
 C104 C 0.17078 0.73637 0.72727
 C105 C 0.19502 0.72848 0.78033
 N106 N 0.21007 0.74929 0.81250
 C107 C 0.19511 0.77031 0.78399
 C108 C 0.20293 0.70254 0.80306
 C109 C 0.22998 0.69611 0.80517
 C110 C 0.24089 0.67417 0.86897
 C111 C 0.26710 0.67423 0.83340
 C112 C 0.27163 0.69637 0.75103
 N113 N 0.24904 0.70981 0.73600
 C114 C 0.29584 0.70301 0.68490
 C115 C 0.30180 0.72859 0.64432
 C116 C 0.32299 0.73622 0.55807
 C117 C 0.32297 0.76272 0.55858
 C118 C 0.30181 0.77027 0.64541
 N119 N 0.28882 0.74940 0.69688
 C120 C 0.29585 0.79579 0.68762
 C121 C 0.27181 0.80222 0.75623
 C122 C 0.26748 0.82405 0.84205
 C123 C 0.24135 0.82400 0.87937
 C124 C 0.23028 0.80235 0.81282
 N125 N 0.24916 0.78889 0.74056
 C126 C 0.20319 0.79610 0.81049
 H127 H 0.15505 0.77495 0.69049
 H128 H 0.15494 0.72448 0.68593
 H129 H 0.24616 0.77306 0.67064
 H130 H 0.23119 0.65964 0.93562
 H131 H 0.28123 0.65969 0.86565
 H132 H 0.33706 0.72404 0.50141
 H133 H 0.33703 0.77495 0.50224
 H134 H 0.23179 0.83827 0.94878
 H135 H 0.24618 0.72595 0.66855
 H136 H 0.28172 0.83842 0.87547
 O137 O 1.02616 -0.02872 0.10498
 O138 O 0.97527 0.02099 0.15251
 O139 O 0.97515 -0.02846 0.10180
 O140 O 1.02634 0.02078 0.15597
 O141 O 1.02684 0.02801 -0.08694
 O142 O 0.97565 -0.02123 -0.14112
 O143 O 0.97577 0.02826 -0.09040
 O144 O 1.02671 -0.02152 -0.13798
 Cu145 Cu 1.00068 -0.00460 0.15297
 Cu146 Cu 1.00131 0.00414 -0.13830
 C147 C 1.03506 -0.03362 -0.02434
 C148 C 0.96684 0.03307 0.03904
 C149 C 0.96670 -0.03323 -0.02858
 C150 C 1.03528 0.03280 0.04345
 O151 O 0.47528 0.47887 0.35697
 O152 O 0.52631 0.52826 0.41034
 O153 O 0.52633 0.47881 0.35956
 O154 O 0.47530 0.52832 0.40761
 O155 O 0.47482 0.52111 0.65053
 O156 O 0.52594 0.47152 0.60238
 O157 O 0.52593 0.52105 0.65331
 O158 O 0.47486 0.47160 0.59990
 Cu159 Cu 0.50085 0.50432 0.35948
 Cu160 Cu 0.50035 0.49557 0.65074
 C161 C 0.46639 0.46683 0.46953
 C162 C 0.53479 0.53307 0.54061
 C163 C 0.53482 0.46673 0.47281
 C164 C 0.46637 0.53315 0.53695
 O165 O 0.02518 0.52139 -0.14589
 O166 O -0.02591 0.47187 -0.09895
 O167 O -0.02587 0.52148 -0.14566
 O168 O 0.02513 0.47189 -0.09646
 O169 O 0.02495 0.47886 0.14687
 O170 O -0.02605 0.52843 0.09768
 O171 O -0.02613 0.47881 0.14439
 O172 O 0.02500 0.52838 0.09740
 Cu173 Cu -0.00035 0.49594 -0.14584
 Cu174 Cu -0.00058 0.50434 0.14577
 C175 C 0.03377 0.53332 -0.03214
 C176 C -0.03469 0.46689 0.03045
 C177 C -0.03461 0.53341 -0.03212
 C178 C 0.03371 0.46693 0.03339
 O179 O 0.47327 1.02832 0.59060
 O180 O 0.52427 0.97891 0.64349
 O181 O 0.52433 1.02837 0.59247
 O182 O 0.47323 0.97883 0.64000
 O183 O 0.47365 0.97159 0.39690
 O184 O 0.52474 1.02111 0.34943
 O185 O 0.52470 0.97163 0.40046
 O186 O 0.47366 1.02109 0.34753
 Cu187 Cu 0.49873 1.00437 0.64074
 Cu188 Cu 0.49924 0.99560 0.34945
 C189 C 0.46479 1.03312 0.46039
 C190 C 0.53315 0.96685 0.53081
 C191 C 0.53322 1.03317 0.46301
 C192 C 0.46477 0.96677 0.52632
 N193 N 1.17213 0.14013 0.20088
 C194 C 1.14752 0.14583 0.15486
 N195 N 1.14124 0.17070 0.12567
 N196 N 1.15903 0.18930 0.14233
 C197 C 1.18380 0.18386 0.18896
 N198 N 1.18988 0.15876 0.21752
 C199 C 1.12835 0.12581 0.13689
 C200 C 1.11214 0.10911 0.12124
 C201 C 1.09271 0.08938 0.10151
 N202 N 1.08354 0.08373 -0.03668
 N203 N 1.06528 0.06562 -0.05511
 C204 C 1.05557 0.05256 0.06403
 N205 N 1.06482 0.05824 0.20235
 N206 N 1.08308 0.07635 0.22075
 N207 N 0.66822 0.64212 0.74228
 C208 C 0.64752 0.64568 0.64984
 N209 N 0.64520 0.66832 0.57537
 N210 N 0.66300 0.68688 0.59321
 C211 C 0.68370 0.68346 0.68641
 N212 N 0.68602 0.66068 0.76017
 C213 C 0.62820 0.62581 0.63166
 C214 C 0.61188 0.60920 0.61619
 C215 C 0.59234 0.58956 0.59707
 N216 N 0.58278 0.57658 0.71661
 N217 N 0.56445 0.55851 0.69875
 C218 C 0.55508 0.55284 0.56071
 N219 N 0.56473 0.56587 0.44127
 N220 N 0.58305 0.58393 0.45916
 N221 N -0.13965 0.32906 0.15608
 C222 C -0.14712 0.35377 0.13181
 N223 N -0.17301 0.35948 0.12701
 N224 N -0.19088 0.34102 0.14603
 C225 C -0.18363 0.31611 0.17068
 N226 N -0.15755 0.31063 0.17509
 C227 C -0.12784 0.37366 0.11319
 C228 C -0.11155 0.39031 0.09831
 C229 C -0.09205 0.41004 0.08091
 N230 N -0.08282 0.42298 0.20154
 N231 N -0.06457 0.44117 0.18555
 C232 C -0.05494 0.44701 0.04831
 N233 N -0.06424 0.43402 -0.07227
 N234 N -0.08249 0.41584 -0.05624
 N235 N 0.32688 0.85815 0.59308
 C236 C 0.35223 0.85388 0.63098
 N237 N 0.35915 0.83060 0.68745
 N238 N 0.34127 0.81213 0.70528
 C239 C 0.31585 0.81628 0.66697
 N240 N 0.30899 0.83967 0.61088
 C241 C 0.37152 0.87375 0.61207
 C242 C 0.38781 0.89038 0.59655
 C243 C 0.40732 0.91007 0.57843
 N244 N 0.41648 0.92319 0.69857
 N245 N 0.43476 0.94133 0.68199
 C246 C 0.44449 0.94694 0.54465
 N247 N 0.43526 0.93377 0.42455
 N248 N 0.41698 0.91563 0.44117
 N249 N -0.17281 0.64067 -0.13684
 C250 C -0.14693 0.64646 -0.13983
 N251 N -0.13948 0.67123 -0.16231
 N252 N -0.15739 0.68965 -0.18110
 C253 C -0.18347 0.68410 -0.17817
 N254 N -0.19069 0.65912 -0.15563
 C255 C -0.12763 0.62661 -0.12028
 C256 C -0.11134 0.60998 -0.10431
 C257 C -0.09187 0.59027 -0.08573
 N258 N -0.08255 0.58451 0.05194
 N259 N -0.06433 0.56633 0.06903
 C260 C -0.05482 0.55330 -0.05099
 N261 N -0.06420 0.55910 -0.18873
 N262 N -0.08243 0.57728 -0.20578
 N263 N 0.32640 1.14017 0.35022
 C264 C 0.35229 1.14595 0.35219
 N265 N 0.35983 1.17086 0.33691
 N266 N 0.34201 1.18941 0.32017
 C267 C 0.31593 1.18388 0.31818
 N268 N 0.30861 1.15876 0.33347
 C269 C 0.37151 1.12598 0.37013
 C270 C 0.38779 1.10933 0.38543
 C271 C 0.40729 1.08966 0.40440
 N272 N 0.41684 1.07665 0.28472
 N273 N 0.43514 1.05855 0.30243
 C274 C 0.44450 1.05290 0.44047
 N275 N 0.43487 1.06596 0.56004
 N276 N 0.41657 1.08404 0.54230
 N277 N 1.17188 -0.14070 -0.17500
 C278 C 1.14752 -0.14677 -0.12615
 N279 N 1.14166 -0.17175 -0.09726
 N280 N 1.15961 -0.19011 -0.11706
 C281 C 1.18415 -0.18429 -0.16661
 N282 N 1.18980 -0.15909 -0.19473
 C283 C 1.12809 -0.12701 -0.10723
 C284 C 1.11174 -0.11041 -0.09223
 C285 C 1.09224 -0.09068 -0.07486
 N286 N 1.08251 -0.08496 0.06212
 N287 N 1.06431 -0.06673 0.07814
 C288 C 1.05522 -0.05359 -0.04227
 N289 N 1.06501 -0.05935 -0.17933
 N290 N 1.08322 -0.07760 -0.19533
 N291 N 0.64535 0.33127 0.43010
 C292 C 0.64731 0.35404 0.35671
 N293 N 0.66760 0.35781 0.26139
 N294 N 0.68539 0.33935 0.23999
 C295 C 0.68347 0.31646 0.31296
 N296 N 0.66314 0.31280 0.40875
 C297 C 0.62803 0.37384 0.37879
 C298 C 0.61175 0.39043 0.39663
 C299 C 0.59228 0.41011 0.41669
 N300 N 0.58299 0.42335 0.29756
 N301 N 0.56472 0.44146 0.31561
 C302 C 0.55510 0.44692 0.45345
 N303 N 0.56447 0.43365 0.57267
 N304 N 0.58275 0.41553 0.55457
 N305 N 0.82843 -0.14129 -0.09605
 C306 C 0.85341 -0.14515 -0.14279
 N307 N 0.85981 -0.16788 -0.20840
 N308 N 0.84177 -0.18619 -0.22691
 C309 C 0.81670 -0.18240 -0.18045
 N310 N 0.81038 -0.15960 -0.11455
 C311 C 0.87287 -0.12545 -0.12303
 C312 C 0.88930 -0.10898 -0.10656
 C313 C 0.90896 -0.08948 -0.08668
 N314 N 0.91865 -0.07649 -0.20587
 N315 N 0.93704 -0.05851 -0.18745
 C316 C 0.94635 -0.05293 -0.04915
 N317 N 0.93659 -0.06596 0.06997
 N318 N 0.91820 -0.08394 0.05152
 N319 N 0.32819 0.35886 0.38873
 C320 C 0.35352 0.35464 0.34992
 N321 N 0.36034 0.33155 0.29007
 N322 N 0.34238 0.31322 0.26980
 C323 C 0.31696 0.31734 0.30866
 N324 N 0.31022 0.34052 0.36851
 C325 C 0.37290 0.37436 0.37160
 C326 C 0.38927 0.39086 0.38932
 C327 C 0.40885 0.41042 0.41005
 N328 N 0.41852 0.42352 0.29126
 N329 N 0.43684 0.44156 0.31022
 C330 C 0.44610 0.44708 0.44868
 N331 N 0.43636 0.43393 0.56746
 N332 N 0.41803 0.41590 0.54847
 N333 N 0.17117 0.63951 -0.18768
 C334 C 0.14689 0.64565 -0.13786
 N335 N 0.14119 0.67062 -0.10728
 N336 N 0.15925 0.68890 -0.12607
 C337 C 0.18373 0.68300 -0.17627
 N338 N 0.18920 0.65783 -0.20646
 C339 C 0.12739 0.62598 -0.11869
 C340 C 0.11097 0.60948 -0.10301
 C341 C 0.09135 0.58989 -0.08471
 N342 N 0.08183 0.58424 0.05276
 N343 N 0.06350 0.56616 0.06957
 C344 C 0.05408 0.55313 -0.05055
 N345 N 0.06367 0.55881 -0.18808
 N346 N 0.08201 0.57690 -0.20485
 N347 N 0.64479 1.16781 0.43366
 C348 C 0.64670 1.14518 0.35840
 N349 N 0.66719 1.14141 0.26444
 N350 N 0.68520 1.15975 0.24594
 C351 C 0.68333 1.18250 0.32071
 N352 N 0.66281 1.18615 0.41525
 C353 C 0.62715 1.12554 0.37703
 C354 C 0.61067 1.10909 0.39239
 C355 C 0.59098 1.08957 0.41052
 N356 N 0.58173 1.07649 0.29048
 N357 N 0.56333 1.05846 0.30719
 C358 C 0.55356 1.05294 0.44455
 N359 N 0.56288 1.06608 0.56455
 N360 N 0.58128 1.08409 0.54780
 N361 N 0.14410 0.33148 0.06969
 C362 C 0.14691 0.35465 0.13820
 N363 N 0.16833 0.35896 0.22409
 N364 N 0.18639 0.34063 0.24115
 C365 C 0.18366 0.31736 0.17286
 N366 N 0.16217 0.31315 0.08667
 C367 C 0.12739 0.37435 0.12034
 C368 C 0.11095 0.39084 0.10526
 C369 C 0.09131 0.41041 0.08690
 N370 N 0.08179 0.42332 0.20698
 N371 N 0.06344 0.44139 0.19000
 C372 C 0.05400 0.44713 0.05229
 N373 N 0.06359 0.43416 -0.06774
 N374 N 0.08194 0.41610 -0.05072
 N375 N 0.66629 0.85834 0.74369
 C376 C 0.64633 0.85485 0.64595
 N377 N 0.64495 0.83251 0.56745
 N378 N 0.66297 0.81419 0.58621
 C379 C 0.68298 0.81758 0.68433
 N380 N 0.68432 0.84002 0.76251
 C381 C 0.62684 0.87451 0.62613
 C382 C 0.61040 0.89096 0.60937
 C383 C 0.59075 0.91047 0.58925
 N384 N 0.58152 0.91593 0.45100
 N385 N 0.56317 0.93394 0.43236
 C386 C 0.55344 0.94708 0.55137
 N387 N 0.56273 0.94157 0.68971
 N388 N 0.58108 0.92356 0.70831
 N389 N 0.86021 0.16827 0.21165
 C390 C 0.85373 0.14538 0.14819
 N391 N 0.82864 0.14134 0.10418
 N392 N 0.81058 0.15964 0.12287
 C393 C 0.81699 0.18261 0.18639
 N394 N 0.84216 0.18657 0.23038
 C395 C 0.87319 0.12569 0.12812
 C396 C 0.88962 0.10920 0.11178
 C397 C 0.90924 0.08963 0.09288
 N398 N 0.91846 0.07648 0.21255
 N399 N 0.93681 0.05841 0.19536
 C400 C 0.94655 0.05289 0.05785
 N401 N 0.93726 0.06608 -0.06183
 N402 N 0.91891 0.08415 -0.04460
 N403 N 0.35938 0.66869 0.69171
 C404 C 0.35289 0.64538 0.63377
 N405 N 0.32775 0.64096 0.59198
 N406 N 0.30964 0.65929 0.60770
 C407 C 0.31607 0.68270 0.66554
 N408 N 0.34128 0.68702 0.70747
 C409 C 0.37240 0.62565 0.61724
 C410 C 0.38888 0.60915 0.60352
 C411 C 0.40859 0.58961 0.58673
 N412 N 0.41773 0.57667 0.70743
 N413 N 0.43615 0.55863 0.69177
 C414 C 0.44603 0.55294 0.55481
 N415 N 0.43683 0.56594 0.43421
 N416 N 0.41842 0.58397 0.44990
   
