data_POSCAR
  _audit_creation_date              2014-09-24
  _audit_creation_method            'ToBaCCo'
  _symmetry_space_group_name_H-M    'P1'
  _symmetry_Int_Tables_number       1
  _symmetry_cell_setting            triclinic
  loop_
  _symmetry_equiv_pos_as_xyz
 x,y,z
_cell_length_a 30.9300
_cell_length_b 35.0861
_cell_length_c 33.3394
_cell_angle_alpha 90.441600
_cell_angle_beta 90.089000
_cell_angle_gamma 90.244900
loop_
  _atom_site_label
  _atom_site_type_symbol
  _atom_site_fract_x
  _atom_site_fract_y
  _atom_site_fract_z
N1 N 0.14289 0.16955 0.24446
 N2 N 0.15834 0.13588 0.23469
 C3 C 0.15097 0.11166 0.26540
 C4 C 0.13116 0.13212 0.29614
 C5 C 0.12669 0.16854 0.28162
 H6 H 0.16188 0.08243 0.26643
 H7 H 0.11199 0.19263 0.29667
 Cu8 Cu 0.19307 0.13043 0.18557
 Cu9 Cu 0.14319 0.21264 0.20878
 Cu10 Cu 0.16254 0.19303 0.11152
 N11 N 0.22108 0.13133 0.13219
 N12 N 0.20793 0.15443 0.10358
 C13 C 0.23631 0.15327 0.07311
 C14 C 0.26955 0.12893 0.08323
 C15 C 0.25864 0.11512 0.12078
 H16 H 0.23466 0.17142 0.04708
 H17 H 0.27800 0.09679 0.13952
 N18 N 0.13178 0.23880 0.12825
 N19 N 0.12635 0.24672 0.16650
 C20 C 0.10813 0.28111 0.17041
 C21 C 0.10151 0.29565 0.13266
 C22 C 0.11666 0.26807 0.10632
 H23 H 0.10076 0.29476 0.19877
 H24 H 0.11875 0.27006 0.07401
 H25 H 0.14315 0.15993 0.16285
 H26 H 0.19680 0.18640 0.16651
 N27 N -0.10607 0.84596 0.21928
 N28 N -0.13137 0.87597 0.22075
 C29 C -0.12009 0.89832 0.25207
 C30 C -0.08628 0.88117 0.27186
 C31 C -0.07810 0.84797 0.25030
 H32 H -0.13785 0.92315 0.26199
 H33 H -0.05495 0.82610 0.25777
 Cu34 Cu -0.18235 0.87892 0.18758
 Cu35 Cu -0.11369 0.80565 0.17832
 Cu36 Cu -0.20154 0.81713 0.11365
 N37 N -0.24035 0.87142 0.16682
 N38 N -0.24731 0.84913 0.13562
 C39 C -0.28899 0.85208 0.12441
 C40 C -0.30945 0.87664 0.15098
 C41 C -0.27764 0.88821 0.17769
 H42 H -0.30335 0.83706 0.09921
 H43 H -0.28072 0.90869 0.20191
 N44 N -0.16047 0.77446 0.10916
 N45 N -0.12719 0.76952 0.13348
 C46 C -0.10800 0.73606 0.12393
 C47 C -0.13094 0.71910 0.09275
 C48 C -0.16397 0.74414 0.08441
 H49 H -0.08125 0.72366 0.14009
 H50 H -0.19002 0.73967 0.06317
 H51 H -0.14360 0.83944 0.13767
 H52 H -0.17980 0.81165 0.17109
 N53 N -0.08625 0.14924 -0.21377
 N54 N -0.10451 0.11545 -0.21101
 C55 C -0.10238 0.09766 -0.24686
 C56 C -0.08269 0.12213 -0.27351
 C57 C -0.07262 0.15447 -0.25161
 H58 H -0.11738 0.07047 -0.25379
 H59 H -0.05854 0.18058 -0.26281
 Cu60 Cu -0.13699 0.10121 -0.16342
 Cu61 Cu -0.08810 0.18567 -0.16944
 Cu62 Cu -0.18753 0.17765 -0.12389
 N63 N -0.18415 0.09578 -0.12581
 N64 N -0.20611 0.12557 -0.11321
 C65 C -0.24050 0.11358 -0.09209
 C66 C -0.23915 0.07421 -0.09050
 C67 C -0.20279 0.06381 -0.11197
 H68 H -0.26406 0.13219 -0.07827
 H69 H -0.19191 0.03522 -0.11878
 N70 N -0.15241 0.22490 -0.12280
 N71 N -0.11264 0.22649 -0.13703
 C72 C -0.09550 0.26097 -0.12921
 C73 C -0.12643 0.28239 -0.10988
 C74 C -0.16218 0.25894 -0.10631
 H75 H -0.06382 0.27035 -0.13883
 H76 H -0.19271 0.26600 -0.09238
 H77 H -0.12583 0.15874 -0.12360
 H78 H -0.15061 0.16887 -0.17353
 N79 N 0.08775 0.84081 -0.21702
 N80 N 0.10650 0.87441 -0.21403
 C81 C 0.09640 0.89531 -0.24637
 C82 C 0.07061 0.87327 -0.27122
 C83 C 0.06552 0.83897 -0.25166
 H84 H 0.11126 0.92236 -0.25370
 H85 H 0.04968 0.81361 -0.26317
 Cu86 Cu 0.15239 0.88335 -0.17561
 Cu87 Cu 0.09801 0.80055 -0.17831
 Cu88 Cu 0.18864 0.81272 -0.11800
 N89 N 0.21012 0.88440 -0.15339
 N90 N 0.22460 0.85673 -0.13074
 C91 C 0.26543 0.86492 -0.11934
 C92 C 0.27711 0.89933 -0.13642
 C93 C 0.24126 0.91079 -0.15791
 H94 H 0.28502 0.84714 -0.10024
 H95 H 0.23766 0.93652 -0.17525
 N96 N 0.15341 0.76572 -0.11861
 N97 N 0.11769 0.76177 -0.14007
 C98 C 0.10039 0.72717 -0.13306
 C99 C 0.12720 0.70823 -0.10689
 C100 C 0.16059 0.73325 -0.09847
 H101 H 0.07154 0.71590 -0.14724
 H102 H 0.18816 0.72810 -0.07927
 H103 H 0.12644 0.83133 -0.13265
 H104 H 0.16239 0.81513 -0.17420
 N105 N 0.13917 1.11828 0.79337
 N106 N 0.11378 1.14799 0.78916
 C107 C 0.09028 1.14341 0.75539
 C108 C 0.10050 1.10852 0.73804
 C109 C 0.13152 1.09342 0.76315
 H110 H 0.07098 1.16561 0.74198
 H111 H 0.15170 1.06906 0.75648
 Cu112 Cu 0.11976 1.19302 0.82386
 Cu113 Cu 0.18980 1.12006 0.82885
 Cu114 Cu 0.22262 1.21287 0.84515
 N115 N 0.13482 1.23762 0.85691
 N116 N 0.17580 1.24521 0.86401
 C117 C 0.17904 1.27715 0.88611
 C118 C 0.13797 1.29050 0.89395
 C119 C 0.11034 1.26477 0.87476
 H120 H 0.20939 1.28946 0.89596
 H121 H 0.07539 1.26591 0.87361
 N122 N 0.26271 1.16968 0.84580
 N123 N 0.24956 1.13387 0.84377
 C124 C 0.28363 1.11093 0.85029
 C125 C 0.31988 1.13362 0.85601
 C126 C 0.30552 1.17063 0.85290
 H127 H 0.28221 1.08011 0.85040
 H128 H 0.32432 1.19635 0.85761
 H129 H 0.18240 1.17109 0.86176
 H130 H 0.19327 1.17349 0.80685
 N131 N 0.82002 0.85736 0.74919
 N132 N 0.85754 0.84058 0.74367
 C133 C 0.87828 0.85760 0.71303
 C134 C 0.85194 0.88624 0.69845
 C135 C 0.81519 0.88509 0.72193
 H136 H 0.90975 0.84954 0.70181
 H137 H 0.78733 0.90361 0.72007
 Cu138 Cu 0.87440 0.79731 0.77667
 Cu139 Cu 0.78149 0.84342 0.79310
 Cu140 Cu 0.83837 0.80246 0.87102
 N141 N 0.88893 0.75831 0.81592
 N142 N 0.87723 0.76212 0.85365
 C143 C 0.89039 0.73155 0.87443
 C144 C 0.91021 0.70666 0.84811
 C145 C 0.90879 0.72447 0.81115
 H146 H 0.88264 0.72631 0.90555
 H147 H 0.91978 0.71303 0.78275
 N148 N 0.78296 0.82875 0.87846
 N149 N 0.75973 0.84213 0.84850
 C150 C 0.72237 0.85613 0.86309
 C151 C 0.72235 0.85120 0.90421
 C152 C 0.76120 0.83383 0.91290
 H153 H 0.69772 0.86982 0.84529
 H154 H 0.77275 0.82515 0.94205
 H155 H 0.83735 0.84036 0.82290
 H156 H 0.80879 0.79370 0.81712
 N157 N 0.09432 0.88393 1.21157
 N158 N 0.07690 0.84989 1.21547
 C159 C 0.06433 0.84508 1.25368
 C160 C 0.07423 0.87797 1.27473
 C161 C 0.09258 0.90232 1.24710
 H162 H 0.05131 0.81886 1.26564
 H163 H 0.10734 0.92976 1.25328
 Cu164 Cu 0.07800 0.81302 1.17196
 Cu165 Cu 0.12746 0.89721 1.16366
 Cu166 Cu 0.17407 0.81436 1.12708
 N167 N 0.09466 0.77263 1.13557
 N168 N 0.13374 0.77204 1.12010
 C169 C 0.14023 0.73811 1.10223
 C170 C 0.10272 0.71696 1.10576
 C171 C 0.07432 0.73960 1.12703
 H172 H 0.17041 0.72907 1.08891
 H173 H 0.04294 0.73139 1.13846
 N174 N 0.19931 0.86560 1.11944
 N175 N 0.17939 0.89729 1.13023
 C176 C 0.20163 0.92743 1.11642
 C177 C 0.23762 0.91392 1.09660
 C178 C 0.23539 0.87473 1.09911
 H179 H 0.19258 0.95689 1.12100
 H180 H 0.25723 0.85441 1.08550
 H181 H 0.12200 0.84866 1.12484
 H182 H 0.14892 0.84406 1.17456
 N183 N 0.89323 1.13373 1.21987
 N184 N 0.90943 1.16842 1.22138
 C185 C 0.93344 1.17229 1.25489
 C186 C 0.93258 1.13799 1.27521
 C187 C 0.90729 1.11399 1.25183
 H188 H 0.94833 1.19868 1.26478
 H189 H 0.89667 1.08552 1.25941
 Cu190 Cu 0.89389 1.20622 1.18130
 Cu191 Cu 0.84703 1.12077 1.18209
 Cu192 Cu 0.79014 1.20083 1.15281
 N193 N 0.86931 1.24373 1.14518
 N194 N 0.82797 1.24268 1.13581
 C195 C 0.81820 1.27384 1.11431
 C196 C 0.85562 1.29507 1.10911
 C197 C 0.88746 1.27516 1.12924
 H198 H 0.78621 1.28058 1.10343
 H199 H 0.92085 1.28372 1.13339
 N200 N 0.76421 1.14893 1.15398
 N201 N 0.78733 1.11848 1.16256
 C202 C 0.76219 1.08730 1.16006
 C203 C 0.72107 1.09834 1.14930
 C204 C 0.72331 1.13767 1.14561
 H205 H 0.77312 1.05870 1.16631
 H206 H 0.69709 1.15661 1.13798
 H207 H 0.84193 1.16762 1.14295
 H208 H 0.82625 1.17327 1.19650
 O209 O 0.44229 1.07884 1.05503
 O210 O 0.40049 1.05026 1.00628
 C211 C 0.40706 1.07571 1.03382
 O212 O 0.59781 1.03986 0.94945
 O213 O 0.62084 0.99906 0.99854
 C214 C 0.62778 1.02207 0.96911
 O215 O 0.48420 1.06866 0.92129
 O216 O 0.41985 1.04409 0.94359
 C217 C 0.44224 1.06664 0.92119
 O218 O 0.55610 1.05416 1.08875
 O219 O 0.60010 1.00609 1.06607
 C220 C 0.59182 1.03473 1.08936
 Zr221 Zr 0.50006 1.04576 1.05226
 O222 O 0.52042 1.10345 1.05065
 O223 O 0.47866 1.05245 1.11219
 Zr224 Zr 0.52954 1.03672 0.95516
 O225 O 0.55100 1.09408 0.95528
 O226 O 0.54303 1.03226 0.89304
 O227 O 0.48085 1.05582 0.99339
 O228 O 0.55180 1.04045 1.01346
 O229 O 0.51859 0.92740 1.09482
 O230 O 0.58311 0.94584 1.06694
 C231 C 0.56058 0.92802 1.09354
 O232 O 0.44648 0.93210 0.92235
 O233 O 0.40226 0.98020 0.94451
 C234 C 0.41061 0.95115 0.92183
 O235 O 0.56274 0.91304 0.95009
 O236 O 0.60328 0.93969 1.00075
 C237 C 0.59788 0.91594 0.97139
 O238 O 0.40504 0.94560 1.05749
 O239 O 0.38228 0.98774 1.00970
 C240 C 0.37508 0.96326 1.03765
 Zr241 Zr 0.47341 0.95161 1.05416
 O242 O 0.46312 0.89189 1.05362
 O243 O 0.44923 0.95439 1.11339
 Zr244 Zr 0.50305 0.94256 0.95704
 O245 O 0.49099 0.88333 0.96207
 O246 O 0.51641 0.93584 0.89519
 Zr247 Zr 0.44185 1.00661 0.98758
 Zr248 Zr 0.56093 0.98164 1.02155
 O249 O 0.52143 0.93298 1.01579
 O250 O 0.45006 0.94751 0.99549
 O251 O 0.51998 0.99201 1.07088
 O252 O 0.48373 0.99630 0.93907
 O253 O 0.44998 1.00660 1.05037
 O254 O 0.55410 0.98157 0.95864
 H255 H 0.57651 1.05805 1.01799
 H256 H 0.47250 0.99829 0.91132
 H257 H 0.53428 0.90782 1.02172
 H258 H 0.42528 1.01256 1.06820
 H259 H 0.56530 1.01238 0.88953
 H260 H 0.54305 0.95052 0.88964
 H261 H 0.46001 0.88002 0.96858
 H262 H 0.43845 0.88656 1.03548
 H263 H 0.46663 0.97383 1.12777
 H264 H 0.49472 1.03400 1.12877
 H265 H 0.50194 1.11680 1.03103
 H266 H 0.52736 1.10974 0.96650
 O267 O 0.08331 0.54802 -0.06502
 O268 O 0.03719 0.59265 -0.03818
 C269 C 0.07097 0.58292 -0.05876
 O270 O -0.07981 0.44374 -0.07974
 O271 O -0.04328 0.40255 -0.03872
 C272 C -0.07140 0.40994 -0.06648
 O273 O -0.06324 0.54844 -0.09461
 O274 O -0.03353 0.59287 -0.05173
 C275 C -0.05339 0.58320 -0.08460
 O276 O 0.08422 0.44188 -0.05351
 O277 O 0.03310 0.40120 -0.02789
 C278 C 0.06968 0.40805 -0.04552
 Zr279 Zr 0.05502 0.49567 -0.04647
 O280 O 0.06046 0.48767 -0.10936
 O281 O 0.12326 0.49683 -0.04315
 Zr282 Zr -0.05150 0.49672 -0.06433
 O283 O -0.03732 0.48573 -0.12550
 O284 O -0.11731 0.50343 -0.07992
 O285 O 0.00438 0.53002 -0.06475
 O286 O 0.00212 0.46192 -0.06083
 O287 O 0.05433 0.45027 0.07975
 O288 O 0.02157 0.40559 0.03912
 C289 C 0.04522 0.41546 0.06973
 O290 O -0.09532 0.55740 0.05037
 O291 O -0.04733 0.59709 0.01870
 C292 C -0.08097 0.59096 0.04097
 O293 O -0.10089 0.45046 0.05141
 O294 O -0.05318 0.40580 0.02730
 C295 C -0.08823 0.41550 0.04600
 O296 O 0.05694 0.55543 0.07443
 O297 O 0.02484 0.59615 0.02986
 C298 C 0.04926 0.58910 0.06059
 Zr299 Zr 0.03580 0.50178 0.05322
 O300 O 0.02066 0.50262 0.11514
 O301 O 0.10286 0.50354 0.06608
 Zr302 Zr -0.07116 0.50283 0.03508
 O303 O -0.08194 0.50208 0.09775
 O304 O -0.13839 0.50782 0.02443
 Zr305 Zr -0.00622 0.55635 -0.00846
 Zr306 Zr -0.00929 0.44203 -0.00235
 O307 O -0.01998 0.46937 0.05316
 O308 O -0.01814 0.53699 0.05019
 O309 O 0.05316 0.46491 0.00677
 O310 O -0.06829 0.53310 -0.01791
 O311 O 0.05438 0.53142 0.00297
 O312 O -0.07055 0.46612 -0.01398
 H313 H 0.00557 0.44254 -0.08238
 H314 H -0.09262 0.55055 -0.02353
 H315 H -0.02509 0.45372 0.07735
 H316 H 0.08056 0.54745 0.00638
 H317 H -0.13448 0.49241 -0.05788
 H318 H -0.14749 0.48582 0.00771
 H319 H -0.06725 0.52468 0.10944
 H320 H 0.00677 0.52732 0.12133
 H321 H 0.11662 0.48305 0.05010
 H322 H 0.13079 0.49970 -0.01448
 H323 H 0.05684 0.51282 -0.12218
 H324 H -0.01820 0.50643 -0.13504
 O325 O 0.93913 0.08235 0.55323
 O326 O 0.96608 0.03987 0.59890
 C327 C 0.94490 0.07029 0.58959
 O328 O 0.93310 -0.06048 0.43696
 O329 O 0.97640 -0.02443 0.39612
 C330 C 0.94908 -0.05199 0.40213
 O331 O 0.90918 -0.04898 0.54706
 O332 O 0.95260 -0.02333 0.59631
 C333 C 0.91885 -0.04226 0.58433
 O334 O 0.95874 0.08854 0.44269
 O335 O 0.98798 0.04493 0.39898
 C336 C 0.96966 0.07731 0.40695
 Zr337 Zr 0.96157 0.05935 0.49798
 O338 O 0.89441 0.06373 0.48660
 O339 O 0.96420 0.11937 0.50352
 Zr340 Zr 0.94248 -0.03408 0.49376
 O341 O 0.87822 -0.01824 0.47992
 O342 O 0.91993 -0.09097 0.49569
 O343 O 0.94023 0.01331 0.53149
 O344 O 0.94811 0.01437 0.45926
 O345 O 1.09366 0.06781 0.45534
 O346 O 1.05746 0.03571 0.40524
 C347 C 1.08490 0.06123 0.41788
 O348 O 1.06032 -0.07700 0.55960
 O349 O 1.02529 -0.03586 0.60229
 C350 C 1.04736 -0.06645 0.59491
 O351 O 1.06486 -0.07817 0.44786
 O352 O 1.04458 -0.03283 0.40237
 C353 C 1.06047 -0.06572 0.41153
 O354 O 1.08783 0.05902 0.56664
 O355 O 1.03729 0.02938 0.60614
 C356 C 1.07049 0.05164 0.60120
 Zr357 Zr 1.06950 0.04220 0.50775
 O358 O 1.13520 0.02537 0.50808
 O359 O 1.09118 0.09909 0.51463
 Zr360 Zr 1.05044 -0.05119 0.50328
 O361 O 1.11868 -0.05579 0.50458
 O362 O 1.04628 -0.11129 0.50445
 Zr363 Zr 0.99991 0.00297 0.56042
 Zr364 Zr 1.01233 0.00529 0.44075
 O365 O 1.07138 -0.00493 0.47030
 O366 O 1.06449 -0.00646 0.54270
 O367 O 1.02070 0.05903 0.46863
 O368 O 0.99112 -0.05047 0.53248
 O369 O 1.01339 0.05740 0.53719
 O370 O 0.99877 -0.04939 0.46380
 H371 H 0.92663 0.01810 0.43754
 H372 H 0.98386 -0.07311 0.54874
 H373 H 1.09723 -0.00813 0.45306
 H374 H 1.01610 0.08004 0.55498
 H375 H 0.94586 -0.10730 0.49663
 H376 H 1.01748 -0.11811 0.49358
 H377 H 1.12805 -0.05152 0.53266
 H378 H 1.14256 0.01838 0.53597
 H379 H 1.06568 0.11541 0.51017
 H380 H 0.99466 0.12680 0.49893
 H381 H 0.87926 0.05927 0.51226
 H382 H 0.86484 -0.00884 0.50504
 N383 N 1.10419 0.12631 0.39934
 N384 N 1.11458 0.14643 0.36499
 C385 C 1.12035 0.12102 0.33499
 C386 C 1.11294 0.08423 0.34919
 C387 C 1.10250 0.08907 0.38960
 H388 H 1.11286 0.05789 0.33206
 H389 H 1.09576 0.13878 0.42678
 H390 H 1.11792 0.17604 0.36392
 N391 N 0.94942 -0.11709 0.37379
 N392 N 0.94267 -0.13455 0.33914
 C393 C 0.92977 -0.10864 0.31214
 C394 C 0.92897 -0.07276 0.33031
 C395 C 0.94146 -0.07962 0.36955
 H396 H 0.91975 -0.04587 0.31718
 H397 H 0.95987 -0.13064 0.39984
 H398 H 0.94561 -0.16391 0.33457
 N399 N 0.92302 0.13199 0.61999
 N400 N 0.91779 0.14607 0.65651
 C401 C 0.92036 0.11735 0.68294
 C402 C 0.92754 0.08354 0.66261
 C403 C 0.92943 0.09416 0.62273
 H404 H 0.93320 0.05564 0.67523
 H405 H 0.92438 0.14838 0.59399
 H406 H 0.91314 0.17491 0.66308
 N407 N 1.05723 -0.13102 0.62261
 N408 N 1.06102 -0.14714 0.65805
 C409 C 1.06179 -0.11959 0.68633
 C410 C 1.05789 -0.08430 0.66829
 C411 C 1.05512 -0.09297 0.62779
 H412 H 1.05754 -0.05646 0.68250
 H413 H 1.05544 -0.14599 0.59546
 H414 H 1.06419 -0.17643 0.66250
 N415 N 0.35519 1.12444 1.01192
 N416 N 0.31540 1.13809 1.02512
 C417 C 0.30765 1.12298 1.06150
 C418 C 0.34241 1.10024 1.07258
 C419 C 0.37142 1.10215 1.04087
 H420 H 0.34497 1.08245 1.09885
 H421 H 0.36781 1.12838 0.98319
 H422 H 0.29501 1.15540 1.00826
 N423 N 0.36268 0.96707 0.86586
 N424 N 0.32392 0.95310 0.85032
 C425 C 0.31581 0.91945 0.86808
 C426 C 0.34940 0.91070 0.89420
 C427 C 0.37763 0.94142 0.89218
 H428 H 0.35084 0.88726 0.91509
 H429 H 0.37506 0.99437 0.86083
 H430 H 0.30403 0.96800 0.83062
 N431 N 0.58933 0.92338 1.16212
 N432 N 0.62882 0.91114 1.17762
 C433 C 0.64786 0.88930 1.14937
 C434 C 0.62103 0.88644 1.11619
 C435 C 0.58542 0.90893 1.12475
 H436 H 0.62927 0.87448 1.08720
 H437 H 0.57089 0.94539 1.17448
 H438 H 0.64213 0.92043 1.20480
 N439 N 0.70072 0.99820 0.95249
 N440 N 0.73767 1.01258 0.93398
 C441 C 0.73124 1.05006 0.92790
 C442 C 0.69055 1.06031 0.94159
 C443 C 0.67251 1.02710 0.95626
 H444 H 0.67522 1.08792 0.93964
 H445 H 0.69532 0.96956 0.95935
 H446 H 0.76490 0.99654 0.92654
 N447 N 0.07314 0.39401 0.13495
 N448 N 0.08753 0.36263 0.15163
 C449 C 0.08628 0.33430 0.12420
 C450 C 0.06991 0.34811 0.08832
 C451 C 0.06197 0.38625 0.09670
 H452 H 0.06508 0.33284 0.06031
 H453 H 0.07108 0.42031 0.14970
 H454 H 0.09877 0.36108 0.18113
 N455 N -0.13999 0.38187 -0.09144
 N456 N -0.15525 0.34783 -0.10116
 C457 C -0.12277 0.32258 -0.09858
 C458 C -0.08534 0.34102 -0.08630
 C459 C -0.09781 0.37856 -0.08204
 H460 H -0.05378 0.32878 -0.08103
 H461 H -0.15850 0.40669 -0.09037
 H462 H -0.18708 0.34225 -0.11004
 N463 N 0.14169 0.61150 -0.07688
 N464 N 0.15671 0.64504 -0.08812
 C465 C 0.12307 0.66867 -0.09362
 C466 C 0.08491 0.64963 -0.08514
 C467 C 0.09832 0.61350 -0.07442
 H468 H 0.05226 0.66065 -0.08577
 H469 H 0.16097 0.58811 -0.06979
 H470 H 0.18942 0.65148 -0.09203
 N471 N -0.14951 0.62361 0.05783
 N472 N -0.16260 0.65735 0.07054
 C473 C -0.12777 0.67966 0.07738
 C474 C -0.09058 0.65934 0.06789
 C475 C -0.10607 0.62385 0.05545
 H476 H -0.05729 0.66886 0.06973
 H477 H -0.17014 0.60099 0.05035
 H478 H -0.19495 0.66471 0.07493
 N479 N 1.11439 0.10347 0.63189
 N480 N 1.12047 0.11950 0.66738
 C481 C 1.09799 0.09986 0.69489
 C482 C 1.07651 0.06970 0.67612
 C483 C 1.08780 0.07318 0.63590
 H484 H 1.05534 0.04877 0.68961
 H485 H 1.12755 0.11380 0.60524
 H486 H 1.14003 0.14337 0.67264
 N487 N 0.84646 -0.04936 0.61556
 N488 N 0.82899 -0.06777 0.64596
 C489 C 0.86010 -0.08789 0.66465
 C490 C 0.89935 -0.08139 0.64576
 C491 C 0.88913 -0.05687 0.61480
 H492 H 0.93060 -0.09350 0.65278
 H493 H 0.82945 -0.03193 0.59577
 H494 H 0.79612 -0.06708 0.65314
 N495 N 1.07096 -0.13001 0.38157
 N496 N 1.07230 -0.14506 0.34515
 C497 C 1.07285 -0.11659 0.31830
 C498 C 1.07190 -0.08198 0.33826
 C499 C 1.07046 -0.09176 0.37835
 H500 H 1.07020 -0.05379 0.32540
 H501 H 1.06831 -0.14579 0.40790
 H502 H 1.07241 -0.17429 0.33898
 N503 N 0.96517 0.14232 0.37831
 N504 N 0.95674 0.15834 0.34344
 C505 C 0.94807 0.13072 0.31628
 C506 C 0.95170 0.09542 0.33461
 C507 C 0.96252 0.10418 0.37399
 H508 H 0.94571 0.06754 0.32162
 H509 H 0.97249 0.15739 0.40462
 H510 H 0.95561 0.18772 0.33885
 N511 N 0.14169 0.37948 -0.05294
 N512 N 0.15963 0.34897 -0.06886
 C513 C 0.12832 0.32564 -0.08304
 C514 C 0.08817 0.34194 -0.07497
 C515 C 0.09849 0.37634 -0.05600
 H516 H 0.05650 0.33150 -0.08372
 H517 H 0.15899 0.40257 -0.04100
 H518 H 0.19299 0.34507 -0.07093
 N519 N -0.15861 0.38824 0.06760
 N520 N -0.17355 0.35642 0.08350
 C521 C -0.14026 0.33244 0.08935
 C522 C -0.10237 0.34968 0.07609
 C523 C -0.11565 0.38506 0.06242
 H524 H -0.06988 0.33831 0.07676
 H525 H -0.17765 0.41171 0.06038
 H526 H -0.20592 0.35169 0.09090
 N527 N -0.06924 0.60638 -0.15327
 N528 N -0.07713 0.63901 -0.17131
 C529 C -0.07753 0.66704 -0.14352
 C530 C -0.06902 0.65166 -0.10608
 C531 C -0.06406 0.61304 -0.11369
 H532 H -0.06747 0.66630 -0.07741
 H533 H -0.06724 0.58005 -0.16797
 H534 H -0.08329 0.64168 -0.20197
 N535 N 0.11314 0.61641 0.09484
 N536 N 0.12813 0.65032 0.10521
 C537 C 0.09777 0.67641 0.09683
 C538 C 0.06195 0.65866 0.07998
 C539 C 0.07328 0.62055 0.07916
 H540 H 0.03246 0.67161 0.06921
 H541 H 0.13054 0.59108 0.09739
 H542 H 0.15846 0.65533 0.11808
 N543 N 0.43245 1.12480 0.87962
 N544 N 0.39967 1.14290 0.86294
 C545 C 0.36370 1.12141 0.86682
 C546 C 0.37387 1.08832 0.88675
 C547 C 0.41766 1.09176 0.89475
 H548 H 0.35194 1.06614 0.89657
 H549 H 0.46374 1.13586 0.88231
 H550 H 0.40179 1.16996 0.85024
 N551 N 0.29856 0.98313 1.04259
 N552 N 0.26247 0.97071 1.05911
 C553 C 0.27016 0.93650 1.07555
 C554 C 0.31300 0.92669 1.06966
 C555 C 0.32986 0.95721 1.04878
 H556 H 0.32967 0.90149 1.07989
 H557 H 0.30184 1.00940 1.02834
 H558 H 0.23321 0.98547 1.05899
 N559 N 0.64993 1.01862 1.13674
 N560 N 0.68469 1.03518 1.15192
 C561 C 0.68401 1.07250 1.14266
 C562 C 0.64664 1.08016 1.12106
 C563 C 0.62610 1.04501 1.11782
 H564 H 0.63838 1.10627 1.10581
 H565 H 0.64397 0.98930 1.13737
 H566 H 0.70943 1.02052 1.16645
 N567 N 0.66335 0.88059 0.99095
 N568 N 0.69635 0.86372 0.97335
 C569 C 0.68974 0.86372 0.93343
 C570 C 0.65028 0.88077 0.92520
 C571 C 0.63476 0.89117 0.96268
 H572 H 0.63650 0.88727 0.89620
 H573 H 0.66140 0.88606 1.02172
 H574 H 0.72369 0.85406 0.98855
   
