data_POSCAR
  _audit_creation_date              2014-09-24
  _audit_creation_method            'ToBaCCo'
  _symmetry_space_group_name_H-M    'P1'
  _symmetry_Int_Tables_number       1
  _symmetry_cell_setting            triclinic
  loop_
  _symmetry_equiv_pos_as_xyz
 x,y,z
_cell_length_a 19.0631
_cell_length_b 19.1020
_cell_length_c 18.9726
_cell_angle_alpha 89.953700
_cell_angle_beta 89.874900
_cell_angle_gamma 90.044900
loop_
  _atom_site_label
  _atom_site_type_symbol
  _atom_site_fract_x
  _atom_site_fract_y
  _atom_site_fract_z
C1 C 0.28778 1.06368 -0.47262
 C2 C 0.29102 1.06181 -0.54475
 C3 C 0.35811 1.03954 -0.56220
 N4 N 0.39630 1.02924 -0.50322
 C5 C 0.35344 1.04406 -0.44841
 C6 C 0.38054 1.02089 -0.63083
 C7 C 0.45211 1.00948 -0.64726
 C8 C 0.47592 0.97361 -0.70620
 C9 C 0.54776 0.97378 -0.70307
 C10 C 0.56614 1.00987 -0.64235
 N11 N 0.50745 1.03148 -0.60852
 C12 C 0.63602 1.02265 -0.62042
 C13 C 0.65246 1.04174 -0.55040
 C14 C 0.71727 1.06574 -0.52756
 C15 C 0.71422 1.06752 -0.45529
 C16 C 0.64745 1.04553 -0.43665
 N17 N 0.60978 1.03002 -0.49479
 C18 C 0.62528 1.03044 -0.36733
 C19 C 0.55411 1.01976 -0.34950
 C20 C 0.53033 0.99403 -0.28539
 C21 C 0.45829 0.99537 -0.28781
 C22 C 0.44007 1.02084 -0.35380
 N23 N 0.49876 1.03652 -0.39063
 C24 C 0.37080 1.03285 -0.37704
 H25 H 0.24181 1.07654 -0.44172
 H26 H 0.24812 1.07295 -0.58030
 H27 H 0.50076 1.06364 -0.43815
 H28 H 0.44474 0.94871 -0.74668
 H29 H 0.58252 0.94911 -0.74077
 H30 H 0.76278 1.07789 -0.55954
 H31 H 0.75688 1.08106 -0.42034
 H32 H 0.42358 0.97957 -0.24550
 H33 H 0.50544 1.06434 -0.56478
 H34 H 0.56152 0.97672 -0.24109
 C35 C -0.46115 1.28457 0.05239
 C36 C -0.53304 1.28475 0.05024
 C37 C -0.55294 1.34997 0.02496
 N38 N -0.49563 1.39020 0.01367
 C39 C -0.43954 1.35039 0.03060
 C40 C -0.62240 1.36967 0.00707
 C41 C -0.64025 1.44027 -0.00754
 C42 C -0.69957 1.46139 -0.04411
 C43 C -0.69832 1.53326 -0.04604
 C44 C -0.63827 1.55425 -0.01073
 N45 N -0.60302 1.49727 0.01250
 C46 C -0.62011 1.62475 0.00295
 C47 C -0.55206 1.64551 0.02399
 C48 C -0.53373 1.71238 0.04537
 C49 C -0.46198 1.71329 0.05106
 C50 C -0.43871 1.64641 0.03446
 N51 N -0.49403 1.60541 0.01743
 C52 C -0.36739 1.62603 0.02755
 C53 C -0.34677 1.55554 0.01524
 C54 C -0.27931 1.53403 -0.00234
 C55 C -0.28004 1.46218 -0.00448
 C56 C -0.34763 1.44126 0.01246
 N57 N -0.38767 1.49834 0.02526
 C58 C -0.36906 1.37078 0.02077
 H59 H -0.42865 1.24082 0.06795
 H60 H -0.56677 1.24114 0.06379
 H61 H -0.43761 1.49784 0.04719
 H62 H -0.73938 1.42843 -0.06754
 H63 H -0.73733 1.56631 -0.07067
 H64 H -0.56818 1.75666 0.05352
 H65 H -0.43071 1.75869 0.06415
 H66 H -0.23521 1.42920 -0.01546
 H67 H -0.56012 1.49747 0.04634
 H68 H -0.23345 1.56627 -0.01105
 C69 C 0.03752 0.28347 0.54309
 C70 C 0.04047 0.28256 0.47094
 C71 C 0.01890 0.34815 0.44837
 N72 N 0.00301 0.38912 0.50424
 C73 C 0.01413 0.34957 0.56221
 C74 C 0.00911 0.36760 0.37711
 C75 C 0.00135 0.43838 0.35605
 C76 C -0.02241 0.46004 0.29046
 C77 C -0.02009 0.53189 0.29020
 C78 C 0.00413 0.55232 0.35591
 N79 N 0.01759 0.49505 0.39558
 C80 C 0.01700 0.62236 0.37580
 C81 C 0.02740 0.64416 0.44601
 C82 C 0.04549 0.71153 0.46605
 C83 C 0.04445 0.71251 0.53832
 C84 C 0.02587 0.64559 0.56011
 N85 N 0.01496 0.60418 0.50344
 C86 C 0.01228 0.62558 0.63072
 C87 C -0.00489 0.55598 0.65045
 C88 C -0.03311 0.53635 0.71507
 C89 C -0.03741 0.46465 0.71509
 C90 C -0.01025 0.44191 0.65119
 N91 N 0.00939 0.49791 0.61210
 C92 C -0.00139 0.37070 0.63201
 H93 H 0.05032 0.24019 0.57759
 H94 H 0.05590 0.23847 0.43865
 H95 H 0.03830 0.49610 0.56564
 H96 H -0.03963 0.42749 0.24714
 H97 H -0.03462 0.56523 0.24646
 H98 H 0.05680 0.75574 0.43214
 H99 H 0.05439 0.75788 0.57095
 H100 H -0.05743 0.43285 0.75789
 H101 H 0.04323 0.49452 0.44386
 H102 H -0.04848 0.56982 0.75836
 O103 O -0.18109 1.00018 -0.08598
 O104 O 0.17858 0.99974 -0.10169
 O105 O -0.00763 1.09312 -0.17751
 O106 O 0.00178 0.90308 -0.17920
 O107 O 0.00327 0.81692 -0.09384
 O108 O -0.00349 1.17799 -0.09109
 O109 O 0.08946 1.00135 -0.18402
 O110 O -0.09827 0.99914 -0.17480
 Zr111 Zr -0.00156 0.99789 -0.12136
 O112 O 0.06504 0.93424 -0.06479
 O113 O -0.06257 1.06114 -0.05831
 C114 C -0.16236 1.00048 -0.15180
 C115 C 0.15482 1.00270 -0.16589
 C116 C -0.00845 1.15765 -0.15618
 C117 C 0.00400 0.83826 -0.15858
 H118 H 0.09162 1.09171 -0.09296
 O119 O 0.06359 1.06067 -0.06244
 H120 H -0.09337 0.90373 -0.08854
 O121 O -0.06258 0.93375 -0.05950
 O122 O 0.18687 0.99769 0.09175
 O123 O -0.17348 0.99473 0.10458
 O124 O 0.09950 1.17728 0.00086
 O125 O 0.09908 0.81756 -0.00639
 O126 O -0.09134 0.81682 0.00770
 O127 O -0.09122 1.17746 0.00568
 O128 O 0.00964 1.08980 0.18462
 O129 O 0.00773 0.89956 0.18168
 O130 O 0.00790 1.17647 0.09975
 O131 O 0.00706 0.81493 0.09485
 O132 O 0.18448 1.09155 -0.00010
 O133 O -0.17697 1.09183 0.00813
 O134 O -0.17701 0.90220 0.01285
 O135 O 0.18436 0.90322 -0.00832
 O136 O 0.10361 0.99925 0.18009
 O137 O -0.08492 0.99386 0.18707
 Zr138 Zr 0.12686 0.99743 -0.00237
 Zr139 Zr -0.12015 0.99680 0.00698
 Zr140 Zr 0.00359 1.12051 0.00377
 Zr141 Zr 0.00369 0.87378 0.00105
 Zr142 Zr 0.00755 0.99579 0.12600
 O143 O -0.05799 0.93261 0.06800
 O144 O 0.06953 1.06035 0.06474
 C145 C 0.16783 0.99810 0.15768
 C146 C -0.15045 0.99357 0.16893
 C147 C 0.16451 1.15639 -0.00109
 C148 C 0.16388 0.83845 -0.01031
 C149 C -0.15593 0.83768 0.01312
 C150 C -0.15592 1.15646 0.00699
 C151 C 0.00850 1.15482 0.16464
 C152 C 0.00819 0.83507 0.15997
 H153 H -0.08669 1.08888 0.09980
 O154 O -0.05763 1.05939 0.06853
 H155 H 0.10022 0.90357 0.09101
 O156 O 0.06895 0.93354 0.06263
 C157 C 0.28206 1.04088 0.20169
 C158 C 0.33389 1.04667 0.25296
 C159 C 0.32949 1.00879 0.31631
 C160 C 0.27365 0.96013 0.32545
 C161 C 0.21985 0.95555 0.27406
 C162 C 0.22368 0.99745 0.21200
 C163 C 0.16534 0.90705 0.28576
 N164 N 0.16572 0.86536 0.34357
 N165 N 0.21736 0.86807 0.39045
 C166 C 0.27159 0.91328 0.38300
 H167 H 0.28636 1.07270 0.15456
 H168 H 0.37658 1.08320 0.24418
 H169 H 0.12334 0.89993 0.24894
 H170 H 0.31306 0.91131 0.42167
 C171 C -0.25997 1.04292 0.21585
 C172 C -0.31147 1.05083 0.26699
 C173 C -0.30916 1.01264 0.33014
 C174 C -0.25377 0.96368 0.34059
 C175 C -0.20020 0.95680 0.28882
 C176 C -0.20369 0.99690 0.22576
 C177 C -0.14668 0.90756 0.30086
 N178 N -0.14760 0.86721 0.35961
 N179 N -0.19887 0.87204 0.40699
 C180 C -0.25224 0.91813 0.39917
 H181 H -0.26347 1.07436 0.16839
 H182 H -0.35330 1.08808 0.25754
 H183 H -0.10485 0.89931 0.26378
 H184 H -0.29340 0.91769 0.43835
 C185 C -0.26820 1.05632 -0.20158
 C186 C -0.31784 1.06512 -0.25464
 C187 C -0.32039 1.01915 -0.31212
 C188 C -0.27270 0.96227 -0.31532
 C189 C -0.22096 0.95457 -0.26234
 C190 C -0.21828 1.00272 -0.20553
 C191 C -0.17483 0.89735 -0.26693
 N192 N -0.18019 0.85138 -0.32106
 N193 N -0.22903 0.85833 -0.37057
 C194 C -0.27570 0.91180 -0.36934
 H195 H -0.26755 1.09281 -0.15800
 H196 H -0.35461 1.10819 -0.25098
 H197 H -0.13542 0.88795 -0.22740
 H198 H -0.31500 0.91375 -0.41024
 C199 C 0.23914 0.95422 -0.25170
 C200 C 0.29133 0.96167 -0.30248
 C201 C 0.31296 1.02824 -0.32470
 C202 C 0.27892 1.08837 -0.29778
 C203 C 0.22374 1.08054 -0.24830
 C204 C 0.20619 1.01290 -0.22290
 C205 C 0.18832 1.14107 -0.22562
 N206 N 0.20892 1.20497 -0.24906
 N207 N 0.26225 1.21238 -0.29390
 C208 C 0.29807 1.15633 -0.31892
 H209 H 0.22449 0.90229 -0.23481
 H210 H 0.31618 0.91521 -0.32368
 H211 H 0.14494 1.13833 -0.18922
 H212 H 0.34078 1.16532 -0.35546
 C213 C 0.21085 1.27198 0.03530
 C214 C 0.26212 1.32389 0.03758
 C215 C 0.32521 1.31702 -0.00014
 C216 C 0.33432 1.25798 -0.04477
 C217 C 0.28233 1.20438 -0.04661
 C218 C 0.22037 1.21101 -0.00463
 C219 C 0.29288 1.14751 -0.09240
 N220 N 0.35043 1.14439 -0.13383
 N221 N 0.39961 1.19672 -0.13266
 C222 C 0.39351 1.25507 -0.08940
 H223 H 0.16388 1.27882 0.06674
 H224 H 0.25339 1.36893 0.07118
 H225 H 0.25522 1.10630 -0.09804
 H226 H 0.42031 1.22479 -0.12818
 C227 C 0.21143 0.72512 0.03017
 C228 C 0.26411 0.67507 0.03530
 C229 C 0.32463 0.67946 -0.00645
 C230 C 0.33080 0.73474 -0.05608
 C231 C 0.27876 0.78792 -0.05866
 C232 C 0.21890 0.78353 -0.01396
 C233 C 0.28755 0.84227 -0.10795
 N234 N 0.34382 0.84273 -0.15177
 N235 N 0.39184 0.79226 -0.15009
 C236 C 0.38703 0.73810 -0.10417
 H237 H 0.16511 0.71900 0.06258
 H238 H 0.25766 0.63236 0.07238
 H239 H 0.24958 0.88345 -0.11359
 H240 H 0.42689 0.69794 -0.10618
 C241 C -0.22996 0.74636 -0.04023
 C242 C -0.28197 0.69522 -0.03680
 C243 C -0.31510 0.67867 0.02738
 C244 C -0.29496 0.71521 0.08939
 C245 C -0.24291 0.76826 0.08540
 C246 C -0.21029 0.78343 0.02005
 C247 C -0.22423 0.80365 0.14757
 N248 N -0.25518 0.78629 0.20958
 N249 N -0.30322 0.73579 0.21363
 C250 C -0.32387 0.69944 0.15588
 H251 H -0.20538 0.75770 -0.09054
 H252 H -0.29670 0.66827 -0.08481
 H253 H -0.18486 0.84441 0.14753
 H254 H -0.36260 0.65853 0.16244
 C255 C -0.23680 1.23298 0.07290
 C256 C -0.28809 1.28489 0.07634
 C257 C -0.31501 1.31489 0.01463
 C258 C -0.28919 1.29263 -0.05180
 C259 C -0.23575 1.24127 -0.05510
 C260 C -0.21023 1.21091 0.00777
 C261 C -0.20955 1.22192 -0.12158
 N262 N -0.23637 1.25135 -0.18074
 N263 N -0.28740 1.29885 -0.17776
 C264 C -0.31479 1.32043 -0.11542
 H265 H -0.21726 1.21021 0.12139
 H266 H -0.30722 1.30167 0.12740
 H267 H -0.16834 1.18343 -0.12695
 H268 H -0.35615 1.35915 -0.11615
 C269 C 0.05428 1.26338 0.21829
 C270 C 0.05414 1.31546 0.26958
 C271 C 0.00530 1.31447 0.32517
 C272 C -0.04673 1.26094 0.32669
 C273 C -0.04685 1.20832 0.27386
 C274 C 0.00534 1.20881 0.22033
 C275 C -0.10150 1.15872 0.27452
 N276 N -0.15162 1.16098 0.32521
 N277 N -0.15160 1.21021 0.37474
 C278 C -0.10151 1.26054 0.37685
 H279 H 0.09369 1.26513 0.17713
 H280 H 0.09380 1.35608 0.26687
 H281 H -0.10613 1.11939 0.23425
 H282 H -0.10600 1.30046 0.41690
 C283 C 0.03452 1.26899 -0.20561
 C284 C 0.03646 1.32095 -0.25691
 C285 C -0.00859 1.31865 -0.31531
 C286 C -0.05921 1.26400 -0.31973
 C287 C -0.06104 1.21096 -0.26730
 C288 C -0.01252 1.21290 -0.21062
 C289 C -0.11348 1.15931 -0.27200
 N290 N -0.16046 1.16068 -0.32546
 N291 N -0.15914 1.21063 -0.37433
 C292 C -0.11068 1.26254 -0.37302
 H293 H 0.07166 1.27159 -0.16251
 H294 H 0.07521 1.36223 -0.25217
 H295 H -0.11920 1.11916 -0.23270
 H296 H -0.11379 1.30277 -0.41295
 C297 C -0.05319 0.75384 -0.23829
 C298 C -0.05127 0.70225 -0.29007
 C299 C 0.01294 0.67782 -0.31676
 C300 C 0.07649 0.70602 -0.29007
 C301 C 0.07423 0.75913 -0.23797
 C302 C 0.00878 0.78385 -0.21312
 C303 C 0.13792 0.78485 -0.21126
 N304 N 0.19965 0.75885 -0.23536
 N305 N 0.20190 0.70894 -0.28426
 C306 C 0.14257 0.68158 -0.31237
 H307 H -0.10345 0.76997 -0.21733
 H308 H -0.10033 0.68093 -0.30933
 H309 H 0.13913 0.82506 -0.17119
 H310 H 0.14755 0.64065 -0.35142
 C311 C -0.04829 0.75857 0.24820
 C312 C -0.04605 0.70802 0.30103
 C313 C 0.01753 0.67644 0.31963
 C314 C 0.07994 0.69571 0.28418
 C315 C 0.07772 0.74754 0.23085
 C316 C 0.01307 0.77984 0.21375
 C317 C 0.14067 0.76550 0.19663
 N318 N 0.20150 0.73368 0.21510
 N319 N 0.20353 0.68497 0.26531
 C320 C 0.14487 0.66487 0.30047
 H321 H -0.09836 0.78079 0.23376
 H322 H -0.09428 0.69288 0.32725
 H323 H 0.14223 0.80498 0.15587
 H324 H 0.14950 0.62507 0.34079
   
