data_POSCAR
  _audit_creation_date              2014-09-24
  _audit_creation_method            'ToBaCCo'
  _symmetry_space_group_name_H-M    'P1'
  _symmetry_Int_Tables_number       1
  _symmetry_cell_setting            triclinic
  loop_
  _symmetry_equiv_pos_as_xyz
 x,y,z
_cell_length_a 29.7764
_cell_length_b 43.5053
_cell_length_c 37.8149
_cell_angle_alpha 89.973800
_cell_angle_beta 89.915500
_cell_angle_gamma 90.149000
loop_
  _atom_site_label
  _atom_site_type_symbol
  _atom_site_fract_x
  _atom_site_fract_y
  _atom_site_fract_z
O1 O 0.25939 0.27460 0.20250
 O2 O 0.30284 0.21546 0.26277
 O3 O 0.25128 0.21506 0.20676
 O4 O 0.30901 0.27485 0.25897
 O5 O 0.24875 0.27962 0.29250
 O6 O 0.19126 0.22018 0.24035
 O7 O 0.24250 0.21998 0.29627
 O8 O 0.19917 0.27960 0.23602
 Cu9 Cu 0.28662 0.24440 0.22936
 Cu10 Cu 0.21439 0.25027 0.26964
 C11 C 0.22196 0.28734 0.20898
 C12 C 0.28040 0.20775 0.28996
 C13 C 0.21114 0.20749 0.21446
 C14 C 0.28866 0.28748 0.28469
 O15 O 0.68820 0.28228 0.25679
 O16 O 0.73621 0.22532 0.19518
 O17 O 0.68531 0.22273 0.25153
 O18 O 0.73645 0.28504 0.19959
 O19 O 0.79838 0.28139 0.23113
 O20 O 0.74564 0.22055 0.28520
 O21 O 0.79618 0.22169 0.22911
 O22 O 0.75019 0.28048 0.28861
 Cu23 Cu 0.70542 0.25404 0.22249
 Cu24 Cu 0.77866 0.25075 0.26184
 C25 C 0.71132 0.29137 0.28304
 C26 C 0.77444 0.21370 0.20176
 C27 C 0.70642 0.21112 0.27742
 C28 C 0.77628 0.29385 0.20618
 O29 O 0.80667 0.71917 0.75895
 O30 O 0.74568 0.77629 0.70574
 O31 O 0.80433 0.77862 0.75658
 O32 O 0.74788 0.71625 0.70795
 O33 O 0.69263 0.71661 0.74686
 O34 O 0.74952 0.77861 0.79579
 O35 O 0.69079 0.77639 0.74496
 O36 O 0.75134 0.71874 0.79782
 Cu37 Cu 0.78154 0.74753 0.72829
 Cu38 Cu 0.71556 0.74756 0.77527
 C39 C 0.78955 0.70930 0.78759
 C40 C 0.70794 0.78629 0.71634
 C41 C 0.78675 0.78928 0.78465
 C42 C 0.71056 0.70577 0.71905
 O43 O 0.25435 0.71955 0.70671
 O44 O 0.19224 0.77805 0.75707
 O45 O 0.24602 0.77887 0.70221
 O46 O 0.20114 0.71891 0.76134
 O47 O 0.25975 0.72452 0.79627
 O48 O 0.30368 0.78542 0.73801
 O49 O 0.25037 0.78399 0.79254
 O50 O 0.31308 0.72618 0.74140
 Cu51 Cu 0.21761 0.74830 0.72828
 Cu52 Cu 0.28753 0.75562 0.77063
 C53 C 0.29445 0.71300 0.71525
 C54 C 0.21051 0.79084 0.78362
 C55 C 0.28264 0.79233 0.70993
 C56 C 0.22269 0.71138 0.78900
 C57 C 1.02071 0.02490 0.01516
 C58 C 0.97372 0.02186 0.01934
 C59 C 0.95050 -0.00045 -0.00017
 C60 C 0.97297 -0.01953 -0.02425
 C61 C 1.02010 -0.01662 -0.02843
 C62 C 1.04323 0.00580 -0.00886
 H63 H 1.07942 0.00768 -0.01138
 H64 H 0.91436 -0.00239 0.00271
 C65 C 0.52315 0.51293 0.52866
 C66 C 0.47565 0.51360 0.53092
 C67 C 0.45035 0.49315 0.51024
 C68 C 0.47115 0.47230 0.48729
 C69 C 0.51862 0.47113 0.48561
 C70 C 0.54399 0.49180 0.50593
 H71 H 0.58035 0.49087 0.50479
 H72 H 0.41398 0.49413 0.51118
 C73 C -0.01559 0.47776 0.02092
 C74 C 0.03180 0.48044 0.02177
 C75 C 0.05341 0.50101 -0.00120
 C76 C 0.02872 0.51965 -0.02433
 C77 C -0.01884 0.51830 -0.02378
 C78 C -0.04032 0.49707 -0.00142
 H79 H -0.07667 0.49554 -0.00140
 H80 H 0.08977 0.50247 -0.00111
 C81 C 0.48087 0.98567 0.52783
 C82 C 0.52788 0.98195 0.52476
 C83 C 0.55220 1.00127 0.50202
 C84 C 0.53072 1.02419 0.48226
 C85 C 0.48364 1.02807 0.48548
 C86 C 0.45935 1.00872 0.50830
 H87 H 0.42331 1.01153 0.51080
 H88 H 0.58825 0.99842 0.49964
 C89 C 1.14379 0.17700 0.20242
 C90 C 1.12079 0.15536 0.18203
 C91 C 1.14144 0.14146 0.15280
 C92 C 1.18628 0.14918 0.14483
 C93 C 1.20940 0.17087 0.16523
 C94 C 1.18840 0.18524 0.19424
 C95 C 1.11536 0.11859 0.13214
 C96 C 1.12505 0.11062 0.09870
 C97 C 1.09791 0.08830 0.07805
 C98 C 1.10023 0.08918 0.04095
 C99 C 1.07518 0.06859 0.02050
 C100 C 1.04734 0.04672 0.03680
 C101 C 1.04571 0.04526 0.07384
 C102 C 1.07078 0.06577 0.09431
 H103 H 1.12633 0.18734 0.22456
 H104 H 1.08646 0.14964 0.18899
 H105 H 1.20399 0.13827 0.12326
 H106 H 1.24380 0.17630 0.15820
 H107 H 1.08554 0.10932 0.14461
 H108 H 1.15240 0.12195 0.08503
 H109 H 1.12121 0.10603 0.02774
 H110 H 1.07716 0.06991 -0.00807
 H111 H 1.02534 0.02800 0.08691
 H112 H 1.06936 0.06341 0.12275
 C113 C 0.64404 0.67154 0.70881
 C114 C 0.62223 0.64822 0.69005
 C115 C 0.64341 0.63361 0.66146
 C116 C 0.68754 0.64247 0.65250
 C117 C 0.70925 0.66593 0.67114
 C118 C 0.68769 0.68080 0.69942
 C119 C 0.61845 0.60914 0.64231
 C120 C 0.62944 0.59904 0.60989
 C121 C 0.60289 0.57577 0.59016
 C122 C 0.60757 0.57438 0.55323
 C123 C 0.58231 0.55353 0.53337
 C124 C 0.55183 0.53364 0.55008
 C125 C 0.54822 0.53409 0.58707
 C126 C 0.57355 0.55489 0.60699
 H127 H 0.62652 0.68245 0.73053
 H128 H 0.58845 0.64175 0.69776
 H129 H 0.70585 0.63123 0.63150
 H130 H 0.74311 0.67228 0.66354
 H131 H 0.58832 0.60051 0.65490
 H132 H 0.65731 0.60947 0.59595
 H133 H 0.63027 0.58989 0.53960
 H134 H 0.58572 0.55341 0.50485
 H135 H 0.52552 0.51845 0.60048
 H136 H 0.57019 0.55427 0.63545
 C137 C -0.22928 0.33262 0.15954
 C138 C -0.20982 0.35583 0.13903
 C139 C -0.16460 0.36384 0.14355
 C140 C -0.13942 0.34894 0.16986
 C141 C -0.15901 0.32605 0.19081
 C142 C -0.20414 0.31732 0.18572
 C143 C -0.14485 0.38810 0.12092
 C144 C -0.10207 0.38722 0.10999
 C145 C -0.08224 0.41062 0.08623
 C146 C -0.04775 0.40182 0.06311
 C147 C -0.02719 0.42342 0.04108
 C148 C -0.03977 0.45449 0.04253
 C149 C -0.07465 0.46333 0.06534
 C150 C -0.09575 0.44160 0.08704
 H151 H -0.26418 0.32683 0.15488
 H152 H -0.22994 0.36721 0.11912
 H153 H -0.10474 0.35522 0.17459
 H154 H -0.13854 0.31506 0.21080
 H155 H -0.16699 0.40584 0.11105
 H156 H -0.08141 0.36766 0.11691
 H157 H -0.03680 0.37811 0.06201
 H158 H -0.00096 0.41597 0.02319
 H159 H -0.08474 0.48719 0.06698
 H160 H -0.12159 0.44924 0.10514
 C161 C 0.28543 0.81861 0.65098
 C162 C 0.30500 0.83964 0.62758
 C163 C 0.34030 0.85874 0.63866
 C164 C 0.35602 0.85624 0.67360
 C165 C 0.33685 0.83495 0.69686
 C166 C 0.30145 0.81584 0.68578
 C167 C 0.36182 0.87960 0.61272
 C168 C 0.38132 0.90621 0.62194
 C169 C 0.40481 0.92631 0.59628
 C170 C 0.40653 0.95808 0.60257
 C171 C 0.43024 0.97751 0.57972
 C172 C 0.45346 0.96534 0.55067
 C173 C 0.45175 0.93362 0.54420
 C174 C 0.42763 0.91422 0.56679
 H175 H 0.25844 0.80403 0.64158
 H176 H 0.29263 0.84095 0.60070
 H177 H 0.38401 0.87000 0.68273
 H178 H 0.35006 0.83326 0.72346
 H179 H 0.36023 0.87319 0.58508
 H180 H 0.37887 0.91417 0.64901
 H181 H 0.38957 0.96786 0.62528
 H182 H 0.43146 1.00194 0.58517
 H183 H 0.46963 0.92386 0.52192
 H184 H 0.42804 0.88975 0.56171
 C185 C -0.13924 0.68231 -0.19630
 C186 C -0.11511 0.66201 -0.17496
 C187 C -0.13672 0.64541 -0.14806
 C188 C -0.18297 0.64982 -0.14246
 C189 C -0.20701 0.67048 -0.16349
 C190 C -0.18538 0.68692 -0.19064
 C191 C -0.10974 0.62489 -0.12530
 C192 C -0.12639 0.59940 -0.11022
 C193 C -0.09878 0.57906 -0.08772
 C194 C -0.10735 0.54734 -0.08759
 C195 C -0.08139 0.52757 -0.06686
 C196 C -0.04683 0.53929 -0.04549
 C197 C -0.03942 0.57118 -0.04459
 C198 C -0.06487 0.59087 -0.06569
 H199 H -0.12156 0.69482 -0.21684
 H200 H -0.07943 0.65919 -0.17955
 H201 H -0.20041 0.63796 -0.12133
 H202 H -0.24250 0.67365 -0.15841
 H203 H -0.07436 0.63021 -0.12239
 H204 H -0.16044 0.59222 -0.11607
 H205 H -0.13366 0.53779 -0.10405
 H206 H -0.08793 0.50309 -0.06782
 H207 H -0.01394 0.58086 -0.02747
 H208 H -0.05850 0.61534 -0.06426
 C209 C 0.27177 1.17089 0.34061
 C210 C 0.28978 1.14931 0.36406
 C211 C 0.33546 1.14159 0.36246
 C212 C 0.36259 1.15513 0.33625
 C213 C 0.34450 1.17636 0.31255
 C214 C 0.29898 1.18464 0.31461
 C215 C 0.35365 1.11860 0.38746
 C216 C 0.39608 1.11969 0.39923
 C217 C 0.41556 1.09631 0.42312
 C218 C 0.45138 1.10473 0.44518
 C219 C 0.47253 1.08284 0.46642
 C220 C 0.45904 1.05191 0.46523
 C221 C 0.42269 1.04352 0.44366
 C222 C 0.40114 1.06548 0.42274
 H223 H 0.23652 1.17667 0.34271
 H224 H 0.26814 1.13889 0.38377
 H225 H 0.39764 1.14899 0.33362
 H226 H 0.36630 1.18647 0.29273
 H227 H 0.33089 1.10117 0.39744
 H228 H 0.41723 1.13900 0.39199
 H229 H 0.46317 1.12830 0.44586
 H230 H 0.49999 1.08994 0.48331
 H231 H 0.41189 1.01976 0.44222
 H232 H 0.37439 1.05802 0.40540
 C233 C 1.13803 -0.18439 -0.19881
 C234 C 1.11358 -0.16392 -0.17786
 C235 C 1.13551 -0.14467 -0.15364
 C236 C 1.18247 -0.14655 -0.15035
 C237 C 1.20689 -0.16733 -0.17094
 C238 C 1.18492 -0.18648 -0.19537
 C239 C 1.10837 -0.12414 -0.13096
 C240 C 1.12360 -0.09713 -0.11881
 C241 C 1.09636 -0.07696 -0.09577
 C242 C 1.10219 -0.04500 -0.09783
 C243 C 1.07718 -0.02541 -0.07617
 C244 C 1.04633 -0.03748 -0.05167
 C245 C 1.04153 -0.06951 -0.04883
 C246 C 1.06600 -0.08908 -0.07085
 H247 H 1.12011 -0.19902 -0.21720
 H248 H 1.07739 -0.16308 -0.18061
 H249 H 1.20029 -0.13260 -0.13125
 H250 H 1.24296 -0.16852 -0.16760
 H251 H 1.07404 -0.13096 -0.12544
 H252 H 1.15615 -0.08873 -0.12730
 H253 H 1.12579 -0.03518 -0.11655
 H254 H 1.08170 -0.00079 -0.07866
 H255 H 1.01907 -0.07942 -0.02935
 H256 H 1.06189 -0.11366 -0.06774
 C257 C 0.72141 0.33072 0.33068
 C258 C 0.70415 0.35302 0.35353
 C259 C 0.65803 0.35941 0.35404
 C260 C 0.62952 0.34371 0.33050
 C261 C 0.64687 0.32173 0.30728
 C262 C 0.69294 0.31485 0.30731
 C263 C 0.64080 0.38306 0.37864
 C264 C 0.60002 0.38112 0.39349
 C265 C 0.58227 0.40437 0.41836
 C266 C 0.55074 0.39516 0.44385
 C267 C 0.53141 0.41666 0.46660
 C268 C 0.54225 0.44799 0.46360
 C269 C 0.57444 0.45723 0.43858
 C270 C 0.59428 0.43563 0.41609
 H271 H 0.75713 0.32611 0.33109
 H272 H 0.72679 0.36505 0.37118
 H273 H 0.59396 0.34872 0.32958
 H274 H 0.62416 0.30998 0.28945
 H275 H 0.66334 0.40148 0.38621
 H276 H 0.57948 0.36097 0.38864
 H277 H 0.54095 0.37123 0.44610
 H278 H 0.50725 0.40892 0.48612
 H279 H 0.58313 0.48130 0.43573
 H280 H 0.61774 0.44362 0.39621
 C281 C 0.85060 -0.17583 -0.20784
 C282 C 0.87270 -0.15283 -0.18878
 C283 C 0.85366 -0.14056 -0.15792
 C284 C 0.81126 -0.15137 -0.14692
 C285 C 0.78922 -0.17451 -0.16585
 C286 C 0.80864 -0.18719 -0.19652
 C287 C 0.87881 -0.11627 -0.13862
 C288 C 0.87068 -0.10844 -0.10487
 C289 C 0.89686 -0.08491 -0.08521
 C290 C 0.89464 -0.08492 -0.04810
 C291 C 0.91897 -0.06348 -0.02835
 C292 C 0.94613 -0.04162 -0.04534
 C293 C 0.94760 -0.04095 -0.08242
 C294 C 0.92313 -0.06230 -0.10223
 H295 H 0.86673 -0.18479 -0.23136
 H296 H 0.90509 -0.14477 -0.19809
 H297 H 0.79448 -0.14189 -0.12406
 H298 H 0.75676 -0.18231 -0.15642
 H299 H 0.90662 -0.10572 -0.15251
 H300 H 0.84535 -0.12079 -0.09002
 H301 H 0.87436 -0.10181 -0.03428
 H302 H 0.91725 -0.06427 0.00025
 H303 H 0.96768 -0.02382 -0.09601
 H304 H 0.92458 -0.06061 -0.13071
 C305 C 0.35701 0.31851 0.29989
 C306 C 0.37866 0.34089 0.32023
 C307 C 0.35550 0.35663 0.34701
 C308 C 0.30970 0.35000 0.35247
 C309 C 0.28811 0.32755 0.33223
 C310 C 0.31155 0.31146 0.30583
 C311 C 0.38009 0.38005 0.36799
 C312 C 0.36667 0.38994 0.39993
 C313 C 0.39255 0.41232 0.42141
 C314 C 0.38607 0.41273 0.45821
 C315 C 0.41087 0.43271 0.47957
 C316 C 0.44257 0.45268 0.46447
 C317 C 0.44779 0.45329 0.42759
 C318 C 0.42302 0.43335 0.40621
 H319 H 0.37599 0.30662 0.27967
 H320 H 0.41381 0.34572 0.31522
 H321 H 0.29008 0.36230 0.37191
 H322 H 0.25290 0.32292 0.33716
 H323 H 0.41182 0.38800 0.35737
 H324 H 0.33718 0.37994 0.41211
 H325 H 0.36242 0.39708 0.47054
 H326 H 0.40621 0.43204 0.50798
 H327 H 0.47144 0.46904 0.41542
 H328 H 0.42769 0.43469 0.37789
 C329 C 0.22883 0.67963 -0.15775
 C330 C 0.21087 0.65757 -0.13481
 C331 C 0.16903 0.64391 -0.14168
 C332 C 0.14526 0.65304 -0.17208
 C333 C 0.16329 0.67494 -0.19515
 C334 C 0.20525 0.68870 -0.18826
 C335 C 0.15070 0.62147 -0.11573
 C336 C 0.11712 0.60177 -0.12293
 C337 C 0.09707 0.58014 -0.09682
 C338 C 0.06769 0.55727 -0.10930
 C339 C 0.04617 0.53726 -0.08585
 C340 C 0.05340 0.53979 -0.04933
 C341 C 0.08325 0.56217 -0.03667
 C342 C 0.10464 0.58236 -0.06009
 H343 H 0.26116 0.68963 -0.15136
 H344 H 0.22977 0.65121 -0.11148
 H345 H 0.11225 0.64403 -0.17793
 H346 H 0.14379 0.68142 -0.21813
 H347 H 0.16661 0.62095 -0.09008
 H348 H 0.10378 0.60076 -0.14947
 H349 H 0.06101 0.55504 -0.13734
 H350 H 0.02342 0.51998 -0.09614
 H351 H 0.08896 0.56460 -0.00853
 H352 H 0.12598 0.59996 -0.04897
 C353 C 0.63974 1.17865 0.29300
 C354 C 0.61907 1.15586 0.31336
 C355 C 0.64292 1.14042 0.33996
 C356 C 0.68851 1.14790 0.34521
 C357 C 0.70913 1.17087 0.32494
 C358 C 0.68492 1.18657 0.29871
 C359 C 0.61887 1.11668 0.36104
 C360 C 0.63352 1.10564 0.39210
 C361 C 0.60770 1.08342 0.41402
 C362 C 0.61761 1.08133 0.45024
 C363 C 0.59317 1.06161 0.47222
 C364 C 0.55828 1.04359 0.45839
 C365 C 0.54931 1.04466 0.42201
 C366 C 0.57383 1.06432 0.39995
 H367 H 0.62014 1.19025 0.27295
 H368 H 0.58408 1.15047 0.30850
 H369 H 0.70873 1.13601 0.36454
 H370 H 0.74415 1.17620 0.32968
 H371 H 0.58637 1.10952 0.35128
 H372 H 0.66420 1.11456 0.40343
 H373 H 0.64380 1.09546 0.46172
 H374 H 0.60072 1.06095 0.50023
 H375 H 0.52306 1.03044 0.41077
 H376 H 0.56623 1.06421 0.37201
 C377 C 0.23068 0.32123 0.15578
 C378 C 0.21439 0.34373 0.13278
 C379 C 0.17207 0.35702 0.13830
 C380 C 0.14596 0.34691 0.16717
 C381 C 0.16230 0.32446 0.19023
 C382 C 0.20482 0.31136 0.18478
 C383 C 0.15557 0.38006 0.11249
 C384 C 0.12333 0.40057 0.11998
 C385 C 0.10398 0.42259 0.09410
 C386 C 0.07324 0.44451 0.10662
 C387 C 0.05111 0.46414 0.08326
 C388 C 0.05915 0.46222 0.04680
 C389 C 0.09104 0.44128 0.03415
 C390 C 0.11306 0.42146 0.05747
 H391 H 0.26354 0.31154 0.15077
 H392 H 0.23499 0.35081 0.11057
 H393 H 0.11249 0.35565 0.17171
 H394 H 0.14136 0.31712 0.21211
 H395 H 0.17163 0.38022 0.08686
 H396 H 0.11011 0.40156 0.14662
 H397 H 0.06549 0.44599 0.13457
 H398 H 0.02673 0.48030 0.09351
 H399 H 0.09742 0.43938 0.00602
 H400 H 0.13587 0.40485 0.04628
 C401 C 0.64058 0.81933 0.70515
 C402 C 0.61818 0.84184 0.68562
 C403 C 0.63838 0.85529 0.65581
 C404 C 0.68197 0.84593 0.64616
 C405 C 0.70429 0.82331 0.66561
 C406 C 0.68389 0.80979 0.69534
 C407 C 0.61352 0.87961 0.63649
 C408 C 0.62316 0.88842 0.60330
 C409 C 0.59819 0.91273 0.58409
 C410 C 0.60094 0.91359 0.54701
 C411 C 0.57829 0.93617 0.52779
 C412 C 0.55245 0.95836 0.54529
 C413 C 0.55035 0.95805 0.58235
 C414 C 0.57305 0.93552 0.60163
 H415 H 0.62395 0.80944 0.72797
 H416 H 0.58484 0.84875 0.69386
 H417 H 0.69952 0.85633 0.62415
 H418 H 0.73784 0.81672 0.65759
 H419 H 0.58498 0.88961 0.64992
 H420 H 0.64907 0.87654 0.58868
 H421 H 0.62043 0.89658 0.53284
 H422 H 0.58048 0.93613 0.49919
 H423 H 0.53137 0.97542 0.59637
 H424 H 0.57137 0.93649 0.63016
 C425 C 0.77805 0.18765 0.14266
 C426 C 0.79840 0.16705 0.11922
 C427 C 0.83460 0.14883 0.13022
 C428 C 0.85057 0.15187 0.16501
 C429 C 0.83068 0.17274 0.18826
 C430 C 0.79426 0.19089 0.17734
 C431 C 0.85666 0.12816 0.10447
 C432 C 0.87629 0.10173 0.11399
 C433 C 0.89994 0.08161 0.08857
 C434 C 0.90061 0.04978 0.09458
 C435 C 0.92392 0.03028 0.07167
 C436 C 0.94788 0.04242 0.04292
 C437 C 0.94754 0.07424 0.03693
 C438 C 0.92370 0.09371 0.05951
 H439 H 0.75026 0.20150 0.13342
 H440 H 0.78582 0.16531 0.09242
 H441 H 0.87921 0.13878 0.17406
 H442 H 0.84403 0.17480 0.21479
 H443 H 0.85527 0.13445 0.07677
 H444 H 0.87359 0.09386 0.14109
 H445 H 0.88292 0.04000 0.11698
 H446 H 0.92402 0.00577 0.07673
 H447 H 0.96594 0.08398 0.01485
 H448 H 0.92484 0.11823 0.05470
 C449 C 0.36645 0.68717 0.69821
 C450 C 0.39044 0.66620 0.67755
 C451 C 0.36816 0.64736 0.65309
 C452 C 0.32139 0.65025 0.64917
 C453 C 0.29747 0.67144 0.66952
 C454 C 0.31972 0.69010 0.69429
 C455 C 0.39469 0.62591 0.63106
 C456 C 0.37803 0.59927 0.61897
 C457 C 0.40427 0.57785 0.59671
 C458 C 0.39464 0.54631 0.59837
 C459 C 0.41814 0.52549 0.57723
 C460 C 0.45133 0.53588 0.55365
 C461 C 0.46020 0.56754 0.55129
 C462 C 0.43715 0.58834 0.57279
 H463 H 0.38459 0.70139 0.71687
 H464 H 0.42650 0.66459 0.68078
 H465 H 0.30332 0.63670 0.62984
 H466 H 0.26153 0.67329 0.66575
 H467 H 0.42956 0.63165 0.62612
 H468 H 0.34470 0.59204 0.62700
 H469 H 0.36912 0.53773 0.61631
 H470 H 0.41053 0.50119 0.57935
 H471 H 0.48468 0.57620 0.53255
 H472 H 0.44429 0.61262 0.56997
   
