data_POSCAR
  _audit_creation_date              2014-09-24
  _audit_creation_method            'ToBaCCo'
  _symmetry_space_group_name_H-M    'P1'
  _symmetry_Int_Tables_number       1
  _symmetry_cell_setting            triclinic
  loop_
  _symmetry_equiv_pos_as_xyz
 x,y,z
_cell_length_a 33.6163
_cell_length_b 34.8710
_cell_length_c 32.1142
_cell_angle_alpha 89.608700
_cell_angle_beta 91.901800
_cell_angle_gamma 92.159900
loop_
  _atom_site_label
  _atom_site_type_symbol
  _atom_site_fract_x
  _atom_site_fract_y
  _atom_site_fract_z
N1 N 0.59286 0.70504 0.62059
 N2 N 0.57080 0.68681 0.64796
 C3 C 0.54110 0.70929 0.65848
 C4 C 0.54498 0.74368 0.63690
 C5 C 0.57797 0.73975 0.61276
 H6 H 0.51782 0.70105 0.67957
 H7 H 0.58948 0.76002 0.59009
 Cu8 Cu 0.58192 0.63474 0.66557
 Cu9 Cu 0.63888 0.68187 0.59702
 Cu10 Cu 0.63733 0.58246 0.60436
 N11 N 0.59509 0.58251 0.68059
 N12 N 0.61597 0.56182 0.65591
 C13 C 0.61933 0.52647 0.67235
 C14 C 0.59918 0.52455 0.70948
 C15 C 0.58481 0.56114 0.71386
 H16 H 0.63711 0.50465 0.65922
 H17 H 0.56731 0.57123 0.73893
 N18 N 0.67041 0.61185 0.56492
 N19 N 0.67201 0.64971 0.56316
 C20 C 0.69835 0.66120 0.53455
 C21 C 0.71375 0.62900 0.51712
 C22 C 0.69580 0.59824 0.53755
 H23 H 0.70603 0.69081 0.52715
 H24 H 0.70121 0.56819 0.53307
 H25 H 0.60545 0.63256 0.59451
 H26 H 0.64704 0.63289 0.63448
 N27 N 0.92198 0.31562 0.10422
 N28 N 0.94031 0.33038 0.13743
 C29 C 0.97227 0.30952 0.14729
 C30 C 0.97457 0.28031 0.11821
 C31 C 0.94114 0.28468 0.09222
 H32 H 0.99317 0.31608 0.17278
 H33 H 0.93065 0.26629 0.06693
 Cu34 Cu 0.92106 0.37622 0.16323
 Cu35 Cu 0.87758 0.33985 0.07564
 Cu36 Cu 0.84633 0.42448 0.11751
 N37 N 0.90103 0.42213 0.18813
 N38 N 0.87368 0.44210 0.16863
 C39 C 0.86687 0.47342 0.19112
 C40 C 0.89117 0.47324 0.22678
 C41 C 0.91185 0.43971 0.22420
 H42 H 0.84535 0.49459 0.18250
 H43 H 0.93262 0.42855 0.24724
 N44 N 0.82216 0.40156 0.06631
 N45 N 0.83356 0.36888 0.05095
 C46 C 0.81092 0.36024 0.01669
 C47 C 0.78428 0.38899 0.00994
 C48 C 0.79179 0.41444 0.04230
 H49 H 0.81307 0.33461 -0.00174
 H50 H 0.77592 0.44018 0.04801
 H51 H 0.89321 0.39482 0.09529
 H52 H 0.85646 0.36707 0.12715
 N53 N 0.41907 0.18787 -0.09224
 N54 N 0.44169 0.16813 -0.11614
 C55 C 0.47453 0.18960 -0.12485
 C56 C 0.47258 0.22456 -0.10496
 C57 C 0.43656 0.22266 -0.08521
 H58 H 0.49805 0.18059 -0.14434
 H59 H 0.42385 0.24508 -0.06738
 Cu60 Cu 0.42568 0.11674 -0.13463
 Cu61 Cu 0.36954 0.16644 -0.07065
 Cu62 Cu 0.33485 0.07968 -0.11177
 N63 N 0.40166 0.07288 -0.16431
 N64 N 0.36645 0.05821 -0.15494
 C65 C 0.35665 0.02895 -0.18087
 C66 C 0.38705 0.02553 -0.20834
 C67 C 0.41540 0.05354 -0.19667
 H68 H 0.32899 0.01210 -0.18065
 H69 H 0.44359 0.05971 -0.21106
 N70 N 0.30733 0.10645 -0.06799
 N71 N 0.32030 0.13982 -0.05264
 C72 C 0.29504 0.15089 -0.02373
 C73 C 0.26446 0.12347 -0.02129
 C74 C 0.27345 0.09545 -0.04933
 H75 H 0.29847 0.17697 -0.00573
 H76 H 0.25663 0.06892 -0.05537
 H77 H 0.37984 0.10872 -0.07768
 H78 H 0.35767 0.13434 -0.12386
 N79 N 0.07692 0.81126 0.39242
 N80 N 0.06184 0.82642 0.35817
 C81 C 0.02992 0.80494 0.34491
 C82 C 0.02524 0.77358 0.37147
 C83 C 0.05530 0.77930 0.40189
 H84 H 0.01077 0.81265 0.31872
 H85 H 0.06204 0.76076 0.42809
 Cu86 Cu 0.08591 0.87171 0.33250
 Cu87 Cu 0.12479 0.83294 0.42052
 Cu88 Cu 0.16175 0.91978 0.38248
 N89 N 0.10153 0.92393 0.31746
 N90 N 0.13016 0.94323 0.33787
 C91 C 0.13422 0.97856 0.32097
 C92 C 0.10653 0.98162 0.28822
 C93 C 0.08688 0.94599 0.28652
 H94 H 0.15629 1.00016 0.33113
 H95 H 0.06447 0.93634 0.26363
 N96 N 0.18878 0.89121 0.42764
 N97 N 0.17324 0.85945 0.44391
 C98 C 0.19756 0.84761 0.47517
 C99 C 0.23098 0.87213 0.47763
 C100 C 0.22393 0.89980 0.44736
 H101 H 0.19128 0.82298 0.49480
 H102 H 0.24317 0.92432 0.44014
 H103 H 0.11220 0.88815 0.40160
 H104 H 0.14873 0.86212 0.37037
 C105 C 0.08274 0.15662 0.12480
 C106 C 0.11328 0.15464 0.09620
 C107 C 0.13920 0.12415 0.09759
 C108 C 0.13556 0.09605 0.12868
 C109 C 0.10601 0.09818 0.15845
 C110 C 0.08026 0.12909 0.15683
 H111 H 0.11647 0.17651 0.07227
 H112 H 0.15555 0.07236 0.12947
 H113 H 0.05777 0.13132 0.18001
 C114 C 0.42495 0.85882 0.63037
 C115 C 0.39391 0.85606 0.60007
 C116 C 0.36018 0.87847 0.60275
 C117 C 0.35936 0.90597 0.63445
 C118 C 0.39112 0.91024 0.66366
 C119 C 0.42315 0.88581 0.66241
 H120 H 0.39574 0.83581 0.57482
 H121 H 0.33411 0.92422 0.63643
 H122 H 0.44685 0.88811 0.68608
 C123 C 0.90343 0.65399 0.37530
 C124 C 0.90836 0.62102 0.35150
 C125 C 0.88227 0.58883 0.35479
 C126 C 0.85046 0.59019 0.38198
 C127 C 0.84485 0.62325 0.40543
 C128 C 0.87178 0.65482 0.40257
 H129 H 0.93244 0.62068 0.32990
 H130 H 0.82953 0.56592 0.38423
 H131 H 0.86759 0.68025 0.42090
 C132 C 0.58471 0.35333 -0.12456
 C133 C 0.62000 0.35491 -0.09990
 C134 C 0.64929 0.38380 -0.10627
 C135 C 0.64362 0.41094 -0.13809
 C136 C 0.60923 0.40879 -0.16400
 C137 C 0.57964 0.38022 -0.15687
 H138 H 0.62470 0.33363 -0.07564
 H139 H 0.66620 0.43337 -0.14305
 H140 H 0.55278 0.37892 -0.17652
 C141 C 0.01079 0.23044 0.08014
 C142 C 0.00339 0.25166 0.11683
 C143 C 0.02413 0.24199 0.15403
 C144 C 0.04913 0.21105 0.15604
 C145 C 0.05380 0.18783 0.12134
 C146 C 0.03325 0.19660 0.08336
 C147 C -0.00113 0.24303 0.03979
 C148 C 0.00283 0.21989 0.00504
 C149 C 0.01949 0.18417 0.00951
 C150 C 0.03479 0.17262 0.04822
 H151 H -0.01206 0.27138 0.03425
 H152 H -0.00714 0.22972 -0.02546
 H153 H 0.02164 0.16583 -0.01732
 H154 H 0.04784 0.14483 0.05032
 H155 H 0.02016 0.25749 0.18257
 H156 H 0.06488 0.20506 0.18521
 C157 C 0.52815 0.81468 0.63499
 C158 C 0.51634 0.77509 0.63568
 C159 C 0.47568 0.76459 0.63415
 C160 C 0.44689 0.79213 0.63166
 C161 C 0.45758 0.83129 0.63029
 C162 C 0.49852 0.84291 0.63101
 C163 C 0.56856 0.82705 0.63924
 C164 C 0.57969 0.86591 0.63679
 C165 C 0.55094 0.89319 0.63033
 C166 C 0.51072 0.88196 0.62749
 H167 H 0.59192 0.80712 0.64520
 H168 H 0.61082 0.87490 0.63982
 H169 H 0.55983 0.92326 0.62789
 H170 H 0.48942 0.90411 0.62226
 H171 H 0.46595 0.73462 0.63453
 H172 H 0.41578 0.78273 0.63129
 C173 C 0.97544 0.73099 0.33195
 C174 C 0.99575 0.74341 0.36964
 C175 C 0.98488 0.72559 0.40730
 C176 C 0.95411 0.69788 0.40856
 C177 C 0.93249 0.68695 0.37241
 C178 C 0.94209 0.70450 0.33392
 C179 C 0.98893 0.74162 0.29206
 C180 C 0.96704 0.73131 0.25596
 C181 C 0.93187 0.70932 0.25855
 C182 C 0.91959 0.69565 0.29706
 H183 H 1.01729 0.75639 0.28791
 H184 H 0.97758 0.74024 0.22579
 H185 H 0.91467 0.70184 0.23049
 H186 H 0.89250 0.67792 0.29766
 H187 H 0.99943 0.73377 0.43664
 H188 H 0.94739 0.68445 0.43817
 C189 C 0.51253 0.28129 -0.07253
 C190 C 0.50142 0.25776 -0.10732
 C191 C 0.51728 0.26662 -0.14619
 C192 C 0.54333 0.29813 -0.15126
 C193 C 0.55413 0.32225 -0.11777
 C194 C 0.53775 0.31462 -0.07823
 C195 C 0.50019 0.27203 -0.03192
 C196 C 0.50963 0.29651 0.00140
 C197 C 0.53169 0.33046 -0.00487
 C198 C 0.54573 0.33954 -0.04421
 H199 H 0.48392 0.24558 -0.02514
 H200 H 0.49965 0.28913 0.03224
 H201 H 0.53838 0.34966 0.02098
 H202 H 0.56263 0.36631 -0.04766
 H203 H 0.50925 0.24908 -0.17311
 H204 H 0.55566 0.30342 -0.18161
 C205 C 0.06678 0.02271 0.23659
 C206 C 0.10317 0.01369 0.25764
 C207 C 0.13829 0.03379 0.24694
 C208 C 0.13826 0.06110 0.21523
 C209 C 0.10336 0.06869 0.19206
 C210 C 0.06726 0.04872 0.20206
 C211 C 0.02975 0.00703 0.24934
 C212 C -0.00522 0.01359 0.22628
 C213 C -0.00410 0.03594 0.19030
 C214 C 0.03169 0.05339 0.17817
 H215 H 0.02722 -0.00970 0.27761
 H216 H -0.03329 0.00101 0.23623
 H217 H -0.03120 0.04021 0.17197
 H218 H 0.03111 0.07021 0.14979
 H219 H 0.16643 0.02770 0.26252
 H220 H 0.16606 0.07619 0.20836
 C221 C 0.59928 0.45443 -0.27267
 C222 C 0.59709 0.49388 -0.26145
 C223 C 0.59504 0.50296 -0.21893
 C224 C 0.59883 0.47500 -0.18814
 C225 C 0.60429 0.43678 -0.19844
 C226 C 0.60448 0.42604 -0.24087
 C227 C 0.59384 0.44192 -0.31436
 C228 C 0.59791 0.40356 -0.32481
 C229 C 0.60653 0.37662 -0.29404
 C230 C 0.60949 0.38754 -0.25238
 H231 H 0.58484 0.46111 -0.33913
 H232 H 0.59406 0.39464 -0.35696
 H233 H 0.60999 0.34693 -0.30237
 H234 H 0.61539 0.36550 -0.22938
 H235 H 0.59287 0.53234 -0.20885
 H236 H 0.59819 0.48343 -0.15575
 C237 C 0.39568 1.00881 0.71557
 C238 C 0.38850 0.99763 0.75733
 C239 C 0.38223 0.95867 0.76698
 C240 C 0.38371 0.93073 0.73637
 C241 C 0.39111 0.94096 0.69510
 C242 C 0.39749 0.98014 0.68432
 C243 C 0.40001 1.04782 0.70378
 C244 C 0.40761 1.05819 0.66271
 C245 C 0.41074 1.03011 0.63255
 C246 C 0.40567 0.99143 0.64306
 H247 H 0.39706 1.07070 0.72583
 H248 H 0.41102 1.08820 0.65422
 H249 H 0.41684 1.03835 0.60077
 H250 H 0.40822 0.97055 0.61862
 H251 H 0.37651 0.94975 0.79868
 H252 H 0.37872 0.90085 0.74486
 C253 C 0.92622 0.51318 0.28510
 C254 C 0.89138 0.50138 0.26146
 C255 C 0.85483 0.51668 0.27113
 C256 C 0.85230 0.54365 0.30249
 C257 C 0.88600 0.55562 0.32642
 C258 C 0.92298 0.53880 0.31923
 C259 C 0.96448 0.50142 0.27498
 C260 C 0.99781 0.51124 0.30023
 C261 C 0.99390 0.53324 0.33570
 C262 C 0.95693 0.54705 0.34517
 H263 H 0.96946 0.48544 0.24714
 H264 H 1.02683 0.50162 0.29227
 H265 H 1.01975 0.54019 0.35560
 H266 H 0.95518 0.56408 0.37303
 H267 H 0.82778 0.50809 0.25386
 H268 H 0.82377 0.55612 0.30724
 C269 C 0.19070 0.11560 -0.00624
 C270 C 0.23085 0.12320 0.00732
 C271 C 0.23965 0.13028 0.04960
 C272 C 0.20970 0.12952 0.07851
 C273 C 0.17000 0.12172 0.06602
 C274 C 0.16019 0.11403 0.02356
 C275 C 0.17987 0.11061 -0.04880
 C276 C 0.14038 0.10234 -0.06135
 C277 C 0.11094 0.09901 -0.03196
 C278 C 0.12062 0.10475 0.01012
 H279 H 0.20148 0.11360 -0.07287
 H280 H 0.13259 0.09843 -0.09406
 H281 H 0.08041 0.09218 -0.04184
 H282 H 0.09695 0.10157 0.03200
 H283 H 0.27013 0.13619 0.06043
 H284 H 0.21747 0.13556 0.11088
 C285 C 0.74476 0.64982 0.44878
 C286 C 0.74528 0.62760 0.48604
 C287 C 0.77710 0.60358 0.49455
 C288 C 0.80886 0.60237 0.46794
 C289 C 0.80991 0.62523 0.43202
 C290 C 0.77757 0.64888 0.42179
 C291 C 0.71183 0.67189 0.43685
 C292 C 0.71184 0.69348 0.40014
 C293 C 0.74418 0.69309 0.37426
 C294 C 0.77666 0.67083 0.38466
 H295 H 0.68541 0.67210 0.45506
 H296 H 0.68640 0.71029 0.39151
 H297 H 0.74387 0.70971 0.34567
 H298 H 0.80069 0.67064 0.36309
 H299 H 0.77782 0.58618 0.52262
 H300 H 0.83323 0.58387 0.47578
 C301 C 0.75757 0.38287 -0.06494
 C302 C 0.75166 0.38990 -0.02211
 C303 C 0.71320 0.39606 -0.00875
 C304 C 0.68061 0.39402 -0.03655
 C305 C 0.68541 0.38600 -0.07869
 C306 C 0.72405 0.38025 -0.09333
 C307 C 0.79605 0.37905 -0.08042
 C308 C 0.80121 0.37105 -0.12235
 C309 C 0.76835 0.36688 -0.14965
 C310 C 0.73008 0.37143 -0.13545
 H311 H 0.82250 0.38272 -0.06060
 H312 H 0.83089 0.36804 -0.13370
 H313 H 0.77255 0.36034 -0.18208
 H314 H 0.70541 0.36786 -0.15774
 H315 H 0.70817 0.40149 0.02380
 H316 H 0.65121 0.39853 -0.02504
 C317 C 0.28054 0.83661 0.52506
 C318 C 0.26546 0.87116 0.50800
 C319 C 0.28240 0.90636 0.52185
 C320 C 0.31282 0.90796 0.55227
 C321 C 0.32655 0.87450 0.57141
 C322 C 0.30917 0.83841 0.55891
 C323 C 0.26872 0.80024 0.50880
 C324 C 0.28082 0.76664 0.52840
 C325 C 0.30507 0.76853 0.56429
 C326 C 0.31922 0.80397 0.57949
 H327 H 0.25101 0.79722 0.48029
 H328 H 0.27106 0.73900 0.51584
 H329 H 0.31355 0.74237 0.58002
 H330 H 0.33778 0.80401 0.60762
 H331 H 0.27178 0.93316 0.50936
 H332 H 0.32573 0.93581 0.56099
   
