data_POSCAR
  _audit_creation_date              2014-09-24
  _audit_creation_method            'ToBaCCo'
  _symmetry_space_group_name_H-M    'P1'
  _symmetry_Int_Tables_number       1
  _symmetry_cell_setting            triclinic
  loop_
  _symmetry_equiv_pos_as_xyz
 x,y,z
_cell_length_a 47.4941
_cell_length_b 38.9090
_cell_length_c 20.8913
_cell_angle_alpha 90.099000
_cell_angle_beta 89.936700
_cell_angle_gamma 128.209000
loop_
  _atom_site_label
  _atom_site_type_symbol
  _atom_site_fract_x
  _atom_site_fract_y
  _atom_site_fract_z
C1 C 0.47915 0.90695 0.56081
 C2 C 0.46861 0.88473 0.50202
 C3 C 0.48097 0.90702 0.44386
 C4 C 0.50391 0.95320 0.44313
 C5 C 0.51424 0.97664 0.50163
 C6 C 0.50157 0.95352 0.56065
 C7 C 0.50869 0.97736 0.61711
 C8 C 0.52964 1.02262 0.61647
 C9 C 0.54468 1.04655 0.55936
 C10 C 0.53589 1.02322 0.50094
 C11 C 0.51528 0.97634 0.38521
 C12 C 0.53605 1.02167 0.38448
 C13 C 0.54725 1.04607 0.44170
 C14 C 0.56674 1.09224 0.44123
 C15 C 0.57400 1.11428 0.49957
 C16 C 0.56527 1.09283 0.55873
 H17 H 0.49683 0.96131 0.66238
 H18 H 0.53249 1.03844 0.66127
 H19 H 0.50722 0.95947 0.33963
 H20 H 0.54197 1.03705 0.33816
 H21 H 0.45164 0.84926 0.50124
 H22 H 0.59011 1.14967 0.49898
 C23 C -0.08390 0.45328 0.44287
 C24 C -0.10051 0.44839 0.50114
 C25 C -0.08489 0.45136 0.55996
 C26 C -0.05008 0.46265 0.56035
 C27 C -0.03215 0.46988 0.50144
 C28 C -0.04926 0.46471 0.44257
 C29 C -0.03090 0.47231 0.38493
 C30 C 0.00360 0.48487 0.38493
 C31 C 0.02143 0.49116 0.44260
 C32 C 0.00334 0.48327 0.50139
 C33 C -0.03170 0.46982 0.61788
 C34 C 0.00272 0.48218 0.61774
 C35 C 0.02101 0.48980 0.56013
 C36 C 0.05662 0.50409 0.55970
 C37 C 0.07371 0.51071 0.50131
 C38 C 0.05696 0.50528 0.44304
 H39 H -0.04280 0.46931 0.33907
 H40 H 0.01627 0.48985 0.33910
 H41 H -0.04327 0.46702 0.66399
 H42 H 0.01498 0.48612 0.66360
 H43 H -0.12729 0.43906 0.50035
 H44 H 0.10130 0.52271 0.50124
 C45 C 0.55468 0.49825 0.44597
 C46 C 0.56719 0.49515 0.50448
 C47 C 0.55566 0.50036 0.56307
 C48 C 0.53333 0.51322 0.56231
 C49 C 0.52135 0.51786 0.50304
 C50 C 0.53180 0.50992 0.44477
 C51 C 0.51930 0.51410 0.38666
 C52 C 0.49641 0.52500 0.38569
 C53 C 0.48577 0.53323 0.44272
 C54 C 0.49851 0.52996 0.50200
 C55 C 0.52392 0.52349 0.61899
 C56 C 0.50098 0.53425 0.61815
 C57 C 0.48817 0.53828 0.56022
 C58 C 0.46385 0.54809 0.55893
 C59 C 0.45034 0.54906 0.49986
 C60 C 0.46206 0.54370 0.44203
 H61 H 0.52708 0.50893 0.34116
 H62 H 0.48683 0.52642 0.33958
 H63 H 0.53429 0.52354 0.66504
 H64 H 0.49310 0.53874 0.66399
 H65 H 0.58342 0.48427 0.50414
 H66 H 0.43244 0.55752 0.49843
 O67 O 0.34615 0.60879 -0.07136
 O68 O 0.35121 0.67877 -0.05457
 C69 C 0.32955 0.68016 -0.08805
 O70 O 0.29654 0.65797 -0.07486
 O71 O 0.23423 0.58362 -0.05366
 C72 C 0.22756 0.55157 -0.08563
 O73 O 0.24199 0.53382 -0.07321
 O74 O 0.29858 0.53921 -0.05495
 C75 C 0.32693 0.56852 -0.08536
 O76 O 0.34641 0.59856 0.05620
 O77 O 0.34895 0.66680 0.07337
 C78 C 0.33365 0.68367 0.08450
 O79 O 0.30697 0.67417 0.05236
 O80 O 0.24607 0.59728 0.07283
 C81 C 0.22816 0.55696 0.08574
 O82 O 0.23160 0.53144 0.05500
 O83 O 0.28981 0.53986 0.07310
 C84 C 0.32286 0.56383 0.08686
 Cr85 Cr 0.34615 0.63679 0.00093
 Cr86 Cr 0.27193 0.62732 -0.00075
 Cr87 Cr 0.26661 0.53850 0.00008
 O88 O 0.29491 0.60081 0.00036
 O89 O 0.64904 0.41566 -0.05350
 O90 O 0.63465 0.34036 -0.07217
 C91 C 0.64506 0.31817 -0.08630
 O92 O 0.66873 0.32002 -0.05421
 O93 O 0.73463 0.38948 -0.07160
 C94 C 0.75641 0.42967 -0.08557
 O95 O 0.75820 0.45922 -0.05492
 O96 O 0.70740 0.46507 -0.07297
 C97 C 0.67500 0.44721 -0.08592
 O98 O 0.64781 0.40375 0.07374
 O99 O 0.63013 0.32657 0.05595
 C100 C 0.64734 0.31685 0.08698
 O101 O 0.67916 0.33222 0.07361
 O102 O 0.74579 0.40009 0.05601
 C103 C 0.75773 0.43496 0.08675
 O104 O 0.74929 0.45926 0.07308
 O105 O 0.70027 0.46891 0.05518
 C106 C 0.67107 0.44405 0.08620
 Cr107 Cr 0.64235 0.37251 0.00102
 Cr108 Cr 0.70650 0.36191 0.00100
 Cr109 Cr 0.72741 0.46067 0.00022
 O110 O 0.69212 0.39837 0.00101
 C111 C 0.43047 0.84524 -0.37612
 C112 C 0.41786 0.81989 -0.32028
 C113 C 0.44207 0.82981 -0.27069
 C114 C 0.47846 0.86543 -0.27753
 C115 C 0.49071 0.89119 -0.33274
 C116 C 0.46685 0.88172 -0.38250
 C117 C 0.42949 0.80405 -0.21512
 C118 C 0.39287 0.76904 -0.20806
 C119 C 0.36860 0.75990 -0.25718
 C120 C 0.38129 0.78507 -0.31316
 C121 C 0.33196 0.72569 -0.24951
 C122 C 0.31938 0.70048 -0.19393
 C123 C 0.34324 0.70860 -0.14523
 C124 C 0.38006 0.74306 -0.15265
 H125 H 0.41165 0.83755 -0.41377
 H126 H 0.49747 0.87339 -0.24019
 H127 H 0.51908 0.91801 -0.33721
 H128 H 0.44812 0.81139 -0.17729
 H129 H 0.36266 0.77775 -0.35097
 H130 H 0.31301 0.71836 -0.28658
 H131 H 0.29093 0.67397 -0.18963
 H132 H 0.39867 0.74979 -0.11524
 C133 C 0.09306 0.49551 -0.36552
 C134 C 0.11555 0.50919 -0.31199
 C135 C 0.12315 0.54412 -0.27382
 C136 C 0.10808 0.56461 -0.28963
 C137 C 0.08598 0.55100 -0.34319
 C138 C 0.07814 0.51627 -0.38119
 C139 C 0.14608 0.55845 -0.22103
 C140 C 0.16180 0.53860 -0.20610
 C141 C 0.15414 0.50358 -0.24395
 C142 C 0.13095 0.48898 -0.29657
 C143 C 0.17010 0.48404 -0.22882
 C144 C 0.19371 0.49932 -0.17708
 C145 C 0.20173 0.53437 -0.13937
 C146 C 0.18540 0.55364 -0.15418
 H147 H 0.08740 0.46909 -0.39543
 H148 H 0.11377 0.59155 -0.26111
 H149 H 0.07525 0.56789 -0.35555
 H150 H 0.15201 0.58536 -0.19200
 H151 H 0.12519 0.46223 -0.32582
 H152 H 0.16454 0.45715 -0.25728
 H153 H 0.20588 0.48386 -0.16690
 H154 H 0.19129 0.58070 -0.12570
 C155 C 0.41678 0.53635 -0.37275
 C156 C 0.40609 0.54660 -0.31808
 C157 C 0.43230 0.58101 -0.27745
 C158 C 0.46872 0.60378 -0.29129
 C159 C 0.47915 0.59244 -0.34465
 C160 C 0.45336 0.55841 -0.38571
 C161 C 0.42171 0.59209 -0.22368
 C162 C 0.38525 0.56844 -0.20902
 C163 C 0.35906 0.53298 -0.24833
 C164 C 0.36962 0.52266 -0.30309
 C165 C 0.32270 0.50845 -0.23215
 C166 C 0.31233 0.51927 -0.17800
 C167 C 0.33808 0.55529 -0.13987
 C168 C 0.37455 0.57967 -0.15557
 H169 H 0.39663 0.51013 -0.40411
 H170 H 0.48916 0.63035 -0.26081
 H171 H 0.50747 0.61105 -0.35482
 H172 H 0.44183 0.61892 -0.19305
 H173 H 0.34951 0.49584 -0.33371
 H174 H 0.30229 0.48101 -0.26149
 H175 H 0.28408 0.50021 -0.16688
 H176 H 0.39460 0.60725 -0.12596
 C177 C 0.57706 0.15306 -0.37598
 C178 C 0.59078 0.17879 -0.32031
 C179 C 0.60794 0.17127 -0.27363
 C180 C 0.61068 0.13780 -0.28309
 C181 C 0.59632 0.11174 -0.33796
 C182 C 0.57893 0.11860 -0.38486
 C183 C 0.62208 0.19730 -0.21828
 C184 C 0.61871 0.23030 -0.20849
 C185 C 0.60086 0.23717 -0.25461
 C186 C 0.58729 0.21164 -0.31041
 C187 C 0.59688 0.26952 -0.24419
 C188 C 0.61068 0.29513 -0.18889
 C189 C 0.62906 0.28922 -0.14312
 C190 C 0.63291 0.25657 -0.15329
 H191 H 0.56370 0.15883 -0.41136
 H192 H 0.62399 0.13178 -0.24807
 H193 H 0.59961 0.08678 -0.34452
 H194 H 0.63551 0.19175 -0.18277
 H195 H 0.57385 0.21720 -0.34593
 H196 H 0.58320 0.27514 -0.27893
 H197 H 0.60750 0.32020 -0.18256
 H198 H 0.64687 0.25153 -0.11827
 C199 C 0.87913 0.46218 -0.37240
 C200 C 0.85838 0.45224 -0.31741
 C201 C 0.85157 0.41965 -0.27483
 C202 C 0.86654 0.39856 -0.28700
 C203 C 0.88814 0.40966 -0.34077
 C204 C 0.89483 0.44169 -0.38396
 C205 C 0.82990 0.40867 -0.22086
 C206 C 0.81581 0.43075 -0.20795
 C207 C 0.82384 0.46457 -0.24915
 C208 C 0.84464 0.47467 -0.30410
 C209 C 0.81088 0.48773 -0.23467
 C210 C 0.78978 0.47714 -0.18031
 C211 C 0.78068 0.44264 -0.14035
 C212 C 0.79384 0.41959 -0.15436
 H213 H 0.88407 0.48695 -0.40526
 H214 H 0.86153 0.37344 -0.25497
 H215 H 0.89882 0.39226 -0.34966
 H216 H 0.82420 0.38317 -0.18876
 H217 H 0.85034 0.50016 -0.33621
 H218 H 0.81696 0.51393 -0.26547
 H219 H 0.77971 0.49513 -0.17042
 H220 H 0.78718 0.39321 -0.12325
 C221 C 0.59944 0.50296 -0.37006
 C222 C 0.60784 0.49016 -0.31516
 C223 C 0.58066 0.46187 -0.27033
 C224 C 0.54569 0.44717 -0.28085
 C225 C 0.53761 0.46036 -0.33523
 C226 C 0.56439 0.48890 -0.38021
 C227 C 0.58878 0.44838 -0.21599
 C228 C 0.62381 0.46306 -0.20564
 C229 C 0.65114 0.49191 -0.24991
 C230 C 0.64297 0.50518 -0.30450
 C231 C 0.68618 0.50679 -0.23900
 C232 C 0.69403 0.49286 -0.18514
 C233 C 0.66695 0.46361 -0.14127
 C234 C 0.63187 0.44905 -0.15182
 H235 H 0.62043 0.52480 -0.40417
 H236 H 0.52445 0.42506 -0.24736
 H237 H 0.51001 0.44701 -0.34311
 H238 H 0.56782 0.42638 -0.18191
 H239 H 0.66390 0.52707 -0.33869
 H240 H 0.70748 0.52898 -0.27235
 H241 H 0.72126 0.50449 -0.17841
 H242 H 0.61072 0.42663 -0.11835
 C243 C 0.88421 0.46896 0.36810
 C244 C 0.86256 0.45842 0.31426
 C245 C 0.85193 0.42234 0.27544
 C246 C 0.86340 0.39770 0.29088
 C247 C 0.88483 0.40835 0.34469
 C248 C 0.89543 0.44403 0.38349
 C249 C 0.82965 0.41114 0.22239
 C250 C 0.81776 0.43544 0.20772
 C251 C 0.82868 0.47173 0.24619
 C252 C 0.85104 0.48303 0.29913
 C253 C 0.81681 0.49597 0.23135
 C254 C 0.79407 0.48420 0.17927
 C255 C 0.78267 0.44790 0.14093
 C256 C 0.79485 0.42377 0.15545
 H257 H 0.89211 0.49624 0.39849
 H258 H 0.85543 0.36990 0.26182
 H259 H 0.89284 0.38843 0.35667
 H260 H 0.82134 0.38332 0.19289
 H261 H 0.85921 0.51072 0.32881
 H262 H 0.82495 0.52391 0.26026
 H263 H 0.78515 0.50341 0.16941
 H264 H 0.78640 0.39577 0.12635
 C265 C 0.57523 0.14880 0.37227
 C266 C 0.58996 0.17531 0.31756
 C267 C 0.61191 0.17232 0.27610
 C268 C 0.61779 0.14186 0.28902
 C269 C 0.60216 0.11467 0.34257
 C270 C 0.58063 0.11768 0.38480
 C271 C 0.62771 0.19988 0.22259
 C272 C 0.62105 0.22959 0.20907
 C273 C 0.59790 0.23130 0.24912
 C274 C 0.58290 0.20459 0.30356
 C275 C 0.59018 0.25979 0.23404
 C276 C 0.60556 0.28675 0.18023
 C277 C 0.62951 0.28636 0.14140
 C278 C 0.63711 0.25761 0.15602
 H279 H 0.55868 0.15149 0.40429
 H280 H 0.63461 0.13920 0.25786
 H281 H 0.60790 0.09220 0.35219
 H282 H 0.64503 0.19808 0.19138
 H283 H 0.56561 0.20642 0.33481
 H284 H 0.57232 0.26131 0.26395
 H285 H 0.59948 0.30880 0.16987
 H286 H 0.65529 0.25684 0.12579
 C287 C 0.59811 0.50690 0.36610
 C288 C 0.60580 0.49114 0.31382
 C289 C 0.57767 0.45159 0.28371
 C290 C 0.54240 0.42892 0.30553
 C291 C 0.53503 0.44488 0.35733
 C292 C 0.56273 0.48383 0.38792
 C293 C 0.58525 0.43499 0.23278
 C294 C 0.62055 0.45745 0.21123
 C295 C 0.64863 0.49740 0.24033
 C296 C 0.64110 0.51396 0.29162
 C297 C 0.68379 0.51997 0.21772
 C298 C 0.69111 0.50295 0.16713
 C299 C 0.66344 0.46285 0.13869
 C300 C 0.62816 0.44038 0.16104
 H301 H 0.61952 0.53677 0.39022
 H302 H 0.52058 0.39858 0.28304
 H303 H 0.50771 0.42648 0.37439
 H304 H 0.56369 0.40445 0.21017
 H305 H 0.66267 0.54440 0.31438
 H306 H 0.70565 0.55070 0.23928
 H307 H 0.71851 0.52086 0.15088
 H308 H 0.60650 0.40962 0.13914
 C309 C 0.09169 0.49628 0.36426
 C310 C 0.11500 0.51141 0.31169
 C311 C 0.12579 0.54977 0.27932
 C312 C 0.11253 0.57176 0.29917
 C313 C 0.08930 0.55640 0.35137
 C314 C 0.07886 0.51877 0.38428
 C315 C 0.15003 0.56590 0.22824
 C316 C 0.16353 0.54411 0.20881
 C317 C 0.15218 0.50524 0.24011
 C318 C 0.12806 0.48920 0.29152
 C319 C 0.16532 0.48322 0.21959
 C320 C 0.18972 0.49973 0.16890
 C321 C 0.20171 0.53881 0.13836
 C322 C 0.18836 0.56075 0.15858
 H323 H 0.08383 0.46743 0.39017
 H324 H 0.12052 0.60116 0.27492
 H325 H 0.07995 0.57434 0.36701
 H326 H 0.15857 0.59556 0.20392
 H327 H 0.11964 0.45965 0.31602
 H328 H 0.15683 0.45331 0.24285
 H329 H 0.19965 0.48227 0.15425
 H330 H 0.19711 0.59068 0.13494
 C331 C 0.43377 0.85753 0.36345
 C332 C 0.42136 0.82914 0.31081
 C333 C 0.44465 0.82335 0.27968
 C334 C 0.48020 0.84697 0.30075
 C335 C 0.49235 0.87532 0.35304
 C336 C 0.46914 0.88039 0.38489
 C337 C 0.43190 0.79366 0.22867
 C338 C 0.39626 0.76991 0.20810
 C339 C 0.37329 0.77660 0.23815
 C340 C 0.38594 0.80603 0.28946
 C341 C 0.33792 0.75352 0.21659
 C342 C 0.32526 0.72376 0.16610
 C343 C 0.34758 0.71611 0.13678
 C344 C 0.38315 0.73943 0.15803
 H345 H 0.41588 0.86143 0.38848
 H346 H 0.49844 0.84304 0.27738
 H347 H 0.51963 0.89263 0.36963
 H348 H 0.44963 0.78883 0.20531
 H349 H 0.36817 0.81072 0.31301
 H350 H 0.32001 0.75836 0.23890
 H351 H 0.29775 0.70613 0.15068
 H352 H 0.40070 0.73411 0.13530
 C353 C 0.41421 0.52803 0.36718
 C354 C 0.40332 0.53862 0.31328
 C355 C 0.42937 0.57409 0.27386
 C356 C 0.46582 0.59805 0.28870
 C357 C 0.47638 0.58743 0.34262
 C358 C 0.45072 0.55238 0.38209
 C359 C 0.41856 0.58547 0.22089
 C360 C 0.38204 0.56199 0.20694
 C361 C 0.35604 0.52627 0.24596
 C362 C 0.36683 0.51476 0.29879
 C363 C 0.31959 0.50284 0.23181
 C364 C 0.30892 0.51487 0.17986
 C365 C 0.33447 0.55063 0.14099
 C366 C 0.37110 0.57393 0.15484
 H367 H 0.39437 0.50128 0.39810
 H368 H 0.48612 0.62540 0.25919
 H369 H 0.50460 0.60700 0.35425
 H370 H 0.43855 0.61285 0.19096
 H371 H 0.34684 0.48753 0.32894
 H372 H 0.29930 0.47535 0.26115
 H373 H 0.28053 0.49631 0.17052
 H374 H 0.39115 0.60149 0.12530
   
