data_POSCAR
  _audit_creation_date              2014-09-24
  _audit_creation_method            'ToBaCCo'
  _symmetry_space_group_name_H-M    'P1'
  _symmetry_Int_Tables_number       1
  _symmetry_cell_setting            triclinic
  loop_
  _symmetry_equiv_pos_as_xyz
 x,y,z
_cell_length_a 18.0034
_cell_length_b 17.9802
_cell_length_c 17.9570
_cell_angle_alpha 90.365500
_cell_angle_beta 89.979300
_cell_angle_gamma 90.048500
loop_
  _atom_site_label
  _atom_site_type_symbol
  _atom_site_fract_x
  _atom_site_fract_y
  _atom_site_fract_z
C1 C 0.50124 0.98305 -0.69889
 C2 C 0.43270 0.98225 -0.66095
 C3 C 0.43338 0.98777 -0.58313
 C4 C 0.50005 1.00110 -0.54353
 C5 C 0.56706 1.00706 -0.58421
 C6 C 0.56904 0.99468 -0.66125
 C7 C 0.49993 1.00801 -0.46020
 C8 C 0.56623 0.99871 -0.41904
 C9 C 0.56701 1.00602 -0.34154
 C10 C 0.49954 1.01766 -0.30389
 C11 C 0.43222 1.02406 -0.34285
 C12 C 0.43341 1.02227 -0.42066
 H13 H 0.50167 0.97612 -0.75882
 H14 H 0.38140 0.98059 -0.55422
 H15 H 0.61833 1.02161 -0.55667
 H16 H 0.61771 0.98384 -0.44599
 H17 H 0.49928 1.02080 -0.24367
 H18 H 0.38182 1.03268 -0.44923
 C19 C -0.69781 1.50051 -0.00315
 C20 C -0.66022 1.43197 -0.00753
 C21 C -0.58250 1.43276 -0.00967
 C22 C -0.54204 1.49971 -0.00048
 C23 C -0.58196 1.56713 0.00753
 C24 C -0.65958 1.56871 0.00284
 C25 C -0.45869 1.49920 0.00077
 C26 C -0.41779 1.56518 -0.01156
 C27 C -0.34026 1.56581 -0.00781
 C28 C -0.30251 1.49840 0.00310
 C29 C -0.34137 1.43136 0.01273
 C30 C -0.41896 1.43275 0.01416
 H31 H -0.75792 1.50074 -0.00412
 H32 H -0.55436 1.38063 -0.01916
 H33 H -0.55352 1.61894 0.01806
 H34 H -0.44506 1.61662 -0.02554
 H35 H -0.24237 1.49806 0.00393
 H36 H -0.44718 1.38152 0.02720
 C37 C -0.00516 0.30222 0.50696
 C38 C -0.01497 0.33720 0.43764
 C39 C -0.02244 0.41486 0.43656
 C40 C -0.01310 0.45824 0.50190
 C41 C -0.00117 0.42109 0.57003
 C42 C 0.00062 0.34360 0.57329
 C43 C -0.01226 0.54165 0.49850
 C44 C -0.02119 0.58516 0.56379
 C45 C -0.01228 0.66268 0.56280
 C46 C -0.00130 0.69752 0.49356
 C47 C 0.00402 0.65608 0.42723
 C48 C 0.00076 0.57861 0.43045
 H49 H -0.00179 0.24217 0.50976
 H50 H -0.03535 0.44084 0.38417
 H51 H 0.00948 0.45125 0.62104
 H52 H -0.03502 0.55938 0.61607
 H53 H 0.00316 0.75752 0.49081
 H54 H 0.01101 0.54828 0.37947
 O55 O -0.10314 1.00241 -0.19045
 O56 O -0.10150 0.99485 0.19235
 O57 O -0.18890 0.89539 -0.00581
 O58 O -0.19015 1.10152 0.00875
 O59 O -0.09772 1.19034 0.01196
 O60 O -0.09546 0.80784 -0.00990
 O61 O -0.18943 0.99657 0.09900
 O62 O -0.19048 0.99868 -0.09659
 Zr63 Zr -0.12925 0.99887 0.00097
 O64 O -0.06629 1.06446 0.07094
 O65 O -0.06615 0.93411 -0.06949
 C66 C -0.17140 0.99932 -0.16574
 C67 C -0.17001 0.99536 0.16800
 C68 C -0.16438 0.82712 -0.01059
 C69 C -0.16637 1.17009 0.01370
 H70 H -0.09610 0.89648 0.09608
 O71 O -0.06510 0.92991 0.06548
 H72 H -0.09868 1.10161 -0.09452
 O73 O -0.06679 1.06885 -0.06418
 O74 O 0.10532 0.99062 0.19116
 O75 O 0.10307 1.01109 -0.19126
 O76 O 0.00676 0.80560 0.09606
 O77 O -0.00319 1.18737 0.11096
 O78 O 0.00356 1.19403 -0.09542
 O79 O -0.00183 0.81226 -0.11029
 O80 O 0.19287 0.89752 -0.00112
 O81 O 0.19159 1.10424 -0.00058
 O82 O 0.09987 0.80939 -0.00528
 O83 O 0.09786 1.19146 0.00449
 O84 O 0.00757 0.89579 0.18807
 O85 O -0.00137 0.90781 -0.19535
 O86 O 0.00413 1.10376 -0.18730
 O87 O -0.00117 1.09188 0.19608
 O88 O 0.19279 0.99437 0.09736
 O89 O 0.19180 1.00877 -0.09864
 Zr90 Zr 0.00179 0.99571 0.13153
 Zr91 Zr 0.00042 1.00387 -0.13063
 Zr92 Zr 0.00188 0.86928 -0.00485
 Zr93 Zr 0.00032 1.13031 0.00556
 Zr94 Zr 0.13191 1.00057 -0.00032
 O95 O 0.06738 1.06934 -0.06446
 O96 O 0.06895 0.93100 0.06468
 C97 C 0.17359 0.98941 0.16632
 C98 C 0.17153 1.01405 -0.16726
 C99 C 0.01046 0.82767 0.16548
 C100 C -0.00407 1.16131 0.17871
 C101 C 0.00679 1.17191 -0.16484
 C102 C -0.00320 0.83834 -0.17803
 C103 C 0.16867 0.82892 -0.00226
 C104 C 0.16680 1.17254 0.00039
 H105 H 0.10054 0.90488 -0.10341
 O106 O 0.06863 0.93513 -0.07016
 H107 H 0.10023 1.09625 0.10294
 O108 O 0.06847 1.06533 0.07014
 N109 N 0.36747 0.97127 0.22365
 C110 C 0.36533 0.97828 0.29870
 N111 N 0.29740 0.98577 0.33209
 N112 N 0.23487 0.98781 0.29167
 C113 C 0.23827 0.98222 0.21624
 N114 N 0.30568 0.97312 0.18368
 N115 N -0.36427 0.98109 0.22464
 C116 C -0.36321 0.99414 0.29888
 N117 N -0.29581 1.00554 0.33233
 N118 N -0.23271 1.00491 0.29264
 C119 C -0.23504 0.99242 0.21796
 N120 N -0.30201 0.98040 0.18542
 N121 N -0.36565 0.99022 -0.22444
 C122 C -0.36257 1.00030 -0.29889
 N123 N -0.29447 1.00777 -0.33164
 N124 N -0.23215 1.00631 -0.29093
 C125 C -0.23614 0.99709 -0.21599
 N126 N -0.30401 0.98861 -0.18418
 N127 N 0.36246 1.04687 -0.22788
 C128 C 0.36108 1.02960 -0.30127
 N129 N 0.29451 1.01150 -0.33305
 N130 N 0.23229 1.00894 -0.29225
 C131 C 0.23482 1.02450 -0.21816
 N132 N 0.30087 1.04437 -0.18746
 N133 N 0.33241 1.29631 -0.00841
 C134 C 0.29908 1.36467 -0.00846
 N135 N 0.22401 1.36729 -0.00638
 N136 N 0.18403 1.30555 -0.00391
 C137 C 0.21660 1.23761 -0.00319
 N138 N 0.29196 1.23374 -0.00592
 N139 N 0.33396 0.70456 0.00641
 C140 C 0.30030 0.63631 0.00339
 N141 N 0.22539 0.63407 -0.00149
 N142 N 0.18583 0.69599 -0.00334
 C143 C 0.21861 0.76386 -0.00062
 N144 N 0.29388 0.76739 0.00458
 N145 N -0.22443 0.63363 -0.02980
 C146 C -0.29795 0.63634 -0.01470
 N147 N -0.32981 0.70414 -0.00187
 N148 N -0.28904 0.76645 -0.00252
 C149 C -0.21494 0.76282 -0.01635
 N150 N -0.18407 0.69534 -0.03062
 N151 N -0.22746 1.36232 0.03956
 C152 C -0.30003 1.36039 0.02029
 N153 N -0.33134 1.29318 0.00327
 N154 N -0.29077 1.23079 0.00358
 C155 C -0.21747 1.23373 0.02132
 N156 N -0.18733 1.30052 0.04005
 N157 N -0.00770 1.21998 0.37428
 C158 C -0.01497 1.29485 0.37106
 N159 N -0.01892 1.32705 0.30241
 N160 N -0.01547 1.28594 0.24007
 C161 C -0.00780 1.21094 0.24431
 N162 N -0.00440 1.17921 0.31258
 N163 N 0.03890 1.23538 -0.35457
 C164 C 0.00996 1.30472 -0.35472
 N165 N -0.01448 1.33437 -0.28893
 N166 N -0.01250 1.29470 -0.22607
 C167 C 0.01469 1.22422 -0.22711
 N168 N 0.04111 1.19622 -0.29232
 N169 N -0.00409 0.77977 -0.37367
 C170 C -0.01232 0.70498 -0.37059
 N171 N -0.01754 0.67278 -0.30202
 N172 N -0.01452 0.71381 -0.23961
 C173 C -0.00602 0.78874 -0.24369
 N174 N -0.00123 0.82046 -0.31189
 N175 N 0.04363 0.76384 0.35486
 C176 C 0.01387 0.69478 0.35519
 N177 N -0.01119 0.66537 0.28954
 N178 N -0.00909 0.70501 0.22669
 C179 C 0.01889 0.77522 0.22754
 N180 N 0.04597 0.80298 0.29258
   
