data_POSCAR
  _audit_creation_date              2014-09-24
  _audit_creation_method            'ToBaCCo'
  _symmetry_space_group_name_H-M    'P1'
  _symmetry_Int_Tables_number       1
  _symmetry_cell_setting            triclinic
  loop_
  _symmetry_equiv_pos_as_xyz
 x,y,z
_cell_length_a 28.9865
_cell_length_b 29.7960
_cell_length_c 30.5622
_cell_angle_alpha 90.128800
_cell_angle_beta 88.922000
_cell_angle_gamma 90.136400
loop_
  _atom_site_label
  _atom_site_type_symbol
  _atom_site_fract_x
  _atom_site_fract_y
  _atom_site_fract_z
C1 C 0.35481 0.34294 1.38989
 C2 C 0.31474 0.36523 1.40393
 C3 C 0.29591 0.39996 1.37871
 C4 C 0.31926 0.41352 1.34030
 C5 C 0.35847 0.39034 1.32512
 C6 C 0.37612 0.35452 1.34971
 C7 C 0.37316 0.30858 1.41520
 C8 C 0.41081 0.28308 1.39990
 C9 C 0.43144 0.29400 1.35885
 C10 C 0.41463 0.33005 1.33398
 C11 C 0.43522 0.34189 1.29348
 C12 C 0.41808 0.37804 1.26897
 C13 C 0.37940 0.40177 1.28508
 H14 H 0.29904 0.35589 1.43505
 H15 H 0.30557 0.44077 1.32098
 H16 H 0.35662 0.30038 1.44634
 H17 H 0.46120 0.27570 1.34660
 H18 H 0.46459 0.32305 1.28096
 H19 H 0.36420 0.42821 1.26593
 C20 C 1.14899 0.66303 0.87824
 C21 C 1.19162 0.64896 0.89550
 C22 C 1.21304 0.60896 0.88031
 C23 C 1.19105 0.58366 0.84778
 C24 C 1.14875 0.59675 0.83089
 C25 C 1.12740 0.63631 0.84628
 C26 C 1.12774 0.70347 0.89192
 C27 C 1.08482 0.71703 0.87448
 C28 C 1.06342 0.68875 0.84401
 C29 C 1.08448 0.64914 0.82940
 C30 C 1.06355 0.62265 0.79730
 C31 C 1.08543 0.58403 0.78088
 C32 C 1.12777 0.57087 0.79836
 H33 H 1.20797 0.66963 0.91991
 H34 H 1.20694 0.55309 0.83539
 H35 H 1.14471 0.72350 0.91639
 H36 H 1.03049 0.69823 0.83047
 H37 H 1.03075 0.63282 0.78401
 H38 H 1.14436 0.54037 0.78691
 C39 C 0.64292 -0.14609 0.11077
 C40 C 0.68689 -0.13157 0.09621
 C41 C 0.70776 -0.09361 0.11521
 C42 C 0.68430 -0.07053 0.14902
 C43 C 0.64049 -0.08433 0.16366
 C44 C 0.61949 -0.12193 0.14415
 C45 C 0.62253 -0.18502 0.09341
 C46 C 0.57865 -0.19987 0.10880
 C47 C 0.55506 -0.17396 0.14046
 C48 C 0.57535 -0.13585 0.15869
 C49 C 0.55271 -0.11256 0.19259
 C50 C 0.57420 -0.07644 0.21345
 C51 C 0.61784 -0.06184 0.19833
 H52 H 0.70513 -0.15061 0.07116
 H53 H 0.70046 -0.04175 0.16427
 H54 H 0.64123 -0.20313 0.06809
 H55 H 0.52128 -0.18454 0.15247
 H56 H 0.51905 -0.12384 0.20420
 H57 H 0.63426 -0.03323 0.21355
 C58 C -0.18604 1.18614 -0.35534
 C59 C -0.22943 1.17751 -0.37296
 C60 C -0.25361 1.13780 -0.36278
 C61 C -0.23419 1.10743 -0.33276
 C62 C -0.19112 1.11608 -0.31429
 C63 C -0.16679 1.15544 -0.32583
 C64 C -0.16148 1.22498 -0.36704
 C65 C -0.11787 1.23366 -0.34950
 C66 C -0.09927 1.20353 -0.31940
 C67 C -0.12330 1.16425 -0.30769
 C68 C -0.10468 1.13381 -0.27794
 C69 C -0.12950 1.09510 -0.26502
 C70 C -0.17226 1.08616 -0.28407
 H71 H -0.24385 1.20134 -0.39573
 H72 H -0.25246 1.07750 -0.32247
 H73 H -0.17660 1.24876 -0.38937
 H74 H -0.06586 1.21052 -0.30549
 H75 H -0.07077 1.14049 -0.26518
 H76 H -0.19131 1.05624 -0.27459
 C77 C 0.66023 0.67465 0.60477
 C78 C 0.69699 0.66116 0.57726
 C79 C 0.72886 0.62929 0.59140
 C80 C 0.72261 0.60936 0.63287
 C81 C 0.68613 0.62245 0.66065
 C82 C 0.65482 0.65535 0.64660
 C83 C 0.62960 0.70801 0.59143
 C84 C 0.59360 0.72315 0.61970
 C85 C 0.58830 0.70298 0.66108
 C86 C 0.61841 0.66924 0.67457
 C87 C 0.61301 0.64960 0.71593
 C88 C 0.64369 0.61622 0.72980
 C89 C 0.68057 0.60333 0.70233
 H90 H 0.70155 0.67623 0.54519
 H91 H 0.74580 0.58330 0.64357
 H92 H 0.63566 0.72261 0.55957
 H93 H 0.56087 0.71398 0.68324
 H94 H 0.58528 0.66075 0.73760
 H95 H 0.70449 0.57795 0.71323
 C96 C 0.83197 0.34841 0.10655
 C97 C 0.79751 0.37461 0.08779
 C98 C 0.77968 0.41287 0.10958
 C99 C 0.79939 0.42580 0.14966
 C100 C 0.83378 0.39959 0.16912
 C101 C 0.84947 0.36029 0.14767
 C102 C 0.84873 0.31006 0.08479
 C103 C 0.88115 0.28173 0.10434
 C104 C 0.89791 0.29353 0.14595
 C105 C 0.88268 0.33279 0.16729
 C106 C 0.90026 0.34486 0.20806
 C107 C 0.88566 0.38416 0.22970
 C108 C 0.85216 0.41147 0.21001
 H109 H 0.78548 0.36500 0.05584
 H110 H 0.78683 0.45555 0.16654
 H111 H 0.83538 0.30151 0.05289
 H112 H 0.92402 0.27349 0.16141
 H113 H 0.92575 0.32352 0.22307
 H114 H 0.83957 0.44126 0.22661
 C115 C 0.34600 0.15599 0.90655
 C116 C 0.31036 0.13026 0.92535
 C117 C 0.28919 0.09546 0.90150
 C118 C 0.30640 0.08538 0.85916
 C119 C 0.34177 0.11131 0.83969
 C120 C 0.36124 0.14712 0.86330
 C121 C 0.36595 0.19116 0.93019
 C122 C 0.39939 0.21891 0.91058
 C123 C 0.41430 0.21036 0.86727
 C124 C 0.39569 0.17432 0.84362
 C125 C 0.41070 0.16525 0.80057
 C126 C 0.39215 0.12918 0.77685
 C127 C 0.35725 0.10257 0.79665
 H128 H 0.29995 0.13746 0.95879
 H129 H 0.29105 0.05831 0.84058
 H130 H 0.35435 0.19801 0.96349
 H131 H 0.44064 0.23145 0.85223
 H132 H 0.43719 0.18617 0.78549
 H133 H 0.34117 0.07569 0.77856
 C134 C 0.18321 0.80329 0.36188
 C135 C 0.22428 0.81904 0.38069
 C136 C 0.25411 0.84776 0.35680
 C137 C 0.24323 0.85981 0.31403
 C138 C 0.20208 0.84566 0.29555
 C139 C 0.17165 0.81764 0.31953
 C140 C 0.15366 0.77338 0.38444
 C141 C 0.11239 0.75785 0.36518
 C142 C 0.10024 0.77496 0.32412
 C143 C 0.12961 0.80420 0.30109
 C144 C 0.11771 0.82009 0.25965
 C145 C 0.14795 0.84847 0.23618
 C146 C 0.19048 0.86011 0.25372
 H147 H 0.23322 0.80855 0.41336
 H148 H 0.26632 0.88170 0.29552
 H149 H 0.16335 0.76281 0.41677
 H150 H 0.06838 0.76424 0.30915
 H151 H 0.08516 0.81025 0.24555
 H152 H 0.21370 0.88205 0.23545
 Zn153 Zn 0.05689 0.97691 0.01726
 Zn154 Zn 0.00712 1.05831 -0.00931
 Zn155 Zn -0.02709 0.96657 -0.03794
 Zn156 Zn -0.03554 0.99774 0.05580
 O157 O 0.00015 0.99968 0.00612
 O158 O 0.10361 1.01494 0.00624
 O159 O -0.01466 1.06804 -0.06191
 O160 O 0.00827 0.91834 -0.05561
 O161 O 0.06602 1.07617 -0.01260
 O162 O 0.06964 0.92917 -0.01478
 O163 O -0.03812 1.00134 -0.08563
 O164 O -0.08832 0.96891 0.04757
 O165 O -0.02119 1.09732 0.02710
 O166 O -0.08302 0.94422 -0.02077
 O167 O -0.05066 1.05185 0.07733
 O168 O -0.00853 0.96928 0.09940
 O169 O 0.06157 0.95724 0.07199
 C170 C 0.10339 1.05540 -0.00648
 C171 C -0.03199 1.04339 -0.09117
 C172 C 0.04823 0.90663 -0.04301
 C173 C -0.10515 0.94782 0.01545
 C174 C -0.04336 1.09104 0.06275
 C175 C 0.03189 0.95395 0.10288
 Zn176 Zn 0.46526 -0.00191 0.45234
 Zn177 Zn 0.46307 -0.04220 0.54099
 Zn178 Zn 0.54677 -0.02347 0.49333
 Zn179 Zn 0.49673 0.05160 0.52978
 O180 O 0.49101 -0.00297 0.50488
 O181 O 0.41267 -0.03358 0.45146
 O182 O 0.49936 -0.09021 0.55169
 O183 O 0.56827 -0.00684 0.44057
 O184 O 0.41151 -0.06444 0.51763
 O185 O 0.50252 -0.02430 0.40990
 O186 O 0.54653 -0.08288 0.49426
 O187 O 0.55504 0.06103 0.54851
 O188 O 0.44538 -0.01601 0.59133
 O189 O 0.58596 -0.00534 0.53324
 O190 O 0.46131 0.05609 0.57913
 O191 O 0.48156 0.09539 0.49148
 O192 O 0.45549 0.05459 0.43587
 C193 C 0.39401 -0.05902 0.48023
 C194 C 0.52982 -0.10618 0.52539
 C195 C 0.54562 -0.01666 0.40678
 C196 C 0.58786 0.03283 0.55143
 C197 C 0.44436 0.02495 0.60319
 C198 C 0.46508 0.09226 0.45311
 Zn199 Zn 1.00540 0.43702 0.46593
 Zn200 Zn 1.06940 0.50296 0.50646
 Zn201 Zn 0.97785 0.53381 0.47372
 Zn202 Zn 0.98506 0.47539 0.55401
 O203 O 1.00921 0.48747 0.49983
 O204 O 1.06094 0.41581 0.44946
 O205 O 1.08180 0.55727 0.48630
 O206 O 0.95287 0.51735 0.42212
 O207 O 1.10777 0.46612 0.47850
 O208 O 0.97400 0.44612 0.41678
 O209 O 1.01488 0.58184 0.46209
 O210 O 0.93783 0.51052 0.56647
 O211 O 1.08755 0.50478 0.56205
 O212 O 0.93081 0.55410 0.50818
 O213 O 1.02384 0.48529 0.59782
 O214 O 0.96425 0.41907 0.55979
 O215 O 0.97688 0.39151 0.49336
 C216 C 1.10115 0.43083 0.45626
 C217 C 1.05769 0.58754 0.46904
 C218 C 0.95344 0.48016 0.40158
 C219 C 0.91793 0.54184 0.54638
 C220 C 1.06552 0.49815 0.59760
 C221 C 0.96175 0.38722 0.53230
 Zn222 Zn 0.46228 0.51118 0.94596
 Zn223 Zn 0.55645 0.53153 0.97867
 Zn224 Zn 0.47173 0.55442 1.03269
 Zn225 Zn 0.50043 0.45794 1.01883
 O226 O 0.49776 0.51385 0.99427
 O227 O 0.49220 0.52987 0.89834
 O228 O 0.57096 0.58418 1.00196
 O229 O 0.41766 0.57782 1.01412
 O230 O 0.56379 0.53996 0.92059
 O231 O 0.41112 0.54444 0.94994
 O232 O 0.50921 0.60192 1.04218
 O233 O 0.47645 0.45721 1.07330
 O234 O 0.60063 0.49366 0.99672
 O235 O 0.45891 0.52885 1.08487
 O236 O 0.55837 0.43846 1.02480
 O237 O 0.47184 0.41530 0.98716
 O238 O 0.44433 0.45573 0.93294
 C239 C 0.53393 0.54018 0.89065
 C240 C 0.54946 0.61093 1.02723
 C241 C 0.39563 0.57106 0.97914
 C242 C 0.46153 0.48849 1.09809
 C243 C 0.59730 0.45597 1.01583
 C244 C 0.45047 0.41826 0.95134
 C245 C 1.25469 0.42161 0.39087
 C246 C 1.22215 0.40272 0.41651
 C247 C 1.18065 0.42767 0.42939
 C248 C 1.14119 0.40636 0.43881
 H249 H 1.22476 0.36811 0.42691
 H250 H 1.18256 0.46398 0.43150
 H251 H 1.24735 0.45403 0.37646
 H252 H 1.13831 0.37045 0.43373
 C253 C 0.25589 0.59259 0.89479
 C254 C 0.28149 0.60860 0.92762
 C255 C 0.32604 0.58628 0.93667
 C256 C 0.35142 0.59481 0.97200
 H257 H 0.27023 0.63660 0.94766
 H258 H 0.33825 0.56124 0.91342
 H259 H 0.26941 0.56322 0.87783
 H260 H 0.33951 0.61915 0.99603
 C261 C -0.24501 0.92195 0.10316
 C262 C -0.22232 0.91278 0.06554
 C263 C -0.17564 0.93170 0.05834
 C264 C -0.15145 0.92717 0.02075
 H265 H -0.23795 0.89273 0.04022
 H266 H -0.16077 0.95060 0.08499
 H267 H -0.22830 0.94372 0.12660
 H268 H -0.16588 0.90866 -0.00633
 C269 C 0.70404 0.13006 0.61653
 C270 C 0.68237 0.09036 0.61563
 C271 C 0.64019 0.08394 0.59034
 C272 C 0.62856 0.04272 0.57752
 H273 H 0.69708 0.06095 0.63052
 H274 H 0.61987 0.11270 0.58085
 H275 H 0.68937 0.15722 0.59772
 H276 H 0.65073 0.01471 0.58543
 C277 C 0.42534 0.24740 0.42645
 C278 C 0.45026 0.21234 0.41239
 C279 C 0.45836 0.17418 0.44188
 C280 C 0.45816 0.13244 0.42611
 H281 H 0.46043 0.20897 0.37829
 H282 H 0.46165 0.18007 0.47671
 H283 H 0.41198 0.24605 0.45987
 H284 H 0.45187 0.12721 0.39159
 C285 C 0.90806 0.27473 0.63859
 C286 C 0.90839 0.29107 0.59791
 C287 C 0.93270 0.33300 0.58682
 C288 C 0.94009 0.34445 0.54504
 H289 H 0.89070 0.27316 0.57223
 H290 H 0.94432 0.35471 0.61294
 H291 H 0.92855 0.29093 0.66342
 H292 H 0.93010 0.32161 0.51920
 C293 C 0.06178 0.75747 -0.11433
 C294 C 0.07945 0.79120 -0.09084
 C295 C 0.05238 0.83237 -0.08108
 C296 C 0.07214 0.86616 -0.05958
 H297 H 0.11430 0.78949 -0.07900
 H298 H 0.01642 0.83440 -0.08996
 H299 H 0.02739 0.76242 -0.12691
 H300 H 0.10798 0.86272 -0.05053
 C301 C 0.55728 0.76002 1.09516
 C302 C 0.57711 0.72817 1.07030
 C303 C 0.55205 0.68623 1.06078
 C304 C 0.57275 0.65319 1.03851
 H305 H 0.61217 0.73145 1.05808
 H306 H 0.51660 0.68233 1.07210
 H307 H 0.52254 0.75333 1.10743
 H308 H 0.60811 0.65760 1.02704
 C309 C 0.43914 0.38877 1.22548
 C310 C 0.43555 0.42926 1.20671
 C311 C 0.45242 0.43788 1.16170
 C312 C 0.44678 0.47829 1.14340
 H313 H 0.41939 0.45674 1.22437
 H314 H 0.46859 0.41090 1.14321
 H315 H 0.45776 0.36242 1.20823
 H316 H 0.43089 0.50507 1.16240
 C317 C 0.55058 -0.05641 0.25204
 C318 C 0.57319 -0.04085 0.28667
 C319 C 0.54786 -0.03031 0.32757
 C320 C 0.57012 -0.02108 0.36440
 H321 H 0.61056 -0.03977 0.28633
 H322 H 0.51052 -0.03282 0.32814
 H323 H 0.51332 -0.05962 0.25430
 H324 H 0.60744 -0.01855 0.36382
 C325 C -0.11238 1.06399 -0.23103
 C326 C -0.08381 1.07749 -0.19979
 C327 C -0.07017 1.04836 -0.16330
 C328 C -0.04473 1.06619 -0.13171
 H329 H -0.07199 1.11196 -0.19926
 H330 H -0.08215 1.01393 -0.16130
 H331 H -0.12625 1.03018 -0.22973
 H332 H -0.03416 1.10105 -0.13446
 C333 C 1.06344 0.55874 0.74505
 C334 C 1.08767 0.53700 0.71391
 C335 C 1.06453 0.51820 0.67547
 C336 C 1.08856 0.50801 0.63902
 H337 H 1.12501 0.53638 0.71466
 H338 H 1.02715 0.51652 0.67563
 H339 H 1.02637 0.56168 0.74184
 H340 H 1.12574 0.51215 0.63826
 C341 C 0.76825 0.61696 0.56230
 C342 C 0.80860 0.60431 0.57849
 C343 C 0.84666 0.58728 0.55077
 C344 C 0.87996 0.56412 0.56988
 H345 H 0.81339 0.60478 0.61357
 H346 H 0.84617 0.59111 0.51552
 H347 H 0.76409 0.61861 0.52716
 H348 H 0.87800 0.55873 0.60498
 C349 C 0.74286 0.43838 1.09282
 C350 C 0.71453 0.42403 1.06126
 C351 C 0.67522 0.45119 1.04649
 C352 C 0.63900 0.43125 1.02798
 H353 H 0.71759 0.39058 1.04779
 H354 H 0.67481 0.48704 1.05262
 H355 H 0.73511 0.47043 1.10816
 H356 H 0.63805 0.39496 1.02540
 C357 C 0.25112 1.07082 -0.08185
 C358 C 0.22435 1.08403 -0.04785
 C359 C 0.18299 1.05832 -0.03464
 C360 C 0.14709 1.07894 -0.01534
 H361 H 0.22993 1.11583 -0.03167
 H362 H 0.18056 1.02312 -0.04342
 H363 H 0.24070 1.04094 -0.09952
 H364 H 0.14815 1.11493 -0.01011
 C365 C 0.29706 -0.13348 0.37450
 C366 C 0.30227 -0.12166 0.41628
 C367 C 0.34324 -0.09543 0.42829
 C368 C 0.35211 -0.08442 0.46961
 H369 H 0.27561 -0.12871 0.44063
 H370 H 0.36707 -0.08498 0.40244
 H371 H 0.32389 -0.12428 0.35092
 H372 H 0.32996 -0.09653 0.49602
 C373 C 0.56431 -0.24074 0.60954
 C374 C 0.56466 -0.21900 0.57125
 C375 C 0.53924 -0.17680 0.56591
 C376 C 0.54752 -0.15182 0.53048
 H377 H 0.58556 -0.23019 0.54379
 H378 H 0.51689 -0.16454 0.59212
 H379 H 0.54096 -0.22854 0.63507
 H380 H 0.57115 -0.16403 0.50523
 C381 C 1.08324 0.72482 0.38407
 C382 C 1.09361 0.69966 0.41876
 C383 C 1.06431 0.66118 0.43182
 C384 C 1.08155 0.62962 0.45766
 H385 H 1.12565 0.70423 0.43570
 H386 H 1.03029 0.65713 0.41819
 H387 H 1.05147 0.71681 0.36745
 H388 H 1.11642 0.63354 0.46942
 C389 C -0.10393 1.24332 0.08100
 C390 C -0.08190 1.20835 0.09858
 C391 C -0.06684 1.17011 0.07114
 C392 C -0.06017 1.12962 0.08866
 H393 H -0.07641 1.20635 0.13342
 H394 H -0.06179 1.17503 0.03623
 H395 H -0.11262 1.24091 0.04667
 H396 H -0.06800 1.12432 0.12309
 C397 C 0.41767 0.25704 0.93594
 C398 C 0.42266 0.29776 0.91837
 C399 C 0.43775 0.33644 0.94461
 C400 C 0.43332 0.37796 0.92894
 H401 H 0.41380 0.30303 0.88445
 H402 H 0.45255 0.33096 0.97646
 H403 H 0.42315 0.25251 0.97065
 H404 H 0.41759 0.38271 0.89737
 C405 C 0.63775 0.59494 0.77312
 C406 C 0.59585 0.58500 0.78916
 C407 C 0.58866 0.56622 0.83317
 C408 C 0.54623 0.55397 0.84591
 H409 H 0.56584 0.59122 0.76941
 H410 H 0.61725 0.56413 0.85544
 H411 H 0.66812 0.58604 0.79133
 H412 H 0.51832 0.55599 0.82282
 C413 C 0.40945 0.12127 0.73128
 C414 C 0.40537 0.08210 0.71004
 C415 C 0.42499 0.07558 0.66547
 C416 C 0.42306 0.03523 0.64627
 H417 H 0.38895 0.05371 0.72594
 H418 H 0.44201 0.10335 0.64890
 H419 H 0.42807 0.14838 0.71516
 H420 H 0.40657 0.00768 0.66369
 C421 C 0.13536 0.86794 0.19399
 C422 C 0.09349 0.88480 0.18774
 C423 C 0.08336 0.90896 0.14742
 C424 C 0.04368 0.93093 0.14343
 H425 H 0.06725 0.88273 0.21343
 H426 H 0.10867 0.90887 0.12082
 H427 H 0.16235 0.87296 0.16941
 H428 H 0.01845 0.93072 0.17009
 C429 C 0.90556 0.39364 0.27336
 C430 C 0.90469 0.43325 0.29435
 C431 C 0.92778 0.43770 0.33699
 C432 C 0.92959 0.47651 0.35922
 H433 H 0.88838 0.46226 0.28014
 H434 H 0.94409 0.40819 0.35042
 H435 H 0.92367 0.36616 0.28865
 H436 H 0.91326 0.50615 0.34615
   
