data_POSCAR
  _audit_creation_date              2014-09-24
  _audit_creation_method            'ToBaCCo'
  _symmetry_space_group_name_H-M    'P1'
  _symmetry_Int_Tables_number       1
  _symmetry_cell_setting            triclinic
  loop_
  _symmetry_equiv_pos_as_xyz
 x,y,z
_cell_length_a 46.1556
_cell_length_b 46.1311
_cell_length_c 46.1611
_cell_angle_alpha 89.973700
_cell_angle_beta 90.009100
_cell_angle_gamma 89.985700
loop_
  _atom_site_label
  _atom_site_type_symbol
  _atom_site_fract_x
  _atom_site_fract_y
  _atom_site_fract_z
C1 C 0.27161 0.25018 0.22826
 C2 C 0.24995 0.27162 0.22845
 C3 C 0.22831 0.27185 0.24988
 C4 C 0.22855 0.25021 0.27134
 C5 C 0.24999 0.22856 0.27158
 C6 C 0.27141 0.22876 0.24993
 H7 H 0.24994 0.28819 0.21184
 H8 H 0.21197 0.25023 0.28792
 H9 H 0.28801 0.21217 0.24996
 C10 C 0.72801 -0.25039 0.22782
 C11 C 0.74982 -0.27179 0.22804
 C12 C 0.77160 -0.27208 0.24946
 C13 C 0.77124 -0.25038 0.27093
 C14 C 0.74975 -0.22881 0.27120
 C15 C 0.72829 -0.22901 0.24960
 H16 H 0.74985 -0.28835 0.21141
 H17 H 0.78776 -0.25021 0.28758
 H18 H 0.71174 -0.21238 0.24983
 C19 C 0.72908 0.25063 0.77128
 C20 C 0.75068 0.27211 0.77106
 C21 C 0.77244 0.27243 0.74963
 C22 C 0.77218 0.25064 0.72823
 C23 C 0.75077 0.22896 0.72806
 C24 C 0.72935 0.22918 0.74968
 H25 H 0.75047 0.28864 0.78770
 H26 H 0.78869 0.25048 0.71157
 H27 H 0.71279 0.21256 0.74969
 C28 C 0.27109 -0.25073 0.77225
 C29 C 0.24938 -0.27211 0.77210
 C30 C 0.22764 -0.27240 0.75065
 C31 C 0.22803 -0.25067 0.72916
 C32 C 0.24954 -0.22910 0.72892
 C33 C 0.27094 -0.22935 0.75057
 H34 H 0.24949 -0.28859 0.78881
 H35 H 0.21153 -0.25048 0.71248
 H36 H 0.28757 -0.21281 0.75053
 C37 C 0.72852 -0.25054 0.77205
 C38 C 0.75018 -0.27196 0.77187
 C39 C 0.77194 -0.27224 0.75045
 C40 C 0.77160 -0.25048 0.72902
 C41 C 0.75013 -0.22886 0.72881
 C42 C 0.72871 -0.22911 0.75042
 H43 H 0.75003 -0.28848 0.78854
 H44 H 0.78811 -0.25028 0.71235
 H45 H 0.71210 -0.21254 0.75040
 C46 C 0.27144 0.25018 0.77140
 C47 C 0.24979 0.27161 0.77119
 C48 C 0.22810 0.27178 0.74982
 C49 C 0.22827 0.25010 0.72844
 C50 C 0.24971 0.22846 0.72822
 C51 C 0.27119 0.22871 0.74980
 H52 H 0.24982 0.28823 0.78775
 H53 H 0.21164 0.25007 0.71189
 H54 H 0.28779 0.21212 0.74980
 C55 C 0.27254 -0.25005 0.22778
 C56 C 0.25069 -0.27139 0.22799
 C57 C 0.22900 -0.27152 0.24936
 C58 C 0.22927 -0.24994 0.27080
 C59 C 0.25078 -0.22841 0.27112
 C60 C 0.27227 -0.22865 0.24956
 H61 H 0.25048 -0.28804 0.21145
 H62 H 0.21263 -0.24989 0.28734
 H63 H 0.28885 -0.21205 0.24981
 C64 C 0.72850 0.24995 0.22830
 C65 C 0.75010 0.27142 0.22853
 C66 C 0.77173 0.27166 0.24996
 C67 C 0.77155 0.25000 0.27139
 C68 C 0.75016 0.22832 0.27159
 C69 C 0.72874 0.22851 0.24994
 H70 H 0.75008 0.28802 0.21194
 H71 H 0.78813 0.25002 0.28798
 H72 H 0.71218 0.21189 0.24993
 O73 O 0.22615 0.02782 0.47185
 O74 O 0.22612 -0.02870 0.52825
 O75 O 0.22603 0.02776 0.52825
 O76 O 0.22628 -0.02863 0.47183
 O77 O 0.27415 -0.02854 0.47195
 O78 O 0.27390 0.02784 0.52837
 O79 O 0.27399 -0.02862 0.52838
 O80 O 0.27401 0.02791 0.47196
 Cu81 Cu 0.22134 -0.00045 0.50004
 Cu82 Cu 0.27882 -0.00035 0.50018
 C83 C 0.25008 0.03748 0.46231
 C84 C 0.25005 -0.03827 0.53791
 C85 C 0.24993 0.03739 0.53790
 C86 C 0.25026 -0.03816 0.46229
 O87 O 0.77419 0.02783 0.52823
 O88 O 0.77395 -0.02869 0.47187
 O89 O 0.77409 0.02776 0.47182
 O90 O 0.77402 -0.02862 0.52830
 O91 O 0.72615 -0.02849 0.52836
 O92 O 0.72622 0.02790 0.47189
 O93 O 0.72608 -0.02856 0.47193
 O94 O 0.72632 0.02797 0.52829
 Cu95 Cu 0.77887 -0.00045 0.50005
 Cu96 Cu 0.72139 -0.00029 0.50013
 C97 C 0.75030 0.03752 0.53784
 C98 C 0.74998 -0.03823 0.46231
 C99 C 0.75016 0.03742 0.46226
 C100 C 0.75008 -0.03814 0.53794
 O101 O 0.47197 0.22621 0.02781
 O102 O 0.52844 0.22627 -0.02859
 O103 O 0.52838 0.22617 0.02782
 O104 O 0.47201 0.22626 -0.02861
 O105 O 0.47200 0.27416 -0.02857
 O106 O 0.52838 0.27407 0.02787
 O107 O 0.52843 0.27417 -0.02855
 O108 O 0.47197 0.27410 0.02785
 Cu109 Cu 0.50020 0.22142 -0.00040
 Cu110 Cu 0.50020 0.27893 -0.00035
 C111 C 0.46236 0.25014 0.03742
 C112 C 0.53804 0.25023 -0.03816
 C113 C 0.53797 0.25010 0.03744
 C114 C 0.46242 0.25022 -0.03818
 O115 O 0.52834 0.77351 0.02873
 O116 O 0.47182 0.77342 -0.02765
 O117 O 0.47192 0.77351 0.02877
 O118 O 0.52825 0.77345 -0.02769
 O119 O 0.52828 0.72556 -0.02761
 O120 O 0.47194 0.72562 0.02885
 O121 O 0.47185 0.72553 -0.02756
 O122 O 0.52836 0.72562 0.02881
 Cu123 Cu 0.50008 0.77829 0.00053
 Cu124 Cu 0.50011 0.72077 0.00063
 C125 C 0.53796 0.74958 0.03836
 C126 C 0.46222 0.74946 -0.03719
 C127 C 0.46235 0.74958 0.03841
 C128 C 0.53784 0.74949 -0.03725
 O129 O 0.02791 0.47244 0.22562
 O130 O -0.02855 0.52891 0.22554
 O131 O 0.02789 0.52889 0.22550
 O132 O -0.02850 0.47245 0.22567
 O133 O -0.02845 0.47253 0.27353
 O134 O 0.02793 0.52897 0.27336
 O135 O -0.02850 0.52899 0.27340
 O136 O 0.02796 0.47252 0.27348
 Cu137 Cu -0.00032 0.50067 0.22077
 Cu138 Cu -0.00026 0.50077 0.27825
 C139 C 0.03753 0.46287 0.24957
 C140 C -0.03814 0.53855 0.24946
 C141 C 0.03751 0.53851 0.24940
 C142 C -0.03805 0.46289 0.24963
 O143 O 0.02781 0.52859 0.77422
 O144 O -0.02862 0.47212 0.77398
 O145 O 0.02780 0.47214 0.77404
 O146 O -0.02862 0.52857 0.77417
 O147 O -0.02858 0.52875 0.72630
 O148 O 0.02784 0.47232 0.72617
 O149 O -0.02858 0.47229 0.72612
 O150 O 0.02785 0.52877 0.72636
 Cu151 Cu -0.00041 0.50034 0.77891
 Cu152 Cu -0.00037 0.50055 0.72143
 C153 C 0.03744 0.53828 0.75033
 C154 C -0.03819 0.46259 0.75001
 C155 C 0.03741 0.46263 0.75008
 C156 C -0.03820 0.53825 0.75026
 N157 N 0.31508 0.27079 0.16404
 C158 C 0.33593 0.25011 0.16389
 N159 N 0.33578 0.22946 0.18477
 N160 N 0.31537 0.22948 0.20519
 C161 C 0.29436 0.25016 0.20549
 N162 N 0.29468 0.27081 0.18446
 C163 C 0.35791 0.25009 0.14189
 C164 C 0.37638 0.25008 0.12342
 C165 C 0.39836 0.25009 0.10142
 N166 N 0.40887 0.22475 0.09089
 N167 N 0.42928 0.22476 0.07047
 C168 C 0.43987 0.25012 0.05991
 N169 N 0.42929 0.27547 0.07051
 N170 N 0.40888 0.27545 0.09092
 N171 N 0.66479 0.77027 0.18557
 C172 C 0.66461 0.74967 0.16467
 N173 N 0.68551 0.72904 0.16476
 N174 N 0.70596 0.72903 0.18513
 C175 C 0.70634 0.74963 0.20623
 N176 N 0.68524 0.77025 0.20594
 C177 C 0.64258 0.74968 0.14272
 C178 C 0.62407 0.74968 0.12428
 C179 C 0.60204 0.74966 0.10231
 N180 N 0.59153 0.72430 0.09184
 N181 N 0.57109 0.72427 0.07145
 C182 C 0.56048 0.74961 0.06084
 N183 N 0.57107 0.77497 0.07137
 N184 N 0.59151 0.77499 0.09177
 N185 N 0.68545 0.27121 -0.16461
 C186 C 0.66465 0.25048 -0.16445
 N187 N 0.66491 0.22980 -0.18528
 N188 N 0.68535 0.22985 -0.20567
 C189 C 0.70629 0.25058 -0.20599
 N190 N 0.70588 0.27126 -0.18500
 C191 C 0.64265 0.25041 -0.14248
 C192 C 0.62415 0.25037 -0.12403
 C193 C 0.60213 0.25033 -0.10208
 N194 N 0.59160 0.27567 -0.09155
 N195 N 0.57115 0.27564 -0.07116
 C196 C 0.56056 0.25027 -0.06063
 N197 N 0.57116 0.22493 -0.07123
 N198 N 0.59160 0.22497 -0.09161
 N199 N 0.33534 0.76991 -0.18434
 C200 C 0.33550 0.74928 -0.16343
 N201 N 0.31461 0.72865 -0.16353
 N202 N 0.29418 0.72865 -0.18393
 C203 C 0.29387 0.74927 -0.20499
 N204 N 0.31491 0.76990 -0.20473
 C205 C 0.35752 0.74929 -0.14146
 C206 C 0.37603 0.74931 -0.12302
 C207 C 0.39807 0.74935 -0.10107
 N208 N 0.40862 0.72402 -0.09052
 N209 N 0.42908 0.72405 -0.07015
 C210 C 0.43968 0.74942 -0.05964
 N211 N 0.42906 0.77476 -0.07025
 N212 N 0.40860 0.77472 -0.09063
 N213 N 0.16412 0.31540 0.27047
 C214 C 0.16393 0.33623 0.24977
 N215 N 0.18478 0.33603 0.22910
 N216 N 0.20520 0.31560 0.22914
 C217 C 0.20554 0.29462 0.24984
 N218 N 0.18455 0.29498 0.27050
 C219 C 0.14194 0.35824 0.24973
 C220 C 0.12347 0.37673 0.24969
 C221 C 0.10150 0.39876 0.24966
 N222 N 0.09097 0.40925 0.22431
 N223 N 0.07057 0.42970 0.22428
 C224 C 0.06002 0.44035 0.24960
 N225 N 0.07061 0.42979 0.27495
 N226 N 0.09101 0.40934 0.27497
 N227 N 0.16445 0.68534 0.73000
 C228 C 0.16419 0.66451 0.75070
 N229 N 0.18501 0.66466 0.77139
 N230 N 0.20548 0.68502 0.77137
 C231 C 0.20595 0.70605 0.75068
 N232 N 0.18493 0.70569 0.73000
 C233 C 0.14214 0.64257 0.75069
 C234 C 0.12362 0.62413 0.75066
 C235 C 0.10157 0.60219 0.75058
 N236 N 0.09101 0.59160 0.77587
 N237 N 0.07055 0.57122 0.77579
 C238 C 0.05996 0.56075 0.75042
 N239 N 0.07058 0.57141 0.72512
 N240 N 0.09104 0.59179 0.72521
 N241 N -0.16516 0.68565 0.27006
 C242 C -0.16491 0.66483 0.24937
 N243 N -0.18576 0.66497 0.22871
 N244 N -0.20624 0.68533 0.22875
 C245 C -0.20670 0.70636 0.24943
 N246 N -0.18565 0.70600 0.27008
 C247 C -0.14285 0.64288 0.24936
 C248 C -0.12432 0.62445 0.24937
 C249 C -0.10227 0.60249 0.24939
 N250 N -0.09176 0.59195 0.22407
 N251 N -0.07130 0.57156 0.22409
 C252 C -0.06066 0.56103 0.24943
 N253 N -0.07123 0.57165 0.27476
 N254 N -0.09170 0.59204 0.27473
 N255 N -0.16453 0.31496 0.72898
 C256 C -0.16441 0.33583 0.74962
 N257 N -0.18527 0.33563 0.77026
 N258 N -0.20564 0.31517 0.77025
 C259 C -0.20598 0.29410 0.74962
 N260 N -0.18491 0.29451 0.72899
 C261 C -0.14245 0.35787 0.74964
 C262 C -0.12402 0.37638 0.74968
 C263 C -0.10208 0.39843 0.74976
 N264 N -0.09160 0.40889 0.77513
 N265 N -0.07123 0.42936 0.77521
 C266 C -0.06065 0.44006 0.74992
 N267 N -0.07119 0.42953 0.72454
 N268 N -0.09156 0.40907 0.72447
 N269 N 0.22935 0.18504 0.33578
 C270 C 0.25004 0.16419 0.33598
 N271 N 0.27071 0.16438 0.31514
 N272 N 0.27069 0.18481 0.29472
 C273 C 0.25001 0.20580 0.29437
 N274 N 0.22934 0.20546 0.31535
 C275 C 0.25004 0.14218 0.35797
 C276 C 0.25005 0.12368 0.37643
 C277 C 0.25006 0.10164 0.39839
 N278 N 0.27540 0.09115 0.40894
 N279 N 0.27541 0.07068 0.42933
 C280 C 0.25008 0.06002 0.43985
 N281 N 0.22474 0.07058 0.42923
 N282 N 0.22473 0.09104 0.40884
 N283 N 0.77143 0.18528 0.66398
 C284 C 0.75076 0.16443 0.66387
 N285 N 0.73010 0.16466 0.68473
 N286 N 0.73012 0.18513 0.70508
 C287 C 0.75078 0.20614 0.70535
 N288 N 0.77143 0.20575 0.68434
 C289 C 0.75073 0.14237 0.64194
 C290 C 0.75068 0.12383 0.62353
 C291 C 0.75058 0.10176 0.60162
 N292 N 0.77587 0.09113 0.59111
 N293 N 0.77578 0.07063 0.57077
 C294 C 0.75040 0.06008 0.56027
 N295 N 0.72511 0.07078 0.57085
 N296 N 0.72520 0.09127 0.59119
 N297 N 0.27047 -0.16501 0.68533
 C298 C 0.24982 -0.16478 0.66446
 N299 N 0.22908 -0.18556 0.66465
 N300 N 0.22899 -0.20596 0.68510
 C301 C 0.24964 -0.20635 0.70612
 N302 N 0.27038 -0.18542 0.70577
 C303 C 0.24990 -0.14279 0.64244
 C304 C 0.24995 -0.12432 0.62395
 C305 C 0.24998 -0.10232 0.60194
 N306 N 0.27533 -0.09176 0.59150
 N307 N 0.27536 -0.07134 0.57107
 C308 C 0.25003 -0.06079 0.56041
 N309 N 0.22468 -0.07141 0.57092
 N310 N 0.22466 -0.09184 0.59134
 N311 N 0.72896 -0.16475 0.31490
 C312 C 0.74967 -0.16457 0.33571
 N313 N 0.77040 -0.18538 0.33545
 N314 N 0.77041 -0.20575 0.31499
 C315 C 0.74971 -0.20608 0.29402
 N316 N 0.72899 -0.18513 0.29444
 C317 C 0.74967 -0.14261 0.35773
 C318 C 0.74969 -0.12417 0.37624
 C319 C 0.74976 -0.10221 0.39826
 N320 N 0.77513 -0.09177 0.40877
 N321 N 0.77520 -0.07137 0.42920
 C322 C 0.74990 -0.06073 0.43981
 N323 N 0.72452 -0.07124 0.42925
 N324 N 0.72446 -0.09164 0.40881
 N325 N 0.68500 0.72876 -0.16384
 C326 C 0.66414 0.74944 -0.16369
 N327 N 0.66431 0.77012 -0.18455
 N328 N 0.68474 0.77012 -0.20493
 C329 C 0.70575 0.74945 -0.20523
 N330 N 0.70542 0.72877 -0.18423
 C331 C 0.64216 0.74943 -0.14173
 C332 C 0.62370 0.74944 -0.12327
 C333 C 0.60174 0.74945 -0.10129
 N334 N 0.59123 0.77480 -0.09081
 N335 N 0.57084 0.77482 -0.07038
 C336 C 0.56029 0.74948 -0.05975
 N337 N 0.57087 0.72412 -0.07030
 N338 N 0.59126 0.72411 -0.09073
 N339 N 0.31506 0.27095 -0.16459
 C340 C 0.33591 0.25028 -0.16443
 N341 N 0.33571 0.22957 -0.18524
 N342 N 0.31525 0.22955 -0.20560
 C343 C 0.29424 0.25022 -0.20591
 N344 N 0.29460 0.27092 -0.18496
 C345 C 0.35792 0.25030 -0.14250
 C346 C 0.37641 0.25030 -0.12406
 C347 C 0.39841 0.25029 -0.10212
 N348 N 0.40894 0.22493 -0.09164
 N349 N 0.42937 0.22490 -0.07124
 C350 C 0.43994 0.25025 -0.06065
 N351 N 0.42934 0.27561 -0.07120
 N352 N 0.40892 0.27563 -0.09160
 N353 N 0.33579 0.77041 0.18559
 C354 C 0.33591 0.74978 0.16471
 N355 N 0.31498 0.72921 0.16479
 N356 N 0.29453 0.72927 0.18516
 C357 C 0.29420 0.74989 0.20623
 N358 N 0.31534 0.77045 0.20594
 C359 C 0.35792 0.74974 0.14278
 C360 C 0.37641 0.74970 0.12434
 C361 C 0.39839 0.74967 0.10239
 N362 N 0.40891 0.72430 0.09193
 N363 N 0.42932 0.72427 0.07152
 C364 C 0.43989 0.74961 0.06090
 N365 N 0.42931 0.77498 0.07143
 N366 N 0.40890 0.77500 0.09184
 N367 N 0.68503 0.27062 0.16414
 C368 C 0.66421 0.24992 0.16395
 N369 N 0.66439 0.22923 0.18479
 N370 N 0.68480 0.22924 0.20521
 C371 C 0.70577 0.24994 0.20555
 N372 N 0.70543 0.27062 0.18456
 C373 C 0.64225 0.24993 0.14197
 C374 C 0.62381 0.24995 0.12349
 C375 C 0.60186 0.24999 0.10150
 N376 N 0.59136 0.22466 0.09095
 N377 N 0.57097 0.22469 0.07051
 C378 C 0.56042 0.25006 0.05994
 N379 N 0.57098 0.27540 0.07056
 N380 N 0.59137 0.27536 0.09100
 N381 N -0.16494 0.68544 0.72981
 C382 C -0.16474 0.66458 0.75047
 N383 N -0.18558 0.66471 0.77112
 N384 N -0.20602 0.68511 0.77111
 C385 C -0.20643 0.70617 0.75046
 N386 N -0.18538 0.70583 0.72981
 C387 C -0.14274 0.64261 0.75046
 C388 C -0.12426 0.62416 0.75043
 C389 C -0.10225 0.60220 0.75039
 N390 N -0.09170 0.59179 0.72504
 N391 N -0.07126 0.57139 0.72499
 C392 C -0.06069 0.56073 0.75030
 N393 N -0.07131 0.57121 0.77566
 N394 N -0.09175 0.59161 0.77570
 N395 N -0.18492 0.33591 0.22926
 C396 C -0.16409 0.33613 0.24995
 N397 N -0.16423 0.31529 0.27064
 N398 N -0.18459 0.29483 0.27064
 C399 C -0.20557 0.29445 0.24996
 N400 N -0.20528 0.31545 0.22928
 C401 C -0.14217 0.35816 0.24993
 C402 C -0.12376 0.37668 0.24989
 C403 C -0.10186 0.39873 0.24983
 N404 N -0.09136 0.40932 0.27513
 N405 N -0.07100 0.42979 0.27507
 C406 C -0.06049 0.44036 0.24970
 N407 N -0.07106 0.42971 0.22440
 N408 N -0.09141 0.40923 0.22446
 N409 N 0.16389 0.31525 0.72921
 C410 C 0.16376 0.33613 0.74986
 N411 N 0.18464 0.33598 0.77048
 N412 N 0.20506 0.31555 0.77047
 C413 C 0.20535 0.29453 0.74983
 N414 N 0.18431 0.29484 0.72921
 C415 C 0.14178 0.35811 0.74987
 C416 C 0.12332 0.37659 0.74990
 C417 C 0.10136 0.39858 0.74994
 N418 N 0.09087 0.40920 0.72463
 N419 N 0.07047 0.42964 0.72467
 C420 C 0.05988 0.44013 0.75003
 N421 N 0.07043 0.42945 0.77535
 N422 N 0.09083 0.40902 0.77530
 N423 N 0.16459 0.68530 0.26988
 C424 C 0.16433 0.66448 0.24920
 N425 N 0.18520 0.66456 0.22856
 N426 N 0.20572 0.68487 0.22861
 C427 C 0.20613 0.70584 0.24929
 N428 N 0.18511 0.70561 0.26992
 C429 C 0.14226 0.64260 0.24918
 C430 C 0.12371 0.62422 0.24919
 C431 C 0.10165 0.60233 0.24924
 N432 N 0.09112 0.59190 0.27460
 N433 N 0.07064 0.57155 0.27465
 C434 C 0.06002 0.56096 0.24934
 N435 N 0.07061 0.57146 0.22398
 N436 N 0.09109 0.59182 0.22393
 N437 N 0.72934 -0.16468 0.68532
 C438 C 0.75002 -0.16447 0.66449
 N439 N 0.77073 -0.18529 0.66467
 N440 N 0.77076 -0.20571 0.68508
 C441 C 0.75009 -0.20609 0.70606
 N442 N 0.72938 -0.18512 0.70573
 C443 C 0.74999 -0.14248 0.64251
 C444 C 0.74998 -0.12402 0.62403
 C445 C 0.75000 -0.10205 0.60203
 N446 N 0.77535 -0.09163 0.59146
 N447 N 0.77538 -0.07124 0.57101
 C448 C 0.75005 -0.06060 0.56045
 N449 N 0.72470 -0.07109 0.57108
 N450 N 0.72468 -0.09148 0.59154
 N451 N 0.23000 -0.18502 0.33529
 C452 C 0.25074 -0.16424 0.33561
 N453 N 0.27150 -0.16443 0.31486
 N454 N 0.27151 -0.18479 0.29440
 C455 C 0.25078 -0.20571 0.29393
 N456 N 0.23002 -0.20537 0.31483
 C457 C 0.25071 -0.14232 0.35763
 C458 C 0.25065 -0.12390 0.37614
 C459 C 0.25055 -0.10199 0.39817
 N460 N 0.27584 -0.09146 0.40877
 N461 N 0.27575 -0.07110 0.42923
 C462 C 0.25036 -0.06060 0.43978
 N463 N 0.22507 -0.07120 0.42911
 N464 N 0.22516 -0.09156 0.40865
 N465 N 0.72956 0.16409 0.31505
 C466 C 0.75023 0.16393 0.33590
 N467 N 0.77087 0.18481 0.33574
 N468 N 0.77085 0.20524 0.31533
 C469 C 0.75019 0.20555 0.29433
 N470 N 0.72955 0.18452 0.29464
 C471 C 0.75024 0.14194 0.35787
 C472 C 0.75024 0.12346 0.37633
 C473 C 0.75022 0.10146 0.39829
 N474 N 0.77555 0.09087 0.40876
 N475 N 0.77553 0.07043 0.42916
 C476 C 0.75019 0.05991 0.43977
 N477 N 0.72485 0.07056 0.42924
 N478 N 0.72488 0.09100 0.40883
 N479 N 0.22893 0.18484 0.66421
 C480 C 0.24962 0.16400 0.66404
 N481 N 0.27035 0.16423 0.68483
 N482 N 0.27036 0.18468 0.70519
 C483 C 0.24967 0.20566 0.70552
 N484 N 0.22896 0.20529 0.68458
 C485 C 0.24962 0.14199 0.64210
 C486 C 0.24964 0.12349 0.62368
 C487 C 0.24971 0.10147 0.60176
 N488 N 0.27508 0.09097 0.59132
 N489 N 0.27515 0.07052 0.57095
 C490 C 0.24985 0.05989 0.56035
 N491 N 0.22447 0.07046 0.57085
 N492 N 0.22440 0.09091 0.59122
   
