data_POSCAR
  _audit_creation_date              2014-09-24
  _audit_creation_method            'ToBaCCo'
  _symmetry_space_group_name_H-M    'P1'
  _symmetry_Int_Tables_number       1
  _symmetry_cell_setting            triclinic
  loop_
  _symmetry_equiv_pos_as_xyz
 x,y,z
_cell_length_a 33.7362
_cell_length_b 33.7358
_cell_length_c 33.7101
_cell_angle_alpha 89.954200
_cell_angle_beta 90.135700
_cell_angle_gamma 90.000100
loop_
  _atom_site_label
  _atom_site_type_symbol
  _atom_site_fract_x
  _atom_site_fract_y
  _atom_site_fract_z
O1 O -0.10258 0.05349 0.00090
 O2 O 0.10150 0.05357 -0.00175
 O3 O -0.00187 0.10197 0.05316
 O4 O 0.00072 0.10203 -0.05423
 O5 O 0.00066 0.05364 -0.10261
 O6 O -0.00181 0.05356 0.10167
 O7 O 0.05311 0.10200 -0.00184
 O8 O -0.05418 0.10193 0.00090
 Zr9 Zr -0.00054 0.06972 -0.00050
 O10 O 0.03538 0.03593 -0.03643
 O11 O -0.03642 0.03584 0.03548
 C12 C -0.09070 0.09003 0.00161
 C13 C 0.08965 0.09013 -0.00247
 C14 C -0.00253 0.09009 0.08974
 C15 C 0.00134 0.09022 -0.09082
 H16 H 0.05224 0.05265 0.05235
 O17 O 0.03529 0.03573 0.03543
 H18 H -0.05337 0.05265 -0.05326
 O19 O -0.03643 0.03573 -0.03630
 O20 O 0.10143 -0.05368 0.00114
 O21 O -0.10265 -0.05378 -0.00179
 O22 O 0.05321 -0.00152 0.10174
 O23 O 0.05294 0.00128 -0.10251
 O24 O -0.05431 -0.00147 -0.10254
 O25 O -0.05403 0.00137 0.10167
 O26 O 0.00084 -0.10218 0.05351
 O27 O -0.00212 -0.10209 -0.05388
 O28 O 0.00093 -0.05377 0.10187
 O29 O -0.00214 -0.05368 -0.10240
 O30 O 0.10154 -0.00147 0.05331
 O31 O -0.10252 0.00134 0.05318
 O32 O -0.10264 -0.00155 -0.05416
 O33 O 0.10142 0.00126 -0.05402
 O34 O 0.05303 -0.10211 0.00123
 O35 O -0.05428 -0.10218 -0.00164
 Zr36 Zr 0.06920 -0.00006 -0.00037
 Zr37 Zr -0.07034 -0.00012 -0.00045
 Zr38 Zr -0.00046 -0.00011 0.06946
 Zr39 Zr -0.00065 -0.00003 -0.07023
 Zr40 Zr -0.00061 -0.06988 -0.00024
 O41 O -0.03654 -0.03603 -0.03635
 O42 O 0.03544 -0.03603 0.03566
 C43 C 0.08956 -0.09021 0.00191
 C44 C -0.09086 -0.09036 -0.00239
 C45 C 0.08971 -0.00221 0.08986
 C46 C 0.08951 0.00194 -0.09061
 C47 C -0.09084 -0.00222 -0.09073
 C48 C -0.09058 0.00207 0.08975
 C49 C 0.00157 -0.09036 0.09011
 C50 C -0.00286 -0.09020 -0.09044
 H51 H -0.05325 -0.05283 0.05244
 O52 O -0.03636 -0.03592 0.03550
 H53 H 0.05204 -0.05280 -0.05303
 O54 O 0.03514 -0.03589 -0.03613
 O55 O 0.39805 0.55419 0.00162
 O56 O 0.60217 0.55415 -0.00088
 O57 O 0.49879 0.60256 0.05413
 O58 O 0.50154 0.60251 -0.05319
 O59 O 0.50143 0.55412 -0.10166
 O60 O 0.49879 0.55415 0.10256
 O61 O 0.55379 0.60258 -0.00089
 O62 O 0.44651 0.60256 0.00174
 Zr63 Zr 0.50012 0.57029 0.00045
 O64 O 0.53595 0.53644 -0.03553
 O65 O 0.46413 0.53646 0.03631
 C66 C 0.40997 0.59070 0.00236
 C67 C 0.59034 0.59072 -0.00157
 C68 C 0.49812 0.59073 0.09073
 C69 C 0.50222 0.59062 -0.08973
 H70 H 0.55289 0.55322 0.05327
 O71 O 0.53595 0.53631 0.03632
 H72 H 0.44732 0.55328 -0.05244
 O73 O 0.46424 0.53635 -0.03548
 O74 O 0.60203 0.44686 0.00196
 O75 O 0.39791 0.44692 -0.00115
 O76 O 0.55378 0.49903 0.10259
 O77 O 0.55354 0.50188 -0.10168
 O78 O 0.44624 0.49924 -0.10186
 O79 O 0.44649 0.50192 0.10242
 O80 O 0.50143 0.39849 0.05404
 O81 O 0.49855 0.39845 -0.05328
 O82 O 0.50152 0.44687 0.10250
 O83 O 0.49851 0.44686 -0.10176
 O84 O 0.60214 0.49903 0.05424
 O85 O 0.39803 0.50193 0.05389
 O86 O 0.39788 0.49926 -0.05352
 O87 O 0.60202 0.50191 -0.05318
 O88 O 0.55358 0.39848 0.00189
 O89 O 0.44630 0.39848 -0.00106
 Zr90 Zr 0.56984 0.50051 0.00049
 Zr91 Zr 0.43023 0.50054 0.00025
 Zr92 Zr 0.50011 0.50052 0.07023
 Zr93 Zr 0.49993 0.50049 -0.06945
 Zr94 Zr 0.49996 0.43074 0.00037
 O95 O 0.46396 0.46455 -0.03568
 O96 O 0.53598 0.46456 0.03640
 C97 C 0.59012 0.41034 0.00264
 C98 C 0.40976 0.41037 -0.00181
 C99 C 0.59034 0.49831 0.09081
 C100 C 0.59010 0.50258 -0.08976
 C101 C 0.40967 0.49860 -0.09011
 C102 C 0.40994 0.50262 0.09048
 C103 C 0.50219 0.41035 0.09059
 C104 C 0.49785 0.41031 -0.08987
 H105 H 0.44732 0.44781 0.05307
 O106 O 0.46424 0.46473 0.03617
 H107 H 0.55267 0.44779 -0.05229
 O108 O 0.53579 0.46471 -0.03538
 O109 O -0.10228 0.55380 0.50124
 O110 O 0.10182 0.55375 0.49871
 O111 O -0.00162 0.60210 0.55354
 O112 O 0.00108 0.60226 0.44617
 O113 O 0.00106 0.55388 0.39775
 O114 O -0.00152 0.55367 0.60204
 O115 O 0.05339 0.60216 0.49856
 O116 O -0.05391 0.60221 0.50123
 Zr117 Zr -0.00024 0.56992 0.49989
 O118 O 0.03574 0.53609 0.46405
 O119 O -0.03607 0.53604 0.53591
 C120 C -0.09048 0.59038 0.50190
 C121 C 0.08992 0.59028 0.49794
 C122 C -0.00229 0.59019 0.59010
 C123 C 0.00173 0.59044 0.40958
 H124 H 0.05256 0.55283 0.55279
 O125 O 0.03563 0.53591 0.53584
 H126 H -0.05302 0.55290 0.44709
 O127 O -0.03607 0.53597 0.46404
 O128 O 0.10192 0.44649 0.50155
 O129 O -0.10218 0.44652 0.49847
 O130 O 0.05364 0.49875 0.60227
 O131 O 0.05337 0.50161 0.39795
 O132 O -0.05394 0.49874 0.39778
 O133 O -0.05368 0.50144 0.60208
 O134 O 0.00125 0.39798 0.55377
 O135 O -0.00159 0.39811 0.44638
 O136 O 0.00131 0.44634 0.60222
 O137 O -0.00167 0.44654 0.39790
 O138 O 0.10199 0.49880 0.55388
 O139 O -0.10215 0.50152 0.55357
 O140 O -0.10230 0.49873 0.44618
 O141 O 0.10182 0.50155 0.44649
 O142 O 0.05353 0.39806 0.50150
 O143 O -0.05376 0.39810 0.49855
 Zr144 Zr 0.06962 0.50012 0.50013
 Zr145 Zr -0.06996 0.50015 0.49991
 Zr146 Zr -0.00007 0.50004 0.56987
 Zr147 Zr -0.00025 0.50019 0.43013
 Zr148 Zr -0.00013 0.43033 0.50006
 O149 O -0.03612 0.46421 0.46402
 O150 O 0.03588 0.46411 0.53610
 C151 C 0.09007 0.40994 0.50222
 C152 C -0.09029 0.40999 0.49779
 C153 C 0.09019 0.49812 0.59046
 C154 C 0.08992 0.50229 0.40990
 C155 C -0.09047 0.49803 0.40962
 C156 C -0.09024 0.50217 0.59016
 C157 C 0.00195 0.40979 0.59036
 C158 C -0.00233 0.41000 0.40981
 H159 H -0.05283 0.44737 0.55272
 O160 O -0.03593 0.46430 0.53581
 H161 H 0.05251 0.44745 0.44734
 O162 O 0.03560 0.46436 0.46424
 O163 O 0.39833 0.05315 0.50127
 O164 O 0.60243 0.05314 0.49870
 O165 O 0.49906 0.10158 0.55368
 O166 O 0.50174 0.10157 0.44637
 O167 O 0.50171 0.05319 0.39791
 O168 O 0.49911 0.05315 0.60214
 O169 O 0.55400 0.10155 0.49864
 O170 O 0.44672 0.10158 0.50132
 Zr171 Zr 0.50037 0.06931 0.50003
 O172 O 0.53630 0.03548 0.46410
 O173 O 0.46445 0.03549 0.53597
 C174 C 0.41018 0.08970 0.50197
 C175 C 0.59053 0.08967 0.49797
 C176 C 0.49841 0.08971 0.59026
 C177 C 0.50242 0.08971 0.40982
 H178 H 0.55319 0.05224 0.55283
 O179 O 0.53627 0.03533 0.53588
 H180 H 0.44762 0.05226 0.44718
 O181 O 0.46457 0.03534 0.46413
 O182 O 0.60255 -0.05414 0.50150
 O183 O 0.39843 -0.05411 0.49850
 O184 O 0.55412 -0.00189 0.60219
 O185 O 0.55393 0.00105 0.39796
 O186 O 0.44670 -0.00187 0.39785
 O187 O 0.44687 0.00082 0.60209
 O188 O 0.50200 -0.10248 0.55358
 O189 O 0.49905 -0.10253 0.44624
 O190 O 0.50199 -0.05409 0.60204
 O191 O 0.49897 -0.05407 0.39781
 O192 O 0.60250 -0.00192 0.55382
 O193 O 0.39840 0.00082 0.55358
 O194 O 0.39834 -0.00188 0.44625
 O195 O 0.60241 0.00102 0.44646
 O196 O 0.55416 -0.10256 0.50139
 O197 O 0.44687 -0.10251 0.49849
 Zr198 Zr 0.57021 -0.00049 0.50009
 Zr199 Zr 0.43064 -0.00048 0.49994
 Zr200 Zr 0.50047 -0.00047 0.56982
 Zr201 Zr 0.50035 -0.00046 0.43017
 Zr202 Zr 0.50049 -0.07026 0.49993
 O203 O 0.46444 -0.03641 0.46398
 O204 O 0.53641 -0.03643 0.53601
 C205 C 0.59072 -0.09070 0.50214
 C206 C 0.41033 -0.09063 0.49778
 C207 C 0.59064 -0.00261 0.59036
 C208 C 0.59047 0.00177 0.40989
 C209 C 0.41019 -0.00258 0.40971
 C210 C 0.41031 0.00149 0.59018
 C211 C 0.50273 -0.09059 0.59011
 C212 C 0.49832 -0.09064 0.40966
 H213 H 0.44780 -0.05324 0.55267
 O214 O 0.46470 -0.03631 0.53576
 H215 H 0.55316 -0.05318 0.44725
 O216 O 0.53625 -0.03628 0.46416
 C217 C 0.11972 0.12016 -0.00337
 C218 C 0.14503 0.14538 -0.00385
 C219 C 0.17528 0.17547 -0.00408
 C220 C 0.19968 0.18064 0.02914
 C221 C 0.22895 0.20997 0.02913
 C222 C 0.23423 0.23458 -0.00418
 C223 C 0.20960 0.22908 -0.03749
 C224 C 0.18032 0.19972 -0.03740
 C225 C 0.26521 0.26588 -0.00409
 C226 C 0.28815 0.27313 -0.03816
 C227 C 0.31743 0.30249 -0.03793
 C228 C 0.32414 0.32500 -0.00371
 C229 C 0.30143 0.31809 0.03028
 C230 C 0.27217 0.28875 0.03013
 C231 C 0.35438 0.35511 -0.00335
 C232 C 0.37968 0.38034 -0.00279
 H233 H 0.19611 0.16196 0.05505
 H234 H 0.24777 0.21309 0.05500
 H235 H 0.21258 0.24785 -0.06338
 H236 H 0.16152 0.19605 -0.06324
 H237 H 0.28386 0.25572 -0.06479
 H238 H 0.33492 0.30752 -0.06437
 H239 H 0.30630 0.33542 0.05690
 H240 H 0.25466 0.28428 0.05663
 C241 C 0.11995 -0.37973 0.49696
 C242 C 0.14527 -0.35457 0.49641
 C243 C 0.17555 -0.32460 0.49609
 C244 C 0.20005 -0.31956 0.52924
 C245 C 0.22941 -0.29035 0.52913
 C246 C 0.23463 -0.26578 0.49580
 C247 C 0.20989 -0.27116 0.46256
 C248 C 0.18052 -0.30039 0.46275
 C249 C 0.26568 -0.23463 0.49579
 C250 C 0.28869 -0.22766 0.46172
 C251 C 0.31805 -0.19842 0.46187
 C252 C 0.32473 -0.17579 0.49600
 C253 C 0.30196 -0.18243 0.52999
 C254 C 0.27261 -0.21165 0.52992
 C255 C 0.35500 -0.14580 0.49627
 C256 C 0.38031 -0.12063 0.49681
 H257 H 0.19651 -0.33824 0.55515
 H258 H 0.24833 -0.28729 0.55493
 H259 H 0.21287 -0.25240 0.43667
 H260 H 0.16162 -0.30401 0.43698
 H261 H 0.28437 -0.24519 0.43517
 H262 H 0.33561 -0.19356 0.43544
 H263 H 0.30683 -0.16497 0.55652
 H264 H 0.25503 -0.21595 0.55640
 C265 C 0.88066 0.88120 -0.00320
 C266 C 0.85534 0.85594 -0.00366
 C267 C 0.82507 0.82580 -0.00385
 C268 C 0.80221 0.81919 0.03011
 C269 C 0.77293 0.78984 0.03012
 C270 C 0.76608 0.76664 -0.00390
 C271 C 0.78918 0.77358 -0.03794
 C272 C 0.81847 0.80295 -0.03787
 C273 C 0.73505 0.73531 -0.00382
 C274 C 0.71067 0.72936 -0.03724
 C275 C 0.68137 0.70000 -0.03700
 C276 C 0.67605 0.67616 -0.00342
 C277 C 0.70019 0.68179 0.02992
 C278 C 0.72948 0.71113 0.02976
 C279 C 0.64577 0.64603 -0.00307
 C280 C 0.62045 0.62078 -0.00251
 H281 H 0.80696 0.83677 0.05658
 H282 H 0.75532 0.78563 0.05660
 H283 H 0.78500 0.75592 -0.06443
 H284 H 0.83606 0.80772 -0.06429
 H285 H 0.71385 0.74778 -0.06335
 H286 H 0.66278 0.69599 -0.06295
 H287 H 0.69642 0.66344 0.05604
 H288 H 0.74809 0.71457 0.05574
 C289 C 0.87970 0.37999 0.49679
 C290 C 0.85444 0.35477 0.49624
 C291 C 0.82427 0.32467 0.49593
 C292 C 0.80079 0.31864 0.52955
 C293 C 0.77161 0.28926 0.52948
 C294 C 0.76554 0.26551 0.49572
 C295 C 0.78924 0.27188 0.46201
 C296 C 0.81844 0.30128 0.46216
 C297 C 0.73468 0.23416 0.49574
 C298 C 0.71070 0.22791 0.46211
 C299 C 0.68150 0.19851 0.46231
 C300 C 0.67594 0.17500 0.49606
 C301 C 0.69971 0.18091 0.52960
 C302 C 0.72889 0.21029 0.52948
 C303 C 0.64579 0.14490 0.49641
 C304 C 0.62053 0.11968 0.49698
 H305 H 0.80501 0.33668 0.55580
 H306 H 0.75348 0.28543 0.55567
 H307 H 0.78559 0.25376 0.43576
 H308 H 0.83655 0.30566 0.43602
 H309 H 0.71412 0.24613 0.43589
 H310 H 0.66317 0.19423 0.43623
 H311 H 0.69571 0.16278 0.55584
 H312 H 0.74724 0.21403 0.55561
 C313 C 0.87928 0.12001 0.00264
 C314 C 0.85401 0.14522 0.00328
 C315 C 0.82383 0.17529 0.00373
 C316 C 0.79889 0.18017 -0.02913
 C317 C 0.76969 0.20954 -0.02891
 C318 C 0.76506 0.23443 0.00423
 C319 C 0.79023 0.22920 0.03717
 C320 C 0.81944 0.19982 0.03688
 C321 C 0.73420 0.26577 0.00434
 C322 C 0.71171 0.27319 0.03864
 C323 C 0.68252 0.30260 0.03858
 C324 C 0.67549 0.32496 0.00430
 C325 C 0.69776 0.31788 -0.02992
 C326 C 0.72693 0.28849 -0.02994
 C327 C 0.64535 0.35508 0.00410
 C328 C 0.62011 0.38032 0.00360
 H329 H 0.80198 0.16125 -0.05489
 H330 H 0.75042 0.21248 -0.05449
 H331 H 0.78771 0.24821 0.06291
 H332 H 0.83869 0.19634 0.06242
 H333 H 0.71629 0.25587 0.06532
 H334 H 0.66535 0.30780 0.06519
 H335 H 0.69262 0.33512 -0.05658
 H336 H 0.74412 0.28384 -0.05662
 C337 C 0.88105 -0.38117 0.50277
 C338 C 0.85572 -0.35592 0.50330
 C339 C 0.82545 -0.32579 0.50362
 C340 C 0.80123 -0.32024 0.47031
 C341 C 0.77195 -0.29090 0.47042
 C342 C 0.76645 -0.26664 0.50392
 C343 C 0.79090 -0.27253 0.53732
 C344 C 0.82019 -0.30189 0.53712
 C345 C 0.73542 -0.23532 0.50396
 C346 C 0.71239 -0.22830 0.53801
 C347 C 0.68309 -0.19894 0.53789
 C348 C 0.67642 -0.17616 0.50380
 C349 C 0.69922 -0.18284 0.46982
 C350 C 0.72850 -0.21219 0.46986
 C351 C 0.64615 -0.14602 0.50355
 C352 C 0.62083 -0.12077 0.50306
 H353 H 0.80494 -0.33864 0.44425
 H354 H 0.75328 -0.28751 0.44447
 H355 H 0.78776 -0.25405 0.56337
 H356 H 0.83883 -0.30584 0.56304
 H357 H 0.71662 -0.24591 0.56455
 H358 H 0.66555 -0.19411 0.56433
 H359 H 0.69441 -0.16531 0.44329
 H360 H 0.74606 -0.21645 0.44336
 C361 C 0.12015 0.37990 0.50316
 C362 C 0.14547 0.35468 0.50368
 C363 C 0.17573 0.32460 0.50394
 C364 C 0.18011 0.29958 0.53679
 C365 C 0.20940 0.27023 0.53691
 C366 C 0.23468 0.26551 0.50410
 C367 C 0.23006 0.29090 0.47126
 C368 C 0.20078 0.32022 0.47122
 C369 C 0.26567 0.23421 0.50404
 C370 C 0.27331 0.21216 0.46946
 C371 C 0.30256 0.18281 0.46934
 C372 C 0.32459 0.17509 0.50371
 C373 C 0.31720 0.19679 0.53828
 C374 C 0.28793 0.22615 0.53848
 C375 C 0.35481 0.14497 0.50341
 C376 C 0.38011 0.11973 0.50288
 H377 H 0.16080 0.30264 0.56224
 H378 H 0.21188 0.25086 0.56242
 H379 H 0.24939 0.28839 0.44579
 H380 H 0.19772 0.33951 0.44568
 H381 H 0.25633 0.21726 0.44265
 H382 H 0.30796 0.16610 0.44245
 H383 H 0.33416 0.19113 0.56503
 H384 H 0.28311 0.24294 0.56540
 C385 C 0.11960 0.87982 0.00296
 C386 C 0.14495 0.85469 0.00358
 C387 C 0.17529 0.82478 0.00397
 C388 C 0.17655 0.79665 0.03447
 C389 C 0.20594 0.76745 0.03467
 C390 C 0.23444 0.76602 0.00429
 C391 C 0.23295 0.79452 -0.02618
 C392 C 0.20356 0.82369 -0.02631
 C393 C 0.26550 0.73488 0.00425
 C394 C 0.27654 0.71620 -0.03136
 C395 C 0.30585 0.68695 -0.03144
 C396 C 0.32450 0.67598 0.00401
 C397 C 0.31373 0.69433 0.03961
 C398 C 0.28440 0.72359 0.03976
 C399 C 0.35470 0.64593 0.00377
 C400 C 0.37997 0.62072 0.00328
 H401 H 0.15472 0.79719 0.05799
 H402 H 0.20603 0.74563 0.05825
 H403 H 0.25479 0.79452 -0.04967
 H404 H 0.20290 0.84542 -0.04999
 H405 H 0.26216 0.72386 -0.05907
 H406 H 0.31390 0.67283 -0.05913
 H407 H 0.32808 0.68610 0.06720
 H408 H 0.27688 0.73776 0.06755
 C409 C -0.00346 0.12014 0.11975
 C410 C -0.00398 0.14545 0.14496
 C411 C -0.00428 0.17569 0.17502
 C412 C -0.03732 0.18030 0.19960
 C413 C -0.03747 0.20958 0.22894
 C414 C -0.00449 0.23462 0.23407
 C415 C 0.02855 0.22977 0.20913
 C416 C 0.02862 0.20050 0.17982
 C417 C -0.00445 0.26558 0.26536
 C418 C 0.02991 0.27288 0.28796
 C419 C 0.03001 0.30212 0.31730
 C420 C -0.00416 0.32447 0.32446
 C421 C -0.03852 0.31742 0.30221
 C422 C -0.03870 0.28816 0.27286
 C423 C -0.00386 0.35468 0.35455
 C424 C -0.00331 0.37996 0.37978
 H425 H -0.06290 0.16117 0.19620
 H426 H -0.06313 0.21225 0.24798
 H427 H 0.05415 0.24892 0.21198
 H428 H 0.05431 0.19725 0.16086
 H429 H 0.05656 0.25564 0.28328
 H430 H 0.05673 0.30726 0.33443
 H431 H -0.06511 0.33464 0.30745
 H432 H -0.06545 0.28359 0.25564
 C433 C 0.49694 0.38024 0.88009
 C434 C 0.49647 0.35491 0.85487
 C435 C 0.49627 0.32462 0.82480
 C436 C 0.53018 0.30163 0.81840
 C437 C 0.53017 0.27230 0.78913
 C438 C 0.49617 0.26554 0.76582
 C439 C 0.46218 0.28876 0.77255
 C440 C 0.46227 0.31811 0.80184
 C441 C 0.49623 0.23447 0.73459
 C442 C 0.46286 0.21010 0.72869
 C443 C 0.46308 0.18075 0.69940
 C444 C 0.49659 0.17538 0.67560
 C445 C 0.52988 0.19951 0.68117
 C446 C 0.52974 0.22884 0.71044
 C447 C 0.49693 0.14510 0.64554
 C448 C 0.49747 0.11977 0.62032
 H449 H 0.55662 0.30634 0.83608
 H450 H 0.55660 0.25458 0.78506
 H451 H 0.43572 0.28463 0.75479
 H452 H 0.43588 0.33580 0.80648
 H453 H 0.43681 0.21335 0.74710
 H454 H 0.43719 0.16217 0.69542
 H455 H 0.55594 0.19569 0.66283
 H456 H 0.55567 0.24745 0.71385
 C457 C -0.00388 0.87979 0.87960
 C458 C -0.00445 0.85449 0.85444
 C459 C -0.00474 0.82426 0.82447
 C460 C 0.02759 0.79856 0.82083
 C461 C 0.02756 0.76929 0.79156
 C462 C -0.00486 0.76537 0.76553
 C463 C -0.03729 0.79128 0.76952
 C464 C -0.03718 0.82056 0.79882
 C465 C -0.00475 0.73445 0.73429
 C466 C -0.03930 0.71264 0.72584
 C467 C -0.03904 0.68338 0.69651
 C468 C -0.00431 0.67562 0.67529
 C469 C 0.03016 0.69720 0.68341
 C470 C 0.02998 0.72644 0.71272
 C471 C -0.00393 0.64545 0.64526
 C472 C -0.00332 0.62019 0.62007
 H473 H 0.05279 0.80113 0.84064
 H474 H 0.05270 0.74944 0.78956
 H475 H -0.06245 0.78928 0.74961
 H476 H -0.06230 0.84041 0.80135
 H477 H -0.06634 0.71782 0.74228
 H478 H -0.06585 0.66674 0.69049
 H479 H 0.05717 0.69147 0.66704
 H480 H 0.05688 0.74311 0.71819
 C481 C 0.49728 -0.38082 0.11919
 C482 C 0.49678 -0.35551 0.14444
 C483 C 0.49651 -0.32524 0.17456
 C484 C 0.46352 -0.32068 0.19924
 C485 C 0.46338 -0.29138 0.22860
 C486 C 0.49631 -0.26624 0.23368
 C487 C 0.52929 -0.27106 0.20865
 C488 C 0.52935 -0.30034 0.17931
 C489 C 0.49634 -0.23521 0.26500
 C490 C 0.53079 -0.22762 0.28737
 C491 C 0.53088 -0.19835 0.31672
 C492 C 0.49660 -0.17624 0.32414
 C493 C 0.46215 -0.18358 0.30212
 C494 C 0.46198 -0.21287 0.27275
 C495 C 0.49687 -0.14600 0.35429
 C496 C 0.49738 -0.12070 0.37956
 H497 H 0.43797 -0.33985 0.19591
 H498 H 0.43775 -0.28877 0.24769
 H499 H 0.55487 -0.25186 0.21142
 H500 H 0.55501 -0.30353 0.16030
 H501 H 0.55754 -0.24466 0.28252
 H502 H 0.55768 -0.19302 0.33367
 H503 H 0.43547 -0.16657 0.30753
 H504 H 0.43515 -0.21763 0.25573
 C505 C 0.00244 0.88115 0.11864
 C506 C 0.00296 0.85582 0.14395
 C507 C 0.00324 0.82552 0.17415
 C508 C -0.03038 0.80197 0.18020
 C509 C -0.03029 0.77266 0.20958
 C510 C 0.00349 0.76643 0.23339
 C511 C 0.03718 0.79022 0.22701
 C512 C 0.03701 0.81954 0.19761
 C513 C 0.00350 0.73534 0.26475
 C514 C 0.03727 0.71169 0.27138
 C515 C 0.03714 0.68235 0.30077
 C516 C 0.00332 0.67624 0.32397
 C517 C -0.03037 0.69965 0.31767
 C518 C -0.03032 0.72897 0.28830
 C519 C 0.00307 0.64593 0.35416
 C520 C 0.00260 0.62058 0.37945
 H521 H -0.05666 0.80622 0.16215
 H522 H -0.05650 0.75452 0.21332
 H523 H 0.06346 0.78654 0.24513
 H524 H 0.06318 0.83765 0.19329
 H525 H 0.06359 0.71547 0.25346
 H526 H 0.06336 0.66435 0.30529
 H527 H -0.05669 0.69529 0.33551
 H528 H -0.05659 0.74700 0.28436
 C529 C 0.50330 -0.37940 0.88031
 C530 C 0.50395 -0.35415 0.85511
 C531 C 0.50438 -0.32401 0.82506
 C532 C 0.47143 -0.29935 0.82002
 C533 C 0.47160 -0.27018 0.79062
 C534 C 0.50480 -0.26534 0.76591
 C535 C 0.53785 -0.29021 0.77132
 C536 C 0.53760 -0.31940 0.80073
 C537 C 0.50485 -0.23456 0.73456
 C538 C 0.53893 -0.21160 0.72754
 C539 C 0.53879 -0.18242 0.69810
 C540 C 0.50466 -0.17593 0.67537
 C541 C 0.47067 -0.19869 0.68204
 C542 C 0.47072 -0.22784 0.71145
 C543 C 0.50436 -0.14581 0.64530
 C544 C 0.50378 -0.12057 0.62008
 H545 H 0.44563 -0.30265 0.83881
 H546 H 0.44596 -0.25111 0.78750
 H547 H 0.56362 -0.28748 0.75242
 H548 H 0.56320 -0.33846 0.80439
 H549 H 0.56546 -0.21580 0.74518
 H550 H 0.56521 -0.16484 0.69319
 H551 H 0.44414 -0.19392 0.66449
 H552 H 0.44424 -0.24543 0.71583
 C553 C 0.50318 0.38031 0.12060
 C554 C 0.50374 0.35498 0.14579
 C555 C 0.50405 0.32471 0.17580
 C556 C 0.46970 0.30276 0.18331
 C557 C 0.46981 0.27340 0.21256
 C558 C 0.50437 0.26562 0.23469
 C559 C 0.53880 0.28780 0.22684
 C560 C 0.53860 0.31718 0.19758
 C561 C 0.50441 0.23456 0.26585
 C562 C 0.53708 0.20899 0.27037
 C563 C 0.53693 0.17959 0.29961
 C564 C 0.50421 0.17542 0.32469
 C565 C 0.47164 0.20076 0.32051
 C566 C 0.47170 0.23014 0.29129
 C567 C 0.50392 0.14511 0.35466
 C568 C 0.50338 0.11976 0.37982
 H569 H 0.44283 0.30829 0.16651
 H570 H 0.44302 0.25646 0.21753
 H571 H 0.56569 0.28283 0.24372
 H572 H 0.56532 0.33410 0.19204
 H573 H 0.56247 0.21135 0.25092
 H574 H 0.56225 0.16004 0.30256
 H575 H 0.44621 0.19783 0.33987
 H576 H 0.44637 0.24971 0.28890
 C577 C 0.00218 0.11870 0.88068
 C578 C 0.00271 0.14405 0.85540
 C579 C 0.00303 0.17438 0.82525
 C580 C -0.03085 0.19736 0.81847
 C581 C -0.03070 0.22673 0.78915
 C582 C 0.00341 0.23355 0.76616
 C583 C 0.03736 0.21032 0.77328
 C584 C 0.03713 0.18094 0.80260
 C585 C 0.00350 0.26470 0.73489
 C586 C 0.03696 0.28897 0.72916
 C587 C 0.03689 0.31836 0.69985
 C588 C 0.00345 0.32391 0.67582
 C589 C -0.02993 0.29988 0.68121
 C590 C -0.02994 0.27050 0.71051
 C591 C 0.00326 0.35427 0.64571
 C592 C 0.00282 0.37965 0.62046
 H593 H -0.05739 0.19264 0.83589
 H594 H -0.05713 0.24444 0.78482
 H595 H 0.06392 0.21447 0.75578
 H596 H 0.06351 0.16326 0.80751
 H597 H 0.06298 0.28561 0.74774
 H598 H 0.06287 0.33685 0.69603
 H599 H -0.05595 0.30381 0.66272
 H600 H -0.05595 0.25199 0.71376
 C601 C 0.11976 -0.00321 0.11990
 C602 C 0.14503 -0.00378 0.14518
 C603 C 0.17519 -0.00412 0.17535
 C604 C 0.19501 -0.03936 0.18467
 C605 C 0.22444 -0.03960 0.21392
 C606 C 0.23442 -0.00451 0.23417
 C607 C 0.21426 0.03074 0.22459
 C608 C 0.18483 0.03089 0.19537
 C609 C 0.26577 -0.00462 0.26511
 C610 C 0.29305 0.02682 0.26764
 C611 C 0.32242 0.02687 0.29693
 C612 C 0.32489 -0.00446 0.32404
 C613 C 0.29798 -0.03593 0.32173
 C614 C 0.26859 -0.03605 0.29244
 C615 C 0.35495 -0.00413 0.35431
 C616 C 0.38017 -0.00357 0.37964
 H617 H 0.18782 -0.06660 0.16925
 H618 H 0.23978 -0.06707 0.22031
 H619 H 0.22090 0.05808 0.24004
 H620 H 0.16957 0.05830 0.18843
 H621 H 0.29197 0.05115 0.24670
 H622 H 0.34320 0.05132 0.29842
 H623 H 0.29960 -0.06026 0.34266
 H624 H 0.24772 -0.06042 0.29153
 C625 C 0.38118 0.49776 0.88135
 C626 C 0.35590 0.49723 0.85596
 C627 C 0.32572 0.49690 0.82562
 C628 C 0.32156 0.52933 0.80002
 C629 C 0.29218 0.52921 0.77067
 C630 C 0.26649 0.49658 0.76648
 C631 C 0.27099 0.46407 0.79232
 C632 C 0.30039 0.46427 0.82168
 C633 C 0.23511 0.49655 0.73538
 C634 C 0.22655 0.46187 0.71378
 C635 C 0.19713 0.46197 0.68444
 C636 C 0.17584 0.49666 0.67629
 C637 C 0.18407 0.53127 0.69766
 C638 C 0.21348 0.53125 0.72698
 C639 C 0.14562 0.49685 0.64599
 C640 C 0.12031 0.49729 0.62063
 H641 H 0.34106 0.55470 0.80271
 H642 H 0.28988 0.55444 0.75094
 H643 H 0.25140 0.43873 0.79022
 H644 H 0.30325 0.43904 0.84139
 H645 H 0.24298 0.43482 0.71917
 H646 H 0.19110 0.43503 0.66803
 H647 H 0.16771 0.55827 0.69170
 H648 H 0.21894 0.55827 0.74342
 C649 C 0.88073 -0.00317 0.88081
 C650 C 0.85550 -0.00377 0.85546
 C651 C 0.82543 -0.00414 0.82517
 C652 C 0.82055 0.02879 0.80038
 C653 C 0.79121 0.02865 0.77105
 C654 C 0.76635 -0.00449 0.76613
 C655 C 0.77158 -0.03750 0.79115
 C656 C 0.80093 -0.03728 0.82050
 C657 C 0.73506 -0.00452 0.73511
 C658 C 0.72768 -0.03874 0.71240
 C659 C 0.69832 -0.03861 0.68306
 C660 C 0.67597 -0.00435 0.67609
 C661 C 0.68301 0.02978 0.69857
 C662 C 0.71236 0.02973 0.72789
 C663 C 0.64589 -0.00409 0.64581
 C664 C 0.62066 -0.00357 0.62046
 H665 H 0.83945 0.05455 0.80368
 H666 H 0.78829 0.05427 0.75190
 H667 H 0.75259 -0.06324 0.78842
 H668 H 0.80441 -0.06288 0.83963
 H669 H 0.74498 -0.06539 0.71693
 H670 H 0.69315 -0.06515 0.66574
 H671 H 0.66579 0.05642 0.69348
 H672 H 0.71696 0.05634 0.74524
 C673 C -0.38122 0.49737 0.11931
 C674 C -0.35595 0.49679 0.14465
 C675 C -0.32580 0.49645 0.17493
 C676 C -0.30316 0.46230 0.18154
 C677 C -0.27375 0.46210 0.21084
 C678 C -0.26656 0.49613 0.23390
 C679 C -0.28955 0.53027 0.22704
 C680 C -0.31895 0.53040 0.19776
 C681 C -0.23518 0.49608 0.26490
 C682 C -0.21066 0.52941 0.27025
 C683 C -0.18126 0.52946 0.29954
 C684 C -0.17595 0.49626 0.32389
 C685 C -0.20012 0.46293 0.31878
 C686 C -0.22953 0.46279 0.28947
 C687 C -0.14581 0.49654 0.35417
 C688 C -0.12055 0.49707 0.37951
 H689 H -0.30815 0.43589 0.16395
 H690 H -0.25623 0.43553 0.21506
 H691 H -0.28512 0.55674 0.24465
 H692 H -0.33638 0.55696 0.19296
 H693 H -0.21389 0.55527 0.25147
 H694 H -0.16265 0.55539 0.30317
 H695 H -0.19633 0.43710 0.33754
 H696 H -0.24823 0.43689 0.28642
 C697 C 0.11953 0.00282 0.87933
 C698 C 0.14478 0.00329 0.85407
 C699 C 0.17493 0.00353 0.82391
 C700 C 0.19840 0.03725 0.81812
 C701 C 0.22783 0.03736 0.78895
 C702 C 0.23420 0.00366 0.76520
 C703 C 0.21038 -0.03005 0.77123
 C704 C 0.18097 -0.03007 0.80038
 C705 C 0.26559 0.00361 0.73433
 C706 C 0.28926 -0.03021 0.72831
 C707 C 0.31868 -0.03033 0.69917
 C708 C 0.32486 0.00328 0.67563
 C709 C 0.30155 0.03709 0.68140
 C710 C 0.27212 0.03730 0.71057
 C711 C 0.35503 0.00294 0.64548
 C712 C 0.38028 0.00241 0.62022
 H713 H 0.19406 0.06339 0.83624
 H714 H 0.24598 0.06358 0.78539
 H715 H 0.21416 -0.05624 0.75309
 H716 H 0.16290 -0.05630 0.80453
 H717 H 0.28536 -0.05640 0.74647
 H718 H 0.33662 -0.05664 0.69503
 H719 H 0.30601 0.06324 0.66327
 H720 H 0.25409 0.06360 0.71412
 C721 C 0.37994 0.50357 0.12050
 C722 C 0.35474 0.50409 0.14576
 C723 C 0.32467 0.50437 0.17595
 C724 C 0.31893 0.47089 0.19977
 C725 C 0.28960 0.47094 0.22897
 C726 C 0.26559 0.50455 0.23475
 C727 C 0.27168 0.53812 0.21071
 C728 C 0.30103 0.53799 0.18149
 C729 C 0.23430 0.50451 0.26566
 C730 C 0.22773 0.53826 0.28926
 C731 C 0.19838 0.53806 0.31848
 C732 C 0.17521 0.50418 0.32445
 C733 C 0.18143 0.47051 0.30108
 C734 C 0.21076 0.47063 0.27187
 C735 C 0.14513 0.50384 0.35463
 C736 C 0.11992 0.50328 0.37989
 H737 H 0.33715 0.44475 0.19580
 H738 H 0.28601 0.44485 0.24736
 H739 H 0.25337 0.56425 0.21410
 H740 H 0.30517 0.56403 0.16312
 H741 H 0.24568 0.56461 0.28552
 H742 H 0.19387 0.56425 0.33649
 H743 H 0.16357 0.44417 0.30539
 H744 H 0.21472 0.44439 0.25384
 C745 C 0.87947 0.00307 0.11978
 C746 C 0.85434 0.00361 0.14508
 C747 C 0.82438 0.00389 0.17534
 C748 C 0.81896 -0.02946 0.19941
 C749 C 0.78975 -0.02940 0.22872
 C750 C 0.76555 0.00409 0.23434
 C751 C 0.77130 0.03753 0.21004
 C752 C 0.80054 0.03739 0.18072
 C753 C 0.73439 0.00405 0.26534
 C754 C 0.72776 0.03789 0.28879
 C755 C 0.69852 0.03768 0.31811
 C756 C 0.67554 0.00372 0.32432
 C757 C 0.68183 -0.03004 0.30110
 C758 C 0.71105 -0.02991 0.27180
 C759 C 0.64557 0.00338 0.35457
 C760 C 0.62043 0.00280 0.37987
 H761 H 0.83736 -0.05550 0.19556
 H762 H 0.78641 -0.05537 0.24731
 H763 H 0.75283 0.06356 0.21333
 H764 H 0.80444 0.06333 0.16215
 H765 H 0.74556 0.06430 0.28485
 H766 H 0.69394 0.06394 0.33602
 H767 H 0.66411 -0.05644 0.30560
 H768 H 0.71508 -0.05622 0.25387
 C769 C -0.37990 0.50351 0.88018
 C770 C -0.35471 0.50400 0.85488
 C771 C -0.32467 0.50424 0.82465
 C772 C -0.30206 0.53837 0.81795
 C773 C -0.27276 0.53849 0.78867
 C774 C -0.26567 0.50439 0.76570
 C775 C -0.28864 0.47027 0.77264
 C776 C -0.31792 0.47023 0.80191
 C777 C -0.23444 0.50436 0.73471
 C778 C -0.20994 0.47101 0.72945
 C779 C -0.18067 0.47089 0.70018
 C780 C -0.17546 0.50403 0.67575
 C781 C -0.19960 0.53738 0.68077
 C782 C -0.22889 0.53758 0.71006
 C783 C -0.14542 0.50369 0.64551
 C784 C -0.12023 0.50314 0.62021
 H785 H -0.30697 0.56483 0.83546
 H786 H -0.25526 0.56505 0.78438
 H787 H -0.28429 0.44375 0.75511
 H788 H -0.33533 0.44368 0.80677
 H789 H -0.21309 0.44520 0.74829
 H790 H -0.16206 0.44496 0.69662
 H791 H -0.19589 0.56316 0.66195
 H792 H -0.24758 0.56350 0.71303
   
