data_POSCAR
  _audit_creation_date              2014-09-24
  _audit_creation_method            'ToBaCCo'
  _symmetry_space_group_name_H-M    'P1'
  _symmetry_Int_Tables_number       1
  _symmetry_cell_setting            triclinic
  loop_
  _symmetry_equiv_pos_as_xyz
 x,y,z
_cell_length_a 43.4565
_cell_length_b 43.4212
_cell_length_c 45.1893
_cell_angle_alpha 90.005400
_cell_angle_beta 90.001600
_cell_angle_gamma 90.155300
loop_
  _atom_site_label
  _atom_site_type_symbol
  _atom_site_fract_x
  _atom_site_fract_y
  _atom_site_fract_z
C1 C 0.06470 0.31302 -0.02763
 C2 C 0.08057 0.31276 -0.00073
 C3 C 0.06486 0.31320 0.02621
 C4 C 0.03237 0.31422 0.02661
 C5 C 0.01593 0.31459 -0.00052
 C6 C 0.03214 0.31408 -0.02780
 C7 C 0.01535 0.31413 -0.05443
 C8 C -0.01668 0.31417 -0.05428
 C9 C -0.03322 0.31414 -0.02749
 C10 C -0.01677 0.31461 -0.00036
 C11 C 0.01591 0.31435 0.05339
 C12 C -0.01612 0.31434 0.05356
 C13 C -0.03294 0.31421 0.02695
 C14 C -0.06550 0.31320 0.02683
 C15 C -0.08143 0.31286 -0.00003
 C16 C -0.06577 0.31316 -0.02704
 H17 H 0.02688 0.31394 -0.07567
 H18 H -0.02842 0.31402 -0.07541
 H19 H 0.02769 0.31426 0.07450
 H20 H -0.02763 0.31424 0.07482
 H21 H 0.10552 0.31134 -0.00070
 H22 H -0.10641 0.31149 0.00008
 C23 C 0.43476 0.81628 0.52668
 C24 C 0.41904 0.81587 0.49972
 C25 C 0.43492 0.81616 0.47285
 C26 C 0.46742 0.81721 0.47266
 C27 C 0.48364 0.81769 0.49991
 C28 C 0.46726 0.81728 0.52706
 C29 C 0.48379 0.81731 0.55382
 C30 C 0.51584 0.81725 0.55392
 C31 C 0.53253 0.81717 0.52726
 C32 C 0.51631 0.81765 0.50001
 C33 C 0.48411 0.81724 0.44600
 C34 C 0.51616 0.81725 0.44610
 C35 C 0.53269 0.81719 0.47286
 C36 C 0.56518 0.81612 0.47325
 C37 C 0.58090 0.81571 0.50020
 C38 C 0.56503 0.81606 0.52707
 H39 H 0.47205 0.81718 0.57496
 H40 H 0.52744 0.81707 0.57512
 H41 H 0.47251 0.81707 0.42480
 H42 H 0.52790 0.81708 0.42497
 H43 H 0.39410 0.81442 0.49966
 H44 H 0.60583 0.81422 0.50027
 C45 C 0.93534 0.68495 -0.02672
 C46 C 0.91943 0.68528 0.00012
 C47 C 0.93509 0.68489 0.02710
 C48 C 0.96758 0.68386 0.02754
 C49 C 0.98402 0.68341 0.00042
 C50 C 0.96784 0.68388 -0.02686
 C51 C 0.98457 0.68381 -0.05348
 C52 C 1.01661 0.68378 -0.05334
 C53 C 1.03311 0.68384 -0.02656
 C54 C 1.01670 0.68341 0.00058
 C55 C 0.98404 0.68381 0.05433
 C56 C 1.01608 0.68384 0.05449
 C57 C 1.03290 0.68390 0.02786
 C58 C 1.06546 0.68498 0.02768
 C59 C 1.08132 0.68528 0.00078
 C60 C 1.06560 0.68487 -0.02617
 H61 H 0.97300 0.68397 -0.07470
 H62 H 1.02837 0.68392 -0.07446
 H63 H 0.97226 0.68397 0.07544
 H64 H 1.02762 0.68402 0.07573
 H65 H 0.89449 0.68676 0.00001
 H66 H 1.10628 0.68673 0.00074
 C67 C 0.43493 0.18571 0.52721
 C68 C 0.41904 0.18603 0.50035
 C69 C 0.43475 0.18565 0.47339
 C70 C 0.46724 0.18466 0.47299
 C71 C 0.48364 0.18423 0.50014
 C72 C 0.46742 0.18468 0.52739
 C73 C 0.48413 0.18462 0.55404
 C74 C 0.51618 0.18458 0.55394
 C75 C 0.53270 0.18463 0.52717
 C76 C 0.51630 0.18422 0.50003
 C77 C 0.48376 0.18464 0.44623
 C78 C 0.51581 0.18467 0.44612
 C79 C 0.53252 0.18470 0.47277
 C80 C 0.56502 0.18573 0.47295
 C81 C 0.58090 0.18601 0.49982
 C82 C 0.56520 0.18561 0.52678
 H83 H 0.47253 0.18479 0.57525
 H84 H 0.52793 0.18472 0.57507
 H85 H 0.47202 0.18479 0.42510
 H86 H 0.52741 0.18485 0.42491
 H87 H 0.39410 0.18744 0.50042
 H88 H 0.60585 0.18742 0.49975
 C89 C 0.68645 -0.06574 0.02684
 C90 C 0.68683 -0.08169 -0.00002
 C91 C 0.68644 -0.06603 -0.02703
 C92 C 0.68534 -0.03347 -0.02749
 C93 C 0.68483 -0.01700 -0.00036
 C94 C 0.68529 -0.03317 0.02695
 C95 C 0.68510 -0.01632 0.05356
 C96 C 0.68497 0.01573 0.05338
 C97 C 0.68503 0.03219 0.02659
 C98 C 0.68471 0.01573 -0.00053
 C99 C 0.68525 -0.01692 -0.05428
 C100 C 0.68518 0.01513 -0.05444
 C101 C 0.68517 0.03194 -0.02782
 C102 C 0.68613 0.06453 -0.02765
 C103 C 0.68632 0.08043 -0.00076
 C104 C 0.68593 0.06471 0.02618
 H105 H 0.68524 -0.02784 0.07482
 H106 H 0.68502 0.02753 0.07449
 H107 H 0.68544 -0.02868 -0.07541
 H108 H 0.68533 0.02667 -0.07568
 H109 H 0.68829 -0.10668 0.00010
 H110 H 0.68767 0.10542 -0.00074
 C111 C 0.18522 0.43439 0.47299
 C112 C 0.18549 0.41851 0.49986
 C113 C 0.18512 0.43425 0.52682
 C114 C 0.18417 0.46677 0.52720
 C115 C 0.18377 0.48316 0.50004
 C116 C 0.18421 0.46692 0.47279
 C117 C 0.18417 0.48362 0.44613
 C118 C 0.18418 0.51569 0.44623
 C119 C 0.18426 0.53225 0.47298
 C120 C 0.18382 0.51585 0.50014
 C121 C 0.18417 0.48332 0.55395
 C122 C 0.18426 0.51540 0.55404
 C123 C 0.18433 0.53210 0.52739
 C124 C 0.18544 0.56463 0.52718
 C125 C 0.18576 0.58050 0.50031
 C126 C 0.18532 0.56477 0.47336
 H127 H 0.18432 0.47200 0.42494
 H128 H 0.18434 0.52743 0.42509
 H129 H 0.18430 0.47158 0.57509
 H130 H 0.18447 0.52702 0.57524
 H131 H 0.18689 0.39355 0.49980
 H132 H 0.18723 0.60547 0.50037
 C133 C 0.31388 0.93534 0.02626
 C134 C 0.31346 0.91958 -0.00067
 C135 C 0.31372 0.93544 -0.02758
 C136 C 0.31478 0.96803 -0.02778
 C137 C 0.31528 0.98428 -0.00052
 C138 C 0.31490 0.96786 0.02663
 C139 C 0.31501 0.98436 0.05339
 C140 C 0.31500 1.01642 0.05354
 C141 C 0.31488 1.03322 0.02691
 C142 C 0.31529 1.01701 -0.00038
 C143 C 0.31483 0.98480 -0.05442
 C144 C 0.31487 1.01686 -0.05430
 C145 C 0.31483 1.03344 -0.02753
 C146 C 0.31383 1.06601 -0.02711
 C147 C 0.31351 1.08171 -0.00012
 C148 C 0.31385 1.06580 0.02676
 H149 H 0.31492 0.97260 0.07452
 H150 H 0.31488 1.02796 0.07478
 H151 H 0.31465 0.97323 -0.07565
 H152 H 0.31472 1.02858 -0.07545
 H153 H 0.31204 0.89460 -0.00061
 H154 H 0.31212 1.10671 -0.00003
 C155 C 0.81493 0.43492 0.47338
 C156 C 0.81456 0.41919 0.50034
 C157 C 0.81483 0.43508 0.52721
 C158 C 0.81580 0.46761 0.52740
 C159 C 0.81624 0.48385 0.50015
 C160 C 0.81586 0.46744 0.47299
 C161 C 0.81586 0.48398 0.44624
 C162 C 0.81575 0.51606 0.44614
 C163 C 0.81566 0.53277 0.47279
 C164 C 0.81617 0.51654 0.50004
 C165 C 0.81581 0.48433 0.55405
 C166 C 0.81577 0.51640 0.55395
 C167 C 0.81570 0.53294 0.52720
 C168 C 0.81462 0.56546 0.52681
 C169 C 0.81419 0.58118 0.49985
 C170 C 0.81453 0.56529 0.47298
 H171 H 0.81574 0.47223 0.42510
 H172 H 0.81555 0.52767 0.42494
 H173 H 0.81566 0.47271 0.57526
 H174 H 0.81559 0.52815 0.57509
 H175 H 0.81318 0.39422 0.50040
 H176 H 0.81270 0.60613 0.49979
 O177 O 0.23873 0.28005 0.21401
 O178 O 0.29535 0.25236 0.26842
 O179 O 0.28084 0.23786 0.21397
 O180 O 0.25323 0.29456 0.26843
 O181 O 0.21934 0.26066 0.28509
 O182 O 0.24695 0.20396 0.23063
 O183 O 0.26145 0.21846 0.28507
 O184 O 0.20483 0.24615 0.23067
 Cu185 Cu 0.27046 0.26962 0.23953
 Cu186 Cu 0.22973 0.22889 0.25954
 C187 C 0.21235 0.26753 0.21293
 C188 C 0.28782 0.23100 0.28617
 C189 C 0.26829 0.21147 0.21287
 C190 C 0.23187 0.28706 0.28617
 O191 O 0.75317 0.79609 0.23081
 O192 O 0.78042 0.73934 0.28538
 O193 O 0.79507 0.75368 0.23098
 O194 O 0.73854 0.78179 0.28527
 O195 O 0.70448 0.74803 0.26865
 O196 O 0.76101 0.71992 0.21434
 O197 O 0.74636 0.70559 0.26875
 O198 O 0.71911 0.76234 0.21419
 Cu199 Cu 0.77023 0.77114 0.25979
 Cu200 Cu 0.72929 0.73057 0.23981
 C201 C 0.73179 0.78866 0.21305
 C202 C 0.76776 0.71301 0.28649
 C203 C 0.78746 0.73230 0.21328
 C204 C 0.71210 0.76939 0.28636
 O205 O 0.79586 0.24677 0.23070
 O206 O 0.73894 0.21935 0.28513
 O207 O 0.75337 0.20472 0.23075
 O208 O 0.78142 0.26140 0.28511
 O209 O 0.74782 0.29537 0.26838
 O210 O 0.71978 0.23870 0.21401
 O211 O 0.70534 0.25332 0.26840
 O212 O 0.76226 0.28074 0.21397
 Cu213 Cu 0.77079 0.22964 0.25961
 Cu214 Cu 0.73042 0.27047 0.23950
 C215 C 0.78853 0.26812 0.21290
 C216 C 0.71266 0.23195 0.28618
 C217 C 0.73209 0.21227 0.21298
 C218 C 0.76909 0.28782 0.28616
 O219 O 0.28025 0.76151 0.21421
 O220 O 0.25254 0.70482 0.26871
 O221 O 0.23798 0.71923 0.21430
 O222 O 0.29479 0.74711 0.26863
 O223 O 0.26102 0.78095 0.28530
 O224 O 0.20421 0.75306 0.23097
 O225 O 0.21877 0.73866 0.28539
 O226 O 0.24648 0.79534 0.23089
 Cu227 Cu 0.26980 0.72975 0.23978
 Cu228 Cu 0.22921 0.77041 0.25982
 C229 C 0.26779 0.78787 0.21313
 C230 C 0.23123 0.71230 0.28648
 C231 C 0.21164 0.73169 0.21323
 C232 C 0.28737 0.76850 0.28635
 O233 O 0.76172 0.28005 0.78614
 O234 O 0.70507 0.25229 0.73165
 O235 O 0.71961 0.23763 0.78601
 O236 O 0.74720 0.29469 0.73177
 O237 O 0.78108 0.26103 0.71497
 O238 O 0.75348 0.20397 0.76921
 O239 O 0.73895 0.21863 0.71485
 O240 O 0.79560 0.24639 0.76934
 Cu241 Cu 0.72998 0.26956 0.76059
 Cu242 Cu 0.77070 0.22911 0.74040
 C243 C 0.78810 0.26764 0.78717
 C244 C 0.71257 0.23104 0.71382
 C245 C 0.73214 0.21129 0.78700
 C246 C 0.76854 0.28737 0.71398
 O247 O 0.29539 0.74811 0.73136
 O248 O 0.23896 0.71985 0.78582
 O249 O 0.25351 0.70544 0.73140
 O250 O 0.28083 0.76251 0.78578
 O251 O 0.24673 0.79602 0.76911
 O252 O 0.21941 0.73894 0.71473
 O253 O 0.20487 0.75335 0.76915
 O254 O 0.26129 0.78161 0.71468
 Cu255 Cu 0.27061 0.73060 0.76027
 Cu256 Cu 0.22964 0.77086 0.74023
 C257 C 0.28774 0.76937 0.71360
 C258 C 0.21252 0.73208 0.78690
 C259 C 0.23209 0.71268 0.71367
 C260 C 0.26814 0.78877 0.78685
 O261 O 0.28015 0.23840 0.78613
 O262 O 0.25223 0.29486 0.73165
 O263 O 0.23768 0.28024 0.78604
 O264 O 0.29467 0.25299 0.73173
 O265 O 0.26107 0.21883 0.71500
 O266 O 0.20408 0.24609 0.76931
 O267 O 0.21863 0.26070 0.71492
 O268 O 0.24654 0.20424 0.76940
 Cu269 Cu 0.26957 0.27007 0.76058
 Cu270 Cu 0.22919 0.22902 0.74047
 C271 C 0.26780 0.21191 0.78719
 C272 C 0.23098 0.28718 0.71386
 C273 C 0.21139 0.26752 0.78707
 C274 C 0.28736 0.23156 0.71396
 O275 O 0.73866 0.78142 0.71480
 O276 O 0.79541 0.75366 0.76908
 O277 O 0.78084 0.73928 0.71466
 O278 O 0.75322 0.79578 0.76925
 O279 O 0.71939 0.76179 0.78586
 O280 O 0.74701 0.70529 0.73127
 O281 O 0.76158 0.71967 0.78570
 O282 O 0.70483 0.74743 0.73140
 Cu283 Cu 0.77044 0.77096 0.74027
 Cu284 Cu 0.72978 0.73012 0.76023
 C285 C 0.71229 0.76886 0.71371
 C286 C 0.78795 0.73222 0.78678
 C287 C 0.76834 0.71287 0.71353
 C288 C 0.73190 0.78819 0.78701
 C289 C 0.30175 0.11768 0.09995
 C290 C 0.33087 0.13196 0.11353
 C291 C 0.32510 0.15045 0.13731
 C292 C 0.29079 0.15279 0.14512
 C293 C 0.28002 0.11937 0.14941
 C294 C 0.28579 0.10091 0.12565
 C295 C 0.28084 0.14511 0.09283
 C296 C 0.27509 0.16353 0.11653
 C297 C 0.30742 0.09812 0.07407
 C298 C 0.31096 0.08266 0.05217
 C299 C 0.28406 0.17298 0.17033
 C300 C 0.27744 0.19023 0.19023
 H301 H 0.35395 0.12788 0.10526
 H302 H 0.34324 0.16219 0.14941
 H303 H 0.26893 0.11094 0.16936
 H304 H 0.27965 0.07666 0.12525
 H305 H 0.27139 0.14969 0.07103
 H306 H 0.26071 0.18388 0.11502
 C307 C 0.80220 0.61879 0.60102
 C308 C 0.83134 0.63235 0.61522
 C309 C 0.82549 0.65094 0.63889
 C310 C 0.79108 0.65410 0.64598
 C311 C 0.77941 0.62095 0.65000
 C312 C 0.78526 0.60238 0.62635
 C313 C 0.78213 0.64672 0.59349
 C314 C 0.77629 0.66525 0.61709
 C315 C 0.80796 0.59909 0.57527
 C316 C 0.81158 0.58347 0.55351
 C317 C 0.78426 0.67438 0.67108
 C318 C 0.77757 0.69165 0.69092
 H319 H 0.85450 0.62772 0.60742
 H320 H 0.84363 0.66224 0.65138
 H321 H 0.76768 0.61277 0.66971
 H322 H 0.77854 0.57828 0.62579
 H323 H 0.77328 0.65154 0.57151
 H324 H 0.76244 0.68595 0.61531
 C325 C 0.69861 0.88246 0.10007
 C326 C 0.68908 0.89680 0.12975
 C327 C 0.69482 0.87832 0.15354
 C328 C 0.70951 0.84736 0.14525
 C329 C 0.73844 0.85585 0.12753
 C330 C 0.73271 0.87428 0.10382
 C331 C 0.68176 0.85138 0.09882
 C332 C 0.68749 0.83293 0.12256
 C333 C 0.69295 0.90201 0.07418
 C334 C 0.68938 0.91745 0.05227
 C335 C 0.71620 0.82716 0.17047
 C336 C 0.72275 0.80991 0.19038
 H337 H 0.67874 0.91943 0.13187
 H338 H 0.68939 0.88510 0.17606
 H339 H 0.76144 0.84810 0.13315
 H340 H 0.75082 0.88230 0.08914
 H341 H 0.66660 0.84449 0.08089
 H342 H 0.67724 0.81024 0.12497
 C343 C 0.19729 0.38101 0.60112
 C344 C 0.22075 0.35553 0.59473
 C345 C 0.22652 0.33706 0.61838
 C346 C 0.20828 0.34581 0.64620
 C347 C 0.17442 0.34559 0.63645
 C348 C 0.16864 0.36412 0.61272
 C349 C 0.21024 0.39837 0.62799
 C350 C 0.21603 0.37985 0.65171
 C351 C 0.19161 0.40065 0.57532
 C352 C 0.18806 0.41624 0.55353
 C353 C 0.21504 0.32559 0.67135
 C354 C 0.22172 0.30836 0.69123
 H355 H 0.23187 0.35225 0.57344
 H356 H 0.24259 0.31797 0.61735
 H357 H 0.15658 0.33213 0.64726
 H358 H 0.14584 0.36654 0.60320
 H359 H 0.21442 0.42303 0.62838
 H360 H 0.22517 0.38864 0.67242
 C361 C 0.88259 0.30124 0.10003
 C362 C 0.89869 0.28353 0.12500
 C363 C 0.88018 0.27783 0.14875
 C364 C 0.84740 0.29040 0.14518
 C365 C 0.83552 0.27630 0.11620
 C366 C 0.85399 0.28199 0.09251
 C367 C 0.87009 0.33055 0.11472
 C368 C 0.85156 0.32484 0.13849
 C369 C 0.90220 0.30685 0.07415
 C370 C 0.91767 0.31036 0.05225
 C371 C 0.82714 0.28374 0.17037
 C372 C 0.80984 0.27719 0.19027
 H373 H 0.92254 0.27620 0.12414
 H374 H 0.88817 0.26560 0.16823
 H375 H 0.81440 0.26300 0.11443
 H376 H 0.84869 0.27356 0.07046
 H377 H 0.87537 0.35370 0.10717
 H378 H 0.84096 0.34310 0.15131
 C379 C 0.38153 0.80376 0.60095
 C380 C 0.36459 0.83231 0.61255
 C381 C 0.34607 0.82638 0.63626
 C382 C 0.34635 0.79250 0.64599
 C383 C 0.38037 0.78499 0.65153
 C384 C 0.39888 0.79092 0.62783
 C385 C 0.35612 0.78009 0.59453
 C386 C 0.33765 0.77418 0.61817
 C387 C 0.40116 0.80959 0.57516
 C388 C 0.41675 0.81324 0.55338
 C389 C 0.32613 0.78559 0.67113
 C390 C 0.30891 0.77878 0.69099
 H391 H 0.36698 0.85515 0.60303
 H392 H 0.33259 0.84414 0.64706
 H393 H 0.38915 0.77591 0.67225
 H394 H 0.42353 0.78691 0.62824
 H395 H 0.35289 0.76894 0.57324
 H396 H 0.31862 0.75797 0.61712
 C397 C 0.11748 0.69750 0.10071
 C398 C 0.14484 0.71858 0.09345
 C399 C 0.16335 0.72449 0.11707
 C400 C 0.15274 0.70876 0.14573
 C401 C 0.15040 0.67440 0.13797
 C402 C 0.13184 0.66847 0.11428
 C403 C 0.10082 0.71341 0.12645
 C404 C 0.11937 0.71934 0.15013
 C405 C 0.09784 0.69166 0.07491
 C406 C 0.08234 0.68799 0.05306
 C407 C 0.17302 0.71566 0.17084
 C408 C 0.19034 0.72241 0.19067
 H409 H 0.14932 0.72803 0.07162
 H410 H 0.18366 0.73901 0.11546
 H411 H 0.16221 0.65634 0.15005
 H412 H 0.12774 0.64533 0.10606
 H413 H 0.07658 0.71941 0.12614
 H414 H 0.11102 0.73042 0.17010
 C415 C 0.61852 0.19767 0.60107
 C416 C 0.60079 0.20588 0.62937
 C417 C 0.61935 0.21160 0.65309
 C418 C 0.65379 0.20854 0.64615
 C419 C 0.65945 0.23027 0.61992
 C420 C 0.64094 0.22456 0.59626
 C421 C 0.63890 0.17026 0.60966
 C422 C 0.65747 0.17598 0.63339
 C423 C 0.59885 0.19205 0.57527
 C424 C 0.58323 0.18853 0.55349
 C425 C 0.67406 0.21523 0.67131
 C426 C 0.69134 0.22185 0.69119
 H427 H 0.57587 0.20702 0.63067
 H428 H 0.61034 0.21765 0.67472
 H429 H 0.67654 0.24856 0.61992
 H430 H 0.64218 0.23797 0.57601
 H431 H 0.63872 0.14830 0.59818
 H432 H 0.67319 0.15892 0.64223
 C433 C 0.69843 0.11670 0.89935
 C434 C 0.71592 0.14628 0.90741
 C435 C 0.72174 0.16486 0.88382
 C436 C 0.70951 0.15213 0.85440
 C437 C 0.67508 0.14633 0.85974
 C438 C 0.66924 0.12768 0.88340
 C439 C 0.71796 0.10132 0.87524
 C440 C 0.72379 0.11995 0.85160
 C441 C 0.69269 0.09698 0.92512
 C442 C 0.68908 0.08143 0.94696
 C443 C 0.71631 0.17250 0.82932
 C444 C 0.72296 0.18989 0.80952
 H445 H 0.72309 0.15213 0.92974
 H446 H 0.73390 0.18663 0.88596
 H447 H 0.65691 0.15595 0.84612
 H448 H 0.64608 0.12132 0.89006
 H449 H 0.72638 0.07785 0.87657
 H450 H 0.73722 0.11244 0.83268
 C451 C 0.19759 0.61810 0.39909
 C452 C 0.22798 0.61083 0.38329
 C453 C 0.23376 0.62940 0.35964
 C454 C 0.20860 0.65344 0.35408
 C455 C 0.20549 0.67095 0.38342
 C456 C 0.19971 0.65239 0.40706
 C457 C 0.17286 0.61619 0.37487
 C458 C 0.17866 0.63480 0.35116
 C459 C 0.19190 0.59840 0.42486
 C460 C 0.18832 0.58278 0.44664
 C461 C 0.21536 0.67374 0.32895
 C462 C 0.22202 0.69104 0.30909
 H463 H 0.24355 0.59262 0.39004
 H464 H 0.25430 0.62710 0.34614
 H465 H 0.20760 0.69579 0.38545
 H466 H 0.19687 0.66133 0.42933
 H467 H 0.15264 0.60152 0.37621
 H468 H 0.16340 0.63609 0.33218
 C469 C 0.30148 0.88326 0.89941
 C470 C 0.29531 0.90099 0.87063
 C471 C 0.28954 0.88237 0.84693
 C472 C 0.29052 0.84788 0.85439
 C473 C 0.26756 0.84376 0.87989
 C474 C 0.27331 0.86232 0.90351
 C475 C 0.32807 0.86133 0.89205
 C476 C 0.32230 0.84272 0.86836
 C477 C 0.30718 0.90296 0.92521
 C478 C 0.31077 0.91851 0.94705
 C479 C 0.28380 0.82753 0.82927
 C480 C 0.27722 0.81016 0.80943
 H481 H 0.29552 0.92593 0.86899
 H482 H 0.28481 0.89137 0.82499
 H483 H 0.24842 0.82763 0.87943
 H484 H 0.25910 0.86209 0.92327
 H485 H 0.34954 0.86054 0.90431
 H486 H 0.33883 0.82599 0.86032
 C487 C 0.80277 0.38167 0.39902
 C488 C 0.79295 0.39941 0.37120
 C489 C 0.78718 0.38090 0.34745
 C490 C 0.79179 0.34650 0.35388
 C491 C 0.77120 0.33970 0.38068
 C492 C 0.77695 0.35815 0.40437
 C493 C 0.83063 0.36246 0.38937
 C494 C 0.82486 0.34395 0.36560
 C495 C 0.80844 0.40129 0.42486
 C496 C 0.81199 0.41689 0.44667
 C497 C 0.78504 0.32629 0.32869
 C498 C 0.77836 0.30904 0.30879
 H499 H 0.79081 0.42430 0.37024
 H500 H 0.78009 0.38993 0.32611
 H501 H 0.75360 0.32189 0.38103
 H502 H 0.76429 0.35616 0.42500
 H503 H 0.85292 0.36337 0.40018
 H504 H 0.84220 0.32900 0.35605
 C505 C 0.11682 0.30081 0.89939
 C506 C 0.11242 0.32352 0.87369
 C507 C 0.13108 0.31776 0.85003
 C508 C 0.15225 0.28987 0.85447
 C509 C 0.13056 0.26307 0.86211
 C510 C 0.11196 0.26881 0.88571
 C511 C 0.15126 0.30234 0.90679
 C512 C 0.16986 0.29660 0.88320
 C513 C 0.09711 0.30648 0.92515
 C514 C 0.08157 0.31006 0.94699
 C515 C 0.17263 0.28316 0.82940
 C516 C 0.19001 0.27658 0.80961
 H517 H 0.09611 0.34241 0.87404
 H518 H 0.13077 0.33172 0.83011
 H519 H 0.12983 0.24148 0.84999
 H520 H 0.09528 0.25216 0.89379
 H521 H 0.16025 0.30755 0.92864
 H522 H 0.19479 0.29690 0.88486
 C523 C 0.61833 0.80358 0.39896
 C524 C 0.60604 0.81680 0.36974
 C525 C 0.62456 0.81090 0.34601
 C526 C 0.65348 0.79238 0.35391
 C527 C 0.64144 0.76324 0.36931
 C528 C 0.62299 0.76912 0.39296
 C529 C 0.65092 0.81688 0.40210
 C530 C 0.66940 0.81100 0.37843
 C531 C 0.59873 0.80938 0.42475
 C532 C 0.58317 0.81305 0.44654
 C533 C 0.67368 0.78550 0.32878
 C534 C 0.69091 0.77873 0.30893
 H535 H 0.58473 0.82964 0.36787
 H536 H 0.61913 0.81870 0.32380
 H537 H 0.64689 0.73999 0.36222
 H538 H 0.61264 0.75091 0.40611
 H539 H 0.65878 0.82985 0.42122
 H540 H 0.69308 0.81893 0.37726
 C541 C 0.88229 0.69781 0.89895
 C542 C 0.89993 0.70736 0.87096
 C543 C 0.88133 0.71336 0.84736
 C544 C 0.84693 0.70920 0.85409
 C545 C 0.84077 0.72994 0.88092
 C546 C 0.85932 0.72396 0.90446
 C547 C 0.86249 0.67017 0.88949
 C548 C 0.84388 0.67617 0.86588
 C549 C 0.90198 0.69189 0.92467
 C550 C 0.91753 0.68813 0.94646
 C551 C 0.82660 0.71616 0.82905
 C552 C 0.80926 0.72293 0.80928
 H553 H 0.92483 0.70917 0.86978
 H554 H 0.89028 0.72032 0.82594
 H555 H 0.82332 0.74779 0.88139
 H556 H 0.85775 0.73669 0.92509
 H557 H 0.86308 0.64787 0.90032
 H558 H 0.82853 0.65899 0.85649
 C559 C 0.38157 0.19772 0.39903
 C560 C 0.39935 0.20704 0.37105
 C561 C 0.38087 0.21275 0.34730
 C562 C 0.34645 0.20857 0.35389
 C563 C 0.34007 0.22955 0.38050
 C564 C 0.35851 0.22386 0.40419
 C565 C 0.36190 0.16993 0.38972
 C566 C 0.34341 0.17564 0.36596
 C567 C 0.40117 0.19211 0.42487
 C568 C 0.41675 0.18859 0.44667
 C569 C 0.32626 0.21524 0.32870
 C570 C 0.30903 0.22184 0.30880
 H571 H 0.42425 0.20891 0.36998
 H572 H 0.38992 0.21952 0.32586
 H573 H 0.32258 0.24736 0.38072
 H574 H 0.35679 0.23679 0.42469
 H575 H 0.36249 0.14774 0.40076
 H576 H 0.32816 0.15834 0.35665
 C577 C 0.69850 0.88178 0.90001
 C578 C 0.70542 0.89970 0.87148
 C579 C 0.71117 0.88125 0.84769
 C580 C 0.70942 0.84671 0.85483
 C581 C 0.67735 0.84185 0.86833
 C582 C 0.67160 0.86030 0.89211
 C583 C 0.72621 0.86041 0.90429
 C584 C 0.73194 0.84201 0.88058
 C585 C 0.69286 0.90134 0.92587
 C586 C 0.68932 0.91690 0.94770
 C587 C 0.71613 0.82655 0.82961
 C588 C 0.72274 0.80935 0.80968
 H589 H 0.70570 0.92466 0.87007
 H590 H 0.71638 0.89039 0.82590
 H591 H 0.66062 0.82542 0.85993
 H592 H 0.64995 0.85970 0.90409
 H593 H 0.74013 0.85979 0.92423
 H594 H 0.75077 0.82563 0.88022
 C595 C 0.19787 0.38126 0.39864
 C596 C 0.20568 0.39903 0.37022
 C597 C 0.21159 0.38044 0.34656
 C598 C 0.20910 0.34594 0.35368
 C599 C 0.17668 0.34166 0.36658
 C600 C 0.17077 0.36024 0.39024
 C601 C 0.22511 0.35941 0.40344
 C602 C 0.23100 0.34088 0.37985
 C603 C 0.19204 0.40094 0.42440
 C604 C 0.18834 0.41651 0.44620
 C605 C 0.21596 0.32564 0.32859
 C606 C 0.22267 0.30833 0.30876
 H607 H 0.20644 0.42398 0.36880
 H608 H 0.21741 0.38947 0.32487
 H609 H 0.15984 0.32552 0.35787
 H610 H 0.14887 0.36003 0.40180
 H611 H 0.23861 0.35857 0.42364
 H612 H 0.24955 0.32418 0.37986
 C613 C 0.30167 0.11819 0.89996
 C614 C 0.32947 0.12236 0.87934
 C615 C 0.32364 0.14087 0.85558
 C616 C 0.29060 0.15333 0.85486
 C617 C 0.28620 0.16943 0.88479
 C618 C 0.29201 0.15098 0.90846
 C619 C 0.27571 0.10620 0.87997
 C620 C 0.26989 0.12467 0.85626
 C621 C 0.30738 0.09860 0.92578
 C622 C 0.31094 0.08305 0.94760
 C623 C 0.28379 0.17352 0.82969
 C624 C 0.27708 0.19074 0.80981
 H625 H 0.35170 0.11170 0.88303
 H626 H 0.34088 0.14607 0.83892
 H627 H 0.27917 0.19328 0.88718
 H628 H 0.28996 0.15903 0.93113
 H629 H 0.26308 0.08501 0.88403
 H630 H 0.25227 0.11931 0.84002
 C631 C 0.80177 0.61851 0.39871
 C632 C 0.83058 0.63432 0.38612
 C633 C 0.82464 0.65297 0.36252
 C634 C 0.79048 0.65395 0.35387
 C635 C 0.77355 0.66345 0.38222
 C636 C 0.77948 0.64485 0.40575
 C637 C 0.78726 0.60154 0.37234
 C638 C 0.78132 0.62019 0.34875
 C639 C 0.80764 0.59876 0.42442
 C640 C 0.81137 0.58316 0.44619
 C641 C 0.78359 0.67432 0.32884
 C642 C 0.77690 0.69168 0.30905
 H643 H 0.85360 0.63110 0.39492
 H644 H 0.84256 0.66574 0.35109
 H645 H 0.75823 0.68310 0.38370
 H646 H 0.76924 0.64859 0.42737
 H647 H 0.78219 0.57705 0.37218
 H648 H 0.77115 0.61167 0.32838
 C649 C 0.11880 0.69753 0.89956
 C650 C 0.10101 0.70656 0.87153
 C651 C 0.11950 0.71253 0.84782
 C652 C 0.15394 0.70888 0.85451
 C653 C 0.15726 0.67601 0.86661
 C654 C 0.13876 0.67003 0.89032
 C655 C 0.14159 0.72402 0.90477
 C656 C 0.16004 0.72998 0.88112
 C657 C 0.09919 0.69165 0.92535
 C658 C 0.08360 0.68795 0.94713
 C659 C 0.17414 0.71584 0.82937
 C660 C 0.19135 0.72267 0.80951
 H661 H 0.07610 0.70805 0.87039
 H662 H 0.11045 0.71915 0.82636
 H663 H 0.17271 0.65893 0.85734
 H664 H 0.13836 0.64784 0.90138
 H665 H 0.14312 0.73698 0.92527
 H666 H 0.17736 0.74805 0.88138
 C667 C 0.61820 0.19827 0.39860
 C668 C 0.60052 0.20605 0.37016
 C669 C 0.61914 0.21190 0.34650
 C670 C 0.65359 0.20938 0.35365
 C671 C 0.65765 0.17695 0.36662
 C672 C 0.63903 0.17111 0.39027
 C673 C 0.64020 0.22551 0.40338
 C674 C 0.65877 0.23134 0.37979
 C675 C 0.59848 0.19250 0.42436
 C676 C 0.58290 0.18883 0.44615
 C677 C 0.67394 0.21617 0.32857
 C678 C 0.69130 0.22282 0.30875
 H679 H 0.57559 0.20683 0.36871
 H680 H 0.61018 0.21769 0.32479
 H681 H 0.67367 0.16007 0.35795
 H682 H 0.63910 0.14921 0.40186
 H683 H 0.64112 0.23906 0.42356
 H684 H 0.67559 0.24988 0.37979
 C685 C 0.88195 0.30112 0.90004
 C686 C 0.89975 0.29268 0.87184
 C687 C 0.88124 0.28693 0.84809
 C688 C 0.84679 0.29020 0.85490
 C689 C 0.84323 0.32284 0.86750
 C690 C 0.86174 0.32859 0.89125
 C691 C 0.85939 0.27437 0.90491
 C692 C 0.84093 0.26863 0.88122
 C693 C 0.90157 0.30677 0.92588
 C694 C 0.91716 0.31029 0.94769
 C695 C 0.82657 0.28348 0.82971
 C696 C 0.80932 0.27684 0.80981
 H697 H 0.92466 0.29141 0.87062
 H698 H 0.89029 0.28072 0.82651
 H699 H 0.82762 0.33993 0.85852
 H700 H 0.86199 0.35061 0.90263
 H701 H 0.85801 0.26108 0.92522
 H702 H 0.82376 0.25042 0.88125
 C703 C 0.38175 0.80319 0.39857
 C704 C 0.39908 0.79079 0.37148
 C705 C 0.38047 0.78474 0.34787
 C706 C 0.34638 0.79169 0.35369
 C707 C 0.34567 0.82549 0.36365
 C708 C 0.36428 0.83154 0.38727
 C709 C 0.35675 0.77909 0.40500
 C710 C 0.33819 0.77305 0.38145
 C711 C 0.40147 0.80916 0.42429
 C712 C 0.41704 0.81295 0.44607
 C713 C 0.32604 0.78466 0.32865
 C714 C 0.30870 0.77784 0.30887
 H715 H 0.42379 0.78717 0.37087
 H716 H 0.38923 0.77592 0.32703
 H717 H 0.33183 0.84311 0.35307
 H718 H 0.36640 0.85435 0.39692
 H719 H 0.35386 0.76774 0.42624
 H720 H 0.31942 0.75654 0.38254
 C721 C 0.30158 0.88203 0.10054
 C722 C 0.29716 0.84803 0.09227
 C723 C 0.29134 0.82948 0.11591
 C724 C 0.29051 0.84671 0.14555
 C725 C 0.26654 0.87223 0.14128
 C726 C 0.27237 0.89079 0.11762
 C727 C 0.32739 0.88218 0.12376
 C728 C 0.32156 0.86358 0.14747
 C729 C 0.30731 0.90172 0.07476
 C730 C 0.31090 0.91733 0.05298
 C731 C 0.28371 0.82643 0.17067
 C732 C 0.27702 0.80913 0.19052
 H733 H 0.29854 0.83926 0.06981
 H734 H 0.28773 0.80484 0.11368
 H735 H 0.24678 0.87549 0.15562
 H736 H 0.25760 0.90996 0.11171
 H737 H 0.34834 0.89570 0.12177
 H738 H 0.33751 0.86115 0.16581
 C739 C 0.80230 0.38188 0.60157
 C740 C 0.79378 0.39957 0.62982
 C741 C 0.78792 0.38095 0.65348
 C742 C 0.79118 0.34649 0.64654
 C743 C 0.82384 0.34296 0.63404
 C744 C 0.82969 0.36158 0.61038
 C745 C 0.77557 0.35934 0.59653
 C746 C 0.76973 0.34077 0.62012
 C747 C 0.80808 0.40160 0.57581
 C748 C 0.81174 0.41719 0.55401
 C749 C 0.78437 0.32613 0.67163
 C750 C 0.77771 0.30876 0.69144
 H751 H 0.79253 0.42450 0.63113
 H752 H 0.78165 0.38992 0.67507
 H753 H 0.84087 0.32728 0.64301
 H754 H 0.85174 0.36186 0.59909
 H755 H 0.76235 0.35807 0.57617
 H756 H 0.75151 0.32360 0.61996
 C757 C 0.69814 0.11812 0.10042
 C758 C 0.71991 0.14501 0.09340
 C759 C 0.72573 0.16355 0.11702
 C760 C 0.70923 0.15343 0.14544
 C761 C 0.71901 0.11985 0.15021
 C762 C 0.71318 0.10127 0.12653
 C763 C 0.66917 0.13316 0.11337
 C764 C 0.67501 0.15175 0.13707
 C765 C 0.69242 0.09842 0.07465
 C766 C 0.68886 0.08277 0.05288
 C767 C 0.71604 0.17372 0.17055
 C768 C 0.72277 0.19101 0.19040
 H769 H 0.72988 0.14916 0.07172
 H770 H 0.74068 0.18357 0.11557
 H771 H 0.72951 0.11139 0.17043
 H772 H 0.71868 0.07689 0.12645
 H773 H 0.64614 0.12949 0.10474
 H774 H 0.65698 0.16401 0.14876
 C775 C 0.19817 0.61793 0.60146
 C776 C 0.21510 0.60167 0.62683
 C777 C 0.22102 0.62034 0.65042
 C778 C 0.20942 0.65344 0.64632
 C779 C 0.17499 0.65013 0.63927
 C780 C 0.16907 0.63144 0.61566
 C781 C 0.21829 0.64591 0.59384
 C782 C 0.22419 0.66454 0.61738
 C783 C 0.19232 0.59815 0.57575
 C784 C 0.18860 0.58253 0.55397
 C785 C 0.21628 0.67385 0.67136
 C786 C 0.22295 0.69127 0.69114
 H787 H 0.22177 0.57759 0.62633
 H788 H 0.23276 0.61227 0.67015
 H789 H 0.15689 0.66141 0.65174
 H790 H 0.14589 0.62670 0.60790
 H791 H 0.22712 0.65070 0.57183
 H792 H 0.23808 0.68528 0.61552
 C793 C 0.88167 0.69762 0.10116
 C794 C 0.86746 0.66860 0.11503
 C795 C 0.84884 0.67462 0.13864
 C796 C 0.84631 0.70905 0.14600
 C797 C 0.83565 0.72431 0.11716
 C798 C 0.85421 0.71832 0.09363
 C799 C 0.89822 0.71403 0.12674
 C800 C 0.87962 0.72004 0.15032
 C801 C 0.90139 0.69171 0.07548
 C802 C 0.91704 0.68799 0.05376
 C803 C 0.82600 0.71604 0.17101
 C804 C 0.80870 0.72289 0.19078
 H805 H 0.87169 0.64541 0.10707
 H806 H 0.83711 0.65658 0.15091
 H807 H 0.81525 0.73859 0.11537
 H808 H 0.84971 0.72746 0.07169
 H809 H 0.92242 0.72028 0.12638
 H810 H 0.88788 0.73145 0.17018
 C811 C 0.38180 0.19812 0.60158
 C812 C 0.39588 0.22061 0.62406
 C813 C 0.37728 0.22642 0.64769
 C814 C 0.34642 0.20915 0.64653
 C815 C 0.35503 0.17503 0.64325
 C816 C 0.37365 0.16922 0.61959
 C817 C 0.35073 0.21231 0.59310
 C818 C 0.33217 0.21810 0.61669
 C819 C 0.40151 0.19239 0.57583
 C820 C 0.41707 0.18877 0.55402
 C821 C 0.32608 0.21590 0.67160
 C822 C 0.30872 0.22249 0.69141
 H823 H 0.41850 0.23100 0.62167
 H824 H 0.38396 0.24178 0.66554
 H825 H 0.34723 0.15706 0.65820
 H826 H 0.38182 0.14628 0.61426
 H827 H 0.34388 0.21734 0.57051
 H828 H 0.30943 0.22810 0.61428
 C829 C 0.11819 0.30104 0.10044
 C830 C 0.10868 0.31840 0.12859
 C831 C 0.12729 0.31265 0.15228
 C832 C 0.15352 0.29010 0.14542
 C833 C 0.17052 0.30424 0.11890
 C834 C 0.15195 0.30998 0.09527
 C835 C 0.11902 0.26699 0.10948
 C836 C 0.13757 0.26124 0.13310
 C837 C 0.09849 0.30670 0.07468
 C838 C 0.08287 0.31025 0.05291
 C839 C 0.17381 0.28337 0.17051
 C840 C 0.19111 0.27673 0.19035
 H841 H 0.08911 0.33383 0.12980
 H842 H 0.12367 0.32314 0.17380
 H843 H 0.19499 0.30935 0.11873
 H844 H 0.16052 0.32002 0.07485
 H845 H 0.10611 0.24896 0.09834
 H846 H 0.14055 0.23829 0.14218
 C847 C 0.61809 0.80323 0.60141
 C848 C 0.64760 0.78588 0.59326
 C849 C 0.66613 0.77991 0.61682
 C850 C 0.65339 0.79186 0.64633
 C851 C 0.62120 0.77745 0.64897
 C852 C 0.60264 0.78344 0.62535
 C853 C 0.62911 0.83234 0.61761
 C854 C 0.64769 0.82635 0.64125
 C855 C 0.59842 0.80914 0.57567
 C856 C 0.58288 0.81289 0.55387
 C857 C 0.67368 0.78490 0.67139
 C858 C 0.69100 0.77814 0.69118
 H859 H 0.65347 0.77891 0.57088
 H860 H 0.68785 0.76782 0.61462
 H861 H 0.61363 0.76383 0.66776
 H862 H 0.57916 0.77495 0.62391
 H863 H 0.62283 0.85556 0.61112
 H864 H 0.65734 0.84444 0.65503
   
