data_POSCAR
  _audit_creation_date              2014-09-24
  _audit_creation_method            'ToBaCCo'
  _symmetry_space_group_name_H-M    'P1'
  _symmetry_Int_Tables_number       1
  _symmetry_cell_setting            triclinic
  loop_
  _symmetry_equiv_pos_as_xyz
 x,y,z
_cell_length_a 36.5705
_cell_length_b 37.3294
_cell_length_c 31.1434
_cell_angle_alpha 90.217500
_cell_angle_beta 89.488100
_cell_angle_gamma 90.416100
loop_
  _atom_site_label
  _atom_site_type_symbol
  _atom_site_fract_x
  _atom_site_fract_y
  _atom_site_fract_z
C1 C 0.27313 0.28528 0.20838
 C2 C 0.24956 0.26753 0.23708
 C3 C 0.22607 0.28735 0.26382
 C4 C 0.22574 0.32499 0.26172
 C5 C 0.24818 0.34221 0.23118
 C6 C 0.27215 0.32265 0.20497
 C7 C 0.24943 0.22817 0.23905
 C8 C 0.27909 0.21006 0.25679
 C9 C 0.27905 0.17244 0.25888
 C10 C 0.24914 0.15326 0.24215
 C11 C 0.21969 0.17113 0.22340
 C12 C 0.21985 0.20872 0.22243
 H13 H 0.29159 0.26999 0.18812
 H14 H 0.20901 0.27337 0.28702
 H15 H 0.30212 0.22536 0.26887
 H16 H 0.19712 0.22290 0.20846
 H17 H 0.24764 0.37111 0.22821
 H18 H 0.24880 0.12427 0.24344
 C19 C 0.77867 0.78401 0.24170
 C20 C 0.75028 0.76474 0.26133
 C21 C 0.71960 0.78267 0.27730
 C22 C 0.71675 0.82026 0.27440
 C23 C 0.74505 0.83907 0.25251
 C24 C 0.77624 0.82134 0.23592
 C25 C 0.75231 0.72543 0.26457
 C26 C 0.77933 0.70945 0.28946
 C27 C 0.78106 0.67199 0.29309
 C28 C 0.75595 0.65062 0.27022
 C29 C 0.72891 0.66639 0.24469
 C30 C 0.72704 0.70393 0.24269
 H31 H 0.80146 0.76912 0.22841
 H32 H 0.69922 0.76693 0.29432
 H33 H 0.79886 0.72629 0.30620
 H34 H 0.70594 0.71662 0.22400
 H35 H 0.74304 0.86772 0.24863
 H36 H 0.75741 0.62172 0.27244
 C37 C 0.77441 0.28384 0.71959
 C38 C 0.74834 0.26689 0.74590
 C39 C 0.72181 0.28734 0.76744
 C40 C 0.72054 0.32490 0.76255
 C41 C 0.74637 0.34113 0.73475
 C42 C 0.77308 0.32092 0.71335
 C43 C 0.74666 0.22746 0.74777
 C44 C 0.77544 0.20785 0.76529
 C45 C 0.77450 0.16999 0.76552
 C46 C 0.74416 0.15258 0.74664
 C47 C 0.71504 0.17201 0.72937
 C48 C 0.71641 0.20952 0.73055
 H49 H 0.79456 0.26801 0.70242
 H50 H 0.70130 0.27339 0.78644
 H51 H 0.79886 0.22243 0.77751
 H52 H 0.69412 0.22497 0.71761
 H53 H 0.74730 0.36993 0.73100
 H54 H 0.74229 0.12368 0.74640
 C55 C 0.27725 0.78903 0.73687
 C56 C 0.24879 0.77221 0.75960
 C57 C 0.22059 0.79262 0.77744
 C58 C 0.22095 0.83007 0.77376
 C59 C 0.24957 0.84675 0.75055
 C60 C 0.27804 0.82659 0.73123
 C61 C 0.24872 0.73298 0.76475
 C62 C 0.27599 0.71668 0.78897
 C63 C 0.27631 0.67933 0.79442
 C64 C 0.24936 0.65837 0.77405
 C65 C 0.22223 0.67439 0.74889
 C66 C 0.22183 0.71189 0.74504
 H67 H 0.29749 0.77203 0.72181
 H68 H 0.19851 0.77919 0.79450
 H69 H 0.29698 0.73325 0.80352
 H70 H 0.20081 0.72477 0.72640
 H71 H 0.25036 0.87569 0.74974
 H72 H 0.24959 0.62952 0.77757
 C73 C 0.01972 0.06604 0.02959
 H74 H -0.00039 0.07824 0.00930
 C75 C 0.04400 0.08795 0.05207
 H76 H 0.04160 0.11675 0.04951
 C77 C 0.04785 0.01400 0.05688
 H78 H 0.04960 -0.01490 0.05781
 C79 C 0.07278 0.03494 0.07989
 H80 H 0.09372 0.02191 0.09844
 N81 N 0.02184 0.02976 0.03254
 C82 C 0.01703 -0.06638 -0.03266
 H83 H -0.00438 -0.07834 -0.01319
 C84 C 0.04133 -0.08831 -0.05541
 H85 H 0.03805 -0.11711 -0.05369
 C86 C 0.04766 -0.01438 -0.05811
 H87 H 0.05029 0.01451 -0.05829
 C88 C 0.07244 -0.03525 -0.08142
 H89 H 0.09422 -0.02215 -0.09932
 Zn90 Zn -0.00949 0.00020 -0.00069
 N91 N 0.02067 -0.03013 -0.03435
 C92 C -0.03518 0.02880 -0.07964
 N93 N -0.03876 0.02923 -0.03613
 C94 C -0.06388 0.05037 -0.01619
 C95 C -0.08580 0.07319 -0.04003
 C96 C -0.05675 0.05108 -0.10479
 C97 C -0.03650 -0.02947 0.07809
 C98 C -0.06213 -0.04746 0.10387
 C99 C -0.09827 -0.05910 0.04071
 C100 C -0.07159 -0.04161 0.01601
 N101 N -0.04162 -0.02691 0.03496
 H102 H -0.01555 0.01134 -0.09495
 H103 H -0.06656 0.04972 0.01842
 H104 H -0.10565 0.08981 -0.02357
 H105 H -0.05321 0.05084 -0.13935
 H106 H -0.01290 -0.01716 0.09274
 H107 H -0.05793 -0.04905 0.13819
 H108 H -0.12227 -0.07018 0.02529
 H109 H -0.07517 -0.03894 -0.01827
 C110 C 0.06968 -0.07277 -0.07999
 C111 C 0.07113 0.07247 0.07745
 C112 C -0.09369 -0.06204 0.08521
 C113 C -0.08223 0.07388 -0.08492
 C114 C 0.03802 0.56288 0.53778
 H115 H 0.01879 0.57414 0.51550
 C116 C 0.06036 0.58568 0.56192
 H117 H 0.05773 0.61438 0.55828
 C118 C 0.06470 0.51200 0.56973
 H119 H 0.06659 0.48317 0.57223
 C120 C 0.08755 0.53379 0.59445
 H121 H 0.10708 0.52143 0.61560
 N122 N 0.04065 0.52672 0.54185
 C123 C 0.02380 0.44557 0.44153
 H124 H -0.00546 0.44665 0.43784
 C125 C 0.04423 0.42330 0.41455
 H126 H 0.03020 0.40763 0.39039
 C127 C 0.07761 0.46668 0.47517
 H128 H 0.09081 0.48401 0.49812
 C129 C 0.09903 0.44430 0.44943
 H130 H 0.12832 0.44421 0.45408
 Zn131 Zn 0.01091 0.49646 0.50689
 N132 N 0.04059 0.46667 0.47127
 C133 C -0.01047 0.52919 0.42933
 N134 N -0.01928 0.52465 0.47149
 C135 C -0.05064 0.53829 0.48844
 C136 C -0.07520 0.55643 0.46233
 C137 C -0.03425 0.54710 0.40207
 C138 C -0.01558 0.46446 0.58464
 C139 C -0.03811 0.44182 0.60898
 C140 C -0.07021 0.42555 0.54428
 C141 C -0.04690 0.44821 0.52116
 N142 N -0.01991 0.46683 0.54136
 H143 H 0.01483 0.51853 0.41666
 H144 H -0.05701 0.53422 0.52206
 H145 H -0.10057 0.56610 0.47613
 H146 H -0.02686 0.55028 0.36856
 H147 H 0.00511 0.48015 0.60060
 H148 H -0.03443 0.44039 0.64339
 H149 H -0.09139 0.41082 0.52754
 H150 H -0.05081 0.45137 0.48708
 C151 C 0.08244 0.42230 0.41837
 C152 C 0.08574 0.57119 0.59055
 C153 C -0.06581 0.42201 0.58874
 C154 C -0.06738 0.56057 0.41835
 C155 C 0.54550 0.05770 0.51121
 H156 H 0.54867 0.05634 0.47666
 C157 C 0.56728 0.08111 0.53490
 H158 H 0.58764 0.09717 0.51825
 C159 C 0.51578 0.03723 0.57450
 H160 H 0.49524 0.02058 0.58973
 C161 C 0.53685 0.06057 0.59952
 H162 H 0.53233 0.06143 0.63391
 N163 N 0.52110 0.03564 0.53125
 C164 C 0.51698 -0.04494 0.42951
 H165 H 0.48822 -0.04583 0.42168
 C166 C 0.54233 -0.06308 0.40358
 H167 H 0.53285 -0.07771 0.37569
 C168 C 0.56437 -0.02384 0.47453
 H169 H 0.57297 -0.00899 0.50253
 C170 C 0.59052 -0.04156 0.44969
 H171 H 0.61895 -0.04006 0.45900
 Zn172 Zn 0.49492 0.00437 0.49451
 N173 N 0.52851 -0.02474 0.46331
 C174 C 0.47413 0.03601 0.41434
 N175 N 0.46875 0.03484 0.45759
 C176 C 0.44454 0.05694 0.47751
 C177 C 0.42327 0.08029 0.45371
 C178 C 0.45352 0.05920 0.38921
 C179 C 0.47282 -0.04406 0.56022
 C180 C 0.44746 -0.06208 0.58642
 C181 C 0.39942 -0.04296 0.53923
 C182 C 0.42557 -0.02510 0.51428
 N183 N 0.46134 -0.02488 0.52587
 H184 H 0.49446 0.01923 0.39923
 H185 H 0.44128 0.05585 0.51204
 H186 H 0.40319 0.09659 0.47023
 H187 H 0.45811 0.05982 0.35484
 H188 H 0.50153 -0.04410 0.56833
 H189 H 0.45695 -0.07560 0.61486
 H190 H 0.37109 -0.04241 0.52949
 H191 H 0.41706 -0.01098 0.48591
 C192 C 0.57981 -0.06074 0.41299
 C193 C 0.56342 0.08255 0.57978
 C194 C 0.41001 -0.06093 0.57661
 C195 C 0.42738 0.08148 0.40887
 C196 C 0.53756 0.56658 0.03521
 H197 H 0.51716 0.57943 0.01581
 C198 C 0.56179 0.58749 0.05927
 H199 H 0.55940 0.61637 0.05864
 C200 C 0.56574 0.51344 0.05932
 H201 H 0.56743 0.48453 0.05853
 C202 C 0.59042 0.53329 0.08393
 H203 H 0.61117 0.51941 0.10189
 N204 N 0.53985 0.53024 0.03581
 C205 C 0.53351 0.43460 -0.03031
 H206 H 0.51177 0.42333 -0.01087
 C207 C 0.55611 0.41176 -0.05389
 H208 H 0.55094 0.38318 -0.05295
 C209 C 0.56665 0.48534 -0.05519
 H210 H 0.57071 0.51407 -0.05506
 C211 C 0.59001 0.46345 -0.07917
 H212 H 0.61224 0.47559 -0.09725
 Zn213 Zn 0.50889 0.50137 0.00145
 N214 N 0.53890 0.47068 -0.03167
 C215 C 0.48334 0.52821 -0.07806
 N216 N 0.47930 0.52962 -0.03464
 C217 C 0.45181 0.54862 -0.01597
 C218 C 0.42660 0.56671 -0.04124
 C219 C 0.45895 0.54617 -0.10453
 C220 C 0.48205 0.46959 0.07882
 C221 C 0.45903 0.44707 0.10266
 C222 C 0.42549 0.43372 0.03794
 C223 C 0.44933 0.45617 0.01530
 N224 N 0.47714 0.47325 0.03582
 H225 H 0.50499 0.51256 -0.09238
 H226 H 0.44881 0.54873 0.01862
 H227 H 0.40420 0.58057 -0.02567
 H228 H 0.46279 0.54476 -0.13900
 H229 H 0.50396 0.48378 0.09466
 H230 H 0.46328 0.44427 0.13685
 H231 H 0.40384 0.41987 0.02098
 H232 H 0.44605 0.45965 -0.01892
 C233 C 0.58482 0.42611 -0.07875
 C234 C 0.58874 0.57085 0.08398
 C235 C 0.43045 0.42872 0.08211
 C236 C 0.42972 0.56534 -0.08625
 C237 C 0.17734 -0.11804 -0.22545
 C238 C 0.19187 -0.14824 -0.20499
 C239 C 0.17853 -0.15762 -0.16396
 C240 C 0.15123 -0.13724 -0.14369
 C241 C 0.13705 -0.10682 -0.16446
 C242 C 0.15023 -0.09753 -0.20538
 C243 C 0.11010 -0.08614 -0.14385
 C244 C 0.09708 -0.09544 -0.10265
 C245 C 0.11120 -0.12598 -0.08257
 C246 C 0.13802 -0.14665 -0.10285
 H247 H 0.18981 -0.18047 -0.14743
 H248 H 0.13958 -0.07438 -0.22188
 H249 H 0.09918 -0.06290 -0.15992
 H250 H 0.14863 -0.16985 -0.08642
 H251 H 0.18669 -0.11047 -0.25725
 H252 H 0.10208 -0.13348 -0.05065
 C253 C 0.21691 0.37943 0.30793
 C254 C 0.20323 0.34665 0.29205
 C255 C 0.16824 0.33501 0.30536
 C256 C 0.14716 0.35602 0.33360
 C257 C 0.16098 0.38927 0.34828
 C258 C 0.19590 0.40065 0.33540
 C259 C 0.13972 0.41071 0.37561
 C260 C 0.10488 0.39920 0.38947
 C261 C 0.09162 0.36574 0.37521
 C262 C 0.11244 0.34448 0.34734
 H263 H 0.15714 0.30998 0.29329
 H264 H 0.20709 0.42588 0.34676
 H265 H 0.15021 0.43666 0.38545
 H266 H 0.10146 0.31894 0.33671
 H267 H 0.24413 0.38868 0.29938
 H268 H 0.06522 0.35576 0.38588
 C269 C 0.65294 -0.17882 0.30147
 C270 C 0.68704 -0.16152 0.29454
 C271 C 0.69122 -0.12613 0.31027
 C272 C 0.66312 -0.10943 0.33378
 C273 C 0.62977 -0.12771 0.34137
 C274 C 0.62479 -0.16214 0.32446
 C275 C 0.60226 -0.11155 0.36645
 C276 C 0.60788 -0.07739 0.38456
 C277 C 0.64097 -0.05919 0.37600
 C278 C 0.66827 -0.07502 0.35090
 H279 H 0.71708 -0.11208 0.30706
 H280 H 0.59919 -0.17641 0.32937
 H281 H 0.57702 -0.12601 0.37298
 H282 H 0.69360 -0.06046 0.34527
 H283 H 0.64731 -0.20514 0.28840
 H284 H 0.64576 -0.03256 0.38874
 C285 C 0.68212 0.37876 -0.23204
 C286 C 0.69436 0.34594 -0.21502
 C287 C 0.68054 0.33520 -0.17449
 C288 C 0.65642 0.35713 -0.15118
 C289 C 0.64506 0.39001 -0.16865
 C290 C 0.65773 0.40036 -0.20924
 C291 C 0.62145 0.41221 -0.14510
 C292 C 0.60929 0.40223 -0.10389
 C293 C 0.62075 0.36938 -0.08678
 C294 C 0.64401 0.34700 -0.11025
 H295 H 0.68996 0.31081 -0.15963
 H296 H 0.64893 0.42531 -0.22335
 H297 H 0.61242 0.43720 -0.15895
 H298 H 0.65258 0.32195 -0.09618
 H299 H 0.69036 0.38759 -0.26374
 H300 H 0.61220 0.36123 -0.05489
 C301 C -0.18931 0.11468 -0.22906
 C302 C -0.19743 0.14979 -0.21489
 C303 C -0.17799 0.16353 -0.17932
 C304 C -0.15295 0.14218 -0.15724
 C305 C -0.14612 0.10685 -0.17136
 C306 C -0.16394 0.09363 -0.20770
 C307 C -0.12225 0.08500 -0.14833
 C308 C -0.10554 0.09778 -0.11076
 C309 C -0.11214 0.13314 -0.09725
 C310 C -0.13549 0.15520 -0.12038
 H311 H -0.18395 0.18992 -0.16664
 H312 H -0.15863 0.06675 -0.21934
 H313 H -0.11769 0.05764 -0.15877
 H314 H -0.14033 0.18225 -0.10904
 H315 H -0.20184 0.10338 -0.25742
 H316 H -0.09920 0.14374 -0.06870
 C317 C -0.18438 0.66998 0.36218
 C318 C -0.19132 0.65539 0.32133
 C319 C -0.17188 0.62493 0.30782
 C320 C -0.14587 0.60928 0.33473
 C321 C -0.13928 0.62413 0.37579
 C322 C -0.15864 0.65450 0.38916
 C323 C -0.11350 0.60833 0.40283
 C324 C -0.09406 0.57784 0.38940
 C325 C -0.10072 0.56346 0.34836
 C326 C -0.12636 0.57901 0.32130
 H327 H -0.17666 0.61368 0.27621
 H328 H -0.15400 0.66622 0.42054
 H329 H -0.10834 0.61995 0.43416
 H330 H -0.13108 0.56722 0.28997
 H331 H -0.19931 0.69315 0.37356
 H332 H -0.08653 0.53971 0.33743
 C333 C 0.32201 0.12034 0.26202
 C334 C 0.30969 0.15306 0.27920
 C335 C 0.32573 0.16638 0.31697
 C336 C 0.35267 0.14672 0.33809
 C337 C 0.36386 0.11329 0.32130
 C338 C 0.34876 0.10060 0.28292
 C339 C 0.38919 0.09265 0.34377
 C340 C 0.40349 0.10491 0.38299
 C341 C 0.39313 0.13883 0.39853
 C342 C 0.36792 0.15950 0.37635
 H343 H 0.31631 0.19136 0.33086
 H344 H 0.35726 0.07518 0.26936
 H345 H 0.39658 0.06643 0.33157
 H346 H 0.35992 0.18523 0.38948
 H347 H 0.31076 0.10983 0.23246
 H348 H 0.40428 0.14928 0.42817
 C349 C 0.31599 0.67896 -0.14018
 C350 C 0.30479 0.66246 -0.17863
 C351 C 0.32106 0.62996 -0.19114
 C352 C 0.34800 0.61420 -0.16566
 C353 C 0.35910 0.63117 -0.12725
 C354 C 0.34294 0.66355 -0.11483
 C355 C 0.38607 0.61544 -0.10179
 C356 C 0.40196 0.58264 -0.11391
 C357 C 0.39058 0.56602 -0.15223
 C358 C 0.36400 0.58169 -0.17791
 H359 H 0.31312 0.61714 -0.22096
 H360 H 0.35096 0.67686 -0.08537
 H361 H 0.39482 0.62889 -0.07270
 H362 H 0.35572 0.56820 -0.20715
 H363 H 0.30357 0.70368 -0.12936
 H364 H 0.40172 0.54046 -0.16205
 C365 C -0.15911 -0.17115 0.21450
 C366 C -0.19587 -0.15978 0.21316
 C367 C -0.20418 -0.12986 0.18740
 C368 C -0.17690 -0.11272 0.16272
 C369 C -0.14033 -0.12446 0.16484
 C370 C -0.13172 -0.15346 0.19110
 C371 C -0.11308 -0.10737 0.14010
 C372 C -0.12218 -0.07945 0.11214
 C373 C -0.15868 -0.06829 0.10974
 C374 C -0.18577 -0.08451 0.13513
 H375 H -0.23218 -0.12108 0.18424
 H376 H -0.10379 -0.16275 0.19325
 H377 H -0.08498 -0.11631 0.14172
 H378 H -0.21369 -0.07525 0.13285
 H379 H -0.15099 -0.19311 0.23482
 H380 H -0.16614 -0.04668 0.08850
 C381 C -0.21449 0.36157 0.65168
 C382 C -0.20105 0.33910 0.68386
 C383 C -0.16315 0.33591 0.68930
 C384 C -0.13886 0.35611 0.66375
 C385 C -0.15274 0.37893 0.63169
 C386 C -0.19054 0.38112 0.62557
 C387 C -0.12867 0.39982 0.60689
 C388 C -0.09084 0.39876 0.61405
 C389 C -0.07723 0.37598 0.64589
 C390 C -0.10102 0.35464 0.67036
 H391 H -0.15274 0.31884 0.71442
 H392 H -0.20162 0.39847 0.60116
 H393 H -0.13945 0.41770 0.58282
 H394 H -0.08988 0.33736 0.69479
 H395 H -0.24367 0.36418 0.64703
 H396 H -0.04812 0.37455 0.65166
 C397 C 0.34083 -0.17299 0.70065
 C398 C 0.30629 -0.15665 0.70640
 C399 C 0.30049 -0.12350 0.68572
 C400 C 0.32770 -0.10782 0.65963
 C401 C 0.36159 -0.12506 0.65378
 C402 C 0.36793 -0.15747 0.67471
 C403 C 0.38848 -0.10975 0.62685
 C404 C 0.38191 -0.07726 0.60557
 C405 C 0.34814 -0.06014 0.61221
 C406 C 0.32131 -0.07530 0.63879
 H407 H 0.27423 -0.11040 0.68775
 H408 H 0.39398 -0.17087 0.67111
 H409 H 0.41418 -0.12349 0.62186
 H410 H 0.29554 -0.06152 0.64305
 H411 H 0.34783 -0.19739 0.71715
 H412 H 0.34250 -0.03471 0.59713
 C413 C 0.28272 0.36631 0.14574
 C414 C 0.29692 0.34188 0.17528
 C415 C 0.33492 0.33809 0.17885
 C416 C 0.35864 0.35955 0.15419
 C417 C 0.34411 0.38431 0.12472
 C418 C 0.30613 0.38714 0.12032
 C419 C 0.36774 0.40642 0.10086
 C420 C 0.40573 0.40465 0.10660
 C421 C 0.41994 0.37998 0.13592
 C422 C 0.39660 0.35743 0.15933
 H423 H 0.34588 0.31957 0.20211
 H424 H 0.29455 0.40600 0.09794
 H425 H 0.35656 0.42569 0.07866
 H426 H 0.40821 0.33866 0.18180
 H427 H 0.25344 0.36952 0.14276
 H428 H 0.44918 0.37796 0.14045
 C429 C 0.17443 0.12031 0.22409
 C430 C 0.18963 0.15037 0.20334
 C431 C 0.17721 0.15960 0.16230
 C432 C 0.15056 0.13865 0.14180
 C433 C 0.13574 0.10822 0.16272
 C434 C 0.14761 0.09949 0.20403
 C435 C 0.10961 0.08686 0.14179
 C436 C 0.09819 0.09540 0.10007
 C437 C 0.11307 0.12584 0.07973
 C438 C 0.13894 0.14729 0.10041
 H439 H 0.18912 0.18246 0.14580
 H440 H 0.13647 0.07634 0.22062
 H441 H 0.09806 0.06371 0.15802
 H442 H 0.15014 0.17043 0.08384
 H443 H 0.18337 0.11290 0.25588
 H444 H 0.10518 0.13274 0.04738
 C445 C 0.17859 0.62209 0.74557
 C446 C 0.19494 0.65202 0.72571
 C447 C 0.18555 0.66025 0.68317
 C448 C 0.16047 0.63881 0.66068
 C449 C 0.14438 0.60867 0.68086
 C450 C 0.15350 0.60065 0.72339
 C451 C 0.11967 0.58695 0.65809
 C452 C 0.11089 0.59484 0.61524
 C453 C 0.12695 0.62507 0.59568
 C454 C 0.15147 0.64684 0.61816
 H455 H 0.19834 0.68293 0.66724
 H456 H 0.14135 0.57771 0.73944
 H457 H 0.10718 0.56400 0.67378
 H458 H 0.16363 0.66979 0.60215
 H459 H 0.18499 0.61541 0.77844
 H460 H 0.12114 0.63150 0.56257
 C461 C 0.66990 0.12090 0.72675
 C462 C 0.68371 0.15297 0.70913
 C463 C 0.66839 0.16605 0.67105
 C464 C 0.64064 0.14684 0.65014
 C465 C 0.62800 0.11398 0.66730
 C466 C 0.64244 0.10152 0.70595
 C467 C 0.60188 0.09368 0.64498
 C468 C 0.58812 0.10577 0.60559
 C469 C 0.59985 0.13924 0.58978
 C470 C 0.62594 0.15951 0.61175
 H471 H 0.67893 0.19051 0.65677
 H472 H 0.63280 0.07656 0.71982
 H473 H 0.59345 0.06781 0.65744
 H474 H 0.63501 0.18485 0.59836
 H475 H 0.68050 0.11063 0.75659
 H476 H 0.58913 0.14964 0.56007
 C477 C 0.68715 0.61280 0.23797
 C478 C 0.70263 0.64397 0.21997
 C479 C 0.69248 0.65401 0.17825
 C480 C 0.66698 0.63361 0.15508
 C481 C 0.65154 0.60241 0.17354
 C482 C 0.66188 0.59219 0.21496
 C483 C 0.62596 0.58205 0.15030
 C484 C 0.61550 0.59253 0.10883
 C485 C 0.63109 0.62367 0.09090
 C486 C 0.65662 0.64397 0.11376
 H487 H 0.70461 0.67763 0.16363
 H488 H 0.65024 0.56840 0.22969
 H489 H 0.61388 0.55831 0.16468
 H490 H 0.66827 0.66777 0.09908
 H491 H 0.69410 0.60466 0.27020
 H492 H 0.62395 0.63204 0.05882
   
