data_POSCAR
  _audit_creation_date              2014-09-24
  _audit_creation_method            'ToBaCCo'
  _symmetry_space_group_name_H-M    'P1'
  _symmetry_Int_Tables_number       1
  _symmetry_cell_setting            triclinic
  loop_
  _symmetry_equiv_pos_as_xyz
 x,y,z
_cell_length_a 25.2578
_cell_length_b 25.1167
_cell_length_c 29.3710
_cell_angle_alpha 90.032000
_cell_angle_beta 90.259600
_cell_angle_gamma 90.247500
loop_
  _atom_site_label
  _atom_site_type_symbol
  _atom_site_fract_x
  _atom_site_fract_y
  _atom_site_fract_z
B1 B 0.27906 0.22421 0.20905
 B2 B 0.30004 0.28662 0.22093
 B3 B 0.23543 0.27585 0.20480
 B4 B 0.21724 0.21681 0.22920
 B5 B 0.26984 0.19330 0.25950
 B6 B 0.32018 0.23689 0.25440
 B7 B 0.23922 0.28986 0.29624
 B8 B 0.22052 0.22531 0.28652
 B9 B 0.28362 0.23856 0.30160
 B10 B 0.30112 0.29582 0.27708
 B11 B 0.24948 0.31947 0.24635
 B12 B 0.19845 0.27538 0.25228
 B13 B 0.73135 0.77091 0.20351
 B14 B 0.72767 0.70604 0.22171
 B15 B 0.78754 0.73374 0.21120
 B16 B 0.78635 0.79742 0.22839
 B17 B 0.72479 0.81027 0.24936
 B18 B 0.68788 0.75392 0.24455
 B19 B 0.76953 0.73326 0.30291
 B20 B 0.77577 0.79805 0.28454
 B21 B 0.71591 0.77125 0.29567
 B22 B 0.71572 0.70755 0.27779
 B23 B 0.77713 0.69395 0.25757
 B24 B 0.81421 0.74958 0.26185
 B25 B 0.74348 0.20694 -0.20784
 B26 B 0.71604 0.26753 -0.21953
 B27 B 0.78153 0.26282 -0.20511
 B28 B 0.80578 0.20777 -0.22843
 B29 B 0.75592 0.17658 -0.25803
 B30 B 0.70055 0.21374 -0.25192
 B31 B 0.77370 0.27359 -0.29842
 B32 B 0.80271 0.21436 -0.28507
 B33 B 0.73578 0.21735 -0.30052
 B34 B 0.71147 0.27404 -0.27685
 B35 B 0.76107 0.30429 -0.24814
 B36 B 0.81648 0.26772 -0.25348
 B37 B 0.27684 0.76709 -0.29356
 B38 B 0.21225 0.77694 -0.28254
 B39 B 0.23256 0.71374 -0.28997
 B40 B 0.29294 0.70892 -0.26825
 B41 B 0.31090 0.76746 -0.24497
 B42 B 0.26054 0.81118 -0.25320
 B43 B 0.22370 0.73219 -0.19851
 B44 B 0.28836 0.71712 -0.21240
 B45 B 0.26833 0.78200 -0.20217
 B46 B 0.20692 0.78929 -0.22550
 B47 B 0.18909 0.72984 -0.24782
 B48 B 0.23821 0.68651 -0.23842
 B49 B 1.23759 1.28114 0.69946
 B50 B 1.21802 1.21728 0.71086
 B51 B 1.28310 1.23027 0.70081
 B52 B 1.29740 1.28878 0.72377
 B53 B 1.24277 1.31389 0.74895
 B54 B 1.19245 1.26941 0.74072
 B55 B 1.26918 1.22109 0.79304
 B56 B 1.29093 1.28302 0.77982
 B57 B 1.22529 1.27274 0.79134
 B58 B 1.20902 1.21236 0.76827
 B59 B 1.26405 1.18736 0.74348
 B60 B 1.31379 1.23134 0.75103
 B61 B 0.77850 0.73503 0.79876
 B62 B 0.72010 0.70886 0.77892
 B63 B 0.72451 0.77529 0.79087
 B64 B 0.78537 0.79533 0.77531
 B65 B 0.81831 0.74238 0.75288
 B66 B 0.77758 0.68971 0.75622
 B67 B 0.72996 0.76218 0.69946
 B68 B 0.78932 0.78786 0.71910
 B69 B 0.78317 0.72255 0.70564
 B70 B 0.72334 0.70156 0.72257
 B71 B 0.69079 0.75344 0.74470
 B72 B 0.73193 0.80689 0.74146
 B73 B 1.22874 0.71586 0.29094
 B74 B 1.20351 0.77863 0.28095
 B75 B 1.26831 0.76980 0.29901
 B76 B 1.29133 0.71437 0.27243
 B77 B 1.24155 0.68972 0.23908
 B78 B 1.18845 0.72868 0.24557
 B79 B 1.26704 0.78885 0.20672
 B80 B 1.29114 0.72601 0.21593
 B81 B 1.22658 0.73514 0.19894
 B82 B 1.20410 0.79025 0.22469
 B83 B 1.25342 0.81544 0.25827
 B84 B 1.30680 0.77569 0.25254
 B85 B 0.77994 1.26217 0.20256
 B86 B 0.71398 1.27666 0.21149
 B87 B 0.73434 1.21314 0.20531
 B88 B 0.79306 1.20633 0.23227
 B89 B 0.81086 1.26633 0.25334
 B90 B 0.76241 1.31013 0.23965
 B91 B 0.71875 1.23521 0.29617
 B92 B 0.78372 1.22054 0.28816
 B93 B 0.76476 1.28570 0.29242
 B94 B 0.70622 1.29092 0.26647
 B95 B 0.68865 1.22978 0.24548
 B96 B 0.73673 1.18663 0.25896
 O97 O 0.44592 1.10588 0.07520
 O98 O 0.37936 1.05543 0.04410
 C99 C 0.39640 1.09405 0.07042
 O100 O 0.58299 1.09056 -0.08233
 O101 O 0.64212 1.03934 -0.04210
 C102 C 0.63061 1.07576 -0.07238
 O103 O 0.43919 1.09912 -0.07839
 O104 O 0.37575 1.05545 -0.03745
 C105 C 0.39007 1.09065 -0.06802
 O106 O 0.58849 1.08616 0.08382
 O107 O 0.64514 1.03651 0.04008
 C108 C 0.63535 1.07095 0.07214
 Zr109 Zr 0.51382 1.06400 0.05818
 O110 O 0.52560 1.14694 0.06536
 O111 O 0.50753 1.05806 0.12996
 Zr112 Zr 0.51031 1.06563 -0.05558
 O113 O 0.51939 1.14955 -0.05448
 O114 O 0.50420 1.06495 -0.12756
 O115 O 0.46505 1.07857 0.00207
 O116 O 0.55922 1.07217 0.00067
 O117 O 0.57616 0.89819 0.08006
 O118 O 0.63922 0.94274 0.03836
 C119 C 0.62465 0.90651 0.06769
 O120 O 0.42874 0.89887 -0.06859
 O121 O 0.37067 0.95929 -0.03917
 C122 C 0.38189 0.91892 -0.06569
 O123 O 0.57275 0.90118 -0.08174
 O124 O 0.63787 0.94533 -0.04169
 C125 C 0.62189 0.91186 -0.07269
 O126 O 0.43281 0.90553 0.08301
 O127 O 0.37317 0.95753 0.04376
 C128 C 0.38522 0.92092 0.07394
 Zr129 Zr 0.50515 0.93235 0.05735
 O130 O 0.50199 0.84821 0.05700
 O131 O 0.50747 0.93918 0.12907
 Zr132 Zr 0.50223 0.93360 -0.05621
 O133 O 0.50181 0.85035 -0.06695
 O134 O 0.49187 0.94230 -0.12742
 Zr135 Zr 0.42625 1.00385 0.00210
 Zr136 Zr 0.58885 0.99404 -0.00048
 O137 O 0.54929 0.92023 -0.00041
 O138 O 0.45520 0.92518 0.00136
 O139 O 0.55800 0.99502 0.06609
 O140 O 0.45899 1.00222 -0.06376
 O141 O 0.46231 1.00124 0.06690
 O142 O 0.55421 0.99678 -0.06600
 H143 H 0.58413 1.10272 0.00090
 H144 H 0.43451 1.00326 -0.09020
 H145 H 0.56966 0.88678 -0.00150
 H146 H 0.43951 1.00322 0.09422
 H147 H 0.53263 1.04191 -0.13951
 H148 H 0.52694 0.94919 -0.14088
 H149 H 0.50490 0.83350 -0.03666
 H150 H 0.47330 0.83712 0.03593
 H151 H 0.50859 0.90241 0.14116
 H152 H 0.53819 1.03733 0.14113
 H153 H 0.52097 1.16281 0.03487
 H154 H 0.48929 1.16470 -0.03739
 O155 O 1.06953 0.59128 0.58493
 O156 O 1.13034 0.54413 0.54399
 C157 C 1.11751 0.57710 0.57653
 O158 O 0.92182 0.40434 0.57704
 O159 O 0.86216 0.45559 0.53724
 C160 C 0.87402 0.41808 0.56658
 O161 O 1.06637 0.40469 0.57980
 O162 O 1.12864 0.45151 0.53932
 C163 C 1.11502 0.41629 0.56982
 O164 O 0.92621 0.59803 0.57948
 O165 O 0.86409 0.55026 0.53870
 C166 C 0.87813 0.58567 0.56869
 Zr167 Zr 0.99787 0.56725 0.55682
 O168 O 0.99235 0.56856 0.62870
 O169 O 1.00183 0.65126 0.55310
 Zr170 Zr 0.99449 0.43404 0.55364
 O171 O 0.98914 0.43114 0.62556
 O172 O 0.99647 0.35010 0.54764
 O173 O 1.04377 0.49925 0.56514
 O174 O 0.94975 0.50136 0.56348
 O175 O 0.92893 0.60615 0.42286
 O176 O 0.86586 0.55926 0.46185
 C177 C 0.88030 0.59701 0.43377
 O178 O 1.06704 0.41283 0.41473
 O179 O 1.12942 0.45423 0.45902
 C180 C 1.11569 0.42171 0.42645
 O181 O 0.92194 0.40834 0.41882
 O182 O 0.86191 0.46241 0.45433
 C183 C 0.87421 0.42557 0.42488
 O184 O 1.07123 0.59856 0.41770
 O185 O 1.13059 0.54756 0.45816
 C186 C 1.11874 0.58359 0.42747
 Zr187 Zr 0.99939 0.57115 0.44383
 O188 O 0.99827 0.56475 0.37202
 O189 O 1.00626 0.65512 0.44441
 Zr190 Zr 0.99495 0.43949 0.43992
 O191 O 0.99005 0.44887 0.36829
 O192 O 0.99607 0.35632 0.42951
 Zr193 Zr 1.07777 0.50097 0.49971
 Zr194 Zr 0.91562 0.50450 0.49806
 O195 O 0.94988 0.50704 0.43297
 O196 O 1.04551 0.50430 0.43350
 O197 O 0.95103 0.58069 0.50027
 O198 O 1.04106 0.42562 0.49691
 O199 O 1.04613 0.57804 0.50124
 O200 O 0.94652 0.42674 0.49603
 H201 H 0.92679 0.50095 0.59075
 H202 H 1.06381 0.39361 0.49647
 H203 H 0.92631 0.50931 0.40597
 H204 H 1.07063 0.60896 0.50221
 H205 H 0.96637 0.33891 0.52812
 H206 H 1.01046 0.33975 0.45740
 H207 H 1.02300 0.46638 0.35780
 H208 H 0.99008 0.60055 0.35996
 H209 H 0.98410 0.66844 0.46963
 H210 H 1.00134 0.66451 0.58489
 H211 H 1.01574 0.54027 0.64051
 H212 H 1.01952 0.45118 0.63839
 O213 O 1.10753 0.57059 0.07425
 O214 O 1.05427 0.63288 0.03983
 C215 C 1.09477 0.61914 0.06531
 O216 O 1.08987 0.42836 -0.08639
 O217 O 1.05048 0.36462 -0.04166
 C218 C 1.08363 0.37935 -0.07366
 O219 O 1.09244 0.57244 -0.08275
 O220 O 1.04888 0.63398 -0.03872
 C221 C 1.08366 0.62070 -0.06972
 O222 O 1.10351 0.42785 0.07794
 O223 O 1.05598 0.36448 0.03866
 C224 C 1.09407 0.37892 0.06694
 Zr225 Zr 1.07158 0.49921 0.05451
 O226 O 1.15489 0.50031 0.05728
 O227 O 1.06692 0.49974 0.12636
 Zr228 Zr 1.06071 0.50019 -0.06008
 O229 O 1.14169 0.50176 -0.07679
 O230 O 1.04090 0.50110 -0.13003
 O231 O 1.07720 0.54703 -0.00311
 O232 O 1.07726 0.45391 -0.00373
 O233 O 0.91682 0.42397 0.08850
 O234 O 0.95684 0.36264 0.04213
 C235 C 0.92451 0.37550 0.07518
 O236 O 0.89722 0.57137 -0.07235
 O237 O 0.94822 0.63325 -0.03489
 C238 C 0.90946 0.62019 -0.06289
 O239 O 0.89917 0.42898 -0.07369
 O240 O 0.95257 0.36577 -0.04083
 C241 C 0.91394 0.38040 -0.06815
 O242 O 0.90818 0.56815 0.08478
 O243 O 0.95622 0.63194 0.04668
 C244 C 0.92095 0.61717 0.07684
 Zr245 Zr 0.94242 0.49730 0.06288
 O246 O 0.86016 0.49420 0.07576
 O247 O 0.95647 0.50215 0.13400
 Zr248 Zr 0.93094 0.49973 -0.05029
 O249 O 0.84747 0.49566 -0.04372
 O250 O 0.92600 0.50485 -0.12219
 Zr251 Zr 1.00133 0.58141 0.00236
 Zr252 Zr 1.00283 0.41630 0.00058
 O253 O 0.92722 0.45124 0.00617
 O254 O 0.92551 0.54651 0.00757
 O255 O 1.00836 0.44854 0.06700
 O256 O 0.99518 0.54811 -0.06311
 O257 O 1.00748 0.54654 0.06739
 O258 O 0.99534 0.45080 -0.06482
 H259 H 1.10971 0.43243 -0.00514
 H260 H 0.99311 0.57242 -0.08962
 H261 H 0.89535 0.42820 0.00762
 H262 H 1.00987 0.57029 0.09429
 H263 H 1.07487 0.50307 -0.14668
 H264 H 0.94583 0.47457 -0.13517
 H265 H 0.83626 0.52483 -0.02328
 H266 H 0.84225 0.48618 0.04659
 H267 H 0.97172 0.46789 0.14420
 H268 H 1.10384 0.50177 0.13782
 H269 H 1.16736 0.50274 0.02560
 H270 H 1.16110 0.50026 -0.04765
 O271 O 0.59644 0.92320 0.58203
 O272 O 0.55046 0.86086 0.54067
 C273 C 0.58659 0.87446 0.57093
 O274 O 0.40448 1.06874 0.57426
 O275 O 0.45919 1.13003 0.54077
 C276 C 0.42104 1.11684 0.56863
 O277 O 0.41007 0.92566 0.58439
 O278 O 0.45206 0.86155 0.54242
 C279 C 0.41747 0.87656 0.57286
 O280 O 0.60303 1.06766 0.57558
 O281 O 0.55562 1.13009 0.53548
 C282 C 0.59322 1.11633 0.56367
 Zr283 Zr 0.56918 0.99492 0.55602
 O284 O 0.56544 1.00105 0.62797
 O285 O 0.65283 0.99333 0.56041
 Zr286 Zr 0.43921 0.99695 0.55767
 O287 O 0.45139 1.00091 0.62883
 O288 O 0.35673 0.99977 0.56746
 O289 O 0.50313 0.94679 0.56648
 O290 O 0.50535 1.04403 0.56489
 O291 O 0.60045 1.06473 0.41827
 O292 O 0.55229 1.12741 0.45738
 C293 C 0.58849 1.11354 0.42801
 O294 O 0.40545 0.92409 0.41807
 O295 O 0.44912 0.86143 0.46095
 C296 C 0.41355 0.87548 0.43057
 O297 O 0.40602 1.06774 0.42050
 O298 O 0.45289 1.12906 0.46176
 C299 C 0.41588 1.11621 0.43240
 O300 O 0.58809 0.91818 0.41495
 O301 O 0.54102 0.85846 0.45871
 C302 C 0.57419 0.87029 0.42649
 Zr303 Zr 0.56720 0.99286 0.44196
 O304 O 0.56613 0.99787 0.36999
 O305 O 0.65059 0.98485 0.44315
 Zr306 Zr 0.43642 0.99560 0.44323
 O307 O 0.44452 0.99548 0.37162
 O308 O 0.35281 0.99659 0.43910
 Zr309 Zr 0.50026 0.91297 0.50071
 Zr310 Zr 0.50445 1.07686 0.49901
 O311 O 0.50255 1.04196 0.43387
 O312 O 0.50010 0.94544 0.43431
 O313 O 0.58013 1.04144 0.49831
 O314 O 0.42625 0.95037 0.50118
 O315 O 0.57684 0.94667 0.49920
 O316 O 0.42776 1.04384 0.50015
 H317 H 0.50661 1.06852 0.59137
 H318 H 0.39411 0.92843 0.50226
 H319 H 0.50219 1.06539 0.40675
 H320 H 0.60766 0.92261 0.49816
 H321 H 0.34049 1.00027 0.53683
 H322 H 0.33963 1.01968 0.46382
 H323 H 0.40821 0.99763 0.35884
 H324 H 0.54005 0.97147 0.35862
 H325 H 0.66526 1.01441 0.46168
 H326 H 0.66645 0.97563 0.53285
 H327 H 0.54691 0.96915 0.63982
 H328 H 0.41577 0.99977 0.64277
 O329 O 0.88145 0.93611 0.43551
 O330 O 0.93945 0.97316 0.38404
 C331 C 0.89668 0.94742 0.39453
 O332 O 0.93887 1.11083 0.56856
 O333 O 0.97392 1.04695 0.61570
 C334 C 0.95028 1.09202 0.60840
 O335 O 0.92304 1.11114 0.44180
 O336 O 0.95890 1.05828 0.38608
 C337 C 0.93130 1.09839 0.39946
 O338 O 0.89564 0.91599 0.56074
 O339 O 0.95550 0.95237 0.61135
 C340 C 0.91503 0.92280 0.60125
 Zr341 Zr 0.92033 0.94859 0.49816
 O342 O 0.84083 0.97264 0.50615
 O343 O 0.89753 0.86797 0.48973
 Zr344 Zr 0.94916 1.07740 0.50387
 O345 O 0.86703 1.08947 0.51258
 O346 O 0.95941 1.16098 0.50347
 O347 O 0.92283 1.01814 0.46037
 O348 O 0.92810 1.01209 0.54218
 O349 O 1.06988 0.88052 0.55145
 O350 O 1.04433 0.93803 0.60774
 C351 C 1.06917 0.89612 0.59353
 O352 O 1.10637 1.08162 0.43624
 O353 O 1.04616 1.05002 0.38424
 C354 C 1.08626 1.08018 0.39581
 O355 O 1.10979 1.07334 0.55968
 O356 O 1.06001 1.02939 0.61233
 C357 C 1.09881 1.06078 0.60115
 O358 O 1.06769 0.89003 0.42620
 O359 O 1.03240 0.95388 0.37929
 C360 C 1.05800 0.90970 0.38642
 Zr361 Zr 1.04843 0.91905 0.49078
 O362 O 1.12618 0.89328 0.48073
 O363 O 1.02105 0.83945 0.48781
 Zr364 Zr 1.07954 1.04861 0.49713
 O365 O 1.15898 1.02206 0.49463
 O366 O 1.11087 1.12627 0.50256
 Zr367 Zr 0.99666 1.00415 0.42893
 Zr368 Zr 1.00468 0.99414 0.56623
 O369 O 1.07702 0.97887 0.53318
 O370 O 1.07286 0.98481 0.45243
 O371 O 0.98511 0.92079 0.53498
 O372 O 1.01390 1.07628 0.46248
 O373 O 0.97997 0.92746 0.45388
 O374 O 1.01931 1.07120 0.54089
 H375 H 0.89944 1.01708 0.56465
 H376 H 1.01704 1.10995 0.44560
 H377 H 1.10912 0.97195 0.55169
 H378 H 0.97167 0.89816 0.43241
 H379 H 0.99533 1.16822 0.51545
 H380 H 1.08155 1.14931 0.51275
 H381 H 1.16823 1.01631 0.46228
 H382 H 1.14793 0.92595 0.48083
 H383 H 1.05288 0.81680 0.48482
 H384 H 0.92408 0.84603 0.50587
 H385 H 0.81929 0.93957 0.50547
 H386 H 0.84874 1.07550 0.48516
 O387 O 0.58761 0.39549 0.06493
 O388 O 0.54776 0.45300 0.11526
 C389 C 0.57648 0.41215 0.10542
 O390 O 0.61189 0.58173 -0.06541
 O391 O 0.55694 0.53764 -0.11557
 C392 C 0.59490 0.57051 -0.10587
 O393 O 0.62427 0.57177 0.05896
 O394 O 0.56530 0.54215 0.11202
 C395 C 0.60967 0.56510 0.10060
 O396 O 0.58708 0.38864 -0.06092
 O397 O 0.54799 0.44362 -0.11369
 C398 C 0.57726 0.40289 -0.10241
 Zr399 Zr 0.56419 0.42389 0.00110
 O400 O 0.64690 0.41029 0.00511
 O401 O 0.54957 0.34090 0.00599
 Zr402 Zr 0.58551 0.55516 -0.00194
 O403 O 0.66797 0.54269 -0.00849
 O404 O 0.59952 0.63806 0.00234
 O405 O 0.58527 0.48912 0.04044
 O406 O 0.58435 0.48692 -0.04049
 O407 O 0.40259 0.41603 -0.05912
 O408 O 0.45929 0.45079 -0.11130
 C409 C 0.41986 0.42032 -0.10014
 O410 O 0.42684 0.60886 0.05999
 O411 O 0.46764 0.55545 0.11288
 C412 C 0.43648 0.59470 0.10154
 O413 O 0.43245 0.60880 -0.06440
 O414 O 0.46957 0.54981 -0.11481
 C415 C 0.44058 0.59108 -0.10504
 O416 O 0.39877 0.42809 0.06353
 O417 O 0.45980 0.46077 0.11403
 C418 C 0.41837 0.43204 0.10397
 Zr419 Zr 0.43281 0.44661 0.00123
 O420 O 0.35089 0.46316 -0.00398
 O421 O 0.41599 0.36436 0.00785
 Zr422 Zr 0.45560 0.57762 -0.00152
 O423 O 0.37519 0.59905 -0.00263
 O424 O 0.47929 0.65842 -0.00193
 Zr425 Zr 0.50975 0.50293 0.06858
 Zr426 Zr 0.50868 0.49762 -0.06892
 O427 O 0.43398 0.51189 -0.04045
 O428 O 0.43383 0.51498 0.04082
 O429 O 0.49633 0.42268 -0.03891
 O430 O 0.52272 0.57770 0.03861
 O431 O 0.49722 0.42657 0.04050
 O432 O 0.52148 0.57505 -0.04292
 H433 H 0.61481 0.48281 -0.06129
 H434 H 0.52827 0.60871 0.05895
 H435 H 0.40311 0.51465 -0.06123
 H436 H 0.49212 0.39481 0.05986
 H437 H 0.57685 0.65545 -0.02079
 H438 H 0.44629 0.67957 -0.00088
 H439 H 0.35600 0.56904 -0.01684
 H440 H 0.34252 0.48983 0.01969
 H441 H 0.44167 0.34486 -0.01110
 H442 H 0.52887 0.32978 -0.02109
 H443 H 0.66399 0.42518 -0.02233
 H444 H 0.67697 0.51121 0.01021
 C445 C 0.27631 1.16343 0.12952
 C446 C 0.30389 1.18877 0.16688
 C447 C 0.35904 1.18231 0.16851
 C448 C 0.38590 1.15167 0.13750
 C449 C 0.36072 1.12671 0.10041
 C450 C 0.30534 1.13428 0.09528
 C451 C 0.22085 1.16572 0.12472
 C452 C 0.19493 1.14450 0.08683
 C453 C 0.22350 1.11984 0.05261
 C454 C 0.27809 1.11454 0.05669
 H455 H 0.19628 1.18290 0.14997
 H456 H 0.15230 1.14750 0.08394
 H457 H 0.20318 1.10434 0.02287
 H458 H 0.29829 1.09588 0.02874
 H459 H 0.38344 1.20060 0.19451
 H460 H 0.42804 1.14772 0.14355
 C461 C 0.81165 0.70512 0.61625
 C462 C 0.80669 0.68807 0.66288
 C463 C 0.81795 0.63400 0.67232
 C464 C 0.83216 0.59831 0.63884
 C465 C 0.83883 0.61498 0.59429
 C466 C 0.82783 0.66793 0.58229
 C467 C 0.80430 0.75812 0.60207
 C468 C 0.81432 0.77457 0.55763
 C469 C 0.82991 0.73795 0.52508
 C470 C 0.83596 0.68495 0.53703
 H471 H 0.79344 0.78838 0.62509
 H472 H 0.81087 0.81620 0.54877
 H473 H 0.83813 0.75045 0.49063
 H474 H 0.84797 0.65741 0.51079
 H475 H 0.81737 0.61783 0.70630
 H476 H 0.84327 0.55827 0.64878
 C477 C 0.66539 0.78363 0.12938
 C478 C 0.70706 0.80234 0.15844
 C479 C 0.72409 0.85591 0.15109
 C480 C 0.70185 0.88872 0.11777
 C481 C 0.66332 0.86906 0.08828
 C482 C 0.64976 0.81444 0.09083
 C483 C 0.63504 0.73782 0.13863
 C484 C 0.60124 0.71595 0.10592
 C485 C 0.59352 0.74172 0.06464
 C486 C 0.61647 0.79135 0.05751
 H487 H 0.63566 0.71881 0.17120
 H488 H 0.58032 0.67932 0.11311
 H489 H 0.56654 0.72531 0.03960
 H490 H 0.60739 0.81206 0.02624
 H491 H 0.75301 0.87463 0.17321
 H492 H 0.71226 0.93061 0.11720
 C493 C 1.23122 0.37435 0.64851
 C494 C 1.21551 0.31960 0.65758
 C495 C 1.17122 0.30026 0.63347
 C496 C 1.14321 0.33109 0.60264
 C497 C 1.15566 0.38459 0.59508
 C498 C 1.20083 0.40641 0.61718
 C499 C 1.27553 0.39932 0.66974
 C500 C 1.28984 0.45168 0.66046
 C501 C 1.25965 0.48217 0.63119
 C502 C 1.21543 0.46016 0.61009
 H503 H 1.30169 0.37983 0.69276
 H504 H 1.32480 0.46875 0.67628
 H505 H 1.27074 0.52310 0.62475
 H506 H 1.19351 0.48604 0.58803
 H507 H 1.15536 0.26120 0.63961
 H508 H 1.10898 0.31328 0.58615
 C509 C 0.73849 1.11313 -0.15857
 C510 C 0.72577 1.16885 -0.16438
 C511 C 0.69441 1.19192 -0.13038
 C512 C 0.66734 1.16116 -0.09864
 C513 C 0.67249 1.10572 -0.09726
 C514 C 0.71082 1.08166 -0.12532
 C515 C 0.77961 1.08788 -0.18283
 C516 C 0.79073 1.03400 -0.17726
 C517 C 0.76154 1.00340 -0.14711
 C518 C 0.72243 1.02700 -0.12092
 H519 H 0.80625 1.10926 -0.20415
 H520 H 0.82277 1.01605 -0.19612
 H521 H 0.77022 0.96148 -0.14307
 H522 H 0.70253 1.00208 -0.09650
 H523 H 0.68908 1.23422 -0.12842
 H524 H 0.63987 1.18090 -0.07602
 C525 C 1.21068 0.61651 0.32802
 C526 C 1.21298 0.67369 0.33236
 C527 C 1.19612 0.69476 0.37419
 C528 C 1.17074 0.66365 0.40707
 C529 C 1.16018 0.60969 0.39948
 C530 C 1.17947 0.58595 0.35925
 C531 C 1.23889 0.58780 0.29461
 C532 C 1.22820 0.53420 0.28605
 C533 C 1.19079 0.50724 0.31183
 C534 C 1.16762 0.53231 0.34897
 H535 H 1.27163 0.60486 0.27649
 H536 H 1.24939 0.51341 0.25952
 H537 H 1.18174 0.46596 0.30448
 H538 H 1.14112 0.50912 0.36993
 H539 H 1.19985 0.73627 0.38113
 H540 H 1.15550 0.68298 0.43726
 C541 C 0.26186 0.84840 -0.12569
 C542 C 0.29063 0.82339 -0.16232
 C543 C 0.34273 0.84170 -0.16891
 C544 C 0.36793 0.87527 -0.13889
 C545 C 0.34388 0.89376 -0.09910
 C546 C 0.28890 0.88395 -0.09416
 C547 C 0.20683 0.84147 -0.12023
 C548 C 0.17914 0.86804 -0.08619
 C549 C 0.20532 0.90249 -0.05660
 C550 C 0.25976 0.91005 -0.06012
 H551 H 0.18369 0.81735 -0.14272
 H552 H 0.13680 0.86232 -0.08312
 H553 H 0.18336 0.92319 -0.03050
 H554 H 0.27826 0.93736 -0.03650
 H555 H 0.36668 0.82961 -0.19740
 H556 H 0.40856 0.88546 -0.14678
 C557 C 0.75569 0.35212 0.36795
 C558 C 0.78286 0.33389 0.32792
 C559 C 0.83108 0.35967 0.31785
 C560 C 0.85543 0.39409 0.34804
 C561 C 0.83509 0.40324 0.39154
 C562 C 0.78326 0.38458 0.40109
 C563 C 0.70299 0.33760 0.37709
 C564 C 0.67928 0.35021 0.41845
 C565 C 0.70741 0.37815 0.45162
 C566 C 0.75889 0.39548 0.44311
 H567 H 0.67898 0.31802 0.35209
 H568 H 0.63876 0.33819 0.42479
 H569 H 0.68891 0.38724 0.48386
 H570 H 0.77892 0.41767 0.46959
 H571 H 0.85236 0.35244 0.28664
 H572 H 0.89343 0.41057 0.33826
 C573 C 1.21533 0.34680 0.13518
 C574 C 1.20171 0.29982 0.16030
 C575 C 1.15139 0.27695 0.14936
 C576 C 1.11728 0.29841 0.11577
 C577 C 1.13356 0.34103 0.08848
 C578 C 1.18628 0.35990 0.09497
 C579 C 1.25298 0.38506 0.15007
 C580 C 1.26954 0.42650 0.12184
 C581 C 1.24950 0.43046 0.07804
 C582 C 1.20788 0.39757 0.06477
 H583 H 1.26989 0.38512 0.18344
 H584 H 1.29883 0.45492 0.13375
 H585 H 1.26326 0.46159 0.05557
 H586 H 1.18961 0.40452 0.03229
 H587 H 1.13567 0.24468 0.16963
 H588 H 1.07709 0.28352 0.11304
 C589 C 0.65284 0.75291 0.63243
 C590 C 0.69674 0.78062 0.65340
 C591 C 0.70557 0.83294 0.63898
 C592 C 0.67237 0.85839 0.60866
 C593 C 0.62399 0.83596 0.59404
 C594 C 0.61456 0.78172 0.60515
 C595 C 0.64578 0.69743 0.63702
 C596 C 0.60038 0.67209 0.62056
 C597 C 0.56128 0.70104 0.59834
 C598 C 0.56833 0.75522 0.59025
 H599 H 0.67604 0.67226 0.65095
 H600 H 0.59566 0.62952 0.62484
 H601 H 0.52586 0.68109 0.58619
 H602 H 0.53732 0.77548 0.57196
 H603 H 0.73798 0.85612 0.65222
 H604 H 0.68369 0.89851 0.59923
 C605 C 1.20930 0.68689 -0.11594
 C606 C 1.18855 0.71507 -0.15356
 C607 C 1.13272 0.72164 -0.15485
 C608 C 1.09902 0.69617 -0.12371
 C609 C 1.11933 0.66065 -0.09152
 C610 C 1.17522 0.65513 -0.08840
 C611 C 1.26326 0.68854 -0.10501
 C612 C 1.28559 0.64961 -0.07737
 C613 C 1.25318 0.61142 -0.05747
 C614 C 1.19849 0.61686 -0.05968
 H615 H 1.28780 0.72030 -0.11748
 H616 H 1.32787 0.64889 -0.07180
 H617 H 1.26998 0.57858 -0.03892
 H618 H 1.17482 0.59035 -0.03939
 H619 H 1.11422 0.74488 -0.18150
 H620 H 1.05662 0.70017 -0.12787
 C621 C 0.62351 1.22183 0.34032
 C622 C 0.68066 1.21618 0.33915
 C623 C 0.70345 1.18307 0.37252
 C624 C 0.67300 1.15389 0.40323
 C625 C 0.61773 1.15481 0.40171
 C626 C 0.59252 1.18854 0.36986
 C627 C 0.59527 1.25851 0.31267
 C628 C 0.54025 1.25777 0.30964
 C629 C 0.51122 1.22150 0.33478
 C630 C 0.53677 1.18790 0.36528
 H631 H 0.61382 1.28959 0.29375
 H632 H 0.52002 1.28556 0.28746
 H633 H 0.46856 1.22027 0.33134
 H634 H 0.51227 1.16120 0.38487
 H635 H 0.74533 1.17662 0.37404
 H636 H 0.69302 1.12748 0.42682
 C637 C 0.84084 0.73381 0.12863
 C638 C 0.82980 0.71146 0.17267
 C639 C 0.85736 0.66467 0.18409
 C640 C 0.88935 0.63847 0.15327
 C641 C 0.89442 0.65551 0.10811
 C642 C 0.87007 0.70387 0.09534
 C643 C 0.82537 0.78555 0.11679
 C644 C 0.83069 0.80467 0.07247
 C645 C 0.85349 0.77302 0.03908
 C646 C 0.87383 0.72328 0.05042
 H647 H 0.81241 0.81274 0.14218
 H648 H 0.81764 0.84451 0.06417
 H649 H 0.85709 0.78780 0.00460
 H650 H 0.89274 0.70068 0.02383
 H651 H 0.85441 0.64661 0.21736
 H652 H 0.90871 0.60239 0.16468
 C653 C 0.34622 1.23523 0.62301
 C654 C 0.32514 1.20784 0.66229
 C655 C 0.34515 1.15671 0.67088
 C656 C 0.38052 1.13249 0.64227
 C657 C 0.39503 1.15478 0.60042
 C658 C 0.37893 1.20734 0.59079
 C659 C 0.33486 1.28880 0.61379
 C660 C 0.35061 1.31332 0.57350
 C661 C 0.37893 1.28499 0.54121
 C662 C 0.39332 1.23250 0.54973
 H663 H 0.31468 1.31260 0.63767
 H664 H 0.34060 1.35457 0.56730
 H665 H 0.39047 1.30405 0.50974
 H666 H 0.41579 1.21224 0.52393
 H667 H 0.33426 1.13385 0.70055
 H668 H 0.39437 1.09347 0.65232
 C669 C 0.83664 0.26166 -0.12219
 C670 C 0.81574 0.28821 -0.16208
 C671 C 0.83339 0.34066 -0.16931
 C672 C 0.86796 0.36591 -0.14021
 C673 C 0.88410 0.34337 -0.09882
 C674 C 0.86706 0.29105 -0.08879
 C675 C 0.83091 0.20664 -0.11482
 C676 C 0.84535 0.18307 -0.07364
 C677 C 0.86829 0.21349 -0.03924
 C678 C 0.88012 0.26689 -0.04692
 H679 H 0.81857 0.18055 -0.14129
 H680 H 0.83932 0.14077 -0.06869
 H681 H 0.87890 0.19515 -0.00713
 H682 H 0.89973 0.28866 -0.01994
 H683 H 0.82256 0.36330 -0.19918
 H684 H 0.88094 0.40532 -0.15024
 C685 C 0.28340 0.82579 0.37930
 C686 C 0.30101 0.78775 0.34653
 C687 C 0.35474 0.77124 0.35126
 C688 C 0.39054 0.79556 0.38187
 C689 C 0.37438 0.83700 0.41022
 C690 C 0.31981 0.85028 0.41035
 C691 C 0.23037 0.84083 0.38263
 C692 C 0.21399 0.88341 0.40898
 C693 C 0.24933 0.90785 0.43828
 C694 C 0.30077 0.88936 0.44066
 H695 H 0.20050 0.81775 0.36803
 H696 H 0.17329 0.89592 0.40761
 H697 H 0.23674 0.93977 0.46041
 H698 H 0.32557 0.90671 0.46602
 H699 H 0.37120 0.74182 0.32855
 H700 H 0.43199 0.78476 0.38065
 C701 C 1.16973 1.19733 0.36450
 C702 C 1.18166 1.18812 0.31765
 C703 C 1.15742 1.14307 0.29664
 C704 C 1.12386 1.10864 0.32062
 C705 C 1.10856 1.12125 0.36478
 C706 C 1.12613 1.17026 0.38381
 C707 C 1.19864 1.23188 0.39367
 C708 C 1.17844 1.24791 0.43557
 C709 C 1.12872 1.23058 0.44885
 C710 C 1.10264 1.19196 0.42310
 H711 H 1.23519 1.24990 0.38427
 H712 H 1.20005 1.27631 0.45635
 H713 H 1.11113 1.24564 0.47981
 H714 H 1.06456 1.17854 0.43455
 H715 H 1.16651 1.13210 0.26195
 H716 H 1.11099 1.07166 0.30505
 C717 C 0.68311 0.60884 -0.20377
 C718 C 0.68211 0.66601 -0.19707
 C719 C 0.64452 0.68731 -0.16730
 C720 C 0.61418 0.65503 -0.14009
 C721 C 0.61941 0.60011 -0.14217
 C722 C 0.65208 0.57606 -0.17466
 C723 C 0.71267 0.58237 -0.23805
 C724 C 0.71402 0.52708 -0.24139
 C725 C 0.68549 0.49594 -0.21134
 C726 C 0.65463 0.52001 -0.17827
 H727 H 0.73362 0.60206 -0.26446
 H728 H 0.73697 0.50828 -0.26796
 H729 H 0.68649 0.45306 -0.21438
 H730 H 0.63214 0.49433 -0.15610
 H731 H 0.63845 0.72946 -0.16383
 H732 H 0.58769 0.67326 -0.11570
 C733 C 0.89891 1.21222 0.66971
 C734 C 0.85596 1.18617 0.69314
 C735 C 0.86347 1.13138 0.70276
 C736 C 0.90017 1.10091 0.67945
 C737 C 0.93210 1.12444 0.64688
 C738 C 0.93614 1.18031 0.64556
 C739 C 0.90774 1.26795 0.66991
 C740 C 0.94993 1.29089 0.64643
 C741 C 0.98500 1.25927 0.62243
 C742 C 0.97815 1.20446 0.62167
 H743 H 0.88408 1.29531 0.68862
 H744 H 0.95584 1.33352 0.64756
 H745 H 1.01847 1.27701 0.60529
 H746 H 1.00738 1.18079 0.60403
 H747 H 0.83714 1.10992 0.72497
 H748 H 0.90004 1.05821 0.68383
 C749 C 0.38642 0.71378 0.17128
 C750 C 0.33808 0.69211 0.18920
 C751 C 0.33020 0.63647 0.18340
 C752 C 0.36507 0.60461 0.15864
 C753 C 0.40901 0.62662 0.13701
 C754 C 0.41988 0.68152 0.14318
 C755 C 0.40349 0.76628 0.18039
 C756 C 0.44814 0.78795 0.16011
 C757 C 0.47790 0.75775 0.13051
 C758 C 0.46430 0.70496 0.12209
 H759 H 0.38504 0.79129 0.20452
 H760 H 0.45993 0.82837 0.16792
 H761 H 0.51244 0.77519 0.11516
 H762 H 0.48931 0.68246 0.09954
 H763 H 0.29538 0.61668 0.19638
 H764 H 0.35541 0.56292 0.15364
 C765 C 1.17733 0.80282 0.63287
 C766 C 1.17061 0.80281 0.68136
 C767 C 1.12709 0.83131 0.69918
 C768 C 1.09334 0.86085 0.67108
 C769 C 1.10440 0.86621 0.62480
 C770 C 1.14954 0.84068 0.60696
 C771 C 1.21394 0.77099 0.60890
 C772 C 1.22591 0.77912 0.56322
 C773 C 1.20605 0.82340 0.54149
 C774 C 1.17071 0.85560 0.56460
 H775 H 1.23809 0.74323 0.62496
 H776 H 1.25509 0.75453 0.54650
 H777 H 1.22024 0.83440 0.50811
 H778 H 1.16302 0.89472 0.55174
 H779 H 1.11866 0.83100 0.73527
 H780 H 1.05935 0.88053 0.68572
 C781 C 0.62066 0.29053 0.16587
 C782 C 0.67078 0.31042 0.18279
 C783 C 0.67891 0.36627 0.18263
 C784 C 0.64456 0.40042 0.16132
 C785 C 0.59874 0.38094 0.14173
 C786 C 0.58422 0.32720 0.14648
 C787 C 0.60434 0.23638 0.16760
 C788 C 0.55433 0.22002 0.15281
 C789 C 0.51886 0.25669 0.13530
 C790 C 0.53365 0.30981 0.13187
 H791 H 0.62846 0.20504 0.18016
 H792 H 0.54297 0.17850 0.15524
 H793 H 0.47982 0.24397 0.12432
 H794 H 0.50470 0.33754 0.11892
 H795 H 0.71276 0.38517 0.19849
 H796 H 0.65562 0.44194 0.15766
 C797 C 0.78002 0.89528 0.32735
 C798 C 0.80498 0.84841 0.30896
 C799 C 0.86085 0.84608 0.31051
 C800 C 0.89056 0.88277 0.33438
 C801 C 0.86603 0.92343 0.35796
 C802 C 0.81144 0.93219 0.35286
 C803 C 0.72558 0.90738 0.32193
 C804 C 0.70353 0.95309 0.34088
 C805 C 0.73471 0.98832 0.36574
 C806 C 0.78816 0.97787 0.37215
 H807 H 0.69860 0.88332 0.30283
 H808 H 0.66190 0.96138 0.33587
 H809 H 0.71756 1.02416 0.37976
 H810 H 0.81156 1.00661 0.39111
 H811 H 0.88305 0.81442 0.29477
 H812 H 0.93291 0.87672 0.33746
 C813 C 0.38140 0.34117 -0.20797
 C814 C 0.33545 0.31402 -0.19038
 C815 C 0.32783 0.31460 -0.14355
 C816 C 0.35646 0.34848 -0.11608
 C817 C 0.39336 0.38509 -0.13402
 C818 C 0.40657 0.38136 -0.18099
 C819 C 0.40552 0.32797 -0.25001
 C820 C 0.44528 0.35941 -0.26869
 C821 C 0.46324 0.40399 -0.24559
 C822 C 0.44472 0.41478 -0.20208
 H823 H 0.39708 0.29177 -0.26809
 H824 H 0.46225 0.34900 -0.30128
 H825 H 0.49307 0.42938 -0.26078
 H826 H 0.46076 0.45006 -0.18670
 H827 H 0.29705 0.29090 -0.12780
 H828 H 0.34696 0.34712 -0.08019
 C829 C 1.20296 0.34770 -0.14325
 C830 C 1.19018 0.29903 -0.16653
 C831 C 1.14129 0.27465 -0.15411
 C832 C 1.10685 0.29743 -0.12155
 C833 C 1.12264 0.34194 -0.09597
 C834 C 1.17468 0.36142 -0.10320
 C835 C 1.24054 0.38573 -0.15852
 C836 C 1.25895 0.42610 -0.12973
 C837 C 1.23984 0.43016 -0.08584
 C838 C 1.19719 0.39871 -0.07301
 H839 H 1.25752 0.38516 -0.19178
 H840 H 1.28957 0.45305 -0.14069
 H841 H 1.25568 0.45994 -0.06279
 H842 H 1.18002 0.40526 -0.04032
 H843 H 1.12720 0.23986 -0.17226
 H844 H 1.06728 0.28138 -0.11764
 C845 C 0.69413 0.80277 0.38394
 C846 C 0.67760 0.78958 0.33807
 C847 C 0.62292 0.79365 0.32800
 C848 C 0.58692 0.81396 0.35924
 C849 C 0.60313 0.82799 0.40296
 C850 C 0.65555 0.81845 0.41661
 C851 C 0.74749 0.80468 0.39854
 C852 C 0.76201 0.81926 0.44264
 C853 C 0.72362 0.83020 0.47471
 C854 C 0.67079 0.82917 0.46206
 H855 H 0.77954 0.79780 0.37650
 H856 H 0.80343 0.82248 0.45170
 H857 H 0.73455 0.84092 0.50915
 H858 H 0.64178 0.83794 0.48788
 H859 H 0.60743 0.78446 0.29454
 H860 H 0.54681 0.82221 0.34812
 C861 C 0.85941 0.74010 -0.13677
 C862 C 0.80987 0.71788 -0.15309
 C863 C 0.79228 0.67170 -0.13072
 C864 C 0.82336 0.64486 -0.09873
 C865 C 0.87546 0.66075 -0.08787
 C866 C 0.89334 0.70989 -0.10643
 C867 C 0.87663 0.79172 -0.14911
 C868 C 0.92678 0.81057 -0.13735
 C869 C 0.96102 0.77917 -0.11209
 C870 C 0.94451 0.72964 -0.09636
 H871 H 0.85133 0.81987 -0.16557
 H872 H 0.93901 0.85011 -0.14767
 H873 H 1.00020 0.79387 -0.10358
 H874 H 0.97255 0.70780 -0.07610
 H875 H 0.75489 0.65369 -0.13922
 H876 H 0.80722 0.60853 -0.08440
 C877 C 0.35628 1.24158 0.37291
 C878 C 0.31471 1.21570 0.34723
 C879 C 0.30316 1.16291 0.35886
 C880 C 0.33362 1.13485 0.38972
 C881 C 0.38014 1.15612 0.40938
 C882 C 0.39024 1.21128 0.40285
 C883 C 0.36458 1.29690 0.37080
 C884 C 0.40634 1.32171 0.39354
 C885 C 0.44088 1.29199 0.41988
 C886 C 0.43279 1.23753 0.42502
 H887 H 0.33773 1.32214 0.35358
 H888 H 0.41150 1.36442 0.39107
 H889 H 0.47347 1.31143 0.43737
 H890 H 0.46037 1.21740 0.44686
 H891 H 0.27131 1.14121 0.34251
 H892 H 0.32165 1.09403 0.39587
 C893 C 1.21726 0.68973 0.11534
 C894 C 1.19404 0.71528 0.15311
 C895 C 1.13789 0.71967 0.15243
 C896 C 1.10645 0.69366 0.11993
 C897 C 1.12922 0.65944 0.08824
 C898 C 1.18550 0.65694 0.08626
 C899 C 1.27086 0.69679 0.10456
 C900 C 1.29561 0.66292 0.07402
 C901 C 1.26653 0.62282 0.05303
 C902 C 1.21160 0.62201 0.05648
 H903 H 1.29361 0.72883 0.11921
 H904 H 1.33751 0.66705 0.06756
 H905 H 1.28627 0.59322 0.03306
 H906 H 1.19018 0.59384 0.03590
 H907 H 1.11725 0.74206 0.17828
 H908 H 1.06376 0.69617 0.12260
 C909 C 0.71605 1.15268 0.62424
 C910 C 0.70060 1.19434 0.65479
 C911 C 0.64908 1.21569 0.64691
 C912 C 0.61431 1.19476 0.61377
 C913 C 0.63125 1.15552 0.58355
 C914 C 0.68472 1.14014 0.58528
 C915 C 0.76106 1.12167 0.63137
 C916 C 0.78108 1.08828 0.59768
 C917 C 0.75372 1.08169 0.55701
 C918 C 0.70547 1.10692 0.55090
 H919 H 0.78053 1.12354 0.66304
 H920 H 0.81806 1.06794 0.60298
 H921 H 0.76864 1.05533 0.53098
 H922 H 0.68347 1.09919 0.51980
 H923 H 0.63306 1.24614 0.66881
 H924 H 0.57327 1.20710 0.61359
 C925 C 0.86285 0.25454 0.14055
 C926 C 0.81683 0.28082 0.15863
 C927 C 0.80586 0.33138 0.14100
 C928 C 0.83876 0.35697 0.11061
 C929 C 0.88818 0.33635 0.09837
 C930 C 0.90002 0.28367 0.11241
 C931 C 0.87301 0.20016 0.14854
 C932 C 0.91994 0.17663 0.13410
 C933 C 0.95759 0.20628 0.11064
 C934 C 0.94771 0.25919 0.09948
 H935 H 0.84418 0.17421 0.16371
 H936 H 0.92700 0.13490 0.14091
 H937 H 0.99412 0.18775 0.10000
 H938 H 0.97752 0.28021 0.08027
 H939 H 0.77141 0.35284 0.15104
 H940 H 0.82626 0.39580 0.09880
 C941 C 0.29923 0.84459 0.64297
 C942 C 0.31208 0.79499 0.66513
 C943 C 0.36124 0.77169 0.65284
 C944 C 0.39501 0.79473 0.62006
 C945 C 0.37877 0.83918 0.59506
 C946 C 0.32723 0.85900 0.60305
 C947 C 0.26094 0.88200 0.65837
 C948 C 0.24472 0.92465 0.63142
 C949 C 0.26479 0.93048 0.58800
 C950 C 0.30535 0.89750 0.57376
 H951 H 0.24170 0.88042 0.69049
 H952 H 0.21444 0.95156 0.64344
 H953 H 0.24993 0.96116 0.56561
 H954 H 0.32172 0.90397 0.54060
 H955 H 0.37606 0.73755 0.67124
 H956 H 0.43460 0.77918 0.61575
 C957 C 0.26599 1.15015 -0.13334
 C958 C 0.29294 1.18800 -0.16199
 C959 C 0.34763 1.19368 -0.15420
 C960 C 0.37479 1.16531 -0.12143
 C961 C 0.35132 1.12441 -0.09569
 C962 C 0.29543 1.11715 -0.10130
 C963 C 0.21058 1.14374 -0.13543
 C964 C 0.18466 1.10525 -0.10960
 C965 C 0.21308 1.07217 -0.08072
 C966 C 0.26768 1.07800 -0.07636
 H967 H 0.18605 1.16886 -0.15591
 H968 H 0.14206 1.10112 -0.11198
 H969 H 0.19255 1.04212 -0.06103
 H970 H 0.28694 1.05146 -0.05295
 H971 H 0.37182 1.21998 -0.17443
 H972 H 0.41656 1.17467 -0.11835
 C973 C 0.75967 0.66240 0.37366
 C974 C 0.78794 0.70435 0.35042
 C975 C 0.83941 0.71532 0.36516
 C976 C 0.86440 0.68336 0.39685
 C977 C 0.84223 0.63485 0.41169
 C978 C 0.78820 0.62488 0.40135
 C979 C 0.70402 0.65676 0.37116
 C980 C 0.67833 0.61249 0.38926
 C981 C 0.70712 0.57306 0.41110
 C982 C 0.76141 0.57920 0.41758
 H983 H 0.67907 0.68697 0.35690
 H984 H 0.63575 0.60871 0.38617
 H985 H 0.68704 0.53821 0.42431
 H986 H 0.78105 0.54788 0.43588
 H987 H 0.86175 0.74811 0.35109
 H988 H 0.90388 0.69502 0.40713
 C989 C 0.71229 1.18832 0.11495
 C990 C 0.71978 1.17317 0.16198
 C991 C 0.71065 1.11898 0.17275
 C992 C 0.68926 1.08315 0.14126
 C993 C 0.67878 1.09855 0.09655
 C994 C 0.69420 1.14979 0.08231
 C995 C 0.71930 1.24076 0.09897
 C996 C 0.71346 1.25420 0.05320
 C997 C 0.69900 1.21576 0.02163
 C998 C 0.68864 1.16411 0.03602
 H999 H 0.72769 1.27276 0.12106
 H1000 H 0.71979 1.29491 0.04231
 H1001 H 0.69478 1.22629 -0.01392
 H1002 H 0.67658 1.13522 0.01064
 H1003 H 0.71633 1.10405 0.20691
 H1004 H 0.67710 1.04404 0.15290
 C1005 C 1.23815 0.64688 0.63402
 C1006 C 1.21094 0.66836 0.67301
 C1007 C 1.16070 0.64655 0.68201
 C1008 C 1.13579 0.61217 0.65236
 C1009 C 1.15655 0.60062 0.60934
 C1010 C 1.20927 0.61667 0.60023
 C1011 C 1.29243 0.65615 0.62646
 C1012 C 1.31653 0.64133 0.58584
 C1013 C 1.28727 0.61634 0.55177
 C1014 C 1.23417 0.60385 0.55877
 H1015 H 1.31698 0.67446 0.65164
 H1016 H 1.35815 0.64970 0.58064
 H1017 H 1.30608 0.60566 0.52003
 H1018 H 1.21361 0.58357 0.53157
 H1019 H 1.13867 0.65566 0.71241
 H1020 H 1.09718 0.59742 0.66241
 C1021 C 0.66222 0.85844 -0.18401
 C1022 C 0.69426 0.81288 -0.17173
 C1023 C 0.70628 0.80585 -0.12516
 C1024 C 0.68675 0.84070 -0.09189
 C1025 C 0.65949 0.88688 -0.10443
 C1026 C 0.65206 0.89823 -0.15091
 C1027 C 0.63754 0.86580 -0.22722
 C1028 C 0.61506 0.91420 -0.23983
 C1029 C 0.61310 0.95575 -0.20892
 C1030 C 0.62984 0.94743 -0.16444
 H1031 H 0.63271 0.83458 -0.25170
 H1032 H 0.59830 0.91910 -0.27356
 H1033 H 0.59567 0.99340 -0.21861
 H1034 H 0.62382 0.97928 -0.14022
 H1035 H 0.72898 0.77186 -0.11401
 H1036 H 0.69151 0.83073 -0.05623
 C1037 C 1.23569 0.37791 0.35360
 C1038 C 1.21296 0.33068 0.33330
 C1039 C 1.15967 0.32025 0.34269
 C1040 C 1.13268 0.34700 0.37580
 C1041 C 1.15476 0.39028 0.39943
 C1042 C 1.20789 0.40510 0.38951
 C1043 C 1.28262 0.40210 0.33730
 C1044 C 1.30584 0.44528 0.35954
 C1045 C 1.28203 0.46710 0.39761
 C1046 C 1.23324 0.44793 0.41217
 H1047 H 1.30182 0.38982 0.30667
 H1048 H 1.34241 0.46219 0.34685
 H1049 H 1.30049 0.50045 0.41494
 H1050 H 1.21615 0.46788 0.44091
 H1051 H 1.13783 0.28890 0.32563
 H1052 H 1.09263 0.33331 0.38205
 C1053 C 0.27028 0.83697 0.12217
 C1054 C 0.28731 0.83300 0.16854
 C1055 C 0.32635 0.86999 0.18240
 C1056 C 0.35380 0.90129 0.15116
 C1057 C 0.34474 0.89657 0.10421
 C1058 C 0.30301 0.86321 0.08929
 C1059 C 0.22090 0.81810 0.10728
 C1060 C 0.21040 0.81108 0.06099
 C1061 C 0.24803 0.82616 0.02895
 C1062 C 0.29302 0.85451 0.04269
 H1063 H 0.18972 0.81067 0.13121
 H1064 H 0.17326 0.79351 0.05005
 H1065 H 0.24109 0.81792 -0.00669
 H1066 H 0.31975 0.86937 0.01695
 H1067 H 0.33819 0.87328 0.21775
 H1068 H 0.38527 0.92693 0.16372
 C1069 C 0.80685 0.29444 0.61320
 C1070 C 0.78914 0.31263 0.65698
 C1071 C 0.78982 0.36861 0.66349
 C1072 C 0.81148 0.40397 0.63127
 C1073 C 0.83250 0.38568 0.59011
 C1074 C 0.82818 0.33079 0.58027
 C1075 C 0.80794 0.24033 0.60214
 C1076 C 0.82861 0.22122 0.56177
 C1077 C 0.84910 0.25625 0.53038
 C1078 C 0.84858 0.31072 0.53893
 H1079 H 0.79644 0.21182 0.62582
 H1080 H 0.83004 0.17886 0.55540
 H1081 H 0.86626 0.24029 0.50000
 H1082 H 0.86502 0.33697 0.51340
 H1083 H 0.77645 0.38584 0.69513
 H1084 H 0.81551 0.44565 0.64024
 C1085 C 1.20141 1.15680 0.63644
 C1086 C 1.18294 1.17712 0.67873
 C1087 C 1.13659 1.15341 0.69682
 C1088 C 1.11031 1.11161 0.67409
 C1089 C 1.13288 1.08813 0.63551
 C1090 C 1.18296 1.10681 0.62094
 C1091 C 1.23375 1.18593 0.60645
 C1092 C 1.25692 1.16171 0.56866
 C1093 C 1.24847 1.10785 0.56045
 C1094 C 1.21133 1.08037 0.58636
 H1095 H 1.24095 1.22764 0.61153
 H1096 H 1.28215 1.18453 0.54622
 H1097 H 1.26803 1.08833 0.53234
 H1098 H 1.20174 1.03974 0.57725
 H1099 H 1.11936 1.16833 0.72797
 H1100 H 1.07168 1.09887 0.68579
 C1101 C 0.67866 0.60951 0.21210
 C1102 C 0.70734 0.65412 0.19365
 C1103 C 0.71571 0.65482 0.14679
 C1104 C 0.68658 0.62227 0.11827
 C1105 C 0.64679 0.58807 0.13510
 C1106 C 0.64539 0.57834 0.18268
 C1107 C 0.68444 0.59242 0.25779
 C1108 C 0.65382 0.55117 0.27541
 C1109 C 0.61823 0.52418 0.24768
 C1110 C 0.61469 0.53669 0.20165
 H1111 H 0.71518 0.60721 0.27981
 H1112 H 0.65891 0.53900 0.31051
 H1113 H 0.59509 0.49157 0.26138
 H1114 H 0.58971 0.51108 0.18160
 H1115 H 0.73995 0.68509 0.13098
 H1116 H 0.69218 0.62857 0.08213
 C1117 C 1.10657 0.78861 0.32252
 C1118 C 1.15247 0.81147 0.30152
 C1119 C 1.15446 0.86802 0.29871
 C1120 C 1.11893 0.90042 0.32176
 C1121 C 1.07920 0.87810 0.34821
 C1122 C 1.07038 0.82248 0.34614
 C1123 C 1.09484 0.73354 0.32116
 C1124 C 1.05041 0.71263 0.34255
 C1125 C 1.01594 0.74572 0.36565
 C1126 C 1.02567 0.80009 0.36760
 H1127 H 1.11843 0.70520 0.30344
 H1128 H 1.04271 0.67039 0.34078
 H1129 H 0.98126 0.72934 0.38176
 H1130 H 0.99722 0.82463 0.38516
 H1131 H 1.18616 0.88850 0.28133
 H1132 H 1.12595 0.94302 0.32258
 C1133 C 0.61684 0.28859 -0.18232
 C1134 C 0.67224 0.30112 -0.18903
 C1135 C 0.69109 0.34858 -0.16884
 C1136 C 0.65905 0.38187 -0.14318
 C1137 C 0.60528 0.37154 -0.13775
 C1138 C 0.58359 0.32502 -0.15760
 C1139 C 0.59319 0.24037 -0.19720
 C1140 C 0.53938 0.22999 -0.19098
 C1141 C 0.50750 0.26651 -0.16881
 C1142 C 0.52940 0.31325 -0.15167
 H1143 H 0.61503 0.20853 -0.21192
 H1144 H 0.52244 0.19281 -0.20290
 H1145 H 0.46583 0.25811 -0.16402
 H1146 H 0.50360 0.34011 -0.13353
 H1147 H 0.73169 0.36088 -0.17229
 H1148 H 0.67706 0.41594 -0.12645
 C1149 C 0.85041 1.20976 0.35868
 C1150 C 0.82259 1.18715 0.32136
 C1151 C 0.83592 1.13457 0.30850
 C1152 C 0.87521 1.10647 0.33138
 C1153 C 0.90526 1.13148 0.36522
 C1154 C 0.89712 1.18555 0.37468
 C1155 C 0.83017 1.25118 0.38496
 C1156 C 0.86185 1.27754 0.41679
 C1157 C 0.91346 1.26071 0.42455
 C1158 C 0.93084 1.21390 0.40452
 H1159 H 0.78859 1.25946 0.38391
 H1160 H 0.84563 1.30905 0.43725
 H1161 H 0.93741 1.28004 0.45023
 H1162 H 0.96909 1.19826 0.41436
 H1163 H 0.81510 1.11412 0.28132
 H1164 H 0.88059 1.06459 0.32390
 C1165 C 0.33804 0.62093 -0.19711
 C1166 C 0.33285 0.67801 -0.18948
 C1167 C 0.37205 0.70294 -0.16290
 C1168 C 0.40998 0.67405 -0.13947
 C1169 C 0.41021 0.61850 -0.14076
 C1170 C 0.37416 0.59134 -0.16954
 C1171 C 0.31032 0.59132 -0.23132
 C1172 C 0.31173 0.53619 -0.23346
 C1173 C 0.34231 0.50806 -0.20312
 C1174 C 0.37294 0.53506 -0.17127
 H1175 H 0.28945 0.60783 -0.25946
 H1176 H 0.28893 0.51524 -0.25910
 H1177 H 0.34279 0.46511 -0.20491
 H1178 H 0.39547 0.51096 -0.14843
 H1179 H 0.37247 0.74534 -0.15825
 H1180 H 0.43743 0.69533 -0.11749
 C1181 C 0.82127 0.88716 0.69660
 C1182 C 0.82898 0.83060 0.69668
 C1183 C 0.87410 0.81027 0.67485
 C1184 C 0.90329 0.84165 0.64538
 C1185 C 0.88912 0.89441 0.63802
 C1186 C 0.84929 0.91822 0.66430
 C1187 C 0.78695 0.91439 0.72681
 C1188 C 0.77512 0.96785 0.72087
 C1189 C 0.79960 0.99660 0.68680
 C1190 C 0.83698 0.97248 0.65909
 H1191 H 0.77057 0.89698 0.75686
 H1192 H 0.74752 0.98732 0.74345
 H1193 H 0.79089 1.03814 0.68325
 H1194 H 0.85701 0.99664 0.63419
 H1195 H 0.88453 0.76862 0.67741
 H1196 H 0.93527 0.82381 0.62626
 C1197 C 0.38354 0.35379 0.21219
 C1198 C 0.34604 0.31688 0.19283
 C1199 C 0.34393 0.31248 0.14566
 C1200 C 0.36916 0.34944 0.11863
 C1201 C 0.39522 0.39435 0.13731
 C1202 C 0.40294 0.39658 0.18502
 C1203 C 0.40459 0.34850 0.25666
 C1204 C 0.43461 0.38907 0.27647
 C1205 C 0.44530 0.43525 0.25215
 C1206 C 0.43003 0.43906 0.20664
 H1207 H 0.40076 0.31212 0.27578
 H1208 H 0.44957 0.38467 0.31084
 H1209 H 0.46715 0.46747 0.26808
 H1210 H 0.43960 0.47562 0.18929
 H1211 H 0.31868 0.28349 0.12899
 H1212 H 0.36475 0.34400 0.08229
   
