data_POSCAR
  _audit_creation_date              2014-09-24
  _audit_creation_method            'ToBaCCo'
  _symmetry_space_group_name_H-M    'P1'
  _symmetry_Int_Tables_number       1
  _symmetry_cell_setting            triclinic
  loop_
  _symmetry_equiv_pos_as_xyz
 x,y,z
_cell_length_a 18.6581
_cell_length_b 18.6285
_cell_length_c 47.3334
_cell_angle_alpha 90.562700
_cell_angle_beta 89.698800
_cell_angle_gamma 120.123400
loop_
  _atom_site_label
  _atom_site_type_symbol
  _atom_site_fract_x
  _atom_site_fract_y
  _atom_site_fract_z
C1 C -0.04076 0.04472 0.51999
 C2 C -0.11264 -0.01505 0.50064
 C3 C -0.09319 -0.06356 0.48399
 C4 C -0.00464 -0.04756 0.48810
 C5 C -0.01800 -0.01083 0.53661
 C6 C -0.00021 -0.06001 0.52004
 C7 C 0.03224 0.09424 0.50028
 C8 C 0.05116 0.04656 0.48350
 H9 H -0.17381 -0.02153 0.50115
 H10 H 0.01166 -0.08635 0.47455
 H11 H -0.02636 -0.01884 0.55935
 H12 H 0.06256 0.16133 0.49825
 C13 C 0.94852 -0.08900 0.18745
 C14 C 1.00973 -0.10030 0.16850
 C15 C 1.05750 -0.03233 0.15203
 C16 C 1.03933 0.03919 0.15607
 C17 C 0.99893 -0.01353 0.20348
 C18 C 1.04979 0.05677 0.18635
 C19 C 0.89815 -0.06854 0.16714
 C20 C 0.94523 -0.00174 0.15062
 H21 H 1.01717 -0.15447 0.16901
 H22 H 1.07740 0.09423 0.14264
 H23 H 1.00814 -0.01325 0.22618
 H24 H 0.83124 -0.10639 0.16491
 C25 C 0.09391 1.04763 0.85411
 C26 C 0.10636 1.11894 0.83474
 C27 C 0.03861 1.09863 0.81816
 C28 C -0.03406 1.00989 0.82235
 C29 C 0.01520 1.02491 0.87081
 C30 C -0.05155 1.00626 0.85429
 C31 C 0.07080 0.97403 0.83442
 C32 C 0.00442 0.95426 0.81772
 H33 H 0.16104 1.18040 0.83521
 H34 H -0.08896 0.99289 0.80885
 H35 H 0.01512 1.03390 0.89354
 H36 H 0.10752 0.94374 0.83242
 O37 O 0.42196 -0.02505 -0.02445
 O38 O 0.56899 -0.03429 0.02544
 O39 O 0.42334 -0.04565 0.03003
 O40 O 0.55268 -0.03859 -0.02897
 O41 O 0.62451 0.09813 -0.02652
 O42 O 0.48919 0.09098 0.03264
 O43 O 0.63579 0.10226 0.02866
 O44 O 0.49285 0.11164 -0.02169
 Cu45 Cu 0.48474 -0.04923 0.00045
 Cu46 Cu 0.56766 0.11417 0.00372
 C47 C 0.43332 0.04551 -0.03186
 C48 C 0.62852 0.03319 0.03529
 C49 C 0.43197 0.02035 0.04111
 C50 C 0.61043 0.03002 -0.03802
 O51 O -0.08425 0.40307 0.69864
 O52 O -0.09180 0.52899 0.63946
 O53 O -0.10474 0.38405 0.64428
 O54 O -0.09656 0.53788 0.69467
 O55 O 0.03978 0.60854 0.69194
 O56 O 0.03176 0.45069 0.64197
 O57 O 0.04473 0.59483 0.63752
 O58 O 0.05215 0.47481 0.69651
 Cu59 Cu -0.10773 0.45712 0.66967
 Cu60 Cu 0.05540 0.53865 0.66696
 C61 C -0.01366 0.41729 0.70734
 C62 C -0.02383 0.58303 0.62819
 C63 C -0.03854 0.39077 0.63432
 C64 C -0.02784 0.60033 0.70158
 O65 O 0.59554 0.50555 0.36360
 O66 O 0.46640 0.37152 0.30421
 O67 O 0.61168 0.50384 0.30911
 O68 O 0.46027 0.35820 0.35936
 O69 O 0.39012 0.42436 0.35776
 O70 O 0.54573 0.57435 0.30806
 O71 O 0.40132 0.44289 0.30339
 O72 O 0.52417 0.57054 0.36267
 Cu73 Cu 0.53980 0.42771 0.33436
 Cu74 Cu 0.45891 0.50989 0.33304
 C75 C 0.58203 0.56218 0.37295
 C76 C 0.41218 0.38572 0.29347
 C77 C 0.60500 0.56378 0.29986
 C78 C 0.39850 0.36478 0.36682
 C79 C -0.05484 0.20973 0.57400
 C80 C 0.02265 0.27614 0.58187
 C81 C 0.02821 0.33514 0.60153
 C82 C -0.05557 0.09938 0.53849
 C83 C -0.12161 0.26146 0.60545
 C84 C -0.12698 0.20245 0.58580
 C85 C -0.05882 0.14837 0.55445
 C86 C -0.04388 0.32837 0.61358
 H87 H 0.07892 0.28205 0.57292
 H88 H 0.08885 0.38588 0.60729
 H89 H -0.17834 0.25451 0.61433
 H90 H -0.18720 0.15110 0.57993
 C91 C 0.78483 0.73052 0.24052
 C92 C 0.79180 0.66479 0.25136
 C93 C 0.73311 0.61041 0.27066
 C94 C 0.89441 0.84124 0.20564
 C95 C 0.66031 0.68748 0.26826
 C96 C 0.71900 0.74167 0.24896
 C97 C 0.84580 0.78857 0.22132
 C98 C 0.66681 0.62133 0.27937
 H99 H 0.84269 0.65585 0.24504
 H100 H 0.73985 0.56002 0.27882
 H101 H 0.61006 0.69750 0.27450
 H102 H 0.71330 0.79266 0.24073
 C103 C 0.27148 0.06264 -0.09205
 C104 C 0.25960 -0.01507 -0.08446
 C105 C 0.31212 -0.02087 -0.06486
 C106 C 0.16309 0.06320 -0.12745
 C107 C 0.38898 0.12916 -0.06041
 C108 C 0.33625 0.13477 -0.08002
 C109 C 0.21489 0.06672 -0.11153
 C110 C 0.37732 0.05120 -0.05257
 H111 H 0.20932 -0.07134 -0.09360
 H112 H 0.30158 -0.08169 -0.05933
 H113 H 0.43868 0.18588 -0.05134
 H114 H 0.34571 0.19516 -0.08565
 C115 C -0.01498 0.74453 0.56260
 C116 C 0.05614 0.74189 0.56980
 C117 C 0.05225 0.68716 0.59047
 C118 C -0.00271 0.86830 0.53224
 C119 C -0.09495 0.63489 0.59618
 C120 C -0.09083 0.69003 0.57547
 C121 C -0.00794 0.81017 0.54495
 C122 C -0.02292 0.63436 0.60436
 H123 H 0.11527 0.78431 0.56021
 H124 H 0.10881 0.68795 0.59612
 H125 H -0.15362 0.59503 0.60646
 H126 H -0.14613 0.69232 0.57027
 C127 C 0.24610 0.23238 0.22805
 C128 C 0.29994 0.20995 0.24054
 C129 C 0.35668 0.26122 0.26115
 C130 C 0.11925 0.12120 0.19803
 C131 C 0.30736 0.35855 0.25607
 C132 C 0.25106 0.30747 0.23549
 C133 C 0.17882 0.17379 0.21060
 C134 C 0.35947 0.33510 0.26962
 H135 H 0.29587 0.15135 0.23515
 H136 H 0.39595 0.24155 0.27118
 H137 H 0.30831 0.41535 0.26194
 H138 H 0.20920 0.32506 0.22620
 C139 C 0.76615 0.02087 -0.10325
 C140 C 0.78730 0.09686 -0.09020
 C141 C 0.73530 0.10108 -0.06963
 C142 C 0.87885 0.00860 -0.13348
 C143 C 0.63980 -0.04629 -0.07582
 C144 C 0.69164 -0.05028 -0.09636
 C145 C 0.82547 0.01377 -0.12080
 C146 C 0.66192 0.02902 -0.06175
 H147 H 0.84543 0.15219 -0.09517
 H148 H 0.75395 0.15986 -0.05920
 H149 H 0.58344 -0.10289 -0.07040
 H150 H 0.67506 -0.10951 -0.10609
 C151 C 0.24833 -0.00458 0.10159
 C152 C 0.25247 -0.07412 0.09264
 C153 C 0.31394 -0.06528 0.07370
 C154 C 0.12474 -0.02406 0.13453
 C155 C 0.36939 0.08347 0.07301
 C156 C 0.30750 0.07439 0.09200
 C157 C 0.18143 -0.01512 0.11971
 C158 C 0.37248 0.01345 0.06332
 H159 H 0.20717 -0.13549 0.09991
 H160 H 0.31452 -0.12054 0.06675
 H161 H 0.41327 0.14478 0.06536
 H162 H 0.30486 0.12873 0.09879
 C163 C 0.74239 0.74575 0.43342
 C164 C 0.76250 0.68749 0.42282
 C165 C 0.70912 0.62550 0.40385
 C166 C 0.84738 0.86943 0.46640
 C167 C 0.61466 0.67898 0.40662
 C168 C 0.66786 0.74055 0.42554
 C169 C 0.79923 0.81276 0.45154
 C170 C 0.63515 0.62142 0.39520
 H171 H 0.82014 0.69095 0.42879
 H172 H 0.72681 0.58240 0.39537
 H173 H 0.55815 0.67761 0.40049
 H174 H 0.65153 0.78512 0.43361
 C175 C 0.01183 0.26058 0.76767
 C176 C 0.08111 0.33439 0.75898
 C177 C 0.07209 0.38641 0.74008
 C178 C 0.03114 0.15741 0.80060
 C179 C -0.07634 0.29222 0.73894
 C180 C -0.06708 0.24003 0.75788
 C181 C 0.02245 0.20482 0.78577
 C182 C -0.00658 0.36545 0.72950
 H183 H 0.14242 0.35103 0.76640
 H184 H 0.12716 0.44237 0.73333
 H185 H -0.13759 0.27419 0.73112
 H186 H -0.12123 0.18294 0.76447
 C187 C 0.80970 0.03020 0.09027
 C188 C 0.74587 -0.04408 0.07886
 C189 C 0.68680 -0.04334 0.06099
 C190 C 0.90666 0.01864 0.12823
 C191 C 0.75557 0.10640 0.06570
 C192 C 0.81452 0.10546 0.08361
 C193 C 0.86574 0.02732 0.11041
 C194 C 0.69070 0.03190 0.05432
 H195 H 0.74106 -0.10284 0.08410
 H196 H 0.63795 -0.10165 0.05253
 H197 H 0.76051 0.16545 0.06093
 H198 H 0.86308 0.16322 0.09254
 C199 C 0.21661 0.18207 0.42231
 C200 C 0.28696 0.17789 0.41471
 C201 C 0.34602 0.23724 0.39659
 C202 C 0.10963 0.08486 0.46079
 C203 C 0.26438 0.30506 0.39353
 C204 C 0.20540 0.24559 0.41159
 C205 C 0.15863 0.12579 0.44272
 C206 C 0.33567 0.30188 0.38594
 H207 H 0.29675 0.12958 0.42309
 H208 H 0.40014 0.23287 0.39112
 H209 H 0.25437 0.35371 0.38565
 H210 H 0.15152 0.24991 0.41756
 C211 C -0.02653 0.78540 0.75692
 C212 C 0.04790 0.79625 0.74572
 C213 C 0.04772 0.73620 0.72772
 C214 C -0.01584 0.89461 0.79518
 C215 C -0.10178 0.65417 0.73185
 C216 C -0.10140 0.71430 0.74990
 C217 C -0.02420 0.84461 0.77722
 C218 C -0.02711 0.66419 0.72070
 H219 H 0.10635 0.85071 0.75125
 H220 H 0.10614 0.74597 0.71944
 H221 H -0.16053 0.59953 0.72682
 H222 H -0.15926 0.70480 0.75866
   
