data_POSCAR
  _audit_creation_date              2014-09-24
  _audit_creation_method            'ToBaCCo'
  _symmetry_space_group_name_H-M    'P1'
  _symmetry_Int_Tables_number       1
  _symmetry_cell_setting            triclinic
  loop_
  _symmetry_equiv_pos_as_xyz
 x,y,z
_cell_length_a 41.8583
_cell_length_b 41.8558
_cell_length_c 41.8560
_cell_angle_alpha 89.819100
_cell_angle_beta 89.999900
_cell_angle_gamma 89.999800
loop_
  _atom_site_label
  _atom_site_type_symbol
  _atom_site_fract_x
  _atom_site_fract_y
  _atom_site_fract_z
N1 N 0.18301 0.18210 0.18212
 N2 N -0.18260 0.81646 0.18351
 N3 N -0.18259 0.18352 -0.18350
 N4 N 0.18304 0.81793 -0.18209
 N5 N 0.18387 1.18423 0.81578
 N6 N 0.81594 0.81630 0.81631
 N7 N 0.18387 0.81579 1.18424
 N8 N 0.81592 1.18370 1.18369
 N9 N 0.53420 1.05668 0.96554
 N10 N 0.55853 1.07635 0.96159
 N11 N 0.46698 1.03451 0.94335
 N12 N 0.44268 1.03853 0.92363
 N13 N 0.46696 1.05665 0.96551
 N14 N 0.44265 1.07636 0.96148
 N15 N 0.53422 1.03453 0.94339
 N16 N 0.55857 1.03851 0.92374
 C17 C 0.57345 1.06469 0.93542
 C18 C 0.42777 1.06473 0.93525
 N19 N 0.46708 0.94348 0.96567
 N20 N 0.44270 0.92387 0.96180
 N21 N 0.53433 0.96571 0.94347
 N22 N 0.55862 0.96173 0.92376
 N23 N 0.53432 0.94348 0.96569
 N24 N 0.55861 0.92376 0.96171
 N25 N 0.46709 0.96570 0.94346
 N26 N 0.44271 0.96184 0.92384
 Mn27 Mn 0.50066 1.00011 0.94303
 C28 C 0.42779 0.93565 0.93560
 C29 C 0.57350 0.93547 0.93546
 N30 N 0.46701 1.05652 1.03433
 N31 N 0.44262 1.07612 1.03819
 N32 N 0.53426 1.03434 1.05657
 N33 N 0.55855 1.03832 1.07629
 N34 N 0.53426 1.05656 1.03436
 N35 N 0.55854 1.07629 1.03834
 N36 N 0.46702 1.03430 1.05654
 N37 N 0.44264 1.03815 1.07615
 Mn38 Mn 0.50061 1.05699 0.99993
 C39 C 0.42771 1.06434 1.06438
 C40 C 0.57343 1.06459 1.06460
 N41 N 0.53422 0.94337 1.03450
 N42 N 0.55856 0.92372 1.03847
 N43 N 0.46696 0.96549 1.05664
 N44 N 0.44265 0.96145 1.07635
 N45 N 0.46698 0.94335 1.03449
 N46 N 0.44267 0.92362 1.03850
 N47 N 0.53420 0.96552 1.05666
 N48 N 0.55854 0.96156 1.07632
 Mn49 Mn 0.50065 0.94303 1.00009
 Mn50 Mn 0.50061 0.99991 1.05699
 Cl51 Cl 0.50063 1.00001 1.00001
 C52 C 0.57344 0.93539 1.06466
 C53 C 0.42777 0.93524 1.06472
 N54 N 0.03404 0.46604 0.05647
 N55 N 0.03798 0.44155 0.07601
 N56 N 0.05621 0.53344 0.03455
 N57 N 0.07590 0.55773 0.03862
 N58 N 0.03402 0.53329 0.05673
 N59 N 0.03801 0.55748 0.07651
 N60 N 0.05623 0.46621 0.03429
 N61 N 0.07588 0.44185 0.03811
 C62 C 0.06418 0.42675 0.06423
 C63 C 0.06423 0.57246 0.06489
 N64 N 0.03406 0.53400 -0.05645
 N65 N 0.03800 0.55849 -0.07599
 N66 N 0.05626 0.46661 -0.03451
 N67 N 0.07597 0.44232 -0.03856
 N68 N 0.03409 0.46674 -0.05671
 N69 N 0.03810 0.44255 -0.07648
 N70 N 0.05623 0.53384 -0.03425
 N71 N 0.07588 0.55821 -0.03806
 Mn72 Mn 0.05662 0.50003 0.00002
 C73 C 0.06419 0.57330 -0.06419
 C74 C 0.06433 0.42759 -0.06484
 N75 N -0.03479 0.53318 0.05670
 N76 N -0.03869 0.55741 0.07641
 N77 N -0.05695 0.46608 0.03427
 N78 N -0.07668 0.44176 0.03822
 N79 N -0.03477 0.46594 0.05646
 N80 N -0.03878 0.44154 0.07612
 N81 N -0.05697 0.53333 0.03451
 N82 N -0.07659 0.55768 0.03851
 Mn83 Mn -0.00037 0.49961 0.05698
 C84 C -0.06487 0.57241 0.06475
 C85 C -0.06502 0.42672 0.06442
 N86 N -0.03471 0.46680 -0.05673
 N87 N -0.03858 0.44256 -0.07645
 N88 N -0.05695 0.53389 -0.03432
 N89 N -0.07669 0.55819 -0.03828
 N90 N -0.03475 0.53404 -0.05649
 N91 N -0.03876 0.55845 -0.07615
 N92 N -0.05691 0.46663 -0.03456
 N93 N -0.07650 0.44226 -0.03857
 Mn94 Mn -0.00033 0.50040 -0.05698
 Mn95 Mn -0.05734 0.49998 -0.00003
 Cl96 Cl -0.00036 0.50000 -0.00000
 C97 C -0.06475 0.42754 -0.06480
 C98 C -0.06502 0.57325 -0.06447
 N99 N 0.96518 0.05647 0.46596
 N100 N 0.96116 0.07614 0.44156
 N101 N 0.94298 0.03450 0.53335
 N102 N 0.92335 0.03849 0.55769
 N103 N 0.96516 0.05669 0.53320
 N104 N 0.96125 0.07639 0.55744
 N105 N 0.94299 0.03428 0.46609
 N106 N 0.92327 0.03824 0.44177
 C107 C 0.93493 0.06444 0.42674
 C108 C 0.93508 0.06472 0.57243
 N109 N 0.96520 -0.05650 0.53402
 N110 N 0.96118 -0.07616 0.55843
 N111 N 0.94303 -0.03455 0.46662
 N112 N 0.92344 -0.03855 0.44225
 N113 N 0.96523 -0.05672 0.46678
 N114 N 0.96137 -0.07643 0.44254
 N115 N 0.94299 -0.03433 0.53387
 N116 N 0.92326 -0.03830 0.55818
 Mn117 Mn 0.94261 -0.00003 0.49998
 C118 C 0.93493 -0.06449 0.57323
 C119 C 0.93520 -0.06478 0.42752
 N120 N 1.03397 0.05672 0.53331
 N121 N 1.03796 0.07649 0.55751
 N122 N 1.05617 0.03430 0.46623
 N123 N 1.07584 0.03815 0.44187
 N124 N 1.03399 0.05648 0.46607
 N125 N 1.03793 0.07605 0.44159
 N126 N 1.05616 0.03453 0.53346
 N127 N 1.07585 0.03860 0.55775
 Mn128 Mn 0.99957 0.05698 0.49963
 C129 C 1.06418 0.06487 0.57248
 C130 C 1.06413 0.06428 0.42679
 N131 N 1.03404 -0.05670 0.46672
 N132 N 1.03805 -0.07646 0.44253
 N133 N 1.05618 -0.03426 0.53382
 N134 N 1.07583 -0.03809 0.55819
 N135 N 1.03401 -0.05646 0.53397
 N136 N 1.03795 -0.07602 0.55845
 N137 N 1.05621 -0.03449 0.46659
 N138 N 1.07592 -0.03854 0.44231
 Mn139 Mn 0.99962 -0.05698 0.50038
 Mn140 Mn 1.05656 0.00002 0.50003
 Cl141 Cl 0.99959 -0.00000 0.50000
 C142 C 1.06428 -0.06482 0.42757
 C143 C 1.06414 -0.06424 0.57326
 N144 N 1.13905 0.17368 0.25725
 C145 C 1.14274 0.14215 0.26366
 N146 N 1.15969 0.12378 0.24314
 N147 N 1.17258 0.13658 0.21696
 C148 C 1.16898 0.16820 0.21040
 N149 N 1.15194 0.18648 0.23108
 C150 C 1.12897 0.12842 0.29189
 C151 C 1.11742 0.11698 0.31567
 C152 C 1.10372 0.10343 0.34403
 N153 N 1.11696 0.07723 0.35779
 N154 N 1.10431 0.06472 0.38422
 C155 C 1.07802 0.07803 0.39774
 N156 N 1.06481 0.10426 0.38390
 N157 N 1.07746 0.11676 0.35747
 N158 N 0.84065 -0.12516 0.24412
 C159 C 0.85758 -0.14349 0.26480
 N160 N 0.86133 -0.17502 0.25860
 N161 N 0.84851 -0.18786 0.23249
 C162 C 0.83147 -0.16961 0.21166
 N163 N 0.82782 -0.13799 0.21801
 C164 C 0.87121 -0.12972 0.29300
 C165 C 0.88259 -0.11817 0.31673
 C166 C 0.89609 -0.10447 0.34503
 N167 N 0.92230 -0.11767 0.35877
 N168 N 0.93478 -0.10499 0.38512
 C169 C 0.92145 -0.07871 0.39858
 N170 N 0.89521 -0.06553 0.38477
 N171 N 0.88273 -0.07821 0.35841
 N172 N 0.82568 0.13964 0.74147
 C173 C 0.85718 0.14339 0.73505
 N174 N 0.87558 0.16036 0.75553
 N175 N 0.86283 0.17322 0.78167
 C176 C 0.83124 0.16955 0.78825
 N177 N 0.81293 0.15249 0.76760
 C178 C 0.87086 0.12963 0.70687
 C179 C 0.88229 0.11809 0.68314
 C180 C 0.89583 0.10439 0.65487
 N181 N 0.92205 0.11762 0.64116
 N182 N 0.93458 0.10495 0.61483
 C183 C 0.92128 0.07865 0.60136
 N184 N 0.89504 0.06545 0.61513
 N185 N 0.88251 0.07812 0.64147
 N186 N 1.15972 -0.12374 0.75690
 C187 C 1.14276 -0.14210 0.73638
 N188 N 1.13906 -0.17364 0.74280
 N189 N 1.15196 -0.18644 0.76896
 C190 C 1.16901 -0.16817 0.78964
 N191 N 1.17262 -0.13655 0.78307
 C192 C 1.12898 -0.12838 0.70815
 C193 C 1.11743 -0.11693 0.68438
 C194 C 1.10373 -0.10338 0.65603
 N195 N 1.07749 -0.11673 0.64257
 N196 N 1.06483 -0.10423 0.61614
 C197 C 1.07803 -0.07799 0.60232
 N198 N 1.10430 -0.06466 0.61584
 N199 N 1.11695 -0.07717 0.64227
 N200 N 0.25815 1.13821 1.17382
 C201 C 0.26454 1.14206 1.14230
 N202 N 0.24397 1.15905 1.12391
 N203 N 0.21779 1.17185 1.13667
 C204 C 0.21125 1.16811 1.16827
 N205 N 0.23198 1.15101 1.18658
 C206 C 0.29280 1.12843 1.12862
 C207 C 0.31660 1.11702 1.11718
 C208 C 0.34496 1.10350 1.10362
 N209 N 0.35855 1.11686 1.07738
 N210 N 0.38499 1.10435 1.06485
 C211 C 0.39867 1.07810 1.07816
 N212 N 0.38501 1.06476 1.10442
 N213 N 0.35858 1.07727 1.11695
 N214 N 0.24404 0.84096 0.87610
 C215 C 0.26460 0.85795 0.85770
 N216 N 0.25821 0.86179 0.82619
 N217 N 0.23202 0.84900 0.81343
 C218 C 0.21130 0.83191 0.83175
 N219 N 0.21785 0.82817 0.86335
 C220 C 0.29287 0.87156 0.87137
 C221 C 0.31667 0.88296 0.88281
 C222 C 0.34505 0.89648 0.89636
 N223 N 0.35867 0.92271 0.88303
 N224 N 0.38510 0.93522 0.89556
 C225 C 0.39876 0.92188 0.92182
 N226 N 0.38507 0.89563 0.93513
 N227 N 0.35864 0.88313 0.92260
 N228 N 0.74235 0.86050 1.17486
 C229 C 0.73611 0.85688 1.14331
 N230 N 0.75674 0.83998 1.12501
 N231 N 0.78284 0.82706 1.13789
 C232 C 0.78923 0.83057 1.16953
 N233 N 0.76844 0.84757 1.18774
 C234 C 0.70795 0.87065 1.12950
 C235 C 0.68423 0.88218 1.11794
 C236 C 0.65595 0.89585 1.10425
 N237 N 0.64241 0.88262 1.07801
 N238 N 0.61605 0.89526 1.06536
 C239 C 0.60240 0.92151 1.07856
 N240 N 0.61602 0.93471 1.10482
 N241 N 0.64238 0.92208 1.11747
 N242 N 0.74236 1.17490 0.86055
 C243 C 0.73612 1.14335 0.85694
 N244 N 0.75675 1.12504 0.84004
 N245 N 0.78284 1.13791 0.82711
 C246 C 0.78924 1.16955 0.83062
 N247 N 0.76846 1.18778 0.84762
 C248 C 0.70796 1.12955 0.87072
 C249 C 0.68424 1.11799 0.88224
 C250 C 0.65596 1.10430 0.89591
 N251 N 0.64242 1.07806 0.88268
 N252 N 0.61606 1.06540 0.89530
 C253 C 0.60241 1.07859 0.92155
 N254 N 0.61602 1.10486 0.93476
 N255 N 0.64237 1.11751 0.92213
 N256 N 0.12451 0.24278 0.15869
 C257 C 0.14283 0.26349 0.14178
 N258 N 0.17438 0.25729 0.13810
 N259 N 0.18726 0.23114 0.15097
 C260 C 0.16903 0.21028 0.16798
 N261 N 0.13738 0.21663 0.17156
 C262 C 0.12902 0.29175 0.12814
 C263 C 0.11746 0.31555 0.11675
 C264 C 0.10376 0.34393 0.10326
 N265 N 0.11699 0.35773 0.07707
 N266 N 0.10434 0.38418 0.06461
 C267 C 0.07807 0.39768 0.07794
 N268 N 0.06485 0.38381 0.10415
 N269 N 0.07751 0.35735 0.11662
 N270 N -0.13863 0.25860 -0.17503
 C271 C -0.14238 0.26482 -0.14349
 N272 N -0.15931 0.24415 -0.12515
 N273 N -0.17215 0.21804 -0.13797
 C274 C -0.16851 0.21168 -0.16959
 N275 N -0.15147 0.23250 -0.18785
 C276 C -0.12874 0.29302 -0.12974
 C277 C -0.11735 0.31676 -0.11819
 C278 C -0.10386 0.34505 -0.10449
 N279 N -0.11721 0.35843 -0.07823
 N280 N -0.10473 0.38479 -0.06555
 C281 C -0.07850 0.39860 -0.07874
 N282 N -0.06516 0.38515 -0.10502
 N283 N -0.07765 0.35879 -0.11770
 N284 N 0.17441 0.74275 -0.13806
 C285 C 0.14285 0.73655 -0.14174
 N286 N 0.12453 0.75727 -0.15864
 N287 N 0.13741 0.78341 -0.17151
 C288 C 0.16906 0.78976 -0.16795
 N289 N 0.18729 0.76889 -0.15094
 C290 C 0.12904 0.70830 -0.12809
 C291 C 0.11747 0.68450 -0.11670
 C292 C 0.10377 0.65613 -0.10321
 N293 N 0.07753 0.64269 -0.11658
 N294 N 0.06487 0.61624 -0.10412
 C295 C 0.07807 0.60238 -0.07790
 N296 N 0.10433 0.61589 -0.06454
 N297 N 0.11699 0.64234 -0.07701
 N298 N -0.12441 0.75550 0.16038
 C299 C -0.14279 0.73501 0.14340
 N300 N -0.17430 0.74143 0.13964
 N301 N -0.18706 0.76756 0.15248
 C302 C -0.16876 0.78821 0.16955
 N303 N -0.13716 0.78164 0.17322
 C304 C -0.12910 0.70683 0.12966
 C305 C -0.11767 0.68311 0.11812
 C306 C -0.10412 0.65484 0.10442
 N307 N -0.11744 0.64144 0.07815
 N308 N -0.10491 0.61511 0.06548
 C309 C -0.07867 0.60133 0.07868
 N310 N -0.06537 0.61480 0.10498
 N311 N -0.07791 0.64113 0.11765
 N312 N 1.13955 0.17559 0.74084
 C313 C 1.14335 0.14407 0.73457
 N314 N 1.16052 0.12580 0.75513
 N315 N 1.17349 0.13866 0.78117
 C316 C 1.16977 0.17027 0.78760
 N317 N 1.15251 0.18846 0.76688
 C318 C 1.12946 0.13023 0.70646
 C319 C 1.11783 0.11863 0.68282
 C320 C 1.10404 0.10484 0.65463
 N321 N 1.11722 0.07849 0.64122
 N322 N 1.10449 0.06573 0.61501
 C323 C 1.07817 0.07891 0.60134
 N324 N 1.06501 0.10528 0.61481
 N325 N 1.07774 0.11804 0.64103
 N326 N 0.82512 -0.13712 0.74398
 C327 C 0.85575 -0.14364 0.73588
 N328 N 0.87308 -0.16352 0.75467
 N329 N 0.86017 -0.17648 0.78076
 C330 C 0.82936 -0.17017 0.78924
 N331 N 0.81224 -0.15010 0.77008
 C332 C 0.86961 -0.12974 0.70769
 C333 C 0.88122 -0.11811 0.68397
 C334 C 0.89502 -0.10432 0.65569
 N335 N 0.92137 -0.11748 0.64224
 N336 N 0.93411 -0.10476 0.61594
 C337 C 0.92091 -0.07846 0.60221
 N338 N 0.89454 -0.06531 0.61572
 N339 N 0.88180 -0.07803 0.64203
 N340 N 1.12529 -0.16096 0.24488
 C341 C 1.14352 -0.14389 0.26545
 N342 N 1.17506 -0.14010 0.25917
 N343 N 1.18799 -0.15299 0.23313
 C344 C 1.16984 -0.17015 0.21241
 N345 N 1.13821 -0.17385 0.21884
 C346 C 1.12962 -0.13008 0.29357
 C347 C 1.11798 -0.11850 0.31722
 C348 C 1.10418 -0.10472 0.34541
 N349 N 1.11734 -0.07838 0.35883
 N350 N 1.10460 -0.06564 0.38505
 C351 C 1.07828 -0.07884 0.39871
 N352 N 1.06514 -0.10521 0.38522
 N353 N 1.07789 -0.11794 0.35900
 N354 N 0.87308 0.16349 0.24531
 C355 C 0.85574 0.14362 0.26410
 N356 N 0.82511 0.13711 0.25601
 N357 N 0.81223 0.15010 0.22992
 C358 C 0.82935 0.17016 0.21075
 N359 N 0.86016 0.17646 0.21922
 C360 C 0.86961 0.12971 0.29229
 C361 C 0.88122 0.11808 0.31600
 C362 C 0.89502 0.10428 0.34428
 N363 N 0.88182 0.07798 0.35792
 N364 N 0.89456 0.06525 0.38422
 C365 C 0.92091 0.07841 0.39776
 N366 N 0.93410 0.10474 0.38405
 N367 N 0.92135 0.11746 0.35775
 N368 N 0.12530 0.24489 -0.16098
 C369 C 0.14353 0.26545 -0.14392
 N370 N 0.17508 0.25918 -0.14014
 N371 N 0.18800 0.23313 -0.15302
 C372 C 0.16985 0.21240 -0.17017
 N373 N 0.13822 0.21884 -0.17387
 C374 C 0.12964 0.29358 -0.13011
 C375 C 0.11800 0.31723 -0.11853
 C376 C 0.10421 0.34543 -0.10476
 N377 N 0.11737 0.35884 -0.07841
 N378 N 0.10464 0.38506 -0.06567
 C379 C 0.07833 0.39873 -0.07887
 N380 N 0.06518 0.38525 -0.10524
 N381 N 0.07792 0.35903 -0.11798
 N382 N -0.16394 0.24530 0.12636
 C383 C -0.14414 0.26408 0.14367
 N384 N -0.13765 0.25598 0.17433
 N385 N -0.15058 0.22989 0.18728
 C386 C -0.17058 0.21074 0.17019
 N387 N -0.17686 0.21922 0.13934
 C388 C -0.13030 0.29227 0.12973
 C389 C -0.11871 0.31598 0.11808
 C390 C -0.10492 0.34426 0.10427
 N391 N -0.07858 0.35773 0.11745
 N392 N -0.06584 0.38403 0.10472
 C393 C -0.07903 0.39774 0.07839
 N394 N -0.10539 0.38420 0.06523
 N395 N -0.11812 0.35789 0.07797
 N396 N -0.13766 0.74400 -0.17436
 C397 C -0.14414 0.73590 -0.14369
 N398 N -0.16393 0.75469 -0.12638
 N399 N -0.17684 0.78077 -0.13935
 C400 C -0.17057 0.78925 -0.17020
 N401 N -0.15058 0.77009 -0.18730
 C402 C -0.13031 0.70770 -0.12976
 C403 C -0.11871 0.68399 -0.11811
 C404 C -0.10492 0.65571 -0.10431
 N405 N -0.11814 0.64206 -0.07802
 N406 N -0.10540 0.61575 -0.06529
 C407 C -0.07903 0.60223 -0.07844
 N408 N -0.06583 0.61596 -0.10474
 N409 N -0.07857 0.64226 -0.11747
 N410 N 0.13955 0.74085 0.17562
 C411 C 0.14336 0.73457 0.14410
 N412 N 0.16053 0.75513 0.12582
 N413 N 0.17349 0.78117 0.13868
 C414 C 0.16977 0.78761 0.17029
 N415 N 0.15252 0.76689 0.18848
 C416 C 0.12947 0.70645 0.13026
 C417 C 0.11785 0.68281 0.11867
 C418 C 0.10407 0.65462 0.10487
 N419 N 0.11725 0.64121 0.07852
 N420 N 0.10453 0.61500 0.06576
 C421 C 0.07821 0.60132 0.07894
 N422 N 0.06505 0.61479 0.10531
 N423 N 0.07778 0.64101 0.11806
 N424 N 0.24473 1.16095 0.87426
 C425 C 0.26526 1.14382 0.85604
 N426 N 0.25889 1.14001 0.82453
 N427 N 0.23279 1.15293 0.81163
 C428 C 0.21210 1.17015 0.82977
 N429 N 0.21863 1.17387 0.86137
 C430 C 0.29345 1.12997 0.86991
 C431 C 0.31715 1.11837 0.88153
 C432 C 0.34541 1.10459 0.89533
 N433 N 0.35897 1.07832 0.88217
 N434 N 0.38525 1.06559 0.89491
 C435 C 0.39884 1.07873 0.92124
 N436 N 0.38520 1.10503 0.93438
 N437 N 0.35893 1.11775 0.92163
 N438 N 0.25889 0.82453 1.14002
 C439 C 0.26526 0.85604 1.14382
 N440 N 0.24474 0.87427 1.16094
 N441 N 0.21863 0.86138 1.17387
 C442 C 0.21210 0.82978 1.17016
 N443 N 0.23279 0.81163 1.15295
 C444 C 0.29345 0.86991 1.12997
 C445 C 0.31715 0.88153 1.11836
 C446 C 0.34541 0.89532 1.10458
 N447 N 0.35894 0.92161 1.11775
 N448 N 0.38522 0.93436 1.10502
 C449 C 0.39884 0.92122 1.07871
 N450 N 0.38524 0.89491 1.06557
 N451 N 0.35896 0.88217 1.07830
 N452 N 0.75448 1.12645 1.16357
 C453 C 0.73569 1.14381 1.14371
 N454 N 0.74372 1.17447 1.13718
 N455 N 0.76976 1.18738 1.15013
 C456 C 0.78892 1.17024 1.17018
 N457 N 0.78051 1.13939 1.17650
 C458 C 0.70756 1.12992 1.12986
 C459 C 0.68390 1.11829 1.11825
 C460 C 0.65568 1.10449 1.10446
 N461 N 0.64215 1.11771 1.07812
 N462 N 0.61591 1.10497 1.06539
 C463 C 0.60233 1.07859 1.07859
 N464 N 0.61593 1.06539 1.10496
 N465 N 0.64217 1.07813 1.11769
 N466 N 0.75453 0.87357 0.83645
 C467 C 0.73574 0.85622 0.85631
 N468 N 0.74376 0.82555 0.86284
 N469 N 0.76979 0.81263 0.84988
 C470 C 0.78895 0.82976 0.82982
 N471 N 0.78055 0.86061 0.82351
 C472 C 0.70761 0.87012 0.87018
 C473 C 0.68396 0.88176 0.88179
 C474 C 0.65575 0.89557 0.89559
 N475 N 0.64222 0.88234 0.92193
 N476 N 0.61598 0.89509 0.93467
 C477 C 0.60241 0.92147 0.92146
 N478 N 0.61601 0.93467 0.89510
 N479 N 0.64225 0.92192 0.88237
   
