data_POSCAR
  _audit_creation_date              2014-09-24
  _audit_creation_method            'ToBaCCo'
  _symmetry_space_group_name_H-M    'P1'
  _symmetry_Int_Tables_number       1
  _symmetry_cell_setting            triclinic
  loop_
  _symmetry_equiv_pos_as_xyz
 x,y,z
_cell_length_a 41.8075
_cell_length_b 42.9635
_cell_length_c 41.7906
_cell_angle_alpha 91.084400
_cell_angle_beta 90.716400
_cell_angle_gamma 89.803700
loop_
  _atom_site_label
  _atom_site_type_symbol
  _atom_site_fract_x
  _atom_site_fract_y
  _atom_site_fract_z
N1 N 0.17236 0.17608 0.22681
 N2 N 0.20034 0.16660 0.23760
 C3 C 0.19626 0.15055 0.26458
 C4 C 0.16380 0.14944 0.27069
 C5 C 0.14930 0.16576 0.24614
 H6 H 0.21533 0.13967 0.27811
 H7 H 0.12398 0.17000 0.24268
 Cu8 Cu 0.23889 0.17382 0.21359
 Cu9 Cu 0.16851 0.20097 0.18830
 Cu10 Cu 0.23992 0.23052 0.15994
 N11 N 0.27143 0.17508 0.18087
 N12 N 0.27307 0.19811 0.16066
 C13 C 0.29739 0.19258 0.14035
 C14 C 0.31095 0.16408 0.14784
 C15 C 0.29397 0.15379 0.17377
 H16 H 0.30321 0.20706 0.12035
 H17 H 0.29709 0.13197 0.18597
 N18 N 0.19793 0.24930 0.15018
 N19 N 0.17081 0.23669 0.15928
 C20 C 0.14624 0.25364 0.14787
 C21 C 0.15845 0.27819 0.13105
 C22 C 0.19133 0.27484 0.13301
 H23 H 0.12128 0.24906 0.15232
 H24 H 0.20908 0.28963 0.12247
 H25 H 0.21186 0.19340 0.16589
 H26 H 0.21084 0.22182 0.20011
 N27 N -0.18570 0.79956 0.28102
 N28 N -0.20608 0.82244 0.27628
 C29 C -0.20145 0.84473 0.29892
 C30 C -0.17661 0.83543 0.31868
 C31 C -0.16716 0.80664 0.30668
 H32 H -0.21387 0.86684 0.29990
 H33 H -0.14730 0.79263 0.31501
 Cu34 Cu -0.23331 0.82266 0.23834
 Cu35 Cu -0.18238 0.76437 0.25099
 Cu36 Cu -0.24957 0.75461 0.20173
 N37 N -0.26247 0.82013 0.20195
 N38 N -0.27049 0.79321 0.18873
 C39 C -0.29254 0.79804 0.16547
 C40 C -0.29769 0.82984 0.16354
 C41 C -0.27818 0.84308 0.18696
 H42 H -0.30301 0.77993 0.15039
 H43 H -0.27590 0.86760 0.19286
 N44 N -0.21636 0.72214 0.20738
 N45 N -0.19070 0.72599 0.22579
 C46 C -0.17087 0.70156 0.22140
 C47 C -0.18445 0.68162 0.19878
 C48 C -0.21331 0.69530 0.19050
 H49 H -0.14726 0.69952 0.23204
 H50 H -0.22971 0.68746 0.17184
 H51 H -0.20842 0.77892 0.21054
 H52 H -0.23020 0.76666 0.24689
 N53 N -0.19886 0.21282 -0.27689
 N54 N -0.22078 0.19103 -0.27546
 C55 C -0.21201 0.16660 -0.29409
 C56 C -0.18301 0.17353 -0.30782
 C57 C -0.17540 0.20306 -0.29647
 H58 H -0.22544 0.14524 -0.29701
 H59 H -0.15423 0.21634 -0.30177
 Cu60 Cu -0.25836 0.19633 -0.24879
 Cu61 Cu -0.20256 0.25202 -0.25297
 Cu62 Cu -0.24964 0.24557 -0.18590
 N63 N -0.28858 0.19711 -0.21375
 N64 N -0.28460 0.21599 -0.18890
 C65 C -0.30650 0.20955 -0.16668
 C66 C -0.32523 0.18528 -0.17824
 C67 C -0.31340 0.17810 -0.20833
 H68 H -0.30789 0.22087 -0.14339
 H69 H -0.32104 0.15931 -0.22422
 N70 N -0.21946 0.27997 -0.19175
 N71 N -0.20160 0.28265 -0.21737
 C72 C -0.18263 0.30778 -0.21354
 C73 C -0.18917 0.32160 -0.18418
 C74 C -0.21269 0.30350 -0.17113
 H75 H -0.16470 0.31485 -0.23034
 H76 H -0.22332 0.30671 -0.14783
 H77 H -0.21783 0.22469 -0.21784
 H78 H -0.24925 0.25116 -0.23430
 N79 N 0.17154 0.80357 -0.24978
 N80 N 0.19821 0.81946 -0.25210
 C81 C 0.19354 0.84300 -0.27246
 C82 C 0.16248 0.84131 -0.28399
 C83 C 0.14919 0.81596 -0.26929
 H84 H 0.21145 0.85988 -0.27870
 H85 H 0.12482 0.80784 -0.27181
 Cu86 Cu 0.23664 0.80729 -0.22900
 Cu87 Cu 0.16711 0.77002 -0.21930
 Cu88 Cu 0.23279 0.75549 -0.17008
 N89 N 0.27159 0.80219 -0.19862
 N90 N 0.26978 0.78228 -0.17522
 C91 C 0.29563 0.78557 -0.15592
 C92 C 0.31461 0.80877 -0.16801
 C93 C 0.29879 0.81864 -0.19528
 H94 H 0.29967 0.77293 -0.13408
 H95 H 0.30560 0.83758 -0.21044
 N96 N 0.19302 0.73115 -0.16868
 N97 N 0.16770 0.73729 -0.18674
 C98 C 0.14343 0.71888 -0.17802
 C99 C 0.15414 0.70013 -0.15363
 C100 C 0.18568 0.70832 -0.14840
 H101 H 0.11949 0.71948 -0.18810
 H102 H 0.20154 0.69930 -0.13013
 H103 H 0.20129 0.78820 -0.18816
 H104 H 0.21452 0.75655 -0.21630
 N105 N 0.20754 1.19879 0.73453
 N106 N 0.18375 1.21850 0.73856
 C107 C 0.16403 1.21689 0.71287
 C108 C 0.17634 1.19512 0.69152
 C109 C 0.20411 1.18432 0.70587
 H110 H 0.14159 1.22934 0.71070
 H111 H 0.21926 1.16555 0.69729
 Cu112 Cu 0.17958 1.24231 0.77824
 Cu113 Cu 0.23777 1.18984 0.76922
 Cu114 Cu 0.20260 1.20308 0.84305
 N115 N 0.17093 1.25813 0.82095
 N116 N 0.17842 1.24195 0.84639
 C117 C 0.16741 1.25696 0.87264
 C118 C 0.15305 1.28432 0.86298
 C119 C 0.15574 1.28436 0.83008
 H120 H 0.17016 1.24887 0.89688
 H121 H 0.14655 1.30177 0.81398
 N122 N 0.23893 1.17416 0.83643
 N123 N 0.25347 1.17074 0.80870
 C124 C 0.27878 1.15169 0.81227
 C125 C 0.28016 1.14253 0.84374
 C126 C 0.25457 1.15712 0.85844
 H127 H 0.29487 1.14486 0.79330
 H128 H 0.24841 1.15617 0.88346
 H129 H 0.19739 1.19090 0.79494
 H130 H 0.22645 1.22214 0.80640
 N131 N 0.84219 0.82423 0.74112
 N132 N 0.86011 0.79912 0.73871
 C133 C 0.88047 0.80235 0.71424
 C134 C 0.87431 0.83073 0.70036
 C135 C 0.84990 0.84398 0.71791
 H136 H 0.89827 0.78538 0.70702
 H137 H 0.83953 0.86686 0.71493
 Cu138 Cu 0.85482 0.76464 0.76767
 Cu139 Cu 0.81348 0.83117 0.77666
 Cu140 Cu 0.78792 0.76397 0.81246
 N141 N 0.83999 0.72711 0.78791
 N142 N 0.81360 0.72679 0.80471
 C143 C 0.81082 0.69888 0.81848
 C144 C 0.83678 0.68077 0.80979
 C145 C 0.85474 0.69932 0.79023
 H146 H 0.79263 0.69300 0.83550
 H147 H 0.87789 0.69376 0.78033
 N148 N 0.76612 0.80447 0.81797
 N149 N 0.77712 0.83038 0.80577
 C150 C 0.75943 0.85459 0.81637
 C151 C 0.73603 0.84331 0.83599
 C152 C 0.74078 0.81148 0.83640
 H153 H 0.76324 0.87863 0.81027
 H154 H 0.72748 0.79491 0.85009
 H155 H 0.82448 0.79474 0.80767
 H156 H 0.80074 0.78548 0.77056
 N157 N 0.20558 0.82193 1.26011
 N158 N 0.17968 0.80565 1.25361
 C159 C 0.15950 0.80831 1.27835
 C160 C 0.17357 0.82735 1.30150
 C161 C 0.20284 0.83552 1.28920
 H162 H 0.13566 0.79863 1.27872
 H163 H 0.21990 0.85175 1.29968
 Cu164 Cu 0.17298 0.78587 1.21191
 Cu165 Cu 0.23821 0.82807 1.22819
 Cu166 Cu 0.23968 0.76944 1.17012
 N167 N 0.17240 0.75778 1.17511
 N168 N 0.19862 0.74977 1.15991
 C169 C 0.19142 0.72746 1.13785
 C170 C 0.15886 0.72184 1.13907
 C171 C 0.14758 0.74153 1.16284
 H172 H 0.20851 0.71625 1.12215
 H173 H 0.12334 0.74285 1.17150
 N174 N 0.27496 0.79969 1.17692
 N175 N 0.27411 0.82199 1.19908
 C176 C 0.29963 0.84058 1.19601
 C177 C 0.31731 0.82976 1.17046
 C178 C 0.30111 0.80374 1.15889
 H179 H 0.30407 0.86150 1.21015
 H180 H 0.30690 0.78995 1.13782
 H181 H 0.21797 0.80965 1.18528
 H182 H 0.23098 0.78261 1.21756
 N183 N 0.80196 1.19089 1.28309
 N184 N 0.82513 1.21105 1.27915
 C185 C 0.84960 1.20437 1.29908
 C186 C 0.84106 1.17909 1.31693
 C187 C 0.81058 1.17118 1.30641
 H188 H 0.87204 1.21681 1.30048
 H189 H 0.79637 1.15176 1.31410
 Cu190 Cu 0.82089 1.24421 1.24858
 Cu191 Cu 0.76355 1.19069 1.25580
 Cu192 Cu 0.76872 1.23659 1.18829
 N193 N 0.81366 1.27800 1.21915
 N194 N 0.79306 1.27487 1.19529
 C195 C 0.79513 1.29975 1.17634
 C196 C 0.81825 1.31950 1.18910
 C197 C 0.82944 1.30505 1.21632
 H198 H 0.78221 1.30235 1.15395
 H199 H 0.84898 1.31276 1.23168
 N200 N 0.73733 1.20286 1.19222
 N201 N 0.73475 1.18582 1.21804
 C202 C 0.71199 1.16408 1.21266
 C203 C 0.69977 1.16774 1.18202
 C204 C 0.71627 1.19257 1.16985
 H205 H 0.70566 1.14619 1.22929
 H206 H 0.71366 1.20193 1.14612
 H207 H 0.79097 1.20447 1.21877
 H208 H 0.76444 1.23527 1.23610
 O209 O 0.54116 0.96140 0.93325
 O210 O 0.48186 0.97975 1.06271
 O211 O 0.57408 0.97974 1.01768
 O212 O 0.47046 0.93738 0.97195
 O213 O 0.53391 0.95923 1.04044
 O214 O 0.48131 0.95849 0.92774
 O215 O 0.47633 0.94702 1.02591
 O216 O 0.57533 0.99036 0.96035
 C217 C 0.56923 0.96731 0.94196
 C218 C 0.47101 0.95415 1.05410
 C219 C 0.56281 0.95844 1.03411
 C220 C 0.47050 0.93619 0.94250
 O221 O 0.47667 1.01765 0.93044
 O222 O 0.53486 1.01105 1.07121
 O223 O 0.54568 1.04610 0.97284
 O224 O 0.44857 1.00560 1.02009
 O225 O 0.48982 1.03234 1.03686
 O226 O 0.53679 1.02167 0.92859
 O227 O 0.44280 0.99448 0.96227
 O228 O 0.54734 1.03668 1.02906
 Co229 Co 0.50921 0.98994 0.93569
 Co230 Co 0.51278 0.99596 1.03679
 Co231 Co 0.55626 1.01126 0.99447
 Co232 Co 0.46333 0.97284 0.99476
 O233 O 0.50911 0.99132 0.98839
 C234 C 0.44875 1.01378 0.94045
 C235 C 0.55268 1.03196 1.05854
 C236 C 0.54480 1.04598 0.94322
 C237 C 0.46013 1.03011 1.03289
 O238 O 0.02826 0.47145 0.04926
 O239 O 0.02874 0.52597 -0.03616
 O240 O -0.00472 0.43439 -0.02290
 O241 O -0.00298 0.56566 0.02904
 O242 O 0.02920 0.47029 -0.03127
 O243 O 0.02643 0.53156 0.05506
 O244 O -0.00646 0.56133 -0.02987
 O245 O -0.00566 0.43573 0.03467
 C246 C 0.02179 0.44338 0.04464
 C247 C 0.02142 0.55382 -0.03693
 C248 C 0.02319 0.44222 -0.02953
 C249 C 0.02117 0.55885 0.04614
 O250 O -0.03388 0.52828 0.07150
 O251 O -0.02911 0.46674 -0.06050
 O252 O -0.06527 0.45993 0.03335
 O253 O -0.06510 0.53776 -0.02678
 O254 O -0.03128 0.52284 -0.06287
 O255 O -0.03177 0.47052 0.07121
 O256 O -0.06329 0.54917 0.03362
 O257 O -0.06385 0.46191 -0.02419
 Co258 Co -0.00396 0.50000 0.05623
 Co259 Co -0.00211 0.49665 -0.04336
 Co260 Co -0.03347 0.45219 0.00501
 Co261 Co -0.03304 0.54816 0.00156
 O262 O -0.01801 0.49937 0.00512
 C263 C -0.05792 0.54400 0.06254
 C264 C -0.05708 0.46028 -0.05285
 C265 C -0.05909 0.46166 0.06236
 C266 C -0.05855 0.53315 -0.05547
 O267 O 1.07442 0.03747 0.47039
 O268 O 0.93528 0.02087 0.53065
 O269 O 0.98274 0.02698 0.44340
 O270 O 1.03214 0.06027 0.54238
 O271 O 0.96681 0.04799 0.48827
 O272 O 1.07716 0.03907 0.53060
 O273 O 0.97686 0.04744 0.54544
 O274 O 1.04043 0.01744 0.43486
 C275 C 1.06336 0.03558 0.44227
 C276 C 0.94784 0.04090 0.55051
 C277 C 0.96952 0.04926 0.45853
 C278 C 1.06167 0.06203 0.54086
 O279 O 1.07362 -0.02258 0.53033
 O280 O 0.94205 -0.00424 0.47441
 O281 O 1.03271 -0.04168 0.45473
 O282 O 0.99302 -0.01129 0.56490
 O283 O 0.96780 -0.02850 0.52319
 O284 O 1.07730 -0.02214 0.47083
 O285 O 1.04916 0.00456 0.56680
 O286 O 0.97920 -0.03458 0.46370
 Co287 Co 1.07009 0.00796 0.50091
 Co288 Co 0.96925 0.00988 0.50651
 Co289 Co 1.00910 -0.00647 0.45328
 Co290 Co 1.01305 0.02357 0.55030
 O291 O 1.01758 0.00779 0.50112
 C292 C 1.06586 -0.01863 0.55877
 C293 C 0.95053 -0.02845 0.46054
 C294 C 1.06215 -0.04310 0.45654
 C295 C 0.97648 -0.03209 0.55138
 C296 C 1.12029 0.10451 0.34436
 N297 N 1.15263 0.10688 0.34344
 N298 N 1.16670 0.12141 0.31953
 C299 C 1.14897 0.13446 0.29582
 N300 N 1.11658 0.13233 0.29693
 N301 N 1.10251 0.11744 0.32063
 C302 C 1.10494 0.08762 0.37026
 N303 N 1.07478 0.07636 0.36652
 N304 N 1.06139 0.05998 0.38957
 C305 C 1.07751 0.05465 0.41735
 N306 N 1.10751 0.06622 0.42123
 N307 N 1.12105 0.08226 0.39804
 C308 C 0.87196 -0.10912 0.38650
 N309 N 0.88313 -0.13784 0.37825
 N310 N 0.86718 -0.15584 0.35731
 C311 C 0.83949 -0.14575 0.34373
 N312 N 0.82809 -0.11715 0.35223
 N313 N 0.84401 -0.09916 0.37328
 C314 C 0.89113 -0.08858 0.40760
 N315 N 0.88005 -0.06022 0.41741
 N316 N 0.89856 -0.04108 0.43498
 C317 C 0.92885 -0.04964 0.44312
 N318 N 0.93976 -0.07801 0.43346
 N319 N 0.92124 -0.09715 0.41611
 C320 C 0.87215 0.11648 0.63201
 N321 N 0.84209 0.10793 0.64004
 N322 N 0.82449 0.12607 0.65920
 C323 C 0.83622 0.15351 0.67086
 N324 N 0.86621 0.16210 0.66273
 N325 N 0.88387 0.14390 0.64372
 C326 C 0.89177 0.09652 0.61102
 N327 N 0.92294 0.10350 0.60610
 N328 N 0.94081 0.08561 0.58700
 C329 C 0.92813 0.06014 0.57198
 N330 N 0.89696 0.05311 0.57686
 N331 N 0.87911 0.07093 0.59612
 C332 C 1.11868 -0.09895 0.65084
 N333 N 1.11006 -0.12935 0.65183
 N334 N 1.12370 -0.14831 0.67291
 C335 C 1.14688 -0.13768 0.69331
 N336 N 1.15565 -0.10733 0.69217
 N337 N 1.14160 -0.08824 0.67149
 C338 C 1.10407 -0.07818 0.62731
 N339 N 1.10000 -0.04742 0.63423
 N340 N 1.08725 -0.02848 0.61258
 C341 C 1.07874 -0.03954 0.58306
 N342 N 1.08297 -0.07025 0.57610
 N343 N 1.09514 -0.08930 0.59794
 C344 C 0.37701 1.11283 1.09723
 N345 N 0.37196 1.14323 1.09031
 N346 N 0.35074 1.16014 1.10685
 C347 C 0.33429 1.14734 1.13120
 N348 N 0.33996 1.11714 1.13839
 N349 N 0.36065 1.10015 1.12154
 C350 C 0.39820 1.09295 1.07798
 N351 N 0.38887 1.06355 1.07030
 N352 N 0.40839 1.04420 1.05476
 C353 C 0.43820 1.05330 1.04671
 N354 N 0.44767 1.08279 1.05433
 N355 N 0.42784 1.10242 1.06945
 C356 C 0.39207 0.85119 0.87515
 N357 N 0.38221 0.85938 0.84541
 N358 N 0.35758 0.84505 0.83111
 C359 C 0.34193 0.82189 0.84596
 N360 N 0.35228 0.81315 0.87542
 N361 N 0.37679 0.82768 0.88986
 C362 C 0.41635 0.86992 0.89219
 N363 N 0.42072 0.86756 0.92433
 N364 N 0.43939 0.88771 0.94038
 C365 C 0.45448 0.91080 0.92479
 N366 N 0.45075 0.91259 0.89258
 N367 N 0.43202 0.89256 0.87659
 C368 C 0.64422 0.87816 1.10188
 N369 N 0.66599 0.89310 1.12085
 N370 N 0.68455 0.87731 1.14092
 C371 C 0.68249 0.84587 1.14242
 N372 N 0.66089 0.83077 1.12315
 N373 N 0.64181 0.84670 1.10345
 C374 C 0.62349 0.89639 1.08077
 N375 N 0.59201 0.88941 1.07673
 N376 N 0.57259 0.90855 1.06079
 C377 C 0.58415 0.93501 1.04794
 N378 N 0.61573 0.94149 1.05140
 N379 N 0.63498 0.92268 1.06771
 C380 C 0.60899 1.13543 0.87169
 N381 N 0.61484 1.12846 0.84047
 N382 N 0.63563 1.14507 0.82407
 C383 C 0.65134 1.16935 0.83824
 N384 N 0.64500 1.17673 0.86930
 N385 N 0.62432 1.15998 0.88578
 C386 C 0.58876 1.11482 0.89037
 N387 N 0.58743 1.11767 0.92279
 N388 N 0.57210 1.09656 0.93984
 C389 C 0.55748 1.07196 0.92501
 N390 N 0.55825 1.06958 0.89260
 N391 N 0.57358 1.09059 0.87562
 C392 C 0.10401 0.34832 0.08836
 N393 N 0.13584 0.35248 0.09383
 N394 N 0.15345 0.32998 0.10695
 C395 C 0.13977 0.30272 0.11533
 N396 N 0.10801 0.29865 0.10983
 N397 N 0.09051 0.32095 0.09647
 C398 C 0.08387 0.37310 0.07499
 N399 N 0.05362 0.36650 0.06501
 N400 N 0.03430 0.38891 0.05465
 C401 C 0.04437 0.41887 0.05408
 N402 N 0.07475 0.42557 0.06380
 N403 N 0.09422 0.40303 0.07399
 C404 C -0.13906 0.39218 -0.13536
 N405 N -0.12918 0.38185 -0.16454
 N406 N -0.14565 0.36001 -0.18069
 C407 C -0.17248 0.34765 -0.16813
 N408 N -0.18255 0.35832 -0.13920
 N409 N -0.16617 0.38017 -0.12313
 C410 C -0.11929 0.41348 -0.11572
 N411 N -0.12859 0.42157 -0.08569
 N412 N -0.10922 0.43776 -0.06617
 C413 C -0.07984 0.44653 -0.07596
 N414 N -0.07075 0.43907 -0.10624
 N415 N -0.09015 0.42282 -0.12579
 C416 C 0.09979 0.63882 -0.10029
 N417 N 0.08541 0.66066 -0.11865
 N418 N 0.10276 0.67993 -0.13591
 C419 C 0.13517 0.67825 -0.13522
 N420 N 0.14961 0.65651 -0.11674
 N421 N 0.13222 0.63697 -0.09975
 C422 C 0.08032 0.61739 -0.08187
 N423 N 0.09258 0.59005 -0.07133
 N424 N 0.07409 0.56993 -0.05627
 C425 C 0.04284 0.57668 -0.05085
 N426 N 0.03080 0.60422 -0.06093
 N427 N 0.04915 0.62415 -0.07626
 C428 C -0.13636 0.61137 0.14801
 N429 N -0.12370 0.62337 0.17565
 N430 N -0.13952 0.64502 0.19245
 C431 C -0.16860 0.65536 0.18231
 N432 N -0.18151 0.64289 0.15503
 N433 N -0.16564 0.62138 0.13816
 C434 C -0.11742 0.59058 0.12725
 N435 N -0.12701 0.58516 0.09654
 N436 N -0.10842 0.56931 0.07635
 C437 C -0.07964 0.55800 0.08613
 N438 N -0.07028 0.56279 0.11708
 N439 N -0.08881 0.57891 0.13725
 C440 C 1.12913 0.15108 0.61464
 N441 N 1.16062 0.14555 0.62054
 N442 N 1.17594 0.16048 0.64431
 C443 C 1.16038 0.18161 0.66302
 N444 N 1.12906 0.18771 0.65669
 N445 N 1.11366 0.17263 0.63299
 C446 C 1.11150 0.13128 0.59151
 N447 N 1.07903 0.13210 0.58985
 N448 N 1.06297 0.11100 0.57228
 C449 C 1.07884 0.08841 0.55569
 N450 N 1.11129 0.08813 0.55672
 N451 N 1.12731 0.10915 0.57429
 C452 C 0.92258 -0.12264 0.62900
 N453 N 0.93906 -0.14027 0.65027
 N454 N 0.92360 -0.15626 0.67231
 C455 C 0.89123 -0.15462 0.67418
 N456 N 0.87483 -0.13702 0.65293
 N457 N 0.89020 -0.12154 0.63056
 C458 C 0.93918 -0.10264 0.60664
 N459 N 0.92454 -0.09429 0.57894
 N460 N 0.93751 -0.07298 0.56043
 C461 C 0.96534 -0.05888 0.56920
 N462 N 0.98021 -0.06744 0.59675
 N463 N 0.96746 -0.08915 0.61504
 C464 C 1.12840 -0.12898 0.37875
 N465 N 1.11216 -0.14942 0.35950
 N466 N 1.12688 -0.16430 0.33559
 C467 C 1.15832 -0.15915 0.32999
 N468 N 1.17468 -0.13913 0.34958
 N469 N 1.15999 -0.12433 0.37354
 C470 C 1.11142 -0.10957 0.40229
 N471 N 1.12755 -0.08803 0.42027
 N472 N 1.11183 -0.06770 0.43873
 C473 C 1.07941 -0.06815 0.43983
 N474 N 1.06328 -0.09008 0.42234
 N475 N 1.07902 -0.11046 0.40392
 C476 C 0.89899 0.13189 0.38234
 N477 N 0.86664 0.13126 0.38486
 N478 N 0.84809 0.14633 0.36407
 C479 C 0.86128 0.16290 0.34029
 N480 N 0.89362 0.16386 0.33803
 N481 N 0.91215 0.14837 0.35848
 C482 C 0.91922 0.11331 0.40365
 N483 N 0.94722 0.10107 0.39304
 N484 N 0.96409 0.08160 0.41113
 C485 C 0.95393 0.07425 0.44076
 N486 N 0.92632 0.08707 0.45166
 N487 N 0.90916 0.10612 0.43336
 C488 C 0.10590 0.35220 -0.08241
 N489 N 0.11966 0.35944 -0.11053
 N490 N 0.13498 0.33781 -0.12768
 C491 C 0.13747 0.30823 -0.11714
 N492 N 0.12417 0.30103 -0.08875
 N493 N 0.10840 0.32260 -0.07179
 C494 C 0.08673 0.37563 -0.06533
 N495 N 0.06247 0.36704 -0.04611
 N496 N 0.04273 0.38836 -0.03370
 C497 C 0.04684 0.41902 -0.03977
 N498 N 0.07155 0.42762 -0.05835
 N499 N 0.09101 0.40630 -0.07106
 C500 C -0.13805 0.39296 0.14251
 N501 N -0.16450 0.37903 0.12971
 N502 N -0.17912 0.35636 0.14511
 C503 C -0.16782 0.34675 0.17386
 N504 N -0.14174 0.36108 0.18696
 N505 N -0.12709 0.38375 0.17155
 C506 C -0.11961 0.41483 0.12351
 N507 N -0.09123 0.42629 0.13459
 N508 N -0.07252 0.44272 0.11563
 C509 C -0.08155 0.44824 0.08493
 N510 N -0.11024 0.43739 0.07415
 N511 N -0.12894 0.42104 0.09308
 C512 C -0.12999 0.60165 -0.14374
 N513 N -0.11444 0.61254 -0.16954
 N514 N -0.12579 0.63696 -0.18530
 C515 C -0.15314 0.65134 -0.17585
 N516 N -0.16916 0.63991 -0.15060
 N517 N -0.15773 0.61559 -0.13476
 C518 C -0.11455 0.57867 -0.12305
 N519 N -0.12581 0.57395 -0.09321
 N520 N -0.10883 0.55762 -0.07216
 C521 C -0.08007 0.54524 -0.08026
 N522 N -0.06933 0.54904 -0.11045
 N523 N -0.08623 0.56551 -0.13145
 C524 C 0.10325 0.65426 0.09176
 N525 N 0.08987 0.68103 0.10303
 N526 N 0.10780 0.70271 0.11759
 C527 C 0.13986 0.69866 0.12100
 N528 N 0.15340 0.67211 0.10927
 N529 N 0.13537 0.65018 0.09508
 C530 C 0.08286 0.62960 0.07790
 N531 N 0.09270 0.59945 0.07760
 N532 N 0.07316 0.57688 0.06719
 C533 C 0.04321 0.58370 0.05640
 N534 N 0.03357 0.61389 0.05626
 N535 N 0.05295 0.63640 0.06704
 C536 C 0.35020 1.08602 0.88531
 N537 N 0.35391 1.09715 0.85541
 N538 N 0.33143 1.11493 0.84216
 C539 C 0.30452 1.12246 0.85841
 N540 N 0.30077 1.11138 0.88835
 N541 N 0.32318 1.09337 0.90154
 C542 C 0.37544 1.06689 0.89980
 N543 N 0.37030 1.05107 0.92710
 N544 N 0.39353 1.03386 0.94005
 C545 C 0.42274 1.03210 0.92626
 N546 N 0.42784 1.04799 0.89905
 N547 N 0.40459 1.06495 0.88600
 C548 C 0.39105 0.87813 1.12677
 N549 N 0.38006 0.85090 1.11384
 N550 N 0.35718 0.83498 1.12816
 C551 C 0.34442 0.84574 1.15595
 N552 N 0.35570 0.87276 1.16910
 N553 N 0.37859 0.88868 1.15479
 C554 C 0.41422 0.89693 1.10945
 N555 N 0.42412 0.92503 1.12126
 N556 N 0.44312 0.94308 1.10417
 C557 C 0.45280 0.93360 1.07467
 N558 N 0.44319 0.90538 1.06308
 N559 N 0.42430 0.88737 1.08014
 C560 C 0.63440 1.11118 1.13148
 N561 N 0.64157 1.10552 1.16265
 N562 N 0.66214 1.12365 1.17895
 C563 C 0.67623 1.14814 1.16467
 N564 N 0.66890 1.15385 1.13360
 N565 N 0.64841 1.13573 1.11732
 C566 C 0.61247 1.09084 1.11295
 N567 N 0.60732 1.09573 1.08130
 N568 N 0.58809 1.07706 1.06411
 C569 C 0.57319 1.05283 1.07793
 N570 N 0.57822 1.04793 1.10961
 N571 N 0.59754 1.06659 1.12682
 C572 C 0.66707 0.89524 0.88528
 N573 N 0.66328 0.86414 0.88027
 N574 N 0.68542 0.84752 0.86485
 C575 C 0.71190 0.86149 0.85347
 N576 N 0.71567 0.89260 0.85840
 N577 N 0.69371 0.90916 0.87416
 C578 C 0.64215 0.91362 0.90132
 N579 N 0.64854 0.94243 0.91372
 N580 N 0.62549 0.95940 0.92737
 C581 C 0.59520 0.94827 0.92871
 N582 N 0.58887 0.91949 0.91633
 N583 N 0.61196 0.90239 0.90307
   
