data_POSCAR
  _audit_creation_date              2014-09-24
  _audit_creation_method            'ToBaCCo'
  _symmetry_space_group_name_H-M    'P1'
  _symmetry_Int_Tables_number       1
  _symmetry_cell_setting            triclinic
  loop_
  _symmetry_equiv_pos_as_xyz
 x,y,z
_cell_length_a 30.9106
_cell_length_b 31.2880
_cell_length_c 30.3667
_cell_angle_alpha 90.175900
_cell_angle_beta 90.000000
_cell_angle_gamma 90.000000
loop_
  _atom_site_label
  _atom_site_type_symbol
  _atom_site_fract_x
  _atom_site_fract_y
  _atom_site_fract_z
C1 C 1.25216 0.25001 0.25000
 C2 C 0.74965 -0.24999 0.25000
 C3 C 0.74980 0.25001 -0.25000
 C4 C 1.25169 -0.24999 -0.25000
 C5 C 0.25030 0.25001 0.75000
 C6 C 0.74851 0.75001 0.75000
 C7 C 0.74802 0.25001 0.25000
 C8 C 0.25016 0.75001 0.25000
 N9 N 1.04612 0.04593 0.07883
 N10 N 1.07418 0.05576 0.11006
 N11 N 0.95514 0.07534 0.04838
 N12 N 0.92717 0.10583 0.05801
 N13 N 0.95528 0.04594 0.07916
 N14 N 0.92739 0.05580 0.11058
 N15 N 1.04595 0.07540 0.04812
 N16 N 1.07389 0.10593 0.05763
 C17 C 1.09169 0.09302 0.09608
 C18 C 0.90965 0.09300 0.09663
 N19 N 0.95476 0.04579 -0.07748
 N20 N 0.92713 0.05578 -0.10900
 N21 N 1.04568 0.07538 -0.04687
 N22 N 1.07333 0.10605 -0.05665
 N23 N 1.04563 0.04584 -0.07770
 N24 N 1.07325 0.05575 -0.10925
 N25 N 0.95483 0.07534 -0.04666
 N26 N 0.92725 0.10610 -0.05644
 Mn27 Mn 1.00040 0.07565 0.00076
 C28 C 0.90972 0.09323 -0.09514
 C29 C 1.09076 0.09314 -0.09537
 N30 N 0.95542 -0.04654 0.07899
 N31 N 0.92751 -0.05624 0.11033
 N32 N 1.04623 -0.07617 0.04805
 N33 N 1.07366 -0.10704 0.05792
 N34 N 1.04630 -0.04664 0.07890
 N35 N 1.07378 -0.05680 0.11054
 N36 N 0.95538 -0.07608 0.04817
 N37 N 0.92744 -0.10655 0.05772
 Mn38 Mn 1.00078 -0.00031 0.07934
 C39 C 0.90987 -0.09351 0.09631
 C40 C 1.09112 -0.09432 0.09671
 N41 N 1.04573 -0.04659 -0.07776
 N42 N 1.07361 -0.05632 -0.10918
 N43 N 0.95507 -0.07622 -0.04685
 N44 N 0.92724 -0.10683 -0.05653
 N45 N 0.95490 -0.04671 -0.07752
 N46 N 0.92696 -0.05657 -0.10885
 N47 N 1.04589 -0.07606 -0.04704
 N48 N 1.07388 -0.10650 -0.05676
 Mn49 Mn 1.00025 -0.00043 -0.07797
 Mn50 Mn 1.00065 -0.07642 0.00057
 Cl51 Cl 1.00052 -0.00038 0.00068
 C52 C 1.09137 -0.09352 -0.09533
 C53 C 0.90950 -0.09392 -0.09502
 N54 N 0.95507 0.57624 0.54685
 N55 N 0.92724 0.60685 0.55654
 N56 N 1.04573 0.54661 0.57777
 N57 N 1.07361 0.55633 0.60919
 N58 N 1.04589 0.57608 0.54705
 N59 N 1.07388 0.60651 0.55676
 N60 N 0.95490 0.54672 0.57753
 N61 N 0.92696 0.55659 0.60886
 C62 C 0.90950 0.59393 0.59503
 C63 C 1.09137 0.59353 0.59534
 N64 N 1.04568 0.42463 0.54688
 N65 N 1.07333 0.39397 0.55665
 N66 N 0.95476 0.45423 0.57748
 N67 N 0.92713 0.44423 0.60901
 N68 N 0.95483 0.42467 0.54667
 N69 N 0.92724 0.39392 0.55645
 N70 N 1.04563 0.45418 0.57770
 N71 N 1.07325 0.44426 0.60925
 Mn72 Mn 1.00025 0.50045 0.57798
 C73 C 1.09076 0.40687 0.59537
 C74 C 0.90972 0.40678 0.59514
 N75 N 1.04623 0.57618 0.45196
 N76 N 1.07366 0.60706 0.44209
 N77 N 0.95542 0.54655 0.42102
 N78 N 0.92751 0.55625 0.38968
 N79 N 0.95538 0.57610 0.45184
 N80 N 0.92744 0.60656 0.44229
 N81 N 1.04630 0.54665 0.42111
 N82 N 1.07378 0.55682 0.38947
 Mn83 Mn 1.00065 0.57643 0.49944
 C84 C 1.09112 0.59433 0.40330
 C85 C 0.90987 0.59353 0.40370
 N86 N 0.95513 0.42467 0.45163
 N87 N 0.92717 0.39419 0.44199
 N88 N 1.04612 0.45409 0.42118
 N89 N 1.07418 0.44426 0.38995
 N90 N 1.04595 0.42461 0.45189
 N91 N 1.07389 0.39408 0.44237
 N92 N 0.95528 0.45407 0.42084
 N93 N 0.92739 0.44421 0.38943
 Mn94 Mn 1.00040 0.42437 0.49925
 Mn95 Mn 1.00078 0.50033 0.42066
 Cl96 Cl 1.00052 0.50040 0.49933
 C97 C 0.90965 0.40701 0.40338
 C98 C 1.09169 0.40700 0.40393
 N99 N 0.57608 0.04480 0.54688
 N100 N 0.60671 0.07278 0.55613
 N101 N 0.54632 -0.04477 0.57792
 N102 N 0.55574 -0.07278 0.60890
 N103 N 0.57620 -0.04489 0.54720
 N104 N 0.60669 -0.07297 0.55644
 N105 N 0.54621 0.04498 0.57762
 N106 N 0.55582 0.07309 0.60863
 C107 C 0.59341 0.09061 0.59448
 C108 C 0.59326 -0.09052 0.59477
 N109 N 0.42309 -0.04521 0.54705
 N110 N 0.39290 -0.07362 0.55611
 N111 N 0.45279 0.04476 0.57747
 N112 N 0.44335 0.07312 0.60827
 N113 N 0.42287 0.04444 0.54678
 N114 N 0.39234 0.07257 0.55588
 N115 N 0.45297 -0.04494 0.57778
 N116 N 0.44383 -0.07317 0.60861
 Mn117 Mn 0.49956 0.00001 0.57812
 C118 C 0.40650 -0.09119 0.59436
 C119 C 0.40579 0.09061 0.59407
 N120 N 0.57610 -0.04551 0.45246
 N121 N 0.60653 -0.07377 0.44357
 N122 N 0.54615 0.04385 0.42128
 N123 N 0.55545 0.07199 0.39038
 N124 N 0.57598 0.04412 0.45207
 N125 N 0.60627 0.07244 0.44297
 N126 N 0.54622 -0.04586 0.42172
 N127 N 0.55563 -0.07436 0.39106
 Mn128 Mn 0.57643 -0.00037 0.49964
 C129 C 0.59310 -0.09190 0.40544
 C130 C 0.59282 0.08996 0.40465
 N131 N 0.42289 0.04378 0.45199
 N132 N 0.39273 0.07227 0.44306
 N133 N 0.45274 -0.04611 0.42144
 N134 N 0.44294 -0.07401 0.39026
 N135 N 0.42286 -0.04592 0.45218
 N136 N 0.39205 -0.07368 0.44273
 N137 N 0.45279 0.04365 0.42128
 N138 N 0.44371 0.07205 0.39060
 Mn139 Mn 0.42258 -0.00073 0.49951
 Mn140 Mn 0.49949 -0.00113 0.42100
 Cl141 Cl 0.49951 -0.00056 0.49956
 C142 C 0.40637 0.09001 0.40492
 C143 C 0.40523 -0.09141 0.40428
 N144 N 0.57610 0.54553 0.04755
 N145 N 0.60653 0.57378 0.05644
 N146 N 0.54615 0.45617 0.07873
 N147 N 0.55545 0.42802 0.10962
 N148 N 0.57598 0.45589 0.04794
 N149 N 0.60627 0.42758 0.05704
 N150 N 0.54622 0.54588 0.07829
 N151 N 0.55563 0.57438 0.10895
 C152 C 0.59310 0.59191 0.09456
 C153 C 0.59282 0.41005 0.09536
 N154 N 0.42289 0.45623 0.04802
 N155 N 0.39273 0.42775 0.05695
 N156 N 0.45274 0.54612 0.07857
 N157 N 0.44294 0.57403 0.10975
 N158 N 0.42286 0.54594 0.04783
 N159 N 0.39205 0.57370 0.05728
 N160 N 0.45279 0.45636 0.07873
 N161 N 0.44371 0.42796 0.10940
 Mn162 Mn 0.49949 0.50114 0.07901
 C163 C 0.40637 0.41001 0.09509
 C164 C 0.40523 0.59143 0.09573
 N165 N 0.57608 0.45521 -0.04687
 N166 N 0.60671 0.42724 -0.05613
 N167 N 0.54632 0.54479 -0.07791
 N168 N 0.55574 0.57279 -0.10889
 N169 N 0.57620 0.54491 -0.04720
 N170 N 0.60669 0.57299 -0.05643
 N171 N 0.54621 0.45504 -0.07761
 N172 N 0.55582 0.42692 -0.10862
 Mn173 Mn 0.57643 0.50038 0.00037
 C174 C 0.59341 0.40941 -0.09447
 C175 C 0.59326 0.59053 -0.09476
 N176 N 0.42309 0.54523 -0.04704
 N177 N 0.39290 0.57364 -0.05611
 N178 N 0.45279 0.45526 -0.07746
 N179 N 0.44335 0.42690 -0.10826
 N180 N 0.42287 0.45558 -0.04677
 N181 N 0.39234 0.42745 -0.05588
 N182 N 0.45297 0.54495 -0.07777
 N183 N 0.44383 0.57319 -0.10860
 Mn184 Mn 0.42258 0.50075 0.00050
 Mn185 Mn 0.49956 0.50000 -0.07811
 Cl186 Cl 0.49951 0.50057 0.00044
 C187 C 0.40650 0.59120 -0.09435
 C188 C 0.40579 0.40940 -0.09406
 C189 C 1.17645 0.17131 0.17364
 C190 C 1.16346 0.18474 0.13177
 C191 C 1.13662 0.15878 0.10608
 C192 C 1.22500 0.22194 0.22297
 C193 C 1.13623 0.10541 0.16381
 C194 C 1.16309 0.13146 0.18947
 C195 C 1.20289 0.19875 0.20054
 C196 C 1.12241 0.11904 0.12204
 H197 H 1.17369 0.21549 0.11917
 H198 H 1.12648 0.17009 0.07403
 H199 H 1.12576 0.07498 0.17693
 H200 H 1.17304 0.12074 0.22181
 C201 C 1.17600 0.67146 0.67343
 C202 C 1.16333 0.68494 0.63148
 C203 C 1.13652 0.65910 0.60563
 C204 C 1.22453 0.72193 0.72297
 C205 C 1.13552 0.60575 0.66337
 C206 C 1.16235 0.63168 0.68919
 C207 C 1.20243 0.69879 0.70048
 C208 C 1.12202 0.61943 0.62151
 H209 H 1.17379 0.71564 0.61894
 H210 H 1.12665 0.67044 0.57352
 H211 H 1.12482 0.57537 0.67642
 H212 H 1.17205 0.62092 0.72161
 C213 C 0.67162 0.17587 0.67140
 C214 C 0.63123 0.16266 0.68718
 C215 C 0.60520 0.13566 0.66170
 C216 C 0.72222 0.22375 0.72150
 C217 C 0.65960 0.13564 0.60418
 C218 C 0.68557 0.16263 0.62970
 C219 C 0.69917 0.20208 0.69845
 C220 C 0.61936 0.12153 0.62015
 H221 H 0.62012 0.17276 0.71941
 H222 H 0.57437 0.12529 0.67481
 H223 H 0.67133 0.12527 0.57229
 H224 H 0.71675 0.17269 0.61717
 C225 C 0.67126 0.67712 0.17097
 C226 C 0.68518 0.66388 0.12929
 C227 C 0.65913 0.63699 0.10383
 C228 C 0.72211 0.72417 0.22128
 C229 C 0.60470 0.63730 0.16137
 C230 C 0.63082 0.66419 0.18679
 C231 C 0.69897 0.70289 0.19808
 C232 C 0.61890 0.62303 0.11990
 H233 H 0.71644 0.67378 0.11679
 H234 H 0.67084 0.62650 0.07197
 H235 H 0.57386 0.62702 0.17452
 H236 H 0.61979 0.67435 0.21904
 C237 C 0.82528 -0.17142 0.17394
 C238 C 0.83883 -0.13159 0.18990
 C239 C 0.86564 -0.10566 0.16422
 C240 C 0.77679 -0.22190 0.22317
 C241 C 0.86481 -0.15912 0.10625
 C242 C 0.83802 -0.18496 0.13195
 C243 C 0.79888 -0.19875 0.20082
 C244 C 0.87922 -0.11940 0.12232
 H245 H 0.82908 -0.12079 0.22234
 H246 H 0.87627 -0.07524 0.17742
 H247 H 0.87475 -0.17051 0.07409
 H248 H 0.82764 -0.21570 0.11926
 C249 C 0.82567 0.32829 0.67330
 C250 C 0.83900 0.36830 0.68906
 C251 C 0.86567 0.39432 0.66327
 C252 C 0.77704 0.27790 0.72281
 C253 C 0.86527 0.34066 0.60555
 C254 C 0.83861 0.31471 0.63137
 C255 C 0.79919 0.30094 0.70030
 C256 C 0.87938 0.38059 0.62140
 H257 H 0.82913 0.37919 0.72144
 H258 H 0.87605 0.42489 0.67635
 H259 H 0.87529 0.32922 0.57344
 H260 H 0.82844 0.28386 0.61878
 C261 C 0.32950 -0.17676 0.67108
 C262 C 0.36978 -0.16319 0.68682
 C263 C 0.39551 -0.13614 0.66132
 C264 C 0.27919 -0.22410 0.72143
 C265 C 0.34099 -0.13694 0.60387
 C266 C 0.31533 -0.16397 0.62942
 C267 C 0.30214 -0.20271 0.69826
 C268 C 0.38107 -0.12236 0.61984
 H269 H 0.38100 -0.17297 0.71906
 H270 H 0.42624 -0.12539 0.67440
 H271 H 0.32911 -0.12683 0.57201
 H272 H 0.28419 -0.17436 0.61697
 C273 C 0.32978 0.32362 0.17127
 C274 C 0.31547 0.33671 0.12975
 C275 C 0.34099 0.36403 0.10438
 C276 C 0.27964 0.27594 0.22145
 C277 C 0.39564 0.36449 0.16169
 C278 C 0.37006 0.33717 0.18702
 C279 C 0.30253 0.29746 0.19833
 C280 C 0.38106 0.37858 0.12038
 H281 H 0.28432 0.32636 0.11731
 H282 H 0.32900 0.37437 0.07264
 H283 H 0.42638 0.37522 0.17478
 H284 H 0.38138 0.32716 0.21915
 C285 C 0.82567 0.17172 -0.17330
 C286 C 0.83861 0.18531 -0.13136
 C287 C 0.86527 0.15935 -0.10555
 C288 C 0.77704 0.22212 -0.22280
 C289 C 0.86567 0.10569 -0.16327
 C290 C 0.83900 0.13172 -0.18905
 C291 C 0.79919 0.19908 -0.20029
 C292 C 0.87938 0.11942 -0.12139
 H293 H 0.82844 0.21615 -0.11877
 H294 H 0.87530 0.17079 -0.07344
 H295 H 0.87605 0.07513 -0.17634
 H296 H 0.82913 0.12083 -0.22143
 C297 C 0.82528 0.67144 0.32607
 C298 C 0.83802 0.68498 0.36806
 C299 C 0.86481 0.65913 0.39376
 C300 C 0.77679 0.72191 0.27684
 C301 C 0.86564 0.60568 0.33578
 C302 C 0.83883 0.63160 0.31011
 C303 C 0.79888 0.69877 0.29919
 C304 C 0.87922 0.61941 0.37769
 H305 H 0.82764 0.71571 0.38075
 H306 H 0.87475 0.67052 0.42591
 H307 H 0.87627 0.57525 0.32258
 H308 H 0.82908 0.62080 0.27766
 C309 C 0.32978 0.17639 0.32874
 C310 C 0.37006 0.16285 0.31299
 C311 C 0.39564 0.13552 0.33832
 C312 C 0.27964 0.22408 0.27855
 C313 C 0.34099 0.13599 0.39563
 C314 C 0.31547 0.16330 0.37025
 C315 C 0.30253 0.20256 0.30167
 C316 C 0.38106 0.12143 0.37963
 H317 H 0.38138 0.17285 0.28086
 H318 H 0.42638 0.12480 0.32522
 H319 H 0.32900 0.12565 0.42736
 H320 H 0.28432 0.17366 0.38270
 C321 C 0.32950 0.67677 -0.17108
 C322 C 0.36978 0.66320 -0.18681
 C323 C 0.39551 0.63616 -0.16131
 C324 C 0.27919 0.72412 -0.22142
 C325 C 0.34099 0.63695 -0.10386
 C326 C 0.31533 0.66399 -0.12941
 C327 C 0.30214 0.70272 -0.19825
 C328 C 0.38107 0.62237 -0.11984
 H329 H 0.38100 0.67299 -0.21905
 H330 H 0.42624 0.62541 -0.17439
 H331 H 0.32911 0.62684 -0.07201
 H332 H 0.28419 0.67437 -0.11697
 C333 C 1.17600 -0.17145 -0.17343
 C334 C 1.16333 -0.18492 -0.13147
 C335 C 1.13652 -0.15908 -0.10563
 C336 C 1.22453 -0.22191 -0.22297
 C337 C 1.13552 -0.10574 -0.16336
 C338 C 1.16235 -0.13166 -0.18919
 C339 C 1.20243 -0.19878 -0.20047
 C340 C 1.12202 -0.11941 -0.12150
 H341 H 1.17379 -0.21562 -0.11893
 H342 H 1.12665 -0.17043 -0.07351
 H343 H 1.12482 -0.07535 -0.17642
 H344 H 1.17205 -0.12090 -0.22160
 C345 C 1.17645 0.32871 0.32637
 C346 C 1.16346 0.31527 0.36824
 C347 C 1.13662 0.34124 0.39392
 C348 C 1.22500 0.27808 0.27704
 C349 C 1.13623 0.39460 0.33620
 C350 C 1.16309 0.36856 0.31054
 C351 C 1.20289 0.30126 0.29947
 C352 C 1.12241 0.38098 0.37797
 H353 H 1.17369 0.28452 0.38083
 H354 H 1.12649 0.32993 0.42597
 H355 H 1.12576 0.42504 0.32308
 H356 H 1.17304 0.37928 0.27819
 C357 C 0.67126 -0.17710 0.32904
 C358 C 0.63082 -0.16418 0.31322
 C359 C 0.60470 -0.13728 0.33863
 C360 C 0.72211 -0.22416 0.27872
 C361 C 0.65913 -0.13698 0.39618
 C362 C 0.68518 -0.16386 0.37071
 C363 C 0.69897 -0.20287 0.30192
 C364 C 0.61890 -0.12302 0.38010
 H365 H 0.61979 -0.17433 0.28097
 H366 H 0.57386 -0.12700 0.32548
 H367 H 0.67084 -0.12648 0.42804
 H368 H 0.71644 -0.17376 0.38322
 C369 C 0.67162 0.32415 -0.17139
 C370 C 0.68557 0.33739 -0.12969
 C371 C 0.65960 0.36437 -0.10417
 C372 C 0.72222 0.27626 -0.22149
 C373 C 0.60520 0.36436 -0.16169
 C374 C 0.63123 0.33736 -0.18717
 C375 C 0.69917 0.29793 -0.19844
 C376 C 0.61936 0.37849 -0.12014
 H377 H 0.71675 0.32732 -0.11716
 H378 H 0.67133 0.37474 -0.07228
 H379 H 0.57437 0.37473 -0.17481
 H380 H 0.62012 0.32725 -0.21940
 C381 C 1.17467 0.17153 -0.17355
 C382 C 1.16122 0.13160 -0.18938
 C383 C 1.13461 0.10557 -0.16356
 C384 C 1.22312 0.22201 -0.22299
 C385 C 1.13534 0.15910 -0.10570
 C386 C 1.16194 0.18505 -0.13153
 C387 C 1.20103 0.19890 -0.20054
 C388 C 1.12110 0.11926 -0.12161
 H389 H 1.17095 0.12077 -0.22182
 H390 H 1.12411 0.07506 -0.17668
 H391 H 1.12546 0.17048 -0.07352
 H392 H 1.17222 0.21585 -0.11891
 C393 C 1.17529 0.67316 0.32523
 C394 C 1.16189 0.63319 0.30938
 C395 C 1.13515 0.60709 0.33509
 C396 C 1.22426 0.72362 0.27585
 C397 C 1.13551 0.66060 0.39292
 C398 C 1.16224 0.68663 0.36720
 C399 C 1.20195 0.70056 0.29834
 C400 C 1.12140 0.62069 0.37701
 H401 H 1.17180 0.62235 0.27700
 H402 H 1.12479 0.57656 0.32193
 H403 H 1.12548 0.67197 0.42505
 H404 H 1.17242 0.71743 0.37989
 C405 C 0.67008 0.17606 0.32843
 C406 C 0.62994 0.16229 0.31241
 C407 C 0.60418 0.13503 0.33768
 C408 C 0.72047 0.22397 0.27853
 C409 C 0.65833 0.13590 0.39545
 C410 C 0.68403 0.16316 0.37014
 C411 C 0.69748 0.20235 0.30152
 C412 C 0.61838 0.12119 0.37923
 H413 H 0.61886 0.17213 0.28015
 H414 H 0.57356 0.12419 0.32439
 H415 H 0.67007 0.12578 0.42736
 H416 H 0.71503 0.17365 0.38283
 C417 C 0.67071 0.67595 -0.17156
 C418 C 0.63037 0.66247 -0.18730
 C419 C 0.60458 0.63541 -0.16183
 C420 C 0.72098 0.72380 -0.22163
 C421 C 0.65912 0.63590 -0.10444
 C422 C 0.68485 0.66295 -0.12994
 C423 C 0.69805 0.70215 -0.19861
 C424 C 0.61895 0.62150 -0.12037
 H425 H 0.61914 0.67239 -0.21948
 H426 H 0.57378 0.62481 -0.17490
 H427 H 0.67098 0.62571 -0.07260
 H428 H 0.71601 0.67324 -0.11747
 C429 C 0.82456 -0.17190 -0.17301
 C430 C 0.83789 -0.13193 -0.18857
 C431 C 0.86484 -0.10604 -0.16279
 C432 C 0.77573 -0.22213 -0.22268
 C433 C 0.86468 -0.15980 -0.10548
 C434 C 0.83774 -0.18561 -0.13129
 C435 C 0.79795 -0.19915 -0.20007
 C436 C 0.87881 -0.11992 -0.12115
 H437 H 0.82784 -0.12096 -0.22079
 H438 H 0.87523 -0.07550 -0.17571
 H439 H 0.87492 -0.17132 -0.07355
 H440 H 0.82757 -0.21645 -0.11888
 C441 C 0.82429 0.32876 0.32610
 C442 C 0.83712 0.31558 0.36811
 C443 C 0.86420 0.34150 0.39363
 C444 C 0.77527 0.27810 0.27707
 C445 C 0.86523 0.39438 0.33547
 C446 C 0.83813 0.36836 0.30997
 C447 C 0.79756 0.30130 0.29938
 C448 C 0.87884 0.38100 0.37740
 H449 H 0.82657 0.28504 0.38097
 H450 H 0.87413 0.33035 0.42580
 H451 H 0.87602 0.42461 0.32212
 H452 H 0.82835 0.37892 0.27751
 C453 C 0.32683 -0.17666 0.32711
 C454 C 0.31285 -0.16329 0.36877
 C455 C 0.33882 -0.13626 0.39432
 C456 C 0.27630 -0.22495 0.27701
 C457 C 0.39328 -0.13639 0.33690
 C458 C 0.36725 -0.16343 0.31140
 C459 C 0.29932 -0.20309 0.30007
 C460 C 0.37912 -0.12220 0.37845
 H461 H 0.28165 -0.17333 0.38130
 H462 H 0.32706 -0.12587 0.42619
 H463 H 0.42414 -0.12607 0.32382
 H464 H 0.37842 -0.17359 0.27920
 C465 C 0.32818 0.32376 -0.17092
 C466 C 0.31389 0.33724 -0.12943
 C467 C 0.33969 0.36433 -0.10386
 C468 C 0.27783 0.27607 -0.22134
 C469 C 0.39457 0.36385 -0.16092
 C470 C 0.36872 0.33676 -0.18644
 C471 C 0.30078 0.29763 -0.19812
 C472 C 0.38005 0.37828 -0.11961
 H473 H 0.28257 0.32733 -0.11713
 H474 H 0.32771 0.37494 -0.07214
 H475 H 0.42552 0.37410 -0.17385
 H476 H 0.38006 0.32646 -0.21852
 C477 C 1.17529 -0.17314 0.17477
 C478 C 1.16189 -0.13317 0.19062
 C479 C 1.13515 -0.10708 0.16492
 C480 C 1.22426 -0.22360 0.22416
 C481 C 1.13551 -0.16059 0.10709
 C482 C 1.16224 -0.18661 0.13281
 C483 C 1.20195 -0.20055 0.20167
 C484 C 1.12140 -0.12067 0.12300
 H485 H 1.17180 -0.12234 0.22301
 H486 H 1.12479 -0.07654 0.17808
 H487 H 1.12548 -0.17195 0.07495
 H488 H 1.17242 -0.21741 0.12011
 C489 C 1.17467 0.32849 0.67356
 C490 C 1.16122 0.36842 0.68938
 C491 C 1.13461 0.39445 0.66357
 C492 C 1.22312 0.27801 0.72299
 C493 C 1.13534 0.34092 0.60570
 C494 C 1.16194 0.31497 0.63154
 C495 C 1.20103 0.30112 0.70054
 C496 C 1.12110 0.38076 0.62162
 H497 H 1.17095 0.37924 0.72183
 H498 H 1.12411 0.42496 0.67668
 H499 H 1.12546 0.32953 0.57353
 H500 H 1.17222 0.28417 0.61892
 C501 C 0.67071 -0.17593 0.67157
 C502 C 0.63037 -0.16245 0.68730
 C503 C 0.60458 -0.13540 0.66184
 C504 C 0.72098 -0.22379 0.72164
 C505 C 0.65912 -0.13589 0.60444
 C506 C 0.68485 -0.16293 0.62995
 C507 C 0.69805 -0.20214 0.69862
 C508 C 0.61895 -0.12149 0.62037
 H509 H 0.61914 -0.17237 0.71949
 H510 H 0.57378 -0.12479 0.67491
 H511 H 0.67098 -0.12569 0.57261
 H512 H 0.71601 -0.17322 0.61748
 C513 C 0.67008 0.32395 0.17158
 C514 C 0.62994 0.33772 0.18759
 C515 C 0.60418 0.36499 0.16232
 C516 C 0.72047 0.27604 0.22148
 C517 C 0.65833 0.36411 0.10456
 C518 C 0.68403 0.33686 0.12986
 C519 C 0.69748 0.29767 0.19849
 C520 C 0.61838 0.37882 0.12077
 H521 H 0.61886 0.32789 0.21986
 H522 H 0.57356 0.37583 0.17561
 H523 H 0.67007 0.37424 0.07265
 H524 H 0.71503 0.32637 0.11717
 C525 C 0.82429 0.17125 0.17390
 C526 C 0.83712 0.18444 0.13189
 C527 C 0.86420 0.15851 0.10638
 C528 C 0.77527 0.22191 0.22294
 C529 C 0.86523 0.10564 0.16454
 C530 C 0.83813 0.13165 0.19004
 C531 C 0.79756 0.19871 0.20063
 C532 C 0.87884 0.11902 0.12260
 H533 H 0.82657 0.21498 0.11904
 H534 H 0.87413 0.16966 0.07421
 H535 H 0.87602 0.07541 0.17789
 H536 H 0.82835 0.12109 0.22250
 C537 C 0.82456 0.67191 0.67302
 C538 C 0.83774 0.68562 0.63129
 C539 C 0.86468 0.65981 0.60549
 C540 C 0.77573 0.72214 0.72269
 C541 C 0.86484 0.60606 0.66280
 C542 C 0.83789 0.63194 0.68857
 C543 C 0.79795 0.69916 0.70008
 C544 C 0.87881 0.61993 0.62116
 H545 H 0.82757 0.71647 0.61889
 H546 H 0.87492 0.67134 0.57355
 H547 H 0.87523 0.57552 0.67572
 H548 H 0.82784 0.62098 0.72080
 C549 C 0.32818 0.17625 0.67093
 C550 C 0.31389 0.16277 0.62943
 C551 C 0.33969 0.13569 0.60386
 C552 C 0.27783 0.22394 0.72135
 C553 C 0.39457 0.13616 0.66093
 C554 C 0.36872 0.16325 0.68644
 C555 C 0.30078 0.20239 0.69813
 C556 C 0.38005 0.12173 0.61961
 H557 H 0.28257 0.17269 0.61713
 H558 H 0.32771 0.12508 0.57215
 H559 H 0.42552 0.12592 0.67385
 H560 H 0.38006 0.17355 0.71853
 C561 C 0.32683 0.67667 0.17290
 C562 C 0.31285 0.66330 0.13123
 C563 C 0.33882 0.63628 0.10569
 C564 C 0.27630 0.72496 0.22300
 C565 C 0.39328 0.63640 0.16311
 C566 C 0.36725 0.66344 0.18861
 C567 C 0.29932 0.70310 0.19994
 C568 C 0.37912 0.62222 0.12156
 H569 H 0.28165 0.67335 0.11871
 H570 H 0.32706 0.62588 0.07382
 H571 H 0.42414 0.62609 0.17619
 H572 H 0.37842 0.67360 0.22080
   
