data_POSCAR
  _audit_creation_date              2014-09-24
  _audit_creation_method            'ToBaCCo'
  _symmetry_space_group_name_H-M    'P1'
  _symmetry_Int_Tables_number       1
  _symmetry_cell_setting            triclinic
  loop_
  _symmetry_equiv_pos_as_xyz
 x,y,z
_cell_length_a 35.2717
_cell_length_b 37.0595
_cell_length_c 35.2493
_cell_angle_alpha 89.994300
_cell_angle_beta 89.983400
_cell_angle_gamma 89.983000
loop_
  _atom_site_label
  _atom_site_type_symbol
  _atom_site_fract_x
  _atom_site_fract_y
  _atom_site_fract_z
C1 C 0.24982 0.24981 0.24993
 C2 C 0.74998 0.74979 0.24999
 C3 C 0.74999 0.25010 0.75004
 C4 C 0.25016 0.75013 0.74988
 C5 C 0.05303 0.05420 0.01341
 H6 H 0.05384 0.05575 -0.01723
 C7 C 0.07524 0.07757 0.03513
 H8 H 0.09336 0.09712 0.02124
 C9 C 0.02810 0.02715 0.06908
 H10 H 0.00929 0.00789 0.08224
 C11 C 0.04985 0.05001 0.09184
 H12 H 0.04801 0.04801 0.12245
 N13 N 0.03042 0.02932 0.03059
 C14 C 0.01508 -0.05601 -0.05337
 H15 H -0.01555 -0.05753 -0.05414
 C16 C 0.03675 -0.07930 -0.07575
 H17 H 0.02283 -0.09877 -0.09395
 C18 C 0.07074 -0.02906 -0.02843
 H19 H 0.08392 -0.00986 -0.00957
 C20 C 0.09346 -0.05186 -0.05033
 H21 H 0.12406 -0.04988 -0.04855
 Zn22 Zn 0.00079 -0.00094 -0.00095
 N23 N 0.03227 -0.03121 -0.03068
 C24 C -0.02673 0.02730 -0.07087
 N25 N -0.02889 0.02941 -0.03237
 C26 C -0.05147 0.05424 -0.01506
 C27 C -0.07385 0.07759 -0.03664
 C28 C -0.04865 0.05016 -0.09351
 C29 C -0.01353 -0.05610 0.05137
 C30 C -0.03522 -0.07934 0.07377
 C31 C -0.09191 -0.05177 0.04840
 C32 C -0.06917 -0.02903 0.02647
 N33 N -0.03070 -0.03125 0.02871
 H34 H -0.00796 0.00806 -0.08414
 H35 H -0.05216 0.05573 0.01559
 H36 H -0.09198 0.09707 -0.02263
 H37 H -0.04697 0.04818 -0.12413
 H38 H 0.01709 -0.05768 0.05212
 H39 H -0.02133 -0.09884 0.09197
 H40 H -0.12250 -0.04970 0.04665
 H41 H -0.08233 -0.00978 0.00763
 C42 C 0.07629 -0.07709 -0.07430
 C43 C 0.07372 0.07534 0.07470
 C44 C -0.07477 -0.07703 0.07236
 C45 C -0.07251 0.07541 -0.07621
 C46 C 0.05352 0.55595 0.51512
 H47 H 0.05426 0.55741 0.48447
 C48 C 0.07589 0.57928 0.53671
 H49 H 0.09407 0.59873 0.52271
 C50 C 0.02863 0.52913 0.57093
 H51 H 0.00978 0.50996 0.58419
 C52 C 0.05054 0.55197 0.59357
 H53 H 0.04878 0.55005 0.62419
 N54 N 0.03085 0.53120 0.53243
 C55 C 0.01510 0.44561 0.44888
 H56 H -0.01553 0.44412 0.44828
 C57 C 0.03661 0.42221 0.42649
 H58 H 0.02258 0.40269 0.40844
 C59 C 0.07093 0.47257 0.47342
 H60 H 0.08423 0.49184 0.49213
 C61 C 0.09350 0.44966 0.45149
 H62 H 0.12411 0.45162 0.45310
 Zn63 Zn 0.00109 0.50089 0.50105
 N64 N 0.03244 0.47047 0.47137
 C65 C -0.02639 0.52888 0.43104
 N66 N -0.02857 0.53116 0.46953
 C67 C -0.05121 0.55604 0.48671
 C68 C -0.07364 0.57924 0.46499
 C69 C -0.04834 0.55158 0.40828
 C70 C -0.01323 0.44588 0.55352
 C71 C -0.03493 0.42255 0.57582
 C72 C -0.09162 0.45000 0.55031
 C73 C -0.06887 0.47284 0.52849
 N74 N -0.03041 0.47069 0.53082
 H75 H -0.00757 0.50962 0.41788
 H76 H -0.05192 0.55766 0.51734
 H77 H -0.09182 0.59875 0.47888
 H78 H -0.04664 0.54946 0.37767
 H79 H 0.01739 0.44435 0.55434
 H80 H -0.02104 0.40305 0.59401
 H81 H -0.12221 0.45197 0.54844
 H82 H -0.08203 0.49205 0.50960
 C83 C 0.07617 0.42437 0.42772
 C84 C 0.07447 0.57717 0.57629
 C85 C -0.07448 0.42473 0.57426
 C86 C -0.07228 0.57686 0.42542
 C87 C 0.55146 0.05456 0.51483
 H88 H 0.55211 0.05601 0.48419
 C89 C 0.57381 0.07798 0.53635
 H90 H 0.59188 0.09747 0.52229
 C91 C 0.52684 0.02767 0.57073
 H92 H 0.50811 0.00844 0.58405
 C93 C 0.54873 0.05060 0.59330
 H94 H 0.54707 0.04868 0.62392
 N95 N 0.52895 0.02973 0.53222
 C96 C 0.51363 -0.05589 0.44863
 H97 H 0.48301 -0.05748 0.44792
 C98 C 0.53533 -0.07914 0.42624
 H99 H 0.52143 -0.09867 0.40808
 C100 C 0.56927 -0.02876 0.47342
 H101 H 0.58243 -0.00949 0.49221
 C102 C 0.59201 -0.05153 0.45150
 H103 H 0.62260 -0.04944 0.45321
 Zn104 Zn 0.49930 -0.00068 0.50087
 N105 N 0.53080 -0.03100 0.47123
 C106 C 0.47191 0.02733 0.43083
 N107 N 0.46961 0.02953 0.46932
 C108 C 0.44697 0.05441 0.48648
 C109 C 0.42469 0.07773 0.46474
 C110 C 0.45011 0.05015 0.40805
 C111 C 0.48511 -0.05569 0.55339
 C112 C 0.46347 -0.07899 0.57578
 C113 C 0.40671 -0.05166 0.55029
 C114 C 0.42940 -0.02884 0.52839
 N115 N 0.46787 -0.03093 0.53066
 H116 H 0.49074 0.00807 0.41768
 H117 H 0.44617 0.05598 0.51711
 H118 H 0.40654 0.09727 0.47862
 H119 H 0.45194 0.04812 0.37744
 H120 H 0.51573 -0.05717 0.55418
 H121 H 0.47742 -0.09844 0.59400
 H122 H 0.37612 -0.04972 0.54848
 H123 H 0.41619 -0.00967 0.50949
 C124 C 0.57487 -0.07682 0.42760
 C125 C 0.57252 0.07587 0.57593
 C126 C 0.42392 -0.07685 0.57429
 C127 C 0.42621 0.07547 0.42518
 C128 C 0.55120 0.55593 0.01348
 H129 H 0.55196 0.55749 -0.01716
 C130 C 0.57361 0.57916 0.03517
 H131 H 0.59182 0.59862 0.02125
 C132 C 0.52629 0.52892 0.06918
 H133 H 0.50744 0.50971 0.08236
 C134 C 0.54822 0.55165 0.09192
 H135 H 0.54647 0.54960 0.12253
 N136 N 0.52853 0.53112 0.03068
 C137 C 0.51325 0.44575 -0.05319
 H138 H 0.48262 0.44427 -0.05405
 C139 C 0.53495 0.42238 -0.07544
 H140 H 0.52107 0.40289 -0.09364
 C141 C 0.56887 0.47265 -0.02810
 H142 H 0.58202 0.49185 -0.00921
 C143 C 0.59163 0.44977 -0.04987
 H144 H 0.62222 0.45169 -0.04796
 Zn145 Zn 0.49889 0.50084 -0.00081
 N146 N 0.53041 0.47056 -0.03049
 C147 C 0.47148 0.52903 -0.07077
 N148 N 0.46918 0.53113 -0.03228
 C149 C 0.44646 0.55590 -0.01505
 C150 C 0.42412 0.57921 -0.03672
 C151 C 0.44962 0.55185 -0.09349
 C152 C 0.48480 0.44565 0.05145
 C153 C 0.46324 0.42226 0.07381
 C154 C 0.40640 0.44968 0.04861
 C155 C 0.42901 0.47258 0.02672
 N156 N 0.46749 0.47048 0.02888
 H157 H 0.49036 0.50984 -0.08398
 H158 H 0.44565 0.55738 0.01559
 H159 H 0.40589 0.59866 -0.02278
 H160 H 0.45144 0.54990 -0.12410
 H161 H 0.51543 0.44417 0.05214
 H162 H 0.47724 0.40277 0.09193
 H163 H 0.37579 0.45163 0.04691
 H164 H 0.41575 0.49181 0.00794
 C165 C 0.57450 0.42451 -0.07383
 C166 C 0.57220 0.57687 0.07474
 C167 C 0.42368 0.42441 0.07246
 C168 C 0.42563 0.57706 -0.07629
 C169 C 0.18497 -0.18659 -0.18376
 N170 N 0.20074 -0.16724 -0.15518
 N171 N 0.17931 -0.14595 -0.13353
 C172 C 0.14147 -0.14337 -0.13980
 N173 N 0.12570 -0.16273 -0.16838
 N174 N 0.14713 -0.18402 -0.19004
 C175 C 0.20810 -0.20927 -0.20728
 C176 C 0.22763 -0.22822 -0.22715
 C177 C 0.11846 -0.12021 -0.11668
 C178 C 0.09920 -0.10062 -0.09732
 C179 C 0.18379 0.31439 0.31776
 N180 N 0.14652 0.31933 0.30986
 N181 N 0.12530 0.34071 0.33163
 C182 C 0.14072 0.35779 0.36196
 N183 N 0.17799 0.35283 0.36986
 N184 N 0.19921 0.33145 0.34809
 C185 C 0.20672 0.29164 0.29412
 C186 C 0.22611 0.27267 0.27420
 C187 C 0.11797 0.38107 0.38520
 C188 C 0.09890 0.40074 0.40464
 C189 C 0.68362 -0.18585 0.31771
 N190 N 0.64581 -0.18313 0.31133
 N191 N 0.62437 -0.16194 0.33309
 C192 C 0.64009 -0.14283 0.36188
 N193 N 0.67790 -0.14557 0.36827
 N194 N 0.69934 -0.16676 0.34651
 C195 C 0.70675 -0.20845 0.29412
 C196 C 0.72624 -0.22735 0.27423
 C197 C 0.61708 -0.11978 0.38509
 C198 C 0.59780 -0.10027 0.40452
 C199 C 0.68353 0.31457 -0.18244
 N200 N 0.69952 0.33575 -0.15546
 N201 N 0.67802 0.35711 -0.13395
 C202 C 0.63988 0.35794 -0.13878
 N203 N 0.62388 0.33675 -0.16575
 N204 N 0.64539 0.31539 -0.18726
 C205 C 0.70672 0.29187 -0.20586
 C206 C 0.72625 0.27293 -0.22569
 C207 C 0.61678 0.38119 -0.11586
 C208 C 0.59746 0.40087 -0.09667
 C209 C -0.18250 0.18506 -0.18414
 N210 N -0.16545 0.19805 -0.15248
 N211 N -0.14369 0.17666 -0.13126
 C212 C -0.13834 0.14164 -0.14107
 N213 N -0.15538 0.12865 -0.17273
 N214 N -0.17713 0.15004 -0.19395
 C215 C -0.20601 0.20801 -0.20696
 C216 C -0.22584 0.22711 -0.22629
 C217 C -0.11506 0.11853 -0.11818
 C218 C -0.09560 0.09895 -0.09902
 C219 C -0.18236 0.68547 0.31643
 N220 N -0.15416 0.66566 0.30058
 N221 N -0.13239 0.64454 0.32207
 C222 C -0.13816 0.64259 0.36006
 N223 N -0.16636 0.66240 0.37591
 N224 N -0.18813 0.68352 0.35442
 C225 C -0.20593 0.70803 0.29326
 C226 C -0.22581 0.72692 0.27374
 C227 C -0.11490 0.61963 0.38314
 C228 C -0.09543 0.60022 0.40246
 C229 C 0.31730 0.18524 0.31629
 N230 N 0.34459 0.16444 0.30027
 N231 N 0.36615 0.14309 0.32173
 C232 C 0.36107 0.14190 0.35985
 N233 N 0.33378 0.16271 0.37587
 N234 N 0.31222 0.18406 0.35442
 C235 C 0.29387 0.20797 0.29315
 C236 C 0.27405 0.22694 0.27366
 C237 C 0.38407 0.11868 0.38290
 C238 C 0.40332 0.09905 0.40220
 C239 C 0.31639 0.68661 -0.18509
 N240 N 0.32282 0.69486 -0.14816
 N241 N 0.34444 0.67353 -0.12674
 C242 C 0.36027 0.64331 -0.14160
 N243 N 0.35384 0.63507 -0.17852
 N244 N 0.33222 0.65640 -0.19995
 C245 C 0.29291 0.70940 -0.20812
 C246 C 0.27307 0.72842 -0.22760
 C247 C 0.38334 0.62019 -0.11850
 C248 C 0.40265 0.60061 -0.09921
 C249 C -0.18368 -0.18589 0.18223
 N250 N -0.19992 -0.16170 0.15836
 N251 N -0.17845 -0.14053 0.13661
 C252 C -0.14011 -0.14292 0.13807
 N253 N -0.12387 -0.16712 0.16194
 N254 N -0.14534 -0.18829 0.18369
 C255 C -0.20679 -0.20848 0.20583
 C256 C -0.22628 -0.22738 0.22574
 C257 C -0.11702 -0.11992 0.11487
 C258 C -0.09771 -0.10045 0.09545
 C259 C -0.18345 0.31475 0.68284
 N260 N -0.19913 0.33427 0.65433
 N261 N -0.17764 0.35566 0.63285
 C262 C -0.13981 0.35817 0.63924
 N263 N -0.12412 0.33864 0.66775
 N264 N -0.14562 0.31725 0.68922
 C265 C -0.20665 0.29199 0.70618
 C266 C -0.22621 0.27300 0.72591
 C267 C -0.11674 0.38144 0.61632
 C268 C -0.09743 0.40111 0.59712
 C269 C 0.31531 -0.18651 0.68361
 N270 N 0.29914 -0.16471 0.65729
 N271 N 0.32055 -0.14338 0.63566
 C272 C 0.35879 -0.14322 0.63970
 N273 N 0.37497 -0.16503 0.66602
 N274 N 0.35355 -0.18636 0.68765
 C275 C 0.29222 -0.20922 0.70710
 C276 C 0.27270 -0.22820 0.72696
 C277 C 0.38180 -0.12003 0.61662
 C278 C 0.40104 -0.10042 0.59729
 C279 C 0.31577 0.31449 0.18215
 N280 N 0.29929 0.33867 0.15843
 N281 N 0.32054 0.36005 0.13670
 C282 C 0.35890 0.35790 0.13804
 N283 N 0.37538 0.33371 0.16175
 N284 N 0.35413 0.31232 0.18348
 C285 C 0.29287 0.29170 0.20576
 C286 C 0.27351 0.27270 0.22567
 C287 C 0.38176 0.38114 0.11487
 C288 C 0.40090 0.40080 0.09549
 C289 C 0.18242 0.18526 0.18353
 N290 N 0.15356 0.16621 0.19919
 N291 N 0.13204 0.14484 0.17774
 C292 C 0.13873 0.14188 0.13998
 N293 N 0.16758 0.16093 0.12431
 N294 N 0.18910 0.18230 0.14576
 C295 C 0.20582 0.20799 0.20669
 C296 C 0.22561 0.22695 0.22619
 C297 C 0.11577 0.11862 0.11695
 C298 C 0.09656 0.09896 0.09765
 C299 C 0.18386 0.68688 0.68467
 N300 N 0.19144 0.68269 0.64720
 N301 N 0.16979 0.66138 0.62581
 C302 C 0.13991 0.64361 0.64125
 N303 N 0.13233 0.64782 0.67871
 N304 N 0.15398 0.66913 0.70010
 C305 C 0.20736 0.70955 0.70778
 C306 C 0.22722 0.72849 0.72732
 C307 C 0.11681 0.62040 0.61831
 C308 C 0.09747 0.60076 0.59911
 C309 C 0.68225 0.18576 0.68374
 N310 N 0.69014 0.18094 0.64642
 N311 N 0.66840 0.15961 0.62515
 C312 C 0.63812 0.14245 0.64056
 N313 N 0.63023 0.14728 0.67787
 N314 N 0.65197 0.16862 0.69914
 C315 C 0.70586 0.20844 0.70675
 C316 C 0.72576 0.22734 0.72621
 C317 C 0.61494 0.11919 0.61776
 C318 C 0.59555 0.09951 0.59867
 C319 C 0.68227 0.68554 0.18357
 N320 N 0.65295 0.66707 0.19916
 N321 N 0.63117 0.64595 0.17770
 C322 C 0.63805 0.64266 0.14000
 N323 N 0.66736 0.66114 0.12440
 N324 N 0.68914 0.68226 0.14587
 C325 C 0.70586 0.70808 0.20673
 C326 C 0.72575 0.72695 0.22624
 C327 C 0.61480 0.61969 0.11696
 C328 C 0.59533 0.60025 0.09767
   
