data_POSCAR
  _audit_creation_date              2014-09-24
  _audit_creation_method            'ToBaCCo'
  _symmetry_space_group_name_H-M    'P1'
  _symmetry_Int_Tables_number       1
  _symmetry_cell_setting            triclinic
  loop_
  _symmetry_equiv_pos_as_xyz
 x,y,z
_cell_length_a 33.5044
_cell_length_b 33.9796
_cell_length_c 33.0136
_cell_angle_alpha 89.460800
_cell_angle_beta 91.300000
_cell_angle_gamma 91.492700
loop_
  _atom_site_label
  _atom_site_type_symbol
  _atom_site_fract_x
  _atom_site_fract_y
  _atom_site_fract_z
N1 N 0.59059 0.70338 0.61512
 N2 N 0.57231 0.68553 0.64524
 C3 C 0.54234 0.70801 0.65731
 C4 C 0.54233 0.74196 0.63397
 C5 C 0.57310 0.73794 0.60725
 H6 H 0.52148 0.70010 0.68072
 H7 H 0.58112 0.75802 0.58298
 Cu8 Cu 0.58842 0.63394 0.66458
 Cu9 Cu 0.63391 0.67929 0.58665
 Cu10 Cu 0.66275 0.58705 0.62044
 N11 N 0.60500 0.58235 0.68344
 N12 N 0.63345 0.56380 0.66540
 C13 C 0.63843 0.52862 0.68359
 C14 C 0.61140 0.52453 0.71473
 C15 C 0.59125 0.55975 0.71408
 H16 H 0.66157 0.50851 0.67608
 H17 H 0.56772 0.56792 0.73398
 N18 N 0.68866 0.61538 0.57534
 N19 N 0.67712 0.65012 0.56192
 C20 C 0.69923 0.66080 0.52985
 C21 C 0.72588 0.63144 0.52299
 C22 C 0.71872 0.60328 0.55246
 H23 H 0.69619 0.68777 0.51255
 H24 H 0.73382 0.57571 0.55626
 H25 H 0.61690 0.62153 0.59872
 H26 H 0.65370 0.64515 0.63480
 N27 N 0.92535 0.32228 0.10152
 N28 N 0.94097 0.33538 0.13580
 C29 C 0.97340 0.31431 0.14556
 C30 C 0.97899 0.28694 0.11526
 C31 C 0.94709 0.29249 0.08839
 H32 H 0.99232 0.31940 0.17204
 H33 H 0.93918 0.27522 0.06194
 Cu34 Cu 0.91813 0.37983 0.16301
 Cu35 Cu 0.87894 0.34552 0.07533
 Cu36 Cu 0.83837 0.42542 0.12250
 N37 N 0.89466 0.42431 0.18951
 N38 N 0.86439 0.44281 0.17282
 C39 C 0.85622 0.47418 0.19551
 C40 C 0.88306 0.47572 0.22795
 C41 C 0.90644 0.44308 0.22365
 H42 H 0.83304 0.49490 0.18854
 H43 H 0.93058 0.43409 0.24366
 N44 N 0.81636 0.40323 0.07147
 N45 N 0.83207 0.37296 0.05346
 C46 C 0.81091 0.36500 0.01923
 C47 C 0.78069 0.39169 0.01537
 C48 C 0.78458 0.41515 0.04924
 H49 H 0.81660 0.34126 -0.00126
 H50 H 0.76564 0.43913 0.05693
 H51 H 0.88853 0.40137 0.09863
 H52 H 0.85460 0.36736 0.12736
 N53 N 0.41958 0.18859 -0.09844
 N54 N 0.43652 0.17268 -0.12964
 C55 C 0.46946 0.19426 -0.13889
 C56 C 0.47349 0.22508 -0.11181
 C57 C 0.44080 0.22093 -0.08713
 H58 H 0.48913 0.18814 -0.16344
 H59 H 0.43287 0.24024 -0.06291
 Cu60 Cu 0.41325 0.12585 -0.15545
 Cu61 Cu 0.37218 0.16564 -0.07365
 Cu62 Cu 0.33411 0.07865 -0.11453
 N63 N 0.39051 0.07757 -0.17880
 N64 N 0.36085 0.05845 -0.16134
 C65 C 0.35068 0.02643 -0.18323
 C66 C 0.37433 0.02596 -0.21700
 C67 C 0.39986 0.05847 -0.21279
 H68 H 0.32728 0.00535 -0.17552
 H69 H 0.42293 0.06780 -0.23342
 N70 N 0.31084 0.10403 -0.06758
 N71 N 0.32466 0.13773 -0.05263
 C72 C 0.30070 0.14883 -0.02279
 C73 C 0.27006 0.12112 -0.01934
 C74 C 0.27773 0.09283 -0.04769
 H75 H 0.30450 0.17558 -0.00549
 H76 H 0.25987 0.06652 -0.05388
 H77 H 0.38355 0.10882 -0.09070
 H78 H 0.34913 0.13727 -0.12457
 N79 N 0.07974 0.81591 0.38989
 N80 N 0.06533 0.83141 0.35624
 C81 C 0.03346 0.80977 0.34333
 C82 C 0.02794 0.77814 0.36975
 C83 C 0.05746 0.78379 0.39956
 H84 H 0.01493 0.81741 0.31734
 H85 H 0.06346 0.76488 0.42540
 Cu86 Cu 0.08998 0.87755 0.33125
 Cu87 Cu 0.12807 0.83692 0.41653
 Cu88 Cu 0.16654 0.92525 0.37910
 N89 N 0.10649 0.93067 0.31611
 N90 N 0.13614 0.94950 0.33486
 C91 C 0.14147 0.98518 0.31736
 C92 C 0.11330 0.98902 0.28628
 C93 C 0.09207 0.95355 0.28604
 H94 H 0.16454 1.00651 0.32605
 H95 H 0.06865 0.94462 0.26472
 N96 N 0.19244 0.89576 0.42376
 N97 N 0.17698 0.86278 0.43881
 C98 C 0.20112 0.84980 0.46892
 C99 C 0.23393 0.87520 0.47235
 C100 C 0.22707 0.90439 0.44369
 H101 H 0.19534 0.82373 0.48710
 H102 H 0.24615 0.92983 0.43769
 H103 H 0.11647 0.89410 0.39814
 H104 H 0.15283 0.86655 0.36761
 C105 C 0.08828 0.15966 0.12017
 N106 N 0.11754 0.15584 0.09278
 C107 C 0.14378 0.12621 0.09641
 N108 N 0.14110 0.10042 0.12790
 C109 C 0.11198 0.10388 0.15557
 N110 N 0.08619 0.13404 0.15195
 C111 C 0.41734 0.85602 0.62942
 N112 N 0.38928 0.85320 0.59921
 C113 C 0.35679 0.87625 0.59906
 N114 N 0.35321 0.90301 0.62896
 C115 C 0.38054 0.90556 0.65993
 N116 N 0.41270 0.88197 0.65991
 C117 C 0.90455 0.65834 0.37311
 N118 N 0.90759 0.62671 0.34876
 C119 C 0.88186 0.59540 0.35168
 N120 N 0.85189 0.59644 0.37866
 C121 C 0.84854 0.62799 0.40327
 N122 N 0.87529 0.65866 0.40091
 C123 C 0.58850 0.35524 -0.12125
 N124 N 0.62138 0.35719 -0.09643
 C125 C 0.65011 0.38550 -0.10187
 N126 N 0.64602 0.41205 -0.13255
 C127 C 0.61380 0.40977 -0.15812
 N128 N 0.58520 0.38130 -0.15258
 C129 C 0.02071 0.24051 0.07708
 C130 C 0.00871 0.25811 0.11382
 C131 C 0.02533 0.24424 0.15061
 C132 C 0.05038 0.21221 0.15181
 C133 C 0.05983 0.19241 0.11644
 C134 C 0.04393 0.20586 0.07867
 C135 C 0.01239 0.25760 0.03865
 C136 C 0.02113 0.23816 0.00308
 C137 C 0.03884 0.20167 0.00493
 C138 C 0.05028 0.18566 0.04227
 H139 H 0.00040 0.28668 0.03553
 H140 H 0.01393 0.25140 -0.02604
 H141 H 0.04457 0.18607 -0.02270
 H142 H 0.06357 0.15718 0.04218
 H143 H 0.01764 0.25697 0.17924
 H144 H 0.06244 0.20270 0.18092
 C145 C 0.52234 0.81366 0.63641
 C146 C 0.51215 0.77295 0.63379
 C147 C 0.47195 0.76102 0.62997
 C148 C 0.44196 0.78851 0.62802
 C149 C 0.45106 0.82887 0.63045
 C150 C 0.49153 0.84190 0.63439
 C151 C 0.56237 0.82696 0.64174
 C152 C 0.57198 0.86708 0.64356
 C153 C 0.54207 0.89466 0.64018
 C154 C 0.50221 0.88236 0.63558
 H155 H 0.58654 0.80662 0.64489
 H156 H 0.60282 0.87684 0.64750
 H157 H 0.54979 0.92577 0.64122
 H158 H 0.48007 0.90485 0.63265
 H159 H 0.46370 0.73004 0.62787
 H160 H 0.41119 0.77810 0.62510
 C161 C 0.98017 0.73372 0.33111
 C162 C 0.99821 0.74778 0.36806
 C163 C 0.98478 0.73160 0.40488
 C164 C 0.95338 0.70404 0.40589
 C165 C 0.93413 0.69129 0.37021
 C166 C 0.94658 0.70703 0.33248
 C167 C 0.99624 0.74290 0.29276
 C168 C 0.97677 0.73081 0.25707
 C169 C 0.94145 0.70859 0.25863
 C170 C 0.92654 0.69649 0.29587
 H171 H 1.02473 0.75798 0.28966
 H172 H 0.98927 0.73863 0.22804
 H173 H 0.92606 0.69985 0.23083
 H174 H 0.89915 0.67895 0.29559
 H175 H 0.99771 0.74118 0.43360
 H176 H 0.94447 0.69200 0.43492
 C177 C 0.52110 0.27375 -0.07552
 C178 C 0.50416 0.25744 -0.11169
 C179 C 0.51504 0.27370 -0.14911
 C180 C 0.54163 0.30572 -0.15131
 C181 C 0.55796 0.32319 -0.11617
 C182 C 0.54654 0.30805 -0.07768
 C183 C 0.51408 0.25637 -0.03719
 C184 C 0.52852 0.27422 -0.00178
 C185 C 0.55021 0.30959 -0.00373
 C186 C 0.55916 0.32647 -0.04118
 H187 H 0.49808 0.22855 -0.03408
 H188 H 0.52252 0.26073 0.02736
 H189 H 0.56046 0.32387 0.02391
 H190 H 0.57529 0.35438 -0.04093
 H191 H 0.50251 0.26175 -0.17707
 H192 H 0.54987 0.31668 -0.18098
 C193 C 0.07335 0.03413 0.23941
 C194 C 0.11040 0.02129 0.25582
 C195 C 0.14598 0.03709 0.24036
 C196 C 0.14553 0.06382 0.20822
 C197 C 0.10951 0.07550 0.18995
 C198 C 0.07282 0.06004 0.20509
 C199 C 0.03671 0.02209 0.25657
 C200 C 0.00047 0.03255 0.23855
 C201 C -0.00007 0.05506 0.20319
 C202 C 0.03560 0.06864 0.18645
 H203 H 0.03563 0.00504 0.28433
 H204 H -0.02735 0.02279 0.25187
 H205 H -0.02832 0.06226 0.18875
 H206 H 0.03334 0.08519 0.15850
 H207 H 0.17458 0.02779 0.25245
 H208 H 0.17382 0.07528 0.19728
 C209 C 0.61672 0.45360 -0.26505
 C210 C 0.60800 0.49359 -0.25649
 C211 C 0.59754 0.50316 -0.21677
 C212 C 0.59942 0.47555 -0.18546
 C213 C 0.61087 0.43715 -0.19276
 C214 C 0.61921 0.42559 -0.23265
 C215 C 0.62039 0.43995 -0.30512
 C216 C 0.63004 0.40106 -0.31265
 C217 C 0.63530 0.37463 -0.28070
 C218 C 0.62961 0.38653 -0.24104
 H219 H 0.61433 0.45849 -0.33114
 H220 H 0.63305 0.39127 -0.34352
 H221 H 0.64290 0.34451 -0.28674
 H222 H 0.63296 0.36477 -0.21713
 H223 H 0.59024 0.53296 -0.20895
 H224 H 0.59254 0.48446 -0.15502
 C225 C 0.33737 0.97933 0.73394
 C226 C 0.37344 0.99633 0.75016
 C227 C 0.40999 0.98322 0.73647
 C228 C 0.41146 0.95348 0.70790
 C229 C 0.37645 0.93506 0.69248
 C230 C 0.33889 0.94693 0.70683
 C231 C 0.29970 0.99420 0.74333
 C232 C 0.26451 0.97525 0.72999
 C233 C 0.26605 0.94125 0.70709
 C234 C 0.30274 0.92708 0.69562
 H235 H 0.29690 1.02094 0.76032
 H236 H 0.23591 0.98677 0.73786
 H237 H 0.23865 0.92596 0.69783
 H238 H 0.30217 0.90003 0.67874
 H239 H 0.43784 0.99585 0.74832
 H240 H 0.44043 0.94502 0.69751
 C241 C 0.92201 0.52219 0.27577
 C242 C 0.88535 0.50571 0.26038
 C243 C 0.84940 0.51760 0.27670
 C244 C 0.84904 0.54541 0.30734
 C245 C 0.88468 0.56196 0.32332
 C246 C 0.92171 0.54887 0.30890
 C247 C 0.95897 0.51384 0.25836
 C248 C 0.99481 0.52812 0.27552
 C249 C 0.99464 0.55105 0.31014
 C250 C 0.95858 0.56139 0.32677
 H251 H 0.96077 0.49694 0.23099
 H252 H 1.02288 0.52107 0.26206
 H253 H 1.02260 0.56124 0.32395
 H254 H 0.96009 0.57860 0.35413
 H255 H 0.82113 0.50540 0.26541
 H256 H 0.82045 0.55484 0.31788
 C257 C 0.19589 0.11592 -0.00445
 C258 C 0.23625 0.12189 0.00868
 C259 C 0.24499 0.12813 0.04987
 C260 C 0.21472 0.12821 0.07809
 C261 C 0.17482 0.12208 0.06595
 C262 C 0.16513 0.11482 0.02466
 C263 C 0.18510 0.11206 -0.04589
 C264 C 0.14545 0.10484 -0.05797
 C265 C 0.11583 0.10133 -0.02921
 C266 C 0.12546 0.10616 0.01175
 H267 H 0.20686 0.11518 -0.06942
 H268 H 0.13770 0.10174 -0.08981
 H269 H 0.08520 0.09506 -0.03870
 H270 H 0.10174 0.10253 0.03322
 H271 H 0.27562 0.13282 0.06034
 H272 H 0.22244 0.13382 0.10960
 C273 C 0.74471 0.62854 0.44918
 C274 C 0.75570 0.63022 0.49086
 C275 C 0.79613 0.63109 0.50250
 C276 C 0.82575 0.63095 0.47359
 C277 C 0.81577 0.62913 0.43225
 C278 C 0.77502 0.62812 0.41958
 C279 C 0.70425 0.62666 0.43624
 C280 C 0.69391 0.62540 0.39511
 C281 C 0.72349 0.62597 0.36618
 C282 C 0.76368 0.62736 0.37812
 H283 H 0.68029 0.62592 0.45765
 H284 H 0.66276 0.62407 0.38563
 H285 H 0.71525 0.62528 0.33430
 H286 H 0.78562 0.62810 0.35458
 H287 H 0.80483 0.63235 0.53429
 H288 H 0.85679 0.63177 0.48360
 C289 C 0.75715 0.39244 -0.05839
 C290 C 0.74889 0.39253 -0.01641
 C291 C 0.70921 0.39122 -0.00401
 C292 C 0.67782 0.38867 -0.03224
 C293 C 0.68504 0.38779 -0.07382
 C294 C 0.72498 0.38935 -0.08734
 C295 C 0.79664 0.39592 -0.07234
 C296 C 0.80440 0.39448 -0.11359
 C297 C 0.77315 0.38960 -0.14171
 C298 C 0.73381 0.38698 -0.12889
 H299 H 0.82183 0.40022 -0.05168
 H300 H 0.83484 0.39701 -0.12379
 H301 H 0.77942 0.38797 -0.17366
 H302 H 0.71065 0.38269 -0.15185
 H303 H 0.70245 0.39123 0.02793
 H304 H 0.64748 0.38751 -0.02148
 C305 C 0.28551 0.83752 0.51439
 C306 C 0.26753 0.87335 0.50239
 C307 C 0.28005 0.90837 0.52133
 C308 C 0.30882 0.90839 0.55236
 C309 C 0.32580 0.87331 0.56619
 C310 C 0.31323 0.83714 0.54791
 C311 C 0.27706 0.80205 0.49351
 C312 C 0.29237 0.76657 0.50748
 C313 C 0.31628 0.76563 0.54240
 C314 C 0.32659 0.80041 0.56256
 H315 H 0.25920 0.80136 0.46587
 H316 H 0.28527 0.73959 0.49136
 H317 H 0.32716 0.73783 0.55378
 H318 H 0.34433 0.79775 0.59006
 H319 H 0.26687 0.93605 0.51260
 H320 H 0.31782 0.93630 0.56579
   
