data_POSCAR
  _audit_creation_date              2014-09-24
  _audit_creation_method            'ToBaCCo'
  _symmetry_space_group_name_H-M    'P1'
  _symmetry_Int_Tables_number       1
  _symmetry_cell_setting            triclinic
  loop_
  _symmetry_equiv_pos_as_xyz
 x,y,z
_cell_length_a 34.3511
_cell_length_b 34.3512
_cell_length_c 34.3526
_cell_angle_alpha 90.035000
_cell_angle_beta 90.038100
_cell_angle_gamma 89.962300
loop_
  _atom_site_label
  _atom_site_type_symbol
  _atom_site_fract_x
  _atom_site_fract_y
  _atom_site_fract_z
N1 N 0.30408 0.30853 1.31008
 N2 N 1.18517 0.68506 0.81489
 N3 N 0.68997 -0.19602 0.19149
 N4 N -0.19145 1.18988 -0.30402
 N5 N 0.68741 0.69116 0.69293
 N6 N 0.86229 0.36216 0.13781
 N7 N 0.30717 0.18729 0.80886
 N8 N 0.19121 0.80702 0.31265
 Zn9 Zn 0.00128 1.04696 -0.01657
 Zn10 Zn -0.03220 0.96701 -0.02636
 Zn11 Zn 0.04860 0.97802 0.00537
 Zn12 Zn -0.01997 1.00089 0.05364
 O13 O -0.00067 0.99810 0.00400
 O14 O -0.02783 1.05166 -0.05916
 O15 O -0.00649 0.92603 -0.04674
 O16 O 0.08475 1.01029 -0.01403
 O17 O -0.05322 0.99286 -0.06699
 O18 O 0.04917 1.06139 -0.03078
 O19 O 0.05281 0.93459 -0.02267
 O20 O 0.01321 0.98220 0.08946
 O21 O -0.07242 0.94706 0.00064
 O22 O 0.06393 0.96512 0.05342
 O23 O -0.06325 0.97272 0.05923
 O24 O -0.03250 1.04957 0.06835
 O25 O -0.01620 1.08347 0.01600
 C26 C -0.04923 1.02802 -0.07762
 C27 C 0.02877 0.91556 -0.04315
 C28 C 0.08160 1.04395 -0.02875
 C29 C 0.04696 0.96765 0.08606
 C30 C -0.08238 0.95142 0.03595
 C31 C -0.02987 1.08157 0.05016
 Zn32 Zn 0.48269 0.00205 0.44868
 Zn33 Zn 0.47066 -0.02941 0.52936
 Zn34 Zn 0.55135 -0.01738 0.49790
 Zn35 Zn 0.50212 0.05127 0.51733
 O36 O 0.50163 0.00155 0.49840
 O37 O 0.44007 -0.02706 0.44365
 O38 O 0.49706 -0.06943 0.55062
 O39 O 0.56745 -0.03131 0.45035
 O40 O 0.43064 -0.05067 0.50296
 O41 O 0.51639 -0.01686 0.41364
 O42 O 0.55637 -0.06000 0.52702
 O43 O 0.54968 0.06737 0.53125
 O44 O 0.44940 -0.00301 0.56937
 O45 O 0.58639 0.01631 0.51681
 O46 O 0.47301 0.05631 0.55994
 O47 O 0.48322 0.08632 0.48363
 O48 O 0.46877 0.04961 0.43257
 C49 C 0.42090 -0.04761 0.46746
 C50 C 0.53256 -0.07917 0.54756
 C51 C 0.55050 -0.03036 0.41759
 C52 C 0.58244 0.05042 0.53031
 C53 C 0.45246 0.03249 0.57912
 C54 C 0.46972 0.08237 0.44952
 Zn55 Zn 0.94639 0.47994 0.49907
 Zn56 Zn 1.02639 0.46771 0.53295
 Zn57 Zn 1.01660 0.50119 0.45300
 Zn58 Zn 0.99465 0.54851 0.52194
 O59 O 0.99603 0.49923 0.50186
 O60 O 0.94081 0.43665 0.52725
 O61 O 1.06704 0.44671 0.50710
 O62 O 0.98403 0.48371 0.41650
 O63 O 0.99940 0.42749 0.55290
 O64 O 0.93168 0.46739 0.45040
 O65 O 1.05919 0.47209 0.44830
 O66 O 1.01405 0.58466 0.48967
 O67 O 1.04678 0.49343 0.57394
 O68 O 1.03080 0.54909 0.43858
 O69 O 1.02270 0.55273 0.56537
 O70 O 0.94660 0.56384 0.53483
 O71 O 0.91057 0.51311 0.51776
 C72 C 0.96410 0.41752 0.54854
 C73 C 1.07766 0.45069 0.47195
 C74 C 0.94987 0.47003 0.41840
 C75 C 1.02876 0.58151 0.45601
 C76 C 1.04318 0.52869 0.58440
 C77 C 0.91396 0.54686 0.53231
 Zn78 Zn 0.50104 0.44630 1.02001
 Zn79 Zn 0.46715 0.52630 1.03224
 Zn80 Zn 0.54710 0.51652 0.99875
 Zn81 Zn 0.47816 0.49456 0.95144
 O82 O 0.49824 0.49595 1.00071
 O83 O 0.47287 0.44071 1.06330
 O84 O 0.49299 0.56695 1.05324
 O85 O 0.58361 0.48396 1.01623
 O86 O 0.44720 0.49930 1.07246
 O87 O 0.54972 0.43160 1.03254
 O88 O 0.55179 0.55911 1.02785
 O89 O 0.51042 0.51396 0.91529
 O90 O 0.42615 0.54668 1.00652
 O91 O 0.56151 0.53073 0.95086
 O92 O 0.43472 0.52260 0.94722
 O93 O 0.46526 0.44651 0.93612
 O94 O 0.48235 0.41048 0.98685
 C95 C 0.45157 0.46400 1.08243
 C96 C 0.52815 0.57757 1.04925
 C97 C 0.58172 0.44979 1.02990
 C98 C 0.54408 0.52869 0.91843
 C99 C 0.41569 0.54308 0.97126
 C100 C 0.46779 0.41387 0.95309
 C101 C 1.20993 0.38188 0.43838
 C102 C 1.20569 0.34306 0.41562
 C103 C 1.22577 0.36201 0.38044
 C104 C 1.23056 0.40047 0.40277
 C105 C 1.17054 0.39519 0.42187
 C106 C 1.19067 0.41408 0.38668
 C107 C 1.16583 0.35674 0.39951
 C108 C 1.18634 0.37538 0.36407
 C109 C 1.25532 0.34331 0.35601
 C110 C 1.27845 0.32742 0.33492
 C111 C 1.13859 0.41413 0.44287
 C112 C 1.11123 0.43038 0.45766
 H113 H 1.21924 0.38473 0.46920
 H114 H 1.21222 0.31362 0.42723
 H115 H 1.25751 0.41826 0.40379
 H116 H 1.18418 0.44350 0.37500
 H117 H 1.13891 0.33890 0.39842
 H118 H 1.17693 0.37259 0.33328
 C119 C 0.29283 0.62793 0.94021
 C120 C 0.29854 0.65349 0.90346
 C121 C 0.26504 0.63157 0.88348
 C122 C 0.25874 0.60632 0.91984
 C123 C 0.32135 0.59799 0.92314
 C124 C 0.28784 0.57607 0.90316
 C125 C 0.32749 0.62327 0.88677
 C126 C 0.29361 0.60163 0.86653
 C127 C 0.23488 0.65044 0.85993
 C128 C 0.21129 0.66633 0.83935
 C129 C 0.35387 0.57899 0.94319
 C130 C 0.38164 0.56290 0.95738
 H131 H 0.29289 0.63853 0.97074
 H132 H 0.30262 0.68555 0.90331
 H133 H 0.23010 0.59955 0.93314
 H134 H 0.28377 0.54401 0.90329
 H135 H 0.35608 0.63010 0.87337
 H136 H 0.29363 0.59097 0.83601
 C137 C -0.21891 0.90103 0.07791
 C138 C -0.22510 0.85628 0.07939
 C139 C -0.23076 0.85909 0.12367
 C140 C -0.22510 0.90343 0.12255
 C141 C -0.17517 0.89465 0.08487
 C142 C -0.18095 0.89737 0.12915
 C143 C -0.18082 0.85031 0.08599
 C144 C -0.18700 0.85280 0.13055
 C145 C -0.26060 0.83928 0.14677
 C146 C -0.28403 0.82292 0.16712
 C147 C -0.14316 0.91464 0.06504
 C148 C -0.11586 0.93131 0.05067
 H149 H -0.23166 0.92107 0.05600
 H150 H -0.24364 0.83915 0.05920
 H151 H -0.24362 0.92507 0.13784
 H152 H -0.16247 0.91446 0.14943
 H153 H -0.16228 0.82867 0.07072
 H154 H -0.17416 0.83279 0.15244
 C155 C 0.69929 0.13819 0.57063
 C156 C 0.69318 0.15821 0.61061
 C157 C 0.72931 0.13696 0.62628
 C158 C 0.73597 0.11723 0.58669
 C159 C 0.67423 0.10391 0.58458
 C160 C 0.71035 0.08263 0.60024
 C161 C 0.66769 0.12368 0.62418
 C162 C 0.70421 0.10269 0.64015
 C163 C 0.75897 0.15559 0.65058
 C164 C 0.78240 0.17132 0.67145
 C165 C 0.64254 0.08531 0.56294
 C166 C 0.61554 0.06964 0.54696
 H167 H 0.69691 0.15256 0.54180
 H168 H 0.68644 0.18949 0.61516
 H169 H 0.76443 0.11478 0.57158
 H170 H 0.71707 0.05135 0.59569
 H171 H 0.63929 0.12618 0.63937
 H172 H 0.70654 0.08829 0.66898
 C173 C 0.37305 0.18372 0.40659
 C174 C 0.38338 0.22758 0.40663
 C175 C 0.37376 0.22926 0.36299
 C176 C 0.36312 0.18583 0.36272
 C177 C 0.41546 0.17416 0.39602
 C178 C 0.40582 0.17586 0.35238
 C179 C 0.42619 0.21757 0.39636
 C180 C 0.41617 0.21978 0.35235
 C181 C 0.34946 0.25893 0.34437
 C182 C 0.32860 0.28237 0.32864
 C183 C 0.43709 0.14247 0.41463
 C184 C 0.45307 0.11546 0.43030
 H185 H 0.35552 0.16855 0.42909
 H186 H 0.37385 0.24917 0.42873
 H187 H 0.33692 0.17307 0.34874
 H188 H 0.41531 0.15427 0.33027
 H189 H 0.45241 0.23024 0.41037
 H190 H 0.43361 0.23499 0.32983
 C191 C 0.91933 0.31483 0.64872
 C192 C 0.87442 0.31247 0.65186
 C193 C 0.87638 0.26915 0.64088
 C194 C 0.92098 0.27096 0.63804
 C195 C 0.91518 0.32472 0.60531
 C196 C 0.91720 0.28142 0.59424
 C197 C 0.87059 0.32278 0.60822
 C198 C 0.87226 0.27908 0.59747
 C199 C 0.85328 0.23930 0.66069
 C200 C 0.83293 0.21587 0.67705
 C201 C 0.93501 0.35674 0.58532
 C202 C 0.94938 0.38404 0.56865
 H203 H 0.93892 0.32986 0.66957
 H204 H 0.85658 0.32495 0.67575
 H205 H 0.94143 0.24927 0.65053
 H206 H 0.93505 0.26901 0.57033
 H207 H 0.85003 0.34441 0.59578
 H208 H 0.85265 0.26407 0.57661
 C209 C 0.07520 0.81167 -0.14173
 C210 C 0.12014 0.80825 -0.14215
 C211 C 0.11658 0.76493 -0.13163
 C212 C 0.07192 0.76780 -0.13151
 C213 C 0.07689 0.82123 -0.09807
 C214 C 0.07326 0.77793 -0.08747
 C215 C 0.12154 0.81823 -0.09828
 C216 C 0.11826 0.77452 -0.08799
 C217 C 0.14013 0.73478 -0.15050
 C218 C 0.16072 0.71118 -0.16639
 C219 C 0.05684 0.85375 -0.07907
 C220 C 0.04266 0.88152 -0.06297
 H221 H 0.05725 0.82727 -0.16362
 H222 H 0.13968 0.82043 -0.16479
 H223 H 0.05180 0.74665 -0.14538
 H224 H 0.05370 0.76584 -0.06480
 H225 H 0.14178 0.83930 -0.08446
 H226 H 0.13623 0.75895 -0.06609
 C227 C 0.57824 0.71327 1.09183
 C228 C 0.57498 0.72582 1.13514
 C229 C 0.61964 0.72566 1.13799
 C230 C 0.62324 0.71364 1.09507
 C231 C 0.57819 0.67045 1.10477
 C232 C 0.62285 0.67044 1.10771
 C233 C 0.57456 0.68243 1.14770
 C234 C 0.61953 0.68283 1.15085
 C235 C 0.64405 0.75521 1.15670
 C236 C 0.66514 0.77835 1.17259
 C237 C 0.55721 0.63850 1.08583
 C238 C 0.54243 0.61115 1.06956
 H239 H 0.56095 0.72544 1.06739
 H240 H 0.55560 0.74899 1.14662
 H241 H 0.64352 0.72676 1.07362
 H242 H 0.64235 0.64733 1.09628
 H243 H 0.55430 0.66928 1.16914
 H244 H 0.63681 0.67058 1.17527
 C245 C 0.37458 0.37561 1.16965
 C246 C 0.39406 0.36084 1.20745
 C247 C 0.35922 0.37633 1.23081
 C248 C 0.33946 0.39082 1.19339
 C249 C 0.39482 0.41510 1.17524
 C250 C 0.35997 0.43068 1.19854
 C251 C 0.41461 0.40061 1.21266
 C252 C 0.37942 0.41582 1.23655
 C253 C 0.33939 0.35324 1.26067
 C254 C 0.32302 0.33290 1.28409
 C255 C 0.41481 0.43491 1.14321
 C256 C 0.43147 0.44929 1.11591
 H257 H 0.37276 0.35925 1.14182
 H258 H 0.40789 0.33189 1.21141
 H259 H 0.30834 0.38654 1.18577
 H260 H 0.34619 0.45963 1.19452
 H261 H 0.44573 0.40488 1.22024
 H262 H 0.38118 0.43207 1.26443
 C263 C 0.63612 -0.11497 0.33279
 C264 C 0.61454 -0.14342 0.30534
 C265 C 0.63704 -0.12632 0.27072
 C266 C 0.65891 -0.09817 0.29776
 C267 C 0.60399 -0.08464 0.32581
 C268 C 0.62647 -0.06743 0.29122
 C269 C 0.58214 -0.11280 0.29876
 C270 C 0.60491 -0.09601 0.26363
 C271 C 0.65566 -0.15063 0.24106
 C272 C 0.67140 -0.17149 0.21763
 C273 C 0.58539 -0.06300 0.35749
 C274 C 0.56972 -0.04702 0.38450
 H275 H 0.64880 -0.12253 0.36154
 H276 H 0.60980 -0.17490 0.31084
 H277 H 0.69070 -0.09243 0.29700
 H278 H 0.63116 -0.03593 0.28580
 H279 H 0.55035 -0.11856 0.29950
 H280 H 0.59228 -0.08852 0.23484
 C281 C -0.09322 1.07650 -0.21368
 C282 C -0.13701 1.07481 -0.22477
 C283 C -0.13797 1.11953 -0.22570
 C284 C -0.09457 1.12158 -0.21513
 C285 C -0.10477 1.07807 -0.17049
 C286 C -0.10581 1.12280 -0.17156
 C287 C -0.14818 1.07601 -0.18102
 C288 C -0.14943 1.12105 -0.18250
 C289 C -0.15668 1.14395 -0.25525
 C290 C -0.17257 1.16505 -0.27838
 C291 C -0.08582 1.05709 -0.13854
 C292 C -0.06955 1.04231 -0.11119
 H293 H -0.06994 1.05787 -0.22614
 H294 H -0.15005 1.05536 -0.24706
 H295 H -0.07272 1.14058 -0.22944
 H296 H -0.09282 1.14236 -0.14933
 H297 H -0.17001 1.05702 -0.16668
 H298 H -0.17269 1.13966 -0.16994
 C299 C 1.12936 0.60817 0.67252
 C300 C 1.10789 0.63473 0.70185
 C301 C 1.13168 0.61647 0.73503
 C302 C 1.15344 0.59017 0.70610
 C303 C 1.09810 0.57682 0.67872
 C304 C 1.12186 0.55842 0.71185
 C305 C 1.07637 0.60313 0.70768
 C306 C 1.10043 0.58513 0.74137
 C307 C 1.15055 0.64002 0.76519
 C308 C 1.16644 0.66061 0.78878
 C309 C 1.07910 0.55676 0.64621
 C310 C 1.06300 0.54257 0.61844
 H311 H 1.14112 0.61744 0.64389
 H312 H 1.10230 0.66633 0.69803
 H313 H 1.18536 0.58510 0.70579
 H314 H 1.12740 0.52680 0.71558
 H315 H 1.04445 0.60823 0.70800
 H316 H 1.08873 0.57596 0.77004
 C317 C 0.82414 0.61142 0.62763
 C318 C 0.80711 0.65208 0.61847
 C319 C 0.76597 0.63563 0.62450
 C320 C 0.78262 0.59521 0.63395
 C321 C 0.82111 0.60092 0.58424
 C322 C 0.77999 0.58439 0.59022
 C323 C 0.80450 0.64135 0.57475
 C324 C 0.76281 0.62519 0.58110
 C325 C 0.73640 0.65525 0.64814
 C326 C 0.71319 0.67178 0.66864
 C327 C 0.85299 0.58165 0.56345
 C328 C 0.88030 0.56580 0.54817
 H329 H 0.84968 0.60558 0.64657
 H330 H 0.81797 0.68010 0.63036
 H331 H 0.77331 0.57645 0.65854
 H332 H 0.76920 0.55635 0.57833
 H333 H 0.81384 0.66009 0.55017
 H334 H 0.73721 0.63108 0.56227
 C335 C 0.70971 0.43131 1.09850
 C336 C 0.71788 0.39494 1.12381
 C337 C 0.75354 0.38592 1.09839
 C338 C 0.74587 0.42213 1.07330
 C339 C 0.68488 0.40613 1.07108
 C340 C 0.72055 0.39711 1.04567
 C341 C 0.69243 0.36988 1.09617
 C342 C 0.72878 0.36066 1.07097
 C343 C 0.79230 0.37609 1.11324
 C344 C 0.82468 0.36922 1.12493
 C345 C 0.64721 0.41925 1.05594
 C346 C 0.61690 0.43207 1.04378
 H347 H 0.70149 0.46051 1.10966
 H348 H 0.71722 0.39395 1.15610
 H349 H 0.76822 0.44355 1.06408
 H350 H 0.72124 0.39811 1.01338
 H351 H 0.67002 0.34852 1.10535
 H352 H 0.73710 0.33147 1.05985
 C353 C 0.16717 1.11980 -0.11973
 C354 C 0.19417 1.15238 -0.10430
 C355 C 0.22910 1.13133 -0.12270
 C356 C 0.20248 1.09902 -0.13842
 C357 C 0.17423 1.09682 -0.08202
 C358 C 0.20915 1.07573 -0.10040
 C359 C 0.20081 1.12913 -0.06623
 C360 C 0.23630 1.10837 -0.08500
 C361 C 0.25849 1.15097 -0.14646
 C362 C 0.28155 1.16764 -0.16696
 C363 C 0.14249 1.07781 -0.06090
 C364 C 0.11524 1.06231 -0.04522
 H365 H 0.13842 1.12434 -0.13380
 H366 H 0.18831 1.18411 -0.10618
 H367 H 0.20347 1.08685 -0.16834
 H368 H 0.21496 1.04400 -0.09853
 H369 H 0.19977 1.14127 -0.03630
 H370 H 0.26510 1.10390 -0.07102
 C371 C 0.28840 -0.08512 0.40909
 C372 C 0.29194 -0.10073 0.36694
 C373 C 0.27166 -0.13846 0.37967
 C374 C 0.26759 -0.12320 0.42153
 C375 C 0.32776 -0.10405 0.41885
 C376 C 0.30753 -0.14179 0.43166
 C377 C 0.33168 -0.11936 0.37700
 C378 C 0.31102 -0.15735 0.38945
 C379 C 0.24147 -0.15774 0.35654
 C380 C 0.21768 -0.17393 0.33644
 C381 C 0.36001 -0.08456 0.43882
 C382 C 0.38742 -0.06802 0.45314
 H383 H 0.27945 -0.05520 0.41744
 H384 H 0.28522 -0.08404 0.34010
 H385 H 0.24084 -0.12499 0.43955
 H386 H 0.31430 -0.15845 0.45851
 H387 H 0.35837 -0.11762 0.35888
 H388 H 0.32001 -0.18726 0.38110
 C389 C 0.58329 -0.17818 0.64830
 C390 C 0.57621 -0.22236 0.64224
 C391 C 0.62037 -0.22841 0.63840
 C392 C 0.62774 -0.18476 0.64477
 C393 C 0.58117 -0.17230 0.60403
 C394 C 0.62533 -0.17846 0.60028
 C395 C 0.57373 -0.21593 0.59758
 C396 C 0.61825 -0.22252 0.59414
 C397 C 0.64351 -0.25859 0.65769
 C398 C 0.66362 -0.28237 0.67388
 C399 C 0.56120 -0.14006 0.58453
 C400 C 0.54688 -0.11264 0.56798
 H401 H 0.56868 -0.15961 0.67036
 H402 H 0.55629 -0.24081 0.65972
 H403 H 0.65022 -0.17223 0.66434
 H404 H 0.64535 -0.16007 0.58284
 H405 H 0.55124 -0.22837 0.57798
 H406 H 0.63289 -0.24107 0.57208
 C407 C 1.06926 0.69542 0.36593
 C408 C 1.08143 0.73462 0.38481
 C409 C 1.12273 0.72898 0.36860
 C410 C 1.11091 0.69033 0.34943
 C411 C 1.08204 0.67414 0.40313
 C412 C 1.12334 0.66864 0.38687
 C413 C 1.09383 0.71277 0.42236
 C414 C 1.13546 0.70767 0.40579
 C415 C 1.14651 0.75836 0.34896
 C416 C 1.16702 0.78141 0.33229
 C417 C 1.06091 0.64240 0.42214
 C418 C 1.04523 0.61515 0.43765
 H419 H 1.04179 0.69004 0.34977
 H420 H 1.06450 0.76213 0.38374
 H421 H 1.11820 0.68140 0.31924
 H422 H 1.14037 0.64118 0.38789
 H423 H 1.08652 0.72164 0.45256
 H424 H 1.16293 0.71301 0.42197
 C425 C -0.11370 1.19286 0.10461
 C426 C -0.09960 1.21704 0.14007
 C427 C -0.09832 1.25339 0.11406
 C428 C -0.11264 1.22983 0.07884
 C429 C -0.07105 1.18472 0.09384
 C430 C -0.06983 1.22115 0.06793
 C431 C -0.05667 1.20823 0.12908
 C432 C -0.05568 1.24521 0.10328
 C433 C -0.11315 1.29215 0.12389
 C434 C -0.12484 1.32454 0.13076
 C435 C -0.05592 1.14706 0.08071
 C436 C -0.04375 1.11675 0.06789
 H437 H -0.13738 1.17090 0.10505
 H438 H -0.11205 1.21582 0.16986
 H439 H -0.13581 1.23910 0.05829
 H440 H -0.05741 1.22248 0.03813
 H441 H -0.03349 1.19891 0.14959
 H442 H -0.03199 1.26717 0.10282
 C443 C 0.38261 0.32829 0.87002
 C444 C 0.39994 0.29666 0.84300
 C445 C 0.37561 0.26585 0.86437
 C446 C 0.35800 0.29709 0.89111
 C447 C 0.41585 0.32101 0.89907
 C448 C 0.39152 0.29019 0.92045
 C449 C 0.43357 0.28981 0.87235
 C450 C 0.40884 0.25844 0.89341
 C451 C 0.35196 0.23627 0.84476
 C452 C 0.33146 0.21306 0.82824
 C453 C 0.43665 0.35289 0.91832
 C454 C 0.45193 0.38020 0.93416
 H455 H 0.37203 0.35733 0.86057
 H456 H 0.40314 0.29901 0.81094
 H457 H 0.32669 0.29978 0.89864
 H458 H 0.38831 0.28787 0.95251
 H459 H 0.46489 0.28719 0.86486
 H460 H 0.41933 0.22935 0.90280
 C461 C 0.64050 0.57934 0.81602
 C462 C 0.63000 0.57799 0.77212
 C463 C 0.63146 0.62268 0.77097
 C464 C 0.64225 0.62433 0.81435
 C465 C 0.59695 0.58198 0.82582
 C466 C 0.59848 0.62667 0.82456
 C467 C 0.58608 0.58026 0.78246
 C468 C 0.58792 0.62533 0.78078
 C469 C 0.65110 0.64646 0.74160
 C470 C 0.66777 0.66697 0.71854
 C471 C 0.57794 0.56084 0.85755
 C472 C 0.56243 0.54516 0.88480
 H473 H 0.66191 0.56018 0.83084
 H474 H 0.64320 0.55826 0.75018
 H475 H 0.66553 0.64272 0.82718
 H476 H 0.58533 0.64649 0.84646
 H477 H 0.56277 0.56185 0.76972
 H478 H 0.56652 0.64451 0.76597
 C479 C 0.41257 0.11809 0.69124
 C480 C 0.37190 0.13718 0.68830
 C481 C 0.36167 0.12027 0.72839
 C482 C 0.40211 0.10146 0.73180
 C483 C 0.39602 0.08110 0.67226
 C484 C 0.38585 0.06407 0.71232
 C485 C 0.35559 0.09994 0.66891
 C486 C 0.34504 0.08329 0.70946
 C487 C 0.34240 0.14340 0.75859
 C488 C 0.32621 0.16349 0.78238
 C489 C 0.41550 0.06114 0.64000
 C490 C 0.43205 0.04682 0.61259
 H491 H 0.44056 0.13220 0.68341
 H492 H 0.36601 0.16747 0.67872
 H493 H 0.42102 0.10237 0.75800
 H494 H 0.39179 0.03376 0.72180
 H495 H 0.33664 0.09908 0.64273
 H496 H 0.31704 0.06925 0.71734
 C497 C 0.08594 0.91213 0.22086
 C498 C 0.09415 0.86778 0.21943
 C499 C 0.13571 0.87546 0.23406
 C500 C 0.12787 0.91946 0.23603
 C501 C 0.10102 0.91571 0.17891
 C502 C 0.14258 0.92341 0.19352
 C503 C 0.10892 0.87171 0.17708
 C504 C 0.15072 0.87909 0.19210
 C505 C 0.15532 0.85181 0.26364
 C506 C 0.17184 0.83131 0.28686
 C507 C 0.08176 0.93650 0.14703
 C508 C 0.06591 0.95179 0.11972
 H509 H 0.05909 0.92600 0.23232
 H510 H 0.07445 0.84466 0.23039
 H511 H 0.13589 0.93880 0.26065
 H512 H 0.16228 0.94653 0.18253
 H513 H 0.10095 0.85227 0.15251
 H514 H 0.17754 0.86523 0.18056
 C515 C 0.87611 0.44803 0.28829
 C516 C 0.90415 0.44184 0.25353
 C517 C 0.88602 0.40155 0.24658
 C518 C 0.85775 0.40746 0.28073
 C519 C 0.90620 0.42883 0.31525
 C520 C 0.88808 0.38853 0.30836
 C521 C 0.93437 0.42287 0.28102
 C522 C 0.91610 0.38240 0.27357
 C523 C 0.87620 0.38671 0.20782
 C524 C 0.86934 0.37503 0.17543
 C525 C 0.91933 0.44397 0.35291
 C526 C 0.93215 0.45614 0.38323
 H527 H 0.85980 0.47518 0.29478
 H528 H 0.91069 0.46360 0.23057
 H529 H 0.82611 0.40091 0.28014
 H530 H 0.88157 0.36680 0.33135
 H531 H 0.96602 0.42939 0.28150
 H532 H 0.93245 0.35527 0.26712
   
