data_POSCAR
  _audit_creation_date              2014-09-24
  _audit_creation_method            'ToBaCCo'
  _symmetry_space_group_name_H-M    'P1'
  _symmetry_Int_Tables_number       1
  _symmetry_cell_setting            triclinic
  loop_
  _symmetry_equiv_pos_as_xyz
 x,y,z
_cell_length_a 42.0930
_cell_length_b 26.8790
_cell_length_c 15.0203
_cell_angle_alpha 90.013900
_cell_angle_beta 90.003100
_cell_angle_gamma 90.025600
loop_
  _atom_site_label
  _atom_site_type_symbol
  _atom_site_fract_x
  _atom_site_fract_y
  _atom_site_fract_z
C1 C 0.72660 0.27811 0.54937
 C2 C 0.72608 0.27525 0.45488
 C3 C 0.75117 0.25211 0.40969
 C4 C 0.77744 0.23174 0.45484
 C5 C 0.77766 0.23292 0.55009
 C6 C 0.75241 0.25661 0.59486
 H7 H 0.75266 0.25780 0.66697
 H8 H 0.75056 0.25171 0.33751
 C9 C 0.22286 0.76761 0.54873
 C10 C 0.22197 0.76534 0.45476
 C11 C 0.24710 0.74274 0.40896
 C12 C 0.27298 0.72181 0.45443
 C13 C 0.27371 0.72288 0.54935
 C14 C 0.24859 0.74665 0.59453
 H15 H 0.24833 0.74763 0.66668
 H16 H 0.24671 0.74203 0.33677
 C17 C 0.27607 0.26943 -0.54797
 C18 C 0.27743 0.26497 -0.45444
 C19 C 0.25233 0.24200 -0.40903
 C20 C 0.22539 0.22353 -0.45417
 C21 C 0.22459 0.22649 -0.54945
 C22 C 0.24980 0.25045 -0.59391
 H23 H 0.24990 0.25254 -0.66601
 H24 H 0.25329 0.24082 -0.33693
 C25 C -0.22633 0.77463 -0.54739
 C26 C -0.22481 0.77002 -0.45391
 C27 C -0.24981 0.74686 -0.40839
 C28 C -0.27672 0.72819 -0.45339
 C29 C -0.27763 0.73115 -0.54866
 C30 C -0.25258 0.75548 -0.59323
 H31 H -0.25255 0.75763 -0.66531
 H32 H -0.24876 0.74560 -0.33630
 N33 N 0.03283 0.94702 -0.15674
 N34 N 0.05648 0.93991 -0.21294
 N35 N -0.03420 0.91326 -0.09502
 N36 N -0.05742 0.88114 -0.10906
 N37 N -0.03394 0.94767 -0.15710
 N38 N -0.05699 0.93994 -0.21513
 N39 N 0.03266 0.91246 -0.09490
 N40 N 0.05626 0.88082 -0.10732
 C41 C 0.07082 0.89865 -0.18099
 C42 C -0.07142 0.89853 -0.18385
 N43 N -0.03405 0.94882 0.15837
 N44 N -0.05782 0.94277 0.21458
 N45 N 0.03254 0.91280 0.09710
 N46 N 0.05552 0.88031 0.11119
 N47 N 0.03274 0.94753 0.15862
 N48 N 0.05587 0.93966 0.21631
 N49 N -0.03434 0.91396 0.09704
 N50 N -0.05837 0.88317 0.10984
 Mn51 Mn -0.00084 0.91252 0.00107
 C52 C -0.07271 0.90185 0.18319
 C53 C 0.06985 0.89780 0.18543
 N54 N -0.03338 1.05479 -0.15754
 N55 N -0.05755 1.06083 -0.21241
 N56 N 0.03363 1.08889 -0.09614
 N57 N 0.05720 1.12047 -0.10946
 N58 N 0.03348 1.05418 -0.15768
 N59 N 0.05695 1.06116 -0.21467
 N60 N -0.03325 1.08961 -0.09616
 N61 N -0.05737 1.12038 -0.10756
 Mn62 Mn -0.00025 1.00093 -0.15826
 C63 C -0.07218 1.10177 -0.18022
 C64 C 0.07150 1.10248 -0.18331
 N65 N 0.03348 1.05465 0.15742
 N66 N 0.05769 1.06033 0.21227
 N67 N -0.03311 1.09036 0.09559
 N68 N -0.05611 1.12291 0.10892
 N69 N -0.03335 1.05597 0.15768
 N70 N -0.05653 1.06415 0.21506
 N71 N 0.03376 1.08917 0.09553
 N72 N 0.05821 1.11936 0.10655
 Mn73 Mn -0.00030 1.00175 0.15902
 Mn74 Mn 0.00026 1.09010 -0.00031
 Cl75 Cl -0.00029 1.00130 0.00038
 C76 C 0.07280 1.10072 0.17951
 C77 C -0.07050 1.10584 0.18334
 N78 N 0.46611 0.55325 -0.15775
 N79 N 0.44214 0.55919 -0.21331
 N80 N 0.53266 0.58935 -0.09619
 N81 N 0.55584 0.62167 -0.10902
 N82 N 0.53293 0.55490 -0.15820
 N83 N 0.55632 0.56281 -0.21505
 N84 N 0.46580 0.58781 -0.09590
 N85 N 0.44155 0.61830 -0.10769
 C86 C 0.42711 0.59977 -0.18103
 C87 C 0.57034 0.60441 -0.18312
 N88 N 0.53329 0.55395 0.15681
 N89 N 0.55741 0.56032 0.21173
 N90 N 0.46610 0.58758 0.09595
 N91 N 0.44237 0.61883 0.10925
 N92 N 0.46645 0.55292 0.15755
 N93 N 0.44296 0.55960 0.21455
 N94 N 0.53298 0.58879 0.09549
 N95 N 0.55695 0.61988 0.10698
 Mn96 Mn 0.49937 0.58898 -0.00015
 C97 C 0.57186 0.60147 0.17961
 C98 C 0.42820 0.60069 0.18319
 N99 N 0.53383 0.44777 -0.15881
 N100 N 0.55785 0.44228 -0.21436
 N101 N 0.46732 0.41143 -0.09718
 N102 N 0.44447 0.37870 -0.11130
 N103 N 0.46704 0.44611 -0.15877
 N104 N 0.44397 0.43797 -0.21654
 N105 N 0.53421 0.41293 -0.09750
 N106 N 0.55857 0.38270 -0.10965
 Mn107 Mn 0.49998 0.50052 -0.15937
 C108 C 0.57298 0.40167 -0.18267
 C109 C 0.43012 0.39599 -0.18563
 N110 N 0.46724 0.44584 0.15675
 N111 N 0.44360 0.43885 0.21304
 N112 N 0.53418 0.41231 0.09443
 N113 N 0.55752 0.38039 0.10802
 N114 N 0.53401 0.44679 0.15641
 N115 N 0.55723 0.43930 0.21396
 N116 N 0.46731 0.41125 0.09492
 N117 N 0.44365 0.37969 0.10750
 Mn118 Mn 0.50025 0.49989 0.15787
 Mn119 Mn 0.50075 0.41137 -0.00135
 Cl120 Cl 0.50008 0.50017 -0.00075
 C121 C 0.42917 0.39762 0.18126
 C122 C 0.57166 0.39795 0.18247
 C123 C 0.35261 0.33574 0.30538
 C124 C 0.33634 0.36361 0.36966
 C125 C 0.31105 0.34241 0.41659
 C126 C 0.30197 0.29297 0.40010
 C127 C 0.31801 0.26551 0.33444
 C128 C 0.34326 0.28676 0.28749
 C129 C 0.37936 0.35704 0.25951
 C130 C 0.40200 0.37520 0.22268
 H131 H 0.34337 0.40156 0.38397
 H132 H 0.29875 0.36434 0.46627
 H133 H 0.31134 0.22733 0.32084
 H134 H 0.35570 0.26486 0.23798
 C135 C -0.14979 0.84121 0.30660
 C136 C -0.16607 0.86898 0.37095
 C137 C -0.19142 0.84774 0.41754
 C138 C -0.20053 0.79835 0.40063
 C139 C -0.18449 0.77102 0.33480
 C140 C -0.15919 0.79232 0.28819
 C141 C -0.12290 0.86240 0.26129
 C142 C -0.10011 0.88022 0.22471
 H143 H -0.15900 0.90686 0.38565
 H144 H -0.20372 0.86955 0.46741
 H145 H -0.19117 0.73288 0.32091
 H146 H -0.14672 0.77050 0.23862
 C147 C 0.64929 0.66257 0.30063
 C148 C 0.66116 0.70902 0.27518
 C149 C 0.68587 0.73107 0.32333
 C150 C 0.69875 0.70733 0.39904
 C151 C 0.68752 0.65938 0.42105
 C152 C 0.66285 0.63748 0.37274
 C153 C 0.62241 0.64136 0.25526
 C154 C 0.59947 0.62340 0.21954
 H155 H 0.65084 0.72874 0.21931
 H156 H 0.69364 0.76793 0.30402
 H157 H 0.69782 0.63867 0.47571
 H158 H 0.65410 0.60118 0.39233
 C159 C 0.15106 1.15946 0.29969
 C160 C 0.16325 1.20574 0.27443
 C161 C 0.18813 1.22723 0.32260
 C162 C 0.20086 1.20311 0.39811
 C163 C 0.18932 1.15531 0.41984
 C164 C 0.16447 1.13396 0.37151
 C165 C 0.12391 1.13899 0.25458
 C166 C 0.10073 1.12173 0.21910
 H167 H 0.15302 1.22577 0.21879
 H168 H 0.19615 1.26401 0.30352
 H169 H 0.19950 1.13434 0.47438
 H170 H 0.15545 1.09779 0.39095
 C171 C 0.65116 0.34369 -0.30482
 C172 C 0.66318 0.36755 -0.38035
 C173 C 0.68853 0.34674 -0.42740
 C174 C 0.70207 0.30111 -0.40056
 C175 C 0.69051 0.27863 -0.32196
 C176 C 0.66513 0.29956 -0.27508
 C177 C 0.62394 0.36384 -0.25948
 C178 C 0.60080 0.38084 -0.22332
 H179 H 0.65283 0.40217 -0.40322
 H180 H 0.69783 0.36693 -0.48400
 H181 H 0.69992 0.24341 -0.29897
 H182 H 0.65602 0.28079 -0.21657
 C183 C 0.14702 0.83548 -0.30438
 C184 C 0.16403 0.86335 -0.36709
 C185 C 0.18912 0.84160 -0.41396
 C186 C 0.19724 0.79161 -0.39902
 C187 C 0.18049 0.76414 -0.33480
 C188 C 0.15543 0.78595 -0.28789
 C189 C 0.12042 0.85736 -0.25885
 C190 C 0.09788 0.87594 -0.22230
 H191 H 0.15773 0.90172 -0.38028
 H192 H 0.20200 0.86354 -0.46248
 H193 H 0.18642 0.72555 -0.32240
 H194 H 0.14239 0.76406 -0.23958
 C195 C 0.34928 0.65855 -0.30352
 C196 C 0.33597 0.70368 -0.27623
 C197 C 0.31060 0.72436 -0.32357
 C198 C 0.29841 0.70059 -0.40022
 C199 C 0.31134 0.65407 -0.42451
 C200 C 0.33666 0.63353 -0.37703
 C201 C 0.37639 0.63836 -0.25778
 C202 C 0.39942 0.62106 -0.22156
 H203 H 0.34555 0.72335 -0.21926
 H204 H 0.30165 0.76024 -0.30250
 H205 H 0.30152 0.63289 -0.47925
 H206 H 0.34647 0.59814 -0.39792
 C207 C -0.14979 1.16265 -0.30024
 C208 C -0.16155 1.20897 -0.27372
 C209 C -0.18613 1.23150 -0.32148
 C210 C -0.19901 1.20837 -0.39782
 C211 C -0.18795 1.16050 -0.42089
 C212 C -0.16338 1.13812 -0.37295
 C213 C -0.12288 1.14123 -0.25546
 C214 C -0.09990 1.12335 -0.22002
 H215 H -0.15119 1.22826 -0.21740
 H216 H -0.19377 1.26831 -0.30145
 H217 H -0.19824 1.14034 -0.47626
 H218 H -0.15469 1.10194 -0.39340
 C219 C 0.64565 0.67124 -0.30513
 C220 C 0.67681 0.66067 -0.27892
 C221 C 0.70245 0.68065 -0.32612
 C222 C 0.69732 0.71086 -0.40165
 C223 C 0.66572 0.72315 -0.42431
 C224 C 0.64018 0.70315 -0.37697
 C225 C 0.61928 0.64809 -0.26045
 C226 C 0.59702 0.62825 -0.22456
 H227 H 0.68130 0.63609 -0.22317
 H228 H 0.72624 0.67008 -0.30628
 H229 H 0.66069 0.74830 -0.47883
 H230 H 0.61614 0.71214 -0.39708
 C231 C 0.14737 1.16743 -0.30623
 C232 C 0.17846 1.15653 -0.27987
 C233 C 0.20423 1.17621 -0.32697
 C234 C 0.19930 1.20646 -0.40257
 C235 C 0.16777 1.21907 -0.42541
 C236 C 0.14210 1.19936 -0.37816
 C237 C 0.12082 1.14478 -0.26137
 C238 C 0.09840 1.12549 -0.22522
 H239 H 0.18281 1.13196 -0.22401
 H240 H 0.22797 1.16542 -0.30696
 H241 H 0.16288 1.24427 -0.47994
 H242 H 0.11812 1.20865 -0.39839
 C243 C 0.35557 0.32806 -0.30972
 C244 C 0.32442 0.34309 -0.29124
 C245 C 0.29896 0.32167 -0.33708
 C246 C 0.30441 0.28516 -0.40223
 C247 C 0.33566 0.26938 -0.41903
 C248 C 0.36113 0.29089 -0.37321
 C249 C 0.38184 0.35163 -0.26509
 C250 C 0.40384 0.37178 -0.22844
 H251 H 0.31985 0.37182 -0.24228
 H252 H 0.27504 0.33438 -0.32332
 H253 H 0.34032 0.24094 -0.46842
 H254 H 0.38513 0.27892 -0.38793
 C255 C -0.14636 0.83210 -0.30890
 C256 C -0.17746 0.84725 -0.29003
 C257 C -0.20302 0.82623 -0.33607
 C258 C -0.19772 0.79002 -0.40184
 C259 C -0.16652 0.77416 -0.41913
 C260 C -0.14096 0.79526 -0.37310
 C261 C -0.11999 0.85516 -0.26386
 C262 C -0.09787 0.87486 -0.22691
 H263 H -0.18192 0.87573 -0.24052
 H264 H -0.22690 0.83899 -0.32189
 H265 H -0.16197 0.74592 -0.46896
 H266 H -0.11700 0.78319 -0.38815
 C267 C 0.35175 0.66406 0.30548
 C268 C 0.35645 0.70301 0.36598
 C269 C 0.33068 0.72281 0.41276
 C270 C 0.30000 0.70342 0.40015
 C271 C 0.29528 0.66542 0.33731
 C272 C 0.32108 0.64568 0.29050
 C273 C 0.37853 0.64197 0.26100
 C274 C 0.40113 0.62318 0.22498
 H275 H 0.38007 0.71760 0.37789
 H276 H 0.33473 0.75252 0.46015
 H277 H 0.27179 0.65009 0.32654
 H278 H 0.31718 0.61558 0.24377
 C279 C -0.14514 1.17374 0.30689
 C280 C -0.13949 1.20463 0.38009
 C281 C -0.16493 1.22501 0.42743
 C282 C -0.19660 1.21410 0.40336
 C283 C -0.20186 1.18491 0.32658
 C284 C -0.17634 1.16457 0.27940
 C285 C -0.11895 1.15023 0.26188
 C286 C -0.09690 1.13006 0.22551
 H287 H -0.11541 1.21257 0.40123
 H288 H -0.15975 1.24936 0.48302
 H289 H -0.22573 1.17541 0.30564
 H290 H -0.18098 1.14080 0.22259
 C291 C 0.64727 0.33281 0.30591
 C292 C 0.64233 0.29519 0.36893
 C293 C 0.66806 0.27532 0.41582
 C294 C 0.69894 0.29333 0.40073
 C295 C 0.70385 0.32995 0.33544
 C296 C 0.67811 0.34972 0.28855
 C297 C 0.62064 0.35524 0.26124
 C298 C 0.59832 0.37459 0.22482
 H299 H 0.61856 0.28177 0.38275
 H300 H 0.66387 0.24674 0.46526
 H301 H 0.72749 0.34421 0.32279
 H302 H 0.68220 0.37878 0.23990
 C303 C 0.14435 0.83007 0.31012
 C304 C 0.17558 0.84514 0.29267
 C305 C 0.20089 0.82333 0.33861
 C306 C 0.19519 0.78643 0.40286
 C307 C 0.16385 0.77070 0.41868
 C308 C 0.13856 0.79257 0.37278
 C309 C 0.11820 0.85375 0.26514
 C310 C 0.09620 0.87381 0.22832
 H311 H 0.18033 0.87411 0.24433
 H312 H 0.22488 0.83597 0.32552
 H313 H 0.15899 0.74190 0.46722
 H314 H 0.11450 0.78054 0.38668
   
