data_POSCAR
  _audit_creation_date              2014-09-24
  _audit_creation_method            'ToBaCCo'
  _symmetry_space_group_name_H-M    'P1'
  _symmetry_Int_Tables_number       1
  _symmetry_cell_setting            triclinic
  loop_
  _symmetry_equiv_pos_as_xyz
 x,y,z
_cell_length_a 22.9775
_cell_length_b 22.3476
_cell_length_c 24.5851
_cell_angle_alpha 91.990400
_cell_angle_beta 91.014900
_cell_angle_gamma 91.611400
loop_
  _atom_site_label
  _atom_site_type_symbol
  _atom_site_fract_x
  _atom_site_fract_y
  _atom_site_fract_z
C1 C 0.24902 0.47595 1.00822
 C2 C 0.77389 0.50202 0.00214
 C3 C -0.01018 0.25840 0.50297
 C4 C 0.98487 0.75329 0.50861
 C5 C 0.47912 0.01552 0.24688
 C6 C 0.48526 -0.03514 0.74430
 C7 C 0.33150 0.07525 0.44176
 H8 H 0.33328 0.10114 0.47980
 C9 C 0.37210 0.08695 0.40160
 H10 H 0.40538 0.12174 0.40874
 C11 C 0.28870 -0.00476 0.38768
 H12 H 0.25732 -0.04161 0.38319
 C13 C 0.32877 0.00517 0.34662
 H14 H 0.32763 -0.02418 0.31063
 N15 N 0.29146 0.02950 0.43451
 C16 C 0.16000 0.06542 0.55612
 H17 H 0.16263 0.02558 0.57970
 C18 C 0.11479 0.10485 0.56493
 H19 H 0.08311 0.09590 0.59592
 C20 C 0.19450 0.12278 0.48334
 H21 H 0.22396 0.12816 0.45001
 C22 C 0.14968 0.16309 0.49057
 H23 H 0.14579 0.19982 0.46329
 Zn24 Zn 0.24592 0.01020 0.49524
 N25 N 0.19810 0.07443 0.51527
 C26 C 0.29688 0.01369 0.60281
 N27 N 0.29812 -0.01018 0.55122
 C28 C 0.33871 -0.05041 0.53621
 C29 C 0.38148 -0.06682 0.57325
 C30 C 0.33838 -0.00243 0.64152
 C31 C 0.15169 -0.04914 0.44186
 C32 C 0.10482 -0.09020 0.43764
 C33 C 0.14696 -0.14401 0.51158
 C34 C 0.19334 -0.10230 0.51408
 N35 N 0.19418 -0.05533 0.48026
 H36 H 0.26465 0.04604 0.61372
 H37 H 0.33863 -0.06856 0.49484
 H38 H 0.41519 -0.09677 0.56028
 H39 H 0.33833 0.01841 0.68193
 H40 H 0.15266 -0.01048 0.41655
 H41 H 0.06996 -0.08384 0.40838
 H42 H 0.14559 -0.17977 0.54017
 H43 H 0.22667 -0.10553 0.54529
 C44 C 0.10833 0.15311 0.53090
 C45 C 0.37197 0.05075 0.35410
 C46 C 0.10140 -0.13699 0.47384
 C47 C 0.38177 -0.04251 0.62630
 C48 C 0.63685 0.04483 0.56017
 H49 H 0.63858 0.07862 0.52972
 C50 C 0.59502 0.04745 0.60025
 H51 H 0.56427 0.08331 0.60095
 C52 C 0.67341 -0.04470 0.59510
 H53 H 0.70332 -0.08107 0.59200
 C54 C 0.63169 -0.04400 0.63587
 H55 H 0.62984 -0.07980 0.66439
 N56 N 0.67493 -0.00062 0.55831
 C57 C 0.81199 0.07938 0.46299
 H58 H 0.81154 0.04988 0.42714
 C59 C 0.85424 0.12549 0.46928
 H60 H 0.88580 0.13172 0.43766
 C61 C 0.77346 0.10508 0.54923
 H62 H 0.74354 0.09572 0.58139
 C63 C 0.81474 0.15176 0.55702
 H64 H 0.81562 0.17868 0.59453
 Zn65 Zn 0.72400 -0.00002 0.49798
 N66 N 0.77295 0.06977 0.50289
 C67 C 0.67035 0.03926 0.39890
 N68 N 0.67303 -0.00339 0.43695
 C69 C 0.63462 -0.05086 0.43614
 C70 C 0.59101 -0.05688 0.39619
 C71 C 0.62702 0.03496 0.35802
 C72 C 0.81144 -0.07327 0.53641
 C73 C 0.85238 -0.11817 0.53317
 C74 C 0.81209 -0.14939 0.44491
 C75 C 0.77196 -0.10386 0.44976
 N76 N 0.77249 -0.06681 0.49494
 H77 H 0.70071 0.07715 0.40103
 H78 H 0.63735 -0.08356 0.46745
 H79 H 0.56003 -0.09429 0.39651
 H80 H 0.62439 0.06963 0.32848
 H81 H 0.81163 -0.04245 0.57134
 H82 H 0.88383 -0.12196 0.56608
 H83 H 0.81229 -0.17783 0.40834
 H84 H 0.74185 -0.09698 0.41650
 C85 C 0.85622 0.16169 0.51731
 C86 C 0.59176 0.00250 0.63808
 C87 C 0.85325 -0.15633 0.48650
 C88 C 0.58651 -0.01352 0.35705
 C89 C 0.50234 0.12355 1.02511
 H90 H 0.50261 0.10774 0.98324
 C91 C 0.49441 0.08176 1.06500
 H92 H 0.49010 0.03456 1.05354
 C93 C 0.50579 0.20305 1.09150
 H94 H 0.50891 0.25054 1.10145
 C95 C 0.49768 0.16219 1.13310
 H96 H 0.49598 0.17826 1.17507
 N97 N 0.50828 0.18311 1.03850
 C98 C 0.44488 0.32048 0.93081
 H99 H 0.47719 0.31888 0.89952
 C100 C 0.40171 0.36296 0.92873
 H101 H 0.40119 0.39431 0.89612
 C102 C 0.40681 0.28327 1.01241
 H103 H 0.40935 0.25266 1.04533
 C104 C 0.36275 0.32521 1.01186
 H105 H 0.33185 0.32674 1.04457
 Zn106 Zn 0.51432 0.23488 0.97815
 N107 N 0.44773 0.28280 0.97300
 C108 C 0.47332 0.17184 0.88228
 N109 N 0.52049 0.18550 0.91493
 C110 C 0.57207 0.15809 0.90767
 C111 C 0.57678 0.11252 0.86799
 C112 C 0.47617 0.12644 0.84207
 C113 C 0.60890 0.30784 1.02723
 C114 C 0.65277 0.35260 1.02508
 C115 C 0.63915 0.35264 0.92747
 C116 C 0.59618 0.30803 0.93135
 N117 N 0.58088 0.28735 0.98068
 H118 H 0.43262 0.19366 0.88950
 H119 H 0.60856 0.16938 0.93486
 H120 H 0.61703 0.08878 0.86424
 H121 H 0.43751 0.11397 0.81805
 H122 H 0.59619 0.29107 1.06605
 H123 H 0.67355 0.37009 1.06240
 H124 H 0.64947 0.37007 0.88812
 H125 H 0.57381 0.29096 0.89478
 C126 C 0.36106 0.36652 0.97014
 C127 C 0.49187 0.10072 1.11938
 C128 C 0.66717 0.37604 0.97453
 C129 C 0.52807 0.09516 0.83593
 C130 C 0.50272 0.85751 -0.03300
 H131 H 0.50216 0.87310 0.00894
 C132 C 0.49828 0.89933 -0.07323
 H133 H 0.49562 0.94646 -0.06193
 C134 C 0.50494 0.77823 -0.09944
 H135 H 0.50616 0.73075 -0.10931
 C136 C 0.50009 0.81903 -0.14134
 H137 H 0.49890 0.80300 -0.18341
 N138 N 0.50579 0.79803 -0.04629
 C139 C 0.42440 0.65670 0.04863
 H140 H 0.45378 0.65503 0.08322
 C141 C 0.37781 0.61527 0.04319
 H142 H 0.37226 0.58178 0.07359
 C143 C 0.39646 0.70118 -0.03350
 H144 H 0.40368 0.73451 -0.06353
 C145 C 0.34945 0.66037 -0.04064
 H146 H 0.32131 0.66210 -0.07632
 Zn147 Zn 0.50440 0.74517 0.01327
 N148 N 0.43406 0.69744 0.00968
 C149 C 0.46061 0.80879 0.10554
 N150 N 0.50913 0.79359 0.07801
 C151 C 0.56198 0.82005 0.09052
 C152 C 0.56699 0.86620 0.13016
 C153 C 0.46377 0.85476 0.14568
 C154 C 0.60426 0.68303 -0.02842
 C155 C 0.64928 0.64214 -0.02440
 C156 C 0.62222 0.62588 0.06847
 C157 C 0.57807 0.66676 0.06278
 N158 N 0.56899 0.69359 0.01465
 H159 H 0.41896 0.78787 0.09410
 H160 H 0.59961 0.80782 0.06723
 H161 H 0.60863 0.88911 0.13787
 H162 H 0.42434 0.86844 0.16546
 H163 H 0.59715 0.70542 -0.06607
 H164 H 0.67618 0.63291 -0.05924
 H165 H 0.62814 0.60394 0.10669
 H166 H 0.55091 0.67716 0.09705
 C167 C 0.34065 0.61595 -0.00280
 C168 C 0.49631 0.88034 -0.12777
 C169 C 0.65785 0.61268 0.02457
 C170 C 0.51736 0.88510 0.15701
 C171 C 1.07656 0.45624 0.17102
 H172 H 1.04420 0.42010 0.17061
 C173 C 1.11951 0.45699 0.13156
 H174 H 1.12027 0.42100 0.10099
 C175 C 1.11346 0.54834 0.21032
 H176 H 1.11002 0.58464 0.24014
 C177 C 1.15726 0.55073 0.17167
 H178 H 1.18786 0.58850 0.17221
 N179 N 1.07424 0.50150 0.20931
 C180 C 0.97015 0.42987 0.33928
 H181 H 0.93616 0.46241 0.33972
 C182 C 0.97192 0.38700 0.37903
 H183 H 0.93854 0.38620 0.40954
 C184 C 1.05656 0.39353 0.30026
 H185 H 1.09039 0.39758 0.27053
 C186 C 1.05996 0.34975 0.33943
 H187 H 1.09587 0.31939 0.33926
 Zn188 Zn 1.01051 0.49996 0.25700
 N189 N 1.01219 0.43262 0.30116
 C190 C 0.90410 0.45080 0.21224
 N191 N 0.94213 0.49863 0.21305
 C192 C 0.93640 0.54336 0.17738
 C193 C 0.89231 0.53990 0.13745
 C194 C 0.85916 0.44577 0.17318
 C195 C 1.06100 0.56798 0.34114
 C196 C 1.06386 0.60840 0.38551
 C197 C 0.97049 0.64555 0.35778
 C198 C 0.96945 0.60433 0.31349
 N199 N 1.01413 0.56622 0.30657
 H200 H 0.91017 0.41504 0.24006
 H201 H 0.96785 0.58036 0.17840
 H202 H 0.88977 0.57468 0.10801
 H203 H 0.83048 0.40644 0.17136
 H204 H 1.09511 0.53609 0.33539
 H205 H 1.10063 0.60836 0.41367
 H206 H 0.93406 0.67452 0.36405
 H207 H 0.93192 0.60093 0.28630
 C208 C 1.01779 0.34684 0.37972
 C209 C 1.16020 0.50507 0.13154
 C210 C 1.01789 0.64673 0.39476
 C211 C 0.85394 0.48978 0.13446
 C212 C -0.06494 0.46764 0.83219
 H213 H -0.03367 0.43236 0.83295
 C214 C -0.10881 0.46978 0.87077
 H215 H -0.11150 0.43546 0.90070
 C216 C -0.09667 0.55772 0.79471
 H217 H -0.09030 0.59332 0.76663
 C218 C -0.14146 0.56132 0.83237
 H219 H -0.16986 0.59917 0.83257
 N220 N -0.05893 0.51185 0.79591
 C221 C 0.06480 0.44616 0.67644
 H222 H 0.09901 0.47981 0.68410
 C223 C 0.06882 0.40534 0.63257
 H224 H 0.10653 0.40704 0.60682
 C225 C -0.02815 0.40581 0.69808
 H226 H -0.06676 0.40782 0.72252
 C227 C -0.02592 0.36407 0.65424
 H228 H -0.06258 0.33352 0.64565
 Zn229 Zn 0.01071 0.51398 0.75578
 N230 N 0.01656 0.44635 0.70767
 C231 C 0.11117 0.47442 0.81298
 N232 N 0.07224 0.51881 0.80828
 C233 C 0.07121 0.56525 0.84551
 C234 C 0.10932 0.56752 0.89046
 C235 C 0.15020 0.47504 0.85737
 C236 C -0.02922 0.58017 0.67094
 C237 C -0.02829 0.62339 0.63148
 C238 C 0.05926 0.66711 0.67405
 C239 C 0.05655 0.62298 0.71306
 N240 N 0.01277 0.58059 0.71060
 H241 H 0.11034 0.43716 0.78374
 H242 H 0.03905 0.59932 0.84136
 H243 H 0.10681 0.60357 0.92084
 H244 H 0.17961 0.43841 0.86153
 H245 H -0.06276 0.54516 0.66934
 H246 H -0.06174 0.62167 0.59986
 H247 H 0.09470 0.70014 0.67550
 H248 H 0.09032 0.62152 0.74412
 C249 C 0.02272 0.36475 0.62034
 C250 C -0.14677 0.51803 0.87184
 C251 C 0.01682 0.66716 0.63247
 C252 C 0.14854 0.52158 0.89726
 N253 N 0.04482 0.22718 0.50069
 N254 N 0.05668 0.18728 0.53455
 N255 N 0.73554 0.55226 -0.00619
 N256 N 0.69968 0.56692 0.03048
 N257 N 0.93726 -0.20537 0.51501
 N258 N 0.89741 -0.19968 0.47918
 N259 N 0.28376 0.42245 1.00719
 N260 N 0.32221 0.41543 0.97107
 N261 N 0.94212 0.21434 0.49420
 N262 N 0.90126 0.20656 0.52767
 N263 N 0.28864 0.52782 0.01927
 N264 N 0.29739 0.56938 -0.01398
 N265 N 0.03968 -0.21196 0.51010
 N266 N 0.04956 -0.17385 0.47383
 N267 N 0.73804 0.44777 1.00905
 N268 N 0.70635 0.42637 0.96975
 N269 N 0.48127 0.06563 1.20986
 N270 N 0.48573 0.05559 1.15885
 N271 N -0.01745 0.71165 0.55303
 N272 N 0.02115 0.71023 0.59073
 N273 N 0.48682 0.91488 -0.21863
 N274 N 0.49171 0.92520 -0.16748
 N275 N 0.98635 0.30136 0.45970
 N276 N 1.02296 0.30410 0.42153
 N277 N 0.47746 0.95812 0.21614
 N278 N 0.52129 0.93859 0.19089
 N279 N -0.01469 0.29062 0.55560
 N280 N 0.02499 0.32870 0.57108
 N281 N 0.48587 0.02208 0.77502
 N282 N 0.53034 0.04193 0.80216
 N283 N 0.97951 0.71894 0.45696
 N284 N 1.01959 0.68348 0.44355
 N285 N 1.20627 0.47095 0.05130
 N286 N 1.20325 0.50966 0.09032
 N287 N 0.53588 -0.03756 0.70920
 N288 N 0.54522 0.00361 0.67574
 N289 N -0.18813 0.49282 0.95563
 N290 N -0.18722 0.52665 0.91502
 N291 N 0.42665 0.01736 0.27932
 N292 N 0.42025 0.05553 0.31819
 N293 N 0.21815 0.47953 0.95588
 N294 N 0.18224 0.52055 0.94687
 N295 N 0.53040 0.01998 0.28288
 N296 N 0.53850 -0.01824 0.31915
 N297 N 0.81111 0.51479 0.05024
 N298 N 0.81364 0.47954 0.08975
 N299 N 0.43140 -0.03850 0.71163
 N300 N 0.43131 -0.05118 0.66077
   
