data_POSCAR
  _audit_creation_date              2014-09-24
  _audit_creation_method            'ToBaCCo'
  _symmetry_space_group_name_H-M    'P1'
  _symmetry_Int_Tables_number       1
  _symmetry_cell_setting            triclinic
  loop_
  _symmetry_equiv_pos_as_xyz
 x,y,z
_cell_length_a 12.9664
_cell_length_b 12.9664
_cell_length_c 21.4602
_cell_angle_alpha 89.773300
_cell_angle_beta 90.173900
_cell_angle_gamma 90.001700
loop_
  _atom_site_label
  _atom_site_type_symbol
  _atom_site_fract_x
  _atom_site_fract_y
  _atom_site_fract_z
O1 O -0.08517 0.60139 0.94173
 O2 O -0.08449 0.39487 1.05988
 O3 O -0.08621 0.59670 1.06226
 O4 O -0.08664 0.40000 0.93931
 O5 O 0.08380 0.39567 0.94194
 O6 O 0.08419 0.60124 1.05969
 O7 O 0.08589 0.39942 1.06249
 O8 O 0.08525 0.59706 0.93919
 Cu9 Cu -0.10286 0.49821 1.00085
 Cu10 Cu 0.10201 0.49834 1.00089
 C11 C 0.00005 0.63437 0.92063
 C12 C 0.00094 0.36174 1.08095
 C13 C -0.00107 0.63419 1.08060
 C14 C -0.00160 0.36289 0.92083
 O15 O 0.60488 -0.08358 0.56011
 O16 O 0.39856 -0.08380 0.44197
 O17 O 0.59995 -0.08526 0.43956
 O18 O 0.40306 -0.08530 0.56249
 O19 O 0.39853 0.08511 0.55945
 O20 O 0.60430 0.08517 0.44170
 O21 O 0.40290 0.08663 0.43894
 O22 O 0.60036 0.08679 0.56226
 Cu23 Cu 0.50165 -0.10172 0.50113
 Cu24 Cu 0.50154 0.10316 0.50060
 C25 C 0.63798 0.00176 0.58096
 C26 C 0.36561 0.00150 0.42063
 C27 C 0.63709 -0.00015 0.42083
 C28 C 0.36554 -0.00023 0.58059
 Si29 Si 0.00038 0.00046 0.24949
 Si30 Si -0.00098 -0.00013 0.74949
 C31 C -0.03095 -0.22606 0.21943
 C32 C -0.09651 -0.23623 0.15930
 C33 C -0.00124 -0.27800 0.12518
 C34 C 0.06425 -0.26922 0.18472
 C35 C 0.02963 -0.16837 0.10512
 C36 C -0.06550 -0.12569 0.13973
 C37 C -0.00011 -0.11632 0.19935
 C38 C 0.09499 -0.15837 0.16513
 H39 H -0.05596 -0.24862 0.26699
 H40 H -0.17551 -0.26895 0.15674
 H41 H 0.11763 -0.32918 0.20291
 H42 H 0.05450 -0.14519 0.05762
 H43 H -0.11898 -0.06596 0.12139
 H44 H 0.17385 -0.12536 0.16797
 C45 C 0.06568 0.12616 0.13910
 C46 C -0.02957 0.16876 0.10396
 C47 C 0.00145 0.27836 0.12352
 C48 C 0.09690 0.23676 0.15810
 C49 C -0.06388 0.26997 0.18293
 C50 C -0.09473 0.15902 0.16391
 C51 C 0.00047 0.11704 0.19862
 C52 C 0.03146 0.22684 0.21812
 H53 H 0.11906 0.06631 0.12127
 H54 H -0.05462 0.14534 0.05655
 H55 H 0.17598 0.26928 0.15561
 H56 H -0.11718 0.33000 0.20066
 H57 H -0.17358 0.12603 0.16678
 H58 H 0.05662 0.24952 0.26561
 C59 C 0.12529 -0.06495 0.63979
 C60 C 0.16805 0.03044 0.60506
 C61 C 0.27765 -0.00063 0.62516
 C62 C 0.23578 -0.09616 0.65940
 C63 C 0.26879 0.06438 0.68462
 C64 C 0.15798 0.09532 0.66499
 C65 C 0.11585 -0.00005 0.69933
 C66 C 0.22555 -0.03110 0.71944
 H67 H 0.06557 -0.11827 0.62151
 H68 H 0.14496 0.05571 0.55753
 H69 H 0.26847 -0.17515 0.65694
 H70 H 0.32875 0.11759 0.70274
 H71 H 0.12498 0.17415 0.66774
 H72 H 0.24804 -0.05650 0.76703
 C73 C -0.15941 -0.09441 0.66405
 C74 C -0.27040 -0.06375 0.68303
 C75 C -0.27871 0.00206 0.62353
 C76 C -0.16907 -0.02877 0.60402
 C77 C -0.23721 0.09724 0.65799
 C78 C -0.22735 0.03132 0.71810
 C79 C -0.11751 0.00052 0.69864
 C80 C -0.12656 0.06621 0.63904
 H81 H -0.12642 -0.17328 0.66701
 H82 H -0.33043 -0.11722 0.70083
 H83 H -0.14557 -0.05343 0.55664
 H84 H -0.26975 0.17633 0.65540
 H85 H -0.25010 0.05609 0.76556
 H86 H -0.06669 0.11976 0.62114
 C87 C 0.03003 -0.22676 0.78085
 C88 C 0.09549 -0.23660 0.84108
 C89 C 0.00017 -0.27811 0.87546
 C90 C -0.06523 -0.26968 0.81582
 C91 C -0.03070 -0.16837 0.89474
 C92 C 0.06449 -0.12596 0.85988
 C93 C -0.00081 -0.11691 0.80016
 C94 C -0.09597 -0.15871 0.83463
 H95 H 0.05509 -0.24959 0.73345
 H96 H 0.17448 -0.26931 0.84393
 H97 H -0.11861 -0.32975 0.79804
 H98 H -0.05562 -0.14490 0.94206
 H99 H 0.11804 -0.06623 0.87787
 H100 H -0.17482 -0.12572 0.83150
 C101 C -0.06638 0.12402 0.85984
 C102 C 0.02892 0.16594 0.89495
 C103 C -0.00203 0.27595 0.87567
 C104 C -0.09747 0.23494 0.84104
 C105 C 0.06315 0.26842 0.81617
 C106 C 0.09398 0.15719 0.83499
 C107 C -0.00128 0.11587 0.80026
 C108 C -0.03222 0.22600 0.78095
 H109 H -0.11985 0.06401 0.87765
 H110 H 0.05403 0.14178 0.94232
 H111 H -0.17646 0.26760 0.84372
 H112 H 0.11646 0.32876 0.79856
 H113 H 0.17284 0.12429 0.83205
 H114 H -0.05745 0.24952 0.73351
 C115 C -0.22582 -0.03064 0.28107
 C116 C -0.23483 -0.09589 0.34143
 C117 C -0.27591 -0.00046 0.37566
 C118 C -0.26830 0.06473 0.31589
 C119 C -0.16593 0.03052 0.39481
 C120 C -0.12395 -0.06478 0.36010
 C121 C -0.11572 0.00031 0.30025
 C122 C -0.15710 0.09558 0.33457
 H123 H -0.24926 -0.05588 0.23374
 H124 H -0.26747 -0.17488 0.34445
 H125 H -0.32862 0.11803 0.29805
 H126 H -0.14184 0.05562 0.44207
 H127 H -0.06396 -0.11824 0.37814
 H128 H -0.12419 0.17443 0.33128
 C129 C 0.12604 0.06610 0.35962
 C130 C 0.16838 -0.02910 0.39488
 C131 C 0.27815 0.00175 0.37547
 C132 C 0.23671 0.09708 0.34069
 C133 C 0.26980 -0.06365 0.31610
 C134 C 0.15881 -0.09437 0.33505
 C135 C 0.11706 0.00079 0.30018
 C136 C 0.22695 0.03162 0.28074
 H137 H 0.06628 0.11965 0.37738
 H138 H 0.14484 -0.05401 0.44231
 H139 H 0.26944 0.17606 0.34320
 H140 H 0.32988 -0.11704 0.29855
 H141 H 0.12581 -0.17322 0.33227
 H142 H 0.24985 0.05667 0.23323
   
