data_POSCAR
  _audit_creation_date              2014-09-24
  _audit_creation_method            'ToBaCCo'
  _symmetry_space_group_name_H-M    'P1'
  _symmetry_Int_Tables_number       1
  _symmetry_cell_setting            triclinic
  loop_
  _symmetry_equiv_pos_as_xyz
 x,y,z
_cell_length_a 40.3073
_cell_length_b 41.1703
_cell_length_c 44.0627
_cell_angle_alpha 90.856700
_cell_angle_beta 89.049000
_cell_angle_gamma 88.558000
loop_
  _atom_site_label
  _atom_site_type_symbol
  _atom_site_fract_x
  _atom_site_fract_y
  _atom_site_fract_z
C1 C 1.27455 0.21266 0.26393
 C2 C 1.25137 0.23090 0.24757
 C3 C 1.22531 0.21561 0.23322
 C4 C 1.22221 0.18194 0.23477
 C5 C 1.24527 0.16369 0.25143
 C6 C 1.27173 0.17863 0.26652
 C7 C 1.25386 0.26630 0.24551
 C8 C 1.27469 0.27972 0.22362
 C9 C 1.27520 0.31369 0.21937
 C10 C 1.25443 0.33366 0.23848
 C11 C 1.23339 0.32015 0.26043
 C12 C 1.23322 0.28640 0.26369
 H13 H 1.29360 0.22564 0.27573
 H14 H 1.20793 0.22999 0.22014
 H15 H 1.28869 0.26308 0.20878
 H16 H 1.21706 0.27564 0.28046
 H17 H 1.24286 0.13760 0.25159
 H18 H 1.25468 0.35983 0.23691
 C19 C 0.77069 -0.29518 0.26700
 C20 C 0.74899 -0.27760 0.24864
 C21 C 0.72801 -0.29383 0.22905
 C22 C 0.72858 -0.32784 0.22735
 C23 C 0.75043 -0.34552 0.24599
 C24 C 0.77170 -0.32954 0.26638
 C25 C 0.74885 -0.24193 0.24929
 C26 C 0.77352 -0.22546 0.23357
 C27 C 0.77339 -0.19135 0.23356
 C28 C 0.74828 -0.17394 0.24992
 C29 C 0.72343 -0.19034 0.26595
 C30 C 0.72386 -0.22446 0.26529
 H31 H 0.78754 -0.28156 0.28084
 H32 H 0.71190 -0.27976 0.21449
 H33 H 0.79229 -0.23934 0.22071
 H34 H 0.70523 -0.23758 0.27779
 H35 H 0.74936 -0.37173 0.24545
 H36 H 0.74807 -0.14762 0.25018
 C37 C 0.77748 0.20172 -0.23589
 C38 C 0.75429 0.21823 -0.25363
 C39 C 0.73047 0.20089 -0.26942
 C40 C 0.72976 0.16686 -0.26776
 C41 C 0.75302 0.15050 -0.24963
 C42 C 0.77688 0.16777 -0.23349
 C43 C 0.75447 0.25384 -0.25501
 C44 C 0.77743 0.26922 -0.27371
 C45 C 0.77805 0.30349 -0.27521
 C46 C 0.75491 0.32167 -0.25682
 C47 C 0.73212 0.30627 -0.23758
 C48 C 0.73194 0.27227 -0.23712
 H49 H 0.79588 0.21543 -0.22388
 H50 H 0.71296 0.21396 -0.28342
 H51 H 0.79365 0.25397 -0.28798
 H52 H 0.71495 0.25996 -0.22212
 H53 H 0.75196 0.12438 -0.24740
 H54 H 0.75514 0.34792 -0.25643
 C55 C 1.26200 -0.27935 -0.22572
 C56 C 1.24797 -0.26263 -0.24989
 C57 C 1.23003 -0.27927 -0.27163
 C58 C 1.22578 -0.31282 -0.26941
 C59 C 1.24038 -0.32973 -0.24528
 C60 C 1.25915 -0.31337 -0.22310
 C61 C 1.25033 -0.22718 -0.25129
 C62 C 1.27452 -0.21305 -0.26965
 C63 C 1.27691 -0.17907 -0.27060
 C64 C 1.25464 -0.15953 -0.25297
 C65 C 1.23017 -0.17359 -0.23469
 C66 C 1.22831 -0.20752 -0.23392
 H67 H 1.27394 -0.26501 -0.20850
 H68 H 1.21844 -0.26578 -0.28973
 H69 H 1.29118 -0.22854 -0.28332
 H70 H 1.20997 -0.21878 -0.21950
 H71 H 1.23815 -0.35583 -0.24501
 H72 H 1.25630 -0.13332 -0.25347
 C73 C 0.20939 0.27560 0.74172
 C74 C 0.22777 0.25434 0.75970
 C75 C 0.21148 0.23258 0.77863
 C76 C 0.17641 0.23206 0.78033
 C77 C 0.15839 0.25368 0.76162
 C78 C 0.17462 0.27520 0.74215
 C79 C 0.26431 0.25468 0.75829
 C80 C 0.28125 0.28013 0.77197
 C81 C 0.31629 0.28147 0.77029
 C82 C 0.33362 0.25635 0.75371
 C83 C 0.31665 0.23080 0.73964
 C84 C 0.28198 0.23010 0.74241
 H85 H 0.22234 0.29173 0.72663
 H86 H 0.22660 0.21733 0.79297
 H87 H 0.26661 0.29788 0.78506
 H88 H 0.26844 0.21104 0.73123
 H89 H 0.13160 0.25331 0.76119
 H90 H 0.36027 0.25687 0.75072
 C91 C 0.71211 0.78398 0.73364
 C92 C 0.73083 0.76158 0.75008
 C93 C 0.71513 0.73817 0.76738
 C94 C 0.68024 0.73700 0.76913
 C95 C 0.66170 0.76007 0.75247
 C96 C 0.67712 0.78346 0.73414
 C97 C 0.76724 0.76230 0.74893
 C98 C 0.78382 0.78425 0.76743
 C99 C 0.81864 0.78458 0.76728
 C100 C 0.83665 0.76296 0.74783
 C101 C 0.82018 0.74087 0.72904
 C102 C 0.78534 0.74064 0.72988
 H103 H 0.72542 0.80056 0.71935
 H104 H 0.73067 0.72037 0.77858
 H105 H 0.76950 0.80096 0.78204
 H106 H 0.77217 0.72397 0.71544
 H107 H 0.63510 0.76147 0.75561
 H108 H 0.86353 0.76255 0.74808
 C109 C 0.70606 0.27556 0.23492
 C110 C 0.72244 0.25238 0.25252
 C111 C 0.70425 0.22903 0.26786
 C112 C 0.66949 0.22888 0.26598
 C113 C 0.65329 0.25212 0.24799
 C114 C 0.67142 0.27547 0.23230
 C115 C 0.75869 0.25293 0.25513
 C116 C 0.77320 0.27623 0.27377
 C117 C 0.80786 0.27738 0.27602
 C118 C 0.82782 0.25511 0.25889
 C119 C 0.81346 0.23178 0.23990
 C120 C 0.77873 0.23070 0.23842
 H121 H 0.72038 0.29373 0.22337
 H122 H 0.71718 0.21164 0.28194
 H123 H 0.75737 0.29302 0.28692
 H124 H 0.76719 0.21325 0.22354
 H125 H 0.62659 0.25160 0.24567
 H126 H 0.85459 0.25603 0.26023
 C127 C 0.22121 0.76511 0.23165
 C128 C 0.23947 0.74447 0.25036
 C129 C 0.22325 0.72181 0.26824
 C130 C 0.18839 0.71939 0.26794
 C131 C 0.17045 0.74025 0.24847
 C132 C 0.18637 0.76329 0.23007
 C133 C 0.27591 0.74642 0.25095
 C134 C 0.29064 0.77108 0.26784
 C135 C 0.32536 0.77340 0.26855
 C136 C 0.34517 0.75067 0.25169
 C137 C 0.33064 0.72593 0.23429
 C138 C 0.29585 0.72395 0.23433
 H139 H 0.23484 0.78143 0.21732
 H140 H 0.23836 0.70555 0.28165
 H141 H 0.27494 0.78804 0.28092
 H142 H 0.28406 0.70549 0.22077
 H143 H 0.14367 0.74057 0.24964
 H144 H 0.37193 0.75235 0.25203
 O145 O 1.05742 0.00989 0.04465
 O146 O 0.94291 -0.01450 0.04637
 O147 O 0.98219 0.05381 0.04533
 O148 O 1.01943 -0.05785 0.04321
 O149 O 0.93691 0.03978 0.02690
 O150 O 1.06432 -0.04392 0.02295
 O151 O 0.96279 -0.06087 0.03158
 O152 O 1.03828 0.05631 0.03160
 C153 C 1.05262 0.03899 0.05082
 C154 C 0.94714 -0.04380 0.05119
 C155 C 0.95187 0.05272 0.04814
 C156 C 1.04987 -0.05741 0.04430
 O157 O 1.05644 -0.01882 -0.03253
 O158 O 0.94331 0.01541 -0.02979
 O159 O 1.02068 0.05185 -0.02920
 O160 O 0.97980 -0.05674 -0.02962
 O161 O 0.93524 -0.03837 -0.00987
 O162 O 1.06555 0.03457 -0.01121
 O163 O 1.03583 -0.06363 -0.01844
 O164 O 0.96483 0.05982 -0.01523
 Co165 Co 1.05472 -0.00429 0.00610
 Co166 Co 0.94571 0.00032 0.00828
 Co167 Co 1.00141 0.05020 0.00804
 Co168 Co 0.99956 -0.05449 0.00679
 O169 O 1.00031 -0.00207 0.00731
 C170 C 1.05063 -0.04759 -0.03829
 C171 C 0.94901 0.04425 -0.03470
 C172 C 1.05103 0.04946 -0.03166
 C173 C 0.94959 -0.05304 -0.03136
 O174 O 1.05920 0.51354 0.54019
 O175 O 0.94576 0.48441 0.53826
 O176 O 0.98471 0.55543 0.53826
 O177 O 1.02053 0.44386 0.53913
 O178 O 0.93985 0.53882 0.52012
 O179 O 1.06682 0.45900 0.52220
 O180 O 0.96532 0.43865 0.52263
 O181 O 1.04134 0.55919 0.52444
 C182 C 1.05522 0.54300 0.54469
 C183 C 0.94933 0.45497 0.54238
 C184 C 0.95443 0.55314 0.54096
 C185 C 1.05061 0.44590 0.54282
 O186 O 1.06193 0.48076 0.46422
 O187 O 0.94848 0.51584 0.46254
 O188 O 1.02414 0.55308 0.46427
 O189 O 0.98774 0.44341 0.46366
 O190 O 0.94129 0.46176 0.48010
 O191 O 1.06878 0.53493 0.48273
 O192 O 1.04281 0.43633 0.47980
 O193 O 0.96746 0.56075 0.47832
 Co194 Co 1.05823 0.49719 0.50221
 Co195 Co 0.94982 0.50002 0.50039
 Co196 Co 1.00440 0.55154 0.50130
 Co197 Co 1.00414 0.44610 0.50133
 O198 O 1.00412 0.49873 0.50129
 C199 C 1.05771 0.45158 0.45961
 C200 C 0.95235 0.54510 0.45846
 C201 C 1.05448 0.54958 0.46190
 C202 C 0.95768 0.44665 0.45992
 O203 O 0.56070 0.04244 0.52048
 O204 O 0.43678 -0.02992 0.52156
 O205 O 0.45926 0.06816 0.51561
 O206 O 0.53877 -0.05639 0.52191
 O207 O 0.44068 0.02592 0.53523
 O208 O 0.55468 -0.01100 0.53827
 O209 O 0.48227 -0.04884 0.53887
 O210 O 0.51427 0.06224 0.53576
 C211 C 0.54397 0.05692 0.54077
 C212 C 0.45223 -0.04289 0.54275
 C213 C 0.44579 0.05527 0.53775
 C214 C 0.55142 -0.04026 0.54263
 O215 O 0.56329 -0.03391 0.47996
 O216 O 0.43738 0.04098 0.47446
 O217 O 0.53857 0.06521 0.47790
 O218 O 0.46255 -0.05789 0.48133
 O219 O 0.44394 -0.01508 0.46126
 O220 O 0.55708 0.01972 0.46174
 O221 O 0.51887 -0.05315 0.46317
 O222 O 0.48387 0.05866 0.45904
 Co223 Co 0.55341 0.00438 0.49999
 Co224 Co 0.44530 0.00545 0.49824
 Co225 Co 0.49914 0.05796 0.49736
 Co226 Co 0.50061 -0.04842 0.50104
 O227 O 0.49959 0.00483 0.49914
 C228 C 0.54862 -0.04783 0.45899
 C229 C 0.45416 0.05429 0.45424
 C230 C 0.55275 0.04898 0.45725
 C231 C 0.44975 -0.04466 0.45905
 O232 O 0.56369 0.52258 0.02707
 O233 O 0.41905 0.47503 0.00105
 O234 O 0.47249 0.55938 0.01816
 O235 O 0.51885 0.45182 0.03533
 O236 O 0.45273 0.51321 0.03233
 O237 O 0.56585 0.46256 0.01587
 O238 O 0.46188 0.45456 0.02394
 O239 O 0.53333 0.56437 0.01182
 C240 C 0.55404 0.55171 0.03010
 C241 C 0.43108 0.45286 0.01864
 C242 C 0.45776 0.54268 0.03791
 C243 C 0.54933 0.45208 0.03759
 O244 O 0.56398 0.47487 -0.04200
 O245 O 0.42948 0.53441 -0.01674
 O246 O 0.52549 0.55146 -0.04924
 O247 O 0.47693 0.44115 -0.03585
 O248 O 0.45309 0.48625 -0.04699
 O249 O 0.57021 0.53411 -0.02964
 O250 O 0.53525 0.43496 -0.02408
 O251 O 0.46959 0.54688 -0.04400
 Co252 Co 0.56015 0.49859 -0.00737
 Co253 Co 0.45513 0.49864 -0.00722
 Co254 Co 0.50037 0.55136 -0.01505
 Co255 Co 0.49879 0.45029 -0.00099
 O256 O 0.50555 0.50123 -0.00851
 C257 C 0.55454 0.44627 -0.04415
 C258 C 0.43956 0.55031 -0.03843
 C259 C 0.55595 0.54878 -0.05031
 C260 C 0.46091 0.45778 -0.05432
 C261 C 1.16337 0.17927 0.21743
 C262 C 1.13905 0.16504 0.19975
 C263 C 1.14652 0.13693 0.18235
 C264 C 1.17889 0.12330 0.18290
 C265 C 1.20315 0.13751 0.20054
 C266 C 1.19573 0.16575 0.21779
 C267 C 1.12106 0.12395 0.16199
 C268 C 1.12148 0.09290 0.15243
 C269 C 1.09997 0.08010 0.12837
 C270 C 1.09897 0.04631 0.12417
 C271 C 1.08263 0.03296 0.09949
 C272 C 1.06698 0.05319 0.07838
 C273 C 1.06674 0.08696 0.08315
 C274 C 1.08324 0.10037 0.10780
 H275 H 1.15697 0.20097 0.23067
 H276 H 1.11442 0.17617 0.19945
 H277 H 1.18605 0.10244 0.16885
 H278 H 1.22809 0.12706 0.19978
 H279 H 1.10175 0.14067 0.15475
 H280 H 1.13901 0.07584 0.16222
 H281 H 1.11170 0.03016 0.13957
 H282 H 1.08302 0.00678 0.09652
 H283 H 1.05482 0.10309 0.06722
 H284 H 1.08393 0.12654 0.10971
 C285 C 1.20840 0.67773 0.67694
 C286 C 1.18750 0.66378 0.65573
 C287 C 1.16332 0.64184 0.66481
 C288 C 1.16056 0.63401 0.69576
 C289 C 1.18156 0.64796 0.71700
 C290 C 1.20545 0.67022 0.70784
 C291 C 1.14109 0.62865 0.64142
 C292 C 1.12404 0.60134 0.64466
 C293 C 1.10415 0.58740 0.61993
 C294 C 1.10095 0.55361 0.61821
 C295 C 1.08435 0.53930 0.59411
 C296 C 1.07018 0.55858 0.57140
 C297 C 1.07186 0.59253 0.57391
 C298 C 1.08872 0.60685 0.59796
 H299 H 1.22678 0.69460 0.66918
 H300 H 1.19019 0.67026 0.63209
 H301 H 1.14169 0.61793 0.70389
 H302 H 1.17836 0.64220 0.74076
 H303 H 1.14044 0.64101 0.61991
 H304 H 1.12692 0.58705 0.66489
 H305 H 1.11223 0.53815 0.63505
 H306 H 1.08315 0.51305 0.59297
 H307 H 1.06081 0.60797 0.55694
 H308 H 1.08968 0.63308 0.59922
 C309 C 0.71466 0.11932 0.69955
 C310 C 0.69214 0.10290 0.68156
 C311 C 0.65969 0.11528 0.67798
 C312 C 0.64977 0.14389 0.69391
 C313 C 0.67233 0.16031 0.71197
 C314 C 0.70517 0.14846 0.71462
 C315 C 0.63780 0.09799 0.65674
 C316 C 0.61106 0.11161 0.64375
 C317 C 0.59330 0.09558 0.61866
 C318 C 0.55997 0.10428 0.61340
 C319 C 0.54342 0.09125 0.58848
 C320 C 0.56018 0.06970 0.56812
 C321 C 0.59339 0.06084 0.57355
 C322 C 0.60980 0.07367 0.59841
 H323 H 0.73983 0.10969 0.70091
 H324 H 0.70044 0.08087 0.66967
 H325 H 0.62473 0.15374 0.69265
 H326 H 0.66407 0.18231 0.72390
 H327 H 0.64552 0.07350 0.65011
 H328 H 0.60240 0.13575 0.65051
 H329 H 0.54683 0.12139 0.62846
 H330 H 0.51782 0.09852 0.58481
 H331 H 0.60698 0.04431 0.55825
 H332 H 0.63577 0.06721 0.60091
 C333 C 0.71865 0.62839 0.18848
 C334 C 0.69867 0.61374 0.16686
 C335 C 0.66640 0.62584 0.16162
 C336 C 0.65412 0.65245 0.17917
 C337 C 0.67409 0.66705 0.20088
 C338 C 0.70670 0.65539 0.20559
 C339 C 0.64620 0.60916 0.13860
 C340 C 0.61968 0.62263 0.12502
 C341 C 0.60059 0.60468 0.10193
 C342 C 0.58421 0.62165 0.07884
 C343 C 0.56791 0.60478 0.05575
 C344 C 0.56779 0.57067 0.05554
 C345 C 0.58261 0.55395 0.07959
 C346 C 0.59857 0.57069 0.10257
 H347 H 0.74373 0.61902 0.19132
 H348 H 0.70865 0.59308 0.15386
 H349 H 0.62903 0.66179 0.17660
 H350 H 0.66389 0.68739 0.21416
 H351 H 0.65474 0.58502 0.13157
 H352 H 0.61278 0.64783 0.12950
 H353 H 0.58489 0.64792 0.07817
 H354 H 0.55643 0.61828 0.03764
 H355 H 0.58222 0.52768 0.08054
 H356 H 0.60938 0.55681 0.12075
 C357 C 0.83208 -0.18562 0.21469
 C358 C 0.85559 -0.17079 0.19621
 C359 C 0.84660 -0.14401 0.17854
 C360 C 0.81346 -0.13231 0.17976
 C361 C 0.78995 -0.14717 0.19821
 C362 C 0.79890 -0.17417 0.21567
 C363 C 0.87171 -0.13034 0.15768
 C364 C 0.86976 -0.09979 0.14762
 C365 C 0.89278 -0.08640 0.12466
 C366 C 0.89353 -0.05256 0.12163
 C367 C 0.91218 -0.03875 0.09843
 C368 C 0.93040 -0.05852 0.07753
 C369 C 0.93058 -0.09237 0.08104
 C370 C 0.91184 -0.10623 0.10428
 H371 H 0.83982 -0.20619 0.22812
 H372 H 0.88087 -0.18040 0.19556
 H373 H 0.80521 -0.11248 0.16569
 H374 H 0.76445 -0.13823 0.19796
 H375 H 0.89263 -0.14596 0.15099
 H376 H 0.85049 -0.08344 0.15671
 H377 H 0.87904 -0.03671 0.13690
 H378 H 0.91161 -0.01255 0.09640
 H379 H 0.94430 -0.10820 0.06520
 H380 H 0.91139 -0.13243 0.10530
 C381 C 0.83170 0.30373 0.69672
 C382 C 0.85400 0.31870 0.67711
 C383 C 0.84679 0.34951 0.66548
 C384 C 0.81647 0.36507 0.67387
 C385 C 0.79418 0.35023 0.69363
 C386 C 0.80114 0.31907 0.70536
 C387 C 0.87069 0.36361 0.64357
 C388 C 0.87109 0.39529 0.63674
 C389 C 0.89354 0.40946 0.61357
 C390 C 0.89509 0.44346 0.61216
 C391 C 0.91389 0.45821 0.58955
 C392 C 0.93165 0.43927 0.56770
 C393 C 0.93087 0.40527 0.56943
 C394 C 0.91188 0.39048 0.59196
 H395 H 0.83932 0.28049 0.70577
 H396 H 0.87716 0.30611 0.67109
 H397 H 0.80917 0.38826 0.66455
 H398 H 0.77070 0.36278 0.69820
 H399 H 0.88898 0.34701 0.63336
 H400 H 0.85444 0.41211 0.64886
 H401 H 0.88123 0.45875 0.62836
 H402 H 0.91403 0.48450 0.58886
 H403 H 0.94419 0.39006 0.55281
 H404 H 0.91105 0.36428 0.59155
 C405 C 0.33483 -0.17692 0.70761
 C406 C 0.35855 -0.16252 0.68898
 C407 C 0.35033 -0.13472 0.67238
 C408 C 0.31760 -0.12198 0.67429
 C409 C 0.29395 -0.13635 0.69287
 C410 C 0.30228 -0.16392 0.70979
 C411 C 0.37567 -0.12086 0.65190
 C412 C 0.37444 -0.08984 0.64305
 C413 C 0.39634 -0.07700 0.61906
 C414 C 0.38375 -0.05191 0.60107
 C415 C 0.40227 -0.04056 0.57663
 C416 C 0.43411 -0.05363 0.57000
 C417 C 0.44756 -0.07760 0.58889
 C418 C 0.42874 -0.08936 0.61318
 H419 H 0.34203 -0.19805 0.72053
 H420 H 0.38345 -0.17305 0.68762
 H421 H 0.30975 -0.10151 0.66085
 H422 H 0.26886 -0.12629 0.69347
 H423 H 0.39524 -0.13714 0.64325
 H424 H 0.35502 -0.07357 0.65193
 H425 H 0.35902 -0.04176 0.60534
 H426 H 0.39147 -0.02176 0.56266
 H427 H 0.47221 -0.08783 0.58442
 H428 H 0.43958 -0.10805 0.62720
 C429 C 0.32406 0.31042 0.18476
 C430 C 0.34305 0.32298 0.16113
 C431 C 0.33396 0.35245 0.14776
 C432 C 0.30575 0.36966 0.15912
 C433 C 0.28665 0.35716 0.18277
 C434 C 0.29520 0.32706 0.19600
 C435 C 0.35552 0.36500 0.12324
 C436 C 0.34579 0.38778 0.10356
 C437 C 0.36827 0.40181 0.08045
 C438 C 0.35439 0.41950 0.05654
 C439 C 0.37472 0.43523 0.03564
 C440 C 0.40936 0.43362 0.03835
 C441 C 0.42330 0.41528 0.06176
 C442 C 0.40307 0.39979 0.08271
 H443 H 0.33305 0.28812 0.19476
 H444 H 0.36512 0.30956 0.15333
 H445 H 0.29836 0.39297 0.15011
 H446 H 0.26445 0.37081 0.18959
 H447 H 0.38016 0.35414 0.12109
 H448 H 0.32024 0.39647 0.10394
 H449 H 0.32770 0.42164 0.05434
 H450 H 0.36330 0.44926 0.01784
 H451 H 0.44994 0.41381 0.06457
 H452 H 0.41502 0.38740 0.10117
 C453 C 0.81562 0.12079 -0.22254
 C454 C 0.83733 0.10441 -0.20324
 C455 C 0.84456 0.11752 -0.17459
 C456 C 0.82927 0.14727 -0.16544
 C457 C 0.80762 0.16362 -0.18472
 C458 C 0.80051 0.15057 -0.21345
 C459 C 0.86628 0.09861 -0.15414
 C460 C 0.88261 0.11211 -0.13105
 C461 C 0.90160 0.09322 -0.10845
 C462 C 0.92397 0.10960 -0.08993
 C463 C 0.94014 0.09351 -0.06647
 C464 C 0.93410 0.06067 -0.06095
 C465 C 0.91238 0.04399 -0.07992
 C466 C 0.89614 0.06009 -0.10329
 H467 H 0.81078 0.11024 -0.24464
 H468 H 0.84849 0.08138 -0.21071
 H469 H 0.83307 0.15760 -0.14310
 H470 H 0.79573 0.18613 -0.17679
 H471 H 0.86905 0.07280 -0.15875
 H472 H 0.88229 0.13829 -0.12839
 H473 H 0.92852 0.13513 -0.09328
 H474 H 0.95686 0.10695 -0.05229
 H475 H 0.90713 0.01868 -0.07613
 H476 H 0.87847 0.04668 -0.11636
 C477 C 0.80516 0.62101 0.27810
 C478 C 0.82690 0.60412 0.29706
 C479 C 0.83774 0.61828 0.32417
 C480 C 0.82571 0.64958 0.33228
 C481 C 0.80413 0.66656 0.31337
 C482 C 0.79346 0.65281 0.28570
 C483 C 0.86002 0.59908 0.34409
 C484 C 0.87907 0.61251 0.36543
 C485 C 0.89957 0.59380 0.38726
 C486 C 0.92184 0.61075 0.40551
 C487 C 0.93974 0.59485 0.42810
 C488 C 0.93576 0.56155 0.43296
 C489 C 0.91422 0.54433 0.41421
 C490 C 0.89619 0.56023 0.39177
 H491 H 0.79879 0.60930 0.25693
 H492 H 0.83556 0.57990 0.29032
 H493 H 0.83202 0.66086 0.35367
 H494 H 0.79475 0.68999 0.32151
 H495 H 0.86093 0.57308 0.34033
 H496 H 0.87999 0.63871 0.36720
 H497 H 0.92496 0.63659 0.40269
 H498 H 0.95621 0.60876 0.44213
 H499 H 0.91051 0.51864 0.41747
 H500 H 0.87898 0.54610 0.37886
 C501 C 0.28504 0.13048 0.29715
 C502 C 0.30697 0.11260 0.31492
 C503 C 0.33898 0.12350 0.32039
 C504 C 0.34902 0.15244 0.30685
 C505 C 0.32707 0.17047 0.28906
 C506 C 0.29445 0.16002 0.28399
 C507 C 0.36027 0.10420 0.34093
 C508 C 0.38731 0.11544 0.35454
 C509 C 0.40491 0.09726 0.37844
 C510 C 0.43841 0.10351 0.38376
 C511 C 0.45491 0.08874 0.40780
 C512 C 0.43797 0.06782 0.42725
 C513 C 0.40464 0.06116 0.42164
 C514 C 0.38822 0.07577 0.39760
 H515 H 0.26014 0.12158 0.29528
 H516 H 0.29847 0.09047 0.32517
 H517 H 0.37383 0.16126 0.30952
 H518 H 0.33642 0.19202 0.27849
 H519 H 0.35209 0.08007 0.34624
 H520 H 0.39658 0.13908 0.34906
 H521 H 0.45170 0.12020 0.36950
 H522 H 0.48063 0.09437 0.41164
 H523 H 0.39093 0.04520 0.43630
 H524 H 0.36213 0.07114 0.39498
 C525 C 0.26393 0.63916 -0.18914
 C526 C 0.28009 0.62260 -0.16584
 C527 C 0.30779 0.63577 -0.15187
 C528 C 0.31829 0.66645 -0.16090
 C529 C 0.30251 0.68286 -0.18424
 C530 C 0.27494 0.66967 -0.19907
 C531 C 0.32531 0.61712 -0.12810
 C532 C 0.35767 0.62092 -0.12270
 C533 C 0.37717 0.60245 -0.10021
 C534 C 0.41186 0.60302 -0.10286
 C535 C 0.43182 0.58637 -0.08251
 C536 C 0.41761 0.56881 -0.05876
 C537 C 0.38289 0.56853 -0.05556
 C538 C 0.36275 0.58526 -0.07612
 H539 H 0.24221 0.62815 -0.19847
 H540 H 0.27107 0.59924 -0.15891
 H541 H 0.33883 0.67810 -0.15005
 H542 H 0.31328 0.70539 -0.19117
 H543 H 0.31170 0.59867 -0.11633
 H544 H 0.37153 0.63735 -0.13671
 H545 H 0.42368 0.61623 -0.12099
 H546 H 0.45852 0.58713 -0.08551
 H547 H 0.37135 0.55525 -0.03735
 H548 H 0.33613 0.58488 -0.07282
 C549 C 1.21836 -0.12660 -0.19909
 C550 C 1.19669 -0.10858 -0.17996
 C551 C 1.16319 -0.11676 -0.17719
 C552 C 1.15138 -0.14246 -0.19505
 C553 C 1.17307 -0.16052 -0.21413
 C554 C 1.20686 -0.15309 -0.21597
 C555 C 1.14172 -0.09825 -0.15516
 C556 C 1.11437 -0.11035 -0.14227
 C557 C 1.09567 -0.09333 -0.11733
 C558 C 1.07794 -0.11180 -0.09633
 C559 C 1.06242 -0.09689 -0.07098
 C560 C 1.06428 -0.06319 -0.06630
 C561 C 1.08045 -0.04449 -0.08817
 C562 C 1.09584 -0.05935 -0.11353
 H563 H 1.24432 -0.12043 -0.19997
 H564 H 1.20634 -0.08872 -0.16664
 H565 H 1.12548 -0.14871 -0.19448
 H566 H 1.16343 -0.18036 -0.22749
 H567 H 1.15065 -0.07508 -0.14731
 H568 H 1.10717 -0.13483 -0.14789
 H569 H 1.07704 -0.13796 -0.09901
 H570 H 1.04976 -0.11184 -0.05467
 H571 H 1.08169 -0.01835 -0.08547
 H572 H 1.10798 -0.04414 -0.12990
 C573 C 1.22352 0.36866 0.29474
 C574 C 1.20315 0.38697 0.31486
 C575 C 1.17029 0.37801 0.32074
 C576 C 1.15770 0.35117 0.30494
 C577 C 1.17810 0.33280 0.28496
 C578 C 1.21133 0.34106 0.28003
 C579 C 1.15020 0.39707 0.34353
 C580 C 1.12403 0.38512 0.35850
 C581 C 1.10579 0.40305 0.38325
 C582 C 1.08780 0.38532 0.40465
 C583 C 1.07160 0.40107 0.42922
 C584 C 1.07303 0.43493 0.43279
 C585 C 1.08990 0.45285 0.41075
 C586 C 1.10598 0.43713 0.38615
 H587 H 1.24907 0.37550 0.29138
 H588 H 1.21336 0.40774 0.32648
 H589 H 1.13215 0.34424 0.30778
 H590 H 1.16791 0.31205 0.27332
 H591 H 1.15909 0.42080 0.34972
 H592 H 1.11708 0.36027 0.35430
 H593 H 1.08686 0.35909 0.40272
 H594 H 1.05847 0.38669 0.44568
 H595 H 1.09093 0.47907 0.41264
 H596 H 1.11836 0.45184 0.36953
 C597 C 0.66461 -0.18217 0.28487
 C598 C 0.64092 -0.16633 0.30375
 C599 C 0.64964 -0.13990 0.32216
 C600 C 0.68270 -0.12953 0.32119
 C601 C 0.70634 -0.14536 0.30231
 C602 C 0.69767 -0.17207 0.28419
 C603 C 0.62448 -0.12552 0.34375
 C604 C 0.62669 -0.09562 0.35590
 C605 C 0.60495 -0.08303 0.38105
 C606 C 0.61794 -0.06004 0.40105
 C607 C 0.59946 -0.04870 0.42620
 C608 C 0.56720 -0.05962 0.43165
 C609 C 0.55352 -0.08171 0.41104
 C610 C 0.57229 -0.09348 0.38597
 H611 H 0.65710 -0.20251 0.27094
 H612 H 0.61576 -0.17497 0.30421
 H613 H 0.69091 -0.11012 0.33580
 H614 H 0.73176 -0.13746 0.30279
 H615 H 0.60428 -0.14077 0.35058
 H616 H 0.64674 -0.08031 0.34886
 H617 H 0.64288 -0.05140 0.39766
 H618 H 0.61055 -0.03139 0.44148
 H619 H 0.52857 -0.09023 0.41454
 H620 H 0.56112 -0.11050 0.37050
 C621 C 0.72106 0.35262 -0.20092
 C622 C 0.70032 0.36975 -0.18028
 C623 C 0.66766 0.36002 -0.17480
 C624 C 0.65578 0.33320 -0.19110
 C625 C 0.67652 0.31611 -0.21187
 C626 C 0.70948 0.32548 -0.21684
 C627 C 0.64680 0.37917 -0.15267
 C628 C 0.61978 0.36799 -0.13837
 C629 C 0.60064 0.38802 -0.11558
 C630 C 0.58389 0.37294 -0.09157
 C631 C 0.56784 0.39164 -0.06857
 C632 C 0.56832 0.42572 -0.06934
 C633 C 0.58345 0.44065 -0.09429
 C634 C 0.59918 0.42208 -0.11721
 H635 H 0.74642 0.36020 -0.20387
 H636 H 0.71003 0.39044 -0.16817
 H637 H 0.63044 0.32559 -0.18827
 H638 H 0.66671 0.29564 -0.22420
 H639 H 0.65543 0.40308 -0.14670
 H640 H 0.61272 0.34303 -0.14176
 H641 H 0.58415 0.34669 -0.09010
 H642 H 0.55603 0.37951 -0.04978
 H643 H 0.58347 0.46687 -0.09597
 H644 H 0.61032 0.43458 -0.13609
 C645 C 1.12752 0.21811 -0.18822
 C646 C 1.11145 0.19732 -0.16832
 C647 C 1.12682 0.16827 -0.15908
 C648 C 1.15873 0.16020 -0.17071
 C649 C 1.17499 0.18108 -0.19050
 C650 C 1.15980 0.21060 -0.19971
 C651 C 1.10830 0.14723 -0.13783
 C652 C 1.12196 0.12247 -0.12240
 C653 C 1.10312 0.10277 -0.10025
 C654 C 1.12070 0.08556 -0.07809
 C655 C 1.10392 0.06767 -0.05614
 C656 C 1.06912 0.06653 -0.05594
 C657 C 1.05155 0.08278 -0.07871
 C658 C 1.06831 0.10053 -0.10071
 H659 H 1.11483 0.24077 -0.19333
 H660 H 1.08690 0.20428 -0.15976
 H661 H 1.17119 0.13757 -0.16520
 H662 H 1.19899 0.17304 -0.19948
 H663 H 1.08244 0.15375 -0.13375
 H664 H 1.14833 0.11736 -0.12447
 H665 H 1.14751 0.08646 -0.07739
 H666 H 1.11814 0.05521 -0.03900
 H667 H 1.02473 0.08196 -0.07941
 H668 H 1.05379 0.11221 -0.11804
 C669 C 1.14036 0.68508 0.27955
 C670 C 1.12357 0.66422 0.29891
 C671 C 1.13734 0.65459 0.32646
 C672 C 1.16862 0.66630 0.33419
 C673 C 1.18559 0.68702 0.31479
 C674 C 1.17172 0.69721 0.28712
 C675 C 1.11741 0.63396 0.34699
 C676 C 1.12983 0.61778 0.37071
 C677 C 1.10941 0.59901 0.39243
 C678 C 1.12560 0.57748 0.41211
 C679 C 1.10776 0.56087 0.43426
 C680 C 1.07322 0.56548 0.43729
 C681 C 1.05685 0.58655 0.41734
 C682 C 1.07468 0.60330 0.39531
 H683 H 1.12887 0.69074 0.25820
 H684 H 1.09955 0.65557 0.29225
 H685 H 1.17980 0.66058 0.35565
 H686 H 1.20882 0.69636 0.32265
 H687 H 1.09145 0.63185 0.34174
 H688 H 1.15626 0.61771 0.37448
 H689 H 1.15229 0.57378 0.41059
 H690 H 1.12106 0.54475 0.44927
 H691 H 1.03025 0.59078 0.41924
 H692 H 1.06110 0.62022 0.38138
 C693 C 0.62056 0.21525 0.29872
 C694 C 0.60324 0.19363 0.31677
 C695 C 0.61508 0.16159 0.32034
 C696 C 0.64405 0.15117 0.30434
 C697 C 0.66139 0.17284 0.28623
 C698 C 0.65009 0.20524 0.28359
 C699 C 0.59693 0.14064 0.34171
 C700 C 0.61015 0.11404 0.35453
 C701 C 0.59338 0.09700 0.37963
 C702 C 0.60104 0.06403 0.38444
 C703 C 0.58733 0.04800 0.40929
 C704 C 0.56617 0.06490 0.43005
 C705 C 0.55837 0.09779 0.42512
 C706 C 0.57186 0.11371 0.40029
 H707 H 0.61136 0.24012 0.29738
 H708 H 0.58096 0.20230 0.32873
 H709 H 0.65350 0.12644 0.30559
 H710 H 0.68368 0.16425 0.27427
 H711 H 0.57218 0.14889 0.34860
 H712 H 0.63449 0.10485 0.34755
 H713 H 0.61784 0.05073 0.36905
 H714 H 0.59378 0.02263 0.41257
 H715 H 0.54217 0.11146 0.44076
 H716 H 0.56625 0.13939 0.39808
 C717 C 0.63176 0.70349 -0.21914
 C718 C 0.61585 0.68098 -0.20094
 C719 C 0.63183 0.66738 -0.17601
 C720 C 0.66410 0.67698 -0.16936
 C721 C 0.68007 0.69962 -0.18742
 C722 C 0.66422 0.71354 -0.21271
 C723 C 0.61327 0.64494 -0.15648
 C724 C 0.62788 0.62227 -0.13927
 C725 C 0.60926 0.60140 -0.11813
 C726 C 0.62621 0.58703 -0.09396
 C727 C 0.60917 0.56903 -0.07230
 C728 C 0.57479 0.56507 -0.07446
 C729 C 0.55809 0.57815 -0.09938
 C730 C 0.57513 0.59589 -0.12110
 H731 H 0.61865 0.71201 -0.23881
 H732 H 0.59092 0.67395 -0.20653
 H733 H 0.67675 0.66804 -0.14957
 H734 H 0.70423 0.70723 -0.18028
 H735 H 0.58654 0.64779 -0.15638
 H736 H 0.65467 0.61959 -0.13962
 H737 H 0.65257 0.59051 -0.09134
 H738 H 0.62271 0.55904 -0.05343
 H739 H 0.53168 0.57497 -0.10193
 H740 H 0.56129 0.60515 -0.14004
 C741 C 0.86434 -0.17682 -0.22162
 C742 C 0.88099 -0.15649 -0.20161
 C743 C 0.86968 -0.15204 -0.17149
 C744 C 0.84150 -0.16872 -0.16166
 C745 C 0.82485 -0.18897 -0.18166
 C746 C 0.83608 -0.19328 -0.21184
 C747 C 0.88897 -0.13155 -0.15059
 C748 C 0.87618 -0.11807 -0.12490
 C749 C 0.89595 -0.09991 -0.10254
 C750 C 0.87921 -0.07977 -0.08097
 C751 C 0.89664 -0.06400 -0.05813
 C752 C 0.93121 -0.06824 -0.05632
 C753 C 0.94808 -0.08798 -0.07811
 C754 C 0.93068 -0.10381 -0.10087
 H755 H 0.87345 -0.17954 -0.24480
 H756 H 0.90281 -0.14420 -0.20968
 H757 H 0.83270 -0.16705 -0.13836
 H758 H 0.80362 -0.20195 -0.17328
 H759 H 0.91442 -0.12708 -0.15712
 H760 H 0.84992 -0.11997 -0.11995
 H761 H 0.85248 -0.07651 -0.08159
 H762 H 0.88301 -0.04885 -0.04167
 H763 H 0.97474 -0.09182 -0.07718
 H764 H 0.94453 -0.11983 -0.11636
 C765 C 0.81040 0.33361 0.29873
 C766 C 0.82450 0.35610 0.31846
 C767 C 0.85183 0.34714 0.33606
 C768 C 0.86441 0.31496 0.33399
 C769 C 0.85030 0.29249 0.31432
 C770 C 0.82316 0.30155 0.29645
 C771 C 0.86567 0.37133 0.35729
 C772 C 0.89734 0.36995 0.36611
 C773 C 0.91166 0.39241 0.38870
 C774 C 0.94633 0.39356 0.39041
 C775 C 0.96120 0.41202 0.41297
 C776 C 0.94169 0.42966 0.43452
 C777 C 0.90698 0.42933 0.43242
 C778 C 0.89204 0.41077 0.40982
 H779 H 0.78965 0.34139 0.28508
 H780 H 0.81417 0.38063 0.31984
 H781 H 0.88460 0.30674 0.34806
 H782 H 0.86015 0.26777 0.31364
 H783 H 0.84944 0.39123 0.36493
 H784 H 0.91406 0.35169 0.35598
 H785 H 0.96203 0.37961 0.37455
 H786 H 0.98805 0.41186 0.41394
 H787 H 0.89135 0.44263 0.44880
 H788 H 0.86526 0.41002 0.40980
 C789 C 0.32673 -0.16914 0.28877
 C790 C 0.33996 -0.14539 0.30779
 C791 C 0.36757 -0.15255 0.32576
 C792 C 0.38174 -0.18423 0.32413
 C793 C 0.36853 -0.20794 0.30505
 C794 C 0.34068 -0.20080 0.28736
 C795 C 0.37929 -0.12710 0.34719
 C796 C 0.40927 -0.12807 0.36004
 C797 C 0.41958 -0.10510 0.38423
 C798 C 0.44342 -0.11605 0.40476
 C799 C 0.45315 -0.09620 0.42877
 C800 C 0.43978 -0.06454 0.43259
 C801 C 0.41679 -0.05291 0.41144
 C802 C 0.40659 -0.07308 0.38753
 H803 H 0.30547 -0.16272 0.27520
 H804 H 0.32839 -0.12135 0.30864
 H805 H 0.40226 -0.19136 0.33823
 H806 H 0.37944 -0.23225 0.30495
 H807 H 0.36200 -0.10739 0.35310
 H808 H 0.42667 -0.14763 0.35411
 H809 H 0.45408 -0.14042 0.40264
 H810 H 0.47121 -0.10577 0.44445
 H811 H 0.40630 -0.02849 0.41371
 H812 H 0.38884 -0.06346 0.37164
 C813 C 0.31734 0.33737 -0.20810
 C814 C 0.33319 0.36161 -0.19166
 C815 C 0.36568 0.35683 -0.18157
 C816 C 0.38228 0.32716 -0.18879
 C817 C 0.36648 0.30280 -0.20527
 C818 C 0.33333 0.30705 -0.21481
 C819 C 0.38009 0.38219 -0.16164
 C820 C 0.41266 0.38450 -0.15630
 C821 C 0.42621 0.40645 -0.13271
 C822 C 0.45601 0.39706 -0.11897
 C823 C 0.46801 0.41475 -0.09440
 C824 C 0.45080 0.44267 -0.08329
 C825 C 0.42221 0.45353 -0.09829
 C826 C 0.40990 0.43551 -0.12275
 H827 H 0.29266 0.34311 -0.21600
 H828 H 0.31980 0.38426 -0.18663
 H829 H 0.40696 0.32187 -0.18068
 H830 H 0.37992 0.27996 -0.20866
 H831 H 0.36269 0.39875 -0.15005
 H832 H 0.43014 0.36799 -0.16782
 H833 H 0.46932 0.37509 -0.12639
 H834 H 0.49031 0.40598 -0.08346
 H835 H 0.40857 0.47506 -0.09025
 H836 H 0.38746 0.44416 -0.13345
 C837 C 1.13692 -0.22522 0.19906
 C838 C 1.11904 -0.20504 0.17962
 C839 C 1.13126 -0.17492 0.17094
 C840 C 1.16165 -0.16506 0.18277
 C841 C 1.17970 -0.18527 0.20210
 C842 C 1.16784 -0.21592 0.21064
 C843 C 1.11121 -0.15457 0.15005
 C844 C 1.12342 -0.13000 0.13389
 C845 C 1.10368 -0.11082 0.11189
 C846 C 1.12061 -0.09369 0.08934
 C847 C 1.10318 -0.07599 0.06765
 C848 C 1.06832 -0.07487 0.06811
 C849 C 1.05128 -0.09116 0.09118
 C850 C 1.06872 -0.10883 0.11292
 H851 H 1.12684 -0.24875 0.20376
 H852 H 1.09569 -0.21332 0.17091
 H853 H 1.17144 -0.14149 0.17779
 H854 H 1.20233 -0.17589 0.21126
 H855 H 1.08582 -0.16153 0.14675
 H856 H 1.14951 -0.12474 0.13521
 H857 H 1.14749 -0.09443 0.08819
 H858 H 1.11701 -0.06348 0.05030
 H859 H 1.02441 -0.09039 0.09235
 H860 H 1.05463 -0.12059 0.13052
 C861 C 1.12851 0.28420 0.70529
 C862 C 1.11157 0.30358 0.68454
 C863 C 1.12129 0.33551 0.67908
 C864 C 1.14773 0.34807 0.69571
 C865 C 1.16467 0.32867 0.71650
 C866 C 1.15546 0.29640 0.72132
 C867 C 1.10302 0.35475 0.65616
 C868 C 1.11570 0.38029 0.64176
 C869 C 1.09814 0.39794 0.61734
 C870 C 1.11689 0.41519 0.59611
 C871 C 1.10148 0.43117 0.57212
 C872 C 1.06690 0.43041 0.56897
 C873 C 1.04797 0.41412 0.59078
 C874 C 1.06336 0.39816 0.61475
 H875 H 1.12101 0.25935 0.70821
 H876 H 1.09117 0.29333 0.67222
 H877 H 1.15527 0.37290 0.69305
 H878 H 1.18492 0.33897 0.72895
 H879 H 1.07910 0.34593 0.64954
 H880 H 1.14084 0.38730 0.64633
 H881 H 1.14365 0.41580 0.59776
 H882 H 1.11669 0.44379 0.55584
 H883 H 1.02120 0.41351 0.58920
 H884 H 1.04785 0.38627 0.63123
 C885 C 0.62596 -0.20267 0.70651
 C886 C 0.60798 -0.18212 0.68757
 C887 C 0.62112 -0.15284 0.67769
 C888 C 0.65261 -0.14415 0.68786
 C889 C 0.67063 -0.16460 0.70694
 C890 C 0.65798 -0.19464 0.71632
 C891 C 0.60203 -0.13371 0.65525
 C892 C 0.61033 -0.10433 0.64518
 C893 C 0.59311 -0.08802 0.61985
 C894 C 0.59570 -0.05427 0.61671
 C895 C 0.58164 -0.03847 0.59194
 C896 C 0.56497 -0.05624 0.56969
 C897 C 0.56209 -0.08992 0.57297
 C898 C 0.57615 -0.10568 0.59761
 H899 H 0.61512 -0.22571 0.71179
 H900 H 0.58393 -0.18970 0.67988
 H901 H 0.66402 -0.12196 0.68089
 H902 H 0.69428 -0.15618 0.71466
 H903 H 0.58016 -0.14492 0.64634
 H904 H 0.63038 -0.09145 0.65546
 H905 H 0.60890 -0.04014 0.63333
 H906 H 0.58425 -0.01246 0.58998
 H907 H 0.54951 -0.10428 0.55611
 H908 H 0.57457 -0.13183 0.59842
 C909 C 0.62449 0.31497 0.22256
 C910 C 0.60826 0.33723 0.20390
 C911 C 0.62157 0.34455 0.17523
 C912 C 0.65132 0.32875 0.16542
 C913 C 0.66756 0.30661 0.18411
 C914 C 0.65431 0.29945 0.21284
 C915 C 0.60279 0.36708 0.15554
 C916 C 0.61683 0.38290 0.13242
 C917 C 0.59816 0.40287 0.11037
 C918 C 0.61621 0.42199 0.09013
 C919 C 0.60025 0.43878 0.06702
 C920 C 0.56579 0.43682 0.06364
 C921 C 0.54748 0.41859 0.08442
 C922 C 0.56345 0.40160 0.10741
 H923 H 0.61382 0.31006 0.24469
 H924 H 0.58523 0.34878 0.21187
 H925 H 0.66174 0.33259 0.14303
 H926 H 0.69011 0.29445 0.17576
 H927 H 0.57668 0.37081 0.16079
 H928 H 0.64349 0.38119 0.12916
 H929 H 0.64293 0.42337 0.09178
 H930 H 0.61498 0.45277 0.05141
 H931 H 0.52088 0.41652 0.08227
 H932 H 0.54847 0.38671 0.12191
 C933 C 0.86273 0.22061 0.20550
 C934 C 0.88167 0.19986 0.18634
 C935 C 0.87280 0.16741 0.18190
 C936 C 0.84524 0.15573 0.19802
 C937 C 0.82628 0.17651 0.21719
 C938 C 0.83459 0.20926 0.22086
 C939 C 0.89284 0.14678 0.16028
 C940 C 0.88096 0.12069 0.14588
 C941 C 0.89997 0.10213 0.12201
 C942 C 0.88246 0.08489 0.09999
 C943 C 0.89931 0.06843 0.07619
 C944 C 0.93410 0.06872 0.07407
 C945 C 0.95175 0.08489 0.09673
 C946 C 0.93490 0.10134 0.12052
 H947 H 0.86961 0.24579 0.20765
 H948 H 0.90291 0.20941 0.17437
 H949 H 0.83831 0.13058 0.19612
 H950 H 0.80515 0.16692 0.22927
 H951 H 0.91730 0.15513 0.15427
 H952 H 0.85541 0.11415 0.14971
 H953 H 0.85558 0.08475 0.10082
 H954 H 0.88509 0.05586 0.05923
 H955 H 0.97862 0.08507 0.09592
 H956 H 0.94936 0.11325 0.13768
 C957 C 0.86711 0.72847 0.69227
 C958 C 0.88473 0.70709 0.67267
 C959 C 0.87486 0.67485 0.66884
 C960 C 0.84739 0.66413 0.68572
 C961 C 0.82974 0.68554 0.70532
 C962 C 0.83929 0.71799 0.70866
 C963 C 0.89424 0.65325 0.64754
 C964 C 0.88220 0.62638 0.63459
 C965 C 0.90133 0.60629 0.61187
 C966 C 0.88408 0.58808 0.59035
 C967 C 0.90128 0.57020 0.56760
 C968 C 0.93611 0.57006 0.56610
 C969 C 0.95342 0.58713 0.58841
 C970 C 0.93625 0.60496 0.61113
 H971 H 0.87492 0.75338 0.69420
 H972 H 0.90593 0.71592 0.66011
 H973 H 0.83967 0.63920 0.68429
 H974 H 0.80885 0.67658 0.71819
 H975 H 0.91866 0.66116 0.64086
 H976 H 0.85669 0.62003 0.63889
 H977 H 0.85720 0.58832 0.59069
 H978 H 0.88730 0.55699 0.55088
 H979 H 0.98030 0.58704 0.58813
 H980 H 0.95047 0.61755 0.62804
 C981 C 0.32550 0.17295 0.72154
 C982 C 0.33991 0.14989 0.70138
 C983 C 0.36390 0.15884 0.67983
 C984 C 0.37355 0.19153 0.67927
 C985 C 0.35916 0.21458 0.69949
 C986 C 0.33460 0.20568 0.72054
 C987 C 0.37622 0.13406 0.65707
 C988 C 0.40403 0.13712 0.64029
 C989 C 0.41442 0.11470 0.61493
 C990 C 0.43534 0.12673 0.59223
 C991 C 0.44523 0.10735 0.56732
 C992 C 0.43487 0.07512 0.56460
 C993 C 0.41463 0.06255 0.58766
 C994 C 0.40436 0.08219 0.61259
 H995 H 0.30683 0.16527 0.73767
 H996 H 0.33186 0.12501 0.70232
 H997 H 0.39109 0.19994 0.66251
 H998 H 0.36621 0.23970 0.69771
 H999 H 0.36102 0.11308 0.65357
 H1000 H 0.41935 0.15795 0.64396
 H1001 H 0.44371 0.15152 0.59350
 H1002 H 0.46116 0.11768 0.55016
 H1003 H 0.40659 0.03768 0.58634
 H1004 H 0.38898 0.07169 0.63003
 C1005 C 0.37928 0.71379 0.19905
 C1006 C 0.39779 0.69260 0.17987
 C1007 C 0.38897 0.66000 0.17615
 C1008 C 0.36173 0.64874 0.19305
 C1009 C 0.34324 0.66995 0.21232
 C1010 C 0.35152 0.70285 0.21527
 C1011 C 0.40871 0.63914 0.15423
 C1012 C 0.39797 0.61143 0.14160
 C1013 C 0.41618 0.59314 0.11678
 C1014 C 0.40796 0.56074 0.11050
 C1015 C 0.42235 0.54368 0.08560
 C1016 C 0.44504 0.55885 0.06624
 C1017 C 0.45388 0.59095 0.07293
 C1018 C 0.43960 0.60793 0.09774
 H1019 H 0.38619 0.73900 0.20047
 H1020 H 0.41869 0.70199 0.16728
 H1021 H 0.35463 0.62362 0.19173
 H1022 H 0.32245 0.66054 0.22501
 H1023 H 0.43258 0.64815 0.14730
 H1024 H 0.37435 0.60200 0.14873
 H1025 H 0.38985 0.54876 0.12459
 H1026 H 0.41492 0.51902 0.08096
 H1027 H 0.47126 0.60339 0.05844
 H1028 H 0.44609 0.63304 0.10094
   
