data_POSCAR
  _audit_creation_date              2014-09-24
  _audit_creation_method            'ToBaCCo'
  _symmetry_space_group_name_H-M    'P1'
  _symmetry_Int_Tables_number       1
  _symmetry_cell_setting            triclinic
  loop_
  _symmetry_equiv_pos_as_xyz
 x,y,z
_cell_length_a 56.4504
_cell_length_b 55.6196
_cell_length_c 21.3141
_cell_angle_alpha 90.234200
_cell_angle_beta 89.975900
_cell_angle_gamma 120.777900
loop_
  _atom_site_label
  _atom_site_type_symbol
  _atom_site_fract_x
  _atom_site_fract_y
  _atom_site_fract_z
C1 C 0.21078 0.51843 0.44792
 C2 C 0.20016 0.52035 0.50598
 C3 C 0.21116 0.51836 0.56336
 C4 C 0.23515 0.51618 0.56291
 C5 C 0.24709 0.51536 0.50471
 C6 C 0.23474 0.51620 0.44706
 C7 C 0.24820 0.51753 0.39046
 C8 C 0.27271 0.51738 0.38993
 C9 C 0.28517 0.51639 0.44599
 C10 C 0.27235 0.51536 0.50413
 C11 C 0.24908 0.51770 0.61884
 C12 C 0.27364 0.51763 0.61823
 C13 C 0.28555 0.51601 0.56164
 C14 C 0.31162 0.51783 0.56046
 C15 C 0.32373 0.51898 0.50224
 C16 C 0.31098 0.51807 0.44555
 H17 H 0.24067 0.51999 0.34579
 H18 H 0.28234 0.51912 0.34494
 H19 H 0.24189 0.52037 0.66389
 H20 H 0.28378 0.52020 0.66283
 H21 H 0.18125 0.52099 0.50650
 H22 H 0.34332 0.51973 0.50070
 C23 C 0.51677 -0.19395 0.56099
 C24 C 0.51286 -0.18373 0.50456
 C25 C 0.51718 -0.19249 0.44636
 C26 C 0.52563 -0.21246 0.44409
 C27 C 0.52967 -0.22320 0.50090
 C28 C 0.52511 -0.21400 0.55955
 C29 C 0.52884 -0.22519 0.61500
 C30 C 0.53775 -0.24431 0.61322
 C31 C 0.54245 -0.25379 0.55582
 C32 C 0.53846 -0.24305 0.49906
 C33 C 0.53000 -0.22208 0.38675
 C34 C 0.53918 -0.24098 0.38501
 C35 C 0.54323 -0.25209 0.44049
 C36 C 0.55337 -0.27080 0.43895
 C37 C 0.55969 -0.27897 0.49582
 C38 C 0.55250 -0.27254 0.55392
 H39 H 0.52508 -0.21915 0.66053
 H40 H 0.54151 -0.25111 0.65765
 H41 H 0.52659 -0.21493 0.34242
 H42 H 0.54360 -0.24636 0.33942
 H43 H 0.50718 -0.16782 0.50603
 H44 H 0.56649 -0.29404 0.49457
 C45 C 1.17173 0.71323 0.54369
 C46 C 1.16061 0.70332 0.48373
 C47 C 1.17160 0.71948 0.43006
 C48 C 1.19444 0.74683 0.43519
 C49 C 1.20705 0.75710 0.49460
 C50 C 1.19562 0.74040 0.54928
 C51 C 1.20988 0.75028 0.60648
 C52 C 1.23429 0.77602 0.61045
 C53 C 1.24570 0.79304 0.55734
 C54 C 1.23204 0.78344 0.49859
 C55 C 1.20538 0.76383 0.38213
 C56 C 1.22922 0.78995 0.38640
 C57 C 1.24390 0.79948 0.44321
 C58 C 1.26958 0.82505 0.44675
 C59 C 1.28248 0.83398 0.50535
 C60 C 1.27146 0.81837 0.56012
 H61 H 1.20305 0.73777 0.64855
 H62 H 1.24454 0.78200 0.65551
 H63 H 1.19557 0.75704 0.33666
 H64 H 1.23610 0.80246 0.34431
 H65 H 1.14269 0.68248 0.47833
 H66 H 1.30254 0.85303 0.50821
 C67 C 0.79567 0.48614 0.44010
 C68 C 0.80631 0.48325 0.49673
 C69 C 0.79482 0.48354 0.55492
 C70 C 0.77118 0.48639 0.55613
 C71 C 0.75983 0.48899 0.49868
 C72 C 0.77220 0.48894 0.44054
 C73 C 0.76004 0.49031 0.38428
 C74 C 0.73604 0.49143 0.38463
 C75 C 0.72321 0.49119 0.44126
 C76 C 0.73521 0.49015 0.49904
 C77 C 0.75706 0.48408 0.61228
 C78 C 0.73306 0.48531 0.61264
 C79 C 0.72189 0.48878 0.55683
 C80 C 0.69640 0.48822 0.55628
 C81 C 0.68492 0.48881 0.49833
 C82 C 0.69793 0.49057 0.44148
 H83 H 0.76852 0.48972 0.33916
 H84 H 0.72723 0.49171 0.33976
 H85 H 0.76369 0.48008 0.65656
 H86 H 0.72274 0.48224 0.65716
 H87 H 0.82474 0.48175 0.49530
 H88 H 0.66573 0.48889 0.49724
 C89 C 0.45112 0.28142 0.45093
 C90 C 0.44844 0.29104 0.50966
 C91 C 0.45077 0.27912 0.56510
 C92 C 0.45492 0.25617 0.56233
 C93 C 0.45667 0.24542 0.50316
 C94 C 0.45482 0.25816 0.44715
 C95 C 0.45808 0.24823 0.38905
 C96 C 0.46335 0.22641 0.38584
 C97 C 0.46553 0.21366 0.44059
 C98 C 0.46209 0.22313 0.50003
 C99 C 0.45858 0.24457 0.61716
 C100 C 0.46412 0.22294 0.61421
 C101 C 0.46540 0.21135 0.55631
 C102 C 0.47221 0.19002 0.55259
 C103 C 0.47569 0.18136 0.49311
 C104 C 0.47229 0.19252 0.43765
 H105 H 0.45696 0.25753 0.34548
 H106 H 0.46636 0.22010 0.33987
 H107 H 0.45777 0.25257 0.66302
 H108 H 0.46830 0.21615 0.65807
 H109 H 0.44672 0.30958 0.51234
 H110 H 0.48006 0.16453 0.48947
 C111 C 0.71523 0.17991 0.55902
 C112 C 0.70169 0.17121 0.50127
 C113 C 0.71525 0.18252 0.44460
 C114 C 0.74352 0.20349 0.44539
 C115 C 0.75776 0.21240 0.50371
 C116 C 0.74358 0.20049 0.56070
 C117 C 0.75801 0.20982 0.61771
 C118 C 0.78583 0.23028 0.61894
 C119 C 0.80016 0.24321 0.56346
 C120 C 0.78608 0.23370 0.50513
 C121 C 0.75773 0.21631 0.38985
 C122 C 0.78547 0.23716 0.39128
 C123 C 0.80001 0.24600 0.44830
 C124 C 0.82806 0.26722 0.45000
 C125 C 0.84211 0.27532 0.50725
 C126 C 0.82846 0.26465 0.56450
 H127 H 0.74798 0.20141 0.66215
 H128 H 0.79603 0.23572 0.66411
 H129 H 0.74746 0.21054 0.34476
 H130 H 0.79550 0.24627 0.34714
 H131 H 0.68004 0.15502 0.50041
 H132 H 0.86334 0.29254 0.50733
 N133 N 0.97788 0.45421 0.11578
 N134 N 0.95875 0.43982 0.15787
 N135 N 1.03785 0.47543 0.07032
 N136 N 1.06086 0.47542 0.08264
 N137 N 1.03498 0.49201 0.10953
 N138 N 1.05591 0.50399 0.14870
 N139 N 0.98065 0.43739 0.07706
 N140 N 0.96348 0.41095 0.09221
 C141 C 0.94987 0.41288 0.14267
 C142 C 1.07201 0.49367 0.13148
 N143 N 1.03024 0.48315 -0.11063
 N144 N 1.05081 0.49425 -0.15068
 N145 N 0.97796 0.43197 -0.05809
 N146 N 0.96189 0.40461 -0.06588
 N147 N 0.97307 0.44543 -0.10185
 N148 N 0.95340 0.42778 -0.13993
 N149 N 1.03506 0.47018 -0.06558
 N150 N 1.05907 0.47180 -0.07449
 Mn151 Mn 1.00803 0.45344 0.00597
 C152 C 1.06860 0.48701 -0.12794
 C153 C 0.94643 0.40247 -0.11660
 N154 N 1.02570 0.53764 0.10080
 N155 N 1.04637 0.55466 0.13738
 N156 N 0.96490 0.51445 0.06295
 N157 N 0.94233 0.51549 0.07337
 N158 N 0.96835 0.50014 0.10715
 N159 N 0.94817 0.49075 0.14828
 N160 N 1.02212 0.55159 0.05595
 N161 N 1.04001 0.57875 0.06175
 Mn162 Mn 1.00165 0.49598 0.10885
 C163 C 1.05513 0.58015 0.11259
 C164 C 0.93206 0.50039 0.12664
 N165 N 0.96367 0.49143 -0.11035
 N166 N 0.94266 0.48025 -0.14951
 N167 N 1.01944 0.54615 -0.07986
 N168 N 1.03732 0.57236 -0.09589
 N169 N 1.02070 0.52867 -0.11935
 N170 N 1.03935 0.54229 -0.16273
 N171 N 0.96201 0.50901 -0.07194
 N172 N 0.93974 0.51034 -0.08430
 Mn173 Mn 0.99680 0.48707 -0.11101
 Mn174 Mn 0.99213 0.53070 -0.00830
 Cl175 Cl 0.99965 0.49179 -0.00111
 C176 C 0.92774 0.49200 -0.13253
 C177 C 1.04968 0.56948 -0.14781
 N178 N 0.47015 0.45085 0.07397
 N179 N 0.46079 0.42429 0.08819
 N180 N 0.46949 0.50488 0.10996
 N181 N 0.45957 0.51581 0.14941
 N182 N 0.45048 0.48820 0.06972
 N183 N 0.42692 0.48710 0.08127
 N184 N 0.48900 0.46745 0.11460
 N185 N 0.49322 0.45287 0.15681
 C186 C 0.47565 0.42602 0.13997
 C187 C 0.43307 0.50470 0.13083
 N188 N 0.54378 0.56548 0.06277
 N189 N 0.55413 0.59262 0.07174
 N190 N 0.54460 0.51334 0.11004
 N191 N 0.55462 0.50291 0.15034
 N192 N 0.56284 0.52774 0.06652
 N193 N 0.58604 0.52793 0.07674
 N194 N 0.52518 0.55099 0.10561
 N195 N 0.52196 0.56768 0.14408
 Mn196 Mn 0.50707 0.50922 0.11060
 C197 C 0.53999 0.59349 0.12230
 C198 C 0.58042 0.51213 0.12906
 N199 N 0.44920 0.48550 -0.06579
 N200 N 0.42597 0.48530 -0.07614
 N201 N 0.48707 0.46280 -0.10549
 N202 N 0.49102 0.44643 -0.14333
 N203 N 0.46882 0.44807 -0.06223
 N204 N 0.45943 0.42104 -0.07035
 N205 N 0.46754 0.50024 -0.10884
 N206 N 0.45755 0.51068 -0.14905
 Mn207 Mn 0.45926 0.46778 0.00393
 C208 C 0.43168 0.50132 -0.12824
 C209 C 0.47375 0.42051 -0.12097
 N210 N 0.56161 0.52478 -0.06931
 N211 N 0.58475 0.52492 -0.08090
 N212 N 0.52312 0.54643 -0.11309
 N213 N 0.51902 0.56154 -0.15427
 N214 N 0.54250 0.56258 -0.07297
 N215 N 0.55250 0.58925 -0.08651
 N216 N 0.54247 0.50877 -0.10999
 N217 N 0.55179 0.49738 -0.14962
 Mn218 Mn 0.55309 0.54545 -0.00326
 Mn219 Mn 0.50501 0.50456 -0.10987
 Cl220 Cl 0.50611 0.50674 0.00037
 C221 C 0.57810 0.50744 -0.13104
 C222 C 0.53739 0.58814 -0.13702
 N223 N 0.43570 -0.02830 0.06534
 N224 N 0.40948 -0.04588 0.07841
 N225 N 0.48352 0.03013 0.10773
 N226 N 0.49146 0.05126 0.14695
 N227 N 0.46720 0.03045 0.06430
 N228 N 0.46323 0.05166 0.07348
 N229 N 0.45166 -0.02866 0.10975
 N230 N 0.43671 -0.04639 0.15426
 C231 C 0.41055 -0.05741 0.13329
 C232 C 0.47876 0.06457 0.12497
 N233 N 0.54985 0.02676 0.07067
 N234 N 0.57567 0.04628 0.08280
 N235 N 0.50141 -0.03116 0.11307
 N236 N 0.49390 -0.05112 0.15503
 N237 N 0.51840 -0.03191 0.07204
 N238 N 0.52320 -0.05220 0.08556
 N239 N 0.53309 0.02783 0.11178
 N240 N 0.54694 0.04830 0.15236
 Mn241 Mn 0.49241 -0.00049 0.11121
 C242 C 0.57345 0.05973 0.13364
 C243 C 0.50751 -0.06418 0.13710
 N244 N 0.46814 0.02953 -0.07138
 N245 N 0.46373 0.05011 -0.08500
 N246 N 0.45352 -0.03027 -0.11085
 N247 N 0.43992 -0.05099 -0.15081
 N248 N 0.43667 -0.02934 -0.06984
 N249 N 0.41096 -0.04943 -0.08121
 N250 N 0.48500 0.02853 -0.11226
 N251 N 0.49278 0.04847 -0.15425
 Mn252 Mn 0.45162 0.00060 -0.00291
 C253 C 0.47953 0.06191 -0.13661
 C254 C 0.41343 -0.06289 -0.13178
 N255 N 0.51933 -0.03293 -0.06366
 N256 N 0.52369 -0.05384 -0.07373
 N257 N 0.53454 0.02634 -0.10825
 N258 N 0.54878 0.04641 -0.14892
 N259 N 0.55079 0.02579 -0.06500
 N260 N 0.57673 0.04527 -0.07576
 N261 N 0.50298 -0.03257 -0.10694
 N262 N 0.49540 -0.05338 -0.14692
 Mn263 Mn 0.53490 -0.00309 0.00355
 Mn264 Mn 0.49402 -0.00199 -0.11012
 Cl265 Cl 0.49323 -0.00126 0.00049
 C266 C 0.50832 -0.06657 -0.12557
 C267 C 0.57501 0.05813 -0.12802
 C268 C 1.16056 0.51372 0.29631
 C269 C 1.16946 0.49436 0.29941
 C270 C 1.18755 0.49684 0.34777
 C271 C 1.19637 0.51830 0.39338
 C272 C 1.18759 0.53785 0.38811
 C273 C 1.16982 0.53571 0.33991
 C274 C 1.13995 0.51004 0.24875
 C275 C 1.13020 0.52872 0.24796
 C276 C 1.10910 0.52394 0.20634
 C277 C 1.09730 0.50042 0.16632
 C278 C 1.10806 0.48248 0.16547
 C279 C 1.12934 0.48710 0.20726
 C280 C 1.16028 0.55454 0.33607
 C281 C 1.14080 0.55111 0.29080
 C282 C 1.15909 0.47221 0.25575
 C283 C 1.13938 0.46864 0.21051
 H284 H 1.16742 0.57167 0.36931
 H285 H 1.13340 0.56564 0.29050
 H286 H 1.16580 0.45713 0.25746
 H287 H 1.13148 0.45091 0.17877
 H288 H 1.19325 0.48103 0.35230
 H289 H 1.19433 0.55459 0.42240
 H290 H 1.10108 0.53798 0.20691
 H291 H 1.09898 0.46429 0.13494
 C292 C 0.55184 0.68059 0.28517
 C293 C 0.57617 0.69561 0.32040
 C294 C 0.57701 0.71262 0.37018
 C295 C 0.55404 0.71544 0.38362
 C296 C 0.53015 0.70092 0.34601
 C297 C 0.52876 0.68309 0.29763
 C298 C 0.54990 0.66055 0.23692
 C299 C 0.52466 0.64354 0.20606
 C300 C 0.52207 0.62254 0.16515
 C301 C 0.54464 0.61899 0.15408
 C302 C 0.57019 0.63705 0.18264
 C303 C 0.57278 0.65755 0.22539
 C304 C 0.50428 0.66663 0.26361
 C305 C 0.50218 0.64700 0.21900
 C306 C 0.59883 0.69253 0.30657
 C307 C 0.59724 0.67400 0.25951
 H308 H 0.48631 0.66832 0.27292
 H309 H 0.48265 0.63407 0.19529
 H310 H 0.61780 0.70417 0.33311
 H311 H 0.61502 0.67187 0.25117
 H312 H 0.59546 0.72356 0.39884
 H313 H 0.51191 0.70185 0.35740
 H314 H 0.50229 0.60826 0.14368
 H315 H 0.58733 0.63375 0.17518
 C316 C 0.32214 -0.12562 0.30068
 C317 C 0.31670 -0.11273 0.35078
 C318 C 0.29782 -0.12939 0.39688
 C319 C 0.28442 -0.15888 0.39395
 C320 C 0.28961 -0.17145 0.34208
 C321 C 0.30850 -0.15489 0.29545
 C322 C 0.34357 -0.10811 0.25467
 C323 C 0.34995 -0.12096 0.20593
 C324 C 0.37141 -0.10418 0.16429
 C325 C 0.38641 -0.07498 0.17217
 C326 C 0.37956 -0.06239 0.22039
 C327 C 0.35810 -0.07887 0.26190
 C328 C 0.31498 -0.16698 0.24522
 C329 C 0.33531 -0.15030 0.20116
 C330 C 0.33106 -0.08340 0.35528
 C331 C 0.35145 -0.06674 0.31158
 H332 H 0.30460 -0.18953 0.24055
 H333 H 0.33997 -0.16048 0.16377
 H334 H 0.32694 -0.07325 0.39370
 H335 H 0.36245 -0.04421 0.31743
 H336 H 0.29399 -0.11937 0.43615
 H337 H 0.28056 -0.19396 0.34024
 H338 H 0.37700 -0.11374 0.12720
 H339 H 0.39137 -0.03984 0.22629
 C340 C 0.84489 0.48788 0.28610
 C341 C 0.84109 0.51072 0.29539
 C342 C 0.82360 0.50955 0.34372
 C343 C 0.80995 0.48568 0.38200
 C344 C 0.81310 0.46257 0.37024
 C345 C 0.83080 0.46367 0.32287
 C346 C 0.86526 0.49002 0.23967
 C347 C 0.87051 0.46800 0.23399
 C348 C 0.89168 0.47116 0.19437
 C349 C 0.90733 0.49594 0.16007
 C350 C 0.90094 0.51727 0.16351
 C351 C 0.88018 0.51462 0.20440
 C352 C 0.83567 0.44155 0.31360
 C353 C 0.85527 0.44373 0.27000
 C354 C 0.85582 0.53468 0.25800
 C355 C 0.87492 0.53654 0.21305
 H356 H 0.82482 0.42273 0.34154
 H357 H 0.85893 0.42651 0.26537
 H358 H 0.85298 0.55238 0.26442
 H359 H 0.88623 0.55561 0.18614
 H360 H 0.82154 0.52754 0.35350
 H361 H 0.80280 0.44433 0.40019
 H362 H 0.89656 0.45469 0.19154
 H363 H 0.91320 0.53649 0.13756
 C364 C 0.46353 0.33886 0.30444
 C365 C 0.48454 0.34526 0.34829
 C366 C 0.48051 0.32557 0.39395
 C367 C 0.45560 0.29984 0.39677
 C368 C 0.43480 0.29332 0.35202
 C369 C 0.43871 0.31292 0.30543
 C370 C 0.46718 0.36023 0.25838
 C371 C 0.44593 0.35438 0.21554
 C372 C 0.44906 0.37547 0.17400
 C373 C 0.47300 0.40225 0.17655
 C374 C 0.49426 0.40735 0.21876
 C375 C 0.49145 0.38655 0.25984
 C376 C 0.41813 0.30757 0.26102
 C377 C 0.42170 0.32790 0.21679
 C378 C 0.50879 0.37159 0.34711
 C379 C 0.51213 0.39195 0.30380
 H380 H 0.39893 0.28764 0.26104
 H381 H 0.40514 0.32303 0.18409
 H382 H 0.52508 0.37673 0.38085
 H383 H 0.53079 0.41229 0.30563
 H384 H 0.49637 0.33055 0.42888
 H385 H 0.41551 0.27353 0.35474
 H386 H 0.43254 0.37149 0.14188
 H387 H 0.51284 0.42783 0.22078
 C388 C 0.66040 0.14003 0.29219
 C389 C 0.65473 0.15602 0.33400
 C390 C 0.67406 0.17188 0.38051
 C391 C 0.69858 0.17127 0.38647
 C392 C 0.70445 0.15593 0.34292
 C393 C 0.68537 0.14024 0.29548
 C394 C 0.63905 0.12136 0.24681
 C395 C 0.64420 0.10445 0.20663
 C396 C 0.62311 0.08532 0.16655
 C397 C 0.59687 0.08252 0.16829
 C398 C 0.59233 0.10015 0.20761
 C399 C 0.61336 0.11966 0.24687
 C400 C 0.69008 0.12365 0.25327
 C401 C 0.66991 0.10617 0.20941
 C402 C 0.62922 0.15467 0.33067
 C403 C 0.60883 0.13671 0.28795
 H404 H 0.70929 0.12371 0.25507
 H405 H 0.67419 0.09330 0.17863
 H406 H 0.62466 0.16697 0.36262
 H407 H 0.58915 0.13570 0.28810
 H408 H 0.66940 0.18343 0.41453
 H409 H 0.72307 0.15501 0.34822
 H410 H 0.62663 0.07164 0.13664
 H411 H 0.57220 0.09817 0.20881
 C412 C 0.47963 0.14345 -0.30088
 C413 C 0.50027 0.15575 -0.34667
 C414 C 0.49824 0.17229 -0.39307
 C415 C 0.47570 0.17667 -0.39469
 C416 C 0.45545 0.16464 -0.34723
 C417 C 0.45733 0.14797 -0.30029
 C418 C 0.48072 0.12438 -0.25462
 C419 C 0.45949 0.11104 -0.21030
 C420 C 0.45979 0.09154 -0.16895
 C421 C 0.48081 0.08505 -0.17312
 C422 C 0.50233 0.09928 -0.21655
 C423 C 0.50237 0.11889 -0.25747
 C424 C 0.43682 0.13481 -0.25423
 C425 C 0.43791 0.11671 -0.20994
 C426 C 0.52211 0.15050 -0.34657
 C427 C 0.52314 0.13236 -0.30271
 H428 H 0.41951 0.13813 -0.25306
 H429 H 0.42141 0.10663 -0.17599
 H430 H 0.53823 0.16002 -0.38157
 H431 H 0.54002 0.12838 -0.30507
 H432 H 0.51413 0.18155 -0.42874
 H433 H 0.43742 0.16677 -0.34901
 H434 H 0.44311 0.08053 -0.13577
 H435 H 0.51868 0.09452 -0.21969
 C436 C 0.64878 0.48951 -0.29306
 C437 C 0.63646 0.46875 -0.33956
 C438 C 0.65281 0.46757 -0.38727
 C439 C 0.68146 0.48685 -0.38920
 C440 C 0.69373 0.50682 -0.34040
 C441 C 0.67737 0.50843 -0.29260
 C442 C 0.63115 0.49249 -0.24631
 C443 C 0.64310 0.51438 -0.20208
 C444 C 0.62586 0.51850 -0.16114
 C445 C 0.59700 0.50110 -0.16547
 C446 C 0.58560 0.47855 -0.20819
 C447 C 0.60249 0.47430 -0.24905
 C448 C 0.68872 0.52942 -0.24614
 C449 C 0.67189 0.53236 -0.20174
 C450 C 0.60781 0.45029 -0.33918
 C451 C 0.59109 0.45299 -0.29456
 H452 H 0.71073 0.54415 -0.24505
 H453 H 0.68144 0.54927 -0.16781
 H454 H 0.59814 0.43408 -0.37467
 H455 H 0.56899 0.43882 -0.29693
 H456 H 0.64313 0.45195 -0.42407
 H457 H 0.71555 0.52233 -0.34217
 H458 H 0.63474 0.53593 -0.12844
 H459 H 0.56342 0.46490 -0.21144
 C460 C 0.87461 0.31360 -0.28076
 C461 C 0.84751 0.30776 -0.28946
 C462 C 0.83154 0.28979 -0.33836
 C463 C 0.84278 0.27843 -0.37998
 C464 C 0.87006 0.28452 -0.37011
 C465 C 0.88588 0.30172 -0.32011
 C466 C 0.89210 0.33393 -0.23210
 C467 C 0.91949 0.34038 -0.22458
 C468 C 0.93666 0.36128 -0.18155
 C469 C 0.92683 0.37631 -0.14847
 C470 C 0.89927 0.36930 -0.15547
 C471 C 0.88166 0.34786 -0.19684
 C472 C 0.91312 0.30813 -0.31011
 C473 C 0.92957 0.32697 -0.26283
 C474 C 0.83740 0.32113 -0.25115
 C475 C 0.85426 0.34101 -0.20597
 H476 H 0.92198 0.29892 -0.33986
 H477 H 0.95064 0.33177 -0.25755
 H478 H 0.81653 0.31683 -0.25745
 H479 H 0.84593 0.35151 -0.17883
 H480 H 0.81110 0.28640 -0.34688
 H481 H 0.87900 0.27602 -0.40183
 H482 H 0.95814 0.36729 -0.17721
 H483 H 0.89196 0.38131 -0.13062
 C484 C 0.50903 -0.14943 -0.28447
 C485 C 0.53352 -0.14994 -0.29123
 C486 C 0.53549 -0.16606 -0.33960
 C487 C 0.51305 -0.18174 -0.38036
 C488 C 0.48825 -0.18198 -0.37097
 C489 C 0.48624 -0.16555 -0.32373
 C490 C 0.50783 -0.13027 -0.23824
 C491 C 0.48413 -0.12812 -0.23525
 C492 C 0.48405 -0.10801 -0.19567
 C493 C 0.50732 -0.09031 -0.15895
 C494 C 0.53041 -0.09363 -0.15990
 C495 C 0.53097 -0.11330 -0.20055
 C496 C 0.46242 -0.16377 -0.31720
 C497 C 0.46143 -0.14525 -0.27389
 C498 C 0.55597 -0.13326 -0.25147
 C499 C 0.55466 -0.11538 -0.20664
 H500 H 0.44472 -0.17614 -0.34718
 H501 H 0.44298 -0.14387 -0.27166
 H502 H 0.57493 -0.13358 -0.25595
 H503 H 0.57264 -0.10245 -0.17785
 H504 H 0.55482 -0.16532 -0.34764
 H505 H 0.47110 -0.19375 -0.40286
 H506 H 0.46621 -0.10552 -0.19483
 H507 H 0.54846 -0.07980 -0.13212
 C508 C 0.35959 0.51707 -0.28909
 C509 C 0.37148 0.53845 -0.33390
 C510 C 0.35498 0.53926 -0.38166
 C511 C 0.32662 0.51900 -0.38529
 C512 C 0.31476 0.49827 -0.33835
 C513 C 0.33128 0.49708 -0.29043
 C514 C 0.37748 0.51465 -0.24223
 C515 C 0.36602 0.49228 -0.19961
 C516 C 0.38360 0.48877 -0.15869
 C517 C 0.41233 0.50717 -0.16173
 C518 C 0.42321 0.53014 -0.20273
 C519 C 0.40596 0.53389 -0.24333
 C520 C 0.32037 0.47558 -0.24557
 C521 C 0.33744 0.47322 -0.20097
 C522 C 0.39989 0.55797 -0.33173
 C523 C 0.41687 0.55576 -0.28708
 H524 H 0.29856 0.46004 -0.24588
 H525 H 0.32828 0.45592 -0.16830
 H526 H 0.40921 0.57468 -0.36586
 H527 H 0.43881 0.57082 -0.28796
 H528 H 0.36433 0.55547 -0.41702
 H529 H 0.29322 0.48201 -0.34155
 H530 H 0.37517 0.47099 -0.12733
 H531 H 0.44530 0.54451 -0.20485
 C532 C 1.12688 0.65508 -0.31390
 C533 C 1.13621 0.64684 -0.36613
 C534 C 1.15214 0.66666 -0.41139
 C535 C 1.15901 0.69479 -0.40532
 C536 C 1.15019 0.70293 -0.35139
 C537 C 1.13389 0.68302 -0.30575
 C538 C 1.10847 0.63373 -0.26837
 C539 C 1.09795 0.64149 -0.21743
 C540 C 1.07919 0.62066 -0.17616
 C541 C 1.07105 0.59240 -0.18636
 C542 C 1.08251 0.58532 -0.23675
 C543 C 1.10093 0.60574 -0.27810
 C544 C 1.12353 0.69018 -0.25337
 C545 C 1.10587 0.66979 -0.21004
 C546 C 1.12866 0.61871 -0.37340
 C547 C 1.11127 0.59848 -0.33012
 H548 H 1.12874 0.71164 -0.24637
 H549 H 1.09803 0.67617 -0.17096
 H550 H 1.13581 0.61218 -0.41355
 H551 H 1.10539 0.57688 -0.33824
 H552 H 1.15903 0.66013 -0.45207
 H553 H 1.15453 0.72424 -0.34690
 H554 H 1.07047 0.62628 -0.13749
 H555 H 1.07657 0.56369 -0.24495
 C556 C 0.84174 0.48058 -0.29517
 C557 C 0.83400 0.50090 -0.29412
 C558 C 0.81676 0.50084 -0.34182
 C559 C 0.80776 0.48091 -0.39093
 C560 C 0.81517 0.46022 -0.38962
 C561 C 0.83205 0.45994 -0.34212
 C562 C 0.86167 0.48192 -0.24853
 C563 C 0.87035 0.46237 -0.25187
 C564 C 0.89093 0.46505 -0.21103
 C565 C 0.90319 0.48729 -0.16765
 C566 C 0.89346 0.50604 -0.16278
 C567 C 0.87279 0.50358 -0.20372
 C568 C 0.84039 0.44010 -0.34235
 C569 C 0.85920 0.44126 -0.29786
 C570 C 0.84479 0.52166 -0.24715
 C571 C 0.86385 0.52298 -0.20275
 H572 H 0.83286 0.42396 -0.37820
 H573 H 0.86566 0.42599 -0.30058
 H574 H 0.83897 0.53744 -0.24563
 H575 H 0.87216 0.53973 -0.16833
 H576 H 0.81204 0.51744 -0.34319
 H577 H 0.80819 0.44461 -0.42669
 H578 H 0.89817 0.45041 -0.21471
 H579 H 0.90287 0.52324 -0.12952
 C580 C 0.46066 0.33128 -0.27850
 C581 C 0.43397 0.30978 -0.29493
 C582 C 0.43066 0.29147 -0.34428
 C583 C 0.45388 0.29467 -0.37625
 C584 C 0.48047 0.31551 -0.35759
 C585 C 0.48400 0.33414 -0.30919
 C586 C 0.46416 0.35229 -0.23122
 C587 C 0.49070 0.37503 -0.21881
 C588 C 0.49368 0.39649 -0.17910
 C589 C 0.47046 0.39525 -0.15158
 C590 C 0.44413 0.37163 -0.16132
 C591 C 0.44079 0.35024 -0.20234
 C592 C 0.51031 0.35642 -0.29312
 C593 C 0.51360 0.37660 -0.24881
 C594 C 0.41115 0.30788 -0.26359
 C595 C 0.41452 0.32768 -0.21787
 H596 H 0.52844 0.35876 -0.31639
 H597 H 0.53417 0.39393 -0.23908
 H598 H 0.39048 0.29131 -0.27553
 H599 H 0.39633 0.32581 -0.19593
 H600 H 0.41019 0.27555 -0.35948
 H601 H 0.49823 0.31809 -0.38317
 H602 H 0.51397 0.41475 -0.17156
 H603 H 0.42621 0.37091 -0.14077
 C604 C 0.66099 0.13617 -0.28897
 C605 C 0.68489 0.13458 -0.29658
 C606 C 0.70347 0.14998 -0.34469
 C607 C 0.69834 0.16707 -0.38411
 C608 C 0.67483 0.16917 -0.37429
 C609 C 0.65589 0.15351 -0.32734
 C610 C 0.64016 0.11816 -0.24242
 C611 C 0.61538 0.11825 -0.23831
 C612 C 0.59462 0.09933 -0.19820
 C613 C 0.59859 0.08059 -0.16201
 C614 C 0.62401 0.08163 -0.16408
 C615 C 0.64476 0.10009 -0.20531
 C616 C 0.63137 0.15391 -0.31988
 C617 C 0.61137 0.13646 -0.27629
 C618 C 0.68910 0.11679 -0.25755
 C619 C 0.66945 0.09996 -0.21244
 H620 H 0.62727 0.16724 -0.34919
 H621 H 0.59238 0.13680 -0.27320
 H622 H 0.70750 0.11548 -0.26270
 H623 H 0.67327 0.08615 -0.18412
 H624 H 0.72131 0.14794 -0.35309
 H625 H 0.67074 0.18208 -0.40521
 H626 H 0.57505 0.09857 -0.19644
 H627 H 0.62695 0.06697 -0.13669
 C628 C 1.16054 0.51182 -0.28466
 C629 C 1.16977 0.49275 -0.28924
 C630 C 1.18826 0.49603 -0.33733
 C631 C 1.19697 0.51787 -0.38144
 C632 C 1.18805 0.53726 -0.37436
 C633 C 1.16996 0.53438 -0.32628
 C634 C 1.13925 0.50710 -0.23809
 C635 C 1.12904 0.52540 -0.23623
 C636 C 1.10699 0.51938 -0.19662
 C637 C 1.09490 0.49516 -0.15937
 C638 C 1.10626 0.47777 -0.15881
 C639 C 1.12835 0.48350 -0.19899
 C640 C 1.16017 0.55296 -0.32083
 C641 C 1.14010 0.54859 -0.27634
 C642 C 1.15921 0.47000 -0.24764
 C643 C 1.13886 0.46546 -0.20332
 H644 H 1.16753 0.57061 -0.35233
 H645 H 1.13262 0.56303 -0.27448
 H646 H 1.16620 0.45516 -0.25048
 H647 H 1.13076 0.44724 -0.17337
 H648 H 1.19418 0.48043 -0.34320
 H649 H 1.19478 0.55431 -0.40745
 H650 H 1.09842 0.53295 -0.19674
 H651 H 1.09687 0.45903 -0.13037
 C652 C 0.54881 0.67496 -0.29983
 C653 C 0.57380 0.69133 -0.33170
 C654 C 0.57523 0.70936 -0.37935
 C655 C 0.55224 0.71203 -0.39334
 C656 C 0.52761 0.69607 -0.35913
 C657 C 0.52561 0.67708 -0.31339
 C658 C 0.54650 0.65423 -0.25353
 C659 C 0.52081 0.63610 -0.22592
 C660 C 0.51819 0.61494 -0.18591
 C661 C 0.54121 0.61251 -0.17209
 C662 C 0.56707 0.63150 -0.19781
 C663 C 0.56970 0.65207 -0.23994
 C664 C 0.50054 0.65931 -0.28291
 C665 C 0.49810 0.63896 -0.24041
 C666 C 0.59664 0.68878 -0.31643
 C667 C 0.59470 0.66969 -0.27083
 H668 H 0.48246 0.66066 -0.29322
 H669 H 0.47820 0.62515 -0.21923
 H670 H 0.61610 0.70144 -0.34037
 H671 H 0.61272 0.66818 -0.26093
 H672 H 0.59422 0.72140 -0.40552
 H673 H 0.50943 0.69700 -0.37117
 H674 H 0.49824 0.60008 -0.16629
 H675 H 0.58463 0.62916 -0.18797
 C676 C 0.32716 -0.14292 -0.29149
 C677 C 0.30021 -0.14793 -0.28512
 C678 C 0.28061 -0.16313 -0.33221
 C679 C 0.28833 -0.17228 -0.38608
 C680 C 0.31520 -0.16783 -0.39022
 C681 C 0.33460 -0.15334 -0.34315
 C682 C 0.34852 -0.12482 -0.24561
 C683 C 0.37567 -0.11884 -0.25411
 C684 C 0.39638 -0.09977 -0.21392
 C685 C 0.39035 -0.08613 -0.16631
 C686 C 0.36284 -0.09320 -0.15637
 C687 C 0.34178 -0.11250 -0.19641
 C688 C 0.36171 -0.14784 -0.34853
 C689 C 0.38191 -0.13096 -0.30452
 C690 C 0.29394 -0.13627 -0.23366
 C691 C 0.31438 -0.11880 -0.19017
 H692 H 0.36755 -0.15602 -0.38802
 H693 H 0.40278 -0.12660 -0.31119
 H694 H 0.27326 -0.13998 -0.22799
 H695 H 0.30882 -0.10960 -0.15226
 H696 H 0.26017 -0.16591 -0.32935
 H697 H 0.32123 -0.17488 -0.43153
 H698 H 0.41745 -0.09464 -0.22152
 H699 H 0.35807 -0.08278 -0.11971
 C700 C 0.50965 -0.14560 0.29750
 C701 C 0.48696 -0.16195 0.33648
 C702 C 0.48896 -0.17891 0.38199
 C703 C 0.51369 -0.17897 0.38999
 C704 C 0.53614 -0.16278 0.34991
 C705 C 0.53413 -0.14623 0.30309
 C706 C 0.50828 -0.12632 0.25236
 C707 C 0.53120 -0.10944 0.21433
 C708 C 0.53029 -0.09010 0.17379
 C709 C 0.50709 -0.08694 0.17314
 C710 C 0.48415 -0.10430 0.21077
 C711 C 0.48455 -0.12419 0.25018
 C712 C 0.55643 -0.12944 0.26341
 C713 C 0.55492 -0.11150 0.21947
 C714 C 0.46316 -0.16007 0.33109
 C715 C 0.46203 -0.14139 0.28889
 H716 H 0.57537 -0.12983 0.26702
 H717 H 0.57274 -0.09861 0.19042
 H718 H 0.44552 -0.17261 0.36091
 H719 H 0.44355 -0.14006 0.28731
 H720 H 0.47180 -0.19106 0.41339
 H721 H 0.55543 -0.16222 0.35698
 H722 H 0.54808 -0.07656 0.14525
 H723 H 0.46622 -0.10198 0.21010
 C724 C 0.35893 0.51763 0.29133
 C725 C 0.36961 0.54114 0.33100
 C726 C 0.35292 0.54197 0.37851
 C727 C 0.32598 0.51927 0.38740
 C728 C 0.31521 0.49622 0.34612
 C729 C 0.33166 0.49531 0.29779
 C730 C 0.37718 0.51558 0.24484
 C731 C 0.36692 0.49155 0.20690
 C732 C 0.38495 0.48880 0.16608
 C733 C 0.41312 0.50947 0.16496
 C734 C 0.42285 0.53380 0.20175
 C735 C 0.40497 0.53700 0.24174
 C736 C 0.32188 0.47200 0.25767
 C737 C 0.33918 0.47020 0.21282
 C738 C 0.39719 0.56272 0.32445
 C739 C 0.41461 0.56065 0.28065
 H740 H 0.30086 0.45471 0.26192
 H741 H 0.33097 0.45159 0.18378
 H742 H 0.40560 0.58099 0.35468
 H743 H 0.43597 0.57739 0.27828
 H744 H 0.36126 0.55957 0.41077
 H745 H 0.29462 0.47854 0.35367
 H746 H 0.37746 0.46995 0.13811
 H747 H 0.44453 0.54983 0.20069
 C748 C 1.13155 0.66980 0.26888
 C749 C 1.12593 0.69078 0.28644
 C750 C 1.14051 0.70862 0.33693
 C751 C 1.16036 0.70532 0.36927
 C752 C 1.16662 0.68511 0.34927
 C753 C 1.15207 0.66706 0.29952
 C754 C 1.11424 0.64900 0.22087
 C755 C 1.11838 0.62666 0.20755
 C756 C 1.09988 0.60515 0.16779
 C757 C 1.07746 0.60586 0.14132
 C758 C 1.07448 0.62917 0.15163
 C759 C 1.09261 0.65066 0.19262
 C760 C 1.15655 0.64531 0.28231
 C761 C 1.13992 0.62538 0.23714
 C762 C 1.10487 0.69245 0.25535
 C763 C 1.08856 0.67280 0.20907
 H764 H 1.17241 0.64310 0.30548
 H765 H 1.14343 0.60838 0.22664
 H766 H 1.10043 0.70862 0.26813
 H767 H 1.07203 0.67439 0.18759
 H768 H 1.13552 0.72400 0.35318
 H769 H 1.18169 0.68244 0.37502
 H770 H 1.10208 0.58710 0.15988
 H771 H 1.05693 0.62946 0.13194
 C772 C 0.47958 0.14872 0.28152
 C773 C 0.45520 0.14943 0.28867
 C774 C 0.45345 0.16556 0.33733
 C775 C 0.47592 0.18086 0.37816
 C776 C 0.50066 0.18106 0.36817
 C777 C 0.50249 0.16470 0.32055
 C778 C 0.48047 0.12937 0.23539
 C779 C 0.50402 0.12695 0.23222
 C780 C 0.50373 0.10652 0.19317
 C781 C 0.48023 0.08873 0.15725
 C782 C 0.45733 0.09236 0.15814
 C783 C 0.45714 0.11237 0.19825
 C784 C 0.52619 0.16274 0.31364
 C785 C 0.52690 0.14408 0.27036
 C786 C 0.43261 0.13283 0.24921
 C787 C 0.43362 0.11473 0.20453
 H788 H 0.54399 0.17504 0.34342
 H789 H 0.54524 0.14251 0.26792
 H790 H 0.41374 0.13331 0.25397
 H791 H 0.41551 0.10180 0.17610
 H792 H 0.43422 0.16499 0.34576
 H793 H 0.51784 0.19260 0.40014
 H794 H 0.52143 0.10380 0.19228
 H795 H 0.43911 0.07847 0.13091
 C796 C 0.65232 0.49532 0.28751
 C797 C 0.64114 0.47070 0.32313
 C798 C 0.65703 0.46866 0.37082
 C799 C 0.68369 0.49116 0.38368
 C800 C 0.69500 0.51539 0.34646
 C801 C 0.67933 0.51758 0.29809
 C802 C 0.63481 0.49851 0.24098
 C803 C 0.64551 0.52358 0.20713
 C804 C 0.62806 0.52729 0.16646
 C805 C 0.60000 0.50654 0.16181
 C806 C 0.58987 0.48123 0.19442
 C807 C 0.60721 0.47702 0.23386
 C808 C 0.68961 0.54199 0.26194
 C809 C 0.67302 0.54490 0.21704
 C810 C 0.61387 0.44912 0.31230
 C811 C 0.59718 0.45225 0.26838
 H812 H 0.71045 0.55924 0.26938
 H813 H 0.68156 0.56431 0.19118
 H814 H 0.60511 0.42996 0.33919
 H815 H 0.57608 0.43537 0.26231
 H816 H 0.64831 0.45014 0.40000
 H817 H 0.71540 0.53286 0.35710
 H818 H 0.63579 0.54690 0.14171
 H819 H 0.56825 0.46519 0.19056
 C820 C 0.87367 0.32476 0.30430
 C821 C 0.85714 0.33001 0.34469
 C822 C 0.84114 0.31012 0.38990
 C823 C 0.84198 0.28545 0.39568
 C824 C 0.85817 0.28005 0.35439
 C825 C 0.87410 0.29976 0.30819
 C826 C 0.89179 0.34643 0.25907
 C827 C 0.90895 0.34165 0.21968
 C828 C 0.92718 0.36299 0.17894
 C829 C 0.92866 0.38905 0.17907
 C830 C 0.91089 0.39319 0.21793
 C831 C 0.89242 0.37198 0.25794
 C832 C 0.89113 0.29548 0.26716
 C833 C 0.90817 0.31601 0.22351
 C834 C 0.85772 0.35550 0.34073
 C835 C 0.87517 0.37619 0.29824
 H836 H 0.89159 0.27627 0.26944
 H837 H 0.92126 0.31202 0.19341
 H838 H 0.84505 0.35974 0.37172
 H839 H 0.87555 0.39584 0.29775
 H840 H 0.82884 0.31425 0.42245
 H841 H 0.85892 0.26108 0.35957
 H842 H 0.94097 0.35980 0.14935
 H843 H 0.91181 0.41315 0.21792
   
