data_POSCAR
  _audit_creation_date              2014-09-24
  _audit_creation_method            'ToBaCCo'
  _symmetry_space_group_name_H-M    'P1'
  _symmetry_Int_Tables_number       1
  _symmetry_cell_setting            triclinic
  loop_
  _symmetry_equiv_pos_as_xyz
 x,y,z
_cell_length_a 47.9560
_cell_length_b 39.6584
_cell_length_c 24.8993
_cell_angle_alpha 90.382300
_cell_angle_beta 90.303100
_cell_angle_gamma 90.127300
loop_
  _atom_site_label
  _atom_site_type_symbol
  _atom_site_fract_x
  _atom_site_fract_y
  _atom_site_fract_z
C1 C 0.68134 0.28317 0.48624
 C2 C 0.69571 0.28284 0.53565
 C3 C 0.72132 0.26544 0.53834
 C4 C 0.73135 0.24665 0.49408
 C5 C 0.71583 0.24686 0.44581
 C6 C 0.69148 0.26606 0.44102
 C7 C 0.75817 0.22744 0.49781
 C8 C 0.77451 0.22168 0.45165
 C9 C 0.79985 0.20379 0.45425
 C10 C 0.80956 0.19358 0.50500
 C11 C 0.79362 0.19868 0.55125
 C12 C 0.76773 0.21476 0.54736
 H13 H 0.66318 0.29906 0.48159
 H14 H 0.73307 0.26572 0.57545
 H15 H 0.72252 0.23223 0.41144
 H16 H 0.76816 0.23229 0.41365
 H17 H 0.82856 0.17905 0.50869
 H18 H 0.75526 0.21728 0.58323
 C19 C 0.20693 0.82625 0.49995
 C20 C 0.21910 0.81866 0.55003
 C21 C 0.23907 0.79259 0.55208
 C22 C 0.24584 0.77333 0.50600
 C23 C 0.23190 0.78058 0.45739
 C24 C 0.21318 0.80750 0.45376
 C25 C 0.26741 0.74592 0.50827
 C26 C 0.28170 0.73591 0.46147
 C27 C 0.30006 0.70860 0.46209
 C28 C 0.30595 0.69246 0.51061
 C29 C 0.29368 0.70316 0.55918
 C30 C 0.27372 0.72928 0.55686
 H31 H 0.19092 0.84536 0.49692
 H32 H 0.25024 0.78847 0.58923
 H33 H 0.23558 0.76560 0.42173
 H34 H 0.27850 0.74884 0.42387
 H35 H 0.32168 0.67294 0.51020
 H36 H 0.26218 0.73551 0.59268
 C37 C 0.31351 0.29605 -0.49292
 C38 C 0.30537 0.28220 -0.54256
 C39 C 0.28064 0.26321 -0.54564
 C40 C 0.26313 0.25966 -0.50057
 C41 C 0.27138 0.27511 -0.45175
 C42 C 0.29689 0.29221 -0.44734
 C43 C 0.23651 0.23987 -0.50423
 C44 C 0.22530 0.22427 -0.45833
 C45 C 0.20010 0.20582 -0.46057
 C46 C 0.18671 0.20232 -0.51084
 C47 C 0.19786 0.21676 -0.55717
 C48 C 0.22233 0.23593 -0.55359
 H49 H 0.33243 0.31094 -0.48987
 H50 H 0.27544 0.25093 -0.58328
 H51 H 0.25825 0.27377 -0.41665
 H52 H 0.23708 0.22482 -0.42126
 H53 H 0.16716 0.18884 -0.51458
 H54 H 0.22987 0.24797 -0.58956
 C55 C -0.19486 0.80906 -0.48577
 C56 C -0.20219 0.79826 -0.53797
 C57 C -0.22825 0.78206 -0.54528
 C58 C -0.24712 0.77812 -0.50217
 C59 C -0.23960 0.79173 -0.45155
 C60 C -0.21325 0.80584 -0.44287
 C61 C -0.27408 0.75902 -0.50906
 C62 C -0.28698 0.74382 -0.46435
 C63 C -0.31238 0.72641 -0.46937
 C64 C -0.32449 0.72281 -0.52042
 C65 C -0.31179 0.73659 -0.56582
 C66 C -0.28694 0.75510 -0.55994
 H67 H -0.17549 0.82236 -0.47824
 H68 H -0.23308 0.77108 -0.58403
 H69 H -0.25383 0.79112 -0.41806
 H70 H -0.27739 0.74528 -0.42511
 H71 H -0.34338 0.70804 -0.52531
 H72 H -0.27811 0.76657 -0.59526
 N73 N -0.02974 1.03069 -0.09334
 N74 N -0.05050 1.03661 -0.12697
 N75 N 0.03098 1.05345 -0.06543
 N76 N 0.05166 1.07406 -0.07792
 N77 N 0.02873 1.02917 -0.10125
 N78 N 0.04785 1.03229 -0.13862
 N79 N -0.02749 1.05518 -0.05784
 N80 N -0.04664 1.07840 -0.06636
 C81 C -0.06104 1.06633 -0.10931
 C82 C 0.06208 1.06029 -0.12363
 N83 N 0.03548 1.03312 0.08867
 N84 N 0.05579 1.03959 0.12317
 N85 N -0.02330 1.05755 0.05734
 N86 N -0.04057 1.08214 0.07008
 N87 N -0.02319 1.03428 0.09465
 N88 N -0.04060 1.04235 0.13356
 N89 N 0.03490 1.05592 0.05069
 N90 N 0.05451 1.07884 0.05886
 Mn91 Mn 0.00386 1.05588 -0.00389
 C92 C 0.06764 1.06802 0.10386
 C93 C -0.05152 1.07209 0.11732
 N94 N 0.02791 0.95721 -0.09844
 N95 N 0.04791 0.95314 -0.13391
 N96 N -0.02894 0.93468 -0.05350
 N97 N -0.04963 0.91285 -0.05895
 N98 N -0.03058 0.95806 -0.09042
 N99 N -0.05238 0.95286 -0.12190
 N100 N 0.02973 0.93444 -0.06058
 N101 N 0.05102 0.91404 -0.06960
 Mn102 Mn -0.00105 0.99375 -0.09637
 C103 C 0.06217 0.92613 -0.11565
 C104 C -0.06418 0.92467 -0.10166
 N105 N -0.02392 0.96118 0.09759
 N106 N -0.04260 0.95608 0.13546
 N107 N 0.03355 0.93642 0.05572
 N108 N 0.05418 0.91488 0.06369
 N109 N 0.03464 0.96097 0.09131
 N110 N 0.05616 0.95722 0.12374
 N111 N -0.02499 0.93687 0.06156
 N112 N -0.04455 0.91478 0.07365
 Mn113 Mn 0.00566 0.99737 0.09362
 Mn114 Mn 0.00242 0.93514 0.00078
 Cl115 Cl 0.00271 0.99554 -0.00139
 C116 C -0.05550 0.92716 0.11972
 C117 C 0.06821 0.92847 0.10610
 N118 N 0.52515 0.55894 -0.06803
 N119 N 0.54155 0.58319 -0.08612
 N120 N 0.46575 0.53116 -0.09016
 N121 N 0.44381 0.53415 -0.12173
 N122 N 0.46687 0.55605 -0.05516
 N123 N 0.44575 0.57699 -0.06267
 N124 N 0.52379 0.53397 -0.10290
 N125 N 0.53899 0.54059 -0.14545
 C126 C 0.55028 0.57111 -0.13430
 C127 C 0.43137 0.56266 -0.10410
 N128 N 0.47055 0.43657 -0.04879
 N129 N 0.45127 0.41290 -0.05436
 N130 N 0.52633 0.46131 -0.09892
 N131 N 0.54378 0.45485 -0.13855
 N132 N 0.52866 0.43849 -0.06123
 N133 N 0.54756 0.41582 -0.07424
 N134 N 0.46794 0.45929 -0.08651
 N135 N 0.44667 0.45205 -0.11825
 Mn136 Mn 0.49602 0.49643 -0.09505
 C137 C 0.43628 0.42323 -0.09756
 C138 C 0.55706 0.42652 -0.12230
 N139 N 0.47416 0.55910 0.06092
 N140 N 0.45405 0.58021 0.07490
 N141 N 0.53588 0.53896 0.08437
 N142 N 0.55657 0.54733 0.11694
 N143 N 0.53228 0.56216 0.04755
 N144 N 0.55034 0.58706 0.05451
 N145 N 0.47780 0.53623 0.09818
 N146 N 0.46027 0.54086 0.13798
 Mn147 Mn 0.49955 0.55953 -0.00369
 C148 C 0.44547 0.56821 0.12309
 C149 C 0.56564 0.57719 0.09755
 N150 N 0.53584 0.44131 0.05347
 N151 N 0.55318 0.41671 0.06604
 N152 N 0.47992 0.46404 0.10217
 N153 N 0.46455 0.45743 0.14458
 N154 N 0.47774 0.43966 0.06647
 N155 N 0.46082 0.41578 0.08377
 N156 N 0.53792 0.46614 0.08849
 N157 N 0.55662 0.45891 0.12567
 Mn158 Mn 0.50314 0.43872 0.00244
 Mn159 Mn 0.50798 0.50143 0.09360
 Cl160 Cl 0.50173 0.49906 -0.00065
 C161 C 0.56641 0.42832 0.11064
 C162 C 0.45247 0.42746 0.13235
 C163 C 0.30877 0.29745 0.35988
 C164 C 0.32429 0.30891 0.31619
 C165 C 0.35326 0.31296 0.32070
 C166 C 0.36675 0.30281 0.36815
 C167 C 0.35130 0.29107 0.41159
 C168 C 0.32205 0.28936 0.40863
 C169 C 0.36878 0.32930 0.27668
 C170 C 0.38975 0.35083 0.28695
 C171 C 0.40439 0.37042 0.24527
 C172 C 0.41686 0.40110 0.26031
 C173 C 0.43180 0.41998 0.22313
 C174 C 0.43501 0.40830 0.17020
 C175 C 0.42246 0.37765 0.15483
 C176 C 0.40719 0.35885 0.19201
 H177 H 0.28627 0.29656 0.35632
 H178 H 0.31350 0.31626 0.27979
 H179 H 0.38921 0.30449 0.37206
 H180 H 0.36223 0.28409 0.44800
 H181 H 0.36099 0.32620 0.23604
 H182 H 0.39528 0.35629 0.32837
 H183 H 0.41508 0.41048 0.30111
 H184 H 0.44131 0.44345 0.23622
 H185 H 0.42474 0.36799 0.11431
 H186 H 0.39834 0.33495 0.17938
 C187 C -0.15509 0.80876 0.42682
 C188 C -0.13786 0.82145 0.38689
 C189 C -0.14878 0.83066 0.33690
 C190 C -0.17724 0.82478 0.32633
 C191 C -0.19464 0.81184 0.36641
 C192 C -0.18410 0.80521 0.41839
 C193 C -0.13017 0.84901 0.29970
 C194 C -0.13514 0.85367 0.24726
 C195 C -0.11586 0.87377 0.21389
 C196 C -0.11063 0.86387 0.16073
 C197 C -0.09126 0.88151 0.12972
 C198 C -0.07723 0.90978 0.15107
 C199 C -0.08342 0.92057 0.20344
 C200 C -0.10250 0.90273 0.23459
 H201 H -0.14542 0.80193 0.46455
 H202 H -0.11590 0.82500 0.39578
 H203 H -0.18655 0.83183 0.28840
 H204 H -0.21671 0.80989 0.35760
 H205 H -0.11103 0.85911 0.31677
 H206 H -0.15262 0.84132 0.22770
 H207 H -0.12093 0.84189 0.14374
 H208 H -0.08705 0.87281 0.08925
 H209 H -0.07312 0.94244 0.22076
 H210 H -0.10677 0.91164 0.27490
 C211 C 0.64735 0.73458 0.37138
 C212 C 0.63477 0.72288 0.32404
 C213 C 0.65039 0.70526 0.28558
 C214 C 0.67935 0.70194 0.29330
 C215 C 0.69204 0.71417 0.34033
 C216 C 0.67596 0.72958 0.38053
 C217 C 0.63554 0.68889 0.24001
 C218 C 0.64290 0.65845 0.22111
 C219 C 0.62470 0.63818 0.18502
 C220 C 0.62421 0.60306 0.19123
 C221 C 0.60545 0.58320 0.16175
 C222 C 0.58723 0.59799 0.12447
 C223 C 0.58873 0.63293 0.11596
 C224 C 0.60719 0.65294 0.14624
 H225 H 0.63458 0.74657 0.40174
 H226 H 0.61248 0.72602 0.31878
 H227 H 0.69206 0.68919 0.26369
 H228 H 0.71413 0.70999 0.34659
 H229 H 0.61594 0.69984 0.22727
 H230 H 0.66092 0.64598 0.23822
 H231 H 0.63763 0.59107 0.22054
 H232 H 0.60488 0.55628 0.16880
 H233 H 0.57497 0.64493 0.08728
 H234 H 0.60757 0.67988 0.13961
 C235 C 0.15565 1.21546 0.38338
 C236 C 0.14220 1.20477 0.33634
 C237 C 0.15708 1.18781 0.29608
 C238 C 0.18609 1.18397 0.30179
 C239 C 0.19964 1.19523 0.34846
 C240 C 0.18437 1.21011 0.39027
 C241 C 0.14154 1.17265 0.25049
 C242 C 0.14793 1.14210 0.23083
 C243 C 0.12907 1.12335 0.19414
 C244 C 0.12619 1.08843 0.20071
 C245 C 0.10661 1.07030 0.17043
 C246 C 0.09004 1.08667 0.13202
 C247 C 0.09397 1.12130 0.12325
 C248 C 0.11320 1.13959 0.15437
 H249 H 0.14353 1.22708 0.41506
 H250 H 0.11987 1.20821 0.33257
 H251 H 0.19817 1.17163 0.27078
 H252 H 0.22181 1.19084 0.35303
 H253 H 0.12226 1.18462 0.23823
 H254 H 0.16548 1.12853 0.24760
 H255 H 0.13835 1.07537 0.23086
 H256 H 0.10412 1.04356 0.17762
 H257 H 0.08150 1.13446 0.09371
 H258 H 0.11545 1.16641 0.14767
 C259 C 0.65544 0.30314 -0.41304
 C260 C 0.64413 0.32100 -0.37004
 C261 C 0.66153 0.33695 -0.33221
 C262 C 0.69050 0.33436 -0.33781
 C263 C 0.70197 0.31565 -0.38021
 C264 C 0.68460 0.30024 -0.41933
 C265 C 0.64946 0.35763 -0.28863
 C266 C 0.62662 0.34766 -0.26240
 C267 C 0.61175 0.36917 -0.22340
 C268 C 0.59817 0.35393 -0.18014
 C269 C 0.58133 0.37297 -0.14594
 C270 C 0.57707 0.40745 -0.15542
 C271 C 0.59093 0.42288 -0.19831
 C272 C 0.60836 0.40396 -0.23180
 H273 H 0.64108 0.29082 -0.44055
 H274 H 0.62167 0.32294 -0.36706
 H275 H 0.70427 0.34685 -0.30931
 H276 H 0.72444 0.31502 -0.38365
 H277 H 0.65954 0.38124 -0.27797
 H278 H 0.61837 0.32256 -0.26971
 H279 H 0.60028 0.32710 -0.17332
 H280 H 0.57078 0.36041 -0.11331
 H281 H 0.58794 0.44943 -0.20642
 H282 H 0.61812 0.41619 -0.26563
 C283 C 0.20075 0.86958 -0.40559
 C284 C 0.18891 0.88531 -0.36100
 C285 C 0.18580 0.86795 -0.31264
 C286 C 0.19688 0.83531 -0.30826
 C287 C 0.20939 0.81969 -0.35265
 C288 C 0.21043 0.83603 -0.40290
 C289 C 0.16969 0.88438 -0.26925
 C290 C 0.15304 0.86738 -0.23569
 C291 C 0.13154 0.88415 -0.20216
 C292 C 0.12087 0.86746 -0.15704
 C293 C 0.09874 0.88134 -0.12773
 C294 C 0.08665 0.91194 -0.14360
 C295 C 0.09751 0.92877 -0.18829
 C296 C 0.11957 0.91506 -0.21733
 H297 H 0.20243 0.88405 -0.44213
 H298 H 0.18108 0.91078 -0.36505
 H299 H 0.19547 0.82157 -0.27096
 H300 H 0.21632 0.79390 -0.34820
 H301 H 0.16922 0.91166 -0.26927
 H302 H 0.15367 0.84009 -0.23518
 H303 H 0.12943 0.84342 -0.14492
 H304 H 0.09070 0.86779 -0.09350
 H305 H 0.08857 0.95235 -0.20166
 H306 H 0.12627 0.92822 -0.25291
 C307 C 0.30196 0.70805 -0.34300
 C308 C 0.31371 0.69539 -0.29562
 C309 C 0.32512 0.66291 -0.29432
 C310 C 0.32411 0.64303 -0.34122
 C311 C 0.31276 0.65572 -0.38865
 C312 C 0.30212 0.68885 -0.39107
 C313 C 0.34053 0.65158 -0.24583
 C314 C 0.34305 0.61887 -0.23323
 C315 C 0.36342 0.60524 -0.19380
 C316 C 0.36952 0.57071 -0.19700
 C317 C 0.39091 0.55686 -0.16620
 C318 C 0.40658 0.57712 -0.13078
 C319 C 0.39950 0.61127 -0.12476
 C320 C 0.37813 0.62531 -0.15613
 H321 H 0.29468 0.73385 -0.34238
 H322 H 0.31452 0.71136 -0.26018
 H323 H 0.33317 0.61807 -0.34228
 H324 H 0.31231 0.63913 -0.42331
 H325 H 0.35118 0.67073 -0.22240
 H326 H 0.33123 0.60053 -0.25642
 H327 H 0.35846 0.55452 -0.22518
 H328 H 0.39568 0.53034 -0.17125
 H329 H 0.41117 0.62736 -0.09742
 H330 H 0.37370 0.65185 -0.15127
 C331 C -0.21207 1.16276 -0.36715
 C332 C -0.20052 1.14669 -0.32239
 C333 C -0.17302 1.15370 -0.30612
 C334 C -0.15741 1.17754 -0.33491
 C335 C -0.16881 1.19319 -0.37993
 C336 C -0.19603 1.18552 -0.39697
 C337 C -0.16001 1.13331 -0.26321
 C338 C -0.13891 1.14484 -0.23270
 C339 C -0.12202 1.12306 -0.19719
 C340 C -0.10740 1.13788 -0.15416
 C341 C -0.08843 1.11901 -0.12403
 C342 C -0.08335 1.08509 -0.13710
 C343 C -0.09850 1.06994 -0.17921
 C344 C -0.11771 1.08870 -0.20897
 H345 H -0.23301 1.15620 -0.38003
 H346 H -0.21282 1.12814 -0.30121
 H347 H -0.13590 1.18288 -0.32455
 H348 H -0.15606 1.21057 -0.40258
 H349 H -0.16765 1.10785 -0.25771
 H350 H -0.13320 1.17125 -0.23456
 H351 H -0.11017 1.16435 -0.14464
 H352 H -0.07700 1.13135 -0.09182
 H353 H -0.09494 1.04383 -0.19016
 H354 H -0.12805 1.07664 -0.24274
 C355 C 0.68939 0.69655 -0.38020
 C356 C 0.67608 0.68215 -0.33600
 C357 C 0.64691 0.68192 -0.33274
 C358 C 0.63125 0.69767 -0.37329
 C359 C 0.64453 0.71243 -0.41705
 C360 C 0.67374 0.71165 -0.42154
 C361 C 0.63319 0.66473 -0.28735
 C362 C 0.60956 0.64715 -0.29437
 C363 C 0.59605 0.62754 -0.25143
 C364 C 0.58156 0.59813 -0.26591
 C365 C 0.56744 0.57947 -0.22736
 C366 C 0.56690 0.59027 -0.17354
 C367 C 0.58138 0.61976 -0.15875
 C368 C 0.59605 0.63818 -0.19738
 H369 H 0.71189 0.69512 -0.38252
 H370 H 0.68855 0.67026 -0.30510
 H371 H 0.60873 0.69878 -0.37105
 H372 H 0.63187 0.72465 -0.44732
 H373 H 0.64387 0.66419 -0.24893
 H374 H 0.60071 0.64491 -0.33438
 H375 H 0.58116 0.58955 -0.30732
 H376 H 0.55636 0.55694 -0.24006
 H377 H 0.58119 0.62867 -0.11755
 H378 H 0.60664 0.66116 -0.18528
 C379 C 0.19317 1.20544 -0.36223
 C380 C 0.18064 1.19177 -0.31661
 C381 C 0.16381 1.16297 -0.32074
 C382 C 0.15941 1.14827 -0.37156
 C383 C 0.17160 1.16201 -0.41718
 C384 C 0.18859 1.19109 -0.41371
 C385 C 0.14948 1.14998 -0.27252
 C386 C 0.14342 1.11715 -0.26698
 C387 C 0.12486 1.10293 -0.22527
 C388 C 0.11596 1.06945 -0.23215
 C389 C 0.09621 1.05547 -0.19800
 C390 C 0.08500 1.07455 -0.15569
 C391 C 0.09483 1.10748 -0.14673
 C392 C 0.11458 1.12166 -0.18128
 H393 H 0.20521 1.22835 -0.35703
 H394 H 0.18393 1.20390 -0.27797
 H395 H 0.14595 1.12651 -0.37657
 H396 H 0.16811 1.14897 -0.45490
 H397 H 0.14333 1.16818 -0.24240
 H398 H 0.15116 1.09961 -0.29691
 H399 H 0.12360 1.05429 -0.26529
 H400 H 0.08926 1.02986 -0.20553
 H401 H 0.08664 1.12261 -0.11409
 H402 H 0.12120 1.14729 -0.17362
 C403 C 0.28925 0.32681 -0.36392
 C404 C 0.29945 0.34175 -0.31664
 C405 C 0.32686 0.33559 -0.29922
 C406 C 0.34388 0.31407 -0.32990
 C407 C 0.33382 0.29955 -0.37737
 C408 C 0.30656 0.30608 -0.39515
 C409 C 0.33827 0.35472 -0.25279
 C410 C 0.35947 0.34339 -0.22262
 C411 C 0.37549 0.36512 -0.18491
 C412 C 0.39133 0.35008 -0.14398
 C413 C 0.41007 0.36930 -0.11315
 C414 C 0.41364 0.40377 -0.12357
 C415 C 0.39703 0.41908 -0.16301
 C416 C 0.37812 0.40002 -0.19335
 H417 H 0.26821 0.33239 -0.37710
 H418 H 0.28609 0.35861 -0.29409
 H419 H 0.36537 0.30954 -0.31868
 H420 H 0.34751 0.28356 -0.40077
 H421 H 0.32948 0.37934 -0.24465
 H422 H 0.36632 0.31753 -0.22731
 H423 H 0.38987 0.32320 -0.13706
 H424 H 0.42272 0.35688 -0.08308
 H425 H 0.39938 0.44565 -0.17183
 H426 H 0.36689 0.41242 -0.22537
 C427 C -0.21956 0.84198 -0.36078
 C428 C -0.20867 0.85630 -0.31354
 C429 C -0.18270 0.84588 -0.29328
 C430 C -0.16812 0.82024 -0.32049
 C431 C -0.17882 0.80630 -0.36784
 C432 C -0.20430 0.81753 -0.38898
 C433 C -0.16954 0.86498 -0.24852
 C434 C -0.14963 0.85188 -0.21696
 C435 C -0.13102 0.87260 -0.18234
 C436 C -0.11647 0.85706 -0.14018
 C437 C -0.09555 0.87447 -0.11206
 C438 C -0.08849 0.90758 -0.12632
 C439 C -0.10367 0.92356 -0.16718
 C440 C -0.12473 0.90631 -0.19492
 H441 H -0.23916 0.85117 -0.37673
 H442 H -0.22012 0.87628 -0.29367
 H443 H -0.14770 0.81220 -0.30720
 H444 H -0.16672 0.78750 -0.38912
 H445 H -0.17551 0.89113 -0.24347
 H446 H -0.14568 0.82501 -0.21838
 H447 H -0.12072 0.83102 -0.13010
 H448 H -0.08414 0.86155 -0.08073
 H449 H -0.09865 0.94910 -0.17897
 H450 H -0.13488 0.91891 -0.22806
 C451 C 0.32811 0.71835 0.37865
 C452 C 0.34188 0.70590 0.33321
 C453 C 0.34082 0.67138 0.32010
 C454 C 0.32440 0.64990 0.35196
 C455 C 0.31108 0.66224 0.39770
 C456 C 0.31315 0.69641 0.41192
 C457 C 0.35760 0.65853 0.27422
 C458 C 0.36607 0.62634 0.27097
 C459 C 0.38524 0.61241 0.22980
 C460 C 0.39650 0.58038 0.23934
 C461 C 0.41553 0.56610 0.20395
 C462 C 0.42380 0.58335 0.15764
 C463 C 0.41202 0.61498 0.14671
 C464 C 0.39286 0.62948 0.18252
 H465 H 0.32984 0.74488 0.38878
 H466 H 0.35404 0.72310 0.30908
 H467 H 0.32171 0.62352 0.34204
 H468 H 0.29907 0.64505 0.42214
 H469 H 0.36485 0.67670 0.24526
 H470 H 0.36033 0.60919 0.30264
 H471 H 0.39092 0.56645 0.27503
 H472 H 0.42403 0.54155 0.21335
 H473 H 0.41796 0.62871 0.11108
 H474 H 0.38424 0.65387 0.17291
 C475 C -0.20024 1.18654 0.35910
 C476 C -0.18646 1.17224 0.31517
 C477 C -0.15765 1.16673 0.31705
 C478 C -0.14264 1.17634 0.36319
 C479 C -0.15643 1.18973 0.40769
 C480 C -0.18562 1.19434 0.40705
 C481 C -0.14403 1.14797 0.27305
 C482 C -0.11809 1.15493 0.25700
 C483 C -0.10317 1.13339 0.21821
 C484 C -0.08585 1.14829 0.17989
 C485 C -0.06990 1.12822 0.14548
 C486 C -0.07029 1.09295 0.15024
 C487 C -0.08764 1.07800 0.18854
 C488 C -0.10421 1.09804 0.22190
 H489 H -0.22269 1.18888 0.35659
 H490 H -0.19843 1.16474 0.28004
 H491 H -0.12038 1.17210 0.36590
 H492 H -0.14401 1.19654 0.44253
 H493 H -0.15562 1.12775 0.25367
 H494 H -0.10746 1.17711 0.27251
 H495 H -0.08455 1.17548 0.17685
 H496 H -0.05648 1.14032 0.11651
 H497 H -0.08820 1.05085 0.19298
 H498 H -0.11700 1.08599 0.25195
 C499 C 0.69409 0.27794 0.34220
 C500 C 0.68162 0.29023 0.29533
 C501 C 0.65290 0.29662 0.29388
 C502 C 0.63639 0.28727 0.33779
 C503 C 0.64875 0.27458 0.38425
 C504 C 0.67789 0.27138 0.38796
 C505 C 0.64083 0.31599 0.24899
 C506 C 0.62397 0.34213 0.25912
 C507 C 0.61234 0.36464 0.21766
 C508 C 0.60520 0.39760 0.23283
 C509 C 0.59163 0.41888 0.19689
 C510 C 0.58443 0.40741 0.14520
 C511 C 0.59236 0.37476 0.12921
 C512 C 0.60630 0.35351 0.16511
 H513 H 0.71659 0.27583 0.34378
 H514 H 0.69464 0.29703 0.26166
 H515 H 0.61404 0.29111 0.33693
 H516 H 0.63564 0.26884 0.41828
 H517 H 0.64807 0.31106 0.20859
 H518 H 0.61953 0.34861 0.30060
 H519 H 0.60964 0.40671 0.27311
 H520 H 0.58578 0.44388 0.21041
 H521 H 0.58696 0.36526 0.08961
 H522 H 0.61116 0.32804 0.15249
 C523 C 0.18799 0.79129 0.36839
 C524 C 0.17386 0.80024 0.32123
 C525 C 0.17163 0.83421 0.30618
 C526 C 0.18388 0.85908 0.33940
 C527 C 0.19785 0.85016 0.38645
 C528 C 0.19979 0.81626 0.40183
 C529 C 0.15425 0.84323 0.25892
 C530 C 0.15725 0.87240 0.23257
 C531 C 0.13612 0.88563 0.19472
 C532 C 0.13228 0.92063 0.19300
 C533 C 0.11065 0.93443 0.16279
 C534 C 0.09280 0.91356 0.13252
 C535 C 0.09759 0.87865 0.13134
 C536 C 0.11900 0.86468 0.16262
 H537 H 0.18890 0.76498 0.37960
 H538 H 0.16427 0.78065 0.29683
 H539 H 0.18185 0.88562 0.33058
 H540 H 0.20685 0.86990 0.41136
 H541 H 0.13744 0.82620 0.24804
 H542 H 0.17425 0.88918 0.24321
 H543 H 0.14531 0.93730 0.21702
 H544 H 0.10754 0.96148 0.16395
 H545 H 0.08411 0.86211 0.10808
 H546 H 0.12189 0.83763 0.16205
   
