data_POSCAR
  _audit_creation_date              2014-09-24
  _audit_creation_method            'ToBaCCo'
  _symmetry_space_group_name_H-M    'P1'
  _symmetry_Int_Tables_number       1
  _symmetry_cell_setting            triclinic
  loop_
  _symmetry_equiv_pos_as_xyz
 x,y,z
_cell_length_a 28.0056
_cell_length_b 27.9945
_cell_length_c 25.8506
_cell_angle_alpha 89.954700
_cell_angle_beta 89.951800
_cell_angle_gamma 90.056400
loop_
  _atom_site_label
  _atom_site_type_symbol
  _atom_site_fract_x
  _atom_site_fract_y
  _atom_site_fract_z
O1 O -0.04557 0.29471 0.05073
 O2 O 0.04719 0.29464 -0.05102
 O3 O -0.04683 0.29526 -0.04984
 O4 O 0.04811 0.29488 0.04928
 O5 O 0.04882 0.21597 0.04718
 O6 O -0.04840 0.21636 -0.04776
 O7 O 0.04358 0.21588 -0.05354
 O8 O -0.04344 0.21582 0.05255
 Cu9 Cu 0.00072 0.30289 -0.00025
 Cu10 Cu 0.00017 0.20813 -0.00038
 C11 C -0.05994 0.25512 0.06913
 C12 C 0.06091 0.25502 -0.06984
 C13 C -0.06408 0.25573 -0.06514
 C14 C 0.06487 0.25519 0.06465
 O15 O 0.54757 0.79503 0.45055
 O16 O 0.45231 0.79500 0.54957
 O17 O 0.54612 0.79430 0.55113
 O18 O 0.45379 0.79434 0.44902
 O19 O 0.45572 0.71545 0.44765
 O20 O 0.54402 0.71541 0.55258
 O21 O 0.45164 0.71609 0.54829
 O22 O 0.54808 0.71611 0.45196
 Cu23 Cu 0.49996 0.80266 0.50007
 Cu24 Cu 0.49985 0.70790 0.50013
 C25 C 0.56421 0.75543 0.43475
 C26 C 0.43556 0.75541 0.56541
 C27 C 0.56055 0.75468 0.56930
 C28 C 0.43928 0.75473 0.43088
 O29 O 0.95234 0.70500 -0.05131
 O30 O 1.04734 0.70503 0.04807
 O31 O 0.95359 0.70530 0.04933
 O32 O 1.04645 0.70566 -0.05231
 O33 O 1.04242 0.78438 -0.05532
 O34 O 0.95656 0.78413 0.05205
 O35 O 1.04882 0.78389 0.04540
 O36 O 0.95028 0.78379 -0.04822
 Cu37 Cu 0.99991 0.69725 -0.00163
 Cu38 Cu 0.99957 0.79191 -0.00153
 C39 C 0.93459 0.74454 -0.06603
 C40 C 1.06461 0.74465 0.06308
 C41 C 0.93972 0.74480 0.06828
 C42 C 1.05993 0.74530 -0.07143
 O43 O 0.45382 0.20561 0.44938
 O44 O 0.54561 0.20574 0.55173
 O45 O 0.45192 0.20525 0.54985
 O46 O 0.54752 0.20517 0.45127
 O47 O 0.54834 0.28408 0.45273
 O48 O 0.45120 0.28416 0.54809
 O49 O 0.54348 0.28464 0.55323
 O50 O 0.45608 0.28451 0.44755
 Cu51 Cu 0.49971 0.19743 0.50057
 Cu52 Cu 0.49978 0.29224 0.50038
 C53 C 0.43959 0.24519 0.43095
 C54 C 0.55991 0.24536 0.56999
 C55 C 0.43508 0.24487 0.56535
 C56 C 0.56442 0.24476 0.43562
 O57 O 0.70434 0.04659 -0.04609
 O58 O 0.70728 -0.04740 0.05421
 O59 O 0.70737 0.04610 0.05428
 O60 O 0.70445 -0.04745 -0.04619
 O61 O 0.78328 -0.04604 -0.05010
 O62 O 0.78622 0.04549 0.05146
 O63 O 0.78607 -0.04743 0.05050
 O64 O 0.78320 0.04594 -0.04926
 Cu65 Cu 0.69788 -0.00055 0.00428
 Cu66 Cu 0.79258 -0.00049 0.00051
 C67 C 0.74339 0.06222 -0.06460
 C68 C 0.74732 -0.06360 0.06922
 C69 C 0.74745 0.06169 0.06985
 C70 C 0.74347 -0.06254 -0.06519
 O71 O 0.20632 0.54667 0.44683
 O72 O 0.20364 0.45303 0.54761
 O73 O 0.20367 0.54716 0.54736
 O74 O 0.20647 0.45309 0.44709
 O75 O 0.28530 0.45344 0.45013
 O76 O 0.28252 0.54636 0.55033
 O77 O 0.28248 0.45423 0.55083
 O78 O 0.28517 0.54627 0.44954
 Cu79 Cu 0.19705 0.49998 0.49704
 Cu80 Cu 0.29173 0.50010 0.50037
 C81 C 0.24637 0.56236 0.43113
 C82 C 0.24272 0.43776 0.56627
 C83 C 0.24276 0.56271 0.56579
 C84 C 0.24653 0.43724 0.43170
 O85 O 0.29486 0.95306 -0.05472
 O86 O 0.29718 1.04703 0.04584
 O87 O 0.29712 0.95297 0.04573
 O88 O 0.29484 1.04719 -0.05459
 O89 O 0.21602 1.04592 -0.05258
 O90 O 0.21827 0.95404 0.04861
 O91 O 0.21832 1.04618 0.04827
 O92 O 0.21604 0.95371 -0.05221
 Cu93 Cu 0.30399 1.00007 -0.00467
 Cu94 Cu 0.20932 0.99996 -0.00178
 C95 C 0.25482 0.93734 -0.07048
 C96 C 0.25799 1.06250 0.06407
 C97 C 0.25794 0.93763 0.06420
 C98 C 0.25480 1.06257 -0.07064
 O99 O 0.79308 0.54700 0.55324
 O100 O 0.79568 0.45337 0.45287
 O101 O 0.79551 0.54739 0.45280
 O102 O 0.79283 0.45353 0.55326
 O103 O 0.71398 0.45375 0.55038
 O104 O 0.71665 0.54641 0.44994
 O105 O 0.71682 0.45436 0.44973
 O106 O 0.71422 0.54643 0.55069
 Cu107 Cu 0.80228 0.50033 0.50321
 Cu108 Cu 0.70752 0.50025 0.50002
 C109 C 0.75306 0.56257 0.56898
 C110 C 0.75659 0.43801 0.43432
 C111 C 0.75639 0.56279 0.43437
 C112 C 0.75278 0.43767 0.56878
 C113 C 0.25243 0.21317 0.20972
 C114 C 0.21650 0.24897 0.20958
 C115 C 0.21887 0.28589 0.24628
 C116 C 0.25574 0.28846 0.28300
 C117 C 0.29189 0.25288 0.28241
 C118 C 0.28955 0.21595 0.24589
 H119 H 0.31705 0.18866 0.24584
 H120 H 0.19132 0.31308 0.24640
 C121 C 0.75547 0.78905 0.21578
 C122 C 0.79138 0.75318 0.21632
 C123 C 0.78874 0.71623 0.25280
 C124 C 0.75159 0.71366 0.28900
 C125 C 0.71593 0.74969 0.28934
 C126 C 0.71863 0.78672 0.25273
 H127 H 0.69129 0.81412 0.25283
 H128 H 0.81604 0.68874 0.25281
 C129 C 0.79196 0.24683 0.21766
 C130 C 0.75623 0.21078 0.21775
 C131 C 0.71934 0.21318 0.25451
 C132 C 0.71654 0.25043 0.29075
 C133 C 0.75209 0.28665 0.28997
 C134 C 0.78921 0.28406 0.25373
 H135 H 0.81639 0.31172 0.25345
 H136 H 0.69208 0.18563 0.25468
 C137 C 0.21634 0.75041 0.20854
 C138 C 0.25211 0.78647 0.20921
 C139 C 0.28904 0.78384 0.24565
 C140 C 0.29147 0.74676 0.28201
 C141 C 0.25552 0.71090 0.28209
 C142 C 0.21878 0.71335 0.24518
 H143 H 0.19138 0.68594 0.24517
 H144 H 0.31636 0.81137 0.24585
 C145 C 0.70776 0.25346 0.71839
 C146 C 0.74376 0.28924 0.71782
 C147 C 0.78071 0.28687 0.75444
 C148 C 0.78337 0.24985 0.79102
 C149 C 0.74763 0.21379 0.79081
 C150 C 0.71037 0.21644 0.75479
 H151 H 0.68303 0.18894 0.75486
 H152 H 0.80814 0.31424 0.75422
 C153 C 0.28348 0.74991 0.71038
 C154 C 0.24752 0.71411 0.71061
 C155 C 0.21021 0.71704 0.74662
 C156 C 0.20765 0.75400 0.78320
 C157 C 0.24405 0.78968 0.78367
 C158 C 0.28097 0.78696 0.74688
 H159 H 0.30858 0.81415 0.74683
 H160 H 0.18267 0.68975 0.74630
 C161 C 0.24756 0.28645 0.71124
 C162 C 0.28326 0.25047 0.71056
 C163 C 0.28075 0.21331 0.74699
 C164 C 0.24405 0.21063 0.78400
 C165 C 0.20794 0.24653 0.78403
 C166 C 0.21051 0.28362 0.74756
 H167 H 0.18317 0.31106 0.74752
 H168 H 0.30816 0.18597 0.74671
 C169 C 0.74433 0.71065 0.71797
 C170 C 0.70852 0.74654 0.71802
 C171 C 0.71120 0.78361 0.75428
 C172 C 0.74821 0.78611 0.79062
 C173 C 0.78384 0.74995 0.79142
 C174 C 0.78116 0.71296 0.75477
 H175 H 0.80843 0.68549 0.75461
 H176 H 0.68402 0.81122 0.75408
 N177 N 0.29533 0.13067 0.10840
 C178 C 0.25791 0.10014 0.10349
 N179 N 0.21924 0.10609 0.13445
 N180 N 0.21772 0.14165 0.16857
 C181 C 0.25411 0.17348 0.17200
 N182 N 0.29347 0.16666 0.14212
 N183 N 0.79131 0.62406 0.62273
 C184 C 0.75128 0.60006 0.60851
 N185 N 0.70910 0.61191 0.63081
 N186 N 0.70693 0.64679 0.66568
 C187 C 0.74651 0.67177 0.67903
 N188 N 0.78895 0.65921 0.65741
 N189 N 0.79177 0.88333 0.12279
 C190 C 0.74909 0.90027 0.10619
 N191 N 0.70848 0.88084 0.12587
 N192 N 0.71065 0.84554 0.16045
 C193 C 0.75344 0.82811 0.17664
 N194 N 0.79379 0.84820 0.15743
 N195 N 0.20539 0.36907 0.60972
 C196 C 0.24252 0.40007 0.60567
 N197 N 0.28072 0.39442 0.63732
 N198 N 0.28207 0.35869 0.67129
 C199 C 0.24601 0.32640 0.67383
 N200 N 0.20709 0.33291 0.64328
 N201 N 0.89740 0.21471 0.13922
 C202 C 0.90326 0.25420 0.10943
 N203 N 0.87319 0.29170 0.11612
 N204 N 0.83777 0.28919 0.15049
 C205 C 0.83104 0.24908 0.17925
 N206 N 0.86238 0.21251 0.17398
 N207 N 0.37386 0.79520 0.61783
 C208 C 0.39683 0.75456 0.60369
 N209 N 0.38284 0.71253 0.62494
 N210 N 0.34702 0.71109 0.65875
 C211 C 0.32317 0.75133 0.67215
 N212 N 0.33779 0.79360 0.65151
 N213 N 0.11927 0.78796 0.12003
 C214 C 0.10352 0.74563 0.10114
 N215 N 0.12468 0.70476 0.11768
 N216 N 0.16058 0.70638 0.15153
 C217 C 0.17687 0.74890 0.16996
 N218 N 0.15496 0.78943 0.15393
 N219 N 0.62695 0.20892 0.61663
 C220 C 0.59659 0.24623 0.61033
 N221 N 0.60203 0.28544 0.64055
 N222 N 0.63697 0.28756 0.67535
 C223 C 0.66863 0.25121 0.68018
 N224 N 0.66231 0.21135 0.65101
 N225 N 0.70588 0.13090 0.89238
 C226 C 0.74310 0.10008 0.89622
 N227 N 0.78124 0.10597 0.86447
 N228 N 0.78246 0.14177 0.83059
 C229 C 0.74631 0.17389 0.82825
 N230 N 0.70744 0.16714 0.85891
 N231 N 0.20815 0.62347 0.37665
 C232 C 0.24823 0.59996 0.39156
 N233 N 0.29058 0.61245 0.36996
 N234 N 0.29286 0.64741 0.33513
 C235 C 0.25320 0.67188 0.32104
 N236 N 0.21060 0.65869 0.34198
 N237 N 0.29288 0.87888 0.87562
 C238 C 0.25281 0.90151 0.89225
 N239 N 0.21009 0.88795 0.87244
 N240 N 0.20743 0.85289 0.83787
 C241 C 0.24694 0.82896 0.82247
 N242 N 0.28996 0.84330 0.84143
 N243 N 0.71876 0.39465 0.36327
 C244 C 0.75683 0.40031 0.39510
 N245 N 0.79390 0.36931 0.39138
 N246 N 0.79227 0.33310 0.35796
 C247 C 0.75349 0.32658 0.32723
 N248 N 0.71749 0.35888 0.32942
 N249 N 0.12180 0.29343 0.87995
 C250 C 0.09588 0.25390 0.89196
 N251 N 0.10577 0.21242 0.86710
 N252 N 0.14073 0.21030 0.83231
 C253 C 0.16843 0.24890 0.82228
 N254 N 0.15746 0.29092 0.84582
 N255 N 0.62567 0.79522 0.38177
 C256 C 0.60287 0.75455 0.39638
 N257 N 0.61693 0.71245 0.37549
 N258 N 0.65265 0.71097 0.34157
 C259 C 0.67632 0.75123 0.32766
 N260 N 0.66164 0.79357 0.34795
 N261 N 0.87850 0.70442 0.87890
 C262 C 0.89737 0.74539 0.89827
 N263 N 0.87891 0.78774 0.88250
 N264 N 0.84298 0.78911 0.84892
 C265 C 0.82353 0.74843 0.82988
 N266 N 0.84238 0.70595 0.84531
 N267 N 0.37232 0.20874 0.38469
 C268 C 0.40294 0.24595 0.39059
 N269 N 0.39780 0.28495 0.35993
 N270 N 0.36288 0.28697 0.32509
 C271 C 0.33097 0.25075 0.32067
 N272 N 0.33699 0.21109 0.35027
 N273 N 0.78032 0.89540 0.86221
 C274 C 0.74312 0.89985 0.89550
 N275 N 0.70695 0.86761 0.89330
 N276 N 0.70869 0.83136 0.85993
 C277 C 0.74668 0.82607 0.82775
 N278 N 0.78167 0.85961 0.82838
 N279 N 0.20822 0.37680 0.37637
 C280 C 0.24848 0.39939 0.39245
 N281 N 0.29104 0.38584 0.37223
 N282 N 0.29334 0.35081 0.33753
 C283 C 0.25344 0.32738 0.32210
 N284 N 0.21067 0.34156 0.34178
 N285 N 0.21022 0.11125 0.87148
 C286 C 0.25283 0.09838 0.89205
 N287 N 0.29281 0.12175 0.87624
 N288 N 0.28987 0.15748 0.84219
 C289 C 0.24693 0.17119 0.82257
 N290 N 0.20756 0.14642 0.83699
 N291 N 0.79377 0.63128 0.39068
 C292 C 0.75652 0.60047 0.39501
 N293 N 0.71820 0.60620 0.36356
 N294 N 0.71685 0.64183 0.32949
 C295 C 0.75305 0.67394 0.32664
 N296 N 0.79208 0.66735 0.35701
 N297 N 0.10459 0.78782 0.86503
 C298 C 0.09494 0.74646 0.89037
 N299 N 0.12126 0.70710 0.87901
 N300 N 0.15710 0.70967 0.84510
 C301 C 0.16787 0.75159 0.82113
 N302 N 0.13972 0.78998 0.83042
 N303 N 0.62557 0.20491 0.38253
 C304 C 0.60328 0.24566 0.39754
 N305 N 0.61799 0.28784 0.37725
 N306 N 0.65382 0.28931 0.34347
 C307 C 0.67693 0.24894 0.32907
 N308 N 0.66164 0.20653 0.34884
 N309 N 0.88240 0.21267 0.87672
 C310 C 0.89705 0.25486 0.89691
 N311 N 0.87456 0.29557 0.88209
 N312 N 0.83833 0.29386 0.84868
 C313 C 0.82309 0.25142 0.82905
 N314 N 0.84642 0.21112 0.84321
 N315 N 0.37245 0.79137 0.38381
 C316 C 0.40246 0.75383 0.39058
 N317 N 0.39667 0.71441 0.36075
 N318 N 0.36177 0.71231 0.32588
 C319 C 0.33048 0.74892 0.32053
 N320 N 0.33714 0.78897 0.34933
 N321 N 0.29463 0.86854 0.10727
 C322 C 0.25789 0.89995 0.10359
 N323 N 0.21984 0.89475 0.13562
 N324 N 0.21824 0.85904 0.16962
 C325 C 0.25388 0.82633 0.17176
 N326 N 0.29267 0.83239 0.14082
 N327 N 0.70845 0.38698 0.62916
 C328 C 0.75089 0.39996 0.60816
 N329 N 0.79107 0.37693 0.62357
 N330 N 0.78865 0.34173 0.65825
 C331 C 0.74599 0.32809 0.67868
 N332 N 0.70618 0.35201 0.66399
 N333 N 0.79162 0.11196 0.13070
 C334 C 0.74931 0.09939 0.10916
 N335 N 0.70921 0.12302 0.12377
 N336 N 0.71158 0.15842 0.15814
 C337 C 0.75411 0.17168 0.17903
 N338 N 0.79382 0.14712 0.16524
 N339 N 0.20524 0.63115 0.60942
 C340 C 0.24259 0.60053 0.60504
 N341 N 0.28099 0.60657 0.63632
 N342 N 0.28232 0.64230 0.67024
 C343 C 0.24602 0.67421 0.67313
 N344 N 0.20691 0.66731 0.64293
 N345 N 0.87097 0.70931 0.11305
 C346 C 0.90299 0.74551 0.10867
 N347 N 0.89905 0.78370 0.14068
 N348 N 0.86396 0.78593 0.17538
 C349 C 0.83064 0.75081 0.17823
 N350 N 0.83545 0.71190 0.14729
 N351 N 0.37383 0.20505 0.61848
 C352 C 0.39624 0.24579 0.60346
 N353 N 0.38172 0.28795 0.62380
 N354 N 0.34595 0.28941 0.65766
 C355 C 0.32272 0.24905 0.67207
 N356 N 0.33782 0.20666 0.65224
 N357 N 0.12661 0.29468 0.11713
 C358 C 0.10355 0.25411 0.10282
 N359 N 0.11734 0.21198 0.12389
 N360 N 0.15307 0.21038 0.15773
 C361 C 0.17701 0.25054 0.17130
 N362 N 0.16260 0.29291 0.15082
 N363 N 0.62724 0.79142 0.61661
 C364 C 0.59741 0.75373 0.60957
 N365 N 0.60341 0.71411 0.63910
 N366 N 0.63835 0.71198 0.67392
 C367 C 0.66946 0.74877 0.67955
 N368 N 0.66258 0.78899 0.65104
   
