data_POSCAR
  _audit_creation_date              2014-09-24
  _audit_creation_method            'ToBaCCo'
  _symmetry_space_group_name_H-M    'P1'
  _symmetry_Int_Tables_number       1
  _symmetry_cell_setting            triclinic
  loop_
  _symmetry_equiv_pos_as_xyz
 x,y,z
_cell_length_a 38.2125
_cell_length_b 38.1741
_cell_length_c 51.4142
_cell_angle_alpha 89.961200
_cell_angle_beta 90.062300
_cell_angle_gamma 120.243700
loop_
  _atom_site_label
  _atom_site_type_symbol
  _atom_site_fract_x
  _atom_site_fract_y
  _atom_site_fract_z
C1 C -0.01896 0.48890 1.25053
 C2 C 0.02231 0.50940 1.25065
 C3 C 0.04594 0.52300 1.27524
 C4 C 0.04607 0.51939 1.22617
 C5 C -0.04256 0.47881 1.22593
 C6 C -0.04278 0.47549 1.27500
 C7 C 0.04013 0.54751 1.29308
 C8 C 0.06292 0.56040 1.31601
 C9 C 0.09200 0.54920 1.32122
 C10 C 0.09816 0.52511 1.30334
 C11 C 0.07537 0.51223 1.28046
 C12 C 0.07588 0.55972 1.22103
 C13 C 0.09857 0.56960 1.19816
 C14 C 0.09192 0.53924 1.18025
 C15 C 0.06257 0.49887 1.18537
 C16 C 0.03985 0.48893 1.20828
 C17 C -0.07252 0.43849 1.22089
 C18 C -0.09539 0.42856 1.19805
 C19 C -0.08877 0.45884 1.18007
 C20 C -0.05919 0.49919 1.18506
 C21 C -0.03629 0.50918 1.20794
 C22 C -0.03719 0.45103 1.29305
 C23 C -0.06017 0.43837 1.31587
 C24 C -0.08914 0.44975 1.32074
 C25 C -0.09510 0.47373 1.30271
 C26 C -0.07216 0.48642 1.27992
 H27 H 0.01814 0.55681 1.28916
 H28 H 0.05793 0.57923 1.32953
 H29 H 0.12062 0.51629 1.30699
 H30 H 0.08046 0.49358 1.26687
 H31 H 0.08129 0.58357 1.23466
 H32 H 0.12132 0.60090 1.19443
 H33 H 0.01754 0.45754 1.21213
 H34 H -0.07799 0.41469 1.23459
 H35 H -0.11830 0.39728 1.19444
 H36 H -0.05401 0.52290 1.17136
 H37 H -0.01388 0.54057 1.21171
 H38 H -0.01522 0.44163 1.28937
 H39 H -0.05550 0.41960 1.32963
 H40 H -0.11755 0.48256 1.30624
 H41 H -0.07708 0.50503 1.26618
 H42 H 0.05737 0.47511 1.17172
 C43 C 0.51212 0.49211 1.24990
 C44 C 0.49152 0.51266 1.24995
 C45 C 0.47794 0.52264 1.27451
 C46 C 0.48137 0.52621 1.22545
 C47 C 0.52225 0.47868 1.22534
 C48 C 0.52558 0.48186 1.27441
 C49 C 0.45351 0.49219 1.29240
 C50 C 0.44050 0.50208 1.31523
 C51 C 0.45149 0.54241 1.32025
 C52 C 0.47550 0.57277 1.30238
 C53 C 0.48854 0.56294 1.27959
 C54 C 0.44103 0.51531 1.22036
 C55 C 0.43100 0.52809 1.19753
 C56 C 0.46123 0.55215 1.17961
 C57 C 0.50161 0.56351 1.18465
 C58 C 0.51169 0.55075 1.20752
 C59 C 0.56255 0.48942 1.22031
 C60 C 0.57251 0.47650 1.19752
 C61 C 0.54227 0.45248 1.17958
 C62 C 0.50193 0.44135 1.18454
 C63 C 0.49192 0.45424 1.20736
 C64 C 0.54994 0.51211 1.29244
 C65 C 0.56263 0.50192 1.31530
 C66 C 0.55137 0.46150 1.32022
 C67 C 0.52748 0.43134 1.30219
 C68 C 0.51477 0.44147 1.27937
 H69 H 0.44433 0.46081 1.28860
 H70 H 0.42170 0.47830 1.32884
 H71 H 0.48405 0.60404 1.30601
 H72 H 0.50712 0.58680 1.26597
 H73 H 0.41728 0.49663 1.23401
 H74 H 0.39970 0.51928 1.19386
 H75 H 0.54309 0.56013 1.21133
 H76 H 0.58632 0.50800 1.23400
 H77 H 0.60378 0.48515 1.19394
 H78 H 0.47825 0.42254 1.17087
 H79 H 0.46054 0.44496 1.21112
 H80 H 0.55925 0.54355 1.28873
 H81 H 0.58133 0.52553 1.32905
 H82 H 0.51873 0.40000 1.30576
 H83 H 0.49622 0.41777 1.26564
 H84 H 0.52526 0.58234 1.17098
 C85 C 0.50839 1.02112 1.25029
 C86 C 0.48759 0.97979 1.25039
 C87 C 0.47735 0.95613 1.27498
 C88 C 0.47398 0.95597 1.22590
 C89 C 0.52200 1.04476 1.22570
 C90 C 0.51875 1.04496 1.27478
 C91 C 0.50761 0.96214 1.29298
 C92 C 0.49748 0.93919 1.31585
 C93 C 0.45707 0.90979 1.32085
 C94 C 0.42688 0.90345 1.30284
 C95 C 0.43699 0.92638 1.28002
 C96 C 0.48459 0.92634 1.22092
 C97 C 0.47181 0.90346 1.19808
 C98 C 0.44805 0.90974 1.18004
 C99 C 0.43697 0.93894 1.18498
 C100 C 0.44972 0.96184 1.20786
 C101 C 0.51156 1.07449 1.22058
 C102 C 0.52455 1.09738 1.19774
 C103 C 0.54838 1.09103 1.17981
 C104 C 0.55923 1.06166 1.18489
 C105 C 0.54625 1.03875 1.20778
 C106 C 0.48857 1.03911 1.29276
 C107 C 0.49884 1.06206 1.31561
 C108 C 0.53932 1.09131 1.32060
 C109 C 0.56941 1.09754 1.30259
 C110 C 0.55916 1.07460 1.27978
 H111 H 0.53902 0.98437 1.28922
 H112 H 0.52121 0.94426 1.32951
 H113 H 0.39552 0.88071 1.30638
 H114 H 0.41327 0.92111 1.26631
 H115 H 0.50305 0.92118 1.23465
 H116 H 0.48042 0.88085 1.19450
 H117 H 0.44056 0.98400 1.21157
 H118 H 0.49312 1.07976 1.23423
 H119 H 0.51604 1.12009 1.19414
 H120 H 0.57787 1.05658 1.17129
 H121 H 0.55531 1.01654 1.21161
 H122 H 0.45712 1.01694 1.28901
 H123 H 0.47520 1.05708 1.32929
 H124 H 0.60083 1.12015 1.30613
 H125 H 0.58281 1.07972 1.26609
 H126 H 0.41837 0.94385 1.17123
 C127 C 1.02194 0.50929 0.74988
 C128 C 0.98065 0.48850 0.74999
 C129 C 0.95678 0.47484 0.72552
 C130 C 0.95708 0.47820 0.77459
 C131 C 1.04579 0.51961 0.77436
 C132 C 1.04550 0.52280 0.72527
 C133 C 0.92716 0.48545 0.72054
 C134 C 0.90411 0.47246 0.69777
 C135 C 0.91020 0.44850 0.67982
 C136 C 0.93942 0.43747 0.68475
 C137 C 0.96250 0.45042 0.70756
 C138 C 0.96310 0.50845 0.79261
 C139 C 0.94021 0.49823 0.81548
 C140 C 0.91089 0.45777 0.82045
 C141 C 0.90454 0.42762 0.80245
 C142 C 0.92739 0.43778 0.77962
 C143 C 1.03996 0.48936 0.79233
 C144 C 1.06287 0.49960 0.81521
 C145 C 1.09207 0.54011 0.82022
 C146 C 1.09830 0.57027 0.80221
 C147 C 1.07540 0.56005 0.77938
 C148 C 1.07511 0.51224 0.72020
 C149 C 1.09782 0.52500 0.69731
 C150 C 1.09141 0.54873 0.67927
 C151 C 1.06218 0.55974 0.68432
 C152 C 1.03945 0.54699 0.70726
 H153 H 0.92212 0.50402 0.73422
 H154 H 0.88147 0.48104 0.69420
 H155 H 0.94419 0.41871 0.67106
 H156 H 0.98465 0.44126 0.71129
 H157 H 0.98528 0.53991 0.78886
 H158 H 0.94520 0.52184 0.82919
 H159 H 0.92211 0.41407 0.76591
 H160 H 1.01781 0.45789 0.78857
 H161 H 1.05789 0.47590 0.82889
 H162 H 1.12088 0.60171 0.80577
 H163 H 1.08052 0.58375 0.76568
 H164 H 1.08040 0.49384 0.73391
 H165 H 1.12042 0.51636 0.69373
 H166 H 1.05706 0.57831 0.67063
 H167 H 1.01732 0.55613 0.71105
 H168 H 0.88184 0.39625 0.80604
 C169 C 0.49089 0.51140 0.74981
 C170 C 0.51136 0.49072 0.74988
 C171 C 0.52482 0.48052 0.72537
 C172 C 0.52154 0.47726 0.77444
 C173 C 0.48077 0.52493 0.77431
 C174 C 0.47755 0.52169 0.72524
 C175 C 0.51388 0.44013 0.72033
 C176 C 0.52666 0.43007 0.69753
 C177 C 0.55075 0.46031 0.67961
 C178 C 0.56212 0.50074 0.68461
 C179 C 0.54936 0.51086 0.70744
 C180 C 0.49128 0.45293 0.79246
 C181 C 0.50138 0.44013 0.81533
 C182 C 0.54173 0.45124 0.82028
 C183 C 0.57189 0.47513 0.80227
 C184 C 0.56185 0.48795 0.77945
 C185 C 0.51109 0.54938 0.79229
 C186 C 0.50103 0.56220 0.81512
 C187 C 0.46068 0.55099 0.82006
 C188 C 0.43046 0.52701 0.80209
 C189 C 0.44045 0.51416 0.77930
 C190 C 0.48841 0.56210 0.72026
 C191 C 0.47566 0.57225 0.69745
 C192 C 0.45168 0.54210 0.67943
 C193 C 0.44041 0.50167 0.68435
 C194 C 0.45313 0.49145 0.70720
 H195 H 0.49520 0.41636 0.73399
 H196 H 0.51783 0.39872 0.69391
 H197 H 0.58098 0.52442 0.67095
 H198 H 0.55878 0.54230 0.71122
 H199 H 0.45990 0.44369 0.78873
 H200 H 0.47776 0.42144 0.82905
 H201 H 0.58556 0.50646 0.76574
 H202 H 0.54247 0.55867 0.78855
 H203 H 0.52468 0.58097 0.82882
 H204 H 0.39917 0.51830 0.80568
 H205 H 0.41671 0.49557 0.76561
 H206 H 0.50698 0.58580 0.73398
 H207 H 0.48442 0.60360 0.69389
 H208 H 0.42164 0.47806 0.67062
 H209 H 0.44376 0.46001 0.71092
 H210 H 0.60317 0.48377 0.80585
 C211 C 0.48717 -0.02216 0.74983
 C212 C 0.50783 0.01915 0.74992
 C213 C 0.51791 0.04295 0.72543
 C214 C 0.52139 0.04280 0.77449
 C215 C 0.47361 -0.04597 0.77432
 C216 C 0.47694 -0.04579 0.72525
 C217 C 0.55824 0.07268 0.72033
 C218 C 0.56819 0.09555 0.69750
 C219 C 0.53790 0.08916 0.67961
 C220 C 0.49752 0.05985 0.68468
 C221 C 0.48752 0.03695 0.70754
 C222 C 0.54571 0.03689 0.79246
 C223 C 0.55850 0.05970 0.81538
 C224 C 0.54738 0.08884 0.82043
 C225 C 0.52353 0.09513 0.80248
 C226 C 0.51072 0.07235 0.77960
 C227 C 0.44926 -0.04018 0.79228
 C228 C 0.43662 -0.06298 0.81520
 C229 C 0.44792 -0.09201 0.82026
 C230 C 0.47177 -0.09822 0.80226
 C231 C 0.48441 -0.07543 0.77939
 C232 C 0.43659 -0.07555 0.72018
 C233 C 0.42648 -0.09828 0.69728
 C234 C 0.45664 -0.09172 0.67924
 C235 C 0.49705 -0.06235 0.68429
 C236 C 0.50719 -0.03961 0.70724
 H237 H 0.58204 0.07792 0.73396
 H238 H 0.59949 0.11827 0.69381
 H239 H 0.47382 0.05486 0.67103
 H240 H 0.45613 0.01471 0.71137
 H241 H 0.55493 0.01480 0.78865
 H242 H 0.57717 0.05477 0.82906
 H243 H 0.49221 0.07754 0.76593
 H244 H 0.43995 -0.01815 0.78847
 H245 H 0.41796 -0.05803 0.82887
 H246 H 0.48061 -0.12068 0.80587
 H247 H 0.50295 -0.08050 0.76571
 H248 H 0.41289 -0.08094 0.73389
 H249 H 0.39511 -0.12099 0.69369
 H250 H 0.52075 -0.05711 0.67059
 H251 H 0.53860 -0.01735 0.71102
 H252 H 0.51489 0.11770 0.80614
 O253 O 0.39744 0.66335 0.97761
 O254 O 0.39053 0.72701 0.96991
 C255 C 0.36893 0.74262 0.96483
 O256 O 0.33745 0.73504 0.97759
 O257 O 0.27368 0.66418 0.96977
 C258 C 0.25795 0.62685 0.96465
 O259 O 0.26535 0.60282 0.97742
 O260 O 0.33606 0.61010 0.96977
 C261 C 0.37342 0.63182 0.96479
 O262 O 0.39470 0.67347 1.02946
 O263 O 0.39132 0.73912 1.02176
 C264 C 0.36453 0.74214 1.03453
 O265 O 0.32708 0.72195 1.02943
 O266 O 0.26138 0.65261 1.02160
 C267 C 0.25821 0.62267 1.03437
 O268 O 0.27821 0.60536 1.02929
 O269 O 0.34736 0.60913 1.02161
 C270 C 0.37729 0.63596 1.03445
 Cr271 Cr 0.39125 0.69949 0.99968
 Cr272 Cr 0.30114 0.69246 0.99960
 Cr273 Cr 0.30774 0.60910 0.99952
 O274 O 0.33338 0.66701 0.99961
 O275 O 0.60351 0.33783 0.97815
 O276 O 0.60877 0.27316 0.97078
 C277 C 0.62978 0.25692 0.96572
 O278 O 0.66118 0.26401 0.97846
 O279 O 0.72591 0.33418 0.97065
 C280 C 0.74226 0.37155 0.96542
 O281 O 0.73539 0.39605 0.97803
 O282 O 0.66534 0.39037 0.97039
 C283 C 0.62793 0.36918 0.96534
 O284 O 0.60603 0.32792 1.03008
 O285 O 0.60783 0.26137 1.02270
 C286 C 0.63423 0.25762 1.03547
 O287 O 0.67168 0.27705 1.03032
 O288 O 0.73825 0.34565 1.02250
 C289 C 0.74227 0.37606 1.03512
 O290 O 0.72295 0.39407 1.02992
 O291 O 0.65448 0.39184 1.02225
 C292 C 0.62420 0.36547 1.03505
 Cr293 Cr 0.60880 0.30130 1.00042
 Cr294 Cr 0.69803 0.30626 1.00048
 Cr295 Cr 0.69349 0.39081 1.00016
 O296 O 0.66678 0.33279 1.00036
 O297 O 0.67261 0.39412 0.52985
 O298 O 0.73823 0.39079 0.52222
 C299 C 0.74125 0.36391 0.53494
 O300 O 0.72107 0.32645 0.52979
 O301 O 0.65182 0.26071 0.52177
 C302 C 0.62185 0.25743 0.53450
 O303 O 0.60459 0.27751 0.52945
 O304 O 0.60836 0.34677 0.52186
 C305 C 0.63512 0.37667 0.53477
 O306 O 0.66266 0.39717 0.47799
 O307 O 0.72631 0.39033 0.47037
 C308 C 0.74196 0.36878 0.46531
 O309 O 0.73431 0.33715 0.47800
 O310 O 0.66354 0.27335 0.46999
 C311 C 0.62625 0.25760 0.46482
 O312 O 0.60221 0.26495 0.47757
 O313 O 0.60949 0.33577 0.47001
 C314 C 0.63121 0.37320 0.46510
 Cr315 Cr 0.69870 0.39085 0.50010
 Cr316 Cr 0.69170 0.30066 0.49989
 Cr317 Cr 0.60841 0.30725 0.49973
 O318 O 0.66627 0.33292 0.49991
 O319 O 0.33768 0.60385 0.52194
 O320 O 0.27314 0.60912 0.52956
 C321 C 0.25694 0.63016 0.53468
 O322 O 0.26388 0.66152 0.52193
 O323 O 0.33405 0.72633 0.52948
 C324 C 0.37141 0.74269 0.53461
 O325 O 0.39580 0.73584 0.52187
 O326 O 0.39026 0.66578 0.52948
 C327 C 0.36915 0.62837 0.53462
 O328 O 0.32728 0.60609 0.47005
 O329 O 0.26086 0.60792 0.47767
 C330 C 0.25703 0.63429 0.46491
 O331 O 0.27643 0.67180 0.47001
 O332 O 0.34501 0.73850 0.47759
 C333 C 0.37526 0.74248 0.46485
 O334 O 0.39331 0.72317 0.46997
 O335 O 0.39119 0.65469 0.47761
 C336 C 0.36473 0.62428 0.46492
 Cr337 Cr 0.30096 0.60902 0.49980
 Cr338 Cr 0.30588 0.69832 0.49975
 Cr339 Cr 0.39037 0.69383 0.49973
 O340 O 0.33241 0.66705 0.49975
 C341 C 0.43777 0.55279 0.34350
 C342 C 0.42644 0.56224 0.36273
 C343 C 0.41332 0.57409 0.38496
 C344 C 0.40219 0.58481 0.40370
 C345 C 0.38919 0.59801 0.42535
 C346 C 0.37806 0.60976 0.44357
 C347 C 0.44701 0.88694 0.34292
 C348 C 0.43746 0.86620 0.36224
 C349 C 0.42551 0.84127 0.38457
 C350 C 0.41473 0.81946 0.40339
 C351 C 0.40150 0.79327 0.42513
 C352 C 0.38975 0.77039 0.44343
 C353 C 0.11373 0.56148 0.34249
 C354 C 0.13424 0.57267 0.36190
 C355 C 0.15889 0.58565 0.38435
 C356 C 0.18050 0.59670 0.40326
 C357 C 0.20646 0.60966 0.42510
 C358 C 0.22922 0.62083 0.44345
 C359 C 0.56456 0.45073 0.34356
 C360 C 0.57531 0.44082 0.36286
 C361 C 0.58757 0.42823 0.38516
 C362 C 0.59782 0.41670 0.40394
 C363 C 0.60960 0.40232 0.42560
 C364 C 0.61952 0.38937 0.44380
 C365 C 0.54958 0.11401 0.34271
 C366 C 0.55944 0.13462 0.36207
 C367 C 0.57192 0.15938 0.38445
 C368 C 0.58334 0.18107 0.40331
 C369 C 0.59753 0.20710 0.42508
 C370 C 0.61031 0.22986 0.44339
 C371 C 0.88679 0.43654 0.34404
 C372 C 0.86604 0.42576 0.36330
 C373 C 0.84108 0.41339 0.38556
 C374 C 0.81920 0.40301 0.40429
 C375 C 0.79293 0.39101 0.42590
 C376 C 0.76995 0.38084 0.44406
 C377 C 0.55277 0.43885 1.15633
 C378 C 0.56228 0.42757 1.13711
 C379 C 0.57419 0.41447 1.11489
 C380 C 0.58492 0.40332 1.09617
 C381 C 0.59809 0.39024 1.07455
 C382 C 0.60979 0.37900 1.05636
 C383 C 0.88713 0.44835 1.15676
 C384 C 0.86635 0.43882 1.13747
 C385 C 0.84137 0.42686 1.11518
 C386 C 0.81948 0.41602 1.09640
 C387 C 0.79322 0.40268 1.07472
 C388 C 0.77025 0.39078 1.05648
 C389 C 0.56129 0.11381 1.15771
 C390 C 0.57257 0.13448 1.13837
 C391 C 0.58563 0.15930 1.11599
 C392 C 0.59673 0.18103 1.09712
 C393 C 0.60971 0.20709 1.07532
 C394 C 0.62085 0.22986 1.05697
 C395 C 0.45062 0.56547 1.15626
 C396 C 0.44096 0.57642 1.13694
 C397 C 0.42882 0.58906 1.11460
 C398 C 0.41782 0.59978 1.09579
 C399 C 0.40427 0.61230 1.07408
 C400 C 0.39219 0.62304 1.05582
 C401 C 0.11561 0.54971 1.15681
 C402 C 0.13598 0.55925 1.13738
 C403 C 0.16048 0.57124 1.11491
 C404 C 0.18196 0.58215 1.09598
 C405 C 0.20780 0.59563 1.07415
 C406 C 0.23048 0.60769 1.05580
 C407 C 0.43478 0.88579 1.15667
 C408 C 0.42388 0.86519 1.13731
 C409 C 0.41130 0.84043 1.11492
 C410 C 0.40063 0.81875 1.09606
 C411 C 0.38815 0.79272 1.07428
 C412 C 0.37743 0.76993 1.05596
 C413 C 0.56413 0.44969 0.65633
 C414 C 0.57514 0.44003 0.63706
 C415 C 0.58788 0.42792 0.61479
 C416 C 0.59869 0.41696 0.59602
 C417 C 0.61131 0.40348 0.57435
 C418 C 0.62213 0.39147 0.55612
 C419 C 0.54842 0.11313 0.65626
 C420 C 0.55801 0.13377 0.63693
 C421 C 0.57008 0.15859 0.61459
 C422 C 0.58106 0.18036 0.59577
 C423 C 0.59463 0.20653 0.57407
 C424 C 0.60678 0.22945 0.55583
 C425 C 0.88599 0.43495 0.65656
 C426 C 0.86516 0.42381 0.63730
 C427 C 0.84013 0.41098 0.61504
 C428 C 0.81824 0.40013 0.59628
 C429 C 0.79200 0.38751 0.57460
 C430 C 0.76910 0.37675 0.55634
 C431 C 0.43833 0.55286 0.65613
 C432 C 0.42739 0.56270 0.63686
 C433 C 0.41482 0.57512 0.61460
 C434 C 0.40423 0.58640 0.59584
 C435 C 0.39196 0.60036 0.57418
 C436 C 0.38153 0.61286 0.55596
 C437 C 0.44653 0.88577 0.65704
 C438 C 0.43683 0.86533 0.63760
 C439 C 0.42457 0.84073 0.61513
 C440 C 0.41339 0.81916 0.59621
 C441 C 0.39950 0.79322 0.57438
 C442 C 0.38701 0.77049 0.55604
 C443 C 0.11395 0.56132 0.65709
 C444 C 0.13441 0.57222 0.63767
 C445 C 0.15902 0.58474 0.61522
 C446 C 0.18059 0.59527 0.59631
 C447 C 0.20651 0.60748 0.57448
 C448 C 0.22921 0.61784 0.55613
 C449 C 0.45006 0.56435 0.84336
 C450 C 0.44028 0.57524 0.86264
 C451 C 0.42786 0.58767 0.88491
 C452 C 0.41647 0.59806 0.90366
 C453 C 0.40226 0.61000 0.92530
 C454 C 0.38945 0.62003 0.94349
 C455 C 0.11470 0.55033 0.84237
 C456 C 0.13522 0.56014 0.86177
 C457 C 0.15988 0.57256 0.88420
 C458 C 0.18150 0.58393 0.90310
 C459 C 0.20746 0.59809 0.92490
 C460 C 0.23019 0.61087 0.94323
 C461 C 0.43557 0.88549 0.84245
 C462 C 0.42491 0.86508 0.86190
 C463 C 0.41272 0.84054 0.88437
 C464 C 0.40250 0.81901 0.90329
 C465 C 0.39072 0.79311 0.92511
 C466 C 0.38074 0.77039 0.94344
 C467 C 0.55239 0.43786 0.84360
 C468 C 0.56217 0.42692 0.86290
 C469 C 0.57453 0.41438 0.88520
 C470 C 0.58580 0.40384 0.90399
 C471 C 0.59978 0.39167 0.92569
 C472 C 0.61232 0.38138 0.94395
 C473 C 0.88682 0.44700 0.84377
 C474 C 0.86607 0.43716 0.86305
 C475 C 0.84111 0.42474 0.88534
 C476 C 0.81926 0.41346 0.90411
 C477 C 0.79304 0.39951 0.92580
 C478 C 0.77014 0.38703 0.94405
 C479 C 0.56071 0.11275 0.84384
 C480 C 0.57163 0.13336 0.86320
 C481 C 0.58417 0.15816 0.88557
 C482 C 0.59473 0.17991 0.90441
 C483 C 0.60698 0.20605 0.92614
 C484 C 0.61739 0.22895 0.94439
   
