data_POSCAR
  _audit_creation_date              2014-09-24
  _audit_creation_method            'ToBaCCo'
  _symmetry_space_group_name_H-M    'P1'
  _symmetry_Int_Tables_number       1
  _symmetry_cell_setting            triclinic
  loop_
  _symmetry_equiv_pos_as_xyz
 x,y,z
_cell_length_a 40.1945
_cell_length_b 40.5047
_cell_length_c 43.1791
_cell_angle_alpha 89.901600
_cell_angle_beta 89.083300
_cell_angle_gamma 88.917500
loop_
  _atom_site_label
  _atom_site_type_symbol
  _atom_site_fract_x
  _atom_site_fract_y
  _atom_site_fract_z
N1 N 0.16592 1.24077 0.16007
 N2 N 0.14281 1.24279 0.18187
 C3 C 0.12199 1.26826 0.17550
 C4 C 0.13248 1.28309 0.14805
 C5 C 0.16060 1.26478 0.13907
 H6 H 0.10056 1.27506 0.18965
 H7 H 0.17605 1.26825 0.11868
 Cu8 Cu 0.14184 1.21104 0.21574
 Cu9 Cu 0.20079 1.20668 0.16000
 Cu10 Cu 0.19948 1.15027 0.22058
 N11 N 0.14110 1.17937 0.24967
 N12 N 0.16384 1.15575 0.25143
 C13 C 0.15732 1.13684 0.27635
 C14 C 0.12873 1.14908 0.29120
 C15 C 0.11927 1.17626 0.27344
 H16 H 0.17213 1.11541 0.28264
 H17 H 0.09789 1.19238 0.27716
 N18 N 0.23342 1.14896 0.18705
 N19 N 0.23386 1.17044 0.16405
 C20 C 0.25933 1.16267 0.14464
 C21 C 0.27582 1.13486 0.15581
 C22 C 0.25862 1.12694 0.18282
 H23 H 0.26521 1.17618 0.12374
 H24 H 0.26365 1.10629 0.19800
 H25 H 0.17404 1.17166 0.18426
 H26 H 0.20091 1.19917 0.20732
 N27 N 0.83500 0.75793 0.15710
 N28 N 0.85764 0.75690 0.17870
 C29 C 0.87966 0.73232 0.17223
 C30 C 0.87040 0.71706 0.14506
 C31 C 0.84182 0.73404 0.13618
 H32 H 0.90097 0.72619 0.18618
 H33 H 0.82741 0.72988 0.11569
 Cu34 Cu 0.85683 0.78854 0.21255
 Cu35 Cu 0.79909 0.79095 0.15710
 Cu36 Cu 0.79720 0.84762 0.21732
 N37 N 0.85553 0.82044 0.24621
 N38 N 0.83211 0.84343 0.24795
 C39 C 0.83743 0.86265 0.27270
 C40 C 0.86594 0.85125 0.28744
 C41 C 0.87661 0.82425 0.26980
 H42 H 0.82184 0.88365 0.27902
 H43 H 0.89834 0.80874 0.27344
 N44 N 0.76412 0.84778 0.18409
 N45 N 0.76482 0.82622 0.16121
 C46 C 0.73961 0.83330 0.14197
 C47 C 0.72216 0.86071 0.15319
 C48 C 0.73848 0.86914 0.17998
 H49 H 0.73480 0.81991 0.12095
 H50 H 0.73230 0.88948 0.19529
 H51 H 0.82426 0.82673 0.18093
 H52 H 0.79763 0.79850 0.20439
 N53 N 0.82253 1.23875 -0.15182
 N54 N 0.84428 1.24171 -0.17463
 C55 C 0.86437 1.26704 -0.16846
 C56 C 0.85470 1.28076 -0.14021
 C57 C 0.82797 1.26205 -0.13043
 H58 H 0.88484 1.27453 -0.18321
 H59 H 0.81361 1.26486 -0.10922
 Cu60 Cu 0.84486 1.21164 -0.20981
 Cu61 Cu 0.78945 1.20435 -0.15088
 Cu62 Cu 0.79096 1.14894 -0.21181
 N63 N 0.84598 1.17936 -0.24324
 N64 N 0.82478 1.15512 -0.24390
 C65 C 0.83138 1.13619 -0.26887
 C66 C 0.85843 1.14906 -0.28496
 C67 C 0.86692 1.17662 -0.26782
 H68 H 0.81767 1.11436 -0.27440
 H69 H 0.88707 1.19325 -0.27250
 N70 N 0.75859 1.14671 -0.17718
 N71 N 0.75799 1.16789 -0.15401
 C72 C 0.73369 1.15956 -0.13381
 C73 C 0.71820 1.13171 -0.14469
 C74 C 0.73470 1.12432 -0.17230
 H75 H 0.72818 1.17244 -0.11239
 H76 H 0.72977 1.10406 -0.18770
 H77 H 0.81752 1.17090 -0.17702
 H78 H 0.78713 1.19773 -0.19824
 N79 N 0.17635 0.76444 -0.16567
 N80 N 0.15501 0.76454 -0.18840
 C81 C 0.13357 0.73977 -0.18395
 C82 C 0.14191 0.72315 -0.15699
 C83 C 0.16929 0.73958 -0.14608
 H84 H 0.11328 0.73439 -0.19915
 H85 H 0.18267 0.73438 -0.12506
 Cu86 Cu 0.15641 0.79754 -0.22119
 Cu87 Cu 0.21092 0.79717 -0.16258
 Cu88 Cu 0.21275 0.85804 -0.21890
 N89 N 0.15715 0.83292 -0.25175
 N90 N 0.17915 0.85642 -0.25072
 C91 C 0.17361 0.87789 -0.27395
 C92 C 0.14647 0.86747 -0.29065
 C93 C 0.13677 0.83868 -0.27571
 H94 H 0.18820 0.89965 -0.27796
 H95 H 0.11618 0.82320 -0.28143
 N96 N 0.24474 0.85558 -0.18488
 N97 N 0.24403 0.83240 -0.16340
 C98 C 0.26846 0.83776 -0.14313
 C99 C 0.28545 0.86570 -0.15223
 C100 C 0.26965 0.87626 -0.17886
 H101 H 0.27342 0.82246 -0.12316
 H102 H 0.27543 0.89781 -0.19254
 H103 H 0.18462 0.83390 -0.18558
 H104 H 0.21443 0.80804 -0.20926
 C105 C 0.49857 0.99439 0.00570
 C106 C 0.00771 0.50003 0.98817
 C107 C 0.99149 -0.00074 0.50065
 C108 C 0.08892 0.32632 1.14478
 C109 C 0.07377 0.35254 1.12893
 C110 C 0.08658 0.36314 1.10044
 C111 C 0.11519 0.34746 1.08798
 C112 C 0.13052 0.32131 1.10379
 C113 C 0.11752 0.31006 1.13241
 N114 N 0.06980 0.38946 1.08447
 N115 N 0.07922 0.39935 1.05780
 C116 C 0.06203 0.42533 1.04173
 C117 C 0.07239 0.43353 1.01170
 C118 C 0.05538 0.45791 0.99498
 C119 C 0.02814 0.47564 1.00829
 C120 C 0.01735 0.46635 1.03834
 C121 C 0.03432 0.44188 1.05496
 H122 H 0.07790 0.31899 1.16665
 H123 H 0.05172 0.36447 1.13880
 H124 H 0.12562 0.35529 1.06595
 H125 H 0.15237 0.30993 1.09315
 H126 H 0.09332 0.42049 1.00099
 H127 H 0.06334 0.46277 0.97137
 H128 H -0.00483 0.47720 1.04890
 H129 H 0.02534 0.43546 1.07792
 C130 C -0.07987 0.67927 1.13736
 C131 C -0.06302 0.65387 1.12145
 C132 C -0.07779 0.63819 1.09651
 C133 C -0.10996 0.64805 1.08767
 C134 C -0.12690 0.67350 1.10355
 C135 C -0.11201 0.68954 1.12854
 N136 N -0.05932 0.61283 1.08036
 N137 N -0.07092 0.59742 1.05737
 C138 C -0.05177 0.57251 1.04120
 C139 C -0.06566 0.55662 1.01592
 C140 C -0.04723 0.53289 0.99914
 C141 C -0.01457 0.52375 1.00785
 C142 C -0.00054 0.54086 1.03280
 C143 C -0.01899 0.56451 1.04951
 H144 H -0.06739 0.69104 1.15626
 H145 H -0.03819 0.64652 1.12842
 H146 H -0.12193 0.63625 1.06844
 H147 H -0.15165 0.68047 1.09621
 H148 H -0.09065 0.56314 1.00882
 H149 H -0.05845 0.52249 0.97887
 H150 H 0.02501 0.53602 1.03925
 H151 H -0.00739 0.57690 1.06862
 C152 C -0.14055 0.31711 0.90662
 C153 C -0.12567 0.34283 0.92249
 C154 C -0.09991 0.36056 0.90865
 C155 C -0.08924 0.35244 0.87842
 C156 C -0.10410 0.32671 0.86247
 C157 C -0.12988 0.30858 0.87642
 N158 N -0.08469 0.38615 0.92600
 N159 N -0.06082 0.40303 0.91509
 C160 C -0.04530 0.42812 0.93285
 C161 C -0.01838 0.44485 0.91989
 C162 C -0.00178 0.46851 0.93702
 C163 C -0.01241 0.47683 0.96744
 C164 C -0.03910 0.45903 0.98049
 C165 C -0.05560 0.43536 0.96334
 H166 H -0.16018 0.30384 0.91830
 H167 H -0.13407 0.34882 0.94581
 H168 H -0.06934 0.36583 0.86720
 H169 H -0.09527 0.32114 0.83925
 H170 H -0.00970 0.43894 0.89665
 H171 H 0.02003 0.47941 0.92656
 H172 H -0.04694 0.46320 1.00428
 H173 H -0.07600 0.42233 0.97414
 C174 C 0.09303 0.68557 0.84753
 C175 C 0.07646 0.65943 0.86174
 C176 C 0.09107 0.64201 0.88614
 C177 C 0.12277 0.65086 0.89613
 C178 C 0.13938 0.67704 0.88197
 C179 C 0.12465 0.69484 0.85757
 N180 N 0.07292 0.61599 0.90071
 N181 N 0.08462 0.59910 0.92305
 C182 C 0.06598 0.57359 0.93793
 C183 C 0.08007 0.55631 0.96265
 C184 C 0.06208 0.53215 0.97843
 C185 C 0.02966 0.52394 0.96923
 C186 C 0.01543 0.54237 0.94481
 C187 C 0.03345 0.56648 0.92909
 H188 H 0.08073 0.69873 0.82901
 H189 H 0.05200 0.65288 0.85390
 H190 H 0.13462 0.63773 0.91495
 H191 H 0.16378 0.68319 0.89017
 H192 H 0.10485 0.56214 0.97017
 H193 H 0.07339 0.52074 0.99842
 H194 H -0.01000 0.53828 0.93809
 H195 H 0.02171 0.57995 0.91042
 C196 C 1.08256 0.15075 0.32928
 C197 C 1.06579 0.13712 0.35473
 C198 C 1.07829 0.10875 0.36924
 C199 C 1.10822 0.09430 0.35827
 C200 C 1.12505 0.10780 0.33282
 C201 C 1.11236 0.13612 0.31762
 N202 N 1.05971 0.09451 0.39434
 N203 N 1.06982 0.06855 0.40823
 C204 C 1.05104 0.05332 0.43263
 C205 C 1.06353 0.02427 0.44587
 C206 C 1.04510 0.00753 0.46838
 C207 C 1.01392 0.02002 0.47906
 C208 C 1.00126 0.04904 0.46494
 C209 C 1.01976 0.06573 0.44235
 H210 H 1.07166 0.17253 0.31875
 H211 H 1.04272 0.14850 0.36297
 H212 H 1.11847 0.07233 0.36913
 H213 H 1.14786 0.09561 0.32515
 H214 H 1.08729 0.01404 0.43804
 H215 H 1.05500 -0.01580 0.47672
 H216 H 0.97661 0.05848 0.47088
 H217 H 1.00924 0.08783 0.43195
 C218 C 1.14420 -0.08711 0.67162
 C219 C 1.12905 -0.07127 0.64663
 C220 C 1.10116 -0.08468 0.63289
 C221 C 1.08860 -0.11452 0.64424
 C222 C 1.10366 -0.13047 0.66928
 C223 C 1.13164 -0.11693 0.68359
 N224 N 1.08573 -0.06708 0.60801
 N225 N 1.06031 -0.07769 0.59421
 C226 C 1.04472 -0.05926 0.56989
 C227 C 1.01664 -0.07195 0.55581
 C228 C 1.00002 -0.05387 0.53297
 C229 C 1.01175 -0.02289 0.52294
 C230 C 1.03954 -0.01000 0.53810
 C231 C 1.05610 -0.02811 0.56086
 H232 H 1.16559 -0.07556 0.68147
 H233 H 1.13894 -0.04825 0.63806
 H234 H 1.06701 -0.12539 0.63395
 H235 H 1.09300 -0.15330 0.67730
 H236 H 1.00713 -0.09561 0.56310
 H237 H 0.97745 -0.06388 0.52382
 H238 H 1.04822 0.01450 0.53268
 H239 H 1.07736 -0.01739 0.57186
 C240 C 0.91086 -0.14939 0.32546
 C241 C 0.92641 -0.13548 0.35091
 C242 C 0.91283 -0.10737 0.36535
 C243 C 0.88310 -0.09340 0.35425
 C244 C 0.86746 -0.10721 0.32879
 C245 C 0.88120 -0.13534 0.31373
 N246 N 0.93008 -0.09308 0.39067
 N247 N 0.91908 -0.06736 0.40462
 C248 C 0.93657 -0.05242 0.42944
 C249 C 0.92319 -0.02380 0.44307
 C250 C 0.94019 -0.00772 0.46643
 C251 C 0.97070 -0.02053 0.47756
 C252 C 0.98443 -0.04890 0.46284
 C253 C 0.96738 -0.06493 0.43944
 H254 H 0.92251 -0.17101 0.31504
 H255 H 0.94934 -0.14650 0.35927
 H256 H 0.87207 -0.07163 0.36505
 H257 H 0.84474 -0.09543 0.32103
 H258 H 0.89982 -0.01345 0.43504
 H259 H 0.92968 0.01526 0.47521
 H260 H 1.00875 -0.05843 0.46908
 H261 H 0.97862 -0.08668 0.42877
 C262 C 0.90236 0.15164 0.67480
 C263 C 0.91852 0.13825 0.64862
 C264 C 0.90704 0.10944 0.63500
 C265 C 0.87875 0.09431 0.64759
 C266 C 0.86255 0.10756 0.67370
 C267 C 0.87423 0.13632 0.68802
 N268 N 0.92495 0.09544 0.60906
 N269 N 0.91588 0.06878 0.59643
 C270 C 0.93381 0.05359 0.57115
 C271 C 0.92296 0.02336 0.56008
 C272 C 0.94086 0.00666 0.53681
 C273 C 0.96963 0.02033 0.52310
 C274 C 0.98069 0.05067 0.53495
 C275 C 0.96278 0.06729 0.55839
 H276 H 0.91238 0.17379 0.68463
 H277 H 0.94032 0.15018 0.63913
 H278 H 0.86929 0.07200 0.63745
 H279 H 0.84102 0.09481 0.68255
 H280 H 0.90105 0.01221 0.57020
 H281 H 0.93252 -0.01747 0.52998
 H282 H 1.00380 0.06116 0.52685
 H283 H 0.97204 0.09037 0.56708
 C284 C 0.32048 1.09040 0.15675
 C285 C 0.34720 1.07317 0.14274
 C286 C 0.35864 1.08201 0.11317
 C287 C 0.34319 1.10860 0.09777
 C288 C 0.31654 1.12584 0.11171
 C289 C 0.30468 1.11690 0.14135
 N290 N 0.38548 1.06341 0.09902
 N291 N 0.39625 1.07014 0.07191
 C292 C 0.42262 1.05172 0.05692
 C293 C 0.43178 1.06024 0.02669
 C294 C 0.45654 1.04224 0.01082
 C295 C 0.47373 1.01573 0.02514
 C296 C 0.46351 1.00672 0.05543
 C297 C 0.43857 1.02477 0.07127
 H298 H 0.31233 1.08282 0.17962
 H299 H 0.35890 1.05272 0.15487
 H300 H 0.35153 1.11596 0.07486
 H301 H 0.30513 1.14592 0.09895
 H302 H 0.41920 1.08057 0.01516
 H303 H 0.46214 1.04888 -0.01297
 H304 H 0.47399 0.98518 0.06675
 H305 H 0.43133 1.01725 0.09444
 C306 C 0.68246 1.08159 -0.13981
 C307 C 0.65711 1.06405 -0.12502
 C308 C 0.63955 1.07778 -0.09981
 C309 C 0.64746 1.10957 -0.08962
 C310 C 0.67279 1.12713 -0.10434
 C311 C 0.69075 1.11331 -0.12954
 N312 N 0.61423 1.05888 -0.08472
 N313 N 0.59760 1.07006 -0.06157
 C314 C 0.57254 1.05131 -0.04596
 C315 C 0.55571 1.06535 -0.02056
 C316 C 0.53163 1.04763 -0.00428
 C317 C 0.52294 1.01553 -0.01364
 C318 C 0.54118 1.00116 -0.03859
 C319 C 0.56527 1.01897 -0.05486
 H320 H 0.69579 1.07000 -0.15897
 H321 H 0.65129 1.03955 -0.13308
 H322 H 0.63419 1.12079 -0.07020
 H323 H 0.67813 1.15157 -0.09594
 H324 H 0.56172 1.08998 -0.01298
 H325 H 0.52047 1.05899 0.01611
 H326 H 0.53685 0.97592 -0.04542
 H327 H 0.57850 1.00728 -0.07405
 C328 C 0.33151 0.90682 -0.15105
 C329 C 0.35747 0.92219 -0.13585
 C330 C 0.36608 0.91260 -0.10587
 C331 C 0.34855 0.88710 -0.09122
 C332 C 0.32259 0.87170 -0.10636
 C333 C 0.31360 0.88148 -0.13643
 N334 N 0.39215 0.92952 -0.09061
 N335 N 0.40095 0.92207 -0.06325
 C336 C 0.42646 0.93933 -0.04755
 C337 C 0.43398 0.93023 -0.01723
 C338 C 0.45767 0.94740 -0.00070
 C339 C 0.47536 0.97361 -0.01442
 C340 C 0.46682 0.98312 -0.04484
 C341 C 0.44303 0.96592 -0.06132
 H342 H 0.32561 0.91487 -0.17425
 H343 H 0.37082 0.94178 -0.14741
 H344 H 0.35468 0.87927 -0.06799
 H345 H 0.30935 0.85250 -0.09421
 H346 H 0.42089 0.91018 -0.00612
 H347 H 0.46194 0.94043 0.02315
 H348 H 0.47764 1.00452 -0.05576
 H349 H 0.43706 0.97393 -0.08454
 C350 C 0.68275 0.90946 0.14937
 C351 C 0.65620 0.92611 0.13531
 C352 C 0.63962 0.91175 0.11067
 C353 C 0.64968 0.88017 0.10036
 C354 C 0.67624 0.86348 0.11437
 C355 C 0.69328 0.87800 0.13893
 N356 N 0.61331 0.93001 0.09607
 N357 N 0.59747 0.91843 0.07336
 C358 C 0.57173 0.93688 0.05814
 C359 C 0.55621 0.92281 0.03280
 C360 C 0.53212 0.94061 0.01642
 C361 C 0.52211 0.97283 0.02563
 C362 C 0.53870 0.98704 0.05079
 C363 C 0.56282 0.96918 0.06711
 H364 H 0.69528 0.92160 0.16805
 H365 H 0.64874 0.95047 0.14343
 H366 H 0.63721 0.86849 0.08136
 H367 H 0.68331 0.83921 0.10586
 H368 H 0.56346 0.89821 0.02519
 H369 H 0.52221 0.92931 -0.00404
 H370 H 0.53330 1.01231 0.05758
 H371 H 0.57495 0.98088 0.08629
   
