data_POSCAR
  _audit_creation_date              2014-09-24
  _audit_creation_method            'ToBaCCo'
  _symmetry_space_group_name_H-M    'P1'
  _symmetry_Int_Tables_number       1
  _symmetry_cell_setting            triclinic
  loop_
  _symmetry_equiv_pos_as_xyz
 x,y,z
_cell_length_a 25.1968
_cell_length_b 25.1967
_cell_length_c 25.1961
_cell_angle_alpha 89.406200
_cell_angle_beta 90.251900
_cell_angle_gamma 89.946100
loop_
  _atom_site_label
  _atom_site_type_symbol
  _atom_site_fract_x
  _atom_site_fract_y
  _atom_site_fract_z
O1 O 0.57231 0.49908 0.04353
 O2 O 0.42597 0.49921 0.04368
 O3 O 0.49912 0.42613 0.04322
 O4 O 0.49919 0.57214 0.04392
 O5 O 0.49870 0.57346 -0.04387
 O6 O 0.49863 0.42745 -0.04457
 O7 O 0.42548 0.50053 -0.04409
 O8 O 0.57183 0.50041 -0.04424
 Cu9 Cu 0.49919 0.49900 0.05244
 Cu10 Cu 0.49861 0.50059 -0.05305
 C11 C 0.59678 0.49978 -0.00038
 C12 C 0.40100 0.49987 -0.00018
 C13 C 0.49885 0.40216 -0.00079
 C14 C 0.49901 0.59743 0.00014
 O15 O -0.04364 0.57432 0.49928
 O16 O -0.04355 0.42797 0.49983
 O17 O -0.04365 0.50064 0.57256
 O18 O -0.04347 0.50162 0.42652
 O19 O 0.04431 0.50158 0.42704
 O20 O 0.04413 0.50059 0.57306
 O21 O 0.04422 0.42792 0.50034
 O22 O 0.04411 0.57428 0.49978
 Cu23 Cu -0.05243 0.50114 0.49949
 Cu24 Cu 0.05305 0.50110 0.50010
 C25 C 0.00022 0.59902 0.49944
 C26 C 0.00035 0.40323 0.50020
 C27 C 0.00021 0.50042 0.59744
 C28 C 0.00046 0.50176 0.40214
 O29 O 0.50081 0.04388 0.57367
 O30 O 0.49949 0.04334 0.42732
 O31 O 0.42715 0.04362 0.50084
 O32 O 0.57317 0.04353 0.50012
 O33 O 0.57322 -0.04425 0.50136
 O34 O 0.42721 -0.04416 0.50208
 O35 O 0.49954 -0.04443 0.42856
 O36 O 0.50086 -0.04388 0.57491
 Cu37 Cu 0.50016 0.05245 0.50037
 Cu38 Cu 0.50022 -0.05304 0.50186
 C39 C 0.50103 0.00010 0.59901
 C40 C 0.49929 -0.00064 0.40323
 C41 C 0.40255 -0.00026 0.50158
 C42 C 0.59783 -0.00038 0.50059
 C43 C 0.49876 0.13752 -0.10014
 C44 C 0.50123 0.09935 -0.13844
 C45 C 0.50175 0.05072 -0.11216
 N46 N 0.49978 0.05812 -0.05916
 C47 C 0.49799 0.11108 -0.05157
 C48 C 0.50232 0.00094 -0.13752
 C49 C 0.50071 -0.04882 -0.11081
 C50 C 0.49322 -0.09696 -0.13600
 C51 C 0.49293 -0.13557 -0.09717
 C52 C 0.50027 -0.11024 -0.04903
 N53 N 0.50588 -0.05743 -0.05783
 C54 C 0.50150 -0.13673 0.00087
 C55 C 0.50108 -0.11150 0.05074
 C56 C 0.50035 -0.13795 0.09931
 C57 C 0.49804 -0.09978 0.13762
 C58 C 0.49758 -0.05115 0.11133
 N59 N 0.49943 -0.05855 0.05833
 C60 C 0.49713 -0.00136 0.13670
 C61 C 0.49861 0.04840 0.10998
 C62 C 0.50605 0.09656 0.13515
 C63 C 0.50617 0.13517 0.09632
 C64 C 0.49880 0.10982 0.04820
 N65 N 0.49333 0.05699 0.05701
 C66 C 0.49744 0.13631 -0.00170
 H67 H 0.49799 0.17994 -0.10731
 H68 H 0.50220 0.10666 -0.18084
 H69 H 0.48265 0.02914 0.02903
 H70 H 0.48777 -0.10365 -0.17803
 H71 H 0.48724 -0.17757 -0.10373
 H72 H 0.50104 -0.18037 0.10648
 H73 H 0.49714 -0.10708 0.18001
 H74 H 0.51179 0.17718 0.10288
 H75 H 0.51657 -0.02959 -0.02984
 H76 H 0.51157 0.10326 0.17718
 C77 C -0.09883 0.49839 0.86236
 C78 C -0.13729 0.50063 0.90060
 C79 C -0.11117 0.50146 0.94915
 N80 N -0.05813 0.49989 0.94163
 C81 C -0.05034 0.49807 0.88868
 C82 C -0.13670 0.50200 0.99899
 C83 C -0.11014 0.50092 1.04870
 C84 C -0.13538 0.49356 1.09704
 C85 C -0.09669 0.49387 1.13555
 C86 C -0.04857 0.50142 1.10995
 N87 N -0.05727 0.50658 1.05706
 C88 C 0.00123 0.50321 1.13627
 C89 C 0.05118 0.50288 1.11090
 C90 C 0.09967 0.50253 1.13722
 C91 C 0.13813 0.50012 1.09899
 C92 C 0.11201 0.49923 1.05044
 N93 N 0.05896 0.50093 1.05796
 C94 C 0.13754 0.49857 1.00060
 C95 C 0.11098 0.49977 0.95089
 C96 C 0.13624 0.50718 0.90256
 C97 C 0.09754 0.50704 0.86406
 C98 C 0.04941 0.49953 0.88964
 N99 N 0.05810 0.49423 0.94252
 C100 C -0.00039 0.49787 0.86332
 H101 H -0.10586 0.49749 0.81997
 H102 H -0.17967 0.50126 0.89340
 H103 H 0.03015 0.48351 0.97061
 H104 H -0.17736 0.48781 1.10395
 H105 H -0.10331 0.48842 1.17767
 H106 H 0.10670 0.50352 1.17961
 H107 H 0.18050 0.49942 1.10619
 H108 H 0.10418 0.51257 0.82195
 H109 H -0.02933 0.51730 1.02896
 H110 H 0.17823 0.51286 0.89567
 C111 C 0.13748 -0.09942 0.50209
 C112 C 0.09916 -0.13791 0.49961
 C113 C 0.05064 -0.11187 0.49882
 N114 N 0.05826 -0.05884 0.50064
 C115 C 0.11125 -0.05099 0.50259
 C116 C 0.00074 -0.13750 0.49814
 C117 C -0.04890 -0.11106 0.49945
 C118 C -0.09716 -0.13652 0.50681
 C119 C -0.13560 -0.09789 0.50684
 C120 C -0.11006 -0.04959 0.49948
 N121 N -0.05728 -0.05811 0.49411
 C122 C -0.13633 0.00018 0.49804
 C123 C -0.11087 0.05017 0.49838
 C124 C -0.13711 0.09861 0.49891
 C125 C -0.09877 0.13711 0.50121
 C126 C -0.05025 0.11107 0.50188
 N127 N -0.05789 0.05803 0.50015
 C128 C -0.00036 0.13669 0.50241
 C129 C 0.04928 0.11023 0.50117
 C130 C 0.09755 0.13567 0.49379
 C131 C 0.13600 0.09704 0.49394
 C132 C 0.11044 0.04877 0.50141
 N133 N 0.05766 0.05730 0.50668
 C134 C 0.13670 -0.00100 0.50303
 H135 H 0.17987 -0.10639 0.50303
 H136 H 0.10628 -0.18027 0.49880
 H137 H 0.02969 0.02916 0.51738
 H138 H -0.10403 -0.17861 0.51235
 H139 H -0.17763 -0.10468 0.51239
 H140 H -0.17950 0.10558 0.49808
 H141 H -0.10589 0.17946 0.50198
 H142 H 0.17803 0.10382 0.48843
 H143 H -0.02932 -0.02994 0.48348
 H144 H 0.10442 0.17774 0.48814
 C145 C -0.34621 0.49998 0.99956
 C146 C -0.29833 0.50029 0.99950
 C147 C -0.24226 0.50079 0.99939
 C148 C -0.19436 0.50129 0.99925
 C149 C 0.34707 0.49979 0.99990
 C150 C 0.29918 0.49964 1.00000
 C151 C 0.24310 0.49936 1.00016
 C152 C 0.19521 0.49905 1.00034
 C153 C 0.00019 -0.34704 0.49923
 C154 C 0.00020 -0.29915 0.49903
 C155 C 0.00027 -0.24307 0.49876
 C156 C 0.00043 -0.19517 0.49851
 C157 C 0.00035 0.34622 0.50054
 C158 C 0.00030 0.29834 0.50089
 C159 C 0.00017 0.24226 0.50137
 C160 C -0.00003 0.19436 0.50181
 C161 C 0.50138 0.00030 -0.34706
 C162 C 0.50164 0.00048 -0.29917
 C163 C 0.50189 0.00068 -0.24309
 C164 C 0.50208 0.00082 -0.19519
 C165 C 0.49879 -0.00084 0.34622
 C166 C 0.49840 -0.00100 0.29834
 C167 C 0.49795 -0.00115 0.24226
 C168 C 0.49759 -0.00126 0.19436
 C169 C 0.49930 -0.34573 0.00039
 C170 C 0.49969 -0.29795 0.00056
 C171 C 0.50025 -0.24204 0.00071
 C172 C 0.50079 -0.19424 0.00080
 C173 C 0.49870 0.34532 -0.00106
 C174 C 0.49849 0.29754 -0.00128
 C175 C 0.49818 0.24162 -0.00149
 C176 C 0.49787 0.19382 -0.00162
 C177 C -0.34533 -0.00040 0.50015
 C178 C -0.29755 -0.00039 0.49971
 C179 C -0.24163 -0.00030 0.49914
 C180 C -0.19384 -0.00014 0.49864
 C181 C 0.34571 -0.00026 0.50187
 C182 C 0.29793 -0.00032 0.50213
 C183 C 0.24201 -0.00047 0.50244
 C184 C 0.19421 -0.00067 0.50270
 C185 C 0.00055 0.50211 1.34530
 C186 C 0.00066 0.50239 1.29751
 C187 C 0.00083 0.50270 1.24159
 C188 C 0.00100 0.50294 1.19379
 C189 C 0.00013 0.49993 0.65429
 C190 C 0.00007 0.49946 0.70207
 C191 C -0.00004 0.49890 0.75799
 C192 C -0.00017 0.49843 0.80580
   
