data_POSCAR
  _audit_creation_date              2014-09-24
  _audit_creation_method            'ToBaCCo'
  _symmetry_space_group_name_H-M    'P1'
  _symmetry_Int_Tables_number       1
  _symmetry_cell_setting            triclinic
  loop_
  _symmetry_equiv_pos_as_xyz
 x,y,z
_cell_length_a 72.1022
_cell_length_b 72.0642
_cell_length_c 43.4912
_cell_angle_alpha 90.167200
_cell_angle_beta 89.933800
_cell_angle_gamma 90.722100
loop_
  _atom_site_label
  _atom_site_type_symbol
  _atom_site_fract_x
  _atom_site_fract_y
  _atom_site_fract_z
C1 C -0.00229 0.27149 -0.01504
 C2 C -0.00196 0.27129 0.01626
 C3 C -0.01925 0.27148 0.03495
 C4 C 0.01573 0.26966 0.03322
 C5 C 0.01502 0.27192 -0.03365
 C6 C -0.01999 0.27008 -0.03213
 C7 C -0.03273 0.28507 0.03048
 C8 C -0.04923 0.28468 0.04739
 C9 C -0.05252 0.27085 0.06980
 C10 C -0.03853 0.25765 0.07485
 C11 C -0.02218 0.25797 0.05761
 C12 C 0.02224 0.28446 0.05136
 C13 C 0.03908 0.28309 0.06702
 C14 C 0.04936 0.26668 0.06547
 C15 C 0.04259 0.25173 0.04777
 C16 C 0.02597 0.25328 0.03154
 C17 C 0.01782 0.25846 -0.05650
 C18 C 0.03425 0.25835 -0.07355
 C19 C 0.04825 0.27171 -0.06809
 C20 C 0.04524 0.28545 -0.04565
 C21 C 0.02872 0.28565 -0.02881
 C22 C -0.03072 0.25373 -0.03103
 C23 C -0.04737 0.25241 -0.04733
 C24 C -0.05370 0.26755 -0.06451
 C25 C -0.04293 0.28393 -0.06548
 C26 C -0.02605 0.28507 -0.04977
 H27 H -0.03052 0.29599 0.01378
 H28 H -0.05933 0.29531 0.04279
 H29 H -0.04020 0.24678 0.09182
 H30 H -0.01191 0.24741 0.06164
 H31 H 0.01440 0.29716 0.05296
 H32 H 0.04393 0.29476 0.08067
 H33 H 0.02102 0.24169 0.01776
 H34 H 0.00742 0.24779 -0.06075
 H35 H 0.03608 0.24758 -0.09066
 H36 H 0.05563 0.29608 -0.04111
 H37 H 0.02664 0.29649 -0.01191
 H38 H -0.02612 0.24200 -0.01766
 H39 H -0.05544 0.23965 -0.04615
 H40 H -0.04743 0.29574 -0.07874
 H41 H -0.01785 0.29775 -0.05091
 H42 H 0.05027 0.23895 0.04613
 C43 C 0.50018 0.77151 0.48017
 C44 C 0.50031 0.77137 0.51146
 C45 C 0.48291 0.77154 0.52979
 C46 C 0.51788 0.76991 0.52884
 C47 C 0.51759 0.77184 0.46185
 C48 C 0.48256 0.77020 0.46280
 C49 C 0.46957 0.78531 0.52540
 C50 C 0.45299 0.78491 0.54209
 C51 C 0.44958 0.77091 0.56392
 C52 C 0.46321 0.75747 0.56890
 C53 C 0.47969 0.75778 0.55200
 C54 C 0.52411 0.78482 0.54701
 C55 C 0.54076 0.78358 0.56327
 C56 C 0.55111 0.76719 0.56232
 C57 C 0.54462 0.75215 0.54454
 C58 C 0.52821 0.75357 0.52769
 C59 C 0.52048 0.75829 0.43917
 C60 C 0.53699 0.75807 0.42239
 C61 C 0.55100 0.77141 0.42795
 C62 C 0.54791 0.78523 0.45021
 C63 C 0.53130 0.78554 0.46678
 C64 C 0.47183 0.75384 0.46347
 C65 C 0.45528 0.75261 0.44689
 C66 C 0.44904 0.76785 0.42984
 C67 C 0.45980 0.78424 0.42933
 C68 C 0.47659 0.78530 0.44533
 H69 H 0.47198 0.79636 0.50901
 H70 H 0.44288 0.79560 0.53794
 H71 H 0.46105 0.74651 0.58554
 H72 H 0.48981 0.74707 0.55589
 H73 H 0.51621 0.79748 0.54821
 H74 H 0.54538 0.79532 0.57697
 H75 H 0.52346 0.74190 0.51391
 H76 H 0.51006 0.74764 0.43485
 H77 H 0.53889 0.74724 0.40540
 H78 H 0.55832 0.79584 0.45481
 H79 H 0.52916 0.79643 0.48356
 H80 H 0.47636 0.74203 0.47673
 H81 H 0.44722 0.73984 0.44773
 H82 H 0.45537 0.79613 0.41620
 H83 H 0.48479 0.79799 0.44452
 H84 H 0.55237 0.73939 0.54335
 C85 C 1.00004 0.73064 -0.01865
 C86 C 1.00006 0.72846 0.01252
 C87 C 1.01740 0.72650 0.03069
 C88 C 0.98257 0.72931 0.03037
 C89 C 0.98229 0.73109 -0.03612
 C90 C 1.01749 0.73307 -0.03667
 C91 C 1.03096 0.71350 0.02263
 C92 C 1.04760 0.71266 0.03909
 C93 C 1.05081 0.72455 0.06431
 C94 C 1.03690 0.73702 0.07298
 C95 C 1.02042 0.73798 0.05635
 C96 C 0.97621 0.71374 0.04668
 C97 C 0.95979 0.71457 0.06371
 C98 C 0.94980 0.73117 0.06538
 C99 C 0.95639 0.74683 0.04937
 C100 C 0.97257 0.74586 0.03180
 C101 C 0.97862 0.74598 -0.05581
 C102 C 0.96180 0.74676 -0.07170
 C103 C 0.94831 0.73266 -0.06818
 C104 C 0.95220 0.71756 -0.04892
 C105 C 0.96909 0.71670 -0.03331
 C106 C 1.03133 0.74579 -0.02744
 C107 C 1.04797 0.74729 -0.04376
 C108 C 1.05090 0.73666 -0.07055
 C109 C 1.03654 0.72465 -0.08062
 C110 C 1.02013 0.72279 -0.06374
 H111 H 1.02876 0.70421 0.00332
 H112 H 1.05796 0.70277 0.03201
 H113 H 1.03887 0.74636 0.09226
 H114 H 1.01017 0.74807 0.06313
 H115 H 0.98387 0.70092 0.04592
 H116 H 0.95508 0.70234 0.07600
 H117 H 0.97744 0.75805 0.01954
 H118 H 0.98866 0.75717 -0.05848
 H119 H 0.95928 0.75857 -0.08638
 H120 H 0.94222 0.70635 -0.04598
 H121 H 0.97184 0.70483 -0.01890
 H122 H 1.02934 0.75445 -0.00734
 H123 H 1.05845 0.75696 -0.03544
 H124 H 1.03810 0.71628 -0.10116
 H125 H 1.00955 0.71309 -0.07160
 H126 H 0.94892 0.75977 0.05018
 C127 C 0.49810 0.23085 0.48478
 C128 C 0.49773 0.22923 0.51603
 C129 C 0.51485 0.22757 0.53482
 C130 C 0.48000 0.23024 0.53321
 C131 C 0.48061 0.23114 0.46666
 C132 C 0.51576 0.23281 0.46720
 C133 C 0.52841 0.21436 0.52786
 C134 C 0.54486 0.21375 0.54486
 C135 C 0.54788 0.22610 0.56953
 C136 C 0.53395 0.23880 0.57712
 C137 C 0.51765 0.23952 0.55996
 C138 C 0.47341 0.21479 0.54961
 C139 C 0.45667 0.21570 0.56578
 C140 C 0.44657 0.23225 0.56649
 C141 C 0.45340 0.24780 0.55043
 C142 C 0.46991 0.24675 0.53372
 C143 C 0.47729 0.24578 0.44628
 C144 C 0.46076 0.24637 0.42960
 C145 C 0.44719 0.23232 0.43302
 C146 C 0.45072 0.21749 0.45302
 C147 C 0.46734 0.21681 0.46943
 C148 C 0.52944 0.24587 0.47584
 C149 C 0.54612 0.24719 0.45954
 C150 C 0.54917 0.23595 0.43362
 C151 C 0.53518 0.22343 0.42426
 C152 C 0.51868 0.22182 0.44097
 H153 H 0.52638 0.20471 0.50899
 H154 H 0.55523 0.20368 0.53861
 H155 H 0.53577 0.24850 0.59597
 H156 H 0.50737 0.24977 0.56589
 H157 H 0.48112 0.20199 0.54955
 H158 H 0.45178 0.20356 0.57812
 H159 H 0.47494 0.25884 0.52136
 H160 H 0.48741 0.25689 0.44363
 H161 H 0.45850 0.25798 0.41436
 H162 H 0.44067 0.20633 0.45591
 H163 H 0.46983 0.20513 0.48439
 H164 H 0.52727 0.25499 0.49531
 H165 H 0.55655 0.25717 0.46699
 H166 H 0.53714 0.21459 0.40436
 H167 H 0.50825 0.21181 0.43364
 H168 H 0.44586 0.26070 0.55052
 C169 C 0.73165 -0.00066 -0.01267
 C170 C 0.73383 -0.00121 0.01843
 C171 C 0.73611 -0.01885 0.03582
 C172 C 0.73482 0.01634 0.03622
 C173 C 0.73203 0.01740 -0.02890
 C174 C 0.72935 -0.01766 -0.03192
 C175 C 0.72619 -0.02189 0.06318
 C176 C 0.72809 -0.03840 0.07953
 C177 C 0.73979 -0.05251 0.06872
 C178 C 0.75002 -0.04928 0.04158
 C179 C 0.74849 -0.03251 0.02574
 C180 C 0.71875 0.02370 0.04943
 C181 C 0.71963 0.04042 0.06571
 C182 C 0.73646 0.05034 0.06805
 C183 C 0.75246 0.04313 0.05424
 C184 C 0.75168 0.02611 0.03877
 C185 C 0.74890 0.02483 -0.03939
 C186 C 0.74939 0.04169 -0.05508
 C187 C 0.73302 0.05175 -0.05999
 C188 C 0.71615 0.04440 -0.04850
 C189 C 0.71567 0.02729 -0.03335
 C190 C 0.74039 -0.02005 -0.05818
 C191 C 0.73913 -0.03630 -0.07556
 C192 C 0.72684 -0.05075 -0.06706
 C193 C 0.71528 -0.04806 -0.04129
 C194 C 0.71639 -0.03161 -0.02415
 H195 H 0.71668 -0.01164 0.07184
 H196 H 0.72000 -0.04019 0.10033
 H197 H 0.75944 -0.05958 0.03266
 H198 H 0.75689 -0.03028 0.00541
 H199 H 0.70555 0.01650 0.04704
 H200 H 0.70707 0.04583 0.07586
 H201 H 0.76415 0.02066 0.02839
 H202 H 0.76171 0.01749 -0.03554
 H203 H 0.76271 0.04684 -0.06312
 H204 H 0.70323 0.05167 -0.05161
 H205 H 0.70256 0.02178 -0.02499
 H206 H 0.75044 -0.00958 -0.06497
 H207 H 0.74821 -0.03761 -0.09528
 H208 H 0.70545 -0.05868 -0.03412
 H209 H 0.70736 -0.02991 -0.00446
 H210 H 0.76559 0.05053 0.05578
 C211 C 0.23019 0.49953 0.48223
 C212 C 0.23173 0.49936 0.51350
 C213 C 0.23354 0.48181 0.53117
 C214 C 0.23199 0.51695 0.53157
 C215 C 0.23140 0.51719 0.46494
 C216 C 0.22842 0.48226 0.46356
 C217 C 0.22239 0.47874 0.55720
 C218 C 0.22381 0.46230 0.57392
 C219 C 0.23628 0.44852 0.56474
 C220 C 0.24768 0.45172 0.53903
 C221 C 0.24655 0.46835 0.52274
 C222 C 0.21774 0.52992 0.52851
 C223 C 0.21827 0.54652 0.54518
 C224 C 0.23288 0.55034 0.56574
 C225 C 0.24687 0.53710 0.56936
 C226 C 0.24643 0.52058 0.55243
 C227 C 0.24800 0.52754 0.46451
 C228 C 0.24923 0.54401 0.44773
 C229 C 0.23377 0.55054 0.43157
 C230 C 0.21713 0.54017 0.43220
 C231 C 0.21605 0.52347 0.44840
 C232 C 0.24040 0.47951 0.43855
 C233 C 0.23958 0.46307 0.42156
 C234 C 0.22676 0.44895 0.42919
 C235 C 0.21440 0.45192 0.45373
 C236 C 0.21510 0.46850 0.47055
 H237 H 0.21241 0.48900 0.56436
 H238 H 0.21487 0.46021 0.59366
 H239 H 0.25762 0.44146 0.53174
 H240 H 0.25577 0.47066 0.50341
 H241 H 0.20619 0.52717 0.51322
 H242 H 0.20716 0.55630 0.54209
 H243 H 0.25748 0.51070 0.55533
 H244 H 0.26001 0.52275 0.47699
 H245 H 0.26220 0.55176 0.44770
 H246 H 0.20506 0.54483 0.41976
 H247 H 0.20318 0.51555 0.44841
 H248 H 0.25073 0.48993 0.43260
 H249 H 0.24929 0.46129 0.40281
 H250 H 0.20423 0.44141 0.46001
 H251 H 0.20543 0.47048 0.48932
 H252 H 0.25831 0.53958 0.58501
 C253 C 0.27159 1.00069 -0.01774
 C254 C 0.27166 0.99993 0.01354
 C255 C 0.27178 1.01701 0.03283
 C256 C 0.27033 0.98197 0.02987
 C257 C 0.27182 0.98366 -0.03714
 C258 C 0.27001 1.01862 -0.03396
 C259 C 0.28544 1.03085 0.02895
 C260 C 0.28487 1.04724 0.04617
 C261 C 0.27082 1.05000 0.06825
 C262 C 0.25758 1.03570 0.07285
 C263 C 0.25806 1.01944 0.05530
 C264 C 0.28534 0.97570 0.04725
 C265 C 0.28431 0.95853 0.06205
 C266 C 0.26803 0.94764 0.06044
 C267 C 0.25285 0.95418 0.04356
 C268 C 0.25406 0.97115 0.02816
 C269 C 0.25826 0.98095 -0.05987
 C270 C 0.25793 0.96478 -0.07763
 C271 C 0.27115 0.95081 -0.07301
 C272 C 0.28502 0.95382 -0.05064
 C273 C 0.28544 0.97013 -0.03317
 C274 C 0.25326 1.02823 -0.03362
 C275 C 0.25175 1.04512 -0.04905
 C276 C 0.26715 1.05296 -0.06453
 C277 C 0.28398 1.04318 -0.06455
 C278 C 0.28527 1.02603 -0.04987
 H279 H 0.29652 1.02901 0.01245
 H280 H 0.29549 1.05771 0.04210
 H281 H 0.24658 1.03711 0.08963
 H282 H 0.24746 1.00888 0.05887
 H283 H 0.29796 0.98397 0.04884
 H284 H 0.29615 0.95387 0.07510
 H285 H 0.24231 0.97590 0.01497
 H286 H 0.24767 0.99124 -0.06351
 H287 H 0.24706 0.96316 -0.09462
 H288 H 0.29562 0.94361 -0.04652
 H289 H 0.29638 0.97216 -0.01641
 H290 H 0.24133 1.02257 -0.02153
 H291 H 0.23855 1.05213 -0.04835
 H292 H 0.29614 1.04859 -0.07628
 H293 H 0.29827 1.01867 -0.05037
 H294 H 0.24016 0.94605 0.04188
 C295 C 0.77137 0.49986 0.48899
 C296 C 0.77133 0.49977 0.52029
 C297 C 0.76988 0.51725 0.53800
 C298 C 0.77138 0.48222 0.53820
 C299 C 0.76995 0.48238 0.47119
 C300 C 0.77149 0.51741 0.47109
 C301 C 0.78495 0.52370 0.55552
 C302 C 0.78381 0.54048 0.57154
 C303 C 0.76738 0.55076 0.57099
 C304 C 0.75216 0.54401 0.55398
 C305 C 0.75346 0.52746 0.53737
 C306 C 0.78494 0.46871 0.53321
 C307 C 0.78432 0.45195 0.54933
 C308 C 0.77032 0.44852 0.57121
 C309 C 0.75711 0.46232 0.57682
 C310 C 0.75764 0.47897 0.56049
 C311 C 0.75357 0.47169 0.47185
 C312 C 0.75223 0.45528 0.45478
 C313 C 0.76737 0.44917 0.43724
 C314 C 0.78376 0.45992 0.43671
 C315 C 0.78494 0.47655 0.45322
 C316 C 0.75774 0.52038 0.44891
 C317 C 0.75736 0.53696 0.43240
 C318 C 0.77074 0.55097 0.43775
 C319 C 0.78472 0.54783 0.45959
 C320 C 0.78518 0.53114 0.47589
 H321 H 0.79768 0.51589 0.55627
 H322 H 0.79569 0.54532 0.58465
 H323 H 0.73936 0.55169 0.55310
 H324 H 0.74169 0.52256 0.52405
 H325 H 0.79597 0.47111 0.51673
 H326 H 0.79484 0.44172 0.54470
 H327 H 0.74708 0.48920 0.56485
 H328 H 0.74184 0.47612 0.48548
 H329 H 0.73946 0.44722 0.45565
 H330 H 0.79558 0.45558 0.42321
 H331 H 0.79762 0.48475 0.45241
 H332 H 0.74707 0.50996 0.44471
 H333 H 0.74641 0.53889 0.41575
 H334 H 0.79535 0.55823 0.46403
 H335 H 0.79622 0.52895 0.49229
 H336 H 0.74615 0.46016 0.59351
 O337 O 0.23253 0.25816 0.21136
 O338 O 0.27709 0.25332 0.25154
 O339 O 0.25856 0.23322 0.21192
 O340 O 0.25110 0.27791 0.25105
 O341 O 0.23658 0.26336 0.28888
 O342 O 0.24427 0.21862 0.24995
 O343 O 0.26284 0.23867 0.28955
 O344 O 0.21829 0.24310 0.24895
 Cu345 Cu 0.25625 0.25709 0.22762
 Cu346 Cu 0.23907 0.23950 0.27320
 C347 C 0.21785 0.25141 0.22326
 C348 C 0.27754 0.24522 0.27741
 C349 C 0.25266 0.21832 0.22427
 C350 C 0.24256 0.27825 0.27659
 O351 O 0.72327 0.74620 0.25277
 O352 O 0.76874 0.73849 0.21674
 O353 O 0.74814 0.72043 0.25571
 O354 O 0.74421 0.76449 0.21365
 O355 O 0.75675 0.77949 0.25300
 O356 O 0.76262 0.73513 0.29352
 O357 O 0.78231 0.75442 0.25414
 O358 O 0.73699 0.76041 0.29183
 Cu359 Cu 0.74467 0.74094 0.23087
 Cu360 Cu 0.76105 0.75881 0.27704
 C361 C 0.72240 0.75446 0.27855
 C362 C 0.78322 0.74536 0.22908
 C363 C 0.75625 0.72025 0.28161
 C364 C 0.74975 0.77949 0.22623
 O365 O 0.77823 0.24666 0.24941
 O366 O 0.73336 0.24150 0.28914
 O367 O 0.75212 0.22130 0.25038
 O368 O 0.75949 0.26661 0.28808
 O369 O 0.74403 0.28018 0.25070
 O370 O 0.73987 0.23536 0.21030
 O371 O 0.71921 0.25371 0.24911
 O372 O 0.76453 0.26189 0.21191
 Cu373 Cu 0.75719 0.24258 0.27314
 Cu374 Cu 0.74048 0.25916 0.22660
 C375 C 0.77906 0.25540 0.22412
 C376 C 0.71863 0.24662 0.27581
 C377 C 0.74514 0.22069 0.22360
 C378 C 0.75270 0.28105 0.27607
 O379 O 0.25628 0.71799 0.24263
 O380 O 0.26201 0.76268 0.20244
 O381 O 0.28129 0.74391 0.24224
 O382 O 0.23672 0.73623 0.20257
 O383 O 0.22216 0.75020 0.24072
 O384 O 0.26681 0.75871 0.27962
 O385 O 0.24676 0.77667 0.23980
 O386 O 0.24169 0.73222 0.28050
 Cu387 Cu 0.26052 0.73883 0.21856
 Cu388 Cu 0.24294 0.75590 0.26400
 C389 C 0.24810 0.71755 0.26849
 C390 C 0.25522 0.77725 0.21421
 C391 C 0.28161 0.75253 0.26774
 C392 C 0.22184 0.74181 0.21502
 O393 O 0.75841 0.26296 0.71100
 O394 O 0.75193 0.21837 0.75119
 O395 O 0.73274 0.23694 0.71109
 O396 O 0.77739 0.24385 0.75074
 O397 O 0.76315 0.25863 0.78838
 O398 O 0.71843 0.25139 0.74901
 O399 O 0.73743 0.23277 0.78897
 O400 O 0.74386 0.27728 0.74878
 Cu401 Cu 0.75652 0.23912 0.72710
 Cu402 Cu 0.73928 0.25647 0.77259
 C403 C 0.75224 0.27771 0.72311
 C404 C 0.74367 0.21802 0.77700
 C405 C 0.71798 0.24292 0.72337
 C406 C 0.77786 0.25232 0.77636
 O407 O 0.27925 0.74729 0.74575
 O408 O 0.23463 0.74213 0.78631
 O409 O 0.25352 0.72175 0.74755
 O410 O 0.26065 0.76735 0.78439
 O411 O 0.24565 0.78071 0.74629
 O412 O 0.23968 0.73522 0.70837
 O413 O 0.22023 0.75466 0.74680
 O414 O 0.26507 0.76130 0.70744
 Cu415 Cu 0.25841 0.74323 0.76990
 Cu416 Cu 0.24123 0.75932 0.72332
 C417 C 0.27977 0.75531 0.71981
 C418 C 0.21984 0.74750 0.77342
 C419 C 0.24557 0.72074 0.72154
 C420 C 0.25427 0.78177 0.77171
 O421 O 0.25259 0.28059 0.75203
 O422 O 0.25900 0.23623 0.79228
 O423 O 0.27816 0.25559 0.75249
 O424 O 0.23325 0.26152 0.79153
 O425 O 0.21908 0.24757 0.75266
 O426 O 0.26426 0.23940 0.71576
 O427 O 0.24355 0.22163 0.75542
 O428 O 0.23976 0.26555 0.71299
 Cu429 Cu 0.25717 0.25994 0.77597
 Cu430 Cu 0.24024 0.24205 0.73037
 C431 C 0.24538 0.28056 0.72542
 C432 C 0.25210 0.22144 0.78091
 C433 C 0.27885 0.24640 0.72757
 C434 C 0.21850 0.25573 0.77855
 O435 O 0.73215 0.75968 0.71507
 O436 O 0.77654 0.75475 0.75563
 O437 O 0.75802 0.73459 0.71617
 O438 O 0.75057 0.77936 0.75504
 O439 O 0.73600 0.76488 0.79289
 O440 O 0.74323 0.72017 0.75387
 O441 O 0.76220 0.74003 0.79346
 O442 O 0.71766 0.74490 0.75270
 Cu443 Cu 0.75578 0.75853 0.73166
 Cu444 Cu 0.73836 0.74107 0.77714
 C445 C 0.71738 0.75309 0.72689
 C446 C 0.77695 0.74658 0.78142
 C447 C 0.75176 0.71978 0.72833
 C448 C 0.74200 0.77973 0.78055
 C449 C 0.26744 0.09926 0.11659
 N450 N 0.25555 0.08499 0.12261
 N451 N 0.25671 0.06908 0.10711
 C452 C 0.26986 0.06672 0.08503
 N453 N 0.28183 0.08104 0.07925
 N454 N 0.28061 0.09700 0.09464
 C455 C 0.26583 0.11694 0.13324
 N456 N 0.27598 0.13205 0.12458
 N457 N 0.27419 0.14817 0.13932
 C458 C 0.26226 0.14974 0.16334
 N459 N 0.25219 0.13461 0.17208
 N460 N 0.25391 0.11852 0.15725
 C461 C 0.26005 0.16755 0.17939
 N462 N 0.24955 0.16859 0.20524
 N463 N 0.24731 0.18475 0.21963
 C464 C 0.25542 0.20049 0.20862
 N465 N 0.26593 0.19946 0.18275
 N466 N 0.26824 0.18327 0.16843
 C467 C 0.76367 0.60105 0.61905
 N468 N 0.78024 0.59521 0.60810
 N469 N 0.78146 0.57916 0.59301
 C470 C 0.76611 0.56844 0.58802
 N471 N 0.74952 0.57436 0.59886
 N472 N 0.74834 0.59031 0.61424
 C473 C 0.76228 0.61869 0.63576
 N474 N 0.74714 0.62230 0.65325
 N475 N 0.74581 0.63832 0.66840
 C476 C 0.75947 0.65138 0.66635
 N477 N 0.77458 0.64782 0.64875
 N478 N 0.77601 0.63171 0.63386
 C479 C 0.75779 0.66910 0.68275
 N480 N 0.76846 0.68400 0.67481
 N481 N 0.76658 0.70018 0.68933
 C482 C 0.75412 0.70196 0.71254
 N483 N 0.74356 0.68703 0.72063
 N484 N 0.74530 0.67092 0.70589
 C485 C 0.74310 0.89774 0.11510
 N486 N 0.75138 0.89990 0.08727
 N487 N 0.75048 0.91602 0.07243
 C488 C 0.74110 0.93056 0.08462
 N489 N 0.73279 0.92826 0.11247
 N490 N 0.73387 0.91224 0.12748
 C491 C 0.74404 0.88003 0.13156
 N492 N 0.74047 0.87927 0.16218
 N493 N 0.74128 0.86322 0.17721
 C494 C 0.74545 0.84730 0.16208
 N495 N 0.74892 0.84804 0.13141
 N496 N 0.74832 0.86413 0.11644
 C497 C 0.74633 0.82965 0.17872
 N498 N 0.74536 0.81323 0.16336
 N499 N 0.74620 0.79722 0.17854
 C500 C 0.74825 0.79707 0.20957
 N501 N 0.74929 0.81349 0.22489
 N502 N 0.74823 0.82948 0.20976
 C503 C 0.23867 0.39830 0.61290
 N504 N 0.24383 0.39917 0.58291
 N505 N 0.24322 0.41517 0.56768
 C506 C 0.23729 0.43086 0.58179
 N507 N 0.23208 0.42993 0.61178
 N508 N 0.23284 0.41398 0.62709
 C509 C 0.23935 0.38069 0.62969
 N510 N 0.23821 0.38045 0.66085
 N511 N 0.23893 0.36448 0.67613
 C512 C 0.24063 0.34816 0.66078
 N513 N 0.24166 0.34838 0.62962
 N514 N 0.24112 0.36437 0.61435
 C515 C 0.24153 0.33058 0.67764
 N516 N 0.23929 0.31412 0.66274
 N517 N 0.24029 0.29817 0.67804
 C518 C 0.24373 0.29811 0.70872
 N519 N 0.24601 0.31457 0.72360
 N520 N 0.24484 0.33052 0.70836
 C521 C 0.89870 0.26827 0.11729
 N522 N 0.91246 0.25614 0.12326
 N523 N 0.92840 0.25704 0.10781
 C524 C 0.93134 0.27015 0.08580
 N525 N 0.91751 0.28236 0.08010
 N526 N 0.90151 0.28141 0.09544
 C527 C 0.88099 0.26696 0.13388
 N528 N 0.86636 0.27747 0.12541
 N529 N 0.85018 0.27595 0.14010
 C530 C 0.84807 0.26393 0.16388
 N531 N 0.86273 0.25350 0.17243
 N532 N 0.87887 0.25495 0.15766
 C533 C 0.83019 0.26201 0.17981
 N534 N 0.82860 0.25127 0.20530
 N535 N 0.81233 0.24929 0.21954
 C536 C 0.79703 0.25789 0.20872
 N537 N 0.79861 0.26862 0.18323
 N538 N 0.81490 0.27068 0.16906
 C539 C 0.39913 0.76814 0.61211
 N540 N 0.41367 0.75757 0.62070
 N541 N 0.42969 0.75854 0.60549
 C542 C 0.43185 0.77016 0.58117
 N543 N 0.41730 0.78080 0.57272
 N544 N 0.40123 0.77979 0.58785
 C545 C 0.38137 0.76673 0.62854
 N546 N 0.36625 0.77589 0.61830
 N547 N 0.35007 0.77431 0.63297
 C548 C 0.34845 0.76357 0.65847
 N549 N 0.36360 0.75448 0.66876
 N550 N 0.37975 0.75601 0.65404
 C551 C 0.33061 0.76162 0.67451
 N552 N 0.32939 0.75192 0.70115
 N553 N 0.31319 0.74998 0.71563
 C554 C 0.29761 0.75761 0.70393
 N555 N 0.29882 0.76731 0.67726
 N556 N 0.31503 0.76931 0.66284
 C557 C 0.10171 0.72560 0.11117
 N558 N 0.08681 0.73466 0.12255
 N559 N 0.07064 0.73409 0.10783
 C560 C 0.06867 0.72440 0.08118
 N561 N 0.08357 0.71519 0.06993
 N562 N 0.09979 0.71580 0.08462
 C563 C 0.11965 0.72696 0.12704
 N564 N 0.13512 0.71930 0.11479
 N565 N 0.15145 0.72115 0.12892
 C566 C 0.15286 0.73070 0.15581
 N567 N 0.13737 0.73825 0.16809
 N568 N 0.12108 0.73644 0.15395
 C569 C 0.17083 0.73321 0.17125
 N570 N 0.17187 0.74250 0.19840
 N571 N 0.18813 0.74514 0.21233
 C572 C 0.20397 0.73864 0.19961
 N573 N 0.20296 0.72933 0.17245
 N574 N 0.18667 0.72665 0.15852
 C575 C 0.59832 0.22761 0.61770
 N576 N 0.58346 0.23715 0.62807
 N577 N 0.56742 0.23646 0.61295
 C578 C 0.56556 0.22616 0.58689
 N579 N 0.58042 0.21649 0.57667
 N580 N 0.59651 0.21721 0.59176
 C581 C 0.61613 0.22901 0.63394
 N582 N 0.63154 0.22081 0.62251
 N583 N 0.64777 0.22262 0.63694
 C584 C 0.64916 0.23268 0.66332
 N585 N 0.63373 0.24079 0.67479
 N586 N 0.61753 0.23901 0.66035
 C587 C 0.66706 0.23506 0.67902
 N588 N 0.66814 0.24467 0.70586
 N589 N 0.68436 0.24711 0.72000
 C590 C 0.70012 0.24008 0.70778
 N591 N 0.69906 0.23045 0.68094
 N592 N 0.68281 0.22797 0.66681
 C593 C 0.73476 0.10097 0.89166
 N594 N 0.75007 0.09035 0.89419
 N595 N 0.74951 0.07458 0.91002
 C596 C 0.73357 0.06863 0.92377
 N597 N 0.71822 0.07930 0.92109
 N598 N 0.71882 0.09520 0.90550
 C599 C 0.73552 0.11831 0.87407
 N600 N 0.72206 0.13121 0.87711
 N601 N 0.72300 0.14704 0.86135
 C602 C 0.73732 0.15043 0.84176
 N603 N 0.75069 0.13747 0.83859
 N604 N 0.74985 0.12175 0.85456
 C605 C 0.73855 0.16788 0.82451
 N606 N 0.75040 0.16958 0.80038
 N607 N 0.75183 0.18548 0.78500
 C608 C 0.74159 0.20035 0.79337
 N609 N 0.72974 0.19868 0.81754
 N610 N 0.72818 0.18270 0.83274
 C611 C 0.23744 0.60015 0.38176
 N612 N 0.25270 0.58967 0.38631
 N613 N 0.25154 0.57395 0.40228
 C614 C 0.23505 0.56802 0.41402
 N615 N 0.21977 0.57847 0.40929
 N616 N 0.22096 0.59429 0.39360
 C617 C 0.23877 0.61754 0.36440
 N618 N 0.22513 0.63031 0.36628
 N619 N 0.22647 0.64620 0.35080
 C620 C 0.24140 0.64980 0.33262
 N621 N 0.25498 0.63697 0.33059
 N622 N 0.25374 0.62117 0.34633
 C623 C 0.24294 0.66732 0.31568
 N624 N 0.25522 0.66920 0.29217
 N625 N 0.25672 0.68515 0.27692
 C626 C 0.24614 0.69987 0.28484
 N627 N 0.23390 0.69801 0.30841
 N628 N 0.23226 0.68199 0.32345
 C629 C 0.26820 0.90171 0.87791
 N630 N 0.25628 0.91566 0.87198
 N631 N 0.25731 0.93153 0.88771
 C632 C 0.27035 0.93416 0.90994
 N633 N 0.28235 0.92017 0.91562
 N634 N 0.28128 0.90426 0.90000
 C635 C 0.26672 0.88403 0.86117
 N636 N 0.27704 0.86928 0.86966
 N637 N 0.27535 0.85311 0.85495
 C638 C 0.26333 0.85111 0.83112
 N639 N 0.25308 0.86588 0.82251
 N640 N 0.25471 0.88204 0.83732
 C641 C 0.26122 0.83317 0.81531
 N642 N 0.25049 0.83153 0.78978
 N643 N 0.24837 0.81518 0.77572
 C644 C 0.25683 0.79986 0.78680
 N645 N 0.26756 0.80150 0.81232
 N646 N 0.26974 0.81786 0.82628
 C647 C 0.76363 0.39946 0.38729
 N648 N 0.74825 0.40959 0.39297
 N649 N 0.74943 0.42536 0.40896
 C650 C 0.76606 0.43168 0.41958
 N651 N 0.78145 0.42158 0.41372
 N652 N 0.78024 0.40571 0.39801
 C653 C 0.76228 0.38199 0.37003
 N654 N 0.77622 0.36952 0.37108
 N655 N 0.77487 0.35352 0.35577
 C656 C 0.75963 0.34951 0.33859
 N657 N 0.74574 0.36204 0.33737
 N658 N 0.74700 0.37795 0.35295
 C659 C 0.75806 0.33183 0.32196
 N660 N 0.74533 0.32953 0.29924
 N661 N 0.74378 0.31340 0.28435
 C662 C 0.75476 0.29895 0.29188
 N663 N 0.76745 0.30123 0.31466
 N664 N 0.76914 0.31742 0.32932
 C665 C 0.09867 0.26930 0.88373
 N666 N 0.08387 0.25881 0.87476
 N667 N 0.06785 0.25968 0.88994
 C668 C 0.06596 0.27112 0.91461
 N669 N 0.08077 0.28169 0.92342
 N670 N 0.09683 0.28077 0.90832
 C671 C 0.11646 0.26795 0.86742
 N672 N 0.13179 0.27700 0.87807
 N673 N 0.14801 0.27541 0.86362
 C674 C 0.14945 0.26477 0.83793
 N675 N 0.13410 0.25580 0.82721
 N676 N 0.11791 0.25733 0.84172
 C677 C 0.16737 0.26273 0.82225
 N678 N 0.16853 0.25302 0.79554
 N679 N 0.18481 0.25090 0.78152
 C680 C 0.20054 0.25836 0.79376
 N681 N 0.19938 0.26808 0.82047
 N682 N 0.18309 0.27025 0.83444
 C683 C 0.60172 0.76862 0.38072
 N684 N 0.58696 0.75811 0.37165
 N685 N 0.57084 0.75910 0.38651
 C686 C 0.56881 0.77068 0.41096
 N687 N 0.58359 0.78127 0.41988
 N688 N 0.59974 0.78024 0.40509
 C689 C 0.61962 0.76714 0.36481
 N690 N 0.63488 0.77624 0.37562
 N691 N 0.65120 0.77453 0.36156
 C692 C 0.65284 0.76372 0.33611
 N693 N 0.63756 0.75469 0.32521
 N694 N 0.62126 0.75634 0.33934
 C695 C 0.67088 0.76157 0.32090
 N696 N 0.67229 0.75169 0.29438
 N697 N 0.68869 0.74951 0.28079
 C698 C 0.70430 0.75708 0.29328
 N699 N 0.70289 0.76697 0.31979
 N700 N 0.68648 0.76920 0.33332
 C701 C 0.89699 0.73608 0.88669
 N702 N 0.89958 0.72344 0.90931
 N703 N 0.91589 0.72228 0.92350
 C704 C 0.93024 0.73376 0.91572
 N705 N 0.92759 0.74641 0.89309
 N706 N 0.91131 0.74752 0.87881
 C707 C 0.87900 0.73744 0.87107
 N708 N 0.87699 0.74890 0.84662
 N709 N 0.86070 0.75020 0.83244
 C710 C 0.84578 0.74017 0.84226
 N711 N 0.84777 0.72873 0.86676
 N712 N 0.86410 0.72736 0.88087
 C713 C 0.82783 0.74172 0.82656
 N714 N 0.81239 0.73317 0.83789
 N715 N 0.79614 0.73471 0.82359
 C716 C 0.79477 0.74480 0.79738
 N717 N 0.81022 0.75331 0.78605
 N718 N 0.82643 0.75183 0.80040
 C719 C 0.39666 0.23523 0.38546
 N720 N 0.39888 0.22284 0.40856
 N721 N 0.41495 0.22184 0.42351
 C722 C 0.42942 0.23323 0.41604
 N723 N 0.42715 0.24563 0.39290
 N724 N 0.41111 0.24658 0.37786
 C725 C 0.37891 0.23646 0.36913
 N726 N 0.37720 0.24772 0.34436
 N727 N 0.36107 0.24894 0.32964
 C728 C 0.34604 0.23900 0.33923
 N729 N 0.34774 0.22774 0.36403
 N730 N 0.36389 0.22647 0.37868
 C731 C 0.32823 0.24049 0.32312
 N732 N 0.31272 0.23202 0.33434
 N733 N 0.29655 0.23352 0.31980
 C734 C 0.29533 0.24349 0.29346
 N735 N 0.31084 0.25191 0.28220
 N736 N 0.32699 0.25047 0.29680
 C737 C 0.72729 0.89960 0.88538
 N738 N 0.71619 0.90168 0.91036
 N739 N 0.71580 0.91779 0.92550
 C740 C 0.72656 0.93243 0.91637
 N741 N 0.73753 0.93024 0.89121
 N742 N 0.73787 0.91420 0.87602
 C743 C 0.72838 0.88176 0.86913
 N744 N 0.73886 0.88029 0.84331
 N745 N 0.74046 0.86406 0.82892
 C746 C 0.73172 0.84866 0.83988
 N747 N 0.72118 0.85011 0.86567
 N748 N 0.71952 0.86639 0.88003
 C749 C 0.73402 0.83073 0.82432
 N750 N 0.72663 0.81491 0.83634
 N751 N 0.72913 0.79863 0.82240
 C752 C 0.73907 0.79761 0.79591
 N753 N 0.74639 0.81344 0.78386
 N754 N 0.74393 0.82969 0.79784
 C755 C 0.22791 0.39820 0.38151
 N756 N 0.21752 0.39999 0.40740
 N757 N 0.21692 0.41616 0.42233
 C758 C 0.22671 0.43114 0.41202
 N759 N 0.23700 0.42930 0.38603
 N760 N 0.23757 0.41318 0.37105
 C761 C 0.22916 0.38031 0.36540
 N762 N 0.23911 0.37896 0.33900
 N763 N 0.24075 0.36271 0.32467
 C764 C 0.23254 0.34718 0.33623
 N765 N 0.22253 0.34852 0.36260
 N766 N 0.22085 0.36480 0.37692
 C767 C 0.23480 0.32924 0.32062
 N768 N 0.22766 0.31337 0.33289
 N769 N 0.23006 0.29710 0.31886
 C770 C 0.23968 0.29613 0.29204
 N771 N 0.24676 0.31199 0.27975
 N772 N 0.24439 0.32824 0.29380
 C773 C 0.26297 0.10323 0.89091
 N774 N 0.27972 0.09516 0.89457
 N775 N 0.28105 0.07889 0.90881
 C776 C 0.26574 0.07013 0.92033
 N777 N 0.24901 0.07838 0.91679
 N778 N 0.24764 0.09452 0.90220
 C779 C 0.26142 0.12099 0.87478
 N780 N 0.24507 0.12602 0.86204
 N781 N 0.24368 0.14203 0.84705
 C782 C 0.25853 0.15371 0.84463
 N783 N 0.27485 0.14875 0.85758
 N784 N 0.27631 0.13261 0.87222
 C785 C 0.25694 0.17132 0.82810
 N786 N 0.26900 0.18556 0.83365
 N787 N 0.26741 0.20160 0.81875
 C788 C 0.25387 0.20386 0.79747
 N789 N 0.24190 0.18958 0.79178
 N790 N 0.24334 0.17364 0.80697
 C791 C 0.76790 0.60152 0.39029
 N792 N 0.77961 0.59963 0.41446
 N793 N 0.78064 0.58355 0.42939
 C794 C 0.76994 0.56876 0.42081
 N795 N 0.75825 0.57071 0.39658
 N796 N 0.75727 0.58675 0.38159
 C797 C 0.76653 0.61927 0.37396
 N798 N 0.75573 0.62065 0.34856
 N799 N 0.75429 0.63675 0.33383
 C800 C 0.76355 0.65208 0.34402
 N801 N 0.77436 0.65071 0.36944
 N802 N 0.77585 0.63459 0.38412
 C803 C 0.76178 0.66983 0.32783
 N804 N 0.76976 0.68558 0.33920
 N805 N 0.76799 0.70167 0.32452
 C806 C 0.75822 0.70258 0.29791
 N807 N 0.75028 0.68683 0.28652
 N808 N 0.75199 0.67076 0.30124
 C809 C 0.10070 0.73969 0.88271
 N810 N 0.08606 0.73015 0.87068
 N811 N 0.06999 0.72917 0.88578
 C812 C 0.06781 0.73787 0.91333
 N813 N 0.08250 0.74754 0.92512
 N814 N 0.09864 0.74835 0.91022
 C815 C 0.11850 0.74053 0.86635
 N816 N 0.13435 0.74508 0.88155
 N817 N 0.15054 0.74574 0.86676
 C818 C 0.15142 0.74207 0.83617
 N819 N 0.13555 0.73761 0.82092
 N820 N 0.11939 0.73674 0.83579
 C821 C 0.16920 0.74310 0.81979
 N822 N 0.16968 0.74505 0.78877
 N823 N 0.18583 0.74640 0.77397
 C824 C 0.20208 0.74561 0.78963
 N825 N 0.20160 0.74350 0.82063
 N826 N 0.18545 0.74237 0.83546
 C827 C 0.59960 0.23885 0.38562
 N828 N 0.58389 0.23289 0.37133
 N829 N 0.56786 0.23197 0.38657
 C830 C 0.56690 0.23715 0.41659
 N831 N 0.58263 0.24322 0.43079
 N832 N 0.59868 0.24398 0.41564
 C833 C 0.61733 0.23964 0.36899
 N834 N 0.63355 0.24156 0.38455
 N835 N 0.64965 0.24220 0.36953
 C836 C 0.65011 0.24111 0.33837
 N837 N 0.63389 0.23927 0.32278
 N838 N 0.61779 0.23845 0.33783
 C839 C 0.66788 0.24210 0.32187
 N840 N 0.66840 0.24532 0.29113
 N841 N 0.68456 0.24666 0.27637
 C842 C 0.70078 0.24463 0.29176
 N843 N 0.70025 0.24126 0.32245
 N844 N 0.68410 0.24009 0.33725
 C845 C 0.89604 0.26376 0.88743
 N846 N 0.90629 0.24840 0.89252
 N847 N 0.92221 0.24960 0.90794
 C848 C 0.92859 0.26623 0.91857
 N849 N 0.91836 0.28160 0.91332
 N850 N 0.90233 0.28038 0.89819
 C851 C 0.87846 0.26237 0.87055
 N852 N 0.86587 0.27619 0.87217
 N853 N 0.84984 0.27481 0.85704
 C854 C 0.84595 0.25965 0.83947
 N855 N 0.85859 0.24590 0.83771
 N856 N 0.87452 0.24719 0.85311
 C857 C 0.82832 0.25805 0.82278
 N858 N 0.82630 0.24555 0.79958
 N859 N 0.81028 0.24391 0.78457
 C860 C 0.79562 0.25457 0.79242
 N861 N 0.79760 0.26704 0.81568
 N862 N 0.81371 0.26883 0.83048
 C863 C 0.39913 0.76427 0.38072
 N864 N 0.40935 0.74890 0.38582
 N865 N 0.42515 0.75002 0.40159
 C866 C 0.43144 0.76660 0.41257
 N867 N 0.42124 0.78200 0.40731
 N868 N 0.40533 0.78084 0.39182
 C869 C 0.38169 0.76295 0.36343
 N870 N 0.36905 0.77674 0.36494
 N871 N 0.35314 0.77539 0.34946
 C872 C 0.34940 0.76029 0.33165
 N873 N 0.36209 0.74657 0.33001
 N874 N 0.37790 0.74783 0.34573
 C875 C 0.33188 0.75868 0.31464
 N876 N 0.33005 0.74620 0.29137
 N877 N 0.31410 0.74447 0.27617
 C878 C 0.29933 0.75502 0.28387
 N879 N 0.30113 0.76748 0.30719
 N880 N 0.31716 0.76936 0.32219
 C881 C 0.26463 0.89642 0.10567
 N882 N 0.28121 0.90311 0.09552
 N883 N 0.28231 0.91944 0.08127
 C884 C 0.26685 0.92958 0.07634
 N885 N 0.25025 0.92280 0.08635
 N886 N 0.24918 0.90658 0.10089
 C887 C 0.26340 0.87856 0.12172
 N888 N 0.24817 0.87414 0.13870
 N889 N 0.24706 0.85801 0.15351
 C890 C 0.26104 0.84562 0.15160
 N891 N 0.27622 0.84997 0.13446
 N892 N 0.27743 0.86620 0.11992
 C893 C 0.25971 0.82785 0.16791
 N894 N 0.27087 0.81351 0.16024
 N895 N 0.26944 0.79734 0.17491
 C896 C 0.25694 0.79501 0.19800
 N897 N 0.24587 0.80938 0.20578
 N898 N 0.24716 0.82547 0.19090
 C899 C 0.76672 0.39756 0.61763
 N900 N 0.77851 0.39977 0.59352
 N901 N 0.77979 0.41598 0.57894
 C902 C 0.76929 0.43060 0.58784
 N903 N 0.75754 0.42832 0.61201
 N904 N 0.75630 0.41215 0.62665
 C905 C 0.76503 0.37965 0.63353
 N906 N 0.75410 0.37794 0.65882
 N907 N 0.75232 0.36170 0.67312
 C908 C 0.76135 0.34653 0.66260
 N909 N 0.77229 0.34822 0.63730
 N910 N 0.77412 0.36450 0.62304
 C911 C 0.75916 0.32861 0.67831
 N912 N 0.76691 0.31301 0.66665
 N913 N 0.76472 0.29677 0.68087
 C914 C 0.75474 0.29555 0.70731
 N915 N 0.74704 0.31116 0.71898
 N916 N 0.74918 0.32737 0.70472
 C917 C 0.73853 0.10115 0.11492
 N918 N 0.72732 0.08715 0.12495
 N919 N 0.72660 0.07102 0.10995
 C920 C 0.73726 0.06820 0.08463
 N921 N 0.74857 0.08217 0.07476
 N922 N 0.74910 0.09839 0.08952
 C923 C 0.73917 0.11899 0.13122
 N924 N 0.74512 0.13460 0.11665
 N925 N 0.74561 0.15083 0.13138
 C926 C 0.74040 0.15199 0.16132
 N927 N 0.73456 0.13636 0.17596
 N928 N 0.73383 0.12017 0.16110
 C929 C 0.74124 0.16983 0.17761
 N930 N 0.74229 0.17043 0.20877
 N931 N 0.74350 0.18665 0.22348
 C932 C 0.74341 0.20283 0.20757
 N933 N 0.74218 0.20222 0.17645
 N934 N 0.74123 0.18601 0.16172
 C935 C 0.23512 0.60071 0.61452
 N936 N 0.24638 0.58651 0.62224
 N937 N 0.24565 0.57052 0.60680
 C938 C 0.23357 0.56806 0.58313
 N939 N 0.22226 0.58227 0.57555
 N940 N 0.22304 0.59829 0.59089
 C941 C 0.23615 0.61845 0.63118
 N942 N 0.22635 0.63327 0.62139
 N943 N 0.22751 0.64946 0.63619
 C944 C 0.23845 0.65140 0.66141
 N945 N 0.24818 0.63656 0.67129
 N946 N 0.24708 0.62039 0.65641
 C947 C 0.23997 0.66934 0.67741
 N948 N 0.24970 0.67095 0.70402
 N949 N 0.25133 0.68729 0.71825
 C950 C 0.24335 0.70263 0.70633
 N951 N 0.23360 0.70103 0.67974
 N952 N 0.23191 0.68468 0.66558
 C953 C 0.90106 0.73418 0.11766
 N954 N 0.90654 0.71776 0.10550
 N955 N 0.92210 0.71677 0.08906
 C956 C 0.93265 0.73220 0.08386
 N957 N 0.92710 0.74862 0.09596
 N958 N 0.91165 0.74958 0.11266
 C959 C 0.88385 0.73533 0.13555
 N960 N 0.88042 0.75043 0.15330
 N961 N 0.86467 0.75160 0.16921
 C962 C 0.85172 0.73780 0.16768
 N963 N 0.85513 0.72272 0.14988
 N964 N 0.87096 0.72145 0.13423
 C965 C 0.83410 0.73939 0.18435
 N966 N 0.81939 0.72836 0.17681
 N967 N 0.80320 0.73020 0.19121
 C968 C 0.80120 0.74300 0.21390
 N969 N 0.81596 0.75391 0.22165
 N970 N 0.83210 0.75220 0.20702
 C971 C 0.39690 0.23545 0.61634
 N972 N 0.40264 0.21897 0.60478
 N973 N 0.41847 0.21793 0.58907
 C974 C 0.42906 0.23335 0.58405
 N975 N 0.42324 0.24984 0.59551
 N976 N 0.40751 0.25086 0.61148
 C977 C 0.37948 0.23665 0.63369
 N978 N 0.37588 0.25181 0.65120
 N979 N 0.36003 0.25298 0.66683
 C980 C 0.34714 0.23912 0.66528
 N981 N 0.35071 0.22398 0.64769
 N982 N 0.36665 0.22273 0.63230
 C983 C 0.32952 0.24065 0.68198
 N984 N 0.31483 0.22953 0.67466
 N985 N 0.29869 0.23129 0.68928
 C986 C 0.29673 0.24411 0.71196
 N987 N 0.31147 0.25512 0.71946
 N988 N 0.32754 0.25348 0.70463
 C989 C 0.09961 0.26232 0.11310
 N990 N 0.09373 0.27905 0.10299
 N991 N 0.07771 0.28045 0.08801
 C992 C 0.06706 0.26515 0.08227
 N993 N 0.07301 0.24841 0.09226
 N994 N 0.08894 0.24703 0.10754
 C995 C 0.11721 0.26078 0.12973
 N996 N 0.12090 0.24544 0.14659
 N997 N 0.13686 0.24406 0.16177
 C998 C 0.14980 0.25788 0.16035
 N999 N 0.14616 0.27318 0.14336
 N1000 N 0.13011 0.27465 0.12846
 C1001 C 0.16745 0.25627 0.17681
 N1002 N 0.18217 0.26731 0.16932
 N1003 N 0.19826 0.26571 0.18406
 C1004 C 0.20014 0.25317 0.20704
 N1005 N 0.18539 0.24222 0.21467
 N1006 N 0.16937 0.24367 0.19970
 C1007 C 0.60056 0.76325 0.61233
 N1008 N 0.59481 0.77990 0.60169
 N1009 N 0.57905 0.78116 0.58592
 C1010 C 0.56855 0.76579 0.57989
 N1011 N 0.57439 0.74912 0.59041
 N1012 N 0.59005 0.74789 0.60647
 C1013 C 0.61789 0.76187 0.62982
 N1014 N 0.62134 0.74665 0.64712
 N1015 N 0.63706 0.74543 0.66304
 C1016 C 0.64997 0.75929 0.66197
 N1017 N 0.64655 0.77447 0.64456
 N1018 N 0.63074 0.77578 0.62891
 C1019 C 0.66741 0.75782 0.67912
 N1020 N 0.68220 0.76882 0.67191
 N1021 N 0.69813 0.76730 0.68714
 C1022 C 0.69977 0.75488 0.71036
 N1023 N 0.68494 0.74398 0.71772
 N1024 N 0.66907 0.74535 0.70226
   
