data_POSCAR
  _audit_creation_date              2014-09-24
  _audit_creation_method            'ToBaCCo'
  _symmetry_space_group_name_H-M    'P1'
  _symmetry_Int_Tables_number       1
  _symmetry_cell_setting            triclinic
  loop_
  _symmetry_equiv_pos_as_xyz
 x,y,z
_cell_length_a 32.4597
_cell_length_b 32.4336
_cell_length_c 32.3824
_cell_angle_alpha 89.991000
_cell_angle_beta 90.415300
_cell_angle_gamma 89.518000
loop_
  _atom_site_label
  _atom_site_type_symbol
  _atom_site_fract_x
  _atom_site_fract_y
  _atom_site_fract_z
C1 C 0.19977 1.23956 0.17763
 C2 C 0.23265 1.21127 0.17950
 C3 C 0.23427 1.18199 0.21062
 C4 C 0.20289 1.18045 0.24010
 C5 C 0.17021 1.20808 0.23796
 C6 C 0.16867 1.23785 0.20659
 C7 C 0.18912 1.26989 0.14970
 N8 N 0.15233 1.28637 0.16100
 C9 C 0.13951 1.26699 0.19571
 C10 C 0.14272 1.19730 0.26817
 N11 N 0.15803 1.16387 0.28852
 C12 C 0.19484 1.15340 0.27174
 C13 C 0.26728 1.15638 0.20261
 N14 N 0.28543 1.16936 0.16739
 C15 C 0.26459 1.20285 0.15301
 H16 H 0.20635 1.27878 0.12265
 H17 H 0.11090 1.27316 0.21161
 H18 H 0.11330 1.21202 0.27403
 H19 H 0.21357 1.12713 0.28093
 H20 H 0.27598 1.12899 0.21978
 H21 H 0.27101 1.21854 0.12429
 C22 C 0.79330 0.76146 0.17975
 C23 C 0.76085 0.79010 0.18257
 C24 C 0.76139 0.81994 0.21315
 C25 C 0.79423 0.82131 0.24148
 C26 C 0.82639 0.79320 0.23851
 C27 C 0.82597 0.76315 0.20740
 C28 C 0.80248 0.73128 0.15130
 N29 N 0.83996 0.71497 0.16094
 C30 C 0.85459 0.73416 0.19520
 C31 C 0.85539 0.80375 0.26777
 N32 N 0.84144 0.83743 0.28844
 C33 C 0.80409 0.84840 0.27268
 C34 C 0.72880 0.84633 0.20558
 N35 N 0.70859 0.83314 0.17133
 C36 C 0.72780 0.79876 0.15704
 H37 H 0.78398 0.72276 0.12472
 H38 H 0.88424 0.72828 0.20963
 H39 H 0.88476 0.78851 0.27298
 H40 H 0.78604 0.87483 0.28246
 H41 H 0.72166 0.87441 0.22223
 H42 H 0.71995 0.78286 0.12871
 C43 C 0.78889 1.23872 -0.18052
 C44 C 0.76060 1.20639 -0.17834
 C45 C 0.76247 1.17435 -0.20651
 C46 C 0.79243 1.17445 -0.23750
 C47 C 0.82000 1.20670 -0.24003
 C48 C 0.81827 1.23901 -0.21129
 C49 C 0.79730 1.27106 -0.15439
 N50 N 0.83104 1.29087 -0.16858
 C51 C 0.84390 1.27176 -0.20353
 C52 C 0.84736 1.19718 -0.27095
 N53 N 0.83718 1.15992 -0.28691
 C54 C 0.80360 1.14577 -0.26676
 C55 C 0.73348 1.14586 -0.19508
 N56 N 0.71405 1.16008 -0.16092
 C57 C 0.73033 1.19700 -0.15041
 H58 H 0.78118 1.27835 -0.12614
 H59 H 0.87128 1.27968 -0.22061
 H60 H 0.87370 1.21521 -0.28012
 H61 H 0.78907 1.11631 -0.27206
 H62 H 0.72749 1.11667 -0.21005
 H63 H 0.72147 1.21507 -0.12376
 C64 C 0.21370 0.75657 -0.17813
 C65 C 0.24317 0.78792 -0.17717
 C66 C 0.24417 0.81689 -0.20853
 C67 C 0.21546 0.81514 -0.24101
 C68 C 0.18640 0.78414 -0.24205
 C69 C 0.18562 0.75456 -0.21046
 C70 C 0.20342 0.72648 -0.15016
 N71 N 0.16988 0.70632 -0.16481
 C72 C 0.15881 0.72313 -0.20167
 C73 C 0.15989 0.79267 -0.27441
 N74 N 0.17219 0.82808 -0.29275
 C75 C 0.20609 0.84205 -0.27260
 C76 C 0.27385 0.84519 -0.19814
 N77 N 0.29058 0.83416 -0.16125
 C78 C 0.27207 0.79925 -0.14808
 H79 H 0.21849 0.72065 -0.12079
 H80 H 0.13225 0.71416 -0.21989
 H81 H 0.13229 0.77579 -0.28227
 H82 H 0.22131 0.87092 -0.27901
 H83 H 0.28181 0.87257 -0.21537
 H84 H 0.27844 0.78383 -0.11907
 C85 C 0.53813 1.07653 -0.02112
 H86 H 0.51923 1.09187 0.00160
 C87 C 0.56699 1.09917 -0.04326
 H88 H 0.56952 1.13197 -0.03788
 C89 C 0.55927 1.01491 -0.05448
 H90 H 0.55654 0.98188 -0.05805
 C91 C 0.58812 1.03644 -0.07762
 H92 H 0.60745 1.02000 -0.09932
 N93 N 0.53473 1.03517 -0.02718
 C94 C 0.45998 1.03178 0.07844
 H95 H 0.47813 1.00851 0.09425
 C96 C 0.43167 1.05554 0.10062
 H97 H 0.42845 1.05078 0.13354
 C98 C 0.43989 1.06484 0.01609
 H99 H 0.44277 1.06761 -0.01706
 C100 C 0.41156 1.08951 0.03712
 H101 H 0.39269 1.11124 0.01993
 Zn102 Zn 0.49883 1.00299 0.00510
 N103 N 0.46366 1.03696 0.03693
 C104 C 0.55675 0.98942 0.06755
 N105 N 0.53271 0.96964 0.03941
 C106 C 0.53548 0.92809 0.03408
 C107 C 0.56314 0.90478 0.05793
 C108 C 0.58443 0.96725 0.09232
 C109 C 0.46194 0.97640 -0.07027
 C110 C 0.43406 0.95389 -0.09419
 C111 C 0.41177 0.91925 -0.03231
 C112 C 0.43960 0.94278 -0.00950
 N113 N 0.46428 0.97038 -0.02873
 H114 H 0.55467 1.02261 0.07038
 H115 H 0.51720 0.91311 0.01056
 H116 H 0.56572 0.87183 0.05299
 H117 H 0.60359 0.98362 0.11419
 H118 H 0.48089 0.99937 -0.08482
 H119 H 0.43235 0.95923 -0.12713
 H120 H 0.39235 0.89729 -0.01667
 H121 H 0.44146 0.93926 0.02369
 C122 C 0.40719 1.08479 0.07987
 C123 C 0.59244 1.07896 -0.07174
 C124 C 0.40853 0.92506 -0.07506
 C125 C 0.58790 0.92445 0.08743
 C126 C -0.01488 0.56472 1.04987
 H127 H 0.01835 0.56274 1.05220
 C128 C -0.03638 0.59376 1.07331
 H129 H -0.01971 0.61394 1.09404
 C130 C -0.07711 0.54145 1.01942
 H131 H -0.09281 0.52154 0.99784
 C132 C -0.09976 0.57047 1.04188
 H133 H -0.13284 0.57213 1.03784
 N134 N -0.03545 0.53887 1.02405
 C135 C 0.04815 0.43421 1.00721
 H136 H 0.04746 0.43208 0.97388
 C137 C 0.07001 0.40493 1.03036
 H138 H 0.08629 0.38020 1.01481
 C139 C 0.02655 0.46813 1.06827
 H140 H 0.00867 0.49204 1.08306
 C141 C 0.04842 0.43975 1.09258
 H142 H 0.04738 0.44240 1.12585
 Zn143 Zn -0.00372 0.50156 0.99213
 N144 N 0.02715 0.46515 1.02635
 C145 C 0.07312 0.52861 0.96009
 N146 N 0.03146 0.53368 0.95913
 C147 C 0.01333 0.56420 0.93647
 C148 C 0.03734 0.59154 0.91393
 C149 C 0.09828 0.55503 0.93756
 C150 C -0.06539 0.44375 0.97813
 C151 C -0.08917 0.41599 0.95555
 C152 C -0.05565 0.43885 0.89332
 C153 C -0.03290 0.46671 0.91704
 N154 N -0.03798 0.46842 0.95868
 H155 H 0.08697 0.50470 0.97894
 H156 H -0.01983 0.56783 0.93674
 H157 H 0.02263 0.61630 0.89673
 H158 H 0.13138 0.55110 0.93915
 H159 H -0.06824 0.44524 1.01137
 H160 H -0.11064 0.39623 0.97142
 H161 H -0.05076 0.43728 0.86035
 H162 H -0.01036 0.48602 0.90232
 C163 C 0.07040 0.40773 1.07351
 C164 C -0.07926 0.59696 1.06917
 C165 C -0.08382 0.41286 0.91278
 C166 C 0.08029 0.58711 0.91448
 C167 C 1.06540 -0.01589 0.56121
 H168 H 1.06821 0.01727 0.55934
 C169 C 1.09024 -0.03823 0.58867
 H170 H 1.11212 -0.02199 0.60789
 C171 C 1.03218 -0.07702 0.53933
 H172 H 1.00884 -0.09186 0.52077
 C173 C 1.05615 -0.10051 0.56674
 H174 H 1.05147 -0.13346 0.56888
 N175 N 1.03739 -0.03549 0.53693
 C176 C 1.01608 0.05916 0.44359
 H177 H 0.98311 0.06314 0.44657
 C178 C 1.03760 0.08257 0.41491
 H179 H 1.02121 0.10489 0.39595
 C180 C 1.07750 0.02433 0.46379
 H181 H 1.09274 0.00089 0.48219
 C182 C 1.10014 0.04675 0.43506
 H183 H 1.13283 0.04084 0.43210
 Zn184 Zn 1.00375 -0.00181 0.50270
 N185 N 1.03623 0.03094 0.46753
 C186 C 0.97799 0.07281 0.54143
 N187 N 0.97159 0.03151 0.53822
 C188 C 0.94375 0.01213 0.56250
 C189 C 0.92036 0.03454 0.59081
 C190 C 0.95558 0.09632 0.56977
 C191 C 0.98919 -0.06181 0.44290
 C192 C 0.96664 -0.08451 0.41412
 C193 C 0.90496 -0.04875 0.43600
 C194 C 0.92862 -0.02705 0.46479
 N195 N 0.96996 -0.03397 0.46773
 H196 H 1.00112 0.08745 0.52277
 H197 H 0.93989 -0.02087 0.55991
 H198 H 0.89820 0.01880 0.60991
 H199 H 0.96122 0.12906 0.57216
 H200 H 1.02223 -0.06599 0.44520
 H201 H 0.98231 -0.10652 0.39444
 H202 H 0.87223 -0.04258 0.43370
 H203 H 0.91411 -0.00387 0.48385
 C204 C 1.07999 0.07606 0.41013
 C205 C 1.08562 -0.08104 0.59164
 C206 C 0.92415 -0.07764 0.41015
 C207 C 0.92649 0.07704 0.59488
 C208 C 0.10192 0.37675 1.14542
 C209 C 0.08720 0.33152 1.14892
 C210 C 0.13130 0.31710 1.13983
 C211 C 0.14655 0.36151 1.13698
 C212 C 0.12259 0.31543 1.09333
 C213 C 0.07808 0.33073 1.10182
 C214 C 0.09288 0.37561 1.09861
 C215 C 0.13721 0.36070 1.08995
 H216 H 0.09376 0.40196 1.16711
 H217 H 0.06650 0.31942 1.17310
 H218 H 0.17500 0.37340 1.15182
 H219 H 0.13139 0.28972 1.07247
 H220 H 0.04972 0.31848 1.08711
 H221 H 0.15752 0.37306 1.06554
 C222 C -0.08920 0.67431 1.09640
 C223 C -0.13486 0.68778 1.09116
 C224 C -0.13961 0.68526 1.13810
 C225 C -0.09433 0.67265 1.14394
 C226 C -0.15323 0.64028 1.13572
 C227 C -0.14789 0.64197 1.08818
 C228 C -0.10238 0.62884 1.09363
 C229 C -0.10741 0.62688 1.14085
 H230 H -0.06276 0.68801 1.07990
 H231 H -0.14639 0.71335 1.07130
 H232 H -0.07222 0.68536 1.16682
 H233 H -0.17978 0.62701 1.15238
 H234 H -0.17015 0.62965 1.06524
 H235 H -0.09597 0.60146 1.16093
 C236 C -0.10826 0.33525 0.90340
 C237 C -0.15552 0.33535 0.89633
 C238 C -0.14804 0.32202 0.85158
 C239 C -0.10128 0.32110 0.85831
 C240 C -0.14704 0.36677 0.83670
 C241 C -0.15387 0.38094 0.88204
 C242 C -0.10688 0.38053 0.88904
 C243 C -0.09972 0.36671 0.84405
 H244 H -0.09202 0.32253 0.93093
 H245 H -0.17837 0.32240 0.91799
 H246 H -0.08013 0.29598 0.84838
 H247 H -0.16344 0.37899 0.80905
 H248 H -0.17515 0.40594 0.89196
 H249 H -0.07675 0.37936 0.82235
 C250 C 0.15304 0.61604 0.88464
 C251 C 0.14532 0.63138 0.83976
 C252 C 0.14847 0.67576 0.85542
 C253 C 0.15688 0.66125 0.89975
 C254 C 0.10200 0.67834 0.86296
 C255 C 0.09830 0.63313 0.84792
 C256 C 0.10626 0.61816 0.89248
 C257 C 0.10983 0.66300 0.90766
 H258 H 0.17420 0.59037 0.89329
 H259 H 0.16032 0.61914 0.81156
 H260 H 0.18091 0.67288 0.92122
 H261 H 0.08157 0.70443 0.85379
 H262 H 0.07404 0.62121 0.82685
 H263 H 0.09497 0.67563 0.93577
 C264 C 1.14742 0.09273 0.36323
 C265 C 1.13244 0.09542 0.31771
 C266 C 1.13848 0.14216 0.31934
 C267 C 1.15405 0.14005 0.36400
 C268 C 1.09395 0.14939 0.33320
 C269 C 1.08756 0.10209 0.33242
 C270 C 1.10267 0.09959 0.37759
 C271 C 1.10899 0.14660 0.37868
 H272 H 1.16965 0.06943 0.37532
 H273 H 1.14231 0.07493 0.29210
 H274 H 1.18160 0.15614 0.37625
 H275 H 1.07183 0.17263 0.32081
 H276 H 1.06011 0.08616 0.31972
 H277 H 1.09920 0.16730 0.40414
 C278 C 1.13370 -0.14614 0.61292
 C279 C 1.17058 -0.13080 0.63939
 C280 C 1.15062 -0.15004 0.67739
 C281 C 1.11437 -0.16620 0.65169
 C282 C 1.12755 -0.10998 0.68737
 C283 C 1.14691 -0.09013 0.64866
 C284 C 1.11031 -0.10573 0.62249
 C285 C 1.09082 -0.12547 0.66088
 H286 H 1.13602 -0.16063 0.58196
 H287 H 1.20363 -0.13355 0.63117
 H288 H 1.10122 -0.19764 0.65302
 H289 H 1.12542 -0.09573 0.71846
 H290 H 1.16083 -0.05903 0.64770
 H291 H 1.05784 -0.12291 0.66942
 C292 C 0.85519 -0.09281 0.36404
 C293 C 0.86870 -0.09483 0.31823
 C294 C 0.86225 -0.14153 0.31918
 C295 C 0.84813 -0.14006 0.36413
 C296 C 0.90713 -0.14944 0.33214
 C297 C 0.91397 -0.10219 0.33206
 C298 C 0.90031 -0.10036 0.37753
 C299 C 0.89356 -0.14731 0.37791
 H300 H 0.83357 -0.06953 0.37689
 H301 H 0.85824 -0.07381 0.29315
 H302 H 0.82081 -0.15609 0.37657
 H303 H 0.92861 -0.17266 0.31896
 H304 H 0.94118 -0.08631 0.31918
 H305 H 0.90394 -0.16855 0.40285
 C306 C 0.85560 0.10785 0.62446
 C307 C 0.85228 0.09418 0.67020
 C308 C 0.85926 0.13904 0.68319
 C309 C 0.86188 0.15326 0.63824
 C310 C 0.90596 0.13236 0.68587
 C311 C 0.89956 0.08711 0.67204
 C312 C 0.90257 0.10086 0.62660
 C313 C 0.90916 0.14597 0.64009
 H314 H 0.83524 0.09761 0.59883
 H315 H 0.82895 0.07277 0.68262
 H316 H 0.84591 0.18070 0.62506
 H317 H 0.92610 0.14268 0.71164
 H318 H 0.91538 0.05978 0.68566
 H319 H 0.93254 0.16753 0.62801
 C320 C 0.38282 1.13200 0.14398
 C321 C 0.35623 1.16859 0.12762
 C322 C 0.31806 1.14773 0.14525
 C323 C 0.34387 1.11172 0.16232
 C324 C 0.31001 1.12493 0.10466
 C325 C 0.34889 1.14522 0.08646
 C326 C 0.37514 1.10889 0.10310
 C327 C 0.33656 1.08848 0.12116
 H328 H 0.41312 1.13473 0.15982
 H329 H 0.36364 1.20179 0.13081
 H330 H 0.34162 1.09821 0.19370
 H331 H 0.27955 1.12241 0.08910
 H332 H 0.35071 1.15946 0.05539
 H333 H 0.32877 1.05535 0.11817
 C334 C 0.62320 1.10872 -0.14235
 C335 C 0.63740 1.15384 -0.13565
 C336 C 0.68215 1.13879 -0.13792
 C337 C 0.66870 1.09419 -0.14524
 C338 C 0.68419 1.13219 -0.09112
 C339 C 0.63866 1.14671 -0.08832
 C340 C 0.62474 1.10187 -0.09529
 C341 C 0.66995 1.08721 -0.09789
 H342 H 0.59773 1.09893 -0.16310
 H343 H 0.62475 1.18149 -0.15166
 H344 H 0.68130 1.07269 -0.16872
 H345 H 0.70981 1.14211 -0.07064
 H346 H 0.62665 1.16862 -0.06492
 H347 H 0.68306 1.05967 -0.08204
 C348 C 0.33190 0.89729 -0.08625
 C349 C 0.31832 0.90421 -0.13170
 C350 C 0.32160 0.85761 -0.13872
 C351 C 0.33442 0.85013 -0.09368
 C352 C 0.36652 0.86106 -0.15226
 C353 C 0.36400 0.90821 -0.14467
 C354 C 0.37727 0.90108 -0.09938
 C355 C 0.38007 0.85421 -0.10666
 H356 H 0.31791 0.91251 -0.05897
 H357 H 0.29240 0.92420 -0.14228
 H358 H 0.32202 0.82618 -0.07281
 H359 H 0.38004 0.84566 -0.17967
 H360 H 0.37585 0.93211 -0.16593
 H361 H 0.40584 0.83397 -0.09620
 C362 C 0.65823 0.88173 0.09093
 C363 C 0.68447 0.89700 0.12796
 C364 C 0.67612 0.85617 0.14993
 C365 C 0.65061 0.84031 0.11333
 C366 C 0.63779 0.87404 0.17085
 C367 C 0.64545 0.91545 0.14832
 C368 C 0.61950 0.90005 0.11141
 C369 C 0.61150 0.85891 0.13368
 H370 H 0.66634 0.88524 0.05788
 H371 H 0.71499 0.91203 0.12599
 H372 H 0.65295 0.80920 0.09923
 H373 H 0.63007 0.87032 0.20397
 H374 H 0.64355 0.94622 0.16320
 H375 H 0.58114 0.84360 0.13585
   
