data_POSCAR
  _audit_creation_date              2014-09-24
  _audit_creation_method            'ToBaCCo'
  _symmetry_space_group_name_H-M    'P1'
  _symmetry_Int_Tables_number       1
  _symmetry_cell_setting            triclinic
  loop_
  _symmetry_equiv_pos_as_xyz
 x,y,z
_cell_length_a 20.0698
_cell_length_b 20.0699
_cell_length_c 52.0034
_cell_angle_alpha 89.821900
_cell_angle_beta 90.176000
_cell_angle_gamma 119.880200
loop_
  _atom_site_label
  _atom_site_type_symbol
  _atom_site_fract_x
  _atom_site_fract_y
  _atom_site_fract_z
C1 C 0.00175 0.00024 0.50005
 C2 C 1.00036 0.00170 0.16651
 C3 C -0.00131 0.99857 0.83328
 O4 O 0.46353 0.06116 0.02427
 O5 O 0.59370 0.06048 -0.02579
 O6 O 0.46727 0.06758 -0.02573
 O7 O 0.59686 0.06803 0.02417
 O8 O 0.53429 -0.05905 0.02455
 O9 O 0.40305 -0.05950 -0.02562
 O10 O 0.52947 -0.06660 -0.02542
 O11 O 0.40096 -0.06593 0.02437
 Cu12 Cu 0.53668 0.07702 -0.00080
 Cu13 Cu 0.46061 -0.07548 -0.00051
 C14 C 0.40999 -0.00273 0.03268
 C15 C 0.58344 -0.00363 -0.03394
 C16 C 0.41314 0.00441 -0.03404
 C17 C 0.58802 0.00502 0.03273
 O18 O 0.06116 0.46338 0.64228
 O19 O 0.06050 0.59354 0.69235
 O20 O 0.06760 0.46711 0.69229
 O21 O 0.06803 0.59671 0.64239
 O22 O -0.05905 0.53414 0.64202
 O23 O -0.05948 0.40289 0.69219
 O24 O -0.06658 0.52931 0.69199
 O25 O -0.06592 0.40081 0.64219
 Cu26 Cu 0.07703 0.53652 0.66736
 Cu27 Cu -0.07547 0.46045 0.66708
 C28 C -0.00273 0.40984 0.63388
 C29 C -0.00361 0.58327 0.70051
 C30 C 0.00443 0.41298 0.70060
 C31 C 0.00502 0.58787 0.63383
 O32 O 0.40582 0.46569 0.35832
 O33 O 0.53615 0.59641 0.30820
 O34 O 0.40298 0.47018 0.30834
 O35 O 0.53205 0.59886 0.35818
 O36 O 0.59653 0.53603 0.35836
 O37 O 0.46581 0.40570 0.30824
 O38 O 0.59898 0.53193 0.30838
 O39 O 0.47030 0.40286 0.35823
 Cu40 Cu 0.46288 0.53915 0.33326
 Cu41 Cu 0.53927 0.46276 0.33331
 C42 C 0.41620 0.41190 0.36663
 C43 C 0.58988 0.58610 0.29994
 C44 C 0.41202 0.41608 0.29993
 C45 C 0.58622 0.58976 0.36662
 C46 C 0.05321 0.23772 0.57581
 C47 C -0.00499 0.15057 0.57733
 C48 C -0.02023 0.15045 0.54836
 C49 C 0.03801 0.23689 0.54659
 C50 C -0.01254 0.25419 0.58088
 C51 C -0.02779 0.25420 0.55190
 C52 C -0.07081 0.16777 0.58266
 C53 C -0.08610 0.16678 0.55337
 C54 C -0.02019 0.09397 0.53062
 C55 C -0.01420 0.04977 0.51648
 C56 C -0.00754 0.31146 0.59936
 C57 C -0.00422 0.35737 0.61493
 H58 H 0.11054 0.26746 0.58520
 H59 H 0.00417 0.10721 0.58761
 H60 H 0.08268 0.26467 0.53152
 H61 H -0.03691 0.29761 0.54165
 H62 H -0.11545 0.13999 0.59774
 H63 H -0.14338 0.13693 0.54396
 C64 C 0.76271 0.81478 0.24215
 C65 C 0.84982 0.84322 0.24372
 C66 C 0.85010 0.82896 0.21471
 C67 C 0.76371 0.80127 0.21291
 C68 C 0.74605 0.73242 0.24709
 C69 C 0.74620 0.71801 0.21809
 C70 C 0.83243 0.76006 0.24891
 C71 C 0.83359 0.74662 0.21960
 C72 C 0.90671 0.88574 0.19705
 C73 C 0.95093 0.93610 0.18294
 C74 C 0.68858 0.67990 0.26549
 C75 C 0.64252 0.63717 0.28101
 H76 H 0.73299 0.84228 0.25158
 H77 H 0.89317 0.89524 0.25407
 H78 H 0.73609 0.81878 0.19787
 H79 H 0.70281 0.66599 0.20775
 H80 H 0.86004 0.74257 0.26396
 H81 H 0.86343 0.71928 0.21014
 C82 C 0.27975 0.02761 -0.11600
 C83 C 0.19635 -0.03791 -0.12084
 C84 C 0.16880 0.02102 -0.11933
 C85 C 0.25129 0.08662 -0.11480
 C86 C 0.26601 0.01398 -0.08693
 C87 C 0.23852 0.07296 -0.08541
 C88 C 0.18350 -0.05149 -0.09152
 C89 C 0.15520 0.00740 -0.09026
 C90 C 0.11161 0.02046 -0.13701
 C91 C 0.06087 0.01384 -0.15112
 C92 C 0.31886 0.00920 -0.06851
 C93 C 0.36183 0.00595 -0.05298
 H94 H 0.33151 0.03566 -0.12638
 H95 H 0.17843 -0.08343 -0.13565
 H96 H 0.27845 0.14340 -0.12455
 H97 H 0.25641 0.11844 -0.07059
 H98 H 0.15616 -0.10833 -0.08181
 H99 H 0.10344 -0.00070 -0.07986
 C100 C -0.05007 0.76112 0.57555
 C101 C 0.00793 0.84827 0.57726
 C102 C 0.02371 0.84917 0.54833
 C103 C -0.03432 0.76274 0.54638
 C104 C 0.01572 0.74473 0.58082
 C105 C 0.03152 0.74550 0.55190
 C106 C 0.07380 0.83114 0.58280
 C107 C 0.08964 0.83293 0.55355
 C108 C 0.02377 0.90602 0.53062
 C109 C 0.01778 0.95048 0.51648
 C110 C 0.01049 0.68704 0.59929
 C111 C 0.00690 0.64078 0.61486
 H112 H -0.10757 0.73102 0.58475
 H113 H -0.00156 0.89127 0.58751
 H114 H -0.07870 0.73526 0.53116
 H115 H 0.04096 0.70244 0.54167
 H116 H 0.11814 0.85862 0.59802
 H117 H 0.14708 0.86314 0.54432
 C118 C 0.16904 0.24233 0.24893
 C119 C 0.16746 0.25618 0.21962
 C120 C 0.15113 0.17400 0.21469
 C121 C 0.15183 0.15932 0.24368
 C122 C 0.25545 0.27023 0.24707
 C123 C 0.23897 0.18802 0.24208
 C124 C 0.25488 0.28505 0.21808
 C125 C 0.23755 0.20196 0.21285
 C126 C 0.09436 0.11739 0.19702
 C127 C 0.05000 0.06716 0.18292
 C128 C 0.31306 0.32258 0.26548
 C129 C 0.35924 0.36517 0.28101
 H130 H 0.14152 0.25946 0.26401
 H131 H 0.13737 0.28352 0.21021
 H132 H 0.10871 0.10708 0.25402
 H133 H 0.26895 0.16052 0.25146
 H134 H 0.29804 0.33730 0.20776
 H135 H 0.26507 0.18479 0.19777
 C136 C 0.71529 -0.02884 -0.11562
 C137 C 0.79880 0.03625 -0.12057
 C138 C 0.82587 -0.02305 -0.11877
 C139 C 0.74327 -0.08822 -0.11412
 C140 C 0.72943 -0.01473 -0.08659
 C141 C 0.75645 -0.07407 -0.08476
 C142 C 0.81205 0.05031 -0.09129
 C143 C 0.83987 -0.00896 -0.08973
 C144 C 0.88263 -0.02327 -0.13633
 C145 C 0.93302 -0.01736 -0.15036
 C146 C 0.67700 -0.00932 -0.06828
 C147 C 0.63437 -0.00562 -0.05281
 H148 H 0.66353 -0.03675 -0.12607
 H149 H 0.81679 0.08153 -0.13554
 H150 H 0.71568 -0.14518 -0.12368
 H151 H 0.73849 -0.11932 -0.06979
 H152 H 0.83981 0.10733 -0.08176
 H153 H 0.89163 -0.00100 -0.07926
 C154 C 0.25443 -0.02764 0.11466
 C155 C 0.23699 0.03809 0.11993
 C156 C 0.15058 -0.02025 0.11820
 C157 C 0.16702 -0.08606 0.11323
 C158 C 0.25433 -0.01254 0.08568
 C159 C 0.16793 -0.07092 0.08393
 C160 C 0.23774 0.05314 0.09070
 C161 C 0.15061 -0.00516 0.08921
 C162 C 0.09409 -0.02022 0.13593
 C163 C 0.04989 -0.01424 0.15008
 C164 C 0.31161 -0.00753 0.06720
 C165 C 0.35752 -0.00421 0.05163
 H166 H 0.29791 -0.03663 0.12492
 H167 H 0.26475 0.08284 0.13498
 H168 H 0.13726 -0.14329 0.12267
 H169 H 0.14017 -0.11563 0.06887
 H170 H 0.26739 0.11044 0.08129
 H171 H 0.10718 0.00387 0.07893
 C172 C 0.75952 0.83220 0.41780
 C173 C 0.74643 0.83290 0.44716
 C174 C 0.82904 0.84999 0.45184
 C175 C 0.84296 0.85017 0.42280
 C176 C 0.73252 0.74593 0.41947
 C177 C 0.81516 0.76317 0.42420
 C178 C 0.71847 0.74563 0.44851
 C179 C 0.80200 0.76371 0.45349
 C180 C 0.88582 0.90660 0.46951
 C181 C 0.93616 0.95081 0.48362
 C182 C 0.68001 0.68846 0.40107
 C183 C 0.63729 0.64240 0.38555
 H184 H 0.74150 0.85971 0.40288
 H185 H 0.71886 0.86226 0.45678
 H186 H 0.89468 0.89390 0.41241
 H187 H 0.84290 0.73392 0.41461
 H188 H 0.66674 0.70185 0.45888
 H189 H 0.82004 0.73619 0.46840
 C190 C 0.02822 0.27984 0.78253
 C191 C -0.03749 0.19662 0.78750
 C192 C 0.02111 0.16866 0.78589
 C193 C 0.08689 0.25096 0.78121
 C194 C 0.01403 0.26585 0.75349
 C195 C 0.07267 0.23795 0.75185
 C196 C -0.05163 0.18352 0.75822
 C197 C 0.00693 0.15481 0.75684
 C198 C 0.02056 0.11148 0.80356
 C199 C 0.01395 0.06074 0.81768
 C200 C 0.00924 0.31870 0.73507
 C201 C 0.00597 0.36166 0.71953
 H202 H 0.03672 0.33179 0.79289
 H203 H -0.08272 0.17904 0.80241
 H204 H 0.14384 0.27799 0.79084
 H205 H 0.11786 0.25549 0.73694
 H206 H -0.10864 0.15632 0.74861
 H207 H -0.00162 0.10286 0.74646
 C208 C 0.74499 0.03038 0.11474
 C209 C 0.76301 -0.03507 0.11997
 C210 C 0.84930 0.02369 0.11823
 C211 C 0.83228 0.08923 0.11330
 C212 C 0.74486 0.01572 0.08575
 C213 C 0.83113 0.07452 0.08399
 C214 C 0.76204 -0.04968 0.09073
 C215 C 0.84904 0.00905 0.08924
 C216 C 0.90614 0.02374 0.13595
 C217 C 0.95059 0.01774 0.15008
 C218 C 0.68718 0.01049 0.06728
 C219 C 0.64093 0.00690 0.05171
 H220 H 0.70142 0.03889 0.12502
 H221 H 0.73565 -0.08006 0.13501
 H222 H 0.86185 0.14634 0.12276
 H223 H 0.85849 0.11948 0.06894
 H224 H 0.73257 -0.10686 0.08131
 H225 H 0.89256 0.00049 0.07894
 C226 C 0.24297 0.16901 0.41778
 C227 C 0.25651 0.16782 0.44712
 C228 C 0.17409 0.15101 0.45188
 C229 C 0.15972 0.15133 0.42285
 C230 C 0.27034 0.25533 0.41950
 C231 C 0.18789 0.23838 0.42431
 C232 C 0.28484 0.25514 0.44852
 C233 C 0.20151 0.23734 0.45358
 C234 C 0.11746 0.09425 0.46955
 C235 C 0.06723 0.04988 0.48364
 C236 C 0.32269 0.31294 0.40109
 C237 C 0.36528 0.35912 0.38556
 H238 H 0.26055 0.14157 0.40281
 H239 H 0.28403 0.13811 0.45667
 H240 H 0.10774 0.10790 0.41248
 H241 H 0.16021 0.26797 0.41479
 H242 H 0.33683 0.29862 0.45887
 H243 H 0.18390 0.26480 0.46855
 C244 C -0.07386 0.75648 0.75129
 C245 C -0.08824 0.74320 0.78063
 C246 C -0.02297 0.82572 0.78534
 C247 C -0.00866 0.83982 0.75631
 C248 C -0.01468 0.72927 0.75315
 C249 C 0.05045 0.81181 0.75791
 C250 C -0.02901 0.71503 0.78218
 C251 C 0.03617 0.79846 0.78718
 C252 C -0.02317 0.88249 0.80290
 C253 C -0.01726 0.93289 0.81693
 C254 C -0.00929 0.67683 0.73484
 C255 C -0.00559 0.63420 0.71938
 H256 H -0.11900 0.73867 0.73628
 H257 H -0.14526 0.71569 0.79015
 H258 H -0.00050 0.89166 0.74585
 H259 H 0.10754 0.83949 0.74842
 H260 H -0.03712 0.66318 0.79262
 H261 H 0.08134 0.81630 0.80219
   
