data_POSCAR
  _audit_creation_date              2014-09-24
  _audit_creation_method            'ToBaCCo'
  _symmetry_space_group_name_H-M    'P1'
  _symmetry_Int_Tables_number       1
  _symmetry_cell_setting            triclinic
  loop_
  _symmetry_equiv_pos_as_xyz
 x,y,z
_cell_length_a 42.0078
_cell_length_b 43.1538
_cell_length_c 43.2512
_cell_angle_alpha 85.489100
_cell_angle_beta 91.245400
_cell_angle_gamma 89.007000
loop_
  _atom_site_label
  _atom_site_type_symbol
  _atom_site_fract_x
  _atom_site_fract_y
  _atom_site_fract_z
C1 C 0.22948 0.50478 1.03465
 H2 H 0.22498 0.52009 1.01392
 C3 C 0.20887 0.50529 1.05944
 H4 H 0.18837 0.52073 1.05626
 C5 C 0.26033 0.46427 1.06107
 H6 H 0.28015 0.44797 1.06144
 C7 C 0.24071 0.46435 1.08672
 H8 H 0.24728 0.44877 1.10669
 N9 N 0.25436 0.48428 1.03571
 C10 C 0.31632 0.52604 0.96534
 H11 H 0.31208 0.51138 0.94656
 C12 C 0.33741 0.55063 0.96149
 H13 H 0.34814 0.55521 0.93913
 C14 C 0.30733 0.53729 1.01716
 H15 H 0.29626 0.53135 1.03911
 C16 C 0.32914 0.56136 1.01470
 H17 H 0.33451 0.57336 1.03515
 Zn18 Zn 0.27796 0.48323 0.99915
 N19 N 0.30168 0.51994 0.99280
 C20 C 0.24116 0.50327 0.94493
 N21 N 0.24773 0.47922 0.96651
 C22 C 0.23032 0.45292 0.96751
 C23 C 0.20590 0.44960 0.94570
 C24 C 0.21647 0.50121 0.92305
 C25 C 0.33197 0.45252 1.02439
 C26 C 0.35521 0.42914 1.02963
 C27 C 0.32876 0.40035 0.99121
 C28 C 0.30626 0.42458 0.98635
 N29 N 0.30789 0.44975 1.00334
 H30 H 0.25408 0.52464 0.94542
 H31 H 0.23510 0.43461 0.98565
 H32 H 0.19294 0.42811 0.94672
 H33 H 0.21099 0.52115 0.90693
 H34 H 0.33305 0.47301 1.03722
 H35 H 0.37438 0.43225 1.04616
 H36 H 0.32641 0.38015 0.97808
 H37 H 0.28755 0.42308 0.96908
 C38 C 0.34492 0.56825 0.98664
 C39 C 0.21389 0.48471 1.08631
 C40 C 0.35368 0.40238 1.01319
 C41 C 0.19831 0.47412 0.92324
 C42 C 0.82156 0.51357 -0.05401
 H43 H 0.82799 0.52801 -0.03560
 C44 C 0.84198 0.51093 -0.07875
 H45 H 0.86420 0.52321 -0.07863
 C46 C 0.78597 0.47813 -0.07457
 H47 H 0.76461 0.46467 -0.07255
 C48 C 0.80522 0.47552 -0.10022
 H49 H 0.79756 0.46079 -0.11797
 N50 N 0.79442 0.49692 -0.05207
 C51 C 0.73556 0.54292 0.01301
 H52 H 0.73930 0.52681 0.03327
 C53 C 0.71640 0.56937 0.01479
 H54 H 0.70650 0.57373 0.03695
 C55 C 0.74466 0.55643 -0.04015
 H56 H 0.75526 0.55080 -0.06163
 C57 C 0.72475 0.58272 -0.03967
 H58 H 0.72017 0.59691 -0.06110
 Zn59 Zn 0.77150 0.49860 -0.01492
 N60 N 0.74939 0.53704 -0.01407
 C61 C 0.81042 0.51879 0.03334
 N62 N 0.80196 0.49359 0.01826
 C63 C 0.81729 0.46571 0.02441
 C64 C 0.84123 0.46206 0.04740
 C65 C 0.83472 0.51639 0.05594
 C66 C 0.71627 0.47102 -0.03408
 C67 C 0.69146 0.45002 -0.03405
 C68 C 0.71500 0.42279 0.01201
 C69 C 0.73946 0.44442 0.01110
 N70 N 0.73993 0.46766 -0.01207
 H71 H 0.79924 0.54118 0.02702
 H72 H 0.81109 0.44630 0.01124
 H73 H 0.85242 0.43939 0.05235
 H74 H 0.84168 0.53716 0.06663
 H75 H 0.71677 0.49013 -0.05181
 H76 H 0.67325 0.45286 -0.05221
 H77 H 0.71481 0.40459 0.03071
 H78 H 0.75764 0.44280 0.02919
 C79 C 0.70998 0.58944 -0.01195
 C80 C 0.83412 0.49150 -0.10234
 C81 C 0.69058 0.42547 -0.01081
 C82 C 0.85052 0.48770 0.06343
 C83 C -0.05345 0.32084 0.45285
 H84 H -0.07407 0.31948 0.46743
 C85 C -0.05355 0.34169 0.42653
 H86 H -0.07435 0.35658 0.42180
 C87 C -0.00104 0.30384 0.44306
 H88 H 0.01936 0.28898 0.44968
 C89 C 0.00032 0.32507 0.41699
 H90 H 0.02170 0.32533 0.40348
 N91 N -0.02776 0.30198 0.46020
 C92 C -0.07405 0.23188 0.52057
 H93 H -0.05906 0.23246 0.54116
 C94 C -0.09971 0.21181 0.52053
 H95 H -0.10468 0.19758 0.54154
 C96 C -0.08533 0.24969 0.46821
 H97 H -0.07897 0.26366 0.44753
 C98 C -0.11100 0.22961 0.46701
 H99 H -0.12417 0.22859 0.44534
 Zn100 Zn -0.03000 0.27423 0.49611
 N101 N -0.06750 0.25051 0.49477
 C102 C -0.05709 0.30237 0.54663
 N103 N -0.02984 0.29849 0.53081
 C104 C -0.00306 0.31419 0.53747
 C105 C -0.00291 0.33445 0.56114
 C106 C -0.05809 0.32266 0.57021
 C107 C 0.00386 0.22635 0.47361
 C108 C 0.02485 0.20102 0.47368
 C109 C 0.04708 0.21479 0.52264
 C110 C 0.02529 0.23982 0.52181
 N111 N 0.00407 0.24486 0.49761
 H112 H -0.07847 0.29061 0.54030
 H113 H 0.01800 0.31145 0.52392
 H114 H 0.01842 0.34723 0.56574
 H115 H -0.08008 0.32577 0.58229
 H116 H -0.01349 0.23070 0.45486
 H117 H 0.02378 0.18607 0.45472
 H118 H 0.06320 0.21031 0.54243
 H119 H 0.02456 0.25434 0.54104
 C120 C -0.11836 0.21009 0.49335
 C121 C -0.02638 0.34426 0.40794
 C122 C 0.04639 0.19465 0.49868
 C123 C -0.03082 0.33916 0.57756
 C124 C 0.96263 0.73405 0.53421
 H125 H 0.94103 0.74654 0.52646
 C126 C 0.96239 0.71361 0.56089
 H127 H 0.94042 0.71078 0.57333
 C128 C 1.01635 0.72039 0.52558
 H129 H 1.03705 0.72255 0.51117
 C130 C 1.01741 0.70024 0.55245
 H131 H 1.03947 0.68787 0.55892
 N132 N 0.98947 0.73729 0.51734
 C133 C 0.93612 0.79532 0.44967
 H134 H 0.94142 0.78246 0.42989
 C135 C 0.91202 0.81817 0.44718
 H136 H 0.89841 0.82236 0.42566
 C137 C 0.94854 0.80704 0.50114
 H138 H 0.96357 0.80315 0.52176
 C139 C 0.92439 0.82969 0.49985
 H140 H 0.92082 0.84318 0.51962
 Zn141 Zn 0.98901 0.76226 0.47935
 N142 N 0.95366 0.79010 0.47645
 C143 C 0.95939 0.71997 0.44306
 N144 N 0.98727 0.73453 0.44786
 C145 C 1.01417 0.72674 0.43315
 C146 C 1.01367 0.70324 0.41272
 C147 C 0.95762 0.69688 0.42230
 C148 C 1.04589 0.79052 0.49981
 C149 C 1.07080 0.81147 0.49682
 C150 C 1.05317 0.82552 0.44396
 C151 C 1.02873 0.80415 0.44790
 N152 N 1.02548 0.78725 0.47549
 H153 H 0.93855 0.72607 0.45570
 H154 H 1.03633 0.73787 0.43822
 H155 H 1.03570 0.69659 0.40233
 H156 H 0.93494 0.68613 0.41847
 H157 H 1.04234 0.77770 0.52188
 H158 H 1.08676 0.81372 0.51647
 H159 H 1.05464 0.83944 0.42212
 H160 H 1.01175 0.80155 0.42916
 C161 C 0.90597 0.83563 0.47253
 C162 C 0.99008 0.69635 0.57047
 C163 C 1.07441 0.82969 0.46875
 C164 C 0.98512 0.68777 0.40713
 C165 C 0.44983 -0.03913 0.31304
 H166 H 0.46897 -0.05631 0.31454
 C167 C 0.42529 -0.04152 0.33423
 H168 H 0.42641 -0.06032 0.35233
 C169 C 0.42660 0.00699 0.28841
 H170 H 0.42749 0.02625 0.27097
 C171 C 0.40108 0.00507 0.30870
 H172 H 0.38223 0.02252 0.30577
 N173 N 0.45005 -0.01527 0.29061
 C174 C 0.50996 -0.06171 0.22755
 H175 H 0.53245 -0.05063 0.23141
 C176 C 0.50812 -0.08517 0.20712
 H177 H 0.52959 -0.09153 0.19557
 C178 C 0.45454 -0.06405 0.23585
 H179 H 0.43362 -0.05523 0.24665
 C180 C 0.45139 -0.08684 0.21487
 H181 H 0.42797 -0.09605 0.21099
 Zn182 Zn 0.48516 -0.01582 0.26382
 N183 N 0.48343 -0.05175 0.24153
 C184 C 0.53834 -0.04308 0.29789
 N185 N 0.52256 -0.01590 0.28927
 C186 C 0.53153 0.01118 0.30069
 C187 C 0.55829 0.01190 0.32035
 C188 C 0.56480 -0.04356 0.31804
 C189 C 0.45709 0.02316 0.21560
 C190 C 0.45608 0.04537 0.19033
 C191 C 0.51141 0.05593 0.20054
 C192 C 0.51118 0.03389 0.22598
 N193 N 0.48421 0.01810 0.23312
 H194 H 0.52990 -0.06462 0.28983
 H195 H 0.51796 0.03234 0.29434
 H196 H 0.56549 0.03398 0.32819
 H197 H 0.57633 -0.06567 0.32514
 H198 H 0.43637 0.00933 0.22077
 H199 H 0.43403 0.04915 0.17706
 H200 H 0.53353 0.06717 0.19462
 H201 H 0.53304 0.02835 0.23899
 C202 C 0.47832 -0.09759 0.19961
 C203 C 0.40011 -0.01948 0.33211
 C204 C 0.48366 0.06178 0.18208
 C205 C 0.57538 -0.01576 0.32943
 C206 C 0.51283 -0.03998 0.71914
 H207 H 0.49542 -0.05785 0.72368
 C208 C 0.53474 -0.04279 0.69577
 H209 H 0.53452 -0.06346 0.68315
 C210 C 0.53369 0.00868 0.73026
 H211 H 0.53246 0.02908 0.74322
 C212 C 0.55562 0.00717 0.70651
 H213 H 0.57108 0.02663 0.70150
 N214 N 0.51269 -0.01460 0.73583
 C215 C 0.44966 -0.05070 0.80829
 H216 H 0.43082 -0.03321 0.80599
 C217 C 0.44742 -0.07613 0.83014
 H218 H 0.42669 -0.07820 0.84457
 C219 C 0.50037 -0.06844 0.79339
 H220 H 0.52135 -0.06492 0.77965
 C221 C 0.49932 -0.09395 0.81528
 H222 H 0.51925 -0.11028 0.81773
 Zn223 Zn 0.47860 -0.01112 0.76305
 N224 N 0.47566 -0.04753 0.79019
 C225 C 0.41774 -0.02484 0.73625
 N226 N 0.44178 -0.00419 0.73728
 C227 C 0.44141 0.02253 0.71835
 C228 C 0.41555 0.03008 0.69832
 C229 C 0.39158 -0.01845 0.71603
 C230 C 0.51006 0.02254 0.80729
 C231 C 0.51287 0.04490 0.82888
 C232 C 0.46205 0.06689 0.81036
 C233 C 0.46012 0.04409 0.78937
 N234 N 0.48384 0.02239 0.78827
 H235 H 0.41897 -0.04644 0.75069
 H236 H 0.46124 0.03814 0.71909
 H237 H 0.41560 0.05151 0.68349
 H238 H 0.37255 -0.03501 0.71532
 H239 H 0.52829 0.00465 0.80635
 H240 H 0.53333 0.04399 0.84460
 H241 H 0.44275 0.08379 0.81092
 H242 H 0.43901 0.04313 0.77485
 C243 C 0.47260 -0.09797 0.83398
 C244 C 0.55606 -0.01867 0.68855
 C245 C 0.48832 0.06711 0.83097
 C246 C 0.39025 0.00947 0.69702
 Si247 Si 0.22831 0.01881 0.50355
 Si248 Si 0.73614 0.00975 0.51942
 Si249 Si 0.53942 0.22923 0.99774
 Si250 Si 0.51441 0.74087 0.03058
 Si251 Si 1.02468 0.52513 0.23812
 Si252 Si 0.02541 0.50346 0.73894
 C253 C 0.09913 0.16613 0.50637
 C254 C 0.11754 0.13854 0.50644
 C255 C 0.10243 0.11026 0.50132
 C256 C 0.06942 0.10994 0.49624
 C257 C 0.05147 0.13743 0.49567
 C258 C 0.06607 0.16573 0.50052
 C259 C 0.12052 0.08275 0.50090
 C260 C 0.15366 0.08307 0.50500
 C261 C 0.16898 0.11120 0.51000
 C262 C 0.15079 0.13877 0.51095
 C263 C 0.20229 0.11125 0.51344
 C264 C 0.22015 0.08375 0.51173
 C265 C 0.20500 0.05571 0.50704
 C266 C 0.17172 0.05564 0.50363
 H267 H 0.11051 0.18795 0.50998
 H268 H 0.05751 0.08846 0.49235
 H269 H 0.02599 0.13660 0.49150
 H270 H 0.10882 0.06114 0.49693
 H271 H 0.16251 0.16040 0.51470
 H272 H 0.21456 0.13260 0.51703
 H273 H 0.24585 0.08449 0.51368
 H274 H 0.15967 0.03441 0.49924
 C275 C 0.66154 0.61474 0.00960
 C276 C 0.63971 0.63960 0.01043
 C277 C 0.64252 0.66621 -0.01046
 C278 C 0.66787 0.66790 -0.03104
 C279 C 0.69007 0.64336 -0.03114
 C280 C 0.68706 0.61627 -0.01109
 C281 C 0.61991 0.69058 -0.01048
 C282 C 0.59492 0.68890 0.01061
 C283 C 0.59291 0.66274 0.03230
 C284 C 0.61508 0.63814 0.03184
 C285 C 0.56855 0.66149 0.05398
 C286 C 0.54603 0.68565 0.05384
 C287 C 0.54720 0.71119 0.03182
 C288 C 0.57173 0.71280 0.01025
 H289 H 0.65810 0.59397 0.02480
 H290 H 0.67065 0.68828 -0.04698
 H291 H 0.70969 0.64580 -0.04687
 H292 H 0.62175 0.71079 -0.02687
 H293 H 0.61317 0.61788 0.04816
 H294 H 0.56678 0.64173 0.07089
 H295 H 0.52718 0.68406 0.07056
 H296 H 0.57266 0.73225 -0.00704
 C297 C 0.85999 -0.13613 0.49404
 C298 C 0.83869 -0.11066 0.49311
 C299 C 0.83938 -0.08751 0.46810
 C300 C 0.86056 -0.09084 0.44391
 C301 C 0.88149 -0.11643 0.44489
 C302 C 0.88177 -0.13894 0.47018
 C303 C 0.81932 -0.06119 0.46793
 C304 C 0.79844 -0.05781 0.49236
 C305 C 0.79694 -0.08148 0.51682
 C306 C 0.81713 -0.10773 0.51707
 C307 C 0.77566 -0.07820 0.54093
 C308 C 0.75654 -0.05142 0.54120
 C309 C 0.75848 -0.02757 0.51741
 C310 C 0.77941 -0.03087 0.49303
 H311 H 0.85991 -0.15364 0.51344
 H312 H 0.86130 -0.07342 0.42450
 H313 H 0.89823 -0.11811 0.42638
 H314 H 0.82024 -0.04317 0.44903
 H315 H 0.81638 -0.12562 0.53610
 H316 H 0.77414 -0.09613 0.55981
 H317 H 0.74079 -0.04919 0.56039
 H318 H 0.78121 -0.01223 0.47485
 C319 C 0.38866 0.36037 0.99401
 C320 C 0.41261 0.33733 0.99887
 C321 C 0.42680 0.33114 1.02866
 C322 C 0.41610 0.34743 1.05333
 C323 C 0.39196 0.37004 1.04841
 C324 C 0.37825 0.37714 1.01863
 C325 C 0.45164 0.30905 1.03325
 C326 C 0.46242 0.29287 1.00846
 C327 C 0.44752 0.29835 0.97871
 C328 C 0.42278 0.32066 0.97427
 C329 C 0.45710 0.28215 0.95337
 C330 C 0.48231 0.26061 0.95508
 C331 C 0.49956 0.25523 0.98667
 C332 C 0.48808 0.27187 1.01317
 H333 H 0.37875 0.36571 0.97083
 H334 H 0.42646 0.34274 1.07642
 H335 H 0.38398 0.38194 1.06804
 H336 H 0.46282 0.30468 1.05606
 H337 H 0.41157 0.32528 0.95149
 H338 H 0.44482 0.28651 0.93113
 H339 H 0.49624 0.25344 0.97047
 H340 H 0.50003 0.26825 1.03566
 C341 C 0.85927 0.15760 0.50825
 C342 C 0.83519 0.13561 0.50712
 C343 C 0.80713 0.14284 0.48919
 C344 C 0.80354 0.17221 0.47304
 C345 C 0.82753 0.19417 0.47459
 C346 C 0.85570 0.18710 0.49214
 C347 C 0.78320 0.12061 0.48772
 C348 C 0.78689 0.09140 0.50430
 C349 C 0.81484 0.08450 0.52261
 C350 C 0.83884 0.10652 0.52371
 C351 C 0.81834 0.05564 0.53966
 C352 C 0.79443 0.03375 0.53862
 C353 C 0.76681 0.04017 0.52029
 C354 C 0.76310 0.06897 0.50304
 H355 H 0.88105 0.15145 0.52136
 H356 H 0.78213 0.17827 0.45931
 H357 H 0.82387 0.21680 0.46226
 H358 H 0.76174 0.12606 0.47382
 H359 H 0.86031 0.10107 0.53762
 H360 H 0.83952 0.05004 0.55389
 H361 H 0.79758 0.01166 0.55213
 H362 H 0.74180 0.07403 0.48888
 C363 C 0.37031 0.61725 0.00329
 C364 C 0.39583 0.63786 0.00322
 C365 C 0.42118 0.63441 -0.01727
 C366 C 0.42082 0.61017 -0.03693
 C367 C 0.39604 0.58899 -0.03580
 C368 C 0.37039 0.59211 -0.01569
 C369 C 0.44690 0.65470 -0.01719
 C370 C 0.44828 0.67757 0.00407
 C371 C 0.42330 0.68061 0.02508
 C372 C 0.39689 0.66121 0.02404
 C373 C 0.42563 0.70241 0.04738
 C374 C 0.45267 0.72065 0.04920
 C375 C 0.47724 0.71818 0.02804
 C376 C 0.47478 0.69681 0.00535
 H377 H 0.35067 0.62069 0.01853
 H378 H 0.44023 0.60697 -0.05253
 H379 H 0.39769 0.56965 -0.05016
 H380 H 0.46629 0.65206 -0.03299
 H381 H 0.37769 0.66361 0.04011
 H382 H 0.40691 0.70478 0.06393
 H383 H 0.45432 0.73628 0.06743
 H384 H 0.49398 0.69451 -0.01073
 C385 C 0.10552 -0.12790 0.49098
 C386 C 0.12769 -0.10400 0.48828
 C387 C 0.14353 -0.09762 0.46005
 C388 C 0.13717 -0.11566 0.43513
 C389 C 0.11511 -0.13958 0.43806
 C390 C 0.09894 -0.14586 0.46594
 C391 C 0.16530 -0.07326 0.45720
 C392 C 0.17154 -0.05538 0.48233
 C393 C 0.15589 -0.06214 0.51067
 C394 C 0.13403 -0.08627 0.51340
 C395 C 0.16231 -0.04459 0.53588
 C396 C 0.18407 -0.02060 0.53316
 C397 C 0.19961 -0.01359 0.50519
 C398 C 0.19317 -0.03085 0.47969
 H399 H 0.09284 -0.13202 0.51243
 H400 H 0.14918 -0.11125 0.41335
 H401 H 0.11081 -0.15325 0.41850
 H402 H 0.17734 -0.06824 0.43549
 H403 H 0.12194 -0.09125 0.53509
 H404 H 0.15054 -0.04946 0.55774
 H405 H 0.18872 -0.00735 0.55298
 H406 H 0.20468 -0.02519 0.45788
 C407 C 0.66962 0.37115 0.99657
 C408 C 0.64445 0.35016 0.99583
 C409 C 0.61322 0.36148 0.98825
 C410 C 0.60759 0.39344 0.98190
 C411 C 0.63270 0.41410 0.98265
 C412 C 0.66397 0.40324 0.98970
 C413 C 0.58806 0.34072 0.98698
 C414 C 0.59362 0.30872 0.99327
 C415 C 0.62472 0.29726 1.00113
 C416 C 0.64999 0.31807 1.00230
 C417 C 0.62989 0.26515 1.00771
 C418 C 0.60446 0.24470 1.00656
 C419 C 0.57364 0.25603 0.99859
 C420 C 0.56842 0.28803 0.99189
 H421 H 0.69366 0.36248 1.00180
 H422 H 0.58377 0.40248 0.97626
 H423 H 0.62760 0.43871 0.97783
 H424 H 0.56415 0.34947 0.98107
 H425 H 0.67389 0.30931 1.00820
 H426 H 0.65351 0.25590 1.01389
 H427 H 0.60879 0.22006 1.01210
 H428 H 0.54476 0.29708 0.98569
 C429 C 0.50328 0.10972 1.15161
 C430 C 0.50514 0.12870 1.12380
 C431 C 0.48691 0.12157 1.09751
 C432 C 0.46732 0.09562 1.09939
 C433 C 0.46613 0.07651 1.12688
 C434 C 0.48406 0.08321 1.15333
 C435 C 0.48899 0.14009 1.06957
 C436 C 0.50965 0.16528 1.06729
 C437 C 0.52804 0.17243 1.09345
 C438 C 0.52539 0.15432 1.12168
 C439 C 0.54908 0.19735 1.09074
 C440 C 0.55232 0.21455 1.06223
 C441 C 0.53442 0.20727 1.03611
 C442 C 0.51264 0.18304 1.03899
 H443 H 0.51697 0.11553 1.17180
 H444 H 0.45339 0.08970 1.07938
 H445 H 0.45170 0.05597 1.12705
 H446 H 0.47502 0.13452 1.04942
 H447 H 0.53952 0.15977 1.14176
 H448 H 0.56328 0.20330 1.11055
 H449 H 0.56880 0.23356 1.06074
 H450 H 0.49832 0.17751 1.01922
 C451 C 0.00886 0.64633 0.59975
 C452 C 0.00885 0.62501 0.62596
 C453 C -0.01076 0.63072 0.65111
 C454 C -0.02931 0.65809 0.64997
 C455 C -0.02864 0.67955 0.62408
 C456 C -0.00983 0.67386 0.59849
 C457 C -0.01149 0.60901 0.67698
 C458 C 0.00766 0.58196 0.67828
 C459 C 0.02798 0.57670 0.65350
 C460 C 0.02819 0.59807 0.62736
 C461 C 0.04768 0.55004 0.65526
 C462 C 0.04717 0.52874 0.68126
 C463 C 0.02675 0.53354 0.70572
 C464 C 0.00681 0.56006 0.70400
 H465 H 0.02309 0.64112 0.58016
 H466 H -0.04422 0.66302 0.66919
 H467 H -0.04274 0.70076 0.62428
 H468 H -0.02683 0.61324 0.69612
 H469 H 0.04350 0.59382 0.60820
 H470 H 0.06346 0.54565 0.63653
 H471 H 0.06250 0.50823 0.68211
 H472 H -0.00951 0.56376 0.72237
 C473 C 0.49771 0.86960 -0.12126
 C474 C 0.49652 0.84561 -0.09748
 C475 C 0.46904 0.82723 -0.09449
 C476 C 0.44313 0.83338 -0.11520
 C477 C 0.44430 0.85768 -0.13847
 C478 C 0.47158 0.87591 -0.14174
 C479 C 0.46775 0.80330 -0.07065
 C480 C 0.49333 0.79795 -0.04937
 C481 C 0.52062 0.81663 -0.05214
 C482 C 0.52218 0.84011 -0.07635
 C483 C 0.54573 0.81186 -0.03030
 C484 C 0.54373 0.78895 -0.00581
 C485 C 0.51703 0.76999 -0.00321
 C486 C 0.49183 0.77457 -0.02499
 H487 H 0.51865 0.88389 -0.12338
 H488 H 0.42186 0.81958 -0.11322
 H489 H 0.42398 0.86213 -0.15413
 H490 H 0.44670 0.78917 -0.06839
 H491 H 0.54315 0.85439 -0.07848
 H492 H 0.56669 0.82612 -0.03190
 H493 H 0.56306 0.78607 0.01122
 H494 H 0.47081 0.76047 -0.02270
 C495 C 1.00255 0.37984 0.37142
 C496 C 1.00247 0.40230 0.34604
 C497 C 0.97379 0.40989 0.32928
 C498 C 0.94566 0.39526 0.33835
 C499 C 0.94566 0.37377 0.36418
 C500 C 0.97402 0.36564 0.38129
 C501 C 0.97346 0.43251 0.30417
 C502 C 1.00121 0.44860 0.29634
 C503 C 1.02984 0.44154 0.31345
 C504 C 1.03044 0.41801 0.33781
 C505 C 1.05710 0.45886 0.30652
 C506 C 1.05576 0.48339 0.28337
 C507 C 1.02757 0.49015 0.26604
 C508 C 1.00044 0.47252 0.27242
 H509 H 1.02460 0.37502 0.38449
 H510 H 0.92348 0.40073 0.32567
 H511 H 0.92338 0.36277 0.36997
 H512 H 0.95139 0.43824 0.29132
 H513 H 1.05241 0.41257 0.35091
 H514 H 1.07916 0.45404 0.31960
 H515 H 1.07664 0.49736 0.27925
 H516 H 0.97830 0.47823 0.25979
 C517 C 0.50052 0.86056 0.17024
 C518 C 0.49811 0.84090 0.14592
 C519 C 0.47056 0.84243 0.12650
 C520 C 0.44530 0.86241 0.13262
 C521 C 0.44745 0.88126 0.15734
 C522 C 0.47534 0.88128 0.17620
 C523 C 0.46871 0.82406 0.10120
 C524 C 0.49368 0.80340 0.09562
 C525 C 0.52058 0.80067 0.11594
 C526 C 0.52283 0.81972 0.14073
 C527 C 0.54489 0.77903 0.11095
 C528 C 0.54262 0.76042 0.08598
 C529 C 0.51630 0.76351 0.06541
 C530 C 0.49215 0.78537 0.07004
 H531 H 0.52174 0.85893 0.18500
 H532 H 0.42393 0.86375 0.11805
 H533 H 0.42775 0.89716 0.16029
 H534 H 0.44780 0.82573 0.08594
 H535 H 0.54377 0.81808 0.15593
 H536 H 0.56566 0.77655 0.12630
 H537 H 0.56181 0.74412 0.08247
 H538 H 0.47213 0.78828 0.05376
 C539 C -0.00730 0.36440 0.62297
 C540 C -0.00766 0.38787 0.64373
 C541 C -0.03301 0.41001 0.64211
 C542 C -0.05800 0.40772 0.62047
 C543 C -0.05755 0.38422 0.60006
 C544 C -0.03205 0.36264 0.60080
 C545 C -0.03265 0.43445 0.66166
 C546 C -0.00719 0.43717 0.68271
 C547 C 0.01766 0.41450 0.68506
 C548 C 0.01721 0.38993 0.66564
 C549 C 0.04307 0.41735 0.70617
 C550 C 0.04456 0.44309 0.72380
 C551 C 0.02056 0.46618 0.72074
 C552 C -0.00558 0.46282 0.70068
 H553 H 0.01229 0.34764 0.62390
 H554 H -0.07764 0.42443 0.61896
 H555 H -0.07674 0.38346 0.58302
 H556 H -0.05180 0.45173 0.65998
 H557 H 0.03655 0.37286 0.66707
 H558 H 0.06227 0.40016 0.70837
 H559 H 0.06507 0.44540 0.73894
 H560 H -0.02398 0.48084 0.69812
 C561 C 0.51705 0.10364 0.86430
 C562 C 0.51693 0.12445 0.88775
 C563 C 0.48816 0.13069 0.90272
 C564 C 0.46022 0.11599 0.89432
 C565 C 0.46055 0.09536 0.87115
 C566 C 0.48878 0.08910 0.85571
 C567 C 0.48765 0.15151 0.92590
 C568 C 0.51554 0.16618 0.93453
 C569 C 0.54445 0.16005 0.91986
 C570 C 0.54498 0.13920 0.89646
 C571 C 0.57219 0.17508 0.92883
 C572 C 0.57120 0.19583 0.95217
 C573 C 0.54253 0.20166 0.96689
 C574 C 0.51480 0.18703 0.95766
 H575 H 0.53893 0.09909 0.85249
 H576 H 0.43807 0.12037 0.90576
 H577 H 0.43864 0.08396 0.86557
 H578 H 0.46552 0.15627 0.93727
 H579 H 0.56710 0.13450 0.88507
 H580 H 0.59458 0.17083 0.91779
 H581 H 0.59280 0.20722 0.95855
 H582 H 0.49234 0.19218 0.96814
 C583 C 1.00425 0.66122 0.36090
 C584 C 1.00427 0.63604 0.34225
 C585 C 0.98338 0.61115 0.34875
 C586 C 0.96330 0.61160 0.37413
 C587 C 0.96398 0.63636 0.39303
 C588 C 0.98429 0.66158 0.38661
 C589 C 0.98310 0.58608 0.32999
 C590 C 1.00395 0.58527 0.30519
 C591 C 1.02536 0.60982 0.29910
 C592 C 1.02513 0.63522 0.31743
 C593 C 1.04692 0.60838 0.27496
 C594 C 1.04713 0.58297 0.25686
 C595 C 1.02528 0.55903 0.26213
 C596 C 1.00394 0.56014 0.28651
 H597 H 1.01975 0.68055 0.35523
 H598 H 0.94737 0.59256 0.37965
 H599 H 0.94890 0.63538 0.41303
 H600 H 0.96690 0.56710 0.33488
 H601 H 1.04142 0.65413 0.31261
 H602 H 1.06381 0.62676 0.27024
 H603 H 1.06451 0.58222 0.23890
 H604 H 0.98742 0.54137 0.29098
 C605 C 1.17123 0.50930 0.11526
 C606 C 1.14854 0.50785 0.13861
 C607 C 1.14721 0.48123 0.15964
 C608 C 1.16849 0.45642 0.15677
 C609 C 1.19049 0.45760 0.13297
 C610 C 1.19230 0.48398 0.11143
 C611 C 1.12440 0.47970 0.18292
 C612 C 1.10245 0.50429 0.18498
 C613 C 1.10352 0.53078 0.16359
 C614 C 1.12681 0.53257 0.14085
 C615 C 1.08089 0.55483 0.16492
 C616 C 1.05745 0.55272 0.18728
 C617 C 1.05683 0.52706 0.20923
 C618 C 1.07912 0.50267 0.20779
 H619 H 1.17249 0.53073 0.10068
 H620 H 1.16764 0.43566 0.17255
 H621 H 1.20491 0.43692 0.13104
 H622 H 1.12347 0.45926 0.19913
 H623 H 1.12761 0.55295 0.12453
 H624 H 1.08108 0.57508 0.14845
 H625 H 1.03980 0.57129 0.18755
 H626 H 1.07801 0.48222 0.22386
 C627 C 0.60761 -0.00647 0.66160
 C628 C 0.62699 -0.00686 0.63554
 C629 C 0.61626 -0.02150 0.60921
 C630 C 0.58623 -0.03502 0.60915
 C631 C 0.56685 -0.03394 0.63482
 C632 C 0.57727 -0.01988 0.66146
 C633 C 0.63548 -0.02205 0.58318
 C634 C 0.66502 -0.00748 0.58278
 C635 C 0.67562 0.00764 0.60886
 C636 C 0.65672 0.00751 0.63525
 C637 C 0.70477 0.02301 0.60791
 C638 C 0.72305 0.02369 0.58125
 C639 C 0.71273 0.00852 0.55545
 C640 C 0.68389 -0.00731 0.55644
 H641 H 0.61625 0.00420 0.68194
 H642 H 0.57750 -0.04602 0.58903
 H643 H 0.54335 -0.04369 0.63346
 H644 H 0.62722 -0.03338 0.56305
 H645 H 0.66491 0.01900 0.65530
 H646 H 0.71324 0.03483 0.62761
 H647 H 0.74520 0.03608 0.58095
 H648 H 0.67587 -0.01899 0.53647
 C649 C -0.12259 0.51057 0.86160
 C650 C -0.09996 0.50547 0.83903
 C651 C -0.09893 0.47676 0.82542
 C652 C -0.12019 0.45349 0.83502
 C653 C -0.14189 0.45833 0.85826
 C654 C -0.14348 0.48691 0.87192
 C655 C -0.07628 0.47156 0.80291
 C656 C -0.05393 0.49434 0.79459
 C657 C -0.05449 0.52279 0.80879
 C658 C -0.07785 0.52839 0.83046
 C659 C -0.03118 0.54489 0.80163
 C660 C -0.00745 0.53883 0.78071
 C661 C -0.00734 0.51118 0.76574
 C662 C -0.03052 0.48889 0.77284
 H663 H -0.12366 0.53298 0.87120
 H664 H -0.11953 0.43121 0.82508
 H665 H -0.15687 0.43924 0.86599
 H666 H -0.07563 0.44957 0.79237
 H667 H -0.07832 0.55027 0.84121
 H668 H -0.03094 0.56660 0.81262
 H669 H 0.01088 0.55583 0.77617
 H670 H -0.02994 0.46705 0.76211
 C671 C 0.35773 0.00470 0.36378
 C672 C 0.33381 0.00219 0.38601
 C673 C 0.32592 -0.02739 0.39978
 C674 C 0.34090 -0.05402 0.39001
 C675 C 0.36413 -0.05140 0.36741
 C676 C 0.37349 -0.02205 0.35450
 C677 C 0.30348 -0.02987 0.42336
 C678 C 0.28849 -0.00314 0.43309
 C679 C 0.29519 0.02632 0.41826
 C680 C 0.31798 0.02884 0.39498
 C681 C 0.27928 0.05282 0.42734
 C682 C 0.25787 0.05031 0.45164
 C683 C 0.25237 0.02139 0.46762
 C684 C 0.26735 -0.00534 0.45781
 H685 H 0.36459 0.02757 0.35446
 H686 H 0.33474 -0.07692 0.39992
 H687 H 0.37478 -0.07256 0.36013
 H688 H 0.29798 -0.05254 0.43439
 H689 H 0.32361 0.05154 0.38411
 H690 H 0.28376 0.07555 0.41596
 H691 H 0.24638 0.07126 0.45830
 H692 H 0.26290 -0.02785 0.46957
 C693 C 0.17110 0.48705 0.87106
 C694 C 0.14452 0.48618 0.85088
 C695 C 0.11746 0.46932 0.86055
 C696 C 0.11726 0.45397 0.89029
 C697 C 0.14345 0.45555 0.91047
 C698 C 0.17075 0.47200 0.90118
 C699 C 0.09082 0.46844 0.84057
 C700 C 0.09053 0.48488 0.81129
 C701 C 0.11738 0.50216 0.80171
 C702 C 0.14438 0.50235 0.82140
 C703 C 0.11650 0.51938 0.77279
 C704 C 0.08916 0.51980 0.75373
 C705 C 0.06262 0.50248 0.76305
 C706 C 0.06352 0.48484 0.79168
 H707 H 0.19199 0.49948 0.86324
 H708 H 0.09659 0.44119 0.89817
 H709 H 0.14192 0.44436 0.93365
 H710 H 0.07010 0.45543 0.84802
 H711 H 0.16500 0.51554 0.81402
 H712 H 0.13677 0.53290 0.76512
 H713 H 0.08884 0.53374 0.73184
 H714 H 0.04291 0.47161 0.79897
 C715 C 0.60507 0.00496 0.37463
 C716 C 0.63104 0.00401 0.39573
 C717 C 0.65563 -0.01848 0.39376
 C718 C 0.65447 -0.03877 0.37006
 C719 C 0.62886 -0.03732 0.34885
 C720 C 0.60352 -0.01588 0.35113
 C721 C 0.68079 -0.02059 0.41571
 C722 C 0.68185 -0.00032 0.43949
 C723 C 0.65795 0.02298 0.44081
 C724 C 0.63260 0.02491 0.41900
 C725 C 0.65951 0.04354 0.46435
 C726 C 0.68398 0.04043 0.48687
 C727 C 0.70710 0.01668 0.48631
 C728 C 0.70610 -0.00345 0.46239
 H729 H 0.58573 0.02143 0.37714
 H730 H 0.67334 -0.05586 0.36796
 H731 H 0.62900 -0.05308 0.33059
 H732 H 0.69932 -0.03825 0.41450
 H733 H 0.61394 0.04241 0.42037
 H734 H 0.64150 0.06164 0.46567
 H735 H 0.68426 0.05597 0.50536
 H736 H 0.72351 -0.02211 0.46189
 C737 C 0.87787 0.50381 0.11199
 C738 C 0.90417 0.50301 0.13263
 C739 C 0.92995 0.48230 0.12879
 C740 C 0.92912 0.46299 0.10424
 C741 C 0.90330 0.46459 0.08326
 C742 C 0.87736 0.48504 0.08674
 C743 C 0.95645 0.48166 0.14913
 C744 C 0.95794 0.50218 0.17267
 C745 C 0.93237 0.52325 0.17628
 C746 C 0.90541 0.52316 0.15657
 C747 C 0.93455 0.54449 0.19916
 C748 C 0.96200 0.54520 0.21794
 C749 C 0.98727 0.52420 0.21457
 C750 C 0.98499 0.50251 0.19219
 H751 H 0.85794 0.51930 0.11553
 H752 H 0.94880 0.44715 0.10082
 H753 H 0.90417 0.45029 0.06382
 H754 H 0.97621 0.46572 0.14618
 H755 H 0.88578 0.53929 0.15936
 H756 H 0.91527 0.56093 0.20214
 H757 H 0.96340 0.56227 0.23489
 H758 H 1.00463 0.48639 0.18947
 C759 C 0.35394 -0.00490 0.65416
 C760 C 0.33038 0.00300 0.63127
 C761 C 0.31533 0.03269 0.62970
 C762 C 0.32412 0.05395 0.65111
 C763 C 0.34813 0.04615 0.67335
 C764 C 0.36331 0.01679 0.67495
 C765 C 0.29230 0.04090 0.60635
 C766 C 0.28475 0.02009 0.58407
 C767 C 0.29992 -0.00955 0.58565
 C768 C 0.32232 -0.01803 0.60943
 C769 C 0.29267 -0.03014 0.56320
 C770 C 0.27114 -0.02127 0.53902
 C771 C 0.25636 0.00825 0.53685
 C772 C 0.26266 0.02860 0.55989
 H773 H 0.36590 -0.02743 0.65506
 H774 H 0.31288 0.07680 0.65026
 H775 H 0.35502 0.06312 0.68929
 H776 H 0.28083 0.06369 0.60511
 H777 H 0.33396 -0.04075 0.61054
 H778 H 0.30384 -0.05304 0.56419
 H779 H 0.26582 -0.03777 0.52218
 H780 H 0.25072 0.05102 0.55910
   
