data_POSCAR
  _audit_creation_date              2014-09-24
  _audit_creation_method            'ToBaCCo'
  _symmetry_space_group_name_H-M    'P1'
  _symmetry_Int_Tables_number       1
  _symmetry_cell_setting            triclinic
  loop_
  _symmetry_equiv_pos_as_xyz
 x,y,z
_cell_length_a 63.2121
_cell_length_b 63.6315
_cell_length_c 62.2533
_cell_angle_alpha 91.164800
_cell_angle_beta 89.446200
_cell_angle_gamma 91.592700
loop_
  _atom_site_label
  _atom_site_type_symbol
  _atom_site_fract_x
  _atom_site_fract_y
  _atom_site_fract_z
N1 N 0.60068 0.65789 0.61617
 N2 N 0.59076 0.64799 0.63181
 C3 C 0.57331 0.65859 0.63737
 C4 C 0.57247 0.67623 0.62477
 C5 C 0.59012 0.67527 0.61152
 H6 H 0.56235 0.65416 0.65003
 H7 H 0.59482 0.68632 0.59928
 Cu8 Cu 0.60234 0.62278 0.64375
 Cu9 Cu 0.62638 0.64747 0.60270
 Cu10 Cu 0.64661 0.60206 0.62345
 N11 N 0.61392 0.59753 0.65563
 N12 N 0.63142 0.58971 0.64770
 C13 C 0.63659 0.57293 0.65911
 C14 C 0.62145 0.56983 0.67516
 C15 C 0.60722 0.58581 0.67227
 H16 H 0.65052 0.56387 0.65595
 H17 H 0.59334 0.58908 0.68187
 N18 N 0.65966 0.61688 0.59896
 N19 N 0.65213 0.63431 0.59124
 C20 C 0.66440 0.64050 0.57459
 C21 C 0.68038 0.62626 0.57161
 C22 C 0.67684 0.61150 0.58737
 H23 H 0.66160 0.65410 0.56501
 H24 H 0.68614 0.59785 0.59022
 H25 H 0.62096 0.61624 0.60998
 H26 H 0.63717 0.63246 0.62937
 N27 N 0.89423 0.33527 0.11574
 N28 N 0.90045 0.34251 0.13461
 C29 C 0.91620 0.33067 0.14161
 C30 C 0.92023 0.31509 0.12622
 C31 C 0.90583 0.31863 0.11003
 H32 H 0.92428 0.33354 0.15665
 H33 H 0.90384 0.30988 0.09511
 Cu34 Cu 0.88774 0.36693 0.14818
 Cu35 Cu 0.87163 0.34800 0.09993
 Cu36 Cu 0.85352 0.39523 0.12022
 N37 N 0.87965 0.39488 0.15769
 N38 N 0.86666 0.40606 0.14653
 C39 C 0.86386 0.42463 0.15676
 C40 C 0.87565 0.42509 0.17542
 C41 C 0.88547 0.40590 0.17546
 H42 H 0.85363 0.43671 0.15128
 H43 H 0.89619 0.40042 0.18743
 N44 N 0.84218 0.38156 0.09391
 N45 N 0.84889 0.36340 0.08634
 C46 C 0.83772 0.35782 0.06873
 C47 C 0.82325 0.37325 0.06494
 C48 C 0.82659 0.38807 0.08126
 H49 H 0.83996 0.34357 0.05934
 H50 H 0.81796 0.40231 0.08402
 H51 H 0.87955 0.37766 0.11205
 H52 H 0.85672 0.36345 0.12524
 N53 N 0.39699 0.15763 -0.11251
 N54 N 0.40836 0.14596 -0.12561
 C55 C 0.42586 0.15695 -0.13156
 C56 C 0.42542 0.17665 -0.12174
 C57 C 0.40682 0.17653 -0.10979
 H58 H 0.43790 0.15110 -0.14242
 H59 H 0.40111 0.18907 -0.09949
 Cu60 Cu 0.39932 0.11760 -0.13397
 Cu61 Cu 0.37093 0.14696 -0.09915
 Cu62 Cu 0.35114 0.09922 -0.11872
 N63 N 0.38581 0.09339 -0.14812
 N64 N 0.36695 0.08634 -0.14226
 C65 C 0.36124 0.06988 -0.15504
 C66 C 0.37743 0.06639 -0.16975
 C67 C 0.39279 0.08164 -0.16482
 H68 H 0.34642 0.06111 -0.15368
 H69 H 0.40774 0.08435 -0.17303
 N70 N 0.33760 0.11489 -0.09498
 N71 N 0.34492 0.13328 -0.08773
 C72 C 0.33233 0.13992 -0.07153
 C73 C 0.31636 0.12493 -0.06835
 C74 C 0.32024 0.10928 -0.08354
 H75 H 0.33491 0.15436 -0.06236
 H76 H 0.31107 0.09488 -0.08612
 H77 H 0.37577 0.11506 -0.10288
 H78 H 0.36365 0.12865 -0.12600
 N79 N 0.10438 0.84556 0.38544
 N80 N 0.09257 0.85778 0.37411
 C81 C 0.07450 0.84731 0.36889
 C82 C 0.07495 0.82726 0.37733
 C83 C 0.09431 0.82682 0.38770
 H84 H 0.06216 0.85387 0.35941
 H85 H 0.10055 0.81407 0.39668
 Cu86 Cu 0.10194 0.88610 0.36684
 Cu87 Cu 0.13133 0.85529 0.39745
 Cu88 Cu 0.15148 0.90279 0.37934
 N89 N 0.11547 0.91012 0.35302
 N90 N 0.13485 0.91647 0.35778
 C91 C 0.14042 0.93289 0.34547
 C92 C 0.12362 0.93712 0.33223
 C93 C 0.10803 0.92231 0.33754
 H94 H 0.15561 0.94110 0.34613
 H95 H 0.09260 0.92019 0.33034
 N96 N 0.16572 0.88635 0.40111
 N97 N 0.15820 0.86804 0.40777
 C98 C 0.17110 0.86092 0.42292
 C99 C 0.18752 0.87549 0.42603
 C100 C 0.18357 0.89140 0.41189
 H101 H 0.16834 0.84654 0.43158
 H102 H 0.19289 0.90570 0.40971
 H103 H 0.12729 0.88744 0.39608
 H104 H 0.13761 0.87396 0.37119
 C105 C 0.10684 0.14282 0.12046
 C106 C 0.12523 0.13437 0.11142
 C107 C 0.13452 0.11751 0.12091
 C108 C 0.12564 0.10897 0.13964
 C109 C 0.10755 0.11732 0.14860
 C110 C 0.09811 0.13442 0.13898
 C111 C 0.09437 0.15914 0.11469
 N112 N 0.07837 0.16091 0.12931
 C113 C 0.08057 0.14584 0.14423
 C114 C 0.10255 0.10594 0.16660
 N115 N 0.11721 0.09090 0.16883
 C116 C 0.13139 0.09269 0.15235
 C117 C 0.15204 0.11259 0.10877
 N118 N 0.15369 0.12608 0.09215
 C119 C 0.13734 0.13948 0.09368
 H120 H 0.09696 0.16918 0.10104
 H121 H 0.07004 0.14321 0.15778
 H122 H 0.08937 0.10864 0.17745
 H123 H 0.14478 0.08272 0.14961
 H124 H 0.16297 0.10026 0.11200
 H125 H 0.13430 0.15189 0.08257
 C126 C 0.39058 0.85372 0.61694
 C127 C 0.37282 0.86245 0.60760
 C128 C 0.36441 0.88054 0.61639
 C129 C 0.37352 0.89009 0.63467
 C130 C 0.39112 0.88162 0.64380
 C131 C 0.39976 0.86332 0.63484
 C132 C 0.40207 0.83621 0.61194
 N133 N 0.41804 0.83502 0.62628
 C134 C 0.41676 0.85158 0.64032
 C135 C 0.39642 0.89408 0.66138
 N136 N 0.38237 0.90983 0.66318
 C137 C 0.36835 0.90751 0.64683
 C138 C 0.34755 0.88565 0.60393
 N139 N 0.34550 0.87113 0.58772
 C140 C 0.36087 0.85681 0.58991
 H141 H 0.39916 0.82525 0.59869
 H142 H 0.42726 0.85468 0.65372
 H143 H 0.40926 0.89155 0.67233
 H144 H 0.35534 0.91777 0.64393
 H145 H 0.33748 0.89896 0.60656
 H146 H 0.36350 0.84354 0.57916
 C147 C 0.88731 0.64636 0.38001
 C148 C 0.86932 0.63688 0.38948
 C149 C 0.86127 0.61796 0.38132
 C150 C 0.87097 0.60834 0.36346
 C151 C 0.88863 0.61775 0.35404
 C152 C 0.89697 0.63679 0.36250
 C153 C 0.89880 0.66450 0.38479
 N154 N 0.91532 0.66606 0.37074
 C155 C 0.91431 0.64918 0.35703
 C156 C 0.89443 0.60517 0.33686
 N157 N 0.88077 0.58832 0.33568
 C158 C 0.86642 0.59010 0.35196
 C159 C 0.84400 0.61237 0.39378
 N160 N 0.84135 0.62744 0.40930
 C161 C 0.85679 0.64250 0.40673
 H162 H 0.89568 0.67551 0.39785
 H163 H 0.92538 0.64614 0.34403
 H164 H 0.90766 0.60803 0.32603
 H165 H 0.85333 0.57917 0.35493
 H166 H 0.83397 0.59844 0.39154
 H167 H 0.85900 0.65639 0.41689
 C168 C 0.61331 0.35880 -0.11927
 C169 C 0.63251 0.36727 -0.11141
 C170 C 0.64132 0.38529 -0.12024
 C171 C 0.63112 0.39503 -0.13713
 C172 C 0.61209 0.38680 -0.14475
 C173 C 0.60311 0.36855 -0.13575
 C174 C 0.60131 0.34125 -0.11405
 N175 N 0.58405 0.34012 -0.12692
 C176 C 0.58500 0.35682 -0.14020
 C177 C 0.60596 0.39933 -0.16121
 N178 N 0.62091 0.41485 -0.16386
 C179 C 0.63634 0.41234 -0.14916
 C180 C 0.65973 0.39004 -0.10935
 N181 N 0.66232 0.37536 -0.09410
 C182 C 0.64574 0.36132 -0.09533
 H183 H 0.60486 0.33013 -0.10175
 H184 H 0.57361 0.35994 -0.15253
 H185 H 0.59193 0.39701 -0.17091
 H186 H 0.65034 0.42238 -0.14734
 H187 H 0.67048 0.40321 -0.11239
 H188 H 0.64320 0.34801 -0.08497
 C189 C -0.03320 0.26820 0.12759
 C190 C -0.03609 0.28193 0.14525
 C191 C -0.05137 0.29737 0.14481
 C192 C -0.06437 0.29944 0.12673
 C193 C -0.06148 0.28547 0.10912
 C194 C -0.04607 0.27016 0.10953
 C195 C -0.01679 0.25200 0.12793
 N196 N -0.01139 0.24128 0.10969
 N197 N 0.00347 0.22685 0.10992
 C198 C 0.01352 0.22246 0.12842
 N199 N 0.00807 0.23313 0.14669
 N200 N -0.00674 0.24762 0.14644
 C201 C 0.03013 0.20647 0.12865
 C202 C 0.03789 0.19931 0.14821
 C203 C 0.05358 0.18426 0.14842
 C204 C 0.06201 0.17621 0.12909
 C205 C 0.05432 0.18339 0.10954
 C206 C 0.03848 0.19827 0.10931
 H207 H -0.02642 0.28088 0.15943
 H208 H -0.05290 0.30754 0.15882
 H209 H -0.07092 0.28627 0.09479
 H210 H -0.04433 0.25977 0.09567
 H211 H 0.03181 0.20528 0.16340
 H212 H 0.05937 0.17917 0.16371
 H213 H 0.06039 0.17728 0.09442
 H214 H 0.03290 0.20345 0.09396
 C215 C 0.52578 0.72417 0.62650
 C216 C 0.54655 0.72879 0.61950
 C217 C 0.56168 0.71319 0.61884
 C218 C 0.55644 0.69272 0.62550
 C219 C 0.53576 0.68815 0.63277
 C220 C 0.52052 0.70367 0.63309
 C221 C 0.50969 0.74064 0.62682
 N222 N 0.48871 0.73542 0.62748
 N223 N 0.47426 0.75026 0.62755
 C224 C 0.48018 0.77094 0.62710
 N225 N 0.50115 0.77615 0.62654
 N226 N 0.51560 0.76131 0.62633
 C227 C 0.46414 0.78744 0.62703
 C228 C 0.46971 0.80838 0.63256
 C229 C 0.45454 0.82395 0.63250
 C230 C 0.43359 0.81896 0.62658
 C231 C 0.42804 0.79807 0.62094
 C232 C 0.44311 0.78243 0.62131
 H233 H 0.55107 0.74442 0.61424
 H234 H 0.57754 0.71724 0.61334
 H235 H 0.53124 0.67248 0.63785
 H236 H 0.50465 0.69963 0.63860
 H237 H 0.48576 0.81274 0.63710
 H238 H 0.45924 0.83998 0.63675
 H239 H 0.41194 0.79380 0.61652
 H240 H 0.43834 0.76646 0.61691
 C241 C 1.02737 0.77884 0.37385
 C242 C 1.02357 0.79892 0.36607
 C243 C 1.03930 0.81479 0.36694
 C244 C 1.05920 0.81112 0.37598
 C245 C 1.06288 0.79089 0.38378
 C246 C 1.04724 0.77496 0.38257
 C247 C 1.01067 0.76207 0.37302
 N248 N 1.01567 0.74154 0.37460
 N249 N 1.00063 0.72645 0.37396
 C250 C 0.97997 0.73128 0.37187
 N251 N 0.97497 0.75182 0.37034
 N252 N 0.99002 0.76689 0.37083
 C253 C 0.96325 0.71452 0.37138
 C254 C 0.94206 0.71923 0.37594
 C255 C 0.92636 0.70332 0.37583
 C256 C 0.93146 0.68245 0.37078
 C257 C 0.95258 0.67775 0.36600
 C258 C 0.96835 0.69359 0.36646
 H259 H 1.00843 0.80236 0.35914
 H260 H 1.03553 0.82998 0.36078
 H261 H 1.07788 0.78708 0.39070
 H262 H 1.05065 0.75965 0.38875
 H263 H 0.93765 0.73519 0.37987
 H264 H 0.91016 0.70733 0.37945
 H265 H 0.95694 0.66175 0.36229
 H266 H 0.98452 0.68946 0.36284
 C267 C 0.47276 0.22646 -0.12536
 C268 C 0.45161 0.23098 -0.12034
 C269 C 0.43623 0.21480 -0.11913
 C270 C 0.44161 0.19382 -0.12322
 C271 C 0.46267 0.18934 -0.12854
 C272 C 0.47810 0.20545 -0.12947
 C273 C 0.48922 0.24348 -0.12604
 N274 N 0.51007 0.23887 -0.12624
 N275 N 0.52492 0.25412 -0.12652
 C276 C 0.51957 0.27464 -0.12672
 N277 N 0.49871 0.27926 -0.12662
 N278 N 0.48385 0.26400 -0.12623
 C279 C 0.53614 0.29157 -0.12684
 C280 C 0.53106 0.31237 -0.13141
 C281 C 0.54678 0.32828 -0.13155
 C282 C 0.56785 0.32376 -0.12686
 C283 C 0.57291 0.30301 -0.12220
 C284 C 0.55727 0.28707 -0.12230
 H285 H 0.44696 0.24699 -0.11708
 H286 H 0.42009 0.21877 -0.11519
 H287 H 0.46736 0.17331 -0.13160
 H288 H 0.49422 0.20143 -0.13343
 H289 H 0.51495 0.31636 -0.13501
 H290 H 0.54242 0.34417 -0.13501
 H291 H 0.58906 0.29905 -0.11878
 H292 H 0.56173 0.27123 -0.11868
 C293 C 0.12124 -0.01561 0.28368
 C294 C 0.14068 -0.02131 0.29230
 C295 C 0.14143 -0.03654 0.30811
 C296 C 0.12276 -0.04652 0.31564
 C297 C 0.10330 -0.04081 0.30705
 C298 C 0.10255 -0.02550 0.29129
 C299 C 0.12053 0.00047 0.26679
 N300 N 0.10175 0.00715 0.25942
 N301 N 0.10117 0.02151 0.24418
 C302 C 0.11933 0.02979 0.23562
 N303 N 0.13810 0.02311 0.24299
 N304 N 0.13868 0.00878 0.25825
 C305 C 0.11874 0.04567 0.21852
 C306 C 0.13755 0.05293 0.20859
 C307 C 0.13703 0.06774 0.19235
 C308 C 0.11771 0.07572 0.18569
 C309 C 0.09890 0.06856 0.19569
 C310 C 0.09940 0.05368 0.21189
 H311 H 0.15540 -0.01404 0.28684
 H312 H 0.15671 -0.04065 0.31419
 H313 H 0.08859 -0.04802 0.31258
 H314 H 0.08729 -0.02149 0.28504
 H315 H 0.15273 0.04716 0.21330
 H316 H 0.15181 0.07314 0.18519
 H317 H 0.08374 0.07422 0.19076
 H318 H 0.08460 0.04844 0.21917
 C319 C 0.62042 0.52335 -0.27670
 C320 C 0.60378 0.53739 -0.27821
 C321 C 0.60408 0.55272 -0.29402
 C322 C 0.62098 0.55431 -0.30892
 C323 C 0.63754 0.54002 -0.30738
 C324 C 0.63728 0.52486 -0.29148
 C325 C 0.62033 0.50726 -0.25981
 N326 N 0.63794 0.49622 -0.25602
 N327 N 0.63798 0.48185 -0.24077
 C328 C 0.62038 0.47783 -0.22870
 N329 N 0.60273 0.48883 -0.23252
 N330 N 0.60272 0.50327 -0.24772
 C331 C 0.62047 0.46174 -0.21183
 C332 C 0.60148 0.45470 -0.20207
 C333 C 0.60161 0.43930 -0.18638
 C334 C 0.62075 0.43079 -0.17992
 C335 C 0.63974 0.43794 -0.18951
 C336 C 0.63960 0.45315 -0.20538
 H337 H 0.59051 0.53664 -0.26709
 H338 H 0.59090 0.56316 -0.29443
 H339 H 0.65094 0.54047 -0.31827
 H340 H 0.65031 0.51419 -0.29089
 H341 H 0.58647 0.46097 -0.20667
 H342 H 0.58679 0.43420 -0.17907
 H343 H 0.65468 0.43148 -0.18500
 H344 H 0.65452 0.45820 -0.21254
 C345 C 0.37910 1.01937 0.77948
 C346 C 0.35983 1.02463 0.78940
 C347 C 0.35931 1.03981 0.80591
 C348 C 0.37801 1.05019 0.81283
 C349 C 0.39727 1.04497 0.80289
 C350 C 0.39782 1.02971 0.78645
 C351 C 0.37966 1.00320 0.76202
 N352 N 0.39838 0.99666 0.75374
 N353 N 0.39886 0.98207 0.73811
 C354 C 0.38064 0.97343 0.73005
 N355 N 0.36193 0.98000 0.73830
 N356 N 0.36144 0.99456 0.75396
 C357 C 0.38115 0.95713 0.71271
 C358 C 0.36228 0.94958 0.70316
 C359 C 0.36272 0.93417 0.68688
 C360 C 0.38200 0.92586 0.67983
 C361 C 0.40086 0.93336 0.68937
 C362 C 0.40046 0.94888 0.70558
 H363 H 0.34511 1.01699 0.78445
 H364 H 0.34416 1.04355 0.81305
 H365 H 0.41201 1.05251 0.80792
 H366 H 0.41295 1.02605 0.77918
 H367 H 0.34713 0.95555 0.70826
 H368 H 0.34791 0.92850 0.68004
 H369 H 0.41597 0.92741 0.68410
 H370 H 0.41529 0.95434 0.71256
 C371 C 0.87891 0.47454 0.22370
 C372 C 0.87303 0.47888 0.20256
 C373 C 0.87196 0.46283 0.18689
 C374 C 0.87701 0.44215 0.19195
 C375 C 0.88316 0.43787 0.21301
 C376 C 0.88396 0.45385 0.22874
 C377 C 0.87963 0.49145 0.24042
 N378 N 0.87984 0.48673 0.26160
 N379 N 0.88025 0.50193 0.27664
 C380 C 0.88061 0.52248 0.27114
 N381 N 0.88050 0.52720 0.24995
 N382 N 0.87995 0.51200 0.23491
 C383 C 0.88096 0.53939 0.28786
 C384 C 0.88680 0.56015 0.28258
 C385 C 0.88699 0.57612 0.29833
 C386 C 0.88106 0.57175 0.31960
 C387 C 0.87519 0.55104 0.32490
 C388 C 0.87529 0.53499 0.30923
 H389 H 0.86899 0.49464 0.19816
 H390 H 0.86734 0.46669 0.17078
 H391 H 0.88701 0.42209 0.21748
 H392 H 0.88864 0.45000 0.24485
 H393 H 0.89132 0.56405 0.26629
 H394 H 0.89138 0.59200 0.29380
 H395 H 0.87073 0.54725 0.34123
 H396 H 0.87068 0.51917 0.31381
 C397 C 0.26666 0.12573 -0.02044
 C398 C 0.27233 0.10679 -0.03069
 C399 C 0.28835 0.10657 -0.04630
 C400 C 0.29920 0.12526 -0.05195
 C401 C 0.29355 0.14420 -0.04172
 C402 C 0.27741 0.14445 -0.02620
 C403 C 0.24972 0.12589 -0.00378
 N404 N 0.24255 0.14429 0.00454
 N405 N 0.22738 0.14438 0.01955
 C406 C 0.21879 0.12607 0.02694
 N407 N 0.22598 0.10767 0.01862
 N408 N 0.24109 0.10759 0.00357
 C409 C 0.20197 0.12612 0.04372
 C410 C 0.19498 0.10724 0.05315
 C411 C 0.17922 0.10725 0.06903
 C412 C 0.16995 0.12612 0.07577
 C413 C 0.17686 0.14499 0.06631
 C414 C 0.19275 0.14501 0.05052
 H415 H 0.26438 0.09208 -0.02668
 H416 H 0.29240 0.09166 -0.05369
 H417 H 0.30144 0.15891 -0.04582
 H418 H 0.27345 0.15932 -0.01864
 H419 H 0.20173 0.09240 0.04832
 H420 H 0.17406 0.09245 0.07585
 H421 H 0.17019 0.15980 0.07136
 H422 H 0.19776 0.15984 0.04363
 C423 C 0.72929 0.62683 0.52282
 C424 C 0.72407 0.60831 0.53385
 C425 C 0.70829 0.60815 0.54972
 C426 C 0.69726 0.62648 0.55488
 C427 C 0.70245 0.64500 0.54385
 C428 C 0.71832 0.64519 0.52805
 C429 C 0.74601 0.62697 0.50595
 N430 N 0.75255 0.64521 0.49670
 N431 N 0.76755 0.64531 0.48152
 C432 C 0.77663 0.62717 0.47490
 N433 N 0.77008 0.60893 0.48414
 N434 N 0.75512 0.60883 0.49935
 C435 C 0.79330 0.62725 0.45797
 C436 C 0.80116 0.60826 0.44967
 C437 C 0.81683 0.60833 0.43368
 C438 C 0.82510 0.62738 0.42570
 C439 C 0.81730 0.64637 0.43403
 C440 C 0.80154 0.64631 0.44993
 H441 H 0.73220 0.59389 0.53025
 H442 H 0.70459 0.59355 0.55773
 H443 H 0.69443 0.65945 0.54754
 H444 H 0.72194 0.65975 0.51991
 H445 H 0.79520 0.59329 0.45549
 H446 H 0.82270 0.59346 0.42778
 H447 H 0.82319 0.66129 0.42804
 H448 H 0.79585 0.66123 0.45594
 C449 C 0.77643 0.37406 0.01503
 C450 C 0.78213 0.39257 0.02654
 C451 C 0.79734 0.39231 0.04267
 C452 C 0.80732 0.37357 0.04761
 C453 C 0.80181 0.35511 0.03593
 C454 C 0.78651 0.35535 0.01988
 C455 C 0.75990 0.37423 -0.00172
 N456 N 0.75242 0.35600 -0.01094
 N457 N 0.73734 0.35614 -0.02573
 C458 C 0.72912 0.37451 -0.03200
 N459 N 0.73665 0.39275 -0.02284
 N460 N 0.75170 0.39261 -0.00801
 C461 C 0.71215 0.37467 -0.04829
 C462 C 0.70529 0.39377 -0.05639
 C463 C 0.68912 0.39397 -0.07153
 C464 C 0.67932 0.37510 -0.07884
 C465 C 0.68620 0.35600 -0.07081
 C466 C 0.70247 0.35578 -0.05576
 H467 H 0.77473 0.40728 0.02321
 H468 H 0.80133 0.40686 0.05116
 H469 H 0.80906 0.34036 0.03935
 H470 H 0.78257 0.34081 0.01129
 H471 H 0.71237 0.40862 -0.05101
 H472 H 0.68400 0.40895 -0.07720
 H473 H 0.67913 0.34119 -0.07632
 H474 H 0.70736 0.34078 -0.04988
 C475 C 0.23708 0.87345 0.47297
 C476 C 0.22583 0.85501 0.46669
 C477 C 0.20986 0.85565 0.45136
 C478 C 0.20484 0.87471 0.44187
 C479 C 0.21629 0.89310 0.44794
 C480 C 0.23217 0.89248 0.46334
 C481 C 0.25362 0.87292 0.48966
 N482 N 0.26287 0.89102 0.49737
 N483 N 0.27749 0.89063 0.51260
 C484 C 0.28353 0.87212 0.52076
 N485 N 0.27434 0.85400 0.51301
 N486 N 0.25968 0.85439 0.49780
 C487 C 0.29963 0.87177 0.53790
 C488 C 0.30738 0.85264 0.54502
 C489 C 0.32249 0.85241 0.56127
 C490 C 0.33006 0.87130 0.57086
 C491 C 0.32234 0.89040 0.56372
 C492 C 0.30734 0.89065 0.54742
 H493 H 0.22921 0.84007 0.47374
 H494 H 0.20153 0.84115 0.44692
 H495 H 0.21276 0.90809 0.44111
 H496 H 0.24053 0.90699 0.46777
 H497 H 0.30179 0.83780 0.53804
 H498 H 0.32800 0.83744 0.56657
 H499 H 0.32809 0.90522 0.57057
 H500 H 0.30176 0.90568 0.54234
   
