data_POSCAR
  _audit_creation_date              2014-09-24
  _audit_creation_method            'ToBaCCo'
  _symmetry_space_group_name_H-M    'P1'
  _symmetry_Int_Tables_number       1
  _symmetry_cell_setting            triclinic
  loop_
  _symmetry_equiv_pos_as_xyz
 x,y,z
_cell_length_a 54.3527
_cell_length_b 54.4085
_cell_length_c 54.3629
_cell_angle_alpha 89.970800
_cell_angle_beta 90.016100
_cell_angle_gamma 89.851400
loop_
  _atom_site_label
  _atom_site_type_symbol
  _atom_site_fract_x
  _atom_site_fract_y
  _atom_site_fract_z
C1 C 0.19000 0.15973 0.18887
 C2 C 0.17939 0.14984 0.21019
 C3 C 0.15832 0.16066 0.22046
 C4 C 0.14775 0.18149 0.20949
 C5 C 0.15814 0.19161 0.18815
 C6 C 0.17936 0.18070 0.17776
 C7 C 0.21098 0.14894 0.17836
 C8 C 0.22134 0.15887 0.15694
 C9 C 0.21083 0.17970 0.14593
 C10 C 0.18986 0.19071 0.15620
 C11 C 0.17910 0.21146 0.14523
 C12 C 0.15806 0.22221 0.15554
 C13 C 0.14763 0.21235 0.17693
 H14 H 0.18745 0.13369 0.21875
 H15 H 0.13142 0.18975 0.21749
 H16 H 0.21917 0.13278 0.18677
 H17 H 0.21892 0.18727 0.12933
 H18 H 0.18700 0.21921 0.12863
 H19 H 0.13131 0.22079 0.18475
 C20 C -0.18616 0.84403 0.19172
 C21 C -0.17509 0.85448 0.21254
 C22 C -0.15368 0.84407 0.22251
 C23 C -0.14320 0.82310 0.21175
 C24 C -0.15403 0.81243 0.19093
 C25 C -0.17561 0.82291 0.18083
 C26 C -0.20753 0.85437 0.18153
 C27 C -0.21838 0.84385 0.16065
 C28 C -0.20795 0.82288 0.14984
 C29 C -0.18658 0.81231 0.15980
 C30 C -0.17594 0.79139 0.14907
 C31 C -0.15455 0.78104 0.15912
 C32 C -0.14364 0.79150 0.17996
 H33 H -0.18310 0.87072 0.22095
 H34 H -0.12660 0.81514 0.21955
 H35 H -0.21568 0.87062 0.18980
 H36 H -0.21642 0.81484 0.13366
 H37 H -0.18423 0.78316 0.13291
 H38 H -0.12707 0.78336 0.18758
 C39 C -0.19166 0.15450 -0.18850
 C40 C -0.18049 0.14439 -0.20946
 C41 C -0.15969 0.15553 -0.21976
 C42 C -0.14991 0.17687 -0.20922
 C43 C -0.16084 0.18722 -0.18826
 C44 C -0.18182 0.17602 -0.17782
 C45 C -0.21245 0.14345 -0.17799
 C46 C -0.22341 0.15366 -0.15699
 C47 C -0.21368 0.17501 -0.14638
 C48 C -0.19290 0.18629 -0.15667
 C49 C -0.18295 0.20760 -0.14614
 C50 C -0.16214 0.21866 -0.15652
 C51 C -0.15114 0.20853 -0.17750
 H52 H -0.18790 0.12786 -0.21775
 H53 H -0.13378 0.18533 -0.21732
 H54 H -0.22006 0.12691 -0.18610
 H55 H -0.22224 0.18281 -0.13012
 H56 H -0.19131 0.21558 -0.12987
 H57 H -0.13502 0.21722 -0.18538
 C58 C 0.18988 0.84239 -0.18879
 C59 C 0.18004 0.85354 -0.20990
 C60 C 0.15908 0.84371 -0.22124
 C61 C 0.14785 0.82265 -0.21157
 C62 C 0.15746 0.81129 -0.19046
 C63 C 0.17856 0.82118 -0.17899
 C64 C 0.21079 0.85212 -0.17724
 C65 C 0.22040 0.84090 -0.15610
 C66 C 0.20923 0.81987 -0.14637
 C67 C 0.18831 0.80989 -0.15768
 C68 C 0.17692 0.78889 -0.14803
 C69 C 0.15599 0.77914 -0.15942
 C70 C 0.14630 0.79027 -0.18056
 H71 H 0.18863 0.86986 -0.21746
 H72 H 0.13162 0.81515 -0.22041
 H73 H 0.21956 0.86842 -0.18461
 H74 H 0.21680 0.81134 -0.12998
 H75 H 0.18426 0.78014 -0.13165
 H76 H 0.13008 0.78258 -0.18923
 C77 C 0.15946 1.19013 0.81147
 C78 C 0.14949 1.17953 0.79017
 C79 C 0.16024 1.15843 0.77993
 C80 C 0.18106 1.14781 0.79090
 C81 C 0.19124 1.15819 0.81221
 C82 C 0.18042 1.17944 0.82256
 C83 C 0.14877 1.21117 0.82193
 C84 C 0.15879 1.22154 0.84329
 C85 C 0.17961 1.21098 0.85431
 C86 C 0.19052 1.18995 0.84408
 C87 C 0.21126 1.17914 0.85504
 C88 C 0.22192 1.15805 0.84476
 C89 C 0.21198 1.14763 0.82342
 H90 H 0.13335 1.18763 0.78161
 H91 H 0.18927 1.13146 0.78292
 H92 H 0.13262 1.21941 0.81352
 H93 H 0.18727 1.21908 0.87086
 H94 H 0.21908 1.18705 0.87159
 H95 H 0.22036 1.13127 0.81563
 C96 C 0.84360 0.81323 0.80795
 C97 C 0.85398 0.82435 0.78712
 C98 C 0.84349 0.84574 0.77721
 C99 C 0.82251 0.85615 0.78806
 C100 C 0.81191 0.84527 0.80890
 C101 C 0.82248 0.82371 0.81893
 C102 C 0.85402 0.79188 0.81807
 C103 C 0.84357 0.78098 0.83896
 C104 C 0.82260 0.79134 0.84985
 C105 C 0.81196 0.81269 0.83997
 C106 C 0.79104 0.82327 0.85080
 C107 C 0.78062 0.84465 0.84085
 C108 C 0.79099 0.85560 0.81997
 H109 H 0.87024 0.81640 0.77865
 H110 H 0.81449 0.87272 0.78032
 H111 H 0.87028 0.78379 0.80974
 H112 H 0.81461 0.78283 0.86604
 H113 H 0.78288 0.81495 0.86699
 H114 H 0.78279 0.87216 0.81242
 C115 C 0.15405 0.80838 1.18832
 C116 C 0.14400 0.81948 1.20935
 C117 C 0.15516 0.84025 1.21963
 C118 C 0.17647 0.85008 1.20903
 C119 C 0.18676 0.83922 1.18801
 C120 C 0.17552 0.81828 1.17757
 C121 C 0.14296 0.78764 1.17780
 C122 C 0.15309 0.77677 1.15672
 C123 C 0.17441 0.78655 1.14604
 C124 C 0.18572 0.80728 1.15633
 C125 C 0.20700 0.81727 1.14573
 C126 C 0.21809 0.83805 1.15611
 C127 C 0.20803 0.84897 1.17717
 H128 H 0.12749 0.81203 1.21769
 H129 H 0.18495 0.86619 1.21713
 H130 H 0.12644 0.78000 1.18596
 H131 H 0.18214 0.77806 1.12971
 H132 H 0.21491 0.80898 1.12940
 H133 H 0.21674 0.86506 1.18504
 C134 C 0.84274 1.18976 1.18912
 C135 C 0.85390 1.17982 1.21018
 C136 C 0.84413 1.15877 1.22136
 C137 C 0.82311 1.14753 1.21156
 C138 C 0.81173 1.15724 1.19051
 C139 C 0.82156 1.17845 1.17921
 C140 C 0.85241 1.21077 1.17774
 C141 C 0.84117 1.22050 1.15667
 C142 C 0.82017 1.20933 1.14682
 C143 C 0.81025 1.18831 1.15796
 C144 C 0.78928 1.17694 1.14822
 C145 C 0.77958 1.15591 1.15945
 C146 C 0.79074 1.14610 1.18052
 H147 H 0.87018 1.18841 1.21784
 H148 H 0.81565 1.13122 1.22029
 H149 H 0.86868 1.21954 1.18520
 H150 H 0.81162 1.21700 1.13049
 H151 H 0.78051 1.18437 1.13189
 H152 H 0.78309 1.12979 1.18905
 O153 O 0.46567 0.95153 0.96081
 O154 O 0.43851 0.97511 0.98304
 C155 C 0.44361 0.95803 0.96726
 O156 O 0.53470 0.95416 1.04872
 O157 O 0.56158 0.97652 1.02504
 C158 C 0.55668 0.96073 1.04217
 O159 O 0.46552 0.95145 1.04613
 O160 O 0.43843 0.97508 1.02382
 C161 C 0.44348 0.95794 1.03957
 O162 O 0.53484 0.95418 0.95857
 O163 O 0.56164 0.97653 0.98232
 C164 C 0.55680 0.96076 0.96518
 Zr165 Zr 0.50016 0.96556 0.97246
 O166 O 0.50323 0.92676 0.97268
 O167 O 0.49739 0.96557 0.93361
 Zr168 Zr 0.50006 0.96557 1.03471
 O169 O 0.50316 0.92677 1.03467
 O170 O 0.49714 0.96569 1.07354
 O171 O 0.47822 0.96068 1.00354
 O172 O 0.52150 0.96117 1.00362
 O173 O 0.53427 1.03941 0.95851
 O174 O 0.56138 1.01729 0.98230
 C175 C 0.55632 1.03301 0.96513
 O176 O 0.46497 1.04158 1.04615
 O177 O 0.43817 1.01777 1.02385
 C178 C 0.44301 1.03492 1.03962
 O179 O 0.53414 1.03947 1.04865
 O180 O 0.56131 1.01731 1.02501
 C181 C 0.55620 1.03308 1.04211
 O182 O 0.46511 1.04155 0.96076
 O183 O 0.43823 1.01777 0.98301
 C184 C 0.44313 1.03489 0.96721
 Zr185 Zr 0.49975 1.02777 0.97243
 O186 O 0.50235 1.06659 0.97257
 O187 O 0.49698 1.02771 0.93358
 Zr188 Zr 0.49965 1.02776 1.03468
 O189 O 0.50221 1.06658 1.03462
 O190 O 0.49677 1.02757 1.07352
 Zr191 Zr 0.46336 0.99653 1.00349
 Zr192 Zr 0.53645 0.99681 1.00363
 O193 O 0.52104 1.03233 1.00359
 O194 O 0.47776 1.03248 1.00351
 O195 O 0.52187 0.99675 0.96767
 O196 O 0.47848 0.99658 1.03914
 O197 O 0.47861 0.99658 0.96792
 O198 O 0.52177 0.99675 1.03954
 H199 H 0.53279 0.94684 1.00365
 H200 H 0.46725 0.99652 1.05349
 H201 H 0.53213 1.04675 1.00359
 H202 H 0.46745 0.99654 0.95350
 H203 H 0.51083 0.97573 1.08001
 H204 H 0.51065 1.01772 1.07999
 H205 H 0.48854 1.07296 1.02443
 H206 H 0.48846 1.07299 0.98243
 H207 H 0.51070 1.01762 0.92716
 H208 H 0.51103 0.97569 0.92717
 H209 H 0.48940 0.92028 0.98253
 H210 H 0.48954 0.92026 1.02454
 O211 O 0.03923 0.53402 -0.04863
 O212 O 0.01713 0.56117 -0.02494
 C213 C 0.03287 0.55606 -0.04208
 O214 O -0.04892 0.46555 -0.04578
 O215 O -0.02523 0.43847 -0.02353
 C216 C -0.04242 0.44353 -0.03925
 O217 O -0.04616 0.53464 -0.04841
 O218 O -0.02368 0.56148 -0.02482
 C219 C -0.03953 0.55660 -0.04191
 O220 O 0.04126 0.46492 -0.04611
 O221 O 0.01750 0.43816 -0.02370
 C222 C 0.03461 0.44299 -0.03955
 Zr223 Zr 0.02751 0.49958 -0.03461
 O224 O 0.02716 0.49669 -0.07344
 O225 O 0.06637 0.50210 -0.03471
 Zr226 Zr -0.03475 0.50003 -0.03439
 O227 O -0.03482 0.49711 -0.07322
 O228 O -0.07358 0.50316 -0.03415
 O229 O -0.00353 0.52169 -0.03936
 O230 O -0.00374 0.47845 -0.03893
 O231 O 0.04154 0.46508 0.03929
 O232 O 0.01764 0.43825 0.01714
 C233 C 0.03483 0.44313 0.03288
 O234 O -0.04577 0.53483 0.04182
 O235 O -0.02350 0.56157 0.01792
 C236 C -0.03918 0.55676 0.03518
 O237 O -0.04855 0.46573 0.03959
 O238 O -0.02506 0.43856 0.01728
 C239 C -0.04209 0.44368 0.03314
 O240 O 0.03945 0.53420 0.04151
 O241 O 0.01724 0.56127 0.01778
 C242 C 0.03302 0.55622 0.03491
 Zr243 Zr 0.02775 0.49970 0.02764
 O244 O 0.02789 0.49695 0.06649
 O245 O 0.06661 0.50226 0.02729
 Zr246 Zr -0.03453 0.50016 0.02784
 O247 O -0.03447 0.49741 0.06669
 O248 O -0.07337 0.50330 0.02770
 Zr249 Zr -0.00333 0.53637 -0.00346
 Zr250 Zr -0.00367 0.46335 -0.00328
 O251 O -0.00348 0.47861 0.03229
 O252 O -0.00327 0.52181 0.03250
 O253 O 0.03233 0.47771 -0.00344
 O254 O -0.03903 0.52148 -0.00331
 O255 O 0.03221 0.52095 -0.00355
 O256 O -0.03954 0.47823 -0.00320
 H257 H -0.00385 0.46724 -0.05328
 H258 H -0.05334 0.53279 -0.00328
 H259 H -0.00347 0.46748 0.04672
 H260 H 0.04666 0.53202 -0.00361
 H261 H -0.08006 0.48952 -0.02404
 H262 H -0.07991 0.48941 0.01799
 H263 H -0.02410 0.51088 0.07309
 H264 H 0.01784 0.51067 0.07296
 H265 H 0.07295 0.48834 0.01744
 H266 H 0.07280 0.48842 -0.02457
 H267 H 0.01732 0.51059 -0.07988
 H268 H -0.02471 0.51072 -0.07975
 O269 O 1.04875 -0.03974 0.53432
 O270 O 1.02489 -0.01784 0.56148
 C271 C 1.04211 -0.03352 0.55637
 O272 O 1.04608 0.04814 0.46564
 O273 O 1.02382 0.02456 0.43858
 C274 C 1.03961 0.04162 0.44361
 O275 O 1.04874 0.04567 0.53460
 O276 O 1.02491 0.02362 0.56160
 C277 C 1.04208 0.03931 0.55660
 O278 O 1.04607 -0.04184 0.46541
 O279 O 1.02370 -0.01810 0.43848
 C280 C 1.03952 -0.03524 0.44342
 Zr281 Zr 1.03443 -0.02800 0.50001
 O282 O 1.07329 -0.02798 0.49766
 O283 O 1.03410 -0.06683 0.50267
 Zr284 Zr 1.03465 0.03400 0.50022
 O285 O 1.07341 0.03121 0.49897
 O286 O 1.03584 0.07280 0.50275
 O287 O 1.03922 0.00293 0.52214
 O288 O 1.03901 0.00307 0.47865
 O289 O 0.96063 -0.04152 0.46545
 O290 O 0.98288 -0.01783 0.43848
 C291 C 0.96708 -0.03490 0.44345
 O292 O 0.95831 0.04613 0.53459
 O293 O 0.98194 0.02380 0.56161
 C294 C 0.96484 0.03963 0.55660
 O295 O 0.96075 0.04842 0.46565
 O296 O 0.98300 0.02477 0.43859
 C297 C 0.96720 0.04189 0.44362
 O298 O 0.95834 -0.03937 0.53466
 O299 O 0.98202 -0.01733 0.56184
 C300 C 0.96489 -0.03302 0.55673
 Zr301 Zr 0.97222 -0.02773 0.50007
 O302 O 0.93336 -0.02737 0.49727
 O303 O 0.97211 -0.06655 0.50278
 Zr304 Zr 0.97240 0.03440 0.50018
 O305 O 0.93355 0.03460 0.49736
 O306 O 0.97283 0.07321 0.50306
 Zr307 Zr 1.00336 0.00305 0.53687
 Zr308 Zr 1.00337 0.00328 0.46357
 O309 O 0.96778 0.00341 0.47877
 O310 O 0.96747 0.00330 0.52208
 O311 O 1.00330 -0.03264 0.47812
 O312 O 1.00353 0.03861 0.52160
 O313 O 1.00333 -0.03243 0.52144
 O314 O 1.00353 0.03910 0.47831
 H315 H 1.05339 0.00303 0.46746
 H316 H 1.00358 0.05306 0.53269
 H317 H 0.95337 0.00351 0.46761
 H318 H 1.00333 -0.04689 0.53252
 H319 H 1.02429 0.07940 0.49033
 H320 H 0.98241 0.07963 0.48900
 H321 H 0.92707 0.02432 0.51088
 H322 H 0.92694 -0.01761 0.51121
 H323 H 0.98228 -0.07301 0.48914
 H324 H 1.02428 -0.07316 0.48874
 H325 H 1.07932 -0.01521 0.50911
 H326 H 1.07967 0.04830 0.49883
 C327 C 1.14795 0.15072 0.24098
 C328 C 1.13877 0.14179 0.25907
 C329 C 1.12779 0.13093 0.28056
 C330 C 1.10674 0.14143 0.29105
 C331 C 1.09590 0.13066 0.31173
 C332 C 1.10597 0.10920 0.32216
 C333 C 1.12721 0.09886 0.31152
 C334 C 1.13803 0.10966 0.29086
 C335 C 1.09428 0.09752 0.34390
 C336 C 1.09230 0.07179 0.34545
 C337 C 1.08123 0.06078 0.36586
 C338 C 1.07200 0.07530 0.38499
 C339 C 1.07386 0.10092 0.38365
 C340 C 1.08492 0.11198 0.36324
 C341 C 1.06057 0.06384 0.40592
 C342 C 1.05100 0.05389 0.42326
 H343 H 1.09863 0.15785 0.28317
 H344 H 1.07939 0.13888 0.31930
 H345 H 1.13559 0.08254 0.31931
 H346 H 1.15436 0.10142 0.28292
 H347 H 1.09900 0.06018 0.33072
 H348 H 1.07980 0.04093 0.36667
 H349 H 1.06682 0.11233 0.39839
 H350 H 1.08642 0.13181 0.36272
 C351 C 0.85707 -0.14555 0.24261
 C352 C 0.86660 -0.13630 0.26036
 C353 C 0.87797 -0.12516 0.28148
 C354 C 0.87062 -0.10173 0.28917
 C355 C 0.88170 -0.09083 0.30963
 C356 C 0.90033 -0.10324 0.32268
 C357 C 0.90760 -0.12680 0.31480
 C358 C 0.89647 -0.13768 0.29434
 C359 C 0.91216 -0.09162 0.34437
 C360 C 0.93771 -0.09368 0.34813
 C361 C 0.94885 -0.08249 0.36840
 C362 C 0.93462 -0.06912 0.38520
 C363 C 0.90920 -0.06705 0.38170
 C364 C 0.89802 -0.07821 0.36143
 C365 C 0.94612 -0.05728 0.40586
 C366 C 0.95570 -0.04717 0.42309
 H367 H 0.85637 -0.09185 0.27929
 H368 H 0.87594 -0.07255 0.31502
 H369 H 0.92166 -0.13694 0.32464
 H370 H 0.90226 -0.15585 0.28858
 H371 H 0.94913 -0.10361 0.33517
 H372 H 0.96856 -0.08412 0.37090
 H373 H 0.89801 -0.05678 0.39461
 H374 H 0.87829 -0.07656 0.35923
 C375 C 0.85175 0.14494 0.75884
 C376 C 0.86138 0.13604 0.74095
 C377 C 0.87291 0.12538 0.71965
 C378 C 0.89859 0.12424 0.71807
 C379 C 0.90983 0.11379 0.69744
 C380 C 0.89551 0.10431 0.67809
 C381 C 0.86971 0.10557 0.67984
 C382 C 0.85850 0.11604 0.70049
 C383 C 0.90745 0.09309 0.65622
 C384 C 0.89783 0.07159 0.64557
 C385 C 0.90923 0.06091 0.62513
 C386 C 0.93034 0.07158 0.61504
 C387 C 0.94001 0.09300 0.62545
 C388 C 0.92866 0.10370 0.64589
 C389 C 0.94228 0.06039 0.59423
 C390 C 0.95246 0.05096 0.57694
 H391 H 0.90992 0.13135 0.73284
 H392 H 0.92972 0.11280 0.69679
 H393 H 0.85819 0.09872 0.66512
 H394 H 0.83861 0.11689 0.70150
 H395 H 0.88173 0.06280 0.65329
 H396 H 0.90166 0.04425 0.61729
 H397 H 0.95634 0.10142 0.61777
 H398 H 0.93633 0.12041 0.65347
 C399 C 1.14951 -0.14525 0.75838
 C400 C 1.14094 -0.13546 0.74040
 C401 C 1.13059 -0.12377 0.71901
 C402 C 1.12292 -0.09923 0.72014
 C403 C 1.11256 -0.08793 0.69947
 C404 C 1.10972 -0.10106 0.67737
 C405 C 1.11759 -0.12571 0.67639
 C406 C 1.12795 -0.13697 0.69708
 C407 C 1.09835 -0.08919 0.65552
 C408 C 1.08164 -0.10222 0.64069
 C409 C 1.07065 -0.09093 0.62034
 C410 C 1.07623 -0.06652 0.61451
 C411 C 1.09290 -0.05343 0.62907
 C412 C 1.10390 -0.06467 0.64944
 C413 C 1.06451 -0.05482 0.59383
 C414 C 1.05444 -0.04507 0.57664
 H415 H 1.12480 -0.08887 0.73705
 H416 H 1.10639 -0.06905 0.70092
 H417 H 1.11594 -0.13621 0.65956
 H418 H 1.13388 -0.15596 0.69598
 H419 H 1.07672 -0.12098 0.64507
 H420 H 1.05768 -0.10120 0.60926
 H421 H 1.09735 -0.03453 0.62471
 H422 H 1.11691 -0.05426 0.66031
 C423 C 0.24152 1.14809 1.14666
 C424 C 0.25929 1.13848 1.13749
 C425 C 0.28040 1.12691 1.12643
 C426 C 0.30321 1.13879 1.12651
 C427 C 0.32368 1.12758 1.11566
 C428 C 0.32158 1.10432 1.10455
 C429 C 0.29856 1.09253 1.10459
 C430 C 0.27813 1.10377 1.11547
 C431 C 0.34328 1.09239 1.09296
 C432 C 0.34087 1.07964 1.07058
 C433 C 0.36125 1.06826 1.05977
 C434 C 0.38431 1.06945 1.07116
 C435 C 0.38693 1.08214 1.09339
 C436 C 0.36657 1.09356 1.10423
 C437 C 0.40519 1.05747 1.06012
 C438 C 0.42255 1.04727 1.05080
 H439 H 0.30515 1.15675 1.13489
 H440 H 0.34107 1.13725 1.11566
 H441 H 0.29643 1.07449 1.09649
 H442 H 0.26057 1.09438 1.11536
 H443 H 0.32327 1.07870 1.06129
 H444 H 0.35903 1.05853 1.04252
 H445 H 0.40468 1.08310 1.10240
 H446 H 0.36896 1.10296 1.12161
 C447 C 0.24175 0.85111 0.85573
 C448 C 0.25959 0.85970 0.86567
 C449 C 0.28083 0.87006 0.87755
 C450 C 0.30448 0.86418 0.86920
 C451 C 0.32511 0.87441 0.88060
 C452 C 0.32234 0.89068 0.90054
 C453 C 0.29848 0.89638 0.90886
 C454 C 0.27788 0.88614 0.89741
 C455 C 0.34422 0.90185 0.91246
 C456 C 0.34526 0.90460 0.93818
 C457 C 0.36569 0.91550 0.94932
 C458 C 0.38533 0.92379 0.93492
 C459 C 0.38454 0.92103 0.90934
 C460 C 0.36414 0.91012 0.89817
 C461 C 0.40609 0.93555 0.94634
 C462 C 0.42333 0.94566 0.95588
 H463 H 0.30697 0.85169 0.85388
 H464 H 0.34323 0.86942 0.87398
 H465 H 0.29573 0.90909 0.92394
 H466 H 0.25966 0.89087 0.90398
 H467 H 0.33037 0.89815 0.94970
 H468 H 0.36614 0.91753 0.96914
 H469 H 0.39960 0.92750 0.89802
 H470 H 0.36375 0.90857 0.87832
 C471 C 0.76100 0.85414 1.15073
 C472 C 0.74280 0.86327 1.14188
 C473 C 0.72114 0.87419 1.13120
 C474 C 0.71123 0.86456 1.10950
 C475 C 0.69030 0.87525 1.09899
 C476 C 0.67900 0.89575 1.11006
 C477 C 0.68909 0.90527 1.13190
 C478 C 0.71002 0.89454 1.14239
 C479 C 0.65690 0.90724 1.09874
 C480 C 0.65435 0.93298 1.09797
 C481 C 0.63375 0.94379 1.08694
 C482 C 0.61541 0.92904 1.07658
 C483 C 0.61770 0.90343 1.07738
 C484 C 0.63829 0.89258 1.08839
 C485 C 0.59449 0.94018 1.06473
 C486 C 0.57712 0.94954 1.05457
 H487 H 0.71975 0.84887 1.10064
 H488 H 0.68319 0.86771 1.08200
 H489 H 0.68065 0.92084 1.14102
 H490 H 0.71751 0.90211 1.15922
 H491 H 0.66850 0.94477 1.10549
 H492 H 0.63221 0.96364 1.08632
 H493 H 0.60359 0.89184 1.06944
 H494 H 0.63955 0.87273 1.08898
 C495 C 0.75651 1.14273 0.85321
 C496 C 0.73878 1.13305 0.86231
 C497 C 0.71767 1.12151 0.87329
 C498 C 0.69551 1.13447 0.87546
 C499 C 0.67508 1.12338 0.88640
 C500 C 0.67656 1.09914 0.89534
 C501 C 0.69890 1.08623 0.89296
 C502 C 0.71931 1.09736 0.88202
 C503 C 0.65497 1.08746 0.90729
 C504 C 0.64931 1.06263 0.90280
 C505 C 0.62912 1.05162 0.91428
 C506 C 0.61435 1.06525 0.93037
 C507 C 0.61978 1.08996 0.93491
 C508 C 0.63995 1.10101 0.92345
 C509 C 0.59376 1.05385 0.94243
 C510 C 0.57660 1.04433 0.95270
 H511 H 0.69402 1.15316 0.86870
 H512 H 0.65806 1.13369 0.88767
 H513 H 0.70072 1.06767 0.89994
 H514 H 0.73640 1.08719 0.88050
 H515 H 0.66034 1.05180 0.89023
 H516 H 0.62505 1.03249 0.91061
 H517 H 0.60852 1.10065 0.94742
 H518 H 0.64402 1.12004 0.92755
 C519 C 0.14696 0.24329 0.14396
 C520 C 0.13758 0.26086 0.13419
 C521 C 0.12628 0.28173 0.12244
 C522 C 0.11137 0.27838 0.10173
 C523 C 0.10023 0.29860 0.09038
 C524 C 0.10387 0.32248 0.09960
 C525 C 0.11897 0.32566 0.12038
 C526 C 0.13008 0.30541 0.13173
 C527 C 0.09187 0.34395 0.08766
 C528 C 0.10468 0.36619 0.08465
 C529 C 0.09330 0.38639 0.07347
 C530 C 0.06899 0.38464 0.06518
 C531 C 0.05610 0.36260 0.06808
 C532 C 0.06744 0.34238 0.07923
 C533 C 0.05720 0.40543 0.05378
 C534 C 0.04711 0.42273 0.04424
 H535 H 0.10837 0.26014 0.09435
 H536 H 0.08898 0.29559 0.07422
 H537 H 0.12188 0.34377 0.12810
 H538 H 0.14154 0.30819 0.14779
 H539 H 0.12359 0.36787 0.09066
 H540 H 0.10347 0.40335 0.07126
 H541 H 0.03724 0.36107 0.06180
 H542 H 0.05698 0.32563 0.08158
 C543 C -0.15190 0.24039 -0.14549
 C544 C -0.14316 0.25854 -0.13629
 C545 C -0.13255 0.28013 -0.12537
 C546 C -0.14175 0.28927 -0.10313
 C547 C -0.13123 0.31010 -0.09239
 C548 C -0.11134 0.32208 -0.10380
 C549 C -0.10229 0.31278 -0.12620
 C550 C -0.11283 0.29195 -0.13689
 C551 C -0.09992 0.34402 -0.09231
 C552 C -0.09248 0.36408 -0.10685
 C553 C -0.08128 0.38452 -0.09607
 C554 C -0.07738 0.38521 -0.07064
 C555 C -0.08485 0.36543 -0.05598
 C556 C -0.09607 0.34498 -0.06672
 C557 C -0.06532 0.40599 -0.05963
 C558 C -0.05499 0.42324 -0.05037
 H559 H -0.15704 0.28028 -0.09408
 H560 H -0.13880 0.31697 -0.07530
 H561 H -0.08679 0.32137 -0.13526
 H562 H -0.10550 0.28497 -0.15406
 H563 H -0.09548 0.36404 -0.12654
 H564 H -0.07560 0.39974 -0.10758
 H565 H -0.08183 0.36574 -0.03628
 H566 H -0.10129 0.32971 -0.05507
 C567 C 0.14433 0.75769 -0.14927
 C568 C 0.13459 0.73977 -0.14064
 C569 C 0.12302 0.71843 -0.13018
 C570 C 0.13424 0.70597 -0.11063
 C571 C 0.12296 0.68535 -0.10030
 C572 C 0.10026 0.67691 -0.10939
 C573 C 0.08914 0.68954 -0.12908
 C574 C 0.10047 0.71016 -0.13941
 C575 C 0.08818 0.65513 -0.09824
 C576 C 0.06258 0.65487 -0.09432
 C577 C 0.05131 0.63453 -0.08341
 C578 C 0.06543 0.61419 -0.07631
 C579 C 0.09087 0.61420 -0.08026
 C580 C 0.10218 0.63451 -0.09116
 C581 C 0.05391 0.59351 -0.06455
 C582 C 0.04429 0.57631 -0.05445
 H583 H 0.15165 0.71227 -0.10329
 H584 H 0.13181 0.67624 -0.08494
 H585 H 0.07182 0.68333 -0.13668
 H586 H 0.09165 0.71964 -0.15457
 H587 H 0.05135 0.67057 -0.09927
 H588 H 0.03161 0.63476 -0.08032
 H589 H 0.10197 0.59853 -0.07485
 H590 H 0.12186 0.63402 -0.09422
 C591 C -0.14366 0.75966 0.14791
 C592 C -0.13449 0.74178 0.13852
 C593 C -0.12350 0.72048 0.12726
 C594 C -0.13233 0.69698 0.13280
 C595 C -0.12173 0.67629 0.12179
 C596 C -0.10212 0.67884 0.10509
 C597 C -0.09334 0.70255 0.09970
 C598 C -0.10398 0.72322 0.11072
 C599 C -0.09097 0.65689 0.09322
 C600 C -0.06534 0.65523 0.08993
 C601 C -0.05490 0.63469 0.07850
 C602 C -0.06991 0.61555 0.07021
 C603 C -0.09541 0.61697 0.07347
 C604 C -0.10589 0.63748 0.08492
 C605 C -0.05918 0.59462 0.05806
 C606 C -0.05012 0.57722 0.04771
 H607 H -0.14739 0.69465 0.14564
 H608 H -0.12869 0.65827 0.12656
 H609 H -0.07850 0.70515 0.08668
 H610 H -0.09705 0.74133 0.10625
 H611 H -0.05334 0.66971 0.09640
 H612 H -0.03513 0.63375 0.07610
 H613 H -0.10721 0.60230 0.06703
 H614 H -0.12570 0.63835 0.08689
 C615 C 1.15030 0.14810 0.75940
 C616 C 1.14141 0.13891 0.74129
 C617 C 1.13066 0.12791 0.71977
 C618 C 1.14058 0.10624 0.71004
 C619 C 1.12993 0.09537 0.68932
 C620 C 1.10916 0.10605 0.67808
 C621 C 1.09940 0.12790 0.68796
 C622 C 1.11010 0.13874 0.70866
 C623 C 1.09758 0.09433 0.65631
 C624 C 1.07180 0.09335 0.65412
 C625 C 1.06088 0.08222 0.63370
 C626 C 1.07553 0.07192 0.61521
 C627 C 1.10118 0.07281 0.61718
 C628 C 1.11216 0.08393 0.63760
 C629 C 1.06415 0.06039 0.59430
 C630 C 1.05428 0.05075 0.57697
 H631 H 1.15646 0.09766 0.71855
 H632 H 1.13768 0.07840 0.68235
 H633 H 1.08364 0.13674 0.67954
 H634 H 1.10230 0.15555 0.71601
 H635 H 1.06008 0.10088 0.66836
 H636 H 1.04099 0.08156 0.63240
 H637 H 1.11269 0.06493 0.60294
 H638 H 1.13204 0.08465 0.63861
 C639 C 0.85381 -0.14347 0.75710
 C640 C 0.86302 -0.13391 0.73935
 C641 C 0.87415 -0.12251 0.71823
 C642 C 0.86170 -0.10387 0.70554
 C643 C 0.87259 -0.09269 0.68510
 C644 C 0.89609 -0.10007 0.67708
 C645 C 0.90843 -0.11886 0.68997
 C646 C 0.89752 -0.12998 0.71040
 C647 C 0.90774 -0.08818 0.65544
 C648 C 0.92101 -0.10228 0.63824
 C649 C 0.93223 -0.09105 0.61803
 C650 C 0.93034 -0.06561 0.61472
 C651 C 0.91710 -0.05142 0.63164
 C652 C 0.90585 -0.06262 0.65187
 C653 C 0.94228 -0.05405 0.59414
 C654 C 0.95249 -0.04443 0.57699
 H655 H 0.84357 -0.09798 0.71142
 H656 H 0.86250 -0.07850 0.67540
 H657 H 0.92667 -0.12470 0.68446
 H658 H 0.90735 -0.14434 0.72015
 H659 H 0.92253 -0.12202 0.64029
 H660 H 0.94240 -0.10220 0.60501
 H661 H 0.91561 -0.03170 0.62930
 H662 H 0.89604 -0.05123 0.66494
 C663 C 1.14459 -0.14834 0.24107
 C664 C 1.13569 -0.13873 0.25896
 C665 C 1.12502 -0.12719 0.28026
 C666 C 1.11637 -0.14155 0.29978
 C667 C 1.10589 -0.13033 0.32042
 C668 C 1.10395 -0.10457 0.32181
 C669 C 1.11273 -0.09031 0.30209
 C670 C 1.12319 -0.10156 0.28146
 C671 C 1.09275 -0.09262 0.34368
 C672 C 1.10296 -0.07100 0.35350
 C673 C 1.09229 -0.05964 0.37395
 C674 C 1.07129 -0.06972 0.38486
 C675 C 1.06102 -0.09124 0.37528
 C676 C 1.07167 -0.10264 0.35483
 C677 C 1.06014 -0.05779 0.40570
 C678 C 1.05076 -0.04761 0.42302
 H679 H 1.11776 -0.16140 0.29906
 H680 H 1.09959 -0.14179 0.33542
 H681 H 1.11120 -0.07047 0.30245
 H682 H 1.12975 -0.09028 0.26641
 H683 H 1.11935 -0.06302 0.34552
 H684 H 1.10040 -0.04300 0.38125
 H685 H 1.04469 -0.09912 0.38352
 H686 H 1.06319 -0.11907 0.34751
 C687 C 0.85515 0.14911 0.24171
 C688 C 0.86490 0.14048 0.25968
 C689 C 0.87650 0.13003 0.28107
 C690 C 0.89846 0.13996 0.29005
 C691 C 0.90984 0.12964 0.31071
 C692 C 0.89936 0.10924 0.32266
 C693 C 0.87724 0.09945 0.31351
 C694 C 0.86591 0.10978 0.29285
 C695 C 0.91152 0.09810 0.34447
 C696 C 0.89747 0.09000 0.36463
 C697 C 0.90888 0.07910 0.38496
 C698 C 0.93446 0.07616 0.38543
 C699 C 0.94862 0.08429 0.36554
 C700 C 0.93725 0.09521 0.34520
 C701 C 0.94610 0.06438 0.40610
 C702 C 0.95577 0.05426 0.42331
 H703 H 0.90678 0.15567 0.28110
 H704 H 0.92669 0.13778 0.31749
 H705 H 0.86890 0.08355 0.32208
 H706 H 0.84896 0.10189 0.28599
 H707 H 0.87767 0.09226 0.36477
 H708 H 0.89774 0.07290 0.40027
 H709 H 0.96843 0.08201 0.36568
 H710 H 0.94854 0.10097 0.32985
 C711 C 0.14815 0.24181 -0.14651
 C712 C 0.13865 0.25969 -0.13744
 C713 C 0.12720 0.28094 -0.12657
 C714 C 0.13644 0.29077 -0.10466
 C715 C 0.12514 0.31126 -0.09396
 C716 C 0.10441 0.32216 -0.10504
 C717 C 0.09533 0.31218 -0.12712
 C718 C 0.10667 0.29171 -0.13779
 C719 C 0.09220 0.34374 -0.09354
 C720 C 0.06637 0.34557 -0.09308
 C721 C 0.05486 0.36581 -0.08216
 C722 C 0.06898 0.38449 -0.07158
 C723 C 0.09468 0.38288 -0.07195
 C724 C 0.10623 0.36264 -0.08285
 C725 C 0.05706 0.40526 -0.06028
 C726 C 0.04690 0.42255 -0.05082
 H727 H 0.15228 0.28252 -0.09578
 H728 H 0.13238 0.31831 -0.07680
 H729 H 0.07962 0.32036 -0.13627
 H730 H 0.09940 0.28428 -0.15479
 H731 H 0.05506 0.33117 -0.10084
 H732 H 0.03495 0.36684 -0.08190
 H733 H 0.10578 0.39727 -0.06386
 H734 H 0.12614 0.36191 -0.08318
 C735 C -0.14868 0.24196 0.14503
 C736 C -0.14009 0.25990 0.13529
 C737 C -0.12971 0.28126 0.12368
 C738 C -0.13897 0.28954 0.10112
 C739 C -0.12873 0.31017 0.08974
 C740 C -0.10909 0.32282 0.10082
 C741 C -0.09996 0.31437 0.12354
 C742 C -0.11021 0.29373 0.13487
 C743 C -0.09803 0.34462 0.08869
 C744 C -0.09103 0.36524 0.10264
 C745 C -0.08021 0.38557 0.09127
 C746 C -0.07625 0.38559 0.06584
 C747 C -0.08328 0.36525 0.05177
 C748 C -0.09412 0.34490 0.06310
 C749 C -0.06452 0.40626 0.05426
 C750 C -0.05443 0.42344 0.04461
 H751 H -0.15410 0.28004 0.09232
 H752 H -0.13636 0.31640 0.07241
 H753 H -0.08463 0.32349 0.13237
 H754 H -0.10284 0.28742 0.15229
 H755 H -0.09410 0.36572 0.12231
 H756 H -0.07486 0.40124 0.10232
 H757 H -0.08020 0.36503 0.03208
 H758 H -0.09901 0.32920 0.05191
 C759 C -0.14608 0.76038 -0.15119
 C760 C -0.13691 0.74220 -0.14236
 C761 C -0.12597 0.72057 -0.13168
 C762 C -0.13733 0.70893 -0.11175
 C763 C -0.12661 0.68807 -0.10117
 C764 C -0.10433 0.67858 -0.11039
 C765 C -0.09309 0.69039 -0.13048
 C766 C -0.10386 0.71124 -0.14104
 C767 C -0.09281 0.65658 -0.09896
 C768 C -0.06718 0.65544 -0.09539
 C769 C -0.05640 0.63491 -0.08423
 C770 C -0.07106 0.61524 -0.07654
 C771 C -0.09653 0.61613 -0.08013
 C772 C -0.10736 0.63664 -0.09127
 C773 C -0.05999 0.59436 -0.06458
 C774 C -0.05069 0.57701 -0.05435
 H775 H -0.15440 0.71605 -0.10431
 H776 H -0.13554 0.67960 -0.08552
 H777 H -0.07611 0.68336 -0.13818
 H778 H -0.09494 0.72009 -0.15650
 H779 H -0.05552 0.67061 -0.10081
 H780 H -0.03666 0.63445 -0.08144
 H781 H -0.10804 0.60099 -0.07427
 H782 H -0.12708 0.63683 -0.09405
 C783 C 0.14213 0.75673 0.14650
 C784 C 0.13243 0.73903 0.13738
 C785 C 0.12089 0.71795 0.12638
 C786 C 0.09907 0.72073 0.11299
 C787 C 0.08796 0.70031 0.10209
 C788 C 0.09859 0.67680 0.10441
 C789 C 0.12050 0.67420 0.11798
 C790 C 0.13156 0.69465 0.12888
 C791 C 0.08698 0.65515 0.09257
 C792 C 0.10153 0.63722 0.08084
 C793 C 0.09059 0.61698 0.06944
 C794 C 0.06499 0.61436 0.06963
 C795 C 0.05034 0.63203 0.08131
 C796 C 0.06124 0.65230 0.09271
 C797 C 0.05375 0.59370 0.05758
 C798 C 0.04432 0.57650 0.04732
 H799 H 0.09070 0.73871 0.11087
 H800 H 0.07129 0.70297 0.09149
 H801 H 0.12895 0.65632 0.12037
 H802 H 0.14842 0.69229 0.13926
 H803 H 0.12135 0.63906 0.08012
 H804 H 0.10209 0.60346 0.06036
 H805 H 0.03050 0.63016 0.08159
 H806 H 0.04957 0.66562 0.10184
 C807 C 0.24302 1.14693 0.85630
 C808 C 0.26062 1.13753 0.86603
 C809 C 0.28154 1.12622 0.87769
 C810 C 0.27855 1.11315 0.89965
 C811 C 0.29882 1.10200 0.91094
 C812 C 0.32239 1.10380 0.90039
 C813 C 0.32521 1.11705 0.87834
 C814 C 0.30491 1.12817 0.86707
 C815 C 0.34389 1.09180 0.91229
 C816 C 0.36680 1.10377 0.91327
 C817 C 0.38702 1.09241 0.92447
 C818 C 0.38462 1.06898 0.93480
 C819 C 0.36193 1.05693 0.93392
 C820 C 0.34169 1.06825 0.92275
 C821 C 0.40542 1.05721 0.94623
 C822 C 0.42272 1.04714 0.95581
 H823 H 0.26055 1.11159 0.90807
 H824 H 0.29610 1.09221 0.92807
 H825 H 0.34305 1.11850 0.86960
 H826 H 0.30741 1.13819 0.85003
 H827 H 0.36900 1.12202 0.90565
 H828 H 0.40450 1.10192 0.92510
 H829 H 0.35989 1.03875 0.94179
 H830 H 0.32440 1.05843 0.92200
 C831 C 0.23977 0.84834 1.14498
 C832 C 0.25786 0.85709 1.13565
 C833 C 0.27939 0.86768 1.12451
 C834 C 0.27723 0.88136 1.10281
 C835 C 0.29807 0.89192 1.09211
 C836 C 0.32138 0.88894 1.10302
 C837 C 0.32336 0.87508 1.12480
 C838 C 0.30249 0.86452 1.13545
 C839 C 0.34347 0.90047 1.09185
 C840 C 0.36139 0.91165 1.10678
 C841 C 0.38196 0.92286 1.09624
 C842 C 0.38493 0.92303 1.07068
 C843 C 0.36729 0.91184 1.05567
 C844 C 0.34669 0.90063 1.06616
 C845 C 0.40582 0.93507 1.05983
 C846 C 0.42315 0.94538 1.05065
 H847 H 0.25942 0.88399 1.09424
 H848 H 0.29589 0.90276 1.07554
 H849 H 0.34108 0.87220 1.13346
 H850 H 0.30438 0.85392 1.15223
 H851 H 0.35927 0.91213 1.12658
 H852 H 0.39545 0.93157 1.10802
 H853 H 0.36942 0.91185 1.03585
 H854 H 0.33339 0.89192 1.05420
 C855 C 0.75814 1.14429 1.14921
 C856 C 0.74021 1.13458 1.14052
 C857 C 0.71886 1.12305 1.13001
 C858 C 0.70749 1.13337 1.10934
 C859 C 0.68684 1.12214 1.09898
 C860 C 0.67729 1.10039 1.10918
 C861 C 0.68884 1.09017 1.13000
 C862 C 0.70949 1.10145 1.14033
 C863 C 0.65545 1.08836 1.09806
 C864 C 0.65441 1.06262 1.09578
 C865 C 0.63402 1.05136 1.08491
 C866 C 0.61441 1.06566 1.07623
 C867 C 0.61520 1.09126 1.07855
 C868 C 0.63557 1.10255 1.08939
 C869 C 0.59371 1.05412 1.06451
 C870 C 0.57648 1.04451 1.05444
 H871 H 0.71465 1.15005 1.10115
 H872 H 0.67858 1.13027 1.08277
 H873 H 0.68175 1.07361 1.13845
 H874 H 0.71812 1.09334 1.15638
 H875 H 0.66954 1.05122 1.10197
 H876 H 0.63364 1.03153 1.08310
 H877 H 0.60011 1.10249 1.07191
 H878 H 0.63568 1.12237 1.09117
 C879 C 0.75929 0.85548 0.85221
 C880 C 0.74146 0.86457 0.86179
 C881 C 0.72023 0.87543 0.87332
 C882 C 0.70011 0.88285 0.85906
 C883 C 0.67948 0.89340 0.87027
 C884 C 0.67873 0.89665 0.89594
 C885 C 0.69908 0.88913 0.91011
 C886 C 0.71968 0.87860 0.89886
 C887 C 0.65684 0.90783 0.90790
 C888 C 0.64791 0.89846 0.93031
 C889 C 0.62740 0.90908 0.94165
 C890 C 0.61555 0.92920 0.93078
 C891 C 0.62425 0.93864 0.90847
 C892 C 0.64474 0.92803 0.89708
 C893 C 0.59465 0.94029 0.94267
 C894 C 0.57726 0.94960 0.95283
 H895 H 0.70032 0.88042 0.83928
 H896 H 0.66399 0.89872 0.85890
 H897 H 0.69920 0.89169 0.92986
 H898 H 0.73520 0.87300 0.91007
 H899 H 0.65661 0.88274 0.93893
 H900 H 0.62080 0.90161 0.95890
 H901 H 0.61527 0.95428 0.89996
 H902 H 0.65136 0.93586 0.88002
   
