data_POSCAR
  _audit_creation_date              2014-09-24
  _audit_creation_method            'ToBaCCo'
  _symmetry_space_group_name_H-M    'P1'
  _symmetry_Int_Tables_number       1
  _symmetry_cell_setting            triclinic
  loop_
  _symmetry_equiv_pos_as_xyz
 x,y,z
_cell_length_a 15.7746
_cell_length_b 17.5295
_cell_length_c 16.0901
_cell_angle_alpha 89.931700
_cell_angle_beta 91.047300
_cell_angle_gamma 89.880700
loop_
  _atom_site_label
  _atom_site_type_symbol
  _atom_site_fract_x
  _atom_site_fract_y
  _atom_site_fract_z
C1 C 0.41436 1.09198 -0.55653
 C2 C 0.41699 1.08668 -0.46867
 C3 C 0.49326 1.10216 -0.42591
 C4 C 0.56939 1.11601 -0.46780
 C5 C 0.56699 1.12050 -0.55568
 C6 C 0.48778 1.11545 -0.59733
 H7 H 0.48501 1.12284 -0.66429
 H8 H 0.49335 1.10279 -0.35852
 C9 C -0.55152 1.42212 -0.00139
 C10 C -0.46504 1.40659 0.01483
 C11 C -0.41151 1.46760 0.03717
 C12 C -0.43839 1.54429 0.03415
 C13 C -0.52588 1.55986 0.01719
 C14 C -0.58046 1.49755 0.00116
 H15 H -0.64803 1.50667 -0.00677
 H16 H -0.34586 1.45516 0.05328
 C17 C 0.01006 0.44263 0.42181
 C18 C -0.01213 0.52129 0.42116
 C19 C -0.02082 0.55990 0.49765
 C20 C -0.00487 0.52455 0.57570
 C21 C 0.01670 0.44596 0.57632
 C22 C 0.02571 0.40735 0.50002
 H23 H 0.05014 0.34989 0.50301
 H24 H -0.04560 0.61729 0.49543
 O25 O -0.20797 1.00602 -0.12614
 O26 O 0.22413 0.96111 -0.09799
 O27 O 0.01903 1.08602 -0.21335
 O28 O 0.00461 0.88306 -0.21447
 O29 O -0.01549 0.78759 -0.11763
 O30 O 0.02761 1.18073 -0.11400
 O31 O 0.12701 0.97473 -0.20593
 O32 O -0.10101 0.99721 -0.22147
 Zr33 Zr 0.00967 0.98437 -0.14586
 O34 O 0.07285 0.90660 -0.07140
 O35 O -0.06084 1.06159 -0.08058
 C36 C -0.17985 1.00369 -0.20076
 C37 C 0.20353 0.96688 -0.17607
 C38 C 0.02339 1.15664 -0.19067
 C39 C -0.00545 0.81248 -0.19336
 H40 H 0.13224 1.07472 -0.10198
 O41 O 0.09091 1.04516 -0.06963
 H42 H -0.11628 0.89418 -0.11916
 O43 O -0.07820 0.92296 -0.08122
 O44 O 0.21142 0.96508 0.12642
 O45 O -0.22079 1.00328 0.09298
 O46 O 0.14262 1.16677 0.01198
 O47 O 0.09211 0.77652 -0.00278
 O48 O -0.13991 0.80106 -0.00520
 O49 O -0.08553 1.19169 -0.01156
 O50 O 0.00618 1.08372 0.21280
 O51 O -0.02320 0.88195 0.21065
 O52 O 0.02351 1.17927 0.11562
 O53 O -0.02665 0.78657 0.11168
 O54 O 0.23136 1.06199 0.02189
 O55 O -0.20021 1.11016 -0.01947
 O56 O -0.22795 0.90633 -0.01487
 O57 O 0.20639 0.85838 0.00804
 O58 O 0.10278 0.97702 0.21948
 O59 O -0.12508 0.99519 0.20258
 Zr60 Zr 0.14947 0.96774 0.00913
 Zr61 Zr -0.14470 0.99988 -0.01149
 Zr62 Zr 0.01994 1.11876 0.00022
 Zr63 Zr -0.01565 0.84842 -0.00231
 Zr64 Zr -0.00677 0.98329 0.14340
 O65 O -0.08773 0.92208 0.06784
 O66 O 0.08228 1.04412 0.07933
 C67 C 0.18216 0.97235 0.20077
 C68 C -0.20116 1.00144 0.17100
 C69 C 0.21657 1.13473 0.02190
 C70 C 0.17284 0.79112 0.00025
 C71 C -0.21428 0.83360 -0.01019
 C72 C -0.16586 1.17756 -0.01940
 C73 C 0.01768 1.15411 0.19168
 C74 C -0.02758 0.81115 0.18822
 H75 H -0.10284 1.09719 0.10164
 O76 O -0.06882 1.06117 0.06868
 H77 H 0.09624 0.87097 0.11521
 O78 O 0.06488 0.90640 0.07790
 C79 C 0.34523 1.07068 0.39185
 C80 C 0.28676 1.01777 0.40978
 C81 C 0.22345 0.99393 0.34693
 C82 C 0.24517 0.98011 0.26826
 H83 H 0.28504 0.98891 0.46888
 H84 H 0.15819 0.98889 0.36592
 H85 H 0.34439 1.09288 0.32882
 H86 H 0.31143 0.98124 0.25150
 C87 C -0.35771 1.11613 0.39830
 C88 C -0.35367 1.07431 0.32906
 C89 C -0.27321 1.05844 0.28834
 C90 C -0.27291 1.00904 0.22572
 H91 H -0.40950 1.04524 0.30501
 H92 H -0.21611 1.08907 0.30635
 H93 H -0.29836 1.13669 0.42412
 H94 H -0.33163 0.98193 0.20585
 C95 C -0.35328 1.11639 -0.42255
 C96 C -0.34000 1.06867 -0.35902
 C97 C -0.25791 1.06255 -0.31556
 C98 C -0.24553 1.00368 -0.26479
 H99 H -0.38933 1.02905 -0.34143
 H100 H -0.21128 1.10767 -0.32001
 H101 H -0.29991 1.14905 -0.44411
 H102 H -0.29477 0.96102 -0.25863
 C103 C 0.34081 1.07182 -0.41905
 C104 C 0.34303 1.02295 -0.35521
 C105 C 0.26769 1.00897 -0.30530
 C106 C 0.27392 0.96970 -0.23425
 H107 H 0.40170 0.99382 -0.33872
 H108 H 0.20809 1.03556 -0.32372
 H109 H 0.28160 1.09914 -0.43730
 H110 H 0.33489 0.94712 -0.21385
 C111 C 0.38499 1.36355 -0.02448
 C112 C 0.36845 1.30347 0.02345
 C113 C 0.29499 1.25439 0.00480
 C114 C 0.29062 1.18406 0.03598
 H115 H 0.40644 1.29238 0.07894
 H116 H 0.24427 1.27580 -0.03530
 H117 H 0.34297 1.37594 -0.07692
 H118 H 0.34404 1.16107 0.07130
 C119 C 0.43482 0.63695 0.02761
 C120 C 0.36325 0.65695 -0.01342
 C121 C 0.31327 0.72560 0.00619
 C122 C 0.22950 0.72496 -0.00959
 H123 H 0.33723 0.61966 -0.06100
 H124 H 0.34385 0.77498 0.03378
 H125 H 0.46160 0.67542 0.07369
 H126 H 0.20043 0.67289 -0.03266
 C127 C -0.37338 0.59903 0.04541
 C128 C -0.37234 0.66938 0.01293
 C129 C -0.29349 0.71500 0.01744
 C130 C -0.29114 0.78582 -0.01277
 H131 H -0.42540 0.69122 -0.02334
 H132 H -0.23670 0.69039 0.04556
 H133 H -0.31433 0.57940 0.07399
 H134 H -0.34901 0.81128 -0.03756
 C135 C -0.42769 1.32880 0.00637
 C136 C -0.34946 1.31916 -0.02279
 C137 C -0.30420 1.24560 -0.01901
 C138 C -0.22023 1.24528 -0.02880
 H139 H -0.31536 1.36812 -0.04616
 H140 H -0.33766 1.19371 -0.00348
 H141 H -0.46256 1.27926 0.02619
 H142 H -0.18822 1.29886 -0.04052
 C143 C 0.01794 1.40111 0.34602
 C144 C 0.01961 1.32459 0.34092
 C145 C 0.02299 1.28269 0.26094
 C146 C 0.02251 1.20643 0.26333
 H147 H 0.01297 1.29012 0.39605
 H148 H 0.02293 1.31294 0.20219
 H149 H 0.01987 1.43168 0.28772
 H150 H 0.02203 1.17886 0.32379
 C151 C 0.03427 1.40345 -0.34427
 C152 C 0.01125 1.33058 -0.33471
 C153 C 0.02684 1.28644 -0.25734
 C154 C 0.01945 1.21060 -0.26105
 H155 H -0.02120 1.30191 -0.38575
 H156 H 0.04241 1.31489 -0.19933
 H157 H 0.06579 1.43217 -0.29285
 H158 H 0.00655 1.18498 -0.32138
 C159 C -0.01213 0.56589 -0.34846
 C160 C -0.01002 0.64231 -0.34318
 C161 C -0.01345 0.68413 -0.26316
 C162 C -0.00575 0.76002 -0.26496
 H163 H -0.00029 0.67629 -0.39825
 H164 H -0.02091 0.65404 -0.20490
 H165 H -0.01589 0.53514 -0.29035
 H166 H 0.00187 0.78730 -0.32499
 C167 C -0.03057 0.56373 0.34167
 C168 C -0.01195 0.63778 0.33270
 C169 C -0.02784 0.68123 0.25486
 C170 C -0.02758 0.75741 0.25895
 H171 H 0.01769 0.66804 0.38420
 H172 H -0.03619 0.65205 0.19597
 H173 H -0.05968 0.53414 0.28954
 H174 H -0.02145 0.78350 0.31995
   
