data_POSCAR
  _audit_creation_date              2014-09-24
  _audit_creation_method            'ToBaCCo'
  _symmetry_space_group_name_H-M    'P1'
  _symmetry_Int_Tables_number       1
  _symmetry_cell_setting            triclinic
  loop_
  _symmetry_equiv_pos_as_xyz
 x,y,z
_cell_length_a 30.4410
_cell_length_b 29.3922
_cell_length_c 30.5891
_cell_angle_alpha 91.844400
_cell_angle_beta 91.442700
_cell_angle_gamma 89.719100
loop_
  _atom_site_label
  _atom_site_type_symbol
  _atom_site_fract_x
  _atom_site_fract_y
  _atom_site_fract_z
C1 C 0.31364 0.40374 1.37418
 N2 N 0.33115 0.42606 1.34032
 C3 C 0.36920 0.41165 1.32213
 N4 N 0.38968 0.37434 1.33776
 C5 C 0.37282 0.35106 1.37108
 N6 N 0.33464 0.36598 1.38935
 C7 C 1.17598 0.58078 0.90660
 N8 N 1.16275 0.56311 0.86683
 C9 C 1.12688 0.58063 0.84563
 N10 N 1.10556 0.61739 0.86357
 C11 C 1.11873 0.63519 0.90331
 N12 N 1.15329 0.61602 0.92455
 C13 C 0.67760 -0.08746 0.10714
 N14 N 0.65616 -0.06574 0.13996
 C15 C 0.61885 -0.08329 0.15577
 N16 N 0.60313 -0.12373 0.13879
 C17 C 0.62446 -0.14586 0.10559
 N18 N 0.66160 -0.12727 0.09016
 C19 C -0.18130 1.10303 -0.38319
 N20 N -0.16046 1.14051 -0.39774
 C21 C -0.12238 1.15548 -0.37749
 N22 N -0.10585 1.13290 -0.34261
 C23 C -0.12618 1.09575 -0.32792
 N24 N -0.16370 1.08108 -0.34832
 C25 C 0.67320 0.64642 0.63536
 N26 N 0.65760 0.62505 0.67052
 C27 C 0.61852 0.63792 0.68763
 N28 N 0.59528 0.67245 0.66960
 C29 C 0.61052 0.69411 0.63446
 N30 N 0.64956 0.68082 0.61744
 C31 C 0.84926 0.38795 0.11155
 N32 N 0.86916 0.40295 0.14941
 C33 C 0.90299 0.37954 0.16749
 N34 N 0.91739 0.34069 0.14741
 C35 C 0.89831 0.32545 0.10906
 N36 N 0.86382 0.34896 0.09150
 C37 C 0.32741 0.12852 0.87754
 N38 N 0.35158 0.16519 0.89141
 C39 C 0.38610 0.17883 0.86787
 N40 N 0.39608 0.15581 0.83024
 C41 C 0.37184 0.11945 0.81603
 N42 N 0.33751 0.10585 0.83974
 C43 C 0.15304 0.87826 0.39315
 N44 N 0.14062 0.88789 0.35134
 C45 C 0.10434 0.86785 0.33236
 N46 N 0.08215 0.83611 0.35439
 C47 C 0.09461 0.82591 0.39589
 N48 N 0.12929 0.84798 0.41525
 Zn49 Zn 0.03010 1.03988 -0.02745
 Zn50 Zn -0.02199 0.95518 -0.04411
 Zn51 Zn 0.06472 0.95182 0.00414
 Zn52 Zn -0.01129 0.99555 0.04723
 O53 O 0.01527 0.98556 -0.00507
 O54 O 0.00661 1.04782 -0.08057
 O55 O -0.00222 0.89955 -0.05993
 O56 O 0.11290 0.97761 -0.01619
 O57 O -0.03210 0.98521 -0.09382
 O58 O 0.08785 1.04559 -0.03407
 O59 O 0.06065 0.89693 -0.02196
 O60 O 0.01717 0.96989 0.09247
 O61 O -0.07467 0.94589 -0.02153
 O62 O 0.07638 0.94170 0.06083
 O63 O -0.06627 0.97477 0.04601
 O64 O -0.01608 1.05474 0.06191
 O65 O 0.01230 1.08769 0.00500
 C66 C -0.01843 1.02363 -0.10545
 C67 C 0.03214 0.87841 -0.04766
 C68 C 0.11903 1.01710 -0.03042
 C69 C 0.05403 0.94962 0.09471
 C70 C -0.08962 0.95526 0.01608
 C71 C -0.00631 1.09006 0.04158
 Zn72 Zn 0.47486 -0.04251 0.45548
 Zn73 Zn 0.52118 -0.00065 0.53224
 Zn74 Zn 0.51623 0.05038 0.44884
 Zn75 Zn 0.43540 0.03634 0.50268
 O76 O 0.48706 0.01120 0.48450
 O77 O 0.49799 -0.09182 0.48115
 O78 O 0.57313 0.02579 0.53069
 O79 O 0.52461 0.02468 0.39447
 O80 O 0.53213 -0.05970 0.53884
 O81 O 0.49561 -0.04346 0.40248
 O82 O 0.57092 0.06594 0.47064
 O83 O 0.42830 0.09229 0.48350
 O84 O 0.49804 0.01905 0.58210
 O85 O 0.48576 0.10346 0.44205
 O86 O 0.43172 0.04187 0.56098
 O87 O 0.38759 0.00644 0.48221
 O88 O 0.41741 -0.05189 0.44609
 C89 C 0.52147 -0.09467 0.51583
 C90 C 0.59105 0.05270 0.50502
 C91 C 0.51479 -0.01504 0.37941
 C92 C 0.44980 0.11718 0.45860
 C93 C 0.46061 0.03544 0.59076
 C94 C 0.38409 -0.02896 0.45766
 Zn95 Zn 0.93397 0.46873 0.49583
 Zn96 Zn 1.01998 0.45398 0.54485
 Zn97 Zn 1.01479 0.49965 0.46013
 Zn98 Zn 0.97756 0.54696 0.53776
 O99 O 0.98710 0.49227 0.51072
 O100 O 0.93126 0.41094 0.50981
 O101 O 1.07357 0.44018 0.52147
 O102 O 0.98941 0.46827 0.41568
 O103 O 0.99121 0.40012 0.55126
 O104 O 0.92128 0.47133 0.43837
 O105 O 1.07018 0.48032 0.46144
 O106 O 0.99449 0.59362 0.50602
 O107 O 1.03206 0.48054 0.59864
 O108 O 1.01579 0.55799 0.44505
 O109 O 1.00550 0.55026 0.58911
 O110 O 0.92094 0.55769 0.55085
 O111 O 0.88922 0.49539 0.52335
 C112 C 0.95502 0.38583 0.53382
 C113 C 1.09111 0.45441 0.48703
 C114 C 0.94851 0.46454 0.40812
 C115 C 1.00805 0.59435 0.46714
 C116 C 1.02528 0.52135 0.61259
 C117 C 0.88725 0.53282 0.54491
 Zn118 Zn 0.50047 0.48618 0.95392
 Zn119 Zn 0.56922 0.53595 1.00472
 Zn120 Zn 0.47763 0.53689 1.03791
 Zn121 Zn 0.52970 0.45477 1.03578
 O122 O 0.51888 0.50541 1.00775
 O123 O 0.53032 0.51102 0.91096
 O124 O 0.56469 0.59117 1.03001
 O125 O 0.42660 0.53818 1.00667
 O126 O 0.58400 0.54561 0.94917
 O127 O 0.44432 0.50051 0.94533
 O128 O 0.49537 0.59474 1.05136
 O129 O 0.52041 0.46109 1.09308
 O130 O 0.61440 0.50570 1.02941
 O131 O 0.46611 0.51131 1.08962
 O132 O 0.58523 0.43666 1.02806
 O133 O 0.49423 0.41030 1.01594
 O134 O 0.50269 0.42507 0.94654
 C135 C 0.56498 0.53495 0.91283
 C136 C 0.53292 0.61298 1.04714
 C137 C 0.41639 0.52123 0.96890
 C138 C 0.48778 0.48129 1.11029
 C139 C 0.61839 0.46273 1.03176
 C140 C 0.49062 0.39843 0.97582
 C141 C 1.21681 0.41186 0.44357
 C142 C 1.19435 0.44854 0.42506
 N143 N 1.21199 0.47011 0.39123
 C144 C 1.25106 0.45660 0.37462
 C145 C 1.27379 0.41909 0.39220
 N146 N 1.25588 0.39774 0.42666
 N147 N 1.19875 0.39067 0.47773
 C148 C 1.15909 0.40425 0.49377
 C149 C 1.13606 0.44039 0.47442
 N150 N 1.15472 0.46158 0.44058
 H151 H 1.26376 0.47480 0.34748
 H152 H 1.14526 0.38633 0.52051
 C153 C 0.28600 0.53390 0.92010
 C154 C 0.29876 0.55317 0.96108
 N155 N 0.26941 0.57775 0.98461
 C156 C 0.22815 0.58515 0.96856
 C157 C 0.21552 0.56744 0.92665
 N158 N 0.24476 0.54135 0.90385
 N159 N 0.31580 0.51011 0.89624
 C160 C 0.35789 0.50515 0.91127
 C161 C 0.37094 0.52516 0.95199
 N162 N 0.34074 0.54836 0.97606
 H163 H 0.20593 0.60576 0.98803
 H164 H 0.38096 0.48609 0.89141
 C165 C -0.21956 0.92078 0.04591
 C166 C -0.19641 0.95406 0.07090
 N167 N -0.21570 0.97499 0.10565
 C168 C -0.25699 0.96368 0.11703
 C169 C -0.27980 0.92927 0.09296
 N170 N -0.26045 0.90884 0.05773
 N171 N -0.20037 0.90021 0.01086
 C172 C -0.15882 0.91118 -0.00014
 C173 C -0.13514 0.94363 0.02557
 N174 N -0.15473 0.96440 0.06042
 H175 H -0.27124 0.98047 0.14535
 H176 H -0.14417 0.89410 -0.02809
 C177 C 0.71850 0.09595 0.54724
 C178 C 0.69779 0.05863 0.56514
 N179 N 0.71774 0.03617 0.59807
 C180 C 0.75749 0.04948 0.61460
 C181 C 0.77857 0.08769 0.59784
 N182 N 0.75842 0.10990 0.56405
 N183 N 0.69779 0.11801 0.51399
 C184 C 0.65722 0.10460 0.49832
 C185 C 0.63615 0.06776 0.51718
 N186 N 0.65746 0.04580 0.54999
 H187 H 0.77197 0.03051 0.64111
 H188 H 0.64127 0.12304 0.47225
 C189 C 0.39418 0.24519 0.42767
 C190 C 0.43282 0.22972 0.40777
 N191 N 0.45148 0.25537 0.37729
 C192 C 0.43311 0.29551 0.36541
 C193 C 0.39380 0.31102 0.38469
 N194 N 0.37559 0.28527 0.41575
 N195 N 0.37530 0.21937 0.45790
 C196 C 0.39302 0.17862 0.46888
 C197 C 0.43148 0.16255 0.44859
 N198 N 0.45057 0.18887 0.41856
 H199 H 0.44898 0.31472 0.34070
 H200 H 0.37690 0.15880 0.49295
 C201 C 0.90099 0.25816 0.56315
 C202 C 0.93887 0.27441 0.58566
 N203 N 0.95645 0.25019 0.61879
 C204 C 0.93769 0.21079 0.63085
 C205 C 0.89898 0.19472 0.60906
 N206 N 0.88192 0.21895 0.57535
 N207 N 0.88317 0.28252 0.53023
 C208 C 0.90102 0.32272 0.51922
 C209 C 0.93837 0.33985 0.54240
 N210 N 0.95662 0.31485 0.57496
 H211 H 0.95268 0.19271 0.65769
 H212 H 0.88558 0.34152 0.49310
 C213 C 0.05890 0.74303 -0.08960
 C214 C 0.07683 0.76169 -0.05032
 N215 N 0.10473 0.73674 -0.02563
 C216 C 0.11676 0.69423 -0.03893
 C217 C 0.10098 0.67585 -0.07957
 N218 N 0.07158 0.70062 -0.10360
 N219 N 0.03063 0.76850 -0.11389
 C220 C 0.02011 0.81194 -0.10089
 C221 C 0.03957 0.83104 -0.06236
 N222 N 0.06715 0.80506 -0.03798
 H223 H 0.13971 0.67577 -0.01842
 H224 H -0.00214 0.83170 -0.12096
 C225 C 0.56191 0.74826 1.09014
 C226 C 0.58755 0.72484 1.05923
 N227 N 0.62324 0.74509 1.04313
 C228 C 0.63508 0.78767 1.05685
 C229 C 0.61051 0.81131 1.08899
 N230 N 0.57407 0.79086 1.10463
 N231 N 0.52579 0.72757 1.10558
 C232 C 0.51454 0.68442 1.09177
 C233 C 0.54108 0.66060 1.06167
 N234 N 0.57682 0.68181 1.04617
 H235 H 0.66407 0.80233 1.04323
 H236 H 0.48588 0.66859 1.10486
 C237 C 0.44358 0.43656 1.23169
 C238 C 0.42011 0.46999 1.20907
 N239 N 0.38127 0.48547 1.22487
 C240 C 0.36457 0.46860 1.26195
 C241 C 0.38748 0.43413 1.28405
 N242 N 0.42670 0.41934 1.26829
 N243 N 0.48215 0.42064 1.21589
 C244 C 0.49806 0.43602 1.17798
 C245 C 0.47410 0.46857 1.15432
 N246 N 0.43570 0.48505 1.17081
 H247 H 0.33329 0.48119 1.27339
 H248 H 0.52855 0.42200 1.16591
 C249 C 0.55181 -0.06449 0.25434
 C250 C 0.56836 -0.02282 0.27143
 N251 N 0.59878 -0.00033 0.24887
 C252 C 0.61408 -0.01804 0.21054
 C253 C 0.59867 -0.06058 0.19408
 N254 N 0.56740 -0.08245 0.21632
 N255 N 0.52189 -0.08738 0.27702
 C256 C 0.50835 -0.07107 0.31644
 C257 C 0.52586 -0.03007 0.33452
 N258 N 0.55517 -0.00656 0.31115
 H259 H 0.63888 0.00046 0.19374
 H260 H 0.48476 -0.09055 0.33389
 C261 C -0.06027 1.07630 -0.22669
 C262 C -0.07911 1.03653 -0.21138
 N263 N -0.11219 1.01595 -0.23503
 C264 C -0.12755 1.03357 -0.27312
 C265 C -0.10900 1.07373 -0.28832
 N266 N -0.07556 1.09387 -0.26462
 N267 N -0.02772 1.09738 -0.20287
 C268 C -0.01328 1.08074 -0.16415
 C269 C -0.03227 1.04111 -0.14833
 N270 N -0.06470 1.01978 -0.17263
 H271 H -0.15420 1.01664 -0.29105
 H272 H 0.01260 1.09853 -0.14580
 C273 C 1.06652 0.56848 0.73918
 C274 C 1.08436 0.52818 0.72101
 N275 N 1.11578 0.50544 0.74401
 C276 C 1.13017 0.52125 0.78421
 C277 C 1.11224 0.56167 0.80243
 N278 N 1.08068 0.58408 0.77925
 N279 N 1.03566 0.59177 0.71632
 C280 C 1.02188 0.57687 0.67589
 C281 C 1.03960 0.53656 0.65720
 N282 N 1.07043 0.51292 0.68047
 H283 H 1.15528 0.50242 0.80171
 H284 H 0.99719 0.59642 0.65855
 C285 C 0.76635 0.57390 0.59898
 C286 C 0.79506 0.60619 0.58270
 N287 N 0.78319 0.65080 0.58337
 C288 C 0.74395 0.66460 0.59966
 C289 C 0.71559 0.63249 0.61692
 N290 N 0.72765 0.58779 0.61622
 N291 N 0.77734 0.52910 0.59670
 C292 C 0.81580 0.51507 0.57892
 C293 C 0.84512 0.54734 0.56350
 N294 N 0.83402 0.59231 0.56589
 H295 H 0.73528 0.70037 0.59981
 H296 H 0.82376 0.47913 0.57752
 C297 C 0.74375 0.40632 1.05655
 C298 C 0.73235 0.44962 1.07355
 N299 N 0.76081 0.47250 1.10086
 C300 C 0.79994 0.45373 1.11276
 C301 C 0.81156 0.41010 1.09615
 N302 N 0.78325 0.38782 1.06774
 N303 N 0.71409 0.38243 1.03122
 C304 C 0.67342 0.39977 1.02246
 C305 C 0.66214 0.44321 1.03932
 N306 N 0.69215 0.46723 1.06414
 H307 H 0.82152 0.47270 1.13526
 H308 H 0.65019 0.37997 1.00246
 C309 C 0.24076 1.05580 -0.07958
 C310 C 0.21300 1.08823 -0.05979
 N311 N 0.22455 1.13281 -0.05839
 C312 C 0.26237 1.14656 -0.07656
 C313 C 0.28915 1.11441 -0.09820
 N314 N 0.27773 1.06968 -0.09896
 N315 N 0.22971 1.01111 -0.08013
 C316 C 0.19166 0.99740 -0.06242
 C317 C 0.16279 1.03003 -0.04449
 N318 N 0.17435 1.07475 -0.04342
 H319 H 0.27053 1.18238 -0.07563
 H320 H 0.18320 0.96165 -0.06399
 C321 C 0.26026 -0.06745 0.40453
 C322 C 0.27071 -0.07402 0.44892
 N323 N 0.24134 -0.09468 0.47420
 C324 C 0.20222 -0.10969 0.45708
 C325 C 0.19152 -0.10343 0.41246
 N326 N 0.22090 -0.08185 0.38748
 N327 N 0.29037 -0.04845 0.37880
 C328 C 0.33050 -0.03590 0.39541
 C329 C 0.34084 -0.04216 0.43981
 N330 N 0.31057 -0.06087 0.46571
 H331 H 0.17989 -0.12652 0.47824
 H332 H 0.35412 -0.02100 0.37425
 C333 C 0.57916 -0.21530 0.56100
 C334 C 0.54413 -0.19472 0.58324
 N335 N 0.53041 -0.21264 0.62084
 C336 C 0.55048 -0.24989 0.63763
 C337 C 0.58704 -0.26951 0.61657
 N338 N 0.60017 -0.25161 0.57844
 N339 N 0.59217 -0.19805 0.52277
 C340 C 0.57216 -0.16065 0.50615
 C341 C 0.53837 -0.13890 0.52933
 N342 N 0.52511 -0.15651 0.56742
 H343 H 0.53877 -0.26300 0.66787
 H344 H 0.58370 -0.14689 0.47612
 C345 C 1.03787 0.71923 0.41090
 C346 C 1.04676 0.71216 0.45545
 N347 N 1.06890 0.74421 0.47990
 C348 C 1.08351 0.78267 0.46170
 C349 C 1.07521 0.78983 0.41685
 N350 N 1.05175 0.75806 0.39281
 N351 N 1.01822 0.68582 0.38585
 C352 C 1.00756 0.64542 0.40323
 C353 C 1.01642 0.63835 0.44781
 N354 N 1.03542 0.67220 0.47294
 H355 H 1.10190 0.80707 0.48203
 H356 H 0.99248 0.61903 0.38248
 C357 C -0.04440 1.21738 0.09516
 C358 C -0.05854 1.20325 0.05290
 N359 N -0.08679 1.22982 0.02993
 C360 C -0.10171 1.26999 0.04733
 C361 C -0.08704 1.28476 0.08948
 N362 N -0.05845 1.25790 0.11212
 N363 N -0.01793 1.18977 0.11905
 C364 C -0.00499 1.14848 0.10254
 C365 C -0.01840 1.13471 0.05996
 N366 N -0.04481 1.16252 0.03605
 H367 H -0.12438 1.29024 0.02818
 H368 H 0.01577 1.12676 0.12226
 C369 C 0.42970 0.27431 0.93772
 C370 C 0.45452 0.29819 0.90799
 N371 N 0.45783 0.28185 0.86622
 C372 C 0.43708 0.24286 0.85267
 C373 C 0.41119 0.21951 0.88206
 N374 N 0.40829 0.23589 0.92402
 N375 N 0.42686 0.29029 0.97964
 C376 C 0.44736 0.32941 0.99313
 C377 C 0.47123 0.35414 0.96312
 N378 N 0.47431 0.33773 0.92119
 H379 H 0.43998 0.23087 0.81904
 H380 H 0.44409 0.34164 1.02665
 C381 C 0.61527 0.58555 0.79635
 C382 C 0.57005 0.57816 0.80052
 N383 N 0.54178 0.58977 0.76768
 C384 C 0.55662 0.60869 0.73088
 C385 C 0.60190 0.61572 0.72633
 N386 N 0.63023 0.60370 0.75923
 N387 N 0.64327 0.57587 0.83009
 C388 C 0.62810 0.55931 0.86790
 C389 C 0.58288 0.55139 0.87197
 N390 N 0.55499 0.56086 0.83793
 H391 H 0.53334 0.61802 0.70534
 H392 H 0.65108 0.55220 0.89441
 C393 C 0.43338 0.07979 0.71953
 C394 C 0.39956 0.06308 0.69143
 N395 N 0.35769 0.06245 0.70565
 C396 C 0.34801 0.07844 0.74652
 C397 C 0.38157 0.09700 0.77392
 N398 N 0.42353 0.09700 0.75971
 N399 N 0.47539 0.07947 0.70585
 C400 C 0.48514 0.06370 0.66502
 C401 C 0.45118 0.04869 0.63616
 N402 N 0.40907 0.04860 0.65015
 H403 H 0.31426 0.07829 0.75685
 H404 H 0.51889 0.06433 0.65471
 C405 C 0.10237 0.90811 0.21820
 C406 C 0.05707 0.90857 0.20827
 N407 N 0.02846 0.89476 0.23839
 C408 C 0.04302 0.88067 0.27811
 C409 C 0.08827 0.88121 0.28870
 N410 N 0.11694 0.89509 0.25834
 N411 N 0.13102 0.92039 0.18739
 C412 C 0.11642 0.93324 0.14717
 C413 C 0.07101 0.93484 0.13754
 N414 N 0.04243 0.92245 0.16853
 H415 H 0.01939 0.87007 0.30157
 H416 H 0.13996 0.94291 0.12325
 C417 C 0.90546 0.42902 0.27977
 C418 C 0.94810 0.41808 0.29449
 N419 N 0.97560 0.39497 0.26734
 C420 C 0.96226 0.38217 0.22601
 C421 C 0.91976 0.39366 0.21106
 N422 N 0.89247 0.41694 0.23841
 N423 N 0.87742 0.45073 0.30729
 C424 C 0.89015 0.46215 0.34908
 C425 C 0.93306 0.45193 0.36372
 N426 N 0.96106 0.43018 0.33592
 H427 H 0.98461 0.36349 0.20503
 H428 H 0.86723 0.47956 0.37040
   
