data_POSCAR
  _audit_creation_date              2014-09-24
  _audit_creation_method            'ToBaCCo'
  _symmetry_space_group_name_H-M    'P1'
  _symmetry_Int_Tables_number       1
  _symmetry_cell_setting            triclinic
  loop_
  _symmetry_equiv_pos_as_xyz
 x,y,z
_cell_length_a 38.9630
_cell_length_b 37.8914
_cell_length_c 55.2575
_cell_angle_alpha 89.546900
_cell_angle_beta 90.470900
_cell_angle_gamma 118.485700
loop_
  _atom_site_label
  _atom_site_type_symbol
  _atom_site_fract_x
  _atom_site_fract_y
  _atom_site_fract_z
C1 C -0.01176 0.48317 1.25220
 C2 C 0.02799 0.50427 1.25297
 C3 C 0.05028 0.50929 1.27573
 C4 C 0.05144 0.52437 1.23120
 C5 C -0.03420 0.47864 1.22949
 C6 C -0.03518 0.46483 1.27426
 C7 C 0.07578 0.54795 1.28385
 C8 C 0.09676 0.55373 1.30532
 C9 C 0.09315 0.52081 1.31959
 C10 C 0.06774 0.48176 1.31066
 C11 C 0.04678 0.47621 1.28909
 C12 C 0.04560 0.55305 1.21820
 C13 C 0.06709 0.57055 1.19727
 C14 C 0.09514 0.56005 1.18918
 C15 C 0.10167 0.53220 1.20269
 C16 C 0.08009 0.51463 1.22353
 C17 C -0.02595 0.46422 1.20820
 C18 C -0.04639 0.46180 1.18684
 C19 C -0.07641 0.47249 1.18652
 C20 C -0.08534 0.48573 1.20810
 C21 C -0.06437 0.48890 1.22929
 C22 C -0.06208 0.42373 1.27453
 C23 C -0.08561 0.40628 1.29472
 C24 C -0.08287 0.42973 1.31496
 C25 C -0.05572 0.47092 1.31466
 C26 C -0.03229 0.48836 1.29443
 H27 H 0.07945 0.57392 1.27350
 H28 H 0.11724 0.58448 1.30967
 H29 H 0.06196 0.45489 1.32065
 H30 H 0.02742 0.44600 1.28294
 H31 H 0.02407 0.56146 1.22411
 H32 H 0.06129 0.59178 1.18719
 H33 H 0.08532 0.49292 1.23352
 H34 H -0.00339 0.45528 1.20803
 H35 H -0.03834 0.45189 1.17056
 H36 H -0.10886 0.49324 1.20873
 H37 H -0.07152 0.49970 1.24558
 H38 H -0.06498 0.40521 1.25901
 H39 H -0.10664 0.37464 1.29426
 H40 H -0.05268 0.48970 1.33007
 H41 H -0.01221 0.52029 1.29440
 H42 H 0.12365 0.52416 1.19723
 C43 C 0.48685 0.46393 1.24722
 C44 C 0.46239 0.48021 1.24590
 C45 C 0.44745 0.48979 1.26820
 C46 C 0.44906 0.48882 1.22237
 C47 C 0.49643 0.44676 1.22578
 C48 C 0.50578 0.46300 1.27045
 C49 C 0.42656 0.45970 1.28535
 C50 C 0.41153 0.46843 1.30597
 C51 C 0.41719 0.50747 1.30985
 C52 C 0.43811 0.53755 1.29264
 C53 C 0.45284 0.52869 1.27190
 C54 C 0.40927 0.47621 1.21850
 C55 C 0.39642 0.48476 1.19668
 C56 C 0.42313 0.50630 1.17827
 C57 C 0.46306 0.51928 1.18226
 C58 C 0.47592 0.51077 1.20415
 C59 C 0.53540 0.45676 1.22123
 C60 C 0.54483 0.43979 1.20178
 C61 C 0.51549 0.41238 1.18635
 C62 C 0.47637 0.40204 1.19104
 C63 C 0.46692 0.41889 1.21065
 C64 C 0.53057 0.49883 1.28249
 C65 C 0.55001 0.49798 1.30368
 C66 C 0.54464 0.46125 1.31323
 C67 C 0.51957 0.42543 1.30123
 C68 C 0.50058 0.42634 1.27989
 H69 H 0.42162 0.42935 1.28264
 H70 H 0.39575 0.44476 1.31901
 H71 H 0.44252 0.56777 1.29505
 H72 H 0.46860 0.55221 1.25877
 H73 H 0.38809 0.45958 1.23238
 H74 H 0.36557 0.47500 1.19435
 H75 H 0.50686 0.52150 1.20692
 H76 H 0.55864 0.47780 1.23280
 H77 H 0.57516 0.44780 1.19901
 H78 H 0.45311 0.38120 1.17944
 H79 H 0.43654 0.40994 1.21412
 H80 H 0.53529 0.52743 1.27524
 H81 H 0.56909 0.52594 1.31267
 H82 H 0.51532 0.39679 1.30811
 H83 H 0.48181 0.39848 1.27070
 H84 H 0.48432 0.53573 1.16839
 C85 C 0.52967 1.01904 1.25081
 C86 C 0.51107 0.97806 1.25065
 C87 C 0.50263 0.95396 1.27338
 C88 C 0.49984 0.95520 1.22758
 C89 C 0.53586 1.04278 1.22814
 C90 C 0.54554 1.04226 1.27347
 C91 C 0.51408 0.92421 1.27550
 C92 C 0.50705 0.90164 1.29673
 C93 C 0.48824 0.90805 1.31673
 C94 C 0.47619 0.93774 1.31413
 C95 C 0.48303 0.96005 1.29273
 C96 C 0.52792 0.96208 1.20982
 C97 C 0.51736 0.93991 1.18843
 C98 C 0.47858 0.91003 1.18446
 C99 C 0.45052 0.90317 1.20230
 C100 C 0.46112 0.92543 1.22371
 C101 C 0.50447 1.03646 1.21297
 C102 C 0.51080 1.05802 1.19134
 C103 C 0.54887 1.08692 1.18425
 C104 C 0.58009 1.09349 1.20007
 C105 C 0.57358 1.07187 1.22168
 C106 C 0.53432 1.07073 1.28032
 C107 C 0.54866 1.09258 1.30165
 C108 C 0.57514 1.08690 1.31678
 C109 C 0.58678 1.05854 1.30933
 C110 C 0.57226 1.03669 1.28797
 H111 H 0.52872 0.91850 1.26066
 H112 H 0.51535 0.87820 1.29680
 H113 H 0.46275 0.94530 1.32880
 H114 H 0.47334 0.98245 1.29138
 H115 H 0.55810 0.98443 1.21261
 H116 H 0.53959 0.94615 1.17496
 H117 H 0.43912 0.91944 1.23731
 H118 H 0.47500 1.01437 1.21775
 H119 H 0.48567 1.05042 1.17986
 H120 H 0.60968 1.11634 1.19644
 H121 H 0.59819 1.07760 1.23331
 H122 H 0.51420 1.07595 1.26913
 H123 H 0.53990 1.11503 1.30555
 H124 H 0.60595 1.05169 1.32031
 H125 H 0.58168 1.01515 1.28284
 H126 H 0.42057 0.87998 1.19995
 C127 C 1.02103 0.53580 0.74582
 C128 C 0.98175 0.51114 0.74433
 C129 C 0.96011 0.50472 0.72109
 C130 C 0.95838 0.49006 0.76602
 C131 C 1.04115 0.54890 0.76962
 C132 C 1.04556 0.55097 0.72375
 C133 C 0.96289 0.53749 0.70753
 C134 C 0.94099 0.53123 0.68632
 C135 C 0.91580 0.49207 0.67828
 C136 C 0.91324 0.45933 0.69182
 C137 C 0.93501 0.46561 0.71309
 C138 C 0.92513 0.49346 0.77191
 C139 C 0.90290 0.47364 0.79219
 C140 C 0.91324 0.44964 0.80685
 C141 C 0.94618 0.44570 0.80068
 C142 C 0.96853 0.46571 0.78045
 C143 C 1.07322 0.54313 0.77521
 C144 C 1.09229 0.55536 0.79752
 C145 C 1.08017 0.57437 0.81488
 C146 C 1.04812 0.58058 0.80876
 C147 C 1.02895 0.56799 0.78649
 C148 C 1.04441 0.52439 0.70586
 C149 C 1.06769 0.53871 0.68524
 C150 C 1.09306 0.58024 0.68186
 C151 C 1.09409 0.60660 0.70020
 C152 C 1.07089 0.59210 0.72085
 H153 H 0.98158 0.56791 0.71360
 H154 H 0.94371 0.55702 0.67619
 H155 H 0.89366 0.42883 0.68627
 H156 H 0.93220 0.43994 0.72340
 H157 H 0.91661 0.51180 0.76091
 H158 H 0.87736 0.47677 0.79629
 H159 H 0.99371 0.46215 0.77599
 H160 H 1.08345 0.52896 0.76226
 H161 H 1.11761 0.55124 0.80051
 H162 H 1.03652 0.59377 0.82141
 H163 H 1.00443 0.57310 0.78241
 H164 H 1.02533 0.49241 0.70785
 H165 H 1.06433 0.51694 0.67163
 H166 H 1.11393 0.63849 0.69935
 H167 H 1.07263 0.61311 0.73461
 H168 H 0.95497 0.42761 0.81171
 C169 C 0.49078 0.50583 0.75388
 C170 C 0.51199 0.48592 0.75510
 C171 C 0.51924 0.46804 0.73319
 C172 C 0.52921 0.48157 0.77828
 C173 C 0.47359 0.51337 0.77592
 C174 C 0.48482 0.52167 0.73042
 C175 C 0.48802 0.44252 0.71822
 C176 C 0.49460 0.42459 0.69808
 C177 C 0.53254 0.43181 0.69256
 C178 C 0.56372 0.45719 0.70764
 C179 C 0.55709 0.47497 0.72784
 C180 C 0.52379 0.44380 0.78574
 C181 C 0.54149 0.43995 0.80695
 C182 C 0.56543 0.47391 0.82086
 C183 C 0.57092 0.51173 0.81334
 C184 C 0.55287 0.51552 0.79225
 C185 C 0.47639 0.55120 0.77984
 C186 C 0.45946 0.55801 0.80024
 C187 C 0.43935 0.52709 0.81717
 C188 C 0.43634 0.48915 0.81310
 C189 C 0.45300 0.48229 0.79261
 C190 C 0.51709 0.54674 0.71612
 C191 C 0.51194 0.56346 0.69470
 C192 C 0.47439 0.55533 0.68712
 C193 C 0.44206 0.52990 0.70132
 C194 C 0.44728 0.51348 0.72290
 H195 H 0.45848 0.43621 0.72228
 H196 H 0.47010 0.40540 0.68667
 H197 H 0.59318 0.46287 0.70396
 H198 H 0.58151 0.49428 0.73928
 H199 H 0.50589 0.41733 0.77511
 H200 H 0.53717 0.41052 0.81221
 H201 H 0.55788 0.54502 0.78659
 H202 H 0.49176 0.57552 0.76711
 H203 H 0.46169 0.58737 0.80259
 H204 H 0.42138 0.46479 0.82586
 H205 H 0.44962 0.45256 0.78970
 H206 H 0.54637 0.55389 0.72179
 H207 H 0.53730 0.58275 0.68402
 H208 H 0.41286 0.52352 0.69600
 H209 H 0.42207 0.49445 0.73377
 H210 H 0.58909 0.53832 0.82380
 C211 C 0.46810 -0.01328 0.75063
 C212 C 0.48427 0.02735 0.74972
 C213 C 0.49441 0.04959 0.72637
 C214 C 0.49468 0.05097 0.77233
 C215 C 0.46282 -0.03424 0.77407
 C216 C 0.45258 -0.03851 0.72873
 C217 C 0.51834 0.04389 0.70970
 C218 C 0.52754 0.06430 0.68755
 C219 C 0.51316 0.09100 0.68171
 C220 C 0.48974 0.09713 0.69859
 C221 C 0.48056 0.07672 0.72072
 C222 C 0.52856 0.05814 0.78509
 C223 C 0.53699 0.07771 0.80738
 C224 C 0.51213 0.09139 0.81711
 C225 C 0.47830 0.08432 0.80401
 C226 C 0.46940 0.06379 0.78203
 C227 C 0.43021 -0.04301 0.78826
 C228 C 0.42575 -0.06157 0.81080
 C229 C 0.45373 -0.07233 0.81969
 C230 C 0.48674 -0.06275 0.80509
 C231 C 0.49120 -0.04384 0.78266
 C232 C 0.42394 -0.03601 0.71444
 C233 C 0.40867 -0.06025 0.69405
 C234 C 0.42174 -0.08775 0.68729
 C235 C 0.45060 -0.08994 0.70196
 C236 C 0.46553 -0.06586 0.72243
 H237 H 0.52980 0.02349 0.71383
 H238 H 0.54544 0.05876 0.67485
 H239 H 0.47873 0.11798 0.69475
 H240 H 0.46214 0.08178 0.73319
 H241 H 0.54797 0.04770 0.77803
 H242 H 0.56269 0.08141 0.81713
 H243 H 0.44253 0.05750 0.77274
 H244 H 0.40850 -0.03483 0.78202
 H245 H 0.40086 -0.06590 0.82141
 H246 H 0.50872 -0.07110 0.81024
 H247 H 0.51688 -0.03671 0.77196
 H248 H 0.41335 -0.01520 0.71911
 H249 H 0.38767 -0.05602 0.68322
 H250 H 0.46076 -0.11143 0.69845
 H251 H 0.48739 -0.06858 0.73330
 H252 H 0.45866 0.09474 0.81064
 O253 O 0.38455 0.68309 0.97023
 O254 O 0.37099 0.74267 0.97843
 C255 C 0.34233 0.74269 0.96718
 O256 O 0.30713 0.71960 0.97276
 O257 O 0.25034 0.64733 0.97851
 C258 C 0.25180 0.62027 0.96567
 O259 O 0.27516 0.60660 0.97016
 O260 O 0.34569 0.61774 0.97641
 C261 C 0.37258 0.64671 0.96480
 O262 O 0.38968 0.67174 1.01829
 O263 O 0.37325 0.72922 1.02651
 C264 C 0.34892 0.74063 1.03263
 O265 O 0.31697 0.73018 1.02126
 O266 O 0.26244 0.65667 1.02711
 C267 C 0.25184 0.62006 1.03130
 O268 O 0.26267 0.59953 1.01840
 O269 O 0.33462 0.61471 1.02474
 C270 C 0.36985 0.63902 1.02984
 Cr271 Cr 0.37747 0.70527 0.99837
 Cr272 Cr 0.28565 0.68768 0.99987
 Cr273 Cr 0.30520 0.61184 0.99747
 O274 O 0.32280 0.66830 0.99854
 O275 O 0.62098 0.34030 0.98724
 O276 O 0.62703 0.27721 0.97524
 C277 C 0.64811 0.26286 0.96710
 O278 O 0.67948 0.26821 0.97735
 O279 O 0.73766 0.33841 0.96732
 C280 C 0.75234 0.37599 0.96406
 O281 O 0.74805 0.39866 0.97917
 O282 O 0.67813 0.39182 0.97631
 C283 C 0.64135 0.37068 0.97390
 O284 O 0.63223 0.32780 1.03423
 O285 O 0.63569 0.26287 1.02254
 C286 C 0.66410 0.26017 1.03225
 O287 O 0.69894 0.27997 1.02471
 O288 O 0.75928 0.34867 1.01439
 C289 C 0.76218 0.37514 1.02946
 O290 O 0.74164 0.39291 1.02788
 O291 O 0.67396 0.39117 1.02488
 C292 C 0.64834 0.36511 1.03865
 Cr293 Cr 0.63096 0.30308 1.00468
 Cr294 Cr 0.71766 0.30966 0.99613
 Cr295 Cr 0.70965 0.39165 1.00202
 O296 O 0.68599 0.33471 1.00096
 O297 O 0.66209 0.39856 0.52064
 O298 O 0.72814 0.39670 0.52269
 C299 C 0.74702 0.37730 0.52527
 O300 O 0.74078 0.34724 0.51218
 O301 O 0.67826 0.28134 0.52359
 C302 C 0.64353 0.26370 0.53135
 O303 O 0.61634 0.26844 0.52168
 O304 O 0.61940 0.33677 0.53241
 C305 C 0.63760 0.37440 0.53576
 O306 O 0.66306 0.39436 0.47187
 O307 O 0.73121 0.39732 0.47405
 C308 C 0.73451 0.37231 0.46043
 O309 O 0.71840 0.33506 0.46509
 O310 O 0.65678 0.26774 0.47617
 C311 C 0.62475 0.26300 0.46695
 O312 O 0.60679 0.28107 0.47474
 O313 O 0.60570 0.34734 0.48565
 C314 C 0.62605 0.37517 0.47077
 Cr315 Cr 0.69519 0.39469 0.49735
 Cr316 Cr 0.69748 0.30884 0.49439
 Cr317 Cr 0.61407 0.30942 0.50343
 O318 O 0.66897 0.33757 0.49836
 O319 O 0.34570 0.60051 0.51579
 O320 O 0.28185 0.60349 0.52552
 C321 C 0.26557 0.62329 0.53320
 O322 O 0.27173 0.65668 0.52396
 O323 O 0.33821 0.71919 0.53361
 C324 C 0.37447 0.73539 0.53796
 O325 O 0.39810 0.73076 0.52434
 O326 O 0.39384 0.66009 0.52726
 C327 C 0.37414 0.62225 0.52969
 O328 O 0.33582 0.61216 0.46832
 O329 O 0.27047 0.61197 0.47800
 C330 C 0.26570 0.64014 0.46873
 O331 O 0.28342 0.67591 0.47637
 O332 O 0.34869 0.73983 0.48607
 C333 C 0.37719 0.74491 0.47270
 O334 O 0.39573 0.72525 0.47563
 O335 O 0.39643 0.65692 0.47853
 C336 C 0.37219 0.63042 0.46431
 Cr337 Cr 0.30956 0.60920 0.49707
 Cr338 Cr 0.31152 0.69672 0.50487
 Cr339 Cr 0.39395 0.69227 0.50143
 O340 O 0.33823 0.66604 0.50114
 C341 C 0.42418 0.55156 0.34518
 C342 C 0.40922 0.56031 0.36597
 C343 C 0.37051 0.53410 0.37332
 C344 C 0.34759 0.49940 0.35982
 C345 C 0.36284 0.49072 0.33928
 C346 C 0.40117 0.51672 0.33172
 C347 C 0.35542 0.54291 0.39404
 C348 C 0.37870 0.57740 0.40767
 C349 C 0.41755 0.60332 0.40042
 C350 C 0.43247 0.59473 0.37959
 C351 C 0.44094 0.63744 0.41417
 C352 C 0.42613 0.64590 0.43495
 C353 C 0.38750 0.62057 0.44234
 C354 C 0.36386 0.58633 0.42850
 H355 H 0.45395 0.57153 0.33966
 H356 H 0.31787 0.47896 0.36517
 H357 H 0.34447 0.46387 0.32908
 H358 H 0.32568 0.52287 0.39960
 H359 H 0.46223 0.61475 0.37403
 H360 H 0.47076 0.65761 0.40888
 H361 H 0.44495 0.67261 0.44513
 H362 H 0.33406 0.56647 0.43400
 C363 C 0.45149 0.87984 0.35477
 C364 C 0.44436 0.85639 0.37585
 C365 C 0.46739 0.83766 0.38108
 C366 C 0.49763 0.84335 0.36544
 C367 C 0.50472 0.86679 0.34458
 C368 C 0.48157 0.88521 0.33852
 C369 C 0.45963 0.81325 0.40172
 C370 C 0.42892 0.80715 0.41721
 C371 C 0.40623 0.82640 0.41222
 C372 C 0.41408 0.85089 0.39160
 C373 C 0.37564 0.82036 0.42776
 C374 C 0.36698 0.79476 0.44774
 C375 C 0.38874 0.77467 0.45265
 C376 C 0.42010 0.78151 0.43738
 H377 H 0.43204 0.89207 0.35073
 H378 H 0.51599 0.82970 0.36937
 H379 H 0.52945 0.87124 0.33376
 H380 H 0.47717 0.79860 0.40555
 H381 H 0.39637 0.86532 0.38769
 H382 H 0.35802 0.83497 0.42425
 H383 H 0.34264 0.79012 0.45910
 H384 H 0.43718 0.76628 0.44086
 C385 C 0.12879 0.56371 0.35348
 C386 C 0.15114 0.57065 0.37463
 C387 C 0.15857 0.54028 0.38408
 C388 C 0.14299 0.50324 0.37235
 C389 C 0.12086 0.49645 0.35119
 C390 C 0.11362 0.52672 0.34088
 C391 C 0.18167 0.54756 0.40497
 C392 C 0.19758 0.58504 0.41644
 C393 C 0.18968 0.61529 0.40710
 C394 C 0.16634 0.60782 0.38637
 C395 C 0.20572 0.65276 0.41845
 C396 C 0.22994 0.66055 0.43865
 C397 C 0.23843 0.63093 0.44801
 C398 C 0.22173 0.59299 0.43689
 H399 H 0.12216 0.58714 0.34773
 H400 H 0.14854 0.47959 0.37931
 H401 H 0.11172 0.46793 0.34246
 H402 H 0.18761 0.52427 0.41213
 H403 H 0.16054 0.63118 0.37917
 H404 H 0.19991 0.67624 0.41153
 H405 H 0.24229 0.68999 0.44683
 H406 H 0.22809 0.56988 0.44383
 C407 C 0.54512 0.43251 0.35397
 C408 C 0.56494 0.42937 0.37446
 C409 C 0.60581 0.45398 0.37651
 C410 C 0.62592 0.48220 0.35828
 C411 C 0.60586 0.48529 0.33797
 C412 C 0.56546 0.46005 0.33548
 C413 C 0.62590 0.44950 0.39652
 C414 C 0.60558 0.42066 0.41444
 C415 C 0.56454 0.39694 0.41261
 C416 C 0.54452 0.40149 0.39270
 C417 C 0.54416 0.36837 0.43051
 C418 C 0.56423 0.36238 0.44970
 C419 C 0.60517 0.38484 0.45147
 C420 C 0.62564 0.41450 0.43390
 H421 H 0.51384 0.41333 0.35228
 H422 H 0.65720 0.50144 0.35957
 H423 H 0.62208 0.50664 0.32384
 H424 H 0.65732 0.46793 0.39792
 H425 H 0.51313 0.38282 0.39119
 H426 H 0.51271 0.35010 0.42943
 H427 H 0.54757 0.33938 0.46292
 H428 H 0.65717 0.43206 0.43501
 C429 C 0.56830 0.12482 0.35097
 C430 C 0.58294 0.14753 0.37215
 C431 C 0.61959 0.15494 0.38147
 C432 C 0.64079 0.13916 0.36958
 C433 C 0.62611 0.11658 0.34850
 C434 C 0.58969 0.10914 0.33858
 C435 C 0.63458 0.17822 0.40242
 C436 C 0.61333 0.19429 0.41414
 C437 C 0.57643 0.18648 0.40492
 C438 C 0.56141 0.16304 0.38407
 C439 C 0.55531 0.20267 0.41654
 C440 C 0.57080 0.22693 0.43688
 C441 C 0.60767 0.23536 0.44614
 C442 C 0.62862 0.21850 0.43473
 H443 H 0.53948 0.11843 0.34481
 H444 H 0.66908 0.14473 0.37640
 H445 H 0.64457 0.10669 0.33956
 H446 H 0.66287 0.18410 0.40947
 H447 H 0.53317 0.15729 0.37698
 H448 H 0.52696 0.19695 0.40973
 H449 H 0.55394 0.23940 0.44524
 H450 H 0.65714 0.22482 0.44156
 C451 C 0.87379 0.43261 0.34716
 C452 C 0.84862 0.41577 0.36685
 C453 C 0.84000 0.37721 0.37548
 C454 C 0.85686 0.35621 0.36420
 C455 C 0.88205 0.37329 0.34460
 C456 C 0.89080 0.41165 0.33593
 C457 C 0.81486 0.36042 0.39526
 C458 C 0.79854 0.38193 0.40662
 C459 C 0.80732 0.42054 0.39792
 C460 C 0.83207 0.43708 0.37804
 C461 C 0.79151 0.44227 0.40940
 C462 C 0.76766 0.42626 0.42956
 C463 C 0.75880 0.38802 0.43852
 C464 C 0.77401 0.36574 0.42675
 H465 H 0.87973 0.46190 0.34037
 H466 H 0.85070 0.32666 0.37058
 H467 H 0.89505 0.35666 0.33639
 H468 H 0.80827 0.33086 0.40191
 H469 H 0.83875 0.46669 0.37142
 H470 H 0.79790 0.47184 0.40293
 H471 H 0.75607 0.44390 0.43815
 H472 H 0.76750 0.33630 0.43357
 C473 C 0.55964 0.41902 1.15190
 C474 C 0.57053 0.40288 1.13254
 C475 C 0.54730 0.36209 1.12625
 C476 C 0.51347 0.33815 1.13960
 C477 C 0.50293 0.35444 1.15902
 C478 C 0.52597 0.39499 1.16543
 C479 C 0.55829 0.34604 1.10677
 C480 C 0.59221 0.37040 1.09351
 C481 C 0.61533 0.41117 1.10001
 C482 C 0.60438 0.42709 1.11942
 C483 C 0.64907 0.43564 1.08690
 C484 C 0.65968 0.42021 1.06727
 C485 C 0.63690 0.37988 1.06030
 C486 C 0.60328 0.35491 1.07372
 H487 H 0.57731 0.45050 1.15631
 H488 H 0.49530 0.30679 1.13512
 H489 H 0.47707 0.33510 1.16928
 H490 H 0.54044 0.31477 1.10189
 H491 H 0.62220 0.45839 1.12428
 H492 H 0.66715 0.46688 1.09172
 H493 H 0.68589 0.44013 1.05747
 H494 H 0.58544 0.32380 1.06855
 C495 C 0.89254 0.43749 1.14767
 C496 C 0.87043 0.43325 1.12672
 C497 C 0.85583 0.46036 1.12201
 C498 C 0.86464 0.49202 1.13807
 C499 C 0.88720 0.49641 1.15876
 C500 C 0.90103 0.46894 1.16396
 C501 C 0.83243 0.45513 1.10147
 C502 C 0.82372 0.42325 1.08553
 C503 C 0.83939 0.39693 1.09000
 C504 C 0.86246 0.40199 1.11057
 C505 C 0.83134 0.36551 1.07399
 C506 C 0.80723 0.35949 1.05400
 C507 C 0.79044 0.38463 1.04962
 C508 C 0.79918 0.41683 1.06539
 H509 H 0.90232 0.41562 1.15152
 H510 H 0.85406 0.51337 1.13466
 H511 H 0.89392 0.52147 1.17064
 H512 H 0.82075 0.47559 1.09802
 H513 H 0.87396 0.38139 1.11409
 H514 H 0.84325 0.34520 1.07711
 H515 H 0.80095 0.33433 1.04228
 H516 H 0.78652 0.43648 1.06220
 C517 C 0.59208 0.12512 1.15026
 C518 C 0.59877 0.14705 1.12858
 C519 C 0.56862 0.15290 1.11824
 C520 C 0.53229 0.13657 1.12963
 C521 C 0.52578 0.11484 1.15118
 C522 C 0.55550 0.10872 1.16209
 C523 C 0.57530 0.17520 1.09677
 C524 C 0.61191 0.19194 1.08553
 C525 C 0.64207 0.18588 1.09575
 C526 C 0.63527 0.16331 1.11714
 C527 C 0.67872 0.20297 1.08455
 C528 C 0.68568 0.22646 1.06367
 C529 C 0.65603 0.23305 1.05344
 C530 C 0.61900 0.21522 1.06442
 H531 H 0.61529 0.11987 1.15725
 H532 H 0.50891 0.14104 1.12202
 H533 H 0.49767 0.10451 1.15964
 H534 H 0.55212 0.17983 1.08894
 H535 H 0.65850 0.15882 1.12502
 H536 H 0.70219 0.19863 1.09213
 H537 H 0.71448 0.23982 1.05568
 H538 H 0.59587 0.22018 1.05690
 C539 C 0.42994 0.55327 1.14398
 C540 C 0.41565 0.56233 1.12271
 C541 C 0.38018 0.53302 1.11242
 C542 C 0.36000 0.49506 1.12326
 C543 C 0.37437 0.48633 1.14439
 C544 C 0.40918 0.51537 1.15513
 C545 C 0.36512 0.54223 1.09163
 C546 C 0.38493 0.58046 1.08104
 C547 C 0.42070 0.60965 1.09103
 C548 C 0.43590 0.60038 1.11180
 C549 C 0.44035 0.64778 1.08022
 C550 C 0.42433 0.65716 1.06000
 C551 C 0.38834 0.62859 1.05025
 C552 C 0.36908 0.59009 1.06078
 H553 H 0.45663 0.57606 1.15220
 H554 H 0.33293 0.47218 1.11550
 H555 H 0.35819 0.45670 1.15234
 H556 H 0.33772 0.51981 1.08390
 H557 H 0.46317 0.62288 1.11962
 H558 H 0.46786 0.67052 1.08758
 H559 H 0.43976 0.68706 1.05229
 H560 H 0.34141 0.56762 1.05342
 C561 C 0.12549 0.55428 1.15057
 C562 C 0.14757 0.57128 1.12965
 C563 C 0.16177 0.61257 1.12469
 C564 C 0.15350 0.63606 1.14066
 C565 C 0.13167 0.61893 1.16150
 C566 C 0.11760 0.57799 1.16674
 C567 C 0.18425 0.62980 1.10398
 C568 C 0.19299 0.60635 1.08824
 C569 C 0.17873 0.56505 1.09313
 C570 C 0.15594 0.54771 1.11375
 C571 C 0.18788 0.54190 1.07739
 C572 C 0.21131 0.55959 1.05715
 C573 C 0.22582 0.60070 1.05220
 C574 C 0.21621 0.62378 1.06783
 H575 H 0.11428 0.52253 1.15421
 H576 H 0.16423 0.66776 1.13714
 H577 H 0.12639 0.63794 1.17378
 H578 H 0.19525 0.66152 1.10022
 H579 H 0.14508 0.51603 1.11756
 H580 H 0.17721 0.51019 1.08086
 H581 H 0.21824 0.54109 1.04545
 H582 H 0.22726 0.65556 1.06436
 C583 C 0.43259 0.87468 1.14984
 C584 C 0.42270 0.85087 1.12889
 C585 C 0.44849 0.83737 1.12028
 C586 C 0.48355 0.84781 1.13261
 C587 C 0.49313 0.87142 1.15335
 C588 C 0.46792 0.88517 1.16220
 C589 C 0.43887 0.81351 1.09951
 C590 C 0.40374 0.80284 1.08717
 C591 C 0.37784 0.81626 1.09560
 C592 C 0.38751 0.84029 1.11643
 C593 C 0.34269 0.80521 1.08307
 C594 C 0.33322 0.78091 1.06247
 C595 C 0.35879 0.76730 1.05402
 C596 C 0.39411 0.77866 1.06654
 H597 H 0.41306 0.88538 1.15636
 H598 H 0.50352 0.83755 1.12628
 H599 H 0.52014 0.87843 1.16273
 H600 H 0.45870 0.80314 1.09299
 H601 H 0.36765 0.85059 1.12297
 H602 H 0.32243 0.81519 1.08925
 H603 H 0.30579 0.77259 1.05326
 H604 H 0.41422 0.76845 1.06037
 C605 C 0.57144 0.43626 0.65582
 C606 C 0.57835 0.41915 0.63529
 C607 C 0.55329 0.37831 0.62983
 C608 C 0.52160 0.35537 0.64502
 C609 C 0.51479 0.37275 0.66539
 C610 C 0.53968 0.41328 0.67099
 C611 C 0.56022 0.36120 0.60925
 C612 C 0.59174 0.38453 0.59398
 C613 C 0.61660 0.42543 0.59948
 C614 C 0.60984 0.44240 0.62010
 C615 C 0.64784 0.44884 0.58419
 C616 C 0.65441 0.43207 0.56355
 C617 C 0.62998 0.39147 0.55779
 C618 C 0.59871 0.36775 0.57323
 H619 H 0.59045 0.46770 0.65980
 H620 H 0.50209 0.32403 0.64115
 H621 H 0.49031 0.35437 0.67696
 H622 H 0.54104 0.32986 0.60506
 H623 H 0.62899 0.47376 0.62427
 H624 H 0.66718 0.48019 0.58816
 H625 H 0.67888 0.45102 0.55212
 H626 H 0.57964 0.33644 0.56901
 C627 C 0.56018 0.12890 0.64837
 C628 C 0.56904 0.15015 0.62637
 C629 C 0.53958 0.15468 0.61384
 C630 C 0.50177 0.13761 0.62334
 C631 C 0.49326 0.11669 0.64525
 C632 C 0.52233 0.11234 0.65808
 C633 C 0.54841 0.17661 0.59216
 C634 C 0.58644 0.19444 0.58293
 C635 C 0.61590 0.18969 0.59526
 C636 C 0.60699 0.16741 0.61688
 C637 C 0.65392 0.20787 0.58592
 C638 C 0.66285 0.23124 0.56485
 C639 C 0.63386 0.23669 0.55267
 C640 C 0.59554 0.21764 0.56174
 H641 H 0.58293 0.12607 0.65822
 H642 H 0.47883 0.14065 0.61390
 H643 H 0.46375 0.10365 0.65214
 H644 H 0.52582 0.18028 0.58267
 H645 H 0.62963 0.16396 0.62645
 H646 H 0.67688 0.20452 0.59510
 H647 H 0.69260 0.24557 0.55831
 H648 H 0.57281 0.22150 0.55262
 C649 C 0.88650 0.45543 0.63955
 C650 C 0.86194 0.44771 0.61932
 C651 C 0.84188 0.47011 0.61570
 C652 C 0.84727 0.50032 0.63216
 C653 C 0.87178 0.50783 0.65224
 C654 C 0.89133 0.48526 0.65627
 C655 C 0.81640 0.46164 0.59589
 C656 C 0.81059 0.43090 0.57969
 C657 C 0.83117 0.40897 0.58311
 C658 C 0.85679 0.41758 0.60283
 C659 C 0.82531 0.37830 0.56693
 C660 C 0.79868 0.36874 0.54785
 C661 C 0.77739 0.38974 0.54448
 C662 C 0.78396 0.42124 0.56038
 H663 H 0.90183 0.43820 0.64232
 H664 H 0.83215 0.51780 0.62967
 H665 H 0.87471 0.53070 0.66497
 H666 H 0.80072 0.47858 0.59327
 H667 H 0.87227 0.40047 0.60555
 H668 H 0.84092 0.36126 0.56924
 H669 H 0.79432 0.34437 0.53595
 H670 H 0.76778 0.43770 0.55808
 C671 C 0.43961 0.55129 0.64803
 C672 C 0.43405 0.56931 0.62714
 C673 C 0.45810 0.61089 0.62303
 C674 C 0.48774 0.63354 0.63967
 C675 C 0.49325 0.61530 0.66032
 C676 C 0.46910 0.57416 0.66479
 C677 C 0.45192 0.62922 0.60251
 C678 C 0.42198 0.60650 0.58602
 C679 C 0.39846 0.56479 0.58990
 C680 C 0.40465 0.54646 0.61041
 C681 C 0.36869 0.54214 0.57338
 C682 C 0.36159 0.56072 0.55349
 C683 C 0.38416 0.60235 0.54967
 C684 C 0.41475 0.62497 0.56592
 H685 H 0.42116 0.51943 0.65122
 H686 H 0.50647 0.66541 0.63680
 H687 H 0.51596 0.63355 0.67309
 H688 H 0.47011 0.66119 0.59951
 H689 H 0.38632 0.51453 0.61348
 H690 H 0.35047 0.51013 0.57603
 H691 H 0.33783 0.54247 0.54134
 H692 H 0.43241 0.65708 0.56327
 C693 C 0.42856 0.87316 0.65388
 C694 C 0.41334 0.84850 0.63352
 C695 C 0.37507 0.83742 0.62545
 C696 C 0.35283 0.85152 0.63777
 C697 C 0.36822 0.87631 0.65793
 C698 C 0.40631 0.88749 0.66654
 C699 C 0.35970 0.81253 0.60518
 C700 C 0.38237 0.79895 0.59270
 C701 C 0.42086 0.81047 0.60062
 C702 C 0.43604 0.83502 0.62100
 C703 C 0.44363 0.79731 0.58796
 C704 C 0.42851 0.77304 0.56760
 C705 C 0.39021 0.76120 0.55957
 C706 C 0.36723 0.77421 0.57233
 H707 H 0.45847 0.88232 0.65909
 H708 H 0.32333 0.84315 0.63191
 H709 H 0.34921 0.88510 0.66726
 H710 H 0.33023 0.80391 0.59907
 H711 H 0.46554 0.84370 0.62709
 H712 H 0.47319 0.80586 0.59378
 H713 H 0.44680 0.76331 0.55821
 H714 H 0.33771 0.76546 0.56630
 C715 C 0.12854 0.57062 0.64772
 C716 C 0.15232 0.58536 0.62716
 C717 C 0.16461 0.62505 0.61915
 C718 C 0.15297 0.64931 0.63184
 C719 C 0.12956 0.63463 0.65237
 C720 C 0.11679 0.59500 0.66083
 C721 C 0.18855 0.63995 0.59869
 C722 C 0.20074 0.61574 0.58626
 C723 C 0.18860 0.57606 0.59434
 C724 C 0.16437 0.56107 0.61465
 C725 C 0.20120 0.55211 0.58207
 C726 C 0.22590 0.56738 0.56213
 C727 C 0.23827 0.60683 0.55389
 C728 C 0.22527 0.63076 0.56603
 H729 H 0.12089 0.54063 0.65395
 H730 H 0.16188 0.67975 0.62584
 H731 H 0.12039 0.65430 0.66092
 H732 H 0.19795 0.67047 0.59259
 H733 H 0.15511 0.53061 0.62082
 H734 H 0.19220 0.52163 0.58802
 H735 H 0.23538 0.54822 0.55316
 H736 H 0.23475 0.66133 0.56004
 C737 C 0.44084 0.57111 0.85130
 C738 C 0.42399 0.57834 0.87171
 C739 C 0.38743 0.54829 0.88016
 C740 C 0.36829 0.51159 0.86794
 C741 C 0.38510 0.50475 0.84749
 C742 C 0.42152 0.53438 0.83895
 C743 C 0.37053 0.55551 0.90057
 C744 C 0.38955 0.59259 0.91247
 C745 C 0.42600 0.62270 0.90387
 C746 C 0.44310 0.61529 0.88368
 C747 C 0.44464 0.65996 0.91548
 C748 C 0.42725 0.66754 0.93531
 C749 C 0.39107 0.63787 0.94411
 C750 C 0.37249 0.60025 0.93267
 H751 H 0.46919 0.59400 0.84517
 H752 H 0.34016 0.48827 0.87407
 H753 H 0.36928 0.47641 0.83814
 H754 H 0.34249 0.53243 0.90706
 H755 H 0.47108 0.63842 0.87714
 H756 H 0.47255 0.68337 0.90911
 H757 H 0.44225 0.69673 0.94383
 H758 H 0.34443 0.57726 0.93915
 C759 C 0.11977 0.56775 0.84799
 C760 C 0.13992 0.58070 0.87006
 C761 C 0.14052 0.61357 0.88227
 C762 C 0.12031 0.63248 0.87235
 C763 C 0.10012 0.61936 0.85041
 C764 C 0.09975 0.58701 0.83758
 C765 C 0.16153 0.62715 0.90407
 C766 C 0.18198 0.60816 0.91379
 C767 C 0.18070 0.57478 0.90169
 C768 C 0.15963 0.56122 0.88001
 C769 C 0.20103 0.55578 0.91126
 C770 C 0.22323 0.57015 0.93231
 C771 C 0.22551 0.60379 0.94439
 C772 C 0.20424 0.62235 0.93515
 H773 H 0.11882 0.54166 0.83950
 H774 H 0.12052 0.65785 0.88140
 H775 H 0.08642 0.63617 0.84313
 H776 H 0.16229 0.65266 0.91331
 H777 H 0.15903 0.53581 0.87071
 H778 H 0.20024 0.53009 0.90226
 H779 H 0.23908 0.55507 0.93897
 H780 H 0.20582 0.64838 0.94418
 C781 C 0.41087 0.88437 0.85222
 C782 C 0.40536 0.86322 0.87402
 C783 C 0.43771 0.86448 0.88644
 C784 C 0.47520 0.88764 0.87703
 C785 C 0.48059 0.90882 0.85534
 C786 C 0.44853 0.90737 0.84227
 C787 C 0.43198 0.84219 0.90786
 C788 C 0.39415 0.81848 0.91691
 C789 C 0.36189 0.81787 0.90460
 C790 C 0.36769 0.84022 0.88331
 C791 C 0.32416 0.79437 0.91356
 C792 C 0.31818 0.77085 0.93420
 C793 C 0.34981 0.77034 0.94639
 C794 C 0.38792 0.79477 0.93778
 H795 H 0.38514 0.88080 0.84259
 H796 H 0.50047 0.88943 0.88647
 H797 H 0.51032 0.92724 0.84941
 H798 H 0.45683 0.84285 0.91726
 H799 H 0.34281 0.83933 0.87381
 H800 H 0.29916 0.79370 0.90439
 H801 H 0.28850 0.75249 0.94037
 H802 H 0.41259 0.79470 0.94695
 C803 C 0.56437 0.43893 0.85963
 C804 C 0.58327 0.43358 0.87992
 C805 C 0.62364 0.45934 0.88354
 C806 C 0.64417 0.49066 0.86705
 C807 C 0.62504 0.49590 0.84693
 C808 C 0.58516 0.46979 0.84289
 C809 C 0.64288 0.45303 0.90336
 C810 C 0.62222 0.42123 0.91956
 C811 C 0.58166 0.39613 0.91617
 C812 C 0.56246 0.40249 0.89643
 C813 C 0.56097 0.36454 0.93236
 C814 C 0.58035 0.35713 0.95142
 C815 C 0.62087 0.38116 0.95474
 C816 C 0.64156 0.41362 0.93885
 H817 H 0.53346 0.41902 0.85679
 H818 H 0.67508 0.51077 0.86955
 H819 H 0.64166 0.51976 0.83417
 H820 H 0.67394 0.47247 0.90597
 H821 H 0.53144 0.38288 0.89372
 H822 H 0.52986 0.34514 0.93007
 H823 H 0.56355 0.33195 0.96332
 H824 H 0.67277 0.43243 0.94116
 C825 C 0.87713 0.44977 0.84410
 C826 C 0.85489 0.43076 0.86466
 C827 C 0.84499 0.39043 0.86987
 C828 C 0.85786 0.36996 0.85444
 C829 C 0.88021 0.38923 0.83405
 C830 C 0.88990 0.42921 0.82862
 C831 C 0.82251 0.37135 0.89041
 C832 C 0.81009 0.39225 0.90588
 C833 C 0.82038 0.43271 0.90064
 C834 C 0.84255 0.45160 0.88008
 C835 C 0.80841 0.45379 0.91608
 C836 C 0.78651 0.43516 0.93660
 C837 C 0.77587 0.39493 0.94213
 C838 C 0.78768 0.37352 0.92655
 H839 H 0.88494 0.48081 0.84031
 H840 H 0.85060 0.33905 0.85812
 H841 H 0.88946 0.37265 0.82229
 H842 H 0.81482 0.34038 0.89438
 H843 H 0.85027 0.48259 0.87611
 H844 H 0.81603 0.48477 0.91230
 H845 H 0.77766 0.45238 0.94810
 H846 H 0.77972 0.34252 0.93057
 C847 C 0.56059 0.13730 0.84780
 C848 C 0.56973 0.15703 0.87015
 C849 C 0.53950 0.15362 0.88554
 C850 C 0.50052 0.12954 0.87850
 C851 C 0.49162 0.10906 0.85647
 C852 C 0.52150 0.11287 0.84074
 C853 C 0.54876 0.17412 0.90770
 C854 C 0.58791 0.19719 0.91489
 C855 C 0.61800 0.19946 0.89971
 C856 C 0.60876 0.17988 0.87735
 C857 C 0.65699 0.22126 0.90714
 C858 C 0.66627 0.24089 0.92934
 C859 C 0.63683 0.23974 0.94438
 C860 C 0.59758 0.21790 0.93703
 H861 H 0.58411 0.14140 0.83585
 H862 H 0.47691 0.12617 0.89015
 H863 H 0.46122 0.08983 0.85195
 H864 H 0.52557 0.17187 0.91940
 H865 H 0.63195 0.18209 0.86566
 H866 H 0.68036 0.22317 0.89577
 H867 H 0.69674 0.25789 0.93450
 H868 H 0.57471 0.21675 0.94859
   
