data_POSCAR
  _audit_creation_date              2014-09-24
  _audit_creation_method            'ToBaCCo'
  _symmetry_space_group_name_H-M    'P1'
  _symmetry_Int_Tables_number       1
  _symmetry_cell_setting            triclinic
  loop_
  _symmetry_equiv_pos_as_xyz
 x,y,z
_cell_length_a 39.6225
_cell_length_b 41.5946
_cell_length_c 21.2674
_cell_angle_alpha 90.023100
_cell_angle_beta 90.044500
_cell_angle_gamma 123.276300
loop_
  _atom_site_label
  _atom_site_type_symbol
  _atom_site_fract_x
  _atom_site_fract_y
  _atom_site_fract_z
O1 O 0.51234 1.03610 0.44739
 O2 O 0.47898 0.95791 0.56321
 O3 O 0.51986 1.03299 0.56883
 O4 O 0.46987 0.96141 0.44337
 O5 O 0.52601 0.96337 0.42676
 O6 O 0.57592 1.03445 0.55532
 O7 O 0.53501 0.95968 0.54684
 O8 O 0.56888 1.03832 0.43411
 Cu9 Cu 0.48971 0.99704 0.50745
 Cu10 Cu 0.55713 0.99922 0.48917
 C11 C 0.54652 1.05046 0.42112
 C12 C 0.50118 0.94515 0.57399
 C13 C 0.55620 1.04596 0.58370
 C14 C 0.48925 0.95006 0.41382
 O15 O 0.03688 0.52064 0.57928
 O16 O -0.03762 0.46686 0.45626
 O17 O 0.04061 0.51730 0.45761
 O18 O -0.04109 0.47826 0.57694
 O19 O -0.04582 0.52813 0.56131
 O20 O 0.03298 0.56545 0.44191
 O21 O -0.04519 0.51511 0.44169
 O22 O 0.03252 0.57073 0.56434
 Cu23 Cu 0.00013 0.49080 0.51871
 Cu24 Cu -0.00691 0.54971 0.50050
 C25 C 0.04750 0.55457 0.59338
 C26 C -0.05448 0.48131 0.42837
 C27 C 0.05065 0.54845 0.42973
 C28 C -0.05679 0.49725 0.59004
 O29 O 0.47667 0.44838 0.55626
 O30 O 0.44822 0.48662 0.42914
 O31 O 0.48811 0.45378 0.43373
 O32 O 0.45172 0.49507 0.55091
 O33 O 0.51316 0.54773 0.55231
 O34 O 0.54825 0.50807 0.43794
 O35 O 0.50832 0.54107 0.42942
 O36 O 0.53817 0.50097 0.55931
 Cu37 Cu 0.46045 0.46580 0.49255
 Cu38 Cu 0.53271 0.52962 0.49520
 C39 C 0.51173 0.46735 0.57951
 C40 C 0.47264 0.51976 0.40714
 C41 C 0.52483 0.47476 0.41573
 C42 C 0.47702 0.52906 0.57116
 O43 O 0.38992 0.65461 -0.07999
 O44 O 0.38525 0.71460 -0.09509
 C45 C 0.36666 0.73149 -0.09510
 O46 O 0.34256 0.72718 -0.05168
 O47 O 0.27485 0.65979 -0.04851
 C48 C 0.25513 0.62355 -0.05485
 O49 O 0.26434 0.60235 -0.02659
 O50 O 0.32638 0.60427 -0.07141
 C51 C 0.36034 0.62198 -0.09831
 O52 O 0.40993 0.67495 0.04155
 O53 O 0.40828 0.73608 0.02559
 C54 C 0.38946 0.74187 0.06786
 O55 O 0.35126 0.72209 0.07258
 O56 O 0.28064 0.65658 0.07693
 C57 C 0.27917 0.62974 0.10795
 O58 O 0.29673 0.61356 0.09022
 O59 O 0.35785 0.61364 0.04529
 C60 C 0.39314 0.64093 0.06184
 Cr61 Cr 0.39619 0.69392 -0.02617
 Cr62 Cr 0.31338 0.69044 0.01191
 Cr63 Cr 0.31243 0.61056 0.00899
 O64 O 0.34070 0.66490 -0.00178
 O65 O 0.59515 0.33287 -0.07263
 O66 O 0.59795 0.27175 -0.08506
 C67 C 0.61585 0.25430 -0.08719
 O68 O 0.64175 0.25898 -0.04632
 O69 O 0.71048 0.32529 -0.05228
 C70 C 0.73082 0.36103 -0.06306
 O71 O 0.72355 0.38430 -0.03711
 O72 O 0.65988 0.38109 -0.07669
 C73 C 0.62425 0.36356 -0.09749
 O74 O 0.58261 0.31773 0.05149
 O75 O 0.58128 0.25476 0.03846
 C76 C 0.60226 0.25051 0.07896
 O77 O 0.64048 0.27044 0.07870
 O78 O 0.71150 0.33499 0.07310
 C79 C 0.71451 0.36351 0.10124
 O80 O 0.69692 0.37943 0.08248
 O81 O 0.63462 0.37886 0.04301
 C82 C 0.60061 0.35284 0.06616
 Cr83 Cr 0.59139 0.29534 -0.01642
 Cr84 Cr 0.67499 0.29836 0.01288
 Cr85 Cr 0.67765 0.37889 0.00282
 O86 O 0.64806 0.32427 -0.00028
 C87 C 0.48883 0.91467 -0.38472
 C88 C 0.45198 0.89608 -0.35301
 C89 C 0.43955 0.86319 -0.31116
 N90 N 0.40514 0.84776 -0.27701
 N91 N 0.39392 0.81832 -0.23837
 C92 C 0.41661 0.80310 -0.23271
 N93 N 0.45083 0.81834 -0.26725
 N94 N 0.46209 0.84782 -0.30574
 C95 C 0.40560 0.77165 -0.18841
 C96 C 0.37391 0.75850 -0.14592
 H97 H 0.43181 0.90584 -0.35857
 H98 H 0.42453 0.76033 -0.18654
 H99 H 0.50888 0.90486 -0.37778
 H100 H 0.35570 0.77062 -0.14674
 C101 C 0.07568 0.57405 -0.35860
 C102 C 0.09074 0.55594 -0.32399
 C103 C 0.12043 0.57448 -0.27302
 N104 N 0.13110 0.55343 -0.24017
 N105 N 0.15859 0.56946 -0.19463
 C106 C 0.17653 0.60723 -0.18021
 N107 N 0.16580 0.62834 -0.21297
 N108 N 0.13817 0.61225 -0.25854
 C109 C 0.20822 0.62554 -0.13182
 C110 C 0.22000 0.60476 -0.09717
 H111 H 0.08014 0.52629 -0.33413
 H112 H 0.22365 0.65631 -0.12509
 H113 H 0.08541 0.60336 -0.34755
 H114 H 0.20419 0.57392 -0.10338
 C115 C 0.46650 0.54727 -0.38570
 C116 C 0.42811 0.53158 -0.36032
 C117 C 0.42079 0.55386 -0.31460
 N118 N 0.38366 0.53882 -0.28906
 N119 N 0.37738 0.55887 -0.24711
 C120 C 0.40798 0.59471 -0.22926
 N121 N 0.44497 0.60973 -0.25496
 N122 N 0.45122 0.58973 -0.29680
 C123 C 0.40222 0.61685 -0.18134
 C124 C 0.36526 0.60252 -0.15190
 H125 H 0.40346 0.50299 -0.37368
 H126 H 0.42824 0.64447 -0.16711
 H127 H 0.49039 0.57601 -0.37138
 H128 H 0.33931 0.57488 -0.16625
 C129 C 0.57573 0.07485 -0.36586
 C130 C 0.55645 0.09136 -0.33960
 C131 C 0.57425 0.12099 -0.29033
 N132 N 0.55500 0.13838 -0.27375
 N133 N 0.57003 0.16519 -0.22916
 C134 C 0.60486 0.17565 -0.19910
 N135 N 0.62413 0.15811 -0.21538
 N136 N 0.60915 0.13130 -0.26037
 C137 C 0.62101 0.20513 -0.14918
 C138 C 0.60407 0.22649 -0.13861
 H139 H 0.52697 0.08291 -0.35706
 H140 H 0.64599 0.20989 -0.12058
 H141 H 0.60576 0.08388 -0.35046
 H142 H 0.58007 0.22226 -0.16922
 C143 C 0.91403 0.48518 -0.36335
 C144 C 0.90008 0.45243 -0.32678
 C145 C 0.87056 0.44223 -0.27603
 N146 N 0.85520 0.40875 -0.24423
 N147 N 0.82824 0.39913 -0.19861
 C148 C 0.81575 0.42268 -0.18283
 N149 N 0.83136 0.45631 -0.21429
 N150 N 0.85824 0.46588 -0.26003
 C151 C 0.78500 0.41169 -0.13380
 C152 C 0.76456 0.37515 -0.10725
 H153 H 0.91096 0.43393 -0.33523
 H154 H 0.77694 0.43183 -0.12085
 H155 H 0.90225 0.50293 -0.35461
 H156 H 0.77195 0.35483 -0.12230
 C157 C 0.52017 0.44883 -0.36969
 C158 C 0.55861 0.46075 -0.34871
 C159 C 0.56409 0.43771 -0.30200
 N160 N 0.60167 0.44745 -0.28564
 N161 N 0.60662 0.42631 -0.24421
 C162 C 0.57421 0.39459 -0.21767
 N163 N 0.53667 0.38491 -0.23396
 N164 N 0.53173 0.40600 -0.27539
 C165 C 0.57923 0.37157 -0.17043
 C166 C 0.61734 0.38129 -0.15150
 H167 H 0.58488 0.48617 -0.36856
 H168 H 0.55260 0.34786 -0.14798
 H169 H 0.49436 0.42265 -0.35068
 H170 H 0.64376 0.40538 -0.17376
 C171 C 0.91500 0.45786 0.38035
 C172 C 0.88955 0.46763 0.35436
 C173 C 0.85805 0.44255 0.30835
 N174 N 0.83099 0.45086 0.28944
 N175 N 0.80241 0.42852 0.24779
 C176 C 0.79975 0.39699 0.22336
 N177 N 0.82687 0.38870 0.24219
 N178 N 0.85541 0.41099 0.28405
 C179 C 0.76918 0.37310 0.17528
 C180 C 0.74056 0.38076 0.15676
 H181 H 0.89198 0.49372 0.36934
 H182 H 0.77059 0.35071 0.15196
 H183 H 0.91145 0.43104 0.36690
 H184 H 0.73954 0.40322 0.18069
 C185 C 0.56139 0.08180 0.37528
 C186 C 0.53751 0.09364 0.34964
 C187 C 0.55428 0.12503 0.30319
 N188 N 0.52975 0.13238 0.27046
 N189 N 0.54502 0.16043 0.22768
 C190 C 0.58540 0.18221 0.21645
 N191 N 0.60982 0.17502 0.24953
 N192 N 0.59458 0.14698 0.29195
 C193 C 0.60353 0.21309 0.16939
 C194 C 0.58144 0.22044 0.12742
 H195 H 0.50597 0.07907 0.36247
 H196 H 0.63619 0.23005 0.16651
 H197 H 0.59239 0.09541 0.35989
 H198 H 0.54876 0.20332 0.12890
 C199 C 0.54197 0.46205 0.36833
 C200 C 0.52003 0.42860 0.33276
 C201 C 0.54003 0.42072 0.28215
 N202 N 0.51975 0.38693 0.25029
 N203 N 0.53796 0.37990 0.20468
 C204 C 0.57703 0.40645 0.18904
 N205 N 0.59716 0.44029 0.22059
 N206 N 0.57901 0.44726 0.26622
 C207 C 0.59789 0.39882 0.13978
 C208 C 0.57988 0.36287 0.11160
 H209 H 0.48809 0.40852 0.34136
 H210 H 0.62853 0.42138 0.12746
 H211 H 0.57396 0.48153 0.35917
 H212 H 0.54965 0.34019 0.12561
 C213 C 0.08302 0.56606 0.38264
 C214 C 0.10774 0.55284 0.36859
 C215 C 0.14035 0.57280 0.32174
 N216 N 0.16426 0.55974 0.30799
 N217 N 0.19337 0.57749 0.26497
 C218 C 0.19969 0.60903 0.23429
 N219 N 0.17592 0.62213 0.24828
 N220 N 0.14688 0.60442 0.29119
 C221 C 0.23018 0.62804 0.18439
 C222 C 0.25449 0.61520 0.16539
 H223 H 0.10328 0.52776 0.39236
 H224 H 0.23181 0.65155 0.15943
 H225 H 0.08810 0.59141 0.35894
 H226 H 0.25304 0.59179 0.19039
 C227 C 0.46784 0.92066 0.36496
 C228 C 0.48604 0.90611 0.32935
 C229 C 0.46269 0.87483 0.28373
 N230 N 0.48153 0.86295 0.24626
 N231 N 0.46047 0.83436 0.20534
 C232 C 0.41977 0.81652 0.20061
 N233 N 0.40097 0.82832 0.23819
 N234 N 0.42202 0.85695 0.27892
 C235 C 0.39586 0.78476 0.15617
 C236 C 0.41361 0.77352 0.11242
 H237 H 0.51786 0.91759 0.33534
 H238 H 0.36331 0.77022 0.15743
 H239 H 0.43619 0.90958 0.35777
 H240 H 0.44619 0.78870 0.10999
 C241 C 0.45768 0.53177 0.35510
 C242 C 0.47881 0.56748 0.32561
 C243 C 0.45937 0.57555 0.27420
 N244 N 0.47764 0.61113 0.24829
 N245 N 0.45929 0.61827 0.20296
 C246 C 0.42207 0.59007 0.18187
 N247 N 0.40405 0.55455 0.20745
 N248 N 0.42231 0.54746 0.25263
 C249 C 0.40048 0.59725 0.13340
 C250 C 0.41625 0.63330 0.10666
 H251 H 0.50899 0.58953 0.34090
 H252 H 0.37066 0.57353 0.11974
 H253 H 0.42725 0.51053 0.33952
 H254 H 0.44606 0.65704 0.12028
   
