data_POSCAR
  _audit_creation_date              2014-09-24
  _audit_creation_method            'ToBaCCo'
  _symmetry_space_group_name_H-M    'P1'
  _symmetry_Int_Tables_number       1
  _symmetry_cell_setting            triclinic
  loop_
  _symmetry_equiv_pos_as_xyz
 x,y,z
_cell_length_a 46.1051
_cell_length_b 43.5937
_cell_length_c 35.1201
_cell_angle_alpha 90.479400
_cell_angle_beta 90.019900
_cell_angle_gamma 89.977100
loop_
  _atom_site_label
  _atom_site_type_symbol
  _atom_site_fract_x
  _atom_site_fract_y
  _atom_site_fract_z
C1 C 0.29543 0.29173 0.23534
 H2 H 0.29691 0.29197 0.26609
 C3 C 0.31367 0.31042 0.21392
 H4 H 0.32922 0.32520 0.22815
 C5 C 0.27324 0.27233 0.17915
 H6 H 0.25765 0.25728 0.16569
 C7 C 0.29109 0.29067 0.15664
 H8 H 0.28899 0.28993 0.12592
 N9 N 0.27535 0.27361 0.21781
 C10 C 0.20679 0.26278 0.30235
 H11 H 0.20539 0.23805 0.30389
 C12 C 0.18827 0.28108 0.32439
 H13 H 0.17260 0.27047 0.34311
 C14 C 0.22862 0.30695 0.27575
 H15 H 0.24399 0.31702 0.25635
 C16 C 0.21053 0.32605 0.29724
 H17 H 0.21228 0.35073 0.29460
 Zn18 Zn 0.25097 0.24991 0.24947
 N19 N 0.22673 0.27592 0.27902
 C20 C 0.27326 0.22747 0.31978
 N21 N 0.27532 0.22613 0.28112
 C22 C 0.29531 0.20789 0.26359
 C23 C 0.31353 0.18917 0.28504
 C24 C 0.29110 0.20910 0.34231
 C25 C 0.20669 0.23724 0.19664
 C26 C 0.18806 0.21902 0.17466
 C27 C 0.21020 0.17395 0.20180
 C28 C 0.22840 0.19297 0.22323
 N29 N 0.22662 0.22401 0.21995
 H30 H 0.25775 0.24262 0.33323
 H31 H 0.29675 0.20761 0.23285
 H32 H 0.32902 0.17431 0.27082
 H33 H 0.28905 0.20991 0.37303
 H34 H 0.20536 0.26198 0.19510
 H35 H 0.17239 0.22969 0.15597
 H36 H 0.21187 0.14927 0.20446
 H37 H 0.24377 0.18285 0.24262
 C38 C 0.19027 0.31301 0.32187
 C39 C 0.31130 0.31006 0.17423
 C40 C 0.18994 0.18708 0.17721
 C41 C 0.31123 0.18961 0.32473
 C42 C 0.79615 0.79266 0.23488
 H43 H 0.79765 0.79289 0.26563
 C44 C 0.81426 0.81148 0.21345
 H45 H 0.82972 0.82633 0.22776
 C46 C 0.77401 0.77314 0.17872
 H47 H 0.75850 0.75799 0.16528
 C48 C 0.79173 0.79160 0.15617
 H49 H 0.78954 0.79080 0.12545
 N50 N 0.77616 0.77442 0.21737
 C51 C 0.70756 0.76337 0.30183
 H52 H 0.70622 0.73863 0.30335
 C53 C 0.68897 0.78160 0.32385
 H54 H 0.67332 0.77094 0.34254
 C55 C 0.72931 0.80762 0.27529
 H56 H 0.74467 0.81773 0.25592
 C57 C 0.71114 0.82665 0.29676
 H58 H 0.71284 0.85133 0.29415
 Zn59 Zn 0.75185 0.75064 0.24904
 N60 N 0.72749 0.77658 0.27854
 C61 C 0.77405 0.72823 0.31940
 N62 N 0.77622 0.72694 0.28075
 C63 C 0.79627 0.70873 0.26329
 C64 C 0.81440 0.68995 0.28480
 C65 C 0.79179 0.70980 0.34198
 C66 C 0.70761 0.73777 0.19619
 C67 C 0.68905 0.71946 0.17422
 C68 C 0.71134 0.67450 0.20142
 C69 C 0.72947 0.69361 0.22284
 N70 N 0.72758 0.72464 0.21952
 H71 H 0.75849 0.74335 0.33281
 H72 H 0.79779 0.70847 0.23255
 H73 H 0.82992 0.67508 0.27062
 H74 H 0.78963 0.71055 0.37269
 H75 H 0.70620 0.76250 0.19461
 H76 H 0.67335 0.73006 0.15551
 H77 H 0.71309 0.64983 0.20412
 H78 H 0.74486 0.68355 0.24225
 C79 C 0.69089 0.81354 0.32135
 C80 C 0.81186 0.81114 0.17373
 C81 C 0.69104 0.68753 0.17681
 C82 C 0.81196 0.69031 0.32447
 C83 C 0.79648 0.29118 0.73683
 H84 H 0.79803 0.29140 0.76757
 C85 C 0.81459 0.30996 0.71535
 H86 H 0.83012 0.32480 0.72954
 C87 C 0.77423 0.27173 0.68071
 H88 H 0.75866 0.25663 0.66728
 C89 C 0.79195 0.29017 0.65814
 H90 H 0.78977 0.28944 0.62743
 N91 N 0.77642 0.27299 0.71936
 C92 C 0.70788 0.26211 0.80393
 H93 H 0.70649 0.23738 0.80548
 C94 C 0.68931 0.28041 0.82591
 H95 H 0.67362 0.26980 0.84460
 C96 C 0.72970 0.30629 0.77732
 H97 H 0.74507 0.31636 0.75792
 C98 C 0.71156 0.32539 0.79874
 H99 H 0.71328 0.35006 0.79607
 Zn100 Zn 0.75208 0.24927 0.75105
 N101 N 0.72783 0.27526 0.78061
 C102 C 0.77432 0.22671 0.82132
 N103 N 0.77643 0.22545 0.78267
 C104 C 0.79642 0.20723 0.76512
 C105 C 0.81457 0.18838 0.78651
 C106 C 0.79206 0.20822 0.84385
 C107 C 0.70776 0.23660 0.69827
 C108 C 0.68915 0.21839 0.67626
 C109 C 0.71136 0.17331 0.70328
 C110 C 0.72954 0.19232 0.72474
 N111 N 0.72772 0.22337 0.72153
 H112 H 0.75881 0.24184 0.83479
 H113 H 0.79789 0.20703 0.73438
 H114 H 0.83001 0.17356 0.77208
 H115 H 0.78986 0.20905 0.87458
 H116 H 0.70641 0.26134 0.69678
 H117 H 0.67347 0.22907 0.65759
 H118 H 0.71306 0.14863 0.70587
 H119 H 0.74493 0.18219 0.74409
 C120 C 0.69127 0.31234 0.82334
 C121 C 0.81213 0.30964 0.67568
 C122 C 0.69107 0.18645 0.67872
 C123 C 0.81220 0.18867 0.82625
 C124 C 0.29537 0.79225 0.73624
 H125 H 0.29681 0.79253 0.76699
 C126 C 0.31359 0.81096 0.71481
 H127 H 0.32909 0.82580 0.72905
 C128 C 0.27330 0.77271 0.68004
 H129 H 0.25778 0.75758 0.66657
 C130 C 0.29114 0.79107 0.65753
 H131 H 0.28908 0.79027 0.62680
 N132 N 0.27537 0.77404 0.71870
 C133 C 0.20675 0.76304 0.80314
 H134 H 0.20542 0.73831 0.80471
 C135 C 0.18812 0.78130 0.82508
 H136 H 0.17246 0.77065 0.84377
 C137 C 0.22847 0.80727 0.77651
 H138 H 0.24383 0.81736 0.75712
 C139 C 0.21027 0.82632 0.79790
 H140 H 0.21193 0.85100 0.79521
 Zn141 Zn 0.25103 0.75029 0.75034
 N142 N 0.22668 0.77623 0.77983
 C143 C 0.27329 0.72785 0.82068
 N144 N 0.27541 0.72658 0.78203
 C145 C 0.29548 0.70844 0.76450
 C146 C 0.31372 0.68973 0.78594
 C147 C 0.29115 0.70949 0.84320
 C148 C 0.20684 0.73744 0.69743
 C149 C 0.18830 0.71914 0.67541
 C150 C 0.21056 0.67417 0.70263
 C151 C 0.22866 0.69326 0.72410
 N152 N 0.22678 0.72429 0.72080
 H153 H 0.25771 0.74292 0.83414
 H154 H 0.29696 0.70821 0.73376
 H155 H 0.32927 0.67494 0.77171
 H156 H 0.28905 0.71023 0.87392
 H157 H 0.20543 0.76217 0.69587
 H158 H 0.17263 0.72975 0.65667
 H159 H 0.21230 0.64949 0.70531
 H160 H 0.24403 0.68320 0.74353
 C161 C 0.19000 0.81323 0.82249
 C162 C 0.31128 0.81053 0.67512
 C163 C 0.19029 0.68721 0.67798
 C164 C 0.31136 0.69009 0.82562
 C165 C -0.03342 -0.02369 0.01680
 C166 C -0.01811 0.00031 -0.00043
 C167 C -0.03343 0.02433 -0.01767
 C168 C -0.06380 0.02415 -0.01806
 C169 C -0.07896 0.00032 -0.00045
 C170 C -0.06379 -0.02350 0.01717
 C171 C 0.01386 0.00031 -0.00041
 C172 C 0.02917 -0.02369 -0.01820
 C173 C 0.05955 -0.02351 -0.01853
 C174 C 0.07469 0.00028 -0.00035
 C175 C 0.05953 0.02408 0.01780
 C176 C 0.02916 0.02429 0.01741
 H177 H -0.02169 -0.04215 0.03045
 H178 H -0.02171 0.04278 -0.03132
 H179 H 0.01745 -0.04212 -0.03229
 H180 H 0.01744 0.04273 0.03148
 H181 H -0.10248 0.00033 -0.00046
 H182 H 0.09822 0.00027 -0.00032
 C183 C -0.03243 0.47599 0.51741
 C184 C -0.01714 0.50000 0.50015
 C185 C -0.03247 0.52399 0.48289
 C186 C -0.06284 0.52380 0.48251
 C187 C -0.07799 0.49998 0.50015
 C188 C -0.06281 0.47618 0.51779
 C189 C 0.01482 0.50000 0.50015
 C190 C 0.03014 0.47605 0.48228
 C191 C 0.06051 0.47625 0.48189
 C192 C 0.07566 0.50003 0.50010
 C193 C 0.06050 0.52379 0.51833
 C194 C 0.03013 0.52397 0.51799
 H195 H -0.02069 0.45755 0.53107
 H196 H -0.02075 0.54244 0.46923
 H197 H 0.01842 0.45763 0.46817
 H198 H 0.01840 0.54238 0.53211
 H199 H -0.10151 0.49998 0.50015
 H200 H 0.09918 0.50004 0.50008
 C201 C 0.46797 -0.02392 0.51734
 C202 C 0.48327 0.00008 0.50009
 C203 C 0.46796 0.02408 0.48281
 C204 C 0.43758 0.02389 0.48242
 C205 C 0.42243 0.00008 0.50005
 C206 C 0.43759 -0.02373 0.51770
 C207 C 0.51524 0.00007 0.50009
 C208 C 0.53054 -0.02384 0.48212
 C209 C 0.56092 -0.02365 0.48176
 C210 C 0.57607 0.00005 0.50010
 C211 C 0.56092 0.02377 0.51843
 C212 C 0.53054 0.02397 0.51807
 H213 H 0.47970 -0.04237 0.53101
 H214 H 0.47968 0.04253 0.46915
 H215 H 0.51882 -0.04221 0.46791
 H216 H 0.51882 0.04234 0.53228
 H217 H 0.39890 0.00008 0.50003
 H218 H 0.59959 0.00005 0.50010
 C219 C 0.46808 0.47586 0.01703
 C220 C 0.48339 0.49992 -0.00007
 C221 C 0.46809 0.52401 -0.01719
 C222 C 0.43771 0.52384 -0.01758
 C223 C 0.42255 0.49996 -0.00011
 C224 C 0.43770 0.47607 0.01739
 C225 C 0.51537 0.49991 -0.00004
 C226 C 0.53069 0.47586 -0.01770
 C227 C 0.56106 0.47605 -0.01804
 C228 C 0.57620 0.49990 0.00002
 C229 C 0.56104 0.52376 0.01805
 C230 C 0.53067 0.52396 0.01766
 H231 H 0.47980 0.45735 0.03060
 H232 H 0.47981 0.54250 -0.03074
 H233 H 0.51898 0.45738 -0.03170
 H234 H 0.51894 0.54244 0.03163
 H235 H 0.39902 0.49998 -0.00012
 H236 H 0.59973 0.49990 0.00004
 C237 C 0.12484 -0.11443 -0.05824
 C238 C 0.11302 -0.13771 -0.08806
 C239 C 0.13787 -0.12891 -0.11498
 C240 C 0.14995 -0.10601 -0.08552
 C241 C 0.10618 -0.08926 -0.07639
 C242 C 0.13104 -0.08053 -0.10333
 C243 C 0.09407 -0.11215 -0.10585
 C244 C 0.11921 -0.10373 -0.13309
 C245 C 0.15596 -0.15034 -0.13684
 C246 C 0.17126 -0.16730 -0.15520
 C247 C 0.08899 -0.06655 -0.05529
 C248 C 0.07532 -0.04725 -0.03832
 H249 H 0.12695 -0.11858 -0.02722
 H250 H 0.10583 -0.16148 -0.08204
 H251 H 0.17312 -0.10371 -0.07739
 H252 H 0.13827 -0.05678 -0.10938
 H253 H 0.07089 -0.11442 -0.11396
 H254 H 0.11708 -0.09956 -0.16411
 C255 C 0.12764 0.38712 0.44164
 C256 C 0.11545 0.36211 0.41435
 C257 C 0.13849 0.37094 0.38480
 C258 C 0.15094 0.39557 0.41175
 C259 C 0.10700 0.41059 0.42368
 C260 C 0.13004 0.41935 0.39412
 C261 C 0.09452 0.38597 0.39674
 C262 C 0.11784 0.39443 0.36687
 C263 C 0.15646 0.34950 0.36278
 C264 C 0.17165 0.33252 0.34431
 C265 C 0.08990 0.43329 0.44493
 C266 C 0.07627 0.45256 0.46200
 H267 H 0.13147 0.38437 0.47264
 H268 H 0.10967 0.33832 0.42241
 H269 H 0.17433 0.39929 0.41768
 H270 H 0.13587 0.44313 0.38602
 H271 H 0.07112 0.38229 0.39082
 H272 H 0.11401 0.39720 0.33588
 C273 C 0.62880 -0.11197 0.44116
 C274 C 0.61662 -0.13758 0.41475
 C275 C 0.63898 -0.12870 0.38435
 C276 C 0.65142 -0.10346 0.41040
 C277 C 0.60743 -0.08917 0.42331
 C278 C 0.62980 -0.08035 0.39290
 C279 C 0.59495 -0.11440 0.39727
 C280 C 0.61760 -0.10589 0.36653
 C281 C 0.65699 -0.15008 0.36229
 C282 C 0.67223 -0.16701 0.34380
 C283 C 0.59031 -0.06653 0.44463
 C284 C 0.57667 -0.04729 0.46177
 H285 H 0.63321 -0.11421 0.47208
 H286 H 0.61141 -0.16136 0.42348
 H287 H 0.67484 -0.09919 0.41557
 H288 H 0.63505 -0.05659 0.38413
 H289 H 0.57153 -0.11863 0.39212
 H290 H 0.61319 -0.10363 0.33561
 C291 C 0.62895 0.38739 -0.05753
 C292 C 0.61681 0.36166 -0.08380
 C293 C 0.63927 0.37036 -0.11416
 C294 C 0.65166 0.39571 -0.08824
 C295 C 0.60765 0.41012 -0.07566
 C296 C 0.63012 0.41876 -0.10603
 C297 C 0.59522 0.38478 -0.10157
 C298 C 0.61797 0.39310 -0.13226
 C299 C 0.65731 0.34887 -0.13600
 C300 C 0.67258 0.33186 -0.15434
 C301 C 0.59049 0.43290 -0.05462
 C302 C 0.57684 0.45225 -0.03772
 H303 H 0.63326 0.38530 -0.02657
 H304 H 0.61155 0.33793 -0.07492
 H305 H 0.67507 0.39998 -0.08299
 H306 H 0.63542 0.44247 -0.11495
 H307 H 0.57181 0.38055 -0.10680
 H308 H 0.61365 0.39522 -0.16323
 C309 C -0.10429 0.09860 -0.11674
 C310 C -0.13736 0.09670 -0.12406
 C311 C -0.14010 0.13078 -0.11317
 C312 C -0.10727 0.13304 -0.10617
 C313 C -0.10962 0.09040 -0.07487
 C314 C -0.11233 0.12448 -0.06392
 C315 C -0.14245 0.08817 -0.08189
 C316 C -0.14545 0.12259 -0.07129
 C317 C -0.15736 0.15272 -0.13497
 C318 C -0.17184 0.17021 -0.15338
 C319 C -0.09294 0.06738 -0.05402
 C320 C -0.07951 0.04794 -0.03737
 H321 H -0.08718 0.08849 -0.13521
 H322 H -0.14783 0.08550 -0.14902
 H323 H -0.09300 0.15175 -0.11640
 H324 H -0.10185 0.13563 -0.03895
 H325 H -0.15674 0.06947 -0.07168
 H326 H -0.16257 0.13271 -0.05285
 C327 C -0.10316 0.59825 0.38374
 C328 C -0.13622 0.59642 0.37635
 C329 C -0.13890 0.63051 0.38722
 C330 C -0.10608 0.63270 0.39430
 C331 C -0.10857 0.59007 0.42561
 C332 C -0.11122 0.62415 0.43654
 C333 C -0.14139 0.58791 0.41850
 C334 C -0.14433 0.62234 0.42909
 C335 C -0.15608 0.65249 0.36538
 C336 C -0.17050 0.67003 0.34696
 C337 C -0.09195 0.56703 0.44649
 C338 C -0.07855 0.54758 0.46318
 H339 H -0.08604 0.58809 0.36532
 H340 H -0.14668 0.58524 0.35136
 H341 H -0.09176 0.65137 0.38410
 H342 H -0.10075 0.63528 0.46153
 H343 H -0.15573 0.56925 0.42868
 H344 H -0.16145 0.63250 0.44749
 C345 C 0.36612 0.10843 0.44223
 C346 C 0.37840 0.13774 0.42343
 C347 C 0.36090 0.13019 0.38731
 C348 C 0.34836 0.10126 0.40579
 C349 C 0.39159 0.08998 0.42558
 C350 C 0.37408 0.08249 0.38947
 C351 C 0.40417 0.11891 0.40713
 C352 C 0.38638 0.11174 0.37068
 C353 C 0.34351 0.15204 0.36554
 C354 C 0.32894 0.16946 0.34717
 C355 C 0.40838 0.06705 0.44642
 C356 C 0.42186 0.04765 0.46309
 H357 H 0.35798 0.10682 0.47189
 H358 H 0.37997 0.16071 0.43714
 H359 H 0.32522 0.09424 0.40500
 H360 H 0.37248 0.05953 0.37572
 H361 H 0.42731 0.12590 0.40792
 H362 H 0.39452 0.11333 0.34102
 C363 C 0.39690 0.59846 -0.11586
 C364 C 0.36381 0.59648 -0.12297
 C365 C 0.36103 0.63055 -0.11199
 C366 C 0.39388 0.63288 -0.10519
 C367 C 0.39174 0.59019 -0.07397
 C368 C 0.38899 0.62424 -0.06293
 C369 C 0.35889 0.58789 -0.08079
 C370 C 0.35585 0.62229 -0.07010
 C371 C 0.34364 0.65246 -0.13366
 C372 C 0.32906 0.66991 -0.15197
 C373 C 0.40852 0.56717 -0.05328
 C374 C 0.42200 0.54769 -0.03675
 H375 H 0.41397 0.58841 -0.13445
 H376 H 0.35328 0.58530 -0.14789
 H377 H 0.40807 0.65163 -0.11547
 H378 H 0.39954 0.63539 -0.03800
 H379 H 0.34468 0.56914 -0.07054
 H380 H 0.33878 0.63233 -0.05153
 C381 C -0.13369 -0.10978 0.05671
 C382 C -0.12093 -0.13796 0.07756
 C383 C -0.13991 -0.13017 0.11227
 C384 C -0.15292 -0.10237 0.09176
 C385 C -0.10953 -0.08976 0.07396
 C386 C -0.12852 -0.08203 0.10868
 C387 C -0.09649 -0.11755 0.09446
 C388 C -0.11576 -0.11014 0.12949
 C389 C -0.15712 -0.15213 0.13408
 C390 C -0.17156 -0.16964 0.15249
 C391 C -0.09289 -0.06674 0.05312
 C392 C -0.07948 -0.04729 0.03647
 H393 H -0.14087 -0.10938 0.02655
 H394 H -0.11801 -0.16121 0.06502
 H395 H -0.17631 -0.09637 0.09089
 H396 H -0.13147 -0.05879 0.12125
 H397 H -0.07310 -0.12353 0.09532
 H398 H -0.10857 -0.11053 0.15966
 C399 C -0.10425 0.40309 0.61715
 C400 C -0.13757 0.40388 0.62249
 C401 C -0.13877 0.36944 0.61299
 C402 C -0.10569 0.36829 0.60797
 C403 C -0.10846 0.40989 0.57465
 C404 C -0.10963 0.37545 0.56510
 C405 C -0.14155 0.41101 0.57969
 C406 C -0.14301 0.37623 0.57049
 C407 C -0.15594 0.34745 0.63481
 C408 C -0.17035 0.32992 0.65321
 C409 C -0.09186 0.43293 0.55378
 C410 C -0.07848 0.45239 0.53711
 H411 H -0.08813 0.41438 0.63610
 H412 H -0.14924 0.41534 0.64631
 H413 H -0.09114 0.35047 0.61985
 H414 H -0.09795 0.36403 0.54126
 H415 H -0.15611 0.42883 0.56784
 H416 H -0.15913 0.36494 0.55156
 C417 C 0.39563 -0.09662 0.61696
 C418 C 0.36229 -0.09562 0.62206
 C419 C 0.36094 -0.13006 0.61262
 C420 C 0.39404 -0.13142 0.60783
 C421 C 0.39163 -0.08984 0.57443
 C422 C 0.39031 -0.12428 0.56493
 C423 C 0.35853 -0.08851 0.57924
 C424 C 0.35692 -0.12329 0.57008
 C425 C 0.34356 -0.15191 0.63436
 C426 C 0.32898 -0.16932 0.65270
 C427 C 0.40841 -0.06690 0.55363
 C428 C 0.42188 -0.04750 0.53700
 H429 H 0.41174 -0.08541 0.63601
 H430 H 0.35059 -0.08406 0.64579
 H431 H 0.40844 -0.14932 0.61984
 H432 H 0.40203 -0.13580 0.54119
 H433 H 0.34411 -0.07062 0.56725
 H434 H 0.34081 -0.13451 0.55105
 C435 C 0.36753 0.38992 0.05636
 C436 C 0.38008 0.36166 0.07725
 C437 C 0.36099 0.36951 0.11184
 C438 C 0.34819 0.39739 0.09128
 C439 C 0.39170 0.40980 0.07379
 C440 C 0.37261 0.41760 0.10839
 C441 C 0.40454 0.38194 0.09434
 C442 C 0.38517 0.38941 0.12925
 C443 C 0.34360 0.34763 0.13351
 C444 C 0.32902 0.33020 0.15183
 C445 C 0.40849 0.43279 0.05310
 C446 C 0.42198 0.45224 0.03656
 H447 H 0.36047 0.39039 0.02615
 H448 H 0.38294 0.33840 0.06470
 H449 H 0.32483 0.40351 0.09026
 H450 H 0.36971 0.44084 0.12098
 H451 H 0.42791 0.37585 0.09535
 H452 H 0.39224 0.38896 0.15946
 C453 C 0.11342 0.08695 0.11835
 C454 C 0.14532 0.09521 0.10936
 C455 C 0.13781 0.12933 0.11453
 C456 C 0.10615 0.12140 0.12385
 C457 C 0.10614 0.08975 0.07583
 C458 C 0.09859 0.12386 0.08095
 C459 C 0.13781 0.09769 0.06653
 C460 C 0.13056 0.13216 0.07200
 C461 C 0.15590 0.15072 0.13645
 C462 C 0.17120 0.16765 0.15485
 C463 C 0.08896 0.06707 0.05466
 C464 C 0.07530 0.04779 0.03765
 H465 H 0.10618 0.06812 0.13719
 H466 H 0.16472 0.08364 0.12127
 H467 H 0.09334 0.13139 0.14766
 H468 H 0.07916 0.13538 0.06902
 H469 H 0.15063 0.08770 0.04273
 H470 H 0.13782 0.15100 0.05319
 C471 C 0.11420 0.58677 0.61895
 C472 C 0.14609 0.59514 0.61003
 C473 C 0.13847 0.62924 0.61517
 C474 C 0.10682 0.62119 0.62442
 C475 C 0.10697 0.58953 0.57641
 C476 C 0.09930 0.62362 0.58151
 C477 C 0.13863 0.59759 0.56719
 C478 C 0.13126 0.63203 0.57263
 C479 C 0.15645 0.65070 0.63714
 C480 C 0.17166 0.66769 0.65557
 C481 C 0.08987 0.56681 0.55522
 C482 C 0.07625 0.54751 0.53819
 H483 H 0.10700 0.56792 0.63778
 H484 H 0.16552 0.58365 0.62199
 H485 H 0.09394 0.63115 0.64820
 H486 H 0.07986 0.63507 0.56953
 H487 H 0.15152 0.58763 0.54342
 H488 H 0.13848 0.65090 0.55383
 C489 C 0.61832 0.08417 0.61769
 C490 C 0.64861 0.09591 0.60568
 C491 C 0.63907 0.12876 0.61578
 C492 C 0.60902 0.11734 0.62811
 C493 C 0.60748 0.08925 0.57685
 C494 C 0.59789 0.12209 0.58691
 C495 C 0.63754 0.10068 0.56453
 C496 C 0.62826 0.13388 0.57494
 C497 C 0.65711 0.15011 0.63781
 C498 C 0.67238 0.16703 0.65629
 C499 C 0.59033 0.06662 0.55555
 C500 C 0.57668 0.04740 0.53842
 H501 H 0.61405 0.06349 0.63505
 H502 H 0.66966 0.08537 0.61363
 H503 H 0.59749 0.12443 0.65449
 H504 H 0.57683 0.13258 0.57894
 H505 H 0.64907 0.09358 0.53816
 H506 H 0.63255 0.15457 0.55761
 C507 C 0.61485 0.58702 0.11827
 C508 C 0.64672 0.59538 0.10923
 C509 C 0.63910 0.62949 0.11428
 C510 C 0.60747 0.62146 0.12364
 C511 C 0.60755 0.58969 0.07574
 C512 C 0.59988 0.62379 0.08075
 C513 C 0.63918 0.59773 0.06640
 C514 C 0.63183 0.63219 0.07174
 C515 C 0.65712 0.65099 0.13613
 C516 C 0.67236 0.66801 0.15448
 C517 C 0.59043 0.56690 0.05468
 C518 C 0.57679 0.54755 0.03776
 H519 H 0.60769 0.56821 0.13718
 H520 H 0.66617 0.58392 0.12117
 H521 H 0.59463 0.63146 0.14743
 H522 H 0.58042 0.63520 0.06878
 H523 H 0.65204 0.58773 0.04263
 H524 H 0.63901 0.65101 0.05286
   
