data_POSCAR
  _audit_creation_date              2014-09-24
  _audit_creation_method            'ToBaCCo'
  _symmetry_space_group_name_H-M    'P1'
  _symmetry_Int_Tables_number       1
  _symmetry_cell_setting            triclinic
  loop_
  _symmetry_equiv_pos_as_xyz
 x,y,z
_cell_length_a 38.1892
_cell_length_b 35.3337
_cell_length_c 30.8169
_cell_angle_alpha 89.742900
_cell_angle_beta 90.054100
_cell_angle_gamma 89.413900
loop_
  _atom_site_label
  _atom_site_type_symbol
  _atom_site_fract_x
  _atom_site_fract_y
  _atom_site_fract_z
C1 C 1.25191 0.24915 0.24711
 C2 C 0.74360 -0.25024 0.24829
 C3 C 0.74951 0.25332 -0.25398
 C4 C 1.25246 -0.25023 -0.24891
 C5 C 0.25188 0.24981 0.75345
 C6 C 0.74628 0.74763 0.75076
 C7 C 0.74960 0.25163 0.25409
 C8 C 0.25478 0.74969 0.24915
 O9 O 1.04542 0.06542 0.08003
 O10 O 1.08529 0.03205 0.03907
 C11 C 1.07713 0.05656 0.06875
 O12 O 0.95028 -0.07141 0.07627
 O13 O 0.91063 -0.03578 0.03703
 C14 C 0.91863 -0.06202 0.06502
 O15 O 1.04785 -0.06750 0.08040
 O16 O 1.08647 -0.03315 0.03924
 C17 C 1.07924 -0.05786 0.06919
 O18 O 0.94788 0.06717 0.07629
 O19 O 0.90939 0.03123 0.03705
 C20 C 0.91655 0.05735 0.06513
 Zr21 Zr 0.99705 0.04591 0.05576
 O22 O 0.99316 0.04403 0.12430
 O23 O 0.99957 0.10574 0.05675
 Zr24 Zr 0.99879 -0.04911 0.05575
 O25 O 0.99476 -0.04833 0.12428
 O26 O 1.00365 -0.10886 0.05616
 O27 O 1.02950 -0.00128 0.06440
 O28 O 0.96718 -0.00194 0.06345
 O29 O 0.94823 0.06810 -0.07450
 O30 O 0.90957 0.03160 -0.03594
 C31 C 0.91685 0.05816 -0.06368
 O32 O 1.04827 -0.06677 -0.07791
 O33 O 1.08669 -0.03280 -0.03632
 C34 C 1.07959 -0.05717 -0.06639
 O35 O 0.95082 -0.07157 -0.07424
 O36 O 0.91088 -0.03608 -0.03577
 C37 C 0.91908 -0.06246 -0.06330
 O38 O 1.04574 0.06611 -0.07759
 O39 O 1.08545 0.03240 -0.03631
 C40 C 1.07740 0.05718 -0.06604
 Zr41 Zr 0.99727 0.04630 -0.05392
 O42 O 0.99358 0.04437 -0.12246
 O43 O 0.99979 0.10611 -0.05562
 Zr44 Zr 0.99904 -0.04864 -0.05387
 O45 O 0.99508 -0.04659 -0.12241
 O46 O 1.00406 -0.10833 -0.05527
 Zr47 Zr 1.05076 -0.00077 0.00121
 Zr48 Zr 0.94535 -0.00188 0.00069
 O49 O 0.96735 -0.00147 -0.06189
 O50 O 1.02980 -0.00078 -0.06220
 O51 O 0.96577 0.05336 0.00079
 O52 O 1.02949 -0.05554 0.00108
 O53 O 1.02739 0.05348 0.00107
 O54 O 0.96779 -0.05671 0.00081
 H55 H 0.95130 -0.00219 0.08887
 H56 H 1.04540 -0.07786 0.00115
 H57 H 0.95141 -0.00161 -0.08728
 H58 H 1.04235 0.07622 0.00115
 H59 H 0.98443 -0.11900 0.03825
 H60 H 0.98647 -0.11870 -0.03505
 H61 H 1.01575 -0.03300 -0.13357
 H62 H 1.01517 0.03209 -0.13353
 H63 H 0.98185 0.11592 -0.03536
 H64 H 0.98058 0.11564 0.03791
 H65 H 1.01431 0.03092 0.13558
 H66 H 1.01484 -0.03392 0.13560
 O67 O 1.05108 0.57043 0.57466
 O68 O 1.09040 0.53504 0.53513
 C69 C 1.08260 0.56054 0.56380
 O70 O 0.95423 0.43296 0.57278
 O71 O 0.91482 0.46987 0.53477
 C72 C 0.92268 0.44289 0.56189
 O73 O 1.05142 0.43603 0.57763
 O74 O 1.09056 0.47002 0.53687
 C75 C 1.08290 0.44503 0.56625
 O76 O 0.95386 0.57578 0.56892
 O77 O 0.91467 0.53835 0.53276
 C78 C 0.92235 0.56612 0.55841
 Zr79 Zr 1.00236 0.55086 0.55191
 O80 O 0.99796 0.54750 0.62035
 O81 O 1.00542 0.61039 0.55632
 Zr82 Zr 1.00259 0.45643 0.55458
 O83 O 0.99861 0.46316 0.62270
 O84 O 1.00459 0.39714 0.56367
 O85 O 1.03430 0.50350 0.56174
 O86 O 0.97129 0.50403 0.56095
 O87 O 0.95383 0.57112 0.42090
 O88 O 0.91470 0.53622 0.46062
 C89 C 0.92238 0.56209 0.43231
 O90 O 1.05159 0.43423 0.42172
 O91 O 1.09062 0.46889 0.46164
 C92 C 1.08303 0.44348 0.43296
 O93 O 0.95430 0.43206 0.42503
 O94 O 0.91490 0.46891 0.46264
 C95 C 0.92278 0.44184 0.43595
 O96 O 1.05123 0.56751 0.41779
 O97 O 1.09044 0.53370 0.45968
 C98 C 1.08273 0.55815 0.42950
 Zr99 Zr 1.00257 0.54918 0.44213
 O100 O 0.99884 0.54630 0.37364
 O101 O 1.00608 0.60892 0.43924
 Zr102 Zr 1.00281 0.45432 0.44473
 O103 O 0.99908 0.45526 0.37614
 O104 O 1.00630 0.39448 0.44478
 Zr105 Zr 1.05527 0.50221 0.49835
 Zr106 Zr 0.94989 0.50309 0.49804
 O107 O 0.97188 0.50184 0.43547
 O108 O 1.03432 0.50133 0.43500
 O109 O 0.97139 0.55789 0.49662
 O110 O 1.03298 0.44795 0.49990
 O111 O 1.03277 0.55690 0.49691
 O112 O 0.97172 0.44798 0.49970
 H113 H 0.95475 0.50463 0.58572
 H114 H 1.04832 0.42518 0.50032
 H115 H 0.95599 0.50146 0.41004
 H116 H 1.04803 0.57939 0.49626
 H117 H 1.00593 0.38580 0.53449
 H118 H 0.98808 0.38493 0.46473
 H119 H 1.02039 0.46746 0.36471
 H120 H 1.01982 0.53263 0.36292
 H121 H 0.98658 0.61960 0.45658
 H122 H 0.99801 0.62061 0.52787
 H123 H 1.02057 0.53798 0.63195
 H124 H 1.02182 0.47083 0.63372
 O125 O 0.56147 -0.05392 0.57638
 O126 O 0.52791 -0.09490 0.53672
 C127 C 0.55211 -0.08756 0.56503
 O128 O 0.43416 0.05498 0.57460
 O129 O 0.46905 0.09719 0.53826
 C130 C 0.44348 0.08897 0.56427
 O131 O 0.43672 -0.04985 0.57908
 O132 O 0.46743 -0.09293 0.53793
 C133 C 0.44456 -0.08403 0.56744
 O134 O 0.56689 0.05063 0.57294
 O135 O 0.53294 0.09511 0.53748
 C136 C 0.55844 0.08520 0.56320
 Zr137 Zr 0.54316 -0.00046 0.55506
 O138 O 0.53898 0.00295 0.62350
 O139 O 0.59817 -0.00441 0.56148
 Zr140 Zr 0.45606 0.00238 0.55678
 O141 O 0.46221 0.00586 0.62499
 O142 O 0.40121 0.00167 0.56569
 O143 O 0.49909 -0.03367 0.56384
 O144 O 0.50032 0.03468 0.56421
 O145 O 0.56346 0.05302 0.42562
 O146 O 0.53180 0.09622 0.46547
 C147 C 0.55592 0.08718 0.43757
 O148 O 0.43499 -0.04745 0.42285
 O149 O 0.46640 -0.09170 0.46202
 C150 C 0.44297 -0.08196 0.43335
 O151 O 0.43395 0.05728 0.42870
 O152 O 0.46852 0.09830 0.46690
 C153 C 0.44311 0.09088 0.44036
 O154 O 0.55853 -0.05136 0.42050
 O155 O 0.52673 -0.09366 0.46095
 C156 C 0.54972 -0.08531 0.43149
 Zr157 Zr 0.54182 0.00117 0.44526
 O158 O 0.53860 0.00652 0.37687
 O159 O 0.59702 -0.00424 0.44198
 Zr160 Zr 0.45436 0.00395 0.44701
 O161 O 0.45590 0.00927 0.37853
 O162 O 0.39897 0.00208 0.44591
 Zr163 Zr 0.49781 -0.05538 0.50007
 Zr164 Zr 0.49995 0.05881 0.50168
 O165 O 0.49859 0.03617 0.43871
 O166 O 0.49735 -0.03160 0.43713
 O167 O 0.55026 0.03358 0.50043
 O168 O 0.44795 -0.02940 0.50154
 O169 O 0.54856 -0.03259 0.49951
 O170 O 0.44877 0.03678 0.50242
 H171 H 0.50088 0.05225 0.58919
 H172 H 0.42669 -0.04522 0.50154
 H173 H 0.49853 0.05396 0.41376
 H174 H 0.56926 -0.04969 0.49864
 H175 H 0.39064 0.00070 0.53647
 H176 H 0.39020 0.02084 0.46713
 H177 H 0.46637 -0.01426 0.36675
 H178 H 0.52684 -0.01624 0.36559
 H179 H 0.60706 0.01428 0.46239
 H180 H 0.60781 -0.00562 0.53179
 H181 H 0.53153 -0.02208 0.63447
 H182 H 0.46909 -0.01955 0.63585
 O183 O 0.54674 0.56238 0.08041
 O184 O 0.58645 0.53051 0.03776
 C185 C 0.57838 0.55410 0.06821
 O186 O 0.45424 0.42210 0.07087
 O187 O 0.41365 0.45904 0.03497
 C188 C 0.42240 0.43106 0.06010
 O189 O 0.55182 0.43000 0.07557
 O190 O 0.58894 0.46707 0.03549
 C191 C 0.58273 0.44116 0.06420
 O192 O 0.44884 0.56329 0.07702
 O193 O 0.41100 0.52666 0.03780
 C194 C 0.41772 0.55299 0.06563
 Zr195 Zr 0.49822 0.54270 0.05658
 O196 O 0.49462 0.53784 0.12496
 O197 O 0.49987 0.60237 0.06152
 Zr198 Zr 0.50190 0.44789 0.05317
 O199 O 0.49782 0.44883 0.12171
 O200 O 0.50830 0.38837 0.05498
 O201 O 0.53162 0.49611 0.06308
 O202 O 0.46921 0.49395 0.06296
 O203 O 0.44777 0.56759 -0.07166
 O204 O 0.41052 0.52855 -0.03437
 C205 C 0.41683 0.55639 -0.06056
 O206 O 0.55075 0.43513 -0.08152
 O207 O 0.58842 0.46936 -0.03922
 C208 C 0.58183 0.44532 -0.06965
 O209 O 0.45328 0.42666 -0.07537
 O210 O 0.41318 0.46102 -0.03592
 C211 C 0.42161 0.43466 -0.06313
 O212 O 0.54550 0.56776 -0.07646
 O213 O 0.58578 0.53346 -0.03672
 C214 C 0.57731 0.55912 -0.06508
 Zr215 Zr 0.49751 0.54606 -0.05336
 O216 O 0.49572 0.54249 -0.12174
 O217 O 0.49831 0.60590 -0.05553
 Zr218 Zr 0.50118 0.45138 -0.05678
 O219 O 0.49652 0.45638 -0.12506
 O220 O 0.50766 0.39208 -0.06271
 Zr221 Zr 0.55196 0.49880 -0.00047
 Zr222 Zr 0.44717 0.49522 0.00034
 O223 O 0.46829 0.49786 -0.06264
 O224 O 0.53085 0.50011 -0.06367
 O225 O 0.46656 0.55090 0.00210
 O226 O 0.53200 0.44352 -0.00230
 O227 O 0.52775 0.55254 0.00166
 O228 O 0.47096 0.44104 -0.00184
 H229 H 0.45311 0.49252 0.08809
 H230 H 0.54831 0.42155 -0.00325
 H231 H 0.45190 0.49786 -0.08760
 H232 H 0.54221 0.57564 0.00243
 H233 H 0.49337 0.37792 0.03183
 H234 H 0.49267 0.38018 -0.04049
 H235 H 0.51624 0.47196 -0.13541
 H236 H 0.49460 0.56893 -0.13252
 H237 H 0.48274 0.61508 -0.03215
 H238 H 0.48267 0.61285 0.04057
 H239 H 0.51669 0.52618 0.13558
 H240 H 0.51940 0.46035 0.13325
 C241 C 1.17265 0.20023 0.19273
 C242 C 1.18844 0.16785 0.17523
 C243 C 1.22446 0.16202 0.18040
 C244 C 1.24440 0.18804 0.20366
 C245 C 1.22864 0.21994 0.22360
 C246 C 1.19252 0.22628 0.21600
 C247 C 1.16759 0.14121 0.15128
 C248 C 1.14912 0.11970 0.13154
 C249 C 1.12599 0.09573 0.10888
 C250 C 1.10469 0.07677 0.09012
 H251 H 1.14493 0.20563 0.18791
 H252 H 1.23721 0.13751 0.16621
 H253 H 1.27236 0.18319 0.20630
 H254 H 1.17943 0.25172 0.22703
 C255 C 1.22085 0.68948 0.65385
 C256 C 1.19109 0.67268 0.67141
 C257 C 1.18064 0.68156 0.71360
 C258 C 1.19986 0.70713 0.73819
 C259 C 1.22954 0.72535 0.72079
 C260 C 1.24017 0.71509 0.67836
 C261 C 1.17127 0.64609 0.64641
 C262 C 1.15366 0.62431 0.62608
 C263 C 1.13131 0.59995 0.60315
 C264 C 1.11028 0.58073 0.58451
 H265 H 1.22955 0.68221 0.62146
 H266 H 1.15786 0.66830 0.72777
 H267 H 1.19183 0.71243 0.77132
 H268 H 1.26414 0.72543 0.66427
 C269 C 0.66143 0.21106 0.70776
 C270 C 0.67194 0.19094 0.67107
 C271 C 0.70752 0.18828 0.66066
 C272 C 0.73230 0.20728 0.68569
 C273 C 0.72182 0.23055 0.72061
 C274 C 0.68609 0.23004 0.73276
 C275 C 0.64617 0.17206 0.64511
 C276 C 0.62451 0.15556 0.62419
 C277 C 0.59970 0.13435 0.60097
 C278 C 0.57972 0.11366 0.58262
 H279 H 0.63410 0.21207 0.71712
 H280 H 0.71611 0.17173 0.63306
 H281 H 0.75968 0.20496 0.67688
 H282 H 0.67681 0.24430 0.76156
 C283 C 0.67260 0.68130 0.20736
 C284 C 0.68970 0.66362 0.17293
 C285 C 0.72427 0.67291 0.16306
 C286 C 0.74137 0.70065 0.18716
 C287 C 0.72370 0.72067 0.22039
 C288 C 0.68947 0.70896 0.23127
 C289 C 0.67081 0.63650 0.14791
 C290 C 0.65242 0.61510 0.12831
 C291 C 0.62841 0.59188 0.10674
 C292 C 0.60621 0.57371 0.08901
 H293 H 0.64609 0.67354 0.21595
 H294 H 0.73798 0.65876 0.13689
 H295 H 0.76842 0.70678 0.17967
 H296 H 0.67560 0.72036 0.25890
 C297 C 0.80774 -0.17085 0.21802
 C298 C 0.80267 -0.16695 0.17328
 C299 C 0.77694 -0.18826 0.15269
 C300 C 0.75736 -0.21448 0.17633
 C301 C 0.76402 -0.22095 0.22094
 C302 C 0.78819 -0.19701 0.24171
 C303 C 0.82482 -0.14219 0.14838
 C304 C 0.84443 -0.12236 0.12791
 C305 C 0.86874 -0.10017 0.10469
 C306 C 0.89076 -0.08218 0.08585
 H307 H 0.82716 -0.15402 0.23455
 H308 H 0.77214 -0.18481 0.11824
 H309 H 0.73699 -0.22939 0.15933
 H310 H 0.79265 -0.19944 0.27633
 C311 C 0.82249 0.32065 0.70935
 C312 C 0.81312 0.32889 0.66649
 C313 C 0.78380 0.31184 0.64824
 C314 C 0.76381 0.28665 0.67274
 C315 C 0.77332 0.27708 0.71590
 C316 C 0.80260 0.29550 0.73392
 C317 C 0.83342 0.35533 0.64164
 C318 C 0.85135 0.37716 0.62161
 C319 C 0.87393 0.40185 0.59927
 C320 C 0.89504 0.42163 0.58138
 H321 H 0.84490 0.33414 0.72406
 H322 H 0.77590 0.31862 0.61531
 H323 H 0.74018 0.27613 0.65802
 H324 H 0.80976 0.29076 0.76754
 C325 C 0.29693 -0.18704 0.66535
 C326 C 0.33223 -0.18975 0.67723
 C327 C 0.34172 -0.20921 0.71502
 C328 C 0.31634 -0.22755 0.73968
 C329 C 0.28091 -0.22804 0.72614
 C330 C 0.27143 -0.20537 0.69004
 C331 C 0.35865 -0.17148 0.65160
 C332 C 0.38057 -0.15527 0.63070
 C333 C 0.40527 -0.13409 0.60713
 C334 C 0.42468 -0.11312 0.58810
 H335 H 0.28911 -0.17096 0.63687
 H336 H 0.36881 -0.21020 0.72550
 H337 H 0.32484 -0.24132 0.76931
 H338 H 0.24429 -0.20306 0.68007
 C339 C 0.27320 0.31694 0.15280
 C340 C 0.30929 0.31135 0.14830
 C341 C 0.32595 0.28175 0.17057
 C342 C 0.30732 0.25998 0.20027
 C343 C 0.27190 0.26857 0.20964
 C344 C 0.25443 0.29495 0.18237
 C345 C 0.33016 0.33802 0.12479
 C346 C 0.34929 0.36048 0.10778
 C347 C 0.37334 0.38627 0.09023
 C348 C 0.39516 0.40743 0.07634
 H349 H 0.25986 0.33929 0.13493
 H350 H 0.35373 0.27643 0.16629
 H351 H 0.32120 0.23735 0.21685
 H352 H 0.22667 0.30044 0.18629
 C353 C 0.82237 0.18400 -0.21393
 C354 C 0.80626 0.16708 -0.17813
 C355 C 0.77148 0.17635 -0.16838
 C356 C 0.75339 0.20341 -0.19334
 C357 C 0.77010 0.22292 -0.22762
 C358 C 0.80439 0.21109 -0.23884
 C359 C 0.82600 0.14098 -0.15117
 C360 C 0.84402 0.12010 -0.12919
 C361 C 0.86708 0.09687 -0.10452
 C362 C 0.88865 0.07832 -0.08484
 H363 H 0.84901 0.17635 -0.22256
 H364 H 0.75841 0.16295 -0.14127
 H365 H 0.72645 0.20995 -0.18515
 H366 H 0.81761 0.22243 -0.26695
 C367 C 0.82457 0.69464 0.29232
 C368 C 0.80937 0.67236 0.32466
 C369 C 0.77343 0.67494 0.33227
 C370 C 0.75282 0.70013 0.30807
 C371 C 0.76782 0.72430 0.27654
 C372 C 0.80402 0.71991 0.26804
 C373 C 0.83073 0.64651 0.34952
 C374 C 0.84949 0.62540 0.36991
 C375 C 0.87289 0.60170 0.39298
 C376 C 0.89450 0.58270 0.41168
 H377 H 0.85232 0.69211 0.28544
 H378 H 0.76125 0.65727 0.35667
 H379 H 0.72489 0.70080 0.31402
 H380 H 0.81663 0.73507 0.24197
 C381 C 0.29804 0.17820 0.32549
 C382 C 0.32647 0.19963 0.33953
 C383 C 0.32915 0.23740 0.32676
 C384 C 0.30448 0.25314 0.29835
 C385 C 0.27729 0.23102 0.28066
 C386 C 0.27330 0.19389 0.29697
 C387 C 0.35377 0.18204 0.36496
 C388 C 0.37651 0.16552 0.38471
 C389 C 0.40217 0.14330 0.40604
 C390 C 0.42236 0.12121 0.42269
 H391 H 0.29526 0.14911 0.33609
 H392 H 0.35072 0.25449 0.33798
 H393 H 0.30746 0.28241 0.28865
 H394 H 0.25135 0.17664 0.28772
 C395 C 0.30893 0.66591 -0.20927
 C396 C 0.30104 0.66401 -0.16515
 C397 C 0.27576 0.68839 -0.14761
 C398 C 0.25933 0.71565 -0.17395
 C399 C 0.26897 0.71985 -0.21803
 C400 C 0.29278 0.69307 -0.23549
 C401 C 0.32095 0.63857 -0.13812
 C402 C 0.34002 0.61796 -0.11755
 C403 C 0.36479 0.59500 -0.09582
 C404 C 0.38775 0.57661 -0.07895
 H405 H 0.32820 0.64686 -0.22331
 H406 H 0.26900 0.68659 -0.11353
 H407 H 0.23912 0.73307 -0.15949
 H408 H 0.29970 0.69398 -0.26953
 C409 C 1.17824 -0.18058 -0.21468
 C410 C 1.19330 -0.16285 -0.17885
 C411 C 1.22791 -0.17153 -0.16741
 C412 C 1.24681 -0.19889 -0.19063
 C413 C 1.23109 -0.21929 -0.22478
 C414 C 1.19704 -0.20797 -0.23786
 C415 C 1.17257 -0.13686 -0.15325
 C416 C 1.15379 -0.11631 -0.13214
 C417 C 1.13000 -0.09374 -0.10804
 C418 C 1.10800 -0.07603 -0.08835
 H419 H 1.15175 -0.17342 -0.22459
 H420 H 1.24016 -0.15753 -0.14021
 H421 H 1.27357 -0.20505 -0.18109
 H422 H 1.18462 -0.22001 -0.26605
 C423 C 1.18659 0.29034 0.33043
 C424 C 1.19377 0.32905 0.32867
 C425 C 1.22044 0.34215 0.30179
 C426 C 1.23917 0.31692 0.27572
 C427 C 1.23073 0.27798 0.27461
 C428 C 1.20534 0.26498 0.30434
 C429 C 1.17319 0.35552 0.35347
 C430 C 1.15504 0.37759 0.37318
 C431 C 1.13221 0.40260 0.39512
 C432 C 1.11089 0.42249 0.41293
 H433 H 1.16640 0.27975 0.35183
 H434 H 1.22685 0.37195 0.30101
 H435 H 1.26062 0.32822 0.25704
 H436 H 1.19970 0.23509 0.30689
 C437 C 0.69513 -0.20284 0.34460
 C438 C 0.66544 -0.18833 0.32356
 C439 C 0.66333 -0.18943 0.27834
 C440 C 0.68968 -0.20732 0.25447
 C441 C 0.71798 -0.22586 0.27550
 C442 C 0.72155 -0.22080 0.32076
 C443 C 0.63747 -0.17147 0.34818
 C444 C 0.61442 -0.15621 0.36841
 C445 C 0.58878 -0.13571 0.39153
 C446 C 0.56907 -0.11481 0.41050
 H447 H 0.69772 -0.20063 0.37951
 H448 H 0.64099 -0.17710 0.26157
 H449 H 0.68696 -0.20870 0.21953
 H450 H 0.74430 -0.23118 0.33816
 C451 C 0.72367 0.31720 -0.15642
 C452 C 0.69870 0.34100 -0.17591
 C453 C 0.69174 0.33785 -0.22016
 C454 C 0.70859 0.31011 -0.24458
 C455 C 0.73210 0.28391 -0.22510
 C456 C 0.74075 0.28933 -0.18091
 C457 C 0.67811 0.36689 -0.15054
 C458 C 0.65869 0.38748 -0.13070
 C459 C 0.63373 0.40984 -0.10878
 C460 C 0.61075 0.42716 -0.09073
 H461 H 0.72968 0.31990 -0.12221
 H462 H 0.67267 0.35638 -0.23568
 H463 H 0.70242 0.30827 -0.27880
 H464 H 0.76067 0.27236 -0.16496
 C465 C 1.22457 0.16366 -0.17731
 C466 C 1.18848 0.16922 -0.17278
 C467 C 1.17257 0.20122 -0.19140
 C468 C 1.19241 0.22712 -0.21519
 C469 C 1.22861 0.22096 -0.22219
 C470 C 1.24447 0.18953 -0.20106
 C471 C 1.16767 0.14259 -0.14853
 C472 C 1.14929 0.12097 -0.12862
 C473 C 1.12627 0.09679 -0.10588
 C474 C 1.10501 0.07761 -0.08717
 H475 H 1.23740 0.13946 -0.16227
 H476 H 1.14478 0.20643 -0.18710
 H477 H 1.17921 0.25228 -0.22713
 H478 H 1.27247 0.18486 -0.20326
 C479 C 1.17770 0.69033 0.28802
 C480 C 1.19286 0.67015 0.32242
 C481 C 1.22788 0.67604 0.33304
 C482 C 1.24756 0.70234 0.30979
 C483 C 1.23246 0.72481 0.27606
 C484 C 1.19727 0.71669 0.26463
 C485 C 1.17241 0.64318 0.34647
 C486 C 1.15438 0.62130 0.36638
 C487 C 1.13169 0.59698 0.38924
 C488 C 1.11050 0.57795 0.40813
 H489 H 1.15078 0.68526 0.27877
 H490 H 1.24017 0.65996 0.35902
 H491 H 1.27495 0.70496 0.31817
 H492 H 1.18477 0.72994 0.23689
 C493 C 0.70559 0.18854 0.34037
 C494 C 0.67013 0.19204 0.32950
 C495 C 0.66030 0.21206 0.29222
 C496 C 0.68554 0.23014 0.26708
 C497 C 0.72122 0.22980 0.27963
 C498 C 0.73096 0.20662 0.31519
 C499 C 0.64381 0.17394 0.35550
 C500 C 0.62181 0.15789 0.37646
 C501 C 0.59676 0.13692 0.39975
 C502 C 0.57680 0.11612 0.41815
 H503 H 0.71364 0.17202 0.36842
 H504 H 0.63305 0.21366 0.28247
 H505 H 0.67674 0.24433 0.23784
 H506 H 0.75823 0.20367 0.32437
 C507 C 0.72340 0.65899 -0.18054
 C508 C 0.69476 0.67260 -0.15697
 C509 C 0.68618 0.71113 -0.15841
 C510 C 0.70443 0.73538 -0.18602
 C511 C 0.73055 0.72117 -0.21422
 C512 C 0.74168 0.68317 -0.20818
 C513 C 0.67225 0.64664 -0.13463
 C514 C 0.65209 0.62515 -0.11772
 C515 C 0.62716 0.60075 -0.09925
 C516 C 0.60486 0.58097 -0.08382
 H517 H 0.73093 0.62937 -0.17866
 H518 H 0.66444 0.72216 -0.13958
 H519 H 0.69653 0.76487 -0.18765
 H520 H 0.76388 0.67151 -0.22544
 C521 C 0.77646 -0.16045 -0.19123
 C522 C 0.80690 -0.17314 -0.17025
 C523 C 0.81704 -0.21113 -0.17386
 C524 C 0.79741 -0.23601 -0.19906
 C525 C 0.76767 -0.22335 -0.22260
 C526 C 0.75674 -0.18532 -0.21652
 C527 C 0.82806 -0.14733 -0.14536
 C528 C 0.84677 -0.12635 -0.12510
 C529 C 0.87011 -0.10266 -0.10220
 C530 C 0.89149 -0.08353 -0.08369
 H531 H 0.76780 -0.13132 -0.18789
 H532 H 0.84022 -0.22158 -0.15721
 H533 H 0.80573 -0.26536 -0.20073
 H534 H 0.73265 -0.17452 -0.23042
 C535 C 0.78376 0.31076 0.35094
 C536 C 0.81337 0.32733 0.33269
 C537 C 0.82298 0.31852 0.29016
 C538 C 0.80306 0.29329 0.26594
 C539 C 0.77348 0.27537 0.28400
 C540 C 0.76375 0.28549 0.32680
 C541 C 0.83368 0.35388 0.35716
 C542 C 0.85157 0.37580 0.37693
 C543 C 0.87408 0.40061 0.39901
 C544 C 0.89515 0.42049 0.41669
 H545 H 0.77566 0.31802 0.38357
 H546 H 0.84560 0.33163 0.27542
 H547 H 0.81040 0.28814 0.23254
 H548 H 0.73991 0.27542 0.34147
 C549 C 0.33402 -0.19172 0.27950
 C550 C 0.32936 -0.18683 0.32405
 C551 C 0.29846 -0.19904 0.34363
 C552 C 0.27331 -0.21822 0.31936
 C553 C 0.27928 -0.22736 0.27513
 C554 C 0.30898 -0.21084 0.25515
 C555 C 0.35594 -0.16837 0.34929
 C556 C 0.37803 -0.15213 0.36990
 C557 C 0.40299 -0.13113 0.39328
 C558 C 0.42268 -0.11051 0.41233
 H559 H 0.35723 -0.18108 0.26357
 H560 H 0.29382 -0.19389 0.37779
 H561 H 0.24947 -0.22635 0.33572
 H562 H 0.31367 -0.21427 0.22074
 C563 C 0.27298 0.31897 -0.15423
 C564 C 0.30917 0.31405 -0.14998
 C565 C 0.32607 0.28438 -0.17153
 C566 C 0.30751 0.26185 -0.20038
 C567 C 0.27192 0.26976 -0.20962
 C568 C 0.25430 0.29624 -0.18294
 C569 C 0.32982 0.34132 -0.12731
 C570 C 0.34871 0.36419 -0.11082
 C571 C 0.37255 0.39027 -0.09361
 C572 C 0.39428 0.41143 -0.07972
 H573 H 0.25948 0.34136 -0.13689
 H574 H 0.35394 0.27957 -0.16737
 H575 H 0.32157 0.23920 -0.21641
 H576 H 0.22646 0.30129 -0.18680
 C577 C 1.22346 -0.18333 0.15872
 C578 C 1.19535 -0.16489 0.17884
 C579 C 1.18803 -0.17275 0.22237
 C580 C 1.20771 -0.19999 0.24509
 C581 C 1.23439 -0.22156 0.22436
 C582 C 1.24321 -0.21059 0.18132
 C583 C 1.17329 -0.13888 0.15451
 C584 C 1.15385 -0.11816 0.13419
 C585 C 1.12966 -0.09524 0.11068
 C586 C 1.10759 -0.07716 0.09121
 H587 H 1.23009 -0.17676 0.12537
 H588 H 1.16684 -0.15805 0.23875
 H589 H 1.20146 -0.20491 0.27890
 H590 H 1.26540 -0.22303 0.16466
 C591 C 1.18634 0.29077 0.66951
 C592 C 1.19363 0.32947 0.67063
 C593 C 1.22060 0.34254 0.69697
 C594 C 1.23942 0.31735 0.72328
 C595 C 1.23079 0.27847 0.72522
 C596 C 1.20522 0.26543 0.69584
 C597 C 1.17288 0.35604 0.64583
 C598 C 1.15470 0.37835 0.62621
 C599 C 1.13192 0.40371 0.60438
 C600 C 1.11068 0.42388 0.58654
 H601 H 1.16594 0.28018 0.64849
 H602 H 1.22714 0.37231 0.69721
 H603 H 1.26104 0.32867 0.74156
 H604 H 1.19945 0.23554 0.69387
 C605 C 0.70031 -0.18716 0.66681
 C606 C 0.66576 -0.19995 0.66784
 C607 C 0.65719 -0.23069 0.69418
 C608 C 0.68264 -0.24780 0.72049
 C609 C 0.71722 -0.23364 0.72237
 C610 C 0.72588 -0.20428 0.69311
 C611 C 0.63886 -0.18069 0.64313
 C612 C 0.61657 -0.16321 0.62353
 C613 C 0.59152 -0.14033 0.60177
 C614 C 0.57195 -0.11801 0.58427
 H615 H 0.70745 -0.16374 0.64592
 H616 H 0.63073 -0.24148 0.69445
 H617 H 0.67492 -0.27252 0.73872
 H618 H 0.75250 -0.19411 0.69133
 C619 C 0.69345 0.33652 0.21652
 C620 C 0.70033 0.33825 0.17213
 C621 C 0.72508 0.31368 0.15381
 C622 C 0.74184 0.28629 0.17961
 C623 C 0.73302 0.28209 0.22395
 C624 C 0.70994 0.30919 0.24223
 C625 C 0.67973 0.36334 0.14548
 C626 C 0.66021 0.38335 0.12479
 C627 C 0.63506 0.40526 0.10236
 C628 C 0.61190 0.42253 0.08441
 H629 H 0.67459 0.35570 0.23115
 H630 H 0.73106 0.31533 0.11951
 H631 H 0.76156 0.26865 0.16447
 H632 H 0.70371 0.30830 0.27648
 C633 C 0.77106 0.17342 0.17071
 C634 C 0.80591 0.16432 0.18044
 C635 C 0.82213 0.18144 0.21590
 C636 C 0.80423 0.20870 0.24034
 C637 C 0.76994 0.22051 0.22892
 C638 C 0.75307 0.20064 0.19518
 C639 C 0.82566 0.13846 0.15351
 C640 C 0.84367 0.11790 0.13138
 C641 C 0.86671 0.09513 0.10641
 C642 C 0.88828 0.07702 0.08647
 H643 H 0.75791 0.15988 0.14385
 H644 H 0.84883 0.17392 0.22451
 H645 H 0.81757 0.22030 0.26813
 H646 H 0.72613 0.20722 0.18686
 C647 C 0.77386 0.67216 0.66709
 C648 C 0.80899 0.68056 0.65965
 C649 C 0.82353 0.71272 0.67856
 C650 C 0.80358 0.73532 0.70658
 C651 C 0.76891 0.72536 0.71753
 C652 C 0.75389 0.69467 0.69502
 C653 C 0.83060 0.65520 0.63447
 C654 C 0.84948 0.63371 0.61485
 C655 C 0.87292 0.60882 0.59349
 C656 C 0.89448 0.58848 0.57666
 H657 H 0.76208 0.64772 0.65207
 H658 H 0.85051 0.72007 0.67213
 H659 H 0.81568 0.76033 0.71958
 H660 H 0.72687 0.68709 0.70065
 C661 C 0.32907 0.23636 0.67431
 C662 C 0.32645 0.19827 0.66316
 C663 C 0.29797 0.17721 0.67788
 C664 C 0.27318 0.19356 0.70560
 C665 C 0.27716 0.23105 0.72046
 C666 C 0.30433 0.25277 0.70193
 C667 C 0.35380 0.18009 0.63859
 C668 C 0.37656 0.16319 0.61950
 C669 C 0.40224 0.14079 0.59873
 C670 C 0.42250 0.11882 0.58226
 H671 H 0.35065 0.25317 0.66248
 H672 H 0.29521 0.14788 0.66847
 H673 H 0.25121 0.17652 0.71543
 H674 H 0.30730 0.28225 0.71045
 C675 C 0.32322 0.67930 0.20782
 C676 C 0.30674 0.66490 0.17116
 C677 C 0.27306 0.67742 0.16021
 C678 C 0.25631 0.70507 0.18536
 C679 C 0.27348 0.72222 0.22109
 C680 C 0.30672 0.70685 0.23290
 C681 C 0.32524 0.63763 0.14510
 C682 C 0.34317 0.61579 0.12480
 C683 C 0.36679 0.59179 0.10272
 C684 C 0.38903 0.57298 0.08516
 H685 H 0.34896 0.66901 0.21730
 H686 H 0.25969 0.66575 0.13237
 H687 H 0.22981 0.71325 0.17669
 H688 H 0.32016 0.71560 0.26203
   
