data_POSCAR
  _audit_creation_date              2014-09-24
  _audit_creation_method            'ToBaCCo'
  _symmetry_space_group_name_H-M    'P1'
  _symmetry_Int_Tables_number       1
  _symmetry_cell_setting            triclinic
  loop_
  _symmetry_equiv_pos_as_xyz
 x,y,z
_cell_length_a 18.4624
_cell_length_b 19.7606
_cell_length_c 17.5621
_cell_angle_alpha 89.676200
_cell_angle_beta 89.984600
_cell_angle_gamma 120.963600
loop_
  _atom_site_label
  _atom_site_type_symbol
  _atom_site_fract_x
  _atom_site_fract_y
  _atom_site_fract_z
O1 O 0.37234 0.56019 0.30650
 O2 O 0.22922 0.55270 0.32948
 C3 C 0.18483 0.58288 0.34415
 O4 O 0.19269 0.64250 0.30764
 O5 O 0.32922 0.77489 0.34034
 C6 C 0.40666 0.81841 0.35561
 O7 O 0.46403 0.81457 0.31887
 O8 O 0.46324 0.68318 0.34351
 C9 C 0.42994 0.60926 0.35105
 O10 O 0.35221 0.57212 0.15552
 O11 O 0.20314 0.55607 0.17889
 C12 C 0.19038 0.60528 0.14269
 O13 O 0.23161 0.67815 0.15767
 O14 O 0.36478 0.81303 0.19048
 C15 C 0.43117 0.82730 0.15389
 O16 O 0.47078 0.79215 0.16833
 O17 O 0.47995 0.66631 0.19316
 C18 C 0.43194 0.60865 0.14996
 Cr19 Cr 0.29115 0.56419 0.24261
 Cr20 Cr 0.28179 0.72540 0.24901
 Cr21 Cr 0.46536 0.73693 0.25576
 O22 O 0.34599 0.67559 0.24905
 O23 O 0.53582 0.31599 0.65607
 O24 O 0.53572 0.18489 0.68080
 C25 C 0.59308 0.18122 0.64395
 O26 O 0.67050 0.22503 0.65901
 O27 O 0.80683 0.35759 0.69120
 C28 C 0.81485 0.41758 0.65536
 O29 O 0.77062 0.44782 0.67055
 O30 O 0.62677 0.43917 0.69268
 C31 C 0.56908 0.38989 0.64833
 O32 O 0.51886 0.33265 0.80636
 O33 O 0.52924 0.20738 0.83122
 C34 C 0.56930 0.17266 0.84575
 O35 O 0.63582 0.18719 0.80917
 O36 O 0.76957 0.32232 0.84106
 C37 C 0.80868 0.39492 0.85682
 O38 O 0.79532 0.44409 0.82153
 O39 O 0.64626 0.42739 0.84384
 C40 C 0.56657 0.39053 0.84940
 Cr41 Cr 0.53413 0.26240 0.74383
 Cr42 Cr 0.71835 0.27473 0.75015
 Cr43 Cr 0.70785 0.43566 0.75709
 O44 O 0.65364 0.32424 0.75057
 C45 C 0.36743 -0.12790 0.46656
 C46 C 0.42986 -0.12209 0.41627
 C47 C 0.51234 -0.05666 0.42146
 C48 C 0.53167 0.00286 0.47501
 C49 C 0.46813 -0.00336 0.52469
 C50 C 0.38640 -0.06932 0.52030
 C51 C 0.48746 0.05618 0.57822
 C52 C 0.56992 0.12164 0.58338
 C53 C 0.63236 0.12743 0.53310
 C54 C 0.61341 0.06883 0.47939
 H55 H 0.56091 -0.05105 0.38273
 H56 H 0.33692 -0.07535 0.55802
 H57 H 0.43888 0.05058 0.61693
 H58 H 0.66289 0.07485 0.44168
 H59 H 0.30332 -0.17769 0.46400
 H60 H 0.69646 0.17724 0.53564
 C61 C 1.11539 0.48170 0.44760
 C62 C 1.12049 0.54488 0.40527
 C63 C 1.06350 0.56995 0.42156
 C64 C 1.00210 0.53214 0.47885
 C65 C 0.99758 0.46862 0.52067
 C66 C 1.05468 0.44405 0.50459
 C67 C 0.93619 0.43078 0.57792
 C68 C 0.87917 0.45580 0.59426
 C69 C 0.88427 0.51901 0.55201
 C70 C 0.94498 0.55670 0.49499
 H71 H 1.06651 0.61841 0.38954
 H72 H 1.05238 0.39562 0.53602
 H73 H 0.93320 0.38231 0.60989
 H74 H 0.94727 0.60514 0.46358
 H75 H 1.15846 0.46098 0.43671
 H76 H 0.84115 0.53968 0.56296
 C77 C 0.52120 0.63275 0.46505
 C78 C 0.46215 0.57982 0.41219
 C79 C 0.43633 0.49946 0.41709
 C80 C 0.46965 0.47254 0.47341
 C81 C 0.52923 0.52642 0.52589
 C82 C 0.55432 0.60631 0.52135
 C83 C 0.56255 0.49953 0.58220
 C84 C 0.53677 0.41918 0.58714
 C85 C 0.47769 0.36622 0.53431
 C86 C 0.44456 0.39264 0.47799
 H87 H 0.39110 0.45796 0.37670
 H88 H 0.59977 0.64845 0.56116
 H89 H 0.60779 0.54106 0.62257
 H90 H 0.39910 0.35049 0.43819
 H91 H 0.54224 0.69499 0.46284
 H92 H 0.45667 0.30398 0.53657
 C93 C 0.53654 -0.09857 1.05035
 C94 C 0.46590 -0.11145 1.09317
 C95 C 0.43025 -0.06486 1.07791
 C96 C 0.46492 -0.00610 1.02114
 C97 C 0.53599 0.00631 0.97874
 C98 C 0.57114 -0.04040 0.99379
 C99 C 0.57061 0.06505 0.92193
 C100 C 0.53487 0.11157 0.90663
 C101 C 0.46428 0.09871 0.94953
 C102 C 0.42975 0.04060 1.00611
 H103 H 0.37596 -0.07390 1.11034
 H104 H 0.62550 -0.03192 0.96191
 H105 H 0.62486 0.07408 0.88944
 H106 H 0.37540 0.03212 1.03802
 H107 H 0.56548 -0.13353 1.06052
 H108 H 0.43528 0.13362 0.93937
 C109 C 1.11652 0.63464 1.04752
 C110 C 1.12960 0.57991 1.08857
 C111 C 1.07523 0.49876 1.07389
 C112 C 1.00842 0.47326 1.02177
 C113 C 0.99629 0.52904 0.98199
 C114 C 1.05113 0.60950 0.99492
 C115 C 0.92975 0.50357 0.92965
 C116 C 0.87491 0.42267 0.91632
 C117 C 0.88702 0.36767 0.95718
 C118 C 0.95300 0.39267 1.00920
 H119 H 1.08309 0.45499 1.10422
 H120 H 1.04306 0.65319 0.96481
 H121 H 0.92163 0.54673 0.89851
 H122 H 0.96088 0.34887 1.03931
 H123 H 1.15655 0.69765 1.05608
 H124 H 0.84598 0.30488 0.94831
 C125 C 0.55796 0.62085 1.08227
 C126 C 0.47009 0.58005 1.09395
 C127 C 0.41890 0.50913 1.05447
 C128 C 0.45491 0.47889 1.00500
 C129 C 0.54330 0.52021 0.99417
 C130 C 0.59420 0.59129 1.03273
 C131 C 0.57932 0.48998 0.94475
 C132 C 0.52820 0.41905 0.90527
 C133 C 0.44032 0.37824 0.91688
 C134 C 0.40403 0.40780 0.96641
 H135 H 0.35106 0.47660 1.06306
 H136 H 0.66214 0.62381 1.02493
 H137 H 0.64718 0.52253 0.93622
 H138 H 0.33609 0.37528 0.97418
 H139 H 0.59890 0.67541 1.11192
 H140 H 0.39942 0.32369 0.88722
   
