data_POSCAR
  _audit_creation_date              2014-09-24
  _audit_creation_method            'ToBaCCo'
  _symmetry_space_group_name_H-M    'P1'
  _symmetry_Int_Tables_number       1
  _symmetry_cell_setting            triclinic
  loop_
  _symmetry_equiv_pos_as_xyz
 x,y,z
_cell_length_a 47.9263
_cell_length_b 47.6878
_cell_length_c 22.4843
_cell_angle_alpha 89.968300
_cell_angle_beta 90.022400
_cell_angle_gamma 119.845300
loop_
  _atom_site_label
  _atom_site_type_symbol
  _atom_site_fract_x
  _atom_site_fract_y
  _atom_site_fract_z
C1 C 0.50090 0.99950 0.47084
 C2 C 0.49976 0.99934 0.53135
 C3 C 0.48411 0.96864 0.56539
 C4 C 0.51418 1.02953 0.56713
 C5 C 0.51700 1.02995 0.43577
 C6 C 0.48545 0.96896 0.43615
 C7 C 0.45746 0.96132 0.60095
 C8 C 0.44272 0.93289 0.63434
 C9 C 0.45463 0.91094 0.63432
 C10 C 0.48181 0.91899 0.59789
 C11 C 0.49616 0.94731 0.56391
 C12 C 0.50588 1.05357 0.55755
 C13 C 0.51983 1.08174 0.59200
 C14 C 0.54196 1.08614 0.63724
 C15 C 0.54966 1.06167 0.64732
 C16 C 0.53593 1.03372 0.61267
 C17 C 0.54923 1.05351 0.44596
 C18 C 0.56370 1.08202 0.41243
 C19 C 0.54633 1.08726 0.36753
 C20 C 0.51429 1.06326 0.35677
 C21 C 0.49983 1.03497 0.39051
 C22 C 0.50401 0.96232 0.39656
 C23 C 0.48976 0.93420 0.36224
 C24 C 0.45657 0.91230 0.36649
 C25 C 0.43798 0.91906 0.40612
 C26 C 0.45229 0.94721 0.44053
 H27 H 0.44812 0.97783 0.60314
 H28 H 0.42324 0.92970 0.66294
 H29 H 0.49153 0.90298 0.59278
 H30 H 0.51681 0.95265 0.53647
 H31 H 0.48864 1.05054 0.52343
 H32 H 0.51349 1.10017 0.58293
 H33 H 0.54239 1.01532 0.62126
 H34 H 0.56315 1.04984 0.47989
 H35 H 0.58837 1.10006 0.42199
 H36 H 0.50045 1.06612 0.32163
 H37 H 0.47505 1.01696 0.38145
 H38 H 0.52957 0.97900 0.39219
 H39 H 0.50459 0.92995 0.33137
 H40 H 0.41239 0.90256 0.41054
 H41 H 0.43747 0.95220 0.47011
 H42 H 0.56599 1.06390 0.68266
 C43 C -0.00034 0.50038 0.46892
 C44 C -0.00037 0.50053 0.52932
 C45 C 0.02979 0.51463 0.56481
 C46 C -0.03110 0.48459 0.56260
 C47 C -0.03103 0.48542 0.43554
 C48 C 0.02980 0.51621 0.43339
 C49 C 0.05238 0.50435 0.55647
 C50 C 0.08074 0.51789 0.58999
 C51 C 0.08688 0.54170 0.63299
 C52 C 0.06396 0.55151 0.64175
 C53 C 0.03582 0.53818 0.60802
 C54 C -0.04714 0.45109 0.57140
 C55 C -0.07577 0.43591 0.60391
 C56 C -0.08856 0.45409 0.62943
 C57 C -0.07253 0.48771 0.61929
 C58 C -0.04436 0.50269 0.58545
 C59 C -0.04628 0.50328 0.42361
 C60 C -0.07475 0.48971 0.39061
 C61 C -0.08856 0.45790 0.36754
 C62 C -0.07306 0.44001 0.38160
 C63 C -0.04493 0.45352 0.41555
 C64 C 0.05280 0.54892 0.44204
 C65 C 0.08106 0.56349 0.40822
 C66 C 0.08667 0.54572 0.36460
 C67 C 0.06333 0.51316 0.35555
 C68 C 0.03529 0.49859 0.38955
 H69 H 0.04804 0.48587 0.52395
 H70 H 0.09797 0.50992 0.58189
 H71 H 0.06755 0.56926 0.67534
 H72 H 0.01897 0.54663 0.61555
 H73 H -0.03742 0.43672 0.55308
 H74 H -0.08778 0.40992 0.60907
 H75 H -0.03272 0.52850 0.57774
 H76 H -0.03613 0.52778 0.44009
 H77 H -0.08603 0.50429 0.38491
 H78 H -0.08133 0.41601 0.36436
 H79 H -0.03365 0.43922 0.42530
 H80 H 0.04886 0.56316 0.47495
 H81 H 0.09862 0.58858 0.41653
 H82 H 0.06651 0.49895 0.32149
 H83 H 0.01803 0.47341 0.38171
 H84 H -0.08122 0.50271 0.63859
 C85 C 0.50008 0.50011 0.47040
 C86 C 0.50078 0.50052 0.53091
 C87 C 0.48599 0.51584 0.56674
 C88 C 0.51620 0.48521 0.56488
 C89 C 0.51572 0.48530 0.43550
 C90 C 0.48402 0.51459 0.43559
 C91 C 0.49512 0.54850 0.55957
 C92 C 0.48101 0.56244 0.59432
 C93 C 0.45741 0.54407 0.63755
 C94 C 0.44884 0.51126 0.64449
 C95 C 0.46300 0.49751 0.60979
 C96 C 0.54235 0.50424 0.60190
 C97 C 0.55681 0.49027 0.63527
 C98 C 0.54508 0.45657 0.63344
 C99 C 0.51851 0.43764 0.59597
 C100 C 0.50437 0.45183 0.56202
 C101 C 0.49733 0.46029 0.39545
 C102 C 0.51170 0.44653 0.36124
 C103 C 0.54485 0.45773 0.36604
 C104 C 0.56330 0.48295 0.40601
 C105 C 0.54886 0.49667 0.44038
 C106 C 0.45167 0.50558 0.44533
 C107 C 0.43712 0.51949 0.41169
 C108 C 0.45451 0.54230 0.36709
 C109 C 0.48671 0.55075 0.35688
 C110 C 0.50126 0.53706 0.39075
 H111 H 0.51312 0.56318 0.52691
 H112 H 0.48801 0.58736 0.58532
 H113 H 0.43221 0.49616 0.67852
 H114 H 0.45597 0.47235 0.61662
 H115 H 0.55152 0.53004 0.60510
 H116 H 0.57618 0.50598 0.66472
 H117 H 0.48406 0.43676 0.53371
 H118 H 0.47179 0.45144 0.39072
 H119 H 0.49699 0.42753 0.33010
 H120 H 0.58886 0.49197 0.41080
 H121 H 0.56354 0.51632 0.47039
 H122 H 0.43768 0.48775 0.47885
 H123 H 0.41233 0.51254 0.42085
 H124 H 0.50059 0.56762 0.32199
 H125 H 0.52613 0.54407 0.38203
 H126 H 0.50906 0.41191 0.59102
 O127 O 0.37975 0.66698 -0.06729
 O128 O 0.38102 0.72179 -0.05142
 C129 C 0.36127 0.72675 -0.08104
 O130 O 0.33133 0.71194 -0.07065
 O131 O 0.27692 0.65887 -0.05288
 C132 C 0.27190 0.63354 -0.08058
 O133 O 0.28650 0.61826 -0.06827
 O134 O 0.33963 0.61710 -0.04912
 C135 C 0.36465 0.63688 -0.07784
 O136 O 0.38053 0.65903 0.05132
 O137 O 0.37910 0.71248 0.06720
 C138 C 0.36401 0.72755 0.07708
 O139 O 0.33933 0.72251 0.04744
 O140 O 0.28607 0.66812 0.06538
 C141 C 0.27139 0.63819 0.07744
 O142 O 0.27654 0.61793 0.04982
 O143 O 0.33071 0.61901 0.06885
 C144 C 0.36056 0.63414 0.08021
 Cr145 Cr 0.37826 0.68915 -0.00007
 Cr146 Cr 0.30933 0.68942 -0.00260
 Cr147 Cr 0.30927 0.61993 0.00026
 O148 O 0.33227 0.66615 -0.00081
 O149 O 0.61878 0.34060 -0.05021
 O150 O 0.61979 0.28682 -0.06465
 C151 C 0.63508 0.27208 -0.07594
 O152 O 0.66046 0.27758 -0.04817
 O153 O 0.71402 0.33159 -0.06623
 C154 C 0.72809 0.36124 -0.08016
 O155 O 0.72265 0.38174 -0.05440
 O156 O 0.66829 0.38040 -0.07030
 C157 C 0.63832 0.36519 -0.08024
 O158 O 0.62143 0.33422 0.06847
 O159 O 0.61946 0.27902 0.05393
 C160 C 0.63936 0.27376 0.08215
 O161 O 0.66909 0.28813 0.07016
 O162 O 0.72322 0.34107 0.05194
 C163 C 0.72906 0.36718 0.07764
 O164 O 0.71506 0.38291 0.06410
 O165 O 0.66151 0.38381 0.04814
 C166 C 0.63682 0.36441 0.07803
 Cr167 Cr 0.62177 0.31112 0.00182
 Cr168 Cr 0.69074 0.31055 0.00182
 Cr169 Cr 0.69092 0.38030 -0.00295
 O170 O 0.66787 0.33400 0.00019
 C171 C 0.41341 0.82940 -0.25406
 C172 C 0.39487 0.84299 -0.27279
 C173 C 0.40852 0.86983 -0.31087
 C174 C 0.44085 0.88362 -0.33098
 C175 C 0.45854 0.86845 -0.31251
 C176 C 0.44512 0.84182 -0.27381
 C177 C 0.39953 0.80201 -0.21198
 C178 C 0.41852 0.78917 -0.19145
 C179 C 0.40568 0.76407 -0.14950
 C180 C 0.37400 0.75169 -0.12832
 C181 C 0.35503 0.76433 -0.15068
 C182 C 0.36778 0.78968 -0.19208
 C183 C 0.46318 0.82789 -0.25316
 C184 C 0.45015 0.80208 -0.21257
 C185 C 0.36298 0.82965 -0.25266
 C186 C 0.34966 0.80342 -0.21307
 H187 H 0.48776 0.83726 -0.26795
 H188 H 0.46504 0.79234 -0.19725
 H189 H 0.34829 0.83980 -0.26711
 H190 H 0.32510 0.79410 -0.19817
 H191 H 0.39305 0.87882 -0.32634
 H192 H 0.48360 0.87839 -0.32414
 H193 H 0.42044 0.75441 -0.13294
 H194 H 0.33069 0.75513 -0.13458
 C195 C 0.17018 0.58236 -0.25430
 C196 C 0.15559 0.54959 -0.27022
 C197 C 0.12883 0.53652 -0.30831
 C198 C 0.11668 0.55601 -0.33040
 C199 C 0.13228 0.58908 -0.31520
 C200 C 0.15881 0.60229 -0.27676
 C201 C 0.19735 0.59588 -0.21210
 C202 C 0.21117 0.62836 -0.19464
 C203 C 0.23603 0.64073 -0.15252
 C204 C 0.24719 0.62090 -0.12803
 C205 C 0.23360 0.58857 -0.14726
 C206 C 0.20845 0.57586 -0.18890
 C207 C 0.17377 0.63488 -0.25936
 C208 C 0.19945 0.64767 -0.21885
 C209 C 0.16764 0.53041 -0.24666
 C210 C 0.19367 0.54334 -0.20682
 H211 H 0.16525 0.65051 -0.27651
 H212 H 0.21001 0.67281 -0.20592
 H213 H 0.15667 0.50511 -0.25868
 H214 H 0.20202 0.52764 -0.18928
 H215 H 0.11687 0.51100 -0.31911
 H216 H 0.12357 0.60448 -0.33279
 H217 H 0.24644 0.66568 -0.13838
 H218 H 0.24189 0.57305 -0.12854
 C219 C 0.41591 0.58477 -0.24948
 C220 C 0.44615 0.60493 -0.27491
 C221 C 0.45955 0.59159 -0.31334
 C222 C 0.44312 0.55803 -0.32629
 C223 C 0.41222 0.53853 -0.30097
 C224 C 0.39872 0.55167 -0.26253
 C225 C 0.40220 0.59846 -0.20750
 C226 C 0.37216 0.57810 -0.18133
 C227 C 0.35971 0.59096 -0.13993
 C228 C 0.37711 0.62397 -0.12440
 C229 C 0.40697 0.64418 -0.15208
 C230 C 0.41967 0.63150 -0.19346
 C231 C 0.36842 0.53217 -0.23636
 C232 C 0.35539 0.54515 -0.19637
 C233 C 0.46276 0.63799 -0.26035
 C234 C 0.44974 0.65105 -0.22036
 H235 H 0.35483 0.50656 -0.24630
 H236 H 0.33213 0.52920 -0.17664
 H237 H 0.48616 0.65388 -0.27964
 H238 H 0.46347 0.67660 -0.21000
 H239 H 0.48356 0.60733 -0.33013
 H240 H 0.39798 0.51314 -0.31199
 H241 H 0.33668 0.57514 -0.11927
 H242 H 0.42063 0.66960 -0.14060
 C243 C 0.58333 0.16911 -0.24826
 C244 C 0.60236 0.15623 -0.26820
 C245 C 0.58897 0.12973 -0.30702
 C246 C 0.55659 0.11572 -0.32519
 C247 C 0.53801 0.12933 -0.30543
 C248 C 0.55127 0.15604 -0.26696
 C249 C 0.59701 0.19637 -0.20599
 C250 C 0.57786 0.20901 -0.18546
 C251 C 0.59072 0.23436 -0.14405
 C252 C 0.62233 0.24673 -0.12247
 C253 C 0.64130 0.23395 -0.14416
 C254 C 0.62877 0.20881 -0.18599
 C255 C 0.53296 0.16956 -0.24591
 C256 C 0.54606 0.19565 -0.20596
 C257 C 0.63426 0.16975 -0.24813
 C258 C 0.64721 0.19555 -0.20760
 H259 H 0.50822 0.15975 -0.26006
 H260 H 0.53103 0.20521 -0.19048
 H261 H 0.64920 0.16005 -0.26330
 H262 H 0.67179 0.20501 -0.19268
 H263 H 0.60370 0.11987 -0.32274
 H264 H 0.51299 0.11857 -0.31847
 H265 H 0.57583 0.24388 -0.12759
 H266 H 0.66570 0.24336 -0.12820
 C267 C 0.82950 0.41087 -0.25384
 C268 C 0.85001 0.39780 -0.25704
 C269 C 0.87648 0.41179 -0.29560
 C270 C 0.88228 0.43833 -0.33190
 C271 C 0.86075 0.45044 -0.32922
 C272 C 0.83468 0.43716 -0.28960
 C273 C 0.80252 0.39722 -0.21125
 C274 C 0.78292 0.41128 -0.20601
 C275 C 0.75824 0.39916 -0.16343
 C276 C 0.75277 0.37278 -0.12727
 C277 C 0.77204 0.35837 -0.13435
 C278 C 0.79730 0.37083 -0.17564
 C279 C 0.81400 0.45000 -0.28427
 C280 C 0.78870 0.43742 -0.24288
 C281 C 0.84394 0.37133 -0.22082
 C282 C 0.81790 0.35793 -0.18110
 H283 H 0.81772 0.47028 -0.31163
 H284 H 0.77364 0.44837 -0.23951
 H285 H 0.85954 0.36096 -0.22302
 H286 H 0.81416 0.33762 -0.15380
 H287 H 0.89300 0.40249 -0.29596
 H288 H 0.86431 0.47032 -0.35757
 H289 H 0.74334 0.41021 -0.15832
 H290 H 0.76811 0.33826 -0.10618
 C291 C 0.58612 0.41543 -0.25375
 C292 C 0.60535 0.44698 -0.27513
 C293 C 0.59184 0.46025 -0.31334
 C294 C 0.55911 0.44230 -0.33067
 C295 C 0.54056 0.41011 -0.30974
 C296 C 0.55382 0.39679 -0.27094
 C297 C 0.59989 0.40190 -0.21150
 C298 C 0.58032 0.37073 -0.18841
 C299 C 0.59317 0.35850 -0.14637
 C300 C 0.62540 0.37722 -0.12756
 C301 C 0.64488 0.40815 -0.15242
 C302 C 0.63217 0.42069 -0.19401
 C303 C 0.53515 0.36542 -0.24775
 C304 C 0.54815 0.35265 -0.20709
 C305 C 0.63771 0.46487 -0.25734
 C306 C 0.65090 0.45192 -0.21754
 H307 H 0.51015 0.35076 -0.26059
 H308 H 0.53281 0.32852 -0.18977
 H309 H 0.65288 0.48922 -0.27381
 H310 H 0.67586 0.46665 -0.20448
 H311 H 0.60731 0.48435 -0.33054
 H312 H 0.51523 0.39583 -0.32037
 H313 H 0.57799 0.33462 -0.12786
 H314 H 0.66966 0.42284 -0.13825
 C315 C 0.83060 0.41887 0.25152
 C316 C 0.84873 0.45239 0.25973
 C317 C 0.87511 0.46514 0.29860
 C318 C 0.88360 0.44471 0.33032
 C319 C 0.86403 0.41082 0.32229
 C320 C 0.83801 0.39793 0.28256
 C321 C 0.80369 0.40546 0.20872
 C322 C 0.78626 0.37195 0.19897
 C323 C 0.76156 0.35945 0.15645
 C324 C 0.75399 0.38022 0.12450
 C325 C 0.77118 0.41369 0.13598
 C326 C 0.79633 0.42648 0.17754
 C327 C 0.81947 0.36443 0.27276
 C328 C 0.79415 0.35168 0.23142
 C329 C 0.84054 0.47266 0.22788
 C330 C 0.81469 0.45991 0.18772
 H331 H 0.82487 0.34795 0.29658
 H332 H 0.78078 0.32576 0.22456
 H333 H 0.85433 0.49863 0.23384
 H334 H 0.80929 0.47640 0.16390
 H335 H 0.88971 0.49116 0.30109
 H336 H 0.86826 0.39398 0.34751
 H337 H 0.74828 0.33364 0.14815
 H338 H 0.76565 0.42985 0.11126
 C339 C 0.58846 0.17123 0.25538
 C340 C 0.55669 0.15864 0.27529
 C341 C 0.54344 0.13185 0.31347
 C342 C 0.56149 0.11724 0.33098
 C343 C 0.59357 0.13060 0.31138
 C344 C 0.60716 0.15760 0.27356
 C345 C 0.60211 0.19867 0.21346
 C346 C 0.63370 0.21094 0.19276
 C347 C 0.64618 0.23628 0.15129
 C348 C 0.62708 0.24897 0.12975
 C349 C 0.59559 0.23669 0.15186
 C350 C 0.58301 0.21157 0.19376
 C351 C 0.63884 0.17083 0.25249
 C352 C 0.65191 0.19709 0.21289
 C353 C 0.53858 0.17269 0.25568
 C354 C 0.55150 0.19866 0.21548
 H355 H 0.65356 0.16060 0.26627
 H356 H 0.67634 0.20635 0.19728
 H357 H 0.51406 0.16323 0.27085
 H358 H 0.53656 0.20848 0.20079
 H359 H 0.51896 0.12219 0.32910
 H360 H 0.60759 0.11940 0.32394
 H361 H 0.67038 0.24542 0.13448
 H362 H 0.58073 0.24636 0.13592
 C363 C 0.58699 0.41734 0.25090
 C364 C 0.60306 0.45088 0.26055
 C365 C 0.58958 0.46391 0.29942
 C366 C 0.56011 0.44365 0.32812
 C367 C 0.54462 0.41000 0.31861
 C368 C 0.55792 0.39673 0.27994
 C369 C 0.60050 0.40363 0.20856
 C370 C 0.58412 0.37017 0.19812
 C371 C 0.59652 0.35736 0.15643
 C372 C 0.62497 0.37780 0.12486
 C373 C 0.64134 0.41128 0.13676
 C374 C 0.62916 0.42432 0.17844
 C375 C 0.54248 0.36331 0.26902
 C376 C 0.55537 0.35025 0.22881
 C377 C 0.63195 0.47076 0.23024
 C378 C 0.64478 0.45770 0.18987
 H379 H 0.52008 0.34714 0.29129
 H380 H 0.54254 0.32438 0.22123
 H381 H 0.64460 0.49666 0.23733
 H382 H 0.66696 0.47392 0.16699
 H383 H 0.60147 0.48985 0.30591
 H384 H 0.52215 0.39421 0.34109
 H385 H 0.58366 0.33158 0.14784
 H386 H 0.66327 0.42730 0.11297
 C387 C 0.16960 0.58780 0.25102
 C388 C 0.15546 0.60629 0.26768
 C389 C 0.12881 0.59276 0.30602
 C390 C 0.11632 0.56097 0.32763
 C391 C 0.13146 0.54318 0.31164
 C392 C 0.15788 0.55635 0.27296
 C393 C 0.19669 0.60133 0.20866
 C394 C 0.21011 0.58241 0.19057
 C395 C 0.23496 0.59485 0.14845
 C396 C 0.24652 0.62604 0.12458
 C397 C 0.23328 0.64499 0.14437
 C398 C 0.20815 0.63262 0.18603
 C399 C 0.17242 0.53843 0.25486
 C400 C 0.19804 0.55121 0.21423
 C401 C 0.16784 0.63767 0.24463
 C402 C 0.19379 0.65064 0.20463
 H403 H 0.16363 0.51415 0.27160
 H404 H 0.20829 0.53643 0.20079
 H405 H 0.15720 0.65222 0.25721
 H406 H 0.20242 0.67483 0.18753
 H407 H 0.11720 0.60657 0.31742
 H408 H 0.12249 0.51895 0.32883
 H409 H 0.24510 0.58013 0.13389
 H410 H 0.24187 0.66896 0.12615
 C411 C 0.41442 0.83013 0.25038
 C412 C 0.39840 0.84762 0.26036
 C413 C 0.41192 0.87402 0.29945
 C414 C 0.44136 0.88310 0.32815
 C415 C 0.45683 0.86495 0.31828
 C416 C 0.44349 0.83848 0.27932
 C417 C 0.40083 0.80299 0.20784
 C418 C 0.41714 0.78587 0.19706
 C419 C 0.40463 0.76072 0.15523
 C420 C 0.37613 0.75280 0.12392
 C421 C 0.35985 0.76996 0.13615
 C422 C 0.37214 0.79512 0.17792
 C423 C 0.45887 0.82048 0.26804
 C424 C 0.44591 0.79462 0.22762
 C425 C 0.36949 0.83871 0.23018
 C426 C 0.35659 0.81290 0.18966
 H427 H 0.48127 0.82663 0.29022
 H428 H 0.45870 0.78156 0.21978
 H429 H 0.35689 0.85199 0.23754
 H430 H 0.33439 0.80702 0.16693
 H431 H 0.40006 0.88807 0.30615
 H432 H 0.47928 0.87152 0.34073
 H433 H 0.41741 0.74774 0.14636
 H434 H 0.33788 0.76412 0.11258
 C435 C 0.41193 0.58331 0.25402
 C436 C 0.44358 0.60279 0.27432
 C437 C 0.45697 0.58952 0.31278
 C438 C 0.43918 0.55681 0.33020
 C439 C 0.40722 0.53778 0.31017
 C440 C 0.39348 0.55093 0.27207
 C441 C 0.39814 0.59685 0.21186
 C442 C 0.36666 0.57723 0.19081
 C443 C 0.35404 0.58989 0.14918
 C444 C 0.37293 0.62175 0.12781
 C445 C 0.40430 0.64122 0.15022
 C446 C 0.41700 0.62890 0.19230
 C447 C 0.36191 0.53217 0.25063
 C448 C 0.34870 0.54512 0.21081
 C449 C 0.46144 0.63500 0.25483
 C450 C 0.44840 0.64781 0.21438
 H451 H 0.34739 0.50717 0.26431
 H452 H 0.32436 0.52974 0.19494
 H453 H 0.48587 0.65029 0.27030
 H454 H 0.46315 0.67261 0.19980
 H455 H 0.48135 0.60458 0.32873
 H456 H 0.39340 0.51252 0.32263
 H457 H 0.32994 0.57464 0.13210
 H458 H 0.41898 0.66582 0.13442
   
