data_POSCAR
  _audit_creation_date              2014-09-24
  _audit_creation_method            'ToBaCCo'
  _symmetry_space_group_name_H-M    'P1'
  _symmetry_Int_Tables_number       1
  _symmetry_cell_setting            triclinic
  loop_
  _symmetry_equiv_pos_as_xyz
 x,y,z
_cell_length_a 48.1003
_cell_length_b 47.9912
_cell_length_c 47.9909
_cell_angle_alpha 90.008400
_cell_angle_beta 89.967900
_cell_angle_gamma 89.962600
loop_
  _atom_site_label
  _atom_site_type_symbol
  _atom_site_fract_x
  _atom_site_fract_y
  _atom_site_fract_z
C1 C 0.17888 1.21615 0.21508
 C2 C 0.16739 1.23980 0.20232
 C3 C 0.17947 1.25132 0.17811
 C4 C 0.20372 1.23886 0.16720
 C5 C 0.21541 1.21522 0.17977
 C6 C 0.20294 1.20378 0.20377
 C7 C 0.16632 1.20441 0.23872
 C8 C 0.17731 1.18020 0.25127
 C9 C 0.20158 1.16822 0.23986
 C10 C 0.21434 1.17976 0.21624
 C11 C 0.23806 1.16730 0.20461
 C12 C 0.25053 1.17841 0.18052
 C13 C 0.23913 1.20253 0.16837
 H14 H 0.14876 1.24895 0.21116
 H15 H 0.21346 1.24727 0.14864
 H16 H 0.14770 1.21407 0.24704
 H17 H 0.21049 1.14963 0.24908
 H18 H 0.24656 1.14871 0.21418
 H19 H 0.24846 1.21131 0.14979
 C20 C 0.82309 0.78340 0.21523
 C21 C 0.83543 0.75986 0.20303
 C22 C 0.82406 0.74761 0.17886
 C23 C 0.79964 0.75918 0.16740
 C24 C 0.78710 0.78270 0.17941
 C25 C 0.79888 0.79490 0.20337
 C26 C 0.83497 0.79588 0.23882
 C27 C 0.82314 0.81999 0.25080
 C28 C 0.79872 0.83110 0.23886
 C29 C 0.78664 0.81880 0.21527
 C30 C 0.76276 0.83039 0.20310
 C31 C 0.75097 0.81851 0.17904
 C32 C 0.76322 0.79451 0.16748
 H33 H 0.85417 0.75140 0.21229
 H34 H 0.79043 0.75019 0.14885
 H35 H 0.85371 0.78689 0.24756
 H36 H 0.78917 0.84960 0.24763
 H37 H 0.75360 0.84890 0.21223
 H38 H 0.75441 0.78515 0.14892
 C39 C 0.81896 1.21496 -0.21446
 C40 C 0.83114 1.23861 -0.20236
 C41 C 0.81984 1.25059 -0.17809
 C42 C 0.79581 1.23878 -0.16625
 C43 C 0.78342 1.21514 -0.17811
 C44 C 0.79504 1.20315 -0.20229
 C45 C 0.83069 1.20267 -0.23826
 C46 C 0.81898 1.17846 -0.25013
 C47 C 0.79487 1.16704 -0.23786
 C48 C 0.78295 1.17914 -0.21406
 C49 C 0.75940 1.16723 -0.20156
 C50 C 0.74779 1.17889 -0.17728
 C51 C 0.75987 1.20301 -0.16584
 H52 H 0.84967 1.24744 -0.21169
 H53 H 0.78688 1.24773 -0.14753
 H54 H 0.84920 1.21189 -0.24724
 H55 H 0.78543 1.14846 -0.24653
 H56 H 0.75036 1.14863 -0.21060
 H57 H 0.75121 1.21222 -0.14713
 C58 C 0.17910 0.78591 -0.21704
 C59 C 0.16702 0.76215 -0.20507
 C60 C 0.17845 0.74987 -0.18093
 C61 C 0.20265 0.76168 -0.16925
 C62 C 0.21493 0.78544 -0.18103
 C63 C 0.20310 0.79763 -0.20497
 C64 C 0.16718 0.79843 -0.24060
 C65 C 0.17882 0.82267 -0.25226
 C66 C 0.20294 0.83406 -0.24021
 C67 C 0.21508 0.82177 -0.21665
 C68 C 0.23871 0.83359 -0.20428
 C69 C 0.25054 0.82173 -0.18023
 C70 C 0.23857 0.79750 -0.16888
 H71 H 0.14845 0.75351 -0.21449
 H72 H 0.21189 0.75268 -0.15072
 H73 H 0.14858 0.78943 -0.24962
 H74 H 0.21213 0.85275 -0.24891
 H75 H 0.24765 0.85228 -0.21325
 H76 H 0.24741 0.78815 -0.15033
 C77 C 0.54233 1.03649 -0.00555
 H78 H 0.54296 1.03598 0.01698
 C79 C 0.56124 1.05294 -0.02024
 H80 H 0.57629 1.06515 -0.00874
 C81 C 0.52228 1.02050 -0.04770
 H82 H 0.50745 1.00741 -0.05834
 C83 C 0.54083 1.03664 -0.06324
 H84 H 0.53979 1.03594 -0.08576
 N85 N 0.52328 1.02082 -0.01938
 C86 C 0.45763 1.00569 0.04142
 H87 H 0.45705 0.98315 0.04101
 C88 C 0.43874 1.02042 0.05788
 H89 H 0.42375 1.00895 0.07020
 C90 C 0.47751 1.04780 0.02512
 H91 H 0.49226 1.05841 0.01189
 C92 C 0.45897 1.06338 0.04126
 H93 H 0.45994 1.08590 0.04042
 Zn94 Zn 0.49985 0.99776 0.00233
 N95 N 0.47658 1.01948 0.02557
 C96 C 0.52260 0.97491 0.05215
 N97 N 0.52330 0.97452 0.02382
 C98 C 0.54214 0.95871 0.00981
 C99 C 0.56117 0.94224 0.02431
 C100 C 0.54129 0.95876 0.06751
 C101 C 0.45730 0.99031 -0.03637
 C102 C 0.43827 0.97583 -0.05285
 C103 C 0.45833 0.93261 -0.03664
 C104 C 0.47702 0.94794 -0.02048
 N105 N 0.47625 0.97627 -0.02074
 H106 H 0.50792 0.98811 0.06293
 H107 H 0.54253 0.95917 -0.01273
 H108 H 0.57607 0.92996 0.01266
 H109 H 0.54051 0.95955 0.09004
 H110 H 0.45685 1.01284 -0.03581
 H111 H 0.42332 0.98749 -0.06502
 H112 H 0.45920 0.91007 -0.03600
 H113 H 0.49179 0.93714 -0.00742
 C114 C 0.43913 1.04969 0.05783
 C115 C 0.56075 1.05308 -0.04951
 C116 C 0.43853 0.94655 -0.05305
 C117 C 0.56103 0.94223 0.05359
 C118 C -0.00539 0.54260 1.03697
 H119 H 0.01709 0.54321 1.03645
 C120 C -0.02002 0.56158 1.05344
 H121 H -0.00854 0.57664 1.06565
 C122 C -0.04746 0.52255 1.02100
 H123 H -0.05809 0.50769 1.00790
 C124 C -0.06295 0.54117 1.03715
 H125 H -0.08542 0.54014 1.03646
 N126 N -0.01920 0.52351 1.02130
 C127 C 0.04139 0.45764 1.00611
 H128 H 0.04099 0.45704 0.98357
 C129 C 0.05779 0.43869 1.02082
 H130 H 0.07007 0.42365 1.00934
 C131 C 0.02514 0.47760 1.04824
 H132 H 0.01195 0.49240 1.05886
 C133 C 0.04122 0.45901 1.06380
 H134 H 0.04038 0.46000 1.08632
 Zn135 Zn 0.00244 0.50000 0.99822
 N136 N 0.02559 0.47665 1.01991
 C137 C 0.05218 0.52272 0.97534
 N138 N 0.02391 0.52347 0.97498
 C139 C 0.00995 0.54237 0.95919
 C140 C 0.02445 0.56141 0.94270
 C141 C 0.06752 0.54142 0.95917
 C142 C -0.03623 0.45740 0.99075
 C143 C -0.05269 0.43836 0.97626
 C144 C -0.03649 0.45845 0.93305
 C145 C -0.02034 0.47715 0.94839
 N146 N -0.02060 0.47638 0.97672
 H147 H 0.06291 0.50800 0.98852
 H148 H -0.01253 0.54280 0.95967
 H149 H 0.01285 0.57635 0.93044
 H150 H 0.09000 0.54060 0.95994
 H151 H -0.03567 0.45695 1.01328
 H152 H -0.06486 0.42339 0.98792
 H153 H -0.03584 0.45932 0.91052
 H154 H -0.00728 0.49193 0.93760
 C155 C 0.05774 0.43910 1.05010
 C156 C -0.04923 0.56111 1.05359
 C157 C -0.05289 0.43862 0.94698
 C158 C 0.05366 0.56122 0.94266
 C159 C 1.03635 -0.00552 0.54214
 H160 H 1.03580 0.01701 0.54279
 C161 C 1.05279 -0.02020 0.56107
 H162 H 1.06494 -0.00870 0.57617
 C163 C 1.02048 -0.04767 0.52198
 H164 H 1.00744 -0.05832 0.50709
 C165 C 1.03661 -0.06321 0.54056
 H166 H 1.03595 -0.08573 0.53948
 N167 N 1.02075 -0.01935 0.52301
 C168 C 1.00559 0.04145 0.45726
 H169 H 0.98311 0.04102 0.45665
 C170 C 1.02027 0.05793 0.43835
 H171 H 1.00882 0.07024 0.42333
 C172 C 1.04762 0.02519 0.47720
 H173 H 1.05822 0.01195 0.49198
 C174 C 1.06315 0.04134 0.45865
 H175 H 1.08562 0.04052 0.45965
 Zn176 Zn 0.99772 0.00234 0.49954
 N177 N 1.01937 0.02561 0.47624
 C178 C 0.97483 0.05214 0.52236
 N179 N 0.97448 0.02381 0.52304
 C180 C 0.95872 0.00979 0.54190
 C181 C 0.94225 0.02428 0.56098
 C182 C 0.95868 0.06749 0.54109
 C183 C 0.99037 -0.03635 0.45685
 C184 C 0.97596 -0.05285 0.43776
 C185 C 0.93280 -0.03671 0.45787
 C186 C 0.94806 -0.02052 0.47661
 N187 N 0.97633 -0.02074 0.47585
 H188 H 0.98799 0.06293 0.50766
 H189 H 0.95921 -0.01275 0.54229
 H190 H 0.93001 0.01263 0.57589
 H191 H 0.95943 0.09003 0.54032
 H192 H 1.01285 -0.03576 0.45641
 H193 H 0.98763 -0.06500 0.42277
 H194 H 0.91032 -0.03609 0.45873
 H195 H 0.93726 -0.00747 0.49142
 C196 C 1.04948 0.05791 0.43877
 C197 C 1.05298 -0.04947 0.56054
 C198 C 0.94676 -0.05309 0.43801
 C199 C 0.94219 0.05356 0.56085
 N200 N 0.13137 0.30740 1.16176
 C201 C 0.14261 0.31788 1.13809
 N202 N 0.16632 0.30649 1.12795
 N203 N 0.17838 0.28520 1.14104
 C204 C 0.16718 0.27441 1.16475
 N205 N 0.14344 0.28611 1.17484
 C206 C 0.12898 0.34004 1.12337
 C207 C 0.11722 0.35827 1.11073
 C208 C 0.10285 0.37950 1.09538
 N209 N 0.08747 0.39899 1.10883
 N210 N 0.07338 0.41811 1.09446
 C211 C 0.07412 0.41841 1.06614
 N212 N 0.08968 0.39885 1.05281
 N213 N 0.10377 0.37974 1.06716
 N214 N -0.12599 0.69270 1.16412
 C215 C -0.13654 0.68151 1.14046
 N216 N -0.16041 0.69203 1.12980
 N217 N -0.17329 0.71317 1.14237
 C218 C -0.16279 0.72467 1.16605
 N219 N -0.13888 0.71384 1.17667
 C220 C -0.12204 0.65953 1.12632
 C221 C -0.10953 0.64145 1.11417
 C222 C -0.09426 0.62040 1.09942
 N223 N -0.10774 0.60096 1.08404
 N224 N -0.09345 0.58196 1.06969
 C225 C -0.06519 0.58173 1.07017
 N226 N -0.05184 0.60125 1.08572
 N227 N -0.06610 0.62024 1.10007
 N228 N -0.12990 0.30697 0.83712
 C229 C -0.14041 0.31798 0.86091
 N230 N -0.16413 0.30724 0.87170
 N231 N -0.17692 0.28608 0.85914
 C232 C -0.16645 0.27483 0.83533
 N233 N -0.14270 0.28580 0.82456
 C234 C -0.12603 0.33999 0.87509
 C235 C -0.11375 0.35810 0.88739
 C236 C -0.09888 0.37917 0.90246
 N237 N -0.08349 0.39845 0.88875
 N238 N -0.06908 0.41750 0.90287
 C239 C -0.06950 0.41794 0.93120
 N240 N -0.08505 0.39858 0.94478
 N241 N -0.09946 0.37954 0.93068
 N242 N 0.12925 0.69418 0.83313
 C243 C 0.13984 0.68296 0.85675
 N244 N 0.16350 0.69372 0.86762
 N245 N 0.17613 0.71512 0.85528
 C246 C 0.16557 0.72666 0.83163
 N247 N 0.14188 0.71558 0.82080
 C248 C 0.12558 0.66069 0.87066
 C249 C 0.11326 0.64239 0.88262
 C250 C 0.09819 0.62108 0.89718
 N251 N 0.11183 0.60177 0.91261
 N252 N 0.09771 0.58257 0.92682
 C253 C 0.06945 0.58200 0.92616
 N254 N 0.05594 0.60138 0.91056
 N255 N 0.07004 0.62057 0.89634
 N256 N 1.12710 0.16686 0.30628
 C257 C 1.13731 0.14319 0.31775
 N258 N 1.16104 0.13204 0.30738
 N259 N 1.17411 0.14417 0.28611
 C260 C 1.16395 0.16787 0.27433
 N261 N 1.14018 0.17897 0.28501
 C262 C 1.12262 0.12950 0.33987
 C263 C 1.11000 0.11768 0.35808
 C264 C 1.09468 0.10324 0.37928
 N265 N 1.06652 0.10413 0.37951
 N266 N 1.05220 0.08997 0.39859
 C267 C 1.06549 0.07437 0.41812
 N268 N 1.09375 0.07365 0.41782
 N269 N 1.10809 0.08781 0.39874
 N270 N 1.16353 -0.12668 0.69163
 C271 C 1.13978 -0.13711 0.68063
 N272 N 1.12901 -0.16092 0.69129
 N273 N 1.14159 -0.17387 0.71237
 C274 C 1.16537 -0.16347 0.72359
 N275 N 1.17610 -0.13963 0.71270
 C276 C 1.12563 -0.12254 0.65871
 C277 C 1.11349 -0.10998 0.64068
 C278 C 1.09875 -0.09466 0.61969
 N279 N 1.08343 -0.10814 0.60021
 N280 N 1.06910 -0.09381 0.58126
 C281 C 1.06953 -0.06548 0.58111
 N282 N 1.08502 -0.05211 0.60066
 N283 N 1.09935 -0.06643 0.61961
 N284 N 0.87219 -0.16442 0.30620
 C285 C 0.86122 -0.14082 0.31712
 N286 N 0.83737 -0.13046 0.30626
 N287 N 0.82491 -0.14328 0.28505
 C288 C 0.83583 -0.16692 0.27381
 N289 N 0.85972 -0.17723 0.28499
 C290 C 0.87530 -0.12640 0.33918
 C291 C 0.88751 -0.11408 0.35732
 C292 C 0.90248 -0.09918 0.37844
 N293 N 0.88876 -0.08380 0.39774
 N294 N 0.90279 -0.06936 0.41683
 C295 C 0.93106 -0.06974 0.41728
 N296 N 0.94466 -0.08528 0.39790
 N297 N 0.93064 -0.09972 0.37883
 N298 N 0.83291 0.12920 0.69406
 C299 C 0.85650 0.13979 0.68285
 N300 N 0.86740 0.16345 0.69367
 N301 N 0.85511 0.17610 0.71511
 C302 C 0.83149 0.16556 0.72663
 N303 N 0.82064 0.14186 0.71550
 C304 C 0.87036 0.12550 0.66054
 C305 C 0.88228 0.11317 0.64219
 C306 C 0.89679 0.09810 0.62084
 N307 N 0.91218 0.11179 0.60155
 N308 N 0.92638 0.09767 0.58231
 C309 C 0.92572 0.06935 0.58168
 N310 N 0.91015 0.05578 0.60104
 N311 N 0.89596 0.06989 0.62027
 N312 N 0.30673 1.12751 0.16666
 C313 C 0.31818 1.13774 0.14298
 N314 N 0.30779 1.16148 0.13180
 N315 N 0.28654 1.17457 0.14390
 C316 C 0.27486 1.16438 0.16761
 N317 N 0.28547 1.14061 0.17876
 C318 C 0.34029 1.12302 0.12931
 C319 C 0.35849 1.11038 0.11751
 C320 C 0.37967 1.09501 0.10309
 N321 N 0.39909 1.10845 0.08766
 N322 N 0.41817 1.09407 0.07352
 C323 C 0.41849 1.06575 0.07427
 N324 N 0.39900 1.05244 0.08988
 N325 N 0.37994 1.06680 0.10401
 N326 N 0.69135 1.12908 -0.16096
 C327 C 0.68073 1.13987 -0.13713
 N328 N 0.69176 1.16364 -0.12665
 N329 N 0.71282 1.17620 -0.13959
 C330 C 0.72367 1.16545 -0.16345
 N331 N 0.71241 1.14165 -0.17389
 C332 C 0.65883 1.12573 -0.12257
 C333 C 0.64081 1.11360 -0.11002
 C334 C 0.61984 1.09886 -0.09470
 N335 N 0.61971 1.09952 -0.06648
 N336 N 0.60078 1.08519 -0.05216
 C337 C 0.58130 1.06963 -0.06552
 N338 N 0.58149 1.06914 -0.09385
 N339 N 0.60043 1.08347 -0.10819
 N340 N 0.30717 0.87140 -0.16428
 C341 C 0.31792 0.86060 -0.14053
 N342 N 0.30692 0.83684 -0.12998
 N343 N 0.28576 0.82432 -0.14276
 C344 C 0.27478 0.83510 -0.16654
 N345 N 0.28601 0.85887 -0.17705
 C346 C 0.33993 0.87474 -0.12616
 C347 C 0.35803 0.88702 -0.11389
 C348 C 0.37910 0.90207 -0.09902
 N349 N 0.39836 0.88835 -0.08363
 N350 N 0.41740 0.90245 -0.06923
 C351 C 0.41785 0.93078 -0.06966
 N352 N 0.39852 0.94438 -0.08521
 N353 N 0.37949 0.93029 -0.09962
 N354 N 0.69401 0.83292 0.12924
 C355 C 0.68281 0.85658 0.13983
 N356 N 0.69361 0.86756 0.16347
 N357 N 0.71503 0.85529 0.17610
 C358 C 0.72646 0.83161 0.16555
 N359 N 0.71542 0.82066 0.14188
 C360 C 0.66053 0.87043 0.12556
 C361 C 0.64222 0.88235 0.11322
 C362 C 0.62090 0.89685 0.09815
 N363 N 0.60164 0.91229 0.11184
 N364 N 0.58244 0.92647 0.09771
 C365 C 0.58182 0.92576 0.06939
 N366 N 0.60115 0.91015 0.05583
 N367 N 0.62034 0.89597 0.06994
   
