data_POSCAR
  _audit_creation_date              2014-09-24
  _audit_creation_method            'ToBaCCo'
  _symmetry_space_group_name_H-M    'P1'
  _symmetry_Int_Tables_number       1
  _symmetry_cell_setting            triclinic
  loop_
  _symmetry_equiv_pos_as_xyz
 x,y,z
_cell_length_a 19.0304
_cell_length_b 19.1620
_cell_length_c 18.3863
_cell_angle_alpha 83.601000
_cell_angle_beta 94.356100
_cell_angle_gamma 78.458000
loop_
  _atom_site_label
  _atom_site_type_symbol
  _atom_site_fract_x
  _atom_site_fract_y
  _atom_site_fract_z
C1 C 0.57018 0.51498 0.01265
 C2 C 0.51145 0.57379 -0.01368
 C3 C 0.44218 0.55950 -0.02707
 C4 C 0.42825 0.48999 -0.01464
 C5 C 0.48718 0.43184 0.00984
 C6 C 0.55602 0.44555 0.02453
 H7 H 0.60074 0.39994 0.03819
 H8 H 0.39690 0.60459 -0.04037
 C9 C 0.00478 0.43061 0.51688
 C10 C -0.00272 0.47502 0.57310
 C11 C -0.00108 0.54785 0.55723
 C12 C 0.00899 0.57916 0.48646
 C13 C 0.02362 0.53236 0.43188
 C14 C 0.02018 0.45953 0.44795
 H15 H 0.02685 0.42515 0.40482
 H16 H -0.00610 0.57999 0.60224
 C17 C 0.47845 -0.01602 0.42590
 C18 C 0.42703 0.01268 0.47161
 C19 C 0.45042 0.03541 0.53725
 C20 C 0.52440 0.02701 0.56154
 C21 C 0.57692 -0.00304 0.51562
 C22 C 0.55195 -0.02346 0.44849
 H23 H 0.59007 -0.04076 0.40994
 H24 H 0.40968 0.05405 0.57283
 O25 O 0.46306 0.02922 -0.12091
 O26 O 0.41978 -0.00393 0.06940
 O27 O 0.43348 0.10735 -0.01897
 O28 O 0.44931 -0.08409 -0.03566
 O29 O 0.56503 -0.10548 0.00450
 O30 O 0.54887 0.08555 0.02269
 O31 O 0.53610 -0.02851 0.10766
 O32 O 0.57936 0.00604 -0.08283
 Cu33 Cu 0.42955 0.01383 -0.03023
 Cu34 Cu 0.56915 -0.01236 0.01684
 C35 C 0.52824 0.02387 -0.13425
 C36 C 0.47081 -0.02228 0.12085
 C37 C 0.48879 0.12898 0.00416
 C38 C 0.50970 -0.12730 -0.01827
 O39 O -0.10689 0.56629 0.98690
 O40 O 0.08600 0.54967 0.96854
 O41 O -0.02426 0.53430 0.88557
 O42 O 0.00197 0.58577 1.07152
 O43 O 0.02641 0.47106 1.11778
 O44 O -0.00130 0.41973 0.93257
 O45 O 0.10714 0.43557 1.01655
 O46 O -0.08569 0.45267 1.03633
 Cu47 Cu -0.01287 0.57071 0.97377
 Cu48 Cu 0.01291 0.43323 1.03075
 C49 C -0.12912 0.51210 1.01459
 C50 C 0.12929 0.48970 0.98853
 C51 C -0.01613 0.46834 0.87754
 C52 C 0.01945 0.53688 1.12616
 O53 O -0.00279 -0.07455 0.42040
 O54 O -0.03161 0.11737 0.44739
 O55 O 0.07720 0.02280 0.41593
 O56 O -0.11003 0.01888 0.45163
 O57 O -0.07725 -0.00332 0.57131
 O58 O 0.11250 -0.01320 0.53380
 O59 O 0.00927 0.08669 0.56455
 O60 O 0.02359 -0.10350 0.54051
 Cu61 Cu -0.01995 0.02448 0.42191
 Cu62 Cu 0.02112 -0.01151 0.56431
 C63 C 0.01131 -0.12134 0.47702
 C64 C -0.01460 0.13468 0.51016
 C65 C 0.12665 0.00531 0.46892
 C66 C -0.12538 0.00656 0.51724
 C67 C -0.32984 0.56849 0.97110
 C68 C -0.35672 0.52124 1.02021
 C69 C -0.30606 0.47696 1.07548
 C70 C -0.23185 0.47550 1.07562
 C71 C -0.20638 0.51874 1.02108
 C72 C -0.25703 0.56829 0.97233
 C73 C -0.26140 0.58327 0.89046
 C74 C -0.34138 0.58343 0.88915
 H75 H -0.32341 0.44197 1.11771
 H76 H -0.19439 0.43877 1.11670
 H77 H -0.23053 0.53802 0.86533
 H78 H -0.25030 0.63689 0.87197
 H79 H -0.35704 0.53819 0.86347
 H80 H -0.37609 0.63719 0.86970
 C81 C 0.33101 0.42946 1.02195
 C82 C 0.35583 0.48155 0.97660
 C83 C 0.30364 0.52820 0.92447
 C84 C 0.22979 0.52895 0.92594
 C85 C 0.20611 0.48249 0.97879
 C86 C 0.25814 0.42963 1.02256
 C87 C 0.26515 0.40796 1.10369
 C88 C 0.34491 0.40787 1.10334
 H89 H 0.31930 0.56603 0.88382
 H90 H 0.19122 0.56803 0.88793
 H91 H 0.25413 0.35353 1.11798
 H92 H 0.23580 0.45037 1.13349
 H93 H 0.37937 0.35326 1.11815
 H94 H 0.36201 0.45023 1.13286
 C95 C 0.04298 -0.31087 0.42507
 C96 C 0.00291 -0.34498 0.47399
 C97 C -0.04378 -0.29927 0.51359
 C98 C -0.04167 -0.22647 0.51262
 C99 C 0.00573 -0.19594 0.47075
 C100 C 0.04393 -0.23784 0.42321
 C101 C 0.12226 -0.24992 0.41354
 C102 C 0.12167 -0.32924 0.41561
 H103 H -0.08119 -0.31984 0.54733
 H104 H -0.07560 -0.19449 0.54672
 H105 H 0.15489 -0.23769 0.46141
 H106 H 0.13240 -0.22462 0.35902
 H107 H 0.15407 -0.36313 0.46454
 H108 H 0.13218 -0.34915 0.36217
 C109 C 0.02563 0.30232 0.57999
 C110 C -0.01042 0.35700 0.52487
 C111 C -0.05951 0.33861 0.47240
 C112 C -0.06445 0.26653 0.46974
 C113 C -0.02091 0.21113 0.52006
 C114 C 0.02013 0.23118 0.57762
 C115 C 0.09760 0.20310 0.60464
 C116 C 0.10400 0.28047 0.60694
 H117 H -0.09071 0.37954 0.43038
 H118 H -0.09911 0.25392 0.42579
 H119 H 0.12908 0.17673 0.56307
 H120 H 0.10454 0.17124 0.66002
 H121 H 0.13915 0.29924 0.56668
 H122 H 0.11566 0.29140 0.66406
 C123 C 0.59538 -0.00730 -0.31697
 C124 C 0.54172 0.04030 -0.36564
 C125 C 0.49775 0.09600 -0.33493
 C126 C 0.49818 0.09465 -0.25841
 C127 C 0.54366 0.03859 -0.21075
 C128 C 0.59653 -0.00785 -0.24112
 C129 C 0.61878 -0.08776 -0.22691
 C130 C 0.61752 -0.08737 -0.30966
 H131 H 0.45859 0.13740 -0.36982
 H132 H 0.45865 0.13380 -0.23674
 H133 H 0.57687 -0.11333 -0.20262
 H134 H 0.67383 -0.10575 -0.19758
 H135 H 0.57486 -0.11267 -0.33349
 H136 H 0.67189 -0.10542 -0.32773
 C137 C 0.40672 0.01741 0.30172
 C138 C 0.45774 -0.03208 0.35098
 C139 C 0.49806 -0.09125 0.32254
 C140 C 0.49746 -0.09204 0.24611
 C141 C 0.45469 -0.03494 0.19723
 C142 C 0.40463 0.01552 0.22631
 C143 C 0.38777 0.09555 0.21005
 C144 C 0.39029 0.09765 0.29253
 H145 H 0.53602 -0.13258 0.35876
 H146 H 0.53516 -0.13356 0.22541
 H147 H 0.33298 0.11649 0.18089
 H148 H 0.43158 0.11691 0.18452
 H149 H 0.33693 0.12012 0.31055
 H150 H 0.43575 0.12002 0.31504
 C151 C 0.56395 -0.32770 0.02753
 C152 C 0.51762 -0.35323 -0.02123
 C153 C 0.47485 -0.30160 -0.07690
 C154 C 0.47370 -0.22790 -0.07777
 C155 C 0.51602 -0.20390 -0.02378
 C156 C 0.56426 -0.25535 0.02546
 C157 C 0.57678 -0.26117 0.10729
 C158 C 0.57642 -0.34063 0.10950
 H159 H 0.44092 -0.31779 -0.11910
 H160 H 0.43808 -0.18967 -0.11913
 H161 H 0.53055 -0.23060 0.13198
 H162 H 0.63034 -0.25083 0.12569
 H163 H 0.52992 -0.35628 0.13530
 H164 H 0.62982 -0.37583 0.12933
 C165 C 0.51683 0.30216 0.06625
 C166 C 0.48215 0.35551 0.00985
 C167 C 0.44683 0.33153 -0.05039
 C168 C 0.44644 0.25769 -0.05113
 C169 C 0.48366 0.20573 0.00696
 C170 C 0.51791 0.23132 0.06456
 C171 C 0.56247 0.20859 0.13649
 C172 C 0.56138 0.28894 0.13868
 H173 H 0.42057 0.36947 -0.09731
 H174 H 0.41945 0.24112 -0.09821
 H175 H 0.61665 0.17620 0.13067
 H176 H 0.53252 0.18526 0.17926
 H177 H 0.61527 0.30232 0.13485
 H178 H 0.53073 0.31191 0.18265
 C179 C -0.31822 0.04319 0.56478
 C180 C -0.34743 -0.00828 0.53040
 C181 C -0.29708 -0.06333 0.50531
 C182 C -0.22409 -0.05980 0.50432
 C183 C -0.19860 -0.00219 0.52986
 C184 C -0.24548 0.04579 0.56507
 C185 C -0.26140 0.12587 0.55501
 C186 C -0.34078 0.12325 0.55458
 H187 H -0.31440 -0.10794 0.48330
 H188 H -0.18835 -0.10024 0.48009
 H189 H -0.24702 0.14899 0.50135
 H190 H -0.24037 0.14762 0.60384
 H191 H -0.37254 0.14479 0.50065
 H192 H -0.36523 0.14384 0.60307
 C193 C 0.32390 -0.04699 0.44210
 C194 C 0.34890 0.01492 0.45521
 C195 C 0.29678 0.07792 0.45841
 C196 C 0.22313 0.07569 0.45777
 C197 C 0.20063 0.01023 0.45549
 C198 C 0.25146 -0.04937 0.44244
 C199 C 0.26817 -0.12498 0.47935
 C200 C 0.34760 -0.12239 0.47902
 H201 H 0.31341 0.12775 0.46569
 H202 H 0.18459 0.12391 0.46408
 H203 H 0.25138 -0.16255 0.44297
 H204 H 0.25016 -0.12992 0.53549
 H205 H 0.37636 -0.15847 0.44252
 H206 H 0.37573 -0.12572 0.53497
 C207 C -0.01925 0.60242 1.30686
 C208 C 0.03518 0.55599 1.35501
 C209 C 0.09471 0.51852 1.32392
 C210 C 0.09281 0.51781 1.24742
 C211 C 0.03201 0.55572 1.20063
 C212 C -0.02046 0.60285 1.23099
 C213 C -0.10067 0.61288 1.22162
 C214 C -0.09919 0.61237 1.30449
 H215 H 0.13871 0.48311 1.35914
 H216 H 0.13558 0.48231 1.22569
 H217 H -0.11890 0.56602 1.20181
 H218 H -0.12694 0.66585 1.19025
 H219 H -0.11640 0.56514 1.33282
 H220 H -0.12445 0.66505 1.32082
 C221 C 0.04784 0.41898 0.69980
 C222 C -0.01242 0.44878 0.64942
 C223 C -0.07904 0.47068 0.67765
 C224 C -0.08237 0.47103 0.75399
 C225 C -0.01934 0.44813 0.80305
 C226 C 0.04421 0.41731 0.77509
 C227 C 0.11768 0.43316 0.78717
 C228 C 0.12131 0.43588 0.70474
 H229 H -0.12672 0.49489 0.64044
 H230 H -0.13259 0.49499 0.77388
 H231 H 0.15669 0.38716 0.81950
 H232 H 0.11683 0.48593 0.80727
 H233 H 0.16333 0.39219 0.68978
 H234 H 0.12179 0.49044 0.67716
   
