data_POSCAR
  _audit_creation_date              2014-09-24
  _audit_creation_method            'ToBaCCo'
  _symmetry_space_group_name_H-M    'P1'
  _symmetry_Int_Tables_number       1
  _symmetry_cell_setting            triclinic
  loop_
  _symmetry_equiv_pos_as_xyz
 x,y,z
_cell_length_a 16.1367
_cell_length_b 16.4329
_cell_length_c 16.4347
_cell_angle_alpha 90.956600
_cell_angle_beta 88.066400
_cell_angle_gamma 88.477100
loop_
  _atom_site_label
  _atom_site_type_symbol
  _atom_site_fract_x
  _atom_site_fract_y
  _atom_site_fract_z
C1 C 0.00651 0.42034 0.18693
 C2 C 0.07998 0.43019 0.24257
 C3 C 0.07401 0.49820 0.29138
 C4 C -0.00401 0.55108 0.27937
 C5 C -0.06936 0.42492 0.24494
 C6 C -0.07528 0.49310 0.29254
 C7 C 0.00223 0.50015 0.13911
 C8 C -0.00311 0.56886 0.18802
 H9 H 0.12893 0.38428 0.24728
 H10 H -0.00876 0.60633 0.31941
 H11 H -0.11610 0.37879 0.24646
 H12 H 0.00546 0.50156 0.07331
 C13 C -0.00604 0.42322 0.81873
 C14 C -0.08318 0.43936 0.78010
 C15 C -0.08042 0.49722 0.71762
 C16 C -0.00090 0.53906 0.71309
 C17 C 0.05705 0.41027 0.75485
 C18 C 0.06398 0.47522 0.69826
 C19 C 0.01276 0.50230 0.85586
 C20 C 0.01311 0.56793 0.79670
 H21 H -0.14177 0.41797 0.80505
 H22 H 0.00052 0.58761 0.66670
 H23 H 0.10551 0.36443 0.76220
 H24 H 0.01801 0.51189 0.92075
 C25 C 0.18978 -0.00116 0.40795
 C26 C 0.23715 0.07811 0.40153
 C27 C 0.29141 0.09012 0.46158
 C28 C 0.29576 0.01944 0.52234
 C29 C 0.25733 -0.06760 0.41004
 C30 C 0.31211 -0.05727 0.46976
 C31 C 0.15005 0.00070 0.49489
 C32 C 0.20629 0.01085 0.55512
 H33 H 0.22682 0.12230 0.35445
 H34 H 0.34133 0.02567 0.57087
 H35 H 0.25962 -0.12068 0.36987
 H36 H 0.08475 -0.00889 0.50717
 C37 C 0.80272 -0.02981 0.42389
 C38 C 0.73838 -0.08675 0.44111
 C39 C 0.68973 -0.06821 0.51378
 C40 C 0.71085 0.00854 0.55217
 C41 C 0.75897 0.05291 0.41876
 C42 C 0.70962 0.07344 0.48526
 C43 C 0.85186 -0.02353 0.50135
 C44 C 0.80340 -0.00389 0.56906
 H45 H 0.72907 -0.13927 0.40207
 H46 H 0.67181 0.02520 0.60731
 H47 H 0.77389 0.09381 0.36993
 H48 H 0.91844 -0.03334 0.50179
 C49 C 0.40739 0.19395 1.01372
 C50 C 0.41866 0.24411 1.08501
 C51 C 0.48314 0.30170 1.07797
 C52 C 0.52918 0.29371 0.99782
 C53 C 0.39879 0.24887 0.94668
 C54 C 0.46642 0.30144 0.93378
 C55 C 0.48781 0.15237 0.99990
 C56 C 0.55666 0.20728 0.99299
 H57 H 0.39950 0.22248 1.14445
 H58 H 0.58072 0.33689 0.99181
 H59 H 0.35015 0.24298 0.90297
 H60 H 0.49431 0.08670 0.99524
 C61 C 0.43270 0.80527 1.01676
 C62 C 0.42345 0.74289 0.94845
 C63 C 0.48980 0.69087 0.93663
 C64 C 0.55970 0.70551 0.99586
 C65 C 0.45215 0.75507 1.09194
 C66 C 0.51856 0.70248 1.08104
 C67 C 0.50965 0.84597 0.99565
 C68 C 0.58019 0.79033 0.98525
 H69 H 0.37302 0.74715 0.90670
 H70 H 0.61318 0.66181 0.98659
 H71 H 0.41471 0.75998 1.14775
 H72 H 0.51422 0.91155 0.99394
 B73 B 0.98399 1.07809 0.04242
 B74 B 0.99610 1.07966 -0.05940
 B75 B 1.07583 1.04687 -0.00374
 B76 B 1.03603 0.99461 0.07616
 B77 B 0.93199 0.99261 0.06740
 B78 B 0.90602 1.04575 -0.01597
 B79 B 1.00381 0.91118 -0.06582
 B80 B 0.99167 0.90974 0.03706
 B81 B 0.91099 0.94188 -0.02022
 B82 B 0.95058 0.99552 -0.09864
 B83 B 1.05488 0.99712 -0.09175
 B84 B 1.08091 0.94497 -0.00692
 B85 B 0.59163 0.50020 0.46421
 B86 B 0.58582 0.49772 0.56684
 B87 B 0.55437 0.58236 0.51962
 B88 B 0.50863 0.55456 0.43340
 B89 B 0.51019 0.45194 0.42569
 B90 B 0.55749 0.41529 0.51005
 B91 B 0.41503 0.49779 0.56203
 B92 B 0.42279 0.50337 0.45903
 B93 B 0.45335 0.41638 0.50638
 B94 B 0.50010 0.44526 0.59526
 B95 B 0.49708 0.54811 0.59968
 B96 B 0.44959 0.58346 0.51680
 C97 C 1.01023 1.34120 0.13799
 C98 C 0.94248 1.31245 0.10341
 C99 C 0.93700 1.23010 0.06717
 C100 C 0.97874 1.16364 0.09226
 H101 H 0.88774 1.35174 0.10025
 H102 H 0.89530 1.22581 0.01785
 H103 H 1.06702 1.30443 0.13657
 H104 H 1.01609 1.17020 0.14490
 C105 C 0.99313 0.65397 0.15933
 C106 C 0.96144 0.67399 0.08807
 C107 C 0.95311 0.75773 0.05677
 C108 C 0.99208 0.82406 0.08376
 H109 H 0.93743 0.62643 0.04980
 H110 H 0.91844 0.76114 0.00204
 H111 H 1.01192 0.70115 0.20093
 H112 H 1.02875 0.81982 0.13725
 C113 C 0.98854 1.35019 -0.13366
 C114 C 0.95049 1.28143 -0.16932
 C115 C 0.95073 1.20138 -0.14398
 C116 C 1.00525 1.16852 -0.09484
 H117 H 0.91456 1.28975 -0.22317
 H118 H 0.90547 1.16316 -0.17087
 H119 H 1.02335 1.34441 -0.07877
 H120 H 1.05488 1.20499 -0.07255
 C121 C 1.02079 0.65152 -0.18543
 C122 C 1.05810 0.68062 -0.11578
 C123 C 1.06274 0.76295 -0.09206
 C124 C 1.01203 0.82473 -0.11509
 H125 H 1.08999 0.63702 -0.07831
 H126 H 1.10336 0.77317 -0.04264
 H127 H 1.00337 0.69473 -0.23130
 H128 H 0.96435 0.81184 -0.15768
 C129 C 1.13343 0.98403 0.33774
 C130 C 1.08360 1.04205 0.30879
 C131 C 1.04189 1.03333 0.23064
 C132 C 1.07716 0.99601 0.16389
 H133 H 1.07362 1.09872 0.34272
 H134 H 0.98322 1.06576 0.22735
 H135 H 1.13824 0.92567 0.30592
 H136 H 1.13931 0.97092 0.16771
 C137 C 1.18662 1.00990 -0.35565
 C138 C 1.11448 1.03954 -0.32435
 C139 C 1.09132 1.04912 -0.23662
 C140 C 1.11117 0.99870 -0.17562
 H141 H 1.06998 1.06490 -0.36555
 H142 H 1.04196 1.09335 -0.22668
 H143 H 1.23490 0.99124 -0.31518
 H144 H 1.15621 0.94966 -0.18744
 C145 C 0.85416 0.94700 0.34941
 C146 C 0.82230 0.95378 0.27615
 C147 C 0.87475 0.94050 0.20370
 C148 C 0.87135 0.99419 0.14429
 H149 H 0.75948 0.97737 0.26972
 H150 H 0.92199 0.89323 0.20465
 H151 H 0.91786 0.92568 0.35535
 H152 H 0.83032 1.04707 0.15287
 C153 C 0.83405 0.99850 -0.34822
 C154 C 0.90102 0.95446 -0.32867
 C155 C 0.93519 0.95177 -0.24751
 C156 C 0.90832 0.99790 -0.18374
 H157 H 0.93333 0.91600 -0.37416
 H158 H 0.98928 0.91243 -0.24322
 H159 H 0.79720 1.03296 -0.30302
 H160 H 0.85647 1.03985 -0.18874
 C161 C 1.33666 1.14235 0.01993
 C162 C 1.26609 1.16273 0.07029
 C163 C 1.18841 1.12872 0.06498
 C164 C 1.16155 1.09147 -0.00143
 H165 H 1.26993 1.20734 0.11895
 H166 H 1.14720 1.13764 0.11745
 H167 H 1.33375 1.09256 -0.02385
 H168 H 1.20017 1.08772 -0.05653
 C169 C 0.64131 1.18155 -0.01094
 C170 C 0.66620 1.10364 0.01412
 C171 C 0.74701 1.07023 0.01716
 C172 C 0.81714 1.09551 -0.02053
 H173 H 0.61936 1.06557 0.04101
 H174 H 0.74950 1.01438 0.05035
 H175 H 0.68814 1.22557 -0.02524
 H176 H 0.81341 1.14811 -0.05875
 C177 C 1.35402 0.85735 0.02710
 C178 C 1.28380 0.82289 0.05443
 C179 C 1.20082 0.86202 0.05613
 C180 C 1.17212 0.90505 -0.00563
 H181 H 1.28654 0.76161 0.07762
 H182 H 1.15998 0.84677 0.10639
 H183 H 1.35233 0.91877 0.00412
 H184 H 1.21300 0.91489 -0.05790
 C185 C 0.66245 0.81252 -0.02906
 C186 C 0.68367 0.88487 -0.06610
 C187 C 0.76476 0.91219 -0.07473
 C188 C 0.82702 0.89178 -0.02558
 H189 H 0.63549 0.92066 -0.09429
 H190 H 0.77185 0.96174 -0.11586
 H191 H 0.71126 0.76797 -0.01779
 H192 H 0.81476 0.85017 0.02325
 C193 C 0.85437 0.50903 0.34955
 C194 C 0.82044 0.44700 0.38850
 C195 C 0.74247 0.45292 0.43538
 C196 C 0.67878 0.50198 0.41673
 H197 H 0.85120 0.38751 0.38615
 H198 H 0.73600 0.40804 0.48155
 H199 H 0.82981 0.57067 0.35791
 H200 H 0.68614 0.54443 0.36778
 C201 C 0.13102 0.51388 0.35737
 C202 C 0.21197 0.49784 0.34732
 C203 C 0.26862 0.50494 0.41481
 C204 C 0.34930 0.51138 0.39780
 H205 H 0.23711 0.47782 0.28802
 H206 H 0.24403 0.50094 0.47619
 H207 H 0.10608 0.53959 0.41450
 H208 H 0.36831 0.52006 0.33472
 C209 C 0.85084 0.50687 0.66774
 C210 C 0.79623 0.44125 0.66163
 C211 C 0.71630 0.44073 0.63303
 C212 C 0.67129 0.50564 0.61250
 H213 H 0.81797 0.38163 0.68021
 H214 H 0.68938 0.38163 0.62945
 H215 H 0.84263 0.56120 0.63225
 H216 H 0.69589 0.56566 0.62101
 C217 C 0.13912 0.48673 0.65345
 C218 C 0.20027 0.42384 0.64520
 C219 C 0.28409 0.42998 0.62214
 C220 C 0.32408 0.49835 0.60543
 H221 H 0.18223 0.36201 0.65613
 H222 H 0.31801 0.37284 0.61872
 H223 H 0.15083 0.54617 0.62886
 H224 H 0.29208 0.55613 0.61609
 C225 C 0.54745 0.64642 0.14403
 C226 C 0.53108 0.66225 0.22284
 C227 C 0.54713 0.60274 0.28631
 C228 C 0.50711 0.61344 0.35813
 H229 H 0.50090 0.71953 0.24147
 H230 H 0.58721 0.55039 0.27282
 H231 H 0.58086 0.59086 0.12512
 H232 H 0.46393 0.66456 0.36421
 C233 C 0.50006 0.63922 0.86307
 C234 C 0.43390 0.61313 0.82468
 C235 C 0.43895 0.57341 0.74474
 C236 C 0.49225 0.59436 0.68492
 H237 H 0.37270 0.61891 0.85364
 H238 H 0.39463 0.52658 0.73582
 H239 H 0.56215 0.62580 0.83852
 H240 H 0.53567 0.64207 0.69537
 C241 C 0.50423 0.34805 0.14852
 C242 C 0.44574 0.35556 0.21530
 C243 C 0.45295 0.38101 0.29691
 C244 C 0.51812 0.41189 0.33396
 H245 H 0.38264 0.33916 0.20373
 H246 H 0.39631 0.37551 0.33273
 H247 H 0.56389 0.37636 0.15116
 H248 H 0.57614 0.41654 0.29972
 C249 C 0.47252 0.33861 0.85655
 C250 C 0.53941 0.38147 0.82491
 C251 C 0.54461 0.41343 0.74534
 C252 C 0.49577 0.39681 0.68129
 H253 H 0.58908 0.39566 0.86497
 H254 H 0.59213 0.45739 0.73781
 H255 H 0.42035 0.33141 0.81762
 H256 H 0.44731 0.35337 0.68823
 C257 C 0.64100 0.87374 0.55310
 C258 C 0.65492 0.79120 0.53488
 C259 C 0.60153 0.72981 0.55705
 C260 C 0.61278 0.65791 0.51841
 H261 H 0.70909 0.77352 0.49735
 H262 H 0.54811 0.74263 0.59721
 H263 H 0.59644 0.89245 0.60102
 H264 H 0.66630 0.64973 0.47719
 C265 C 0.66935 0.15466 0.49715
 C266 C 0.66236 0.20639 0.43524
 C267 C 0.63090 0.29077 0.44133
 C268 C 0.60360 0.32896 0.50967
 H269 H 0.68012 0.18701 0.37391
 H270 H 0.63214 0.32246 0.38472
 H271 H 0.64748 0.17157 0.55808
 H272 H 0.60535 0.29819 0.56700
 C273 C 0.37447 0.87986 0.48740
 C274 C 0.35190 0.80271 0.49356
 C275 C 0.41333 0.73641 0.49801
 C276 C 0.39051 0.66237 0.51976
 H277 H 0.28678 0.78800 0.49196
 H278 H 0.47540 0.74772 0.47619
 H279 H 0.43833 0.89665 0.49460
 H280 H 0.32582 0.65425 0.53567
 C281 C 0.33758 0.16640 0.46584
 C282 C 0.37733 0.18995 0.53178
 C283 C 0.42306 0.26606 0.53692
 C284 C 0.40487 0.33383 0.49575
 H285 H 0.37976 0.15146 0.58427
 H286 H 0.47087 0.26608 0.58094
 H287 H 0.33728 0.20495 0.41302
 H288 H 0.35189 0.33530 0.45730
   
