data_POSCAR
  _audit_creation_date              2014-09-24
  _audit_creation_method            'ToBaCCo'
  _symmetry_space_group_name_H-M    'P1'
  _symmetry_Int_Tables_number       1
  _symmetry_cell_setting            triclinic
  loop_
  _symmetry_equiv_pos_as_xyz
 x,y,z
_cell_length_a 51.0833
_cell_length_b 51.0896
_cell_length_c 51.1163
_cell_angle_alpha 90.016300
_cell_angle_beta 90.013100
_cell_angle_gamma 90.018200
loop_
  _atom_site_label
  _atom_site_type_symbol
  _atom_site_fract_x
  _atom_site_fract_y
  _atom_site_fract_z
O1 O 0.34826 0.38473 0.02511
 O2 O 0.38424 0.34884 -0.02596
 O3 O 0.34803 0.38483 -0.02581
 O4 O 0.38435 0.34865 0.02497
 O5 O 0.35382 0.31812 0.02492
 O6 O 0.31761 0.35425 -0.02578
 O7 O 0.35373 0.31830 -0.02595
 O8 O 0.31779 0.35414 0.02507
 Cu9 Cu 0.36928 0.36983 -0.00042
 Cu10 Cu 0.33269 0.33315 -0.00044
 C11 C 0.32682 0.37560 0.03379
 C12 C 0.37518 0.32738 -0.03465
 C13 C 0.32651 0.37581 -0.03448
 C14 C 0.37532 0.32714 0.03360
 O15 O 0.65181 0.61525 0.02506
 O16 O 0.61582 0.65117 -0.02597
 O17 O 0.65198 0.61514 -0.02586
 O18 O 0.61577 0.65138 0.02495
 O19 O 0.64634 0.68187 0.02489
 O20 O 0.68244 0.64567 -0.02585
 O21 O 0.64638 0.68168 -0.02597
 O22 O 0.68232 0.64580 0.02501
 Cu23 Cu 0.63079 0.63017 -0.00046
 Cu24 Cu 0.66742 0.66680 -0.00049
 C25 C 0.67327 0.62435 0.03374
 C26 C 0.62490 0.67263 -0.03465
 C27 C 0.67350 0.62414 -0.03456
 C28 C 0.62484 0.67288 0.03358
 O29 O 0.65166 0.38492 0.97494
 O30 O 0.61563 0.34896 1.02593
 O31 O 0.65179 0.38500 1.02586
 O32 O 0.61556 0.34884 0.97501
 O33 O 0.64609 0.31833 0.97505
 O34 O 0.68223 0.35446 1.02583
 O35 O 0.64616 0.31845 1.02591
 O36 O 0.68214 0.35435 0.97498
 Cu37 Cu 0.63060 0.36999 1.00044
 Cu38 Cu 0.66720 0.33334 1.00045
 C39 C 0.67311 0.37582 0.96627
 C40 C 0.62470 0.32749 1.03460
 C41 C 0.67331 0.37599 1.03456
 C42 C 0.62461 0.32735 0.96635
 O43 O 0.38429 0.65122 1.02610
 O44 O 0.34819 0.61523 0.97513
 O45 O 0.38430 0.65133 0.97518
 O46 O 0.34811 0.61517 1.02605
 O47 O 0.31767 0.64571 1.02605
 O48 O 0.35377 0.68183 0.97524
 O49 O 0.31772 0.64580 0.97519
 O50 O 0.35376 0.68174 1.02611
 Cu51 Cu 0.36928 0.63018 1.00062
 Cu52 Cu 0.33268 0.66682 1.00066
 C53 C 0.37524 0.67270 1.03478
 C54 C 0.32672 0.62433 0.96647
 C55 C 0.37525 0.67282 0.96654
 C56 C 0.32660 0.62418 1.03475
 O57 O -0.02582 0.38425 0.34853
 O58 O 0.02525 0.34842 0.38458
 O59 O 0.02514 0.38447 0.34845
 O60 O -0.02570 0.34809 0.38452
 O61 O -0.02552 0.31763 0.35399
 O62 O 0.02524 0.35391 0.31798
 O63 O 0.02536 0.31792 0.35404
 O64 O -0.02566 0.35371 0.31803
 Cu65 Cu -0.00029 0.36937 0.36958
 Cu66 Cu -0.00013 0.33274 0.33296
 C67 C -0.03445 0.37514 0.32707
 C68 C 0.03400 0.32698 0.37552
 C69 C 0.03385 0.37543 0.32698
 C70 C -0.03432 0.32654 0.37549
 O71 O 0.02534 0.65138 0.61531
 O72 O -0.02579 0.61561 0.65135
 O73 O -0.02561 0.65172 0.61531
 O74 O 0.02517 0.61537 0.65148
 O75 O 0.02527 0.64598 0.68192
 O76 O -0.02544 0.68221 0.64579
 O77 O -0.02562 0.64620 0.68181
 O78 O 0.02546 0.68192 0.64581
 Cu79 Cu -0.00023 0.63046 0.63031
 Cu80 Cu -0.00007 0.66713 0.66688
 C81 C 0.03410 0.67283 0.62436
 C82 C -0.03441 0.62475 0.67280
 C83 C -0.03423 0.67327 0.62430
 C84 C 0.03386 0.62443 0.67295
 O85 O 0.97473 0.65137 0.38476
 O86 O 1.02575 0.61548 0.34867
 O87 O 1.02568 0.65159 0.38473
 O88 O 0.97479 0.61531 0.34863
 O89 O 0.97472 0.64588 0.31818
 O90 O 1.02554 0.68207 0.35424
 O91 O 1.02562 0.64605 0.31821
 O92 O 0.97465 0.68188 0.35424
 Cu93 Cu 1.00024 0.63038 0.36975
 Cu94 Cu 1.00012 0.66702 0.33317
 C95 C 0.96601 0.67282 0.37571
 C96 C 1.03438 0.62460 0.32722
 C97 C 1.03433 0.67313 0.37573
 C98 C 0.96609 0.62437 0.32717
 O99 O 1.02553 0.38421 0.65140
 O100 O 0.97450 0.34836 0.61522
 O101 O 0.97457 0.38440 0.65139
 O102 O 1.02545 0.34811 0.61531
 O103 O 1.02526 0.31761 0.64578
 O104 O 0.97445 0.35381 0.68182
 O105 O 0.97437 0.31783 0.64572
 O106 O 1.02535 0.35362 0.68184
 Cu107 Cu 1.00003 0.36933 0.63027
 Cu108 Cu 0.99984 0.33267 0.66683
 C109 C 1.03414 0.37508 0.67286
 C110 C 0.96575 0.32690 0.62424
 C111 C 0.96585 0.37534 0.67284
 C112 C 1.03407 0.32656 0.62431
 O113 O 0.38441 0.02577 0.34871
 O114 O 0.34847 -0.02543 0.38454
 O115 O 0.38461 -0.02518 0.34851
 O116 O 0.34830 0.02553 0.38478
 O117 O 0.31782 0.02550 0.35422
 O118 O 0.35407 -0.02514 0.31800
 O119 O 0.31800 -0.02539 0.35396
 O120 O 0.35386 0.02574 0.31821
 Cu121 Cu 0.36951 0.00017 0.36970
 Cu122 Cu 0.33288 0.00018 0.33305
 C123 C 0.37532 0.03446 0.32727
 C124 C 0.32703 -0.03413 0.37540
 C125 C 0.37558 -0.03380 0.32700
 C126 C 0.32680 0.03415 0.37573
 O127 O 0.61553 0.02565 0.65136
 O128 O 0.65150 -0.02554 0.61555
 O129 O 0.61538 -0.02531 0.65160
 O130 O 0.65160 0.02540 0.61525
 O131 O 0.68211 0.02547 0.64578
 O132 O 0.64593 -0.02517 0.68209
 O133 O 0.68199 -0.02541 0.64610
 O134 O 0.64611 0.02572 0.68183
 Cu135 Cu 0.63043 0.00004 0.63038
 Cu136 Cu 0.66709 0.00017 0.66700
 C137 C 0.62464 0.03440 0.67278
 C138 C 0.67296 -0.03419 0.62468
 C139 C 0.62443 -0.03388 0.67311
 C140 C 0.67311 0.03407 0.62426
 O141 O 0.38438 0.97431 0.65143
 O142 O 0.34836 1.02539 0.61551
 O143 O 0.38451 1.02526 0.65154
 O144 O 0.34832 0.97444 0.61531
 O145 O 0.31781 0.97443 0.64584
 O146 O 0.35397 1.02519 0.68203
 O147 O 0.31788 1.02531 0.64607
 O148 O 0.35381 0.97431 0.68190
 Cu149 Cu 0.36945 0.99985 0.63039
 Cu150 Cu 0.33281 0.99980 0.66701
 C151 C 0.37528 0.96561 0.67287
 C152 C 0.32691 1.03405 0.62463
 C153 C 0.37546 1.03389 0.67303
 C154 C 0.32682 0.96577 0.62434
 O155 O 0.61611 0.97473 0.34861
 O156 O 0.65218 1.02582 0.38453
 O157 O 0.61599 1.02568 0.34853
 O158 O 0.65220 0.97487 0.38472
 O159 O 0.68269 0.97487 0.35418
 O160 O 0.64651 1.02562 0.31802
 O161 O 0.68261 1.02576 0.35399
 O162 O 0.64666 0.97473 0.31813
 Cu163 Cu 0.63106 1.00028 0.36966
 Cu164 Cu 0.66766 1.00024 0.33303
 C165 C 0.62519 0.96603 0.32716
 C166 C 0.67367 1.03454 0.37547
 C167 C 0.62502 1.03430 0.32703
 C168 C 0.67369 0.96621 0.37568
 C169 C 0.82346 0.78927 0.48684
 C170 C 0.82346 0.78924 0.51440
 C171 C 0.80651 0.80597 0.52798
 C172 C 0.78979 0.82291 0.51436
 C173 C 0.78985 0.82299 0.48680
 C174 C 0.80659 0.80606 0.47323
 H175 H 0.80680 0.80625 0.45200
 H176 H 0.80664 0.80611 0.54920
 C177 C 0.17655 0.21073 0.48685
 C178 C 0.17650 0.21073 0.51441
 C179 C 0.19344 0.19399 0.52800
 C180 C 0.21021 0.17709 0.51439
 C181 C 0.21021 0.17706 0.48683
 C182 C 0.19347 0.19398 0.47325
 H183 H 0.19331 0.19382 0.45202
 H184 H 0.19327 0.19382 0.54922
 C185 C 0.17694 0.78889 0.51315
 C186 C 0.17690 0.78888 0.48559
 C187 C 0.19383 0.80563 0.47200
 C188 C 0.21059 0.82255 0.48561
 C189 C 0.21058 0.82259 0.51317
 C190 C 0.19385 0.80565 0.52676
 H191 H 0.19368 0.80583 0.54798
 H192 H 0.19366 0.80579 0.45078
 C193 C 0.82331 0.21041 0.51277
 C194 C 0.82336 0.21039 0.48521
 C195 C 0.80644 0.19362 0.47162
 C196 C 0.78967 0.17671 0.48522
 C197 C 0.78966 0.17670 0.51278
 C198 C 0.80639 0.19365 0.52637
 H199 H 0.80655 0.19351 0.54759
 H200 H 0.80662 0.19344 0.45039
 C201 C 0.48594 0.82287 0.78953
 C202 C 0.51352 0.82294 0.78953
 C203 C 0.52713 0.80601 0.80624
 C204 C 0.51354 0.78924 0.82314
 C205 C 0.48596 0.78923 0.82321
 C206 C 0.47234 0.80596 0.80629
 H207 H 0.45111 0.80611 0.80646
 H208 H 0.54837 0.80619 0.80640
 C209 C 0.48610 0.17721 0.21068
 C210 C 0.51368 0.17718 0.21068
 C211 C 0.52726 0.19412 0.19395
 C212 C 0.51365 0.21086 0.17704
 C213 C 0.48607 0.21083 0.17698
 C214 C 0.47248 0.19409 0.19391
 H215 H 0.45124 0.19391 0.19374
 H216 H 0.54850 0.19397 0.19379
 C217 C 0.51397 0.17741 0.78915
 C218 C 0.48640 0.17733 0.78915
 C219 C 0.47278 0.19426 0.80587
 C220 C 0.48638 0.21104 0.82278
 C221 C 0.51395 0.21106 0.82283
 C222 C 0.52757 0.19434 0.80591
 H223 H 0.54881 0.19419 0.80608
 H224 H 0.45155 0.19406 0.80603
 C225 C 0.51433 0.82327 0.21045
 C226 C 0.48675 0.82331 0.21048
 C227 C 0.47313 0.80636 0.19378
 C228 C 0.48671 0.78958 0.17687
 C229 C 0.51428 0.78959 0.17679
 C230 C 0.52791 0.80635 0.19368
 H231 H 0.54915 0.80652 0.19349
 H232 H 0.45189 0.80652 0.19364
 C233 C 0.78934 0.48642 0.82315
 C234 C 0.78929 0.51400 0.82319
 C235 C 0.80597 0.52761 0.80623
 C236 C 0.82288 0.51403 0.78945
 C237 C 0.82296 0.48645 0.78945
 C238 C 0.80608 0.47284 0.80622
 H239 H 0.80628 0.45160 0.80639
 H240 H 0.80611 0.54885 0.80639
 C241 C 0.21065 0.48635 0.17685
 C242 C 0.21073 0.51393 0.17684
 C243 C 0.19404 0.52755 0.19380
 C244 C 0.17712 0.51397 0.21056
 C245 C 0.17701 0.48639 0.21054
 C246 C 0.19388 0.47277 0.19377
 H247 H 0.19366 0.45154 0.19358
 H248 H 0.19393 0.54878 0.19365
 C249 C 0.78923 0.51359 0.17695
 C250 C 0.78913 0.48602 0.17691
 C251 C 0.80581 0.47237 0.19385
 C252 C 0.82274 0.48593 0.21063
 C253 C 0.82286 0.51351 0.21065
 C254 C 0.80600 0.52715 0.19390
 H255 H 0.80624 0.54839 0.19373
 H256 H 0.80591 0.45114 0.19367
 C257 C 0.21024 0.51349 0.82357
 C258 C 0.21030 0.48592 0.82359
 C259 C 0.19361 0.47228 0.80664
 C260 C 0.17669 0.48585 0.78986
 C261 C 0.17660 0.51343 0.78986
 C262 C 0.19347 0.52706 0.80664
 H263 H 0.19327 0.54830 0.80681
 H264 H 0.19349 0.45105 0.80679
 C265 C 0.27415 0.39430 0.08254
 C266 C 0.28355 0.41830 0.09179
 C267 C 0.30728 0.42820 0.08237
 C268 C 0.32151 0.41424 0.06363
 C269 C 0.31212 0.39016 0.05406
 C270 C 0.28832 0.38030 0.06381
 C271 C 0.26857 0.43293 0.11059
 C272 C 0.25572 0.44516 0.12611
 C273 C 0.24036 0.45945 0.14403
 C274 C 0.22697 0.47167 0.15911
 H275 H 0.25578 0.38647 0.08969
 H276 H 0.31471 0.44679 0.08938
 H277 H 0.33975 0.42237 0.05652
 H278 H 0.28055 0.36184 0.05687
 C279 C 0.72592 0.60564 0.08251
 C280 C 0.71647 0.58167 0.09179
 C281 C 0.69273 0.57178 0.08236
 C282 C 0.67853 0.58575 0.06359
 C283 C 0.68796 0.60979 0.05401
 C284 C 0.71177 0.61963 0.06376
 C285 C 0.73143 0.56704 0.11061
 C286 C 0.74425 0.55482 0.12616
 C287 C 0.75958 0.54053 0.14410
 C288 C 0.77293 0.52830 0.15919
 H289 H 0.74430 0.61344 0.08967
 H290 H 0.68527 0.55322 0.08938
 H291 H 0.66028 0.57763 0.05649
 H292 H 0.71957 0.63807 0.05680
 C293 C 0.69268 0.42840 0.91771
 C294 C 0.71640 0.41848 0.90827
 C295 C 0.72579 0.39449 0.91753
 C296 C 0.71162 0.38051 0.93627
 C297 C 0.68782 0.39038 0.94602
 C298 C 0.67845 0.41445 0.93645
 C299 C 0.73139 0.43309 0.88946
 C300 C 0.74424 0.44529 0.87392
 C301 C 0.75961 0.45955 0.85599
 C302 C 0.77301 0.47175 0.84090
 H303 H 0.68526 0.44698 0.91069
 H304 H 0.74415 0.38666 0.91037
 H305 H 0.71938 0.36205 0.94321
 H306 H 0.66021 0.42258 0.94356
 C307 C 0.30706 0.57168 0.91797
 C308 C 0.28331 0.58157 0.90857
 C309 C 0.27394 0.60558 0.91783
 C310 C 0.28816 0.61960 0.93652
 C311 C 0.31197 0.60975 0.94624
 C312 C 0.32133 0.58567 0.93668
 C313 C 0.26828 0.56693 0.88980
 C314 C 0.25540 0.55470 0.87429
 C315 C 0.24000 0.54041 0.85638
 C316 C 0.22658 0.52819 0.84131
 H317 H 0.31446 0.55309 0.91096
 H318 H 0.25556 0.61340 0.91070
 H319 H 0.28041 0.63806 0.94347
 H320 H 0.33958 0.57754 0.94376
 C321 C 0.08234 0.30752 0.42835
 C322 C 0.09182 0.28378 0.41852
 C323 C 0.08269 0.27436 0.39449
 C324 C 0.06403 0.28852 0.38038
 C325 C 0.05423 0.31232 0.39017
 C326 C 0.06367 0.32173 0.41427
 C327 C 0.11052 0.26879 0.43328
 C328 C 0.12598 0.25593 0.44558
 C329 C 0.14382 0.24054 0.45993
 C330 C 0.15884 0.22712 0.47218
 H331 H 0.08925 0.31496 0.44697
 H332 H 0.08988 0.25598 0.38673
 H333 H 0.05718 0.28073 0.36191
 H334 H 0.05652 0.33997 0.42235
 C335 C 0.08254 0.69219 0.57158
 C336 C 0.09204 0.71594 0.58140
 C337 C 0.08290 0.72539 0.60540
 C338 C 0.06420 0.71127 0.61949
 C339 C 0.05437 0.68746 0.60972
 C340 C 0.06383 0.67801 0.58564
 C341 C 0.11079 0.73089 0.56667
 C342 C 0.12628 0.74373 0.55438
 C343 C 0.14416 0.75910 0.54004
 C344 C 0.15921 0.77251 0.52781
 H345 H 0.08947 0.68473 0.55299
 H346 H 0.09010 0.74377 0.61316
 H347 H 0.05733 0.71908 0.63795
 H348 H 0.05666 0.65977 0.57757
 C349 C 0.91766 0.69236 0.42851
 C350 C 0.90820 0.71610 0.41866
 C351 C 0.91735 0.72549 0.39464
 C352 C 0.93601 0.71131 0.38056
 C353 C 0.94579 0.68751 0.39035
 C354 C 0.93633 0.67812 0.41445
 C355 C 0.88949 0.73111 0.43339
 C356 C 0.87403 0.74399 0.44566
 C357 C 0.85618 0.75942 0.45997
 C358 C 0.84116 0.77286 0.47219
 H359 H 0.91073 0.68494 0.44711
 H360 H 0.91017 0.74387 0.38687
 H361 H 0.94287 0.71908 0.36208
 H362 H 0.94347 0.65988 0.42253
 C363 C 0.91709 0.27422 0.60517
 C364 C 0.90799 0.28363 0.58114
 C365 C 0.91747 0.30738 0.57133
 C366 C 0.93612 0.32162 0.58544
 C367 C 0.94554 0.31222 0.60955
 C368 C 0.93573 0.28840 0.61931
 C369 C 0.88930 0.26861 0.56636
 C370 C 0.87385 0.25573 0.55405
 C371 C 0.85602 0.24030 0.53969
 C372 C 0.84100 0.22684 0.52745
 H373 H 0.90990 0.25584 0.61292
 H374 H 0.91057 0.31481 0.55272
 H375 H 0.94327 0.33987 0.57739
 H376 H 0.94256 0.28062 0.63779
 C377 C 0.39405 0.08320 0.27462
 C378 C 0.41809 0.09241 0.28398
 C379 C 0.42799 0.08299 0.30770
 C380 C 0.41400 0.06428 0.32194
 C381 C 0.38989 0.05474 0.31259
 C382 C 0.38003 0.06450 0.28881
 C383 C 0.43275 0.11115 0.26894
 C384 C 0.44498 0.12663 0.25603
 C385 C 0.45925 0.14449 0.24057
 C386 C 0.47144 0.15951 0.22710
 H387 H 0.38623 0.09035 0.25626
 H388 H 0.44661 0.08997 0.31509
 H389 H 0.42213 0.05716 0.34017
 H390 H 0.36155 0.05758 0.28106
 C391 C 0.57199 0.08296 0.69230
 C392 C 0.58193 0.09246 0.71599
 C393 C 0.60597 0.08327 0.72534
 C394 C 0.61997 0.06453 0.71119
 C395 C 0.61007 0.05470 0.68744
 C396 C 0.58597 0.06421 0.67808
 C397 C 0.56729 0.11124 0.73099
 C398 C 0.55509 0.12676 0.74388
 C399 C 0.54083 0.14465 0.75931
 C400 C 0.52864 0.15970 0.77276
 H401 H 0.55337 0.08991 0.68491
 H402 H 0.61382 0.09048 0.74368
 H403 H 0.63846 0.05764 0.71893
 H404 H 0.57781 0.05704 0.65989
 C405 C 0.39396 0.91689 0.72554
 C406 C 0.41800 0.90769 0.71621
 C407 C 0.42794 0.91713 0.69251
 C408 C 0.41396 0.93584 0.67825
 C409 C 0.38985 0.94536 0.68758
 C410 C 0.37996 0.93559 0.71134
 C411 C 0.43264 0.88894 0.73126
 C412 C 0.44484 0.87345 0.74418
 C413 C 0.45908 0.85558 0.75965
 C414 C 0.47127 0.84056 0.77312
 H415 H 0.38612 0.90973 0.74389
 H416 H 0.44656 0.91016 0.68514
 H417 H 0.42212 0.94297 0.66005
 H418 H 0.36147 0.94250 0.71906
 C419 C 0.60642 0.91733 0.27444
 C420 C 0.58238 0.90813 0.28377
 C421 C 0.57247 0.91756 0.30749
 C422 C 0.58647 0.93626 0.32177
 C423 C 0.61059 0.94578 0.31244
 C424 C 0.62045 0.93602 0.28866
 C425 C 0.56771 0.88939 0.26872
 C426 C 0.55549 0.87390 0.25579
 C427 C 0.54122 0.85602 0.24032
 C428 C 0.52901 0.84098 0.22685
 H429 H 0.61425 0.91018 0.25608
 H430 H 0.55385 0.91059 0.31487
 H431 H 0.57834 0.94338 0.33999
 H432 H 0.63894 0.94293 0.28093
 C433 C 0.39408 0.27469 0.91670
 C434 C 0.41809 0.28412 0.90751
 C435 C 0.42792 0.30789 0.91692
 C436 C 0.41387 0.32212 0.93560
 C437 C 0.38980 0.31269 0.94511
 C438 C 0.38001 0.28886 0.93537
 C439 C 0.43281 0.26911 0.88879
 C440 C 0.44510 0.25624 0.87333
 C441 C 0.45944 0.24084 0.85549
 C442 C 0.47169 0.22742 0.84047
 H443 H 0.38632 0.25628 0.90956
 H444 H 0.44651 0.31534 0.90995
 H445 H 0.42195 0.34039 0.94270
 H446 H 0.36155 0.28106 0.94228
 C447 C 0.60596 0.72538 0.91679
 C448 C 0.58192 0.71599 0.90764
 C449 C 0.57208 0.69222 0.91703
 C450 C 0.58615 0.67795 0.93566
 C451 C 0.61026 0.68734 0.94514
 C452 C 0.62006 0.71117 0.93541
 C453 C 0.56717 0.73103 0.88898
 C454 C 0.55485 0.74394 0.87357
 C455 C 0.54049 0.75937 0.85578
 C456 C 0.52823 0.77283 0.84080
 H457 H 0.61373 0.74378 0.90967
 H458 H 0.55346 0.68480 0.91009
 H459 H 0.57806 0.65969 0.94275
 H460 H 0.63855 0.71894 0.94230
 C461 C 0.39424 0.72552 0.08328
 C462 C 0.41829 0.71616 0.09242
 C463 C 0.42812 0.69238 0.08303
 C464 C 0.41403 0.67808 0.06442
 C465 C 0.38991 0.68744 0.05495
 C466 C 0.38012 0.71128 0.06468
 C467 C 0.43306 0.73124 0.11106
 C468 C 0.44537 0.74418 0.12647
 C469 C 0.45974 0.75965 0.14425
 C470 C 0.47200 0.77314 0.15922
 H471 H 0.38648 0.74393 0.09040
 H472 H 0.44675 0.68498 0.08996
 H473 H 0.42210 0.65982 0.05733
 H474 H 0.36163 0.71903 0.05781
 C475 C 0.60583 0.27474 0.08318
 C476 C 0.58180 0.28413 0.09237
 C477 C 0.57194 0.30788 0.08297
 C478 C 0.58598 0.32215 0.06432
 C479 C 0.61007 0.31277 0.05481
 C480 C 0.61989 0.28895 0.06453
 C481 C 0.56710 0.26909 0.11107
 C482 C 0.55483 0.25618 0.12652
 C483 C 0.54053 0.24073 0.14435
 C484 C 0.52831 0.22727 0.15935
 H485 H 0.61361 0.25635 0.09031
 H486 H 0.55333 0.31530 0.08994
 H487 H 0.57788 0.34040 0.05722
 H488 H 0.63837 0.28119 0.05763
 C489 C 0.27419 0.08281 0.60608
 C490 C 0.28353 0.09209 0.58208
 C491 C 0.30724 0.08267 0.57212
 C492 C 0.32151 0.06392 0.58604
 C493 C 0.31218 0.05433 0.61011
 C494 C 0.28840 0.06407 0.62002
 C495 C 0.26848 0.11089 0.56751
 C496 C 0.25556 0.12642 0.55536
 C497 C 0.24010 0.14433 0.54118
 C498 C 0.22662 0.15938 0.52903
 H499 H 0.25584 0.08995 0.61394
 H500 H 0.31462 0.08970 0.55353
 H501 H 0.33973 0.05682 0.57787
 H502 H 0.28067 0.05711 0.63848
 C503 C 0.69256 0.08236 0.42724
 C504 C 0.71637 0.09163 0.41742
 C505 C 0.72581 0.08223 0.39352
 C506 C 0.71162 0.06349 0.37954
 C507 C 0.68767 0.05379 0.38929
 C508 C 0.67828 0.06361 0.41332
 C509 C 0.73142 0.11044 0.43202
 C510 C 0.74434 0.12597 0.44419
 C511 C 0.75980 0.14390 0.45841
 C512 C 0.77326 0.15897 0.47057
 H513 H 0.68510 0.08950 0.44576
 H514 H 0.74425 0.08928 0.38576
 H515 H 0.71957 0.05653 0.36116
 H516 H 0.65998 0.05672 0.42152
 C517 C 0.69263 0.91717 0.57218
 C518 C 0.71636 0.90779 0.58213
 C519 C 0.72570 0.91708 0.60613
 C520 C 0.71148 0.93581 0.62008
 C521 C 0.68768 0.94552 0.61017
 C522 C 0.67835 0.93591 0.58611
 C523 C 0.73144 0.88902 0.56754
 C524 C 0.74438 0.87352 0.55537
 C525 C 0.75986 0.85564 0.54116
 C526 C 0.77335 0.84061 0.52900
 H527 H 0.68525 0.91013 0.55359
 H528 H 0.74408 0.90997 0.61398
 H529 H 0.71921 0.94279 0.63853
 H530 H 0.66011 0.94298 0.57794
 C531 C 0.30745 0.91717 0.42787
 C532 C 0.28375 0.90772 0.41791
 C533 C 0.27439 0.91699 0.39392
 C534 C 0.28856 0.93577 0.37999
 C535 C 0.31234 0.94555 0.38990
 C536 C 0.32169 0.93596 0.41396
 C537 C 0.26873 0.88888 0.43247
 C538 C 0.25584 0.87332 0.44463
 C539 C 0.24042 0.85538 0.45882
 C540 C 0.22697 0.84029 0.47098
 H541 H 0.31485 0.91015 0.44645
 H542 H 0.25603 0.90982 0.38605
 H543 H 0.28082 0.94272 0.36153
 H544 H 0.33991 0.94309 0.42214
 C545 C 0.08270 0.39375 0.72574
 C546 C 0.09200 0.41776 0.71642
 C547 C 0.08268 0.42767 0.69266
 C548 C 0.06399 0.41370 0.67833
 C549 C 0.05437 0.38962 0.68765
 C550 C 0.06402 0.37975 0.71147
 C551 C 0.11072 0.43240 0.73152
 C552 C 0.12619 0.44463 0.74446
 C553 C 0.14403 0.45892 0.75994
 C554 C 0.15903 0.47115 0.77342
 H555 H 0.08977 0.38592 0.74413
 H556 H 0.08972 0.44626 0.68529
 H557 H 0.05696 0.42184 0.66008
 H558 H 0.05704 0.36129 0.71918
 C559 C 0.08303 0.60596 0.27446
 C560 C 0.09232 0.58196 0.28382
 C561 C 0.08295 0.57204 0.30755
 C562 C 0.06423 0.58600 0.32183
 C563 C 0.05463 0.61006 0.31248
 C564 C 0.06432 0.61994 0.28868
 C565 C 0.11107 0.56734 0.26877
 C566 C 0.12657 0.55513 0.25587
 C567 C 0.14443 0.54086 0.24042
 C568 C 0.15945 0.52865 0.22697
 H569 H 0.09014 0.61379 0.25609
 H570 H 0.08999 0.55346 0.31494
 H571 H 0.05717 0.57786 0.34006
 H572 H 0.05735 0.63839 0.28094
 C573 C 0.91688 0.39383 0.27433
 C574 C 0.90757 0.41779 0.28373
 C575 C 0.91693 0.42768 0.30750
 C576 C 0.93566 0.41372 0.32174
 C577 C 0.94528 0.38968 0.31235
 C578 C 0.93560 0.37983 0.28852
 C579 C 0.88881 0.43244 0.26872
 C580 C 0.87331 0.44468 0.25584
 C581 C 0.85544 0.45898 0.24044
 C582 C 0.84041 0.47122 0.22701
 H583 H 0.90978 0.38602 0.25593
 H584 H 0.90987 0.44624 0.31493
 H585 H 0.94271 0.42183 0.34001
 H586 H 0.94259 0.36140 0.28074
 C587 C 0.91698 0.57220 0.69245
 C588 C 0.90763 0.58211 0.71619
 C589 C 0.91692 0.60611 0.72556
 C590 C 0.93563 0.62010 0.71134
 C591 C 0.94531 0.61022 0.68753
 C592 C 0.93569 0.58616 0.67817
 C593 C 0.88889 0.56747 0.73124
 C594 C 0.87341 0.55524 0.74415
 C595 C 0.85556 0.54094 0.75959
 C596 C 0.84055 0.52872 0.77304
 H597 H 0.90993 0.55361 0.68505
 H598 H 0.90984 0.61393 0.74394
 H599 H 0.94262 0.63855 0.71908
 H600 H 0.94275 0.57802 0.65993
 C601 C 0.72572 0.60582 0.91792
 C602 C 0.71626 0.58190 0.90855
 C603 C 0.69243 0.57212 0.91784
 C604 C 0.67815 0.58613 0.93654
 C605 C 0.68755 0.61020 0.94629
 C606 C 0.71153 0.61989 0.93660
 C607 C 0.73127 0.56724 0.88973
 C608 C 0.74414 0.55504 0.87416
 C609 C 0.75953 0.54080 0.85616
 C610 C 0.77293 0.52863 0.84101
 H611 H 0.74417 0.61356 0.91088
 H612 H 0.68494 0.55359 0.91074
 H613 H 0.65983 0.57796 0.94341
 H614 H 0.71950 0.63829 0.94351
 C615 C 0.27417 0.39408 0.91810
 C616 C 0.28357 0.41803 0.90876
 C617 C 0.30741 0.42783 0.91802
 C618 C 0.32175 0.41382 0.93666
 C619 C 0.31241 0.38973 0.94640
 C620 C 0.28842 0.38002 0.93674
 C621 C 0.26850 0.43269 0.88998
 C622 C 0.25559 0.44489 0.87445
 C623 C 0.24014 0.45913 0.85650
 C624 C 0.22670 0.47129 0.84139
 H625 H 0.25571 0.38633 0.91108
 H626 H 0.31487 0.44637 0.91093
 H627 H 0.34008 0.42201 0.94351
 H628 H 0.28049 0.36160 0.94363
 C629 C 0.27438 0.60586 0.08227
 C630 C 0.28382 0.58193 0.09161
 C631 C 0.30765 0.57216 0.08232
 C632 C 0.32194 0.58618 0.06365
 C633 C 0.31256 0.61026 0.05391
 C634 C 0.28858 0.61993 0.06361
 C635 C 0.26879 0.56725 0.11041
 C636 C 0.25592 0.55502 0.12595
 C637 C 0.24052 0.54075 0.14392
 C638 C 0.22711 0.52857 0.15904
 H639 H 0.25593 0.61359 0.08932
 H640 H 0.31513 0.55363 0.08941
 H641 H 0.34026 0.57801 0.05677
 H642 H 0.28063 0.63833 0.05671
 C643 C 0.72553 0.39426 0.08212
 C644 C 0.71608 0.41817 0.09150
 C645 C 0.69225 0.42796 0.08221
 C646 C 0.67797 0.41397 0.06349
 C647 C 0.68736 0.38990 0.05372
 C648 C 0.71133 0.38021 0.06342
 C649 C 0.73109 0.43282 0.11033
 C650 C 0.74395 0.44502 0.12591
 C651 C 0.75935 0.45925 0.14392
 C652 C 0.77276 0.47141 0.15907
 H653 H 0.74397 0.38652 0.08917
 H654 H 0.68477 0.44648 0.08932
 H655 H 0.65965 0.42214 0.05662
 H656 H 0.71929 0.36182 0.05650
 C657 C 0.91804 0.69226 0.57243
 C658 C 0.90883 0.71612 0.58220
 C659 C 0.91830 0.72558 0.60607
 C660 C 0.93700 0.71137 0.62009
 C661 C 0.94661 0.68735 0.61041
 C662 C 0.93676 0.67795 0.58638
 C663 C 0.88998 0.73115 0.56760
 C664 C 0.87439 0.74403 0.55543
 C665 C 0.85639 0.75944 0.54121
 C666 C 0.84125 0.77286 0.52905
 H667 H 0.91086 0.68476 0.55394
 H668 H 0.91131 0.74405 0.61381
 H669 H 0.94399 0.71933 0.63845
 H670 H 0.94356 0.65961 0.57822
 C671 C 0.91820 0.27418 0.39362
 C672 C 0.90874 0.28361 0.41750
 C673 C 0.91795 0.30746 0.42731
 C674 C 0.93666 0.32180 0.41338
 C675 C 0.94652 0.31244 0.38935
 C676 C 0.93690 0.28843 0.37963
 C677 C 0.88990 0.26854 0.43208
 C678 C 0.87432 0.25563 0.44423
 C679 C 0.85631 0.24020 0.45843
 C680 C 0.84117 0.22677 0.47057
 H681 H 0.91122 0.25572 0.38585
 H682 H 0.91077 0.31492 0.44581
 H683 H 0.94347 0.34013 0.42157
 H684 H 0.94389 0.28049 0.36126
 C685 C 0.08184 0.30760 0.57247
 C686 C 0.09105 0.28374 0.58223
 C687 C 0.08158 0.27427 0.60609
 C688 C 0.06286 0.28848 0.62010
 C689 C 0.05325 0.31249 0.61043
 C690 C 0.06311 0.32190 0.58643
 C691 C 0.10990 0.26872 0.56762
 C692 C 0.12549 0.25585 0.55544
 C693 C 0.14351 0.24047 0.54122
 C694 C 0.15866 0.22707 0.52905
 H695 H 0.08903 0.31511 0.55400
 H696 H 0.08856 0.25580 0.61382
 H697 H 0.05587 0.28051 0.63845
 H698 H 0.05631 0.34024 0.57827
 C699 C 0.08213 0.69205 0.42756
 C700 C 0.09138 0.71589 0.41778
 C701 C 0.08193 0.72536 0.39392
 C702 C 0.06318 0.71117 0.37992
 C703 C 0.05352 0.68718 0.38960
 C704 C 0.06338 0.67777 0.41361
 C705 C 0.11026 0.73090 0.43239
 C706 C 0.12587 0.74375 0.44456
 C707 C 0.14391 0.75913 0.45878
 C708 C 0.15907 0.77253 0.47094
 H709 H 0.08931 0.68455 0.44604
 H710 H 0.08894 0.74382 0.38619
 H711 H 0.05620 0.71914 0.36156
 H712 H 0.05654 0.65944 0.42178
 C713 C 0.60549 0.91765 0.72603
 C714 C 0.58150 0.90834 0.71664
 C715 C 0.57166 0.91768 0.69285
 C716 C 0.58568 0.93636 0.67857
 C717 C 0.60976 0.94597 0.68793
 C718 C 0.61954 0.93633 0.71180
 C719 C 0.56685 0.88951 0.73165
 C720 C 0.55463 0.87394 0.74449
 C721 C 0.54036 0.85593 0.75983
 C722 C 0.52817 0.84078 0.77320
 H723 H 0.61329 0.91058 0.74443
 H724 H 0.55309 0.91064 0.68542
 H725 H 0.57760 0.94338 0.66028
 H726 H 0.63800 0.94329 0.71956
 C727 C 0.39464 0.91776 0.27408
 C728 C 0.41865 0.90853 0.28347
 C729 C 0.42847 0.91791 0.30726
 C730 C 0.41439 0.93655 0.32155
 C731 C 0.39030 0.94607 0.31219
 C732 C 0.38054 0.93639 0.28832
 C733 C 0.43335 0.88975 0.26845
 C734 C 0.44561 0.87421 0.25560
 C735 C 0.45990 0.85625 0.24023
 C736 C 0.47210 0.84112 0.22684
 H737 H 0.38687 0.91066 0.25567
 H738 H 0.44705 0.91092 0.31470
 H739 H 0.42246 0.94359 0.33984
 H740 H 0.36207 0.94330 0.28055
 C741 C 0.57216 0.08265 0.30737
 C742 C 0.58195 0.09202 0.28358
 C743 C 0.60595 0.08278 0.27416
 C744 C 0.62005 0.06414 0.28838
 C745 C 0.61031 0.05446 0.31225
 C746 C 0.58623 0.06400 0.32164
 C747 C 0.56722 0.11079 0.26857
 C748 C 0.55494 0.12632 0.25574
 C749 C 0.54060 0.14428 0.24039
 C750 C 0.52836 0.15939 0.22702
 H751 H 0.55358 0.08965 0.31483
 H752 H 0.61370 0.08987 0.25575
 H753 H 0.63851 0.05721 0.28060
 H754 H 0.57819 0.05696 0.33993
 C755 C 0.39440 0.08251 0.72583
 C756 C 0.41838 0.09180 0.71641
 C757 C 0.42821 0.08240 0.69265
 C758 C 0.41419 0.06367 0.67841
 C759 C 0.39012 0.05409 0.68780
 C760 C 0.38035 0.06379 0.71165
 C761 C 0.43304 0.11066 0.73138
 C762 C 0.44527 0.12627 0.74418
 C763 C 0.45955 0.14430 0.75949
 C764 C 0.47175 0.15947 0.77284
 H765 H 0.38662 0.08963 0.74422
 H766 H 0.44678 0.08943 0.68519
 H767 H 0.42226 0.05661 0.66014
 H768 H 0.36190 0.05683 0.71943
 C769 C 0.60605 0.72579 0.08214
 C770 C 0.58204 0.71644 0.09142
 C771 C 0.57213 0.69268 0.08203
 C772 C 0.58611 0.67838 0.06333
 C773 C 0.61021 0.68770 0.05376
 C774 C 0.62006 0.71154 0.06345
 C775 C 0.56743 0.73149 0.11025
 C776 C 0.55526 0.74438 0.12583
 C777 C 0.54105 0.75979 0.14383
 C778 C 0.52891 0.77321 0.15897
 H779 H 0.61389 0.74417 0.08924
 H780 H 0.55354 0.68528 0.08905
 H781 H 0.57798 0.66011 0.05627
 H782 H 0.63853 0.71928 0.05651
 C783 C 0.42807 0.30748 0.08208
 C784 C 0.41820 0.28372 0.09149
 C785 C 0.39420 0.27432 0.08220
 C786 C 0.38017 0.28852 0.06349
 C787 C 0.38998 0.31236 0.05379
 C788 C 0.41406 0.32174 0.06336
 C789 C 0.43282 0.26873 0.11035
 C790 C 0.44501 0.25589 0.12595
 C791 C 0.45924 0.24053 0.14398
 C792 C 0.47141 0.22715 0.15914
 H793 H 0.44664 0.31493 0.08911
 H794 H 0.38639 0.25593 0.08931
 H795 H 0.36171 0.28074 0.05654
 H796 H 0.42216 0.34000 0.05630
 C797 C 0.57190 0.30772 0.91780
 C798 C 0.58178 0.28397 0.90838
 C799 C 0.60576 0.27457 0.91767
 C800 C 0.61978 0.28875 0.93641
 C801 C 0.60996 0.31258 0.94614
 C802 C 0.58589 0.32196 0.93655
 C803 C 0.56716 0.26899 0.88950
 C804 C 0.55498 0.25615 0.87388
 C805 C 0.54075 0.24079 0.85584
 C806 C 0.52859 0.22741 0.84067
 H807 H 0.55333 0.31516 0.91077
 H808 H 0.61358 0.25619 0.91053
 H809 H 0.63823 0.28098 0.94336
 H810 H 0.57779 0.34022 0.94363
 C811 C 0.42796 0.69250 0.91803
 C812 C 0.41809 0.71626 0.90864
 C813 C 0.39410 0.72565 0.91793
 C814 C 0.38008 0.71144 0.93663
 C815 C 0.38989 0.68760 0.94633
 C816 C 0.41396 0.67823 0.93675
 C817 C 0.43272 0.73126 0.88979
 C818 C 0.44491 0.74411 0.87420
 C819 C 0.45915 0.75948 0.85618
 C820 C 0.47132 0.77287 0.84103
 H821 H 0.44653 0.68506 0.91100
 H822 H 0.38629 0.74403 0.91082
 H823 H 0.36163 0.71921 0.94359
 H824 H 0.42206 0.65997 0.94381
 C825 C 0.72653 0.91765 0.39468
 C826 C 0.71712 0.90841 0.41867
 C827 C 0.69334 0.91783 0.42848
 C828 C 0.67908 0.93651 0.41444
 C829 C 0.68847 0.94604 0.39036
 C830 C 0.71233 0.93632 0.38060
 C831 C 0.73210 0.88959 0.43335
 C832 C 0.74491 0.87401 0.44561
 C833 C 0.76022 0.85600 0.45992
 C834 C 0.77355 0.84085 0.47213
 H835 H 0.74493 0.91052 0.38691
 H836 H 0.68588 0.91084 0.44705
 H837 H 0.66081 0.94359 0.42250
 H838 H 0.72011 0.94323 0.36215
 C839 C 0.30719 0.91738 0.57152
 C840 C 0.28341 0.90795 0.58133
 C841 C 0.27399 0.91718 0.60532
 C842 C 0.28819 0.93586 0.61940
 C843 C 0.31205 0.94559 0.60965
 C844 C 0.32144 0.93607 0.58558
 C845 C 0.26843 0.88913 0.56663
 C846 C 0.25561 0.87356 0.55437
 C847 C 0.24027 0.85557 0.54006
 C848 C 0.22691 0.84042 0.52784
 H849 H 0.31465 0.91040 0.55294
 H850 H 0.25559 0.91004 0.61308
 H851 H 0.28041 0.94277 0.63786
 H852 H 0.33972 0.94316 0.57752
 C853 C 0.30702 0.08246 0.42858
 C854 C 0.28324 0.09185 0.41875
 C855 C 0.27386 0.08261 0.39473
 C856 C 0.28811 0.06397 0.38065
 C857 C 0.31197 0.05429 0.39043
 C858 C 0.32132 0.06381 0.41453
 C859 C 0.26821 0.11063 0.43343
 C860 C 0.25534 0.12617 0.44567
 C861 C 0.23996 0.14414 0.45997
 C862 C 0.22657 0.15925 0.47217
 H863 H 0.31445 0.08945 0.44717
 H864 H 0.25546 0.08972 0.38694
 H865 H 0.28036 0.05707 0.36218
 H866 H 0.33960 0.05676 0.42261
 C867 C 0.72602 0.08250 0.60510
 C868 C 0.71663 0.09165 0.58107
 C869 C 0.69283 0.08223 0.57128
 C870 C 0.67854 0.06363 0.58540
 C871 C 0.68791 0.05418 0.60951
 C872 C 0.71179 0.06390 0.61924
 C873 C 0.73166 0.11038 0.56631
 C874 C 0.74452 0.12589 0.55402
 C875 C 0.75990 0.14381 0.53968
 C876 C 0.77330 0.15891 0.52745
 H877 H 0.74444 0.08964 0.61285
 H878 H 0.68539 0.08915 0.55268
 H879 H 0.66025 0.05654 0.57735
 H880 H 0.71956 0.05705 0.63773
 C881 C 0.91769 0.57152 0.30746
 C882 C 0.90823 0.58140 0.28373
 C883 C 0.91743 0.60544 0.27439
 C884 C 0.93612 0.61950 0.28860
 C885 C 0.94589 0.60969 0.31240
 C886 C 0.93639 0.58556 0.32172
 C887 C 0.88941 0.56673 0.26872
 C888 C 0.87384 0.55452 0.25585
 C889 C 0.85584 0.54027 0.24045
 C890 C 0.84069 0.52812 0.22704
 H891 H 0.91073 0.55291 0.31486
 H892 H 0.91027 0.61326 0.25603
 H893 H 0.94301 0.63800 0.28086
 H894 H 0.94351 0.57745 0.33996
 C895 C 0.91726 0.39433 0.72564
 C896 C 0.90811 0.41840 0.71631
 C897 C 0.91759 0.42826 0.69259
 C898 C 0.93624 0.41419 0.67830
 C899 C 0.94569 0.39005 0.68761
 C900 C 0.93590 0.38023 0.71141
 C901 C 0.88934 0.43310 0.73134
 C902 C 0.87381 0.44534 0.74423
 C903 C 0.85586 0.45962 0.75964
 C904 C 0.84076 0.47181 0.77306
 H905 H 0.91009 0.38651 0.74399
 H906 H 0.91067 0.44689 0.68520
 H907 H 0.94337 0.42230 0.66008
 H908 H 0.94275 0.36173 0.71913
 C909 C 0.08206 0.57150 0.69282
 C910 C 0.09151 0.58139 0.71655
 C911 C 0.08236 0.60547 0.72585
 C912 C 0.06375 0.61956 0.71158
 C913 C 0.05399 0.60973 0.68777
 C914 C 0.06344 0.58556 0.67849
 C915 C 0.11026 0.56670 0.73162
 C916 C 0.12578 0.55447 0.74454
 C917 C 0.14371 0.54022 0.75999
 C918 C 0.15881 0.52805 0.77345
 H919 H 0.08898 0.55286 0.68545
 H920 H 0.08952 0.61330 0.74421
 H921 H 0.05691 0.63808 0.71929
 H922 H 0.05633 0.57744 0.66026
 C923 C 0.08248 0.39440 0.27422
 C924 C 0.09166 0.41846 0.28357
 C925 C 0.08219 0.42833 0.30730
 C926 C 0.06350 0.41428 0.32156
 C927 C 0.05403 0.39014 0.31222
 C928 C 0.06380 0.38033 0.28842
 C929 C 0.11048 0.43313 0.26857
 C930 C 0.12604 0.44535 0.25570
 C931 C 0.14404 0.45959 0.24031
 C932 C 0.15918 0.47176 0.22690
 H933 H 0.08965 0.38659 0.25586
 H934 H 0.08913 0.44695 0.31471
 H935 H 0.05638 0.42238 0.33979
 H936 H 0.05694 0.36182 0.28068
   
