data_POSCAR
  _audit_creation_date              2014-09-24
  _audit_creation_method            'ToBaCCo'
  _symmetry_space_group_name_H-M    'P1'
  _symmetry_Int_Tables_number       1
  _symmetry_cell_setting            triclinic
  loop_
  _symmetry_equiv_pos_as_xyz
 x,y,z
_cell_length_a 74.0324
_cell_length_b 73.9959
_cell_length_c 25.4273
_cell_angle_alpha 89.974300
_cell_angle_beta 90.012800
_cell_angle_gamma 119.981700
loop_
  _atom_site_label
  _atom_site_type_symbol
  _atom_site_fract_x
  _atom_site_fract_y
  _atom_site_fract_z
O1 O 0.21774 0.47062 0.45009
 O2 O 0.25322 0.47067 0.55167
 O3 O 0.21796 0.47068 0.55223
 O4 O 0.25301 0.47066 0.44954
 O5 O 0.27018 0.50507 0.44945
 O6 O 0.23516 0.50509 0.55214
 O7 O 0.27040 0.50504 0.55157
 O8 O 0.23491 0.50503 0.45001
 Cu9 Cu 0.23376 0.46721 0.50090
 Cu10 Cu 0.25438 0.50850 0.50080
 C11 C 0.22014 0.48782 0.43293
 C12 C 0.26805 0.48786 0.56878
 C13 C 0.22045 0.48790 0.56946
 C14 C 0.26771 0.48787 0.43220
 O15 O 0.52934 -0.25357 0.44894
 O16 O 0.52934 -0.21817 0.55069
 O17 O 0.52929 -0.25348 0.55106
 O18 O 0.52932 -0.21831 0.44855
 O19 O 0.49493 -0.23552 0.44851
 O20 O 0.49493 -0.27064 0.55103
 O21 O 0.49495 -0.23536 0.55064
 O22 O 0.49498 -0.27076 0.44892
 Cu23 Cu 0.53276 -0.23416 0.49982
 Cu24 Cu 0.49151 -0.25479 0.49978
 C25 C 0.51217 -0.26838 0.43172
 C26 C 0.51215 -0.22059 0.56780
 C27 C 0.51210 -0.26825 0.56838
 C28 C 0.51212 -0.22079 0.43126
 O29 O 1.21786 0.74718 0.54954
 O30 O 1.25334 0.78262 0.44796
 O31 O 1.21807 0.74736 0.44740
 O32 O 1.25315 0.78240 0.55009
 O33 O 1.27030 0.76515 0.55012
 O34 O 1.23526 0.73013 0.44743
 O35 O 1.27050 0.76540 0.44801
 O36 O 1.23502 0.72993 0.54956
 Cu37 Cu 1.23389 0.76661 0.49874
 Cu38 Cu 1.25449 0.74593 0.49878
 C39 C 1.22026 0.73237 0.56666
 C40 C 1.26815 0.78024 0.43081
 C41 C 1.22055 0.73263 0.43014
 C42 C 1.26784 0.77988 0.56740
 O43 O 0.78212 0.52948 0.45012
 O44 O 0.74654 0.52942 0.55143
 O45 O 0.78180 0.52939 0.55226
 O46 O 0.74685 0.52945 0.44930
 O47 O 0.72967 0.49504 0.44923
 O48 O 0.76459 0.49498 0.55219
 O49 O 0.72936 0.49504 0.55135
 O50 O 0.76493 0.49507 0.45007
 Cu51 Cu 0.76605 0.53288 0.50080
 Cu52 Cu 0.74542 0.49159 0.50071
 C53 C 0.77972 0.51228 0.43302
 C54 C 0.73170 0.51222 0.56851
 C55 C 0.77929 0.51217 0.56955
 C56 C 0.73217 0.51225 0.43192
 O57 O 0.47066 0.25282 0.45028
 O58 O 0.47071 0.21729 0.55171
 O59 O 0.47072 0.25258 0.55242
 O60 O 0.47070 0.21756 0.44958
 O61 O 0.50509 0.23477 0.44952
 O62 O 0.50511 0.26977 0.55236
 O63 O 0.50507 0.23447 0.55164
 O64 O 0.50505 0.27002 0.45023
 Cu65 Cu 0.46725 0.23334 0.50101
 Cu66 Cu 0.50852 0.25398 0.50094
 C67 C 0.48785 0.26761 0.43317
 C68 C 0.48789 0.21964 0.56881
 C69 C 0.48792 0.26729 0.56969
 C70 C 0.48789 0.22006 0.43223
 O71 O 0.74712 0.21777 0.45055
 O72 O 0.78265 0.25334 0.55186
 O73 O 0.74739 0.21807 0.55269
 O74 O 0.78235 0.25306 0.44973
 O75 O 0.76513 0.27025 0.44969
 O76 O 0.73020 0.23529 0.55265
 O77 O 0.76546 0.27053 0.55181
 O78 O 0.72991 0.23496 0.45053
 Cu79 Cu 0.76660 0.23384 0.50122
 Cu80 Cu 0.74595 0.25448 0.50117
 C81 C 0.73233 0.22017 0.43348
 C82 C 0.78030 0.26818 0.56896
 C83 C 0.73269 0.22058 0.57000
 C84 C 0.77984 0.26775 0.43237
 N85 N 0.97798 0.52113 0.05653
 N86 N 0.96242 0.52475 0.06418
 N87 N 1.02188 0.53046 0.09272
 N88 N 1.03749 0.54068 0.12575
 N89 N 1.02188 0.54306 0.05635
 N90 N 1.03752 0.56221 0.06366
 N91 N 0.97802 0.50855 0.09287
 N92 N 0.96251 0.50325 0.12618
 C93 C 0.95287 0.51344 0.10777
 C94 C 1.04715 0.56047 0.10711
 N95 N 1.02186 0.47895 0.05648
 N96 N 1.03742 0.47534 0.06405
 N97 N 0.97800 0.46965 0.09289
 N98 N 0.96242 0.45944 0.12602
 N99 N 0.97796 0.45703 0.05655
 N100 N 0.96233 0.43788 0.06399
 N101 N 1.02185 0.49156 0.09279
 N102 N 1.03739 0.49687 0.12601
 Mn103 Mn 0.99994 0.50005 0.09341
 C104 C 1.04701 0.48667 0.10758
 C105 C 0.95274 0.43964 0.10748
 N106 N 1.02184 0.54304 -0.05699
 N107 N 1.03742 0.56220 -0.06462
 N108 N 0.97793 0.50851 -0.09315
 N109 N 0.96231 0.50311 -0.12615
 N110 N 0.97794 0.52110 -0.05680
 N111 N 0.96231 0.52462 -0.06411
 N112 N 1.02179 0.53041 -0.09330
 N113 N 1.03732 0.54062 -0.12658
 Mn114 Mn 0.99991 0.53231 -0.00023
 C115 C 1.04698 0.56044 -0.10818
 C116 C 0.95266 0.51326 -0.10752
 N117 N 0.97790 0.45699 -0.05679
 N118 N 0.96232 0.43782 -0.06435
 N119 N 1.02177 0.49151 -0.09324
 N120 N 1.03737 0.49689 -0.12632
 N121 N 1.02180 0.47893 -0.05686
 N122 N 1.03742 0.47541 -0.06423
 N123 N 0.97791 0.46961 -0.09314
 N124 N 0.96237 0.45938 -0.12637
 Mn125 Mn 0.99988 0.46775 -0.00016
 Mn126 Mn 0.99985 0.50001 -0.09380
 Cl127 Cl 0.99989 0.50003 -0.00019
 C128 C 0.95274 0.43956 -0.10791
 C129 C 1.04703 0.48675 -0.10772
 N130 N 0.47890 0.45707 0.05635
 N131 N 0.47530 0.43789 0.06404
 N132 N 0.46955 0.49163 0.09253
 N133 N 0.45935 0.49702 0.12565
 N134 N 0.45694 0.47904 0.05623
 N135 N 0.43779 0.47549 0.06369
 N136 N 0.49149 0.46970 0.09261
 N137 N 0.49682 0.45949 0.12593
 C138 C 0.48663 0.43966 0.10760
 C139 C 0.43954 0.48686 0.10715
 N140 N 0.52097 0.54312 0.05599
 N141 N 0.52457 0.56230 0.06355
 N142 N 0.53035 0.50858 0.09241
 N143 N 0.54058 0.50322 0.12551
 N144 N 0.54293 0.52115 0.05600
 N145 N 0.56208 0.52468 0.06338
 N146 N 0.50841 0.53052 0.09237
 N147 N 0.50311 0.54075 0.12562
 Mn148 Mn 0.49995 0.50011 0.09307
 C149 C 0.51327 0.56057 0.10713
 C150 C 0.56036 0.51335 0.10690
 N151 N 0.45689 0.47898 -0.05711
 N152 N 0.43772 0.47539 -0.06465
 N153 N 0.49142 0.46960 -0.09340
 N154 N 0.49681 0.45937 -0.12640
 N155 N 0.47886 0.45702 -0.05698
 N156 N 0.47536 0.43787 -0.06424
 N157 N 0.46948 0.49155 -0.09350
 N158 N 0.45925 0.49686 -0.12674
 Mn159 Mn 0.46767 0.46780 -0.00038
 C160 C 0.43945 0.48670 -0.10824
 C161 C 0.48670 0.43958 -0.10770
 N162 N 0.54289 0.52110 -0.05733
 N163 N 0.56206 0.52469 -0.06496
 N164 N 0.50834 0.53043 -0.09366
 N165 N 0.50296 0.54064 -0.12681
 N166 N 0.52093 0.54305 -0.05736
 N167 N 0.52446 0.56221 -0.06485
 N168 N 0.53028 0.50849 -0.09361
 N169 N 0.54049 0.50316 -0.12685
 Mn170 Mn 0.53216 0.53233 -0.00068
 Mn171 Mn 0.49988 0.50002 -0.09414
 Cl172 Cl 0.49991 0.50006 -0.00053
 C173 C 0.56031 0.51335 -0.10848
 C174 C 0.51310 0.56045 -0.10833
 N175 N 0.45700 -0.02212 0.05659
 N176 N 0.43783 -0.03770 0.06408
 N177 N 0.49151 0.02174 0.09314
 N178 N 0.49687 0.03733 0.12627
 N179 N 0.47896 0.02180 0.05673
 N180 N 0.47544 0.03743 0.06412
 N181 N 0.46958 -0.02213 0.09298
 N182 N 0.45933 -0.03769 0.12616
 C183 C 0.43954 -0.04731 0.10763
 C184 C 0.48676 0.04701 0.10766
 N185 N 0.54301 0.02178 0.05708
 N186 N 0.56217 0.03735 0.06478
 N187 N 0.50844 -0.02215 0.09314
 N188 N 0.50305 -0.03777 0.12619
 N189 N 0.52105 -0.02214 0.05684
 N190 N 0.52458 -0.03777 0.06423
 N191 N 0.53037 0.02173 0.09335
 N192 N 0.54056 0.03724 0.12668
 Mn193 Mn 0.49997 -0.00020 0.09375
 C194 C 0.56039 0.04689 0.10835
 C195 C 0.51321 -0.04742 0.10764
 N196 N 0.47906 0.02190 -0.05661
 N197 N 0.47545 0.03748 -0.06422
 N198 N 0.46974 -0.02198 -0.09304
 N199 N 0.45955 -0.03755 -0.12622
 N200 N 0.45711 -0.02202 -0.05674
 N201 N 0.43797 -0.03763 -0.06426
 N202 N 0.49167 0.02190 -0.09288
 N203 N 0.49700 0.03746 -0.12611
 Mn204 Mn 0.46780 -0.00011 -0.00001
 C205 C 0.48680 0.04708 -0.10772
 C206 C 0.43974 -0.04721 -0.10776
 N207 N 0.52115 -0.02206 -0.05650
 N208 N 0.52472 -0.03765 -0.06405
 N209 N 0.53053 0.02188 -0.09267
 N210 N 0.54077 0.03752 -0.12565
 N211 N 0.54309 0.02186 -0.05626
 N212 N 0.56224 0.03751 -0.06349
 N213 N 0.50860 -0.02200 -0.09288
 N214 N 0.50329 -0.03753 -0.12615
 Mn215 Mn 0.53230 -0.00014 0.00029
 Mn216 Mn 0.50014 -0.00005 -0.09347
 Cl217 Cl 0.50005 -0.00012 0.00014
 C218 C 0.51343 -0.04720 -0.10766
 C219 C 0.56055 0.04717 -0.10694
 C220 C 1.19277 0.50667 0.34062
 C221 C 1.17588 0.48778 0.32358
 C222 C 1.17390 0.46889 0.34075
 C223 C 1.18854 0.46889 0.37549
 C224 C 1.20536 0.48780 0.39364
 C225 C 1.20743 0.50671 0.37536
 C226 C 1.16008 0.48777 0.29055
 C227 C 1.14659 0.48779 0.26405
 C228 C 1.13049 0.48786 0.23442
 C229 C 1.11651 0.48795 0.21034
 C230 C 1.09955 0.48813 0.18312
 C231 C 1.09103 0.47610 0.13774
 C232 C 1.07404 0.47577 0.11264
 C233 C 1.06537 0.48745 0.13281
 C234 C 1.07418 0.49967 0.17803
 C235 C 1.09114 0.49999 0.20300
 H236 H 1.19442 0.52138 0.32772
 H237 H 1.16085 0.45418 0.32795
 H238 H 1.18648 0.45407 0.38880
 H239 H 1.22018 0.52153 0.38857
 H240 H 1.09740 0.46684 0.12205
 H241 H 1.06758 0.46624 0.07783
 H242 H 1.06785 0.50886 0.19439
 H243 H 1.09759 0.50933 0.23812
 C244 C 0.53106 0.70509 0.34088
 C245 C 0.51220 0.68824 0.32370
 C246 C 0.49333 0.68622 0.34085
 C247 C 0.49327 0.70078 0.37578
 C248 C 0.51218 0.71762 0.39434
 C249 C 0.53109 0.71970 0.37581
 C250 C 0.51220 0.67248 0.29051
 C251 C 0.51218 0.65898 0.26391
 C252 C 0.51211 0.64285 0.23417
 C253 C 0.51201 0.62878 0.21002
 C254 C 0.51182 0.61164 0.18275
 C255 C 0.49999 0.59138 0.20265
 C256 C 0.50030 0.57473 0.17765
 C257 C 0.51249 0.57814 0.13238
 C258 C 0.52415 0.59850 0.11219
 C259 C 0.52383 0.61516 0.13732
 H260 H 0.54577 0.70677 0.32793
 H261 H 0.47863 0.67319 0.32788
 H262 H 0.47839 0.69860 0.38884
 H263 H 0.54597 0.73241 0.38890
 H264 H 0.49066 0.58847 0.23781
 H265 H 0.49113 0.55921 0.19402
 H266 H 0.53366 0.60157 0.07734
 H267 H 0.53308 0.63079 0.12162
 C268 C 0.31365 -0.19315 0.34029
 C269 C 0.31168 -0.17626 0.32318
 C270 C 0.29481 -0.17425 0.34025
 C271 C 0.28016 -0.18885 0.37504
 C272 C 0.28220 -0.20572 0.39354
 C273 C 0.29904 -0.20780 0.37508
 C274 C 0.32748 -0.16046 0.29016
 C275 C 0.34101 -0.14697 0.26370
 C276 C 0.35719 -0.13087 0.23412
 C277 C 0.37128 -0.11688 0.21009
 C278 C 0.38844 -0.09990 0.18294
 C279 C 0.40867 -0.09150 0.20294
 C280 C 0.42533 -0.07452 0.17804
 C281 C 0.42195 -0.06569 0.13279
 C282 C 0.40162 -0.07436 0.11250
 C283 C 0.38495 -0.09136 0.13753
 H284 H 0.32669 -0.19483 0.32740
 H285 H 0.29316 -0.16119 0.32733
 H286 H 0.26744 -0.18667 0.38805
 H287 H 0.30120 -0.22054 0.38812
 H288 H 0.41154 -0.09796 0.23809
 H289 H 0.44082 -0.06820 0.19449
 H290 H 0.39858 -0.06788 0.07766
 H291 H 0.36934 -0.09772 0.12175
 C292 C 0.82603 0.53121 0.34107
 C293 C 0.82405 0.51233 0.32396
 C294 C 0.80716 0.49344 0.34096
 C295 C 0.79247 0.49340 0.37563
 C296 C 0.79454 0.51230 0.39385
 C297 C 0.81138 0.53122 0.37573
 C298 C 0.83986 0.51234 0.29097
 C299 C 0.85336 0.51232 0.26450
 C300 C 0.86946 0.51226 0.23488
 C301 C 0.88343 0.51216 0.21078
 C302 C 0.90039 0.51199 0.18352
 C303 C 0.90882 0.50016 0.20342
 C304 C 0.92577 0.50047 0.17839
 C305 C 0.93454 0.51267 0.13309
 C306 C 0.92584 0.52433 0.11291
 C307 C 0.90886 0.52400 0.13807
 H308 H 0.83909 0.54593 0.32829
 H309 H 0.80551 0.47873 0.32810
 H310 H 0.77971 0.47857 0.38880
 H311 H 0.81343 0.54603 0.38899
 H312 H 0.90241 0.49083 0.23859
 H313 H 0.93212 0.49130 0.19475
 H314 H 0.93226 0.53384 0.07804
 H315 H 0.90247 0.53325 0.12237
 C316 C 0.50670 0.31390 0.34105
 C317 C 0.48782 0.31192 0.32402
 C318 C 0.46894 0.29503 0.34113
 C319 C 0.46893 0.28035 0.37582
 C320 C 0.48784 0.28241 0.39395
 C321 C 0.50673 0.29925 0.37573
 C322 C 0.48781 0.32773 0.29101
 C323 C 0.48783 0.34126 0.26453
 C324 C 0.48789 0.35742 0.23488
 C325 C 0.48798 0.37150 0.21076
 C326 C 0.48813 0.38863 0.18345
 C327 C 0.49997 0.40890 0.20328
 C328 C 0.49964 0.42553 0.17820
 C329 C 0.48742 0.42210 0.13295
 C330 C 0.47577 0.40173 0.11285
 C331 C 0.47611 0.38508 0.13804
 H332 H 0.52140 0.32696 0.32818
 H333 H 0.45423 0.29338 0.32833
 H334 H 0.45412 0.26759 0.38908
 H335 H 0.52155 0.30130 0.38893
 H336 H 0.50931 0.41182 0.23842
 H337 H 0.50881 0.44105 0.19451
 H338 H 0.46625 0.39865 0.07801
 H339 H 0.46687 0.36945 0.12240
 C340 C 0.70491 0.17383 0.34159
 C341 C 0.68801 0.17581 0.32452
 C342 C 0.68602 0.19271 0.34153
 C343 C 0.70068 0.20741 0.37615
 C344 C 0.71752 0.20535 0.39433
 C345 C 0.71959 0.18850 0.37621
 C346 C 0.67220 0.15999 0.29158
 C347 C 0.65868 0.14648 0.26515
 C348 C 0.64253 0.13037 0.23555
 C349 C 0.62846 0.11638 0.21146
 C350 C 0.61135 0.09941 0.18419
 C351 C 0.59109 0.09096 0.20404
 C352 C 0.57448 0.07400 0.17898
 C353 C 0.57792 0.06524 0.13370
 C354 C 0.59828 0.07396 0.11358
 C355 C 0.61491 0.09095 0.13876
 H356 H 0.70657 0.16077 0.32881
 H357 H 0.67296 0.19436 0.32870
 H358 H 0.69862 0.22018 0.38933
 H359 H 0.73236 0.18645 0.38944
 H360 H 0.58816 0.09737 0.23919
 H361 H 0.55896 0.06763 0.19530
 H362 H 0.60138 0.06754 0.07873
 H363 H 0.63054 0.09735 0.12310
 C364 C 0.46904 0.17408 -0.34075
 C365 C 0.48791 0.17605 -0.32371
 C366 C 0.50677 0.19294 -0.34081
 C367 C 0.50681 0.20761 -0.37555
 C368 C 0.48790 0.20557 -0.39397
 C369 C 0.46899 0.18870 -0.37549
 C370 C 0.48792 0.16025 -0.29070
 C371 C 0.48795 0.14674 -0.26423
 C372 C 0.48803 0.13063 -0.23462
 C373 C 0.48812 0.11664 -0.21055
 C374 C 0.48829 0.09966 -0.18332
 C375 C 0.47625 0.09114 -0.13795
 C376 C 0.47591 0.07413 -0.11284
 C377 C 0.48759 0.06546 -0.13298
 C378 C 0.49982 0.07427 -0.17819
 C379 C 0.50014 0.09125 -0.20318
 H380 H 0.45434 0.16103 -0.32783
 H381 H 0.52148 0.19459 -0.32794
 H382 H 0.52169 0.22033 -0.38858
 H383 H 0.45410 0.18655 -0.38848
 H384 H 0.46699 0.09750 -0.12228
 H385 H 0.46638 0.06767 -0.07803
 H386 H 0.50901 0.06794 -0.19453
 H387 H 0.50950 0.09770 -0.23829
 C388 C 0.70498 0.53107 -0.34121
 C389 C 0.68808 0.51219 -0.32422
 C390 C 0.68611 0.49332 -0.34129
 C391 C 0.70075 0.49329 -0.37597
 C392 C 0.71762 0.51221 -0.39434
 C393 C 0.71966 0.53112 -0.37588
 C394 C 0.67226 0.51218 -0.29127
 C395 C 0.65872 0.51215 -0.26486
 C396 C 0.64255 0.51208 -0.23530
 C397 C 0.62847 0.51199 -0.21126
 C398 C 0.61134 0.51183 -0.18405
 C399 C 0.59109 0.50000 -0.20394
 C400 C 0.57445 0.50033 -0.17896
 C401 C 0.57787 0.51255 -0.13373
 C402 C 0.59821 0.52422 -0.11357
 C403 C 0.61486 0.52387 -0.13867
 H404 H 0.70663 0.54578 -0.32831
 H405 H 0.67306 0.47861 -0.32846
 H406 H 0.69859 0.47840 -0.38898
 H407 H 0.73239 0.54602 -0.38884
 H408 H 0.58818 0.49065 -0.23906
 H409 H 0.55894 0.49116 -0.19531
 H410 H 0.60129 0.53374 -0.07876
 H411 H 0.63048 0.53311 -0.12298
 C412 C 0.80697 0.31375 -0.34074
 C413 C 0.82386 0.31176 -0.32367
 C414 C 0.82585 0.29487 -0.34070
 C415 C 0.81123 0.28020 -0.37541
 C416 C 0.79436 0.28225 -0.39387
 C417 C 0.79231 0.29912 -0.37546
 C418 C 0.83966 0.32757 -0.29068
 C419 C 0.85315 0.34111 -0.26424
 C420 C 0.86925 0.35728 -0.23465
 C421 C 0.88323 0.37136 -0.21061
 C422 C 0.90020 0.38850 -0.18341
 C423 C 0.90862 0.40876 -0.20335
 C424 C 0.92559 0.42541 -0.17839
 C425 C 0.93438 0.42199 -0.13313
 C426 C 0.92570 0.40164 -0.11291
 C427 C 0.90871 0.38498 -0.13799
 H428 H 0.80531 0.32680 -0.32788
 H429 H 0.83889 0.29321 -0.32780
 H430 H 0.81339 0.26746 -0.38839
 H431 H 0.77959 0.30129 -0.38847
 H432 H 0.90218 0.41166 -0.23850
 H433 H 0.93192 0.44092 -0.19479
 H434 H 0.93215 0.39857 -0.07806
 H435 H 0.90233 0.36936 -0.12226
 C436 C 0.53103 -0.17434 -0.34004
 C437 C 0.51215 -0.17631 -0.32301
 C438 C 0.49327 -0.19320 -0.34008
 C439 C 0.49324 -0.20788 -0.37476
 C440 C 0.51215 -0.20581 -0.39292
 C441 C 0.53105 -0.18899 -0.37471
 C442 C 0.51215 -0.16048 -0.29009
 C443 C 0.51213 -0.14696 -0.26371
 C444 C 0.51208 -0.13083 -0.23419
 C445 C 0.51200 -0.11682 -0.21020
 C446 C 0.51186 -0.09982 -0.18306
 C447 C 0.50009 -0.09134 -0.20309
 C448 C 0.50044 -0.07434 -0.17817
 C449 C 0.51262 -0.06558 -0.13286
 C450 C 0.52422 -0.07433 -0.11256
 C451 C 0.52385 -0.09135 -0.13760
 H452 H 0.54573 -0.16128 -0.32721
 H453 H 0.47856 -0.19484 -0.32728
 H454 H 0.47843 -0.22063 -0.38801
 H455 H 0.54586 -0.18694 -0.38793
 H456 H 0.49078 -0.09776 -0.23827
 H457 H 0.49132 -0.06797 -0.19463
 H458 H 0.53371 -0.06790 -0.07768
 H459 H 0.53305 -0.09777 -0.12180
 C460 C 0.31358 0.50675 -0.34082
 C461 C 0.31161 0.48788 -0.32371
 C462 C 0.29472 0.46900 -0.34071
 C463 C 0.28006 0.46895 -0.37546
 C464 C 0.28210 0.48787 -0.39397
 C465 C 0.29896 0.50679 -0.37556
 C466 C 0.32742 0.48789 -0.29073
 C467 C 0.34096 0.48792 -0.26432
 C468 C 0.35714 0.48799 -0.23478
 C469 C 0.37123 0.48808 -0.21077
 C470 C 0.38838 0.48823 -0.18362
 C471 C 0.38488 0.47623 -0.13817
 C472 C 0.40154 0.47588 -0.11313
 C473 C 0.42187 0.48750 -0.13343
 C474 C 0.42526 0.49969 -0.17873
 C475 C 0.40861 0.50003 -0.20365
 H476 H 0.32663 0.52147 -0.32797
 H477 H 0.29307 0.45429 -0.32779
 H478 H 0.26733 0.45406 -0.38843
 H479 H 0.30112 0.52168 -0.38861
 H480 H 0.36928 0.46701 -0.12237
 H481 H 0.39850 0.46637 -0.07825
 H482 H 0.44076 0.50884 -0.19519
 H483 H 0.41150 0.50935 -0.23883
 C484 C 1.19284 0.68610 -0.34117
 C485 C 1.17596 0.68812 -0.32412
 C486 C 1.17399 0.70504 -0.34121
 C487 C 1.18864 0.71970 -0.37591
 C488 C 1.20546 0.71759 -0.39408
 C489 C 1.20751 0.70074 -0.37586
 C490 C 1.16014 0.67232 -0.29114
 C491 C 1.14663 0.65879 -0.26469
 C492 C 1.13052 0.64264 -0.23509
 C493 C 1.11652 0.62857 -0.21103
 C494 C 1.09954 0.61144 -0.18380
 C495 C 1.09107 0.61499 -0.13839
 C496 C 1.07406 0.59834 -0.11327
 C497 C 1.06534 0.57799 -0.13346
 C498 C 1.07411 0.57455 -0.17872
 C499 C 1.09109 0.59118 -0.20371
 H500 H 1.19447 0.67303 -0.32832
 H501 H 1.16095 0.70671 -0.32840
 H502 H 1.18660 0.73247 -0.38917
 H503 H 1.22026 0.69866 -0.38908
 H504 H 1.09747 0.63061 -0.12268
 H505 H 1.06763 0.60143 -0.07843
 H506 H 1.06774 0.55904 -0.19509
 H507 H 1.09751 0.58826 -0.23886
 C508 C 0.82531 0.53095 -0.33763
 C509 C 0.82324 0.51203 -0.32048
 C510 C 0.80632 0.49317 -0.33754
 C511 C 0.79173 0.49320 -0.37240
 C512 C 0.79391 0.51213 -0.39077
 C513 C 0.81074 0.53102 -0.37249
 C514 C 0.83903 0.51196 -0.28765
 C515 C 0.85256 0.51188 -0.26142
 C516 C 0.86870 0.51177 -0.23220
 C517 C 0.88274 0.51165 -0.20850
 C518 C 0.89979 0.51151 -0.18172
 C519 C 0.90823 0.49975 -0.20203
 C520 C 0.92531 0.50015 -0.17751
 C521 C 0.93419 0.51237 -0.13233
 C522 C 0.92549 0.52395 -0.11173
 C523 C 0.90838 0.52353 -0.13637
 H524 H 0.83839 0.54564 -0.32481
 H525 H 0.80462 0.47843 -0.32465
 H526 H 0.77897 0.47839 -0.38570
 H527 H 0.81287 0.54586 -0.38587
 H528 H 0.90172 0.49042 -0.23715
 H529 H 0.93167 0.49104 -0.19417
 H530 H 0.93200 0.53347 -0.07693
 H531 H 0.90199 0.53273 -0.12037
 C532 C 0.50689 0.31332 -0.33748
 C533 C 0.48803 0.31138 -0.32043
 C534 C 0.46913 0.29454 -0.33757
 C535 C 0.46907 0.27990 -0.37241
 C536 C 0.48795 0.28195 -0.39066
 C537 C 0.50687 0.29870 -0.37231
 C538 C 0.48808 0.32724 -0.28762
 C539 C 0.48815 0.34084 -0.26142
 C540 C 0.48825 0.35710 -0.23222
 C541 C 0.48835 0.37126 -0.20854
 C542 C 0.48848 0.38845 -0.18180
 C543 C 0.47648 0.38503 -0.13641
 C544 C 0.47605 0.40172 -0.11180
 C545 C 0.48760 0.42200 -0.13247
 C546 C 0.49979 0.42533 -0.17770
 C547 C 0.50020 0.40864 -0.20219
 H548 H 0.52161 0.32634 -0.32459
 H549 H 0.45444 0.29294 -0.32476
 H550 H 0.45424 0.26720 -0.38577
 H551 H 0.52167 0.30074 -0.38559
 H552 H 0.46732 0.36945 -0.12035
 H553 H 0.46655 0.39872 -0.07697
 H554 H 0.50888 0.44079 -0.19442
 H555 H 0.50952 0.41146 -0.23734
 C556 C 0.68673 0.19355 -0.33698
 C557 C 0.68868 0.17663 -0.31991
 C558 C 0.70551 0.17455 -0.33711
 C559 C 0.72013 0.18912 -0.37201
 C560 C 0.71805 0.20595 -0.39029
 C561 C 0.70132 0.20814 -0.37188
 C562 C 0.67284 0.16083 -0.28703
 C563 C 0.65926 0.14730 -0.26077
 C564 C 0.64302 0.13116 -0.23152
 C565 C 0.62887 0.11711 -0.20781
 C566 C 0.61168 0.10006 -0.18105
 C567 C 0.59150 0.09163 -0.20142
 C568 C 0.57481 0.07454 -0.17691
 C569 C 0.57812 0.06564 -0.13171
 C570 C 0.59840 0.07434 -0.11105
 C571 C 0.61509 0.09145 -0.13567
 H572 H 0.67372 0.19526 -0.32405
 H573 H 0.70712 0.16146 -0.32428
 H574 H 0.73281 0.18698 -0.38542
 H575 H 0.69927 0.22091 -0.38518
 H576 H 0.58868 0.09815 -0.23655
 H577 H 0.55936 0.06819 -0.19362
 H578 H 0.60139 0.06781 -0.07623
 H579 H 0.63066 0.09784 -0.11964
 C580 C 1.19334 0.50687 -0.33789
 C581 C 1.17641 0.48800 -0.32086
 C582 C 1.17436 0.46909 -0.33796
 C583 C 1.18896 0.46903 -0.37273
 C584 C 1.20579 0.48792 -0.39097
 C585 C 1.20795 0.50685 -0.37266
 C586 C 1.16060 0.48806 -0.28807
 C587 C 1.14707 0.48813 -0.26187
 C588 C 1.13093 0.48824 -0.23266
 C589 C 1.11689 0.48834 -0.20894
 C590 C 1.09984 0.48848 -0.18213
 C591 C 1.09138 0.50022 -0.20245
 C592 C 1.07432 0.49983 -0.17786
 C593 C 1.06547 0.48763 -0.13261
 C594 C 1.07421 0.47607 -0.11201
 C595 C 1.09129 0.47648 -0.13671
 H596 H 1.19503 0.52160 -0.32503
 H597 H 1.16128 0.45440 -0.32515
 H598 H 1.18684 0.45419 -0.38606
 H599 H 1.22072 0.52166 -0.38593
 H600 H 1.09786 0.50954 -0.23762
 H601 H 1.06794 0.50893 -0.19453
 H602 H 1.06772 0.46656 -0.07715
 H603 H 1.09770 0.46730 -0.12070
 C604 C 0.49315 0.68645 -0.34041
 C605 C 0.51200 0.68842 -0.32323
 C606 C 0.53089 0.70525 -0.34038
 C607 C 0.53097 0.71986 -0.37539
 C608 C 0.51207 0.71780 -0.39402
 C609 C 0.49315 0.70101 -0.37542
 C610 C 0.51195 0.67261 -0.29017
 C611 C 0.51187 0.65904 -0.26374
 C612 C 0.51175 0.64283 -0.23426
 C613 C 0.51163 0.62870 -0.21033
 C614 C 0.51146 0.61153 -0.18329
 C615 C 0.52347 0.61501 -0.13790
 C616 C 0.52385 0.59834 -0.11300
 C617 C 0.51224 0.57801 -0.13339
 C618 C 0.50004 0.57464 -0.17862
 C619 C 0.49967 0.59130 -0.20340
 H620 H 0.47844 0.67343 -0.32745
 H621 H 0.54558 0.70689 -0.32740
 H622 H 0.54586 0.73254 -0.38851
 H623 H 0.47827 0.69885 -0.38855
 H624 H 0.53268 0.63061 -0.12205
 H625 H 0.53336 0.60137 -0.07817
 H626 H 0.49091 0.55915 -0.19513
 H627 H 0.49034 0.58844 -0.23855
 C628 C 0.31381 -0.19313 -0.33960
 C629 C 0.31187 -0.17620 -0.32254
 C630 C 0.29507 -0.17409 -0.33980
 C631 C 0.28045 -0.18864 -0.37472
 C632 C 0.28250 -0.20548 -0.39296
 C633 C 0.29922 -0.20770 -0.37452
 C634 C 0.32769 -0.16044 -0.28954
 C635 C 0.34125 -0.14697 -0.26315
 C636 C 0.35746 -0.13088 -0.23369
 C637 C 0.37157 -0.11689 -0.20978
 C638 C 0.38872 -0.09990 -0.18274
 C639 C 0.38523 -0.09138 -0.13734
 C640 C 0.40188 -0.07434 -0.11243
 C641 C 0.42220 -0.06562 -0.13283
 C642 C 0.42559 -0.07443 -0.17807
 C643 C 0.40894 -0.09145 -0.20285
 H644 H 0.32680 -0.19487 -0.32662
 H645 H 0.29347 -0.16100 -0.32698
 H646 H 0.26778 -0.18648 -0.38815
 H647 H 0.30125 -0.22048 -0.38779
 H648 H 0.36963 -0.09778 -0.12149
 H649 H 0.39883 -0.06788 -0.07759
 H650 H 0.44107 -0.06807 -0.19458
 H651 H 0.41181 -0.09791 -0.23801
 C652 C 0.53094 -0.17466 0.33866
 C653 C 0.51204 -0.17673 0.32143
 C654 C 0.49318 -0.19367 0.33843
 C655 C 0.49319 -0.20828 0.37327
 C656 C 0.51211 -0.20611 0.39168
 C657 C 0.53099 -0.18926 0.37350
 C658 C 0.51199 -0.16093 0.28854
 C659 C 0.51192 -0.14741 0.26224
 C660 C 0.51180 -0.13128 0.23291
 C661 C 0.51168 -0.11726 0.20911
 C662 C 0.51153 -0.10022 0.18220
 C663 C 0.49973 -0.09180 0.20240
 C664 C 0.50011 -0.07474 0.17775
 C665 C 0.51233 -0.06587 0.13256
 C666 C 0.52394 -0.07456 0.11209
 C667 C 0.52355 -0.09165 0.13685
 H668 H 0.54563 -0.16157 0.32588
 H669 H 0.47846 -0.19538 0.32548
 H670 H 0.47838 -0.22106 0.38649
 H671 H 0.54582 -0.18713 0.38692
 H672 H 0.49040 -0.09831 0.23751
 H673 H 0.49098 -0.06839 0.19432
 H674 H 0.53347 -0.06805 0.07729
 H675 H 0.53276 -0.09803 0.12095
 C676 C 0.31362 0.50681 0.33904
 C677 C 0.31167 0.48793 0.32200
 C678 C 0.29488 0.46903 0.33932
 C679 C 0.28029 0.46898 0.37430
 C680 C 0.28235 0.48788 0.39252
 C681 C 0.29906 0.50680 0.37402
 C682 C 0.32747 0.48798 0.28894
 C683 C 0.34101 0.48805 0.26250
 C684 C 0.35721 0.48818 0.23301
 C685 C 0.37133 0.48830 0.20907
 C686 C 0.38848 0.48848 0.18204
 C687 C 0.38501 0.47646 0.13667
 C688 C 0.40167 0.47608 0.11179
 C689 C 0.42199 0.48771 0.13217
 C690 C 0.42536 0.49993 0.17737
 C691 C 0.40870 0.50029 0.20213
 H692 H 0.32661 0.52153 0.32601
 H693 H 0.29326 0.45433 0.32651
 H694 H 0.26761 0.45415 0.38779
 H695 H 0.30110 0.52162 0.38727
 H696 H 0.36941 0.46723 0.12084
 H697 H 0.39864 0.46656 0.07698
 H698 H 0.44085 0.50907 0.19387
 H699 H 0.41157 0.50962 0.23726
 C700 C 1.17448 0.70541 0.33749
 C701 C 1.17653 0.68856 0.32033
 C702 C 1.19344 0.68659 0.33735
 C703 C 1.20805 0.70120 0.37217
 C704 C 1.20589 0.71796 0.39054
 C705 C 1.18907 0.72004 0.37231
 C706 C 1.16072 0.67271 0.28749
 C707 C 1.14720 0.65913 0.26125
 C708 C 1.13106 0.64289 0.23199
 C709 C 1.11702 0.62875 0.20826
 C710 C 1.09998 0.61157 0.18144
 C711 C 1.09141 0.61502 0.13606
 C712 C 1.07432 0.59834 0.11137
 C713 C 1.06560 0.57804 0.13196
 C714 C 1.07447 0.57469 0.17717
 C715 C 1.09154 0.59136 0.20174
 H716 H 1.16140 0.70703 0.32469
 H717 H 1.19514 0.67356 0.32445
 H718 H 1.22081 0.69915 0.38543
 H719 H 1.18695 0.73275 0.38569
 H720 H 1.09781 0.63061 0.12007
 H721 H 1.06781 0.60135 0.07655
 H722 H 1.06810 0.55922 0.19383
 H723 H 1.09803 0.58852 0.23688
 C724 C 0.50682 0.19306 0.33904
 C725 C 0.48795 0.17616 0.32198
 C726 C 0.46906 0.17407 0.33927
 C727 C 0.46901 0.18862 0.37426
 C728 C 0.48790 0.20544 0.39251
 C729 C 0.50682 0.20763 0.37403
 C730 C 0.48799 0.16040 0.28895
 C731 C 0.48806 0.14691 0.26256
 C732 C 0.48816 0.13080 0.23313
 C733 C 0.48828 0.11679 0.20927
 C734 C 0.48843 0.09978 0.18232
 C735 C 0.50018 0.09131 0.20257
 C736 C 0.49980 0.07426 0.17789
 C737 C 0.48763 0.06545 0.13261
 C738 C 0.47606 0.07419 0.11208
 C739 C 0.47645 0.09126 0.13688
 H740 H 0.52153 0.19478 0.32604
 H741 H 0.45436 0.16100 0.32644
 H742 H 0.45419 0.18648 0.38772
 H743 H 0.52162 0.22039 0.38730
 H744 H 0.50948 0.09776 0.23775
 H745 H 0.50890 0.06788 0.19451
 H746 H 0.46657 0.06773 0.07721
 H747 H 0.46728 0.09768 0.12094
 C748 C 0.70507 0.53112 0.33882
 C749 C 0.68828 0.51222 0.32147
 C750 C 0.68632 0.49334 0.33855
 C751 C 0.70086 0.49333 0.37360
 C752 C 0.71756 0.51225 0.39214
 C753 C 0.71964 0.53116 0.37387
 C754 C 0.67250 0.51219 0.28837
 C755 C 0.65896 0.51212 0.26193
 C756 C 0.64275 0.51201 0.23245
 C757 C 0.62863 0.51189 0.20855
 C758 C 0.61146 0.51172 0.18158
 C759 C 0.61491 0.52372 0.13616
 C760 C 0.59823 0.52409 0.11134
 C761 C 0.57793 0.51249 0.13185
 C762 C 0.57459 0.50030 0.17710
 C763 C 0.59126 0.49993 0.20180
 H764 H 0.70669 0.54583 0.32598
 H765 H 0.67333 0.47862 0.32551
 H766 H 0.69881 0.47852 0.38689
 H767 H 0.73231 0.54598 0.38738
 H768 H 0.63050 0.53292 0.12023
 H769 H 0.60124 0.53360 0.07649
 H770 H 0.55912 0.49118 0.19370
 H771 H 0.58842 0.49061 0.23697
 C772 C 0.82579 0.29491 0.33934
 C773 C 0.82369 0.31172 0.32205
 C774 C 0.80679 0.31368 0.33913
 C775 C 0.79223 0.29911 0.37413
 C776 C 0.79444 0.28239 0.39262
 C777 C 0.81126 0.28031 0.37435
 C778 C 0.83944 0.32753 0.28900
 C779 C 0.85292 0.34109 0.26259
 C780 C 0.86901 0.35730 0.23314
 C781 C 0.88301 0.37142 0.20925
 C782 C 0.90001 0.38858 0.18226
 C783 C 0.90853 0.38510 0.13686
 C784 C 0.92559 0.40177 0.11202
 C785 C 0.93432 0.42208 0.13248
 C786 C 0.92550 0.42546 0.17772
 C787 C 0.90846 0.40880 0.20244
 H788 H 0.83886 0.29328 0.32650
 H789 H 0.80506 0.32668 0.32612
 H790 H 0.77948 0.30116 0.38742
 H791 H 0.81341 0.26763 0.38782
 H792 H 0.90213 0.36951 0.12097
 H793 H 0.93206 0.39874 0.07718
 H794 H 0.93187 0.44095 0.19428
 H795 H 0.90200 0.41166 0.23760
   
