data_POSCAR
  _audit_creation_date              2014-09-24
  _audit_creation_method            'ToBaCCo'
  _symmetry_space_group_name_H-M    'P1'
  _symmetry_Int_Tables_number       1
  _symmetry_cell_setting            triclinic
  loop_
  _symmetry_equiv_pos_as_xyz
 x,y,z
_cell_length_a 20.7061
_cell_length_b 20.2633
_cell_length_c 33.7947
_cell_angle_alpha 88.744800
_cell_angle_beta 93.943300
_cell_angle_gamma 95.158100
loop_
  _atom_site_label
  _atom_site_type_symbol
  _atom_site_fract_x
  _atom_site_fract_y
  _atom_site_fract_z
C1 C -0.00593 0.63558 1.03912
 C2 C 0.00258 0.67434 1.00456
 C3 C 0.01537 0.64756 0.96827
 C4 C 0.01976 0.57798 0.96633
 C5 C 0.01045 0.53718 1.00073
 C6 C -0.00121 0.56593 1.03732
 C7 C -0.01021 0.52359 1.07048
 C8 C -0.00442 0.45598 1.06864
 C9 C 0.00400 0.42559 1.03264
 C10 C 0.01325 0.46717 0.99850
 C11 C 0.03748 0.54838 0.93177
 C12 C 0.03889 0.48037 0.92939
 C13 C 0.02623 0.43902 0.96213
 C14 C 0.02790 0.37012 0.95956
 C15 C 0.01989 0.33015 0.99308
 C16 C 0.00740 0.35565 1.02988
 H17 H -0.02198 0.54144 1.09866
 H18 H -0.00591 0.42848 1.09628
 H19 H 0.05205 0.57705 0.90612
 H20 H 0.05157 0.46052 0.90174
 H21 H -0.00093 0.72730 1.00596
 H22 H 0.02017 0.27707 0.98951
 C23 C 0.36812 0.01877 0.53476
 C24 C 0.33191 0.02790 0.49894
 C25 C 0.36050 0.03000 0.46248
 C26 C 0.42792 0.02234 0.46183
 C27 C 0.46510 0.01197 0.49802
 C28 C 0.43510 0.01024 0.53454
 C29 C 0.47275 -0.00029 0.56994
 C30 C 0.53847 -0.00929 0.56959
 C31 C 0.57010 -0.00585 0.53398
 C32 C 0.53250 0.00328 0.49770
 C33 C 0.45951 0.02570 0.42617
 C34 C 0.52480 0.01474 0.42570
 C35 C 0.56190 0.00288 0.46102
 C36 C 0.62760 -0.01000 0.46069
 C37 C 0.66374 -0.01937 0.49638
 C38 C 0.63730 -0.01539 0.53327
 H39 H 0.45164 -0.00242 0.59840
 H40 H 0.56370 -0.02064 0.59764
 H41 H 0.43437 0.03680 0.39810
 H42 H 0.54605 0.01590 0.39728
 H43 H 0.28012 0.03191 0.49938
 H44 H 0.71514 -0.02456 0.49506
 C45 C 0.10661 0.00678 0.27136
 H46 H 0.11040 -0.00119 0.24009
 C47 C 0.16291 0.01650 0.29657
 H48 H 0.21005 0.01538 0.28468
 C49 C 0.04080 0.01918 0.32490
 H50 H -0.00674 0.02099 0.33586
 C51 C 0.09580 0.03067 0.35093
 H52 H 0.08997 0.03988 0.38187
 N53 N 0.04699 0.00626 0.28604
 C54 C -0.08399 -0.11009 0.20183
 H55 H -0.12568 -0.08166 0.20254
 C56 C -0.08548 -0.16244 0.17561
 H57 H -0.12992 -0.17497 0.15761
 C58 C 0.02328 -0.12791 0.22541
 H59 H 0.06564 -0.11462 0.24494
 C60 C 0.02418 -0.18025 0.19919
 H61 H 0.06780 -0.20538 0.19947
 Zn62 Zn -0.02851 -0.00999 0.25120
 N63 N -0.02915 -0.09193 0.22479
 C64 C -0.02023 0.04326 0.17437
 N65 N -0.02833 0.05924 0.21246
 C66 C -0.03282 0.12324 0.22272
 C67 C -0.03116 0.17381 0.19374
 C68 C -0.01744 0.09199 0.14480
 C69 C -0.10888 -0.06279 0.30842
 C70 C -0.15887 -0.06576 0.33415
 C71 C -0.20039 0.02902 0.29984
 C72 C -0.14931 0.03025 0.27476
 N73 N -0.10363 -0.01390 0.28039
 H74 H -0.01461 -0.00724 0.16678
 H75 H -0.03755 0.13500 0.25339
 H76 H -0.03459 0.22454 0.20221
 H77 H -0.01100 0.07791 0.11469
 H78 H -0.07239 -0.09787 0.31183
 H79 H -0.15982 -0.10318 0.35751
 H80 H -0.23552 0.06536 0.29533
 H81 H -0.14564 0.06731 0.25139
 C82 C -0.02956 -0.19622 0.17217
 C83 C 0.15771 0.02848 0.33690
 C84 C -0.20456 -0.01826 0.33086
 C85 C -0.02291 0.15823 0.15424
 C86 C -0.00774 0.13956 0.76839
 H87 H -0.04376 0.13446 0.74373
 C88 C -0.00538 0.19457 0.79288
 H89 H -0.04001 0.23083 0.78662
 C90 C 0.08129 0.09887 0.80601
 H91 H 0.11493 0.06145 0.81118
 C92 C 0.08535 0.15286 0.83118
 H93 H 0.12118 0.15486 0.85609
 N94 N 0.03419 0.09213 0.77595
 C95 C 0.10952 -0.04458 0.69658
 H96 H 0.07549 -0.08787 0.69951
 C97 C 0.15973 -0.04541 0.67107
 H98 H 0.16315 -0.08965 0.65429
 C99 C 0.14282 0.06684 0.71319
 H100 H 0.13531 0.11091 0.72909
 C101 C 0.19432 0.06782 0.68856
 H102 H 0.22674 0.11256 0.68654
 Zn103 Zn 0.02695 0.01321 0.74598
 N104 N 0.10107 0.01152 0.71623
 C105 C -0.04230 0.00364 0.67117
 N106 N -0.04913 0.00993 0.71062
 C107 C -0.10886 0.01386 0.72458
 C108 C -0.16471 0.00885 0.69865
 C109 C -0.09661 -0.00211 0.64442
 C110 C 0.08017 -0.07500 0.80161
 C111 C 0.08034 -0.12487 0.83074
 C112 C -0.03523 -0.14793 0.81695
 C113 C -0.03323 -0.09747 0.78806
 N114 N 0.02367 -0.06098 0.78160
 H115 H 0.00527 0.00298 0.66015
 H116 H -0.11317 0.02055 0.75593
 H117 H -0.21198 0.01103 0.71018
 H118 H -0.08994 -0.00682 0.61316
 H119 H 0.12528 -0.04707 0.79513
 H120 H 0.12584 -0.13471 0.84654
 H121 H -0.08148 -0.17418 0.82243
 H122 H -0.07758 -0.08689 0.77155
 C123 C 0.20263 0.01168 0.66632
 C124 C 0.04082 0.20113 0.82536
 C125 C 0.02190 -0.16139 0.83927
 C126 C -0.15878 -0.00058 0.65813
 C127 C 0.01394 -0.34116 0.11074
 C128 C -0.01947 -0.33140 0.07385
 C129 C -0.06243 -0.28089 0.07172
 C130 C -0.06661 -0.23890 0.10380
 C131 C -0.02777 -0.24507 0.13960
 C132 C 0.01067 -0.29912 0.14250
 C133 C 0.08141 -0.30339 0.15421
 C134 C 0.08384 -0.35030 0.12010
 H135 H -0.09145 -0.27205 0.04452
 H136 H -0.09751 -0.19881 0.09908
 H137 H 0.08932 -0.32760 0.18377
 H138 H 0.11154 -0.25592 0.14967
 H139 H 0.09153 -0.40183 0.13002
 H140 H 0.11517 -0.32989 0.09649
 C141 C 0.03276 0.25260 0.06375
 C142 C -0.00233 0.30883 0.06135
 C143 C -0.05228 0.31003 0.08799
 C144 C -0.05920 0.26176 0.11871
 C145 C -0.01793 0.20987 0.12265
 C146 C 0.02517 0.20488 0.09315
 C147 C 0.09581 0.19466 0.09651
 C148 C 0.10425 0.24725 0.06405
 H149 H -0.08666 0.34730 0.08492
 H150 H -0.09680 0.26488 0.13916
 H151 H 0.10511 0.14442 0.08698
 H152 H 0.11992 0.21007 0.12569
 H153 H 0.11844 0.22726 0.03585
 H154 H 0.13329 0.29328 0.07433
 C155 C 0.31522 0.07567 0.58740
 C156 C 0.33423 0.01760 0.57194
 C157 C 0.32023 -0.04204 0.59311
 C158 C 0.28076 -0.04384 0.62561
 C159 C 0.25397 0.01397 0.63734
 C160 C 0.27635 0.07390 0.61923
 C161 C 0.24058 0.13028 0.60274
 C162 C 0.28348 0.13233 0.56788
 H163 H 0.33693 -0.08768 0.58325
 H164 H 0.26905 -0.09105 0.64016
 H165 H 0.24970 0.17501 0.62147
 H166 H 0.18852 0.11523 0.59442
 H167 H 0.31740 0.17797 0.56679
 H168 H 0.25581 0.11923 0.53940
 C169 C -0.27036 -0.05985 0.57119
 C170 C -0.31956 -0.01672 0.56754
 C171 C -0.31707 0.03138 0.59783
 C172 C -0.26637 0.03536 0.62859
 C173 C -0.21645 -0.00820 0.62981
 C174 C -0.22230 -0.05613 0.60067
 C175 C -0.19047 -0.11304 0.58601
 C176 C -0.24499 -0.11774 0.55266
 H177 H -0.35148 0.06869 0.59649
 H178 H -0.26456 0.07442 0.65010
 H179 H -0.19268 -0.15598 0.60705
 H180 H -0.14178 -0.09809 0.57514
 H181 H -0.27878 -0.16337 0.55451
 H182 H -0.22672 -0.10636 0.52291
 C183 C -0.00720 -0.32295 0.89761
 C184 C 0.02273 -0.30837 0.93530
 C185 C 0.05751 -0.24521 0.93951
 C186 C 0.05775 -0.19826 0.90817
 C187 C 0.02172 -0.21185 0.87184
 C188 C -0.00823 -0.27628 0.86692
 C189 C -0.07579 -0.30168 0.85267
 C190 C -0.07372 -0.35336 0.88591
 H191 H 0.08417 -0.23159 0.96726
 H192 H 0.08393 -0.15011 0.91306
 H193 H -0.07770 -0.32340 0.82265
 H194 H -0.11260 -0.26627 0.85687
 H195 H -0.07324 -0.40467 0.87504
 H196 H -0.10882 -0.34720 0.90874
 C197 C -0.02350 0.30697 0.90208
 C198 C 0.03287 0.33606 0.92192
 C199 C 0.09313 0.31990 0.91007
 C200 C 0.09615 0.27923 0.87711
 C201 C 0.03885 0.25315 0.85554
 C202 C -0.02075 0.26711 0.86938
 C203 C -0.07689 0.29746 0.84809
 C204 C -0.08013 0.33996 0.88413
 H205 H 0.13765 0.33832 0.92646
 H206 H 0.14339 0.26799 0.86865
 H207 H -0.12001 0.26103 0.84321
 H208 H -0.06288 0.32696 0.82138
 H209 H -0.12455 0.32735 0.90042
 H210 H -0.06840 0.39376 0.87821
 C211 C -0.31223 -0.07077 0.41441
 C212 C -0.33762 -0.01216 0.42409
 C213 C -0.31567 0.04661 0.40434
 C214 C -0.27369 0.04491 0.37332
 C215 C -0.25253 -0.01571 0.36152
 C216 C -0.27131 -0.07257 0.38372
 C217 C -0.30280 -0.13787 0.36983
 C218 C -0.34764 -0.13586 0.40342
 H219 H -0.33026 0.09377 0.41328
 H220 H -0.25706 0.09123 0.35927
 H221 H -0.26933 -0.17778 0.37373
 H222 H -0.32828 -0.13460 0.33988
 H223 H -0.33995 -0.17456 0.42666
 H224 H -0.39926 -0.13142 0.39306
 C225 C 0.31394 -0.00567 0.39461
 C226 C 0.31756 0.03883 0.42596
 C227 C 0.27394 0.08868 0.42334
 C228 C 0.22371 0.08793 0.39296
 C229 C 0.21648 0.03768 0.36434
 C230 C 0.26537 -0.00567 0.36426
 C231 C 0.26021 -0.07949 0.36174
 C232 C 0.31358 -0.07925 0.39504
 H233 H 0.27597 0.12546 0.44627
 H234 H 0.18849 0.12430 0.39317
 H235 H 0.27570 -0.09622 0.33303
 H236 H 0.21251 -0.10289 0.37046
 H237 H 0.35980 -0.09566 0.38547
 H238 H 0.29687 -0.10235 0.42313
   
