data_POSCAR
  _audit_creation_date              2014-09-24
  _audit_creation_method            'ToBaCCo'
  _symmetry_space_group_name_H-M    'P1'
  _symmetry_Int_Tables_number       1
  _symmetry_cell_setting            triclinic
  loop_
  _symmetry_equiv_pos_as_xyz
 x,y,z
_cell_length_a 37.2917
_cell_length_b 37.2917
_cell_length_c 37.2917
_cell_angle_alpha 90.000000
_cell_angle_beta 90.000000
_cell_angle_gamma 90.000000
loop_
  _atom_site_label
  _atom_site_type_symbol
  _atom_site_fract_x
  _atom_site_fract_y
  _atom_site_fract_z
N1 N 0.17796 1.17616 0.17596
 N2 N 0.82444 0.82194 0.17570
 N3 N 0.82655 1.17389 -0.17418
 N4 N 0.17637 0.82571 -0.17466
 C5 C 0.55882 1.05878 -0.01485
 H6 H 0.55098 1.06990 0.01077
 C7 C 0.58978 1.07405 -0.03288
 H8 H 0.60356 1.09630 -0.02035
 C9 C 0.55257 1.01571 -0.05975
 H10 H 0.53959 0.99215 -0.07062
 C11 C 0.58343 1.02989 -0.07823
 H12 H 0.59149 1.01682 -0.10283
 N13 N 0.54003 1.02962 -0.02797
 C14 C 0.43592 1.01150 0.05123
 H15 H 0.43594 0.98251 0.05065
 C16 C 0.40600 1.02943 0.06825
 H17 H 0.38527 1.01325 0.08051
 C18 C 0.46165 1.06633 0.03556
 H19 H 0.48218 1.08178 0.02210
 C20 C 0.43254 1.08519 0.05281
 H21 H 0.43291 1.11417 0.05187
 Zn22 Zn 0.50202 0.99907 0.00356
 N23 N 0.46382 1.02951 0.03477
 C24 C 0.56598 0.98626 0.05486
 N25 N 0.54018 0.96854 0.03496
 C26 C 0.54458 0.93203 0.03229
 C27 C 0.57386 0.91316 0.04921
 C28 C 0.59585 0.96829 0.07207
 C29 C 0.45048 0.98383 -0.05927
 C30 C 0.41953 0.96988 -0.07779
 C31 C 0.41485 0.92368 -0.03435
 C32 C 0.44598 0.93868 -0.01629
 N33 N 0.46397 0.96877 -0.02842
 H34 H 0.56431 1.01514 0.05700
 H35 H 0.52592 0.91695 0.01598
 H36 H 0.57536 0.88455 0.04484
 H37 H 0.61478 0.98427 0.08718
 H38 H 0.46280 1.00809 -0.06934
 H39 H 0.41089 0.98384 -0.10169
 H40 H 0.40175 0.90063 -0.02255
 H41 H 0.45456 0.92653 0.00862
 C42 C 0.40312 1.06739 0.06985
 C43 C 0.60393 1.05951 -0.06523
 C44 C 0.39972 0.93938 -0.06574
 C45 C 0.60107 0.93056 0.07001
 C46 C -0.01314 0.56073 1.05577
 H47 H 0.01477 0.55623 1.06230
 C48 C -0.03104 0.59139 1.07160
 H49 H -0.01604 0.60844 1.08967
 C50 C -0.06450 0.54603 1.02319
 H51 H -0.07822 0.52972 1.00351
 C52 C -0.08307 0.57648 1.03809
 H53 H -0.11045 0.58096 1.02963
 N54 N -0.02946 0.53805 1.03143
 C55 C 0.06707 0.45419 1.02320
 H56 H 0.08085 0.47074 1.00377
 C57 C 0.08568 0.42371 1.03799
 H58 H 0.11315 0.41947 1.02971
 C59 C 0.01554 0.43896 1.05529
 H60 H -0.01243 0.44329 1.06165
 C61 C 0.03346 0.40826 1.07097
 H62 H 0.01841 0.39099 1.08878
 Zn63 Zn 0.00122 0.50002 1.00051
 N64 N 0.03193 0.46192 1.03126
 C65 C 0.06259 0.55301 0.98624
 N66 N 0.03298 0.53797 0.97021
 C67 C 0.02160 0.55458 0.93906
 C68 C 0.03928 0.58584 0.92390
 C69 C 0.08071 0.58407 0.97214
 C70 C -0.06011 0.44700 0.98629
 C71 C -0.07816 0.41588 0.97223
 C72 C -0.03676 0.41417 0.92396
 C73 C -0.01914 0.44547 0.93908
 N74 N -0.03054 0.46208 0.97022
 H75 H 0.07187 0.54186 1.01136
 H76 H -0.00244 0.54475 0.92613
 H77 H 0.02814 0.59783 0.89995
 H78 H 0.10366 0.59391 0.98688
 H79 H -0.06940 0.45815 1.01140
 H80 H -0.10108 0.40598 0.98699
 H81 H -0.02560 0.40218 0.90001
 H82 H 0.00488 0.45533 0.92614
 C83 C 0.06936 0.39886 1.06217
 C84 C -0.06683 0.60103 1.06263
 C85 C -0.06684 0.39746 0.94062
 C86 C 0.06941 0.60249 0.94052
 C87 C 1.06004 -0.01977 0.55484
 H88 H 1.07157 0.00537 0.54608
 C89 C 1.07549 -0.03729 0.58603
 H90 H 1.09828 -0.02489 0.59904
 C91 C 1.01586 -0.06379 0.55063
 H92 H 0.99179 -0.07445 0.53844
 C93 C 1.03024 -0.08177 0.58172
 H94 H 1.01679 -0.10587 0.59063
 N95 N 1.03026 -0.03272 0.53692
 C96 C 1.01195 0.05647 0.44222
 H97 H 0.98510 0.06338 0.45076
 C98 C 1.02639 0.07406 0.41105
 H99 H 1.00994 0.09435 0.39846
 C100 C 1.06370 0.02179 0.44762
 H101 H 1.07857 0.00039 0.46038
 C102 C 1.07922 0.03900 0.41624
 H103 H 1.10530 0.03020 0.40706
 Zn104 Zn 0.99965 -0.00116 0.49891
 N105 N 1.03001 0.03018 0.46069
 C106 C 0.98338 0.06212 0.54980
 N107 N 0.96951 0.03034 0.53721
 C108 C 0.94057 0.01697 0.55615
 C109 C 0.92543 0.03477 0.58731
 C110 C 0.96933 0.08036 0.58087
 C111 C 0.98311 -0.06272 0.44610
 C112 C 0.96848 -0.08033 0.41492
 C113 C 0.92257 -0.03644 0.41213
 C114 C 0.93828 -0.01925 0.44342
 N115 N 0.96854 -0.03210 0.46063
 H116 H 1.00680 0.07315 0.53671
 H117 H 0.92953 -0.00866 0.54824
 H118 H 0.90334 0.02206 0.60119
 H119 H 0.98234 0.10499 0.58897
 H120 H 1.00751 -0.07328 0.45772
 H121 H 0.98215 -0.10405 0.40533
 H122 H 0.89944 -0.02411 0.39968
 H123 H 0.92655 0.00557 0.45280
 C124 C 1.06056 0.06556 0.39600
 C125 C 1.06052 -0.06892 0.60137
 C126 C 0.93772 -0.06758 0.39597
 C127 C 0.93992 0.06712 0.60153
 C128 C 0.12819 0.26428 1.14142
 C129 C 0.14271 0.26688 1.10770
 C130 C 0.16733 0.24139 1.09528
 C131 C 0.17772 0.21231 1.11777
 C132 C 0.16440 0.20747 1.15343
 C133 C 0.13872 0.23484 1.16510
 O134 O 0.10491 0.29170 1.14757
 C135 C 0.10488 0.31187 1.11716
 C136 C 0.12782 0.29765 1.09214
 C137 C 0.13253 0.31415 1.05873
 C138 C 0.11347 0.34621 1.05041
 C139 C 0.08899 0.36302 1.07465
 C140 C 0.08471 0.34451 1.10899
 H141 H 0.17841 0.24369 1.06856
 H142 H 0.19652 0.19314 1.10679
 H143 H 0.12756 0.23364 1.19184
 H144 H 0.15063 0.30258 1.03922
 H145 H 0.11764 0.35764 1.02408
 H146 H 0.06668 0.35540 1.12893
 C147 C -0.12617 0.73526 1.14226
 C148 C -0.13993 0.73311 1.10822
 C149 C -0.16407 0.75885 1.09555
 C150 C -0.17478 0.78775 1.11806
 C151 C -0.16234 0.79241 1.15427
 C152 C -0.13702 0.76451 1.16605
 O153 O -0.10327 0.70755 1.14861
 C154 C -0.10271 0.68771 1.11797
 C155 C -0.12498 0.70240 1.09263
 C156 C -0.12913 0.68633 1.05894
 C157 C -0.11020 0.65420 1.05064
 C158 C -0.08636 0.63691 1.07517
 C159 C -0.08265 0.65498 1.10983
 H160 H -0.17449 0.75694 1.06853
 H161 H -0.19283 0.80726 1.10642
 H162 H -0.12680 0.76472 1.19318
 H163 H -0.14673 0.69828 1.03920
 H164 H -0.11393 0.64309 1.02411
 H165 H -0.06514 0.64369 1.13001
 C166 C -0.12957 0.26525 0.85972
 C167 C -0.13448 0.26171 0.89601
 C168 C -0.15150 0.23133 0.91026
 C169 C -0.16395 0.20359 0.88702
 C170 C -0.16045 0.20508 0.84887
 C171 C -0.14244 0.23733 0.83539
 O172 O -0.11214 0.29639 0.85201
 C173 C -0.10605 0.31275 0.88406
 C174 C -0.11941 0.29242 0.91170
 C175 C -0.11629 0.30402 0.94728
 C176 C -0.09934 0.33737 0.95515
 C177 C -0.08475 0.36054 0.92826
 C178 C -0.08823 0.34695 0.89157
 H179 H -0.15485 0.22871 0.93897
 H180 H -0.17591 0.18022 0.89932
 H181 H -0.13844 0.24058 0.80684
 H182 H -0.12673 0.28764 0.96885
 H183 H -0.09715 0.34475 0.98310
 H184 H -0.07788 0.36268 0.86951
 C185 C 0.13231 0.73450 0.85940
 C186 C 0.13744 0.73798 0.89567
 C187 C 0.15468 0.76827 0.90986
 C188 C 0.16713 0.79597 0.88657
 C189 C 0.16341 0.79454 0.84844
 C190 C 0.14516 0.76239 0.83503
 O191 O 0.11470 0.70344 0.85176
 C192 C 0.10871 0.68708 0.88382
 C193 C 0.12231 0.70733 0.91141
 C194 C 0.11932 0.69572 0.94700
 C195 C 0.10225 0.66244 0.95493
 C196 C 0.08743 0.63935 0.92810
 C197 C 0.09078 0.65295 0.89141
 H198 H 0.15820 0.77085 0.93855
 H199 H 0.17926 0.81928 0.89883
 H200 H 0.14097 0.75920 0.80651
 H201 H 0.12994 0.71203 0.96853
 H202 H 0.10016 0.65506 0.98289
 H203 H 0.08025 0.63729 0.86938
 C204 C 1.14366 0.12952 0.26560
 C205 C 1.10735 0.13016 0.25952
 C206 C 1.09338 0.14422 0.22757
 C207 C 1.11691 0.15840 0.20097
 C208 C 1.15495 0.15946 0.20513
 C209 C 1.16830 0.14391 0.23863
 O210 O 1.15100 0.11469 0.29817
 C211 C 1.11871 0.10590 0.31279
 C212 C 1.09130 0.11498 0.28995
 C213 C 1.05553 0.10854 0.29934
 C214 C 1.04715 0.09261 0.33304
 C215 C 1.07369 0.08250 0.35886
 C216 C 1.11070 0.08930 0.34751
 H217 H 1.06471 0.14428 0.22303
 H218 H 1.10504 0.16854 0.17653
 H219 H 1.19683 0.14351 0.24383
 H220 H 1.03420 0.11559 0.28096
 H221 H 1.01914 0.08765 0.33858
 H222 H 1.13255 0.08241 0.36530
 C223 C 1.14202 -0.13020 0.73406
 C224 C 1.10593 -0.13677 0.73688
 C225 C 1.09196 -0.15483 0.76678
 C226 C 1.11527 -0.16665 0.79476
 C227 C 1.15328 -0.16155 0.79400
 C228 C 1.16646 -0.14249 0.76220
 O229 O 1.14944 -0.11193 0.70332
 C230 C 1.11742 -0.10700 0.68648
 C231 C 1.09008 -0.12195 0.70610
 C232 C 1.05460 -0.12035 0.69384
 C233 C 1.04653 -0.10328 0.66057
 C234 C 1.07309 -0.08696 0.63820
 C235 C 1.10966 -0.08894 0.65244
 H236 H 1.06339 -0.15946 0.76887
 H237 H 1.10305 -0.17943 0.81772
 H238 H 1.19486 -0.13729 0.75942
 H239 H 1.03326 -0.13209 0.70962
 H240 H 1.01867 -0.10238 0.65260
 H241 H 1.13148 -0.07727 0.63731
 C242 C 0.85651 -0.12923 0.26292
 C243 C 0.89284 -0.13406 0.25966
 C244 C 0.90737 -0.15099 0.22949
 C245 C 0.88440 -0.16418 0.20197
 C246 C 0.84602 -0.16195 0.20338
 C247 C 0.83229 -0.14262 0.23490
 O248 O 0.84873 -0.11185 0.29414
 C249 C 0.88077 -0.10578 0.31070
 C250 C 0.90844 -0.11910 0.29043
 C251 C 0.94400 -0.11634 0.30220
 C252 C 0.95189 -0.09974 0.33572
 C253 C 0.92507 -0.08507 0.35887
 C254 C 0.88834 -0.08819 0.34509
 H255 H 0.93613 -0.15387 0.22692
 H256 H 0.89735 -0.17563 0.17871
 H257 H 0.80369 -0.13910 0.23822
 H258 H 0.96555 -0.12689 0.28587
 H259 H 0.97982 -0.09792 0.34331
 H260 H 0.86631 -0.07782 0.36085
 C261 C 0.86001 0.12938 0.73452
 C262 C 0.89608 0.13630 0.73674
 C263 C 0.91032 0.15480 0.76624
 C264 C 0.88731 0.16668 0.79444
 C265 C 0.84934 0.16123 0.79426
 C266 C 0.83588 0.14178 0.76283
 O267 O 0.85230 0.11065 0.70415
 C268 C 0.88410 0.10579 0.68692
 C269 C 0.91160 0.12125 0.70592
 C270 C 0.94689 0.11986 0.69311
 C271 C 0.95459 0.10245 0.65993
 C272 C 0.92782 0.08555 0.63826
 C273 C 0.89148 0.08735 0.65304
 H274 H 0.93888 0.15970 0.76787
 H275 H 0.89975 0.17976 0.81712
 H276 H 0.80749 0.13631 0.76048
 H277 H 0.96836 0.13203 0.70838
 H278 H 0.98231 0.10175 0.65145
 H279 H 0.86955 0.07526 0.63841
 C280 C 0.26009 1.12187 0.13631
 C281 C 0.28727 1.14579 0.14311
 C282 C 0.28057 1.17774 0.16187
 C283 C 0.24511 1.18589 0.17375
 C284 C 0.21535 1.16271 0.16767
 C285 C 0.22361 1.12970 0.14826
 O286 O 0.27250 1.09318 0.11751
 C287 C 0.30811 1.09917 0.11238
 C288 C 0.31824 1.13119 0.12748
 C289 C 0.35374 1.14325 0.12489
 C290 C 0.37982 1.12222 0.10639
 C291 C 0.37184 1.08851 0.08995
 C292 C 0.33451 1.07701 0.09369
 H293 H 0.30217 1.19648 0.16685
 H294 H 0.24056 1.21121 0.18718
 H295 H 0.20218 1.11130 0.14167
 H296 H 0.36141 1.16854 0.13688
 H297 H 0.40694 1.13245 0.10551
 H298 H 0.32608 1.05187 0.08193
 C299 C 0.73596 1.13997 -0.12872
 C300 C 0.73842 1.10387 -0.13540
 C301 C 0.76793 1.08972 -0.15396
 C302 C 0.79586 1.11287 -0.16619
 C303 C 0.79534 1.15088 -0.16111
 C304 C 0.76401 1.16423 -0.14145
 O305 O 0.70565 1.14759 -0.10986
 C306 C 0.68869 1.11569 -0.10470
 C307 C 0.70781 1.08823 -0.12007
 C308 C 0.69528 1.05285 -0.11837
 C309 C 0.66226 1.04503 -0.10073
 C310 C 0.64048 1.07175 -0.08391
 C311 C 0.65497 1.10818 -0.08602
 H312 H 0.76978 1.06113 -0.15862
 H313 H 0.81861 1.10052 -0.17924
 H314 H 0.76153 1.19263 -0.13611
 H315 H 0.71065 1.03141 -0.13048
 H316 H 0.65399 1.01725 -0.09979
 H317 H 0.64024 1.13009 -0.07401
 C318 C 0.26730 0.85929 -0.12943
 C319 C 0.26489 0.89542 -0.13597
 C320 C 0.23539 0.90966 -0.15450
 C321 C 0.20740 0.88661 -0.16681
 C322 C 0.20777 0.84859 -0.16174
 C323 C 0.23913 0.83513 -0.14216
 O324 O 0.29766 0.85155 -0.11068
 C325 C 0.31470 0.88339 -0.10540
 C326 C 0.29557 0.91095 -0.12059
 C327 C 0.30809 0.94631 -0.11863
 C328 C 0.34113 0.95403 -0.10095
 C329 C 0.36305 0.92722 -0.08441
 C330 C 0.34852 0.89078 -0.08677
 H331 H 0.23362 0.93826 -0.15911
 H332 H 0.18470 0.89903 -0.17989
 H333 H 0.24154 0.80672 -0.13687
 H334 H 0.29269 0.96784 -0.13052
 H335 H 0.34926 0.98184 -0.09976
 H336 H 0.36327 0.86878 -0.07496
 C337 C 0.74260 0.87696 0.14165
 C338 C 0.71760 0.84995 0.14010
 C339 C 0.72572 0.81538 0.15226
 C340 C 0.76058 0.80760 0.16570
 C341 C 0.78862 0.83371 0.16811
 C342 C 0.77850 0.86975 0.15608
 O343 O 0.72897 0.90775 0.12746
 C344 C 0.69486 0.89988 0.11696
 C345 C 0.68691 0.86472 0.12425
 C346 C 0.65336 0.85031 0.11547
 C347 C 0.62693 0.87217 0.09862
 C348 C 0.63263 0.90901 0.08955
 C349 C 0.66804 0.92285 0.09969
 H350 H 0.70580 0.79434 0.15067
 H351 H 0.76614 0.78026 0.17375
 H352 H 0.79839 0.89086 0.15593
 H353 H 0.64743 0.82256 0.12156
 H354 H 0.60129 0.85981 0.09317
 H355 H 0.67475 0.95046 0.09389
   
