data_POSCAR
  _audit_creation_date              2014-09-24
  _audit_creation_method            'ToBaCCo'
  _symmetry_space_group_name_H-M    'P1'
  _symmetry_Int_Tables_number       1
  _symmetry_cell_setting            triclinic
  loop_
  _symmetry_equiv_pos_as_xyz
 x,y,z
_cell_length_a 50.0851
_cell_length_b 50.2639
_cell_length_c 50.3217
_cell_angle_alpha 89.879900
_cell_angle_beta 90.075500
_cell_angle_gamma 89.875900
loop_
  _atom_site_label
  _atom_site_type_symbol
  _atom_site_fract_x
  _atom_site_fract_y
  _atom_site_fract_z
N1 N 0.27402 0.22342 0.19970
 N2 N 0.26266 0.24447 0.18905
 C3 C 0.27726 0.25249 0.16805
 C4 C 0.29893 0.23549 0.16532
 C5 C 0.29613 0.21728 0.18584
 H6 H 0.27252 0.26952 0.15578
 H7 H 0.30947 0.20108 0.19076
 Cu8 Cu 0.23032 0.25990 0.20403
 Cu9 Cu 0.25990 0.20604 0.23126
 Cu10 Cu 0.20345 0.23382 0.25964
 N11 N 0.19923 0.27575 0.22104
 N12 N 0.18881 0.26547 0.24266
 C13 C 0.16803 0.28057 0.25045
 C14 C 0.16521 0.30160 0.23278
 C15 C 0.18544 0.29781 0.21435
 H16 H 0.15625 0.27676 0.26801
 H17 H 0.18996 0.31026 0.19744
 N18 N 0.22114 0.20180 0.27397
 N19 N 0.24270 0.19128 0.26320
 C20 C 0.25045 0.17018 0.27786
 C21 C 0.23294 0.16721 0.29895
 C22 C 0.21459 0.18764 0.29575
 H23 H 0.26767 0.15797 0.27355
 H24 H 0.19803 0.19226 0.30869
 H25 H 0.22065 0.21768 0.22603
 H26 H 0.24215 0.23992 0.24666
 N27 N 0.72016 -0.22395 0.20001
 N28 N 0.73254 -0.24407 0.18884
 C29 C 0.71880 -0.25160 0.16710
 C30 C 0.69645 -0.23531 0.16442
 C31 C 0.69818 -0.21795 0.18582
 H32 H 0.72458 -0.26793 0.15444
 H33 H 0.68441 -0.20226 0.19107
 Cu34 Cu 0.76502 -0.25910 0.20417
 Cu35 Cu 0.73303 -0.20735 0.23245
 Cu36 Cu 0.78963 -0.23442 0.26140
 N37 N 0.79616 -0.27470 0.22155
 N38 N 0.80560 -0.26502 0.24387
 C39 C 0.82658 -0.27980 0.25183
 C40 C 0.83067 -0.30007 0.23351
 C41 C 0.81085 -0.29602 0.21452
 H42 H 0.83770 -0.27609 0.26984
 H43 H 0.80707 -0.30783 0.19703
 N44 N 0.77068 -0.20344 0.27622
 N45 N 0.74902 -0.19320 0.26529
 C46 C 0.74047 -0.17271 0.28028
 C47 C 0.75760 -0.16981 0.30171
 C48 C 0.77651 -0.18969 0.29842
 H49 H 0.72307 -0.16074 0.27588
 H50 H 0.79304 -0.19416 0.31150
 H51 H 0.77280 -0.21745 0.22779
 H52 H 0.75153 -0.24119 0.24703
 N53 N 0.72116 0.22532 0.79625
 N54 N 0.73245 0.24687 0.80574
 C55 C 0.71923 0.25461 0.82772
 C56 C 0.69851 0.23693 0.83231
 C57 C 0.70045 0.21858 0.81186
 H58 H 0.72423 0.27191 0.83939
 H59 H 0.68742 0.20187 0.80818
 Cu60 Cu 0.76291 0.26302 0.78801
 Cu61 Cu 0.73355 0.20809 0.76385
 Cu62 Cu 0.78778 0.23674 0.73197
 N63 N 0.79338 0.27888 0.76999
 N64 N 0.80298 0.26851 0.74806
 C65 C 0.82366 0.28331 0.73958
 C66 C 0.82738 0.30429 0.75715
 C67 C 0.80765 0.30066 0.77625
 H68 H 0.83497 0.27899 0.72184
 H69 H 0.80375 0.31295 0.79339
 N70 N 0.76968 0.20454 0.71877
 N71 N 0.74903 0.19364 0.73085
 C72 C 0.74103 0.17227 0.71684
 C73 C 0.75744 0.16949 0.69488
 C74 C 0.77537 0.19035 0.69683
 H75 H 0.72451 0.15960 0.72227
 H76 H 0.79115 0.19512 0.68303
 H77 H 0.77271 0.22059 0.76663
 H78 H 0.74956 0.24175 0.74656
 N79 N 0.27392 -0.22553 0.79576
 N80 N 0.26372 -0.24795 0.80450
 C81 C 0.27782 -0.25625 0.82578
 C82 C 0.29799 -0.23805 0.83069
 C83 C 0.29480 -0.21878 0.81119
 H84 H 0.27380 -0.27428 0.83678
 H85 H 0.30713 -0.20146 0.80798
 Cu86 Cu 0.23342 -0.26436 0.78671
 Cu87 Cu 0.26005 -0.20728 0.76445
 Cu88 Cu 0.20572 -0.23595 0.73277
 N89 N 0.20263 -0.28002 0.76909
 N90 N 0.19190 -0.26886 0.74800
 C91 C 0.17129 -0.28382 0.73961
 C92 C 0.16885 -0.30575 0.75632
 C93 C 0.18920 -0.30247 0.77485
 H94 H 0.15921 -0.27903 0.72245
 H95 H 0.19413 -0.31548 0.79124
 N96 N 0.22256 -0.20268 0.72046
 N97 N 0.24324 -0.19180 0.73250
 C98 C 0.25055 -0.16983 0.71902
 C99 C 0.23370 -0.16665 0.69738
 C100 C 0.21617 -0.18787 0.69904
 H101 H 0.26707 -0.15717 0.72447
 H102 H 0.20029 -0.19257 0.68528
 H103 H 0.22140 -0.22133 0.76776
 H104 H 0.24453 -0.24055 0.74595
 N105 N 0.72217 -0.22820 0.79701
 N106 N 0.73432 -0.24855 0.80813
 C107 C 0.71933 -0.25755 0.82843
 C108 C 0.69653 -0.24196 0.83020
 C109 C 0.69911 -0.22351 0.80986
 H110 H 0.72462 -0.27427 0.84092
 H111 H 0.68513 -0.20802 0.80447
 Cu112 Cu 0.76818 -0.26198 0.79481
 Cu113 Cu 0.73678 -0.20965 0.76643
 Cu114 Cu 0.79550 -0.23442 0.74002
 N115 N 0.80027 -0.27635 0.77846
 N116 N 0.81081 -0.26563 0.75712
 C117 C 0.83219 -0.28004 0.74969
 C118 C 0.83531 -0.30118 0.76728
 C119 C 0.81456 -0.29800 0.78533
 H120 H 0.84419 -0.27554 0.73245
 H121 H 0.80976 -0.31071 0.80197
 N122 N 0.77704 -0.20296 0.72551
 N123 N 0.75463 -0.19355 0.73555
 C124 C 0.74664 -0.17247 0.72099
 C125 C 0.76490 -0.16836 0.70075
 C126 C 0.78392 -0.18810 0.70432
 H127 H 0.72877 -0.16104 0.72480
 H128 H 0.80120 -0.19178 0.69204
 H129 H 0.75680 -0.24261 0.75180
 H130 H 0.77641 -0.21926 0.77309
 N131 N 0.28313 0.23044 0.79583
 N132 N 0.27051 0.25068 0.80655
 C133 C 0.28442 0.25921 0.82781
 C134 C 0.30697 0.24340 0.83061
 C135 C 0.30541 0.22535 0.80989
 H136 H 0.27851 0.27559 0.84038
 H137 H 0.31961 0.20988 0.80509
 Cu138 Cu 0.23733 0.26400 0.79138
 Cu139 Cu 0.26999 0.21223 0.76430
 Cu140 Cu 0.21073 0.23554 0.73713
 N141 N 0.20417 0.27696 0.77586
 N142 N 0.19392 0.26575 0.75463
 C143 C 0.17172 0.27904 0.74740
 C144 C 0.16776 0.29981 0.76503
 C145 C 0.18878 0.29779 0.78289
 H146 H 0.15959 0.27408 0.73036
 H147 H 0.19302 0.31097 0.79929
 N148 N 0.23073 0.20522 0.72233
 N149 N 0.25341 0.19647 0.73248
 C150 C 0.26232 0.17600 0.71768
 C151 C 0.24434 0.17156 0.69722
 C152 C 0.22458 0.19051 0.70086
 H153 H 0.28049 0.16503 0.72157
 H154 H 0.20720 0.19366 0.68852
 H155 H 0.24935 0.24435 0.74875
 H156 H 0.23019 0.22096 0.77035
 N157 N 0.28267 -0.22955 0.20830
 N158 N 0.27038 -0.25030 0.19829
 C159 C 0.28411 -0.25907 0.17703
 C160 C 0.30618 -0.24287 0.17343
 C161 C 0.30455 -0.22434 0.19372
 H162 H 0.27842 -0.27594 0.16504
 H163 H 0.31842 -0.20845 0.19790
 Cu164 Cu 0.23779 -0.26409 0.21410
 Cu165 Cu 0.26973 -0.21106 0.23970
 Cu166 Cu 0.21273 -0.23613 0.26948
 N167 N 0.20630 -0.27826 0.23168
 N168 N 0.19668 -0.26738 0.25337
 C169 C 0.17538 -0.28141 0.26161
 C170 C 0.17134 -0.30227 0.24412
 C171 C 0.19140 -0.29960 0.22537
 H172 H 0.16372 -0.27673 0.27905
 H173 H 0.19525 -0.31256 0.20870
 N174 N 0.23179 -0.20466 0.28285
 N175 N 0.25355 -0.19514 0.27161
 C176 C 0.26200 -0.17392 0.28558
 C177 C 0.24468 -0.16981 0.30662
 C178 C 0.22579 -0.18973 0.30420
 H179 H 0.27944 -0.16226 0.28075
 H180 H 0.20914 -0.19339 0.31732
 H181 H 0.25105 -0.24387 0.25608
 H182 H 0.23003 -0.22115 0.23531
 N183 N 0.72421 0.22693 0.20654
 N184 N 0.73532 0.24860 0.19706
 C185 C 0.72068 0.25762 0.17645
 C186 C 0.69924 0.24064 0.17274
 C187 C 0.70221 0.22136 0.19225
 H188 H 0.72526 0.27526 0.16504
 H189 H 0.68907 0.20479 0.19619
 Cu190 Cu 0.76751 0.26331 0.21284
 Cu191 Cu 0.73854 0.20801 0.23716
 Cu192 Cu 0.79487 0.23456 0.26695
 N193 N 0.79860 0.27828 0.23042
 N194 N 0.80920 0.26704 0.25154
 C195 C 0.83003 0.28172 0.25985
 C196 C 0.83269 0.30340 0.24302
 C197 C 0.81234 0.30051 0.22458
 H198 H 0.84231 0.27691 0.27688
 H199 H 0.80752 0.31388 0.20843
 N200 N 0.77745 0.20181 0.27962
 N201 N 0.75597 0.19175 0.26832
 C202 C 0.74842 0.16994 0.28193
 C203 C 0.76599 0.16602 0.30286
 C204 C 0.78416 0.18665 0.30069
 H205 H 0.73126 0.15791 0.27704
 H206 H 0.80068 0.19072 0.31387
 H207 H 0.75604 0.24106 0.25435
 H208 H 0.77769 0.22008 0.23256
 C209 C 0.24974 -0.01072 0.50073
 C210 C 0.24972 0.01633 0.49988
 C211 C 0.24807 0.03120 0.47439
 C212 C 0.25037 0.03263 0.52444
 C213 C 0.24846 -0.02559 0.52621
 C214 C 0.25019 -0.02707 0.47620
 C215 C 0.26741 0.05048 0.46842
 C216 C 0.26536 0.06568 0.44524
 C217 C 0.24384 0.06194 0.42787
 C218 C 0.22448 0.04272 0.43367
 C219 C 0.22653 0.02745 0.45686
 C220 C 0.27087 0.02959 0.54334
 C221 C 0.27129 0.04552 0.56612
 C222 C 0.25136 0.06469 0.57006
 C223 C 0.23103 0.06787 0.55122
 C224 C 0.23058 0.05200 0.52852
 C225 C 0.22689 -0.02219 0.54373
 C226 C 0.22504 -0.03774 0.56675
 C227 C 0.24466 -0.05684 0.57239
 C228 C 0.26631 -0.06009 0.55513
 C229 C 0.26815 -0.04464 0.53211
 C230 C 0.23033 -0.04633 0.47226
 C231 C 0.23075 -0.06244 0.44972
 C232 C 0.25113 -0.05964 0.43094
 C233 C 0.27108 -0.04053 0.43472
 C234 C 0.27067 -0.02432 0.45730
 H235 H 0.28401 0.05382 0.48181
 H236 H 0.28037 0.08058 0.44102
 H237 H 0.20762 0.03983 0.42049
 H238 H 0.21110 0.01309 0.46141
 H239 H 0.28658 0.01508 0.54033
 H240 H 0.28720 0.04300 0.58052
 H241 H 0.21468 0.05473 0.51414
 H242 H 0.21124 -0.00796 0.53926
 H243 H 0.20809 -0.03522 0.57987
 H244 H 0.28155 -0.07487 0.55925
 H245 H 0.28481 -0.04765 0.51875
 H246 H 0.21443 -0.04881 0.48662
 H247 H 0.21526 -0.07720 0.44702
 H248 H 0.28702 -0.03832 0.42036
 H249 H 0.28640 -0.00987 0.46021
 H250 H 0.21556 0.08270 0.55404
 C251 C 0.75049 -0.01620 0.50085
 C252 C 0.75069 0.01088 0.49997
 C253 C 0.75195 0.02569 0.47445
 C254 C 0.75057 0.02735 0.52447
 C255 C 0.75177 -0.03105 0.52638
 C256 C 0.75004 -0.03258 0.47629
 C257 C 0.77317 0.02179 0.45662
 C258 C 0.77494 0.03715 0.43348
 C259 C 0.75564 0.05664 0.42808
 C260 C 0.73439 0.06047 0.44571
 C261 C 0.73260 0.04515 0.46881
 C262 C 0.77055 0.04657 0.52809
 C263 C 0.77044 0.06284 0.55053
 C264 C 0.75030 0.06021 0.56958
 C265 C 0.73023 0.04114 0.56613
 C266 C 0.73030 0.02481 0.54362
 C267 C 0.73240 -0.05039 0.53202
 C268 C 0.73410 -0.06560 0.55522
 C269 C 0.75529 -0.06176 0.57296
 C270 C 0.77467 -0.04247 0.56752
 C271 C 0.77299 -0.02723 0.54428
 C272 C 0.72979 -0.02956 0.45713
 C273 C 0.72963 -0.04554 0.43436
 C274 C 0.74958 -0.06476 0.43067
 C275 C 0.76966 -0.06792 0.44978
 C276 C 0.76987 -0.05199 0.47246
 H277 H 0.78859 0.00726 0.46090
 H278 H 0.79157 0.03416 0.42006
 H279 H 0.71942 0.07558 0.44179
 H280 H 0.71623 0.04859 0.48244
 H281 H 0.78628 0.04893 0.51353
 H282 H 0.78600 0.07759 0.55295
 H283 H 0.71446 0.01043 0.54096
 H284 H 0.71603 -0.05379 0.51835
 H285 H 0.71909 -0.08057 0.55917
 H286 H 0.79127 -0.03949 0.58101
 H287 H 0.78845 -0.01281 0.54001
 H288 H 0.71408 -0.01499 0.45989
 H289 H 0.71393 -0.04300 0.41974
 H290 H 0.78517 -0.08275 0.44717
 H291 H 0.78562 -0.05466 0.48700
 H292 H 0.71445 0.03906 0.58069
 C293 C 0.50269 0.25220 -0.01066
 C294 C 0.50153 0.25186 0.01636
 C295 C 0.47574 0.25049 0.03085
 C296 C 0.52602 0.25187 0.03303
 C297 C 0.52844 0.25113 -0.02522
 C298 C 0.47822 0.25253 -0.02735
 C299 C 0.46988 0.26962 0.05029
 C300 C 0.44644 0.26784 0.06518
 C301 C 0.42867 0.24682 0.06094
 C302 C 0.43432 0.22769 0.04153
 C303 C 0.45780 0.22945 0.02660
 C304 C 0.54528 0.27205 0.03068
 C305 C 0.56800 0.27180 0.04692
 C306 C 0.57152 0.25148 0.06572
 C307 C 0.55232 0.23148 0.06822
 C308 C 0.52968 0.23170 0.05204
 C309 C 0.54633 0.22982 -0.02158
 C310 C 0.56947 0.22805 -0.03703
 C311 C 0.57485 0.24745 -0.05631
 C312 C 0.55723 0.26884 -0.05979
 C313 C 0.53413 0.27063 -0.04439
 C314 C 0.47469 0.23271 -0.04664
 C315 C 0.45215 0.23284 -0.06295
 C316 C 0.43292 0.25288 -0.06032
 C317 C 0.43631 0.27284 -0.04122
 C318 C 0.45892 0.27273 -0.02483
 H319 H 0.48358 0.28585 0.05400
 H320 H 0.44234 0.28267 0.08024
 H321 H 0.42081 0.21122 0.03824
 H322 H 0.46222 0.21417 0.01210
 H323 H 0.54261 0.28803 0.01644
 H324 H 0.58270 0.28745 0.04492
 H325 H 0.51504 0.21601 0.05422
 H326 H 0.54202 0.21429 -0.00728
 H327 H 0.58287 0.21132 -0.03431
 H328 H 0.56112 0.28388 -0.07474
 H329 H 0.52049 0.28708 -0.04761
 H330 H 0.48939 0.21704 -0.04898
 H331 H 0.44976 0.21734 -0.07769
 H332 H 0.42159 0.28853 -0.03913
 H333 H 0.46151 0.28846 -0.01038
 H334 H 0.55482 0.21571 0.08273
 C335 C 0.49736 0.74705 -0.01568
 C336 C 0.49863 0.74744 0.01134
 C337 C 0.52447 0.74883 0.02582
 C338 C 0.47423 0.74745 0.02810
 C339 C 0.47153 0.74799 -0.03023
 C340 C 0.52180 0.74675 -0.03236
 C341 C 0.53033 0.72974 0.04540
 C342 C 0.55364 0.73169 0.06052
 C343 C 0.57129 0.75283 0.05639
 C344 C 0.56569 0.77190 0.03680
 C345 C 0.54233 0.76996 0.02162
 C346 C 0.45497 0.72724 0.02600
 C347 C 0.43257 0.72733 0.04263
 C348 C 0.42938 0.74749 0.06155
 C349 C 0.44855 0.76756 0.06374
 C350 C 0.47086 0.76751 0.04718
 C351 C 0.45350 0.76914 -0.02658
 C352 C 0.43017 0.77068 -0.04183
 C353 C 0.42473 0.75121 -0.06096
 C354 C 0.44255 0.73004 -0.06455
 C355 C 0.46585 0.72848 -0.04934
 C356 C 0.52525 0.76655 -0.05177
 C357 C 0.54787 0.76654 -0.06792
 C358 C 0.56724 0.74665 -0.06500
 C359 C 0.56389 0.72668 -0.04584
 C360 C 0.54120 0.72666 -0.02962
 H361 H 0.51667 0.71348 0.04914
 H362 H 0.55767 0.71694 0.07575
 H363 H 0.57908 0.78849 0.03362
 H364 H 0.53789 0.78522 0.00704
 H365 H 0.45744 0.71132 0.01174
 H366 H 0.41791 0.71160 0.04090
 H367 H 0.48553 0.78318 0.04922
 H368 H 0.45779 0.78470 -0.01236
 H369 H 0.41664 0.78729 -0.03906
 H370 H 0.43863 0.71495 -0.07940
 H371 H 0.47962 0.71216 -0.05261
 H372 H 0.51048 0.78214 -0.05427
 H373 H 0.55024 0.78205 -0.08272
 H374 H 0.57871 0.71112 -0.04352
 H375 H 0.53867 0.71096 -0.01508
 H376 H 0.44634 0.78318 0.07839
 C377 C 0.01295 0.50240 0.24831
 C378 C -0.01423 0.50304 0.24840
 C379 C -0.03038 0.47830 0.24907
 C380 C -0.02944 0.52842 0.24697
 C381 C 0.02915 0.52710 0.24875
 C382 C 0.02812 0.47698 0.24697
 C383 C -0.04984 0.47411 0.22942
 C384 C -0.06553 0.45122 0.22985
 C385 C -0.06209 0.43231 0.25000
 C386 C -0.04286 0.43638 0.26981
 C387 C -0.02712 0.45935 0.26942
 C388 C -0.02564 0.54643 0.22589
 C389 C -0.04139 0.56939 0.22396
 C390 C -0.06119 0.57444 0.24294
 C391 C -0.06495 0.55663 0.26401
 C392 C -0.04924 0.53373 0.26598
 C393 C 0.02615 0.54606 0.26905
 C394 C 0.04222 0.56881 0.26942
 C395 C 0.06148 0.57267 0.24963
 C396 C 0.06455 0.55382 0.22945
 C397 C 0.04855 0.53114 0.22904
 C398 C 0.04791 0.47156 0.26603
 C399 C 0.06342 0.44850 0.26424
 C400 C 0.05944 0.43067 0.24329
 C401 C 0.03970 0.43588 0.22422
 C402 C 0.02416 0.45898 0.22598
 H403 H -0.05277 0.48854 0.21366
 H404 H -0.08041 0.44830 0.21449
 H405 H -0.04017 0.42192 0.28559
 H406 H -0.01255 0.46245 0.28503
 H407 H -0.01089 0.54243 0.21069
 H408 H -0.03843 0.58295 0.20747
 H409 H -0.05263 0.51999 0.28223
 H410 H 0.01163 0.54308 0.28469
 H411 H 0.03979 0.58323 0.28520
 H412 H 0.07945 0.55657 0.21410
 H413 H 0.05124 0.51672 0.21330
 H414 H 0.05143 0.48530 0.28221
 H415 H 0.07873 0.44475 0.27901
 H416 H 0.03661 0.42232 0.20781
 H417 H 0.00941 0.46306 0.21075
 H418 H -0.08029 0.56027 0.27873
 C419 C -0.01437 0.49887 0.75093
 C420 C 0.01282 0.49782 0.75059
 C421 C 0.02949 0.52229 0.75007
 C422 C 0.02763 0.47220 0.75173
 C423 C -0.03111 0.47442 0.75060
 C424 C -0.02903 0.52456 0.75257
 C425 C 0.02631 0.54171 0.73015
 C426 C 0.04269 0.56427 0.72982
 C427 C 0.06247 0.56749 0.74927
 C428 C 0.06583 0.54809 0.76897
 C429 C 0.04951 0.52562 0.76935
 C430 C 0.04749 0.46691 0.73278
 C431 C 0.06278 0.44371 0.73445
 C432 C 0.05847 0.42558 0.75513
 C433 C 0.03864 0.43064 0.77407
 C434 C 0.02337 0.45392 0.77248
 C435 C -0.05113 0.47122 0.76988
 C436 C -0.06747 0.44877 0.76972
 C437 C -0.06413 0.42922 0.75025
 C438 C -0.04433 0.43225 0.73083
 C439 C -0.02799 0.45484 0.73090
 C440 C -0.02428 0.54252 0.77343
 C441 C -0.03931 0.56592 0.77543
 C442 C -0.05939 0.57140 0.75681
 C443 C -0.06421 0.55358 0.73603
 C444 C -0.04916 0.53026 0.73395
 H445 H 0.01134 0.53929 0.71481
 H446 H 0.04005 0.57907 0.71435
 H447 H 0.08116 0.55028 0.78402
 H448 H 0.05243 0.51083 0.78477
 H449 H 0.05130 0.48090 0.71683
 H450 H 0.07822 0.44009 0.71983
 H451 H 0.00861 0.45793 0.78767
 H452 H -0.05405 0.48612 0.78513
 H453 H -0.08281 0.44670 0.78474
 H454 H -0.04167 0.41731 0.71558
 H455 H -0.01306 0.45713 0.71552
 H456 H -0.00929 0.53821 0.78836
 H457 H -0.03559 0.57949 0.79171
 H458 H -0.07983 0.55755 0.72163
 H459 H -0.05334 0.51653 0.71792
 H460 H 0.03531 0.41684 0.79029
 C461 C 0.36344 0.24034 0.10911
 C462 C 0.36022 0.21751 0.12471
 C463 C 0.33909 0.21580 0.14274
 C464 C 0.32084 0.23697 0.14550
 C465 C 0.32407 0.25970 0.12942
 C466 C 0.34525 0.26136 0.11140
 C467 C 0.38597 0.24253 0.09151
 C468 C 0.40522 0.24443 0.07727
 H469 H 0.37420 0.20111 0.12311
 H470 H 0.33717 0.19787 0.15450
 H471 H 0.31059 0.27646 0.13101
 H472 H 0.34761 0.27918 0.09949
 C473 C 0.63485 0.76006 0.10675
 C474 C 0.65638 0.74236 0.10582
 C475 C 0.67690 0.74404 0.12462
 C476 C 0.67620 0.76345 0.14487
 C477 C 0.65444 0.78138 0.14526
 C478 C 0.63400 0.77962 0.12642
 C479 C 0.61309 0.75765 0.08819
 C480 C 0.59434 0.75555 0.07328
 H481 H 0.65719 0.72705 0.09071
 H482 H 0.69307 0.72984 0.12322
 H483 H 0.65281 0.79675 0.16015
 H484 H 0.61735 0.79339 0.12738
 C485 C 0.63776 0.24092 -0.10741
 C486 C 0.65535 0.26220 -0.11098
 C487 C 0.67538 0.26078 -0.13027
 C488 C 0.67803 0.23804 -0.14637
 C489 C 0.66047 0.21658 -0.14228
 C490 C 0.64047 0.21806 -0.12298
 C491 C 0.61619 0.24298 -0.08864
 C492 C 0.59763 0.24490 -0.07352
 H493 H 0.65332 0.28006 -0.09913
 H494 H 0.68837 0.27775 -0.13282
 H495 H 0.66200 0.19865 -0.15400
 H496 H 0.62691 0.20148 -0.12044
 C497 C 0.36054 0.75731 -0.11075
 C498 C 0.34431 0.73523 -0.11562
 C499 C 0.32372 0.73681 -0.13437
 C500 C 0.31913 0.76053 -0.14861
 C501 C 0.33536 0.78273 -0.14328
 C502 C 0.35591 0.78110 -0.12450
 C503 C 0.38263 0.75527 -0.09251
 C504 C 0.40157 0.75347 -0.07779
 H505 H 0.34781 0.71666 -0.10519
 H506 H 0.31184 0.71926 -0.13800
 H507 H 0.33232 0.80139 -0.15360
 H508 H 0.36836 0.79832 -0.12092
 C509 C 0.10900 0.36638 0.23693
 C510 C 0.12989 0.36709 0.21852
 C511 C 0.14801 0.34596 0.21698
 C512 C 0.14554 0.32375 0.23391
 C513 C 0.12426 0.32315 0.25218
 C514 C 0.10616 0.34433 0.25368
 C515 C 0.09098 0.38862 0.23906
 C516 C 0.07633 0.40759 0.24093
 H517 H 0.13233 0.38412 0.20551
 H518 H 0.16410 0.34732 0.20275
 H519 H 0.12149 0.30640 0.26539
 H520 H 0.09007 0.34358 0.26802
 C521 C 0.11325 0.63092 0.75135
 C522 C 0.11242 0.65162 0.73279
 C523 C 0.13070 0.67259 0.73440
 C524 C 0.15021 0.67323 0.75470
 C525 C 0.15066 0.65215 0.77330
 C526 C 0.13237 0.63127 0.77159
 C527 C 0.09472 0.60910 0.74973
 C528 C 0.07971 0.59038 0.74908
 H529 H 0.09766 0.65156 0.71703
 H530 H 0.12935 0.68814 0.71960
 H531 H 0.16506 0.65147 0.78928
 H532 H 0.13319 0.61533 0.78610
 C533 C -0.11194 0.63786 0.23681
 C534 C -0.12992 0.63930 0.21561
 C535 C -0.14868 0.65991 0.21432
 C536 C -0.14990 0.67950 0.23437
 C537 C -0.13134 0.67788 0.25549
 C538 C -0.11262 0.65723 0.25668
 C539 C -0.09342 0.61598 0.23865
 C540 C -0.07839 0.59728 0.24044
 H541 H -0.12963 0.62433 0.20015
 H542 H -0.16225 0.66011 0.19761
 H543 H -0.13119 0.69231 0.27137
 H544 H -0.09883 0.65624 0.27326
 C545 C -0.11548 0.36627 0.75273
 C546 C -0.11607 0.34652 0.73324
 C547 C -0.13480 0.32596 0.73471
 C548 C -0.15340 0.32480 0.75578
 C549 C -0.15234 0.34483 0.77538
 C550 C -0.13358 0.36531 0.77382
 C551 C -0.09668 0.38785 0.75105
 C552 C -0.08149 0.40642 0.75026
 H553 H -0.10213 0.34706 0.71681
 H554 H -0.13459 0.31119 0.71914
 H555 H -0.16596 0.34501 0.79202
 H556 H -0.13329 0.38051 0.78905
 C557 C 0.23730 0.11069 0.36318
 C558 C 0.25881 0.11356 0.34571
 C559 C 0.25730 0.13168 0.32464
 C560 C 0.23423 0.14729 0.32078
 C561 C 0.21259 0.14401 0.33832
 C562 C 0.21415 0.12585 0.35936
 C563 C 0.23936 0.09293 0.38556
 C564 C 0.24128 0.07852 0.40466
 H565 H 0.27689 0.10202 0.34856
 H566 H 0.27444 0.13373 0.31176
 H567 H 0.19443 0.15543 0.33591
 H568 H 0.19739 0.12381 0.37280
 C569 C 0.75273 0.11129 0.63247
 C570 C 0.77553 0.12706 0.63522
 C571 C 0.77715 0.14581 0.65561
 C572 C 0.75592 0.14910 0.67362
 C573 C 0.73316 0.13292 0.67085
 C574 C 0.73158 0.11418 0.65038
 C575 C 0.75102 0.09264 0.61088
 C576 C 0.75027 0.07753 0.59232
 H577 H 0.79204 0.12497 0.62147
 H578 H 0.79511 0.15760 0.65721
 H579 H 0.71636 0.13495 0.68417
 H580 H 0.71379 0.10212 0.64838
 C581 C 0.23803 -0.10765 0.63544
 C582 C 0.25898 -0.11037 0.65366
 C583 C 0.25745 -0.12928 0.67402
 C584 C 0.23493 -0.14586 0.67639
 C585 C 0.21384 -0.14272 0.65811
 C586 C 0.21542 -0.12378 0.63779
 C587 C 0.24015 -0.08908 0.61374
 C588 C 0.24210 -0.07404 0.59514
 H589 H 0.27666 -0.09811 0.65192
 H590 H 0.27417 -0.13117 0.68751
 H591 H 0.19610 -0.15487 0.65938
 H592 H 0.19912 -0.12189 0.62374
 C593 C 0.75221 -0.11396 0.36623
 C594 C 0.77572 -0.12841 0.36210
 C595 C 0.77754 -0.14639 0.34103
 C596 C 0.75580 -0.15021 0.32371
 C597 C 0.73230 -0.13535 0.32787
 C598 C 0.73052 -0.11738 0.34902
 C599 C 0.75039 -0.09607 0.38848
 C600 C 0.74960 -0.08153 0.40750
 H601 H 0.79266 -0.12588 0.37528
 H602 H 0.79606 -0.15715 0.33834
 H603 H 0.71510 -0.13782 0.31510
 H604 H 0.71218 -0.10634 0.35207
 C605 C 0.63135 0.75042 -0.11473
 C606 C 0.63302 0.77264 -0.13141
 C607 C 0.65421 0.77514 -0.14923
 C608 C 0.67412 0.75539 -0.15068
 C609 C 0.67228 0.73312 -0.13374
 C610 C 0.65102 0.73067 -0.11590
 C611 C 0.60926 0.74807 -0.09666
 C612 C 0.59033 0.74693 -0.08195
 H613 H 0.61789 0.78807 -0.13065
 H614 H 0.65493 0.79266 -0.16171
 H615 H 0.68706 0.71742 -0.13433
 H616 H 0.64989 0.71335 -0.10310
 C617 C 0.36969 0.24976 -0.11136
 C618 C 0.36743 0.22689 -0.12696
 C619 C 0.34693 0.22475 -0.14566
 C620 C 0.32834 0.24552 -0.14906
 C621 C 0.33063 0.26837 -0.13307
 C622 C 0.35122 0.27047 -0.11437
 C623 C 0.39136 0.25191 -0.09270
 C624 C 0.41004 0.25285 -0.07761
 H625 H 0.38162 0.21073 -0.12477
 H626 H 0.34569 0.20675 -0.15732
 H627 H 0.31684 0.28482 -0.13522
 H628 H 0.35286 0.28831 -0.10244
 C629 C 0.36740 0.75081 0.11392
 C630 C 0.34940 0.72990 0.11768
 C631 C 0.32935 0.73197 0.13691
 C632 C 0.32711 0.75498 0.15269
 C633 C 0.34525 0.77593 0.14857
 C634 C 0.36522 0.77382 0.12934
 C635 C 0.38857 0.74865 0.09476
 C636 C 0.40686 0.74764 0.07925
 H637 H 0.35098 0.71195 0.10591
 H638 H 0.31591 0.71537 0.13958
 H639 H 0.34405 0.79404 0.16006
 H640 H 0.37907 0.79013 0.12660
 C641 C 0.63550 0.24746 0.11581
 C642 C 0.63943 0.22366 0.12973
 C643 C 0.66026 0.22137 0.14808
 C644 C 0.67751 0.24291 0.15280
 C645 C 0.67354 0.26671 0.13849
 C646 C 0.65264 0.26896 0.12015
 C647 C 0.61348 0.24980 0.09758
 C648 C 0.59459 0.25102 0.08276
 H649 H 0.62627 0.20688 0.12651
 H650 H 0.66281 0.20267 0.15846
 H651 H 0.68624 0.28378 0.14171
 H652 H 0.64971 0.28752 0.10954
 C653 C -0.10821 0.63608 0.76374
 C654 C -0.10764 0.65645 0.74483
 C655 C -0.12601 0.67739 0.74616
 C656 C -0.14545 0.67826 0.76646
 C657 C -0.14539 0.65772 0.78566
 C658 C -0.12698 0.63685 0.78424
 C659 C -0.09031 0.61379 0.76154
 C660 C -0.07587 0.59470 0.75949
 H661 H -0.09320 0.65600 0.72883
 H662 H -0.12495 0.69258 0.73098
 H663 H -0.15965 0.65734 0.80175
 H664 H -0.12761 0.62112 0.79898
 C665 C -0.11108 0.36767 0.24792
 C666 C -0.11416 0.35027 0.26942
 C667 C -0.13224 0.32915 0.26780
 C668 C -0.14754 0.32527 0.24463
 C669 C -0.14405 0.34277 0.22306
 C670 C -0.12597 0.36380 0.22473
 C671 C -0.09316 0.38991 0.24961
 C672 C -0.07867 0.40900 0.25024
 H673 H -0.10277 0.35315 0.28751
 H674 H -0.13448 0.31621 0.28484
 H675 H -0.15518 0.34028 0.20481
 H676 H -0.12372 0.37716 0.20796
 C677 C 0.10841 0.36163 0.76124
 C678 C 0.12387 0.35835 0.78418
 C679 C 0.14287 0.33799 0.78561
 C680 C 0.14672 0.32063 0.76404
 C681 C 0.13074 0.32386 0.74120
 C682 C 0.11178 0.34427 0.73982
 C683 C 0.09005 0.38358 0.75924
 C684 C 0.07528 0.40246 0.75745
 H685 H 0.12149 0.37177 0.80084
 H686 H 0.15458 0.33603 0.80359
 H687 H 0.13322 0.31109 0.72411
 H688 H 0.10005 0.34676 0.72187
 C689 C 0.11235 0.63588 0.24817
 C690 C 0.11694 0.65211 0.27025
 C691 C 0.13591 0.67246 0.26890
 C692 C 0.15062 0.67673 0.24544
 C693 C 0.14560 0.66044 0.22330
 C694 C 0.12662 0.64017 0.22469
 C695 C 0.09368 0.61423 0.24960
 C696 C 0.07863 0.59556 0.25005
 H697 H 0.10608 0.64886 0.28857
 H698 H 0.13934 0.68445 0.28639
 H699 H 0.15624 0.66328 0.20483
 H700 H 0.12323 0.62770 0.20748
 C701 C 0.76106 -0.11087 0.63742
 C702 C 0.78463 -0.12513 0.64203
 C703 C 0.78601 -0.14358 0.66281
 C704 C 0.76376 -0.14807 0.67929
 C705 C 0.74025 -0.13334 0.67467
 C706 C 0.73893 -0.11491 0.65386
 C707 C 0.75924 -0.09292 0.61518
 C708 C 0.75754 -0.07840 0.59616
 H709 H 0.80187 -0.12219 0.62938
 H710 H 0.80451 -0.15429 0.66585
 H711 H 0.72266 -0.13634 0.68673
 H712 H 0.72052 -0.10408 0.65038
 C713 C 0.24935 -0.11080 0.36817
 C714 C 0.27137 -0.11545 0.35174
 C715 C 0.26982 -0.13444 0.33150
 C716 C 0.24622 -0.14910 0.32753
 C717 C 0.22414 -0.14404 0.34405
 C718 C 0.22573 -0.12505 0.36420
 C719 C 0.25097 -0.09204 0.38965
 C720 C 0.25152 -0.07690 0.40819
 H721 H 0.28980 -0.10463 0.35476
 H722 H 0.28728 -0.13792 0.31935
 H723 H 0.20556 -0.15466 0.34147
 H724 H 0.20858 -0.12164 0.37685
 C725 C 0.76205 0.10689 0.36463
 C726 C 0.78515 0.12214 0.36140
 C727 C 0.78659 0.14111 0.34110
 C728 C 0.76488 0.14515 0.32375
 C729 C 0.74188 0.12940 0.32696
 C730 C 0.74049 0.11046 0.34729
 C731 C 0.76003 0.08847 0.38645
 C732 C 0.75813 0.07360 0.40517
 H733 H 0.80195 0.11957 0.37475
 H734 H 0.80472 0.15260 0.33914
 H735 H 0.72469 0.13200 0.31418
 H736 H 0.72244 0.09886 0.34971
 C737 C 0.24938 0.11432 0.63403
 C738 C 0.22525 0.12731 0.63929
 C739 C 0.22355 0.14570 0.65998
 C740 C 0.24604 0.15142 0.67576
 C741 C 0.27016 0.13799 0.67051
 C742 C 0.27181 0.11960 0.64973
 C743 C 0.25105 0.09618 0.61203
 C744 C 0.25165 0.08150 0.59314
 H745 H 0.20775 0.12335 0.62726
 H746 H 0.20457 0.15533 0.66358
 H747 H 0.28792 0.14196 0.68209
 H748 H 0.29063 0.10970 0.64576
   
