data_POSCAR
  _audit_creation_date              2014-09-24
  _audit_creation_method            'ToBaCCo'
  _symmetry_space_group_name_H-M    'P1'
  _symmetry_Int_Tables_number       1
  _symmetry_cell_setting            triclinic
  loop_
  _symmetry_equiv_pos_as_xyz
 x,y,z
_cell_length_a 26.9514
_cell_length_b 26.2970
_cell_length_c 26.4306
_cell_angle_alpha 88.573500
_cell_angle_beta 90.234000
_cell_angle_gamma 90.688900
loop_
  _atom_site_label
  _atom_site_type_symbol
  _atom_site_fract_x
  _atom_site_fract_y
  _atom_site_fract_z
O1 O 0.54733 0.10127 0.05457
 O2 O 0.45186 -0.04033 -0.09638
 O3 O 0.55501 0.04141 -0.09089
 O4 O 0.42834 0.09580 -0.01377
 O5 O 0.54532 -0.03805 -0.09771
 O6 O 0.45747 0.09906 0.06232
 O7 O 0.41076 0.02797 -0.07816
 O8 O 0.55105 0.10070 -0.02538
 C9 C 0.55521 0.12493 0.01373
 C10 C 0.41946 -0.00732 -0.10765
 C11 C 0.55856 0.00372 -0.11712
 C12 C 0.43591 0.12033 0.02509
 O13 O 0.46323 0.00133 0.09952
 O14 O 0.54651 -0.08394 -0.00690
 O15 O 0.60286 0.03598 0.03747
 O16 O 0.39470 -0.03908 -0.00472
 O17 O 0.45386 -0.09469 -0.01207
 O18 O 0.54990 0.00152 0.08679
 O19 O 0.40072 0.02847 0.05852
 O20 O 0.60197 -0.02731 -0.02751
 Co21 Co 0.50404 0.04782 0.06895
 Co22 Co 0.49969 -0.05662 -0.04835
 Co23 Co 0.57112 0.03565 -0.02448
 Co24 Co 0.41752 0.02731 -0.00880
 O25 O 0.49755 0.01285 -0.00348
 C26 C 0.41792 0.00633 0.09695
 C27 C 0.59087 -0.07162 -0.01129
 C28 C 0.59376 0.01106 0.07729
 C29 C 0.40979 -0.08449 -0.00207
 O30 O -0.10806 0.47790 -0.02137
 O31 O 0.01164 0.51985 0.10575
 O32 O -0.03456 0.41095 0.05968
 O33 O -0.05990 0.58654 0.02271
 O34 O 0.03365 0.43398 0.09232
 O35 O -0.08972 0.56441 -0.04780
 O36 O 0.01621 0.59090 0.06649
 O37 O -0.07234 0.40641 -0.02117
 C38 C -0.11043 0.43149 -0.01312
 C39 C 0.00730 0.56640 0.10642
 C40 C -0.00785 0.41287 0.09742
 C41 C -0.09367 0.58975 -0.00852
 O42 O -0.01560 0.52923 -0.10821
 O43 O 0.09820 0.46722 0.01823
 O44 O 0.01892 0.41335 -0.06466
 O45 O 0.06507 0.58149 -0.02292
 O46 O 0.09030 0.55177 0.04747
 O47 O -0.04684 0.44467 -0.09667
 O48 O -0.01056 0.59650 -0.06632
 O49 O 0.05645 0.39842 0.01631
 Co50 Co -0.05903 0.50348 -0.06174
 Co51 Co 0.05235 0.49364 0.05912
 Co52 Co -0.00733 0.41604 -0.00229
 Co53 Co 0.00224 0.58009 -0.00017
 O54 O -0.00298 0.49834 -0.00126
 C55 C -0.00201 0.57418 -0.10636
 C56 C 0.09728 0.42106 0.01151
 C57 C -0.00864 0.41857 -0.10175
 C58 C 0.09836 0.57894 0.00887
 O59 O -0.03866 -0.10411 0.44007
 O60 O 0.09423 0.02297 0.55482
 O61 O 0.05937 0.01840 0.40239
 O62 O -0.02058 -0.08308 0.59428
 O63 O 0.10225 0.00724 0.46747
 O64 O -0.01761 -0.11954 0.52449
 O65 O 0.06147 -0.04545 0.58598
 O66 O 0.02680 -0.06792 0.41056
 C67 C 0.00149 -0.10720 0.41679
 C68 C 0.09897 -0.01861 0.57853
 C69 C 0.09905 0.00431 0.42112
 C70 C -0.01019 -0.12156 0.57042
 O71 O -0.09275 -0.05610 0.55391
 O72 O 0.03585 0.08728 0.44755
 O73 O -0.06369 -0.02928 0.40140
 O74 O 0.02252 0.04570 0.59976
 O75 O 0.01858 0.09078 0.53309
 O76 O -0.10389 -0.02866 0.46903
 O77 O -0.06116 0.00934 0.58911
 O78 O -0.03074 0.05514 0.41672
 Co79 Co -0.05749 -0.07097 0.49706
 Co80 Co 0.05700 0.04598 0.50050
 Co81 Co -0.00194 -0.00661 0.41700
 Co82 Co 0.00038 -0.01766 0.58300
 O83 O -0.00053 -0.01230 0.49953
 C84 C -0.09822 -0.01771 0.58037
 C85 C -0.00488 0.09335 0.42516
 C86 C -0.10329 -0.02101 0.42288
 C87 C 0.01404 0.08772 0.57933
 C88 C -0.41380 0.20050 -0.03574
 C89 C -0.38173 0.24235 -0.04019
 C90 C -0.35754 0.26142 0.00251
 C91 C -0.36896 0.24016 0.05054
 C92 C -0.40104 0.19791 0.05499
 C93 C -0.42194 0.17635 0.01156
 C94 C -0.31523 0.29699 -0.00577
 C95 C -0.29629 0.32782 0.02915
 C96 C -0.24858 0.35470 0.01989
 C97 C -0.24286 0.40646 0.03046
 C98 C -0.19795 0.43193 0.01963
 C99 C -0.15781 0.40545 -0.00046
 C100 C -0.16322 0.35322 -0.00915
 C101 C -0.20818 0.32823 0.00054
 H102 H -0.42965 0.18502 -0.06988
 H103 H -0.37361 0.25807 -0.07756
 H104 H -0.35042 0.25347 0.08419
 H105 H -0.40655 0.17998 0.09191
 H106 H -0.29732 0.29618 -0.04243
 H107 H -0.31539 0.33331 0.06451
 H108 H -0.27346 0.42737 0.04586
 H109 H -0.19453 0.47214 0.02706
 H110 H -0.13289 0.33176 -0.02436
 H111 H -0.21137 0.28799 -0.00689
 C112 C 0.39660 0.82677 0.01723
 C113 C 0.36448 0.78598 0.02741
 C114 C 0.31343 0.79366 0.03049
 C115 C 0.29502 0.84340 0.02665
 C116 C 0.32731 0.88474 0.01780
 C117 C 0.37856 0.87688 0.01120
 C118 C 0.28034 0.74883 0.03570
 C119 C 0.23888 0.74480 0.00809
 C120 C 0.20763 0.69823 0.00740
 C121 C 0.17831 0.68949 -0.03549
 C122 C 0.14536 0.64825 -0.03640
 C123 C 0.14049 0.61525 0.00597
 C124 C 0.17135 0.62261 0.04817
 C125 C 0.20461 0.66383 0.04898
 H126 H 0.43572 0.81856 0.01354
 H127 H 0.37938 0.74795 0.03079
 H128 H 0.25564 0.85022 0.03008
 H129 H 0.31172 0.92247 0.01430
 H130 H 0.29354 0.71644 0.05774
 H131 H 0.22915 0.77571 -0.01787
 H132 H 0.18013 0.71530 -0.06804
 H133 H 0.12209 0.64355 -0.06949
 H134 H 0.16799 0.59812 0.08156
 H135 H 0.22603 0.66988 0.08305
 C136 C 0.39383 0.18512 0.07690
 C137 C 0.35859 0.22361 0.07967
 C138 C 0.34063 0.24797 0.03548
 C139 C 0.36100 0.23533 -0.01142
 C140 C 0.39577 0.19654 -0.01421
 C141 C 0.41099 0.16970 0.02968
 C142 C 0.29636 0.28063 0.03884
 C143 C 0.28347 0.31530 0.00327
 C144 C 0.23538 0.34177 0.00454
 C145 C 0.23271 0.39292 -0.01140
 C146 C 0.18758 0.41860 -0.00999
 C147 C 0.14405 0.39305 0.00596
 C148 C 0.14637 0.34126 0.01989
 C149 C 0.19166 0.31594 0.01955
 H150 H 0.40455 0.16477 0.11128
 H151 H 0.34341 0.23257 0.11624
 H152 H 0.34764 0.25249 -0.04642
 H153 H 0.40834 0.18529 -0.05113
 H154 H 0.27260 0.27477 0.07153
 H155 H 0.30884 0.32544 -0.02708
 H156 H 0.26581 0.41331 -0.02384
 H157 H 0.18675 0.45852 -0.02107
 H158 H 0.11340 0.32067 0.03236
 H159 H 0.19240 0.27603 0.03062
 C160 C -0.38786 0.83794 0.00722
 C161 C -0.35510 0.79748 0.00628
 C162 C -0.30500 0.80585 -0.00506
 C163 C -0.28782 0.85605 -0.01439
 C164 C -0.32102 0.89683 -0.01428
 C165 C -0.37164 0.88796 -0.00440
 C166 C -0.27295 0.76095 -0.00971
 C167 C -0.22490 0.76097 0.00294
 C168 C -0.19442 0.71457 0.00100
 C169 C -0.15690 0.70743 0.03714
 C170 C -0.12618 0.66520 0.03551
 C171 C -0.13147 0.62964 -0.00317
 C172 C -0.16953 0.63631 -0.03909
 C173 C -0.20093 0.67831 -0.03691
 H174 H -0.42653 0.82952 0.01513
 H175 H -0.36915 0.75925 0.01373
 H176 H -0.24936 0.86355 -0.02392
 H177 H -0.30750 0.93485 -0.02360
 H178 H -0.29062 0.72559 -0.02052
 H179 H -0.20826 0.79479 0.01874
 H180 H -0.15117 0.73481 0.06664
 H181 H -0.09700 0.66147 0.06362
 H182 H -0.17413 0.60989 -0.06959
 H183 H -0.22905 0.68330 -0.06590
 C184 C 0.00151 -0.43208 0.20126
 C185 C 0.00167 -0.40439 0.24588
 C186 C 0.00117 -0.35105 0.24349
 C187 C -0.00335 -0.32593 0.19623
 C188 C -0.00391 -0.35335 0.15197
 C189 C 0.00004 -0.40653 0.15390
 C190 C 0.00477 -0.32139 0.29001
 C191 C 0.03100 -0.27774 0.29047
 C192 C 0.02826 -0.23962 0.33051
 C193 C 0.06195 -0.19846 0.32869
 C194 C 0.05508 -0.15639 0.35894
 C195 C 0.01410 -0.15459 0.39134
 C196 C -0.01761 -0.19726 0.39587
 C197 C -0.01078 -0.23933 0.36565
 H198 H 0.00428 -0.47312 0.20373
 H199 H 0.00411 -0.42443 0.28210
 H200 H -0.00591 -0.28488 0.19342
 H201 H -0.00594 -0.33266 0.11608
 H202 H -0.01461 -0.33553 0.32332
 H203 H 0.05365 -0.26763 0.25783
 H204 H 0.09238 -0.19775 0.30200
 H205 H 0.08050 -0.12440 0.35520
 H206 H -0.04928 -0.19716 0.42096
 H207 H -0.03796 -0.26984 0.36798
 C208 C 0.04324 0.35935 0.84936
 C209 C 0.04841 0.32391 0.81142
 C210 C 0.01040 0.31615 0.77593
 C211 C -0.03229 0.34645 0.77784
 C212 C -0.03748 0.38209 0.81601
 C213 C -0.00032 0.38781 0.85298
 C214 C 0.01508 0.27287 0.74140
 C215 C -0.01170 0.26658 0.69908
 C216 C -0.00698 0.22031 0.66862
 C217 C -0.01132 0.22374 0.61571
 C218 C -0.00506 0.18059 0.58643
 C219 C 0.00478 0.13309 0.60975
 C220 C 0.00707 0.12939 0.66280
 C221 C 0.00130 0.17246 0.69190
 H222 H 0.07267 0.36298 0.87713
 H223 H 0.08167 0.30119 0.81085
 H224 H -0.06278 0.34109 0.75172
 H225 H -0.07156 0.40334 0.81802
 H226 H 0.04255 0.24460 0.75156
 H227 H -0.03597 0.29634 0.68522
 H228 H -0.01837 0.26006 0.59699
 H229 H -0.00742 0.18448 0.54560
 H230 H 0.01400 0.09324 0.68190
 H231 H 0.00310 0.16817 0.73271
 C232 C -0.06676 0.35678 0.14629
 C233 C -0.07772 0.32521 0.18805
 C234 C -0.04469 0.32148 0.22906
 C235 C -0.00099 0.35147 0.22820
 C236 C 0.01008 0.38298 0.18626
 C237 C -0.02209 0.38490 0.14438
 C238 C -0.05386 0.28134 0.26830
 C239 C -0.03344 0.28154 0.31463
 C240 C -0.03254 0.23583 0.34860
 C241 C 0.00660 0.23123 0.38346
 C242 C 0.01404 0.18562 0.41037
 C243 C -0.01775 0.14368 0.40313
 C244 C -0.05937 0.14953 0.37149
 C245 C -0.06686 0.19525 0.34456
 H246 H -0.09244 0.35764 0.11465
 H247 H -0.11141 0.30231 0.18761
 H248 H 0.02613 0.34874 0.25838
 H249 H 0.04474 0.40426 0.18576
 H250 H -0.07557 0.24882 0.25659
 H251 H -0.01198 0.31436 0.32613
 H252 H 0.03314 0.26209 0.38791
 H253 H 0.04600 0.18256 0.43519
 H254 H -0.08512 0.11821 0.36606
 H255 H -0.09884 0.19801 0.31986
 C256 C 0.03448 -0.34975 0.85855
 C257 C 0.05179 -0.32155 0.81695
 C258 C 0.05085 -0.34210 0.76868
 C259 C 0.03557 -0.39291 0.76298
 C260 C 0.01978 -0.42212 0.80516
 C261 C 0.01729 -0.40024 0.85333
 C262 C 0.06200 -0.30743 0.72547
 C263 C 0.03305 -0.30524 0.68420
 C264 C 0.02878 -0.25809 0.65272
 C265 C 0.01247 -0.26071 0.60232
 C266 C 0.00160 -0.21619 0.57439
 C267 C 0.00571 -0.16852 0.59705
 C268 C 0.02302 -0.16591 0.64700
 C269 C 0.03442 -0.21005 0.67453
 H270 H 0.03422 -0.33145 0.89484
 H271 H 0.06359 -0.28247 0.82214
 H272 H 0.03522 -0.40973 0.72601
 H273 H 0.00756 -0.46099 0.79952
 H274 H 0.08813 -0.27670 0.73226
 H275 H 0.00704 -0.33593 0.67686
 H276 H 0.00707 -0.29726 0.58498
 H277 H -0.01181 -0.21914 0.53587
 H278 H 0.02653 -0.12968 0.66538
 H279 H 0.04501 -0.20631 0.71380
 C280 C 0.35283 0.02435 0.84065
 C281 C 0.31735 0.01618 0.80326
 C282 C 0.32017 -0.02589 0.77226
 C283 C 0.36065 -0.05880 0.77756
 C284 C 0.39599 -0.05147 0.81615
 C285 C 0.39149 -0.01071 0.84971
 C286 C 0.27741 -0.03665 0.73900
 C287 C 0.28130 -0.04554 0.68958
 C288 C 0.23635 -0.04561 0.65710
 C289 C 0.23576 -0.01605 0.61221
 C290 C 0.19131 -0.00867 0.58554
 C291 C 0.14694 -0.03182 0.60267
 C292 C 0.14837 -0.06447 0.64554
 C293 C 0.19257 -0.07096 0.67276
 H294 H 0.34783 0.05690 0.86439
 H295 H 0.28660 0.04221 0.79946
 H296 H 0.36334 -0.09167 0.75389
 H297 H 0.42523 -0.07909 0.82107
 H298 H 0.24091 -0.03060 0.75473
 H299 H 0.31758 -0.04559 0.67207
 H300 H 0.26908 0.00367 0.59938
 H301 H 0.19133 0.01628 0.55231
 H302 H 0.11484 -0.08297 0.65950
 H303 H 0.19227 -0.09457 0.70692
 C304 C -0.31760 0.01273 0.10596
 C305 C -0.28212 0.00859 0.14452
 C306 C -0.29586 -0.00721 0.19374
 C307 C -0.34544 -0.02168 0.20297
 C308 C -0.38084 -0.01791 0.16432
 C309 C -0.36750 0.00049 0.11575
 C310 C -0.25732 -0.00803 0.23388
 C311 C -0.26673 -0.00461 0.28364
 C312 C -0.22641 -0.00292 0.32196
 C313 C -0.23441 -0.02319 0.37107
 C314 C -0.19514 -0.02628 0.40607
 C315 C -0.14754 -0.00896 0.39216
 C316 C -0.14067 0.01471 0.34448
 C317 C -0.17966 0.01817 0.30997
 H318 H -0.30621 0.02674 0.06886
 H319 H -0.24401 0.01928 0.13624
 H320 H -0.35717 -0.03580 0.23984
 H321 H -0.41901 -0.02802 0.17293
 H322 H -0.21924 -0.00981 0.22125
 H323 H -0.30455 -0.00376 0.29709
 H324 H -0.27044 -0.03871 0.38154
 H325 H -0.20128 -0.04469 0.44266
 H326 H -0.10447 0.02914 0.33316
 H327 H -0.17268 0.03661 0.27360
 C328 C 0.40814 -0.01517 0.18921
 C329 C 0.37852 -0.02128 0.23231
 C330 C 0.32668 -0.01997 0.22830
 C331 C 0.30495 -0.01266 0.18010
 C332 C 0.33457 -0.00589 0.13710
 C333 C 0.38646 -0.00641 0.14129
 C334 C 0.29624 -0.02166 0.27495
 C335 C 0.25011 -0.04112 0.27557
 C336 C 0.21380 -0.03407 0.31678
 C337 C 0.16353 -0.03894 0.30413
 C338 C 0.12698 -0.02755 0.33882
 C339 C 0.13944 -0.01205 0.38776
 C340 C 0.18969 -0.00983 0.40193
 C341 C 0.22678 -0.02043 0.36651
 H342 H 0.44810 -0.01540 0.19369
 H343 H 0.39612 -0.02631 0.26898
 H344 H 0.26513 -0.00986 0.17570
 H345 H 0.31689 0.00105 0.10074
 H346 H 0.31171 -0.00438 0.30830
 H347 H 0.23639 -0.05940 0.24189
 H348 H 0.15232 -0.04972 0.26642
 H349 H 0.08862 -0.03020 0.32682
 H350 H 0.20023 0.00177 0.43954
 H351 H 0.26520 -0.01741 0.37810
 C352 C -0.39794 0.05568 0.81581
 C353 C -0.36210 0.06021 0.77787
 C354 C -0.34037 0.01687 0.75800
 C355 C -0.35709 -0.03149 0.77542
 C356 C -0.39304 -0.03601 0.81351
 C357 C -0.41267 0.00757 0.83522
 C358 C -0.29741 0.02386 0.72323
 C359 C -0.28188 -0.01200 0.69201
 C360 C -0.23625 -0.00719 0.66075
 C361 C -0.23184 -0.03871 0.61907
 C362 C -0.18774 -0.03997 0.59170
 C363 C -0.14652 -0.01005 0.60559
 C364 C -0.15126 0.02310 0.64612
 C365 C -0.19567 0.02444 0.67361
 H366 H -0.41227 0.09006 0.83178
 H367 H -0.35002 0.09786 0.76528
 H368 H -0.34064 -0.06592 0.76202
 H369 H -0.40315 -0.07356 0.82809
 H370 H -0.27819 0.06024 0.72347
 H371 H -0.30369 -0.04655 0.68838
 H372 H -0.26233 -0.06346 0.60831
 H373 H -0.18548 -0.06571 0.56045
 H374 H -0.12005 0.04635 0.65790
 H375 H -0.19713 0.04849 0.70616
   
