data_POSCAR
  _audit_creation_date              2014-09-24
  _audit_creation_method            'ToBaCCo'
  _symmetry_space_group_name_H-M    'P1'
  _symmetry_Int_Tables_number       1
  _symmetry_cell_setting            triclinic
  loop_
  _symmetry_equiv_pos_as_xyz
 x,y,z
_cell_length_a 34.8916
_cell_length_b 34.5246
_cell_length_c 35.2502
_cell_angle_alpha 90.816400
_cell_angle_beta 87.956000
_cell_angle_gamma 90.376700
loop_
  _atom_site_label
  _atom_site_type_symbol
  _atom_site_fract_x
  _atom_site_fract_y
  _atom_site_fract_z
Si1 Si 0.73081 0.61846 1.03201
 Si2 Si 0.76059 0.38007 0.50851
 Si3 Si 0.23898 -0.12572 -0.01496
 Si4 Si 0.25517 0.10902 0.47748
 Si5 Si 0.13427 0.52078 0.26521
 Si6 Si -0.12199 0.02375 0.22052
 Si7 Si 0.40477 0.47270 0.75361
 Si8 Si 0.63495 0.98369 0.74334
 Si9 Si 0.00231 0.28165 -0.13530
 Si10 Si 0.48421 0.23872 0.12542
 Si11 Si 0.99953 0.76444 0.62136
 Si12 Si 0.50456 0.74365 0.40226
 C13 C 0.43153 -0.05881 0.28993
 H14 H 0.43600 -0.02865 0.29732
 C15 C 0.44968 -0.08761 0.31006
 H16 H 0.46880 -0.07964 0.33246
 C17 C 0.39904 -0.10636 0.25377
 H18 H 0.37792 -0.11360 0.23311
 C19 C 0.41631 -0.13601 0.27338
 H20 H 0.40926 -0.16595 0.26700
 N21 N 0.40699 -0.06859 0.26216
 C22 C 0.38278 0.04196 0.20948
 H23 H 0.35211 0.03739 0.20908
 C24 C 0.39861 0.07595 0.19509
 H25 H 0.38016 0.09743 0.18321
 C26 C 0.44422 0.01918 0.22493
 H27 H 0.46180 -0.00333 0.23610
 C28 C 0.46142 0.05304 0.21053
 H29 H 0.49228 0.05655 0.21050
 Zn30 Zn 0.37704 -0.02931 0.24113
 N31 N 0.40546 0.01442 0.22411
 C32 C 0.34751 0.02224 0.29639
 N33 N 0.34212 -0.01323 0.28015
 C34 C 0.31499 -0.03830 0.29413
 C35 C 0.29198 -0.02789 0.32596
 C36 C 0.32529 0.03373 0.32796
 C37 C 0.37212 -0.06752 0.17102
 C38 C 0.35565 -0.07819 0.13692
 C39 C 0.29725 -0.04637 0.15861
 C40 C 0.31440 -0.03748 0.19288
 N41 N 0.35128 -0.04793 0.19831
 H42 H 0.37013 0.04116 0.28593
 H43 H 0.31195 -0.06668 0.28114
 H44 H 0.27100 -0.04812 0.33761
 H45 H 0.33050 0.06169 0.34124
 H46 H 0.40172 -0.07460 0.17569
 H47 H 0.37227 -0.09474 0.11592
 H48 H 0.26815 -0.03711 0.15430
 H49 H 0.29878 -0.02091 0.21454
 C50 C 0.43833 0.08154 0.19510
 C51 C 0.44176 -0.12663 0.30193
 C52 C 0.31816 -0.06649 0.12989
 C53 C 0.29760 0.00837 0.34325
 C54 C 0.05792 1.06656 0.76385
 H55 H 0.04007 1.04247 0.75536
 C56 C 0.04112 1.10121 0.77674
 H57 H 0.01019 1.10383 0.77856
 C58 C 0.12012 1.09307 0.77190
 H59 H 0.15091 1.08957 0.76966
 C60 C 0.10459 1.12798 0.78506
 H61 H 0.12337 1.15150 0.79331
 N62 N 0.09678 1.06321 0.76193
 C63 C 0.06920 0.95575 0.75125
 H64 H 0.07455 0.95863 0.78120
 C65 C 0.04787 0.92423 0.73793
 H66 H 0.03706 0.90260 0.75759
 C67 C 0.07969 0.97830 0.68846
 H68 H 0.09294 0.99869 0.66907
 C69 C 0.05854 0.94746 0.67404
 H70 H 0.05595 0.94415 0.64363
 Zn71 Zn 0.12158 1.01811 0.74349
 N72 N 0.08550 0.98133 0.72634
 C73 C 0.17052 0.96332 0.77738
 N74 N 0.14911 0.99581 0.78343
 C75 C 0.14382 1.01121 0.81898
 C76 C 0.16096 0.99454 0.84985
 C77 C 0.18905 0.94623 0.80746
 C78 C 0.13825 1.06131 0.67962
 C79 C 0.15587 1.07137 0.64509
 C80 C 0.20575 1.02509 0.65609
 C81 C 0.18713 1.01589 0.69069
 N82 N 0.15347 1.03340 0.70133
 H83 H 0.17256 0.95009 0.74943
 H84 H 0.12521 1.03575 0.82384
 H85 H 0.15533 1.00656 0.87803
 H86 H 0.20616 0.92053 0.80220
 H87 H 0.11132 1.07459 0.68830
 H88 H 0.14278 1.09282 0.62763
 H89 H 0.23184 1.01020 0.64717
 H90 H 0.19905 0.99401 0.70823
 C91 C 0.04335 0.91948 0.69879
 C92 C 0.06474 1.13217 0.78747
 C93 C 0.18932 1.05231 0.63252
 C94 C 0.18464 0.96216 0.84424
 C95 C 0.54753 0.52766 0.30570
 H96 H 0.53732 0.50046 0.31708
 C97 C 0.53160 0.56237 0.31955
 H98 H 0.50982 0.56176 0.34221
 C99 C 0.58853 0.56201 0.26292
 H100 H 0.61064 0.56218 0.24082
 C101 C 0.57343 0.59728 0.27587
 H102 H 0.58439 0.62408 0.26396
 N103 N 0.57704 0.52819 0.27939
 C104 C 0.58101 0.40487 0.27131
 H105 H 0.60032 0.40239 0.29444
 C106 C 0.56261 0.37169 0.25753
 H107 H 0.56735 0.34402 0.27061
 C108 C 0.55234 0.44351 0.22522
 H109 H 0.54919 0.47147 0.21226
 C110 C 0.53400 0.41098 0.21011
 H111 H 0.51674 0.41414 0.18543
 Zn112 Zn 0.60687 0.48264 0.26945
 N113 N 0.57607 0.43978 0.25469
 C114 C 0.67103 0.46148 0.31063
 N115 N 0.63300 0.46993 0.31387
 C116 C 0.61358 0.46823 0.34804
 C117 C 0.63240 0.45772 0.38056
 C118 C 0.69097 0.45119 0.34241
 C119 C 0.64061 0.47833 0.19467
 C120 C 0.66373 0.49207 0.16464
 C121 C 0.69602 0.53399 0.20889
 C122 C 0.67176 0.52011 0.23789
 N123 N 0.64386 0.49370 0.23018
 H124 H 0.68579 0.46130 0.28321
 H125 H 0.58327 0.47384 0.35009
 H126 H 0.61646 0.45503 0.40734
 H127 H 0.72094 0.44333 0.33931
 H128 H 0.61876 0.45701 0.18902
 H129 H 0.65868 0.48192 0.13602
 H130 H 0.71677 0.55644 0.21516
 H131 H 0.67373 0.53202 0.26631
 C132 C 0.53900 0.37445 0.22632
 C133 C 0.54556 0.59772 0.30537
 C134 C 0.69116 0.52097 0.17152
 C135 C 0.67135 0.44864 0.37759
 C136 C 0.88724 0.48274 0.82018
 H137 H 0.86808 0.49716 0.84037
 C138 C 0.90855 0.45133 0.83193
 H139 H 0.90500 0.44119 0.86079
 C140 C 0.91556 0.47771 0.75821
 H141 H 0.91741 0.48757 0.72920
 C142 C 0.93732 0.44609 0.76872
 H143 H 0.95606 0.43167 0.74792
 N144 N 0.88927 0.49373 0.78320
 C145 C 0.85987 0.60087 0.72659
 H146 H 0.82933 0.59870 0.72383
 C147 C 0.87928 0.63254 0.71100
 H148 H 0.86383 0.65361 0.69508
 C149 C 0.91756 0.57677 0.75045
 H150 H 0.93248 0.55515 0.76597
 C151 C 0.93818 0.60801 0.73513
 H152 H 0.96895 0.60977 0.73797
 Zn153 Zn 0.85257 0.52831 0.76339
 N154 N 0.87919 0.57315 0.74513
 C155 C 0.80997 0.58093 0.81013
 N156 N 0.81583 0.54278 0.80195
 C157 C 0.79859 0.51476 0.82342
 C158 C 0.77877 0.52467 0.85730
 C159 C 0.78819 0.59211 0.84222
 C160 C 0.80307 0.52180 0.70047
 C161 C 0.79079 0.50523 0.66653
 C162 C 0.82594 0.44751 0.68038
 C163 C 0.83718 0.46498 0.71407
 N164 N 0.82777 0.50245 0.72243
 H165 H 0.82357 0.60299 0.79297
 H166 H 0.80327 0.48458 0.81609
 H167 H 0.76928 0.50188 0.87627
 H168 H 0.78477 0.62269 0.84864
 H169 H 0.79320 0.55025 0.70878
 H170 H 0.77204 0.52128 0.64873
 H171 H 0.83514 0.41828 0.67342
 H172 H 0.85402 0.44851 0.73305
 C173 C 0.91890 0.63575 0.71465
 C174 C 0.93258 0.43184 0.80553
 C175 C 0.80379 0.46831 0.65546
 C176 C 0.77397 0.56391 0.86744
 C177 C 0.30467 0.43761 -0.02948
 H178 H 0.31831 0.43715 -0.00241
 C179 C 0.32437 0.45278 -0.06124
 H180 H 0.35326 0.46390 -0.05857
 C181 C 0.25253 0.41923 -0.06731
 H182 H 0.22540 0.40453 -0.07020
 C183 C 0.27115 0.43407 -0.09965
 H184 H 0.25827 0.43052 -0.12701
 N185 N 0.26997 0.42006 -0.03332
 C186 C 0.20957 0.39757 0.07428
 H187 H 0.20096 0.36827 0.06721
 C188 C 0.19708 0.41422 0.10862
 H189 H 0.17819 0.39797 0.12765
 C190 C 0.24467 0.45437 0.05792
 H191 H 0.26337 0.46966 0.03805
 C192 C 0.23316 0.47206 0.09245
 H193 H 0.24286 0.50116 0.09907
 Zn194 Zn 0.24976 0.38875 0.00652
 N195 N 0.23312 0.41754 0.04989
 C196 C 0.29946 0.35617 0.05764
 N197 N 0.28876 0.35422 0.02094
 C198 C 0.30685 0.33000 -0.00469
 C199 C 0.33609 0.30550 0.00679
 C200 C 0.32840 0.33256 0.07013
 C201 C 0.17460 0.38450 -0.01465
 C202 C 0.14187 0.36904 -0.03061
 C203 C 0.17378 0.30714 -0.03659
 C204 C 0.20601 0.32380 -0.02024
 N205 N 0.20614 0.36215 -0.01075
 H206 H 0.28587 0.37634 0.07744
 H207 H 0.29864 0.32976 -0.03400
 H208 H 0.35009 0.28601 -0.01359
 H209 H 0.33658 0.33470 0.09946
 H210 H 0.17555 0.41487 -0.00672
 H211 H 0.11760 0.38754 -0.03534
 H212 H 0.17437 0.27714 -0.04598
 H213 H 0.23124 0.30650 -0.01650
 C214 C 0.20971 0.45147 0.11848
 C215 C 0.30807 0.44957 -0.09698
 C216 C 0.14174 0.33027 -0.04254
 C217 C 0.34657 0.30628 0.04486
 C218 C 0.79808 0.10559 1.01624
 H219 H 0.81482 0.10856 0.99000
 C220 C 0.81381 0.08725 1.04712
 H221 H 0.84266 0.07588 1.04460
 C222 C 0.74072 0.11831 1.05224
 H223 H 0.71246 0.13095 1.05428
 C224 C 0.75527 0.09999 1.08374
 H225 H 0.73822 0.09871 1.10997
 N226 N 0.76236 0.12116 1.01946
 C227 C 0.71521 0.13381 0.90677
 H228 H 0.70936 0.16455 0.90703
 C229 C 0.70362 0.11079 0.87638
 H230 H 0.68879 0.12383 0.85334
 C231 C 0.73912 0.07886 0.93758
 H232 H 0.75238 0.06644 0.96179
 C233 C 0.72789 0.05469 0.90764
 H234 H 0.73214 0.02371 0.90907
 Zn235 Zn 0.74474 0.15084 0.97862
 N236 N 0.73238 0.11768 0.93678
 C237 C 0.79366 0.19107 0.92636
 N238 N 0.78505 0.18540 0.96381
 C239 C 0.80797 0.20006 0.99110
 C240 C 0.84197 0.21969 0.98099
 C241 C 0.82686 0.21102 0.91509
 C242 C 0.66540 0.16634 0.98402
 C243 C 0.63181 0.18262 0.99951
 C244 C 0.67006 0.22476 1.03844
 C245 C 0.70315 0.20789 1.02184
 N246 N 0.70024 0.17870 0.99566
 H247 H 0.77582 0.17888 0.90490
 H248 H 0.80098 0.19463 1.02070
 H249 H 0.86110 0.22927 1.00281
 H250 H 0.83392 0.21415 0.88510
 H251 H 0.66337 0.14231 0.96427
 H252 H 0.60432 0.17115 0.99123
 H253 H 0.67264 0.24629 1.06086
 H254 H 0.73108 0.21678 1.03120
 C255 C 0.70960 0.07077 0.87688
 C256 C 0.79235 0.08456 1.08138
 C257 C 0.63387 0.21156 1.02766
 C258 C 0.85188 0.22476 0.94249
 C259 C 0.29339 0.54524 0.55832
 H260 H 0.30029 0.53869 0.52881
 C261 C 0.31068 0.52419 0.58660
 H262 H 0.33005 0.50083 0.57861
 C263 C 0.26266 0.58565 0.60486
 H264 H 0.24504 0.61055 0.61185
 C265 C 0.28048 0.56632 0.63388
 H266 H 0.27624 0.57636 0.66297
 N267 N 0.27018 0.57562 0.56785
 C268 C 0.21903 0.61470 0.46377
 H269 H 0.21979 0.64504 0.47179
 C270 C 0.20422 0.60368 0.42918
 H271 H 0.19346 0.62550 0.41058
 C272 C 0.23286 0.54941 0.47799
 H273 H 0.24364 0.52840 0.49727
 C274 C 0.21829 0.53704 0.44330
 H275 H 0.21822 0.50654 0.43571
 Zn276 Zn 0.25508 0.61091 0.53051
 N277 N 0.23389 0.58788 0.48695
 C278 C 0.31023 0.64003 0.47795
 N279 N 0.29894 0.64030 0.51529
 C280 C 0.32000 0.65902 0.54179
 C281 C 0.35402 0.67834 0.53095
 C282 C 0.34337 0.65949 0.46590
 C283 C 0.18294 0.62345 0.56092
 C284 C 0.15016 0.64398 0.57198
 C285 C 0.18558 0.70372 0.56200
 C286 C 0.21789 0.68195 0.55113
 N287 N 0.21581 0.64258 0.55077
 H288 H 0.29416 0.62400 0.45734
 H289 H 0.31084 0.65814 0.57141
 H290 H 0.37124 0.69216 0.55229
 H291 H 0.35200 0.65876 0.43606
 H292 H 0.18212 0.59213 0.55961
 H293 H 0.12407 0.62856 0.58008
 H294 H 0.18711 0.73506 0.56232
 H295 H 0.24418 0.69637 0.54207
 C296 C 0.20449 0.56462 0.41837
 C297 C 0.30608 0.53626 0.62472
 C298 C 0.15138 0.68445 0.57226
 C299 C 0.36578 0.67879 0.49247
 C300 C 0.80012 0.94994 0.43739
 H301 H 0.80339 0.96472 0.46436
 C302 C 0.81594 0.96610 0.40393
 H303 H 0.83133 0.99336 0.40566
 C304 C 0.78005 0.89468 0.40291
 H305 H 0.76862 0.86552 0.40266
 C306 C 0.79206 0.91124 0.36877
 H307 H 0.78651 0.89577 0.34260
 N308 N 0.78250 0.91469 0.43627
 C309 C 0.77069 0.90608 0.55807
 H310 H 0.79122 0.88287 0.55825
 C311 C 0.75723 0.92159 0.59269
 H312 H 0.76832 0.91086 0.61884
 C313 C 0.72801 0.94505 0.52465
 H314 H 0.71562 0.95277 0.49811
 C315 C 0.71350 0.96127 0.55894
 H316 H 0.69007 0.98167 0.55865
 Zn317 Zn 0.76761 0.88655 0.48069
 N318 N 0.75580 0.91754 0.52484
 C319 C 0.84209 0.87846 0.50017
 N320 N 0.81123 0.85662 0.49072
 C321 C 0.81284 0.81727 0.48985
 C322 C 0.84622 0.79852 0.50057
 C323 C 0.87527 0.86107 0.51221
 C324 C 0.70128 0.86419 0.44149
 C325 C 0.66823 0.84305 0.43430
 C326 C 0.67527 0.80979 0.49328
 C327 C 0.70982 0.83005 0.49819
 N328 N 0.72256 0.85621 0.47198
 H329 H 0.84001 0.90971 0.50055
 H330 H 0.78812 0.80049 0.48167
 H331 H 0.84691 0.76718 0.50071
 H332 H 0.89810 0.87926 0.52267
 H333 H 0.70909 0.88770 0.42294
 H334 H 0.65275 0.84923 0.40901
 H335 H 0.66469 0.79042 0.51520
 H336 H 0.72595 0.82566 0.52340
 C337 C 0.72776 0.94889 0.59350
 C338 C 0.81237 0.94642 0.36883
 C339 C 0.65461 0.81531 0.46024
 C340 C 0.87781 0.82056 0.51264
 C341 C -0.02290 0.29903 0.43864
 H342 H 0.00375 0.31516 0.43843
 C343 C -0.05409 0.31246 0.46095
 H344 H -0.05116 0.33875 0.47777
 C345 C -0.06135 0.24924 0.41251
 H346 H -0.06494 0.22582 0.39237
 C347 C -0.09316 0.26162 0.43441
 H348 H -0.12079 0.24791 0.43053
 N349 N -0.02740 0.26888 0.41382
 C350 C 0.07821 0.21477 0.37432
 H351 H 0.06821 0.20551 0.34695
 C352 C 0.11239 0.19997 0.38718
 H353 H 0.12799 0.17865 0.37001
 C354 C 0.06979 0.25309 0.43024
 H355 H 0.05312 0.27360 0.44709
 C356 C 0.10416 0.23930 0.44404
 H357 H 0.11360 0.24927 0.47146
 Zn358 Zn 0.01131 0.25857 0.37533
 N359 N 0.05741 0.24055 0.39596
 C360 C 0.05400 0.30459 0.32388
 N361 N 0.02252 0.30449 0.34781
 C362 C 0.00100 0.33697 0.35357
 C363 C 0.01232 0.37187 0.33682
 C364 C 0.06614 0.33880 0.30631
 C365 C -0.01130 0.18331 0.35618
 C366 C -0.02801 0.15406 0.33458
 C367 C -0.03453 0.19964 0.28379
 C368 C -0.01774 0.22817 0.30646
 N369 N -0.00720 0.21968 0.34218
 H370 H 0.07052 0.27841 0.31956
 H371 H -0.02442 0.33621 0.37192
 H372 H -0.00394 0.39797 0.34298
 H373 H 0.09221 0.33901 0.28868
 H374 H -0.00263 0.17742 0.38468
 H375 H -0.03221 0.12550 0.34643
 H376 H -0.04377 0.20673 0.25573
 H377 H -0.01419 0.25730 0.29598
 C378 C 0.12595 0.21253 0.42226
 C379 C -0.09001 0.29460 0.45758
 C380 C -0.04059 0.16241 0.29835
 C381 C 0.04558 0.37299 0.31345
 C382 C 1.02309 0.78949 0.06490
 H383 H 0.99412 0.79921 0.06095
 C384 C 1.05325 0.80420 0.04208
 H385 H 1.04728 0.82472 0.02013
 C386 C 1.06671 0.75328 0.10005
 H387 H 1.07211 0.73455 0.12353
 C388 C 1.09772 0.76807 0.07858
 H389 H 1.12664 0.76035 0.08555
 N390 N 1.03033 0.76494 0.09361
 C391 C 0.91795 0.72175 0.13422
 H392 H 0.92215 0.72544 0.16432
 C393 C 0.88321 0.70720 0.12163
 H394 H 0.86068 0.69931 0.14206
 C395 C 0.94240 0.72714 0.07086
 H396 H 0.96569 0.73453 0.05124
 C397 C 0.90809 0.71231 0.05702
 H398 H 0.90500 0.70842 0.02674
 Zn399 Zn 0.99097 0.75360 0.13049
 N400 N 0.94637 0.73221 0.10890
 C401 C 0.94229 0.81551 0.15244
 N402 N 0.97846 0.80154 0.15514
 C403 C 1.00677 0.82374 0.17011
 C404 C 0.99941 0.86206 0.18183
 C405 C 0.93372 0.85331 0.16393
 C406 C 1.01498 0.68045 0.14760
 C407 C 1.03144 0.65089 0.16788
 C408 C 1.03464 0.69443 0.22202
 C409 C 1.01787 0.72332 0.20064
 N410 N 1.00930 0.71602 0.16384
 H411 H 0.92032 0.79824 0.13950
 H412 H 1.03552 0.81234 0.17119
 H413 H 1.02241 0.88004 0.19227
 H414 H 0.90509 0.86438 0.16045
 H415 H 1.00781 0.67551 0.11832
 H416 H 1.03720 0.62318 0.15412
 H417 H 1.04294 0.70074 0.25078
 H418 H 1.01291 0.75177 0.21298
 C419 C 0.87791 0.70287 0.08263
 C420 C 1.09122 0.79502 0.05022
 C421 C 1.04221 0.65805 0.20517
 C422 C 0.96272 0.87737 0.17765
 C423 C 0.55693 0.25998 0.54682
 H424 H 0.52966 0.26889 0.53640
 C425 C 0.59052 0.27819 0.53357
 H426 H 0.58897 0.30040 0.51229
 C427 C 0.59197 0.22417 0.59069
 H428 H 0.59223 0.20474 0.61441
 C429 C 0.62606 0.24245 0.57896
 H430 H 0.65224 0.23662 0.59343
 N431 N 0.55816 0.23376 0.57515
 C432 C 0.44104 0.18947 0.59068
 H433 H 0.44205 0.18844 0.62128
 C434 C 0.40846 0.17634 0.57274
 H435 H 0.38460 0.16476 0.58961
 C436 C 0.47137 0.20520 0.53160
 H437 H 0.49615 0.21575 0.51562
 C438 C 0.43866 0.19348 0.51251
 H439 H 0.43822 0.19588 0.48193
 Zn440 Zn 0.51234 0.21854 0.60122
 N441 N 0.47176 0.20325 0.57011
 C442 C 0.46801 0.28387 0.61623
 N443 N 0.49607 0.26187 0.63060
 C444 C 0.51377 0.27265 0.66293
 C445 C 0.50136 0.30544 0.68360
 C446 C 0.45536 0.31713 0.63545
 C447 C 0.54019 0.14550 0.61195
 C448 C 0.55004 0.11222 0.63096
 C449 C 0.51962 0.13882 0.68817
 C450 C 0.51119 0.17223 0.66819
 N451 N 0.52222 0.17511 0.63093
 H452 H 0.45555 0.27575 0.58961
 H453 H 0.53716 0.25555 0.67287
 H454 H 0.51456 0.31309 0.71004
 H455 H 0.43266 0.33414 0.62391
 H456 H 0.54801 0.14843 0.58215
 H457 H 0.56649 0.09002 0.61586
 H458 H 0.51125 0.13695 0.71797
 H459 H 0.49579 0.19565 0.68237
 C460 C 0.40709 0.17791 0.53316
 C461 C 0.62512 0.27096 0.55127
 C462 C 0.53956 0.10843 0.66951
 C463 C 0.47118 0.32745 0.67019
 C464 C 0.45017 0.78444 0.92806
 H465 H 0.47657 0.79809 0.93653
 C466 C 0.41491 0.79851 0.94233
 H467 H 0.41419 0.82286 0.96206
 C468 C 0.41852 0.73720 0.89084
 H469 H 0.41992 0.71393 0.87004
 C470 C 0.38271 0.75065 0.90405
 H471 H 0.35678 0.73740 0.89376
 N472 N 0.45138 0.75406 0.90303
 C473 C 0.56726 0.70769 0.90238
 H474 H 0.57002 0.70417 0.87187
 C475 C 0.59629 0.69483 0.92496
 H476 H 0.62123 0.68093 0.91178
 C477 C 0.53071 0.72919 0.95659
 H478 H 0.50489 0.74217 0.96869
 C479 C 0.55968 0.71739 0.98036
 H480 H 0.55614 0.72139 1.01081
 Zn481 Zn 0.49943 0.73725 0.88166
 N482 N 0.53508 0.72398 0.91833
 C483 C 0.54998 0.79872 0.86922
 N484 N 0.52160 0.77808 0.85264
 C485 C 0.50935 0.78751 0.81773
 C486 C 0.52792 0.81690 0.79699
 C487 C 0.56847 0.82885 0.85004
 C488 C 0.47872 0.66055 0.87377
 C489 C 0.47274 0.62453 0.85657
 C490 C 0.49637 0.65095 0.79703
 C491 C 0.50220 0.68655 0.81549
 N492 N 0.49249 0.69089 0.85306
 H493 H 0.55816 0.79211 0.89767
 H494 H 0.48553 0.77195 0.80579
 H495 H 0.51867 0.82347 0.76881
 H496 H 0.59064 0.84524 0.86398
 H497 H 0.47193 0.66460 0.90374
 H498 H 0.46054 0.60102 0.87317
 H499 H 0.50311 0.64796 0.76691
 H500 H 0.51451 0.71042 0.79975
 C501 C 0.59246 0.69907 0.96443
 C502 C 0.38078 0.78156 0.93012
 C503 C 0.48142 0.61953 0.81773
 C504 C 0.55853 0.83734 0.81291
 C505 C 0.43475 -0.17654 0.35113
 C506 C 0.44898 -0.20562 0.37354
 C507 C 0.48751 -0.21690 0.37015
 C508 C 0.51192 -0.19866 0.34230
 C509 C 0.49729 -0.16880 0.31965
 C510 C 0.45852 -0.15762 0.32448
 C511 C 0.52189 -0.15130 0.29236
 N512 N 0.55885 -0.16282 0.28817
 N513 N 0.57276 -0.19065 0.30937
 C514 C 0.55069 -0.20891 0.33612
 H515 H 0.40484 -0.16857 0.35472
 H516 H 0.42922 -0.21959 0.39329
 H517 H 0.51207 -0.12871 0.27419
 H518 H 0.56398 -0.23099 0.35223
 C519 C 0.98466 0.39508 0.83341
 C520 C 1.00054 0.36089 0.84581
 C521 C 0.98209 0.32502 0.84053
 C522 C 0.94683 0.32394 0.82147
 C523 C 0.93058 0.35895 0.80911
 C524 C 0.94966 0.39462 0.81554
 C525 C 0.89528 0.35723 0.79104
 N526 N 0.87776 0.32259 0.78537
 N527 N 0.89316 0.28965 0.79647
 C528 C 0.92698 0.28911 0.81423
 H529 H 0.99930 0.42229 0.83874
 H530 H 1.02676 0.36317 0.86103
 H531 H 0.88149 0.38305 0.78132
 H532 H 0.93824 0.26135 0.82170
 C533 C 0.04959 1.17519 0.84176
 C534 C 0.03619 1.20958 0.85789
 C535 C 0.02086 1.23877 0.83571
 C536 C 0.02108 1.23343 0.79553
 C537 C 0.03408 1.19769 0.77924
 C538 C 0.04825 1.16859 0.80275
 C539 C 0.03349 1.19251 0.73963
 N540 N 0.02141 1.22154 0.71765
 N541 N 0.01031 1.25541 0.73264
 C542 C 0.01000 1.26237 0.77061
 H543 H 0.06108 1.15339 0.85997
 H544 H 0.03726 1.21302 0.88844
 H545 H 0.04279 1.16579 0.72592
 H546 H 0.00237 1.29082 0.78034
 C547 C 0.56259 0.65726 0.34074
 C548 C 0.55333 0.69029 0.36208
 C549 C 0.51516 0.70195 0.36789
 C550 C 0.48601 0.68130 0.34846
 C551 C 0.49563 0.64763 0.32653
 C552 C 0.53407 0.63490 0.32387
 C553 C 0.46641 0.62790 0.30754
 N554 N 0.42982 0.64069 0.31079
 N555 N 0.42055 0.67187 0.33165
 C556 C 0.44724 0.69252 0.35048
 H557 H 0.59231 0.64836 0.33836
 H558 H 0.57648 0.70627 0.37461
 H559 H 0.47236 0.60270 0.28980
 H560 H 0.43758 0.71725 0.36689
 C561 C 0.54564 0.30799 0.19858
 C562 C 0.53232 0.27701 0.17678
 C563 C 0.49491 0.27651 0.16354
 C564 C 0.46941 0.30653 0.17575
 C565 C 0.48254 0.33725 0.19946
 C566 C 0.52165 0.33913 0.20889
 C567 C 0.45623 0.36512 0.21337
 N568 N 0.41953 0.36385 0.20262
 N569 N 0.40737 0.33524 0.17841
 C570 C 0.43131 0.30582 0.16455
 H571 H 0.57554 0.30851 0.20587
 H572 H 0.55229 0.25435 0.16830
 H573 H 0.46438 0.38772 0.23308
 H574 H 0.40445 0.32035 0.16642
 C575 C 0.05722 0.85926 0.66390
 C576 C 0.04707 0.82459 0.64673
 C577 C 0.00906 0.81102 0.64817
 C578 C -0.01955 0.83421 0.66696
 C579 C -0.00897 0.86987 0.68464
 C580 C 0.02977 0.88225 0.68288
 C581 C -0.03774 0.89246 0.70269
 N582 N -0.07471 0.88013 0.70304
 N583 N -0.08474 0.84685 0.68648
 C584 C -0.05853 0.82359 0.66842
 H585 H 0.08696 0.86855 0.66193
 H586 H 0.06960 0.80900 0.63148
 H587 H -0.03118 0.91987 0.71631
 H588 H -0.06856 0.79705 0.65562
 C589 C 0.94817 0.70094 0.70869
 C590 C 0.96582 0.73007 0.68727
 C591 C 0.97572 0.72397 0.64876
 C592 C 0.96819 0.68713 0.63168
 C593 C 0.95081 0.65745 0.65375
 C594 C 0.94039 0.66480 0.69225
 C595 C 0.94390 0.62115 0.63645
 N596 N 0.95335 0.61527 0.59924
 N597 N 0.96905 0.64324 0.57818
 C598 C 0.97664 0.67880 0.59298
 H599 H 0.94016 0.70672 0.73819
 H600 H 0.97175 0.75752 0.70105
 H601 H 0.93108 0.59737 0.65211
 H602 H 0.98850 0.70012 0.57393
 C603 C 0.46933 0.14632 0.19882
 C604 C 0.47930 0.18193 0.18286
 C605 C 0.47490 0.18840 0.14409
 C606 C 0.46225 0.15736 0.12046
 C607 C 0.45236 0.12121 0.13679
 C608 C 0.45492 0.11617 0.17638
 C609 C 0.44011 0.09091 0.11285
 N610 N 0.43782 0.09662 0.07507
 N611 N 0.44713 0.13047 0.05960
 C612 C 0.45929 0.16087 0.08084
 H613 H 0.47132 0.14278 0.22917
 H614 H 0.48918 0.20498 0.20128
 H615 H 0.43277 0.06258 0.12371
 H616 H 0.46724 0.18703 0.06616
 C617 C 0.32936 0.48671 -0.15390
 C618 C 0.35145 0.49077 -0.18738
 C619 C 0.37709 0.46185 -0.20026
 C620 C 0.38164 0.42844 -0.17721
 C621 C 0.35817 0.42402 -0.14372
 C622 C 0.33239 0.45362 -0.13192
 C623 C 0.36121 0.38982 -0.12262
 N624 N 0.38738 0.36271 -0.13323
 N625 N 0.41075 0.36753 -0.16338
 C626 C 0.40899 0.39931 -0.18534
 H627 H 0.30972 0.50955 -0.14507
 H628 H 0.34838 0.51702 -0.20344
 H629 H 0.34316 0.38431 -0.09770
 H630 H 0.42975 0.40109 -0.20807
 C631 C 0.82550 1.00276 0.32666
 C632 C 0.83849 1.01957 0.29288
 C633 C 0.85233 0.99725 0.26183
 C634 C 0.85242 0.95616 0.26586
 C635 C 0.84439 0.93959 0.30204
 C636 C 0.82854 0.96285 0.33235
 C637 C 0.85353 0.90028 0.30664
 N638 N 0.86363 0.87794 0.27604
 N639 N 0.86604 0.89242 0.24128
 C640 C 0.86047 0.93059 0.23513
 H641 H 0.81332 1.02152 0.34876
 H642 H 0.83777 1.05053 0.29188
 H643 H 0.85310 0.88708 0.33424
 H644 H 0.86292 0.94053 0.20627
 C645 C 0.84003 0.08879 1.13121
 C646 C 0.85775 0.07528 1.16309
 C647 C 0.84648 0.04033 1.18043
 C648 C 0.81422 0.02015 1.16590
 C649 C 0.79657 0.03376 1.13276
 C650 C 0.80980 0.06828 1.11539
 C651 C 0.76622 0.01209 1.11779
 N652 N 0.75319 -0.02007 1.13575
 N653 N 0.76840 -0.03184 1.16764
 C654 C 0.79817 -0.01275 1.18329
 H655 H 0.85029 0.11550 1.11852
 H656 H 0.88197 0.09173 1.17304
 H657 H 0.75271 0.02039 1.09202
 H658 H 0.80780 -0.02290 1.20967
 C659 C 0.31373 0.50564 0.68752
 C660 C 0.33585 0.49179 0.71657
 C661 C 0.37600 0.49164 0.71312
 C662 C 0.39413 0.50672 0.67944
 C663 C 0.37155 0.52249 0.65073
 C664 C 0.33094 0.52073 0.65432
 C665 C 0.39056 0.54100 0.61990
 N666 N 0.42933 0.54151 0.61689
 N667 N 0.45052 0.52543 0.64293
 C668 C 0.43437 0.50831 0.67395
 H669 H 0.28277 0.50474 0.69106
 H670 H 0.32118 0.48090 0.74178
 H671 H 0.37525 0.55586 0.59845
 H672 H 0.45348 0.49715 0.69423
 C673 C 0.15195 0.55882 0.37390
 C674 C 0.13757 0.55083 0.33842
 C675 C 0.16128 0.53685 0.30837
 C676 C 0.20154 0.53464 0.31363
 C677 C 0.21601 0.54197 0.35030
 C678 C 0.19074 0.55349 0.38061
 C679 C 0.25573 0.53889 0.35521
 N680 N 0.27948 0.52997 0.32519
 N681 N 0.26624 0.52450 0.29059
 C682 C 0.22834 0.52690 0.28380
 H683 H 0.13253 0.56894 0.39653
 H684 H 0.10704 0.55420 0.33492
 H685 H 0.26824 0.54400 0.38245
 H686 H 0.22024 0.52448 0.25490
 C687 C 0.71343 0.03478 0.81527
 C688 C 0.69623 0.01527 0.78526
 C689 C 0.65680 0.00694 0.78656
 C690 C 0.63469 0.01679 0.82011
 C691 C 0.65248 0.03595 0.85079
 C692 C 0.69183 0.04583 0.84780
 C693 C 0.63004 0.04536 0.88360
 N694 N 0.59215 0.03659 0.88530
 N695 N 0.57518 0.01931 0.85636
 C696 C 0.59499 0.00932 0.82396
 H697 H 0.74363 0.04213 0.81273
 H698 H 0.71385 0.00744 0.76049
 H699 H 0.64226 0.05954 0.90795
 H700 H 0.57909 -0.00359 0.80150
 C701 C 0.69126 0.93009 0.65166
 C702 C 0.67153 0.93793 0.68583
 C703 C 0.66876 0.97574 0.70068
 C704 C 0.68723 1.00632 0.68019
 C705 C 0.70714 0.99821 0.64498
 C706 C 0.70867 0.95977 0.63049
 C707 C 0.72524 1.02894 0.62554
 N708 N 0.72312 1.06543 0.64009
 N709 N 0.70432 1.07319 0.67280
 C710 C 0.68639 1.04500 0.69328
 H711 H 0.69196 0.90049 0.64100
 H712 H 0.65704 0.91403 0.69972
 H713 H 0.74124 1.02428 0.59906
 H714 H 0.67225 1.05326 0.71978
 C715 C 0.17610 0.50336 0.15494
 C716 C 0.15908 0.51858 0.18809
 C717 C 0.16236 0.50010 0.22300
 C718 C 0.18412 0.46546 0.22428
 C719 C 0.20205 0.45035 0.19047
 C720 C 0.19691 0.46895 0.15539
 C721 C 0.22504 0.41719 0.19294
 N722 N 0.22869 0.39969 0.22677
 N723 N 0.21126 0.41330 0.25834
 C724 C 0.18921 0.44548 0.25829
 H725 H 0.17162 0.51778 0.12837
 H726 H 0.14202 0.54432 0.18567
 H727 H 0.24057 0.40526 0.16844
 H728 H 0.17678 0.45545 0.28505
 C729 C -0.14396 0.30928 0.50349
 C730 C -0.17738 0.32927 0.51408
 C731 C -0.19308 0.35676 0.49020
 C732 C -0.17302 0.36555 0.45515
 C733 C -0.13960 0.34431 0.44416
 C734 C -0.12508 0.31630 0.46866
 C735 C -0.12116 0.35194 0.40874
 N736 N -0.13443 0.37998 0.38639
 N737 N -0.16471 0.40105 0.39714
 C738 C -0.18409 0.39505 0.43055
 H739 H -0.13285 0.28805 0.52252
 H740 H -0.19125 0.32294 0.54129
 H741 H -0.09618 0.33606 0.39854
 H742 H -0.20703 0.41438 0.43711
 C743 C 0.32390 0.82122 0.91833
 C744 C 0.29079 0.84079 0.93039
 C745 C 0.27554 0.83714 0.96759
 C746 C 0.29308 0.81067 0.99219
 C747 C 0.32729 0.79131 0.97996
 C748 C 0.34321 0.79758 0.94309
 C749 C 0.34476 0.76634 1.00524
 N750 N 0.32880 0.76088 1.04037
 N751 N 0.29660 0.77865 1.05184
 C752 C 0.27826 0.80324 1.02904
 H753 H 0.33567 0.82610 0.88991
 H754 H 0.27878 0.86081 0.91088
 H755 H 0.37079 0.75094 0.99729
 H756 H 0.25201 0.81611 1.03992
 C757 C 1.15292 0.79467 0.01271
 C758 C 1.18596 0.81268 -0.00217
 C759 C 1.19149 0.85272 0.00192
 C760 C 1.16175 0.87536 0.01963
 C761 C 1.12870 0.85687 0.03590
 C762 C 1.12421 0.81610 0.03212
 C763 C 1.10190 0.87985 0.05677
 N764 N 1.10677 0.91874 0.05915
 N765 N 1.13689 0.93625 0.04261
 C766 C 1.16444 0.91598 0.02311
 H767 H 1.15000 0.76353 0.00962
 H768 H 1.20767 0.79493 -0.01640
 H769 H 1.07735 0.86749 0.07174
 H770 H 1.18828 0.93198 0.01108
 C771 C 0.69342 0.28252 0.53169
 C772 C 0.72441 0.30711 0.52340
 C773 C 0.72075 0.34740 0.52738
 C774 C 0.68582 0.36288 0.54344
 C775 C 0.65506 0.33759 0.55339
 C776 C 0.65828 0.29743 0.54534
 C777 C 0.62196 0.35329 0.57174
 N778 N 0.61917 0.39195 0.57792
 N779 N 0.64737 0.41597 0.56739
 C780 C 0.68037 0.40288 0.55051
 H781 H 0.69659 0.25168 0.52653
 H782 H 0.75076 0.29445 0.51218
 H783 H 0.59844 0.33526 0.58187
 H784 H 0.70196 0.42416 0.54366
 C785 C 0.33662 0.17791 0.52692
 C786 C 0.30272 0.16313 0.51277
 C787 C 0.30319 0.13373 0.48500
 C788 C 0.33921 0.12283 0.46772
 C789 C 0.37373 0.13535 0.48444
 C790 C 0.37232 0.16343 0.51419
 C791 C 0.40849 0.11873 0.47102
 N792 N 0.40911 0.09526 0.43991
 N793 N 0.37737 0.08730 0.42145
 C794 C 0.34269 0.10068 0.43401
 H795 H 0.33489 0.19995 0.54909
 H796 H 0.27575 0.17343 0.52520
 H797 H 0.43519 0.12404 0.48479
 H798 H 0.31885 0.09524 0.41635
 C799 C 0.84220 0.64900 0.05376
 C800 C 0.80851 0.63054 0.04366
 C801 C 0.77285 0.64913 0.04734
 C802 C 0.77126 0.68671 0.06447
 C803 C 0.80593 0.70574 0.07435
 C804 C 0.84149 0.68645 0.06909
 C805 C 0.80389 0.74353 0.08967
 N806 N 0.76934 0.76040 0.09641
 N807 N 0.73679 0.74195 0.08903
 C808 C 0.73657 0.70573 0.07364
 H809 H 0.86904 0.63350 0.05042
 H810 H 0.81055 0.60122 0.03250
 H811 H 0.82943 0.75976 0.09645
 H812 H 0.70921 0.69213 0.06996
 C813 C 0.66018 0.69563 0.98184
 C814 C 0.69069 0.67690 0.99777
 C815 C 0.68491 0.64489 1.02138
 C816 C 0.64643 0.63200 1.02955
 C817 C 0.61530 0.65085 1.01241
 C818 C 0.62249 0.68261 0.98809
 C819 C 0.57792 0.63596 1.01864
 N820 N 0.57182 0.60526 1.04151
 N821 N 0.60059 0.58802 1.05810
 C822 C 0.63736 0.60014 1.05280
 H823 H 0.66621 0.71954 0.96291
 H824 H 0.71946 0.68697 0.99045
 H825 H 0.55338 0.64797 1.00536
 H826 H 0.65851 0.58383 1.06638
 C827 C 0.15848 0.17747 0.47256
 C828 C 0.18819 0.15481 0.48500
 C829 C 0.22114 0.14787 0.46198
 C830 C 0.22626 0.16918 0.42791
 C831 C 0.19616 0.19297 0.41557
 C832 C 0.16114 0.19516 0.43712
 C833 C 0.20224 0.21419 0.38209
 N834 N 0.23590 0.21110 0.36194
 N835 N 0.26391 0.18841 0.37313
 C836 C 0.26024 0.16748 0.40532
 H837 H 0.13239 0.17963 0.49005
 H838 H 0.18424 0.14151 0.51239
 H839 H 0.18083 0.23371 0.37209
 H840 H 0.28410 0.15018 0.41296
 C841 C 0.57432 0.08298 0.72340
 C842 C 0.59566 0.05443 0.73996
 C843 C 0.59776 0.01688 0.72437
 C844 C 0.57523 0.00742 0.69266
 C845 C 0.55225 0.03637 0.67669
 C846 C 0.55376 0.07498 0.69086
 C847 C 0.52858 0.02576 0.64673
 N848 N 0.52941 -0.01089 0.63248
 N849 N 0.55211 -0.03766 0.64634
 C850 C 0.57506 -0.02978 0.67574
 H851 H 0.57607 0.11225 0.73472
 H852 H 0.61276 0.06310 0.76357
 H853 H 0.50916 0.04618 0.63475
 H854 H 0.59236 -0.05296 0.68576
 C855 C 1.04661 0.59503 0.23753
 C856 C 1.06766 0.56419 0.25099
 C857 C 1.10783 0.56559 0.25083
 C858 C 1.12696 0.60021 0.23903
 C859 C 1.10542 0.63165 0.22562
 C860 C 1.06503 0.62862 0.22433
 C861 C 1.12523 0.66488 0.21271
 N862 N 1.16397 0.66666 0.21375
 N863 N 1.18422 0.63737 0.22650
 C864 C 1.16714 0.60434 0.23901
 H865 H 1.01571 0.59231 0.23656
 H866 H 1.05224 0.53874 0.26073
 H867 H 1.11041 0.68947 0.20172
 H868 H 1.18534 0.58172 0.24835
 C869 C 0.95438 0.93375 0.22190
 C870 C 0.93704 0.96929 0.23078
 C871 C 0.91864 0.99039 0.20286
 C872 C 0.92586 0.97957 0.16429
 C873 C 0.94252 0.94306 0.15529
 C874 C 0.95438 0.91894 0.18475
 C875 C 0.94719 0.93194 0.11685
 N876 N 0.93748 0.95667 0.08933
 N877 N 0.92394 0.99182 0.09775
 C878 C 0.91825 1.00412 0.13421
 H879 H 0.96447 0.91619 0.24468
 H880 H 0.93387 0.97783 0.26040
 H881 H 0.95944 0.90430 0.10840
 H882 H 0.91071 1.03373 0.13920
 C883 C 0.47832 0.39192 0.70154
 C884 C 0.46321 0.42475 0.71994
 C885 C 0.42395 0.42727 0.72952
 C886 C 0.39963 0.39499 0.72152
 C887 C 0.41540 0.36116 0.70401
 C888 C 0.45475 0.36029 0.69274
 C889 C 0.39131 0.32866 0.69907
 N890 N 0.35367 0.33053 0.70959
 N891 N 0.33855 0.36251 0.72512
 C892 C 0.36010 0.39457 0.73149
 H893 H 0.50856 0.39147 0.69345
 H894 H 0.48243 0.44850 0.72627
 H895 H 0.40205 0.30151 0.68755
 H896 H 0.34591 0.41887 0.74493
 C897 C 0.44164 0.58503 0.77206
 C898 C 0.42485 0.55163 0.75775
 C899 C 0.43685 0.51456 0.76814
 C900 C 0.46753 0.51188 0.79345
 C901 C 0.48434 0.54625 0.80851
 C902 C 0.47043 0.58299 0.79834
 C903 C 0.51456 0.54274 0.83353
 N904 N 0.52684 0.50716 0.84316
 N905 N 0.51097 0.47500 0.82937
 C906 C 0.48183 0.47620 0.80497
 H907 H 0.43023 0.61285 0.76435
 H908 H 0.40064 0.55560 0.74005
 H909 H 0.52874 0.56792 0.84523
 H910 H 0.47071 0.44929 0.79448
 C911 C -0.04124 0.09944 0.26447
 C912 C -0.05985 0.06866 0.24697
 C913 C -0.09954 0.06916 0.24175
 C914 C -0.12044 0.10320 0.25294
 C915 C -0.10117 0.13468 0.27067
 C916 C -0.06138 0.13235 0.27679
 C917 C -0.12267 0.16727 0.28270
 N918 N -0.16069 0.16873 0.27644
 N919 N -0.17877 0.13963 0.25944
 C920 C -0.16011 0.10711 0.24759
 H921 H -0.01074 0.09737 0.26890
 H922 H -0.04261 0.04412 0.23817
 H923 H -0.10977 0.19161 0.29713
 H924 H -0.17701 0.08428 0.23533
 C925 C 0.08344 0.43134 0.32684
 C926 C 0.10297 0.46484 0.31618
 C927 C 0.10112 0.47926 0.27926
 C928 C 0.07823 0.45924 0.25275
 C929 C 0.05863 0.42455 0.26361
 C930 C 0.06186 0.41051 0.30087
 C931 C 0.03677 0.40465 0.23693
 N932 N 0.03447 0.41845 0.20143
 N933 N 0.05340 0.45183 0.19097
 C934 C 0.07579 0.47328 0.21568
 H935 H 0.08647 0.42066 0.35533
 H936 H 0.12107 0.47805 0.33690
 H937 H 0.02140 0.37827 0.24406
 H938 H 0.06357 0.46819 0.18881
 C939 C 0.55692 0.89859 0.77716
 C940 C 0.57432 0.93142 0.76172
 C941 C 0.61427 0.93633 0.76117
 C942 C 0.63722 0.90630 0.77539
 C943 C 0.61948 0.87203 0.78960
 C944 C 0.57885 0.86901 0.79206
 C945 C 0.64315 0.84157 0.80054
 N946 N 0.68177 0.84606 0.79937
 N947 N 0.69838 0.87877 0.78765
 C948 C 0.67753 0.90896 0.77570
 H949 H 0.52588 0.89698 0.77877
 H950 H 0.55598 0.95389 0.75164
 H951 H 0.63142 0.81400 0.80951
 H952 H 0.69293 0.93432 0.76602
 C953 C 0.70418 0.58264 0.13943
 C954 C 0.71390 0.60402 0.10757
 C955 C 0.72793 0.58592 0.07413
 C956 C 0.73795 0.54614 0.07497
 C957 C 0.72786 0.52417 0.10769
 C958 C 0.70916 0.54246 0.13942
 C959 C 0.73765 0.48475 0.10794
 N960 N 0.75666 0.46857 0.07755
 N961 N 0.76683 0.48927 0.04721
 C962 C 0.75840 0.52744 0.04502
 H963 H 0.69040 0.59743 0.16351
 H964 H 0.70748 0.63464 0.10832
 H965 H 0.73120 0.46689 0.13231
 H966 H 0.76904 0.54276 0.02051
 C967 C 0.24178 1.07827 0.59097
 C968 C 0.25616 1.09117 0.55600
 C969 C 0.23489 1.08714 0.52306
 C970 C 0.19923 1.06679 0.52540
 C971 C 0.18503 1.05303 0.56102
 C972 C 0.20586 1.06032 0.59415
 C973 C 0.15022 1.03216 0.56241
 N974 N 0.13044 1.02647 0.53042
 N975 N 0.14311 1.04021 0.49718
 C976 C 0.17661 1.06014 0.49358
 H977 H 0.25836 1.08339 0.61599
 H978 H 0.28417 1.10458 0.55516
 H979 H 0.13871 1.01996 0.58854
 H980 H 0.18468 1.07086 0.46593
 C981 C 0.19485 0.90379 0.88266
 C982 C 0.20643 0.88542 0.91514
 C983 C 0.22478 0.90579 0.94414
 C984 C 0.23095 0.94640 0.94000
 C985 C 0.22150 0.96450 0.90553
 C986 C 0.20181 0.94332 0.87735
 C987 C 0.23217 1.00351 0.90032
 N988 N 0.24784 1.02397 0.92899
 N989 N 0.25353 1.00801 0.96242
 C990 C 0.24531 0.97021 0.96893
 H991 H 0.17954 0.88701 0.86179
 H992 H 0.20070 0.85465 0.91763
 H993 H 0.22836 1.01792 0.87371
 H994 H 0.24892 0.95996 0.99700
 C995 C 0.70115 0.45413 0.44016
 C996 C 0.72187 0.43867 0.46936
 C997 C 0.73270 0.39963 0.46843
 C998 C 0.72177 0.37548 0.43737
 C999 C 0.69966 0.39108 0.40847
 C1000 C 0.69036 0.43084 0.40952
 C1001 C 0.68750 0.36632 0.37904
 N1002 N 0.69835 0.32875 0.37784
 N1003 N 0.72051 0.31432 0.40402
 C1004 C 0.73268 0.33628 0.43344
 H1005 H 0.69398 0.48462 0.44113
 H1006 H 0.72976 0.45757 0.49255
 H1007 H 0.66936 0.37637 0.35702
 H1008 H 0.75117 0.32268 0.45286
 C1009 C 0.77450 0.41479 0.61971
 C1010 C 0.76573 0.39528 0.58648
 C1011 C 0.77443 0.41106 0.55067
 C1012 C 0.79469 0.44686 0.54889
 C1013 C 0.80437 0.46655 0.58306
 C1014 C 0.79350 0.45046 0.61871
 C1015 C 0.82588 0.50108 0.58033
 N1016 N 0.83617 0.51531 0.54579
 N1017 N 0.82670 0.49719 0.51387
 C1018 C 0.80650 0.46352 0.51431
 H1019 H 0.76675 0.40158 0.64664
 H1020 H 0.75223 0.36717 0.58936
 H1021 H 0.83509 0.51671 0.60519
 H1022 H 0.80004 0.45023 0.48767
 C1023 C 0.26427 -0.09524 0.09552
 C1024 C 0.24654 -0.10786 0.06295
 C1025 C 0.26393 -0.10309 0.02683
 C1026 C 0.30050 -0.08461 0.02395
 C1027 C 0.31796 -0.07032 0.05728
 C1028 C 0.30008 -0.07685 0.09350
 C1029 C 0.35243 -0.04914 0.05306
 N1030 N 0.36923 -0.04452 0.01816
 N1031 N 0.35365 -0.05909 -0.01289
 C1032 C 0.31996 -0.07885 -0.01122
 H1033 H 0.25021 -0.10092 0.12280
 H1034 H 0.21960 -0.12303 0.06674
 H1035 H 0.36595 -0.03563 0.07699
 H1036 H 0.30834 -0.08871 -0.03759
 C1037 C 0.24921 0.04857 0.37665
 C1038 C 0.23949 0.07161 0.40812
 C1039 C 0.25830 0.06745 0.44232
 C1040 C 0.28266 0.03500 0.44656
 C1041 C 0.29227 0.01138 0.41440
 C1042 C 0.27724 0.02010 0.37882
 C1043 C 0.31867 -0.01877 0.41828
 N1044 N 0.33411 -0.02504 0.45236
 N1045 N 0.32532 -0.00285 0.48257
 C1046 C 0.30043 0.02701 0.48079
 H1047 H 0.23729 0.05533 0.34957
 H1048 H 0.21925 0.09467 0.40451
 H1049 H 0.32703 -0.03748 0.39460
 H1050 H 0.29534 0.04425 0.50606
 C1051 C 0.78185 0.60389 0.92531
 C1052 C 0.77238 0.61540 0.96222
 C1053 C 0.74259 0.59745 0.98313
 C1054 C 0.72013 0.56871 0.96474
 C1055 C 0.72798 0.55910 0.92583
 C1056 C 0.76019 0.57581 0.90638
 C1057 C 0.70258 0.53381 0.90751
 N1058 N 0.67316 0.51707 0.92750
 N1059 N 0.66730 0.52413 0.96446
 C1060 C 0.68979 0.54923 0.98366
 H1061 H 0.80660 0.61738 0.91143
 H1062 H 0.78864 0.63914 0.97390
 H1063 H 0.70537 0.52764 0.87742
 H1064 H 0.68413 0.55307 1.01358
 C1065 C 0.09156 0.71834 0.55823
 C1066 C 0.05714 0.73597 0.56946
 C1067 C 0.04736 0.74205 0.60797
 C1068 C 0.07339 0.73021 0.63585
 C1069 C 0.10828 0.71211 0.62423
 C1070 C 0.11710 0.70612 0.58522
 C1071 C 0.13348 0.70039 0.65214
 N1072 N 0.12433 0.70668 0.68935
 N1073 N 0.09179 0.72395 0.70047
 C1074 C 0.06617 0.73593 0.67516
 H1075 H 0.09797 0.71334 0.52826
 H1076 H 0.03769 0.74402 0.54775
 H1077 H 0.16046 0.68646 0.64474
 H1078 H 0.04089 0.75030 0.68633
 C1079 C 0.58030 0.19172 1.06986
 C1080 C 0.54711 0.19807 1.09165
 C1081 C 0.52986 0.23470 1.09437
 C1082 C 0.54893 0.26630 1.07602
 C1083 C 0.58325 0.25966 1.05364
 C1084 C 0.59863 0.22182 1.05033
 C1085 C 0.60085 0.29116 1.03507
 N1086 N 0.58580 0.32711 1.03946
 N1087 N 0.55429 0.33358 1.06099
 C1088 C 0.53545 0.30454 1.07942
 H1089 H 0.59214 0.16276 1.06860
 H1090 H 0.53564 0.17342 1.10664
 H1091 H 0.62641 0.28755 1.01715
 H1092 H 0.50994 0.31174 1.09619
 C1093 C 0.91332 0.21437 0.90790
 C1094 C 0.94775 0.22689 0.89138
 C1095 C 0.96102 0.26492 0.89679
 C1096 C 0.93928 0.29025 0.92131
 C1097 C 0.90343 0.27759 0.93746
 C1098 C 0.89024 0.23945 0.93003
 C1099 C 0.88136 0.30412 0.95938
 N1100 N 0.89487 0.34044 0.96575
 N1101 N 0.92880 0.35205 0.95151
 C1102 C 0.95137 0.32831 0.92955
 H1103 H 0.90378 0.18501 0.90204
 H1104 H 0.96258 0.20676 0.87249
 H1105 H 0.85344 0.29647 0.97137
 H1106 H 0.97866 0.33943 0.91921
 C1107 C 0.42898 0.67175 0.46023
 C1108 C 0.46073 0.68662 0.44051
 C1109 C 0.46742 0.72663 0.43882
 C1110 C 0.44407 0.75161 0.46208
 C1111 C 0.41087 0.73650 0.48146
 C1112 C 0.40272 0.69626 0.47925
 C1113 C 0.38632 0.76252 0.50125
 N1114 N 0.39549 0.80070 0.50308
 N1115 N 0.42727 0.81464 0.48613
 C1116 C 0.45180 0.79145 0.46576
 H1117 H 0.42378 0.64078 0.45902
 H1118 H 0.47908 0.66634 0.42504
 H1119 H 0.35999 0.75302 0.51532
 H1120 H 0.47684 0.80449 0.45247
 C1121 C 0.58711 0.81872 0.44161
 C1122 C 0.55345 0.80252 0.42869
 C1123 C 0.54748 0.76242 0.42849
 C1124 C 0.57516 0.73859 0.44511
 C1125 C 0.61109 0.75477 0.45546
 C1126 C 0.61724 0.79549 0.45326
 C1127 C 0.63986 0.72917 0.46623
 N1128 N 0.63199 0.69086 0.46978
 N1129 N 0.59755 0.67625 0.46267
 C1130 C 0.56892 0.69878 0.45054
 H1131 H 0.59029 0.84995 0.44081
 H1132 H 0.53245 0.82192 0.41772
 H1133 H 0.66864 0.73887 0.47147
 H1134 H 0.54180 0.68522 0.44481
 C1135 C 0.07636 0.30317 -0.04803
 C1136 C 0.04481 0.29292 -0.06921
 C1137 C 0.04610 0.29616 -0.10883
 C1138 C 0.08078 0.30848 -0.12763
 C1139 C 0.11293 0.31847 -0.10599
 C1140 C 0.11035 0.31611 -0.06597
 C1141 C 0.14674 0.33117 -0.12514
 N1142 N 0.14816 0.33344 -0.16349
 N1143 N 0.11804 0.32412 -0.18392
 C1144 C 0.08454 0.31184 -0.16740
 H1145 H 0.07416 0.30139 -0.01737
 H1146 H 0.01918 0.28263 -0.05431
 H1147 H 0.17207 0.33930 -0.11005
 H1148 H 0.06122 0.30547 -0.18566
 C1149 C 0.41429 0.28421 0.04402
 C1150 C 0.44510 0.26895 0.06296
 C1151 C 0.43975 0.25163 0.09857
 C1152 C 0.40137 0.24495 0.11271
 C1153 C 0.37007 0.25835 0.09199
 C1154 C 0.37685 0.28085 0.05920
 C1155 C 0.33250 0.24976 0.10527
 N1156 N 0.32660 0.23087 0.13837
 N1157 N 0.35573 0.22038 0.15917
 C1158 C 0.39266 0.22708 0.14775
 H1159 H 0.41996 0.30056 0.01840
 H1160 H 0.47343 0.27236 0.05019
 H1161 H 0.30779 0.25780 0.08951
 H1162 H 0.41434 0.21974 0.16715
 C1163 C 0.90197 0.77494 0.55944
 C1164 C 0.92967 0.76280 0.58383
 C1165 C 0.96722 0.77764 0.58168
 C1166 C 0.97727 0.80399 0.55235
 C1167 C 0.94924 0.81499 0.52621
 C1168 C 0.91064 0.80208 0.53129
 C1169 C 0.96082 0.83880 0.49582
 N1170 N 0.99726 0.85259 0.49318
 N1171 N 1.02295 0.84395 0.51871
 C1172 C 1.01419 0.82033 0.54821
 H1173 H 0.87280 0.76476 0.56436
 H1174 H 0.92038 0.74336 0.60608
 H1175 H 0.94132 0.84629 0.47395
 H1176 H 1.03640 0.81434 0.56773
   
