data_POSCAR
  _audit_creation_date              2014-09-24
  _audit_creation_method            'ToBaCCo'
  _symmetry_space_group_name_H-M    'P1'
  _symmetry_Int_Tables_number       1
  _symmetry_cell_setting            triclinic
  loop_
  _symmetry_equiv_pos_as_xyz
 x,y,z
_cell_length_a 30.9321
_cell_length_b 32.3232
_cell_length_c 31.9867
_cell_angle_alpha 89.899400
_cell_angle_beta 90.777300
_cell_angle_gamma 89.929500
loop_
  _atom_site_label
  _atom_site_type_symbol
  _atom_site_fract_x
  _atom_site_fract_y
  _atom_site_fract_z
C1 C 0.15856 0.12001 0.17987
 C2 C 0.13573 0.10615 0.21473
 C3 C 0.09781 0.12660 0.22767
 C4 C 0.08247 0.16058 0.20416
 C5 C 0.10586 0.17566 0.17002
 C6 C 0.14410 0.15528 0.15788
 C7 C 0.19573 0.09904 0.16676
 C8 C 0.22022 0.11404 0.13327
 C9 C 0.20573 0.14971 0.11169
 C10 C 0.16762 0.16989 0.12339
 C11 C 0.15246 0.20431 0.10086
 C12 C 0.11500 0.22510 0.11320
 C13 C 0.09178 0.21082 0.14781
 H14 H 0.14705 0.07855 0.23068
 H15 H 0.05304 0.17625 0.21331
 H16 H 0.20635 0.07155 0.18351
 H17 H 0.22275 0.16102 0.08462
 H18 H 0.17007 0.21538 0.07397
 H19 H 0.06243 0.22664 0.15685
 C20 C -0.17686 0.87300 0.16836
 C21 C -0.16341 0.89301 0.20506
 C22 C -0.12862 0.87765 0.22914
 C23 C -0.10618 0.84233 0.21504
 C24 C -0.11817 0.82311 0.17730
 C25 C -0.15386 0.83836 0.15400
 C26 C -0.21308 0.88724 0.14588
 C27 C -0.22629 0.86783 0.10835
 C28 C -0.20167 0.83470 0.09307
 C29 C -0.16628 0.81923 0.11611
 C30 C -0.14332 0.78474 0.10201
 C31 C -0.10784 0.76936 0.12512
 C32 C -0.09497 0.78898 0.16232
 H33 H -0.18092 0.92012 0.21552
 H34 H -0.07827 0.83065 0.23211
 H35 H -0.22984 0.91433 0.15722
 H36 H -0.21106 0.81986 0.06393
 H37 H -0.15269 0.77010 0.07279
 H38 H -0.06734 0.77720 0.17987
 C39 C -0.15838 0.11590 -0.17664
 C40 C -0.13706 0.10183 -0.21232
 C41 C -0.10098 0.12314 -0.22768
 C42 C -0.08590 0.15855 -0.20670
 C43 C -0.10738 0.17352 -0.17137
 C44 C -0.14382 0.15209 -0.15631
 C45 C -0.19400 0.09427 -0.16098
 C46 C -0.21683 0.10923 -0.12638
 C47 C -0.20190 0.14544 -0.10616
 C48 C -0.16533 0.16649 -0.12056
 C49 C -0.14970 0.20156 -0.09949
 C50 C -0.11381 0.22324 -0.11443
 C51 C -0.09286 0.20927 -0.15055
 H52 H -0.14804 0.07381 -0.22770
 H53 H -0.05769 0.17463 -0.21821
 H54 H -0.20481 0.06631 -0.17665
 H55 H -0.21740 0.15669 -0.07825
 H56 H -0.16567 0.21233 -0.07155
 H57 H -0.06465 0.22558 -0.16170
 C58 C 0.16378 0.88023 -0.16727
 C59 C 0.14781 0.88899 -0.20776
 C60 C 0.11224 0.86673 -0.22457
 C61 C 0.09466 0.83415 -0.20103
 C62 C 0.11136 0.82407 -0.16140
 C63 C 0.14495 0.84807 -0.14380
 C64 C 0.19773 0.90350 -0.14942
 C65 C 0.21163 0.89580 -0.10805
 C66 C 0.19198 0.86459 -0.08467
 C67 C 0.15948 0.84003 -0.10252
 C68 C 0.14163 0.80722 -0.07990
 C69 C 0.11052 0.78154 -0.09851
 C70 C 0.09485 0.79043 -0.13894
 H71 H 0.16170 0.91461 -0.22472
 H72 H 0.06782 0.81633 -0.21370
 H73 H 0.21266 0.92812 -0.16716
 H74 H 0.20293 0.85875 -0.05283
 H75 H 0.15306 0.80063 -0.04837
 H76 H 0.06970 0.77124 -0.15269
 C77 C 0.10479 1.17730 0.82492
 C78 C 0.08272 1.15845 0.79152
 C79 C 0.10165 1.12564 0.76959
 C80 C 0.14124 1.10906 0.78430
 C81 C 0.16242 1.12630 0.81910
 C82 C 0.14517 1.16170 0.83838
 C83 C 0.08727 1.21191 0.84461
 C84 C 0.11057 1.23299 0.87597
 C85 C 0.15108 1.21722 0.88943
 C86 C 0.16791 1.18102 0.87154
 C87 C 0.20647 1.16312 0.88684
 C88 C 0.22194 1.12601 0.86954
 C89 C 0.20022 1.10827 0.83531
 H90 H 0.05175 1.17084 0.78114
 H91 H 0.15507 1.08195 0.76978
 H92 H 0.05595 1.22349 0.83422
 H93 H 0.16874 1.23172 0.91491
 H94 H 0.22317 1.17686 0.91338
 H95 H 0.21259 1.08001 0.82165
 C96 C 0.88177 0.81926 0.83221
 C97 C 0.90449 0.83193 0.79683
 C98 C 0.89224 0.86768 0.77461
 C99 C 0.85789 0.89206 0.78970
 C100 C 0.83635 0.88085 0.82639
 C101 C 0.84790 0.84394 0.84741
 C102 C 0.89265 0.78222 0.85257
 C103 C 0.87058 0.76946 0.88871
 C104 C 0.83797 0.79528 0.90466
 C105 C 0.82599 0.83201 0.88391
 C106 C 0.79256 0.85708 0.89907
 C107 C 0.78146 0.89425 0.87861
 C108 C 0.80367 0.90611 0.84260
 H109 H 0.93096 0.81303 0.78568
 H110 H 0.84895 0.92070 0.77423
 H111 H 0.91946 0.76440 0.84074
 H112 H 0.82114 0.78630 0.93279
 H113 H 0.77570 0.84818 0.92719
 H114 H 0.79504 0.93480 0.82693
 C115 C 0.11055 0.83275 1.17371
 C116 C 0.09907 0.85442 1.20985
 C117 C 0.12113 0.89069 1.22139
 C118 C 0.15429 0.90574 1.19609
 C119 C 0.16681 0.88387 1.16034
 C120 C 0.14507 0.84703 1.14922
 C121 C 0.08793 0.79707 1.16172
 C122 C 0.10091 0.77366 1.12709
 C123 C 0.13611 0.78771 1.10311
 C124 C 0.15754 0.82475 1.11341
 C125 C 0.19104 0.84009 1.08840
 C126 C 0.21294 0.87661 1.09950
 C127 C 0.20061 0.89832 1.13551
 H128 H 0.07255 0.84346 1.22870
 H129 H 0.17080 0.93412 1.20470
 H130 H 0.06091 0.78672 1.18032
 H131 H 0.14568 0.77112 1.07533
 H132 H 0.20050 0.82340 1.06060
 H133 H 0.21690 0.92688 1.14383
 C134 C 0.90176 1.17084 1.16969
 C135 C 0.91996 1.15220 1.20531
 C136 C 0.89801 1.12067 1.22666
 C137 C 0.85782 1.10660 1.21053
 C138 C 0.84029 1.12353 1.17344
 C139 C 0.86206 1.15623 1.15337
 C140 C 0.92257 1.20410 1.15025
 C141 C 0.90353 1.22366 1.11547
 C142 C 0.86495 1.20800 1.09819
 C143 C 0.84450 1.17399 1.11655
 C144 C 0.80710 1.15716 1.09839
 C145 C 0.78597 1.12384 1.11728
 C146 C 0.80196 1.10772 1.15540
 H147 H 0.95086 1.16326 1.21723
 H148 H 0.84106 1.08124 1.22534
 H149 H 0.95288 1.21573 1.16296
 H150 H 0.85112 1.22208 1.07026
 H151 H 0.79443 1.16981 1.06927
 H152 H 0.78571 1.08181 1.16990
 O153 O 0.43753 0.94212 0.92207
 O154 O 0.39062 0.98055 0.96129
 C155 C 0.39890 0.95379 0.93228
 O156 O 0.55516 0.93480 1.07910
 O157 O 0.60513 0.96912 1.03959
 C158 C 0.59459 0.94333 1.06876
 O159 O 0.43456 0.93445 1.07085
 O160 O 0.38892 0.97567 1.03189
 C161 C 0.39633 0.94653 1.05905
 O162 O 0.55853 0.93898 0.92442
 O163 O 0.60702 0.97318 0.96693
 C164 C 0.59759 0.94738 0.93711
 Zr165 Zr 0.49846 0.96140 0.94615
 O166 O 0.49945 0.89609 0.94153
 O167 O 0.49626 0.96728 0.88021
 Zr168 Zr 0.49614 0.95452 1.05118
 O169 O 0.49847 0.88973 1.04144
 O170 O 0.49238 0.94315 1.11610
 O171 O 0.45815 0.95123 0.99700
 O172 O 0.53479 0.94894 0.99954
 O173 O 0.56436 1.08655 0.93456
 O174 O 0.60964 1.04314 0.97142
 C175 C 0.60248 1.07332 0.94547
 O176 O 0.44031 1.08483 1.07611
 O177 O 0.39193 1.04757 1.03635
 C178 C 0.40133 1.07557 1.06393
 O179 O 0.56087 1.07333 1.08620
 O180 O 0.60794 1.03804 1.04438
 C181 C 0.59951 1.06214 1.07563
 O182 O 0.44373 1.09444 0.93514
 O183 O 0.39364 1.05280 0.96662
 C184 C 0.40425 1.08400 0.94336
 Zr185 Zr 0.50265 1.06535 0.95293
 O186 O 0.50963 1.13043 0.95328
 O187 O 0.49919 1.06588 0.88674
 Zr188 Zr 0.50025 1.05870 1.05823
 O189 O 0.50894 1.12349 1.06319
 O190 O 0.49320 1.05430 1.12385
 Zr191 Zr 0.43469 1.01240 1.00023
 Zr192 Zr 0.56403 1.00756 1.00407
 O193 O 0.53931 1.06816 1.00738
 O194 O 0.46331 1.07154 1.00492
 O195 O 0.53957 1.01242 0.94244
 O196 O 0.46044 1.00769 1.06132
 O197 O 0.46291 1.01544 0.94079
 O198 O 0.53637 1.00466 1.06403
 H199 H 0.55353 0.92406 0.99922
 H200 H 0.44051 1.00752 1.08529
 H201 H 0.55955 1.09177 1.01009
 H202 H 0.44374 1.01817 0.91587
 H203 H 0.48901 0.97034 1.12972
 H204 H 0.51613 1.03555 1.13456
 H205 H 0.48602 1.13698 1.04615
 H206 H 0.49215 1.14102 0.97657
 H207 H 0.52671 1.05452 0.87627
 H208 H 0.52257 0.98231 0.87169
 H209 H 0.47578 0.88536 0.95897
 H210 H 0.46942 0.88070 1.03191
 O211 O 0.09189 0.44379 -0.06120
 O212 O 0.04565 0.39750 -0.03070
 C213 C 0.07960 0.40638 -0.05221
 O214 O 0.06770 0.55967 0.08130
 O215 O 0.03064 0.60400 0.03765
 C216 C 0.05724 0.59651 0.06839
 O217 O 0.07012 0.44343 0.08191
 O218 O 0.03585 0.39760 0.03800
 C219 C 0.06096 0.40617 0.06955
 O220 O 0.08197 0.56059 -0.06943
 O221 O 0.03746 0.60449 -0.03349
 C222 C 0.06806 0.59730 -0.05977
 Zr223 Zr 0.06214 0.50157 -0.04727
 O224 O 0.12989 0.50845 -0.04038
 O225 O 0.06718 0.49843 -0.11302
 Zr226 Zr 0.04835 0.50111 0.05754
 O227 O 0.11601 0.50542 0.06744
 O228 O 0.03781 0.49809 0.12275
 O229 O 0.06463 0.46470 0.00638
 O230 O 0.06214 0.53724 0.00595
 O231 O -0.06319 0.55695 -0.08912
 O232 O -0.03362 0.60266 -0.04194
 C233 C -0.05588 0.59415 -0.07543
 O234 O -0.08626 0.43980 0.05840
 O235 O -0.03779 0.39613 0.02755
 C236 C -0.07168 0.40317 0.04973
 O237 O -0.08549 0.55604 0.06285
 O238 O -0.04117 0.60233 0.02983
 C239 C -0.07289 0.59338 0.05430
 O240 O -0.06457 0.44067 -0.08685
 O241 O -0.02840 0.39621 -0.04271
 C242 C -0.05394 0.40379 -0.07428
 Zr243 Zr -0.04613 0.49902 -0.06205
 O244 O -0.11424 0.50186 -0.06926
 O245 O -0.03875 0.49619 -0.12762
 Zr246 Zr -0.06027 0.49846 0.04261
 O247 O -0.12810 0.50151 0.03354
 O248 O -0.06813 0.49359 0.10807
 Zr249 Zr 0.00277 0.43846 -0.00232
 Zr250 Zr -0.00066 0.56132 -0.00203
 O251 O -0.06204 0.53449 -0.01078
 O252 O -0.06053 0.46153 -0.01097
 O253 O 0.00801 0.53713 -0.06245
 O254 O -0.00603 0.46392 0.05753
 O255 O 0.01018 0.46428 -0.06220
 O256 O -0.00797 0.53663 0.05840
 H257 H 0.08714 0.55626 0.00837
 H258 H -0.00912 0.44529 0.08194
 H259 H -0.08757 0.55279 -0.01422
 H260 H 0.01447 0.44568 -0.08638
 H261 H 0.02223 0.52354 0.13085
 H262 H -0.05222 0.51686 0.12112
 H263 H -0.13608 0.47989 0.01303
 H264 H -0.12627 0.47583 -0.05801
 H265 H -0.01271 0.51253 -0.13432
 H266 H 0.09851 0.49928 -0.11900
 H267 H 0.13933 0.48941 -0.01783
 H268 H 0.12961 0.48230 0.05221
 O269 O 1.08601 -0.07569 0.56008
 O270 O 1.04135 -0.04161 0.60517
 C271 C 1.07403 -0.06537 0.59736
 O272 O 1.07443 0.06504 0.44009
 O273 O 1.03410 0.02522 0.39492
 C274 C 1.06254 0.05367 0.40283
 O275 O 1.08085 0.06236 0.55682
 O276 O 1.03850 0.02746 0.60334
 C277 C 1.06929 0.05293 0.59448
 O278 O 1.07768 -0.08450 0.44270
 O279 O 1.03687 -0.04637 0.39616
 C280 C 1.06560 -0.07434 0.40497
 Zr281 Zr 1.05761 -0.06043 0.50125
 O282 O 1.12573 -0.05924 0.49595
 O283 O 1.05911 -0.12554 0.50866
 Zr284 Zr 1.05245 0.04439 0.49903
 O285 O 1.11981 0.05474 0.49680
 O286 O 1.04309 0.10925 0.50228
 O287 O 1.06401 -0.00699 0.53703
 O288 O 1.06261 -0.00850 0.46396
 O289 O 0.93103 -0.09250 0.44364
 O290 O 0.96522 -0.05027 0.39679
 C291 C 0.94080 -0.08146 0.40590
 O292 O 0.91701 0.05713 0.55697
 O293 O 0.96312 0.02524 0.60370
 C294 C 0.93055 0.04906 0.59473
 O295 O 0.91818 0.05810 0.43969
 O296 O 0.96083 0.02142 0.39479
 C297 C 0.92999 0.04741 0.40245
 O298 O 0.92366 -0.08129 0.56082
 O299 O 0.96599 -0.04326 0.60601
 C300 C 0.93523 -0.06939 0.59810
 Zr301 Zr 0.94881 -0.06492 0.50151
 O302 O 0.88069 -0.06872 0.49552
 O303 O 0.95194 -0.12984 0.50983
 Zr304 Zr 0.94384 0.03979 0.49885
 O305 O 0.87559 0.04354 0.49792
 O306 O 0.94674 0.10523 0.50118
 Zr307 Zr 1.00145 -0.00917 0.56246
 Zr308 Zr 0.99989 -0.01147 0.43776
 O309 O 0.93786 -0.01392 0.46389
 O310 O 0.93820 -0.01211 0.53708
 O311 O 1.00312 -0.07132 0.46424
 O312 O 0.99830 0.05028 0.53562
 O313 O 1.00402 -0.06954 0.53819
 O314 O 0.99730 0.04950 0.46103
 H315 H 1.08786 -0.00838 0.44525
 H316 H 0.99767 0.07443 0.55466
 H317 H 0.91237 -0.01635 0.44498
 H318 H 1.00522 -0.09299 0.55817
 H319 H 1.03343 0.11884 0.47427
 H320 H 0.95534 0.11524 0.47325
 H321 H 0.86461 0.01602 0.48968
 H322 H 0.86830 -0.04946 0.51620
 H323 H 0.97131 -0.14090 0.48820
 H324 H 1.04462 -0.13787 0.48390
 H325 H 1.13681 -0.03863 0.51625
 H326 H 1.13353 0.02743 0.49298
 C327 C 1.07453 0.11360 0.26290
 C328 C 1.09220 0.09160 0.29436
 C329 C 1.06647 0.07733 0.32987
 C330 C 1.08500 0.07266 0.36754
 H331 H 1.12658 0.08533 0.29548
 H332 H 1.03259 0.07012 0.32504
 H333 H 1.04136 0.12400 0.26607
 H334 H 1.11804 0.08284 0.37267
 C335 C 0.88323 -0.10084 0.26565
 C336 C 0.90656 -0.11699 0.29721
 C337 C 0.91925 -0.09096 0.33283
 C338 C 0.92419 -0.10674 0.37118
 H339 H 0.91523 -0.14944 0.29792
 H340 H 0.92438 -0.05818 0.32749
 H341 H 0.87097 -0.06958 0.26946
 H342 H 0.91610 -0.13882 0.37712
 C343 C 0.92244 0.10765 0.73549
 C344 C 0.90188 0.09194 0.70202
 C345 C 0.92610 0.07454 0.66685
 C346 C 0.90714 0.06810 0.62958
 H347 H 0.86685 0.09198 0.70046
 H348 H 0.95998 0.06699 0.67155
 H349 H 0.95738 0.11033 0.73545
 H350 H 0.87400 0.07790 0.62421
 C351 C 1.09178 -0.12298 0.73715
 C352 C 1.10892 -0.09939 0.70713
 C353 C 1.08246 -0.08727 0.67045
 C354 C 1.09998 -0.08078 0.63306
 H355 H 1.14228 -0.08942 0.70870
 H356 H 1.04784 -0.08385 0.67420
 H357 H 1.05988 -0.13580 0.73105
 H358 H 1.13398 -0.08720 0.62845
 C359 C 0.25749 1.09212 1.12164
 C360 C 0.28975 1.10851 1.09954
 C361 C 0.32633 1.08292 1.08625
 C362 C 0.36557 1.09934 1.08169
 H363 H 0.29045 1.14119 1.09215
 H364 H 0.32097 1.05036 1.07987
 H365 H 0.26139 1.06060 1.13289
 H366 H 0.37157 1.13105 1.09106
 C367 C 0.24642 0.92008 0.91192
 C368 C 0.28552 0.92320 0.89510
 C369 C 0.32126 0.94255 0.91874
 C370 C 0.36242 0.93579 0.90850
 H371 H 0.29177 0.90905 0.86506
 H372 H 0.31376 0.96124 0.94583
 H373 H 0.24137 0.93121 0.94345
 H374 H 0.36965 0.91594 0.88221
 C375 C 0.73722 0.88106 1.08534
 C376 C 0.70454 0.90223 1.10210
 C377 C 0.66838 0.91716 1.07613
 C378 C 0.62962 0.92361 1.09275
 H379 H 0.70315 0.90765 1.13545
 H380 H 0.67372 0.92353 1.04330
 H381 H 0.73414 0.87166 1.05287
 H382 H 0.62358 0.91455 1.12479
 C383 C 0.74675 1.08703 0.88722
 C384 C 0.71548 1.10331 0.91070
 C385 C 0.67841 1.07831 0.92406
 C386 C 0.63972 1.09590 0.92891
 H387 H 0.71531 1.13591 0.91839
 H388 H 0.68274 1.04546 0.92961
 H389 H 0.74229 1.05563 0.87597
 H390 H 0.63506 1.12806 0.92027
 C391 C 0.09975 0.26081 0.08847
 C392 C 0.09146 0.29736 0.10599
 C393 C 0.07672 0.33241 0.08012
 C394 C 0.07880 0.37136 0.09406
 H395 H 0.09624 0.30154 0.13937
 H396 H 0.06393 0.32608 0.04904
 H397 H 0.09813 0.25766 0.05473
 H398 H 0.09328 0.37775 0.12441
 C399 C -0.09752 0.25917 -0.09048
 C400 C -0.08616 0.29469 -0.10874
 C401 C -0.07053 0.32982 -0.08342
 C402 C -0.07095 0.36846 -0.09850
 H403 H -0.08941 0.29820 -0.14235
 H404 H -0.05907 0.32396 -0.05176
 H405 H -0.09736 0.25710 -0.05664
 H406 H -0.08449 0.37443 -0.12936
 C407 C 0.09474 0.74540 -0.07532
 C408 C 0.09510 0.70762 -0.09213
 C409 C 0.07946 0.67181 -0.06849
 C410 C 0.08737 0.63308 -0.08096
 H411 H 0.10736 0.70313 -0.12341
 H412 H 0.06068 0.67738 -0.04067
 H413 H 0.08553 0.74948 -0.04299
 H414 H 0.10752 0.62759 -0.10786
 C415 C -0.08340 0.73329 0.11013
 C416 C -0.10342 0.69980 0.09501
 C417 C -0.07866 0.66498 0.07824
 C418 C -0.09670 0.62777 0.07319
 H419 H -0.13842 0.69801 0.09510
 H420 H -0.04522 0.66992 0.06991
 H421 H -0.04843 0.73371 0.11297
 H422 H -0.12934 0.62226 0.08376
 C423 C 1.08019 0.11030 0.73397
 C424 C 1.10018 0.09027 0.70315
 C425 C 1.07539 0.07493 0.66712
 C426 C 1.09329 0.07141 0.62955
 H427 H 1.13500 0.08678 0.70306
 H428 H 1.04178 0.06667 0.67145
 H429 H 1.04617 0.11771 0.72962
 H430 H 1.12595 0.08230 0.62453
 C431 C 0.91560 -0.12171 0.73876
 C432 C 0.90000 -0.09784 0.70783
 C433 C 0.92708 -0.08717 0.67206
 C434 C 0.91025 -0.08502 0.63347
 H435 H 0.86665 -0.08762 0.70739
 H436 H 0.96114 -0.08100 0.67749
 H437 H 0.94715 -0.13575 0.73456
 H438 H 0.87699 -0.09423 0.62782
 C439 C 1.10853 -0.08587 0.25885
 C440 C 1.10037 -0.10453 0.29524
 C441 C 1.08478 -0.08068 0.33113
 C442 C 1.08531 -0.09648 0.36984
 H443 H 1.10475 -0.13768 0.29842
 H444 H 1.07198 -0.04987 0.32559
 H445 H 1.10711 -0.05241 0.25670
 H446 H 1.10014 -0.12635 0.37577
 C447 C 0.91801 0.10376 0.26259
 C448 C 0.89748 0.08278 0.29251
 C449 C 0.92218 0.06608 0.32837
 C450 C 0.90558 0.06481 0.36669
 H451 H 0.86264 0.07968 0.29217
 H452 H 0.95511 0.05593 0.32340
 H453 H 0.95215 0.11011 0.26770
 H454 H 0.87373 0.07758 0.37210
 C455 C 0.09161 0.26847 -0.10687
 C456 C 0.11305 0.29823 -0.08625
 C457 C 0.08872 0.33364 -0.07009
 C458 C 0.10569 0.37156 -0.06741
 H459 H 0.14795 0.29801 -0.08321
 H460 H 0.05511 0.32871 -0.06219
 H461 H 0.05734 0.27343 -0.11296
 H462 H 0.13831 0.37727 -0.07790
 C463 C -0.07534 0.26020 0.09735
 C464 C -0.09778 0.29375 0.08570
 C465 C -0.07547 0.33005 0.06889
 C466 C -0.09464 0.36713 0.06656
 H467 H -0.13252 0.29484 0.08969
 H468 H -0.04223 0.32644 0.05911
 H469 H -0.04031 0.26062 0.09628
 H470 H -0.12707 0.37126 0.07828
 C471 C -0.11883 0.73258 -0.08988
 C472 C -0.09703 0.70099 -0.10690
 C473 C -0.08358 0.66500 -0.08170
 C474 C -0.07357 0.62901 -0.09978
 H475 H -0.08937 0.70076 -0.13980
 H476 H -0.08116 0.66822 -0.04800
 H477 H -0.13022 0.72885 -0.05815
 H478 H -0.07865 0.62497 -0.13312
 C479 C 0.07724 0.73783 0.11688
 C480 C 0.09322 0.70595 0.09534
 C481 C 0.06567 0.67061 0.08385
 C482 C 0.08022 0.63180 0.08737
 H483 H 0.12709 0.70471 0.08728
 H484 H 0.03365 0.67673 0.07118
 H485 H 0.04492 0.73462 0.12932
 H486 H 0.11121 0.62599 0.10251
 C487 C 0.25845 1.10303 0.88853
 C488 C 0.29411 1.12122 0.90349
 C489 C 0.32889 1.09577 0.92198
 C490 C 0.36942 1.10965 0.92520
 H491 H 0.29813 1.15444 0.90105
 H492 H 0.32132 1.06454 0.93195
 H493 H 0.25661 1.06951 0.88842
 H494 H 0.37747 1.14000 0.91311
 C495 C 0.24826 0.89234 1.07297
 C496 C 0.28467 0.90764 1.08982
 C497 C 0.31976 0.92472 1.06425
 C498 C 0.35974 0.92713 1.08044
 H499 H 0.28919 0.90692 1.12350
 H500 H 0.31298 0.93536 1.03268
 H501 H 0.24498 0.88979 1.03929
 H502 H 0.36626 0.91388 1.11107
 C503 C 0.74922 1.10478 1.09466
 C504 C 0.71258 1.09369 1.11315
 C505 C 0.67662 1.07672 1.08787
 C506 C 0.63588 1.07795 1.10117
 H507 H 0.70848 1.09880 1.14635
 H508 H 0.68351 1.06451 1.05710
 H509 H 0.75137 1.10250 1.06091
 H510 H 0.62883 1.09214 1.13100
 C511 C 0.74741 0.92157 0.89512
 C512 C 0.70834 0.90711 0.90472
 C513 C 0.67444 0.93443 0.92123
 C514 C 0.63280 0.92382 0.91771
 H515 H 0.70094 0.87472 0.89953
 H516 H 0.68363 0.96309 0.93649
 H517 H 0.75376 0.95450 0.89700
 H518 H 0.62409 0.89613 0.90046
   
