data_POSCAR
  _audit_creation_date              2014-09-24
  _audit_creation_method            'ToBaCCo'
  _symmetry_space_group_name_H-M    'P1'
  _symmetry_Int_Tables_number       1
  _symmetry_cell_setting            triclinic
  loop_
  _symmetry_equiv_pos_as_xyz
 x,y,z
_cell_length_a 24.9841
_cell_length_b 24.3450
_cell_length_c 23.5521
_cell_angle_alpha 90.132000
_cell_angle_beta 89.351100
_cell_angle_gamma 90.297000
loop_
  _atom_site_label
  _atom_site_type_symbol
  _atom_site_fract_x
  _atom_site_fract_y
  _atom_site_fract_z
C1 C 0.25478 0.24598 0.25052
 C2 C 0.75248 0.74726 0.25201
 C3 C 0.74728 0.25195 0.75139
 C4 C 0.24566 0.75060 0.74949
 C5 C 0.04884 0.10166 0.03185
 H6 H 0.02792 0.11936 -0.00352
 C7 C 0.08191 0.13501 0.06489
 H8 H 0.08495 0.17836 0.05519
 C9 C 0.07036 0.02394 0.08720
 H10 H 0.06613 -0.01950 0.09539
 C11 C 0.10402 0.05573 0.12119
 H12 H 0.12572 0.03611 0.15503
 N13 N 0.04342 0.04721 0.04359
 C14 C 0.01664 -0.08429 -0.07957
 H15 H -0.02657 -0.08753 -0.07897
 C16 C 0.04695 -0.11995 -0.11345
 H17 H 0.02713 -0.15062 -0.13926
 C18 C 0.09548 -0.04052 -0.04661
 H19 H 0.11423 -0.00932 -0.02079
 C20 C 0.12728 -0.07608 -0.07890
 H21 H 0.17047 -0.07217 -0.07786
 Zn22 Zn -0.00154 0.00215 -0.00194
 N23 N 0.04119 -0.04513 -0.04756
 C24 C -0.04589 0.03936 -0.10590
 N25 N -0.04530 0.04705 -0.04865
 C26 C -0.07618 0.08632 -0.02356
 C27 C -0.11083 0.11806 -0.05585
 C28 C -0.07981 0.07034 -0.13985
 C29 C -0.02299 -0.08878 0.06793
 C30 C -0.05328 -0.12369 0.10282
 C31 C -0.12866 -0.06308 0.09194
 C32 C -0.09722 -0.02980 0.05671
 N33 N -0.04514 -0.04265 0.04588
 H34 H -0.02038 0.00897 -0.12553
 H35 H -0.07407 0.09283 0.02181
 H36 H -0.13501 0.14909 -0.03503
 H37 H -0.08043 0.06275 -0.18515
 H38 H 0.01820 -0.09877 0.05801
 H39 H -0.03504 -0.16013 0.12022
 H40 H -0.17006 -0.05226 0.09996
 H41 H -0.11487 0.00605 0.03813
 C42 C 0.10287 -0.11599 -0.11296
 C43 C 0.11018 0.11214 0.11028
 C44 C -0.10673 -0.11064 0.11544
 C45 C -0.11325 0.10997 -0.11479
 C46 C 0.04676 0.59940 0.53237
 H47 H 0.02521 0.61594 0.49684
 C48 C 0.07737 0.63463 0.56584
 H49 H 0.07808 0.67806 0.55610
 C50 C 0.07136 0.52315 0.58846
 H51 H 0.06865 0.47958 0.59703
 C52 C 0.10279 0.55690 0.62287
 H53 H 0.12486 0.53869 0.65728
 N54 N 0.04418 0.54475 0.54410
 C55 C 0.02309 0.42048 0.41097
 H56 H -0.01850 0.42615 0.40048
 C57 C 0.05437 0.38502 0.37797
 H58 H 0.03640 0.36295 0.34299
 C59 C 0.09775 0.44366 0.46744
 H60 H 0.11499 0.46710 0.50162
 C61 C 0.13021 0.40778 0.43624
 H62 H 0.17213 0.40407 0.44674
 Zn63 Zn 0.00113 0.49856 0.49773
 N64 N 0.04504 0.44925 0.45468
 C65 C -0.02931 0.54622 0.39212
 N66 N -0.03903 0.54360 0.44903
 C67 C -0.07792 0.57445 0.47413
 C68 C -0.10926 0.60936 0.44167
 C69 C -0.06057 0.57970 0.35786
 C70 C -0.05605 0.47347 0.59906
 C71 C -0.09210 0.44445 0.63359
 C72 C -0.11236 0.38575 0.55387
 C73 C -0.07619 0.41608 0.52082
 N74 N -0.04808 0.45840 0.54394
 H75 H 0.00288 0.52282 0.37319
 H76 H -0.08437 0.57198 0.51954
 H77 H -0.14035 0.63346 0.46207
 H78 H -0.05296 0.58114 0.31253
 H79 H -0.03494 0.50844 0.61629
 H80 H -0.09796 0.45736 0.67722
 H81 H -0.13290 0.35114 0.53490
 H82 H -0.07040 0.40530 0.47680
 C83 C 0.10858 0.37827 0.39068
 C84 C 0.10616 0.61352 0.61171
 C85 C -0.12042 0.39948 0.61125
 C86 C -0.10099 0.61170 0.38281
 C87 C 0.57952 0.07720 0.52439
 H88 H 0.57923 0.08220 0.47876
 C89 C 0.61391 0.10910 0.55735
 H90 H 0.63942 0.13931 0.53675
 C91 C 0.54539 0.03254 0.60654
 H92 H 0.51863 0.00262 0.62552
 C93 C 0.57920 0.06349 0.64111
 H94 H 0.57837 0.05660 0.68650
 N95 N 0.54639 0.03966 0.54929
 C96 C 0.52053 -0.08594 0.42029
 H97 H 0.47752 -0.08499 0.41559
 C98 C 0.55128 -0.12142 0.38672
 H99 H 0.53203 -0.14763 0.35575
 C100 C 0.59831 -0.05326 0.46655
 H101 H 0.61653 -0.02700 0.49796
 C102 C 0.63033 -0.08908 0.43498
 H103 H 0.67315 -0.08963 0.44163
 Zn104 Zn 0.50184 -0.00292 0.50177
 N105 N 0.54455 -0.05165 0.45809
 C106 C 0.46579 0.03995 0.39641
 N107 N 0.46347 0.04570 0.45389
 C108 C 0.43421 0.08653 0.47844
 C109 C 0.40335 0.12145 0.44513
 C110 C 0.43532 0.07363 0.36159
 C111 C 0.47534 -0.09151 0.57197
 C112 C 0.44296 -0.12562 0.60555
 C113 C 0.36826 -0.06588 0.58708
 C114 C 0.40181 -0.03349 0.55296
 N115 N 0.45447 -0.04637 0.54660
 H116 H 0.49091 0.00906 0.37717
 H117 H 0.43406 0.09128 0.52413
 H118 H 0.37891 0.15250 0.46556
 H119 H 0.43709 0.06781 0.31601
 H120 H 0.51730 -0.10096 0.56609
 H121 H 0.46015 -0.16127 0.62568
 H122 H 0.32648 -0.05502 0.59204
 H123 H 0.38563 0.00193 0.53191
 C124 C 0.60682 -0.12297 0.39403
 C125 C 0.61409 0.10245 0.61659
 C126 C 0.38883 -0.11258 0.61373
 C127 C 0.40286 0.11443 0.38594
 C128 C 0.54411 0.60687 0.03481
 H129 H 0.52357 0.62488 -0.00062
 C130 C 0.57687 0.63989 0.06834
 H131 H 0.57976 0.68337 0.05923
 C132 C 0.56605 0.52842 0.08898
 H133 H 0.56233 0.48478 0.09622
 C134 C 0.59959 0.55985 0.12331
 H135 H 0.62165 0.53981 0.15663
 N136 N 0.53912 0.55223 0.04573
 C137 C 0.52237 0.42204 -0.07858
 H138 H 0.47962 0.41471 -0.07764
 C139 C 0.55568 0.38888 -0.11190
 H140 H 0.53832 0.35573 -0.13642
 C141 C 0.59706 0.47365 -0.04690
 H142 H 0.61299 0.50705 -0.02186
 C143 C 0.63186 0.44120 -0.07921
 H144 H 0.67437 0.45006 -0.07893
 Zn145 Zn 0.49705 0.50721 -0.00204
 N146 N 0.54344 0.46360 -0.04716
 C147 C 0.45650 0.54636 -0.10664
 N148 N 0.45421 0.55231 -0.04920
 C149 C 0.42258 0.59122 -0.02455
 C150 C 0.39087 0.62520 -0.05779
 C151 C 0.42516 0.57923 -0.14146
 C152 C 0.47621 0.41367 0.06472
 C153 C 0.44630 0.37781 0.09898
 C154 C 0.37000 0.43720 0.08834
 C155 C 0.40113 0.47154 0.05379
 N156 N 0.45349 0.45978 0.04323
 H157 H 0.48261 0.51614 -0.12570
 H158 H 0.42222 0.59607 0.02112
 H159 H 0.36531 0.65525 -0.03730
 H160 H 0.42749 0.57383 -0.18707
 H161 H 0.51771 0.40468 0.05522
 H162 H 0.46518 0.34165 0.11623
 H163 H 0.32842 0.44732 0.09634
 H164 H 0.38321 0.50758 0.03577
 C165 C 0.61121 0.39827 -0.11235
 C166 C 0.60548 0.61639 0.11306
 C167 C 0.39260 0.38979 0.11160
 C168 C 0.39158 0.61909 -0.11705
 C169 C 0.20051 -0.22692 -0.15503
 C170 C 0.20796 -0.21759 -0.21418
 C171 C 0.17332 -0.17878 -0.23957
 C172 C 0.13841 -0.14669 -0.20691
 C173 C 0.13602 -0.15300 -0.14799
 C174 C 0.16639 -0.19391 -0.12240
 H175 H 0.22057 -0.25968 -0.13309
 H176 H 0.17470 -0.17202 -0.28500
 H177 H 0.11423 -0.11594 -0.22748
 H178 H 0.16339 -0.20054 -0.07700
 C179 C 0.17877 0.31504 0.26352
 C180 C 0.21502 0.27837 0.28899
 C181 C 0.21061 0.27084 0.34841
 C182 C 0.17609 0.30323 0.38126
 C183 C 0.14299 0.34201 0.35561
 C184 C 0.14357 0.34661 0.29633
 H185 H 0.17899 0.32045 0.21789
 H186 H 0.23330 0.23998 0.37030
 H187 H 0.17484 0.29762 0.42687
 H188 H 0.11787 0.37581 0.27546
 C189 C 0.67769 -0.18264 0.26616
 C190 C 0.71321 -0.22048 0.29099
 C191 C 0.70777 -0.23006 0.35001
 C192 C 0.67307 -0.19845 0.38336
 C193 C 0.64066 -0.15876 0.35839
 C194 C 0.64209 -0.15206 0.29942
 H195 H 0.67859 -0.17583 0.22073
 H196 H 0.72967 -0.26201 0.37113
 H197 H 0.67116 -0.20526 0.42879
 H198 H 0.61675 -0.12201 0.27932
 C199 C 0.66631 0.31489 -0.23525
 C200 C 0.71239 0.29083 -0.21184
 C201 C 0.72806 0.30866 -0.15736
 C202 C 0.69547 0.34370 -0.12518
 C203 C 0.64723 0.36330 -0.14720
 C204 C 0.63356 0.34944 -0.20298
 H205 H 0.65491 0.30598 -0.27852
 H206 H 0.76547 0.29559 -0.13928
 H207 H 0.70765 0.35481 -0.08268
 H208 H 0.59769 0.36578 -0.22186
 C209 C -0.23512 0.18893 -0.16317
 C210 C -0.21626 0.21390 -0.21364
 C211 C -0.16541 0.19782 -0.23446
 C212 C -0.13226 0.16410 -0.20260
 C213 C -0.14958 0.14355 -0.14992
 C214 C -0.20182 0.15535 -0.13109
 H215 H -0.27549 0.19621 -0.14789
 H216 H -0.15068 0.21175 -0.27535
 H217 H -0.09259 0.15493 -0.21888
 H218 H -0.21710 0.13819 -0.09171
 C219 C -0.17633 0.73433 0.32805
 C220 C -0.20859 0.71057 0.28556
 C221 C -0.19937 0.65487 0.27138
 C222 C -0.16359 0.62322 0.30227
 C223 C -0.13554 0.64634 0.34759
 C224 C -0.14152 0.70230 0.35980
 H225 H -0.17945 0.77770 0.33780
 H226 H -0.21903 0.63529 0.23602
 H227 H -0.15852 0.58028 0.29141
 H228 H -0.11902 0.72122 0.39375
 C229 C 0.32709 0.23555 0.32607
 C230 C 0.29400 0.21029 0.28517
 C231 C 0.30206 0.15378 0.27426
 C232 C 0.33759 0.12312 0.30660
 C233 C 0.36726 0.14798 0.34996
 C234 C 0.36223 0.20470 0.35883
 H235 H 0.32457 0.27936 0.33364
 H236 H 0.28165 0.13262 0.24041
 H237 H 0.34127 0.07955 0.29815
 H238 H 0.38580 0.22529 0.39087
 C239 C 0.29292 0.66006 -0.23002
 C240 C 0.28270 0.71615 -0.21717
 C241 C 0.31513 0.74060 -0.17482
 C242 C 0.35018 0.70936 -0.14241
 C243 C 0.35633 0.65304 -0.15294
 C244 C 0.32826 0.62909 -0.19786
 H245 H 0.27440 0.63937 -0.26542
 H246 H 0.31216 0.78414 -0.16580
 H247 H 0.37286 0.72940 -0.10930
 H248 H 0.33309 0.58594 -0.20783
 C249 C -0.20579 -0.15715 0.22824
 C250 C -0.21006 -0.21414 0.21740
 C251 C -0.17510 -0.23689 0.17611
 C252 C -0.14094 -0.20359 0.14368
 C253 C -0.14006 -0.14661 0.15217
 C254 C -0.17211 -0.12386 0.19531
 H255 H -0.22782 -0.13761 0.26235
 H256 H -0.17529 -0.28069 0.16804
 H257 H -0.11618 -0.22224 0.11097
 H258 H -0.17069 -0.08015 0.20394
 C259 C -0.23576 0.30785 0.65929
 C260 C -0.21966 0.29226 0.71418
 C261 C -0.17472 0.31932 0.73723
 C262 C -0.14303 0.35445 0.70422
 C263 C -0.15659 0.36575 0.64780
 C264 C -0.20417 0.34330 0.62627
 H265 H -0.27267 0.29258 0.64147
 H266 H -0.16300 0.31183 0.78063
 H267 H -0.10704 0.37150 0.72256
 H268 H -0.21712 0.35325 0.58382
 C269 C 0.31694 -0.23679 0.67447
 C270 C 0.28199 -0.21331 0.71580
 C271 C 0.28816 -0.15610 0.72624
 C272 C 0.32227 -0.12373 0.69276
 C273 C 0.35378 -0.14741 0.64985
 C274 C 0.35180 -0.20437 0.64188
 H275 H 0.31631 -0.28062 0.66653
 H276 H 0.26740 -0.13554 0.76062
 H277 H 0.32482 -0.08002 0.70112
 H278 H 0.37651 -0.22373 0.60956
 C279 C 0.32777 0.26243 0.17506
 C280 C 0.29188 0.28492 0.21562
 C281 C 0.29454 0.34224 0.22515
 C282 C 0.32725 0.37589 0.19151
 C283 C 0.36001 0.35336 0.14884
 C284 C 0.36095 0.29615 0.14182
 H285 H 0.32891 0.21847 0.16807
 H286 H 0.27192 0.36188 0.25876
 H287 H 0.32739 0.41976 0.19929
 H288 H 0.38636 0.27757 0.10964
 C289 C 0.21219 0.22043 0.15322
 C290 C 0.21799 0.21069 0.21199
 C291 C 0.18453 0.17030 0.23703
 C292 C 0.14988 0.13839 0.20427
 C293 C 0.14643 0.14664 0.14544
 C294 C 0.17766 0.18838 0.12049
 H295 H 0.23333 0.25333 0.13186
 H296 H 0.18571 0.16317 0.28237
 H297 H 0.12520 0.10770 0.22523
 H298 H 0.17574 0.19620 0.07533
 C299 C 0.20254 0.72695 0.65450
 C300 C 0.21001 0.71696 0.71323
 C301 C 0.17728 0.67561 0.73837
 C302 C 0.14380 0.64235 0.70573
 C303 C 0.14023 0.65015 0.64693
 C304 C 0.16928 0.69343 0.62197
 H305 H 0.22184 0.76088 0.63284
 H306 H 0.17873 0.66819 0.78366
 H307 H 0.12037 0.61069 0.72675
 H308 H 0.16686 0.70122 0.57684
 C309 C 0.73317 0.18637 0.66685
 C310 C 0.71276 0.21125 0.71671
 C311 C 0.66230 0.19303 0.73701
 C312 C 0.63062 0.15761 0.70485
 C313 C 0.64927 0.13719 0.65254
 C314 C 0.70148 0.15082 0.63463
 H315 H 0.77342 0.19537 0.65204
 H316 H 0.64661 0.20676 0.77759
 H317 H 0.59097 0.14721 0.72054
 H318 H 0.71795 0.13383 0.59570
 C319 C 0.70831 0.72365 0.15532
 C320 C 0.71506 0.71287 0.21370
 C321 C 0.68209 0.67216 0.23885
 C322 C 0.64667 0.64104 0.20643
 C323 C 0.64223 0.65029 0.14790
 C324 C 0.67315 0.69222 0.12286
 H325 H 0.72928 0.75680 0.13415
 H326 H 0.68420 0.66425 0.28400
 H327 H 0.62226 0.61014 0.22741
 H328 H 0.67051 0.70065 0.07787
   
