data_POSCAR
  _audit_creation_date              2014-09-24
  _audit_creation_method            'ToBaCCo'
  _symmetry_space_group_name_H-M    'P1'
  _symmetry_Int_Tables_number       1
  _symmetry_cell_setting            triclinic
  loop_
  _symmetry_equiv_pos_as_xyz
 x,y,z
_cell_length_a 46.5920
_cell_length_b 24.6556
_cell_length_c 15.9526
_cell_angle_alpha 90.509300
_cell_angle_beta 90.019700
_cell_angle_gamma 90.040700
loop_
  _atom_site_label
  _atom_site_type_symbol
  _atom_site_fract_x
  _atom_site_fract_y
  _atom_site_fract_z
C1 C 0.72571 0.26828 0.54462
 C2 C 0.72391 0.26116 0.45620
 C3 C 0.74704 0.23905 0.41194
 C4 C 0.77282 0.22461 0.45153
 C5 C 0.77447 0.22792 0.54107
 C6 C 0.75127 0.25197 0.58487
 H7 H 0.75245 0.25526 0.65252
 H8 H 0.74545 0.23678 0.34409
 C9 C 0.22470 0.76337 0.54902
 C10 C 0.22514 0.76922 0.46091
 C11 C 0.24952 0.75221 0.41653
 C12 C 0.27335 0.72982 0.45712
 C13 C 0.27317 0.72358 0.54601
 C14 C 0.24848 0.74101 0.59002
 H15 H 0.24753 0.73779 0.65770
 H16 H 0.24995 0.75599 0.34883
 C17 C 0.27517 0.26323 -0.54555
 C18 C 0.27337 0.26829 -0.45762
 C19 C 0.24807 0.25245 -0.41700
 C20 C 0.22438 0.23018 -0.46107
 C21 C 0.22597 0.22774 -0.55099
 C22 C 0.25181 0.24261 -0.59050
 H23 H 0.25336 0.24150 -0.65839
 H24 H 0.24763 0.25539 -0.34918
 C25 C -0.22501 0.76535 -0.54252
 C26 C -0.22644 0.76828 -0.45428
 C27 C -0.25146 0.75172 -0.41325
 C28 C -0.27531 0.72995 -0.45697
 C29 C -0.27405 0.72832 -0.54701
 C30 C -0.24852 0.74461 -0.58710
 H31 H -0.24734 0.74401 -0.65504
 H32 H -0.25152 0.75389 -0.34533
 O33 O -0.03975 0.91672 0.16606
 O34 O -0.07173 0.96009 0.08000
 C35 C -0.06562 0.92882 0.14252
 O36 O 0.04005 1.10878 0.13544
 O37 O 0.07172 1.05357 0.06497
 C38 C 0.06583 1.09343 0.11567
 O39 O -0.04005 1.10364 0.14474
 O40 O -0.07177 1.05098 0.06973
 C41 C -0.06584 1.08843 0.12461
 O42 O 0.04027 0.91173 0.15801
 O43 O 0.07192 0.95910 0.07595
 C44 C 0.06605 0.92495 0.13503
 Zr45 Zr 0.00015 0.93940 0.11345
 O46 O 0.00235 0.94370 0.24580
 O47 O -0.00096 0.85372 0.11315
 Zr48 Zr -0.00005 1.07582 0.09843
 O49 O 0.00145 1.07801 0.23086
 O50 O -0.00293 1.16130 0.09056
 O51 O -0.02555 1.00836 0.12249
 O52 O 0.02509 1.00862 0.12107
 O53 O 0.04014 0.89586 -0.13436
 O54 O 0.07178 0.95235 -0.06576
 C55 C 0.06594 0.91225 -0.11611
 O56 O -0.04070 1.08465 -0.16573
 O57 O -0.07217 1.04376 -0.07536
 C58 C -0.06644 1.07337 -0.13985
 O59 O 0.03969 1.09081 -0.16050
 O60 O 0.07153 1.04617 -0.07570
 C61 C 0.06552 1.07882 -0.13641
 O62 O -0.04027 0.89980 -0.14217
 O63 O -0.07182 0.95316 -0.06804
 C64 C -0.06602 0.91573 -0.12295
 Zr65 Zr -0.00011 0.92792 -0.09646
 O66 O 0.00289 0.91909 -0.22832
 O67 O -0.00272 0.84273 -0.08256
 Zr68 Zr -0.00038 1.06471 -0.11240
 O69 O 0.00226 1.06268 -0.24473
 O70 O -0.00369 1.15038 -0.11475
 Zr71 Zr -0.04307 1.00187 0.00114
 Zr72 Zr 0.04286 1.00244 0.00026
 O73 O 0.02457 0.99562 -0.12017
 O74 O -0.02578 0.99525 -0.12078
 O75 O 0.02588 0.92349 0.00953
 O76 O -0.02530 1.08008 -0.00787
 O77 O -0.02523 0.92377 0.00992
 O78 O 0.02551 1.08114 -0.00859
 H79 H 0.03794 1.01127 0.17044
 H80 H -0.03840 1.11164 -0.01134
 H81 H 0.03713 0.99281 -0.17011
 H82 H -0.03829 0.89212 0.01352
 H83 H 0.01190 1.17327 0.05041
 H84 H 0.01476 1.16553 -0.09458
 H85 H -0.00951 1.03167 -0.26415
 H86 H -0.01261 0.94103 -0.25339
 H87 H 0.01267 0.83190 -0.04335
 H88 H -0.00099 0.84284 0.17280
 H89 H -0.00823 0.97673 0.26314
 H90 H 0.00139 1.11687 0.24728
 O91 O 0.46083 0.40794 0.15863
 O92 O 0.42888 0.45482 0.07709
 C93 C 0.43497 0.42131 0.13673
 O94 O 0.54013 0.60210 0.14453
 O95 O 0.57195 0.54952 0.06992
 C96 C 0.56596 0.58778 0.12344
 O97 O 0.46005 0.59663 0.15259
 O98 O 0.42862 0.54546 0.07426
 C99 C 0.43434 0.58144 0.13159
 O100 O 0.54080 0.40313 0.14908
 O101 O 0.57235 0.45469 0.07302
 C102 C 0.56654 0.41773 0.12792
 Zr103 Zr 0.50066 0.43296 0.10824
 O104 O 0.50304 0.43287 0.24068
 O105 O 0.49955 0.34735 0.10080
 Zr106 Zr 0.50009 0.56997 0.10508
 O107 O 0.50141 0.56686 0.23739
 O108 O 0.49718 0.65563 0.10512
 O109 O 0.47480 0.50142 0.12306
 O110 O 0.52541 0.50209 0.12202
 O111 O 0.54057 0.39948 -0.14427
 O112 O 0.57220 0.45216 -0.06874
 C113 C 0.56635 0.41458 -0.12356
 O114 O 0.45998 0.58680 -0.15993
 O115 O 0.42841 0.54299 -0.07328
 C116 C 0.43420 0.57438 -0.13575
 O117 O 0.54036 0.59300 -0.15264
 O118 O 0.57221 0.54634 -0.07039
 C119 C 0.56620 0.58034 -0.12930
 O120 O 0.45991 0.40314 -0.14934
 O121 O 0.42818 0.45318 -0.07014
 C122 C 0.43408 0.41780 -0.12816
 Zr123 Zr 0.50036 0.42928 -0.10238
 O124 O 0.50281 0.42519 -0.23481
 O125 O 0.49809 0.34365 -0.09615
 Zr126 Zr 0.50008 0.56660 -0.10596
 O127 O 0.50155 0.57365 -0.23777
 O128 O 0.49688 0.65216 -0.09670
 Zr129 Zr 0.45740 0.49919 0.00127
 Zr130 Zr 0.54323 0.50032 0.00097
 O131 O 0.52502 0.49785 -0.11989
 O132 O 0.47481 0.49733 -0.12085
 O133 O 0.52636 0.42105 0.00306
 O134 O 0.47487 0.57785 -0.00086
 O135 O 0.47533 0.42097 0.00345
 O136 O 0.52584 0.57928 -0.00097
 H137 H 0.53833 0.50298 0.17138
 H138 H 0.46158 0.60919 -0.00209
 H139 H 0.53759 0.49671 -0.16993
 H140 H 0.46231 0.38918 0.00438
 H141 H 0.51155 0.66908 0.06470
 H142 H 0.51613 0.66650 -0.08245
 H143 H 0.50192 0.53631 -0.26066
 H144 H 0.48740 0.44852 -0.25733
 H145 H 0.51356 0.33159 -0.05810
 H146 H 0.49958 0.33437 0.15941
 H147 H 0.49182 0.46444 0.26083
 H148 H 0.50140 0.60503 0.25741
 C149 C 0.34304 0.32761 0.31504
 N150 N 0.31643 0.34984 0.31142
 N151 N 0.29494 0.32921 0.35600
 C152 C 0.29929 0.28575 0.40604
 N153 N 0.32572 0.26270 0.40814
 N154 N 0.34727 0.28351 0.36390
 C155 C 0.36688 0.35137 0.26773
 N156 N 0.39418 0.33394 0.27973
 N157 N 0.41588 0.35624 0.23795
 C158 C 0.41104 0.39661 0.18237
 N159 N 0.38371 0.41390 0.17011
 N160 N 0.36204 0.39179 0.21223
 C161 C -0.15714 0.83331 0.32067
 N162 N -0.15170 0.80058 0.38673
 N163 N -0.17317 0.77863 0.42992
 C164 C -0.20087 0.78869 0.40906
 N165 N -0.20627 0.82078 0.34206
 N166 N -0.18482 0.84278 0.29879
 C167 C -0.13344 0.85830 0.27422
 N168 N -0.13873 0.89173 0.20879
 N169 N -0.11714 0.91448 0.16699
 C170 C -0.08950 0.90467 0.18922
 N171 N -0.08425 0.87131 0.25469
 N172 N -0.10581 0.84859 0.29647
 C173 C 0.65844 0.68362 0.29911
 N174 N 0.65353 0.71257 0.37043
 N175 N 0.67526 0.72775 0.41967
 C176 C 0.70273 0.71388 0.40036
 N177 N 0.70761 0.68736 0.32657
 N178 N 0.68591 0.67202 0.27743
 C179 C 0.63442 0.66210 0.24922
 N180 N 0.63932 0.62692 0.18483
 N181 N 0.61752 0.60405 0.14359
 C182 C 0.58999 0.61562 0.16510
 N183 N 0.58508 0.65131 0.22882
 N184 N 0.60689 0.67403 0.27025
 C185 C 0.15852 1.18666 0.29270
 N186 N 0.15367 1.21509 0.36454
 N187 N 0.17539 1.22895 0.41473
 C188 C 0.20276 1.21421 0.39585
 N189 N 0.20760 1.18806 0.32173
 N190 N 0.18592 1.17403 0.27166
 C191 C 0.13450 1.16645 0.24172
 N192 N 0.13928 1.13096 0.17768
 N193 N 0.11740 1.10878 0.13592
 C194 C 0.08993 1.12147 0.15645
 N195 N 0.08515 1.15760 0.21966
 N196 N 0.10703 1.17960 0.26166
 C197 C 0.65885 0.32789 -0.30980
 N198 N 0.68550 0.32204 -0.27680
 N199 N 0.70697 0.30303 -0.32381
 C200 C 0.70290 0.28975 -0.40607
 N201 N 0.67615 0.29623 -0.43838
 N202 N 0.65459 0.31463 -0.39145
 C203 C 0.63491 0.34841 -0.25879
 N204 N 0.60748 0.34203 -0.28585
 N205 N 0.58564 0.36188 -0.24141
 C206 C 0.59041 0.38922 -0.16852
 N207 N 0.61785 0.39556 -0.14126
 N208 N 0.63971 0.37518 -0.18534
 C209 C 0.15793 0.82021 -0.29834
 N210 N 0.18383 0.84547 -0.29866
 N211 N 0.20498 0.82741 -0.34762
 C212 C 0.20093 0.78367 -0.39848
 N213 N 0.17526 0.75763 -0.39683
 N214 N 0.15405 0.77583 -0.34811
 C215 C 0.13429 0.84173 -0.24700
 N216 N 0.10738 0.82100 -0.25422
 N217 N 0.08567 0.84258 -0.21095
 C218 C 0.09013 0.88545 -0.15849
 N219 N 0.11710 0.90574 -0.15058
 N220 N 0.13877 0.88431 -0.19406
 C221 C 0.34079 0.65885 -0.31846
 N222 N 0.31549 0.67066 -0.28052
 N223 N 0.29379 0.69137 -0.32432
 C224 C 0.29630 0.70073 -0.40805
 N225 N 0.32167 0.68809 -0.44532
 N226 N 0.34348 0.66791 -0.40169
 C227 C 0.36502 0.63711 -0.27052
 N228 N 0.39192 0.63776 -0.30318
 N229 N 0.41402 0.61823 -0.25991
 C230 C 0.40996 0.59686 -0.18270
 N231 N 0.38303 0.59599 -0.15016
 N232 N 0.36097 0.61603 -0.19310
 C233 C -0.16018 1.15812 -0.32002
 N234 N -0.17915 1.19253 -0.28316
 N235 N -0.20014 1.21492 -0.32790
 C236 C -0.20311 1.20387 -0.41130
 N237 N -0.18478 1.16727 -0.44628
 N238 N -0.16352 1.14553 -0.40222
 C239 C -0.13595 1.13590 -0.27288
 N240 N -0.11099 1.12370 -0.31265
 N241 N -0.08870 1.10429 -0.27011
 C242 C -0.09075 1.09558 -0.18648
 N243 N -0.11580 1.10735 -0.14678
 N244 N -0.13794 1.12765 -0.18909
 C245 C 0.65915 0.66386 -0.31428
 N246 N 0.66094 0.65290 -0.39747
 N247 N 0.68223 0.67335 -0.44302
 C248 C 0.70214 0.70702 -0.40845
 N249 N 0.70059 0.71651 -0.32424
 N250 N 0.67961 0.69536 -0.27809
 C251 C 0.63503 0.64299 -0.26519
 N252 N 0.60914 0.63480 -0.30216
 N253 N 0.58706 0.61601 -0.25811
 C254 C 0.59017 0.60404 -0.17576
 N255 N 0.61612 0.61189 -0.13878
 N256 N 0.63810 0.63161 -0.18254
 C257 C 0.15850 1.16363 -0.32017
 N258 N 0.16059 1.15273 -0.40331
 N259 N 0.18195 1.17346 -0.44827
 C260 C 0.20167 1.20734 -0.41314
 N261 N 0.19981 1.21684 -0.32900
 N262 N 0.17875 1.19542 -0.28344
 C263 C 0.13438 1.14217 -0.27162
 N264 N 0.10872 1.13279 -0.30933
 N265 N 0.08663 1.11355 -0.26571
 C266 C 0.08954 1.10225 -0.18306
 N267 N 0.11527 1.11128 -0.14536
 N268 N 0.13723 1.13142 -0.18871
 C269 C 0.34126 0.32845 -0.31082
 N270 N 0.31390 0.34497 -0.29629
 N271 N 0.29232 0.32585 -0.34290
 C272 C 0.29736 0.28986 -0.40618
 N273 N 0.32465 0.27272 -0.41945
 N274 N 0.34621 0.29179 -0.37301
 C275 C 0.36526 0.35049 -0.26143
 N276 N 0.39262 0.33497 -0.27835
 N277 N 0.41454 0.35594 -0.23527
 C278 C 0.40988 0.39316 -0.17359
 N279 N 0.38250 0.40852 -0.15641
 N280 N 0.36058 0.38757 -0.19953
 C281 C -0.15900 0.82646 -0.30486
 N282 N -0.18479 0.85209 -0.30525
 N283 N -0.20622 0.83364 -0.35296
 C284 C -0.20255 0.78910 -0.40242
 N285 N -0.17704 0.76264 -0.40022
 N286 N -0.15556 0.78122 -0.35287
 C287 C -0.13502 0.84808 -0.25498
 N288 N -0.10820 0.82718 -0.26359
 N289 N -0.08623 0.84819 -0.22073
 C290 C -0.09032 0.89066 -0.16732
 N291 N -0.11718 0.91124 -0.15824
 N292 N -0.13911 0.89042 -0.20139
 C293 C 0.34079 0.67315 0.30728
 N294 N 0.31534 0.64638 0.30944
 N295 N 0.29378 0.66490 0.35640
 C296 C 0.29693 0.71086 0.40286
 N297 N 0.32210 0.73853 0.39903
 N298 N 0.34373 0.71977 0.35246
 C299 C 0.36498 0.65082 0.25929
 N300 N 0.39183 0.67143 0.26885
 N301 N 0.41396 0.64955 0.22787
 C302 C 0.40999 0.60644 0.17556
 N303 N 0.38311 0.58612 0.16558
 N304 N 0.36103 0.60777 0.20693
 C305 C -0.15907 1.18149 0.29937
 N306 N -0.18642 1.16952 0.27665
 N307 N -0.20836 1.18442 0.32508
 C308 C -0.20383 1.21088 0.39910
 N309 N -0.17648 1.22510 0.41945
 N310 N -0.15452 1.21037 0.37093
 C311 C -0.13482 1.16041 0.25037
 N312 N -0.10741 1.17261 0.27245
 N313 N -0.08539 1.15043 0.23142
 C314 C -0.09000 1.11500 0.16717
 N315 N -0.11741 1.10311 0.14474
 N316 N -0.13942 1.12543 0.18556
 C317 C 0.65774 0.32304 0.30777
 N318 N 0.68306 0.34985 0.31552
 N319 N 0.70399 0.33008 0.36317
 C320 C 0.70033 0.28289 0.40492
 N321 N 0.67525 0.25538 0.39586
 N322 N 0.65423 0.27537 0.34863
 C323 C 0.63433 0.34608 0.25788
 N324 N 0.60742 0.32526 0.26261
 N325 N 0.58591 0.34770 0.22023
 C326 C 0.59057 0.39151 0.17104
 N327 N 0.61755 0.41200 0.16560
 N328 N 0.63902 0.38978 0.20846
 C329 C 0.15764 0.83556 0.32040
 N330 N 0.15206 0.80415 0.38791
 N331 N 0.17342 0.78357 0.43308
 C332 C 0.20118 0.79374 0.41293
 N333 N 0.20672 0.82489 0.34491
 N334 N 0.18537 0.84558 0.29970
 C335 C 0.13399 0.85815 0.27082
 N336 N 0.13927 0.89147 0.20522
 N337 N 0.11767 0.91240 0.16121
 C338 C 0.09003 0.90058 0.18106
 N339 N 0.08481 0.86710 0.24642
 N340 N 0.10636 0.84627 0.29045
   
