data_POSCAR
  _audit_creation_date              2014-09-24
  _audit_creation_method            'ToBaCCo'
  _symmetry_space_group_name_H-M    'P1'
  _symmetry_Int_Tables_number       1
  _symmetry_cell_setting            triclinic
  loop_
  _symmetry_equiv_pos_as_xyz
 x,y,z
_cell_length_a 47.1685
_cell_length_b 47.3644
_cell_length_c 8.8415
_cell_angle_alpha 89.999300
_cell_angle_beta 90.000900
_cell_angle_gamma 90.060600
loop_
  _atom_site_label
  _atom_site_type_symbol
  _atom_site_fract_x
  _atom_site_fract_y
  _atom_site_fract_z
C1 C 0.16235 0.23459 0.15531
 C2 C 0.16215 0.26349 0.16249
 C3 C 0.18972 0.27185 0.19387
 N4 N 0.20664 0.24896 0.20630
 C5 C 0.19004 0.22610 0.18303
 C6 C 0.19869 0.30026 0.20583
 C7 C 0.22701 0.30909 0.23103
 C8 C 0.23611 0.33690 0.22072
 C9 C 0.26471 0.33693 0.24939
 C10 C 0.27249 0.30914 0.27665
 N11 N 0.24926 0.29238 0.26769
 C12 C 0.30060 0.30037 0.30794
 C13 C 0.30975 0.27198 0.31477
 C14 C 0.33756 0.26368 0.33950
 C15 C 0.33786 0.23478 0.33246
 C16 C 0.31018 0.22624 0.30406
 N17 N 0.29314 0.24906 0.29338
 C18 C 0.30118 0.19777 0.29380
 C19 C 0.27273 0.18895 0.27065
 C20 C 0.26349 0.16121 0.28391
 C21 C 0.23491 0.16117 0.25529
 C22 C 0.22719 0.18890 0.22502
 N23 N 0.25051 0.20561 0.23234
 C24 C 0.19910 0.19765 0.19156
 H25 H 0.14410 0.22132 0.13337
 H26 H 0.14379 0.27681 0.14551
 H27 H 0.25160 0.22665 0.20130
 H28 H 0.22354 0.35530 0.19339
 H29 H 0.27828 0.35537 0.24819
 H30 H 0.35581 0.27703 0.35952
 H31 H 0.35635 0.22155 0.34766
 H32 H 0.22129 0.14278 0.25831
 H33 H 0.24828 0.27119 0.29553
 H34 H 0.27599 0.14284 0.31305
 C35 C 0.66321 0.26482 0.34436
 C36 C 0.66292 0.23591 0.33697
 C37 C 0.69045 0.22752 0.30519
 N38 N 0.70744 0.25039 0.29284
 C39 C 0.69091 0.27323 0.31650
 C40 C 0.69935 0.19912 0.29254
 C41 C 0.72764 0.19031 0.26651
 C42 C 0.73670 0.16250 0.27606
 C43 C 0.76529 0.16251 0.24703
 C44 C 0.77311 0.19033 0.22029
 N45 N 0.74990 0.20706 0.22985
 C46 C 0.80122 0.19916 0.18895
 C47 C 0.81040 0.22756 0.18208
 C48 C 0.83820 0.23591 0.15687
 C49 C 0.83854 0.26481 0.16408
 C50 C 0.81090 0.27332 0.19309
 N51 N 0.79384 0.25047 0.20390
 C52 C 0.80194 0.30178 0.20407
 C53 C 0.77353 0.31054 0.22834
 C54 C 0.76425 0.33827 0.21598
 C55 C 0.73568 0.33821 0.24520
 C56 C 0.72804 0.31045 0.27487
 N57 N 0.75134 0.29380 0.26679
 C58 C 0.70001 0.30164 0.30815
 H59 H 0.64503 0.27810 0.36674
 H60 H 0.64452 0.22260 0.35401
 H61 H 0.75244 0.27273 0.29712
 H62 H 0.72412 0.14407 0.30336
 H63 H 0.77884 0.14409 0.24776
 H64 H 0.85642 0.22258 0.13628
 H65 H 0.85703 0.27806 0.14868
 H66 H 0.72203 0.35656 0.24299
 H67 H 0.74895 0.22827 0.20238
 H68 H 0.77673 0.35670 0.18708
 C69 C 0.83827 0.76508 0.83635
 C70 C 0.83793 0.73618 0.84354
 C71 C 0.81018 0.72783 0.81717
 N72 N 0.79364 0.75073 0.79463
 C73 C 0.81067 0.77358 0.80621
 C74 C 0.80102 0.69943 0.80948
 C75 C 0.77295 0.69063 0.77716
 C76 C 0.76520 0.66288 0.74826
 C77 C 0.73660 0.66288 0.71953
 C78 C 0.72747 0.69063 0.73149
 N79 N 0.74970 0.70734 0.76913
 C80 C 0.69912 0.69941 0.70723
 C81 C 0.69017 0.72780 0.69598
 C82 C 0.66256 0.73620 0.66625
 C83 C 0.66284 0.76511 0.65900
 C84 C 0.69060 0.77352 0.68491
 N85 N 0.70719 0.75067 0.70718
 C86 C 0.69973 0.80192 0.69237
 C87 C 0.72781 0.81076 0.72443
 C88 C 0.73553 0.83854 0.75262
 C89 C 0.76411 0.83860 0.78137
 C90 C 0.77333 0.81083 0.77019
 N91 N 0.75109 0.79408 0.73290
 C92 C 0.80173 0.80205 0.79474
 H93 H 0.85674 0.77833 0.85247
 H94 H 0.85614 0.72285 0.86465
 H95 H 0.75212 0.77295 0.70376
 H96 H 0.77879 0.64449 0.74616
 H97 H 0.72404 0.64448 0.69119
 H98 H 0.64412 0.72290 0.65041
 H99 H 0.64460 0.77840 0.63813
 H100 H 0.77663 0.85705 0.80938
 H101 H 0.74868 0.72845 0.79872
 H102 H 0.72191 0.85692 0.75445
 C103 C 0.16148 0.73538 0.84526
 C104 C 0.16124 0.76427 0.83811
 C105 C 0.18886 0.77273 0.80769
 N106 N 0.20582 0.74984 0.79590
 C107 C 0.18922 0.72695 0.81852
 C108 C 0.19785 0.80120 0.79608
 C109 C 0.22625 0.80999 0.77112
 C110 C 0.23552 0.83777 0.78214
 C111 C 0.26409 0.83773 0.75296
 C112 C 0.27174 0.80995 0.72467
 N113 N 0.24845 0.79325 0.73353
 C114 C 0.29979 0.80114 0.69220
 C115 C 0.30888 0.77275 0.68458
 C116 C 0.33660 0.76436 0.65801
 C117 C 0.33685 0.73545 0.66524
 C118 C 0.30925 0.72703 0.69559
 N119 N 0.29227 0.74988 0.70730
 C120 C 0.30027 0.69863 0.70712
 C121 C 0.27194 0.68980 0.73202
 C122 C 0.26284 0.66201 0.72068
 C123 C 0.23426 0.66195 0.74958
 C124 C 0.22644 0.68972 0.77815
 N125 N 0.24969 0.70647 0.76962
 C126 C 0.19832 0.69848 0.81068
 H127 H 0.14324 0.72209 0.86674
 H128 H 0.14283 0.77755 0.85450
 H129 H 0.25072 0.72761 0.79871
 H130 H 0.22304 0.85621 0.81028
 H131 H 0.27773 0.85612 0.75444
 H132 H 0.35484 0.77766 0.63653
 H133 H 0.35525 0.72216 0.64896
 H134 H 0.22070 0.64349 0.74789
 H135 H 0.24736 0.77211 0.70458
 H136 H 0.27540 0.64364 0.69250
 O137 O 1.02813 0.03127 -0.09556
 O138 O 0.97277 -0.02243 -0.15665
 O139 O 0.97294 0.03139 -0.09606
 O140 O 1.02798 -0.02256 -0.15604
 O141 O 1.02785 -0.03195 0.08896
 O142 O 0.97280 0.02201 0.14894
 O143 O 0.97266 -0.03181 0.08836
 O144 O 1.02804 0.02189 0.14945
 Cu145 Cu 1.00047 0.00540 -0.15047
 Cu146 Cu 1.00033 -0.00594 0.14340
 C147 C 1.03742 0.03567 0.03698
 C148 C 0.96338 -0.03621 -0.04422
 C149 C 0.96358 0.03582 0.03629
 C150 C 1.03718 -0.03640 -0.04344
 O151 O 0.52746 0.53174 0.41136
 O152 O 0.47235 0.47776 0.35003
 O153 O 0.47226 0.53159 0.41069
 O154 O 0.52759 0.47795 0.35009
 O155 O 0.52753 0.46850 0.59503
 O156 O 0.47220 0.52214 0.65564
 O157 O 0.47233 0.46832 0.59496
 O158 O 0.52741 0.52228 0.65627
 Cu159 Cu 0.49992 0.50574 0.35610
 Cu160 Cu 0.49986 0.49432 0.64989
 C161 C 0.53672 0.53614 0.54396
 C162 C 0.46306 0.46390 0.46241
 C163 C 0.46290 0.53594 0.54314
 C164 C 0.53690 0.46416 0.46261
 O165 O 0.02768 0.47772 0.15638
 O166 O -0.02742 0.53158 0.09564
 O167 O -0.02753 0.47774 0.15583
 O168 O 0.02777 0.53155 0.09581
 O169 O 0.02783 0.52220 -0.14924
 O170 O -0.02747 0.46838 -0.08920
 O171 O -0.02740 0.52223 -0.14940
 O172 O 0.02772 0.46836 -0.08865
 Cu173 Cu 0.00012 0.50563 0.15034
 Cu174 Cu 0.00018 0.49432 -0.14360
 C175 C 0.03699 0.46392 0.04390
 C176 C -0.03671 0.53601 -0.03685
 C177 C -0.03682 0.46395 0.04321
 C178 C 0.03713 0.53598 -0.03658
 O179 O 0.47194 1.03188 0.58837
 O180 O 0.52718 0.97817 0.64982
 O181 O 0.52714 1.03196 0.58873
 O182 O 0.47194 0.97808 0.64943
 O183 O 0.47202 0.96860 0.40453
 O184 O 0.52722 1.02247 0.34385
 O185 O 0.52722 0.96869 0.40494
 O186 O 0.47199 1.02239 0.34348
 Cu187 Cu 0.49954 1.00601 0.64358
 Cu188 Cu 0.49962 0.99455 0.34980
 C189 C 0.46265 1.03621 0.45579
 C190 C 0.53653 0.96436 0.53748
 C191 C 0.53649 1.03632 0.45627
 C192 C 0.46266 0.96423 0.53696
 C193 C 1.17895 0.17703 0.17250
 C194 C 1.16116 0.15899 0.15589
 C195 C 1.13984 0.13757 0.13626
 C196 C 1.14706 0.10898 0.14841
 C197 C 1.12629 0.08817 0.12934
 C198 C 1.09822 0.09589 0.09815
 C199 C 1.09102 0.12449 0.08591
 C200 C 1.11178 0.14529 0.10497
 C201 C 1.07685 0.07452 0.07776
 C202 C 1.05888 0.05672 0.05978
 H203 H 1.16870 0.10279 0.17251
 H204 H 1.13210 0.06612 0.13887
 H205 H 1.06939 0.13070 0.06166
 H206 H 1.10598 0.16735 0.09527
 C207 C 0.67787 0.67762 0.68592
 C208 C 0.66013 0.65957 0.66852
 C209 C 0.63887 0.63812 0.64795
 C210 C 0.61022 0.64457 0.67110
 C211 C 0.58951 0.62376 0.65088
 C212 C 0.59737 0.59642 0.60747
 C213 C 0.62603 0.58997 0.58430
 C214 C 0.64675 0.61078 0.60454
 C215 C 0.57603 0.57506 0.58589
 C216 C 0.55810 0.55725 0.56712
 H217 H 0.60391 0.66566 0.70460
 H218 H 0.56741 0.62898 0.66892
 H219 H 0.63234 0.56890 0.55055
 H220 H 0.66885 0.60559 0.58630
 C221 C -0.17796 0.32240 0.18370
 C222 C -0.16023 0.34046 0.16598
 C223 C -0.13899 0.36191 0.14501
 C224 C -0.11084 0.35422 0.11603
 C225 C -0.09014 0.37505 0.09591
 C226 C -0.09751 0.40365 0.10477
 C227 C -0.12568 0.41134 0.13351
 C228 C -0.14638 0.39051 0.15362
 C229 C -0.07619 0.42505 0.08391
 C230 C -0.05825 0.44287 0.06578
 H231 H -0.10491 0.33216 0.10911
 H232 H -0.06843 0.36887 0.07359
 H233 H -0.13161 0.43340 0.14043
 H234 H -0.16810 0.39667 0.17592
 C235 C 0.32111 0.82292 0.67211
 C236 C 0.33890 0.84095 0.65560
 C237 C 0.36023 0.86236 0.63603
 C238 C 0.35300 0.89096 0.64779
 C239 C 0.37378 0.91176 0.62877
 C240 C 0.40186 0.90402 0.59802
 C241 C 0.40907 0.87542 0.58615
 C242 C 0.38830 0.85463 0.60516
 C243 C 0.42324 0.92538 0.57759
 C244 C 0.44121 0.94318 0.55963
 H245 H 0.33135 0.89716 0.67151
 H246 H 0.36797 0.93382 0.63791
 H247 H 0.43071 0.86921 0.56217
 H248 H 0.39410 0.83257 0.59575
 C249 C -0.17771 0.67763 -0.17080
 C250 C -0.15998 0.65958 -0.15450
 C251 C -0.13873 0.63812 -0.13517
 C252 C -0.11061 0.64578 -0.10485
 C253 C -0.08992 0.62494 -0.08604
 C254 C -0.09728 0.59635 -0.09754
 C255 C -0.12542 0.58869 -0.12780
 C256 C -0.14611 0.60953 -0.14662
 C257 C -0.07599 0.57493 -0.07732
 C258 C -0.05809 0.55710 -0.05948
 H259 H -0.10469 0.66782 -0.09576
 H260 H -0.06824 0.63110 -0.06248
 H261 H -0.13134 0.56664 -0.13671
 H262 H -0.16780 0.60339 -0.17000
 C263 C 0.32129 1.17719 0.31395
 C264 C 0.33903 1.15917 0.33152
 C265 C 0.36031 1.13781 0.35242
 C266 C 0.35296 1.10918 0.34407
 C267 C 0.37371 1.08844 0.36430
 C268 C 0.40187 1.09625 0.39286
 C269 C 0.40918 1.12489 0.40138
 C270 C 0.38845 1.14562 0.38114
 C271 C 0.42323 1.07495 0.41418
 C272 C 0.44120 1.05721 0.43270
 H273 H 0.33125 1.10293 0.32203
 H274 H 0.36781 1.06636 0.35767
 H275 H 0.43088 1.13116 0.42358
 H276 H 0.39433 1.16770 0.38792
 C277 C 1.17779 -0.17819 -0.18360
 C278 C 1.16010 -0.16012 -0.16595
 C279 C 1.13892 -0.13865 -0.14511
 C280 C 1.14640 -0.11007 -0.15414
 C281 C 1.12576 -0.08920 -0.13411
 C282 C 1.09758 -0.09686 -0.10508
 C283 C 1.09012 -0.12545 -0.09592
 C284 C 1.11075 -0.14630 -0.11596
 C285 C 1.07634 -0.07542 -0.08414
 C286 C 1.05849 -0.05755 -0.06601
 H287 H 1.16813 -0.10393 -0.17664
 H288 H 1.13177 -0.06716 -0.14128
 H289 H 1.06840 -0.13160 -0.07338
 H290 H 1.10475 -0.16835 -0.10877
 C291 C 0.67870 0.32338 0.32809
 C292 C 0.66089 0.34136 0.34445
 C293 C 0.63952 0.36269 0.36378
 C294 C 0.64668 0.39131 0.35146
 C295 C 0.62586 0.41203 0.37035
 C296 C 0.59781 0.40418 0.40161
 C297 C 0.59066 0.37556 0.41388
 C298 C 0.61147 0.35485 0.39499
 C299 C 0.57639 0.42546 0.42207
 C300 C 0.55839 0.44319 0.44001
 H301 H 0.66831 0.39759 0.32741
 H302 H 0.63162 0.43410 0.36078
 H303 H 0.56905 0.36926 0.43817
 H304 H 0.60572 0.33277 0.40481
 C305 C 0.82185 -0.17734 -0.18517
 C306 C 0.83961 -0.15931 -0.16767
 C307 C 0.86092 -0.13793 -0.14691
 C308 C 0.88904 -0.14572 -0.11792
 C309 C 0.90981 -0.12496 -0.09781
 C310 C 0.90254 -0.09633 -0.10673
 C311 C 0.87440 -0.08855 -0.13555
 C312 C 0.85363 -0.10931 -0.15566
 C313 C 0.92392 -0.07501 -0.08557
 C314 C 0.94191 -0.05723 -0.06717
 H315 H 0.89489 -0.16779 -0.11085
 H316 H 0.93150 -0.13122 -0.07541
 H317 H 0.86854 -0.06647 -0.14250
 H318 H 0.83193 -0.10308 -0.17792
 C319 C 0.32189 0.32218 0.32761
 C320 C 0.33966 0.34024 0.34390
 C321 C 0.36094 0.36170 0.36327
 C322 C 0.35360 0.39029 0.35249
 C323 C 0.37433 0.41114 0.37142
 C324 C 0.40247 0.40348 0.40114
 C325 C 0.40979 0.37489 0.41201
 C326 C 0.38908 0.35404 0.39308
 C327 C 0.42378 0.42491 0.42155
 C328 C 0.44169 0.44277 0.43954
 H329 H 0.33190 0.39643 0.32957
 H330 H 0.36843 0.43319 0.36301
 H331 H 0.43148 0.36873 0.43516
 H332 H 0.39496 0.33200 0.40172
 C333 C 0.17818 0.67785 -0.17033
 C334 C 0.16044 0.65976 -0.15390
 C335 C 0.13920 0.63825 -0.13458
 C336 C 0.14654 0.60969 -0.14728
 C337 C 0.12586 0.58879 -0.12853
 C338 C 0.09777 0.59637 -0.09705
 C339 C 0.09044 0.62494 -0.08434
 C340 C 0.11112 0.64583 -0.10308
 C341 C 0.07648 0.57491 -0.07678
 C342 C 0.05856 0.55706 -0.05900
 H343 H 0.16821 0.60361 -0.17153
 H344 H 0.13176 0.56676 -0.13839
 H345 H 0.06879 0.63104 -0.05981
 H346 H 0.10523 0.66786 -0.09294
 C347 C 0.67809 1.17735 0.31430
 C348 C 0.66032 1.15935 0.33219
 C349 C 0.63899 1.13799 0.35331
 C350 C 0.61090 1.14580 0.38296
 C351 C 0.59011 1.12507 0.40323
 C352 C 0.59734 1.09644 0.39383
 C353 C 0.62544 1.08862 0.36432
 C354 C 0.64623 1.10936 0.34405
 C355 C 0.57593 1.07513 0.41504
 C356 C 0.55795 1.05737 0.43344
 H357 H 0.60508 1.16789 0.39035
 H358 H 0.56845 1.13134 0.42616
 H359 H 0.63126 1.06654 0.35697
 H360 H 0.66790 1.10310 0.32117
 C361 C 0.17748 0.32204 0.18449
 C362 C 0.15982 0.34013 0.16709
 C363 C 0.13868 0.36165 0.14664
 C364 C 0.10993 0.35511 0.16587
 C365 C 0.08934 0.37601 0.14585
 C366 C 0.09742 0.40353 0.10664
 C367 C 0.12618 0.41007 0.08741
 C368 C 0.14677 0.38917 0.10747
 C369 C 0.07619 0.42496 0.08532
 C370 C 0.05833 0.44281 0.06682
 H371 H 0.10346 0.33390 0.19615
 H372 H 0.06717 0.37071 0.16082
 H373 H 0.13265 0.43127 0.05696
 H374 H 0.16895 0.39444 0.09242
 C375 C 0.67842 0.82367 0.67265
 C376 C 0.66059 0.84163 0.65637
 C377 C 0.63920 0.86295 0.63700
 C378 C 0.61113 0.85508 0.60669
 C379 C 0.59031 0.87577 0.58768
 C380 C 0.59746 0.90441 0.59898
 C381 C 0.62555 0.91228 0.62920
 C382 C 0.64638 0.89158 0.64822
 C383 C 0.57603 0.92567 0.57850
 C384 C 0.55802 0.94339 0.56042
 H385 H 0.60537 0.83299 0.59767
 H386 H 0.56867 0.86945 0.56418
 H387 H 0.63132 0.93436 0.63800
 H388 H 0.66803 0.89788 0.67150
 C389 C 0.82249 0.17737 0.16915
 C390 C 0.84024 0.15933 0.15292
 C391 C 0.86151 0.13789 0.13376
 C392 C 0.85417 0.10930 0.14543
 C393 C 0.87488 0.08847 0.12675
 C394 C 0.90301 0.09616 0.09646
 C395 C 0.91033 0.12476 0.08473
 C396 C 0.88962 0.14558 0.10340
 C397 C 0.92431 0.07476 0.07633
 C398 C 0.94222 0.05693 0.05865
 H399 H 0.83248 0.10313 0.16881
 H400 H 0.86898 0.06642 0.13579
 H401 H 0.93201 0.13093 0.06111
 H402 H 0.89551 0.16763 0.09411
 C403 C 0.32150 0.67688 0.68517
 C404 C 0.33925 0.65890 0.66715
 C405 C 0.36054 0.63755 0.64586
 C406 C 0.38865 0.64537 0.61637
 C407 C 0.40940 0.62465 0.59603
 C408 C 0.40212 0.59601 0.60519
 C409 C 0.37399 0.58818 0.63446
 C410 C 0.35324 0.60891 0.65479
 C411 C 0.42349 0.57471 0.58415
 C412 C 0.44146 0.55696 0.56587
 H413 H 0.39451 0.66746 0.60926
 H414 H 0.43108 0.63094 0.57329
 H415 H 0.36813 0.56610 0.64160
 H416 H 0.33156 0.60264 0.67755
   
