data_POSCAR
  _audit_creation_date              2014-09-24
  _audit_creation_method            'ToBaCCo'
  _symmetry_space_group_name_H-M    'P1'
  _symmetry_Int_Tables_number       1
  _symmetry_cell_setting            triclinic
  loop_
  _symmetry_equiv_pos_as_xyz
 x,y,z
_cell_length_a 20.9039
_cell_length_b 20.1793
_cell_length_c 23.1728
_cell_angle_alpha 89.818500
_cell_angle_beta 91.945800
_cell_angle_gamma 124.345100
loop_
  _atom_site_label
  _atom_site_type_symbol
  _atom_site_fract_x
  _atom_site_fract_y
  _atom_site_fract_z
O1 O 0.36103 0.54627 0.29858
 O2 O 0.23834 0.53827 0.32778
 C3 C 0.20270 0.56960 0.34067
 O4 O 0.20578 0.62409 0.31089
 O5 O 0.34023 0.76349 0.31736
 C6 C 0.41390 0.80709 0.31876
 O7 O 0.45405 0.79966 0.28256
 O8 O 0.46009 0.67570 0.29941
 C9 C 0.42678 0.60504 0.31815
 O10 O 0.31163 0.52713 0.18629
 O11 O 0.18696 0.51607 0.21545
 C12 C 0.17148 0.55936 0.18615
 O13 O 0.20642 0.63448 0.19509
 O14 O 0.33394 0.77824 0.20234
 C15 C 0.38316 0.79032 0.16589
 O16 O 0.42034 0.75801 0.16919
 O17 O 0.43226 0.63712 0.18580
 C18 C 0.37834 0.56835 0.16572
 Cr19 Cr 0.27652 0.53628 0.25671
 Cr20 Cr 0.27362 0.69817 0.25622
 Cr21 Cr 0.43754 0.71506 0.23473
 O22 O 0.32935 0.64959 0.24924
 O23 O 0.53950 0.32383 0.70017
 O24 O 0.54617 0.20024 0.71692
 C25 C 0.58642 0.19296 0.68074
 O26 O 0.66007 0.23674 0.68213
 O27 O 0.79418 0.37638 0.68837
 C28 C 0.79730 0.43104 0.65880
 O29 O 0.76166 0.46232 0.67185
 O30 O 0.63838 0.45334 0.70069
 C31 C 0.57263 0.39440 0.68128
 O32 O 0.56722 0.36223 0.81381
 O33 O 0.57986 0.24180 0.83026
 C34 C 0.61740 0.20988 0.83359
 O35 O 0.66683 0.22233 0.79720
 O36 O 0.79420 0.36633 0.80411
 C37 C 0.82838 0.44126 0.81310
 O38 O 0.81246 0.48453 0.78435
 O39 O 0.68745 0.47277 0.81308
 C40 C 0.62084 0.43119 0.83376
 Cr41 Cr 0.56237 0.28463 0.76479
 Cr42 Cr 0.72674 0.30233 0.74317
 Cr43 Cr 0.72296 0.46387 0.74280
 O44 O 0.67061 0.35055 0.75028
 C45 C 0.45645 -0.12983 0.36358
 C46 C 0.41942 -0.11816 0.40735
 C47 C 0.46196 -0.05718 0.45422
 C48 C 0.42316 -0.03033 0.48405
 C49 C 0.46108 0.02679 0.52877
 C50 C 0.53858 0.05739 0.54523
 C51 C 0.57739 0.03056 0.51540
 C52 C 0.53947 -0.02657 0.47067
 C53 C 0.58109 0.11835 0.59212
 C54 C 0.54399 0.12984 0.63593
 H55 H 0.35660 -0.15361 0.40644
 H56 H 0.36351 -0.05292 0.47221
 H57 H 0.42971 0.04762 0.54941
 H58 H 0.63704 0.05314 0.52723
 H59 H 0.57084 -0.04739 0.45003
 H60 H 0.64390 0.15391 0.59300
 H61 H 0.51894 -0.09191 0.36171
 H62 H 0.48151 0.09177 0.63783
 C63 C 1.15425 0.53940 0.39158
 C64 C 1.10622 0.56409 0.40584
 C65 C 1.05257 0.53100 0.45432
 C66 C 0.99076 0.54009 0.45413
 C67 C 0.93849 0.50962 0.49875
 C68 C 0.94759 0.47010 0.54515
 C69 C 1.00942 0.46104 0.54536
 C70 C 1.06169 0.49152 0.50074
 C71 C 0.89389 0.43689 0.59360
 C72 C 0.84578 0.46145 0.60790
 H73 H 1.10465 0.60663 0.37821
 H74 H 0.98227 0.57011 0.41887
 H75 H 0.89064 0.51621 0.49601
 H76 H 1.01791 0.43102 0.58061
 H77 H 1.10954 0.48493 0.50350
 H78 H 0.89547 0.39431 0.62117
 H79 H 1.15376 0.49356 0.41624
 H80 H 0.84624 0.50733 0.58331
 C81 C 0.46721 0.59222 0.36539
 C82 C 0.43148 0.52155 0.39671
 C83 C 0.46776 0.51155 0.44910
 C84 C 0.43979 0.43373 0.46750
 C85 C 0.47138 0.42167 0.51729
 C86 C 0.53114 0.48757 0.55037
 C87 C 0.55908 0.56539 0.53198
 C88 C 0.52748 0.57745 0.48220
 C89 C 0.56751 0.47763 0.60273
 C90 C 0.53202 0.40693 0.63400
 H91 H 0.37436 0.47126 0.38231
 H92 H 0.39380 0.38197 0.44289
 H93 H 0.44965 0.36066 0.52878
 H94 H 0.60507 0.61715 0.55658
 H95 H 0.54920 0.63845 0.47071
 H96 H 0.62455 0.52804 0.61714
 H97 H 0.52569 0.64179 0.37724
 H98 H 0.47362 0.35720 0.62214
 C99 C 0.39786 -0.15369 1.11930
 C100 C 0.45957 -0.12425 1.08267
 C101 C 0.47922 -0.06134 1.03988
 C102 C 0.55576 -0.01224 1.02203
 C103 C 0.57694 0.04881 0.98260
 C104 C 0.52140 0.06118 0.95942
 C105 C 0.44485 0.01206 0.97725
 C106 C 0.42368 -0.04899 1.01669
 C107 C 0.54102 0.12415 0.91668
 C108 C 0.60289 0.15393 0.88016
 H109 H 0.49849 -0.14333 1.08865
 H110 H 0.59967 -0.02031 1.03939
 H111 H 0.63702 0.08675 0.97124
 H112 H 0.40094 0.02012 0.95990
 H113 H 0.36360 -0.08693 1.02804
 H114 H 0.50195 0.14302 0.91065
 H115 H 0.36200 -0.13069 1.11697
 H116 H 0.63899 0.13121 0.88255
 C117 C 1.11650 0.52331 1.14376
 C118 C 1.09789 0.56571 1.10673
 C119 C 1.04652 0.53038 1.05414
 C120 C 1.01946 0.57310 1.02739
 C121 C 0.97327 0.54385 0.97655
 C122 C 0.95374 0.47127 0.95092
 C123 C 0.98055 0.42839 0.97770
 C124 C 1.02692 0.45773 1.02848
 C125 C 0.90271 0.43647 0.89823
 C126 C 0.88867 0.48061 0.85962
 H127 H 1.12338 0.62878 1.11574
 H128 H 1.03380 0.62928 1.04610
 H129 H 0.95201 0.57765 0.95835
 H130 H 0.96612 0.37220 0.95895
 H131 H 1.04813 0.42382 1.04648
 H132 H 0.87422 0.37276 0.88988
 H133 H 1.08769 0.45934 1.13708
 H134 H 0.91928 0.54495 0.86512
 C135 C 0.39288 0.53299 1.11667
 C136 C 0.46557 0.56955 1.09281
 C137 C 0.48167 0.53282 1.04500
 C138 C 0.55841 0.55772 1.03721
 C139 C 0.57612 0.52442 0.99287
 C140 C 0.51728 0.46607 0.95465
 C141 C 0.44053 0.44115 0.96245
 C142 C 0.42282 0.47445 1.00680
 C143 C 0.53344 0.42946 0.90681
 C144 C 0.60608 0.46637 0.88281
 H145 H 0.51376 0.62547 1.11192
 H146 H 0.60480 0.60241 1.06607
 H147 H 0.63572 0.54376 0.98950
 H148 H 0.39414 0.39645 0.93359
 H149 H 0.36322 0.45510 1.01016
 H150 H 0.48536 0.37340 0.88778
 H151 H 0.34512 0.47466 1.10078
 H152 H 0.65365 0.52485 0.89861
   
