data_POSCAR
  _audit_creation_date              2014-09-24
  _audit_creation_method            'ToBaCCo'
  _symmetry_space_group_name_H-M    'P1'
  _symmetry_Int_Tables_number       1
  _symmetry_cell_setting            triclinic
  loop_
  _symmetry_equiv_pos_as_xyz
 x,y,z
_cell_length_a 32.5476
_cell_length_b 32.1366
_cell_length_c 62.9565
_cell_angle_alpha 86.514800
_cell_angle_beta 91.252200
_cell_angle_gamma 120.021800
loop_
  _atom_site_label
  _atom_site_type_symbol
  _atom_site_fract_x
  _atom_site_fract_y
  _atom_site_fract_z
C1 C -0.00044 0.07872 0.52767
 H2 H 0.03226 0.07780 0.52687
 C3 C -0.00335 0.11117 0.54041
 H4 H 0.02712 0.13451 0.54970
 C5 C -0.07958 0.04951 0.51623
 H6 H -0.10871 0.02635 0.50631
 C7 C -0.08402 0.08155 0.52876
 H8 H -0.11678 0.08256 0.52840
 N9 N -0.03818 0.04875 0.51592
 C10 C -0.00479 -0.06197 0.50159
 H11 H -0.00424 -0.05823 0.48439
 C12 C 0.00018 -0.09889 0.51186
 H13 H 0.00552 -0.12288 0.50242
 C14 C -0.01415 -0.03609 0.53468
 H15 H -0.02149 -0.01266 0.54348
 C16 C -0.00936 -0.07259 0.54562
 H17 H -0.01284 -0.07663 0.56279
 Zn18 Zn -0.02771 0.01061 0.49750
 N19 N -0.01224 -0.03180 0.51305
 C20 C 0.06468 0.05551 0.47846
 N21 N 0.02217 0.05395 0.47893
 C22 C 0.01455 0.08614 0.46703
 C23 C 0.05038 0.12162 0.45387
 C24 C 0.10167 0.09064 0.46555
 C25 C -0.12208 -0.06122 0.49303
 C26 C -0.16160 -0.09596 0.48260
 C27 C -0.11913 -0.06341 0.44928
 C28 C -0.08066 -0.02904 0.46041
 N29 N -0.08258 -0.02890 0.48190
 H30 H 0.07029 0.03019 0.48839
 H31 H -0.01934 0.08457 0.46804
 H32 H 0.04383 0.14748 0.44486
 H33 H 0.13533 0.09146 0.46535
 H34 H -0.12253 -0.06060 0.51018
 H35 H -0.19231 -0.11916 0.49243
 H36 H -0.11364 -0.06309 0.43243
 H37 H -0.04831 -0.00404 0.45190
 C38 C -0.00304 -0.10518 0.53415
 C39 C -0.04536 0.11332 0.54089
 C40 C -0.16083 -0.09909 0.46022
 C41 C 0.09477 0.12442 0.45310
 C42 C 1.10147 0.03395 0.13753
 H43 H 1.10208 0.06766 0.13888
 C44 C 1.13468 0.03219 0.12461
 H45 H 1.16103 0.06491 0.11619
 C46 C 1.06732 -0.04905 0.14772
 H47 H 1.04135 -0.08038 0.15699
 C48 C 1.10015 -0.05242 0.13498
 H49 H 1.09870 -0.08672 0.13429
 N50 N 1.06846 -0.00630 0.14860
 C51 C 0.95451 0.02385 0.15920
 H52 H 0.95339 0.02257 0.17641
 C53 C 0.91914 0.02689 0.14739
 H54 H 0.89096 0.02803 0.15568
 C55 C 0.99032 0.01949 0.12768
 H56 H 1.01699 0.01481 0.12005
 C57 C 0.95588 0.02270 0.11528
 H58 H 0.95740 0.02184 0.09816
 Zn59 Zn 1.02773 0.00295 0.16618
 N60 N 0.98862 0.01933 0.14925
 C61 C 1.06913 0.09532 0.18400
 N62 N 1.06778 0.05232 0.18398
 C63 C 1.09890 0.04391 0.19553
 C64 C 1.13365 0.07966 0.20752
 C65 C 1.10354 0.13231 0.19582
 C66 C 0.95391 -0.09213 0.17207
 C67 C 0.91758 -0.13212 0.18324
 C68 C 0.94911 -0.09251 0.21596
 C69 C 0.98485 -0.05330 0.20417
 N70 N 0.98628 -0.05359 0.18261
 H71 H 1.04457 0.10145 0.17435
 H72 H 1.09726 0.00952 0.19500
 H73 H 1.15812 0.07213 0.21655
 H74 H 1.10516 0.16684 0.19519
 H75 H 0.95517 -0.09089 0.15487
 H76 H 0.89107 -0.16162 0.17447
 H77 H 0.94810 -0.09131 0.23308
 H78 H 1.01016 -0.02190 0.21223
 C79 C 0.91885 0.02504 0.12514
 C80 C 1.13433 -0.01139 0.12317
 C81 C 0.91429 -0.13221 0.20545
 C82 C 1.13688 0.12488 0.20750
 C83 C 0.05680 0.96119 0.86510
 H84 H 0.02312 0.92792 0.86562
 C85 C 0.09513 0.96387 0.87655
 H86 H 0.09043 0.93262 0.88613
 C87 C 0.10354 1.04219 0.85183
 H88 H 0.10692 1.07224 0.84179
 C89 C 0.14287 1.04651 0.86310
 H90 H 0.17626 1.08007 0.86166
 N91 N 0.06154 1.00000 0.85311
 C92 C -0.08390 0.97040 0.84628
 H93 H -0.08739 0.96937 0.82916
 C94 C -0.12044 0.96725 0.85873
 H95 H -0.15114 0.96453 0.85054
 C96 C -0.03681 0.98010 0.87674
 H97 H -0.00376 0.98614 0.88367
 C98 C -0.07229 0.97733 0.88982
 H99 H -0.06604 0.97902 0.90676
 Zn100 Zn 0.00791 0.99019 0.83711
 N101 N -0.04297 0.97716 0.85537
 C102 C -0.04910 0.89591 0.82180
 N103 N -0.00715 0.93809 0.82007
 C104 C 0.02810 0.94383 0.80693
 C105 C 0.02203 0.90631 0.79482
 C106 C -0.05667 0.85722 0.80997
 C107 C 0.03167 1.08640 0.82980
 C108 C 0.03606 1.12685 0.81817
 C109 C 0.01691 1.08266 0.78630
 C110 C 0.01321 1.04316 0.79851
 N111 N 0.02038 1.04564 0.81988
 H112 H -0.07624 0.89177 0.83271
 H113 H 0.06129 0.97763 0.80608
 H114 H 0.05052 0.91192 0.78436
 H115 H -0.08979 0.82350 0.81191
 H116 H 0.03597 1.08696 0.84689
 H117 H 0.04383 1.15854 0.82643
 H118 H 0.01055 1.07989 0.76935
 H119 H 0.00301 1.01008 0.79099
 C120 C -0.11486 0.97188 0.88095
 C121 C 0.13898 1.00686 0.87555
 C122 C 0.02792 1.12501 0.79617
 C123 C -0.02057 0.86203 0.79643
 C124 C 0.51863 -0.00344 0.01266
 C125 C 0.51921 -0.00311 -0.00903
 C126 C 0.48079 -0.00281 -0.02209
 C127 C 0.55849 -0.00274 -0.02078
 C128 C 0.55651 -0.00493 0.02567
 C129 C 0.48038 -0.00196 0.02441
 C130 C 0.43313 -0.03857 -0.01879
 C131 C 0.39722 -0.03594 -0.03032
 C132 C 0.40838 0.00217 -0.04556
 C133 C 0.45631 0.03688 -0.04935
 C134 C 0.49213 0.03432 -0.03776
 C135 C 0.54827 -0.03931 -0.03458
 C136 C 0.58492 -0.04114 -0.04482
 C137 C 0.63251 -0.00631 -0.04149
 C138 C 0.64259 0.03114 -0.02815
 C139 C 0.60588 0.03316 -0.01804
 C140 C 0.58359 0.03229 0.03917
 C141 C 0.62197 0.03367 0.05016
 C142 C 0.63377 -0.00238 0.04793
 C143 C 0.60533 -0.04070 0.03504
 C144 C 0.56687 -0.04211 0.02411
 C145 C 0.47001 0.03515 0.02006
 C146 C 0.43179 0.03420 0.03022
 C147 C 0.40374 -0.00347 0.04517
 C148 C 0.41539 -0.03956 0.05008
 C149 C 0.45343 -0.03872 0.03982
 H150 H 0.42371 -0.06798 -0.00700
 H151 H 0.36067 -0.06311 -0.02694
 H152 H 0.46616 0.06609 -0.06128
 H153 H 0.52873 0.06197 -0.04069
 H154 H 0.51191 -0.06719 -0.03697
 H155 H 0.57609 -0.07058 -0.05490
 H156 H 0.61443 0.06231 -0.00783
 H157 H 0.57601 0.06121 0.04062
 H158 H 0.64337 0.06382 0.05982
 H159 H 0.61298 -0.06948 0.03334
 H160 H 0.54576 -0.07164 0.01408
 H161 H 0.49106 0.06442 0.00855
 H162 H 0.42421 0.06299 0.02643
 H163 H 0.39426 -0.06918 0.06142
 H164 H 0.46105 -0.06755 0.04345
 H165 H 0.67888 0.05896 -0.02560
 C166 C -0.02160 0.49324 0.67883
 C167 C -0.02437 0.49364 0.65718
 C168 C -0.02946 0.45255 0.64542
 C169 C -0.02175 0.53522 0.64424
 C170 C -0.02536 0.52935 0.69110
 C171 C -0.01369 0.45701 0.69118
 C172 C 0.00144 0.46079 0.62846
 C173 C -0.00311 0.42238 0.61735
 C174 C -0.03888 0.37493 0.62290
 C175 C -0.07024 0.36687 0.63971
 C176 C -0.06570 0.40532 0.65078
 C177 C 0.01514 0.58238 0.64714
 C178 C 0.01796 0.62110 0.63455
 C179 C -0.01563 0.61332 0.61860
 C180 C -0.05227 0.56606 0.61562
 C181 C -0.05523 0.52741 0.62829
 C182 C -0.06293 0.53859 0.68768
 C183 C -0.06583 0.57296 0.69914
 C184 C -0.03148 0.59842 0.71442
 C185 C 0.00547 0.58826 0.71813
 C186 C 0.00842 0.55403 0.70663
 C187 C -0.04495 0.42816 0.70774
 C188 C -0.03779 0.39380 0.71927
 C189 C 0.00118 0.38820 0.71464
 C190 C 0.03292 0.41777 0.69829
 C191 C 0.02556 0.45188 0.68668
 H192 H 0.02936 0.49699 0.62393
 H193 H 0.02108 0.42989 0.60425
 H194 H -0.09793 0.33076 0.64448
 H195 H -0.09049 0.39824 0.66356
 H196 H 0.04207 0.58915 0.65899
 H197 H 0.04701 0.65701 0.63698
 H198 H -0.08385 0.49134 0.62572
 H199 H -0.08994 0.51928 0.67608
 H200 H -0.09455 0.58013 0.69581
 H201 H 0.03196 0.60653 0.73007
 H202 H 0.03743 0.54715 0.70968
 H203 H -0.07519 0.43191 0.71155
 H204 H -0.06245 0.37193 0.73197
 H205 H 0.06305 0.41404 0.69428
 H206 H 0.05047 0.47433 0.67415
 H207 H -0.07894 0.55901 0.60360
 C208 C 0.49237 0.51679 0.34206
 C209 C 0.49890 0.51303 0.32110
 C210 C 0.54165 0.54935 0.30886
 C211 C 0.46347 0.47160 0.30927
 C212 C 0.44941 0.47955 0.35390
 C213 C 0.52788 0.55711 0.35445
 C214 C 0.55492 0.59828 0.30739
 C215 C 0.59548 0.63172 0.29579
 C216 C 0.62309 0.61669 0.28525
 C217 C 0.60927 0.56759 0.28658
 C218 C 0.56892 0.53430 0.29821
 C219 C 0.44135 0.47977 0.29144
 C220 C 0.40673 0.44113 0.28056
 C221 C 0.39389 0.39357 0.28721
 C222 C 0.41687 0.38557 0.30484
 C223 C 0.45152 0.42426 0.31571
 C224 C 0.45440 0.45360 0.37150
 C225 C 0.41440 0.41595 0.38186
 C226 C 0.36857 0.40375 0.37490
 C227 C 0.36369 0.43095 0.35769
 C228 C 0.40377 0.46869 0.34735
 C229 C 0.57553 0.56846 0.35541
 C230 C 0.60819 0.60644 0.36728
 C231 C 0.59356 0.63304 0.37875
 C232 C 0.54574 0.62108 0.37803
 C233 C 0.51326 0.58348 0.36601
 H234 H 0.53381 0.61049 0.31515
 H235 H 0.60482 0.66919 0.29477
 H236 H 0.63009 0.55495 0.27888
 H237 H 0.55924 0.49671 0.29913
 H238 H 0.45045 0.51611 0.28615
 H239 H 0.39030 0.44850 0.26681
 H240 H 0.46872 0.41732 0.32927
 H241 H 0.48935 0.46153 0.37678
 H242 H 0.41939 0.39543 0.39492
 H243 H 0.32888 0.42300 0.35221
 H244 H 0.39926 0.48892 0.33401
 H245 H 0.58735 0.54776 0.34708
 H246 H 0.64469 0.61442 0.36784
 H247 H 0.53356 0.64119 0.38658
 H248 H 0.47663 0.57514 0.36558
 H249 H 0.40754 0.34936 0.31044
 C250 C -0.05136 0.21943 0.57675
 C251 C -0.09133 0.17306 0.57630
 C252 C -0.08955 0.13842 0.56458
 C253 C -0.04807 0.14962 0.55342
 C254 C -0.00892 0.19628 0.55438
 N255 N -0.01152 0.22934 0.56586
 C256 C -0.05033 0.25793 0.58897
 N257 N -0.00738 0.29567 0.59396
 C258 C -0.00292 0.33301 0.60477
 C259 C -0.04338 0.33406 0.61122
 C260 C -0.08809 0.29564 0.60620
 C261 C -0.09176 0.25765 0.59506
 H262 H -0.12030 0.10263 0.56458
 H263 H 0.02360 0.20679 0.54581
 H264 H 0.03226 0.36155 0.60849
 H265 H -0.12023 0.29544 0.61048
 H266 H -0.12331 0.16302 0.58519
 H267 H -0.12662 0.22927 0.59091
 C268 C 0.79198 0.75485 0.23858
 C269 C 0.81391 0.74339 0.22274
 C270 C 0.85419 0.78005 0.21213
 C271 C 0.87309 0.82803 0.21736
 C272 C 0.85087 0.83777 0.23366
 N273 N 0.81149 0.80155 0.24364
 C274 C 0.74840 0.71798 0.25008
 N275 N 0.73721 0.72864 0.26896
 C276 C 0.69754 0.69724 0.28035
 C277 C 0.66610 0.65183 0.27283
 C278 C 0.67658 0.64028 0.25328
 C279 C 0.71744 0.67315 0.24185
 H280 H 0.87074 0.77084 0.19994
 H281 H 0.86392 0.87429 0.23809
 H282 H 0.69103 0.70754 0.29542
 H283 H 0.65276 0.60608 0.24664
 H284 H 0.80073 0.70669 0.21863
 H285 H 0.72380 0.66362 0.22658
 C286 C 0.25775 0.01358 -0.09069
 C287 C 0.25018 0.05306 -0.09104
 C288 C 0.21173 0.05110 -0.10219
 C289 C 0.18048 0.00987 -0.11282
 C290 C 0.18914 -0.02882 -0.11199
 N291 N 0.22687 -0.02602 -0.10112
 C292 C 0.29742 0.01271 -0.07899
 N293 N 0.29509 -0.03050 -0.07476
 C294 C 0.32979 -0.03478 -0.06421
 C295 C 0.37023 0.00620 -0.05724
 C296 C 0.37364 0.05120 -0.06157
 C297 C 0.33758 0.05468 -0.07246
 H298 H 0.20585 0.08141 -0.10210
 H299 H 0.16626 -0.06112 -0.12015
 H300 H 0.32596 -0.07014 -0.06153
 H301 H 0.40401 0.08376 -0.05635
 H302 H 0.27273 0.08477 -0.08250
 H303 H 0.34184 0.08999 -0.07588
 C304 C -0.00587 0.77260 0.56701
 C305 C -0.02898 0.76732 0.54740
 C306 C -0.02731 0.80731 0.53660
 C307 C -0.00300 0.85267 0.54523
 C308 C 0.01946 0.85645 0.56489
 N309 N 0.01739 0.81693 0.57513
 C310 C -0.00767 0.73111 0.57956
 N311 N 0.00108 0.73471 0.60082
 C312 C -0.00076 0.69801 0.61351
 C313 C -0.01227 0.65420 0.60492
 C314 C -0.02061 0.64995 0.58299
 C315 C -0.01810 0.68824 0.57027
 H316 H -0.04626 0.80241 0.52177
 H317 H 0.03874 0.89076 0.57209
 H318 H 0.00583 0.70278 0.63036
 H319 H -0.02844 0.61721 0.57563
 H320 H -0.04940 0.73266 0.54064
 H321 H -0.02364 0.68416 0.55336
 C322 C 0.24960 0.23737 0.24120
 C323 C 0.25863 0.20675 0.22963
 C324 C 0.22191 0.17037 0.21861
 C325 C 0.17612 0.16429 0.21893
 C326 C 0.16876 0.19635 0.23026
 N327 N 0.20514 0.23152 0.24096
 C328 C 0.28730 0.27651 0.25326
 N329 N 0.28249 0.31490 0.25750
 C330 C 0.31576 0.35238 0.26831
 C331 C 0.35690 0.35255 0.27568
 C332 C 0.36219 0.31295 0.27182
 C333 C 0.32755 0.27490 0.26071
 H334 H 0.22957 0.14739 0.20957
 H335 H 0.13401 0.19297 0.23093
 H336 H 0.30981 0.38176 0.27130
 H337 H 0.39340 0.31163 0.27715
 H338 H 0.29374 0.21117 0.22865
 H339 H 0.33224 0.24450 0.25831
 C340 C 0.78153 -0.02054 -0.08236
 C341 C 0.82840 0.00004 -0.07516
 C342 C 0.86223 -0.00340 -0.08698
 C343 C 0.85021 -0.02687 -0.10629
 C344 C 0.80243 -0.04731 -0.11271
 N345 N 0.77020 -0.04355 -0.10084
 C346 C 0.74420 -0.01658 -0.07105
 N347 N 0.70417 -0.02522 -0.08181
 C348 C 0.66830 -0.02214 -0.07279
 C349 C 0.67150 -0.00950 -0.05162
 C350 C 0.71218 -0.00082 -0.04012
 C351 C 0.74841 -0.00454 -0.04969
 H352 H 0.89834 0.01502 -0.08135
 H353 H 0.78989 -0.06746 -0.12684
 H354 H 0.63763 -0.02895 -0.08226
 H355 H 0.71555 0.00793 -0.02360
 H356 H 0.83975 0.02017 -0.06100
 H357 H 0.77867 0.00116 -0.04020
 C358 C 0.24284 -0.01166 0.08602
 C359 C 0.22043 0.01373 0.07814
 C360 C 0.18425 0.01273 0.09001
 C361 C 0.17032 -0.01320 0.10978
 C362 C 0.19307 -0.03866 0.11696
 N363 N 0.22846 -0.03694 0.10517
 C364 C 0.28326 -0.00987 0.07472
 N365 N 0.31307 -0.02091 0.08599
 C366 C 0.35146 -0.01927 0.07697
 C367 C 0.36192 -0.00561 0.05529
 C368 C 0.33136 0.00530 0.04328
 C369 C 0.29197 0.00299 0.05285
 H370 H 0.16743 0.03263 0.08379
 H371 H 0.18386 -0.05863 0.13223
 H372 H 0.37416 -0.02787 0.08683
 H373 H 0.33747 0.01481 0.02638
 H374 H 0.23135 0.03541 0.06334
 H375 H 0.26851 0.01049 0.04305
 C376 C 0.72929 0.78776 0.42801
 C377 C 0.73108 0.78424 0.45021
 C378 C 0.76703 0.82201 0.46095
 C379 C 0.80225 0.86437 0.44982
 C380 C 0.79795 0.86599 0.42732
 N381 N 0.76264 0.82838 0.41733
 C382 C 0.69325 0.74778 0.41581
 N383 N 0.70421 0.74264 0.39574
 C384 C 0.67320 0.70637 0.38370
 C385 C 0.62784 0.67275 0.39169
 C386 C 0.61553 0.67780 0.41220
 C387 C 0.64805 0.71514 0.42430
 H388 H 0.76785 0.81555 0.47792
 H389 H 0.82121 0.89726 0.41733
 H390 H 0.68378 0.70414 0.36782
 H391 H 0.58093 0.65256 0.41897
 H392 H 0.70613 0.75185 0.45927
 H393 H 0.63755 0.71865 0.43998
 C394 C 0.02549 0.24233 0.76131
 C395 C 0.06182 0.25193 0.77604
 C396 C 0.06303 0.21371 0.78727
 C397 C 0.02835 0.16602 0.78381
 C398 C -0.00719 0.15802 0.76890
 N399 N -0.00790 0.19578 0.75832
 C400 C 0.02110 0.28114 0.74949
 N401 N -0.02250 0.27154 0.74249
 C402 C -0.02967 0.30506 0.73152
 C403 C 0.00858 0.35148 0.72675
 C404 C 0.05398 0.36206 0.73356
 C405 C 0.06041 0.32709 0.74493
 H406 H 0.09104 0.22141 0.79864
 H407 H -0.03510 0.12184 0.76603
 H408 H -0.06512 0.29518 0.72626
 H409 H 0.08442 0.39748 0.73024
 H410 H 0.08834 0.28837 0.77932
 H411 H 0.09584 0.33589 0.74971
 C412 C 0.79991 0.01279 0.08953
 C413 C 0.82120 -0.01396 0.08423
 C414 C 0.86030 -0.00932 0.09565
 C415 C 0.87841 0.02173 0.11243
 C416 C 0.85594 0.04763 0.11732
 N417 N 0.81778 0.04248 0.10595
 C418 C 0.75758 0.00838 0.07826
 N419 N 0.72841 0.01998 0.08837
 C420 C 0.68879 0.01664 0.07913
 C421 C 0.67646 0.00080 0.05842
 C422 C 0.70631 -0.01081 0.04762
 C423 C 0.74684 -0.00694 0.05740
 H424 H 0.87551 -0.03115 0.09171
 H425 H 0.86874 0.07206 0.13008
 H426 H 0.66671 0.02584 0.08807
 H427 H 0.69887 -0.02191 0.03142
 H428 H 0.80724 -0.03932 0.07186
 H429 H 0.76980 -0.01492 0.04845
 C430 C 0.20773 0.24021 0.41637
 C431 C 0.16178 0.21637 0.40792
 C432 C 0.12514 0.17809 0.41973
 C433 C 0.13393 0.16343 0.43995
 C434 C 0.18036 0.18801 0.44776
 N435 N 0.21542 0.22536 0.43603
 C436 C 0.24786 0.28211 0.40500
 N437 N 0.28570 0.31312 0.41649
 C438 C 0.32413 0.35223 0.40733
 C439 C 0.32618 0.36202 0.38522
 C440 C 0.28767 0.33044 0.37303
 C441 C 0.24860 0.29049 0.38280
 H442 H 0.08988 0.16002 0.41306
 H443 H 0.18858 0.17843 0.46341
 H444 H 0.35285 0.37578 0.41738
 H445 H 0.28824 0.33596 0.35587
 H446 H 0.15363 0.22763 0.39265
 H447 H 0.22009 0.26607 0.37292
 C448 C -0.03498 0.74504 0.76151
 C449 C -0.07431 0.75153 0.76365
 C450 C -0.06989 0.78939 0.77517
 C451 C -0.02644 0.82095 0.78446
 C452 C 0.01183 0.81302 0.78199
 N453 N 0.00669 0.77605 0.77071
 C454 C -0.03645 0.70657 0.74913
 N455 N 0.00534 0.71203 0.74212
 C456 C 0.00768 0.67837 0.73099
 C457 C -0.03385 0.63568 0.72635
 C458 C -0.07742 0.62913 0.73345
 C459 C -0.07891 0.66434 0.74486
 H460 H -0.10011 0.79463 0.77638
 H461 H 0.04578 0.83590 0.78915
 H462 H 0.04200 0.68531 0.72561
 H463 H -0.11026 0.59636 0.73059
 H464 H -0.10776 0.72862 0.75614
 H465 H -0.11281 0.65777 0.75062
   
