data_POSCAR
  _audit_creation_date              2014-09-24
  _audit_creation_method            'ToBaCCo'
  _symmetry_space_group_name_H-M    'P1'
  _symmetry_Int_Tables_number       1
  _symmetry_cell_setting            triclinic
  loop_
  _symmetry_equiv_pos_as_xyz
 x,y,z
_cell_length_a 28.5179
_cell_length_b 28.3707
_cell_length_c 27.6775
_cell_angle_alpha 94.585500
_cell_angle_beta 93.938800
_cell_angle_gamma 100.750900
loop_
  _atom_site_label
  _atom_site_type_symbol
  _atom_site_fract_x
  _atom_site_fract_y
  _atom_site_fract_z
C1 C 0.03703 0.46626 0.19770
 H2 H 0.06115 0.50080 0.20000
 C3 C 0.04796 0.42654 0.17032
 H4 H 0.07934 0.43314 0.15031
 C5 C -0.03284 0.41814 0.22117
 H6 H -0.06330 0.41438 0.24273
 C7 C -0.02305 0.37729 0.19479
 H8 H -0.04688 0.34349 0.19767
 N9 N -0.00294 0.46165 0.22231
 C10 C -0.00682 0.61227 0.27179
 H11 H -0.01190 0.60612 0.30932
 C12 C -0.00620 0.65804 0.25669
 H13 H -0.01029 0.68701 0.28306
 C14 C 0.00337 0.58136 0.19196
 H15 H 0.00561 0.55101 0.16661
 C16 C 0.00426 0.62698 0.17518
 H17 H 0.00732 0.63135 0.13695
 Zn18 Zn -0.01186 0.51447 0.26666
 N19 N -0.00263 0.57486 0.23956
 C20 C 0.07549 0.55175 0.32510
 N21 N 0.03447 0.51765 0.32066
 C22 C 0.02958 0.48018 0.34878
 C23 C 0.06775 0.47440 0.38082
 C24 C 0.11477 0.54715 0.35656
 C25 C -0.11143 0.49339 0.24773
 C26 C -0.15969 0.48825 0.25670
 C27 C -0.13547 0.50870 0.34222
 C28 C -0.08742 0.51244 0.33172
 N29 N -0.07637 0.50439 0.28502
 H30 H 0.07927 0.58057 0.30154
 H31 H -0.00292 0.45303 0.34403
 H32 H 0.06389 0.44294 0.40102
 H33 H 0.14823 0.57256 0.35675
 H34 H -0.10180 0.48859 0.21079
 H35 H -0.18707 0.47861 0.22661
 H36 H -0.14389 0.51479 0.37950
 H37 H -0.05903 0.52262 0.36072
 C38 C -0.00172 0.66578 0.20762
 C39 C 0.01841 0.38023 0.16887
 C40 C -0.17224 0.49610 0.30436
 C41 C 0.11187 0.50686 0.38332
 C42 C 0.03837 0.54760 0.82499
 H43 H 0.06019 0.52302 0.83757
 C44 C 0.03501 0.58866 0.85507
 H45 H 0.05329 0.59478 0.89126
 C46 C -0.00896 0.57206 0.76155
 H47 H -0.02460 0.56694 0.72448
 C48 C -0.01321 0.61319 0.79004
 H49 H -0.03403 0.63768 0.77510
 N50 N 0.01449 0.53894 0.77991
 C51 C -0.00959 0.38433 0.73395
 H52 H -0.01576 0.38824 0.69567
 C53 C -0.01131 0.33853 0.74921
 H54 H -0.01801 0.30752 0.72242
 C55 C 0.00659 0.41981 0.81518
 H56 H 0.01365 0.45132 0.84093
 C57 C 0.00482 0.37434 0.83219
 H58 H 0.01155 0.37152 0.87073
 Zn59 Zn 0.01382 0.48316 0.73702
 N60 N 0.00167 0.42410 0.76648
 C61 C 0.08218 0.45237 0.67952
 N62 N 0.07361 0.48920 0.71006
 C63 C 0.10871 0.52824 0.72506
 C64 C 0.15532 0.52971 0.71183
 C65 C 0.12824 0.45210 0.66595
 C66 C -0.07996 0.48033 0.70693
 C67 C -0.11825 0.48893 0.67739
 C68 C -0.06869 0.49121 0.60978
 C69 C -0.03050 0.48508 0.64151
 N70 N -0.03674 0.48071 0.68920
 H71 H 0.05381 0.42221 0.66708
 H72 H 0.10118 0.55743 0.74895
 H73 H 0.18351 0.55976 0.72592
 H74 H 0.13507 0.42150 0.64340
 H75 H -0.08368 0.47646 0.74513
 H76 H -0.15186 0.48860 0.69342
 H77 H -0.06155 0.49685 0.57258
 H78 H 0.00449 0.48589 0.62847
 C79 C -0.00227 0.33334 0.79867
 C80 C 0.00809 0.62148 0.83774
 C81 C -0.11333 0.49511 0.62773
 C82 C 0.16558 0.49043 0.68342
 C83 C 0.17660 -0.02143 0.44080
 H84 H 0.16388 -0.00491 0.47267
 C85 C 0.16284 -0.00954 0.39480
 H86 H 0.13805 0.01489 0.39149
 C87 C 0.22713 -0.07057 0.40694
 H88 H 0.25410 -0.09228 0.41216
 C89 C 0.21458 -0.05928 0.36013
 H90 H 0.23155 -0.07304 0.32966
 N91 N 0.20919 -0.05033 0.44611
 C92 C 0.21419 -0.06488 0.60244
 H93 H 0.25224 -0.05252 0.61155
 C94 C 0.18372 -0.07436 0.63937
 H95 H 0.19857 -0.06805 0.67689
 C96 C 0.14866 -0.08491 0.54231
 H97 H 0.13522 -0.08901 0.50443
 C98 C 0.11696 -0.09533 0.57800
 H99 H 0.07908 -0.10698 0.56713
 Zn100 Zn 0.23957 -0.04859 0.50886
 N101 N 0.19603 -0.06822 0.55527
 C102 C 0.25602 0.04552 0.56062
 N103 N 0.27001 0.01711 0.52440
 C104 C 0.30254 0.03614 0.49407
 C105 C 0.32405 0.08485 0.50095
 C106 C 0.27640 0.09470 0.56850
 C107 C 0.26318 -0.13887 0.49973
 C108 C 0.29187 -0.17367 0.50069
 C109 C 0.36141 -0.10964 0.51669
 C110 C 0.33128 -0.07607 0.51616
 N111 N 0.28311 -0.09122 0.50790
 H112 H 0.22876 0.03033 0.58319
 H113 H 0.31181 0.01331 0.46447
 H114 H 0.35113 0.09910 0.47757
 H115 H 0.26615 0.11668 0.59826
 H116 H 0.22467 -0.14983 0.49338
 H117 H 0.27486 -0.21135 0.49597
 H118 H 0.39970 -0.09667 0.52293
 H119 H 0.34641 -0.03806 0.52289
 C120 C 0.13413 -0.08811 0.62745
 C121 C 0.18371 -0.02665 0.35403
 C122 C 0.34177 -0.15934 0.50987
 C123 C 0.31108 0.11460 0.53863
 C124 C 0.80709 0.05605 0.56965
 H125 H 0.81972 0.09127 0.55779
 C126 C 0.82217 0.04558 0.61626
 H127 H 0.84762 0.07258 0.63927
 C128 C 0.75904 -0.02195 0.55369
 H129 H 0.73444 -0.04847 0.52965
 C130 C 0.77175 -0.03326 0.60007
 H131 H 0.75535 -0.06803 0.61064
 N132 N 0.77636 0.02215 0.53929
 C133 C 0.78272 0.05773 0.38858
 H134 H 0.74453 0.05230 0.37905
 C135 C 0.81433 0.06739 0.35292
 H136 H 0.79878 0.06724 0.31622
 C137 C 0.84672 0.06033 0.44838
 H138 H 0.85905 0.05763 0.48567
 C139 C 0.87983 0.07108 0.41408
 H140 H 0.91731 0.07811 0.42700
 Zn141 Zn 0.75146 0.03587 0.47769
 N142 N 0.79917 0.05298 0.43483
 C143 C 0.73774 0.12904 0.46663
 N144 N 0.72086 0.08815 0.48756
 C145 C 0.68294 0.08508 0.51512
 C146 C 0.65670 0.12181 0.51726
 C147 C 0.71337 0.16699 0.46877
 C148 C 0.72790 -0.04881 0.41566
 C149 C 0.70637 -0.09683 0.40367
 C150 C 0.64305 -0.08533 0.45420
 C151 C 0.66518 -0.03690 0.46425
 N152 N 0.70859 -0.02043 0.44759
 H153 H 0.76958 0.13218 0.44732
 H154 H 0.67259 0.05396 0.53475
 H155 H 0.62484 0.11816 0.53692
 H156 H 0.72571 0.19838 0.44985
 H157 H 0.76266 -0.03603 0.40329
 H158 H 0.72460 -0.11979 0.38161
 H159 H 0.61174 -0.09926 0.47252
 H160 H 0.65005 -0.01444 0.48956
 C161 C 0.86410 0.07269 0.36460
 C162 C 0.80440 0.00020 0.63210
 C163 C 0.66574 -0.11643 0.42640
 C164 C 0.67145 0.16255 0.49269
 C165 C 0.59587 0.20239 0.94304
 H166 H 0.57224 0.20163 0.91058
 C167 C 0.63417 0.17798 0.94178
 H168 H 0.63923 0.15751 0.90845
 C169 C 0.61832 0.23001 1.02594
 H170 H 0.61234 0.25081 1.05860
 C171 C 0.65760 0.20685 1.02601
 H172 H 0.68072 0.20873 1.05911
 N173 N 0.58801 0.22691 0.98502
 C174 C 0.43847 0.24868 0.97010
 H175 H 0.44583 0.28634 0.98384
 C176 C 0.39119 0.22504 0.95781
 H177 H 0.36381 0.24643 0.96096
 C178 C 0.46740 0.17773 0.94899
 H179 H 0.49711 0.15914 0.94684
 C180 C 0.42052 0.15224 0.93729
 H181 H 0.41658 0.11403 0.92775
 Zn182 Zn 0.53753 0.26249 0.98557
 N183 N 0.47556 0.22526 0.96458
 C184 C 0.51855 0.31675 0.90889
 N185 N 0.55197 0.31276 0.94501
 C186 C 0.59687 0.34015 0.94834
 C187 C 0.61006 0.37176 0.91307
 C188 C 0.52972 0.34849 0.87396
 C189 C 0.50822 0.25010 1.07472
 C190 C 0.49154 0.26159 1.11915
 C191 C 0.52748 0.34490 1.11407
 C192 C 0.54174 0.33185 1.06831
 N193 N 0.53127 0.28511 1.04959
 H194 H 0.48376 0.29366 0.90519
 H195 H 0.62310 0.33555 0.97684
 H196 H 0.64650 0.39167 0.91451
 H197 H 0.50308 0.34925 0.84433
 H198 H 0.50005 0.21319 1.05857
 H199 H 0.47067 0.23208 1.13501
 H200 H 0.53725 0.38240 1.12753
 H201 H 0.56004 0.35910 1.04737
 C202 C 0.38070 0.17562 0.94097
 C203 C 0.66544 0.17987 0.98373
 C204 C 0.50025 0.30981 1.14000
 C205 C 0.57620 0.37557 0.87501
 C206 C 0.42140 0.84634 1.01223
 H207 H 0.45454 0.87213 1.02054
 C208 C 0.37856 0.86272 1.00238
 H209 H 0.38021 0.90106 1.00194
 C210 C 0.38009 0.76537 1.00206
 H211 H 0.38039 0.72758 1.00425
 C212 C 0.33686 0.77988 0.99252
 H213 H 0.30504 0.75194 0.98853
 N214 N 0.42136 0.79828 1.01137
 C215 C 0.54736 0.81853 1.09931
 H216 H 0.52968 0.79264 1.12198
 C217 C 0.59338 0.84382 1.11460
 H218 H 0.61131 0.83564 1.14782
 C219 C 0.54867 0.85528 1.02531
 H220 H 0.53225 0.85729 0.98928
 C221 C 0.59467 0.88157 1.03937
 H222 H 0.61378 0.90283 1.01347
 Zn223 Zn 0.47666 0.77238 1.02643
 N224 N 0.52772 0.82185 1.05375
 C225 C 0.54159 0.74955 0.95795
 N226 N 0.49505 0.74006 0.96871
 C227 C 0.46167 0.70822 0.93884
 C228 C 0.47417 0.68599 0.89584
 C229 C 0.55564 0.72807 0.91538
 C230 C 0.42833 0.73342 1.10376
 C231 C 0.42123 0.70560 1.14284
 C232 C 0.48728 0.66816 1.12116
 C233 C 0.49271 0.69630 1.08186
 N234 N 0.46339 0.72821 1.07399
 H235 H 0.56820 0.77372 0.98240
 H236 H 0.42510 0.69994 0.94801
 H237 H 0.44693 0.66072 0.87291
 H238 H 0.59270 0.73710 0.90737
 H239 H 0.40690 0.76049 1.09835
 H240 H 0.39360 0.71085 1.16654
 H241 H 0.51110 0.64327 1.12740
 H242 H 0.52115 0.69377 1.05843
 C243 C 0.61873 0.87259 1.08261
 C244 C 0.33506 0.82927 0.99153
 C245 C 0.45115 0.67276 1.15219
 C246 C 0.52170 0.69598 0.88334
 B247 B 1.01636 1.05449 0.01719
 B248 B 0.99877 1.03655 -0.04279
 B249 B 1.05206 1.02448 -0.01943
 B250 B 1.04445 1.01083 0.03993
 B251 B 0.98566 1.01319 0.05187
 B252 B 0.95556 1.02829 -0.00025
 B253 B 0.98333 0.93970 -0.02231
 B254 B 1.00201 0.95844 0.03805
 B255 B 0.94831 0.96887 0.01299
 B256 B 0.95615 0.98374 -0.04604
 B257 B 1.01364 0.98066 -0.05774
 B258 B 1.04275 0.96509 -0.00555
 B259 B 0.53455 0.49700 0.45706
 B260 B 0.56271 0.50578 0.51567
 B261 B 0.53665 0.55053 0.49339
 B262 B 0.48494 0.52316 0.45731
 B263 B 0.47829 0.46144 0.45782
 B264 B 0.52722 0.45070 0.49431
 B265 B 0.47166 0.50046 0.55189
 B266 B 0.44502 0.49257 0.49428
 B267 B 0.47226 0.44736 0.51786
 B268 B 0.52356 0.47619 0.55321
 B269 B 0.52796 0.53638 0.55333
 B270 B 0.48133 0.54804 0.51510
 C271 C 1.00953 1.25419 0.10885
 C272 C 1.05558 1.25570 0.09666
 C273 C 1.09091 1.29681 0.10714
 C274 C 1.07830 1.33800 0.13067
 C275 C 1.03056 1.33827 0.14376
 C276 C 0.99594 1.29470 0.13191
 O277 O 0.98159 1.21118 0.09743
 C278 C 1.01060 1.18519 0.07722
 C279 C 1.05612 1.21045 0.07571
 C280 C 1.09240 1.18804 0.05989
 C281 C 1.08016 1.13866 0.04296
 C282 C 1.03204 1.11231 0.03847
 C283 C 0.99891 1.13629 0.06082
 H284 H 1.12729 1.29706 0.09812
 H285 H 1.10702 1.36865 0.14013
 H286 H 0.95882 1.29170 0.13907
 H287 H 1.12929 1.20697 0.06318
 H288 H 1.10929 1.11978 0.03988
 H289 H 0.96568 1.11700 0.06879
 C290 C 1.01619 0.78126 0.14389
 C291 C 0.98018 0.80187 0.16175
 C292 C 0.94914 0.78018 0.19354
 C293 C 0.95566 0.73549 0.20802
 C294 C 0.99263 0.71306 0.19058
 C295 C 1.02316 0.73630 0.15756
 O296 O 1.04069 0.80781 0.11303
 C297 C 1.01939 0.84573 0.11141
 C298 C 0.98227 0.84352 0.14041
 C299 C 0.95368 0.87774 0.14240
 C300 C 0.96268 0.91497 0.11211
 C301 C 1.00021 0.91909 0.07995
 C302 C 1.02968 0.88348 0.08175
 H303 H 0.92071 0.79698 0.20657
 H304 H 0.93137 0.71798 0.23242
 H305 H 1.05153 0.72012 0.14341
 H306 H 0.92431 0.87518 0.16544
 H307 H 0.93930 0.94026 0.11430
 H308 H 1.05851 0.88243 0.05968
 C309 C 0.98947 1.22118 -0.13434
 C310 C 1.02008 1.19801 -0.15921
 C311 C 1.04397 1.21675 -0.19753
 C312 C 1.03580 1.26121 -0.21107
 C313 C 1.00456 1.28615 -0.18605
 C314 C 0.98126 1.26595 -0.14680
 O315 O 0.97052 1.19669 -0.09910
 C316 C 0.98970 1.15738 -0.10198
 C317 C 1.02030 1.15675 -0.13787
 C318 C 1.04546 1.12014 -0.14593
 C319 C 1.03835 1.08241 -0.11603
 C320 C 1.00502 1.07991 -0.07944
 C321 C 0.98187 1.11960 -0.07238
 H322 H 1.06801 1.19780 -0.21634
 H323 H 1.05433 1.27664 -0.24068
 H324 H 0.95724 1.28422 -0.12713
 H325 H 1.07048 1.12094 -0.17369
 H326 H 1.05959 1.05536 -0.12232
 H327 H 0.95914 1.12195 -0.04428
 C328 C 0.98799 0.74543 -0.12182
 C329 C 0.97684 0.73930 -0.07497
 C330 C 0.97776 0.69678 -0.05355
 C331 C 0.98969 0.65841 -0.08214
 C332 C 1.00047 0.66349 -0.13096
 C333 C 1.00018 0.70800 -0.15072
 O334 O 0.98690 0.78942 -0.13438
 C335 C 0.97510 0.81161 -0.09431
 C336 C 0.96830 0.78239 -0.05733
 C337 C 0.95657 0.79832 -0.01229
 C338 C 0.95576 0.84728 -0.00377
 C339 C 0.96818 0.88097 -0.03902
 C340 C 0.97345 0.86043 -0.08664
 H341 H 0.96943 0.69324 -0.01628
 H342 H 0.98928 0.62447 -0.06672
 H343 H 1.00907 0.71332 -0.18755
 H344 H 0.94926 0.77419 0.01583
 H345 H 0.94410 0.85766 0.03059
 H346 H 0.97582 0.88079 -0.11743
 C347 C 1.16133 0.98471 0.21916
 C348 C 1.16002 1.03297 0.22041
 C349 C 1.16744 1.06345 0.26316
 C350 C 1.17659 1.04348 0.30656
 C351 C 1.17698 0.99352 0.30682
 C352 C 1.17022 0.96389 0.26218
 O353 O 1.14695 0.96120 0.17564
 C354 C 1.13574 0.99531 0.14923
 C355 C 1.14316 1.03963 0.17504
 C356 C 1.12393 1.07723 0.15891
 C357 C 1.09445 1.06823 0.11550
 C358 C 1.08762 1.02397 0.08501
 C359 C 1.10990 0.98733 0.10365
 H360 H 1.16502 1.10108 0.26328
 H361 H 1.18270 1.06694 0.34014
 H362 H 1.16906 0.92546 0.26126
 H363 H 1.12553 1.11002 0.18238
 H364 H 1.07052 1.09263 0.11256
 H365 H 1.10283 0.95138 0.08698
 C366 C 1.08126 0.90790 -0.25016
 C367 C 1.04441 0.93165 -0.25968
 C368 C 1.03250 0.94549 -0.30514
 C369 C 1.06059 0.93564 -0.34260
 C370 C 1.10034 0.91294 -0.33408
 C371 C 1.11019 0.89790 -0.28718
 O372 O 1.08838 0.90187 -0.20306
 C373 C 1.05593 0.92346 -0.18265
 C374 C 1.02884 0.94227 -0.21600
 C375 C 0.99791 0.97181 -0.20309
 C376 C 0.99538 0.98336 -0.15377
 C377 C 1.02136 0.96470 -0.11615
 C378 C 1.05084 0.93179 -0.13268
 H379 H 1.00382 0.96511 -0.31107
 H380 H 1.05308 0.94866 -0.37747
 H381 H 1.14071 0.88131 -0.27919
 H382 H 0.97866 0.98833 -0.23003
 H383 H 0.97503 1.01025 -0.14632
 H384 H 1.06951 0.91277 -0.10828
 C385 C 0.91287 1.08028 0.24241
 C386 C 0.95420 1.06362 0.25215
 C387 C 0.97002 1.05395 0.29802
 C388 C 0.94118 1.06004 0.33581
 C389 C 0.89645 1.07507 0.32749
 C390 C 0.88349 1.08717 0.27973
 O391 O 0.90250 1.08243 0.19497
 C392 C 0.93784 1.06566 0.17459
 C393 C 0.96974 1.05354 0.20843
 C394 C 1.00419 1.02794 0.19640
 C395 C 1.00636 1.01455 0.14751
 C396 C 0.97713 1.02893 0.10941
 C397 C 0.94164 1.05517 0.12463
 H398 H 1.00236 1.03965 0.30408
 H399 H 0.95266 1.04861 0.37019
 H400 H 0.85094 1.10004 0.27075
 H401 H 1.02673 1.01569 0.22393
 H402 H 1.03054 0.99079 0.14092
 H403 H 0.91588 1.06536 0.09914
 C404 C 0.84647 1.00560 -0.23323
 C405 C 0.84476 0.95746 -0.22910
 C406 C 0.83276 0.92245 -0.26805
 C407 C 0.82091 0.93737 -0.31337
 C408 C 0.81981 0.98658 -0.31910
 C409 C 0.83334 1.02133 -0.27806
 O410 O 0.86408 1.03302 -0.19225
 C411 C 0.87357 1.00113 -0.16196
 C412 C 0.86172 0.95470 -0.18294
 C413 C 0.87086 0.91585 -0.15971
 C414 C 0.89627 0.92522 -0.11412
 C415 C 0.91439 0.97275 -0.09232
 C416 C 0.89863 1.01113 -0.11574
 H417 H 0.83396 0.88505 -0.26401
 H418 H 0.81345 0.91025 -0.34408
 H419 H 0.83375 1.05923 -0.28076
 H420 H 0.86036 0.87938 -0.17690
 H421 H 0.90249 0.89431 -0.09830
 H422 H 0.90949 1.04817 -0.10111
 C423 C 1.24591 1.13971 -0.06215
 C424 C 1.24021 1.09385 -0.08404
 C425 C 1.27724 1.07463 -0.10235
 C426 C 1.32307 1.10325 -0.09645
 C427 C 1.33236 1.14997 -0.07026
 C428 C 1.29184 1.16875 -0.05448
 O429 O 1.20543 1.14952 -0.04560
 C430 C 1.17424 1.10801 -0.05608
 C431 C 1.19444 1.07336 -0.07903
 C432 C 1.17107 1.02652 -0.08866
 C433 C 1.12671 1.01414 -0.07043
 C434 C 1.10420 1.04671 -0.04266
 C435 C 1.12689 1.09631 -0.04252
 H436 H 1.27117 1.03839 -0.12021
 H437 H 1.35074 1.08796 -0.11288
 H438 H 1.29529 1.20321 -0.03369
 H439 H 1.18766 0.99940 -0.10676
 H440 H 1.11234 0.97739 -0.07624
 H441 H 1.10829 1.12531 -0.03569
 C442 C 0.78420 1.13709 -0.00059
 C443 C 0.76814 1.08892 -0.01413
 C444 C 0.72064 1.06872 -0.02898
 C445 C 0.68770 1.09950 -0.02975
 C446 C 0.70245 1.14944 -0.01544
 C447 C 0.75153 1.16865 -0.00027
 O448 O 0.83170 1.14818 0.00992
 C449 C 0.84543 1.10574 0.00299
 C450 C 0.80762 1.06913 -0.01139
 C451 C 0.81290 1.02291 -0.02302
 C452 C 0.85894 1.01347 -0.01943
 C453 C 0.90179 1.04849 -0.00299
 C454 C 0.89265 1.09679 0.00701
 H455 H 0.70937 1.03056 -0.03991
 H456 H 0.65045 1.08438 -0.04109
 H457 H 0.76373 1.20675 0.01048
 H458 H 0.78243 0.99469 -0.03576
 H459 H 0.85879 0.97699 -0.03173
 H460 H 0.91932 1.12866 0.01483
 C461 C 1.23502 0.89899 -0.00851
 C462 C 1.19902 0.86351 -0.03064
 C463 C 1.20594 0.81928 -0.05022
 C464 C 1.25207 0.80992 -0.04533
 C465 C 1.29052 0.84363 -0.01895
 C466 C 1.28180 0.89009 -0.00208
 O467 O 1.21905 0.93827 0.00784
 C468 C 1.17183 0.92628 -0.00385
 C469 C 1.15862 0.88077 -0.02674
 C470 C 1.11190 0.85790 -0.03687
 C471 C 1.07689 0.88367 -0.02514
 C472 C 1.08679 0.93339 -0.00768
 C473 C 1.13662 0.95396 0.00557
 H474 H 1.17669 0.79267 -0.06870
 H475 H 1.25717 0.77598 -0.06272
 H476 H 1.30915 0.91726 0.01835
 H477 H 1.10248 0.82025 -0.05075
 H478 H 1.04310 0.86181 -0.02662
 H479 H 1.14806 0.99102 0.02053
 C480 C 0.75322 0.91235 0.08931
 C481 C 0.76338 0.87266 0.06329
 C482 C 0.72948 0.83171 0.04740
 C483 C 0.68250 0.83176 0.05782
 C484 C 0.67009 0.87294 0.08211
 C485 C 0.70584 0.91373 0.09907
 O486 O 0.79064 0.94883 0.09643
 C487 C 0.82439 0.93178 0.07336
 C488 C 0.80867 0.88600 0.05181
 C489 C 0.83175 0.86623 0.01572
 C490 C 0.87329 0.89425 0.00239
 C491 C 0.89651 0.93853 0.02878
 C492 C 0.86909 0.95786 0.06406
 H493 H 0.73859 0.80144 0.02621
 H494 H 0.65504 0.80074 0.04446
 H495 H 0.69664 0.94600 0.11634
 H496 H 0.81567 0.83248 -0.00518
 H497 H 0.88492 0.88053 -0.03008
 H498 H 0.87905 0.99365 0.08025
 C499 C 0.70689 0.51527 0.34418
 C500 C 0.68002 0.46990 0.33154
 C501 C 0.69894 0.43231 0.31020
 C502 C 0.74741 0.44189 0.30091
 C503 C 0.77639 0.48804 0.31416
 C504 C 0.75577 0.52535 0.33624
 O505 O 0.68254 0.54469 0.36716
 C506 C 0.63967 0.51701 0.36964
 C507 C 0.63660 0.47103 0.34861
 C508 C 0.59828 0.43437 0.35343
 C509 C 0.56359 0.44450 0.38405
 C510 C 0.56545 0.49148 0.40854
 C511 C 0.60318 0.52870 0.39724
 H512 H 0.67726 0.39664 0.30148
 H513 H 0.76279 0.41306 0.28434
 H514 H 0.77719 0.56078 0.34715
 H515 H 0.59738 0.39791 0.33794
 H516 H 0.53778 0.41379 0.39131
 H517 H 0.60801 0.56474 0.41328
 C518 C 0.23578 0.51229 0.44875
 C519 C 0.24105 0.46602 0.43573
 C520 C 0.20579 0.43171 0.40905
 C521 C 0.16300 0.44560 0.39424
 C522 C 0.15612 0.49340 0.40549
 C523 C 0.19322 0.52740 0.43347
 O524 O 0.27525 0.53898 0.47315
 C525 C 0.30601 0.50871 0.47448
 C526 C 0.28647 0.46431 0.45157
 C527 C 0.31230 0.42847 0.44513
 C528 C 0.36064 0.43946 0.46144
 C529 C 0.38472 0.48413 0.48492
 C530 C 0.35447 0.51878 0.49368
 H531 H 0.21141 0.39564 0.39907
 H532 H 0.13594 0.41944 0.37204
 H533 H 0.18940 0.56431 0.44206
 H534 H 0.29623 0.39336 0.42700
 H535 H 0.37864 0.41148 0.45763
 H536 H 0.36640 0.55262 0.51419
 C537 C 0.77265 0.52908 0.58772
 C538 C 0.76727 0.50894 0.54058
 C539 C 0.80212 0.48853 0.51895
 C540 C 0.84397 0.48697 0.54777
 C541 C 0.84930 0.50335 0.59837
 C542 C 0.81308 0.52625 0.61773
 O543 O 0.73410 0.54509 0.60137
 C544 C 0.70304 0.53255 0.56240
 C545 C 0.72171 0.51008 0.52490
 C546 C 0.69433 0.48865 0.48362
 C547 C 0.64529 0.48773 0.48246
 C548 C 0.62245 0.50938 0.52047
 C549 C 0.65479 0.53672 0.55867
 H550 H 0.79662 0.47285 0.48155
 H551 H 0.86954 0.46851 0.53111
 H552 H 0.81576 0.54151 0.65514
 H553 H 0.70925 0.46913 0.45515
 H554 H 0.62588 0.46372 0.45384
 H555 H 0.64603 0.56671 0.57941
 C556 C 0.29285 0.51615 0.64834
 C557 C 0.30746 0.47506 0.66131
 C558 C 0.27823 0.43862 0.68190
 C559 C 0.23169 0.44466 0.68943
 C560 C 0.21543 0.48654 0.67631
 C561 C 0.24665 0.52323 0.65609
 O562 O 0.32528 0.54408 0.62550
 C563 C 0.36083 0.51973 0.62390
 C564 C 0.35147 0.47760 0.64545
 C565 C 0.38145 0.44478 0.64471
 C566 C 0.42169 0.45460 0.61868
 C567 C 0.43265 0.49692 0.59352
 C568 C 0.40185 0.53082 0.59893
 H569 H 0.29046 0.40620 0.69077
 H570 H 0.20807 0.41659 0.70518
 H571 H 0.23463 0.55506 0.64500
 H572 H 0.37319 0.41161 0.66191
 H573 H 0.44376 0.42796 0.61872
 H574 H 0.40753 0.56397 0.58211
 C575 C 0.47548 0.61779 0.26942
 C576 C 0.42966 0.59648 0.27743
 C577 C 0.39007 0.59708 0.24546
 C578 C 0.39785 0.62147 0.20378
 C579 C 0.44463 0.64439 0.19473
 C580 C 0.48415 0.64195 0.22784
 O581 O 0.50785 0.61290 0.30467
 C582 C 0.48169 0.58807 0.33554
 C583 C 0.43390 0.57725 0.32042
 C584 C 0.40051 0.55028 0.34609
 C585 C 0.41693 0.53400 0.38932
 C586 C 0.46599 0.54600 0.40833
 C587 C 0.49864 0.57245 0.37887
 H588 H 0.35439 0.57984 0.25260
 H589 H 0.36744 0.62269 0.17855
 H590 H 0.52017 0.65949 0.22211
 H591 H 0.36312 0.54069 0.33254
 H592 H 0.39064 0.51019 0.40550
 H593 H 0.53648 0.57994 0.38808
 C594 C 0.51974 0.64337 0.75210
 C595 C 0.56332 0.62928 0.75285
 C596 C 0.59462 0.63541 0.79469
 C597 C 0.58070 0.65750 0.83729
 C598 C 0.53594 0.67276 0.83763
 C599 C 0.50507 0.66529 0.79407
 O600 O 0.49457 0.63249 0.70913
 C601 C 0.52300 0.61120 0.68225
 C602 C 0.56528 0.60852 0.70705
 C603 C 0.59783 0.58415 0.68664
 C604 C 0.58638 0.56236 0.63879
 C605 C 0.54468 0.56704 0.60901
 C606 C 0.51184 0.59030 0.63445
 H607 H 0.62848 0.62338 0.79463
 H608 H 0.60448 0.66186 0.87022
 H609 H 0.47076 0.67646 0.79275
 H610 H 0.62917 0.57857 0.70811
 H611 H 0.60678 0.53568 0.62958
 H612 H 0.47745 0.59228 0.61847
 C613 C 0.46544 0.38251 0.24958
 C614 C 0.44175 0.34643 0.27399
 C615 C 0.43673 0.29818 0.25804
 C616 C 0.45642 0.28652 0.21481
 C617 C 0.47990 0.32300 0.18703
 C618 C 0.48372 0.37203 0.20548
 O619 O 0.47381 0.42518 0.27521
 C620 C 0.45511 0.41548 0.31674
 C621 C 0.43444 0.36819 0.31733
 C622 C 0.41802 0.34933 0.35866
 C623 C 0.42626 0.37962 0.40195
 C624 C 0.45365 0.42808 0.40541
 C625 C 0.46369 0.44602 0.35953
 H626 H 0.42041 0.27023 0.27947
 H627 H 0.45400 0.24864 0.20506
 H628 H 0.50161 0.40195 0.18782
 H629 H 0.40163 0.31166 0.35833
 H630 H 0.41302 0.36162 0.43241
 H631 H 0.48518 0.48045 0.35625
 C632 C 0.56258 0.43887 0.76321
 C633 C 0.59830 0.42499 0.73783
 C634 C 0.63268 0.40205 0.75858
 C635 C 0.62820 0.39027 0.80659
 C636 C 0.58964 0.40133 0.83226
 C637 C 0.55781 0.42805 0.81095
 O638 O 0.53195 0.45762 0.73610
 C639 C 0.54810 0.45447 0.69242
 C640 C 0.58834 0.43483 0.69150
 C641 C 0.61034 0.42802 0.64927
 C642 C 0.58930 0.44125 0.60644
 C643 C 0.54596 0.45926 0.60455
 C644 C 0.52755 0.46842 0.65024
 H645 H 0.66021 0.39111 0.73769
 H646 H 0.65223 0.36905 0.82217
 H647 H 0.52760 0.43622 0.82941
 H648 H 0.64325 0.41421 0.64937
 H649 H 0.60921 0.44060 0.57614
 H650 H 0.50135 0.49045 0.65509
 C651 C 0.60331 0.75602 0.44148
 C652 C 0.64256 0.73778 0.45670
 C653 C 0.68914 0.76341 0.45961
 C654 C 0.69581 0.81065 0.44717
 C655 C 0.65619 0.83149 0.43242
 C656 C 0.60903 0.80367 0.42938
 O657 O 0.56238 0.72433 0.44121
 C658 C 0.57664 0.68571 0.45703
 C659 C 0.62503 0.69284 0.46741
 C660 C 0.64787 0.65821 0.48435
 C661 C 0.61968 0.61418 0.49141
 C662 C 0.56882 0.60363 0.48242
 C663 C 0.54788 0.64122 0.46314
 H664 H 0.71926 0.74789 0.47187
 H665 H 0.73192 0.83167 0.45098
 H666 H 0.57817 0.81886 0.41885
 H667 H 0.68653 0.66421 0.49045
 H668 H 0.64007 0.58803 0.49771
 H669 H 0.51029 0.63685 0.45257
 C670 C 0.63168 0.28058 0.48846
 C671 C 0.58573 0.26495 0.46756
 C672 C 0.56486 0.21661 0.45689
 C673 C 0.59318 0.18284 0.46720
 C674 C 0.64108 0.19822 0.48750
 C675 C 0.66062 0.24771 0.49854
 O676 O 0.64279 0.32789 0.49946
 C677 C 0.60283 0.34225 0.48515
 C678 C 0.56758 0.30528 0.46495
 C679 C 0.52206 0.31142 0.45254
 C680 C 0.51275 0.35746 0.46206
 C681 C 0.54697 0.39855 0.48199
 C682 C 0.59360 0.38854 0.49397
 H683 H 0.52821 0.20536 0.44131
 H684 H 0.57838 0.14487 0.45831
 H685 H 0.69699 0.26001 0.51469
 H686 H 0.49344 0.28110 0.44040
 H687 H 0.47688 0.35797 0.46260
 H688 H 0.62324 0.41287 0.51196
 C689 C 0.38971 0.72407 0.49841
 C690 C 0.42842 0.73578 0.53234
 C691 C 0.44160 0.78055 0.55875
 C692 C 0.41317 0.81479 0.55051
 C693 C 0.37270 0.80420 0.51571
 C694 C 0.36120 0.75797 0.48896
 O695 O 0.38341 0.67890 0.47808
 C696 C 0.41881 0.66186 0.50024
 C697 C 0.44713 0.69547 0.53335
 C698 C 0.48763 0.68683 0.55826
 C699 C 0.49807 0.64090 0.55042
 C700 C 0.46644 0.60192 0.52172
 C701 C 0.42880 0.61539 0.49245
 H702 H 0.47206 0.78847 0.58568
 H703 H 0.42208 0.84904 0.57246
 H704 H 0.33095 0.74850 0.46187
 H705 H 0.51177 0.71512 0.58114
 H706 H 0.53325 0.63760 0.56445
 H707 H 0.40838 0.59153 0.46334
 C708 C 0.35233 0.25061 0.54789
 C709 C 0.39898 0.25311 0.56552
 C710 C 0.41768 0.21332 0.57750
 C711 C 0.38725 0.16830 0.57001
 C712 C 0.33924 0.16381 0.55075
 C713 C 0.32097 0.20559 0.54027
 O714 O 0.34379 0.29315 0.53577
 C715 C 0.38647 0.32253 0.54505
 C716 C 0.42068 0.29918 0.56318
 C717 C 0.46800 0.32046 0.57191
 C718 C 0.48154 0.36692 0.55892
 C719 C 0.44887 0.39347 0.53673
 C720 C 0.39918 0.37108 0.53479
 H721 H 0.45488 0.21665 0.59068
 H722 H 0.40135 0.13656 0.57787
 H723 H 0.28462 0.20269 0.52451
 H724 H 0.49449 0.30088 0.58554
 H725 H 0.51928 0.37922 0.56298
 H726 H 0.37074 0.39012 0.52824
   
