data_POSCAR
  _audit_creation_date              2014-09-24
  _audit_creation_method            'ToBaCCo'
  _symmetry_space_group_name_H-M    'P1'
  _symmetry_Int_Tables_number       1
  _symmetry_cell_setting            triclinic
  loop_
  _symmetry_equiv_pos_as_xyz
 x,y,z
_cell_length_a 11.0512
_cell_length_b 41.2388
_cell_length_c 9.8503
_cell_angle_alpha 90.173100
_cell_angle_beta 58.634800
_cell_angle_gamma 89.995500
loop_
  _atom_site_label
  _atom_site_type_symbol
  _atom_site_fract_x
  _atom_site_fract_y
  _atom_site_fract_z
N1 N 0.16935 0.03783 0.12354
 N2 N 0.23676 0.06514 0.11003
 N3 N 0.04143 -0.03081 0.25369
 N4 N 0.01610 -0.05949 0.32344
 N5 N 0.17173 -0.02994 0.13046
 N6 N 0.23851 -0.05736 0.11731
 N7 N 0.03998 0.03874 0.24823
 N8 N 0.01597 0.06725 0.32025
 C9 C 0.14070 0.08326 0.23393
 C10 C 0.14108 -0.07551 0.23866
 N11 N -0.29488 -0.03195 0.21675
 N12 N -0.35369 -0.06028 0.22642
 N13 N -0.24423 0.03733 0.30316
 N14 N -0.26151 0.06673 0.36499
 N15 N -0.29776 0.03588 0.21131
 N16 N -0.35283 0.06599 0.20845
 N17 N -0.24211 -0.03122 0.30941
 N18 N -0.26410 -0.05923 0.38362
 Mn19 Mn -0.10198 0.00353 0.28119
 C20 C -0.33546 -0.07700 0.33213
 C21 C -0.32734 0.08413 0.30502
 N22 N 0.28805 -0.03166 -0.20792
 N23 N 0.34496 -0.06159 -0.20632
 N24 N 0.23111 0.03540 -0.30599
 N25 N 0.25235 0.06362 -0.37855
 N26 N 0.28479 0.03590 -0.21424
 N27 N 0.34403 0.06411 -0.22340
 N28 N 0.23396 -0.03324 -0.29913
 N29 N 0.25198 -0.06260 -0.36124
 Mn30 Mn 0.22912 0.00304 -0.04228
 C31 C 0.31915 -0.07981 -0.30237
 C32 C 0.32471 0.08114 -0.32727
 N33 N -0.18212 0.03422 -0.12709
 N34 N -0.24885 0.06152 -0.11635
 N35 N -0.05053 -0.03509 -0.24332
 N36 N -0.02556 -0.06428 -0.30963
 N37 N -0.18154 -0.03326 -0.12245
 N38 N -0.25234 -0.06210 -0.10922
 N39 N -0.05228 0.03467 -0.25126
 N40 N -0.02722 0.06292 -0.32462
 Mn41 Mn -0.23975 0.00119 0.04525
 Mn42 Mn 0.09131 0.00040 -0.27760
 Cl43 Cl -0.00531 0.00203 0.00151
 C44 C -0.15179 0.07917 -0.24071
 C45 C -0.15048 -0.08059 -0.22698
 N46 N 0.68407 0.53512 0.62158
 N47 N 0.75170 0.56229 0.61052
 N48 N 0.55374 0.46640 0.74218
 N49 N 0.52892 0.43783 0.81266
 N50 N 0.68270 0.46707 0.61655
 N51 N 0.74900 0.43943 0.60122
 N52 N 0.55520 0.53577 0.74733
 N53 N 0.53181 0.56387 0.82235
 C54 C 0.65628 0.57996 0.73704
 C55 C 0.65259 0.42146 0.72485
 N56 N 0.21325 0.46856 0.71164
 N57 N 0.15412 0.44058 0.71575
 N58 N 0.27027 0.53628 0.80635
 N59 N 0.25127 0.56483 0.87615
 N60 N 0.21410 0.53630 0.71702
 N61 N 0.15546 0.56456 0.72515
 N62 N 0.26872 0.46765 0.80161
 N63 N 0.24826 0.43882 0.86831
 Mn64 Mn 0.41125 0.50153 0.77687
 C65 C 0.17499 0.42233 0.81513
 C66 C 0.17776 0.58208 0.82582
 N67 N 0.79378 0.46816 0.27918
 N68 N 0.85153 0.43978 0.27160
 N69 N 0.73941 0.53690 0.19443
 N70 N 0.75923 0.56577 0.12826
 N71 N 0.79492 0.53601 0.28437
 N72 N 0.85343 0.56406 0.28070
 N73 N 0.73764 0.46825 0.18980
 N74 N 0.75587 0.43966 0.12049
 Mn75 Mn 0.74000 0.50159 0.44993
 C76 C 0.82880 0.42228 0.17115
 C77 C 0.83213 0.58233 0.18166
 N78 N 0.32538 0.53750 0.37984
 N79 N 0.25863 0.56506 0.39514
 N80 N 0.45266 0.46890 0.24889
 N81 N 0.47566 0.44087 0.17345
 N82 N 0.32385 0.46956 0.37471
 N83 N 0.25580 0.44249 0.38551
 N84 N 0.45436 0.53826 0.25424
 N85 N 0.47879 0.56684 0.18378
 Mn86 Mn 0.26807 0.50298 0.54629
 Mn87 Mn 0.59679 0.50308 0.21932
 Cl88 Cl 0.50405 0.50229 0.49809
 C89 C 0.35477 0.58309 0.27167
 C90 C 0.35096 0.42487 0.25866
 C91 C 0.20342 0.18598 0.24681
 C92 C 0.06621 0.17300 0.31764
 C93 C 0.04594 0.13944 0.32032
 C94 C 0.16170 0.11819 0.24936
 C95 C 0.29885 0.13105 0.17866
 C96 C 0.31931 0.16453 0.17842
 C97 C 0.22580 0.22159 0.24415
 N98 N 0.35793 0.23400 0.18416
 N99 N 0.37802 0.26590 0.18220
 C100 C 0.26688 0.28683 0.24008
 N101 N 0.13476 0.27443 0.29993
 N102 N 0.11466 0.24252 0.30195
 C103 C 0.28921 0.32242 0.23852
 C104 C 0.17387 0.34401 0.29983
 C105 C 0.19424 0.37744 0.30198
 C106 C 0.33079 0.39008 0.24026
 C107 C 0.44631 0.36873 0.17624
 C108 C 0.42588 0.33523 0.17687
 H109 H -0.02565 0.18874 0.37172
 H110 H -0.05996 0.13001 0.37509
 H111 H 0.39036 0.11521 0.12173
 H112 H 0.42601 0.17368 0.12207
 H113 H 0.06758 0.33503 0.34814
 H114 H 0.10318 0.39344 0.35291
 H115 H 0.55192 0.37799 0.12983
 H116 H 0.51728 0.31939 0.12896
 C117 C 0.68217 0.81954 0.32230
 C118 C 0.65102 0.83665 0.22152
 C119 C 0.63409 0.87012 0.23440
 C120 C 0.65188 0.88745 0.34529
 C121 C 0.67545 0.87037 0.45245
 C122 C 0.68937 0.83657 0.44181
 C123 C 0.71456 0.78454 0.29522
 N124 N 0.75126 0.76750 0.38608
 N125 N 0.78502 0.73621 0.35686
 C126 C 0.78441 0.72078 0.23507
 N127 N 0.74793 0.73785 0.14422
 N128 N 0.71411 0.76908 0.17349
 C129 C 0.81554 0.68575 0.20719
 C130 C 0.81399 0.66969 0.08196
 C131 C 0.82705 0.63597 0.06780
 C132 C 0.84373 0.61788 0.17712
 C133 C 0.85483 0.63412 0.29550
 C134 C 0.83933 0.66767 0.31141
 H135 H 0.64484 0.82428 0.12844
 H136 H 0.61477 0.88263 0.15142
 H137 H 0.68870 0.88322 0.53987
 H138 H 0.71142 0.82395 0.52255
 H139 H 0.79772 0.68302 -0.00164
 H140 H 0.81964 0.62389 -0.02522
 H141 H 0.86813 0.62076 0.38113
 H142 H 0.84071 0.67931 0.40899
 C143 C 0.78947 0.18198 0.74486
 C144 C 0.92365 0.16908 0.69746
 C145 C 0.94351 0.13552 0.69590
 C146 C 0.82976 0.11419 0.74436
 C147 C 0.69522 0.12694 0.79457
 C148 C 0.67567 0.16044 0.79317
 C149 C 0.76830 0.21760 0.74392
 N150 N 0.63859 0.23012 0.79002
 N151 N 0.61980 0.26203 0.78875
 C152 C 0.72992 0.28286 0.74122
 N153 N 0.85959 0.27033 0.69508
 N154 N 0.87836 0.23844 0.69642
 C155 C 0.70922 0.31849 0.74006
 C156 C 0.82497 0.33978 0.68345
 C157 C 0.80632 0.37329 0.68142
 C158 C 0.67097 0.38636 0.73880
 C159 C 0.55516 0.36528 0.79616
 C160 C 0.57397 0.33168 0.79540
 H161 H 1.01365 0.18488 0.66045
 H162 H 1.04684 0.12615 0.66073
 H163 H 0.60521 0.11095 0.83496
 H164 H 0.57124 0.16949 0.83085
 H165 H 0.93030 0.33048 0.63933
 H166 H 0.89771 0.38904 0.63497
 H167 H 0.45063 0.37486 0.83834
 H168 H 0.48235 0.31609 0.83928
 C169 C 0.31590 0.81960 0.70546
 C170 C 0.35424 0.83712 0.79953
 C171 C 0.36553 0.87078 0.78872
 C172 C 0.33357 0.88778 0.68719
 C173 C 0.30538 0.86997 0.58498
 C174 C 0.29741 0.83623 0.59335
 C175 C 0.28803 0.78448 0.73013
 N176 N 0.24704 0.76761 0.64240
 N177 N 0.21582 0.73626 0.66922
 C178 C 0.22329 0.72053 0.78554
 N179 N 0.26431 0.73738 0.87339
 N180 N 0.29563 0.76876 0.84649
 C181 C 0.19372 0.68547 0.81037
 C182 C 0.19822 0.66897 0.93227
 C183 C 0.18531 0.63523 0.94360
 C184 C 0.16643 0.61762 0.83422
 C185 C 0.15271 0.63433 0.71907
 C186 C 0.16751 0.66786 0.70638
 H187 H 0.37070 0.82492 0.88557
 H188 H 0.39078 0.88343 0.86737
 H189 H 0.28839 0.88218 0.49930
 H190 H 0.27247 0.82327 0.51538
 H191 H 0.21628 0.68201 1.01537
 H192 H 0.19428 0.62276 1.03443
 H193 H 0.13762 0.62137 0.63340
 H194 H 0.16372 0.67983 0.61116
 C195 C 0.31012 0.18463 0.68547
 C196 C 0.33638 0.16719 0.78939
 C197 C 0.35150 0.13367 0.77672
 C198 C 0.33747 0.11669 0.66208
 C199 C 0.31888 0.13410 0.55226
 C200 C 0.30614 0.16790 0.56324
 C201 C 0.27993 0.21972 0.71117
 N202 N 0.24578 0.23689 0.61842
 N203 N 0.21423 0.26830 0.64592
 C204 C 0.21467 0.28374 0.76776
 N205 N 0.24855 0.26655 0.86055
 N206 N 0.28013 0.23518 0.83304
 C207 C 0.18603 0.31888 0.79370
 C208 C 0.18874 0.33500 0.91806
 C209 C 0.17775 0.36876 0.93071
 C210 C 0.16189 0.38681 0.82080
 C211 C 0.14969 0.37055 0.70318
 C212 C 0.16323 0.33697 0.68870
 H213 H 0.34021 0.17932 0.88450
 H214 H 0.36662 0.12091 0.86253
 H215 H 0.30925 0.12147 0.46187
 H216 H 0.28807 0.18078 0.47997
 H217 H 0.20422 0.32166 1.00218
 H218 H 0.18586 0.38087 1.02318
 H219 H 0.13690 0.38391 0.61716
 H220 H 0.16103 0.32528 0.59165
 C221 C 0.79479 0.81950 0.74686
 C222 C 0.92994 0.83352 0.65828
 C223 C 0.94751 0.86719 0.65885
 C224 C 0.83137 0.88759 0.75447
 C225 C 0.69553 0.87348 0.83941
 C226 C 0.67770 0.84004 0.83438
 C227 C 0.77505 0.78377 0.74861
 N228 N 0.64294 0.77082 0.81842
 N229 N 0.62451 0.73884 0.82118
 C230 C 0.73730 0.71832 0.75476
 N231 N 0.86954 0.73125 0.68510
 N232 N 0.88801 0.76326 0.68204
 C233 C 0.71615 0.68263 0.75716
 C234 C 0.83194 0.66117 0.69596
 C235 C 0.81222 0.62767 0.69385
 C236 C 0.67593 0.61484 0.75535
 C237 C 0.56003 0.63608 0.81951
 C238 C 0.57977 0.66961 0.81906
 H239 H 1.02237 0.81843 0.58864
 H240 H 1.05289 0.87703 0.58951
 H241 H 0.60210 0.88821 0.91142
 H242 H 0.57218 0.83015 0.90301
 H243 H 0.93803 0.67031 0.64767
 H244 H 0.90360 0.61178 0.64290
 H245 H 0.45459 0.62671 0.86589
 H246 H 0.48803 0.68532 0.86689
 C247 C 0.20504 0.82174 0.24379
 C248 C 0.07476 0.83407 0.27326
 C249 C 0.05271 0.86758 0.27644
 C250 C 0.16033 0.88939 0.24879
 C251 C 0.29165 0.87722 0.21438
 C252 C 0.31314 0.84380 0.21379
 C253 C 0.22808 0.78623 0.24550
 N254 N 0.35648 0.77434 0.20858
 N255 N 0.37697 0.74255 0.21143
 C256 C 0.26978 0.72123 0.25186
 N257 N 0.14134 0.73312 0.28889
 N258 N 0.12093 0.76490 0.28574
 C259 C 0.29252 0.68574 0.25474
 C260 C 0.17806 0.66408 0.31207
 C261 C 0.19869 0.63068 0.31472
 C262 C 0.33482 0.61808 0.25724
 C263 C 0.44941 0.63953 0.19951
 C264 C 0.42856 0.67304 0.19976
 H265 H -0.01037 0.81785 0.29475
 H266 H -0.04671 0.87659 0.29594
 H267 H 0.37722 0.89366 0.18917
 H268 H 0.41435 0.83520 0.19027
 H269 H 0.07222 0.67301 0.35612
 H270 H 0.10824 0.61464 0.36152
 H271 H 0.55454 0.63033 0.15720
 H272 H 0.51928 0.68894 0.15514
 C273 C 0.68262 0.18477 0.29327
 C274 C 0.64924 0.16726 0.19495
 C275 C 0.63440 0.13367 0.20782
 C276 C 0.65966 0.11660 0.31448
 C277 C 0.68336 0.13439 0.42027
 C278 C 0.69358 0.16816 0.41066
 C279 C 0.71296 0.21984 0.26764
 N280 N 0.75206 0.23668 0.35720
 N281 N 0.78464 0.26798 0.33002
 C282 C 0.78042 0.28370 0.21159
 N283 N 0.74142 0.26687 0.12185
 N284 N 0.70878 0.23555 0.14907
 C285 C 0.81088 0.31877 0.18663
 C286 C 0.80664 0.33539 0.06477
 C287 C 0.82011 0.36914 0.05354
 C288 C 0.83924 0.38667 0.16298
 C289 C 0.85276 0.36985 0.27800
 C290 C 0.83754 0.33631 0.29050
 H291 H 0.64007 0.17939 0.10364
 H292 H 0.61341 0.12107 0.12570
 H293 H 0.69620 0.12217 0.50903
 H294 H 0.71503 0.18110 0.49147
 H295 H 0.78840 0.32245 -0.01848
 H296 H 0.81150 0.38165 -0.03740
 H297 H 0.86832 0.38273 0.36350
 H298 H 0.84164 0.32424 0.38531
   
