data_POSCAR
  _audit_creation_date              2014-09-24
  _audit_creation_method            'ToBaCCo'
  _symmetry_space_group_name_H-M    'P1'
  _symmetry_Int_Tables_number       1
  _symmetry_cell_setting            triclinic
  loop_
  _symmetry_equiv_pos_as_xyz
 x,y,z
_cell_length_a 53.5273
_cell_length_b 52.8690
_cell_length_c 53.5073
_cell_angle_alpha 89.937200
_cell_angle_beta 90.042300
_cell_angle_gamma 90.013800
loop_
  _atom_site_label
  _atom_site_type_symbol
  _atom_site_fract_x
  _atom_site_fract_y
  _atom_site_fract_z
C1 C 0.60580 0.64406 0.62551
 C2 C 0.60608 0.62531 0.64414
 C3 C 0.62456 0.60621 0.64454
 C4 C 0.64289 0.60658 0.62553
 C5 C 0.64287 0.62522 0.60680
 C6 C 0.62426 0.64386 0.60696
 H7 H 0.59128 0.62545 0.65786
 H8 H 0.65821 0.59325 0.62583
 H9 H 0.62376 0.65790 0.59220
 C10 C 0.89473 0.35612 0.12545
 C11 C 0.89405 0.37488 0.14425
 C12 C 0.87538 0.39354 0.14459
 C13 C 0.85701 0.39354 0.12592
 C14 C 0.85711 0.37522 0.10701
 C15 C 0.87592 0.35669 0.10690
 H16 H 0.90839 0.37565 0.15846
 H17 H 0.84293 0.40826 0.12574
 H18 H 0.87483 0.34194 0.09296
 C19 C 0.39435 0.14382 -0.12517
 C20 C 0.39401 0.12507 -0.14374
 C21 C 0.37532 0.10642 -0.14406
 C22 C 0.35680 0.10668 -0.12547
 C23 C 0.35681 0.12527 -0.10673
 C24 C 0.37567 0.14376 -0.10674
 H25 H 0.40797 0.12538 -0.15839
 H26 H 0.34232 0.09236 -0.12559
 H27 H 0.37618 0.15775 -0.09198
 C28 C 0.10509 0.85588 0.37476
 C29 C 0.12407 0.85629 0.39314
 C30 C 0.14278 0.87493 0.39310
 C31 C 0.14262 0.89353 0.37443
 C32 C 0.12409 0.89369 0.35591
 C33 C 0.10549 0.87494 0.35621
 H34 H 0.12377 0.84298 0.40850
 H35 H 0.15736 0.90757 0.37391
 H36 H 0.09178 0.87505 0.34136
 N37 N 0.09589 0.16513 0.11294
 N38 N 0.08582 0.15449 0.13270
 C39 C 0.06559 0.16791 0.13959
 C40 C 0.06276 0.18807 0.12323
 C41 C 0.08241 0.18562 0.10655
 H42 H 0.05371 0.16323 0.15524
 H43 H 0.08678 0.19792 0.09101
 Cu44 Cu 0.10011 0.12414 0.14754
 Cu45 Cu 0.12575 0.15171 0.09698
 Cu46 Cu 0.15229 0.09829 0.12360
 N47 N 0.11566 0.09455 0.16262
 N48 N 0.13600 0.08452 0.15315
 C49 C 0.14273 0.06440 0.16702
 C50 C 0.12571 0.06159 0.18634
 C51 C 0.10878 0.08115 0.18290
 H52 H 0.15896 0.05284 0.16337
 H53 H 0.09256 0.08522 0.19419
 N54 N 0.16603 0.11498 0.09366
 N55 N 0.15595 0.13534 0.08356
 C56 C 0.16954 0.14217 0.06348
 C57 C 0.18915 0.12531 0.06073
 C58 C 0.18627 0.10832 0.08026
 H59 H 0.16529 0.15813 0.05159
 H60 H 0.19814 0.09238 0.08454
 H61 H 0.12081 0.11459 0.10805
 H62 H 0.14021 0.13506 0.12885
 N63 N 0.40368 0.83523 0.61329
 N64 N 0.41342 0.84552 0.63339
 C65 C 0.43369 0.83212 0.64029
 C66 C 0.43687 0.81234 0.62360
 C67 C 0.41740 0.81499 0.60670
 H68 H 0.44535 0.83658 0.65617
 H69 H 0.41331 0.80299 0.59088
 Cu70 Cu 0.39861 0.87541 0.64853
 Cu71 Cu 0.37390 0.84876 0.59715
 Cu72 Cu 0.34723 0.90207 0.62379
 N73 N 0.38346 0.90531 0.66331
 N74 N 0.36340 0.91565 0.65351
 C75 C 0.35683 0.93592 0.66719
 C76 C 0.37367 0.93852 0.68672
 C77 C 0.39032 0.91868 0.68360
 H78 H 0.34083 0.94774 0.66326
 H79 H 0.40637 0.91439 0.69511
 N80 N 0.33364 0.88554 0.59369
 N81 N 0.34376 0.86524 0.58359
 C82 C 0.33025 0.85849 0.56343
 C83 C 0.31064 0.87536 0.56063
 C84 C 0.31345 0.89225 0.58021
 H85 H 0.33453 0.84258 0.55153
 H86 H 0.30154 0.90816 0.58448
 H87 H 0.37887 0.88570 0.60872
 H88 H 0.35883 0.86513 0.62879
 N89 N 0.90407 0.66463 0.38733
 N90 N 0.91417 0.65397 0.36761
 C91 C 0.93444 0.66737 0.36073
 C92 C 0.93727 0.68753 0.37704
 C93 C 0.91757 0.68511 0.39369
 H94 H 0.94634 0.66267 0.34511
 H95 H 0.91318 0.69743 0.40918
 Cu96 Cu 0.89984 0.62365 0.35279
 Cu97 Cu 0.87415 0.65128 0.40323
 Cu98 Cu 0.84749 0.59796 0.37663
 N99 N 0.88422 0.59413 0.33771
 N100 N 0.86381 0.58417 0.34713
 C101 C 0.85703 0.56410 0.33325
 C102 C 0.87409 0.56125 0.31398
 C103 C 0.89109 0.58073 0.31746
 H104 H 0.84073 0.55260 0.33687
 H105 H 0.90736 0.58477 0.30621
 N106 N 0.83375 0.61465 0.40652
 N107 N 0.84387 0.63497 0.41662
 C108 C 0.83027 0.64182 0.43666
 C109 C 0.81060 0.62501 0.43939
 C110 C 0.81346 0.60804 0.41989
 H111 H 0.83454 0.65775 0.44854
 H112 H 0.80155 0.59212 0.41561
 H113 H 0.87899 0.61414 0.39224
 H114 H 0.85973 0.63468 0.37134
 N115 N 0.59729 0.33426 -0.11407
 N116 N 0.58782 0.34424 -0.13448
 C117 C 0.56755 0.33083 -0.14134
 C118 C 0.56412 0.31132 -0.12434
 C119 C 0.58343 0.31416 -0.10729
 H120 H 0.55626 0.33487 -0.15760
 H121 H 0.58707 0.30264 -0.09100
 Cu122 Cu 0.60285 0.37381 -0.15010
 Cu123 Cu 0.62679 0.34808 -0.09776
 Cu124 Cu 0.65337 0.40143 -0.12446
 N125 N 0.61762 0.40417 -0.16443
 N126 N 0.63737 0.41483 -0.15435
 C127 C 0.64370 0.43534 -0.16785
 C128 C 0.62700 0.43778 -0.18752
 C129 C 0.61069 0.41760 -0.18468
 H130 H 0.65921 0.44765 -0.16347
 H131 H 0.59504 0.41291 -0.19656
 N132 N 0.66683 0.38508 -0.09420
 N133 N 0.65669 0.36480 -0.08401
 C134 C 0.67007 0.35821 -0.06370
 C135 C 0.68964 0.37514 -0.06091
 C136 C 0.68694 0.39190 -0.08064
 H137 H 0.66598 0.34211 -0.05195
 H138 H 0.69863 0.40803 -0.08475
 H139 H 0.62152 0.38481 -0.10999
 H140 H 0.64232 0.36429 -0.12929
 C141 C -0.04861 0.29962 0.12471
 C142 C -0.05550 0.31107 0.14717
 C143 C -0.07408 0.32964 0.14749
 C144 C -0.08632 0.33721 0.12523
 C145 C -0.07900 0.32529 0.10270
 C146 C -0.06038 0.30676 0.10251
 C147 C -0.02947 0.28051 0.12446
 C148 C -0.01345 0.26449 0.12425
 C149 C 0.00567 0.24536 0.12401
 C150 C 0.02152 0.24303 0.10337
 C151 C 0.04009 0.22443 0.10310
 C152 C 0.04307 0.20786 0.12351
 C153 C 0.02699 0.21040 0.14418
 C154 C 0.00844 0.22902 0.14440
 H155 H -0.04664 0.30550 0.16454
 H156 H -0.07938 0.33713 0.16551
 H157 H -0.08679 0.33082 0.08486
 H158 H -0.05502 0.29815 0.08495
 H159 H 0.01951 0.25555 0.08746
 H160 H 0.05192 0.22300 0.08679
 H161 H 0.02876 0.19820 0.16031
 H162 H -0.00371 0.23069 0.16049
 C163 C 0.54860 0.70115 0.62479
 C164 C 0.57348 0.70773 0.62006
 C165 C 0.59208 0.68917 0.62028
 C166 C 0.58602 0.66376 0.62527
 C167 C 0.56095 0.65734 0.62998
 C168 C 0.54238 0.67592 0.62974
 C169 C 0.52947 0.72026 0.62457
 C170 C 0.51342 0.73626 0.62438
 C171 C 0.49426 0.75535 0.62417
 C172 C 0.49122 0.77134 0.64476
 C173 C 0.47259 0.78987 0.64459
 C174 C 0.45670 0.79268 0.62379
 C175 C 0.45995 0.77647 0.60318
 C176 C 0.47861 0.75796 0.60340
 H177 H 0.57851 0.72721 0.61626
 H178 H 0.61125 0.69472 0.61685
 H179 H 0.55566 0.63789 0.63353
 H180 H 0.52316 0.67061 0.63334
 H181 H 0.50322 0.76945 0.66097
 H182 H 0.47061 0.80179 0.66088
 H183 H 0.44828 0.77812 0.58676
 H184 H 0.48082 0.74571 0.58733
 C185 C 1.04858 0.79920 0.37546
 C186 C 1.04387 0.82272 0.36453
 C187 C 1.06237 0.84137 0.36425
 C188 C 1.08617 0.83693 0.37499
 C189 C 1.09047 0.81294 0.38598
 C190 C 1.07189 0.79436 0.38616
 C191 C 1.02948 0.78004 0.37570
 C192 C 1.01348 0.76399 0.37592
 C193 C 0.99438 0.74483 0.37620
 C194 C 0.97844 0.74255 0.39678
 C195 C 0.95988 0.72395 0.39708
 C196 C 0.95698 0.70732 0.37675
 C197 C 0.97314 0.70980 0.35613
 C198 C 0.99168 0.72843 0.35588
 H199 H 1.02576 0.82675 0.35638
 H200 H 1.05738 0.85955 0.35646
 H201 H 1.10849 0.80784 0.39362
 H202 H 1.07581 0.77610 0.39449
 H203 H 0.98040 0.75513 0.41264
 H204 H 0.94799 0.72257 0.41336
 H205 H 0.97143 0.69755 0.34005
 H206 H 1.00389 0.73006 0.33982
 C207 C 0.45183 0.20065 -0.12476
 C208 C 0.45783 0.17548 -0.13014
 C209 C 0.43915 0.15699 -0.13028
 C210 C 0.41421 0.16345 -0.12501
 C211 C 0.40838 0.18881 -0.11960
 C212 C 0.42708 0.20727 -0.11949
 C213 C 0.47107 0.21967 -0.12465
 C214 C 0.48719 0.23559 -0.12457
 C215 C 0.50645 0.25459 -0.12449
 C216 C 0.52702 0.25215 -0.10854
 C217 C 0.54576 0.27058 -0.10845
 C218 C 0.54420 0.29175 -0.12438
 C219 C 0.52340 0.29398 -0.14036
 C220 C 0.50468 0.27553 -0.14038
 H221 H 0.47694 0.17013 -0.13418
 H222 H 0.44427 0.13758 -0.13420
 H223 H 0.38931 0.19443 -0.11578
 H224 H 0.42223 0.22672 -0.11536
 H225 H 0.52861 0.23598 -0.09618
 H226 H 0.56151 0.26804 -0.09604
 H227 H 0.52137 0.31003 -0.15274
 H228 H 0.48880 0.27762 -0.15279
 C229 C 0.12480 -0.04934 0.29850
 C230 C 0.11990 -0.07458 0.29235
 C231 C 0.11966 -0.09313 0.31099
 C232 C 0.12433 -0.08665 0.33606
 C233 C 0.12928 -0.06123 0.34205
 C234 C 0.12950 -0.04271 0.32338
 C235 C 0.12501 -0.03026 0.27930
 C236 C 0.12517 -0.01429 0.26320
 C237 C 0.12534 0.00475 0.24397
 C238 C 0.10955 0.02575 0.24576
 C239 C 0.10966 0.04424 0.22705
 C240 C 0.12560 0.04199 0.20625
 C241 C 0.14143 0.02078 0.20468
 C242 C 0.14127 0.00231 0.22341
 H243 H 0.11632 -0.07993 0.27313
 H244 H 0.11615 -0.11258 0.30575
 H245 H 0.13269 -0.05563 0.36122
 H246 H 0.13326 -0.02321 0.32835
 H247 H 0.09717 0.02784 0.26163
 H248 H 0.09736 0.06032 0.22909
 H249 H 0.15382 0.01823 0.18893
 H250 H 0.15355 -0.01390 0.22181
 C251 C 0.62525 0.54953 -0.29889
 C252 C 0.63586 0.54467 -0.32222
 C253 C 0.63568 0.56325 -0.34082
 C254 C 0.62478 0.58726 -0.33652
 C255 C 0.61412 0.59171 -0.31271
 C256 C 0.61440 0.57306 -0.29418
 C257 C 0.62551 0.53037 -0.27976
 C258 C 0.62575 0.51431 -0.26374
 C259 C 0.62605 0.49515 -0.24463
 C260 C 0.64666 0.49287 -0.22871
 C261 C 0.64699 0.47425 -0.21014
 C262 C 0.62667 0.45759 -0.20723
 C263 C 0.60602 0.46007 -0.22338
 C264 C 0.60574 0.47872 -0.24192
 H265 H 0.64414 0.52640 -0.32613
 H266 H 0.64326 0.55814 -0.35885
 H267 H 0.60639 0.60990 -0.30772
 H268 H 0.60630 0.57710 -0.27606
 H269 H 0.66251 0.50547 -0.23067
 H270 H 0.66329 0.47287 -0.19826
 H271 H 0.58995 0.44780 -0.22166
 H272 H 0.58966 0.48034 -0.25413
 C273 C 0.37470 1.04949 0.79862
 C274 C 0.35234 1.06087 0.80615
 C275 C 0.35251 1.07938 0.82479
 C276 C 0.37509 1.08675 0.83614
 C277 C 0.39747 1.07520 0.82842
 C278 C 0.39725 1.05668 0.80979
 C279 C 0.37450 1.03044 0.77943
 C280 C 0.37434 1.01448 0.76335
 C281 C 0.37417 0.99544 0.74415
 C282 C 0.35842 0.99801 0.72344
 C283 C 0.35823 0.97953 0.70477
 C284 C 0.37385 0.95817 0.70655
 C285 C 0.38962 0.95580 0.72749
 C286 C 0.38976 0.97431 0.74614
 H287 H 0.33479 1.05549 0.79757
 H288 H 0.33503 1.08816 0.83010
 H289 H 0.41510 1.08025 0.83701
 H290 H 0.41466 1.04794 0.80413
 H291 H 0.34629 1.01433 0.72169
 H292 H 0.34597 0.98218 0.68891
 H293 H 0.40176 0.93961 0.72969
 H294 H 0.40201 0.97211 0.76212
 C295 C 0.87480 0.45056 0.20182
 C296 C 0.89730 0.44364 0.19043
 C297 C 0.89752 0.42511 0.17181
 C298 C 0.87520 0.41325 0.16434
 C299 C 0.85266 0.42038 0.17588
 C300 C 0.85249 0.43890 0.19451
 C301 C 0.87461 0.46959 0.22103
 C302 C 0.87447 0.48553 0.23712
 C303 C 0.87434 0.50453 0.25635
 C304 C 0.89035 0.52537 0.25469
 C305 C 0.89029 0.54382 0.27339
 C306 C 0.87415 0.54169 0.29407
 C307 C 0.85810 0.52063 0.29551
 C308 C 0.85822 0.50221 0.27679
 H309 H 0.91467 0.45261 0.19589
 H310 H 0.91511 0.42029 0.16302
 H311 H 0.83523 0.41140 0.17070
 H312 H 0.83497 0.44408 0.20325
 H313 H 0.90289 0.52738 0.23893
 H314 H 0.90277 0.55978 0.27146
 H315 H 0.84556 0.51817 0.31116
 H316 H 0.84576 0.48612 0.27828
 C317 C 0.30008 0.12543 -0.04988
 C318 C 0.31088 0.10262 -0.05752
 C319 C 0.32932 0.10253 -0.07600
 C320 C 0.33723 0.12532 -0.08708
 C321 C 0.32627 0.14817 -0.07925
 C322 C 0.30781 0.14820 -0.06077
 C323 C 0.28107 0.12548 -0.03087
 C324 C 0.26514 0.12549 -0.01496
 C325 C 0.24612 0.12547 0.00404
 C326 C 0.24317 0.10443 0.01962
 C327 C 0.22468 0.10435 0.03806
 C328 C 0.20883 0.12537 0.04118
 C329 C 0.21200 0.14645 0.02537
 C330 C 0.23052 0.14647 0.00695
 H331 H 0.30508 0.08489 -0.04915
 H332 H 0.33764 0.08469 -0.08139
 H333 H 0.33175 0.16597 -0.08764
 H334 H 0.29953 0.16596 -0.05504
 H335 H 0.25513 0.08804 0.01749
 H336 H 0.22274 0.08771 0.04966
 H337 H 0.20037 0.16305 0.02727
 H338 H 0.23267 0.16289 -0.00499
 C339 C 0.69955 0.62532 0.54989
 C340 C 0.69197 0.64809 0.56083
 C341 C 0.67353 0.64809 0.57932
 C342 C 0.66244 0.62527 0.58712
 C343 C 0.67019 0.60248 0.57599
 C344 C 0.68862 0.60253 0.55749
 C345 C 0.71856 0.62533 0.53088
 C346 C 0.73450 0.62532 0.51497
 C347 C 0.75354 0.62526 0.49600
 C348 C 0.76921 0.64623 0.49308
 C349 C 0.78775 0.64618 0.47468
 C350 C 0.79088 0.62511 0.45891
 C351 C 0.77497 0.60413 0.46203
 C352 C 0.75645 0.60423 0.48044
 H353 H 0.70036 0.66583 0.55513
 H354 H 0.66818 0.66589 0.58776
 H355 H 0.66178 0.58466 0.58138
 H356 H 0.69431 0.58481 0.54909
 H357 H 0.76709 0.66264 0.50500
 H358 H 0.79944 0.66275 0.47278
 H359 H 0.77687 0.58749 0.45045
 H360 H 0.74444 0.58787 0.48258
 C361 C 0.80025 0.37541 0.05019
 C362 C 0.82515 0.37061 0.04381
 C363 C 0.84365 0.37055 0.06227
 C364 C 0.83746 0.37531 0.08738
 C365 C 0.81237 0.38014 0.09360
 C366 C 0.79390 0.38017 0.07511
 C367 C 0.78123 0.37542 0.03117
 C368 C 0.76531 0.37541 0.01522
 C369 C 0.74632 0.37538 -0.00383
 C370 C 0.74890 0.39075 -0.02496
 C371 C 0.73049 0.39071 -0.04351
 C372 C 0.70919 0.37524 -0.04119
 C373 C 0.70681 0.35986 -0.01982
 C374 C 0.72524 0.35995 -0.00130
 H375 H 0.83028 0.36697 0.02456
 H376 H 0.86284 0.36709 0.05686
 H377 H 0.80699 0.38355 0.11280
 H378 H 0.77467 0.38384 0.08026
 H379 H 0.76517 0.40275 -0.02713
 H380 H 0.73314 0.40266 -0.05971
 H381 H 0.69066 0.34786 -0.01721
 H382 H 0.72304 0.34800 0.01502
 C383 C 0.19969 0.87514 0.44987
 C384 C 0.19209 0.85233 0.43901
 C385 C 0.17359 0.85224 0.42056
 C386 C 0.16244 0.87501 0.41271
 C387 C 0.17022 0.89785 0.42374
 C388 C 0.18871 0.89789 0.44221
 C389 C 0.21872 0.87520 0.46888
 C390 C 0.23467 0.87524 0.48480
 C391 C 0.25371 0.87528 0.50380
 C392 C 0.26938 0.85431 0.50671
 C393 C 0.28789 0.85431 0.52516
 C394 C 0.29099 0.87533 0.54101
 C395 C 0.27509 0.89632 0.53789
 C396 C 0.25661 0.89627 0.51942
 H397 H 0.20052 0.83462 0.44476
 H398 H 0.16822 0.83441 0.41220
 H399 H 0.16177 0.91564 0.41832
 H400 H 0.19441 0.91565 0.45054
 H401 H 0.26726 0.83793 0.49474
 H402 H 0.29956 0.83773 0.52706
 H403 H 0.27698 0.91293 0.54953
 H404 H 0.24460 0.91263 0.51729
   
