data_POSCAR
  _audit_creation_date              2014-09-24
  _audit_creation_method            'ToBaCCo'
  _symmetry_space_group_name_H-M    'P1'
  _symmetry_Int_Tables_number       1
  _symmetry_cell_setting            triclinic
  loop_
  _symmetry_equiv_pos_as_xyz
 x,y,z
_cell_length_a 60.6535
_cell_length_b 62.1125
_cell_length_c 62.1054
_cell_angle_alpha 90.000100
_cell_angle_beta 90.120800
_cell_angle_gamma 90.199000
loop_
  _atom_site_label
  _atom_site_type_symbol
  _atom_site_fract_x
  _atom_site_fract_y
  _atom_site_fract_z
C1 C 0.30396 0.33362 0.00943
 C2 C 0.30120 0.33052 -0.01306
 C3 C 0.31241 0.31338 -0.02305
 C4 C 0.32770 0.30034 -0.01184
 C5 C 0.32996 0.30354 0.01081
 C6 C 0.31835 0.32021 0.02086
 H7 H 0.31983 0.32217 0.03816
 H8 H 0.31045 0.31132 -0.04027
 C9 C 0.69926 0.67038 0.01036
 C10 C 0.69963 0.67114 -0.01243
 C11 C 0.68574 0.68552 -0.02333
 C12 C 0.67135 0.69960 -0.01239
 C13 C 0.67186 0.69942 0.01059
 C14 C 0.68555 0.68479 0.02142
 H15 H 0.68520 0.68448 0.03887
 H16 H 0.68621 0.68545 -0.04077
 C17 C 0.70822 0.32060 0.98731
 C18 C 0.70789 0.32011 1.01027
 C19 C 0.69255 0.30632 1.02043
 C20 C 0.67839 0.29261 1.00881
 C21 C 0.67960 0.29257 0.98603
 C22 C 0.69433 0.30661 0.97573
 H23 H 0.69466 0.30696 0.95827
 H24 H 0.69167 0.30603 1.03785
 C25 C 0.29127 0.68058 0.99020
 C26 C 0.29218 0.67970 1.01310
 C27 C 0.30758 0.69301 1.02380
 C28 C 0.32107 0.70796 1.01287
 C29 C 0.31997 0.70858 0.98997
 C30 C 0.30480 0.69526 0.97920
 H31 H 0.30461 0.69527 0.96174
 H32 H 0.30809 0.69269 1.04124
 C33 C 0.01434 0.30000 0.32698
 C34 C -0.00906 0.30001 0.32710
 C35 C -0.02025 0.31375 0.31279
 C36 C -0.00893 0.32785 0.29889
 C37 C 0.01446 0.32769 0.29893
 C38 C 0.02563 0.31397 0.31310
 H39 H 0.04352 0.31373 0.31292
 H40 H -0.03810 0.31421 0.31318
 C41 C 0.01032 0.70130 0.67334
 C42 C -0.01315 0.70100 0.67234
 C43 C -0.02457 0.68632 0.68564
 C44 C -0.01377 0.67328 0.70097
 C45 C 0.00970 0.67394 0.70187
 C46 C 0.02117 0.68814 0.68833
 H47 H 0.03905 0.68796 0.68851
 H48 H -0.04242 0.68617 0.68515
 C49 C 0.98569 0.69904 0.32633
 C50 C 1.00905 0.69896 0.32608
 C51 C 1.01994 0.68516 0.31165
 C52 C 1.00846 0.67083 0.29788
 C53 C 0.98494 0.67128 0.29833
 C54 C 0.97412 0.68509 0.31264
 H55 H 0.95622 0.68534 0.31275
 H56 H 1.03780 0.68503 0.31193
 C57 C 0.98968 0.30152 0.67160
 C58 C 1.01316 0.30123 0.67017
 C59 C 1.02510 0.31502 0.68407
 C60 C 1.01468 0.32897 0.69859
 C61 C 0.99135 0.32962 0.69941
 C62 C 0.97933 0.31570 0.68594
 H63 H 0.96146 0.31598 0.68636
 H64 H 1.04296 0.31510 0.68374
 C65 C 0.32768 0.01121 0.30000
 C66 C 0.32768 -0.01172 0.29897
 C67 C 0.31301 -0.02299 0.31268
 C68 C 0.29923 -0.01254 0.32776
 C69 C 0.29968 0.01040 0.32831
 C70 C 0.31395 0.02168 0.31468
 H71 H 0.31407 0.03915 0.31523
 H72 H 0.31288 -0.04040 0.31212
 C73 C 0.67203 0.01134 0.69981
 C74 C 0.67312 -0.01147 0.69992
 C75 C 0.68749 -0.02191 0.68566
 C76 C 0.70113 -0.01043 0.67137
 C77 C 0.70048 0.01240 0.67174
 C78 C 0.68591 0.02282 0.68579
 H79 H 0.68528 0.04027 0.68560
 H80 H 0.68787 -0.03936 0.68561
 C81 C 0.32146 0.98734 0.70425
 C82 C 0.32099 1.01027 0.70499
 C83 C 0.30600 1.02095 0.69119
 C84 C 0.29254 1.00998 0.67608
 C85 C 0.29355 0.98705 0.67570
 C86 C 0.30797 0.97633 0.68961
 H87 H 0.30854 0.95886 0.68918
 H88 H 0.30543 1.03836 0.69164
 C89 C 0.67658 0.98924 0.29679
 C90 C 0.67668 1.01204 0.29610
 C91 C 0.69104 1.02335 0.30995
 C92 C 0.70483 1.01280 0.32503
 C93 C 0.70445 0.98982 0.32535
 C94 C 0.69027 0.97862 0.31147
 H95 H 0.69023 0.96115 0.31182
 H96 H 0.69069 1.04077 0.30949
 O97 O 0.87580 0.84396 0.47862
 O98 O 0.84567 0.87560 0.51921
 O99 O 0.87578 0.84533 0.52066
 O100 O 0.84618 0.87402 0.47744
 O101 O 0.81957 0.84968 0.47879
 O102 O 0.84973 0.82039 0.52104
 O103 O 0.82000 0.85032 0.52065
 O104 O 0.84935 0.81942 0.47917
 Cu105 Cu 0.86354 0.86219 0.49899
 Cu106 Cu 0.83205 0.83246 0.49996
 C107 C 0.86759 0.82636 0.47189
 C108 C 0.82769 0.86834 0.52678
 C109 C 0.86786 0.82789 0.52809
 C110 C 0.82773 0.86680 0.47091
 O111 O 0.15451 0.12530 0.52048
 O112 O 0.12640 0.15586 0.47780
 O113 O 0.15586 0.12574 0.47859
 O114 O 0.12497 0.15615 0.51960
 O115 O 0.15161 0.18048 0.52069
 O116 O 0.18251 0.15004 0.48000
 O117 O 0.15287 0.18038 0.47886
 O118 O 0.18078 0.15000 0.52183
 Cu119 Cu 0.13777 0.13828 0.49911
 Cu120 Cu 0.16961 0.16768 0.50044
 C121 C 0.17247 0.13238 0.52833
 C122 C 0.13486 0.17332 0.47108
 C123 C 0.17447 0.13276 0.47235
 C124 C 0.13297 0.17360 0.52696
 O125 O 0.12765 0.83770 0.51907
 O126 O 0.15795 0.86956 0.47876
 O127 O 0.12795 0.83904 0.47769
 O128 O 0.15704 0.86835 0.52072
 O129 O 0.18404 0.84460 0.51963
 O130 O 0.15414 0.81440 0.47750
 O131 O 0.18389 0.84471 0.47771
 O132 O 0.15464 0.81388 0.51958
 Cu133 Cu 0.14006 0.85619 0.49905
 Cu134 Cu 0.17184 0.82695 0.49856
 C135 C 0.13601 0.82038 0.52618
 C136 C 0.17603 0.86251 0.47131
 C137 C 0.13585 0.82155 0.47056
 C138 C 0.17554 0.86155 0.52742
 O139 O 0.87239 0.15989 0.52220
 O140 O 0.84402 0.12941 0.47939
 O141 O 0.87416 0.15993 0.48041
 O142 O 0.84295 0.12961 0.52123
 O143 O 0.81672 0.15418 0.52022
 O144 O 0.84759 0.18413 0.47878
 O145 O 0.81782 0.15400 0.47830
 O146 O 0.84645 0.18474 0.52069
 Cu147 Cu 0.86102 0.14224 0.50081
 Cu148 Cu 0.82950 0.17173 0.49941
 C149 C 0.86425 0.17754 0.52868
 C150 C 0.82600 0.13643 0.47170
 C151 C 0.86625 0.17721 0.47272
 C152 C 0.82456 0.13678 0.52773
 O153 O 0.47777 0.87342 0.84385
 O154 O 0.52096 0.84360 0.87295
 O155 O 0.52097 0.87359 0.84345
 O156 O 0.47853 0.84352 0.87342
 O157 O 0.47741 0.81904 0.84762
 O158 O 0.52077 0.84848 0.81826
 O159 O 0.52042 0.81854 0.84769
 O160 O 0.47800 0.84880 0.81818
 Cu161 Cu 0.49960 0.86113 0.86089
 Cu162 Cu 0.49914 0.83121 0.83039
 C163 C 0.47060 0.86619 0.82603
 C164 C 0.52777 0.82583 0.86542
 C165 C 0.52814 0.86610 0.82578
 C166 C 0.47083 0.82614 0.86567
 O167 O 0.51941 0.15561 0.12481
 O168 O 0.47678 0.12775 0.15648
 O169 O 0.47672 0.15732 0.12708
 O170 O 0.51958 0.12588 0.15510
 O171 O 0.52236 0.15133 0.17982
 O172 O 0.47948 0.18261 0.15197
 O173 O 0.47949 0.15270 0.18171
 O174 O 0.52223 0.18056 0.15004
 Cu175 Cu 0.49798 0.13909 0.13835
 Cu176 Cu 0.50109 0.16932 0.16841
 C177 C 0.52793 0.17291 0.13194
 C178 C 0.47090 0.13547 0.17448
 C179 C 0.47089 0.17538 0.13475
 C180 C 0.52816 0.13323 0.17229
 O181 O 0.51860 0.12417 0.84345
 O182 O 0.47814 0.15488 0.87508
 O183 O 0.47613 0.12514 0.84519
 O184 O 0.52105 0.15366 0.87335
 O185 O 0.52003 0.17939 0.84881
 O186 O 0.47602 0.15019 0.81992
 O187 O 0.47705 0.17968 0.84960
 O188 O 0.51896 0.14996 0.81893
 Cu189 Cu 0.49850 0.13697 0.86184
 Cu190 Cu 0.49799 0.16737 0.83183
 C191 C 0.52563 0.13185 0.82579
 C192 C 0.47061 0.17243 0.86764
 C193 C 0.46868 0.13263 0.82761
 C194 C 0.52810 0.17144 0.86593
 O195 O 0.52364 0.87517 0.15377
 O196 O 0.47916 0.84747 0.12423
 O197 O 0.48086 0.87673 0.15459
 O198 O 0.52219 0.84549 0.12429
 O199 O 0.52104 0.82022 0.14929
 O200 O 0.47963 0.85111 0.17924
 O201 O 0.47825 0.82214 0.14919
 O202 O 0.52247 0.85003 0.17892
 Cu203 Cu 0.50151 0.86374 0.13667
 Cu204 Cu 0.50029 0.83333 0.16665
 C205 C 0.53052 0.86739 0.17143
 C206 C 0.47117 0.83007 0.13166
 C207 C 0.47328 0.86921 0.17212
 C208 C 0.52864 0.82751 0.13171
 O209 O 0.87513 0.52199 0.84422
 O210 O 0.84649 0.47930 0.87449
 O211 O 0.87684 0.48025 0.84415
 O212 O 0.84539 0.52108 0.87414
 O213 O 0.81906 0.51956 0.84954
 O214 O 0.85065 0.47907 0.81939
 O215 O 0.82083 0.47764 0.84923
 O216 O 0.84892 0.52101 0.81947
 Cu217 Cu 0.86360 0.50065 0.86176
 Cu218 Cu 0.83225 0.49921 0.83191
 C219 C 0.86683 0.52883 0.82675
 C220 C 0.82874 0.47129 0.86705
 C221 C 0.86919 0.47288 0.82657
 C222 C 0.82686 0.52726 0.86692
 O223 O 0.15635 0.48126 0.12447
 O224 O 0.12382 0.52030 0.15579
 O225 O 0.15328 0.52311 0.12521
 O226 O 0.12650 0.47858 0.15444
 O227 O 0.15260 0.48006 0.17928
 O228 O 0.17962 0.52424 0.14981
 O229 O 0.15039 0.52186 0.18014
 O230 O 0.18257 0.48251 0.14919
 Cu231 Cu 0.13736 0.50070 0.13747
 Cu232 Cu 0.16894 0.50224 0.16708
 C233 C 0.17503 0.47528 0.13152
 C234 C 0.13161 0.52770 0.17331
 C235 C 0.17104 0.53120 0.13251
 C236 C 0.13490 0.47187 0.17192
 O237 O 0.87443 0.47903 0.15680
 O238 O 0.84130 0.51697 0.12471
 O239 O 0.87095 0.52070 0.15506
 O240 O 0.84517 0.47540 0.12603
 O241 O 0.81823 0.47468 0.14991
 O242 O 0.84537 0.51833 0.18024
 O243 O 0.81564 0.51666 0.14991
 O244 O 0.84739 0.47653 0.18046
 Cu245 Cu 0.86062 0.49817 0.13819
 Cu246 Cu 0.82898 0.49644 0.16756
 C247 C 0.86643 0.47118 0.17399
 C248 C 0.82291 0.52340 0.13198
 C249 C 0.86275 0.52699 0.17277
 C250 C 0.82719 0.46748 0.13292
 O251 O 0.15819 0.52156 0.87166
 O252 O 0.13063 0.47925 0.84009
 O253 O 0.16044 0.47971 0.86972
 O254 O 0.12814 0.52088 0.84089
 O255 O 0.15431 0.52337 0.81631
 O256 O 0.18721 0.48334 0.84589
 O257 O 0.15688 0.48140 0.81556
 O258 O 0.18366 0.52497 0.84649
 Cu259 Cu 0.14174 0.50024 0.85810
 Cu260 Cu 0.17313 0.50342 0.82855
 C261 C 0.17558 0.53045 0.86450
 C262 C 0.13910 0.47304 0.82251
 C263 C 0.17941 0.47469 0.86277
 C264 C 0.13565 0.52895 0.82358
 C265 C 0.26511 0.37552 0.04626
 N266 N 0.25607 0.36406 0.02985
 N267 N 0.26841 0.35085 0.01809
 C268 C 0.29033 0.34879 0.02212
 N269 N 0.29930 0.36005 0.03874
 N270 N 0.28693 0.37320 0.05056
 C271 C 0.25151 0.39014 0.05918
 N272 N 0.26013 0.40036 0.07661
 N273 N 0.24780 0.41367 0.08828
 C274 C 0.22642 0.41731 0.08291
 N275 N 0.21781 0.40711 0.06547
 N276 N 0.23011 0.39374 0.05384
 C277 C 0.21292 0.43216 0.09567
 N278 N 0.19214 0.43724 0.08932
 N279 N 0.18001 0.45093 0.10078
 C280 C 0.18820 0.45996 0.11904
 N281 N 0.20895 0.45482 0.12542
 N282 N 0.22110 0.44120 0.11393
 C283 C 0.73491 0.62543 0.04717
 N284 N 0.72850 0.64444 0.05585
 N285 N 0.71733 0.65866 0.04410
 C286 C 0.71204 0.65445 0.02323
 N287 N 0.71802 0.63515 0.01481
 N288 N 0.72942 0.62101 0.02645
 C289 C 0.74777 0.61003 0.05990
 N290 N 0.75949 0.59429 0.05003
 N291 N 0.77153 0.58055 0.06155
 C292 C 0.77208 0.58190 0.08336
 N293 N 0.76023 0.59754 0.09324
 N294 N 0.74840 0.61144 0.08171
 C295 C 0.78533 0.56676 0.09602
 N296 N 0.78148 0.56402 0.11738
 N297 N 0.79342 0.55015 0.12884
 C298 C 0.80982 0.53873 0.11940
 N299 N 0.81376 0.54157 0.09808
 N300 N 0.80165 0.55525 0.08657
 C301 C 0.74387 0.36547 0.95053
 N302 N 0.73347 0.37168 0.96882
 N303 N 0.72205 0.35750 0.98044
 C304 C 0.72109 0.33645 0.97455
 N305 N 0.73110 0.33038 0.95597
 N306 N 0.74226 0.34462 0.94417
 C307 C 0.75679 0.38101 0.93797
 N308 N 0.76084 0.37754 0.91676
 N309 N 0.77259 0.39168 0.90538
 C310 C 0.78100 0.40960 0.91489
 N311 N 0.77709 0.41298 0.93613
 N312 N 0.76508 0.39900 0.94744
 C313 C 0.79388 0.42522 0.90238
 N314 N 0.80821 0.43881 0.91234
 N315 N 0.81966 0.45322 0.90102
 C316 C 0.81696 0.45474 0.87937
 N317 N 0.80258 0.44120 0.86942
 N318 N 0.79137 0.42658 0.88070
 C319 C 0.25657 0.63631 0.95173
 N320 N 0.26708 0.62971 0.96985
 N321 N 0.27816 0.64372 0.98201
 C322 C 0.27867 0.66497 0.97684
 N323 N 0.26854 0.67146 0.95842
 N324 N 0.25771 0.65740 0.94609
 C325 C 0.24408 0.62090 0.93858
 N326 N 0.24001 0.62491 0.91746
 N327 N 0.22875 0.61078 0.90555
 C328 C 0.22088 0.59233 0.91443
 N329 N 0.22481 0.58842 0.93559
 N330 N 0.23633 0.60238 0.94742
 C331 C 0.20861 0.57669 0.90136
 N332 N 0.19478 0.56231 0.91082
 N333 N 0.18392 0.54783 0.89900
 C334 C 0.18673 0.54703 0.87735
 N335 N 0.20061 0.56136 0.86789
 N336 N 0.21123 0.57604 0.87967
 C337 C 0.05297 0.25990 0.36592
 N338 N 0.03548 0.25171 0.35491
 N339 N 0.02320 0.26437 0.34242
 C340 C 0.02780 0.28572 0.34072
 N341 N 0.04554 0.29378 0.35142
 N342 N 0.05786 0.28112 0.36382
 C343 C 0.06608 0.24627 0.38032
 N344 N 0.08424 0.25436 0.39030
 N345 N 0.09577 0.24231 0.40399
 C346 C 0.08951 0.22176 0.40827
 N347 N 0.07140 0.21363 0.39823
 N348 N 0.05990 0.22566 0.38447
 C349 C 0.10173 0.20884 0.42403
 N350 N 0.09421 0.18913 0.43004
 N351 N 0.10489 0.17774 0.44492
 C352 C 0.12349 0.18561 0.45426
 N353 N 0.13109 0.20526 0.44815
 N354 N 0.12037 0.21668 0.43333
 C355 C 0.05033 0.73401 0.62888
 N356 N 0.03153 0.72406 0.62234
 N357 N 0.01895 0.71351 0.63640
 C358 C 0.02435 0.71301 0.65763
 N359 N 0.04347 0.72255 0.66405
 N360 N 0.05623 0.73285 0.64994
 C361 C 0.06361 0.74638 0.61350
 N362 N 0.08526 0.75052 0.61738
 N363 N 0.09711 0.76208 0.60347
 C364 C 0.08763 0.77018 0.58539
 N365 N 0.06598 0.76611 0.58159
 N366 N 0.05422 0.75430 0.59532
 C367 C 0.10039 0.78335 0.57026
 N368 N 0.08999 0.79747 0.55706
 N369 N 0.10143 0.80946 0.54324
 C370 C 0.12366 0.80756 0.54190
 N371 N 0.13409 0.79336 0.55502
 N372 N 0.12267 0.78157 0.56909
 C373 C 0.94837 0.73919 0.36638
 N374 N 0.96564 0.74731 0.35507
 N375 N 0.97744 0.73466 0.34218
 C376 C 0.97258 0.71337 0.34034
 N377 N 0.95503 0.70539 0.35132
 N378 N 0.94318 0.71804 0.36413
 C379 C 0.93577 0.75281 0.38122
 N380 N 0.91771 0.74483 0.39138
 N381 N 0.90659 0.75687 0.40535
 C382 C 0.91316 0.77731 0.40976
 N383 N 0.93120 0.78533 0.39957
 N384 N 0.94229 0.77330 0.38552
 C385 C 0.90116 0.79030 0.42561
 N386 N 0.90879 0.80997 0.43167
 N387 N 0.89808 0.82150 0.44639
 C388 C 0.87933 0.81380 0.45554
 N389 N 0.87166 0.79418 0.44941
 N390 N 0.88240 0.78262 0.43475
 C391 C 0.94790 0.26318 0.63382
 N392 N 0.94690 0.28498 0.63276
 N393 N 0.96016 0.29711 0.64487
 C394 C 0.97497 0.28788 0.65840
 N395 N 0.97551 0.26608 0.65996
 N396 N 0.96234 0.25394 0.64774
 C397 C 0.93415 0.24991 0.61954
 N398 N 0.93785 0.22845 0.61759
 N399 N 0.92606 0.21663 0.60381
 C400 C 0.91007 0.22582 0.59158
 N401 N 0.90623 0.24723 0.59369
 N402 N 0.91811 0.25907 0.60737
 C403 C 0.89767 0.21300 0.57579
 N404 N 0.88016 0.22159 0.56522
 N405 N 0.86934 0.21019 0.55039
 C406 C 0.87573 0.18986 0.54548
 N407 N 0.89321 0.18126 0.55607
 N408 N 0.90395 0.19261 0.57099
 C409 C 0.36639 0.05179 0.26156
 N410 N 0.35179 0.03792 0.25236
 N411 N 0.33938 0.02503 0.26453
 C412 C 0.34143 0.02529 0.28631
 N413 N 0.35568 0.03948 0.29550
 N414 N 0.36797 0.05245 0.28335
 C415 C 0.38067 0.06545 0.24823
 N416 N 0.39345 0.08092 0.25742
 N417 N 0.40702 0.09284 0.24545
 C418 C 0.40839 0.08961 0.22388
 N419 N 0.39556 0.07418 0.21468
 N420 N 0.38190 0.06235 0.22663
 C421 C 0.42404 0.10207 0.21084
 N422 N 0.42810 0.09644 0.19012
 N423 N 0.44291 0.10721 0.17850
 C424 C 0.45412 0.12409 0.18715
 N425 N 0.44995 0.12985 0.20782
 N426 N 0.43522 0.11898 0.21949
 C427 C 0.62769 0.04747 0.73711
 N428 N 0.62269 0.02694 0.73138
 N429 N 0.63665 0.01547 0.71950
 C430 C 0.65633 0.02388 0.71325
 N431 N 0.66111 0.04454 0.71882
 N432 N 0.64708 0.05612 0.73048
 C433 C 0.61246 0.06011 0.75033
 N434 N 0.61439 0.08187 0.75136
 N435 N 0.60064 0.09337 0.76344
 C436 C 0.58466 0.08350 0.77513
 N437 N 0.58281 0.06173 0.77419
 N438 N 0.59639 0.05025 0.76192
 C439 C 0.56959 0.09615 0.78852
 N440 N 0.55770 0.08655 0.80434
 N441 N 0.54392 0.09801 0.81643
 C442 C 0.54139 0.11944 0.81298
 N443 N 0.55323 0.12904 0.79710
 N444 N 0.56719 0.11762 0.78518
 C445 C 0.36231 0.94862 0.74237
 N446 N 0.34748 0.96200 0.75173
 N447 N 0.33433 0.97425 0.73968
 C448 C 0.33584 0.97382 0.71785
 N449 N 0.35031 0.96009 0.70853
 N450 N 0.36333 0.94774 0.72056
 C451 C 0.37739 0.93560 0.75546
 N452 N 0.38993 0.92020 0.74607
 N453 N 0.40417 0.90878 0.75769
 C454 C 0.40654 0.91245 0.77911
 N455 N 0.39398 0.92785 0.78854
 N456 N 0.37961 0.93919 0.77693
 C457 C 0.42277 0.90021 0.79163
 N458 N 0.42806 0.90604 0.81208
 N459 N 0.44328 0.89520 0.82312
 C460 C 0.45365 0.87808 0.81413
 N461 N 0.44825 0.87220 0.79374
 N462 N 0.43315 0.88311 0.78267
 C463 C 0.63727 0.95028 0.25702
 N464 N 0.63903 0.94620 0.27841
 N465 N 0.65154 0.95863 0.29095
 C466 C 0.66268 0.97568 0.28260
 N467 N 0.66132 0.97947 0.26110
 N468 N 0.64872 0.96708 0.24855
 C469 C 0.62275 0.93699 0.24351
 N470 N 0.61876 0.94236 0.22267
 N471 N 0.60486 0.93069 0.21075
 C472 C 0.59453 0.91321 0.21921
 N473 N 0.59867 0.90776 0.23999
 N474 N 0.61249 0.91946 0.25192
 C475 C 0.57856 0.90082 0.20641
 N476 N 0.56901 0.88282 0.21464
 N477 N 0.55392 0.87199 0.20337
 C478 C 0.54777 0.87881 0.18349
 N479 N 0.55738 0.89676 0.17522
 N480 N 0.57253 0.90756 0.18647
 C481 C 0.36762 0.25974 0.95240
 N482 N 0.35065 0.27036 0.94300
 N483 N 0.33767 0.28312 0.95462
 C484 C 0.34107 0.28592 0.97613
 N485 N 0.35833 0.27540 0.98528
 N486 N 0.37122 0.26248 0.97377
 C487 C 0.38217 0.24591 0.93963
 N488 N 0.39644 0.23227 0.94948
 N489 N 0.40995 0.21999 0.93792
 C490 C 0.40982 0.22105 0.91609
 N491 N 0.39557 0.23470 0.90623
 N492 N 0.38192 0.24684 0.91779
 C493 C 0.42519 0.20802 0.90338
 N494 N 0.42867 0.21248 0.88226
 N495 N 0.44308 0.20107 0.87086
 C496 C 0.45440 0.18467 0.88011
 N497 N 0.45081 0.18009 0.90119
 N498 N 0.43653 0.19163 0.91265
 C499 C 0.62914 0.73715 0.95090
 N500 N 0.64434 0.72438 0.94138
 N501 N 0.65786 0.71239 0.95327
 C502 C 0.65681 0.71256 0.97518
 N503 N 0.64124 0.72515 0.98449
 N504 N 0.62779 0.73729 0.97268
 C505 C 0.61448 0.75068 0.93789
 N506 N 0.60205 0.76615 0.94734
 N507 N 0.58881 0.77853 0.93555
 C508 C 0.58741 0.77579 0.91390
 N509 N 0.59978 0.76027 0.90446
 N510 N 0.61315 0.74800 0.91623
 C511 C 0.57248 0.78917 0.90103
 N512 N 0.56782 0.78398 0.88027
 N513 N 0.55374 0.79579 0.86881
 C514 C 0.54398 0.81332 0.87765
 N515 N 0.54879 0.81861 0.89835
 N516 N 0.56274 0.80671 0.90984
 C517 C 0.36050 0.74836 0.04960
 N518 N 0.35224 0.72988 0.05796
 N519 N 0.33942 0.71707 0.04613
 C520 C 0.33447 0.72200 0.02533
 N521 N 0.34230 0.74090 0.01727
 N522 N 0.35514 0.75376 0.02908
 C523 C 0.37567 0.76175 0.06234
 N524 N 0.38453 0.78004 0.05401
 N525 N 0.39905 0.79158 0.06534
 C526 C 0.40525 0.78521 0.08537
 N527 N 0.39629 0.76700 0.09372
 N528 N 0.38177 0.75548 0.08242
 C529 C 0.42191 0.79733 0.09760
 N530 N 0.42896 0.79002 0.11701
 N531 N 0.44455 0.80056 0.12791
 C532 C 0.45365 0.81881 0.11980
 N533 N 0.44654 0.82621 0.10042
 N534 N 0.43097 0.81563 0.08950
 C535 C 0.63334 0.25577 0.04489
 N536 N 0.62824 0.26199 0.02454
 N537 N 0.64244 0.27367 0.01303
 C538 C 0.66244 0.27925 0.02126
 N539 N 0.66735 0.27313 0.04172
 N540 N 0.65309 0.26167 0.05332
 C541 C 0.61776 0.24304 0.05775
 N542 N 0.62011 0.24183 0.07945
 N543 N 0.60600 0.23036 0.09123
 C544 C 0.58917 0.21947 0.08171
 N545 N 0.58688 0.22057 0.05998
 N546 N 0.60086 0.23224 0.04821
 C547 C 0.57356 0.20700 0.09478
 N548 N 0.56037 0.19185 0.08560
 N549 N 0.54607 0.18071 0.09751
 C550 C 0.54431 0.18448 0.11897
 N551 N 0.55747 0.19965 0.12813
 N552 N 0.57194 0.21061 0.11627
 C553 C 0.25546 0.04654 0.63347
 N554 N 0.25573 0.02479 0.63185
 N555 N 0.26764 0.01304 0.64549
 C556 C 0.27960 0.02236 0.66151
 N557 N 0.27928 0.04425 0.66292
 N558 N 0.26753 0.05608 0.64921
 C559 C 0.24248 0.05953 0.61836
 N560 N 0.24528 0.08120 0.61738
 N561 N 0.23371 0.09295 0.60344
 C562 C 0.21879 0.08347 0.59012
 N563 N 0.21590 0.06181 0.59119
 N564 N 0.22758 0.05004 0.60501
 C565 C 0.20633 0.09636 0.57451
 N566 N 0.18906 0.08765 0.56358
 N567 N 0.17805 0.09923 0.54909
 C568 C 0.18401 0.11990 0.54490
 N569 N 0.20126 0.12861 0.55583
 N570 N 0.21217 0.11708 0.57044
 C571 C 0.74153 0.05021 0.36742
 N572 N 0.72919 0.05951 0.35176
 N573 N 0.71749 0.04742 0.33814
 C574 C 0.71751 0.02553 0.33957
 N575 N 0.72969 0.01647 0.35555
 N576 N 0.74153 0.02847 0.36908
 C577 C 0.75466 0.06337 0.38236
 N578 N 0.76979 0.05401 0.39547
 N579 N 0.78167 0.06585 0.40914
 C580 C 0.77875 0.08747 0.41031
 N581 N 0.76359 0.09684 0.39722
 N582 N 0.75183 0.08501 0.38343
 C583 C 0.79146 0.10041 0.42578
 N584 N 0.78573 0.12108 0.43000
 N585 N 0.79685 0.13261 0.44452
 C586 C 0.81424 0.12394 0.45521
 N587 N 0.82009 0.10332 0.45086
 N588 N 0.80886 0.09174 0.43646
 C589 C 0.73959 0.95348 0.62819
 N590 N 0.73329 0.97379 0.62310
 N591 N 0.72103 0.98523 0.63668
 C592 C 0.71494 0.97701 0.65606
 N593 N 0.72109 0.95656 0.66096
 N594 N 0.73312 0.94500 0.64730
 C595 C 0.75312 0.94083 0.61330
 N596 N 0.75446 0.91912 0.61541
 N597 N 0.76666 0.90759 0.60186
 C598 C 0.77820 0.91738 0.58590
 N599 N 0.77699 0.93911 0.58388
 N600 N 0.76458 0.95062 0.59727
 C601 C 0.79146 0.90460 0.57088
 N602 N 0.80728 0.91408 0.55863
 N603 N 0.81910 0.90246 0.54482
 C604 C 0.81537 0.88101 0.54261
 N605 N 0.79953 0.87156 0.55483
 N606 N 0.78789 0.88312 0.56881
 C607 C 0.26225 0.94979 0.36958
 N608 N 0.27448 0.94060 0.35383
 N609 N 0.28626 0.95277 0.34040
 C610 C 0.28644 0.97464 0.34211
 N611 N 0.27439 0.98358 0.35820
 N612 N 0.26246 0.97151 0.37155
 C613 C 0.24900 0.93653 0.38428
 N614 N 0.23392 0.94582 0.39743
 N615 N 0.22187 0.93386 0.41082
 C616 C 0.22458 0.91219 0.41166
 N617 N 0.23970 0.90290 0.39854
 N618 N 0.25163 0.91484 0.38503
 C619 C 0.21161 0.89911 0.42674
 N620 N 0.21709 0.87830 0.43065
 N621 N 0.20566 0.86660 0.44476
 C622 C 0.18822 0.87523 0.45534
 N623 N 0.18264 0.89599 0.45131
 N624 N 0.19417 0.90774 0.43732
 C625 C 0.05556 0.36750 0.73725
 N626 N 0.03874 0.35612 0.74617
 N627 N 0.02578 0.34374 0.73398
 C628 C 0.02901 0.34251 0.71238
 N629 N 0.04610 0.35356 0.70356
 N630 N 0.05910 0.36586 0.71575
 C631 C 0.06928 0.38188 0.75046
 N632 N 0.08671 0.39245 0.74166
 N633 N 0.09865 0.40617 0.75340
 C634 C 0.09354 0.40987 0.77434
 N635 N 0.07617 0.39922 0.78316
 N636 N 0.06428 0.38545 0.77144
 C637 C 0.10600 0.42571 0.78705
 N638 N 0.09920 0.43110 0.80713
 N639 N 0.10992 0.44605 0.81844
 C640 C 0.12789 0.45611 0.81013
 N641 N 0.13482 0.45062 0.79010
 N642 N 0.12403 0.43571 0.77874
 C643 C 0.04505 0.62826 0.26100
 N644 N 0.05513 0.64370 0.27295
 N645 N 0.04330 0.65735 0.28471
 C646 C 0.02087 0.65621 0.28513
 N647 N 0.01101 0.64042 0.27337
 N648 N 0.02276 0.62683 0.26147
 C649 C 0.05800 0.61340 0.24775
 N650 N 0.04791 0.60039 0.23315
 N651 N 0.05966 0.58698 0.22102
 C652 C 0.08192 0.58600 0.22315
 N653 N 0.09200 0.59896 0.23779
 N654 N 0.08026 0.61248 0.24981
 C655 C 0.09486 0.57105 0.20998
 N656 N 0.11641 0.56740 0.21459
 N657 N 0.12811 0.55361 0.20286
 C658 C 0.11874 0.54311 0.18597
 N659 N 0.09722 0.54685 0.18127
 N660 N 0.08547 0.56052 0.19311
 C661 C 0.95337 0.37099 0.26196
 N662 N 0.94490 0.35170 0.26807
 N663 N 0.95693 0.33802 0.27967
 C664 C 0.97787 0.34312 0.28568
 N665 N 0.98605 0.36269 0.27999
 N666 N 0.97414 0.37627 0.26818
 C667 C 0.94035 0.38584 0.24873
 N668 N 0.95034 0.40214 0.23788
 N669 N 0.93858 0.41550 0.22567
 C670 C 0.91637 0.41317 0.22405
 N671 N 0.90637 0.39695 0.23499
 N672 N 0.91817 0.38344 0.24701
 C673 C 0.90338 0.42805 0.21082
 N674 N 0.88125 0.42959 0.21355
 N675 N 0.86948 0.44334 0.20179
 C676 C 0.87939 0.45585 0.18669
 N677 N 0.90150 0.45420 0.18384
 N678 N 0.91330 0.44061 0.19577
 C679 C 0.94791 0.63628 0.74192
 N680 N 0.93960 0.64367 0.72304
 N681 N 0.95191 0.65579 0.71004
 C682 C 0.97314 0.66081 0.71519
 N683 N 0.98107 0.65391 0.73447
 N684 N 0.96880 0.64181 0.74751
 C685 C 0.93489 0.62175 0.75556
 N686 N 0.94336 0.61406 0.77429
 N687 N 0.93201 0.60001 0.78612
 C688 C 0.91181 0.59308 0.77965
 N689 N 0.90328 0.60087 0.76099
 N690 N 0.91461 0.61495 0.74917
 C691 C 0.89975 0.57687 0.79221
 N692 N 0.88014 0.56897 0.78511
 N693 N 0.86956 0.55375 0.79617
 C694 C 0.87821 0.54589 0.81475
 N695 N 0.89776 0.55387 0.82190
 N696 N 0.90835 0.56906 0.81083
 C697 C 0.73965 0.63139 0.94970
 N698 N 0.74840 0.64238 0.96660
 N699 N 0.73579 0.65516 0.97861
 C700 C 0.71392 0.65719 0.97430
 N701 N 0.70531 0.64650 0.95715
 N702 N 0.71792 0.63381 0.94511
 C703 C 0.75323 0.61673 0.93681
 N704 N 0.74453 0.60667 0.91932
 N705 N 0.75655 0.59289 0.90790
 C706 C 0.77770 0.58859 0.91358
 N707 N 0.78644 0.59868 0.93104
 N708 N 0.77443 0.61252 0.94244
 C709 C 0.79069 0.57296 0.90126
 N710 N 0.81121 0.56725 0.90784
 N711 N 0.82277 0.55273 0.89687
 C712 C 0.81424 0.54343 0.87888
 N713 N 0.79376 0.54920 0.87225
 N714 N 0.78218 0.56367 0.88326
 C715 C 0.26610 0.37242 0.94830
 N716 N 0.26826 0.35143 0.94270
 N717 N 0.27967 0.33795 0.95512
 C718 C 0.28887 0.34477 0.97394
 N719 N 0.28673 0.36588 0.97936
 N720 N 0.27568 0.37945 0.96676
 C721 C 0.25355 0.38730 0.93471
 N722 N 0.25963 0.40829 0.93316
 N723 N 0.24811 0.42188 0.92097
 C724 C 0.22988 0.41505 0.91023
 N725 N 0.22370 0.39409 0.91190
 N726 N 0.23545 0.38040 0.92377
 C727 C 0.21683 0.43019 0.89740
 N728 N 0.19457 0.42814 0.89621
 N729 N 0.18262 0.44234 0.88515
 C730 C 0.19256 0.45884 0.87457
 N731 N 0.21484 0.46074 0.87556
 N732 N 0.22675 0.44678 0.88694
 C733 C 0.25155 0.64114 0.05039
 N734 N 0.27051 0.64941 0.05855
 N735 N 0.28337 0.66198 0.04655
 C736 C 0.27802 0.66665 0.02578
 N737 N 0.25863 0.65882 0.01795
 N738 N 0.24572 0.64623 0.02993
 C739 C 0.23819 0.62619 0.06326
 N740 N 0.21948 0.61728 0.05510
 N741 N 0.20804 0.60290 0.06648
 C742 C 0.21492 0.59689 0.08641
 N743 N 0.23354 0.60592 0.09461
 N744 N 0.24495 0.62030 0.08325
 C745 C 0.20299 0.58034 0.09865
 N746 N 0.21090 0.57344 0.11790
 N747 N 0.20060 0.55791 0.12875
 C748 C 0.18198 0.54870 0.12075
 N749 N 0.17398 0.55567 0.10155
 N750 N 0.18432 0.57119 0.09067
 C751 C 0.74858 0.35736 0.04896
 N752 N 0.75423 0.35322 0.02825
 N753 N 0.74135 0.34098 0.01583
 C754 C 0.72218 0.33254 0.02347
 N755 N 0.71707 0.33617 0.04448
 N756 N 0.72989 0.34841 0.05692
 C757 C 0.76174 0.37218 0.06224
 N758 N 0.75483 0.37764 0.08228
 N759 N 0.76596 0.39203 0.09394
 C760 C 0.78444 0.40149 0.08601
 N761 N 0.79149 0.39589 0.06604
 N762 N 0.78032 0.38152 0.05435
 C763 C 0.79605 0.41811 0.09852
 N764 N 0.81478 0.42738 0.09090
 N765 N 0.82484 0.44297 0.10196
 C766 C 0.81648 0.44991 0.12100
 N767 N 0.79780 0.44059 0.12864
 N768 N 0.78778 0.42497 0.11761
 C769 C 0.95009 0.74223 0.63413
 N770 N 0.94110 0.72387 0.64209
 N771 N 0.95293 0.71077 0.65450
 C772 C 0.97436 0.71526 0.65931
 N773 N 0.98304 0.73401 0.65177
 N774 N 0.97124 0.74717 0.63936
 C775 C 0.93736 0.75607 0.61952
 N776 N 0.94633 0.77434 0.61125
 N777 N 0.93502 0.78639 0.59734
 C778 C 0.91434 0.78057 0.59117
 N779 N 0.90535 0.76236 0.59953
 N780 N 0.91664 0.75034 0.61345
 C781 C 0.90209 0.79332 0.57523
 N782 N 0.88200 0.78660 0.56823
 N783 N 0.87107 0.79773 0.55334
 C784 C 0.87979 0.81602 0.54490
 N785 N 0.89985 0.82282 0.55196
 N786 N 0.91081 0.81166 0.56685
 C787 C 0.95292 0.26367 0.37066
 N788 N 0.94441 0.26988 0.35143
 N789 N 0.95653 0.28130 0.33763
 C790 C 0.97761 0.28701 0.34253
 N791 N 0.98583 0.28122 0.36205
 N792 N 0.97383 0.26961 0.37575
 C793 C 0.93983 0.25060 0.38566
 N794 N 0.94984 0.23954 0.40178
 N795 N 0.93804 0.22749 0.41528
 C796 C 0.91578 0.22624 0.41330
 N797 N 0.90575 0.23740 0.39726
 N798 N 0.91758 0.24926 0.38359
 C799 C 0.90279 0.21318 0.42840
 N800 N 0.88076 0.21636 0.43052
 N801 N 0.86909 0.20484 0.44459
 C802 C 0.87897 0.18954 0.45685
 N803 N 0.90096 0.18624 0.45459
 N804 N 0.91267 0.19792 0.44070
 C805 C 0.04850 0.26347 0.62734
 N806 N 0.05902 0.27611 0.64192
 N807 N 0.04757 0.28821 0.65560
 C808 C 0.02511 0.28830 0.65533
 N809 N 0.01479 0.27586 0.64036
 N810 N 0.02617 0.26362 0.62675
 C811 C 0.06110 0.24977 0.61257
 N812 N 0.05075 0.23468 0.60032
 N813 N 0.06223 0.22213 0.58706
 C814 C 0.08446 0.22429 0.58551
 N815 N 0.09478 0.23941 0.59772
 N816 N 0.08332 0.25186 0.61107
 C817 C 0.09713 0.21073 0.57067
 N818 N 0.11862 0.21524 0.56657
 N819 N 0.13006 0.20328 0.55277
 C820 C 0.12048 0.18625 0.54269
 N821 N 0.09902 0.18163 0.54689
 N822 N 0.08753 0.19369 0.56059
 C823 C 0.04816 0.73499 0.36914
 N824 N 0.05616 0.72900 0.34966
 N825 N 0.04368 0.71772 0.33602
 C826 C 0.02274 0.71191 0.34131
 N827 N 0.01505 0.71746 0.36107
 N828 N 0.02740 0.72897 0.37462
 C829 C 0.06159 0.74798 0.38397
 N830 N 0.05188 0.75922 0.40008
 N831 N 0.06394 0.77126 0.41341
 C832 C 0.08618 0.77230 0.41128
 N833 N 0.09594 0.76094 0.39525
 N834 N 0.08383 0.74910 0.38174
 C835 C 0.09937 0.78544 0.42618
 N836 N 0.12131 0.78191 0.42870
 N837 N 0.13304 0.79350 0.44274
 C838 C 0.12329 0.80921 0.45453
 N839 N 0.10141 0.81286 0.45184
 N840 N 0.08964 0.80112 0.43801
 C841 C 0.63422 0.94967 0.74008
 N842 N 0.63653 0.94498 0.71887
 N843 N 0.64899 0.95731 0.70623
 C844 C 0.65956 0.97486 0.71428
 N845 N 0.65770 0.97925 0.73564
 N846 N 0.64514 0.96696 0.74828
 C847 C 0.61962 0.93654 0.75366
 N848 N 0.61508 0.94243 0.77423
 N849 N 0.60113 0.93088 0.78617
 C850 C 0.59129 0.91298 0.77797
 N851 N 0.59597 0.90703 0.75746
 N852 N 0.60983 0.91861 0.74552
 C853 C 0.57538 0.90053 0.79078
 N854 N 0.56643 0.88214 0.78276
 N855 N 0.55155 0.87108 0.79402
 C856 C 0.54500 0.87805 0.81370
 N857 N 0.55398 0.89643 0.82177
 N858 N 0.56892 0.90746 0.81052
 C859 C 0.37009 0.95282 0.26050
 N860 N 0.35448 0.94289 0.27258
 N861 N 0.34086 0.95436 0.28483
 C862 C 0.34222 0.97624 0.28565
 N863 N 0.35818 0.98594 0.27371
 N864 N 0.37172 0.97456 0.26132
 C865 C 0.38503 0.94027 0.24682
 N866 N 0.38601 0.91851 0.24865
 N867 N 0.39972 0.90717 0.23638
 C868 C 0.41283 0.91714 0.22172
 N869 N 0.41177 0.93888 0.21982
 N870 N 0.39816 0.95025 0.23219
 C871 C 0.42817 0.90462 0.20845
 N872 N 0.43887 0.91388 0.19162
 N873 N 0.45305 0.90255 0.17983
 C874 C 0.45714 0.88160 0.18455
 N875 N 0.44643 0.87235 0.20138
 N876 N 0.43215 0.88363 0.21305
 C877 C 0.63320 0.04830 0.25766
 N878 N 0.62762 0.02817 0.26418
 N879 N 0.64132 0.01671 0.27640
 C880 C 0.66133 0.02470 0.28227
 N881 N 0.66673 0.04499 0.27592
 N882 N 0.65294 0.05658 0.26390
 C883 C 0.61808 0.06094 0.24420
 N884 N 0.62053 0.08261 0.24246
 N885 N 0.60662 0.09411 0.23050
 C886 C 0.58992 0.08434 0.21961
 N887 N 0.58758 0.06265 0.22121
 N888 N 0.60134 0.05118 0.23337
 C889 C 0.57435 0.09709 0.20675
 N890 N 0.56117 0.08752 0.19183
 N891 N 0.54673 0.09908 0.18052
 C892 C 0.54479 0.12059 0.18391
 N893 N 0.55795 0.13014 0.19885
 N894 N 0.57256 0.11863 0.20997
 C895 C 0.36324 0.04747 0.74241
 N896 N 0.34741 0.05681 0.73017
 N897 N 0.33381 0.04478 0.71829
 C898 C 0.33543 0.02290 0.71802
 N899 N 0.35159 0.01381 0.73012
 N900 N 0.36510 0.02574 0.74215
 C901 C 0.37821 0.06057 0.75567
 N902 N 0.39128 0.05112 0.77068
 N903 N 0.40499 0.06291 0.78265
 C904 C 0.40626 0.08456 0.77995
 N905 N 0.39321 0.09402 0.76492
 N906 N 0.37936 0.08225 0.75305
 C907 C 0.42185 0.09739 0.79279
 N908 N 0.42652 0.11808 0.78736
 N909 N 0.44128 0.12942 0.79859
 C910 C 0.45174 0.12053 0.81576
 N911 N 0.44690 0.09991 0.82130
 N912 N 0.43228 0.08853 0.80998
 C913 C 0.63297 0.73917 0.04949
 N914 N 0.63153 0.71741 0.05100
 N915 N 0.64397 0.70484 0.03865
 C916 C 0.65825 0.71357 0.02427
 N917 N 0.66019 0.73534 0.02321
 N918 N 0.64763 0.74792 0.03547
 C919 C 0.61845 0.75288 0.06246
 N920 N 0.61679 0.77431 0.05841
 N921 N 0.60295 0.78651 0.06970
 C922 C 0.59036 0.77774 0.08552
 N923 N 0.59215 0.75636 0.08965
 N924 N 0.60588 0.74415 0.07828
 C925 C 0.57470 0.79096 0.09772
 N926 N 0.56418 0.78265 0.11512
 N927 N 0.54965 0.79439 0.12601
 C928 C 0.54497 0.81483 0.11982
 N929 N 0.55548 0.82317 0.10241
 N930 N 0.57013 0.81146 0.09158
 C931 C 0.36784 0.26437 0.05147
 N932 N 0.37010 0.28612 0.05193
 N933 N 0.35805 0.29851 0.03899
 C934 C 0.34335 0.28962 0.02504
 N935 N 0.34061 0.26790 0.02504
 N936 N 0.35278 0.25549 0.03788
 C937 C 0.38190 0.25072 0.06503
 N938 N 0.38260 0.22909 0.06191
 N939 N 0.39606 0.21684 0.07363
 C940 C 0.40920 0.22575 0.08898
 N941 N 0.40835 0.24735 0.09222
 N942 N 0.39500 0.25961 0.08041
 C943 C 0.42461 0.21240 0.10139
 N944 N 0.43588 0.22081 0.11834
 N945 N 0.45038 0.20891 0.12917
 C946 C 0.45425 0.18820 0.12337
 N947 N 0.44295 0.17976 0.10644
 N948 N 0.42834 0.19162 0.09569
 C949 C 0.63910 0.25375 0.94720
 N950 N 0.64209 0.27493 0.94263
 N951 N 0.65511 0.28713 0.95491
 C952 C 0.66558 0.27865 0.97229
 N953 N 0.66303 0.25733 0.97654
 N954 N 0.64993 0.24513 0.96429
 C955 C 0.62380 0.24069 0.93423
 N956 N 0.61881 0.22016 0.93998
 N957 N 0.60420 0.20871 0.92867
 C958 C 0.59409 0.21737 0.91118
 N959 N 0.59921 0.23785 0.90536
 N960 N 0.61376 0.24931 0.91670
 C961 C 0.57741 0.20510 0.89909
 N962 N 0.56792 0.21362 0.88122
 N963 N 0.55235 0.20280 0.87055
 C964 C 0.54565 0.18309 0.87740
 N965 N 0.55518 0.17453 0.89525
 N966 N 0.57080 0.18533 0.90589
 C967 C 0.36503 0.74205 0.95098
 N968 N 0.37189 0.73209 0.96923
 N969 N 0.35764 0.72136 0.98152
 C970 C 0.33587 0.72069 0.97638
 N971 N 0.32912 0.73026 0.95783
 N972 N 0.34344 0.74074 0.94536
 C973 C 0.38068 0.75440 0.93787
 N974 N 0.37662 0.75825 0.91671
 N975 N 0.39085 0.76963 0.90494
 C976 C 0.40946 0.77783 0.91401
 N977 N 0.41343 0.77407 0.93519
 N978 N 0.39938 0.76244 0.94687
 C979 C 0.42505 0.79063 0.90126
 N980 N 0.43882 0.80481 0.91112
 N981 N 0.45315 0.81636 0.89968
 C982 C 0.45445 0.81393 0.87801
 N983 N 0.44075 0.79967 0.86813
 N984 N 0.42617 0.78833 0.87955
 C985 C 0.74270 0.95086 0.36579
 N986 N 0.72035 0.94988 0.36634
 N987 N 0.70828 0.96238 0.35354
 C988 C 0.71809 0.97641 0.33979
 N989 N 0.74046 0.97700 0.33881
 N990 N 0.75255 0.96458 0.35173
 C991 C 0.75587 0.93751 0.38046
 N992 N 0.77791 0.94078 0.38261
 N993 N 0.78965 0.92907 0.39647
 C994 C 0.77979 0.91358 0.40856
 N995 N 0.75778 0.91022 0.40627
 N996 N 0.74603 0.92201 0.39253
 C997 C 0.79253 0.90103 0.42426
 N998 N 0.78316 0.88406 0.43459
 N999 N 0.79448 0.87299 0.44926
 C1000 C 0.81554 0.87857 0.45423
 N1001 N 0.82493 0.89553 0.44388
 N1002 N 0.81365 0.90652 0.42912
 C1003 C 0.25701 0.94712 0.63447
 N1004 N 0.27938 0.94696 0.63418
 N1005 N 0.29090 0.95975 0.64725
 C1006 C 0.28049 0.97326 0.66104
 N1007 N 0.25811 0.97301 0.66177
 N1008 N 0.24657 0.96031 0.64858
 C1009 C 0.24443 0.93351 0.61947
 N1010 N 0.22235 0.93608 0.61704
 N1011 N 0.21114 0.92418 0.60288
 C1012 C 0.22159 0.90919 0.59073
 N1013 N 0.24364 0.90651 0.59328
 N1014 N 0.25486 0.91850 0.60734
 C1015 C 0.20941 0.89643 0.57470
 N1016 N 0.21931 0.87983 0.56434
 N1017 N 0.20844 0.86856 0.54944
 C1018 C 0.18732 0.87358 0.54425
 N1019 N 0.17741 0.89017 0.55461
 N1020 N 0.18824 0.90136 0.56961
 C1021 C 0.26097 0.04886 0.36861
 N1022 N 0.28330 0.04995 0.36941
 N1023 N 0.29554 0.03763 0.35663
 C1024 C 0.28589 0.02370 0.34264
 N1025 N 0.26353 0.02301 0.34140
 N1026 N 0.25129 0.03525 0.35430
 C1027 C 0.24762 0.06199 0.38325
 N1028 N 0.22559 0.05858 0.38514
 N1029 N 0.21368 0.07012 0.39894
 C1030 C 0.22337 0.08557 0.41125
 N1031 N 0.24537 0.08907 0.40924
 N1032 N 0.25729 0.07744 0.39555
 C1033 C 0.21043 0.09806 0.42678
 N1034 N 0.21963 0.11511 0.43716
 N1035 N 0.20809 0.12626 0.45155
 C1036 C 0.18698 0.12068 0.45619
 N1037 N 0.17776 0.10362 0.44582
 N1038 N 0.18927 0.09254 0.43133
 C1039 C 0.73937 0.05173 0.63208
 N1040 N 0.74866 0.03527 0.64324
 N1041 N 0.73640 0.02279 0.65597
 C1042 C 0.71436 0.02614 0.65777
 N1043 N 0.70519 0.04285 0.64691
 N1044 N 0.71745 0.05537 0.63427
 C1045 C 0.75260 0.06511 0.61747
 N1046 N 0.74342 0.08229 0.60739
 N1047 N 0.75514 0.09412 0.59363
 C1048 C 0.77647 0.08915 0.58938
 N1049 N 0.78568 0.07200 0.59950
 N1050 N 0.77397 0.06021 0.61332
 C1051 C 0.78916 0.10182 0.57372
 N1052 N 0.80974 0.09565 0.56786
 N1053 N 0.82104 0.10685 0.55327
 C1054 C 0.81220 0.12467 0.54404
 N1055 N 0.79166 0.13091 0.54997
 N1056 N 0.78033 0.11966 0.56452
 C1057 C 0.94424 0.63313 0.25917
 N1058 N 0.94269 0.63217 0.28095
 N1059 N 0.95562 0.64436 0.29333
 C1060 C 0.97065 0.65789 0.28440
 N1061 N 0.97175 0.65934 0.26260
 N1062 N 0.95890 0.64703 0.25021
 C1063 C 0.93077 0.61880 0.24565
 N1064 N 0.93483 0.61688 0.22425
 N1065 N 0.92327 0.60308 0.21224
 C1066 C 0.90715 0.59078 0.22118
 N1067 N 0.90296 0.59286 0.24254
 N1068 N 0.91460 0.60656 0.25456
 C1069 C 0.89502 0.57490 0.20821
 N1070 N 0.87763 0.56404 0.21671
 N1071 N 0.86712 0.54902 0.20527
 C1072 C 0.87371 0.54421 0.18496
 N1073 N 0.89105 0.55512 0.17642
 N1074 N 0.90148 0.57023 0.18782
 C1075 C 0.95515 0.37248 0.73808
 N1076 N 0.94615 0.35363 0.73132
 N1077 N 0.95775 0.34007 0.71924
 C1078 C 0.97878 0.34482 0.71331
 N1079 N 0.98753 0.36395 0.71972
 N1080 N 0.97604 0.37742 0.73203
 C1081 C 0.94240 0.38725 0.75164
 N1082 N 0.95263 0.40301 0.76311
 N1083 N 0.94102 0.41628 0.77553
 C1084 C 0.91874 0.41441 0.77676
 N1085 N 0.90852 0.39872 0.76521
 N1086 N 0.92015 0.38530 0.75298
 C1087 C 0.90584 0.42928 0.79008
 N1088 N 0.88383 0.43145 0.78680
 N1089 N 0.87215 0.44527 0.79852
 C1090 C 0.88200 0.45721 0.81414
 N1091 N 0.90398 0.45491 0.81756
 N1092 N 0.91572 0.44126 0.80566
 C1093 C 0.04821 0.63074 0.73783
 N1094 N 0.05428 0.65171 0.73593
 N1095 N 0.04198 0.66541 0.72462
 C1096 C 0.02316 0.65866 0.71475
 N1097 N 0.01759 0.63749 0.71604
 N1098 N 0.02971 0.62385 0.72759
 C1099 C 0.06130 0.61579 0.75092
 N1100 N 0.05196 0.59766 0.75909
 N1101 N 0.06373 0.58420 0.77120
 C1102 C 0.08533 0.58825 0.77535
 N1103 N 0.09471 0.60631 0.76706
 N1104 N 0.08286 0.61993 0.75520
 C1105 C 0.09841 0.57318 0.78831
 N1106 N 0.12068 0.57259 0.78632
 N1107 N 0.13253 0.55853 0.79764
 C1108 C 0.12259 0.54479 0.81160
 N1109 N 0.10033 0.54553 0.81376
 N1110 N 0.08844 0.55938 0.80221
 C1111 C 0.05331 0.36620 0.25844
 N1112 N 0.03571 0.35527 0.25038
 N1113 N 0.02337 0.34290 0.26315
 C1114 C 0.02803 0.34125 0.28450
 N1115 N 0.04589 0.35187 0.29242
 N1116 N 0.05826 0.36415 0.27965
 C1117 C 0.06648 0.38052 0.24470
 N1118 N 0.08468 0.39048 0.25270
 N1119 N 0.09623 0.40413 0.24059
 C1120 C 0.08997 0.40837 0.22004
 N1121 N 0.07182 0.39833 0.21198
 N1122 N 0.06030 0.38462 0.22408
 C1123 C 0.10217 0.42418 0.20709
 N1124 N 0.09469 0.43016 0.18736
 N1125 N 0.10529 0.44517 0.17603
 C1126 C 0.12377 0.45470 0.18399
 N1127 N 0.13133 0.44860 0.20364
 N1128 N 0.12071 0.43363 0.21499
   
