data_POSCAR
  _audit_creation_date              2014-09-24
  _audit_creation_method            'ToBaCCo'
  _symmetry_space_group_name_H-M    'P1'
  _symmetry_Int_Tables_number       1
  _symmetry_cell_setting            triclinic
  loop_
  _symmetry_equiv_pos_as_xyz
 x,y,z
_cell_length_a 39.5145
_cell_length_b 40.4344
_cell_length_c 16.5174
_cell_angle_alpha 89.920600
_cell_angle_beta 90.215800
_cell_angle_gamma 115.175100
loop_
  _atom_site_label
  _atom_site_type_symbol
  _atom_site_fract_x
  _atom_site_fract_y
  _atom_site_fract_z
C1 C 0.10613 0.39707 0.46133
 C2 C 0.12775 0.39605 0.39491
 C3 C 0.16474 0.40108 0.40923
 C4 C 0.18126 0.40988 0.48708
 C5 C 0.15916 0.41284 0.55129
 C6 C 0.12178 0.40710 0.53906
 C7 C 0.22220 0.41935 0.49974
 C8 C 0.23722 0.42018 0.57835
 C9 C 0.27589 0.43293 0.59002
 C10 C 0.29961 0.44206 0.52314
 C11 C 0.28568 0.44042 0.44470
 C12 C 0.24731 0.42991 0.43350
 H13 H 0.07742 0.39254 0.45155
 H14 H 0.18020 0.39775 0.35861
 H15 H 0.17189 0.42304 0.60934
 H16 H 0.21957 0.41198 0.63123
 H17 H 0.32934 0.45073 0.53276
 H18 H 0.23793 0.43157 0.37284
 C19 C 0.51937 -0.31553 0.51171
 C20 C 0.53366 -0.29778 0.43791
 C21 C 0.55457 -0.25946 0.43921
 C22 C 0.55859 -0.23900 0.51120
 C23 C 0.54407 -0.25829 0.58386
 C24 C 0.52518 -0.29651 0.58518
 C25 C 0.57543 -0.19781 0.51008
 C26 C 0.58754 -0.17730 0.58233
 C27 C 0.59607 -0.13985 0.58452
 C28 C 0.59761 -0.12146 0.51160
 C29 C 0.58730 -0.14077 0.43849
 C30 C 0.57544 -0.17876 0.43839
 H31 H 0.50722 -0.34506 0.51359
 H32 H 0.56645 -0.24552 0.38346
 H33 H 0.54537 -0.24397 0.63965
 H34 H 0.58862 -0.19028 0.63882
 H35 H 0.60312 -0.09281 0.51252
 H36 H 0.56445 -0.19319 0.38241
 C37 C 1.33998 0.82703 0.51871
 C38 C 1.32342 0.81743 0.44178
 C39 C 1.28740 0.78839 0.43668
 C40 C 1.27025 0.76644 0.50523
 C41 C 1.28840 0.77694 0.58119
 C42 C 1.32268 0.80753 0.58800
 C43 C 1.23540 0.73129 0.49642
 C44 C 1.21253 0.71411 0.56412
 C45 C 1.18318 0.67861 0.55823
 C46 C 1.17465 0.66233 0.48116
 C47 C 1.19557 0.67929 0.41305
 C48 C 1.22618 0.71313 0.42084
 H49 H 1.36611 0.85115 0.52608
 H50 H 1.27382 0.78180 0.37837
 H51 H 1.27715 0.76109 0.63528
 H52 H 1.21857 0.72750 0.62222
 H53 H 1.15026 0.63671 0.47232
 H54 H 1.24306 0.72415 0.36767
 C55 C 0.89075 0.60660 0.54010
 C56 C 0.87554 0.59769 0.46217
 C57 C 0.83834 0.59179 0.44871
 C58 C 0.81600 0.59510 0.51217
 C59 C 0.83258 0.60504 0.58976
 C60 C 0.86913 0.60909 0.60470
 C61 C 0.77475 0.58401 0.49951
 C62 C 0.74955 0.57292 0.56574
 C63 C 0.71052 0.55885 0.55425
 C64 C 0.69694 0.55498 0.47450
 C65 C 0.72099 0.56543 0.40822
 C66 C 0.75966 0.58134 0.42061
 H67 H 0.91867 0.60882 0.55164
 H68 H 0.82657 0.58194 0.38969
 H69 H 0.81707 0.60819 0.64051
 H70 H 0.75968 0.57256 0.62624
 H71 H 0.66727 0.54501 0.46252
 H72 H 0.77740 0.59038 0.36797
 C73 C 0.46928 0.31088 0.47987
 C74 C 0.47156 0.29146 0.41217
 C75 C 0.45944 0.25376 0.41758
 C76 C 0.44372 0.23480 0.48994
 C77 C 0.44141 0.25509 0.55796
 C78 C 0.45377 0.29341 0.55336
 C79 C 0.42943 0.19400 0.49270
 C80 C 0.43016 0.17551 0.56481
 C81 C 0.41877 0.13723 0.56568
 C82 C 0.40827 0.11812 0.49153
 C83 C 0.40934 0.13638 0.41881
 C84 C 0.41734 0.17350 0.42094
 H85 H 0.48033 0.34028 0.47438
 H86 H 0.46288 0.23966 0.36489
 H87 H 0.42800 0.24085 0.61257
 H88 H 0.43953 0.19095 0.62022
 H89 H 0.40345 0.08970 0.48848
 H90 H 0.41578 0.18649 0.36466
 C91 C 0.66934 0.17016 0.49106
 C92 C 0.68512 0.18925 0.42037
 C93 C 0.71766 0.22189 0.42501
 C94 C 0.73555 0.23538 0.50046
 C95 C 0.71945 0.21444 0.57088
 C96 C 0.68560 0.18290 0.56660
 C97 C 0.76867 0.27226 0.50599
 C98 C 0.77924 0.29130 0.58071
 C99 C 0.80692 0.32743 0.58440
 C100 C 0.82427 0.34462 0.51240
 C101 C 0.81560 0.32639 0.43813
 C102 C 0.78867 0.29000 0.43563
 H103 H 0.64380 0.14514 0.48721
 H104 H 0.72737 0.23695 0.36943
 H105 H 0.73198 0.22269 0.62987
 H106 H 0.76469 0.27952 0.63602
 H107 H 0.84684 0.37186 0.51478
 H108 H 0.78335 0.27619 0.37801
 N109 N 0.98689 0.55841 0.11256
 N110 N 0.96907 0.57662 0.14411
 N111 N 1.05976 0.54661 0.12705
 N112 N 1.08882 0.55758 0.17608
 N113 N 1.06177 0.57337 0.07921
 N114 N 1.09216 0.60344 0.09577
 N115 N 0.98529 0.53223 0.16175
 N116 N 0.96664 0.53198 0.22774
 C117 C 0.95643 0.55955 0.21605
 C118 C 1.10921 0.59285 0.15522
 N119 N 1.02733 0.44433 0.05860
 N120 N 1.04268 0.42117 0.06842
 N121 N 0.96426 0.45511 0.14858
 N122 N 0.94141 0.44444 0.21088
 N123 N 0.95300 0.43021 0.09132
 N124 N 0.92249 0.40153 0.11382
 N125 N 1.03934 0.46977 0.11467
 N126 N 1.06371 0.46508 0.16244
 Mn127 Mn 1.01221 0.50092 0.13848
 C128 C 1.06634 0.43534 0.13178
 C129 C 0.91546 0.41110 0.18833
 N130 N 1.04748 0.57600 -0.09274
 N131 N 1.07778 0.60467 -0.11683
 N132 N 0.96101 0.53627 -0.11509
 N133 N 0.93606 0.54023 -0.16221
 N134 N 0.97309 0.56198 -0.05965
 N135 N 0.95729 0.58480 -0.06952
 N136 N 1.03583 0.55086 -0.14945
 N137 N 1.05792 0.56135 -0.21281
 Mn138 Mn 1.01743 0.56791 0.01003
 C139 C 1.08409 0.59478 -0.19186
 C140 C 0.93336 0.57003 -0.13229
 N141 N 0.93850 0.43273 -0.08040
 N142 N 0.90824 0.40267 -0.09854
 N143 N 1.01497 0.47384 -0.16235
 N144 N 1.03325 0.47362 -0.22864
 N145 N 1.01359 0.44794 -0.11262
 N146 N 1.03136 0.42960 -0.14355
 N147 N 0.94065 0.45977 -0.12735
 N148 N 0.91194 0.44913 -0.17707
 Mn149 Mn 0.98299 0.43838 -0.01089
 Mn150 Mn 0.98809 0.50520 -0.13888
 Cl151 Cl 1.00019 0.50312 -0.00027
 C152 C 0.89149 0.41369 -0.15800
 C153 C 1.04361 0.44620 -0.21591
 N154 N 0.45068 0.48024 0.15447
 N155 N 0.43303 0.48670 0.21559
 N156 N 0.47406 0.42226 0.08282
 N157 N 0.46912 0.38840 0.09825
 N158 N 0.49821 0.44514 0.13388
 N159 N 0.51068 0.42762 0.18444
 N160 N 0.42675 0.45743 0.10292
 N161 N 0.39207 0.44751 0.12816
 C162 C 0.39651 0.46637 0.19826
 C163 C 0.49278 0.39232 0.16099
 N164 N 0.48258 0.44688 -0.14782
 N165 N 0.48481 0.42984 -0.21398
 N166 N 0.41724 0.45793 -0.07131
 N167 N 0.38082 0.44432 -0.08597
 N168 N 0.43576 0.48249 -0.12609
 N169 N 0.41261 0.48690 -0.17779
 N170 N 0.46475 0.42316 -0.09089
 N171 N 0.45455 0.38933 -0.11730
 Mn172 Mn 0.44539 0.43983 0.00613
 C173 C 0.46795 0.39409 -0.19388
 C174 C 0.37844 0.46349 -0.15156
 N175 N 0.56148 0.51471 0.12628
 N176 N 0.58472 0.51009 0.17741
 N177 N 0.53273 0.57384 0.09082
 N178 N 0.53863 0.60732 0.11293
 N179 N 0.51408 0.55009 0.14692
 N180 N 0.50622 0.56657 0.20783
 N181 N 0.57997 0.53895 0.07090
 N182 N 0.61642 0.55215 0.08449
 Mn183 Mn 0.50612 0.49753 0.14098
 C184 C 0.61886 0.53308 0.15010
 C185 C 0.52135 0.60216 0.18571
 N186 N 0.49907 0.55182 -0.13330
 N187 N 0.48661 0.56912 -0.18425
 N188 N 0.57059 0.53949 -0.10321
 N189 N 0.60520 0.54960 -0.12925
 N190 N 0.54650 0.51670 -0.15458
 N191 N 0.56397 0.51057 -0.21643
 N192 N 0.52348 0.57490 -0.08298
 N193 N 0.52862 0.60876 -0.09955
 Mn194 Mn 0.49103 0.49953 -0.14080
 Mn195 Mn 0.55206 0.55719 -0.00628
 Cl196 Cl 0.49865 0.49848 -0.00002
 C197 C 0.50475 0.60453 -0.16211
 C198 C 0.60056 0.53094 -0.19975
 N199 N 0.42945 -0.05076 0.09380
 N200 N 0.39938 -0.07988 0.11723
 N201 N 0.47173 0.03215 0.13378
 N202 N 0.46967 0.05540 0.18702
 N203 N 0.44468 0.02333 0.08010
 N204 N 0.42297 0.03994 0.09665
 N205 N 0.45611 -0.04223 0.14826
 N206 N 0.44534 -0.06536 0.20901
 C207 C 0.41016 -0.08896 0.18898
 C208 C 0.43962 0.06046 0.16252
 N209 N 0.57689 0.05465 0.08546
 N210 N 0.60744 0.08451 0.10271
 N211 N 0.53419 -0.02392 0.15141
 N212 N 0.53257 -0.04716 0.20870
 N213 N 0.56073 -0.01983 0.09936
 N214 N 0.57854 -0.03976 0.12121
 N215 N 0.55016 0.05062 0.13689
 N216 N 0.56145 0.07770 0.18923
 Mn217 Mn 0.50311 0.00424 0.14292
 C218 C 0.59699 0.09895 0.16687
 C219 C 0.56019 -0.05689 0.18925
 N220 N 0.44528 0.01791 -0.09504
 N221 N 0.42693 0.03744 -0.11592
 N222 N 0.45610 -0.05208 -0.13408
 N223 N 0.44511 -0.07965 -0.18517
 N224 N 0.42963 -0.05653 -0.08159
 N225 N 0.39956 -0.08710 -0.09681
 N226 N 0.47183 0.02260 -0.14753
 N227 N 0.47264 0.04566 -0.20474
 Mn228 Mn 0.43675 -0.01668 -0.00087
 C229 C 0.44481 0.05493 -0.18392
 C230 C 0.41001 -0.10154 -0.16090
 N231 N 0.56125 -0.02545 -0.07688
 N232 N 0.58266 -0.04240 -0.09362
 N233 N 0.55046 0.04100 -0.14423
 N234 N 0.56164 0.06485 -0.20378
 N235 N 0.57698 0.04875 -0.08958
 N236 N 0.60723 0.07791 -0.11143
 N237 N 0.53454 -0.03360 -0.13127
 N238 N 0.53648 -0.05677 -0.18493
 Mn239 Mn 0.56946 0.01460 0.00471
 Mn240 Mn 0.50319 -0.00552 -0.13981
 Cl241 Cl 0.50314 -0.00086 0.00169
 C242 C 0.56614 -0.06246 -0.16025
 C243 C 0.59689 0.08793 -0.18239
 C244 C 1.07553 0.37782 0.29774
 C245 C 1.11411 0.39615 0.31543
 C246 C 1.13760 0.42054 0.25685
 C247 C 1.12216 0.43094 0.19051
 C248 C 1.08336 0.41557 0.17899
 C249 C 1.06040 0.38732 0.22991
 H250 H 1.05662 0.35762 0.33899
 H251 H 1.16736 0.43545 0.26742
 H252 H 1.14024 0.45317 0.15222
 H253 H 1.03031 0.37526 0.22206
 C254 C 0.49637 0.64698 0.35932
 C255 C 0.52802 0.68091 0.36629
 C256 C 0.55449 0.69109 0.30284
 C257 C 0.55134 0.66638 0.24029
 C258 C 0.52168 0.63130 0.23977
 C259 C 0.49357 0.62248 0.29788
 H260 H 0.47361 0.63876 0.40227
 H261 H 0.57930 0.71668 0.30441
 H262 H 0.57333 0.67380 0.19557
 H263 H 0.46977 0.59599 0.29731
 C264 C 0.32585 -0.15719 0.30336
 C265 C 0.34355 -0.16342 0.37258
 C266 C 0.38294 -0.14901 0.37260
 C267 C 0.40386 -0.12678 0.31024
 C268 C 0.38641 -0.11794 0.24522
 C269 C 0.34718 -0.13427 0.24059
 H270 H 0.29573 -0.16760 0.29994
 H271 H 0.39806 -0.15498 0.42098
 H272 H 0.43407 -0.11556 0.31437
 H273 H 0.33306 -0.12796 0.19072
 C274 C 0.90009 0.60359 0.31965
 C275 C 0.89669 0.58901 0.39814
 C276 C 0.91287 0.56492 0.41547
 C277 C 0.93206 0.55555 0.35590
 C278 C 0.93591 0.57028 0.27759
 C279 C 0.91991 0.59456 0.25989
 H280 H 0.88769 0.62214 0.30494
 H281 H 0.91011 0.55281 0.47502
 H282 H 0.94402 0.53673 0.37146
 H283 H 0.92237 0.60617 0.19989
 C284 C 0.51572 0.34431 0.33216
 C285 C 0.48337 0.31125 0.33454
 C286 C 0.45821 0.30187 0.26910
 C287 C 0.46308 0.32714 0.20708
 C288 C 0.49311 0.36199 0.21025
 C289 C 0.52052 0.36951 0.27058
 H290 H 0.53561 0.35195 0.38178
 H291 H 0.43297 0.27658 0.27000
 H292 H 0.44165 0.32062 0.16095
 H293 H 0.54425 0.39599 0.27369
 C294 C 0.68265 0.16249 0.28253
 C295 C 0.66579 0.17483 0.34281
 C296 C 0.62789 0.16742 0.33543
 C297 C 0.60629 0.14515 0.27321
 C298 C 0.62215 0.12977 0.21726
 C299 C 0.66088 0.14002 0.21978
 H300 H 0.71185 0.16780 0.28760
 H301 H 0.61445 0.17685 0.38116
 H302 H 0.57658 0.13801 0.27207
 H303 H 0.67371 0.12845 0.17737
 C304 C 0.44979 0.13561 -0.30520
 C305 C 0.42128 0.11851 -0.36329
 C306 C 0.39723 0.08113 -0.35208
 C307 C 0.40305 0.06112 -0.28884
 C308 C 0.43322 0.07776 -0.23584
 C309 C 0.45613 0.11519 -0.24331
 H310 H 0.46956 0.16391 -0.31129
 H311 H 0.37399 0.06701 -0.39281
 H312 H 0.38527 0.03212 -0.28420
 H313 H 0.48002 0.12825 -0.20356
 C314 C 0.64838 0.52139 -0.38903
 C315 C 0.68515 0.54885 -0.37971
 C316 C 0.69488 0.56728 -0.30455
 C317 C 0.66782 0.56071 -0.24427
 C318 C 0.63074 0.53513 -0.25713
 C319 C 0.62172 0.51473 -0.32887
 H320 H 0.63986 0.50457 -0.44285
 H321 H 0.72256 0.58874 -0.29401
 H322 H 0.67558 0.57666 -0.18907
 H323 H 0.59360 0.49408 -0.33972
 C324 C 0.82897 0.38435 -0.33929
 C325 C 0.81876 0.34652 -0.34173
 C326 C 0.82545 0.32968 -0.27240
 C327 C 0.84705 0.35116 -0.20804
 C328 C 0.86076 0.38941 -0.21101
 C329 C 0.84922 0.40536 -0.27445
 H330 H 0.82254 0.39808 -0.38939
 H331 H 0.81776 0.30058 -0.27157
 H332 H 0.85520 0.33814 -0.15922
 H333 H 0.85827 0.43467 -0.27730
 C334 C 0.56487 -0.14016 -0.28427
 C335 C 0.59494 -0.12207 -0.33732
 C336 C 0.61938 -0.08542 -0.32139
 C337 C 0.61234 -0.06664 -0.25697
 C338 C 0.58054 -0.08415 -0.20854
 C339 C 0.55750 -0.12124 -0.22123
 H340 H 0.54511 -0.16815 -0.29566
 H341 H 0.64262 -0.07078 -0.36145
 H342 H 0.62992 -0.03775 -0.24921
 H343 H 0.53236 -0.13493 -0.18565
 C344 C 0.31736 0.47662 -0.30943
 C345 C 0.29329 0.44040 -0.32880
 C346 C 0.29247 0.41201 -0.27861
 C347 C 0.31793 0.41970 -0.21396
 C348 C 0.34452 0.45575 -0.20006
 C349 C 0.34282 0.48421 -0.24589
 H350 H 0.31848 0.49885 -0.34773
 H351 H 0.27439 0.38386 -0.29335
 H352 H 0.31906 0.39729 -0.17987
 H353 H 0.36304 0.51219 -0.23625
 C354 C 1.14645 0.62032 -0.37385
 C355 C 1.16243 0.65892 -0.37347
 C356 C 1.15606 0.67634 -0.30472
 C357 C 1.13186 0.65572 -0.24281
 C358 C 1.11399 0.61744 -0.24806
 C359 C 1.12256 0.60009 -0.31276
 H360 H 1.15248 0.60521 -0.42133
 H361 H 1.16746 0.70580 -0.30078
 H362 H 1.12574 0.66973 -0.19310
 H363 H 1.11012 0.57055 -0.31717
 C364 C 0.91888 0.62968 -0.28756
 C365 C 0.88197 0.60731 -0.31162
 C366 C 0.85999 0.57748 -0.26267
 C367 C 0.87594 0.56757 -0.19683
 C368 C 0.91375 0.58793 -0.17747
 C369 C 0.93459 0.62020 -0.22029
 H370 H 0.93641 0.65267 -0.32466
 H371 H 0.83166 0.55948 -0.28045
 H372 H 0.85969 0.54220 -0.16544
 H373 H 0.96406 0.63579 -0.20733
 C374 C 0.44822 0.34781 -0.39581
 C375 C 0.45131 0.31481 -0.38065
 C376 C 0.45433 0.30567 -0.29905
 C377 C 0.45824 0.33068 -0.23648
 C378 C 0.45904 0.36493 -0.25465
 C379 C 0.45266 0.37259 -0.33423
 H380 H 0.44246 0.35496 -0.45581
 H381 H 0.45652 0.28063 -0.28368
 H382 H 0.46261 0.32409 -0.17489
 H383 H 0.45151 0.39818 -0.34930
 C384 C 0.68220 0.15243 -0.29810
 C385 C 0.66503 0.16385 -0.35995
 C386 C 0.62648 0.15417 -0.35552
 C387 C 0.60494 0.13110 -0.29468
 C388 C 0.62144 0.11749 -0.23611
 C389 C 0.66046 0.12936 -0.23622
 H390 H 0.71189 0.15965 -0.30016
 H391 H 0.61270 0.16331 -0.40137
 H392 H 0.57500 0.12279 -0.29526
 H393 H 0.67376 0.11914 -0.19156
 C394 C 1.10661 0.40933 -0.31637
 C395 C 1.10153 0.41504 -0.39913
 C396 C 1.07661 0.43056 -0.41909
 C397 C 1.05806 0.44043 -0.35916
 C398 C 1.06299 0.43442 -0.27745
 C399 C 1.08698 0.41833 -0.25625
 H400 H 1.12490 0.39694 -0.29793
 H401 H 1.07282 0.43725 -0.48092
 H402 H 1.03980 0.45299 -0.37697
 H403 H 1.09116 0.41350 -0.19328
 C404 C 0.48300 0.64966 -0.33934
 C405 C 0.51449 0.68367 -0.34144
 C406 C 0.53773 0.69466 -0.27215
 C407 C 0.53293 0.66987 -0.20892
 C408 C 0.50427 0.63429 -0.21313
 C409 C 0.47793 0.62540 -0.27594
 H410 H 0.46301 0.64100 -0.38877
 H411 H 0.56211 0.72066 -0.27051
 H412 H 0.55336 0.67753 -0.16042
 H413 H 0.45476 0.59855 -0.27930
 C414 C 0.32449 -0.16661 -0.27374
 C415 C 0.34138 -0.17936 -0.33316
 C416 C 0.37920 -0.17221 -0.32477
 C417 C 0.40083 -0.14930 -0.26339
 C418 C 0.38498 -0.13326 -0.20907
 C419 C 0.34623 -0.14367 -0.21167
 H420 H 0.29539 -0.17164 -0.27955
 H421 H 0.39269 -0.18192 -0.36983
 H422 H 0.43056 -0.14205 -0.26200
 H423 H 0.33341 -0.13162 -0.17038
 C424 C 0.54635 -0.13354 0.33217
 C425 C 0.58226 -0.12226 0.36534
 C426 C 0.61205 -0.09151 0.33296
 C427 C 0.60566 -0.07163 0.26979
 C428 C 0.56925 -0.08180 0.24029
 C429 C 0.53983 -0.11319 0.27093
 H430 H 0.52294 -0.15692 0.35689
 H431 H 0.63991 -0.08234 0.35823
 H432 H 0.62854 -0.04705 0.24789
 H433 H 0.51147 -0.12115 0.24957
 C434 C 0.34696 0.47995 0.38078
 C435 C 0.31178 0.45005 0.37514
 C436 C 0.30316 0.42777 0.30582
 C437 C 0.33013 0.43399 0.24574
 C438 C 0.36607 0.46253 0.25434
 C439 C 0.37384 0.48605 0.32120
 H440 H 0.35408 0.49807 0.43261
 H441 H 0.27627 0.40448 0.30007
 H442 H 0.32343 0.41553 0.19461
 H443 H 0.40115 0.50859 0.32878
 C444 C 1.17807 0.62436 0.32628
 C445 C 1.18383 0.66091 0.33395
 C446 C 1.17122 0.67692 0.27236
 C447 C 1.14956 0.65547 0.20842
 C448 C 1.14039 0.61787 0.20589
 C449 C 1.15660 0.60304 0.26269
 H450 H 1.18774 0.61160 0.37307
 H451 H 1.17525 0.70506 0.27756
 H452 H 1.13743 0.66755 0.16525
 H453 H 1.15034 0.57423 0.26155
 C454 C 0.38613 0.08222 0.32426
 C455 C 0.41039 0.11888 0.34043
 C456 C 0.44019 0.13741 0.28706
 C457 C 0.44759 0.11885 0.22346
 C458 C 0.42486 0.08174 0.21071
 C459 C 0.39321 0.06380 0.25930
 H460 H 0.36306 0.06731 0.36455
 H461 H 0.45977 0.16544 0.29862
 H462 H 0.47259 0.13283 0.18761
 H463 H 0.37590 0.03486 0.25134
 C464 C 0.68013 0.52083 0.30829
 C465 C 0.70407 0.55722 0.32665
 C466 C 0.70509 0.58521 0.27497
 C467 C 0.67965 0.57705 0.21028
 C468 C 0.65293 0.54094 0.19787
 C469 C 0.65466 0.51277 0.24471
 H470 H 0.67897 0.49889 0.34761
 H471 H 0.72315 0.61348 0.28878
 H472 H 0.67853 0.59922 0.17521
 H473 H 0.63437 0.48475 0.23603
 C474 C 0.84482 0.38351 0.35567
 C475 C 0.83587 0.34609 0.36451
 C476 C 0.84954 0.32914 0.30710
 C477 C 0.87373 0.34985 0.24566
 C478 C 0.88498 0.38776 0.24192
 C479 C 0.86957 0.40419 0.29596
 H480 H 0.83385 0.39719 0.39724
 H481 H 0.84329 0.30043 0.31230
 H482 H 0.88546 0.33671 0.20446
 H483 H 0.87749 0.43333 0.29335
   
