data_POSCAR
  _audit_creation_date              2014-09-24
  _audit_creation_method            'ToBaCCo'
  _symmetry_space_group_name_H-M    'P1'
  _symmetry_Int_Tables_number       1
  _symmetry_cell_setting            triclinic
  loop_
  _symmetry_equiv_pos_as_xyz
 x,y,z
_cell_length_a 43.9457
_cell_length_b 37.0920
_cell_length_c 23.4052
_cell_angle_alpha 89.954300
_cell_angle_beta 89.961400
_cell_angle_gamma 90.047500
loop_
  _atom_site_label
  _atom_site_type_symbol
  _atom_site_fract_x
  _atom_site_fract_y
  _atom_site_fract_z
C1 C 0.69990 0.29719 0.55301
 C2 C 0.68778 0.30859 0.50089
 C3 C 0.70006 0.29708 0.44904
 C4 C 0.72523 0.27346 0.44858
 C5 C 0.73781 0.26161 0.50121
 C6 C 0.72511 0.27351 0.55376
 C7 C 0.73796 0.26141 0.60536
 C8 C 0.76277 0.23809 0.60543
 C9 C 0.77571 0.22597 0.55390
 C10 C 0.76312 0.23784 0.50126
 C11 C 0.73810 0.26141 0.39705
 C12 C 0.76293 0.23810 0.39707
 C13 C 0.77579 0.22598 0.44866
 C14 C 0.80100 0.20231 0.44931
 C15 C 0.81315 0.19085 0.50135
 C16 C 0.80091 0.20229 0.55334
 H17 H 0.72887 0.26991 0.64620
 H18 H 0.77178 0.22960 0.64633
 H19 H 0.72906 0.26992 0.35620
 H20 H 0.77199 0.22963 0.35621
 H21 H 0.66840 0.32677 0.50055
 H22 H 0.83255 0.17265 0.50140
 C23 C 0.20024 0.79737 0.55333
 C24 C 0.18800 0.80882 0.50140
 C25 C 0.20015 0.79736 0.44940
 C26 C 0.22531 0.77372 0.44874
 C27 C 0.23799 0.76186 0.50130
 C28 C 0.22540 0.77374 0.55390
 C29 C 0.23828 0.76168 0.60544
 C30 C 0.26310 0.73835 0.60541
 C31 C 0.27596 0.72621 0.55381
 C32 C 0.26327 0.73810 0.50124
 C33 C 0.23811 0.76165 0.39714
 C34 C 0.26293 0.73832 0.39707
 C35 C 0.27583 0.72625 0.44860
 C36 C 0.30098 0.70261 0.44906
 C37 C 0.31326 0.69110 0.50091
 C38 C 0.30116 0.70252 0.55305
 H39 H 0.22923 0.77023 0.64628
 H40 H 0.27218 0.72986 0.64626
 H41 H 0.22900 0.77017 0.35634
 H42 H 0.27196 0.72980 0.35620
 H43 H 0.16863 0.82700 0.50145
 H44 H 0.33263 0.67291 0.50057
 C45 C 0.19937 0.20281 -0.44984
 C46 C 0.18708 0.19128 -0.50165
 C47 C 0.19925 0.20261 -0.55382
 C48 C 0.22453 0.22625 -0.55469
 C49 C 0.23723 0.23816 -0.50220
 C50 C 0.22460 0.22640 -0.44950
 C51 C 0.23750 0.23850 -0.39802
 C52 C 0.26239 0.26176 -0.39819
 C53 C 0.27525 0.27376 -0.44983
 C54 C 0.26259 0.26188 -0.50237
 C55 C 0.23743 0.23828 -0.60635
 C56 C 0.26231 0.26156 -0.60651
 C57 C 0.27525 0.27370 -0.55503
 C58 C 0.30053 0.29734 -0.55448
 C59 C 0.31273 0.30877 -0.50246
 C60 C 0.30048 0.29733 -0.45050
 H61 H 0.22843 0.23005 -0.35712
 H62 H 0.27150 0.27030 -0.35740
 H63 H 0.22833 0.22975 -0.64716
 H64 H 0.27137 0.27000 -0.64743
 H65 H 0.16766 0.17313 -0.50125
 H66 H 0.33216 0.32692 -0.50227
 C67 C -0.30110 0.70202 -0.44934
 C68 C -0.31321 0.69059 -0.50141
 C69 C -0.30097 0.70218 -0.55337
 C70 C -0.27581 0.72598 -0.55381
 C71 C -0.26326 0.73781 -0.50112
 C72 C -0.27594 0.72580 -0.44858
 C73 C -0.26312 0.73788 -0.39693
 C74 C -0.23834 0.76129 -0.39679
 C75 C -0.22546 0.77351 -0.44826
 C76 C -0.23800 0.76170 -0.50094
 C77 C -0.26286 0.73825 -0.60528
 C78 C -0.23809 0.76168 -0.60510
 C79 C -0.22530 0.77374 -0.55344
 C80 C -0.20013 0.79753 -0.55257
 C81 C -0.18805 0.80889 -0.50041
 C82 C -0.20033 0.79724 -0.44860
 H83 H -0.27219 0.72928 -0.35610
 H84 H -0.22933 0.76977 -0.35590
 H85 H -0.27184 0.72980 -0.64622
 H86 H -0.22900 0.77031 -0.64590
 H87 H -0.33257 0.67230 -0.50151
 H88 H -0.16870 0.82716 -0.50002
 N89 N 0.03140 1.06448 -0.06092
 N90 N 0.05177 1.08952 -0.07349
 N91 N -0.03258 1.03903 -0.09982
 N92 N -0.05294 1.04596 -0.13967
 N93 N -0.03259 1.06444 -0.06074
 N94 N -0.05298 1.08944 -0.07314
 N95 N 0.03136 1.03905 -0.09997
 N96 N 0.05168 1.04602 -0.13997
 C97 C 0.06451 1.07716 -0.12235
 C98 C -0.06576 1.07707 -0.12193
 N99 N -0.03264 0.93605 -0.06055
 N100 N -0.05300 0.91099 -0.07295
 N101 N 0.03133 0.96147 -0.09979
 N102 N 0.05178 0.95460 -0.13955
 N103 N 0.03135 0.93609 -0.06062
 N104 N 0.05183 0.91116 -0.07283
 N105 N -0.03261 0.96145 -0.09970
 N106 N -0.05294 0.95445 -0.13960
 Mn107 Mn -0.00063 1.00025 -0.10025
 C108 C -0.06576 0.92331 -0.12181
 C109 C 0.06465 0.92354 -0.12164
 N110 N -0.03255 1.06448 0.06277
 N111 N -0.05287 1.08955 0.07529
 N112 N 0.03141 1.03910 0.10173
 N113 N 0.05185 1.04602 0.14147
 N114 N 0.03144 1.06449 0.06256
 N115 N 0.05191 1.08946 0.07476
 N116 N -0.03252 1.03908 0.10191
 N117 N -0.05280 1.04608 0.14193
 Mn118 Mn -0.00058 1.06486 0.00091
 C119 C -0.06559 1.07722 0.12422
 C120 C 0.06472 1.07711 0.12354
 N121 N 0.03137 0.93610 0.06284
 N122 N 0.05177 0.91110 0.07522
 N123 N -0.03256 0.96150 0.10202
 N124 N -0.05296 0.95458 0.14190
 N125 N -0.03262 0.93610 0.06293
 N126 N -0.05307 0.91112 0.07532
 N127 N 0.03138 0.96152 0.10190
 N128 N 0.05176 0.95459 0.14174
 Mn129 Mn -0.00063 0.93569 0.00115
 Mn130 Mn -0.00057 1.00030 0.10232
 Cl131 Cl -0.00060 1.00028 0.00104
 C132 C 0.06457 0.92347 0.12400
 C133 C -0.06584 0.92348 0.12414
 N134 N 0.46843 0.43559 -0.06258
 N135 N 0.44800 0.41061 -0.07495
 N136 N 0.53243 0.46096 -0.10170
 N137 N 0.55279 0.45400 -0.14160
 N138 N 0.53242 0.43555 -0.06257
 N139 N 0.55278 0.41052 -0.07497
 N140 N 0.46850 0.46101 -0.10169
 N141 N 0.44813 0.45411 -0.14156
 C142 C 0.43525 0.42300 -0.12378
 C143 C 0.56557 0.42286 -0.12383
 N144 N 0.53255 0.56394 -0.06261
 N145 N 0.55293 0.58898 -0.07508
 N146 N 0.46857 0.53859 -0.10175
 N147 N 0.44824 0.54558 -0.14164
 N148 N 0.46856 0.56398 -0.06264
 N149 N 0.44820 0.58902 -0.07505
 N150 N 0.53251 0.53854 -0.10171
 N151 N 0.55286 0.54551 -0.14164
 Mn152 Mn 0.50050 0.49978 -0.10214
 C153 C 0.56570 0.57664 -0.12392
 C154 C 0.43544 0.57670 -0.12389
 N155 N 0.53235 0.43552 0.06091
 N156 N 0.55275 0.41052 0.07329
 N157 N 0.46840 0.46092 0.10001
 N158 N 0.44801 0.45396 0.13989
 N159 N 0.46836 0.43553 0.06090
 N160 N 0.44794 0.41052 0.07330
 N161 N 0.53234 0.46091 0.10001
 N162 N 0.55270 0.45397 0.13987
 Mn163 Mn 0.50039 0.43516 -0.00083
 C164 C 0.56552 0.42287 0.12209
 C165 C 0.43516 0.42285 0.12213
 N166 N 0.46851 0.56392 0.06084
 N167 N 0.44813 0.58894 0.07322
 N168 N 0.53242 0.53849 0.10002
 N169 N 0.55272 0.54546 0.13998
 N170 N 0.53250 0.56391 0.06089
 N171 N 0.55286 0.58895 0.07336
 N172 N 0.46848 0.53850 0.09996
 N173 N 0.44811 0.54544 0.13982
 Mn174 Mn 0.50053 0.56433 -0.00088
 Mn175 Mn 0.50041 0.49970 0.10043
 Cl176 Cl 0.50046 0.49974 -0.00086
 C177 C 0.43532 0.57657 0.12204
 C178 C 0.56557 0.57660 0.12225
 C179 C 0.34518 0.33895 0.31016
 C180 C 0.35193 0.31419 0.25912
 C181 C 0.36915 0.33023 0.21765
 C182 C 0.37787 0.36938 0.23146
 C183 C 0.39360 0.36757 0.28987
 C184 C 0.37647 0.35162 0.33111
 C185 C 0.33034 0.37263 0.28414
 C186 C 0.34754 0.38864 0.24275
 C187 C 0.32732 0.32232 0.35614
 C188 C 0.31406 0.30995 0.39680
 C189 C 0.39697 0.38719 0.18841
 C190 C 0.41384 0.40293 0.15630
 H191 H 0.34384 0.28661 0.25577
 H192 H 0.37583 0.31639 0.17877
 H193 H 0.41630 0.37790 0.29813
 H194 H 0.38451 0.34830 0.37467
 H195 H 0.30824 0.38290 0.29692
 H196 H 0.34016 0.41263 0.22007
 C197 C -0.15558 0.83947 0.31228
 C198 C -0.16941 0.87460 0.28932
 C199 C -0.15229 0.89065 0.24790
 C200 C -0.12301 0.86999 0.23351
 C201 C -0.13358 0.83177 0.21783
 C202 C -0.15074 0.81568 0.25935
 C203 C -0.12346 0.84978 0.33202
 C204 C -0.10639 0.86578 0.29073
 C205 C -0.17336 0.82278 0.35827
 C206 C -0.18659 0.81032 0.39887
 C207 C -0.10398 0.88783 0.19043
 C208 C -0.08714 0.90358 0.15831
 H209 H -0.19083 0.88579 0.30412
 H210 H -0.15904 0.91560 0.22721
 H211 H -0.12815 0.81857 0.17772
 H212 H -0.16003 0.78871 0.25482
 H213 H -0.11483 0.84489 0.37480
 H214 H -0.08315 0.87458 0.29817
 C215 C 0.65483 0.66056 0.31096
 C216 C 0.64905 0.68495 0.25902
 C217 C 0.63199 0.66891 0.21740
 C218 C 0.62244 0.63012 0.23198
 C219 C 0.60613 0.63292 0.28977
 C220 C 0.62311 0.64887 0.33117
 C221 C 0.66933 0.62627 0.28640
 C222 C 0.65230 0.61026 0.24487
 C223 C 0.67251 0.67719 0.35710
 C224 C 0.68564 0.68956 0.39785
 C225 C 0.60351 0.61231 0.18877
 C226 C 0.58676 0.59655 0.15653
 H227 H 0.65766 0.71229 0.25520
 H228 H 0.62596 0.68251 0.17791
 H229 H 0.58317 0.62323 0.29751
 H230 H 0.61467 0.65283 0.37433
 H231 H 0.69111 0.61559 0.30024
 H232 H 0.65950 0.58586 0.22313
 C233 C 0.15464 1.16092 0.31113
 C234 C 0.12215 1.15187 0.33037
 C235 C 0.10504 1.13593 0.28915
 C236 C 0.12201 1.13051 0.23252
 C237 C 0.15069 1.10911 0.24831
 C238 C 0.16785 1.12510 0.28965
 C239 C 0.15077 1.18422 0.25734
 C240 C 0.13357 1.16820 0.21590
 C241 C 0.17246 1.17753 0.35705
 C242 C 0.18571 1.18992 0.39763
 C243 C 0.10293 1.11273 0.18954
 C244 C 0.08605 1.09700 0.15753
 H245 H 0.11331 1.15755 0.37275
 H246 H 0.08156 1.12797 0.29626
 H247 H 0.15702 1.08372 0.22860
 H248 H 0.18889 1.11341 0.30535
 H249 H 0.16070 1.21084 0.25220
 H250 H 0.12875 1.18108 0.17525
 C251 C 0.65529 0.33891 -0.31183
 C252 C 0.64910 0.31443 -0.26013
 C253 C 0.63192 0.33048 -0.21868
 C254 C 0.62269 0.36937 -0.23316
 C255 C 0.60666 0.36683 -0.29122
 C256 C 0.62375 0.35087 -0.33245
 C257 C 0.66988 0.37304 -0.28682
 C258 C 0.65274 0.38906 -0.24545
 C259 C 0.67310 0.32226 -0.35778
 C260 C 0.68636 0.30987 -0.39838
 C261 C 0.60364 0.38718 -0.19012
 C262 C 0.58682 0.40293 -0.15800
 H263 H 0.65751 0.28702 -0.25636
 H264 H 0.62561 0.31682 -0.17938
 H265 H 0.58380 0.37670 -0.29925
 H266 H 0.61551 0.34708 -0.37577
 H267 H 0.69180 0.38361 -0.30025
 H268 H 0.65997 0.41335 -0.22344
 C269 C 0.15481 0.83980 -0.30895
 C270 C 0.12080 0.83080 -0.31303
 C271 C 0.10362 0.84677 -0.27184
 C272 C 0.12208 0.87023 -0.23047
 C273 C 0.13918 0.89710 -0.26868
 C274 C 0.15636 0.88112 -0.30989
 C275 C 0.16405 0.82906 -0.24796
 C276 C 0.14679 0.84511 -0.20657
 C277 C 0.17268 0.82316 -0.35478
 C278 C 0.18599 0.81073 -0.39526
 C279 C 0.10295 0.88801 -0.18757
 C280 C 0.08603 0.90371 -0.15561
 H281 H 0.11105 0.81329 -0.34538
 H282 H 0.07917 0.84292 -0.26891
 H283 H 0.13800 0.92616 -0.26368
 H284 H 0.16988 0.89651 -0.34016
 H285 H 0.18245 0.81056 -0.23819
 H286 H 0.15041 0.84037 -0.16131
 C287 C 0.34575 0.66075 -0.31182
 C288 C 0.37694 0.64785 -0.33291
 C289 C 0.39403 0.63186 -0.29170
 C290 C 0.37834 0.63025 -0.23319
 C291 C 0.34789 0.61116 -0.24421
 C292 C 0.33075 0.62721 -0.28556
 C293 C 0.35269 0.68555 -0.26093
 C294 C 0.36987 0.66948 -0.21950
 C295 C 0.32794 0.67742 -0.35775
 C296 C 0.31469 0.68983 -0.39834
 C297 C 0.39738 0.61241 -0.19016
 C298 C 0.41420 0.59664 -0.15806
 H299 H 0.38496 0.65104 -0.37653
 H300 H 0.41666 0.62138 -0.30005
 H301 H 0.34040 0.58725 -0.22139
 H302 H 0.30857 0.61705 -0.29817
 H303 H 0.34477 0.71319 -0.25765
 H304 H 0.37666 0.68335 -0.18072
 C305 C -0.15493 1.16077 -0.31090
 C306 C -0.12286 1.15012 -0.33050
 C307 C -0.10592 1.13423 -0.28899
 C308 C -0.12262 1.13045 -0.23172
 C309 C -0.15201 1.10992 -0.24582
 C310 C -0.16901 1.12586 -0.28747
 C311 C -0.14998 1.18481 -0.25830
 C312 C -0.13295 1.16883 -0.21657
 C313 C -0.17256 1.17732 -0.35713
 C314 C -0.18568 1.18966 -0.39792
 C315 C -0.10371 1.11271 -0.18842
 C316 C -0.08697 1.09699 -0.15616
 H317 H -0.11418 1.15472 -0.37334
 H318 H -0.08274 1.12523 -0.29631
 H319 H -0.15894 1.08513 -0.22479
 H320 H -0.19049 1.11474 -0.30211
 H321 H -0.15909 1.21187 -0.25415
 H322 H -0.12746 1.18221 -0.17664
 C323 C 0.65468 0.66036 -0.31355
 C324 C 0.66859 0.62528 -0.29059
 C325 C 0.65164 0.60935 -0.24881
 C326 C 0.62244 0.63007 -0.23411
 C327 C 0.60557 0.63415 -0.29109
 C328 C 0.62247 0.65004 -0.33275
 C329 C 0.65009 0.68429 -0.26070
 C330 C 0.63310 0.66832 -0.21882
 C331 C 0.67229 0.67692 -0.35989
 C332 C 0.68542 0.68929 -0.40068
 C333 C 0.60358 0.61234 -0.19065
 C334 C 0.58687 0.59660 -0.15827
 H335 H 0.68994 0.61403 -0.30565
 H336 H 0.65846 0.58445 -0.22807
 H337 H 0.58229 0.62537 -0.29812
 H338 H 0.61366 0.65484 -0.37542
 H339 H 0.65941 0.71127 -0.25649
 H340 H 0.62785 0.68162 -0.17872
 C341 C 0.15405 1.16071 -0.31145
 C342 C 0.16692 1.12453 -0.29068
 C343 C 0.14981 1.10864 -0.24908
 C344 C 0.12152 1.13048 -0.23232
 C345 C 0.10427 1.13651 -0.28847
 C346 C 0.12132 1.15236 -0.32995
 C347 C 0.15083 1.18378 -0.25730
 C348 C 0.13368 1.16785 -0.21560
 C349 C 0.17184 1.17723 -0.35762
 C350 C 0.18512 1.18956 -0.39828
 C351 C 0.10251 1.11278 -0.18902
 C352 C 0.08572 1.09709 -0.15670
 H353 H 0.18769 1.11253 -0.30704
 H354 H 0.15594 1.08303 -0.22980
 H355 H 0.08064 1.12903 -0.29507
 H356 H 0.11229 1.15843 -0.37204
 H357 H 0.16113 1.21019 -0.25214
 H358 H 0.12929 1.18061 -0.17470
 C359 C 0.34575 0.33955 -0.31244
 C360 C 0.33143 0.37399 -0.28802
 C361 C 0.34851 0.38988 -0.24646
 C362 C 0.37823 0.36977 -0.23342
 C363 C 0.39459 0.36678 -0.29113
 C364 C 0.37756 0.35094 -0.33256
 C365 C 0.35132 0.31515 -0.26042
 C366 C 0.36843 0.33108 -0.21877
 C367 C 0.32800 0.32302 -0.35853
 C368 C 0.31475 0.31066 -0.39911
 C369 C 0.39721 0.38745 -0.19019
 C370 C 0.41400 0.40313 -0.15797
 H371 H 0.30973 0.38484 -0.30198
 H372 H 0.34144 0.41436 -0.22481
 H373 H 0.41762 0.37626 -0.29880
 H374 H 0.38602 0.34686 -0.37568
 H375 H 0.34254 0.28789 -0.25657
 H376 H 0.37433 0.31747 -0.17923
 C377 C -0.15518 0.83949 -0.31036
 C378 C -0.16933 0.87421 -0.28657
 C379 C -0.15225 0.89018 -0.24507
 C380 C -0.12271 0.86984 -0.23143
 C381 C -0.10621 0.86637 -0.28893
 C382 C -0.12324 0.85046 -0.33031
 C383 C -0.14994 0.81534 -0.25794
 C384 C -0.13283 0.83133 -0.21634
 C385 C -0.17293 0.82290 -0.35644
 C386 C -0.18616 0.81053 -0.39705
 C387 C -0.10374 0.88761 -0.18824
 C388 C -0.08696 0.90335 -0.15603
 H389 H -0.19091 0.88521 -0.30088
 H390 H -0.15920 0.91485 -0.22383
 H391 H -0.08309 0.87557 -0.29650
 H392 H -0.11468 0.84605 -0.37328
 H393 H -0.15892 0.78819 -0.25380
 H394 H -0.12713 0.81789 -0.17656
 C395 C 0.34604 0.66030 0.31079
 C396 C 0.37677 0.64605 0.33203
 C397 C 0.39375 0.63015 0.29058
 C398 C 0.37842 0.62996 0.23172
 C399 C 0.37096 0.66966 0.21931
 C400 C 0.35390 0.68564 0.26097
 C401 C 0.33043 0.62768 0.28301
 C402 C 0.34746 0.61172 0.24142
 C403 C 0.32835 0.67688 0.35692
 C404 C 0.31515 0.68927 0.39755
 C405 C 0.39735 0.61222 0.18848
 C406 C 0.41411 0.59649 0.15625
 H407 H 0.38456 0.64829 0.37591
 H408 H 0.41606 0.61878 0.29900
 H409 H 0.37834 0.68389 0.18118
 H410 H 0.34665 0.71357 0.25855
 H411 H 0.30794 0.61807 0.29480
 H412 H 0.33957 0.58843 0.21757
 C413 C -0.15467 1.16086 0.31359
 C414 C -0.12245 1.15066 0.33288
 C415 C -0.10551 1.13481 0.29133
 C416 C -0.12234 1.13061 0.23432
 C417 C -0.13304 1.16882 0.21886
 C418 C -0.15008 1.18475 0.26063
 C419 C -0.16852 1.12570 0.29075
 C420 C -0.15152 1.10980 0.24907
 C421 C -0.17234 1.17738 0.35984
 C422 C -0.18551 1.18969 0.40060
 C423 C -0.10344 1.11290 0.19094
 C424 C -0.08673 1.09718 0.15859
 H425 H -0.11368 1.15553 0.37554
 H426 H -0.08222 1.12611 0.29844
 H427 H -0.12778 1.18210 0.17870
 H428 H -0.15943 1.21169 0.25627
 H429 H -0.18986 1.11438 0.30581
 H430 H -0.15830 1.08485 0.22844
 C431 C 0.65493 0.33929 0.31079
 C432 C 0.64906 0.31479 0.25905
 C433 C 0.63197 0.33074 0.21739
 C434 C 0.62249 0.36955 0.23174
 C435 C 0.65239 0.38946 0.24433
 C436 C 0.66945 0.37354 0.28591
 C437 C 0.62325 0.35101 0.33105
 C438 C 0.60625 0.36687 0.28961
 C439 C 0.67265 0.32275 0.35691
 C440 C 0.68587 0.31039 0.39754
 C441 C 0.60353 0.38726 0.18850
 C442 C 0.58675 0.40296 0.15628
 H443 H 0.65763 0.28745 0.25540
 H444 H 0.62588 0.31707 0.17803
 H445 H 0.65958 0.41381 0.22238
 H446 H 0.69126 0.38425 0.29958
 H447 H 0.61487 0.34713 0.37428
 H448 H 0.58330 0.37657 0.29737
 C449 C 0.15457 0.83974 0.31173
 C450 C 0.16182 0.87984 0.30295
 C451 C 0.14463 0.89580 0.26169
 C452 C 0.12185 0.87011 0.23317
 C453 C 0.10310 0.85433 0.28254
 C454 C 0.12027 0.83839 0.32375
 C455 C 0.15840 0.82252 0.25247
 C456 C 0.14115 0.83854 0.21106
 C457 C 0.17246 0.82312 0.35760
 C458 C 0.18582 0.81071 0.39804
 C459 C 0.10273 0.88788 0.19019
 C460 C 0.08586 0.90359 0.15813
 H461 H 0.17904 0.89440 0.32690
 H462 H 0.14713 0.92403 0.25030
 H463 H 0.07844 0.85548 0.28487
 H464 H 0.11030 0.82591 0.36134
 H465 H 0.17332 0.79986 0.24382
 H466 H 0.14129 0.82960 0.16691
   
