data_POSCAR
  _audit_creation_date              2014-09-24
  _audit_creation_method            'ToBaCCo'
  _symmetry_space_group_name_H-M    'P1'
  _symmetry_Int_Tables_number       1
  _symmetry_cell_setting            triclinic
  loop_
  _symmetry_equiv_pos_as_xyz
 x,y,z
_cell_length_a 52.8140
_cell_length_b 53.1369
_cell_length_c 52.6316
_cell_angle_alpha 89.614300
_cell_angle_beta 89.904100
_cell_angle_gamma 89.837300
loop_
  _atom_site_label
  _atom_site_type_symbol
  _atom_site_fract_x
  _atom_site_fract_y
  _atom_site_fract_z
C1 C 0.21288 0.52004 1.03441
 H2 H 0.21361 0.53482 1.02018
 C3 C 0.19553 0.52158 1.05433
 H4 H 0.18311 0.53780 1.05515
 C5 C 0.22806 0.48085 1.04981
 H6 H 0.24034 0.46473 1.04764
 C7 C 0.21097 0.48159 1.07013
 H8 H 0.21071 0.46601 1.08349
 N9 N 0.22879 0.50001 1.03256
 C10 C 0.28703 0.53133 0.98289
 H11 H 0.28595 0.51842 0.96713
 C12 C 0.30412 0.55131 0.98208
 H13 H 0.31610 0.55369 0.96552
 C14 C 0.27321 0.54331 1.02394
 H15 H 0.26145 0.53984 1.04040
 C16 C 0.29037 0.56327 1.02411
 H17 H 0.29136 0.57525 1.04065
 Zn18 Zn 0.25020 0.49953 1.00368
 N19 N 0.27179 0.52790 1.00346
 C20 C 0.22812 0.51902 0.95798
 N21 N 0.22869 0.49958 0.97493
 C22 C 0.21270 0.47973 0.97275
 C23 C 0.19556 0.47860 0.95265
 C24 C 0.21120 0.51871 0.93759
 C25 C 0.28664 0.46678 1.02405
 C26 C 0.30355 0.44653 1.02445
 C27 C 0.28946 0.43533 0.98237
 C28 C 0.27251 0.45555 0.98296
 N29 N 0.27134 0.47072 1.00365
 H30 H 0.24042 0.53501 0.96044
 H31 H 0.21325 0.46474 0.98676
 H32 H 0.18304 0.46257 0.95135
 H33 H 0.21099 0.53440 0.92436
 H34 H 0.28581 0.47953 1.03997
 H35 H 0.31561 0.44377 1.04085
 H36 H 0.29026 0.42359 0.96566
 H37 H 0.26077 0.45944 0.96660
 C38 C 0.30606 0.56749 1.00296
 C39 C 0.19422 0.50212 1.07259
 C40 C 0.30524 0.43062 1.00332
 C41 C 0.19460 0.49829 0.93472
 C42 C 0.78644 0.51717 -0.03286
 H43 H 0.78541 0.53230 -0.01924
 C44 C 0.80401 0.51826 -0.05266
 H45 H 0.81635 0.53445 -0.05413
 C46 C 0.77193 0.47745 -0.04682
 H47 H 0.75985 0.46129 -0.04411
 C48 C 0.78929 0.47774 -0.06690
 H49 H 0.79006 0.46185 -0.07965
 N50 N 0.77075 0.49708 -0.03039
 C51 C 0.71214 0.52879 0.01837
 H52 H 0.71314 0.51580 0.03425
 C53 C 0.69512 0.54891 0.01897
 H54 H 0.68311 0.55131 0.03547
 C55 C 0.72616 0.54088 -0.02272
 H56 H 0.73798 0.53741 -0.03911
 C57 C 0.70906 0.56100 -0.02311
 H58 H 0.70817 0.57310 -0.03973
 Zn59 Zn 0.74907 0.49689 -0.00172
 N60 N 0.72748 0.52536 -0.00210
 C61 C 0.77092 0.51677 0.04345
 N62 N 0.77032 0.49697 0.02721
 C63 C 0.78623 0.47701 0.03017
 C64 C 0.80337 0.47623 0.05030
 C65 C 0.78782 0.51679 0.06384
 C66 C 0.71288 0.46455 -0.02208
 C67 C 0.69592 0.44447 -0.02255
 C68 C 0.70937 0.43292 0.01982
 C69 C 0.72640 0.45298 0.01931
 N70 N 0.72791 0.46825 -0.00149
 H71 H 0.75871 0.53283 0.04036
 H72 H 0.78568 0.46175 0.01668
 H73 H 0.81589 0.46016 0.05219
 H74 H 0.78809 0.53282 0.07643
 H75 H 0.71401 0.47736 -0.03810
 H76 H 0.68408 0.44191 -0.03911
 H77 H 0.70828 0.42108 0.03661
 H78 H 0.73795 0.45668 0.03578
 C79 C 0.69333 0.56525 -0.00202
 C80 C 0.80571 0.49831 -0.06996
 C81 C 0.69386 0.42846 -0.00133
 C82 C 0.80442 0.49636 0.06744
 C83 C -0.01888 0.29155 0.46993
 H84 H -0.03136 0.29270 0.48620
 C85 C -0.02074 0.30937 0.45045
 H86 H -0.03491 0.32405 0.45204
 C87 C 0.01502 0.27116 0.44886
 H88 H 0.02930 0.25659 0.44858
 C89 C 0.01356 0.28835 0.42867
 H90 H 0.02676 0.28650 0.41302
 N91 N -0.00115 0.27302 0.46890
 C92 C -0.02895 0.21337 0.51854
 H93 H -0.01380 0.21271 0.53234
 C94 C -0.04902 0.19643 0.52037
 H95 H -0.04913 0.18282 0.53577
 C96 C -0.04664 0.23170 0.48141
 H97 H -0.04541 0.24524 0.46606
 C98 C -0.06706 0.21504 0.48247
 H99 H -0.08149 0.21611 0.46792
 Zn100 Zn 0.00071 0.25147 0.49761
 N101 N -0.02815 0.23057 0.49933
 C102 C -0.01724 0.27272 0.54356
 N103 N 0.00222 0.27238 0.52659
 C104 C 0.02217 0.28833 0.52885
 C105 C 0.02337 0.30513 0.54911
 C106 C -0.01703 0.28952 0.56385
 C107 C 0.03000 0.21298 0.47659
 C108 C 0.04982 0.19562 0.47489
 C109 C 0.06769 0.21310 0.51310
 C110 C 0.04753 0.23015 0.51404
 N111 N 0.02929 0.22992 0.49583
 H112 H -0.03328 0.26042 0.54107
 H113 H 0.03707 0.28813 0.51472
 H114 H 0.03936 0.31775 0.55050
 H115 H -0.03280 0.28967 0.57701
 H116 H 0.01494 0.21280 0.46268
 H117 H 0.04990 0.18227 0.45944
 H118 H 0.08190 0.21354 0.52789
 H119 H 0.04628 0.24317 0.52965
 C120 C -0.06837 0.19700 0.50209
 C121 C -0.00431 0.30808 0.42939
 C122 C 0.06899 0.19546 0.49337
 C123 C 0.00346 0.30602 0.56680
 C124 C 0.97949 0.71464 0.53351
 H125 H 0.96367 0.71596 0.52053
 C126 C 0.97894 0.69725 0.55351
 H127 H 0.96252 0.68529 0.55585
 C128 C 1.02047 0.72809 0.54555
 H129 H 1.03683 0.73978 0.54207
 C130 C 1.02090 0.71065 0.56553
 H131 H 1.03751 0.70941 0.57751
 N132 N 0.99993 0.72981 0.53008
 C133 C 0.97008 0.78979 0.48163
 H134 H 0.98426 0.78934 0.46678
 C135 C 0.95043 0.80733 0.48046
 H136 H 0.94963 0.82026 0.46449
 C137 C 0.95452 0.77370 0.52073
 H138 H 0.95652 0.76096 0.53667
 C139 C 0.93452 0.79100 0.52033
 H140 H 0.92113 0.79109 0.53593
 Zn141 Zn 1.00012 0.75158 0.50149
 N142 N 0.97169 0.77332 0.50144
 C143 C 0.97973 0.73074 0.45637
 N144 N 0.99996 0.73097 0.47232
 C145 C 1.02003 0.71530 0.46875
 C146 C 1.02058 0.69899 0.44808
 C147 C 0.97932 0.71445 0.43566
 C148 C 1.03122 0.78823 0.52212
 C149 C 1.05118 0.80532 0.52335
 C150 C 1.06621 0.79001 0.48290
 C151 C 1.04593 0.77318 0.48245
 N152 N 1.02902 0.77253 0.50197
 H153 H 0.96363 0.74281 0.45994
 H154 H 1.03561 0.71546 0.48207
 H155 H 1.03674 0.68666 0.44561
 H156 H 0.96299 0.71444 0.42325
 H157 H 1.01725 0.78759 0.53716
 H158 H 1.05244 0.81769 0.53955
 H159 H 1.07933 0.79037 0.46708
 H160 H 1.04346 0.76109 0.46624
 C161 C 0.93233 0.80817 0.50002
 C162 C 0.99994 0.69495 0.56969
 C163 C 1.06897 0.80647 0.50350
 C164 C 0.99997 0.69832 0.43129
 C165 C 0.47199 -0.02403 0.28763
 H166 H 0.48675 -0.03819 0.28828
 C167 C 0.45183 -0.02519 0.30476
 H168 H 0.45121 -0.04045 0.31848
 C169 C 0.45547 0.01338 0.26926
 H170 H 0.45724 0.02867 0.25577
 C171 C 0.43498 0.01298 0.28608
 H172 H 0.42103 0.02792 0.28507
 N173 N 0.47339 -0.00504 0.27026
 C174 C 0.52324 -0.03460 0.21138
 H175 H 0.53765 -0.02017 0.21111
 C176 C 0.52457 -0.05452 0.19429
 H177 H 0.54031 -0.05518 0.18108
 C178 C 0.48499 -0.05044 0.22864
 H179 H 0.46931 -0.04849 0.24167
 C180 C 0.48549 -0.07067 0.21182
 H181 H 0.47018 -0.08416 0.21251
 Zn182 Zn 0.50236 -0.00416 0.24907
 N183 N 0.50373 -0.03296 0.22816
 C184 C 0.54912 -0.02074 0.27069
 N185 N 0.53084 -0.00265 0.27075
 C186 C 0.53153 0.01671 0.28747
 C187 C 0.55134 0.01867 0.30484
 C188 C 0.56929 -0.01955 0.28780
 C189 C 0.48218 0.02545 0.21005
 C190 C 0.48076 0.04538 0.19271
 C191 C 0.51920 0.06225 0.21058
 C192 C 0.51983 0.04201 0.22765
 N193 N 0.50137 0.02422 0.22720
 H194 H 0.54793 -0.03631 0.25768
 H195 H 0.51650 0.03060 0.28737
 H196 H 0.55140 0.03425 0.31798
 H197 H 0.58358 -0.03419 0.28752
 H198 H 0.46800 0.01080 0.20982
 H199 H 0.46531 0.04591 0.17923
 H200 H 0.53413 0.07615 0.21122
 H201 H 0.53528 0.04039 0.24097
 C202 C 0.50540 -0.07290 0.19412
 C203 C 0.43301 -0.00645 0.30422
 C204 C 0.49948 0.06412 0.19277
 C205 C 0.57055 0.00034 0.30523
 C206 C 0.52865 -0.02003 0.71186
 H207 H 0.51399 -0.03420 0.71148
 C208 C 0.54875 -0.02119 0.69466
 H209 H 0.54941 -0.03646 0.68116
 C210 C 0.54500 0.01741 0.72961
 H211 H 0.54321 0.03270 0.74291
 C212 C 0.56542 0.01701 0.71270
 H213 H 0.57929 0.03195 0.71344
 N214 N 0.52721 -0.00103 0.72897
 C215 C 0.47802 -0.03064 0.78862
 H216 H 0.46361 -0.01613 0.78890
 C217 C 0.47682 -0.05068 0.80585
 H218 H 0.46127 -0.05146 0.81926
 C219 C 0.51612 -0.04664 0.77114
 H220 H 0.53169 -0.04472 0.75795
 C221 C 0.51570 -0.06698 0.78809
 H222 H 0.53091 -0.08067 0.78748
 Zn223 Zn 0.49836 -0.00024 0.75031
 N224 N 0.49737 -0.02904 0.77164
 C225 C 0.45181 -0.01731 0.72923
 N226 N 0.46972 0.00102 0.72879
 C227 C 0.46859 0.02032 0.71175
 C228 C 0.44871 0.02189 0.69438
 C229 C 0.43158 -0.01651 0.71215
 C230 C 0.51842 0.02939 0.78884
 C231 C 0.51965 0.04921 0.80605
 C232 C 0.48093 0.06595 0.78822
 C233 C 0.48050 0.04583 0.77127
 N234 N 0.49917 0.02814 0.77180
 H235 H 0.45336 -0.03283 0.74250
 H236 H 0.48333 0.03441 0.71155
 H237 H 0.44831 0.03739 0.68093
 H238 H 0.41762 -0.03138 0.71272
 H239 H 0.53277 0.01482 0.78913
 H240 H 0.53514 0.04973 0.81948
 H241 H 0.46582 0.07975 0.78757
 H242 H 0.46501 0.04418 0.75802
 C243 C 0.49591 -0.06915 0.80584
 C244 C 0.56745 -0.00244 0.69484
 C245 C 0.50067 0.06780 0.80598
 C246 C 0.42990 0.00324 0.69433
 C247 C 0.24959 0.00048 0.49806
 C248 C 0.75120 0.00296 0.50113
 C249 C 0.49901 0.24863 0.99990
 C250 C 0.50028 0.74803 0.00039
 C251 C 0.99752 0.50498 0.25099
 C252 C 0.00276 0.49795 0.74961
 C253 C 0.12681 0.14106 0.49168
 N254 N 0.10902 0.14197 0.47312
 N255 N 0.09083 0.15938 0.47353
 C256 C 0.08970 0.17658 0.49250
 N257 N 0.10763 0.17569 0.51098
 N258 N 0.12583 0.15827 0.51058
 C259 C 0.14634 0.12132 0.49169
 N260 N 0.16361 0.11984 0.51073
 N261 N 0.18080 0.10144 0.51116
 C262 C 0.18137 0.08387 0.49256
 N263 N 0.16419 0.08543 0.47345
 N264 N 0.14699 0.10382 0.47302
 C265 C 0.19970 0.06305 0.49352
 N266 N 0.19981 0.04516 0.47525
 N267 N 0.21582 0.02579 0.47656
 C268 C 0.23245 0.02355 0.49616
 N269 N 0.23228 0.04154 0.51443
 N270 N 0.21626 0.06091 0.51311
 C271 C 0.63967 0.62362 -0.00215
 N272 N 0.64781 0.61331 0.02004
 N273 N 0.66495 0.59488 0.02007
 C274 C 0.67476 0.58615 -0.00208
 N275 N 0.66674 0.59665 -0.02427
 N276 N 0.64945 0.61496 -0.02431
 C277 C 0.62013 0.64333 -0.00216
 N278 N 0.60827 0.65011 -0.02404
 N279 N 0.58995 0.66740 -0.02389
 C280 C 0.58296 0.67869 -0.00189
 N281 N 0.59497 0.67207 0.01995
 N282 N 0.61315 0.65464 0.01983
 C283 C 0.56231 0.69724 -0.00158
 N284 N 0.55777 0.71120 0.01945
 N285 N 0.53865 0.72759 0.01995
 C286 C 0.52328 0.73070 -0.00056
 N287 N 0.52773 0.71643 -0.02147
 N288 N 0.54697 0.70018 -0.02204
 C289 C 0.87491 -0.13698 0.49874
 N290 N 0.89203 -0.13845 0.47956
 N291 N 0.91009 -0.15599 0.47991
 C292 C 0.91177 -0.17276 0.49944
 N293 N 0.89453 -0.17131 0.51858
 N294 N 0.87644 -0.15376 0.51824
 C295 C 0.85548 -0.11716 0.49858
 N296 N 0.83849 -0.11526 0.51788
 N297 N 0.82130 -0.09684 0.51795
 C298 C 0.82048 -0.07968 0.49874
 N299 N 0.83740 -0.08165 0.47941
 N300 N 0.85457 -0.10005 0.47933
 C301 C 0.80205 -0.05894 0.49909
 N302 N 0.80197 -0.04134 0.48029
 N303 N 0.78572 -0.02214 0.48088
 C304 C 0.76880 -0.01981 0.50023
 N305 N 0.76899 -0.03747 0.51907
 N306 N 0.78526 -0.05667 0.51849
 C307 C 0.35914 0.37249 1.00181
 N308 N 0.34890 0.38148 0.97992
 N309 N 0.33153 0.39971 0.98043
 C310 C 0.32388 0.40978 1.00283
 N311 N 0.33415 0.40073 1.02473
 N312 N 0.35137 0.38237 1.02423
 C313 C 0.37877 0.35288 1.00121
 N314 N 0.38633 0.34124 1.02296
 N315 N 0.40457 0.32387 1.02250
 C316 C 0.41605 0.31766 1.00030
 N317 N 0.40848 0.32930 0.97855
 N318 N 0.39010 0.34652 0.97898
 C319 C 0.43676 0.29918 0.99993
 N320 N 0.45155 0.29662 0.97899
 N321 N 0.47085 0.28043 0.97892
 C322 C 0.47590 0.26584 0.99965
 N323 N 0.46109 0.26857 1.02063
 N324 N 0.44191 0.28490 1.02076
 C325 C 0.87335 0.14340 0.50447
 N326 N 0.89101 0.14424 0.52313
 N327 N 0.90932 0.16142 0.52248
 C328 C 0.91071 0.17846 0.50316
 N329 N 0.89289 0.17767 0.48458
 N330 N 0.87457 0.16047 0.48521
 C331 C 0.85376 0.12383 0.50479
 N332 N 0.83668 0.12215 0.48563
 N333 N 0.81950 0.10382 0.48556
 C334 C 0.81878 0.08652 0.50466
 N335 N 0.83577 0.08830 0.52388
 N336 N 0.85294 0.10661 0.52394
 C337 C 0.80054 0.06571 0.50416
 N338 N 0.80041 0.04812 0.52296
 N339 N 0.78455 0.02870 0.52212
 C340 C 0.76810 0.02612 0.50247
 N341 N 0.76827 0.04381 0.48366
 N342 N 0.78414 0.06324 0.48451
 C343 C 0.36018 0.62514 0.00283
 N344 N 0.35029 0.61644 0.02502
 N345 N 0.33285 0.59837 0.02504
 C346 C 0.32479 0.58815 0.00289
 N347 N 0.33472 0.59690 -0.01929
 N348 N 0.35201 0.61511 -0.01933
 C349 C 0.37987 0.64460 0.00281
 N350 N 0.38699 0.65603 -0.01921
 N351 N 0.40528 0.67325 -0.01933
 C352 C 0.41725 0.67952 0.00253
 N353 N 0.41013 0.66809 0.02454
 N354 N 0.39171 0.65101 0.02470
 C355 C 0.43801 0.69785 0.00224
 N356 N 0.45331 0.70037 0.02274
 N357 N 0.47263 0.71644 0.02221
 C358 C 0.47718 0.73094 0.00132
 N359 N 0.46186 0.72825 -0.01923
 N360 N 0.44266 0.71204 -0.01878
 C361 C 0.12673 -0.13938 0.50423
 N362 N 0.10978 -0.14089 0.52358
 N363 N 0.09164 -0.15824 0.52345
 C364 C 0.08970 -0.17478 0.50397
 N365 N 0.10679 -0.17331 0.48468
 N366 N 0.12495 -0.15596 0.48481
 C367 C 0.14617 -0.11968 0.50402
 N368 N 0.16298 -0.11786 0.48456
 N369 N 0.18011 -0.09949 0.48405
 C370 C 0.18104 -0.08229 0.50298
 N371 N 0.16430 -0.08419 0.52249
 N372 N 0.14718 -0.10255 0.52301
 C373 C 0.19933 -0.06155 0.50206
 N374 N 0.19940 -0.04375 0.52042
 N375 N 0.21548 -0.02452 0.51924
 C376 C 0.23223 -0.02234 0.49971
 N377 N 0.23206 -0.04021 0.48131
 N378 N 0.21597 -0.05944 0.48248
 C379 C 0.63960 0.37096 0.99967
 N380 N 0.64956 0.37965 1.02168
 N381 N 0.66706 0.39765 1.02135
 C382 C 0.67514 0.40781 0.99901
 N383 N 0.66516 0.39905 0.97701
 N384 N 0.64780 0.38091 0.97732
 C385 C 0.61980 0.35163 1.00002
 N386 N 0.61244 0.34037 0.97818
 N387 N 0.59402 0.32328 0.97839
 C388 C 0.58216 0.31698 1.00043
 N389 N 0.58953 0.32823 1.02228
 N390 N 0.60808 0.34519 1.02209
 C391 C 0.56131 0.29877 1.00051
 N392 N 0.54630 0.29604 1.02129
 N393 N 0.52694 0.28002 1.02112
 C394 C 0.52205 0.26580 1.00032
 N395 N 0.53707 0.26872 0.97949
 N396 N 0.55631 0.28488 0.97959
 C397 C 0.49767 0.12285 1.13900
 N398 N 0.51722 0.12076 1.15560
 N399 N 0.51770 0.10225 1.17280
 C400 C 0.49870 0.08508 1.17406
 N401 N 0.47912 0.08731 1.15747
 N402 N 0.47861 0.10582 1.14029
 C403 C 0.49736 0.14279 1.11955
 N404 N 0.47773 0.14470 1.10304
 N405 N 0.47769 0.16231 1.08491
 C406 C 0.49727 0.17865 1.08261
 N407 N 0.51688 0.17682 1.09920
 N408 N 0.51691 0.15921 1.11735
 C409 C 0.49749 0.19745 1.06204
 N410 N 0.51746 0.21320 1.05887
 N411 N 0.51791 0.22965 1.03965
 C412 C 0.49835 0.23109 1.02291
 N413 N 0.47842 0.21524 1.02617
 N414 N 0.47798 0.19880 1.04536
 C415 C 0.00104 0.63957 0.62688
 N416 N -0.02123 0.64764 0.61687
 N417 N -0.02160 0.66534 0.59882
 C418 C 0.00028 0.67579 0.59022
 N419 N 0.02253 0.66782 0.60043
 N420 N 0.02292 0.64999 0.61834
 C421 C 0.00151 0.61948 0.64616
 N422 N 0.02364 0.60806 0.65260
 N423 N 0.02398 0.58933 0.66956
 C424 C 0.00223 0.58147 0.68084
 N425 N -0.01987 0.59301 0.67454
 N426 N -0.02024 0.61161 0.65744
 C427 C 0.00254 0.56048 0.69912
 N428 N -0.01830 0.55499 0.71320
 N429 N -0.01814 0.53568 0.72946
 C430 C 0.00286 0.52106 0.73232
 N431 N 0.02358 0.52642 0.71790
 N432 N 0.02349 0.54585 0.70178
 C433 C 0.49536 0.87249 -0.13993
 N434 N 0.47604 0.88935 -0.14114
 N435 N 0.47612 0.90770 -0.15850
 C436 C 0.49551 0.90994 -0.17536
 N437 N 0.51476 0.89294 -0.17420
 N438 N 0.51470 0.87459 -0.15682
 C439 C 0.49558 0.85278 -0.12023
 N440 N 0.51532 0.83646 -0.11824
 N441 N 0.51579 0.81908 -0.09986
 C442 C 0.49651 0.81740 -0.08283
 N443 N 0.47673 0.83364 -0.08491
 N444 N 0.47627 0.85101 -0.10326
 C445 C 0.49728 0.79883 -0.06204
 N446 N 0.47816 0.79768 -0.04484
 N447 N 0.47908 0.78139 -0.02553
 C448 C 0.49910 0.76549 -0.02267
 N449 N 0.51828 0.76674 -0.03992
 N450 N 0.51736 0.78304 -0.05926
 C451 C 0.99354 0.36289 0.37346
 N452 N 1.00884 0.34249 0.37092
 N453 N 1.00944 0.32468 0.38888
 C454 C 0.99463 0.32644 0.40999
 N455 N 0.97913 0.34678 0.41222
 N456 N 0.97869 0.36468 0.39441
 C457 C 0.99359 0.38325 0.35445
 N458 N 0.98319 0.40589 0.36016
 N459 N 0.98374 0.42475 0.34341
 C460 C 0.99450 0.42163 0.32021
 N461 N 1.00475 0.39891 0.31436
 N462 N 1.00441 0.38008 0.33125
 C463 C 0.99544 0.44282 0.30220
 N464 N 1.00066 0.43923 0.27721
 N465 N 1.00133 0.45871 0.26110
 C466 C 0.99719 0.48259 0.26940
 N467 N 0.99192 0.48596 0.29446
 N468 N 0.99099 0.46652 0.31048
 C469 C 0.50596 0.87032 0.14094
 N470 N 0.52502 0.88735 0.14178
 N471 N 0.52494 0.90552 0.15909
 C472 C 0.50582 0.90743 0.17632
 N473 N 0.48686 0.89017 0.17551
 N474 N 0.48690 0.87201 0.15817
 C475 C 0.50567 0.85088 0.12124
 N476 N 0.48602 0.83455 0.11945
 N477 N 0.48545 0.81746 0.10104
 C478 C 0.50453 0.81606 0.08377
 N479 N 0.52423 0.83229 0.08566
 N480 N 0.52478 0.84939 0.10404
 C481 C 0.50363 0.79782 0.06295
 N482 N 0.52266 0.79683 0.04564
 N483 N 0.52162 0.78086 0.02629
 C484 C 0.50156 0.76513 0.02349
 N485 N 0.48248 0.76623 0.04085
 N486 N 0.48353 0.78222 0.06023
 C487 C 0.00361 0.35968 0.62491
 N488 N 0.02559 0.35261 0.61357
 N489 N 0.02558 0.33546 0.59521
 C490 C 0.00363 0.32458 0.58763
 N491 N -0.01831 0.33154 0.59917
 N492 N -0.01833 0.34882 0.61738
 C493 C 0.00345 0.37921 0.64452
 N494 N -0.01867 0.38997 0.65195
 N495 N -0.01883 0.40819 0.66921
 C496 C 0.00310 0.41619 0.67982
 N497 N 0.02522 0.40529 0.67254
 N498 N 0.02540 0.38720 0.65512
 C499 C 0.00291 0.43668 0.69840
 N500 N 0.02387 0.44196 0.71224
 N501 N 0.02375 0.46085 0.72877
 C502 C 0.00265 0.47522 0.73213
 N503 N -0.01817 0.47007 0.71793
 N504 N -0.01811 0.45106 0.70157
 C505 C 0.50171 0.12574 0.85984
 N506 N 0.52103 0.10892 0.85846
 N507 N 0.52078 0.09069 0.84123
 C508 C 0.50120 0.08854 0.82467
 N509 N 0.48194 0.10550 0.82601
 N510 N 0.48217 0.12374 0.84327
 C511 C 0.50174 0.14532 0.87941
 N512 N 0.48197 0.16155 0.88174
 N513 N 0.48178 0.17878 0.90002
 C514 C 0.50137 0.18041 0.91662
 N515 N 0.52117 0.16427 0.91419
 N516 N 0.52135 0.14704 0.89593
 C517 C 0.50093 0.19877 0.93735
 N518 N 0.52041 0.19979 0.95407
 N519 N 0.51982 0.21582 0.97339
 C520 C 0.49978 0.23157 0.97675
 N521 N 0.48025 0.23046 0.95997
 N522 N 0.48084 0.21442 0.94062
 C523 C 0.99907 0.64647 0.37152
 N524 N 0.97734 0.65774 0.37934
 N525 N 0.97768 0.67447 0.39808
 C526 C 0.99972 0.68045 0.40985
 N527 N 1.02145 0.66918 0.40193
 N528 N 1.02114 0.65257 0.38309
 C529 C 0.99859 0.62733 0.35155
 N530 N 1.02051 0.61806 0.34182
 N531 N 1.02011 0.59998 0.32441
 C532 C 0.99779 0.59040 0.31622
 N533 N 0.97587 0.59974 0.32588
 N534 N 0.97626 0.61794 0.34317
 C535 C 0.99741 0.56951 0.29812
 N536 N 0.97566 0.55681 0.29359
 N537 N 0.97557 0.53699 0.27823
 C538 C 0.99715 0.52930 0.26641
 N539 N 1.01893 0.54205 0.27112
 N540 N 1.01905 0.56177 0.28661
 C541 C 1.14060 0.50442 0.12973
 N542 N 1.15712 0.48487 0.12827
 N543 N 1.17459 0.48420 0.10996
 C544 C 1.17625 0.50302 0.09238
 N545 N 1.15974 0.52262 0.09410
 N546 N 1.14228 0.52330 0.11234
 C547 C 1.12066 0.50495 0.14922
 N548 N 1.10336 0.52388 0.14931
 N549 N 1.08470 0.52414 0.16634
 C550 C 1.08266 0.50552 0.18399
 N551 N 1.10005 0.48663 0.18405
 N552 N 1.11872 0.48635 0.16695
 C553 C 1.06140 0.50555 0.20203
 N554 N 1.05929 0.48755 0.22034
 N555 N 1.03945 0.48733 0.23605
 C556 C 1.02088 0.50503 0.23395
 N557 N 1.02324 0.52312 0.21572
 N558 N 1.04307 0.52338 0.20011
 C559 C 0.62613 -0.00302 0.64089
 N560 N 0.60884 -0.02185 0.64171
 N561 N 0.59039 -0.02176 0.65898
 C562 C 0.58846 -0.00285 0.67613
 N563 N 0.60588 0.01592 0.67534
 N564 N 0.62435 0.01585 0.65806
 C565 C 0.64595 -0.00278 0.62129
 N566 N 0.66280 0.01644 0.61979
 N567 N 0.68028 0.01696 0.60150
 C568 C 0.68155 -0.00173 0.58407
 N569 N 0.66478 -0.02099 0.58566
 N570 N 0.64731 -0.02151 0.60393
 C571 C 0.70021 -0.00082 0.56336
 N572 N 0.70084 -0.01922 0.54563
 N573 N 0.71718 -0.01810 0.52637
 C574 C 0.73363 0.00143 0.52408
 N575 N 0.73292 0.01986 0.54190
 N576 N 0.71657 0.01873 0.56118
 C577 C -0.13886 0.49913 0.87271
 N578 N -0.15473 0.47922 0.87529
 N579 N -0.17248 0.47903 0.89331
 C580 C -0.17506 0.49874 0.90947
 N581 N -0.15921 0.51867 0.90674
 N582 N -0.14147 0.51887 0.88873
 C583 C -0.11878 0.49918 0.85337
 N584 N -0.10272 0.51899 0.85136
 N585 N -0.08408 0.51890 0.83429
 C586 C -0.08080 0.49900 0.81858
 N587 N -0.09692 0.47921 0.82050
 N588 N -0.11557 0.47929 0.83759
 C589 C -0.05980 0.49879 0.80025
 N590 N -0.05608 0.47887 0.78465
 N591 N -0.03667 0.47858 0.76843
 C592 C -0.02028 0.49826 0.76709
 N593 N -0.02403 0.51808 0.78287
 N594 N -0.04342 0.51837 0.79905
 C595 C 0.37426 -0.00681 0.35810
 N596 N 0.39169 -0.02561 0.35769
 N597 N 0.41017 -0.02561 0.34043
 C598 C 0.41196 -0.00681 0.32290
 N599 N 0.39439 0.01192 0.32327
 N600 N 0.37590 0.01193 0.34053
 C601 C 0.35444 -0.00644 0.37770
 N602 N 0.33744 0.01274 0.37876
 N603 N 0.31999 0.01342 0.39707
 C604 C 0.31892 -0.00508 0.41496
 N605 N 0.33584 -0.02431 0.41381
 N606 N 0.35328 -0.02498 0.39552
 C607 C 0.30032 -0.00397 0.43570
 N608 N 0.29994 -0.02213 0.45394
 N609 N 0.28368 -0.02080 0.47325
 C610 C 0.26706 -0.00130 0.47507
 N611 N 0.26750 0.01688 0.45674
 N612 N 0.28378 0.01554 0.43742
 C613 C 0.14128 0.49688 0.87561
 N614 N 0.14338 0.47726 0.89211
 N615 N 0.16041 0.47767 0.91072
 C616 C 0.17606 0.49770 0.91360
 N617 N 0.17400 0.51728 0.89697
 N618 N 0.15693 0.51689 0.87834
 C619 C 0.12196 0.49660 0.85557
 N620 N 0.11909 0.51650 0.83948
 N621 N 0.10105 0.51642 0.82180
 C622 C 0.08524 0.49645 0.81956
 N623 N 0.08821 0.47652 0.83556
 N624 N 0.10623 0.47660 0.85323
 C625 C 0.06476 0.49660 0.80071
 N626 N 0.04864 0.47684 0.79917
 N627 N 0.02951 0.47722 0.78273
 C628 C 0.02577 0.49732 0.76704
 N629 N 0.04195 0.51712 0.76867
 N630 N 0.06110 0.51674 0.78513
 C631 C 0.62860 0.00368 0.35955
 N632 N 0.62763 -0.01562 0.34281
 N633 N 0.60936 -0.01658 0.32541
 C634 C 0.59133 0.00169 0.32409
 N635 N 0.59246 0.02103 0.34081
 N636 N 0.61071 0.02201 0.35819
 C637 C 0.64820 0.00441 0.37930
 N638 N 0.64868 0.02350 0.39630
 N639 N 0.66591 0.02382 0.41474
 C640 C 0.68330 0.00507 0.41687
 N641 N 0.68291 -0.01397 0.39979
 N642 N 0.66567 -0.01429 0.38133
 C643 C 0.70162 0.00498 0.43783
 N644 N 0.71853 -0.01412 0.44054
 N645 N 0.73449 -0.01463 0.46012
 C646 C 0.73425 0.00399 0.47773
 N647 N 0.71727 0.02309 0.47491
 N648 N 0.70133 0.02360 0.45534
 C649 C 0.85839 0.49681 0.12596
 N650 N 0.85626 0.47666 0.11042
 N651 N 0.83898 0.47643 0.09201
 C652 C 0.82314 0.49633 0.08840
 N653 N 0.82523 0.51643 0.10410
 N654 N 0.84252 0.51667 0.12250
 C655 C 0.87797 0.49739 0.14573
 N656 N 0.88079 0.51797 0.16058
 N657 N 0.89903 0.51878 0.17801
 C658 C 0.91510 0.49903 0.18124
 N659 N 0.91220 0.47840 0.16647
 N660 N 0.89397 0.47759 0.14903
 C661 C 0.93570 0.50027 0.19990
 N662 N 0.95194 0.48065 0.20297
 N663 N 0.97105 0.48207 0.21938
 C664 C 0.97465 0.50311 0.23349
 N665 N 0.95838 0.52276 0.23022
 N666 N 0.93926 0.52134 0.21384
 C667 C 0.37201 0.00498 0.63972
 N668 N 0.38955 0.02357 0.64060
 N669 N 0.40774 0.02312 0.65809
 C670 C 0.40915 0.00408 0.67540
 N671 N 0.39147 -0.01444 0.67455
 N672 N 0.37327 -0.01401 0.65705
 C673 C 0.35251 0.00510 0.61986
 N674 N 0.33536 -0.01383 0.61839
 N675 N 0.31820 -0.01406 0.59986
 C676 C 0.31757 0.00461 0.58213
 N677 N 0.33463 0.02359 0.58369
 N678 N 0.35178 0.02383 0.60221
 C679 C 0.29930 0.00394 0.56115
 N680 N 0.29938 0.02220 0.54301
 N681 N 0.28342 0.02122 0.52348
 C682 C 0.26666 0.00197 0.52133
 N683 N 0.26665 -0.01631 0.53955
 N684 N 0.28262 -0.01532 0.55909
   
