data_POSCAR
  _audit_creation_date              2014-09-24
  _audit_creation_method            'ToBaCCo'
  _symmetry_space_group_name_H-M    'P1'
  _symmetry_Int_Tables_number       1
  _symmetry_cell_setting            triclinic
  loop_
  _symmetry_equiv_pos_as_xyz
 x,y,z
_cell_length_a 43.9542
_cell_length_b 43.8802
_cell_length_c 43.8960
_cell_angle_alpha 89.990500
_cell_angle_beta 90.027200
_cell_angle_gamma 89.818500
loop_
  _atom_site_label
  _atom_site_type_symbol
  _atom_site_fract_x
  _atom_site_fract_y
  _atom_site_fract_z
C1 C 0.19517 0.15618 0.19438
 C2 C 0.18199 0.14375 0.22068
 C3 C 0.15581 0.15700 0.23333
 C4 C 0.14270 0.18285 0.21981
 C5 C 0.15560 0.19556 0.19351
 C6 C 0.18194 0.18219 0.18069
 C7 C 0.22119 0.14293 0.18136
 C8 C 0.23400 0.15536 0.15490
 C9 C 0.22094 0.18120 0.14134
 C10 C 0.19493 0.19472 0.15406
 C11 C 0.18152 0.22041 0.14049
 C12 C 0.15538 0.23357 0.15320
 C13 C 0.14249 0.22124 0.17963
 H14 H 0.19197 0.12369 0.23120
 H15 H 0.12239 0.19295 0.22965
 H16 H 0.23136 0.12287 0.19171
 H17 H 0.23091 0.19067 0.12081
 H18 H 0.19128 0.23009 0.11997
 H19 H 0.12220 0.23157 0.18925
 C20 C -0.19337 0.84548 0.19777
 C21 C -0.17958 0.85855 0.22345
 C22 C -0.15304 0.84568 0.23575
 C23 C -0.14017 0.81959 0.22252
 C24 C -0.15368 0.80624 0.19683
 C25 C -0.18039 0.81922 0.18436
 C26 C -0.21975 0.85836 0.18510
 C27 C -0.23317 0.84531 0.15924
 C28 C -0.22036 0.81921 0.14595
 C29 C -0.19399 0.80605 0.15834
 C30 C -0.18081 0.78011 0.14504
 C31 C -0.15430 0.76733 0.15741
 C32 C -0.14081 0.78030 0.18324
 H33 H -0.18939 0.87880 0.23376
 H34 H -0.11959 0.80977 0.23209
 H35 H -0.22972 0.87863 0.19522
 H36 H -0.23080 0.80926 0.12588
 H37 H -0.19103 0.76994 0.12499
 H38 H -0.12024 0.77028 0.19259
 C39 C -0.19775 0.15329 -0.19424
 C40 C -0.18426 0.14040 -0.22020
 C41 C -0.15852 0.15385 -0.23327
 C42 C -0.14613 0.18035 -0.22059
 C43 C -0.15933 0.19355 -0.19464
 C44 C -0.18526 0.17998 -0.18136
 C45 C -0.22333 0.13981 -0.18078
 C46 C -0.23645 0.15270 -0.15466
 C47 C -0.22413 0.17922 -0.14189
 C48 C -0.19855 0.19298 -0.15507
 C49 C -0.18584 0.21934 -0.14229
 C50 C -0.16010 0.23270 -0.15545
 C51 C -0.14693 0.21990 -0.18156
 H52 H -0.19362 0.11984 -0.23015
 H53 H -0.12615 0.19054 -0.23084
 H54 H -0.23292 0.11924 -0.19052
 H55 H -0.23435 0.18904 -0.12162
 H56 H -0.19581 0.22937 -0.12202
 H57 H -0.12694 0.23036 -0.19152
 C58 C 0.19626 0.84451 -0.19487
 C59 C 0.18385 0.85851 -0.22082
 C60 C 0.15771 0.84654 -0.23460
 C61 C 0.14387 0.82042 -0.22261
 C62 C 0.15599 0.80615 -0.19668
 C63 C 0.18230 0.81822 -0.18271
 C64 C 0.22222 0.85649 -0.18070
 C65 C 0.23423 0.84253 -0.15461
 C66 C 0.22048 0.81642 -0.14255
 C67 C 0.19451 0.80414 -0.15643
 C68 C 0.18036 0.77819 -0.14437
 C69 C 0.15425 0.76631 -0.15822
 C70 C 0.14213 0.78019 -0.18431
 H71 H 0.19441 0.87878 -0.23016
 H72 H 0.12359 0.81131 -0.23333
 H73 H 0.23299 0.87675 -0.18980
 H74 H 0.22990 0.80584 -0.12229
 H75 H 0.18951 0.76733 -0.12413
 H76 H 0.12185 0.77086 -0.19481
 C77 C 0.15666 1.19513 0.80536
 C78 C 0.14429 1.18186 0.77906
 C79 C 0.15763 1.15570 0.76640
 C80 C 0.18353 1.14271 0.77989
 C81 C 0.19617 1.15570 0.80619
 C82 C 0.18271 1.18202 0.81903
 C83 C 0.14330 1.22112 0.81839
 C84 C 0.15566 1.23402 0.84485
 C85 C 0.18154 1.22108 0.85839
 C86 C 0.19517 1.19510 0.84565
 C87 C 0.22089 1.18180 0.85921
 C88 C 0.23415 1.15568 0.84648
 C89 C 0.22189 1.14270 0.82005
 H90 H 0.12420 1.19175 0.76856
 H91 H 0.19370 1.12242 0.77005
 H92 H 0.12321 1.23120 0.80806
 H93 H 0.19096 1.23112 0.87891
 H94 H 0.23052 1.19162 0.87972
 H95 H 0.23228 1.12243 0.81043
 C96 C 0.84562 0.80735 0.80263
 C97 C 0.85866 0.82115 0.77694
 C98 C 0.84572 0.84764 0.76454
 C99 C 0.81958 0.86045 0.77768
 C100 C 0.80626 0.84694 0.80336
 C101 C 0.81931 0.82028 0.81594
 C102 C 0.85855 0.78101 0.81539
 C103 C 0.84552 0.76758 0.84125
 C104 C 0.81938 0.78034 0.85444
 C105 C 0.80616 0.80667 0.84195
 C106 C 0.78017 0.81980 0.85516
 C107 C 0.76733 0.84627 0.84268
 C108 C 0.78028 0.85976 0.81685
 H109 H 0.87893 0.81138 0.76671
 H110 H 0.80971 0.88100 0.76802
 H111 H 0.87884 0.77108 0.80534
 H112 H 0.80945 0.76990 0.87451
 H113 H 0.77002 0.80959 0.87521
 H114 H 0.77021 0.88029 0.80742
 C115 C 0.15379 0.80245 1.19441
 C116 C 0.14102 0.81600 1.22039
 C117 C 0.15451 0.84179 1.23339
 C118 C 0.18092 0.85417 1.22061
 C119 C 0.19400 0.84091 1.19463
 C120 C 0.18039 0.81493 1.18142
 C121 C 0.14029 0.77680 1.18102
 C122 C 0.15306 0.76361 1.15488
 C123 C 0.17950 0.77592 1.14201
 C124 C 0.19328 0.80157 1.15511
 C125 C 0.21955 0.81427 1.14222
 C126 C 0.23293 0.84008 1.15531
 C127 C 0.22026 0.85332 1.18144
 H128 H 0.12052 0.80665 1.23041
 H129 H 0.19114 0.87420 1.23080
 H130 H 0.11978 0.76721 1.19084
 H131 H 0.18923 0.76566 1.12173
 H132 H 0.22949 0.80426 1.12193
 H133 H 0.23074 0.87335 1.19134
 C134 C 0.84418 1.19603 1.19515
 C135 C 0.85801 1.18345 1.22110
 C136 C 0.84582 1.15734 1.23481
 C137 C 0.81964 1.14371 1.22274
 C138 C 0.80555 1.15601 1.19681
 C139 C 0.81784 1.18227 1.18291
 C140 C 0.85637 1.22195 1.18105
 C141 C 0.84258 1.23413 1.15495
 C142 C 0.81643 1.22059 1.14281
 C143 C 0.80393 1.19466 1.15662
 C144 C 0.77794 1.18071 1.14447
 C145 C 0.76584 1.15463 1.15825
 C146 C 0.77954 1.14236 1.18435
 H147 H 0.87832 1.19384 1.23050
 H148 H 0.81037 1.12346 1.23342
 H149 H 0.87667 1.23256 1.19021
 H150 H 0.80598 1.23015 1.12255
 H151 H 0.76722 1.18999 1.12421
 H152 H 0.77004 1.12210 1.19479
 O153 O 0.45690 1.05307 1.05576
 O154 O 0.42385 1.02338 1.02846
 C155 C 0.42961 1.04476 1.04799
 O156 O 0.54267 1.05076 0.94740
 O157 O 0.57599 1.02362 0.97716
 C158 C 0.57003 1.04312 0.95575
 O159 O 0.45709 1.05333 0.94983
 O160 O 0.42393 1.02348 0.97677
 C161 C 0.42978 1.04497 0.95739
 O162 O 0.54252 1.05054 1.05857
 O163 O 0.57591 1.02346 1.02890
 C164 C 0.56990 1.04291 1.05031
 Zr165 Zr 0.49980 1.03605 1.04141
 O166 O 0.50294 1.08418 1.04153
 O167 O 0.49637 1.03574 1.08952
 Zr168 Zr 0.49990 1.03622 0.96433
 O169 O 0.50304 1.08435 0.96445
 O170 O 0.49664 1.03617 0.91621
 O171 O 0.47267 1.04212 1.00282
 O172 O 0.52616 1.04172 1.00294
 O173 O 0.54300 0.94456 1.05843
 O174 O 0.57614 0.97175 1.02876
 C175 C 0.57032 0.95228 1.05018
 O176 O 0.45750 0.94195 0.94982
 O177 O 0.42406 0.97107 0.97749
 C178 C 0.43010 0.94990 0.95778
 O179 O 0.54323 0.94516 0.94694
 O180 O 0.57633 0.97275 0.97635
 C181 C 0.57053 0.95319 0.95501
 O182 O 0.45738 0.94180 1.05549
 O183 O 0.42408 0.97161 1.02838
 C184 C 0.43003 0.95011 1.04777
 Zr185 Zr 0.50017 0.95895 1.04120
 O186 O 0.50375 0.91082 1.04087
 O187 O 0.49673 0.95876 1.08930
 Zr188 Zr 0.50027 0.95914 0.96417
 O189 O 0.50398 0.91102 0.96421
 O190 O 0.49688 0.95909 0.91606
 Zr191 Zr 0.45487 0.99758 1.00264
 Zr192 Zr 0.54520 0.99762 1.00290
 O193 O 0.52665 0.95348 1.00270
 O194 O 0.47311 0.95306 1.00262
 O195 O 0.52714 0.99752 1.04738
 O196 O 0.47372 0.99764 0.95858
 O197 O 0.47363 0.99746 1.04678
 O198 O 0.52722 0.99774 0.95835
 H199 H 0.53974 1.05970 1.00301
 H200 H 0.45998 0.99758 0.94068
 H201 H 0.54053 0.93565 1.00260
 H202 H 0.45993 0.99740 1.06470
 H203 H 0.51390 1.02404 0.90827
 H204 H 0.51353 0.97194 0.90811
 H205 H 0.48693 0.90299 0.97649
 H206 H 0.48660 0.90289 1.02865
 H207 H 0.51353 0.97138 1.09733
 H208 H 0.51360 1.02356 1.09747
 H209 H 0.48596 1.09215 1.02904
 H210 H 0.48602 1.09226 0.97690
 O211 O 0.05295 0.45692 -0.05584
 O212 O 0.02324 0.42376 -0.02868
 C213 C 0.04463 0.42957 -0.04816
 O214 O 0.05070 0.54256 0.05279
 O215 O 0.02373 0.57605 0.02308
 C216 C 0.04314 0.57000 0.04450
 O217 O 0.05307 0.45687 0.05010
 O218 O 0.02328 0.42372 0.02301
 C219 C 0.04470 0.42953 0.04246
 O220 O 0.05022 0.54276 -0.05856
 O221 O 0.02274 0.57623 -0.02928
 C222 C 0.04233 0.57020 -0.05053
 Zr223 Zr 0.03598 0.49988 -0.04138
 O224 O 0.08404 0.50303 -0.04134
 O225 O 0.03593 0.49652 -0.08949
 Zr226 Zr 0.03615 0.49983 0.03563
 O227 O 0.08421 0.50290 0.03531
 O228 O 0.03633 0.49646 0.08375
 O229 O 0.04197 0.47259 -0.00289
 O230 O 0.04173 0.52626 -0.00288
 O231 O -0.05524 0.54330 -0.05834
 O232 O -0.02806 0.57640 -0.02855
 C233 C -0.04750 0.57064 -0.05000
 O234 O -0.05791 0.45747 0.05027
 O235 O -0.02839 0.42401 0.02307
 C236 C -0.04969 0.43004 0.04260
 O237 O -0.05502 0.54320 0.05298
 O238 O -0.02794 0.57635 0.02320
 C239 C -0.04729 0.57054 0.04469
 O240 O -0.05819 0.45750 -0.05568
 O241 O -0.02849 0.42404 -0.02863
 C242 C -0.04994 0.43006 -0.04802
 Zr243 Zr -0.04097 0.50029 -0.04127
 O244 O -0.08901 0.50395 -0.04109
 O245 O -0.04104 0.49697 -0.08938
 Zr246 Zr -0.04091 0.50028 0.03568
 O247 O -0.08896 0.50394 0.03519
 O248 O -0.04124 0.49693 0.08379
 Zr249 Zr -0.00253 0.45479 -0.00282
 Zr250 Zr -0.00225 0.54531 -0.00275
 O251 O -0.04637 0.52675 -0.00277
 O252 O -0.04697 0.47306 -0.00279
 O253 O -0.00244 0.52726 -0.04727
 O254 O -0.00244 0.47371 0.04125
 O255 O -0.00257 0.47369 -0.04690
 O256 O -0.00229 0.52722 0.04172
 H257 H 0.05961 0.53996 -0.00299
 H258 H -0.00244 0.46004 0.05923
 H259 H -0.06424 0.54058 -0.00273
 H260 H -0.00263 0.46001 -0.06486
 H261 H 0.02383 0.51345 0.09174
 H262 H -0.02815 0.51338 0.09178
 H263 H -0.09692 0.48642 0.02350
 H264 H -0.09697 0.48690 -0.02873
 H265 H -0.02864 0.51397 -0.09734
 H266 H 0.02339 0.51350 -0.09744
 H267 H 0.09197 0.48588 -0.02902
 H268 H 0.09205 0.48561 0.02315
 O269 O 1.05521 -0.05349 0.45719
 O270 O 1.02812 -0.02367 0.42388
 C271 C 1.04752 -0.04519 0.42980
 O272 O 0.94686 -0.05022 0.54289
 O273 O 0.97669 -0.02330 0.57614
 C274 C 0.95521 -0.04262 0.57026
 O275 O 0.94937 -0.05285 0.45721
 O276 O 0.97656 -0.02336 0.42388
 C277 C 0.95703 -0.04462 0.42982
 O278 O 1.05814 -0.05044 0.54297
 O279 O 1.02906 -0.02255 0.57625
 C280 C 1.05024 -0.04232 0.57035
 Zr281 Zr 1.04081 -0.03638 0.50005
 O282 O 1.04018 -0.08449 0.50359
 O283 O 1.08884 -0.03710 0.49664
 Zr284 Zr 0.96398 -0.03593 0.50004
 O285 O 0.96428 -0.08407 0.50343
 O286 O 0.91593 -0.03590 0.49675
 O287 O 1.00236 -0.04212 0.47280
 O288 O 1.00243 -0.04169 0.52652
 O289 O 1.05818 0.05517 0.54281
 O290 O 1.02838 0.02826 0.57609
 C291 C 1.04985 0.04757 0.57019
 O292 O 0.94958 0.05827 0.45714
 O293 O 0.97668 0.02847 0.42386
 C294 C 0.95721 0.04993 0.42977
 O295 O 0.94679 0.05527 0.54294
 O296 O 0.97599 0.02748 0.57625
 C297 C 0.95472 0.04716 0.57032
 O298 O 1.05551 0.05773 0.45706
 O299 O 1.02825 0.02817 0.42383
 C300 C 1.04779 0.04945 0.42970
 Zr301 Zr 1.04099 0.04085 0.49996
 O302 O 1.04070 0.08898 0.50328
 O303 O 1.08904 0.04079 0.49664
 Zr304 Zr 0.96418 0.04130 0.50003
 O305 O 0.96507 0.08942 0.50352
 O306 O 0.91615 0.04231 0.49667
 Zr307 Zr 1.00244 0.00243 0.45477
 Zr308 Zr 1.00252 0.00247 0.54520
 O309 O 1.00258 0.04662 0.52648
 O310 O 1.00257 0.04700 0.47272
 O311 O 1.04693 0.00224 0.52710
 O312 O 0.95845 0.00270 0.47372
 O313 O 1.04647 0.00218 0.47367
 O314 O 0.95808 0.00270 0.52712
 H315 H 1.00252 -0.05952 0.54038
 H316 H 0.94048 0.00279 0.46008
 H317 H 1.00250 0.06445 0.54033
 H318 H 1.06439 0.00207 0.45999
 H319 H 0.90799 -0.02328 0.51365
 H320 H 0.90809 0.02869 0.51268
 H321 H 0.97642 0.09728 0.48574
 H322 H 1.02869 0.09693 0.48594
 H323 H 1.09699 0.02813 0.51352
 H324 H 1.09689 -0.02389 0.51299
 H325 H 1.02839 -0.09239 0.48611
 H326 H 0.97619 -0.09205 0.48604
 C327 C 1.09847 0.10179 0.38329
 C328 C 1.09054 0.09357 0.35353
 C329 C 1.06850 0.07116 0.34868
 C330 C 1.05451 0.05691 0.37344
 C331 C 1.14275 0.14440 0.25850
 C332 C 1.08451 0.08758 0.40813
 C333 C 1.10508 0.10791 0.32791
 C334 C 1.11712 0.11964 0.30623
 C335 C 1.13103 0.13311 0.28059
 C336 C 1.06240 0.06490 0.40349
 H337 H 1.11552 0.11912 0.38730
 H338 H 1.06217 0.06462 0.32574
 H339 H 1.03758 0.03960 0.36897
 H340 H 1.09112 0.09429 0.43092
 C341 C 0.90623 -0.09723 0.38388
 C342 C 0.91393 -0.08907 0.35405
 C343 C 0.93585 -0.06659 0.34897
 C344 C 0.94997 -0.05222 0.37360
 C345 C 0.86052 -0.14119 0.26037
 C346 C 0.92032 -0.08290 0.40857
 C347 C 0.89922 -0.10359 0.32863
 C348 C 0.88694 -0.11558 0.30722
 C349 C 0.87264 -0.12946 0.28202
 C350 C 0.94232 -0.06015 0.40372
 H351 H 0.88928 -0.11460 0.38806
 H352 H 0.94198 -0.06010 0.32597
 H353 H 0.96680 -0.03485 0.36899
 H354 H 0.91388 -0.08957 0.43142
 C355 C 0.93121 0.06645 0.65121
 C356 C 0.90888 0.08869 0.64625
 C357 C 0.90131 0.09722 0.61646
 C358 C 0.91609 0.08365 0.59171
 C359 C 0.85554 0.14011 0.74048
 C360 C 0.94603 0.05286 0.62653
 C361 C 0.89394 0.10289 0.67176
 C362 C 0.88164 0.11471 0.69328
 C363 C 0.86747 0.12847 0.71865
 C364 C 0.93871 0.06135 0.59645
 H365 H 0.93723 0.05967 0.67417
 H366 H 0.88404 0.11442 0.61238
 H367 H 0.90987 0.09072 0.56890
 H368 H 0.96326 0.03575 0.63106
 C369 C 1.10282 -0.09327 0.61654
 C370 C 1.09511 -0.08492 0.64632
 C371 C 1.07311 -0.06236 0.65127
 C372 C 1.05868 -0.04833 0.62657
 C373 C 1.14542 -0.13940 0.74057
 C374 C 1.08844 -0.07927 0.59177
 C375 C 1.10939 -0.09979 0.67184
 C376 C 1.12104 -0.11228 0.69337
 C377 C 1.13433 -0.12692 0.71874
 C378 C 1.06607 -0.05672 0.59650
 H379 H 1.11983 -0.11072 0.61246
 H380 H 1.06697 -0.05571 0.67424
 H381 H 1.04164 -0.03104 0.63109
 H382 H 1.09470 -0.08627 0.56896
 C383 C 0.34865 1.06682 1.06849
 C384 C 0.35347 1.08944 1.09041
 C385 C 0.38317 1.09764 1.09836
 C386 C 0.40799 1.08322 1.08451
 C387 C 0.25893 1.14204 1.14204
 C388 C 0.37340 1.05237 1.05461
 C389 C 0.32789 1.10409 1.10478
 C390 C 0.30630 1.11619 1.11669
 C391 C 0.28084 1.13019 1.13046
 C392 C 0.40340 1.06035 1.06251
 H393 H 0.32575 1.06031 1.06214
 H394 H 0.38715 1.11514 1.11530
 H395 H 0.43074 1.08994 1.09113
 H396 H 0.36898 1.03491 1.03776
 C397 C 0.34942 0.92732 0.93727
 C398 C 0.35449 0.90536 0.91473
 C399 C 0.38428 0.89759 0.90653
 C400 C 0.40894 0.91187 0.92067
 C401 C 0.26047 0.85539 0.86016
 C402 C 0.37400 0.94164 0.95144
 C403 C 0.32907 0.89117 0.89976
 C404 C 0.30760 0.87960 0.88723
 C405 C 0.28227 0.86640 0.87260
 C406 C 0.40408 0.93418 0.94321
 H407 H 0.32644 0.93351 0.94379
 H408 H 0.38845 0.88062 0.88908
 H409 H 0.43176 0.90557 0.91378
 H410 H 0.36938 0.95865 0.96871
 C411 C 0.65125 0.93212 1.07266
 C412 C 0.64646 0.91008 1.09516
 C413 C 0.61676 0.90195 1.10318
 C414 C 0.59192 0.91572 1.08867
 C415 C 0.74160 0.85835 1.14665
 C416 C 0.62650 0.94592 1.05812
 C417 C 0.67208 0.89571 1.10976
 C418 C 0.69379 0.88380 1.12167
 C419 C 0.71946 0.87000 1.13528
 C420 C 0.59651 0.93783 1.06589
 H421 H 0.67415 0.93860 1.06628
 H422 H 0.61279 0.88490 1.12057
 H423 H 0.56918 0.90896 1.09523
 H424 H 0.63092 0.96287 1.04075
 C425 C 0.61584 1.09379 0.90292
 C426 C 0.64564 1.08599 0.91109
 C427 C 0.65074 1.06405 0.93366
 C428 C 0.62617 1.05002 0.94812
 C429 C 0.73903 1.13917 0.85858
 C430 C 0.59120 1.07979 0.91733
 C431 C 0.67100 1.10062 0.89648
 C432 C 0.69235 1.11284 0.88439
 C433 C 0.71746 1.12708 0.87040
 C434 C 0.59607 1.05777 0.94017
 H435 H 0.61164 1.11075 0.88546
 H436 H 0.67373 1.05784 0.94015
 H437 H 0.63079 1.03316 0.96555
 H438 H 0.56838 1.08630 0.91064
 C439 C 0.06659 0.34851 0.06351
 C440 C 0.08924 0.35346 0.08535
 C441 C 0.09755 0.38324 0.09301
 C442 C 0.08319 0.40803 0.07898
 C443 C 0.14147 0.25959 0.13880
 C444 C 0.05219 0.37324 0.04945
 C445 C 0.10377 0.32795 0.10002
 C446 C 0.11579 0.30649 0.11231
 C447 C 0.12971 0.28126 0.12664
 C448 C 0.06027 0.40332 0.05708
 H449 H 0.05999 0.32554 0.05741
 H450 H 0.11506 0.38731 0.10989
 H451 H 0.08999 0.43084 0.08539
 H452 H 0.03469 0.36874 0.03269
 C453 C -0.07239 0.34918 -0.06834
 C454 C -0.09503 0.35418 -0.09020
 C455 C -0.10313 0.38401 -0.09818
 C456 C -0.08858 0.40876 -0.08442
 C457 C -0.14676 0.25931 -0.14176
 C458 C -0.05781 0.37384 -0.05456
 C459 C -0.10969 0.32864 -0.10454
 C460 C -0.12166 0.30700 -0.11641
 C461 C -0.13534 0.28139 -0.13016
 C462 C -0.06568 0.40396 -0.06248
 H463 H -0.06594 0.32618 -0.06199
 H464 H -0.12063 0.38813 -0.11509
 H465 H -0.09521 0.43160 -0.09105
 H466 H -0.04034 0.36926 -0.03775
 C467 C 0.09329 0.61612 -0.10300
 C468 C 0.08517 0.64596 -0.09514
 C469 C 0.06277 0.65104 -0.07307
 C470 C 0.04867 0.62641 -0.05873
 C471 C 0.13952 0.74007 -0.14529
 C472 C 0.07921 0.59142 -0.08870
 C473 C 0.10006 0.67142 -0.10937
 C474 C 0.11254 0.69291 -0.12097
 C475 C 0.12712 0.71826 -0.13423
 C476 C 0.05682 0.59627 -0.06628
 H477 H 0.11062 0.61194 -0.12005
 H478 H 0.05631 0.67405 -0.06681
 H479 H 0.03151 0.63103 -0.04163
 H480 H 0.08604 0.56856 -0.09507
 C481 C -0.09712 0.61693 0.09810
 C482 C -0.08918 0.64670 0.08998
 C483 C -0.06745 0.65158 0.06724
 C484 C -0.05376 0.62683 0.05257
 C485 C -0.14059 0.74107 0.14327
 C486 C -0.08346 0.59210 0.08347
 C487 C -0.10340 0.67227 0.10484
 C488 C -0.11523 0.69383 0.11711
 C489 C -0.12897 0.71923 0.13130
 C490 C -0.06164 0.59676 0.06047
 H491 H -0.11392 0.61289 0.11568
 H492 H -0.06113 0.67454 0.06079
 H493 H -0.03704 0.63129 0.03502
 H494 H -0.09006 0.56930 0.09013
 C495 C 1.07198 0.06801 0.65116
 C496 C 1.09434 0.09010 0.64628
 C497 C 1.10243 0.09810 0.61651
 C498 C 1.08812 0.08419 0.59169
 C499 C 1.14510 0.14255 0.74125
 C500 C 1.05764 0.05408 0.62643
 C501 C 1.10870 0.10467 0.67188
 C502 C 1.12042 0.11676 0.69355
 C503 C 1.13385 0.13075 0.71917
 C504 C 1.06546 0.06207 0.59636
 H505 H 1.06555 0.06163 0.67412
 H506 H 1.11972 0.11519 0.61248
 H507 H 1.09472 0.09088 0.56889
 H508 H 1.04036 0.03712 0.63091
 C509 C 0.93309 -0.06336 0.65116
 C510 C 0.91066 -0.08535 0.64614
 C511 C 0.90252 -0.09316 0.61633
 C512 C 0.91686 -0.07917 0.59160
 C513 C 0.85881 -0.13878 0.73992
 C514 C 0.94748 -0.04934 0.62649
 C515 C 0.89620 -0.10003 0.67160
 C516 C 0.88427 -0.11232 0.69303
 C517 C 0.87047 -0.12664 0.71825
 C518 C 0.93960 -0.05715 0.59639
 H519 H 0.93955 -0.05713 0.67415
 H520 H 0.88517 -0.11015 0.61220
 H521 H 0.91022 -0.08573 0.56877
 H522 H 0.96482 -0.03247 0.63105
 C523 C 1.06787 -0.06778 0.34890
 C524 C 1.08958 -0.09062 0.35390
 C525 C 1.09747 -0.09876 0.38371
 C526 C 1.08376 -0.08407 0.40845
 C527 C 1.14088 -0.14408 0.25967
 C528 C 1.05413 -0.05305 0.37357
 C529 C 1.10380 -0.10556 0.32841
 C530 C 1.11561 -0.11788 0.30689
 C531 C 1.12931 -0.13210 0.28151
 C532 C 1.06196 -0.06099 0.40367
 H533 H 1.06158 -0.06131 0.32592
 H534 H 1.11426 -0.11642 0.38783
 H535 H 1.09032 -0.09077 0.43128
 H536 H 1.03742 -0.03544 0.36902
 C537 C 0.90632 0.10262 0.38363
 C538 C 0.91400 0.09428 0.35384
 C539 C 0.93601 0.07173 0.34885
 C540 C 0.95019 0.05743 0.37353
 C541 C 0.85972 0.14489 0.25964
 C542 C 0.92048 0.08835 0.40838
 C543 C 0.89910 0.10857 0.32834
 C544 C 0.88664 0.12027 0.30683
 C545 C 0.87209 0.13367 0.28147
 C546 C 0.94252 0.06550 0.40363
 H547 H 0.88930 0.12005 0.38774
 H548 H 0.94213 0.06510 0.32587
 H549 H 0.96707 0.03998 0.36899
 H550 H 0.91402 0.09513 0.43121
 C551 C 0.09754 0.38317 -0.09850
 C552 C 0.08935 0.35340 -0.09064
 C553 C 0.06671 0.34852 -0.06879
 C554 C 0.05223 0.37328 -0.05491
 C555 C 0.14224 0.25891 -0.14227
 C556 C 0.08310 0.40800 -0.08464
 C557 C 0.10405 0.32782 -0.10500
 C558 C 0.11621 0.30624 -0.11691
 C559 C 0.13030 0.28080 -0.13069
 C560 C 0.06021 0.40335 -0.06271
 H561 H 0.11505 0.38720 -0.11538
 H562 H 0.06021 0.32557 -0.06252
 H563 H 0.03477 0.36882 -0.03811
 H564 H 0.08982 0.43080 -0.09118
 C565 C -0.07156 0.34922 0.06382
 C566 C -0.09392 0.35433 0.08592
 C567 C -0.10210 0.38418 0.09366
 C568 C -0.08788 0.40886 0.07947
 C569 C -0.14435 0.26034 0.14027
 C570 C -0.05730 0.37382 0.04960
 C571 C -0.10817 0.32890 0.10085
 C572 C -0.11983 0.30744 0.11333
 C573 C -0.13318 0.28213 0.12790
 C574 C -0.06522 0.40398 0.05733
 H575 H -0.06505 0.32619 0.05765
 H576 H -0.11938 0.38839 0.11076
 H577 H -0.09454 0.43173 0.08597
 H578 H -0.04000 0.36918 0.03265
 C579 C -0.06766 0.65179 -0.07217
 C580 C -0.08964 0.64705 -0.09471
 C581 C -0.09774 0.61733 -0.10286
 C582 C -0.08398 0.59241 -0.08845
 C583 C -0.14141 0.74236 -0.14610
 C584 C -0.05388 0.62695 -0.05772
 C585 C -0.10401 0.67276 -0.10924
 C586 C -0.11592 0.69451 -0.12112
 C587 C -0.12973 0.72022 -0.13472
 C588 C -0.06192 0.59693 -0.06563
 H589 H -0.06121 0.67470 -0.06569
 H590 H -0.11474 0.61341 -0.12029
 H591 H -0.09071 0.56965 -0.09511
 H592 H -0.03697 0.63132 -0.04031
 C593 C 0.06423 0.65076 0.06675
 C594 C 0.08616 0.64556 0.08929
 C595 C 0.09388 0.61569 0.09741
 C596 C 0.07982 0.59106 0.08297
 C597 C 0.13950 0.73904 0.14171
 C598 C 0.05015 0.62620 0.05227
 C599 C 0.10084 0.67092 0.10391
 C600 C 0.11310 0.69228 0.11598
 C601 C 0.12739 0.71742 0.12993
 C602 C 0.05783 0.59602 0.06015
 H603 H 0.05808 0.67380 0.06030
 H604 H 0.11083 0.61142 0.11483
 H605 H 0.08628 0.56817 0.08961
 H606 H 0.03330 0.63089 0.03486
 C607 C 0.34896 1.06710 0.93631
 C608 C 0.35395 1.08971 0.91442
 C609 C 0.38370 1.09792 0.90674
 C610 C 0.40841 1.08350 0.92079
 C611 C 0.26020 1.14186 0.86088
 C612 C 0.37360 1.05264 0.95040
 C613 C 0.32851 1.10427 0.89970
 C614 C 0.30709 1.11629 0.88740
 C615 C 0.28186 1.13016 0.87305
 C616 C 0.40366 1.06061 0.94274
 H617 H 0.32601 1.06057 0.94244
 H618 H 0.38781 1.11540 0.88981
 H619 H 0.43121 1.09022 0.91435
 H620 H 0.36907 1.03517 0.96721
 C621 C 0.34921 0.92772 1.06791
 C622 C 0.35414 0.90510 1.08983
 C623 C 0.38389 0.89697 1.09789
 C624 C 0.40864 0.91149 1.08417
 C625 C 0.25946 0.85342 1.14152
 C626 C 0.37388 0.94228 1.05416
 C627 C 0.32862 0.89046 1.10415
 C628 C 0.30701 0.87850 1.11605
 C629 C 0.28147 0.86484 1.12985
 C630 C 0.40392 0.93439 1.06218
 H631 H 0.32627 0.93419 1.06149
 H632 H 0.38796 0.87948 1.11485
 H633 H 0.43142 0.90484 1.09087
 H634 H 0.36936 0.95974 1.03731
 C635 C 0.61575 1.09381 1.10294
 C636 C 0.64554 1.08604 1.09474
 C637 C 0.65061 1.06396 1.07231
 C638 C 0.62603 1.04981 1.05799
 C639 C 0.73958 1.14009 1.14521
 C640 C 0.59109 1.07968 1.08866
 C641 C 0.67095 1.10091 1.10904
 C642 C 0.69242 1.11333 1.12071
 C643 C 0.71776 1.12780 1.13405
 C644 C 0.59594 1.05757 1.06592
 H645 H 0.61158 1.11089 1.12029
 H646 H 0.67359 1.05778 1.06578
 H647 H 0.63064 1.03287 1.04063
 H648 H 0.56827 1.08620 1.09534
 C649 C 0.61692 0.90313 0.90180
 C650 C 0.64662 0.91151 0.90957
 C651 C 0.65145 0.93368 0.93194
 C652 C 0.62671 0.94734 0.94661
 C653 C 0.74104 0.85995 0.85671
 C654 C 0.59211 0.91677 0.91643
 C655 C 0.67218 0.89724 0.89479
 C656 C 0.69375 0.88537 0.88262
 C657 C 0.71918 0.87159 0.86857
 C658 C 0.59672 0.93898 0.93910
 H659 H 0.61293 0.88599 0.88450
 H660 H 0.67435 0.94035 0.93811
 H661 H 0.63114 0.96438 0.96388
 H662 H 0.56937 0.90980 0.91007
   
