data_POSCAR
  _audit_creation_date              2014-09-24
  _audit_creation_method            'ToBaCCo'
  _symmetry_space_group_name_H-M    'P1'
  _symmetry_Int_Tables_number       1
  _symmetry_cell_setting            triclinic
  loop_
  _symmetry_equiv_pos_as_xyz
 x,y,z
_cell_length_a 55.8387
_cell_length_b 55.6705
_cell_length_c 55.8415
_cell_angle_alpha 93.865100
_cell_angle_beta 89.715300
_cell_angle_gamma 93.856700
loop_
  _atom_site_label
  _atom_site_type_symbol
  _atom_site_fract_x
  _atom_site_fract_y
  _atom_site_fract_z
C1 C 0.27266 0.47987 1.00489
 C2 C 0.26228 0.50152 1.00090
 C3 C 0.27701 0.52234 0.99702
 C4 C 0.30219 0.52185 0.99740
 C5 C 0.31222 0.49985 1.00118
 C6 C 0.29770 0.47879 1.00482
 C7 C 0.23593 0.50242 1.00094
 C8 C 0.22272 0.49734 1.02165
 C9 C 0.19759 0.49843 1.02209
 C10 C 0.18597 0.50417 1.00106
 C11 C 0.19894 0.50899 0.98008
 C12 C 0.22403 0.50835 0.98030
 H13 H 0.26113 0.46388 1.00777
 H14 H 0.26868 0.53893 0.99411
 H15 H 0.23224 0.49290 1.03746
 H16 H 0.23439 0.51209 0.96436
 H17 H 0.33153 0.49901 1.00125
 H18 H 0.16664 0.50481 1.00092
 C19 C 0.72128 0.47846 0.00464
 C20 C 0.73590 0.49891 -0.00069
 C21 C 0.72539 0.52011 -0.00605
 C22 C 0.70032 0.52113 -0.00585
 C23 C 0.68592 0.50039 -0.00074
 C24 C 0.69616 0.47893 0.00439
 C25 C 0.76226 0.49809 -0.00063
 C26 C 0.77541 0.50149 -0.02177
 C27 C 0.80053 0.50034 -0.02204
 C28 C 0.81217 0.49626 -0.00049
 C29 C 0.79928 0.49314 0.02088
 C30 C 0.77420 0.49383 0.02057
 H31 H 0.72957 0.46215 0.00863
 H32 H 0.73685 0.53584 -0.01001
 H33 H 0.76586 0.50466 -0.03799
 H34 H 0.76390 0.49136 0.03681
 H35 H 0.66658 0.50097 -0.00075
 H36 H 0.83151 0.49561 -0.00023
 C37 C 0.02139 0.22733 0.50423
 C38 C -0.00061 0.23765 0.50173
 C39 C -0.02198 0.22290 0.49988
 C40 C -0.02156 0.19776 0.50072
 C41 C 0.00065 0.18766 0.50312
 C42 C 0.02224 0.20221 0.50478
 C43 C -0.00128 0.26396 0.50098
 C44 C -0.00374 0.27421 0.47894
 C45 C -0.00423 0.29938 0.47792
 C46 C -0.00259 0.31394 0.49959
 C47 C -0.00026 0.30387 0.52182
 C48 C 0.00055 0.27875 0.52230
 H49 H 0.03777 0.23894 0.50555
 H50 H -0.03885 0.23112 0.49797
 H51 H -0.00506 0.26242 0.46267
 H52 H 0.00241 0.27056 0.53919
 H53 H 0.00113 0.16830 0.50361
 H54 H -0.00308 0.33332 0.49923
 C55 C 1.02351 0.77774 0.49685
 C56 C 1.00217 0.76312 0.49820
 C57 C 0.97997 0.77347 0.49856
 C58 C 0.97888 0.79849 0.49746
 C59 C 1.00041 0.81298 0.49614
 C60 C 1.02293 0.80292 0.49590
 C61 C 1.00309 0.73686 0.49919
 C62 C 1.00259 0.72655 0.52142
 C63 C 1.00351 0.70143 0.52263
 C64 C 1.00484 0.68698 0.50099
 C65 C 1.00521 0.69711 0.47859
 C66 C 1.00441 0.72220 0.47789
 H67 H 1.04047 0.76934 0.49664
 H68 H 0.96363 0.76192 0.49961
 H69 H 1.00154 0.73825 0.53766
 H70 H 1.00471 0.73045 0.46085
 H71 H 0.99956 0.83228 0.49538
 H72 H 1.00547 0.66763 0.50151
 C73 C 0.49566 0.01956 0.22569
 C74 C 0.50068 -0.00177 0.23615
 C75 C 0.50582 -0.02225 0.22146
 C76 C 0.50572 -0.02166 0.19635
 C77 C 0.50095 -0.00006 0.18618
 C78 C 0.49602 0.02069 0.20063
 C79 C 0.50047 -0.00270 0.26252
 C80 C 0.47967 0.00230 0.27563
 C81 C 0.47920 0.00124 0.30069
 C82 C 0.50007 -0.00440 0.31249
 C83 C 0.52116 -0.00915 0.29968
 C84 C 0.52109 -0.00852 0.27457
 H85 H 0.49184 0.03531 0.23717
 H86 H 0.50950 -0.03869 0.22969
 H87 H 0.46380 0.00667 0.26617
 H88 H 0.53713 -0.01217 0.26433
 H89 H 0.50103 0.00059 0.16685
 H90 H 0.49994 -0.00501 0.33183
 C91 C 0.49630 0.02179 0.77855
 C92 C 0.50010 0.00093 0.76389
 C93 C 0.50376 -0.02079 0.77428
 C94 C 0.50339 -0.02197 0.79939
 C95 C 0.49986 -0.00072 0.81381
 C96 C 0.49640 0.02121 0.80364
 C97 C 0.50015 0.00183 0.73757
 C98 C 0.52135 -0.00154 0.72452
 C99 C 0.52163 -0.00040 0.69946
 C100 C 0.50025 0.00369 0.68767
 C101 C 0.47881 0.00681 0.70045
 C102 C 0.47900 0.00608 0.72554
 H103 H 0.49357 0.03846 0.77031
 H104 H 0.50654 -0.03673 0.76263
 H105 H 0.53759 -0.00474 0.73400
 H106 H 0.46270 0.00854 0.73578
 H107 H 0.49978 -0.00117 0.83316
 H108 H 0.50026 0.00436 0.66835
 C109 C 0.28851 0.03939 0.47348
 H110 H 0.28949 0.05321 0.48808
 C111 C 0.30495 0.04052 0.45460
 H112 H 0.31847 0.05542 0.45482
 C113 C 0.27017 0.00274 0.45613
 H114 H 0.25700 -0.01228 0.45708
 C115 C 0.28627 0.00314 0.43691
 H116 H 0.28505 -0.01155 0.42315
 N117 N 0.27160 0.02069 0.47393
 C118 C 0.21707 0.04681 0.52351
 H119 H 0.21676 0.03293 0.53620
 C120 C 0.20106 0.06500 0.52611
 H121 H 0.18856 0.06499 0.54099
 C122 C 0.23325 0.06290 0.48822
 H123 H 0.24544 0.06168 0.47318
 C124 C 0.21748 0.08139 0.49008
 H125 H 0.21793 0.09438 0.47647
 Zn126 Zn 0.25182 0.01924 0.50150
 N127 N 0.23272 0.04605 0.50480
 C128 C 0.27304 0.03600 0.54653
 N129 N 0.27246 0.01862 0.52817
 C130 C 0.28766 0.00053 0.52758
 C131 C 0.30405 -0.00084 0.54611
 C132 C 0.28927 0.03540 0.56544
 C133 C 0.21405 -0.01058 0.48109
 C134 C 0.19713 -0.03022 0.47886
 C135 C 0.21411 -0.04567 0.51396
 C136 C 0.23075 -0.02573 0.51549
 N137 N 0.23051 -0.00875 0.49909
 H138 H 0.26121 0.05056 0.54641
 H139 H 0.28707 -0.01282 0.51255
 H140 H 0.31600 -0.01541 0.54514
 H141 H 0.28955 0.04947 0.57982
 H142 H 0.21400 0.00340 0.46854
 H143 H 0.18415 -0.03119 0.46444
 H144 H 0.21453 -0.05887 0.52731
 H145 H 0.24354 -0.02369 0.53004
 C146 C 0.20092 0.08247 0.50910
 C147 C 0.30415 0.02208 0.43610
 C148 C 0.19693 -0.04807 0.49551
 C149 C 0.30509 0.01680 0.56536
 C150 C 0.71265 0.00103 0.52426
 H151 H 0.71316 0.01354 0.51022
 C152 C 0.69622 0.00339 0.54304
 H153 H 0.68419 0.01787 0.54327
 C154 C 0.72740 -0.03336 0.54043
 H155 H 0.73927 -0.04793 0.53910
 C156 C 0.71117 -0.03174 0.55952
 H157 H 0.71094 -0.04503 0.57282
 N158 N 0.72792 -0.01701 0.52337
 C159 C 0.78630 0.00896 0.47772
 H160 H 0.78638 -0.00606 0.46438
 C161 C 0.80318 0.02848 0.47649
 H162 H 0.81617 0.02830 0.46203
 C163 C 0.76952 0.02690 0.51307
 H164 H 0.75669 0.02601 0.52757
 C165 C 0.78614 0.04679 0.51256
 H166 H 0.78569 0.06110 0.52664
 Zn167 Zn 0.74857 -0.01936 0.49646
 N168 N 0.76982 0.00857 0.49571
 C169 C 0.73027 -0.00592 0.45224
 N170 N 0.72886 -0.02279 0.46880
 C171 C 0.71198 -0.04159 0.46705
 C172 C 0.69554 -0.04391 0.44813
 C173 C 0.71420 -0.00753 0.43303
 C174 C 0.78338 -0.04505 0.51675
 C175 C 0.79940 -0.06303 0.51841
 C176 C 0.78325 -0.08243 0.48140
 C177 C 0.76742 -0.06409 0.48051
 N178 N 0.76781 -0.04588 0.49804
 H179 H 0.74340 0.00923 0.45422
 H180 H 0.71100 -0.05454 0.48069
 H181 H 0.68202 -0.05883 0.44734
 H182 H 0.71541 0.00635 0.42032
 H183 H 0.78357 -0.03013 0.53022
 H184 H 0.81181 -0.06178 0.53335
 H185 H 0.78291 -0.09658 0.46709
 H186 H 0.75526 -0.06414 0.46552
 C187 C 0.80334 0.04772 0.49413
 C188 C 0.69524 -0.01320 0.56096
 C189 C 0.79968 -0.08194 0.50045
 C190 C 0.69632 -0.02656 0.43094
 C191 C 0.45946 0.21488 1.04825
 H192 H 0.44590 0.21379 1.03437
 C193 C 0.45785 0.19872 1.06634
 H194 H 0.44285 0.18534 1.06627
 C195 C 0.49601 0.23302 1.06434
 H196 H 0.51120 0.24596 1.06313
 C197 C 0.49515 0.21718 1.08275
 H198 H 0.50965 0.21837 1.09566
 N199 N 0.47838 0.23148 1.04748
 C200 C 0.45478 0.28455 1.00035
 H201 H 0.46910 0.28401 0.98724
 C202 C 0.43685 0.30056 0.99844
 H203 H 0.43754 0.31225 0.98369
 C204 C 0.43717 0.27034 1.03587
 H205 H 0.43765 0.25885 1.05067
 C206 C 0.41891 0.28624 1.03475
 H207 H 0.40535 0.28662 1.04866
 Zn208 Zn 0.48083 0.25019 1.02042
 N209 N 0.45460 0.26979 1.01877
 C210 C 0.46486 0.22743 0.97538
 N211 N 0.48165 0.22826 0.99305
 C212 C 0.49929 0.21255 0.99231
 C213 C 0.50089 0.19547 0.97302
 C214 C 0.46574 0.21055 0.95575
 C215 C 0.51087 0.28858 1.04029
 C216 C 0.53048 0.30556 1.04158
 C217 C 0.54596 0.28644 1.00514
 C218 C 0.52605 0.26983 1.00455
 N219 N 0.50902 0.27115 1.02200
 H220 H 0.45061 0.23963 0.97657
 H221 H 0.51217 0.21335 1.00681
 H222 H 0.51514 0.18320 0.97287
 H223 H 0.45219 0.21016 0.94190
 H224 H 0.49686 0.28946 1.05371
 H225 H 0.53143 0.31941 1.05618
 H226 H 0.55913 0.28520 0.99089
 H227 H 0.52400 0.25628 0.98982
 C228 C 0.41867 0.30172 1.01589
 C229 C 0.47607 0.19947 1.08370
 C230 C 0.54829 0.30475 1.02373
 C231 C 0.48396 0.19428 0.95438
 C232 C 0.49819 0.78379 -0.04524
 H233 H 0.48514 0.78323 -0.03087
 C234 C 0.49624 0.79989 -0.06309
 H235 H 0.48150 0.81160 -0.06229
 C236 C 0.53364 0.76961 -0.06305
 H237 H 0.54844 0.75810 -0.06267
 C238 C 0.53247 0.78560 -0.08122
 H239 H 0.54634 0.78602 -0.09483
 N240 N 0.51660 0.76901 -0.04556
 C241 C 0.49030 0.71181 -0.00075
 H242 H 0.50485 0.71258 0.01206
 C243 C 0.47098 0.69477 0.00094
 H244 H 0.47086 0.68252 0.01519
 C245 C 0.47326 0.72669 -0.03512
 H246 H 0.47442 0.73888 -0.04939
 C247 C 0.45359 0.70986 -0.03415
 H248 H 0.43969 0.70950 -0.04764
 Zn249 Zn 0.51840 0.74937 -0.01938
 N250 N 0.49100 0.72749 -0.01840
 C251 C 0.50293 0.76908 0.02600
 N252 N 0.52022 0.77034 0.00881
 C253 C 0.53855 0.78773 0.01048
 C254 C 0.54006 0.80471 0.03008
 C255 C 0.50374 0.78571 0.04591
 C256 C 0.54612 0.71409 -0.04104
 C257 C 0.56431 0.69805 -0.04288
 C258 C 0.58099 0.71650 -0.00569
 C259 C 0.56248 0.73222 -0.00459
 N260 N 0.54545 0.73066 -0.02206
 H261 H 0.48816 0.75556 0.02410
 H262 H 0.55184 0.78857 -0.00366
 H263 H 0.55470 0.81853 0.03088
 H264 H 0.48962 0.78452 0.05922
 H265 H 0.53212 0.71299 -0.05447
 H266 H 0.56419 0.68472 -0.05793
 H267 H 0.59405 0.71774 0.00867
 H268 H 0.56134 0.74513 0.01064
 C269 C 0.45226 0.69361 -0.01592
 C270 C 0.51363 0.80112 -0.08132
 C271 C 0.58188 0.69887 -0.02485
 C272 C 0.52239 0.80397 0.04806
 C273 C 1.02534 0.45992 0.21153
 H274 H 1.01071 0.44613 0.21054
 C275 C 1.04419 0.45878 0.19506
 H276 H 1.04392 0.44392 0.18150
 C277 C 1.04280 0.49649 0.22995
 H278 H 1.04190 0.51148 0.24316
 C279 C 1.06199 0.49608 0.21382
 H280 H 1.07579 0.51073 0.21507
 N281 N 1.02495 0.47858 0.22850
 C282 C 0.97544 0.45245 0.28307
 H283 H 0.96273 0.46631 0.28339
 C284 C 0.97293 0.43431 0.29914
 H285 H 0.95811 0.43435 0.31170
 C286 C 1.01072 0.43637 0.26682
 H287 H 1.02573 0.43759 0.25459
 C288 C 1.00895 0.41794 0.28266
 H289 H 1.02260 0.40499 0.28222
 Zn290 Zn 0.99744 0.48006 0.24835
 N291 N 0.99412 0.45320 0.26738
 C292 C 0.95234 0.46348 0.22714
 N293 N 0.97072 0.48084 0.22779
 C294 C 0.97133 0.49901 0.21268
 C295 C 0.95281 0.50046 0.19630
 C296 C 0.93344 0.46417 0.21091
 C297 C 1.01805 0.50962 0.28615
 C298 C 1.02044 0.52919 0.30314
 C299 C 0.98539 0.54494 0.28636
 C300 C 0.98370 0.52506 0.26965
 N301 N 1.00000 0.50797 0.26975
 H302 H 0.95246 0.44886 0.23890
 H303 H 0.98638 0.51234 0.21331
 H304 H 0.95379 0.51508 0.18441
 H305 H 0.91906 0.45010 0.21056
 H306 H 1.03052 0.49556 0.28609
 H307 H 1.03490 0.53003 0.31607
 H308 H 0.97213 0.55823 0.28605
 H309 H 0.96911 0.52315 0.25690
 C310 C 0.99001 0.41690 0.29930
 C311 C 1.06274 0.47717 0.19589
 C312 C 1.00390 0.54716 0.30348
 C313 C 0.93355 0.48283 0.19517
 C314 C -0.02486 0.49991 0.78806
 H315 H -0.01082 0.48741 0.78748
 C316 C -0.04364 0.49747 0.80447
 H317 H -0.04388 0.48292 0.81641
 C318 C -0.04102 0.53440 0.77350
 H319 H -0.03969 0.54904 0.76172
 C320 C -0.06011 0.53269 0.78972
 H321 H -0.07342 0.54599 0.79003
 N322 N -0.02396 0.51804 0.77289
 C323 C 0.02178 0.49237 0.71446
 H324 H 0.03511 0.50741 0.71448
 C325 C 0.02308 0.47293 0.69748
 H326 H 0.03756 0.47319 0.68452
 C327 C -0.01357 0.47429 0.73109
 H328 H -0.02809 0.47510 0.74389
 C329 C -0.01301 0.45449 0.71437
 H330 H -0.02707 0.44014 0.71473
 Zn331 Zn 0.00298 0.52049 0.75228
 N332 N 0.00377 0.49266 0.73091
 C333 C 0.04716 0.50692 0.77056
 N334 N 0.03062 0.52382 0.77203
 C335 C 0.03239 0.54258 0.78897
 C336 C 0.05130 0.54481 0.80542
 C337 C 0.06635 0.50845 0.78665
 C338 C -0.01726 0.54635 0.71758
 C339 C -0.01883 0.56433 0.70154
 C340 C 0.01824 0.58359 0.71771
 C341 C 0.01903 0.56525 0.73356
 N342 N 0.00143 0.54710 0.73315
 H343 H 0.04516 0.49182 0.75739
 H344 H 0.01877 0.55554 0.78998
 H345 H 0.05210 0.55968 0.81899
 H346 H 0.07904 0.49454 0.78540
 H347 H -0.03078 0.53147 0.71737
 H348 H -0.03375 0.56312 0.68911
 H349 H 0.03261 0.59766 0.71805
 H350 H 0.03402 0.56523 0.74572
 C351 C 0.00546 0.45366 0.69721
 C352 C -0.06156 0.51406 0.80555
 C353 C -0.00078 0.58315 0.70125
 C354 C 0.06845 0.52742 0.80459
 N355 N 0.08742 0.19385 0.50843
 C356 C 0.08754 0.16958 0.50948
 N357 N 0.06639 0.15617 0.50922
 N358 N 0.04575 0.16662 0.50789
 C359 C 0.04541 0.19090 0.50677
 N360 N 0.06671 0.20433 0.50711
 C361 C 0.10959 0.15786 0.51043
 C362 C 0.12733 0.14672 0.51105
 C363 C 0.14745 0.13204 0.51160
 N364 N 0.14937 0.11691 0.52940
 N365 N 0.16672 0.10159 0.52888
 C366 C 0.18275 0.10076 0.51050
 N367 N 0.18087 0.11615 0.49280
 N368 N 0.16349 0.13147 0.49330
 N369 N 0.65422 0.56435 -0.01460
 C370 C 0.66766 0.58508 -0.01763
 N371 N 0.69194 0.58491 -0.01715
 N372 N 0.70240 0.56457 -0.01367
 C373 C 0.68896 0.54372 -0.01052
 N374 N 0.66466 0.54408 -0.01112
 C375 C 0.65603 0.60691 -0.02052
 C376 C 0.64507 0.62461 -0.02247
 C377 C 0.63072 0.64485 -0.02425
 N378 N 0.63083 0.66254 -0.00633
 N379 N 0.61577 0.68008 -0.00685
 C380 C 0.59998 0.68053 -0.02525
 N381 N 0.60015 0.66286 -0.04328
 N382 N 0.61520 0.64532 -0.04276
 N383 N 0.91353 -0.19322 0.50011
 C384 C 0.91311 -0.16904 0.49854
 N385 N 0.93408 -0.15565 0.49656
 N386 N 0.95486 -0.16604 0.49617
 C387 C 0.95551 -0.19024 0.49776
 N388 N 0.93438 -0.20364 0.49971
 C389 C 0.89096 -0.15737 0.49928
 C390 C 0.87317 -0.14622 0.49998
 C391 C 0.85305 -0.13145 0.50095
 N392 N 0.85066 -0.11503 0.51968
 N393 N 0.83335 -0.09971 0.51975
 C394 C 0.81781 -0.10016 0.50104
 N395 N 0.82016 -0.11684 0.48237
 N396 N 0.83751 -0.13217 0.48229
 N397 N 0.34371 0.43515 1.01203
 C398 C 0.33035 0.41398 1.01250
 N399 N 0.30611 0.41395 1.01087
 N400 N 0.29561 0.43454 1.00877
 C401 C 0.30899 0.45584 1.00814
 N402 N 0.33323 0.45566 1.00991
 C403 C 0.34216 0.39198 1.01360
 C404 C 0.35354 0.37436 1.01399
 C405 C 0.36864 0.35449 1.01381
 N406 N 0.36899 0.34040 1.03268
 N407 N 0.38453 0.32326 1.03315
 C408 C 0.40034 0.31970 1.01484
 N409 N 0.39972 0.33378 0.99594
 N410 N 0.38420 0.35087 0.99545
 N411 N 0.93678 0.14320 0.49880
 C412 C 0.91514 0.15248 0.49682
 N413 N 0.91410 0.17669 0.49602
 N414 N 0.93417 0.19114 0.49720
 C415 C 0.95596 0.18190 0.49921
 N416 N 0.95679 0.15762 0.49997
 C417 C 0.89378 0.13662 0.49567
 C418 C 0.87655 0.12233 0.49481
 C419 C 0.85689 0.10432 0.49387
 N420 N 0.84030 0.10379 0.51166
 N421 N 0.82304 0.08603 0.51155
 C422 C 0.82181 0.06812 0.49371
 N423 N 0.83843 0.06887 0.47586
 N424 N 0.85567 0.08661 0.47596
 N425 N 0.35595 0.56165 -0.00729
 C426 C 0.34671 0.58311 -0.01021
 N427 N 0.32254 0.58426 -0.01089
 N428 N 0.30808 0.56446 -0.00865
 C429 C 0.31725 0.54281 -0.00559
 N430 N 0.34152 0.54193 -0.00504
 C431 C 0.36262 0.60429 -0.01179
 C432 C 0.37709 0.62129 -0.01260
 C433 C 0.39543 0.64059 -0.01298
 N434 N 0.41268 0.64295 0.00415
 N435 N 0.43054 0.65996 0.00332
 C436 C 0.43189 0.67522 -0.01471
 N437 N 0.41446 0.67283 -0.03180
 N438 N 0.39657 0.65579 -0.03099
 N439 N 0.08626 -0.17695 0.49422
 C440 C 0.08507 -0.15276 0.49344
 N441 N 0.06331 -0.14344 0.49336
 N442 N 0.04332 -0.15781 0.49407
 C443 C 0.04424 -0.18209 0.49490
 N444 N 0.06621 -0.19134 0.49493
 C445 C 0.10641 -0.13693 0.49300
 C446 C 0.12362 -0.12267 0.49276
 C447 C 0.14328 -0.10471 0.49262
 N448 N 0.15998 -0.10280 0.51030
 N449 N 0.17726 -0.08505 0.51100
 C450 C 0.17842 -0.06851 0.49411
 N451 N 0.16168 -0.07063 0.47637
 N452 N 0.14441 -0.08837 0.47566
 N453 N 0.67552 0.41608 1.01599
 C454 C 0.65134 0.41724 1.01625
 N455 N 0.64193 0.43856 1.01297
 N456 N 0.65621 0.45812 1.00946
 C457 C 0.68047 0.45714 1.00907
 N458 N 0.68984 0.43570 1.01249
 C459 C 0.63565 0.39614 1.01914
 C460 C 0.62164 0.37893 1.02106
 C461 C 0.60409 0.35907 1.02275
 N462 N 0.58764 0.35931 1.04068
 N463 N 0.57020 0.34180 1.04125
 C464 C 0.56851 0.32346 1.02387
 N465 N 0.58517 0.32325 1.00603
 N466 N 0.60261 0.34076 1.00545
 N467 N 0.48795 0.06432 1.15475
 C468 C 0.48458 0.08491 1.16831
 N469 N 0.48468 0.08452 1.19257
 N470 N 0.48810 0.06411 1.20291
 C471 C 0.49157 0.04339 1.18937
 N472 N 0.49137 0.04397 1.16508
 C473 C 0.48159 0.10681 1.15683
 C474 C 0.47949 0.12459 1.14604
 C475 C 0.47748 0.14496 1.13191
 N476 N 0.49535 0.16269 1.13197
 N477 N 0.49457 0.18039 1.11713
 C478 C 0.47596 0.18095 1.10161
 N479 N 0.45800 0.16322 1.10182
 N480 N 0.45877 0.14553 1.11666
 N481 N 0.00104 0.69396 0.58688
 C482 C 0.00195 0.66972 0.58739
 N483 N 0.00342 0.65617 0.56645
 N484 N 0.00396 0.66648 0.54563
 C485 C 0.00304 0.69077 0.54484
 N486 N 0.00160 0.70430 0.56599
 C487 C 0.00108 0.65816 0.60960
 C488 C 0.00026 0.64710 0.62745
 C489 C -0.00085 0.63244 0.64765
 N490 N 0.01776 0.63312 0.66324
 N491 N 0.01754 0.61787 0.68067
 C492 C -0.00123 0.60132 0.68305
 N493 N -0.01989 0.60091 0.66747
 N494 N -0.01969 0.61615 0.65008
 N495 N 0.50758 0.93486 -0.15522
 C496 C 0.51015 0.91408 -0.16871
 N497 N 0.51079 0.91451 -0.19296
 N498 N 0.50885 0.93519 -0.20335
 C499 C 0.50613 0.95616 -0.18988
 N500 N 0.50563 0.95545 -0.16559
 C501 C 0.51131 0.89197 -0.15710
 C502 C 0.51172 0.87425 -0.14588
 C503 C 0.51154 0.85425 -0.13094
 N504 N 0.53039 0.84014 -0.13072
 N505 N 0.53086 0.82287 -0.11532
 C506 C 0.51257 0.81921 -0.09952
 N507 N 0.49367 0.83333 -0.10001
 N508 N 0.49319 0.85054 -0.11539
 N509 N 0.99114 0.30664 0.41385
 C510 C 0.99087 0.33096 0.41350
 N511 N 0.99206 0.34462 0.43449
 N512 N 0.99353 0.33435 0.45522
 C513 C 0.99387 0.30999 0.45584
 N514 N 0.99261 0.29636 0.43464
 C515 C 0.98967 0.34245 0.39134
 C516 C 0.98884 0.35339 0.37349
 C517 C 0.98807 0.36784 0.35321
 N518 N 0.97017 0.38286 0.35126
 N519 N 0.97050 0.39799 0.33376
 C520 C 0.98878 0.39875 0.31761
 N521 N 1.00657 0.38347 0.31953
 N522 N 1.00626 0.36833 0.33705
 N523 N 0.51382 0.93797 0.14201
 C524 C 0.51663 0.91652 0.15134
 N525 N 0.51623 0.91526 0.17551
 N526 N 0.51304 0.93492 0.18989
 C527 C 0.51010 0.95650 0.18059
 N528 N 0.51063 0.95757 0.15635
 C529 C 0.51915 0.89538 0.13559
 C530 C 0.52079 0.87816 0.12153
 C531 C 0.52219 0.85830 0.10392
 N532 N 0.53998 0.85842 0.08732
 N533 N 0.54030 0.84091 0.06986
 C534 C 0.52279 0.82268 0.06829
 N535 N 0.50509 0.82259 0.08510
 N536 N 0.50476 0.84010 0.10256
 N537 N 0.00157 0.35847 0.56347
 C538 C 0.00337 0.34918 0.58512
 N539 N 0.00410 0.32497 0.58618
 N540 N 0.00302 0.31051 0.56611
 C541 C 0.00118 0.31975 0.54430
 N542 N 0.00049 0.34403 0.54346
 C543 C 0.00438 0.36503 0.60650
 C544 C 0.00514 0.37930 0.62375
 C545 C 0.00597 0.39727 0.64345
 N546 N 0.02383 0.41503 0.64477
 N547 N 0.02384 0.43270 0.66207
 C548 C 0.00596 0.43334 0.67865
 N549 N -0.01184 0.41539 0.67731
 N550 N -0.01187 0.39770 0.65999
 N551 N 0.48988 0.08503 0.82478
 C552 C 0.48889 0.08358 0.84892
 N553 N 0.49003 0.06180 0.85811
 N554 N 0.49215 0.04206 0.84366
 C555 C 0.49325 0.04331 0.81945
 N556 N 0.49200 0.06522 0.81029
 C557 C 0.48755 0.10475 0.86488
 C558 C 0.48687 0.12176 0.87935
 C559 C 0.48661 0.14110 0.89765
 N560 N 0.50379 0.14347 0.91484
 N561 N 0.50306 0.16053 0.93267
 C562 C 0.48507 0.17584 0.93404
 N563 N 0.46791 0.17345 0.91667
 N564 N 0.46864 0.15635 0.89882
 N565 N 1.00613 0.67598 0.41420
 C566 C 1.00728 0.65183 0.41545
 N567 N 1.00791 0.64263 0.43725
 N568 N 1.00738 0.65707 0.45720
 C569 C 1.00619 0.68128 0.45616
 N570 N 1.00560 0.69045 0.43421
 C571 C 1.00746 0.63593 0.39415
 C572 C 1.00749 0.62164 0.37695
 C573 C 1.00739 0.60367 0.35728
 N574 N 1.02422 0.58720 0.35601
 N575 N 1.02331 0.56949 0.33870
 C576 C 1.00549 0.56754 0.32205
 N577 N 0.98873 0.58421 0.32334
 N578 N 0.98963 0.60193 0.34066
 N579 N 1.14722 0.49177 0.06298
 C580 C 1.15818 0.48674 0.08344
 N581 N 1.18233 0.48536 0.08352
 N582 N 1.19510 0.48897 0.06368
 C583 C 1.18422 0.49412 0.04304
 N584 N 1.15997 0.49538 0.04320
 C585 C 1.14419 0.48350 0.10475
 C586 C 1.13148 0.48126 0.12207
 C587 C 1.11532 0.47915 0.14200
 N588 N 1.09840 0.46052 0.14205
 N589 N 1.08205 0.45960 0.15948
 C590 C 1.08194 0.47733 0.17745
 N591 N 1.09909 0.49587 0.17739
 N592 N 1.11544 0.49679 0.15996
 N593 N 0.58546 -0.00730 0.68342
 C594 C 0.58479 -0.00705 0.65915
 N595 N 0.56354 -0.00492 0.64821
 N596 N 0.54356 -0.00302 0.66107
 C597 C 0.54402 -0.00317 0.68539
 N598 N 0.56540 -0.00541 0.69631
 C599 C 0.60619 -0.00837 0.64494
 C600 C 0.62334 -0.00906 0.63178
 C601 C 0.64274 -0.00944 0.61486
 N602 N 0.65768 -0.02770 0.61357
 N603 N 0.67464 -0.02871 0.59670
 C604 C 0.67718 -0.01157 0.58046
 N605 N 0.66221 0.00673 0.58197
 N606 N 0.64530 0.00776 0.59882
 N607 N -0.14896 0.50369 0.93693
 C608 C -0.15980 0.50707 0.91592
 N609 N -0.18395 0.50845 0.91548
 N610 N -0.19684 0.50645 0.93552
 C611 C -0.18605 0.50295 0.95672
 N612 N -0.16182 0.50168 0.95689
 C613 C -0.14559 0.50861 0.89453
 C614 C -0.13243 0.50947 0.87739
 C615 C -0.11549 0.50999 0.85800
 N616 N -0.09947 0.49278 0.85532
 N617 N -0.08261 0.49391 0.83842
 C618 C -0.08107 0.51233 0.82359
 N619 N -0.09730 0.52948 0.82626
 N620 N -0.11418 0.52836 0.84320
 N621 N 0.41638 0.01350 0.31640
 C622 C 0.41662 0.01284 0.34063
 N623 N 0.43730 0.00864 0.35170
 N624 N 0.45713 0.00515 0.33898
 C625 C 0.45707 0.00571 0.31469
 N626 N 0.43627 0.01001 0.30366
 C627 C 0.39528 0.01593 0.35460
 C628 C 0.37793 0.01809 0.36731
 C629 C 0.35801 0.02015 0.38348
 N630 N 0.34015 0.00242 0.38344
 N631 N 0.32273 0.00332 0.39981
 C632 C 0.32258 0.02193 0.41688
 N633 N 0.34045 0.03974 0.41668
 N634 N 0.35787 0.03885 0.40031
 N635 N 0.18584 0.52025 0.91693
 C636 C 0.16170 0.52181 0.91755
 N637 N 0.14993 0.51960 0.93862
 N638 N 0.16185 0.51586 0.95845
 C639 C 0.18601 0.51414 0.95801
 N640 N 0.19779 0.51652 0.93682
 C641 C 0.14838 0.52469 0.89614
 C642 C 0.13613 0.52652 0.87872
 C643 C 0.12041 0.52799 0.85869
 N644 N 0.10489 0.54569 0.85874
 N645 N 0.08878 0.54584 0.84124
 C646 C 0.08753 0.52825 0.82309
 N647 N 0.10330 0.51068 0.82305
 N648 N 0.11941 0.51051 0.84055
 N649 N 0.58427 -0.02019 0.31319
 C650 C 0.58354 -0.02163 0.33733
 N651 N 0.56240 -0.01940 0.34899
 N652 N 0.54262 -0.01576 0.33693
 C653 C 0.54317 -0.01418 0.31275
 N654 N 0.56443 -0.01657 0.30111
 C655 C 0.60490 -0.02438 0.35078
 C656 C 0.62228 -0.02610 0.36311
 C657 C 0.64228 -0.02745 0.37889
 N658 N 0.64227 -0.04510 0.39446
 N659 N 0.65976 -0.04515 0.41061
 C660 C 0.67784 -0.02750 0.41185
 N661 N 0.67785 -0.00997 0.39603
 N662 N 0.66037 -0.00992 0.37988
 N663 N 0.84847 0.48491 0.06293
 C664 C 0.83707 0.48529 0.08437
 N665 N 0.81306 0.48776 0.08512
 N666 N 0.80089 0.48987 0.06495
 C667 C 0.81232 0.48967 0.04336
 N668 N 0.83634 0.48705 0.04283
 C669 C 0.85076 0.48430 0.10591
 C670 C 0.86360 0.48400 0.12316
 C671 C 0.88028 0.48428 0.14266
 N672 N 0.88014 0.46569 0.15716
 N673 N 0.89680 0.46539 0.17414
 C674 C 0.91426 0.48359 0.17713
 N675 N 0.91417 0.50221 0.16260
 N676 N 0.89752 0.50253 0.14567
 N677 N 0.43704 0.01493 0.65101
 C678 C 0.41553 0.01461 0.66230
 N679 N 0.41466 0.01222 0.68631
 N680 N 0.43476 0.01012 0.69860
 C681 C 0.45641 0.01026 0.68728
 N682 N 0.45707 0.01281 0.66326
 C683 C 0.39407 0.01557 0.64849
 C684 C 0.37688 0.01583 0.63556
 C685 C 0.35746 0.01551 0.61879
 N686 N 0.34287 0.03403 0.61891
 N687 N 0.32594 0.03428 0.60219
 C688 C 0.32309 0.01610 0.58469
 N689 N 0.33772 -0.00244 0.58480
 N690 N 0.35460 -0.00271 0.60150
   
