data_POSCAR
  _audit_creation_date              2014-09-24
  _audit_creation_method            'ToBaCCo'
  _symmetry_space_group_name_H-M    'P1'
  _symmetry_Int_Tables_number       1
  _symmetry_cell_setting            triclinic
  loop_
  _symmetry_equiv_pos_as_xyz
 x,y,z
_cell_length_a 11.5653
_cell_length_b 11.0335
_cell_length_c 11.9193
_cell_angle_alpha 90.341800
_cell_angle_beta 89.878300
_cell_angle_gamma 89.721900
loop_
  _atom_site_label
  _atom_site_type_symbol
  _atom_site_fract_x
  _atom_site_fract_y
  _atom_site_fract_z
N1 N 0.22478 0.20639 0.23411
 N2 N -0.23454 0.77271 0.23058
 N3 N -0.22635 0.21833 -0.21073
 N4 N 0.21970 0.76857 -0.24528
 N5 N 0.22266 1.21731 0.78000
 N6 N 0.77482 0.79645 0.76044
 N7 N 0.22587 0.78291 1.22826
 N8 N 0.78884 1.22522 1.23707
 O9 O 0.58566 0.86552 0.79586
 O10 O 0.38092 0.92125 1.22645
 O11 O 0.69049 0.86307 1.06836
 O12 O 0.33391 0.81618 0.90792
 O13 O 0.60015 0.90140 1.21806
 O14 O 0.36712 0.91432 0.76604
 O15 O 0.34626 0.81759 1.08471
 O16 O 0.72967 0.94248 0.89374
 C17 C 0.69178 0.86652 0.82252
 C18 C 0.32507 0.83402 1.18239
 C19 C 0.67781 0.84174 1.16860
 C20 C 0.31578 0.82849 0.80918
 O21 O 0.40367 1.13916 0.79875
 O22 O 0.61643 1.14600 1.16773
 O23 O 0.66382 1.16673 0.95039
 O24 O 0.26594 1.05294 1.10610
 O25 O 0.40821 1.15645 1.16709
 O26 O 0.61582 1.09596 0.79141
 O27 O 0.26493 1.06616 0.90311
 O28 O 0.78060 1.07365 1.09547
 Co29 Co 0.49339 1.00175 0.81001
 Co30 Co 0.50107 1.02554 1.17634
 Co31 Co 0.66119 1.01480 1.01539
 Co32 Co 0.31783 0.94593 0.99941
 O33 O 0.48965 0.99173 0.99495
 C34 C 0.30111 1.14520 0.83451
 C35 C 0.72737 1.14629 1.16842
 C36 C 0.67572 1.16660 0.84597
 C37 C 0.30298 1.14020 1.16259
 O38 O 0.14558 0.38329 0.16365
 O39 O 0.08933 0.60351 -0.22683
 O40 O 0.15033 0.30320 -0.05560
 O41 O 0.06757 0.75200 0.10910
 O42 O 0.07831 0.36823 -0.21273
 O43 O 0.16075 0.59812 0.16300
 O44 O 0.12684 0.70620 -0.07881
 O45 O 0.06426 0.20951 0.11067
 C46 C 0.13859 0.26923 0.17300
 C47 C 0.14417 0.68822 -0.18085
 C48 C 0.15108 0.29984 -0.16152
 C49 C 0.15253 0.71003 0.16296
 O50 O -0.07474 0.62591 0.22119
 O51 O -0.15084 0.40266 -0.17081
 O52 O -0.13283 0.31109 0.08137
 O53 O -0.07551 0.79107 -0.10128
 O54 O -0.13850 0.61836 -0.17701
 O55 O -0.07832 0.38810 0.23307
 O56 O -0.15129 0.68722 0.06605
 O57 O -0.07155 0.25037 -0.08899
 Co58 Co 0.03375 0.50074 0.17910
 Co59 Co -0.02583 0.49806 -0.17873
 Co60 Co 0.01055 0.32406 0.02043
 Co61 Co -0.01215 0.68160 -0.00857
 O62 O 0.00129 0.50255 0.00160
 C63 C -0.15346 0.68819 0.17090
 C64 C -0.14862 0.29367 -0.15125
 C65 C -0.14280 0.31236 0.18374
 C66 C -0.14101 0.73322 -0.17283
 O67 O 1.20614 0.13898 0.42158
 O68 O 0.76072 0.09123 0.62917
 O69 O 0.90221 0.07208 0.29183
 O70 O 1.09508 0.18461 0.64018
 O71 O 0.80089 0.15923 0.42161
 O72 O 1.23754 0.07944 0.63288
 O73 O 0.91064 0.18511 0.64742
 O74 O 1.10121 0.05745 0.28796
 C75 C 1.17389 0.13489 0.32011
 C76 C 0.81205 0.17157 0.68058
 C77 C 0.83777 0.15844 0.32159
 C78 C 1.19096 0.17026 0.67641
 O79 O 1.19953 -0.14602 0.57553
 O80 O 0.76170 -0.06726 0.36675
 O81 O 1.08455 -0.18258 0.35695
 O82 O 0.89956 -0.05509 0.71232
 O83 O 0.79268 -0.12874 0.57609
 O84 O 1.23283 -0.08428 0.37458
 O85 O 1.10312 -0.06556 0.71352
 O86 O 0.90083 -0.17700 0.36754
 Co87 Co 1.19374 -0.00149 0.50136
 Co88 Co 0.80576 0.01320 0.49832
 Co89 Co 0.99533 -0.04977 0.33949
 Co90 Co 1.00328 0.05532 0.66536
 O91 O 1.00010 0.00479 0.50156
 C92 C 1.16617 -0.15030 0.67566
 C93 C 0.80442 -0.16371 0.33174
 C94 C 1.18368 -0.16805 0.32614
 C95 C 0.82710 -0.13069 0.67692
   
