data_POSCAR
  _audit_creation_date              2014-09-24
  _audit_creation_method            'ToBaCCo'
  _symmetry_space_group_name_H-M    'P1'
  _symmetry_Int_Tables_number       1
  _symmetry_cell_setting            triclinic
  loop_
  _symmetry_equiv_pos_as_xyz
 x,y,z
_cell_length_a 49.2894
_cell_length_b 35.4781
_cell_length_c 21.1168
_cell_angle_alpha 89.882700
_cell_angle_beta 89.463800
_cell_angle_gamma 89.145400
loop_
  _atom_site_label
  _atom_site_type_symbol
  _atom_site_fract_x
  _atom_site_fract_y
  _atom_site_fract_z
C1 C 0.69681 0.33650 0.46354
 C2 C 0.69386 0.33509 0.52786
 C3 C 0.71555 0.31384 0.55122
 N4 N 0.73088 0.30095 0.50197
 C5 C 0.71958 0.31500 0.44851
 C6 C 0.71901 0.30228 0.61551
 C7 C 0.73957 0.27570 0.63265
 C8 C 0.73898 0.25243 0.68570
 C9 C 0.76379 0.23446 0.68889
 C10 C 0.77921 0.24735 0.63823
 N11 N 0.76418 0.27216 0.60381
 C12 C 0.80683 0.23749 0.62634
 C13 C 0.81908 0.24469 0.56659
 C14 C 0.84671 0.24796 0.55476
 C15 C 0.84988 0.25087 0.49034
 C16 C 0.82409 0.25024 0.46517
 N17 N 0.80525 0.24677 0.51171
 C18 C 0.81820 0.25002 0.39997
 C19 C 0.79254 0.26101 0.37675
 C20 C 0.78393 0.25595 0.31505
 C21 C 0.75857 0.27237 0.31113
 C22 C 0.75235 0.28680 0.37061
 N23 N 0.77322 0.27999 0.41022
 C24 C 0.72825 0.30679 0.38588
 H25 H 0.68301 0.35070 0.43151
 H26 H 0.67646 0.34672 0.55276
 H27 H 0.77534 0.29086 0.45555
 H28 H 0.72250 0.24817 0.71891
 H29 H 0.76960 0.21411 0.72467
 H30 H 0.86294 0.24814 0.58890
 H31 H 0.86894 0.25339 0.46490
 H32 H 0.74609 0.27346 0.26923
 H33 H 0.77145 0.28909 0.56724
 H34 H 0.79477 0.24201 0.27671
 C35 C 0.32174 0.67347 0.52318
 C36 C 0.32669 0.68169 0.46077
 C37 C 0.31130 0.71361 0.44661
 N38 N 0.29754 0.72549 0.49881
 C39 C 0.30381 0.70091 0.54559
 C40 C 0.31161 0.73272 0.38768
 C41 C 0.29429 0.76360 0.37356
 C42 C 0.29673 0.78674 0.32080
 C43 C 0.27428 0.81035 0.32072
 C44 C 0.25886 0.80097 0.37348
 N45 N 0.27115 0.77250 0.40524
 C46 C 0.23272 0.81537 0.38746
 C47 C 0.21972 0.81010 0.44658
 C48 C 0.19254 0.81773 0.45882
 C49 C 0.18840 0.81080 0.52188
 C50 C 0.21338 0.80032 0.54680
 N51 N 0.23247 0.79953 0.50042
 C52 C 0.21848 0.79308 0.61179
 C53 C 0.24067 0.76999 0.63147
 C54 C 0.24940 0.76598 0.69357
 C55 C 0.27079 0.74068 0.69270
 C56 C 0.27490 0.73023 0.63014
 N57 N 0.25634 0.74789 0.59316
 C58 C 0.29519 0.70441 0.60936
 H59 H 0.33069 0.65020 0.54925
 H60 H 0.34041 0.66610 0.42995
 H61 H 0.25310 0.74256 0.54547
 H62 H 0.31260 0.78597 0.28502
 H63 H 0.26947 0.83124 0.28495
 H64 H 0.17715 0.82710 0.42594
 H65 H 0.16908 0.81309 0.54640
 H66 H 0.28232 0.73155 0.73346
 H67 H 0.26226 0.75669 0.44108
 H68 H 0.24155 0.78005 0.73543
 C69 C 0.15201 0.24230 -0.53467
 C70 C 0.15053 0.24574 -0.47003
 C71 C 0.17683 0.24201 -0.44809
 N72 N 0.19437 0.23676 -0.49690
 C73 C 0.17916 0.23608 -0.54983
 C74 C 0.18443 0.24139 -0.38374
 C75 C 0.20919 0.25787 -0.36484
 C76 C 0.22015 0.25635 -0.30443
 C77 C 0.24337 0.27736 -0.30594
 C78 C 0.24637 0.29056 -0.36734
 N79 N 0.22540 0.27890 -0.40281
 C80 C 0.26803 0.31313 -0.38846
 C81 C 0.27540 0.31765 -0.45294
 C82 C 0.29634 0.34009 -0.47411
 C83 C 0.29943 0.33324 -0.53745
 C84 C 0.27949 0.30786 -0.55435
 N85 N 0.26521 0.29792 -0.50183
 C86 C 0.27687 0.29019 -0.61465
 C87 C 0.25691 0.26243 -0.62515
 C88 C 0.25722 0.23618 -0.67412
 C89 C 0.23243 0.21911 -0.67362
 C90 C 0.21746 0.23525 -0.62461
 N91 N 0.23260 0.26117 -0.59477
 C92 C 0.18992 0.22794 -0.61072
 H93 H 0.13506 0.24442 -0.56672
 H94 H 0.13227 0.25069 -0.44221
 H95 H 0.22524 0.28035 -0.56125
 H96 H 0.21260 0.24165 -0.26315
 H97 H 0.25683 0.28175 -0.26652
 H98 H 0.30905 0.35826 -0.44642
 H99 H 0.31583 0.34439 -0.56562
 H100 H 0.22619 0.19737 -0.70602
 H101 H 0.22130 0.28733 -0.44900
 H102 H 0.27328 0.22976 -0.70771
 C103 C -0.33853 0.72162 -0.47100
 C104 C -0.33630 0.71727 -0.53534
 C105 C -0.30883 0.71322 -0.54906
 N106 N -0.29416 0.71621 -0.49552
 C107 C -0.31234 0.72076 -0.44776
 C108 C -0.29724 0.70521 -0.60925
 C109 C -0.26996 0.71444 -0.62246
 C110 C -0.25417 0.69905 -0.67076
 C111 C -0.23014 0.71809 -0.67125
 C112 C -0.23174 0.74473 -0.62297
 N113 N -0.25605 0.74180 -0.59298
 C114 C -0.21300 0.77410 -0.61275
 C115 C -0.21102 0.79197 -0.55248
 C116 C -0.19171 0.81822 -0.53536
 C117 C -0.19520 0.82509 -0.47214
 C118 C -0.21577 0.80191 -0.45130
 N119 N -0.22530 0.78159 -0.50023
 C120 C -0.22343 0.79748 -0.38701
 C121 C -0.24480 0.77438 -0.36602
 C122 C -0.24814 0.76207 -0.30417
 C123 C -0.27095 0.74027 -0.30280
 C124 C -0.28131 0.74035 -0.36381
 N125 N -0.26517 0.76133 -0.40198
 C126 C -0.30543 0.72242 -0.38303
 H127 H -0.35721 0.72552 -0.44432
 H128 H -0.35303 0.71748 -0.56815
 H129 H -0.26903 0.76882 -0.44874
 H130 H -0.25940 0.67658 -0.70278
 H131 H -0.21369 0.71264 -0.70427
 H132 H -0.17543 0.82990 -0.56332
 H133 H -0.18299 0.84384 -0.44427
 H134 H -0.27865 0.72592 -0.26131
 H135 H -0.26431 0.76074 -0.56017
 H136 H -0.23516 0.76762 -0.26428
 N137 N 0.02629 1.04454 -0.07080
 N138 N 0.04439 1.06959 -0.08891
 N139 N -0.03227 1.01949 -0.10059
 N140 N -0.05246 1.02584 -0.13973
 N141 N -0.03054 1.04689 -0.05905
 N142 N -0.04942 1.07303 -0.06977
 N143 N 0.02457 1.01747 -0.11292
 N144 N 0.04157 1.02327 -0.16048
 C145 C 0.05393 1.05565 -0.14465
 C146 C -0.06308 1.05906 -0.11988
 N147 N -0.03209 0.91282 -0.05335
 N148 N -0.05142 0.88789 -0.06007
 N149 N 0.02378 0.93614 -0.10973
 N150 N 0.04402 0.93143 -0.15048
 N151 N 0.02465 0.91006 -0.06559
 N152 N 0.04545 0.88684 -0.07511
 N153 N -0.03335 0.93849 -0.09811
 N154 N -0.05379 0.93182 -0.13638
 Mn155 Mn -0.00431 0.97789 -0.10599
 C156 C -0.06498 0.90033 -0.11152
 C157 C 0.05725 0.90045 -0.12831
 N158 N -0.02543 1.04817 0.07839
 N159 N -0.04267 1.07520 0.09596
 N160 N 0.03286 1.01880 0.10882
 N161 N 0.05275 1.02485 0.14847
 N162 N 0.03133 1.04580 0.06623
 N163 N 0.05005 1.07139 0.07672
 N164 N -0.02385 1.02193 0.12228
 N165 N -0.04011 1.03015 0.17034
 Mn166 Mn 0.00038 1.04685 0.00364
 C167 C -0.05188 1.06316 0.15312
 C168 C 0.06346 1.05741 0.12771
 N169 N 0.02947 0.91122 0.06926
 N170 N 0.05002 0.88708 0.07233
 N171 N -0.02512 0.94119 0.12468
 N172 N -0.04525 0.94003 0.16611
 N173 N -0.02742 0.91448 0.08226
 N174 N -0.04920 0.89421 0.09387
 N175 N 0.03188 0.93793 0.11157
 N176 N 0.05422 0.93270 0.14478
 Mn177 Mn -0.00141 0.91175 0.00821
 Mn178 Mn 0.00400 0.97993 0.11738
 Cl179 Cl -0.00036 0.97922 0.00575
 C180 C 0.06526 0.90081 0.11958
 C181 C -0.05995 0.91048 0.14663
 N182 N 0.53521 0.51019 0.11119
 N183 N 0.55585 0.51255 0.14999
 N184 N 0.47909 0.54719 0.08314
 N185 N 0.46029 0.57303 0.09607
 N186 N 0.47879 0.52023 0.12580
 N187 N 0.45982 0.52695 0.16894
 N188 N 0.53559 0.53761 0.06935
 N189 N 0.55639 0.55992 0.07954
 C190 C 0.56899 0.54340 0.12954
 C191 C 0.44854 0.56000 0.14991
 N192 N 0.46875 0.52393 -0.09569
 N193 N 0.44863 0.53487 -0.13267
 N194 N 0.52960 0.53978 -0.06754
 N195 N 0.54938 0.56242 -0.08514
 N196 N 0.52515 0.51458 -0.11163
 N197 N 0.54183 0.51926 -0.16009
 N198 N 0.47331 0.54952 -0.05229
 N199 N 0.45647 0.57851 -0.05864
 Mn200 Mn 0.50451 0.54396 0.00816
 C201 C 0.44104 0.56879 -0.10841
 C202 C 0.55695 0.54891 -0.14275
 N203 N 0.47243 0.43991 0.12408
 N204 N 0.45241 0.44021 0.16590
 N205 N 0.52508 0.40470 0.06606
 N206 N 0.54366 0.37757 0.06983
 N207 N 0.52893 0.43029 0.10966
 N208 N 0.55037 0.42159 0.14389
 N209 N 0.46853 0.41424 0.08055
 N210 N 0.44567 0.39627 0.09168
 Mn211 Mn 0.50384 0.47513 0.11828
 C212 C 0.43601 0.41274 0.14536
 C213 C 0.55935 0.38868 0.11841
 N214 N 0.51931 0.43403 -0.11260
 N215 N 0.53995 0.42953 -0.15225
 N216 N 0.46294 0.41592 -0.05473
 N217 N 0.44259 0.39278 -0.06264
 N218 N 0.46252 0.44276 -0.09764
 N219 N 0.44171 0.43852 -0.13599
 N220 N 0.51940 0.40719 -0.06961
 N221 N 0.54000 0.38358 -0.07925
 Mn222 Mn 0.49380 0.47880 -0.10510
 Mn223 Mn 0.49398 0.41007 0.00552
 Cl224 Cl 0.49904 0.47704 0.00661
 C225 C 0.55248 0.39775 -0.13124
 C226 C 0.42933 0.40743 -0.11286
 C227 C 0.29504 0.29838 0.33495
 C228 C 0.30355 0.33477 0.32008
 C229 C 0.32552 0.34330 0.27398
 C230 C 0.33083 0.38122 0.26029
 C231 C 0.35294 0.39098 0.22218
 C232 C 0.37025 0.36290 0.19688
 C233 C 0.36436 0.32496 0.20804
 C234 C 0.34243 0.31515 0.24686
 C235 C 0.39501 0.37261 0.16085
 C236 C 0.41036 0.40369 0.17708
 H237 H 0.29359 0.35841 0.34352
 H238 H 0.31817 0.40348 0.28031
 H239 H 0.35658 0.42051 0.21299
 H240 H 0.37743 0.30289 0.18883
 H241 H 0.33955 0.28560 0.25676
 H242 H 0.40267 0.35313 0.12526
 H243 H 0.30006 0.27675 0.30101
 H244 H 0.40409 0.42130 0.21656
 C245 C -0.19536 0.78384 0.33660
 C246 C -0.18818 0.82089 0.32242
 C247 C -0.16672 0.83121 0.27616
 C248 C -0.16324 0.86950 0.26193
 C249 C -0.14163 0.88109 0.22377
 C250 C -0.12296 0.85452 0.19905
 C251 C -0.12702 0.81613 0.21077
 C252 C -0.14848 0.80451 0.24958
 C253 C -0.09869 0.86634 0.16305
 C254 C -0.08508 0.89913 0.17843
 H255 H -0.19885 0.84369 0.34655
 H256 H -0.17697 0.89066 0.28154
 H257 H -0.13945 0.91087 0.21409
 H258 H -0.11289 0.79520 0.19202
 H259 H -0.14996 0.77480 0.26005
 H260 H -0.08994 0.84729 0.12811
 H261 H -0.18981 0.76288 0.30186
 H262 H -0.09236 0.91653 0.21727
 C263 C 0.68762 0.68810 0.34220
 C264 C 0.66597 0.66388 0.35338
 C265 C 0.64989 0.64664 0.30247
 C266 C 0.63501 0.61436 0.31690
 C267 C 0.61889 0.59763 0.27127
 C268 C 0.61729 0.61278 0.20972
 C269 C 0.63174 0.64555 0.19549
 C270 C 0.64797 0.66234 0.24132
 C271 C 0.59942 0.59616 0.16145
 C272 C 0.59212 0.55842 0.16385
 H273 H 0.66186 0.65463 0.40136
 H274 H 0.63568 0.60214 0.36394
 H275 H 0.60713 0.57344 0.28523
 H276 H 0.63037 0.65824 0.14890
 H277 H 0.65841 0.68797 0.22904
 H278 H 0.59093 0.61432 0.12514
 H279 H 0.69462 0.69103 0.29376
 H280 H 0.60169 0.53965 0.19764
 C281 C 0.17388 1.21208 0.34110
 C282 C 0.15147 1.18927 0.35275
 C283 C 0.13574 1.17117 0.30205
 C284 C 0.12098 1.13891 0.31733
 C285 C 0.10597 1.12059 0.27136
 C286 C 0.10536 1.13413 0.20868
 C287 C 0.11933 1.16718 0.19369
 C288 C 0.13451 1.18553 0.23987
 C289 C 0.08930 1.11491 0.15968
 C290 C 0.08478 1.07631 0.16290
 H291 H 0.14694 1.18082 0.40093
 H292 H 0.12112 1.12770 0.36510
 H293 H 0.09446 1.09621 0.28555
 H294 H 0.11865 1.17863 0.14614
 H295 H 0.14485 1.21112 0.22688
 H296 H 0.08023 1.13148 0.12205
 H297 H 0.18085 1.21438 0.29255
 H298 H 0.09521 1.05950 0.19819
 C299 C 0.70065 0.31496 -0.33666
 C300 C 0.69027 0.35183 -0.33379
 C301 C 0.66661 0.36352 -0.29425
 C302 C 0.64903 0.33729 -0.26608
 C303 C 0.62534 0.34946 -0.23480
 C304 C 0.61868 0.38810 -0.23130
 C305 C 0.63634 0.41419 -0.25895
 C306 C 0.66005 0.40205 -0.28991
 C307 C 0.59295 0.40214 -0.20256
 C308 C 0.57772 0.38195 -0.15840
 H309 H 0.69943 0.37312 -0.36367
 H310 H 0.65282 0.30729 -0.27005
 H311 H 0.61188 0.32841 -0.21573
 H312 H 0.63160 0.44409 -0.25729
 H313 H 0.67302 0.42285 -0.31182
 H314 H 0.58616 0.43035 -0.21519
 H315 H 0.69661 0.29738 -0.29608
 H316 H 0.58493 0.35502 -0.14074
 C317 C 0.20083 0.80854 -0.34136
 C318 C 0.18763 0.84351 -0.34857
 C319 C 0.16545 0.85765 -0.30694
 C320 C 0.15039 0.83366 -0.26738
 C321 C 0.12778 0.84753 -0.23378
 C322 C 0.11980 0.88567 -0.23909
 C323 C 0.13503 0.90955 -0.27815
 C324 C 0.15759 0.89571 -0.31166
 C325 C 0.09510 0.90122 -0.20764
 C326 C 0.08194 0.88392 -0.15689
 H327 H 0.19374 0.86159 -0.38745
 H328 H 0.15526 0.80391 -0.26408
 H329 H 0.11617 0.82788 -0.20574
 H330 H 0.12926 0.93897 -0.28343
 H331 H 0.16864 0.91470 -0.34238
 H332 H 0.08723 0.92809 -0.22445
 H333 H 0.19891 0.79445 -0.29613
 H334 H 0.09008 0.85840 -0.13594
 C335 C 0.30902 0.68086 -0.34232
 C336 C 0.33678 0.68415 -0.33218
 C337 C 0.35241 0.65866 -0.29037
 C338 C 0.37666 0.67142 -0.26437
 C339 C 0.39300 0.64725 -0.22836
 C340 C 0.38556 0.60957 -0.21845
 C341 C 0.36140 0.59669 -0.24486
 C342 C 0.34481 0.62107 -0.28008
 C343 C 0.40351 0.58280 -0.18444
 C344 C 0.42061 0.59420 -0.13620
 H345 H 0.34755 0.70638 -0.35658
 H346 H 0.38314 0.70008 -0.27258
 H347 H 0.41191 0.65779 -0.21030
 H348 H 0.35547 0.56762 -0.23861
 H349 H 0.32661 0.61007 -0.30105
 H350 H 0.40309 0.55327 -0.19737
 H351 H 0.29698 0.66223 -0.31316
 H352 H 0.41937 0.62282 -0.11861
 C353 C -0.17817 1.21972 -0.32459
 C354 C -0.15709 1.19364 -0.33608
 C355 C -0.14111 1.17433 -0.28618
 C356 C -0.12613 1.14197 -0.30317
 C357 C -0.11010 1.12307 -0.25893
 C358 C -0.10870 1.13599 -0.19610
 C359 C -0.12318 1.16889 -0.17919
 C360 C -0.13935 1.18789 -0.22372
 C361 C -0.09121 1.11647 -0.14910
 C362 C -0.08506 1.07813 -0.15433
 H363 H -0.15335 1.18446 -0.38430
 H364 H -0.12666 1.13131 -0.35119
 H365 H -0.09833 1.09887 -0.27481
 H366 H -0.12199 1.17986 -0.13148
 H367 H -0.14992 1.21343 -0.20930
 H368 H -0.08248 1.13265 -0.11112
 H369 H -0.18496 1.22326 -0.27612
 H370 H -0.09517 1.06147 -0.18962
 C371 C 0.67733 0.70609 -0.33666
 C372 C 0.66088 0.67516 -0.34940
 C373 C 0.64421 0.65577 -0.30099
 C374 C 0.63811 0.61773 -0.31038
 C375 C 0.62162 0.59850 -0.26745
 C376 C 0.61024 0.61722 -0.21456
 C377 C 0.61675 0.65517 -0.20454
 C378 C 0.63352 0.67435 -0.24736
 C379 C 0.59137 0.59833 -0.16973
 C380 C 0.57748 0.56556 -0.18476
 H381 H 0.66226 0.66198 -0.39557
 H382 H 0.64626 0.60271 -0.35112
 H383 H 0.61807 0.56900 -0.27612
 H384 H 0.60838 0.67026 -0.16415
 H385 H 0.63743 0.70387 -0.23923
 H386 H 0.58692 0.61199 -0.12489
 H387 H 0.67888 0.71473 -0.28782
 H388 H 0.58030 0.55233 -0.23041
 C389 C 0.16742 1.22416 -0.33768
 C390 C 0.14911 1.19557 -0.35238
 C391 C 0.13243 1.17462 -0.30551
 C392 C 0.11948 1.14190 -0.32591
 C393 C 0.10342 1.12094 -0.28444
 C394 C 0.09996 1.13207 -0.22091
 C395 C 0.11255 1.16515 -0.20061
 C396 C 0.12860 1.18628 -0.24232
 C397 C 0.08256 1.11095 -0.17561
 C398 C 0.07359 1.07437 -0.18646
 H399 H 0.14849 1.18541 -0.40064
 H400 H 0.12170 1.13247 -0.37449
 H401 H 0.09343 1.09654 -0.30320
 H402 H 0.10989 1.17478 -0.15226
 H403 H 0.13753 1.21180 -0.22480
 H404 H 0.07637 1.12492 -0.13211
 H405 H 0.17041 1.23041 -0.28836
 H406 H 0.08028 1.05888 -0.22786
 C407 C 0.28483 0.33163 -0.33994
 C408 C 0.31200 0.32135 -0.33212
 C409 C 0.33096 0.34262 -0.29237
 C410 C 0.35391 0.32394 -0.26830
 C411 C 0.37327 0.34366 -0.23427
 C412 C 0.37026 0.38271 -0.22446
 C413 C 0.34749 0.40155 -0.24927
 C414 C 0.32784 0.38166 -0.28245
 C415 C 0.39127 0.40432 -0.19122
 C416 C 0.40630 0.38852 -0.14209
 H417 H 0.31983 0.29693 -0.35753
 H418 H 0.35699 0.29403 -0.27635
 H419 H 0.39100 0.32848 -0.21740
 H420 H 0.34495 0.43170 -0.24306
 H421 H 0.31078 0.39709 -0.30208
 H422 H 0.39456 0.43338 -0.20473
 H423 H 0.27547 0.35298 -0.31004
 H424 H 0.40124 0.36083 -0.12431
 C425 C -0.20727 0.81688 -0.33840
 C426 C -0.18013 0.80708 -0.32888
 C427 C -0.16173 0.82927 -0.28919
 C428 C -0.13882 0.81143 -0.26328
 C429 C -0.11993 0.83209 -0.22937
 C430 C -0.12343 0.87123 -0.22154
 C431 C -0.14620 0.88918 -0.24802
 C432 C -0.16534 0.86838 -0.28111
 C433 C -0.10287 0.89398 -0.18908
 C434 C -0.08735 0.87950 -0.13967
 H435 H -0.17188 0.78242 -0.35292
 H436 H -0.13537 0.78145 -0.26990
 H437 H -0.10218 0.81755 -0.21118
 H438 H -0.14910 0.91938 -0.24336
 H439 H -0.18238 0.88317 -0.30218
 H440 H -0.10029 0.92304 -0.20352
 H441 H -0.21705 0.83856 -0.30991
 H442 H -0.09158 0.85179 -0.12076
 C443 C 0.33143 0.72031 0.33863
 C444 C 0.32890 0.68535 0.30944
 C445 C 0.35030 0.66793 0.26906
 C446 C 0.35136 0.62852 0.26422
 C447 C 0.37218 0.61057 0.23006
 C448 C 0.39235 0.63178 0.19964
 C449 C 0.39057 0.67126 0.20179
 C450 C 0.36982 0.68927 0.23647
 C451 C 0.41526 0.61341 0.16537
 C452 C 0.42568 0.57827 0.18325
 H453 H 0.31171 0.66823 0.32277
 H454 H 0.33633 0.61148 0.28811
 H455 H 0.37232 0.58011 0.22739
 H456 H 0.40561 0.68819 0.17770
 H457 H 0.36916 0.71974 0.23743
 H458 H 0.42523 0.62889 0.12771
 H459 H 0.34827 0.73848 0.32779
 H460 H 0.41738 0.56382 0.22406
 C461 C -0.16088 1.23643 0.35393
 C462 C -0.14671 1.20261 0.36402
 C463 C -0.12852 1.18404 0.31689
 C464 C -0.11105 1.15521 0.33797
 C465 C -0.09470 1.13504 0.29526
 C466 C -0.09575 1.14286 0.22997
 C467 C -0.11268 1.17236 0.20888
 C468 C -0.12907 1.19266 0.25176
 C469 C -0.07921 1.12102 0.18343
 C470 C -0.07044 1.08415 0.19532
 H471 H -0.14959 1.18830 0.40893
 H472 H -0.11008 1.14814 0.38785
 H473 H -0.08114 1.11359 0.31388
 H474 H -0.11369 1.17914 0.15890
 H475 H -0.14257 1.21419 0.23325
 H476 H -0.07429 1.13395 0.13831
 H477 H -0.15876 1.25137 0.30956
 H478 H -0.07665 1.07001 0.23836
 C479 C 0.71119 0.32024 0.33285
 C480 C 0.68492 0.30722 0.32479
 C481 C 0.66510 0.32593 0.28259
 C482 C 0.64279 0.30566 0.26107
 C483 C 0.62229 0.32367 0.22642
 C484 C 0.62363 0.36251 0.21355
 C485 C 0.64603 0.38268 0.23472
 C486 C 0.66666 0.36461 0.26857
 C487 C 0.60108 0.38341 0.18325
 C488 C 0.58281 0.36707 0.14192
 H489 H 0.67821 0.28358 0.35320
 H490 H 0.64095 0.27598 0.27222
 H491 H 0.60495 0.30748 0.21223
 H492 H 0.64731 0.41272 0.22609
 H493 H 0.68313 0.38139 0.28608
 H494 H 0.59898 0.41326 0.19345
 H495 H 0.71962 0.34067 0.30032
 H496 H 0.58581 0.33834 0.12592
 C497 C 0.21804 0.83689 0.33821
 C498 C 0.19699 0.82009 0.30557
 C499 C 0.17571 0.84116 0.27061
 C500 C 0.15715 0.82061 0.23507
 C501 C 0.13490 0.83853 0.20699
 C502 C 0.13073 0.87766 0.21367
 C503 C 0.14946 0.89833 0.24858
 C504 C 0.17175 0.88037 0.27674
 C505 C 0.10640 0.89730 0.18830
 C506 C 0.09047 0.88242 0.14055
 H507 H 0.19467 0.78988 0.31074
 H508 H 0.15945 0.79032 0.23046
 H509 H 0.12059 0.82124 0.18225
 H510 H 0.14658 0.92841 0.25503
 H511 H 0.18510 0.89723 0.30498
 H512 H 0.10088 0.92463 0.20778
 H513 H 0.22266 0.86635 0.33213
 H514 H 0.09646 0.85656 0.11697
   
