data_POSCAR
  _audit_creation_date              2014-09-24
  _audit_creation_method            'ToBaCCo'
  _symmetry_space_group_name_H-M    'P1'
  _symmetry_Int_Tables_number       1
  _symmetry_cell_setting            triclinic
  loop_
  _symmetry_equiv_pos_as_xyz
 x,y,z
_cell_length_a 43.0721
_cell_length_b 42.4450
_cell_length_c 8.6377
_cell_angle_alpha 89.769500
_cell_angle_beta 89.836700
_cell_angle_gamma 90.038300
loop_
  _atom_site_label
  _atom_site_type_symbol
  _atom_site_fract_x
  _atom_site_fract_y
  _atom_site_fract_z
O1 O 0.22298 0.28108 0.12486
 O2 O 0.28284 0.21983 0.16002
 O3 O 0.22312 0.21962 0.11540
 O4 O 0.28277 0.28066 0.17138
 O5 O 0.27595 0.27893 0.42415
 O6 O 0.21542 0.21855 0.36734
 O7 O 0.27548 0.21759 0.41232
 O8 O 0.21606 0.27959 0.37760
 Cu9 Cu 0.25370 0.25053 0.11887
 Cu10 Cu 0.24489 0.24843 0.41938
 C11 C 0.20914 0.29077 0.24566
 C12 C 0.28964 0.20837 0.29145
 C13 C 0.20872 0.20874 0.23275
 C14 C 0.28992 0.29000 0.30603
 O15 O 0.71728 0.28138 0.16568
 O16 O 0.77746 0.22148 0.10003
 O17 O 0.71771 0.22050 0.15117
 O18 O 0.77697 0.28261 0.11784
 O19 O 0.78494 0.27932 0.36898
 O20 O 0.72464 0.21824 0.40362
 O21 O 0.78421 0.21821 0.35240
 O22 O 0.72490 0.27953 0.41767
 Cu23 Cu 0.74651 0.25180 0.10951
 Cu24 Cu 0.75556 0.24857 0.40985
 C25 C 0.71056 0.29065 0.30116
 C26 C 0.79120 0.20953 0.21620
 C27 C 0.71074 0.20896 0.28259
 C28 C 0.79149 0.29140 0.23808
 O29 O 0.78501 0.71954 0.64150
 O30 O 0.72627 0.78117 0.57988
 O31 O 0.78580 0.78061 0.63857
 O32 O 0.72556 0.71994 0.58461
 O33 O 0.71642 0.72056 0.83577
 O34 O 0.77614 0.78173 0.88890
 O35 O 0.71673 0.78150 0.83070
 O36 O 0.77588 0.72028 0.89267
 Cu37 Cu 0.75670 0.75028 0.58679
 Cu38 Cu 0.74533 0.75109 0.88657
 C39 C 0.79071 0.70950 0.77706
 C40 C 0.71109 0.79159 0.69513
 C41 C 0.79152 0.79151 0.77233
 C42 C 0.71045 0.71003 0.70167
 O43 O 0.22424 0.71951 0.89429
 O44 O 0.28252 0.78165 0.83049
 O45 O 0.22301 0.78035 0.89505
 O46 O 0.28345 0.72063 0.83386
 O47 O 0.27348 0.71964 0.58372
 O48 O 0.21489 0.78204 0.64348
 O49 O 0.27381 0.78086 0.57913
 O50 O 0.21384 0.72047 0.64458
 Cu51 Cu 0.25441 0.75061 0.88800
 Cu52 Cu 0.24285 0.75066 0.58818
 C53 C 0.20866 0.70968 0.77960
 C54 C 0.28856 0.79154 0.69465
 C55 C 0.20850 0.79154 0.77934
 C56 C 0.28894 0.70989 0.69961
 C57 C 1.02912 0.06385 0.09244
 C58 C 1.00085 0.07956 0.11205
 C59 C 0.97254 0.06436 0.08738
 C60 C 0.97210 0.03233 0.04372
 C61 C 1.00052 0.01586 0.02594
 C62 C 1.02918 0.03168 0.04957
 C63 C 1.05703 0.01480 0.03197
 C64 C 1.05679 -0.01690 -0.00899
 C65 C 1.02868 -0.03297 -0.03316
 C66 C 1.00027 -0.01648 -0.01584
 C67 C 0.94401 0.01639 0.01714
 C68 C 0.94378 -0.01522 -0.02540
 C69 C 0.97162 -0.03222 -0.04082
 C70 C 0.97166 -0.06442 -0.08311
 C71 C 0.99991 -0.08028 -0.10028
 C72 C 1.02823 -0.06511 -0.07502
 H73 H 1.07933 0.02588 0.05070
 H74 H 1.07890 -0.02875 -0.02149
 H75 H 0.92190 0.02829 0.02868
 H76 H 0.92152 -0.02615 -0.04680
 H77 H 1.00090 0.10425 0.14433
 H78 H 0.99985 -0.10500 -0.13193
 C79 C 0.52794 0.56601 0.56441
 C80 C 0.49954 0.58146 0.58393
 C81 C 0.47128 0.56569 0.56543
 C82 C 0.47120 0.53322 0.52919
 C83 C 0.49984 0.51703 0.51199
 C84 C 0.52832 0.53351 0.52848
 C85 C 0.55637 0.51693 0.51178
 C86 C 0.55651 0.48486 0.47893
 C87 C 0.52860 0.46799 0.46360
 C88 C 0.49998 0.48424 0.47961
 C89 C 0.44330 0.51639 0.51239
 C90 C 0.44344 0.48439 0.47806
 C91 C 0.47149 0.46778 0.46256
 C92 C 0.47186 0.43523 0.42804
 C93 C 0.50025 0.41965 0.41124
 C94 C 0.52850 0.43539 0.43004
 H95 H 0.57856 0.52857 0.52466
 H96 H 0.57879 0.47343 0.46536
 H97 H 0.42100 0.52778 0.52606
 H98 H 0.42126 0.47280 0.46404
 H99 H 0.49942 0.60635 0.61206
 H100 H 0.50035 0.39467 0.38503
 C101 C -0.02828 0.43683 0.13789
 C102 C 0.00010 0.42178 0.16359
 C103 C 0.02831 0.43739 0.14024
 C104 C 0.02836 0.46939 0.09384
 C105 C -0.00028 0.48516 0.06980
 C106 C -0.02871 0.46881 0.09133
 C107 C -0.05679 0.48494 0.06713
 C108 C -0.05698 0.51626 0.01921
 C109 C -0.02911 0.53296 -0.00251
 C110 C -0.00047 0.51730 0.02327
 C111 C 0.05623 0.48609 0.07215
 C112 C 0.05606 0.51745 0.02492
 C113 C 0.02798 0.53360 0.00095
 C114 C 0.02755 0.56546 -0.04763
 C115 C -0.00084 0.58041 -0.07445
 C116 C -0.02905 0.56477 -0.05191
 H117 H -0.07898 0.47352 0.08500
 H118 H -0.07929 0.52719 -0.00116
 H119 H 0.07854 0.47509 0.09165
 H120 H 0.07825 0.52884 0.00693
 H121 H 0.00025 0.39712 0.19704
 H122 H -0.00099 0.60489 -0.11108
 C123 C 0.47154 0.93324 0.52412
 C124 C 0.49976 0.91755 0.54470
 C125 C 0.52814 0.93301 0.52455
 C126 C 0.52857 0.96535 0.48480
 C127 C 0.50011 0.98171 0.46535
 C128 C 0.47147 0.96556 0.48383
 C129 C 0.44358 0.98231 0.46487
 C130 C 0.44377 1.01425 0.42821
 C131 C 0.47184 1.03086 0.41233
 C132 C 0.50029 1.01441 0.42995
 C133 C 0.55664 0.98192 0.46736
 C134 C 0.55681 1.01385 0.43046
 C135 C 0.52891 1.03063 0.41282
 C136 C 0.52883 1.06316 0.37701
 C137 C 0.50063 1.07897 0.35857
 C138 C 0.47226 1.06342 0.37732
 H139 H 0.42126 0.97096 0.47902
 H140 H 0.42160 1.02578 0.41256
 H141 H 0.57883 0.97042 0.48274
 H142 H 0.57911 1.02524 0.41622
 H143 H 0.49962 0.89277 0.57598
 H144 H 0.50077 1.10402 0.33301
 C145 C 1.13582 0.14335 0.17694
 C146 C 1.14204 0.15559 0.32429
 C147 C 1.16685 0.17663 0.34278
 C148 C 1.18501 0.18623 0.21433
 C149 C 1.17841 0.17344 0.06722
 C150 C 1.15400 0.15187 0.04827
 C151 C 1.10936 0.12168 0.15643
 C152 C 1.10297 0.10959 0.00869
 C153 C 1.07718 0.08977 -0.01101
 C154 C 1.05795 0.08225 0.11581
 C155 C 1.06476 0.09435 0.26317
 C156 C 1.09054 0.11404 0.28433
 C157 C 1.14716 0.13892 -0.09723
 C158 C 1.12214 0.11807 -0.11659
 C159 C 1.12296 0.14701 0.44988
 C160 C 1.09758 0.12668 0.43013
 H161 H 1.16118 0.14509 -0.19717
 H162 H 1.11760 0.10873 -0.23080
 H163 H 1.12741 0.15646 0.56402
 H164 H 1.08322 0.12100 0.52959
 H165 H 1.17142 0.18610 0.45688
 H166 H 1.19214 0.18029 -0.03279
 H167 H 1.07158 0.08080 -0.12497
 H168 H 1.04970 0.08875 0.36030
 C169 C 0.63520 0.64493 0.64489
 C170 C 0.64139 0.65745 0.79182
 C171 C 0.66649 0.67811 0.81001
 C172 C 0.68519 0.68664 0.68226
 C173 C 0.67878 0.67361 0.53577
 C174 C 0.65379 0.65272 0.51649
 C175 C 0.60837 0.62373 0.62467
 C176 C 0.60186 0.61151 0.47731
 C177 C 0.57585 0.59196 0.45828
 C178 C 0.55659 0.58476 0.58555
 C179 C 0.56348 0.59707 0.73228
 C180 C 0.58941 0.61655 0.75268
 C181 C 0.64675 0.63976 0.37117
 C182 C 0.62126 0.61948 0.35199
 C183 C 0.62205 0.64946 0.91727
 C184 C 0.59648 0.62938 0.89800
 H185 H 0.66096 0.64549 0.27122
 H186 H 0.61658 0.61011 0.23796
 H187 H 0.62654 0.65907 1.03103
 H188 H 0.58199 0.62403 0.99744
 H189 H 0.67106 0.68799 0.92320
 H190 H 0.69297 0.67997 0.43663
 H191 H 0.57020 0.58274 0.34486
 H192 H 0.54843 0.59166 0.82968
 C193 C -0.13514 0.35667 0.19997
 C194 C -0.15285 0.34949 0.06857
 C195 C -0.17759 0.32816 0.08212
 C196 C -0.18477 0.31402 0.22622
 C197 C -0.16705 0.32220 0.35759
 C198 C -0.14208 0.34324 0.34472
 C199 C -0.10842 0.37820 0.18511
 C200 C -0.09025 0.38478 0.31595
 C201 C -0.06440 0.40460 0.30030
 C202 C -0.05683 0.41775 0.15543
 C203 C -0.07523 0.41102 0.02542
 C204 C -0.10119 0.39128 0.03973
 C205 C -0.12357 0.35066 0.47329
 C206 C -0.09806 0.37105 0.45909
 C207 C -0.14520 0.36345 -0.07435
 C208 C -0.11979 0.38400 -0.08853
 H209 H -0.12861 0.34033 0.58546
 H210 H -0.08416 0.37589 0.56067
 H211 H -0.15886 0.35830 -0.17629
 H212 H -0.11458 0.39413 -0.20092
 H213 H -0.19094 0.32238 -0.02019
 H214 H -0.17213 0.31170 0.46950
 H215 H -0.04994 0.40960 0.39979
 H216 H -0.06898 0.42079 -0.08658
 C217 C 0.36351 0.85638 0.62495
 C218 C 0.34440 0.84857 0.49938
 C219 C 0.31941 0.82785 0.52310
 C220 C 0.31357 0.81501 0.67117
 C221 C 0.33269 0.82362 0.79615
 C222 C 0.35780 0.84412 0.77350
 C223 C 0.39049 0.87718 0.59975
 C224 C 0.41004 0.88429 0.72478
 C225 C 0.43618 0.90326 0.69930
 C226 C 0.44273 0.91502 0.55046
 C227 C 0.42292 0.90789 0.42628
 C228 C 0.39663 0.88894 0.45047
 C229 C 0.37767 0.85208 0.89595
 C230 C 0.40336 0.87185 0.87204
 C231 C 0.35099 0.86120 0.35221
 C232 C 0.37666 0.88108 0.32825
 H233 H 0.37353 0.84264 1.01082
 H234 H 0.41828 0.87718 0.96928
 H235 H 0.33636 0.85545 0.25443
 H236 H 0.38104 0.89018 0.21290
 H237 H 0.30485 0.82140 0.42603
 H238 H 0.32853 0.81382 0.91040
 H239 H 0.45169 0.90865 0.79422
 H240 H 0.42831 0.91669 0.31127
 C241 C -0.13579 0.64305 -0.15479
 C242 C -0.14119 0.65533 -0.30340
 C243 C -0.16579 0.67645 -0.32559
 C244 C -0.18469 0.68561 -0.20005
 C245 C -0.17916 0.67272 -0.05208
 C246 C -0.15471 0.65142 -0.02882
 C247 C -0.10933 0.62163 -0.12985
 C248 C -0.10350 0.60988 0.01957
 C249 C -0.07762 0.59049 0.04389
 C250 C -0.05784 0.58286 -0.08017
 C251 C -0.06413 0.59451 -0.22947
 C252 C -0.08991 0.61395 -0.25511
 C253 C -0.14847 0.63873 0.11835
 C254 C -0.12331 0.61828 0.14204
 C255 C -0.12153 0.64676 -0.42624
 C256 C -0.09630 0.62640 -0.40257
 H257 H -0.16298 0.64489 0.21634
 H258 H -0.11916 0.60917 0.25742
 H259 H -0.12543 0.65619 -0.54122
 H260 H -0.08151 0.62064 -0.50017
 H261 H -0.16976 0.68623 -0.43995
 H262 H -0.19355 0.67955 0.04528
 H263 H -0.07240 0.58186 0.15926
 H264 H -0.04864 0.58880 -0.32446
 C265 C 0.36481 1.14277 0.32502
 C266 C 0.34688 1.14922 0.45721
 C267 C 0.32186 1.17026 0.44555
 C268 C 0.31480 1.18475 0.30285
 C269 C 0.33277 1.17752 0.17101
 C270 C 0.35789 1.15671 0.18162
 C271 C 0.39172 1.12150 0.33753
 C272 C 0.41006 1.11568 0.20590
 C273 C 0.43611 1.09612 0.21924
 C274 C 0.44364 1.08238 0.36247
 C275 C 0.42502 1.08824 0.49322
 C276 C 0.39895 1.10787 0.48144
 C277 C 0.37654 1.15001 0.05219
 C278 C 0.40223 1.12987 0.06421
 C279 C 0.35462 1.13484 0.59876
 C280 C 0.38022 1.11450 0.61068
 H281 H 0.37145 1.16070 -0.05897
 H282 H 0.41623 1.12556 -0.03794
 H283 H 0.34088 1.13950 0.70137
 H284 H 0.38549 1.10403 0.72211
 H285 H 0.30820 1.17562 0.54766
 H286 H 0.32765 1.18855 0.06063
 H287 H 0.45071 1.09173 0.11917
 H288 H 0.43121 1.07788 0.60377
 C289 C 1.13549 -0.14372 -0.15483
 C290 C 1.14813 -0.15942 -0.02643
 C291 C 1.17324 -0.17999 -0.04826
 C292 C 1.18494 -0.18599 -0.19824
 C293 C 1.17190 -0.16981 -0.32560
 C294 C 1.14752 -0.14836 -0.30408
 C295 C 1.10876 -0.12247 -0.13308
 C296 C 1.09611 -0.10678 -0.26181
 C297 C 1.07012 -0.08735 -0.24118
 C298 C 1.05687 -0.08381 -0.09368
 C299 C 1.06987 -0.09935 0.03453
 C300 C 1.09595 -0.11876 0.01551
 C301 C 1.13468 -0.13171 -0.42931
 C302 C 1.10943 -0.11123 -0.40863
 C303 C 1.13496 -0.15476 0.12085
 C304 C 1.10920 -0.13492 0.14131
 H305 H 1.14423 -0.13459 -0.54425
 H306 H 1.10009 -0.09899 -0.50849
 H307 H 1.14436 -0.16696 0.22068
 H308 H 1.09941 -0.13242 0.25624
 H309 H 1.18279 -0.19225 0.05107
 H310 H 1.18075 -0.17374 -0.44160
 H311 H 1.05982 -0.07535 -0.33920
 H312 H 1.05935 -0.09664 0.14776
 C313 C 0.63567 0.35619 0.35568
 C314 C 0.65395 0.34846 0.48484
 C315 C 0.67877 0.32726 0.46708
 C316 C 0.68533 0.31402 0.32113
 C317 C 0.66693 0.32251 0.19276
 C318 C 0.64201 0.34336 0.20952
 C319 C 0.60901 0.37765 0.37422
 C320 C 0.59032 0.38464 0.24552
 C321 C 0.56445 0.40422 0.26446
 C322 C 0.55730 0.41681 0.41042
 C323 C 0.57634 0.40991 0.53835
 C324 C 0.60231 0.39022 0.52079
 C325 C 0.62300 0.35122 0.08326
 C326 C 0.59756 0.37149 0.10100
 C327 C 0.64677 0.36183 0.62925
 C328 C 0.62143 0.38239 0.64684
 H329 H 0.62762 0.34133 -0.02986
 H330 H 0.58327 0.37670 0.00106
 H331 H 0.66075 0.35622 0.72974
 H332 H 0.61663 0.39205 0.76027
 H333 H 0.69275 0.32093 0.56655
 H334 H 0.67160 0.31243 0.07994
 H335 H 0.54957 0.40942 0.16656
 H336 H 0.57051 0.41935 0.65120
 C337 C 0.86463 -0.14334 -0.17083
 C338 C 0.84603 -0.15141 -0.04293
 C339 C 0.82147 -0.17280 -0.06231
 C340 C 0.81526 -0.18601 -0.20901
 C341 C 0.83392 -0.17693 -0.33660
 C342 C 0.85874 -0.15592 -0.31781
 C343 C 0.89119 -0.12182 -0.14979
 C344 C 0.91037 -0.11455 -0.27691
 C345 C 0.93626 -0.09502 -0.25508
 C346 C 0.94281 -0.08271 -0.10783
 C347 C 0.92320 -0.08985 0.01801
 C348 C 0.89733 -0.10950 -0.00228
 C349 C 0.87815 -0.14768 -0.44272
 C350 C 0.90356 -0.12740 -0.42253
 C351 C 0.85264 -0.13825 0.10236
 C352 C 0.87781 -0.11760 0.12227
 H353 H 0.87389 -0.15729 -0.55670
 H354 H 0.91815 -0.12194 -0.52151
 H355 H 0.83836 -0.14412 0.20177
 H356 H 0.88218 -0.10812 0.23638
 H357 H 0.80744 -0.17927 0.03730
 H358 H 0.82968 -0.18674 -0.45028
 H359 H 0.95159 -0.08969 -0.35149
 H360 H 0.92857 -0.08066 0.13174
 C361 C 0.36486 0.35568 0.35566
 C362 C 0.34653 0.34811 0.48538
 C363 C 0.32173 0.32689 0.46885
 C364 C 0.31519 0.31342 0.32363
 C365 C 0.33362 0.32173 0.19449
 C366 C 0.35856 0.34267 0.20998
 C367 C 0.39153 0.37717 0.37328
 C368 C 0.41032 0.38405 0.24420
 C369 C 0.43620 0.40369 0.26249
 C370 C 0.44319 0.41645 0.40819
 C371 C 0.42405 0.40964 0.53626
 C372 C 0.39812 0.38991 0.51946
 C373 C 0.37765 0.35044 0.08316
 C374 C 0.40312 0.37074 0.10009
 C375 C 0.35361 0.36164 0.62928
 C376 C 0.37894 0.38222 0.64601
 H377 H 0.37306 0.34046 -0.02975
 H378 H 0.41746 0.37586 -0.00014
 H379 H 0.33956 0.35613 0.73001
 H380 H 0.38368 0.39199 0.75917
 H381 H 0.30771 0.32070 0.56890
 H382 H 0.32897 0.31144 0.08231
 H383 H 0.45116 0.40883 0.16435
 H384 H 0.42974 0.41927 0.64873
 C385 C 0.13425 0.64422 -0.14921
 C386 C 0.15331 0.65234 -0.02393
 C387 C 0.17810 0.67326 -0.04826
 C388 C 0.18377 0.68609 -0.19653
 C389 C 0.16464 0.67725 -0.32117
 C390 C 0.13979 0.65645 -0.29805
 C391 C 0.10761 0.62302 -0.12352
 C392 C 0.08824 0.61541 -0.24852
 C393 C 0.06251 0.59589 -0.22297
 C394 C 0.05611 0.58411 -0.07402
 C395 C 0.07570 0.59183 0.05030
 C396 C 0.10164 0.61126 0.02597
 C397 C 0.12005 0.64806 -0.42035
 C398 C 0.09470 0.62786 -0.39600
 C399 C 0.14689 0.63974 0.12351
 C400 C 0.12148 0.61955 0.14805
 H401 H 0.12404 0.65745 -0.53554
 H402 H 0.07988 0.62217 -0.49314
 H403 H 0.16148 0.64574 0.22102
 H404 H 0.11723 0.61049 0.26360
 H405 H 0.19264 0.67988 0.04851
 H406 H 0.16869 0.68700 -0.43565
 H407 H 0.04717 0.59009 -0.31804
 H408 H 0.07040 0.58307 0.16545
 C409 C 0.63627 1.14249 0.31861
 C410 C 0.65406 1.14932 0.45032
 C411 C 0.67883 1.17065 0.43755
 C412 C 0.68579 1.18509 0.29437
 C413 C 0.66800 1.17748 0.16297
 C414 C 0.64310 1.15635 0.17462
 C415 C 0.60953 1.12098 0.33248
 C416 C 0.59125 1.11484 0.20149
 C417 C 0.56524 1.09523 0.21641
 C418 C 0.55763 1.08183 0.36058
 C419 C 0.57623 1.08793 0.49064
 C420 C 0.60230 1.10756 0.47720
 C421 C 0.62454 1.14928 0.04580
 C422 C 0.59902 1.12889 0.05904
 C423 C 0.64641 1.13507 0.59257
 C424 C 0.62097 1.11452 0.60577
 H425 H 0.62954 1.15991 -0.06574
 H426 H 0.58507 1.12433 -0.04266
 H427 H 0.66005 1.14003 0.69482
 H428 H 0.61574 1.10419 0.71774
 H429 H 0.69238 1.17629 0.53931
 H430 H 0.67307 1.18848 0.05226
 H431 H 0.55064 1.09065 0.11696
 H432 H 0.57000 1.07786 0.60206
 C433 C 0.13521 0.35769 0.20606
 C434 C 0.15315 0.35045 0.07495
 C435 C 0.17771 0.32896 0.08896
 C436 C 0.18433 0.31475 0.23283
 C437 C 0.16638 0.32274 0.36369
 C438 C 0.14167 0.34405 0.35073
 C439 C 0.10868 0.37939 0.19075
 C440 C 0.09022 0.38596 0.32106
 C441 C 0.06438 0.40573 0.30457
 C442 C 0.05711 0.41883 0.15941
 C443 C 0.07589 0.41222 0.03014
 C444 C 0.10180 0.39249 0.04521
 C445 C 0.12294 0.35154 0.47887
 C446 C 0.09762 0.37213 0.46427
 C447 C 0.14585 0.36444 -0.06808
 C448 C 0.12060 0.38511 -0.08271
 H449 H 0.12765 0.34108 0.59093
 H450 H 0.08353 0.37699 0.56550
 H451 H 0.15962 0.35915 -0.16986
 H452 H 0.11560 0.39519 -0.19532
 H453 H 0.19136 0.32304 -0.01244
 H454 H 0.17118 0.31191 0.47493
 H455 H 0.04961 0.41062 0.40340
 H456 H 0.06988 0.42194 -0.08214
 C457 C 0.63587 0.85593 0.62516
 C458 C 0.65514 0.84815 0.49962
 C459 C 0.68022 0.82763 0.52351
 C460 C 0.68602 0.81494 0.67168
 C461 C 0.66674 0.82353 0.79673
 C462 C 0.64154 0.84385 0.77397
 C463 C 0.60886 0.87660 0.59973
 C464 C 0.58921 0.88376 0.72481
 C465 C 0.56312 0.90274 0.69937
 C466 C 0.55676 0.91453 0.55062
 C467 C 0.57665 0.90732 0.42636
 C468 C 0.60285 0.88831 0.45036
 C469 C 0.62156 0.85185 0.89649
 C470 C 0.59581 0.87147 0.87227
 C471 C 0.64861 0.86063 0.35229
 C472 C 0.62293 0.88040 0.32807
 H473 H 0.62567 0.84259 1.01172
 H474 H 0.58082 0.87686 0.96951
 H475 H 0.66337 0.85487 0.25465
 H476 H 0.61863 0.88940 0.21256
 H477 H 0.69489 0.82121 0.42648
 H478 H 0.67087 0.81385 0.91113
 H479 H 0.54755 0.90818 0.79438
 H480 H 0.57143 0.91620 0.31154
 C481 C 0.86539 0.14349 0.15635
 C482 C 0.85403 0.16003 0.02716
 C483 C 0.82914 0.18098 0.04628
 C484 C 0.81597 0.18580 0.19385
 C485 C 0.82748 0.16870 0.32177
 C486 C 0.85214 0.14749 0.30362
 C487 C 0.89210 0.12211 0.13772
 C488 C 0.90381 0.10600 0.26757
 C489 C 0.92984 0.08647 0.24993
 C490 C 0.94393 0.08317 0.10401
 C491 C 0.93182 0.09911 -0.02517
 C492 C 0.90587 0.11874 -0.00893
 C493 C 0.86414 0.13056 0.43021
 C494 C 0.88955 0.11017 0.41252
 C495 C 0.86823 0.15576 -0.11792
 C496 C 0.89374 0.13551 -0.13557
 H497 H 0.85395 0.13327 0.54414
 H498 H 0.89826 0.09777 0.51337
 H499 H 0.85979 0.16850 -0.21829
 H500 H 0.90428 0.13323 -0.24890
 H501 H 0.82057 0.19408 -0.05278
 H502 H 0.81747 0.17213 0.43576
 H503 H 0.93948 0.07424 0.34918
 H504 H 0.94298 0.09657 -0.13709
 C505 C 0.36378 0.64430 0.64397
 C506 C 0.34539 0.65202 0.51518
 C507 C 0.32052 0.67313 0.53360
 C508 C 0.31408 0.68638 0.67968
 C509 C 0.33258 0.67789 0.80767
 C510 C 0.35751 0.65705 0.79035
 C511 C 0.39054 0.62297 0.62471
 C512 C 0.40934 0.61594 0.75304
 C513 C 0.43531 0.59650 0.73321
 C514 C 0.44244 0.58415 0.58667
 C515 C 0.42328 0.59110 0.45933
 C516 C 0.39721 0.61058 0.47777
 C517 C 0.37661 0.64915 0.91623
 C518 C 0.40209 0.62894 0.89794
 C519 C 0.35255 0.63880 0.37043
 C520 C 0.37798 0.61840 0.35215
 H521 H 0.37203 0.65896 1.02951
 H522 H 0.41640 0.62368 0.99772
 H523 H 0.33850 0.64443 0.27014
 H524 H 0.38276 0.60884 0.23849
 H525 H 0.30649 0.67947 0.43431
 H526 H 0.32796 0.68792 0.92063
 H527 H 0.45026 0.59126 0.83081
 H528 H 0.42908 0.58180 0.34619
   
