data_POSCAR
  _audit_creation_date              2014-09-24
  _audit_creation_method            'ToBaCCo'
  _symmetry_space_group_name_H-M    'P1'
  _symmetry_Int_Tables_number       1
  _symmetry_cell_setting            triclinic
  loop_
  _symmetry_equiv_pos_as_xyz
 x,y,z
_cell_length_a 22.9369
_cell_length_b 30.1315
_cell_length_c 21.9564
_cell_angle_alpha 90.000000
_cell_angle_beta 90.000000
_cell_angle_gamma 90.441000
loop_
  _atom_site_label
  _atom_site_type_symbol
  _atom_site_fract_x
  _atom_site_fract_y
  _atom_site_fract_z
B1 B -0.02343 -0.04661 0.02035
 B2 B 0.04391 -0.03614 0.04712
 B3 B 0.03385 -0.04768 -0.02710
 B4 B -0.02931 -0.02486 -0.05063
 B5 B -0.05823 0.00176 0.01051
 B6 B -0.01279 -0.00566 0.07155
 B7 B 0.04708 0.04043 -0.01511
 B8 B -0.02000 0.03030 -0.04299
 B9 B -0.01050 0.04170 0.03162
 B10 B 0.05268 0.01883 0.05535
 B11 B 0.08159 -0.00775 -0.00598
 B12 B 0.03646 -0.00031 -0.06682
 B13 B 0.52474 0.47825 0.56146
 B14 B 0.46008 0.46095 0.53325
 B15 B 0.46825 0.51370 0.55743
 B16 B 0.53641 0.53113 0.53885
 B17 B 0.56968 0.48892 0.50213
 B18 B 0.52222 0.44534 0.49942
 B19 B 0.47574 0.51239 0.43409
 B20 B 0.53998 0.52993 0.46232
 B21 B 0.53179 0.47742 0.43801
 B22 B 0.46388 0.45964 0.45645
 B23 B 0.43036 0.50195 0.49309
 B24 B 0.47776 0.54565 0.49592
 B25 B 0.54708 0.04043 0.51511
 B26 B 0.48000 0.03030 0.54299
 B27 B 0.48950 0.04170 0.46838
 B28 B 0.55268 0.01883 0.44465
 B29 B 0.58159 -0.00775 0.50598
 B30 B 0.53646 -0.00031 0.56682
 B31 B 0.47657 -0.04661 0.47965
 B32 B 0.54391 -0.03614 0.45288
 B33 B 0.53385 -0.04768 0.52710
 B34 B 0.47069 -0.02486 0.55063
 B35 B 0.44177 0.00176 0.48949
 B36 B 0.48721 -0.00566 0.42845
 B37 B -0.02426 0.51239 0.06591
 B38 B 0.03998 0.52993 0.03768
 B39 B 0.03179 0.47742 0.06199
 B40 B -0.03612 0.45964 0.04355
 B41 B -0.06964 0.50195 0.00691
 B42 B -0.02224 0.54565 0.00408
 B43 B 0.02474 0.47825 -0.06146
 B44 B -0.03992 0.46095 -0.03325
 B45 B -0.03175 0.51370 -0.05743
 B46 B 0.03641 0.53113 -0.03885
 B47 B 0.06968 0.48892 -0.00213
 B48 B 0.02222 0.44534 0.00058
 B49 B 0.01515 0.46680 0.46031
 B50 B -0.05619 0.47532 0.44714
 B51 B -0.03202 0.46549 0.51857
 B52 B 0.03341 0.49077 0.52759
 B53 B 0.04978 0.51635 0.46070
 B54 B -0.00562 0.50575 0.41000
 B55 B -0.05042 0.55323 0.50433
 B56 B 0.02074 0.54581 0.51854
 B57 B -0.00182 0.55496 0.44610
 B58 B -0.06753 0.52973 0.43727
 B59 B -0.08370 0.50409 0.50505
 B60 B -0.02828 0.51404 0.55488
 B61 B 0.45810 -0.01315 -0.07732
 B62 B 0.53017 -0.01610 -0.06118
 B63 B 0.49882 0.03321 -0.07776
 B64 B 0.43100 0.03386 -0.04691
 B65 B 0.42067 -0.01574 -0.01158
 B66 B 0.48203 -0.04668 -0.02085
 B67 B 0.51182 0.02807 0.04442
 B68 B 0.44030 0.02939 0.02895
 B69 B 0.47020 -0.01984 0.04499
 B70 B 0.53847 -0.01991 0.01553
 B71 B 0.54912 0.02949 -0.02145
 B72 B 0.48749 0.06003 -0.01270
 B73 B 0.44958 0.55323 -0.00433
 B74 B 0.52074 0.54581 -0.01854
 B75 B 0.49818 0.55496 0.05390
 B76 B 0.43247 0.52973 0.06273
 B77 B 0.41630 0.50409 -0.00505
 B78 B 0.47172 0.51404 -0.05488
 B79 B 0.51515 0.46680 0.03969
 B80 B 0.44381 0.47532 0.05286
 B81 B 0.46798 0.46549 -0.01857
 B82 B 0.53341 0.49077 -0.02759
 B83 B 0.54978 0.51635 0.03930
 B84 B 0.49438 0.50575 0.09000
 B85 B 0.01182 0.02807 0.45558
 B86 B -0.05970 0.02939 0.47105
 B87 B -0.02980 -0.01984 0.45501
 B88 B 0.03847 -0.01991 0.48447
 B89 B 0.04912 0.02949 0.52145
 B90 B -0.01251 0.06003 0.51270
 B91 B -0.04190 -0.01315 0.57732
 B92 B 0.03017 -0.01610 0.56118
 B93 B -0.00118 0.03321 0.57776
 B94 B -0.06900 0.03386 0.54691
 B95 B -0.07933 -0.01574 0.51158
 B96 B -0.01797 -0.04668 0.52085
 B97 B 0.76393 0.20598 0.27632
 B98 B 0.77854 0.21165 0.20116
 B99 B 0.71061 0.20149 0.22555
 B100 B 0.69896 0.22918 0.29111
 B101 B 0.76291 0.25621 0.30747
 B102 B 0.81239 0.24477 0.25195
 B103 B 0.72120 0.28891 0.20066
 B104 B 0.70701 0.28315 0.27473
 B105 B 0.77565 0.29271 0.25104
 B106 B 0.78621 0.26583 0.18476
 B107 B 0.72242 0.23851 0.16854
 B108 B 0.67331 0.24952 0.22461
 B109 B 0.73985 0.79693 0.80017
 B110 B 0.73015 0.78928 0.72501
 B111 B 0.79795 0.79459 0.75399
 B112 B 0.80053 0.76873 0.82197
 B113 B 0.73279 0.74736 0.83527
 B114 B 0.68878 0.76061 0.77517
 B115 B 0.77548 0.70798 0.73214
 B116 B 0.78628 0.71465 0.80760
 B117 B 0.71823 0.70981 0.77953
 B118 B 0.71543 0.73557 0.71147
 B119 B 0.78351 0.75742 0.69825
 B120 B 0.82697 0.74348 0.75792
 B121 B 0.27756 0.20361 0.73256
 B122 B 0.20455 0.21109 0.73512
 B123 B 0.24219 0.20877 0.80043
 B124 B 0.30791 0.23314 0.79106
 B125 B 0.31002 0.25209 0.71835
 B126 B 0.24564 0.23856 0.68278
 B127 B 0.22086 0.29499 0.77632
 B128 B 0.29375 0.28713 0.77556
 B129 B 0.25624 0.29005 0.70959
 B130 B 0.19022 0.26520 0.71865
 B131 B 0.18821 0.24663 0.79168
 B132 B 0.25232 0.26022 0.82700
 B133 B 0.25964 0.70031 0.19418
 B134 B 0.22474 0.70894 0.26063
 B135 B 0.29540 0.69409 0.26044
 B136 B 0.32930 0.71819 0.20017
 B137 B 0.27796 0.74922 0.16365
 B138 B 0.21318 0.74332 0.20176
 B139 B 0.29048 0.78222 0.27900
 B140 B 0.32517 0.77327 0.21293
 B141 B 0.25416 0.78826 0.21271
 B142 B 0.22081 0.76408 0.27337
 B143 B 0.27203 0.73313 0.30984
 B144 B 0.33696 0.73912 0.27210
 B145 B 0.29795 0.79459 0.74601
 B146 B 0.23015 0.78928 0.77499
 B147 B 0.23985 0.79693 0.69983
 B148 B 0.30053 0.76873 0.67803
 B149 B 0.32697 0.74348 0.74208
 B150 B 0.28351 0.75742 0.80175
 B151 B 0.21823 0.70981 0.72047
 B152 B 0.28628 0.71465 0.69240
 B153 B 0.27548 0.70798 0.76786
 B154 B 0.21543 0.73557 0.78853
 B155 B 0.18878 0.76061 0.72483
 B156 B 0.23279 0.74736 0.66473
 B157 B 0.22120 0.28891 0.29934
 B158 B 0.20701 0.28315 0.22527
 B159 B 0.27565 0.29271 0.24896
 B160 B 0.28621 0.26583 0.31524
 B161 B 0.22242 0.23851 0.33146
 B162 B 0.17331 0.24952 0.27539
 B163 B 0.26393 0.20598 0.22368
 B164 B 0.27854 0.21165 0.29884
 B165 B 0.21061 0.20149 0.27445
 B166 B 0.19896 0.22918 0.20889
 B167 B 0.26291 0.25621 0.19253
 B168 B 0.31239 0.24477 0.24805
 B169 B 0.79540 0.69409 0.23956
 B170 B 0.72474 0.70894 0.23937
 B171 B 0.75964 0.70031 0.30582
 B172 B 0.82930 0.71819 0.29983
 B173 B 0.83696 0.73912 0.22790
 B174 B 0.77203 0.73313 0.19016
 B175 B 0.75416 0.78826 0.28729
 B176 B 0.82517 0.77327 0.28707
 B177 B 0.79048 0.78222 0.22100
 B178 B 0.72081 0.76408 0.22663
 B179 B 0.71318 0.74332 0.29824
 B180 B 0.77796 0.74922 0.33635
 B181 B 0.74219 0.20877 0.69957
 B182 B 0.70455 0.21109 0.76488
 B183 B 0.77756 0.20361 0.76744
 B184 B 0.80791 0.23314 0.70894
 B185 B 0.75232 0.26022 0.67300
 B186 B 0.68821 0.24663 0.70832
 B187 B 0.75624 0.29005 0.79041
 B188 B 0.79375 0.28713 0.72444
 B189 B 0.72086 0.29499 0.72368
 B190 B 0.69022 0.26520 0.78135
 B191 B 0.74564 0.23856 0.81722
 B192 B 0.81002 0.25209 0.78165
 C193 C 0.14025 0.40932 0.86395
 C194 C 0.11328 0.39054 0.81289
 N195 N 0.05927 0.40540 0.79664
 C196 C 0.03084 0.43695 0.83048
 C197 C 0.05772 0.45448 0.88310
 N198 N 0.11243 0.44053 0.89643
 N199 N 0.19033 0.39231 0.88553
 C200 C 0.21557 0.35722 0.85836
 C201 C 0.19141 0.33885 0.80477
 N202 N 0.13970 0.35578 0.78367
 H203 H -0.01324 0.44614 0.81864
 H204 H 0.25387 0.34357 0.87971
 C205 C 0.36395 0.57853 0.35198
 C206 C 0.39350 0.59608 0.30154
 N207 N 0.44800 0.58105 0.28846
 C208 C 0.47467 0.55054 0.32502
 C209 C 0.44524 0.53431 0.37688
 N210 N 0.39004 0.54815 0.38712
 N211 N 0.31370 0.59677 0.37108
 C212 C 0.29110 0.63213 0.34216
 C213 C 0.31834 0.64917 0.28949
 N214 N 0.36972 0.63084 0.27073
 H215 H 0.51949 0.54170 0.31616
 H216 H 0.25328 0.64756 0.36208
 C217 C 0.91576 0.89703 0.68928
 C218 C 0.85760 0.90755 0.70243
 N219 N 0.83656 0.94752 0.68476
 C220 C 0.87015 0.97637 0.65201
 C221 C 0.92679 0.96395 0.63382
 N222 N 0.94825 0.92482 0.65441
 N223 N 0.93706 0.85716 0.70603
 C224 C 0.90209 0.82621 0.73232
 C225 C 0.84198 0.83462 0.73995
 N226 N 0.82175 0.87599 0.72686
 H227 H 0.85100 1.00702 0.63634
 H228 H 0.92092 0.79449 0.74362
 C229 C 0.61943 0.08522 0.15695
 C230 C 0.59273 0.12670 0.16401
 N231 N 0.54073 0.13435 0.13862
 C232 C 0.51392 0.10299 0.10526
 C233 C 0.53901 0.06025 0.09702
 N234 N 0.59224 0.05274 0.12327
 N235 N 0.67415 0.07980 0.17959
 C236 C 0.70334 0.11430 0.20669
 C237 C 0.67713 0.15656 0.21003
 N238 N 0.62192 0.16077 0.18972
 H239 H 0.47494 0.11345 0.08224
 H240 H 0.74756 0.10932 0.22173
 C241 C 0.82920 0.10808 0.40167
 C242 C 0.84506 0.10744 0.33970
 N243 N 0.88516 0.07840 0.31991
 C244 C 0.91184 0.05099 0.35952
 C245 C 0.89936 0.05343 0.42280
 N246 N 0.85726 0.08163 0.44200
 N247 N 0.78864 0.13718 0.42103
 C248 C 0.76454 0.16642 0.38163
 C249 C 0.78317 0.16756 0.32018
 N250 N 0.82263 0.13758 0.30083
 H251 H 0.94522 0.02936 0.34192
 H252 H 0.73308 0.18978 0.39906
 C253 C 0.33237 0.39583 0.60351
 C254 C 0.35814 0.35430 0.61066
 N255 N 0.41423 0.34778 0.59531
 C256 C 0.44687 0.38122 0.57286
 C257 C 0.42225 0.42354 0.56500
 N258 N 0.36493 0.42991 0.58008
 N259 N 0.27608 0.40135 0.62233
 C260 C 0.24599 0.36757 0.65055
 C261 C 0.27448 0.32711 0.66163
 N262 N 0.32871 0.32180 0.63861
 H263 H 0.49174 0.37423 0.56158
 H264 H 0.20269 0.37339 0.66823
 C265 C 0.65338 0.90414 0.89659
 C266 C 0.64761 0.89998 0.83343
 N267 N 0.60859 0.92592 0.80361
 C268 C 0.57391 0.95497 0.83435
 C269 C 0.57692 0.95741 0.89834
 N270 N 0.61771 0.93220 0.92742
 N271 N 0.69190 0.87797 0.92661
 C272 C 0.72371 0.84681 0.89660
 C273 C 0.71581 0.84054 0.83358
 N274 N 0.67824 0.86804 0.80362
 H275 H 0.54260 0.97441 0.80923
 H276 H 0.75246 0.82555 0.92236
 C277 C 0.17134 0.59412 0.09998
 C278 C 0.14620 0.63554 0.11042
 N279 N 0.08882 0.64194 0.10091
 C280 C 0.05452 0.60857 0.08078
 C281 C 0.07879 0.56665 0.06914
 N282 N 0.13712 0.56036 0.07872
 N283 N 0.22908 0.58844 0.11274
 C284 C 0.26180 0.62209 0.13760
 C285 C 0.23497 0.66287 0.15062
 N286 N 0.17844 0.66823 0.13459
 H287 H 0.00879 0.61528 0.07352
 H288 H 0.30669 0.61627 0.15028
 C289 C 0.44274 0.87396 0.13982
 C290 C 0.38970 0.88386 0.16805
 N291 N 0.36493 0.92351 0.15910
 C292 C 0.39040 0.95427 0.12337
 C293 C 0.44656 0.94741 0.09844
 N294 N 0.47083 0.90626 0.10668
 N295 N 0.46112 0.83098 0.14003
 C296 C 0.42764 0.79783 0.16526
 C297 C 0.37350 0.80830 0.19186
 N298 N 0.35793 0.85142 0.19429
 H299 H 0.36281 0.98095 0.10987
 H300 H 0.44210 0.76378 0.16270
 C301 C 0.63139 0.39041 0.37784
 C302 C 0.61363 0.38362 0.31768
 N303 N 0.57267 0.41095 0.29325
 C304 C 0.54811 0.44411 0.32707
 C305 C 0.56702 0.45121 0.38736
 N306 N 0.60905 0.42422 0.40984
 N307 N 0.66618 0.36072 0.40576
 C308 C 0.68594 0.32480 0.37555
 C309 C 0.67327 0.31960 0.31317
 N310 N 0.63618 0.34890 0.28586
 H311 H 0.51250 0.46286 0.30813
 H312 H 0.71393 0.30202 0.39963
 C313 C 0.85816 0.59569 0.88834
 C314 C 0.89093 0.62081 0.84702
 N315 N 0.94252 0.60465 0.82635
 C316 C 0.96419 0.56550 0.84756
 C317 C 0.93357 0.54171 0.89282
 N318 N 0.88022 0.55722 0.91026
 N319 N 0.80671 0.61164 0.90932
 C320 C 0.78535 0.65101 0.88913
 C321 C 0.81652 0.67561 0.84528
 N322 N 0.86969 0.66024 0.82674
 H323 H 1.00727 0.55528 0.83345
 H324 H 0.74346 0.66204 0.90558
 C325 C 0.09655 0.09576 0.68601
 C326 C 0.07286 0.13856 0.68308
 N327 N 0.01825 0.14343 0.66035
 C328 C -0.01166 0.10802 0.63697
 C329 C 0.01577 0.06617 0.63210
 N330 N 0.06859 0.06114 0.65904
 N331 N 0.14981 0.09009 0.71045
 C332 C 0.18175 0.12530 0.72959
 C333 C 0.16178 0.16920 0.72061
 N334 N 0.10625 0.17455 0.69929
 H335 H -0.05375 0.11375 0.61626
 H336 H 0.22410 0.11846 0.74790
 C337 C 0.13753 0.39595 0.39583
 C338 C 0.10772 0.35718 0.37899
 N339 N 0.05008 0.35289 0.39018
 C340 C 0.02019 0.38606 0.41700
 C341 C 0.04925 0.42548 0.43404
 N342 N 0.10764 0.42933 0.42283
 N343 N 0.19551 0.39981 0.38361
 C344 C 0.22463 0.36663 0.35462
 C345 C 0.19408 0.32814 0.33679
 N346 N 0.13651 0.32458 0.35029
 H347 H -0.02534 0.38058 0.42650
 H348 H 0.27061 0.37052 0.34534
 C349 C 0.36136 0.60895 0.87430
 C350 C 0.33814 0.64619 0.90273
 N351 N 0.34814 0.65294 0.96316
 C352 C 0.38231 0.62451 0.99553
 C353 C 0.41067 0.58983 0.96491
 N354 N 0.39764 0.58271 0.90537
 N355 N 0.34703 0.59913 0.81617
 C356 C 0.31332 0.62690 0.78340
 C357 C 0.29641 0.66767 0.80851
 N358 N 0.30742 0.67541 0.86884
 H359 H 0.38577 0.62833 1.04426
 H360 H 0.30141 0.61716 0.73798
 C361 C 0.67245 0.10738 0.58181
 C362 C 0.64842 0.14971 0.58494
 N363 N 0.59518 0.15772 0.56081
 C364 C 0.56344 0.12463 0.53501
 C365 C 0.58568 0.08140 0.53446
 N366 N 0.64037 0.07404 0.55690
 N367 N 0.72508 0.09962 0.60854
 C368 C 0.75311 0.13201 0.64114
 C369 C 0.72565 0.17308 0.64931
 N370 N 0.67538 0.18095 0.61842
 H371 H 0.52022 0.13184 0.51842
 H372 H 0.79358 0.12462 0.66425
 C373 C 0.86129 0.88682 0.10621
 C374 C 0.88494 0.84421 0.10662
 N375 N 0.93446 0.83592 0.07493
 C376 C 0.96235 0.86867 0.04357
 C377 C 0.93998 0.91198 0.04432
 N378 N 0.88942 0.91969 0.07541
 N379 N 0.81264 0.89520 0.13965
 C380 C 0.78716 0.86292 0.17442
 C381 C 0.81203 0.82047 0.17646
 N382 N 0.86001 0.81237 0.14164
 H383 H 1.00301 0.86118 0.02121
 H384 H 0.74905 0.87071 0.20122
 C385 C 0.86389 0.10323 0.88081
 C386 C 0.89204 0.11966 0.82857
 N387 N 0.94800 0.10724 0.81776
 C388 C 0.97672 0.07953 0.85669
 C389 C 0.94858 0.06338 0.90969
 N390 N 0.89240 0.07564 0.91958
 N391 N 0.80905 0.11631 0.89336
 C392 C 0.78084 0.14521 0.85664
 C393 C 0.80780 0.16214 0.80314
 N394 N 0.86372 0.14893 0.79107
 H395 H 1.02120 0.07045 0.84645
 H396 H 0.73821 0.15605 0.87097
 C397 C 0.11716 0.60352 0.63897
 C398 C 0.10782 0.64826 0.62514
 N399 N 0.06983 0.65948 0.58115
 C400 C 0.04201 0.62786 0.54852
 C401 C 0.05443 0.58269 0.55757
 N402 N 0.09083 0.57144 0.60440
 N403 N 0.15189 0.59329 0.68710
 C404 C 0.18006 0.62585 0.71926
 C405 C 0.17580 0.67041 0.70038
 N406 N 0.13777 0.68010 0.65506
 H407 H 0.00894 0.63840 0.51790
 H408 H 0.20526 0.61675 0.75844
 C409 C 0.66532 0.89111 0.38943
 C410 C 0.64264 0.87608 0.33383
 N411 N 0.58851 0.88926 0.31654
 C412 C 0.55613 0.91661 0.35249
 C413 C 0.57868 0.93138 0.40872
 N414 N 0.63317 0.91834 0.42511
 N415 N 0.71794 0.87659 0.40846
 C416 C 0.74890 0.84719 0.37488
 C417 C 0.72692 0.83162 0.31860
 N418 N 0.67368 0.84660 0.29987
 H419 H 0.51319 0.92644 0.33744
 H420 H 0.78865 0.83423 0.39413
 C421 C 0.37813 0.40104 0.17619
 C422 C 0.32887 0.38411 0.14636
 N423 N 0.31631 0.39685 0.08888
 C424 C 0.35144 0.42567 0.05893
 C425 C 0.40163 0.44263 0.08788
 N426 N 0.41333 0.43039 0.14652
 N427 N 0.39155 0.38579 0.23283
 C428 C 0.35830 0.35366 0.26014
 C429 C 0.30934 0.33631 0.22935
 N430 N 0.29639 0.35258 0.17355
 H431 H 0.34028 0.43463 0.01270
 H432 H 0.37114 0.34079 0.30411
 C433 C 0.59918 0.61262 0.16684
 C434 C 0.58902 0.65794 0.15913
 N435 N 0.54236 0.67052 0.12512
 C436 C 0.50798 0.63982 0.09594
 C437 C 0.52320 0.59444 0.09713
 N438 N 0.56724 0.58266 0.13526
 N439 N 0.64354 0.59899 0.20223
 C440 C 0.68001 0.62862 0.22872
 C441 C 0.67426 0.67457 0.21723
 N442 N 0.62731 0.68820 0.18356
 H443 H 0.47146 0.65150 0.07024
 H444 H 0.71606 0.61547 0.25393
 C445 C 0.14552 0.87611 0.90387
 C446 C 0.11336 0.85395 0.85879
 N447 N 0.05471 0.85926 0.85603
 C448 C 0.02698 0.88688 0.89534
 C449 C 0.05963 0.91079 0.93886
 N450 N 0.11814 0.90423 0.94211
 N451 N 0.20399 0.87057 0.90725
 C452 C 0.23206 0.84415 0.86691
 C453 C 0.20043 0.82317 0.81993
 N454 N 0.14145 0.82805 0.81794
 H455 H -0.01952 0.89160 0.89068
 H456 H 0.27840 0.83916 0.87231
 C457 C 0.37626 0.12270 0.41441
 C458 C 0.40291 0.14269 0.36379
 N459 N 0.45967 0.13381 0.35133
 C460 C 0.49038 0.10489 0.38637
 C461 C 0.46280 0.08355 0.43580
 N462 N 0.40651 0.09360 0.44855
 N463 N 0.31970 0.13099 0.42714
 C464 C 0.28809 0.15827 0.39121
 C465 C 0.31386 0.17772 0.33927
 N466 N 0.37121 0.16983 0.32733
 H467 H 0.53490 0.09731 0.37412
 H468 H 0.24313 0.16440 0.40324
 C469 C 0.88744 0.39706 0.63923
 C470 C 0.90656 0.35361 0.62984
 N471 N 0.95061 0.34666 0.58963
 C472 C 0.97394 0.38088 0.55655
 C473 C 0.94942 0.42364 0.56025
 N474 N 0.90793 0.43044 0.60356
 N475 N 0.84721 0.40518 0.68254
 C476 C 0.82308 0.37161 0.71516
 C477 C 0.83650 0.32696 0.70157
 N478 N 0.87967 0.31926 0.65983
 H479 H 1.01150 0.37445 0.52893
 H480 H 0.78854 0.38016 0.74561
 C481 C 0.86395 0.57853 0.14802
 C482 C 0.89350 0.59608 0.19846
 N483 N 0.94800 0.58105 0.21154
 C484 C 0.97467 0.55054 0.17498
 C485 C 0.94524 0.53431 0.12312
 N486 N 0.89004 0.54815 0.11288
 N487 N 0.81370 0.59677 0.12892
 C488 C 0.79110 0.63213 0.15784
 C489 C 0.81834 0.64917 0.21051
 N490 N 0.86972 0.63084 0.22927
 H491 H 1.01949 0.54170 0.18384
 H492 H 0.75328 0.64756 0.13792
 C493 C 0.64025 0.40932 0.63605
 C494 C 0.61328 0.39054 0.68711
 N495 N 0.55927 0.40540 0.70336
 C496 C 0.53084 0.43695 0.66952
 C497 C 0.55772 0.45448 0.61690
 N498 N 0.61243 0.44053 0.60357
 N499 N 0.69033 0.39231 0.61447
 C500 C 0.71557 0.35722 0.64164
 C501 C 0.69141 0.33885 0.69523
 N502 N 0.63970 0.35578 0.71633
 H503 H 0.48676 0.44614 0.68136
 H504 H 0.75387 0.34357 0.62029
 C505 C 0.11943 0.08522 0.34305
 C506 C 0.09273 0.12670 0.33599
 N507 N 0.04073 0.13435 0.36138
 C508 C 0.01392 0.10299 0.39474
 C509 C 0.03901 0.06025 0.40298
 N510 N 0.09224 0.05274 0.37673
 N511 N 0.17415 0.07980 0.32041
 C512 C 0.20334 0.11430 0.29331
 C513 C 0.17713 0.15656 0.28997
 N514 N 0.12192 0.16077 0.31028
 H515 H -0.02506 0.11345 0.41776
 H516 H 0.24756 0.10932 0.27827
 C517 C 0.41576 0.89703 0.81072
 C518 C 0.35760 0.90755 0.79757
 N519 N 0.33656 0.94752 0.81524
 C520 C 0.37015 0.97637 0.84799
 C521 C 0.42679 0.96395 0.86618
 N522 N 0.44825 0.92482 0.84559
 N523 N 0.43706 0.85716 0.79397
 C524 C 0.40209 0.82621 0.76768
 C525 C 0.34198 0.83462 0.76005
 N526 N 0.32175 0.87599 0.77314
 H527 H 0.35100 1.00702 0.86366
 H528 H 0.42092 0.79449 0.75638
 C529 C 0.15338 0.90414 0.60341
 C530 C 0.14761 0.89998 0.66657
 N531 N 0.10859 0.92592 0.69639
 C532 C 0.07391 0.95497 0.66565
 C533 C 0.07692 0.95741 0.60166
 N534 N 0.11771 0.93220 0.57258
 N535 N 0.19190 0.87797 0.57339
 C536 C 0.22371 0.84681 0.60340
 C537 C 0.21581 0.84054 0.66642
 N538 N 0.17824 0.86804 0.69638
 H539 H 0.04260 0.97441 0.69077
 H540 H 0.25246 0.82555 0.57764
 C541 C 0.67134 0.59412 0.40002
 C542 C 0.64620 0.63554 0.38958
 N543 N 0.58882 0.64194 0.39909
 C544 C 0.55452 0.60857 0.41922
 C545 C 0.57879 0.56665 0.43086
 N546 N 0.63712 0.56036 0.42128
 N547 N 0.72908 0.58844 0.38726
 C548 C 0.76180 0.62209 0.36240
 C549 C 0.73497 0.66287 0.34938
 N550 N 0.67844 0.66823 0.36541
 H551 H 0.50879 0.61528 0.42648
 H552 H 0.80669 0.61627 0.34972
 C553 C 0.32920 0.10808 0.09833
 C554 C 0.34506 0.10744 0.16030
 N555 N 0.38516 0.07840 0.18009
 C556 C 0.41184 0.05099 0.14048
 C557 C 0.39936 0.05343 0.07720
 N558 N 0.35726 0.08163 0.05800
 N559 N 0.28864 0.13718 0.07897
 C560 C 0.26454 0.16642 0.11837
 C561 C 0.28317 0.16756 0.17982
 N562 N 0.32263 0.13758 0.19917
 H563 H 0.44522 0.02936 0.15808
 H564 H 0.23308 0.18978 0.10094
 C565 C 0.83237 0.39583 0.89649
 C566 C 0.85814 0.35430 0.88934
 N567 N 0.91423 0.34778 0.90469
 C568 C 0.94687 0.38122 0.92714
 C569 C 0.92225 0.42354 0.93500
 N570 N 0.86493 0.42991 0.91992
 N571 N 0.77608 0.40135 0.87767
 C572 C 0.74599 0.36757 0.84945
 C573 C 0.77448 0.32711 0.83837
 N574 N 0.82871 0.32180 0.86139
 H575 H 0.99174 0.37423 0.93842
 H576 H 0.70269 0.37339 0.83177
 C577 C 0.59655 0.09576 0.81399
 C578 C 0.57286 0.13856 0.81692
 N579 N 0.51825 0.14343 0.83965
 C580 C 0.48834 0.10802 0.86303
 C581 C 0.51577 0.06617 0.86790
 N582 N 0.56859 0.06114 0.84096
 N583 N 0.64981 0.09009 0.78955
 C584 C 0.68175 0.12530 0.77041
 C585 C 0.66178 0.16920 0.77939
 N586 N 0.60625 0.17455 0.80071
 H587 H 0.44625 0.11375 0.88374
 H588 H 0.72410 0.11846 0.75210
 C589 C 0.35816 0.59569 0.61166
 C590 C 0.39093 0.62081 0.65298
 N591 N 0.44252 0.60465 0.67365
 C592 C 0.46419 0.56550 0.65244
 C593 C 0.43357 0.54171 0.60718
 N594 N 0.38022 0.55722 0.58974
 N595 N 0.30671 0.61164 0.59068
 C596 C 0.28535 0.65101 0.61087
 C597 C 0.31652 0.67561 0.65472
 N598 N 0.36969 0.66024 0.67326
 H599 H 0.50727 0.55528 0.66655
 H600 H 0.24346 0.66204 0.59442
 C601 C 0.13139 0.39041 0.12216
 C602 C 0.11363 0.38362 0.18232
 N603 N 0.07267 0.41095 0.20675
 C604 C 0.04811 0.44411 0.17293
 C605 C 0.06702 0.45121 0.11264
 N606 N 0.10905 0.42422 0.09016
 N607 N 0.16618 0.36072 0.09424
 C608 C 0.18594 0.32480 0.12445
 C609 C 0.17327 0.31960 0.18683
 N610 N 0.13618 0.34890 0.21414
 H611 H 0.01250 0.46286 0.19187
 H612 H 0.21393 0.30202 0.10037
 C613 C 0.94274 0.87396 0.36018
 C614 C 0.88970 0.88386 0.33195
 N615 N 0.86493 0.92351 0.34090
 C616 C 0.89040 0.95427 0.37663
 C617 C 0.94656 0.94741 0.40156
 N618 N 0.97083 0.90626 0.39332
 N619 N 0.96112 0.83098 0.35997
 C620 C 0.92764 0.79783 0.33474
 C621 C 0.87350 0.80830 0.30814
 N622 N 0.85793 0.85142 0.30571
 H623 H 0.86281 0.98095 0.39013
 H624 H 0.94210 0.76378 0.33730
 C625 C 0.86136 0.60895 0.62570
 C626 C 0.83814 0.64619 0.59727
 N627 N 0.84814 0.65294 0.53684
 C628 C 0.88231 0.62451 0.50447
 C629 C 0.91067 0.58983 0.53509
 N630 N 0.89764 0.58271 0.59463
 N631 N 0.84703 0.59913 0.68383
 C632 C 0.81332 0.62690 0.71660
 C633 C 0.79641 0.66767 0.69149
 N634 N 0.80742 0.67541 0.63116
 H635 H 0.88577 0.62833 0.45574
 H636 H 0.80141 0.61716 0.76202
 C637 C 0.63753 0.39595 0.10417
 C638 C 0.60772 0.35718 0.12101
 N639 N 0.55008 0.35289 0.10982
 C640 C 0.52019 0.38606 0.08300
 C641 C 0.54925 0.42548 0.06596
 N642 N 0.60764 0.42933 0.07717
 N643 N 0.69551 0.39981 0.11639
 C644 C 0.72463 0.36663 0.14538
 C645 C 0.69408 0.32814 0.16321
 N646 N 0.63651 0.32458 0.14971
 H647 H 0.47466 0.38058 0.07350
 H648 H 0.77061 0.37052 0.15466
 C649 C 0.36129 0.88682 0.39379
 C650 C 0.38494 0.84421 0.39338
 N651 N 0.43446 0.83592 0.42507
 C652 C 0.46235 0.86867 0.45643
 C653 C 0.43998 0.91198 0.45568
 N654 N 0.38942 0.91969 0.42459
 N655 N 0.31264 0.89520 0.36035
 C656 C 0.28716 0.86292 0.32558
 C657 C 0.31203 0.82047 0.32354
 N658 N 0.36001 0.81237 0.35836
 H659 H 0.50301 0.86118 0.47879
 H660 H 0.24905 0.87071 0.29878
 C661 C 0.17245 0.10738 0.91819
 C662 C 0.14842 0.14971 0.91506
 N663 N 0.09518 0.15772 0.93919
 C664 C 0.06344 0.12463 0.96499
 C665 C 0.08568 0.08140 0.96554
 N666 N 0.14037 0.07404 0.94310
 N667 N 0.22508 0.09962 0.89146
 C668 C 0.25311 0.13201 0.85886
 C669 C 0.22565 0.17308 0.85069
 N670 N 0.17538 0.18095 0.88158
 H671 H 0.02022 0.13184 0.98158
 H672 H 0.29358 0.12462 0.83575
 C673 C 0.16532 0.89111 0.11057
 C674 C 0.14264 0.87608 0.16617
 N675 N 0.08851 0.88926 0.18346
 C676 C 0.05613 0.91661 0.14751
 C677 C 0.07868 0.93138 0.09128
 N678 N 0.13317 0.91834 0.07489
 N679 N 0.21794 0.87659 0.09154
 C680 C 0.24890 0.84719 0.12512
 C681 C 0.22692 0.83162 0.18140
 N682 N 0.17368 0.84660 0.20013
 H683 H 0.01319 0.92644 0.16256
 H684 H 0.28865 0.83423 0.10587
 C685 C 0.87813 0.40104 0.32381
 C686 C 0.82887 0.38411 0.35364
 N687 N 0.81631 0.39685 0.41112
 C688 C 0.85144 0.42567 0.44107
 C689 C 0.90163 0.44263 0.41212
 N690 N 0.91333 0.43039 0.35348
 N691 N 0.89155 0.38579 0.26717
 C692 C 0.85830 0.35366 0.23986
 C693 C 0.80934 0.33631 0.27065
 N694 N 0.79639 0.35258 0.32645
 H695 H 0.84028 0.43463 0.48730
 H696 H 0.87114 0.34079 0.19589
 C697 C 0.36389 0.10323 0.61919
 C698 C 0.39204 0.11966 0.67143
 N699 N 0.44800 0.10724 0.68224
 C700 C 0.47672 0.07953 0.64331
 C701 C 0.44858 0.06338 0.59031
 N702 N 0.39240 0.07564 0.58042
 N703 N 0.30905 0.11631 0.60664
 C704 C 0.28084 0.14521 0.64336
 C705 C 0.30780 0.16214 0.69686
 N706 N 0.36372 0.14893 0.70893
 H707 H 0.52120 0.07045 0.65355
 H708 H 0.23821 0.15605 0.62903
 C709 C 0.61716 0.60352 0.86103
 C710 C 0.60782 0.64826 0.87486
 N711 N 0.56983 0.65948 0.91885
 C712 C 0.54201 0.62786 0.95148
 C713 C 0.55443 0.58269 0.94243
 N714 N 0.59083 0.57144 0.89560
 N715 N 0.65189 0.59329 0.81290
 C716 C 0.68006 0.62585 0.78074
 C717 C 0.67580 0.67041 0.79962
 N718 N 0.63777 0.68010 0.84494
 H719 H 0.50894 0.63840 0.98210
 H720 H 0.70526 0.61675 0.74156
 C721 C 0.38744 0.39706 0.86077
 C722 C 0.40656 0.35361 0.87016
 N723 N 0.45061 0.34666 0.91037
 C724 C 0.47394 0.38088 0.94345
 C725 C 0.44942 0.42364 0.93975
 N726 N 0.40793 0.43044 0.89644
 N727 N 0.34721 0.40518 0.81746
 C728 C 0.32308 0.37161 0.78484
 C729 C 0.33650 0.32696 0.79843
 N730 N 0.37967 0.31926 0.84017
 H731 H 0.51150 0.37445 0.97107
 H732 H 0.28854 0.38016 0.75439
 C733 C 0.87626 0.12270 0.08559
 C734 C 0.90291 0.14269 0.13621
 N735 N 0.95967 0.13381 0.14867
 C736 C 0.99038 0.10489 0.11363
 C737 C 0.96280 0.08355 0.06420
 N738 N 0.90651 0.09360 0.05145
 N739 N 0.81970 0.13099 0.07286
 C740 C 0.78809 0.15827 0.10879
 C741 C 0.81386 0.17772 0.16073
 N742 N 0.87121 0.16983 0.17267
 H743 H 1.03490 0.09731 0.12588
 H744 H 0.74313 0.16440 0.09676
 C745 C 0.64552 0.87611 0.59613
 C746 C 0.61336 0.85395 0.64121
 N747 N 0.55471 0.85926 0.64397
 C748 C 0.52698 0.88688 0.60466
 C749 C 0.55963 0.91079 0.56114
 N750 N 0.61814 0.90423 0.55789
 N751 N 0.70399 0.87057 0.59275
 C752 C 0.73206 0.84415 0.63309
 C753 C 0.70043 0.82317 0.68007
 N754 N 0.64145 0.82805 0.68206
 H755 H 0.48048 0.89160 0.60932
 H756 H 0.77840 0.83916 0.62769
 C757 C 0.09918 0.61262 0.33316
 C758 C 0.08902 0.65794 0.34087
 N759 N 0.04236 0.67052 0.37488
 C760 C 0.00798 0.63982 0.40406
 C761 C 0.02320 0.59444 0.40287
 N762 N 0.06724 0.58266 0.36474
 N763 N 0.14354 0.59899 0.29777
 C764 C 0.18001 0.62862 0.27128
 C765 C 0.17426 0.67457 0.28277
 N766 N 0.12731 0.68820 0.31644
 H767 H -0.02854 0.65150 0.42976
 H768 H 0.21606 0.61547 0.24607
   
