data_POSCAR
  _audit_creation_date              2014-09-24
  _audit_creation_method            'ToBaCCo'
  _symmetry_space_group_name_H-M    'P1'
  _symmetry_Int_Tables_number       1
  _symmetry_cell_setting            triclinic
  loop_
  _symmetry_equiv_pos_as_xyz
 x,y,z
_cell_length_a 36.7608
_cell_length_b 38.3662
_cell_length_c 34.9632
_cell_angle_alpha 91.788000
_cell_angle_beta 88.412300
_cell_angle_gamma 91.950200
loop_
  _atom_site_label
  _atom_site_type_symbol
  _atom_site_fract_x
  _atom_site_fract_y
  _atom_site_fract_z
C1 C 0.17531 0.19833 0.21084
 N2 N 0.20503 0.18287 0.19530
 C3 C 0.22322 0.19687 0.16497
 N4 N 0.21152 0.22648 0.14976
 C5 C 0.18175 0.24217 0.16537
 N6 N 0.16346 0.22796 0.19578
 C7 C -0.19714 0.80119 0.23159
 N8 N -0.22469 0.81688 0.21474
 C9 C -0.23948 0.80264 0.18260
 N10 N -0.22643 0.77266 0.16685
 C11 C -0.19884 0.75674 0.18370
 N12 N -0.18391 0.77119 0.21591
 C13 C -0.22114 0.21397 -0.26442
 N14 N -0.25165 0.19867 -0.24904
 C15 C -0.26938 0.21404 -0.21890
 N16 N -0.25607 0.24458 -0.20339
 C17 C -0.22557 0.26014 -0.21881
 N18 N -0.20776 0.24454 -0.24898
 C19 C 0.19810 0.80056 -0.24973
 N20 N 0.22940 0.81532 -0.23630
 C21 C 0.24859 0.79888 -0.21016
 N22 N 0.23614 0.76770 -0.19685
 C23 C 0.20485 0.75274 -0.21040
 N24 N 0.18560 0.76936 -0.23657
 C25 C 0.20896 1.19491 0.77728
 N26 N 0.19228 1.22265 0.79387
 C27 C 0.20423 1.23700 0.82730
 N28 N 0.23287 1.22329 0.84462
 C29 C 0.24976 1.19545 0.82802
 N30 N 0.23757 1.18107 0.79450
 C31 C 0.81455 0.80880 0.76984
 N32 N 0.78403 0.82236 0.78629
 C33 C 0.76829 0.80757 0.81776
 N34 N 0.78342 0.77955 0.83307
 C35 C 0.81395 0.76606 0.81662
 N36 N 0.82955 0.78082 0.78519
 C37 C 0.21309 0.77876 1.26240
 N38 N 0.24388 0.79241 1.24561
 C39 C 0.25926 0.77598 1.21453
 N40 N 0.24324 0.74634 1.19964
 C41 C 0.21245 0.73268 1.21649
 N42 N 0.19723 0.74915 1.24753
 C43 C 0.80847 1.20279 1.26159
 N44 N 0.77705 1.18860 1.24748
 C45 C 0.75998 1.20459 1.21920
 N46 N 0.77475 1.23438 1.20455
 C47 C 0.80614 1.24855 1.21864
 N48 N 0.82311 1.23258 1.24691
 O49 O 0.52288 0.95439 0.95237
 O50 O 0.46478 0.96529 1.08288
 O51 O 0.57611 0.99161 1.04360
 O52 O 0.45710 0.95221 0.96235
 O53 O 0.53372 0.96634 1.08053
 O54 O 0.47517 0.98124 0.91281
 O55 O 0.45592 0.93988 1.02856
 O56 O 0.57153 0.98149 0.97391
 C57 C 0.55651 0.95515 0.95746
 C58 C 0.45440 0.93903 1.06383
 C59 C 0.56615 0.96938 1.06830
 C60 C 0.45250 0.95853 0.92755
 O61 O 0.47954 1.03834 0.95198
 O62 O 0.53477 1.03289 1.08703
 O63 O 0.54650 1.04892 0.96996
 O64 O 0.42668 1.00321 1.04637
 O65 O 0.46664 1.03344 1.07998
 O66 O 0.53756 1.01355 0.92450
 O67 O 0.43125 1.01686 0.97900
 O68 O 0.55138 1.05731 1.03518
 Co69 Co 0.49999 0.99610 0.95457
 Co70 Co 0.49995 0.99955 1.07587
 Co71 Co 0.55683 1.01811 1.00588
 Co72 Co 0.44772 0.97996 1.00474
 O73 O 0.50265 0.99978 1.01268
 C74 C 0.44668 1.04054 0.96023
 C75 C 0.55058 1.05737 1.07038
 C76 C 0.55173 1.04150 0.93569
 C77 C 0.43510 1.02910 1.06787
 O78 O 0.03629 0.47747 0.04802
 O79 O 0.03178 0.53175 -0.08598
 O80 O -0.00051 0.42784 -0.04763
 O81 O 0.04776 0.54123 0.03147
 O82 O 0.03117 0.46631 -0.08067
 O83 O 0.01045 0.53303 0.07636
 O84 O 0.05727 0.54624 -0.03354
 O85 O 0.01370 0.43161 0.01992
 C86 C 0.03832 0.44602 0.03925
 C87 C 0.05756 0.54603 -0.06873
 C88 C 0.02634 0.43592 -0.06925
 C89 C 0.03965 0.54671 0.06557
 O90 O -0.05099 0.51946 0.04737
 O91 O -0.03983 0.46564 -0.08370
 O92 O -0.05351 0.45634 0.03686
 O93 O -0.01057 0.57132 -0.04252
 O94 O -0.03782 0.53178 -0.08017
 O95 O -0.02322 0.47335 0.08663
 O96 O -0.02220 0.56609 0.02675
 O97 O -0.06638 0.45592 -0.02969
 Co98 Co -0.00762 0.49743 0.04534
 Co99 Co -0.00366 0.49877 -0.07591
 Co100 Co -0.02466 0.44773 -0.00571
 Co101 Co 0.01622 0.55192 -0.00478
 O102 O -0.00358 0.50039 -0.01269
 C103 C -0.04991 0.55172 0.04266
 C104 C -0.06705 0.45486 -0.06502
 C105 C -0.04656 0.45145 0.07151
 C106 C -0.03377 0.56271 -0.06764
 O107 O 1.07197 0.04148 0.46425
 O108 O 0.92579 0.01485 0.53966
 O109 O 0.97577 0.02315 0.42764
 O110 O 1.03043 0.06029 0.55533
 O111 O 0.95044 0.04206 0.47966
 O112 O 1.07998 0.03796 0.53546
 O113 O 0.96842 0.05079 0.55049
 O114 O 1.04035 0.01197 0.42139
 C115 C 1.06081 0.03774 0.43091
 C116 C 0.93592 0.04255 0.55556
 C117 C 0.95731 0.04559 0.44513
 C118 C 1.06391 0.06110 0.55390
 O119 O 1.07564 -0.02841 0.53131
 O120 O 0.91476 -0.01600 0.47280
 O121 O 1.02593 -0.05317 0.44983
 O122 O 0.97381 -0.01752 0.57347
 O123 O 0.95358 -0.04328 0.52153
 O124 O 1.07679 -0.02627 0.45905
 O125 O 1.04028 -0.00640 0.57773
 O126 O 0.96270 -0.04290 0.45242
 Co127 Co 1.06962 0.00608 0.49759
 Co128 Co 0.95432 -0.00075 0.49919
 Co129 Co 1.00189 -0.01348 0.44311
 Co130 Co 1.00343 0.02024 0.55935
 O131 O 1.00956 0.00445 0.50148
 C132 C 1.06458 -0.02721 0.56571
 C133 C 0.92931 -0.03759 0.44811
 C134 C 1.05951 -0.05312 0.44859
 C135 C 0.95831 -0.04350 0.55684
 C136 C 1.12630 0.14476 0.29593
 C137 C 1.12531 0.16229 0.33601
 C138 C 1.11126 0.14109 0.36375
 C139 C 1.09963 0.10448 0.34864
 C140 C 1.13363 0.09034 0.32796
 C141 C 1.14762 0.11147 0.30031
 C142 C 1.08695 0.13192 0.28901
 C143 C 1.07291 0.11073 0.31675
 C144 C 1.14215 0.16675 0.26576
 C145 C 1.15691 0.18277 0.24023
 C146 C 1.08502 0.08124 0.37828
 C147 C 1.07374 0.06153 0.40238
 H148 H 1.13469 0.18898 0.34204
 H149 H 1.10863 0.14962 0.39357
 H150 H 1.14572 0.06587 0.33451
 H151 H 1.17169 0.10505 0.28317
 H152 H 1.07145 0.13894 0.26458
 H153 H 1.04537 0.09961 0.31609
 C154 C 0.84807 -0.14330 0.31854
 C155 C 0.88982 -0.14191 0.31741
 C156 C 0.90457 -0.12031 0.34492
 C157 C 0.87614 -0.10217 0.37091
 C158 C 0.85193 -0.13196 0.38706
 C159 C 0.83714 -0.15361 0.35948
 C160 C 0.83718 -0.10515 0.31605
 C161 C 0.85193 -0.08355 0.34356
 C162 C 0.83221 -0.16588 0.28828
 C163 C 0.81878 -0.18253 0.26215
 C164 C 0.89269 -0.07874 0.39999
 C165 C 0.90818 -0.05961 0.42267
 H166 H 0.90636 -0.15665 0.29688
 H167 H 0.93378 -0.11654 0.34791
 H168 H 0.84684 -0.13569 0.41741
 H169 H 0.81942 -0.17592 0.36619
 H170 H 0.81936 -0.09590 0.29456
 H171 H 0.84675 -0.05585 0.34565
 C172 C 0.83577 0.15367 0.66116
 C173 C 0.82653 0.11527 0.66957
 C174 C 0.84555 0.09226 0.64711
 C175 C 0.87196 0.10986 0.61839
 C176 C 0.89616 0.13472 0.64272
 C177 C 0.87715 0.15773 0.66520
 C178 C 0.82934 0.15687 0.61822
 C179 C 0.84841 0.13380 0.59569
 C180 C 0.81535 0.17786 0.68617
 C181 C 0.79838 0.19596 0.70855
 C182 C 0.89296 0.08506 0.59477
 C183 C 0.91167 0.06513 0.57638
 H184 H 0.80670 0.10688 0.69127
 H185 H 0.84202 0.06420 0.64954
 H186 H 0.92569 0.13432 0.64228
 H187 H 0.89037 0.17703 0.68398
 H188 H 0.81144 0.17557 0.60657
 H189 H 0.84685 0.13272 0.56471
 C190 C 1.14214 -0.13838 0.67971
 C191 C 1.15195 -0.09989 0.68911
 C192 C 1.13533 -0.07721 0.66665
 C193 C 1.11050 -0.09520 0.63698
 C194 C 1.08373 -0.11835 0.66021
 C195 C 1.10039 -0.14109 0.68272
 C196 C 1.15152 -0.14346 0.63692
 C197 C 1.13488 -0.12076 0.61444
 C198 C 1.16064 -0.16223 0.70405
 C199 C 1.17711 -0.18027 0.72471
 C200 C 1.09310 -0.07065 0.61257
 C201 C 1.07967 -0.05055 0.59172
 H202 H 1.17035 -0.09121 0.71150
 H203 H 1.13947 -0.04912 0.66980
 H204 H 1.05432 -0.11702 0.65907
 H205 H 1.08528 -0.15926 0.70086
 H206 H 1.16956 -0.16320 0.62528
 H207 H 1.13868 -0.12105 0.58353
 C208 C 0.30566 1.13952 1.12369
 C209 C 0.30091 1.10313 1.14058
 C210 C 0.32743 1.08093 1.12915
 C211 C 0.35616 1.09724 1.10194
 C212 C 0.37060 1.13020 1.12334
 C213 C 0.34401 1.15246 1.13480
 C214 C 0.30799 1.13295 1.08018
 C215 C 0.33459 1.11069 1.06872
 C216 C 0.27668 1.16271 1.13674
 C217 C 0.25195 1.17987 1.14918
 C218 C 0.38454 1.07304 1.08991
 C219 C 0.40766 1.05290 1.08008
 H220 H 0.27860 1.09546 1.15987
 H221 H 0.32787 1.05427 1.13864
 H222 H 0.39918 1.13562 1.12892
 H223 H 0.34979 1.17696 1.15017
 H224 H 0.29041 1.14478 1.06015
 H225 H 0.33978 1.10339 1.03886
 C226 C 0.33130 0.85452 0.83702
 C227 C 0.33151 0.85224 0.88073
 C228 C 0.35732 0.87345 0.89742
 C229 C 0.38041 0.89490 0.86879
 C230 C 0.35288 0.91460 0.84623
 C231 C 0.32707 0.89338 0.82953
 C232 C 0.37029 0.84662 0.82334
 C233 C 0.39619 0.86790 0.84009
 C234 C 0.30283 0.83228 0.81940
 C235 C 0.27797 0.81561 0.80538
 C236 C 0.40760 0.91788 0.88749
 C237 C 0.42875 0.93671 0.90471
 H238 H 0.31307 0.83536 0.89713
 H239 H 0.36098 0.87476 0.92815
 H240 H 0.35365 0.94273 0.84352
 H241 H 0.30570 0.90336 0.81250
 H242 H 0.37697 0.82617 0.80242
 H243 H 0.42507 0.86570 0.83352
 C244 C 0.68594 0.86064 1.13513
 C245 C 0.68512 0.85990 1.09124
 C246 C 0.66092 0.88210 1.07720
 C247 C 0.64000 0.90280 1.10850
 C248 C 0.66944 0.92122 1.13273
 C249 C 0.69359 0.89906 1.14673
 C250 C 0.64646 0.85289 1.14844
 C251 C 0.62228 0.87508 1.13443
 C252 C 0.71219 0.83744 1.15081
 C253 C 0.73453 0.82007 1.16511
 C254 C 0.61401 0.92679 1.09380
 C255 C 0.59238 0.94648 1.08211
 H256 H 0.70198 0.84338 1.07284
 H257 H 0.65705 0.88465 1.04676
 H258 H 0.67121 0.94920 1.13839
 H259 H 0.71605 0.90810 1.16440
 H260 H 0.63820 0.83181 1.16714
 H261 H 0.59328 0.87302 1.14113
 C262 C 0.65543 1.15375 0.83507
 C263 C 0.65694 1.15788 0.87877
 C264 C 0.63454 1.13484 0.89764
 C265 C 0.61282 1.10989 0.87097
 C266 C 0.64150 1.09235 0.84494
 C267 C 0.66389 1.11540 0.82607
 C268 C 0.61509 1.15683 0.82584
 C269 C 0.59261 1.13371 0.84478
 C270 C 0.68048 1.17792 0.81507
 C271 C 0.70313 1.19600 0.79899
 C272 C 0.58945 1.08498 0.89196
 C273 C 0.57158 1.06474 0.91093
 H274 H 0.67401 1.17728 0.89362
 H275 H 0.63244 1.13449 0.92867
 H276 H 0.64395 1.06430 0.84153
 H277 H 0.68555 1.10706 0.80647
 H278 H 0.60509 1.17546 0.80624
 H279 H 0.56332 1.13251 0.84141
 C280 C 0.13819 0.32641 0.11592
 C281 C 0.14298 0.32655 0.07213
 C282 C 0.12592 0.35309 0.05572
 C283 C 0.10574 0.37688 0.08471
 C284 C 0.13458 0.38945 0.11342
 C285 C 0.15168 0.36286 0.12986
 C286 C 0.09692 0.32581 0.12354
 C287 C 0.07992 0.35224 0.10719
 C288 C 0.15556 0.29731 0.13368
 C289 C 0.16819 0.27251 0.14826
 C290 C 0.08584 0.40458 0.06733
 C291 C 0.06600 0.42508 0.05388
 H292 H 0.15858 0.30759 0.05552
 H293 H 0.12694 0.35691 0.02508
 H294 H 0.14108 0.41673 0.12012
 H295 H 0.17283 0.36737 0.15067
 H296 H 0.08229 0.30632 0.14042
 H297 H 0.05070 0.35534 0.11007
 C298 C -0.17469 0.34224 -0.16155
 C299 C -0.13736 0.33057 -0.14939
 C300 C -0.11817 0.35550 -0.12930
 C301 C -0.13806 0.38984 -0.12319
 C302 C -0.17474 0.37947 -0.10400
 C303 C -0.19402 0.35442 -0.12419
 C304 C -0.16669 0.37567 -0.18376
 C305 C -0.14741 0.40072 -0.16358
 C306 C -0.19458 0.31454 -0.18304
 C307 C -0.20940 0.29038 -0.19993
 C308 C -0.11607 0.41588 -0.10156
 C309 C -0.09521 0.43508 -0.08433
 H310 H -0.12687 0.30489 -0.15600
 H311 H -0.09125 0.35113 -0.11872
 H312 H -0.18472 0.39085 -0.07707
 H313 H -0.22054 0.34433 -0.11452
 H314 H -0.17548 0.37938 -0.21270
 H315 H -0.13968 0.42589 -0.17522
 C316 C 0.15805 0.66635 -0.16031
 C317 C 0.16744 0.63010 -0.17694
 C318 C 0.14949 0.60330 -0.15877
 C319 C 0.12401 0.61551 -0.12584
 C320 C 0.09864 0.64096 -0.14391
 C321 C 0.11649 0.66762 -0.16198
 C322 C 0.16609 0.66509 -0.11752
 C323 C 0.14819 0.63837 -0.09940
 C324 C 0.17647 0.69582 -0.17939
 C325 C 0.19010 0.72127 -0.19411
 C326 C 0.10354 0.58769 -0.10598
 C327 C 0.08400 0.56715 -0.08911
 H328 H 0.18650 0.62587 -0.20077
 H329 H 0.15316 0.57611 -0.16702
 H330 H 0.06913 0.63823 -0.14269
 H331 H 0.10228 0.68769 -0.17621
 H332 H 0.18434 0.68350 -0.10278
 H333 H 0.15111 0.63389 -0.06915
 C334 C -0.15150 0.67243 0.12976
 C335 C -0.14799 0.67647 0.08624
 C336 C -0.13024 0.65001 0.06768
 C337 C -0.11774 0.62208 0.09445
 C338 C -0.15235 0.60983 0.11644
 C339 C -0.17015 0.63636 0.13503
 C340 C -0.11244 0.66856 0.14287
 C341 C -0.09473 0.64217 0.12437
 C342 C -0.16979 0.70147 0.14969
 C343 C -0.18353 0.72627 0.16562
 C344 C -0.09728 0.59434 0.07473
 C345 C -0.07736 0.57353 0.05939
 H346 H -0.15864 0.69815 0.07129
 H347 H -0.12569 0.64903 0.03686
 H348 H -0.16205 0.58282 0.11726
 H349 H -0.19511 0.63206 0.15180
 H350 H -0.09977 0.68508 0.16487
 H351 H -0.06689 0.63611 0.13054
 C352 C 1.15980 0.14959 0.68613
 C353 C 1.17381 0.15964 0.64601
 C354 C 1.15435 0.14403 0.61707
 C355 C 1.12287 0.11998 0.63121
 C356 C 1.09995 0.14292 0.65855
 C357 C 1.11935 0.15848 0.68739
 C358 C 1.16001 0.10964 0.68584
 C359 C 1.14064 0.09410 0.65703
 C360 C 1.17999 0.16606 0.71791
 C361 C 1.19470 0.17947 0.74532
 C362 C 1.10169 0.10220 0.60097
 C363 C 1.08419 0.08500 0.57814
 H364 H 1.19690 0.17741 0.64080
 H365 H 1.16076 0.14843 0.58708
 H366 H 1.07106 0.14672 0.65547
 H367 H 1.10703 0.17561 0.70902
 H368 H 1.17422 0.09484 0.70640
 H369 H 1.13826 0.06594 0.65296
 C370 C 0.86857 -0.14295 0.68339
 C371 C 0.86013 -0.10415 0.68237
 C372 C 0.87939 -0.08671 0.65477
 C373 C 0.90531 -0.10970 0.63073
 C374 C 0.88107 -0.13988 0.61490
 C375 C 0.86172 -0.15739 0.64263
 C376 C 0.91003 -0.14372 0.68761
 C377 C 0.92933 -0.12624 0.65995
 C378 C 0.84792 -0.16119 0.71377
 C379 C 0.83169 -0.17544 0.73972
 C380 C 0.92582 -0.08965 0.60168
 C381 C 0.94157 -0.07025 0.57982
 H382 H 0.84065 -0.09145 0.70161
 H383 H 0.87637 -0.05906 0.65043
 H384 H 0.87931 -0.14692 0.58468
 H385 H 0.84338 -0.17942 0.63614
 H386 H 0.92308 -0.15694 0.71028
 H387 H 0.95888 -0.12449 0.65893
 C388 C 1.15665 -0.16443 0.34078
 C389 C 1.16137 -0.17121 0.38340
 C390 C 1.14078 -0.15051 0.40728
 C391 C 1.11757 -0.12515 0.38609
 C392 C 1.09500 -0.14823 0.35837
 C393 C 1.11554 -0.16888 0.33456
 C394 C 1.16524 -0.12531 0.33670
 C395 C 1.14474 -0.10471 0.36047
 C396 C 1.17848 -0.18608 0.31424
 C397 C 1.19543 -0.20295 0.29066
 C398 C 1.09563 -0.10200 0.41084
 C399 C 1.07842 -0.08085 0.42922
 H400 H 1.17923 -0.19055 0.39387
 H401 H 1.14098 -0.15210 0.43822
 H402 H 1.06548 -0.14844 0.35761
 H403 H 1.10359 -0.18678 0.31338
 H404 H 1.18573 -0.11471 0.31691
 H405 H 1.14768 -0.07644 0.36102
 C406 C 0.86594 0.15018 0.33610
 C407 C 0.86363 0.11082 0.32705
 C408 C 0.88366 0.09185 0.35047
 C409 C 0.90414 0.11402 0.38078
 C410 C 0.87466 0.13508 0.40208
 C411 C 0.85456 0.15411 0.37857
 C412 C 0.90685 0.15993 0.33453
 C413 C 0.92694 0.14090 0.35802
 C414 C 0.84432 0.17009 0.31026
 C415 C 0.82703 0.18567 0.28790
 C416 C 0.92524 0.09253 0.40550
 C417 C 0.94103 0.07246 0.42448
 H418 H 0.84763 0.09886 0.30420
 H419 H 0.88480 0.06364 0.34764
 H420 H 0.87005 0.13511 0.43288
 H421 H 0.83273 0.17043 0.38923
 H422 H 0.91894 0.18007 0.31661
 H423 H 0.95622 0.14470 0.36022
 C424 C 0.14235 0.31357 -0.12872
 C425 C 0.13507 0.31436 -0.08526
 C426 C 0.11144 0.33926 -0.07304
 C427 C 0.09745 0.36088 -0.10550
 C428 C 0.08099 0.33405 -0.13406
 C429 C 0.10456 0.30921 -0.14625
 C430 C 0.15550 0.35081 -0.13807
 C431 C 0.13189 0.37570 -0.12585
 C432 C 0.16709 0.28652 -0.14263
 C433 C 0.18563 0.26356 -0.15586
 C434 C 0.07189 0.38758 -0.09264
 C435 C 0.05089 0.40956 -0.08216
 H436 H 0.14738 0.29695 -0.06583
 H437 H 0.10343 0.34314 -0.04313
 H438 H 0.05323 0.33449 -0.14383
 H439 H 0.09695 0.28836 -0.16648
 H440 H 0.18112 0.35708 -0.15289
 H441 H 0.13727 0.40331 -0.13023
 C442 C -0.14204 0.32925 0.16727
 C443 C -0.10087 0.32382 0.16442
 C444 C -0.08189 0.34962 0.14593
 C445 C -0.10591 0.37838 0.13209
 C446 C -0.12696 0.39137 0.16802
 C447 C -0.14599 0.36550 0.18655
 C448 C -0.15359 0.33342 0.12586
 C449 C -0.13460 0.35925 0.10737
 C450 C -0.16209 0.30098 0.18679
 C451 C -0.17757 0.27677 0.20211
 C452 C -0.08520 0.40570 0.11172
 C453 C -0.06773 0.42716 0.09394
 H454 H -0.08776 0.30166 0.17598
 H455 H -0.05252 0.34956 0.14164
 H456 H -0.12693 0.41845 0.17799
 H457 H -0.16227 0.37040 0.21242
 H458 H -0.17487 0.31754 0.11227
 H459 H -0.13962 0.36549 0.07795
 C460 C -0.13317 0.68781 -0.13770
 C461 C -0.13670 0.68570 -0.09396
 C462 C -0.11692 0.66000 -0.07944
 C463 C -0.09558 0.63896 -0.11010
 C464 C -0.07237 0.66620 -0.13189
 C465 C -0.09211 0.69185 -0.14638
 C466 C -0.14399 0.65111 -0.15308
 C467 C -0.12422 0.62542 -0.13857
 C468 C -0.15392 0.71567 -0.15362
 C469 C -0.16971 0.73910 -0.16734
 C470 C -0.07400 0.61146 -0.09469
 C471 C -0.05578 0.58908 -0.08229
 H472 H -0.15330 0.70283 -0.07601
 H473 H -0.11657 0.65511 -0.04903
 H474 H -0.04298 0.66542 -0.13560
 H475 H -0.07962 0.71304 -0.16252
 H476 H -0.16534 0.64578 -0.17351
 H477 H -0.12861 0.59806 -0.14657
 C478 C 0.15086 0.65509 0.16406
 C479 C 0.15519 0.65521 0.12031
 C480 C 0.13246 0.63185 0.10205
 C481 C 0.10758 0.61062 0.12929
 C482 C 0.08758 0.63788 0.15418
 C483 C 0.11032 0.66124 0.17245
 C484 C 0.15631 0.61712 0.17474
 C485 C 0.13350 0.59368 0.15641
 C486 C 0.17481 0.68099 0.18334
 C487 C 0.19301 0.70381 0.19865
 C488 C 0.08298 0.58612 0.10885
 C489 C 0.06289 0.56737 0.09018
 H490 H 0.17449 0.67209 0.10500
 H491 H 0.13230 0.62875 0.07108
 H492 H 0.05815 0.63871 0.15728
 H493 H 0.10034 0.68210 0.19122
 H494 H 0.17625 0.60936 0.19488
 H495 H 0.13390 0.56582 0.16082
 C496 C 0.33035 1.14547 0.88177
 C497 C 0.33093 1.15114 0.92546
 C498 C 0.35637 1.13223 0.94259
 C499 C 0.37871 1.10953 0.91435
 C500 C 0.39500 1.13491 0.88487
 C501 C 0.36956 1.15382 0.86774
 C502 C 0.32503 1.10593 0.87536
 C503 C 0.35036 1.08710 0.89243
 C504 C 0.30249 1.16500 0.86299
 C505 C 0.27880 1.17957 0.84714
 C506 C 0.40540 1.08802 0.93228
 C507 C 0.42550 1.06775 0.94582
 H508 H 0.31304 1.16854 0.94149
 H509 H 0.36027 1.13347 0.97327
 H510 H 0.42393 1.13785 0.87814
 H511 H 0.37672 1.17295 0.84633
 H512 H 0.30322 1.09373 0.85883
 H513 H 0.35018 1.05879 0.89049
 C514 C 0.34160 0.82885 1.15674
 C515 C 0.33821 0.82593 1.11307
 C516 C 0.36324 0.84614 1.09365
 C517 C 0.38924 0.86730 1.11978
 C518 C 0.40629 0.84023 1.14467
 C519 C 0.38120 0.81997 1.16414
 C520 C 0.33938 0.86794 1.16671
 C521 C 0.36434 0.88809 1.14734
 C522 C 0.31385 0.80794 1.17767
 C523 C 0.28962 0.79249 1.19469
 C524 C 0.41529 0.89016 1.09901
 C525 C 0.43451 0.91126 1.08250
 H526 H 0.31803 0.80933 1.09866
 H527 H 0.36447 0.84686 1.06262
 H528 H 0.43541 0.83719 1.14675
 H529 H 0.38883 0.79958 1.18290
 H530 H 0.31991 0.87887 1.18729
 H531 H 0.36621 0.91627 1.15137
 C532 C 0.67304 1.15523 1.16652
 C533 C 0.63457 1.16331 1.18191
 C534 C 0.60751 1.14546 1.16277
 C535 C 0.62166 1.12135 1.13017
 C536 C 0.64837 1.09771 1.14907
 C537 C 0.67530 1.11547 1.16812
 C538 C 0.67259 1.16286 1.12368
 C539 C 0.64561 1.14506 1.10459
 C540 C 0.70278 1.17386 1.18665
 C541 C 0.72836 1.18824 1.20214
 C542 C 0.59346 1.10121 1.10927
 C543 C 0.57246 1.08245 1.09162
 H544 H 0.62907 1.18142 1.20567
 H545 H 0.57886 1.14831 1.17012
 H546 H 0.64625 1.06940 1.14768
 H547 H 0.69620 1.10238 1.18303
 H548 H 0.69172 1.18077 1.10959
 H549 H 0.64164 1.14775 1.07419
 C550 C 0.68165 0.85524 0.87196
 C551 C 0.67988 0.89330 0.86022
 C552 C 0.65261 0.91097 0.87832
 C553 C 0.62959 0.88896 0.90650
 C554 C 0.65710 0.87481 0.93388
 C555 C 0.68444 0.85709 0.91573
 C556 C 0.64349 0.83925 0.86454
 C557 C 0.61608 0.85701 0.88271
 C558 C 0.71164 0.83688 0.85233
 C559 C 0.73711 0.82302 0.83635
 C560 C 0.60085 0.90925 0.92579
 C561 C 0.57923 0.92867 0.94084
 H562 H 0.69844 0.90535 0.83944
 H563 H 0.64784 0.93815 0.87297
 H564 H 0.65518 0.87827 0.96480
 H565 H 0.70595 0.84540 0.93113
 H566 H 0.63845 0.81603 0.84668
 H567 H 0.58760 0.84901 0.88042
   
