data_POSCAR
  _audit_creation_date              2014-09-24
  _audit_creation_method            'ToBaCCo'
  _symmetry_space_group_name_H-M    'P1'
  _symmetry_Int_Tables_number       1
  _symmetry_cell_setting            triclinic
  loop_
  _symmetry_equiv_pos_as_xyz
 x,y,z
_cell_length_a 16.3893
_cell_length_b 16.8074
_cell_length_c 40.9148
_cell_angle_alpha 91.094600
_cell_angle_beta 91.518900
_cell_angle_gamma 119.746400
loop_
  _atom_site_label
  _atom_site_type_symbol
  _atom_site_fract_x
  _atom_site_fract_y
  _atom_site_fract_z
C1 C -0.06290 -0.08624 0.47658
 C2 C 0.00054 -0.03647 0.50261
 C3 C 0.01584 -0.08256 0.52813
 C4 C -0.03108 -0.17874 0.52744
 C5 C -0.09513 -0.22810 0.50127
 C6 C -0.11200 -0.18228 0.47589
 C7 C 0.05234 0.06416 0.50256
 C8 C 0.03795 0.11570 0.52669
 C9 C 0.08432 0.21153 0.52571
 C10 C 0.14770 0.25557 0.50095
 C11 C 0.16288 0.20429 0.47686
 C12 C 0.11427 0.10852 0.47762
 H13 H -0.07415 -0.04933 0.45721
 H14 H 0.06566 -0.04301 0.54794
 H15 H -0.01072 0.08118 0.54579
 H16 H 0.12471 0.06804 0.45906
 H17 H -0.13225 -0.30248 0.50071
 H18 H 0.18501 0.32956 0.50009
 C19 C 1.09288 -0.01436 0.14330
 C20 C 1.04289 -0.00172 0.16824
 C21 C 1.09145 0.06158 0.19418
 C22 C 1.18972 0.11370 0.19495
 C23 C 1.23937 0.10003 0.17013
 C24 C 1.19153 0.03504 0.14439
 C25 C 0.93955 -0.05314 0.16692
 C26 C 0.89123 -0.11505 0.19126
 C27 C 0.79277 -0.16357 0.19030
 C28 C 0.74289 -0.14726 0.16539
 C29 C 0.79076 -0.08395 0.14129
 C30 C 0.88917 -0.03834 0.14185
 H31 H 1.05486 -0.06312 0.12321
 H32 H 1.05228 0.07162 0.21315
 H33 H 0.93026 -0.12594 0.21078
 H34 H 0.92661 0.01021 0.12321
 H35 H 1.31526 0.14132 0.17095
 H36 H 0.66704 -0.18313 0.16496
 C37 C 0.06958 0.99960 0.85689
 C38 C 0.00571 0.98409 0.83081
 C39 C -0.00819 0.92116 0.80537
 C40 C 0.04061 0.87246 0.80613
 C41 C 0.10537 0.88908 0.83213
 C42 C 0.12067 0.95302 0.85756
 C43 C -0.04734 1.03328 0.83044
 C44 C -0.03176 1.09714 0.80649
 C45 C -0.07958 1.14675 0.80683
 C46 C -0.14576 1.12967 0.83076
 C47 C -0.16298 1.06449 0.85461
 C48 C -0.11229 1.01754 0.85452
 H49 H 0.07977 1.04887 0.87625
 H50 H -0.05829 0.90920 0.78547
 H51 H 0.01894 1.10951 0.78798
 H52 H -0.12363 0.96827 0.87309
 H53 H 0.14379 0.85196 0.83255
 H54 H -0.18311 1.16748 0.83086
 O55 O 0.60932 0.08106 -0.02993
 O56 O 0.45365 0.07397 0.03267
 O57 O 0.60251 0.05606 0.03310
 O58 O 0.44402 0.06709 -0.03127
 O59 O 0.36421 -0.08447 -0.03402
 O60 O 0.52450 -0.09485 0.02639
 O61 O 0.37529 -0.07750 0.02985
 O62 O 0.52946 -0.06981 -0.03674
 Cu63 Cu 0.53509 0.08424 0.00160
 Cu64 Cu 0.44086 -0.09639 -0.00405
 C65 C 0.59570 0.00836 -0.04455
 C66 C 0.38918 -0.00153 0.04239
 C67 C 0.58923 -0.02268 0.04055
 C68 C 0.37683 -0.00818 -0.04343
 O69 O 0.08331 0.62654 0.70031
 O70 O 0.09617 0.47472 0.63889
 O71 O 0.08141 0.62229 0.63665
 O72 O 0.06655 0.46413 0.70162
 O73 O -0.08790 0.38878 0.69347
 O74 O -0.07392 0.54751 0.63199
 O75 O -0.05830 0.40050 0.63081
 O76 O -0.07203 0.55117 0.69565
 Cu77 Cu 0.09699 0.55403 0.66995
 Cu78 Cu -0.08816 0.46451 0.66239
 C79 C 0.00471 0.61526 0.70868
 C80 C 0.02260 0.41300 0.62401
 C81 C 0.00481 0.61127 0.62362
 C82 C -0.01455 0.39932 0.70842
 O83 O 0.53600 0.60983 0.30328
 O84 O 0.38959 0.46141 0.36575
 O85 O 0.55910 0.60790 0.36766
 O86 O 0.39494 0.44451 0.30309
 O87 O 0.47845 0.37394 0.30390
 O88 O 0.64342 0.53847 0.36507
 O89 O 0.47440 0.39238 0.36818
 O90 O 0.61934 0.53928 0.30214
 Cu91 Cu 0.46359 0.53861 0.33532
 Cu92 Cu 0.56049 0.45381 0.33519
 C93 C 0.60120 0.60000 0.29159
 C94 C 0.40665 0.40243 0.37790
 C95 C 0.62947 0.60017 0.37720
 C96 C 0.40961 0.38080 0.29275
 C97 C 0.00986 0.35653 0.56120
 C98 C 0.10768 0.37030 0.55307
 C99 C 0.06591 0.26553 0.55129
 C100 C -0.03195 0.25104 0.55910
 C101 C 0.08954 0.26557 0.58792
 C102 C 0.13141 0.37070 0.58986
 C103 C 0.03378 0.35654 0.59776
 C104 C -0.00824 0.25194 0.59611
 H105 H -0.02343 0.39421 0.55047
 H106 H 0.15557 0.42082 0.53574
 H107 H -0.09907 0.20128 0.54609
 H108 H 0.12289 0.22803 0.59873
 H109 H 0.19912 0.42008 0.60265
 H110 H -0.05618 0.20378 0.61403
 C111 C 0.76209 0.72536 0.26428
 C112 C 0.76043 0.69394 0.22823
 C113 C 0.74187 0.77051 0.21667
 C114 C 0.74437 0.80260 0.25233
 C115 C 0.63490 0.70524 0.21724
 C116 C 0.65278 0.62810 0.22913
 C117 C 0.65526 0.66052 0.26469
 C118 C 0.63706 0.73715 0.25304
 H119 H 0.81388 0.73292 0.28387
 H120 H 0.81166 0.67666 0.21768
 H121 H 0.78220 0.87499 0.26167
 H122 H 0.58074 0.69511 0.19822
 H123 H 0.61479 0.55561 0.21988
 H124 H 0.58616 0.75528 0.26335
 C125 C 0.29130 -0.06804 -0.10145
 C126 C 0.18463 -0.10958 -0.09700
 C127 C 0.18705 -0.03095 -0.11634
 C128 C 0.29323 0.01066 -0.12101
 C129 C 0.20675 0.02756 -0.08450
 C130 C 0.20503 -0.05131 -0.06498
 C131 C 0.31103 -0.00992 -0.06964
 C132 C 0.31398 0.06909 -0.08880
 H133 H 0.32696 -0.10711 -0.10826
 H134 H 0.13109 -0.18329 -0.10043
 H135 H 0.32900 0.03585 -0.14433
 H136 H 0.17243 0.06719 -0.07686
 H137 H 0.16945 -0.07652 -0.04162
 H138 H 0.36787 0.14261 -0.08518
 C139 C -0.03881 0.73491 0.60355
 C140 C 0.04295 0.81190 0.58525
 C141 C -0.01532 0.77286 0.55282
 C142 C -0.09684 0.69676 0.57096
 C143 C 0.02807 0.71102 0.54728
 C144 C 0.08627 0.74898 0.58008
 C145 C 0.00432 0.67298 0.59802
 C146 C -0.05355 0.63438 0.56562
 H147 H -0.06607 0.74434 0.62700
 H148 H 0.08286 0.88478 0.59395
 H149 H -0.17239 0.67543 0.56719
 H150 H 0.05536 0.70146 0.52386
 H151 H 0.16159 0.76977 0.58406
 H152 H -0.09299 0.56080 0.55770
 C153 C 0.26425 0.30961 0.24705
 C154 C 0.30190 0.28824 0.21562
 C155 C 0.24291 0.18505 0.22171
 C156 C 0.20432 0.20543 0.25280
 C157 C 0.32511 0.18818 0.24185
 C158 C 0.38463 0.29186 0.23595
 C159 C 0.34633 0.31223 0.26701
 C160 C 0.28735 0.20922 0.27314
 H161 H 0.23988 0.36033 0.24940
 H162 H 0.30748 0.32012 0.19167
 H163 H 0.13010 0.16995 0.26012
 H164 H 0.34981 0.13769 0.23959
 H165 H 0.45938 0.32826 0.22918
 H166 H 0.28185 0.17743 0.29711
 C167 C 0.72271 -0.02386 -0.07498
 C168 C 0.69155 -0.04731 -0.11170
 C169 C 0.77200 0.04789 -0.12037
 C170 C 0.80391 0.07120 -0.08407
 C171 C 0.70696 0.08915 -0.11717
 C172 C 0.62588 -0.00598 -0.10812
 C173 C 0.65808 0.01761 -0.07190
 C174 C 0.73864 0.11252 -0.08070
 H175 H 0.72844 -0.07055 -0.05742
 H176 H 0.67256 -0.11303 -0.12482
 H177 H 0.87775 0.10358 -0.07431
 H178 H 0.69829 0.13565 -0.13400
 H179 H 0.55189 -0.03828 -0.11771
 H180 H 0.75853 0.17880 -0.06783
 C181 C 0.33281 -0.03124 0.10431
 C182 C 0.34893 0.06171 0.11854
 C183 C 0.24166 0.02208 0.11876
 C184 C 0.22480 -0.07108 0.10489
 C185 C 0.24042 0.05456 0.08396
 C186 C 0.34801 0.09438 0.08361
 C187 C 0.33169 0.00162 0.06960
 C188 C 0.22459 -0.03833 0.06966
 H189 H 0.37110 -0.06693 0.11237
 H190 H 0.40245 0.10268 0.13817
 H191 H 0.17369 -0.13921 0.11398
 H192 H 0.20241 0.09040 0.07575
 H193 H 0.39875 0.16307 0.07482
 H194 H 0.17402 -0.07968 0.04932
 C195 C 0.69170 0.73772 0.42377
 C196 C 0.71620 0.70203 0.45513
 C197 C 0.82150 0.76627 0.44992
 C198 C 0.79793 0.80294 0.41888
 C199 C 0.82628 0.69110 0.42944
 C200 C 0.72039 0.62628 0.43441
 C201 C 0.69690 0.66272 0.40344
 C202 C 0.80198 0.72689 0.39820
 H203 H 0.63566 0.75626 0.42121
 H204 H 0.68140 0.69208 0.47880
 H205 H 0.82899 0.87529 0.41172
 H206 H 0.88208 0.67217 0.43188
 H207 H 0.68761 0.55297 0.44058
 H208 H 0.83651 0.73661 0.37448
 C209 C -0.00399 0.36090 0.77137
 C210 C -0.10209 0.28050 0.77909
 C211 C -0.06006 0.21660 0.78131
 C212 C 0.03807 0.29634 0.77391
 C213 C -0.08208 0.19052 0.74461
 C214 C -0.12421 0.25466 0.74223
 C215 C -0.02632 0.33451 0.73475
 C216 C 0.01597 0.27101 0.73683
 H217 H 0.02867 0.43174 0.78211
 H218 H -0.15079 0.28609 0.79608
 H219 H 0.10474 0.31293 0.78731
 H220 H -0.11478 0.11978 0.73378
 H221 H -0.19149 0.23711 0.72907
 H222 H 0.06479 0.26785 0.71925
 C223 C 0.75446 0.00768 0.06969
 C224 C 0.75343 0.03057 0.10656
 C225 C 0.73778 -0.06500 0.11483
 C226 C 0.73976 -0.08781 0.07837
 C227 C 0.63039 -0.10545 0.11206
 C228 C 0.64534 -0.00996 0.10349
 C229 C 0.64722 -0.03310 0.06712
 C230 C 0.63201 -0.12840 0.07547
 H231 H 0.80495 0.05447 0.05205
 H232 H 0.80389 0.09590 0.11972
 H233 H 0.77870 -0.12041 0.06822
 H234 H 0.57711 -0.15209 0.12899
 H235 H 0.60623 0.02254 0.11357
 H236 H 0.58197 -0.19434 0.06256
 C237 C 0.23944 0.27952 0.39831
 C238 C 0.24786 0.20889 0.41981
 C239 C 0.22932 0.25251 0.45017
 C240 C 0.22037 0.32239 0.42886
 C241 C 0.33549 0.31860 0.45601
 C242 C 0.35493 0.27585 0.42530
 C243 C 0.34542 0.34558 0.40416
 C244 C 0.32699 0.38899 0.43448
 H245 H 0.20056 0.26381 0.37428
 H246 H 0.21555 0.13471 0.41328
 H247 H 0.16454 0.34126 0.43046
 H248 H 0.37439 0.33435 0.48003
 H249 H 0.41095 0.25730 0.42359
 H250 H 0.36034 0.46368 0.44033
 C251 C 0.06319 0.70032 0.76671
 C252 C 0.10630 0.80407 0.76141
 C253 C 0.02465 0.80281 0.77950
 C254 C -0.01856 0.69950 0.78499
 C255 C -0.03345 0.78238 0.74706
 C256 C 0.04845 0.78307 0.72879
 C257 C 0.00543 0.67992 0.73429
 C258 C -0.07665 0.67809 0.75219
 H259 H 0.10270 0.66572 0.77465
 H260 H 0.18174 0.85636 0.76530
 H261 H -0.04585 0.66578 0.80842
 H262 H -0.07326 0.81612 0.73855
 H263 H 0.07576 0.81679 0.70536
 H264 H -0.15194 0.62556 0.74818
   
