data_POSCAR
  _audit_creation_date              2014-09-24
  _audit_creation_method            'ToBaCCo'
  _symmetry_space_group_name_H-M    'P1'
  _symmetry_Int_Tables_number       1
  _symmetry_cell_setting            triclinic
  loop_
  _symmetry_equiv_pos_as_xyz
 x,y,z
_cell_length_a 31.6146
_cell_length_b 31.6505
_cell_length_c 31.5641
_cell_angle_alpha 90.067700
_cell_angle_beta 90.050800
_cell_angle_gamma 89.971000
loop_
  _atom_site_label
  _atom_site_type_symbol
  _atom_site_fract_x
  _atom_site_fract_y
  _atom_site_fract_z
C1 C 0.41303 1.00195 -0.54098
 C2 C 0.39221 1.00430 -0.50176
 C3 C 0.41362 0.99871 -0.46348
 C4 C 0.45774 0.99166 -0.46363
 C5 C 0.48023 0.99211 -0.50248
 C6 C 0.45789 0.99707 -0.54130
 C7 C 0.48130 0.99876 -0.57909
 C8 C 0.52476 0.99257 -0.57926
 C9 C 0.54776 0.98792 -0.54135
 C10 C 0.52511 0.98715 -0.50248
 C11 C 0.47968 0.98269 -0.42605
 C12 C 0.52313 0.97636 -0.42622
 C13 C 0.54698 0.98049 -0.46366
 C14 C 0.59164 0.97488 -0.46371
 C15 C 0.61283 0.97324 -0.50277
 C16 C 0.59233 0.98138 -0.54139
 H17 H 0.46648 1.00507 -0.60926
 H18 H 0.53978 0.99083 -0.60992
 H19 H 0.46333 0.97953 -0.39613
 H20 H 0.53762 0.96726 -0.39658
 H21 H 0.35810 1.00801 -0.50078
 H22 H 0.64703 0.97040 -0.50279
 C23 C -0.58828 1.46389 0.01482
 C24 C -0.60969 1.50216 0.01989
 C25 C -0.58849 1.54122 0.01953
 C26 C -0.54345 1.54126 0.01688
 C27 C -0.52129 1.50243 0.01195
 C28 C -0.54381 1.46370 0.01064
 C29 C -0.52121 1.42568 0.00625
 C30 C -0.47736 1.42557 0.00297
 C31 C -0.45422 1.46339 0.00494
 C32 C -0.47634 1.50221 0.00916
 C33 C -0.51966 1.57853 0.02224
 C34 C -0.47581 1.57840 0.01879
 C35 C -0.45356 1.54076 0.01122
 C36 C -0.40895 1.54040 0.00733
 C37 C -0.38770 1.50186 0.00325
 C38 C -0.40951 1.46346 0.00264
 H39 H -0.53714 1.39545 0.00566
 H40 H -0.46182 1.39537 -0.00104
 H41 H -0.53450 1.60824 0.03029
 H42 H -0.45945 1.60811 0.02313
 H43 H -0.64397 1.50135 0.02122
 H44 H -0.35346 1.50172 0.00092
 C45 C -0.01422 0.46462 0.40688
 C46 C -0.02013 0.50379 0.38683
 C47 C -0.02057 0.54173 0.40941
 C48 C -0.01765 0.54100 0.45406
 C49 C -0.01206 0.50202 0.47547
 C50 C -0.01025 0.46367 0.45194
 C51 C -0.00712 0.42547 0.47444
 C52 C -0.00316 0.42489 0.51823
 C53 C -0.00564 0.46221 0.54234
 C54 C -0.00912 0.50139 0.52063
 C55 C -0.02207 0.57817 0.47788
 C56 C -0.01896 0.57760 0.52174
 C57 C -0.01028 0.53997 0.54385
 C58 C -0.00580 0.53939 0.58874
 C59 C -0.00236 0.50024 0.60928
 C60 C -0.00303 0.46165 0.58737
 H61 H -0.00831 0.39517 0.45879
 H62 H 0.00206 0.39445 0.53272
 H63 H -0.02899 0.60811 0.46287
 H64 H -0.02466 0.60709 0.53801
 H65 H -0.02158 0.50521 0.35250
 H66 H 0.00053 0.49976 0.64352
 O67 O -0.05491 0.99888 -0.11134
 O68 O -0.05574 1.00449 0.10639
 O69 O -0.10690 0.94453 -0.00368
 O70 O -0.10718 1.05894 -0.00172
 O71 O -0.05561 1.11038 -0.00170
 O72 O -0.05513 0.89325 -0.00334
 O73 O -0.10726 1.00375 0.05469
 O74 O -0.10677 0.99934 -0.06006
 Zr75 Zr -0.07265 1.00179 -0.00255
 O76 O -0.03682 1.04049 0.03577
 O77 O -0.03631 0.96324 -0.04053
 C78 C -0.09414 0.99792 -0.09919
 C79 C -0.09488 1.00495 0.09394
 C80 C -0.09435 0.90546 -0.00417
 C81 C -0.09478 1.09806 -0.00112
 H82 H -0.05463 0.94622 0.05421
 O83 O -0.03647 0.96408 0.03612
 H84 H -0.05451 1.05739 -0.05928
 O85 O -0.03640 1.03963 -0.04097
 O86 O 0.05862 1.00115 0.10697
 O87 O 0.05955 1.00295 -0.11078
 O88 O 0.00287 0.89383 0.05586
 O89 O 0.00007 1.11097 0.05417
 O90 O 0.00297 1.10996 -0.06034
 O91 O 0.00112 0.89288 -0.05878
 O92 O 0.11080 0.94493 0.00034
 O93 O 0.11053 1.05933 -0.00339
 O94 O 0.05924 0.89348 0.00061
 O95 O 0.05872 1.11057 -0.00430
 O96 O 0.00246 0.94565 0.10721
 O97 O 0.00135 0.94390 -0.11081
 O98 O 0.00317 1.05812 -0.11165
 O99 O 0.00011 1.06009 0.10634
 O100 O 0.11045 1.00096 0.05567
 O101 O 0.11093 1.00331 -0.05894
 Zr102 Zr 0.00155 1.00257 0.07228
 Zr103 Zr 0.00215 1.00129 -0.07668
 Zr104 Zr 0.00200 0.92772 -0.00169
 Zr105 Zr 0.00163 1.07609 -0.00280
 Zr106 Zr 0.07628 1.00206 -0.00182
 O107 O 0.04031 1.03998 -0.04075
 O108 O 0.04015 0.96399 0.03671
 C109 C 0.09784 1.00032 0.09482
 C110 C 0.09867 1.00392 -0.09821
 C111 C 0.00298 0.90643 0.09503
 C112 C -0.00055 1.09908 0.09353
 C113 C 0.00358 1.09734 -0.09950
 C114 C 0.00079 0.90489 -0.09812
 C115 C 0.09840 0.90582 0.00149
 C116 C 0.09795 1.09839 -0.00452
 H117 H 0.05861 0.94542 -0.05783
 O118 O 0.04036 0.96354 -0.04000
 H119 H 0.05780 1.05862 0.05401
 O120 O 0.03983 1.04044 0.03596
 C121 C 0.36638 0.97122 0.35445
 C122 C 0.33351 1.00060 0.35088
 C123 C 0.32751 1.03079 0.38266
 C124 C 0.35414 1.03161 0.41797
 C125 C 0.38780 1.00256 0.42188
 C126 C 0.39316 0.97199 0.38974
 C127 C 0.30500 0.99914 0.31536
 C128 C 0.28036 0.99827 0.28623
 C129 C 0.25072 0.99765 0.25280
 C130 C 0.22478 0.99743 0.22481
 C131 C 0.19311 0.99754 0.19205
 C132 C 0.15025 0.99790 0.20297
 C133 C 0.11927 0.99865 0.17139
 C134 C 0.13076 0.99909 0.12830
 C135 C 0.17403 0.99852 0.11765
 C136 C 0.20495 0.99778 0.14935
 H137 H 0.37086 0.94725 0.33033
 H138 H 0.30201 1.05356 0.38032
 H139 H 0.34883 1.05557 0.44193
 H140 H 0.41708 0.94764 0.39260
 H141 H 0.14074 0.99774 0.23595
 H142 H 0.08635 0.99901 0.18082
 H143 H 0.18406 0.99879 0.08486
 H144 H 0.23807 0.99753 0.14056
 C145 C -0.35920 1.02370 0.35916
 C146 C -0.32816 0.99320 0.35121
 C147 C -0.32362 0.95887 0.37866
 C148 C -0.35007 0.95485 0.41384
 C149 C -0.38217 0.98480 0.42185
 C150 C -0.38579 1.01974 0.39433
 C151 C -0.30021 0.99742 0.31551
 C152 C -0.27612 1.00035 0.28609
 C153 C -0.24709 1.00309 0.25227
 C154 C -0.22155 1.00485 0.22401
 C155 C -0.19011 1.00628 0.19110
 C156 C -0.14727 1.00835 0.20195
 C157 C -0.11637 1.00833 0.17036
 C158 C -0.12789 1.00619 0.12730
 C159 C -0.17115 1.00457 0.11668
 C160 C -0.20202 1.00457 0.14842
 H161 H -0.36249 1.05082 0.33851
 H162 H -0.29948 0.93522 0.37297
 H163 H -0.34601 0.92772 0.43434
 H164 H -0.40836 1.04471 0.40070
 H165 H -0.13770 1.00964 0.23490
 H166 H -0.08346 1.00971 0.17979
 H167 H -0.18118 1.00291 0.08391
 H168 H -0.23513 1.00289 0.13968
 C169 C -0.32256 0.94695 -0.38706
 C170 C -0.32955 0.97655 -0.35491
 C171 C -0.36339 1.00483 -0.35814
 C172 C -0.39000 1.00375 -0.39353
 C173 C -0.38350 0.97397 -0.42624
 C174 C -0.34905 0.94580 -0.42250
 C175 C -0.30089 0.97899 -0.31954
 C176 C -0.27621 0.98122 -0.29049
 C177 C -0.24660 0.98399 -0.25712
 C178 C -0.22072 0.98645 -0.22916
 C179 C -0.18916 0.98944 -0.19641
 C180 C -0.20108 0.99091 -0.15375
 C181 C -0.17025 0.99378 -0.12206
 C182 C -0.12700 0.99524 -0.13267
 C183 C -0.11543 0.99376 -0.17573
 C184 C -0.14631 0.99089 -0.20730
 H185 H -0.29632 0.92502 -0.38497
 H186 H -0.36867 1.02836 -0.33375
 H187 H -0.41460 1.02744 -0.39608
 H188 H -0.34289 0.92238 -0.44678
 H189 H -0.23418 0.98979 -0.14497
 H190 H -0.18034 0.99477 -0.08930
 H191 H -0.08252 0.99475 -0.18514
 H192 H -0.13673 0.98977 -0.24023
 C193 C 0.36751 1.03236 -0.35789
 C194 C 0.33581 1.00194 -0.35236
 C195 C 0.33055 0.96988 -0.38249
 C196 C 0.35649 0.96846 -0.41824
 C197 C 0.38811 0.99901 -0.42414
 C198 C 0.39355 1.03095 -0.39370
 C199 C 0.30758 1.00417 -0.31670
 C200 C 0.28295 1.00552 -0.28761
 C201 C 0.25312 1.00654 -0.25441
 C202 C 0.22693 1.00696 -0.22669
 C203 C 0.19492 1.00698 -0.19431
 C204 C 0.15216 1.00675 -0.20575
 C205 C 0.12086 1.00594 -0.17454
 C206 C 0.13191 1.00529 -0.13132
 C207 C 0.17507 1.00578 -0.12016
 C208 C 0.20632 1.00658 -0.15148
 H209 H 0.37170 1.05743 -0.33486
 H210 H 0.30603 0.94630 -0.37862
 H211 H 0.35173 0.94377 -0.44156
 H212 H 0.41748 1.05503 -0.39806
 H213 H 0.14299 1.00702 -0.23883
 H214 H 0.08803 1.00566 -0.18436
 H215 H 0.18478 1.00536 -0.08725
 H216 H 0.23935 1.00672 -0.14229
 C217 C 0.35676 1.36648 -0.02803
 C218 C 0.33287 1.35396 0.00713
 C219 C 0.33567 1.37678 0.04507
 C220 C 0.36198 1.41216 0.04777
 C221 C 0.38592 1.42488 0.01261
 C222 C 0.38309 1.40188 -0.02536
 C223 C 0.30436 1.31866 0.00396
 C224 C 0.27982 1.28963 0.00155
 C225 C 0.25035 1.25624 -0.00094
 C226 C 0.22456 1.22825 -0.00273
 C227 C 0.19304 1.19549 -0.00438
 C228 C 0.15017 1.20630 -0.00610
 C229 C 0.11928 1.17475 -0.00656
 C230 C 0.13085 1.13179 -0.00527
 C231 C 0.17413 1.12125 -0.00398
 C232 C 0.20498 1.15292 -0.00350
 H233 H 0.35461 1.34923 -0.05762
 H234 H 0.31714 1.36753 0.07238
 H235 H 0.36347 1.42986 0.07713
 H236 H 0.40085 1.41170 -0.05297
 H237 H 0.14058 1.23916 -0.00678
 H238 H 0.08635 1.18411 -0.00764
 H239 H 0.18423 1.08856 -0.00298
 H240 H 0.23810 1.14421 -0.00214
 C241 C 0.36839 0.64734 -0.01022
 C242 C 0.33337 0.65014 0.01667
 C243 C 0.32476 0.61735 0.04499
 C244 C 0.35089 0.58178 0.04637
 C245 C 0.38662 0.57853 0.01976
 C246 C 0.39468 0.61179 -0.00889
 C247 C 0.30527 0.68587 0.01437
 C248 C 0.28092 0.71513 0.01259
 C249 C 0.25150 0.74863 0.01064
 C250 C 0.22565 0.77660 0.00906
 C251 C 0.19395 0.80921 0.00720
 C252 C 0.15112 0.79819 0.00630
 C253 C 0.12008 0.82957 0.00448
 C254 C 0.13145 0.87258 0.00352
 C255 C 0.17468 0.88334 0.00451
 C256 C 0.20568 0.85183 0.00633
 H257 H 0.37496 0.67226 -0.03278
 H258 H 0.29760 0.61910 0.06584
 H259 H 0.34352 0.55710 0.06893
 H260 H 0.42038 0.60966 -0.03146
 H261 H 0.14169 0.76529 0.00699
 H262 H 0.08719 0.82005 0.00381
 H263 H 0.18462 0.91607 0.00387
 H264 H 0.23877 0.86071 0.00705
 C265 C -0.36164 0.64493 -0.02676
 C266 C -0.33023 0.65064 0.00404
 C267 C -0.32552 0.62098 0.03659
 C268 C -0.35178 0.58552 0.03810
 C269 C -0.38316 0.57948 0.00719
 C270 C -0.38795 0.60944 -0.02526
 C271 C -0.30175 0.68602 0.00157
 C272 C -0.27712 0.71501 -0.00029
 C273 C -0.24745 0.74825 -0.00217
 C274 C -0.22147 0.77608 -0.00348
 C275 C -0.18977 0.80867 -0.00464
 C276 C -0.14691 0.79769 -0.00501
 C277 C -0.11589 0.82911 -0.00520
 C278 C -0.12732 0.87213 -0.00497
 C279 C -0.17058 0.88284 -0.00495
 C280 C -0.20155 0.85129 -0.00475
 H281 H -0.36538 0.66755 -0.05222
 H282 H -0.30120 0.62499 0.06046
 H283 H -0.34743 0.56256 0.06315
 H284 H -0.41159 0.60493 -0.04971
 H285 H -0.13744 0.76478 -0.00491
 H286 H -0.08297 0.81963 -0.00527
 H287 H -0.18058 0.91557 -0.00481
 H288 H -0.23466 0.86015 -0.00445
 C289 C -0.33164 1.38074 -0.03498
 C290 C -0.33122 1.35287 -0.00056
 C291 C -0.35748 1.36045 0.03435
 C292 C -0.38371 1.39603 0.03504
 C293 C -0.38408 1.42418 0.00068
 C294 C -0.35786 1.41631 -0.03433
 C295 C -0.30256 1.31752 -0.00038
 C296 C -0.27786 1.28850 -0.00017
 C297 C -0.24816 1.25520 0.00008
 C298 C -0.22217 1.22733 0.00025
 C299 C -0.19041 1.19473 0.00034
 C300 C -0.20212 1.15210 -0.00010
 C301 C -0.17109 1.12058 -0.00040
 C302 C -0.12785 1.13133 -0.00030
 C303 C -0.11650 1.17435 0.00033
 C304 C -0.14757 1.20575 0.00064
 H305 H -0.31127 1.37531 -0.06203
 H306 H -0.35717 1.33926 0.06128
 H307 H -0.40324 1.40203 0.06258
 H308 H -0.35745 1.43795 -0.06088
 H309 H -0.23521 1.14322 -0.00032
 H310 H -0.18101 1.08784 -0.00085
 H311 H -0.08360 1.18387 0.00049
 H312 H -0.13816 1.23866 0.00100
 C313 C -0.03836 1.38728 0.32088
 C314 C -0.00584 1.35782 0.32613
 C315 C 0.02431 1.36377 0.35806
 C316 C 0.02167 1.39887 0.38495
 C317 C -0.01163 1.42828 0.38073
 C318 C -0.04106 1.42235 0.34762
 C319 C -0.00335 1.32196 0.29814
 C320 C -0.00209 1.29244 0.27400
 C321 C -0.00136 1.25852 0.24493
 C322 C -0.00115 1.23015 0.21940
 C323 C -0.00121 1.19706 0.18808
 C324 C -0.00090 1.15458 0.20037
 C325 C -0.00094 1.12262 0.16970
 C326 C -0.00127 1.13277 0.12626
 C327 C -0.00177 1.17564 0.11434
 C328 C -0.00174 1.20746 0.14503
 H329 H -0.06171 1.38316 0.29607
 H330 H 0.05009 1.34153 0.36191
 H331 H 0.04632 1.40358 0.40834
 H332 H -0.06694 1.44434 0.34306
 H333 H -0.00057 1.14618 0.23363
 H334 H -0.00056 1.09001 0.18006
 H335 H -0.00207 1.18471 0.08127
 H336 H -0.00206 1.24024 0.13516
 C337 C -0.03105 1.35557 -0.36843
 C338 C -0.00140 1.35202 -0.33568
 C339 C 0.02793 1.38436 -0.32896
 C340 C 0.02767 1.42016 -0.35473
 C341 C -0.00163 1.42409 -0.38825
 C342 C -0.03135 1.39140 -0.39439
 C343 C -0.00163 1.31602 -0.30787
 C344 C -0.00121 1.28669 -0.28355
 C345 C -0.00023 1.25328 -0.25400
 C346 C 0.00083 1.22549 -0.22795
 C347 C 0.00216 1.19315 -0.19596
 C348 C 0.00314 1.20456 -0.15314
 C349 C 0.00398 1.17344 -0.12180
 C350 C 0.00383 1.13032 -0.13285
 C351 C 0.00316 1.11918 -0.17608
 C352 C 0.00232 1.15043 -0.20738
 H353 H -0.05437 1.33100 -0.37347
 H354 H 0.05088 1.38205 -0.30355
 H355 H 0.05101 1.44454 -0.34888
 H356 H -0.05575 1.39417 -0.41835
 H357 H 0.00309 1.23755 -0.14395
 H358 H 0.00452 1.18325 -0.08892
 H359 H 0.00303 1.08635 -0.18579
 H360 H 0.00162 1.14125 -0.24046
 C361 C -0.02610 0.61380 -0.32169
 C362 C -0.00046 0.64801 -0.33263
 C363 C 0.02349 0.64650 -0.36988
 C364 C 0.02163 0.61089 -0.39618
 C365 C -0.00463 0.57636 -0.38583
 C366 C -0.02800 0.57824 -0.34778
 C367 C 0.00147 0.68414 -0.30496
 C368 C 0.00226 0.71357 -0.28071
 C369 C 0.00245 0.74714 -0.25124
 C370 C 0.00221 0.77512 -0.22530
 C371 C 0.00163 0.80781 -0.19357
 C372 C 0.00135 0.85039 -0.20542
 C373 C 0.00082 0.88202 -0.17443
 C374 C 0.00058 0.87143 -0.13109
 C375 C 0.00066 0.82846 -0.11958
 C376 C 0.00119 0.79694 -0.15062
 H377 H -0.04469 0.61457 -0.29286
 H378 H 0.04393 0.67261 -0.37835
 H379 H 0.04163 0.60989 -0.42401
 H380 H -0.04870 0.55255 -0.33866
 H381 H 0.00161 0.85915 -0.23859
 H382 H 0.00075 0.91472 -0.18449
 H383 H 0.00046 0.81908 -0.08660
 H384 H 0.00132 0.76406 -0.14110
 C385 C -0.05232 0.62541 0.32970
 C386 C -0.01793 0.65319 0.33220
 C387 C 0.01461 0.64548 0.36130
 C388 C 0.01312 0.60979 0.38731
 C389 C -0.02108 0.58157 0.38465
 C390 C -0.05385 0.58971 0.35572
 C391 C -0.01499 0.68838 0.30349
 C392 C -0.01212 0.71724 0.27876
 C393 C -0.00852 0.75034 0.24903
 C394 C -0.00545 0.77802 0.22301
 C395 C -0.00200 0.81040 0.19119
 C396 C -0.00213 0.85311 0.20270
 C397 C 0.00013 0.88443 0.17153
 C398 C 0.00248 0.87338 0.12834
 C399 C 0.00310 0.83027 0.11723
 C400 C 0.00086 0.79909 0.14844
 H401 H -0.07754 0.63093 0.30710
 H402 H 0.04153 0.66657 0.36328
 H403 H 0.03908 0.60363 0.40886
 H404 H -0.08024 0.56806 0.35289
 H405 H -0.00432 0.86222 0.23572
 H406 H -0.00045 0.91723 0.18129
 H407 H 0.00493 0.82053 0.08438
 H408 H 0.00102 0.76611 0.13917
   
