data_POSCAR
  _audit_creation_date              2014-09-24
  _audit_creation_method            'ToBaCCo'
  _symmetry_space_group_name_H-M    'P1'
  _symmetry_Int_Tables_number       1
  _symmetry_cell_setting            triclinic
  loop_
  _symmetry_equiv_pos_as_xyz
 x,y,z
_cell_length_a 35.3644
_cell_length_b 35.0801
_cell_length_c 35.3637
_cell_angle_alpha 89.206000
_cell_angle_beta 91.671800
_cell_angle_gamma 90.789400
loop_
  _atom_site_label
  _atom_site_type_symbol
  _atom_site_fract_x
  _atom_site_fract_y
  _atom_site_fract_z
N1 N 0.25728 0.26119 0.24863
 N2 N 0.75108 -0.25001 0.25113
 N3 N 0.74864 0.23883 0.75727
 N4 N 0.24504 -0.24999 0.74508
 N5 N 0.74489 -0.25929 0.75335
 N6 N 0.24815 0.25006 0.74807
 N7 N 0.25330 -0.24071 0.24493
 N8 N 0.75370 0.24999 0.25370
 O9 O 0.28353 0.04297 0.46222
 O10 O 0.28027 -0.03276 0.53539
 O11 O 0.28294 -0.03147 0.46156
 O12 O 0.28179 0.04078 0.53595
 O13 O 0.21934 0.04191 0.53122
 O14 O 0.22059 -0.03127 0.45766
 O15 O 0.21776 -0.03297 0.53110
 O16 O 0.22117 0.04255 0.45810
 Cu17 Cu 0.28842 0.00483 0.49906
 Cu18 Cu 0.21343 0.00499 0.49426
 C19 C 0.25286 0.05575 0.44766
 C20 C 0.24840 -0.04559 0.54569
 C21 C 0.25199 -0.04372 0.44681
 C22 C 0.25038 0.05371 0.54607
 O23 O 0.71777 0.03100 0.53955
 O24 O 0.71836 -0.04112 0.46490
 O25 O 0.71738 -0.04311 0.53842
 O26 O 0.71886 0.03322 0.46595
 O27 O 0.78124 0.03357 0.46851
 O28 O 0.77977 -0.04266 0.54103
 O29 O 0.78075 -0.04057 0.46742
 O30 O 0.78016 0.03134 0.54222
 Cu31 Cu 0.71184 -0.00503 0.50189
 Cu32 Cu 0.78673 -0.00451 0.50503
 C33 C 0.74888 0.04339 0.55381
 C34 C 0.74965 -0.05324 0.45339
 C35 C 0.74834 -0.05589 0.55223
 C36 C 0.75030 0.04646 0.45478
 O37 O 0.46510 0.28351 0.03498
 O38 O 0.53834 0.27936 -0.03665
 O39 O 0.46517 0.28144 -0.03895
 O40 O 0.53871 0.28145 0.03689
 O41 O 0.53689 0.21859 0.03870
 O42 O 0.46106 0.21862 -0.03485
 O43 O 0.53499 0.21653 -0.03492
 O44 O 0.46336 0.22069 0.03832
 Cu45 Cu 0.50205 0.28776 -0.00114
 Cu46 Cu 0.49887 0.21229 0.00203
 C47 C 0.45179 0.25279 0.04906
 C48 C 0.54907 0.24725 -0.04821
 C49 C 0.45043 0.25003 -0.04959
 C50 C 0.55061 0.25002 0.05060
 O51 O 0.53440 0.71856 0.03599
 O52 O 0.45843 0.71858 -0.03745
 O53 O 0.53240 0.71680 -0.03771
 O54 O 0.46105 0.72038 0.03588
 O55 O 0.46224 0.78320 0.03244
 O56 O 0.53583 0.77962 -0.03890
 O57 O 0.46251 0.78143 -0.04153
 O58 O 0.53594 0.78144 0.03444
 Cu59 Cu 0.49636 0.71226 -0.00067
 Cu60 Cu 0.49928 0.78774 -0.00359
 C61 C 0.54798 0.75000 0.04803
 C62 C 0.44781 0.75000 -0.05215
 C63 C 0.54663 0.74761 -0.05065
 C64 C 0.44930 0.75239 0.04667
 O65 O 0.04220 0.46866 0.28017
 O66 O -0.03261 0.54056 0.28078
 O67 O -0.03151 0.46642 0.28126
 O68 O 0.04100 0.54265 0.27979
 O69 O 0.03839 0.54312 0.21740
 O70 O -0.03407 0.46678 0.21888
 O71 O -0.03513 0.54112 0.21839
 O72 O 0.03953 0.46901 0.21779
 Cu73 Cu 0.00500 0.50450 0.28675
 Cu74 Cu 0.00186 0.50503 0.21186
 C75 C 0.05380 0.45661 0.24889
 C76 C -0.04664 0.55324 0.24967
 C77 C -0.04524 0.45353 0.25032
 C78 C 0.05219 0.55589 0.24836
 O79 O 0.03108 0.53300 0.71779
 O80 O -0.04189 0.45746 0.72118
 O81 O -0.04236 0.53129 0.72062
 O82 O 0.03122 0.45813 0.71934
 O83 O 0.03594 0.45923 0.78180
 O84 O -0.03846 0.53147 0.78297
 O85 O -0.03778 0.45703 0.78354
 O86 O 0.03538 0.53277 0.78029
 Cu87 Cu -0.00575 0.49504 0.71345
 Cu88 Cu -0.00095 0.49518 0.78844
 C89 C 0.04567 0.54562 0.74843
 C90 C -0.05234 0.44426 0.75287
 C91 C -0.05321 0.54372 0.75202
 C92 C 0.04607 0.44631 0.75039
 C93 C 0.33912 0.25797 0.16321
 C94 C 0.32198 0.22388 0.17561
 C95 C 0.29481 0.22518 0.20359
 C96 C 0.28495 0.26019 0.21939
 C97 C 0.30241 0.29413 0.20658
 C98 C 0.32948 0.29319 0.17841
 C99 C 0.36781 0.25674 0.13382
 C100 C 0.38493 0.29082 0.12134
 C101 C 0.41227 0.28946 0.09343
 C102 C 0.42265 0.25429 0.07822
 C103 C 0.40510 0.22041 0.09113
 C104 C 0.37763 0.22149 0.11886
 C105 C 0.34722 0.32669 0.16521
 C106 C 0.37444 0.32553 0.13712
 C107 C 0.33241 0.18917 0.15983
 C108 C 0.35981 0.18799 0.13197
 H109 H 0.34002 0.35404 0.17669
 H110 H 0.38745 0.35203 0.12775
 H111 H 0.31938 0.16268 0.16918
 H112 H 0.36712 0.16061 0.12061
 H113 H 0.28118 0.19904 0.21307
 H114 H 0.29509 0.32109 0.21884
 H115 H 0.42561 0.31569 0.08379
 H116 H 0.41273 0.19320 0.07959
 C117 C 0.66489 0.75000 0.16495
 C118 C 0.68139 0.78474 0.17648
 C119 C 0.70989 0.78456 0.20488
 C120 C 0.72176 0.75000 0.22181
 C121 C 0.70483 0.71543 0.20994
 C122 C 0.67643 0.71526 0.18144
 C123 C 0.63497 0.75000 0.13502
 C124 C 0.61855 0.71526 0.12341
 C125 C 0.59014 0.71541 0.09490
 C126 C 0.57804 0.75000 0.07809
 C127 C 0.59485 0.78459 0.09019
 C128 C 0.62336 0.78474 0.11860
 C129 C 0.65930 0.68108 0.16913
 C130 C 0.63086 0.68107 0.14057
 C131 C 0.66907 0.81892 0.15935
 C132 C 0.64052 0.81892 0.13091
 H133 H 0.66796 0.65409 0.18163
 H134 H 0.61841 0.65408 0.13188
 H135 H 0.68157 0.84590 0.16801
 H136 H 0.63182 0.84592 0.11845
 H137 H 0.72307 0.81116 0.21375
 H138 H 0.71370 0.68883 0.22312
 H139 H 0.57742 0.68862 0.08591
 H140 H 0.58585 0.81138 0.07746
 C141 C 0.66322 0.24206 -0.16089
 C142 C 0.67841 0.20684 -0.17053
 C143 C 0.70659 0.20590 -0.19760
 C144 C 0.71940 0.23984 -0.21506
 C145 C 0.70360 0.27485 -0.20520
 C146 C 0.67562 0.27615 -0.17803
 C147 C 0.63383 0.24329 -0.13220
 C148 C 0.61887 0.27855 -0.12238
 C149 C 0.59115 0.27963 -0.09491
 C150 C 0.57823 0.24575 -0.07736
 C151 C 0.59344 0.21059 -0.08774
 C152 C 0.62135 0.20922 -0.11508
 C153 C 0.65985 0.31086 -0.16760
 C154 C 0.63198 0.31205 -0.14020
 C155 C 0.66521 0.17334 -0.15279
 C156 C 0.63713 0.17450 -0.12557
 H157 H 0.66920 0.33735 -0.18064
 H158 H 0.62063 0.33943 -0.13289
 H159 H 0.67669 0.14599 -0.15999
 H160 H 0.62776 0.14801 -0.11256
 H161 H 0.71885 0.17894 -0.20492
 H162 H 0.71308 0.30099 -0.21883
 H163 H 0.57961 0.30684 -0.08728
 H164 H 0.58379 0.18435 -0.07440
 C165 C 0.33143 0.75001 -0.16853
 C166 C 0.34014 0.76224 -0.20526
 C167 C 0.31174 0.76153 -0.23376
 C168 C 0.27447 0.75001 -0.22549
 C169 C 0.26620 0.73849 -0.18822
 C170 C 0.29470 0.73777 -0.15982
 C171 C 0.36135 0.75001 -0.13861
 C172 C 0.35295 0.73652 -0.10216
 C173 C 0.38170 0.73599 -0.07398
 C174 C 0.41807 0.75000 -0.08189
 C175 C 0.42598 0.76402 -0.11826
 C176 C 0.39780 0.76349 -0.14701
 C177 C 0.28725 0.72500 -0.12291
 C178 C 0.31596 0.72407 -0.09464
 C179 C 0.37705 0.77502 -0.21272
 C180 C 0.40531 0.77594 -0.18400
 H181 H 0.25904 0.71537 -0.11588
 H182 H 0.30909 0.71376 -0.06662
 H183 H 0.38408 0.78465 -0.24093
 H184 H 0.43334 0.78626 -0.19088
 H185 H 0.31852 0.77005 -0.26237
 H186 H 0.23760 0.72997 -0.18144
 H187 H 0.37574 0.72543 -0.04578
 H188 H 0.45418 0.77458 -0.12422
 C189 C 0.17244 0.34572 0.24835
 C190 C 0.18280 0.32990 0.21395
 C191 C 0.21117 0.30234 0.21411
 C192 C 0.22915 0.29071 0.24833
 C193 C 0.21869 0.30724 0.28249
 C194 C 0.19023 0.33464 0.28269
 C195 C 0.14215 0.37420 0.24845
 C196 C 0.13153 0.38971 0.28289
 C197 C 0.10253 0.41657 0.28288
 C198 C 0.08426 0.42805 0.24871
 C199 C 0.09541 0.41224 0.21440
 C200 C 0.12428 0.38523 0.21413
 C201 C 0.17898 0.35095 0.31657
 C202 C 0.15010 0.37800 0.31667
 C203 C 0.16431 0.34169 0.18017
 C204 C 0.13559 0.36893 0.18025
 H205 H 0.19250 0.34262 0.34324
 H206 H 0.14220 0.38979 0.34342
 H207 H 0.17206 0.32971 0.15344
 H208 H 0.12202 0.37720 0.15357
 H209 H 0.21886 0.28942 0.18781
 H210 H 0.23263 0.29853 0.30885
 H211 H 0.09431 0.42858 0.30944
 H212 H 0.08156 0.42079 0.18794
 C213 C 0.16040 0.66259 0.74469
 C214 C 0.15046 0.69992 0.73404
 C215 C 0.17841 0.72868 0.73445
 C216 C 0.21629 0.72015 0.74443
 C217 C 0.22580 0.68228 0.75418
 C218 C 0.19788 0.65355 0.75498
 C219 C 0.13094 0.63243 0.74529
 C220 C 0.14067 0.59536 0.75719
 C221 C 0.11238 0.56700 0.75851
 C222 C 0.07502 0.57543 0.74704
 C223 C 0.06573 0.61242 0.73457
 C224 C 0.09358 0.64129 0.73415
 C225 C 0.20663 0.61601 0.76614
 C226 C 0.17845 0.58747 0.76750
 C227 C 0.11274 0.70774 0.72337
 C228 C 0.08483 0.67886 0.72316
 H229 H 0.23545 0.60871 0.77423
 H230 H 0.18633 0.55897 0.77658
 H231 H 0.10474 0.73641 0.71499
 H232 H 0.05611 0.68608 0.71462
 H233 H 0.17077 0.75773 0.72720
 H234 H 0.25491 0.67536 0.76145
 H235 H 0.11934 0.53833 0.76794
 H236 H 0.03678 0.61874 0.72595
 C237 C -0.16290 0.66664 0.25058
 C238 C -0.17521 0.68370 0.21632
 C239 C -0.20344 0.71134 0.21671
 C240 C -0.21954 0.72175 0.25099
 C241 C -0.20690 0.70425 0.28507
 C242 C -0.17848 0.67676 0.28505
 C243 C -0.13315 0.63760 0.25035
 C244 C -0.12072 0.62067 0.28462
 C245 C -0.09235 0.59313 0.28425
 C246 C -0.07658 0.58235 0.24990
 C247 C -0.08953 0.59960 0.21578
 C248 C -0.11774 0.62732 0.21586
 C249 C -0.16537 0.65913 0.31876
 C250 C -0.13694 0.63160 0.31855
 C251 C -0.15903 0.67275 0.18238
 C252 C -0.13082 0.64500 0.18215
 H253 H -0.17716 0.66670 0.34553
 H254 H -0.12761 0.61873 0.34519
 H255 H -0.16830 0.68570 0.15577
 H256 H -0.11913 0.63734 0.15535
 H257 H -0.21286 0.72493 0.19046
 H258 H -0.21943 0.71192 0.31147
 H259 H -0.08271 0.58002 0.31068
 H260 H -0.07757 0.59164 0.18919
 C261 C -0.16667 0.32578 0.75568
 C262 C -0.18386 0.31380 0.72149
 C263 C -0.21179 0.28511 0.72222
 C264 C -0.22243 0.26830 0.75677
 C265 C -0.20482 0.28059 0.79079
 C266 C -0.17695 0.30942 0.79042
 C267 C -0.13738 0.35609 0.75507
 C268 C -0.12025 0.36822 0.78924
 C269 C -0.09245 0.39714 0.78848
 C270 C -0.08172 0.41379 0.75383
 C271 C -0.09923 0.40114 0.71985
 C272 C -0.12709 0.37237 0.72032
 C273 C -0.15915 0.32224 0.82403
 C274 C -0.13130 0.35116 0.82345
 C275 C -0.17284 0.33081 0.68728
 C276 C -0.14490 0.35958 0.68670
 H277 H -0.16684 0.30984 0.85101
 H278 H -0.11831 0.36024 0.85001
 H279 H -0.18590 0.32179 0.66073
 H280 H -0.13719 0.37194 0.65971
 H281 H -0.22554 0.27597 0.69603
 H282 H -0.21281 0.26754 0.81739
 H283 H -0.07916 0.40658 0.81478
 H284 H -0.09130 0.41372 0.69301
 C285 C 0.25568 0.17423 0.33332
 C286 C 0.29042 0.19059 0.32304
 C287 C 0.29080 0.21942 0.29517
 C288 C 0.25677 0.23171 0.27756
 C289 C 0.22223 0.21490 0.28819
 C290 C 0.22150 0.18621 0.31612
 C291 C 0.25507 0.14392 0.36261
 C292 C 0.22032 0.12764 0.37289
 C293 C 0.21985 0.09887 0.40075
 C294 C 0.25382 0.08622 0.41827
 C295 C 0.28847 0.10287 0.40755
 C296 C 0.28924 0.13179 0.37974
 C297 C 0.18729 0.16920 0.32714
 C298 C 0.18670 0.14043 0.35508
 C299 C 0.32403 0.17777 0.34085
 C300 C 0.32345 0.14884 0.36870
 H301 H 0.16074 0.17822 0.31407
 H302 H 0.15971 0.12806 0.36278
 H303 H 0.35101 0.19017 0.33316
 H304 H 0.35001 0.13977 0.38170
 H305 H 0.31740 0.23248 0.28719
 H306 H 0.19604 0.22405 0.27444
 H307 H 0.19301 0.08629 0.40868
 H308 H 0.31478 0.09342 0.42084
 C309 C 0.74835 0.15430 0.67243
 C310 C 0.78269 0.16537 0.69023
 C311 C 0.78250 0.19277 0.71868
 C312 C 0.74834 0.20932 0.72914
 C313 C 0.71412 0.19769 0.71115
 C314 C 0.71395 0.17013 0.68279
 C315 C 0.74844 0.12581 0.64215
 C316 C 0.71412 0.11480 0.62428
 C317 C 0.71439 0.08778 0.59542
 C318 C 0.74870 0.07196 0.58427
 C319 C 0.78287 0.08343 0.60255
 C320 C 0.78288 0.11030 0.63154
 C321 C 0.68017 0.15834 0.66430
 C322 C 0.68025 0.13110 0.63558
 C323 C 0.81656 0.14905 0.67899
 C324 C 0.81666 0.12199 0.65011
 H325 H 0.65345 0.17033 0.67204
 H326 H 0.65357 0.12284 0.62202
 H327 H 0.84324 0.15737 0.69251
 H328 H 0.84341 0.11019 0.64221
 H329 H 0.80885 0.20148 0.73262
 H330 H 0.68782 0.21062 0.71885
 H331 H 0.68794 0.07923 0.58157
 H332 H 0.80943 0.07141 0.59433
 C333 C 0.24465 -0.16257 0.66043
 C334 C 0.23401 -0.19989 0.65049
 C335 C 0.23441 -0.22865 0.67845
 C336 C 0.24439 -0.22013 0.71633
 C337 C 0.25413 -0.18226 0.72584
 C338 C 0.25494 -0.15352 0.69792
 C339 C 0.24525 -0.13241 0.63097
 C340 C 0.25715 -0.09534 0.64070
 C341 C 0.25847 -0.06697 0.61240
 C342 C 0.24701 -0.07541 0.57505
 C343 C 0.23454 -0.11239 0.56576
 C344 C 0.23412 -0.14126 0.59361
 C345 C 0.26610 -0.11599 0.70666
 C346 C 0.26745 -0.08745 0.67848
 C347 C 0.22334 -0.20772 0.61277
 C348 C 0.22313 -0.17884 0.58486
 H349 H 0.27418 -0.10869 0.73548
 H350 H 0.27653 -0.05895 0.68636
 H351 H 0.21496 -0.23638 0.60477
 H352 H 0.21459 -0.18605 0.55614
 H353 H 0.22717 -0.25771 0.67080
 H354 H 0.26140 -0.17534 0.75494
 H355 H 0.26790 -0.03830 0.61937
 H356 H 0.22593 -0.11871 0.53681
 C357 C 0.75054 -0.16666 0.33714
 C358 C 0.71628 -0.18371 0.32484
 C359 C 0.71667 -0.21135 0.29661
 C360 C 0.75094 -0.22176 0.28051
 C361 C 0.78503 -0.20426 0.29314
 C362 C 0.78501 -0.17678 0.32155
 C363 C 0.75031 -0.13761 0.36689
 C364 C 0.78458 -0.12068 0.37931
 C365 C 0.78422 -0.09314 0.40768
 C366 C 0.74987 -0.08236 0.42346
 C367 C 0.71575 -0.09961 0.41051
 C368 C 0.71583 -0.12733 0.38231
 C369 C 0.81872 -0.15914 0.33466
 C370 C 0.81852 -0.13161 0.36309
 C371 C 0.68235 -0.17276 0.34102
 C372 C 0.68212 -0.14501 0.36924
 H373 H 0.84549 -0.16672 0.32286
 H374 H 0.84515 -0.11874 0.37242
 H375 H 0.65573 -0.18571 0.33176
 H376 H 0.65533 -0.13735 0.38093
 H377 H 0.69042 -0.22495 0.28720
 H378 H 0.81142 -0.21193 0.28061
 H379 H 0.81065 -0.08003 0.41732
 H380 H 0.68916 -0.09165 0.42248
 C381 C 0.66148 0.74326 -0.16271
 C382 C 0.67147 0.70816 -0.17792
 C383 C 0.69918 0.70742 -0.20548
 C384 C 0.71688 0.74145 -0.21773
 C385 C 0.70668 0.77634 -0.20189
 C386 C 0.67890 0.77744 -0.17449
 C387 C 0.63209 0.74429 -0.13401
 C388 C 0.62196 0.77944 -0.11902
 C389 C 0.59391 0.78031 -0.09185
 C390 C 0.57609 0.74635 -0.07953
 C391 C 0.58670 0.71131 -0.09486
 C392 C 0.61465 0.71014 -0.12217
 C393 C 0.66811 0.81203 -0.15873
 C394 C 0.64008 0.81302 -0.13148
 C395 C 0.65340 0.67457 -0.16537
 C396 C 0.62550 0.67554 -0.13794
 H397 H 0.68136 0.83858 -0.16761
 H398 H 0.63253 0.84031 -0.12010
 H399 H 0.66086 0.64731 -0.17687
 H400 H 0.61227 0.64899 -0.12907
 H401 H 0.70673 0.68055 -0.21778
 H402 H 0.72046 0.80255 -0.21097
 H403 H 0.58609 0.80743 -0.08025
 H404 H 0.57319 0.68500 -0.08565
 C405 C 0.33398 0.25005 -0.16607
 C406 C 0.33967 0.27074 -0.19978
 C407 C 0.31140 0.27006 -0.22840
 C408 C 0.27732 0.25006 -0.22275
 C409 C 0.27166 0.23005 -0.18867
 C410 C 0.30027 0.22936 -0.16039
 C411 C 0.36389 0.25004 -0.13615
 C412 C 0.35880 0.22820 -0.10304
 C413 C 0.38765 0.22776 -0.07498
 C414 C 0.42062 0.25004 -0.07940
 C415 C 0.42506 0.27232 -0.11237
 C416 C 0.39700 0.27189 -0.14123
 C417 C 0.29599 0.20829 -0.12667
 C418 C 0.32491 0.20744 -0.09862
 C419 C 0.37339 0.29181 -0.20405
 C420 C 0.40143 0.29265 -0.17512
 H421 H 0.27019 0.19210 -0.12205
 H422 H 0.32060 0.19062 -0.07315
 H423 H 0.37802 0.30800 -0.22985
 H424 H 0.42691 0.30947 -0.17942
 H425 H 0.31534 0.28552 -0.25476
 H426 H 0.24529 0.21458 -0.18474
 H427 H 0.38420 0.21084 -0.04939
 H428 H 0.45065 0.28923 -0.11581
 C429 C 0.33723 0.75674 0.16151
 C430 C 0.32545 0.72256 0.17894
 C431 C 0.29805 0.72366 0.20672
 C432 C 0.28222 0.75855 0.21691
 C433 C 0.29447 0.79258 0.19922
 C434 C 0.32203 0.79184 0.17151
 C435 C 0.36594 0.75571 0.13213
 C436 C 0.37778 0.78986 0.11469
 C437 C 0.40509 0.78869 0.08674
 C438 C 0.42042 0.75365 0.07613
 C439 C 0.40809 0.71969 0.09395
 C440 C 0.38093 0.72056 0.12199
 C441 C 0.33457 0.82543 0.15344
 C442 C 0.36200 0.82446 0.12554
 C443 C 0.34120 0.68797 0.16814
 C444 C 0.36846 0.68698 0.14011
 H445 H 0.32308 0.85270 0.16090
 H446 H 0.37089 0.85102 0.11231
 H447 H 0.33233 0.66142 0.18139
 H448 H 0.37984 0.65969 0.13256
 H449 H 0.28897 0.69745 0.22050
 H450 H 0.28216 0.81946 0.20677
 H451 H 0.41430 0.81500 0.07323
 H452 H 0.41970 0.69257 0.08613
 C453 C 0.66751 0.25000 0.16750
 C454 C 0.67964 0.28470 0.18339
 C455 C 0.70800 0.28451 0.21192
 C456 C 0.72437 0.25000 0.22436
 C457 C 0.71193 0.21549 0.20799
 C458 C 0.68340 0.21531 0.17963
 C459 C 0.63758 0.25001 0.13757
 C460 C 0.62531 0.21530 0.12181
 C461 C 0.59678 0.21545 0.09343
 C462 C 0.58066 0.25001 0.08066
 C463 C 0.59344 0.28457 0.09677
 C464 C 0.62182 0.28472 0.12531
 C465 C 0.67046 0.18116 0.16312
 C466 C 0.64186 0.18115 0.13473
 C467 C 0.66313 0.31885 0.17045
 C468 C 0.63474 0.31886 0.14186
 H469 H 0.68249 0.15421 0.17225
 H470 H 0.63266 0.15419 0.12278
 H471 H 0.67226 0.34580 0.18249
 H472 H 0.62279 0.34583 0.13266
 H473 H 0.71729 0.31108 0.22466
 H474 H 0.72467 0.18891 0.21728
 H475 H 0.58727 0.18869 0.08121
 H476 H 0.58122 0.31133 0.08726
 C477 C -0.17086 0.65563 0.75328
 C478 C -0.18868 0.66688 0.71900
 C479 C -0.21691 0.69448 0.71933
 C480 C -0.22715 0.71105 0.75354
 C481 C -0.20918 0.69923 0.78771
 C482 C -0.18099 0.67148 0.78774
 C483 C -0.14080 0.62691 0.75303
 C484 C -0.12289 0.61570 0.78728
 C485 C -0.09423 0.58845 0.78685
 C486 C -0.08339 0.57257 0.75246
 C487 C -0.10171 0.58425 0.71839
 C488 C -0.13046 0.61135 0.71853
 C489 C -0.16248 0.65950 0.82144
 C490 C -0.13395 0.63204 0.82122
 C491 C -0.17769 0.65052 0.68506
 C492 C -0.14905 0.62324 0.68483
 H493 H -0.17004 0.67149 0.84822
 H494 H -0.12036 0.62364 0.84784
 H495 H -0.19124 0.65899 0.65844
 H496 H -0.14134 0.61141 0.65802
 H497 H -0.23089 0.70331 0.69303
 H498 H -0.21675 0.71215 0.81405
 H499 H -0.08035 0.57973 0.81324
 H500 H -0.09372 0.57220 0.69176
 C501 C -0.16007 0.33550 0.25246
 C502 C -0.17228 0.31866 0.21837
 C503 C -0.20049 0.29022 0.21900
 C504 C -0.21671 0.27883 0.25335
 C505 C -0.20409 0.29604 0.28728
 C506 C -0.17569 0.32433 0.28702
 C507 C -0.13048 0.36553 0.25195
 C508 C -0.11824 0.38233 0.28604
 C509 C -0.09017 0.41095 0.28538
 C510 C -0.07453 0.42296 0.25091
 C511 C -0.08721 0.40573 0.21697
 C512 C -0.11512 0.37694 0.21735
 C513 C -0.16271 0.34180 0.32055
 C514 C -0.13443 0.37028 0.32008
 C515 C -0.15609 0.33069 0.18433
 C516 C -0.12804 0.35938 0.18382
 H517 H -0.17452 0.33341 0.34739
 H518 H -0.12523 0.38304 0.34658
 H519 H -0.16528 0.31791 0.15784
 H520 H -0.11638 0.36790 0.15695
 H521 H -0.20989 0.27684 0.19287
 H522 H -0.21670 0.28759 0.31373
 H523 H -0.08073 0.42404 0.31166
 H524 H -0.07536 0.41463 0.19030
 C525 C 0.16122 0.33278 0.75086
 C526 C 0.15303 0.29687 0.73540
 C527 C 0.18133 0.26921 0.73578
 C528 C 0.21827 0.27788 0.74962
 C529 C 0.22564 0.31410 0.76539
 C530 C 0.19720 0.34143 0.76641
 C531 C 0.13158 0.36194 0.75067
 C532 C 0.13947 0.39744 0.76727
 C533 C 0.11104 0.42488 0.76747
 C534 C 0.07555 0.41735 0.75009
 C535 C 0.06815 0.38198 0.73302
 C536 C 0.09596 0.35380 0.73383
 C537 C 0.20414 0.37738 0.78244
 C538 C 0.17566 0.40481 0.78314
 C539 C 0.11682 0.28950 0.71949
 C540 C 0.08888 0.31761 0.71839
 H541 H 0.23179 0.38434 0.79465
 H542 H 0.18212 0.43212 0.79592
 H543 H 0.11016 0.26193 0.70737
 H544 H 0.06146 0.31090 0.70552
 H545 H 0.17475 0.24112 0.72488
 H546 H 0.25361 0.32129 0.77656
 H547 H 0.11661 0.45230 0.78045
 H548 H 0.04057 0.37622 0.71997
 C549 C 0.16775 0.67318 0.24633
 C550 C 0.17833 0.68940 0.21162
 C551 C 0.20656 0.71786 0.21131
 C552 C 0.22424 0.72993 0.24537
 C553 C 0.21335 0.71323 0.27989
 C554 C 0.18503 0.68491 0.28056
 C555 C 0.13802 0.64330 0.24685
 C556 C 0.12739 0.62714 0.28156
 C557 C 0.09915 0.59871 0.28190
 C558 C 0.08167 0.58629 0.24783
 C559 C 0.09272 0.60287 0.21326
 C560 C 0.12086 0.63143 0.21262
 C561 C 0.17366 0.66806 0.31473
 C562 C 0.14530 0.63968 0.31522
 C563 C 0.16044 0.67686 0.17796
 C564 C 0.13221 0.64833 0.17845
 H565 H 0.18678 0.67689 0.34132
 H566 H 0.13736 0.62742 0.34219
 H567 H 0.16836 0.68915 0.15100
 H568 H 0.11917 0.63943 0.15185
 H569 H 0.21470 0.73086 0.18474
 H570 H 0.22712 0.72225 0.30611
 H571 H 0.09097 0.58614 0.30867
 H572 H 0.07947 0.59361 0.18687
 C573 C 0.74630 -0.17317 0.66780
 C574 C 0.71159 -0.18939 0.67839
 C575 C 0.71128 -0.21784 0.70662
 C576 C 0.74533 -0.22992 0.72430
 C577 C 0.77986 -0.21324 0.71340
 C578 C 0.78052 -0.18491 0.68508
 C579 C 0.74682 -0.14329 0.63807
 C580 C 0.78153 -0.12715 0.62744
 C581 C 0.78188 -0.09871 0.59919
 C582 C 0.74781 -0.08628 0.58171
 C583 C 0.71323 -0.10286 0.59277
 C584 C 0.71259 -0.13141 0.62091
 C585 C 0.81470 -0.16807 0.67371
 C586 C 0.81520 -0.13969 0.64534
 C587 C 0.67793 -0.17683 0.66050
 C588 C 0.67842 -0.14830 0.63227
 H589 H 0.84128 -0.17691 0.68683
 H590 H 0.84216 -0.12744 0.63740
 H591 H 0.65097 -0.18912 0.66843
 H592 H 0.65182 -0.13940 0.61923
 H593 H 0.68470 -0.23084 0.71476
 H594 H 0.80608 -0.22226 0.72717
 H595 H 0.80864 -0.08615 0.59100
 H596 H 0.68684 -0.09359 0.57952
 C597 C 0.25323 -0.15563 0.32918
 C598 C 0.21895 -0.16688 0.31137
 C599 C 0.21927 -0.19448 0.28313
 C600 C 0.25349 -0.21106 0.27288
 C601 C 0.28765 -0.19924 0.29085
 C602 C 0.28769 -0.17148 0.31904
 C603 C 0.25299 -0.12691 0.35923
 C604 C 0.28723 -0.11570 0.37714
 C605 C 0.28681 -0.08845 0.40579
 C606 C 0.25242 -0.07257 0.41664
 C607 C 0.21835 -0.08425 0.39832
 C608 C 0.21848 -0.11135 0.36958
 C609 C 0.32140 -0.15950 0.33755
 C610 C 0.32118 -0.13205 0.36607
 C611 C 0.18501 -0.15052 0.32235
 C612 C 0.18478 -0.12324 0.35100
 H613 H 0.34817 -0.17150 0.32998
 H614 H 0.34780 -0.12364 0.37966
 H615 H 0.15839 -0.15899 0.30881
 H616 H 0.15798 -0.11140 0.35871
 H617 H 0.19297 -0.20331 0.26916
 H618 H 0.31399 -0.21216 0.28328
 H619 H 0.31320 -0.07973 0.41966
 H620 H 0.19173 -0.07220 0.40632
 C621 C 0.75246 0.16449 0.33993
 C622 C 0.78701 0.17566 0.32431
 C623 C 0.78728 0.20395 0.29591
 C624 C 0.75335 0.22116 0.28329
 C625 C 0.71900 0.20977 0.29950
 C626 C 0.71836 0.18133 0.32772
 C627 C 0.75194 0.13446 0.36952
 C628 C 0.71734 0.12305 0.38488
 C629 C 0.71696 0.09426 0.41279
 C630 C 0.75089 0.07703 0.42548
 C631 C 0.78537 0.08904 0.40985
 C632 C 0.78603 0.11766 0.38177
 C633 C 0.68433 0.16930 0.34389
 C634 C 0.68382 0.14061 0.37195
 C635 C 0.82055 0.15819 0.33731
 C636 C 0.82008 0.12971 0.36559
 H637 H 0.65784 0.18208 0.33470
 H638 H 0.65695 0.13208 0.38361
 H639 H 0.84739 0.16658 0.32550
 H640 H 0.84657 0.11696 0.37480
 H641 H 0.81373 0.21240 0.28331
 H642 H 0.69287 0.22315 0.29010
 H643 H 0.69028 0.08536 0.42464
 H644 H 0.81165 0.07595 0.41929
 C645 C 0.25089 0.16730 0.66117
 C646 C 0.26661 0.15872 0.69710
 C647 C 0.26561 0.18606 0.72553
 C648 C 0.24968 0.22222 0.71819
 C649 C 0.23568 0.23082 0.68130
 C650 C 0.23529 0.20315 0.65301
 C651 C 0.25070 0.13813 0.63154
 C652 C 0.23369 0.14619 0.59598
 C653 C 0.23287 0.11799 0.56819
 C654 C 0.25009 0.08268 0.57554
 C655 C 0.26763 0.07523 0.61098
 C656 C 0.26744 0.10268 0.63939
 C657 C 0.21922 0.21045 0.61685
 C658 C 0.21811 0.18232 0.58893
 C659 C 0.28279 0.12283 0.70400
 C660 C 0.28348 0.09539 0.67553
 H661 H 0.20698 0.23797 0.61022
 H662 H 0.20511 0.18898 0.56156
 H663 H 0.29513 0.11593 0.73161
 H664 H 0.29637 0.06813 0.68195
 H665 H 0.27690 0.17892 0.75346
 H666 H 0.22467 0.25887 0.67473
 H667 H 0.21970 0.12369 0.54065
 H668 H 0.28073 0.04787 0.61651
   
