data_POSCAR
  _audit_creation_date              2014-09-24
  _audit_creation_method            'ToBaCCo'
  _symmetry_space_group_name_H-M    'P1'
  _symmetry_Int_Tables_number       1
  _symmetry_cell_setting            triclinic
  loop_
  _symmetry_equiv_pos_as_xyz
 x,y,z
_cell_length_a 40.7345
_cell_length_b 47.2092
_cell_length_c 34.2419
_cell_angle_alpha 89.485200
_cell_angle_beta 89.640100
_cell_angle_gamma 91.407200
loop_
  _atom_site_label
  _atom_site_type_symbol
  _atom_site_fract_x
  _atom_site_fract_y
  _atom_site_fract_z
C1 C 1.27062 0.22443 0.24336
 C2 C 1.24539 0.24001 0.22641
 C3 C 1.21997 0.22585 0.20664
 C4 C 1.21953 0.19630 0.20372
 C5 C 1.24502 0.18088 0.22051
 C6 C 1.27070 0.19463 0.24076
 C7 C 1.24606 0.27126 0.22886
 C8 C 1.27464 0.28673 0.21835
 C9 C 1.27598 0.31650 0.22106
 C10 C 1.24829 0.33033 0.23554
 C11 C 1.21968 0.31500 0.24696
 C12 C 1.21856 0.28551 0.24260
 H13 H 1.29005 0.23603 0.25795
 H14 H 1.20067 0.23788 0.19318
 H15 H 1.29553 0.27509 0.20838
 H16 H 1.19667 0.27348 0.25131
 H17 H 1.24512 0.15806 0.21731
 H18 H 1.24892 0.35323 0.23710
 C19 C 0.76867 -0.29235 0.31360
 C20 C 0.74630 -0.27639 0.29227
 C21 C 0.72104 -0.29004 0.27165
 C22 C 0.71819 -0.31957 0.27160
 C23 C 0.74002 -0.33547 0.29390
 C24 C 0.76540 -0.32217 0.31517
 C25 C 0.74808 -0.24525 0.29288
 C26 C 0.77596 -0.23035 0.27880
 C27 C 0.77669 -0.20055 0.27799
 C28 C 0.74964 -0.18596 0.29244
 C29 C 0.72169 -0.20083 0.30660
 C30 C 0.72117 -0.23043 0.30686
 H31 H 0.78729 -0.28109 0.33008
 H32 H 0.70386 -0.27758 0.25509
 H33 H 0.79677 -0.24205 0.26843
 H34 H 0.69972 -0.24204 0.31793
 H35 H 0.73692 -0.35833 0.29520
 H36 H 0.75051 -0.16301 0.29273
 C37 C 0.77297 0.21123 -0.20436
 C38 C 0.75254 0.22962 -0.22479
 C39 C 0.72726 0.21856 -0.24818
 C40 C 0.72251 0.18927 -0.25177
 C41 C 0.74238 0.17102 -0.23027
 C42 C 0.76763 0.18176 -0.20659
 C43 C 0.75609 0.26048 -0.22008
 C44 C 0.78452 0.27513 -0.23303
 C45 C 0.78708 0.30495 -0.23013
 C46 C 0.76087 0.31942 -0.21296
 C47 C 0.73244 0.30471 -0.19984
 C48 C 0.73033 0.27529 -0.20341
 H49 H 0.79169 0.22002 -0.18536
 H50 H 0.71150 0.23285 -0.26390
 H51 H 0.80408 0.26290 -0.24525
 H52 H 0.70847 0.26380 -0.19328
 H53 H 0.73787 0.14832 -0.23129
 H54 H 0.76263 0.34221 -0.20962
 C55 C 1.28723 -0.26880 -0.24655
 C56 C 1.26184 -0.25382 -0.26406
 C57 C 1.23758 -0.26843 -0.28515
 C58 C 1.23839 -0.29787 -0.28863
 C59 C 1.26380 -0.31277 -0.27081
 C60 C 1.28816 -0.29844 -0.24893
 C61 C 1.26065 -0.22282 -0.26013
 C62 C 1.28839 -0.20595 -0.26931
 C63 C 1.28742 -0.17636 -0.26642
 C64 C 1.25891 -0.16390 -0.25207
 C65 C 1.23114 -0.18073 -0.24176
 C66 C 1.23198 -0.21012 -0.24688
 H67 H 1.30572 -0.25730 -0.22993
 H68 H 1.21813 -0.25682 -0.29906
 H69 H 1.31054 -0.21605 -0.27900
 H70 H 1.21066 -0.22326 -0.23924
 H71 H 1.26503 -0.33528 -0.27563
 H72 H 1.25820 -0.14105 -0.25009
 C73 C 0.20771 0.26644 0.75833
 C74 C 0.22797 0.24503 0.77193
 C75 C 0.21412 0.22189 0.79260
 C76 C 0.18014 0.21999 0.80060
 C77 C 0.15999 0.24170 0.78604
 C78 C 0.17351 0.26460 0.76411
 C79 C 0.26367 0.24660 0.76358
 C80 C 0.28276 0.26996 0.77581
 C81 C 0.31670 0.27177 0.76736
 C82 C 0.33097 0.25015 0.74543
 C83 C 0.31187 0.22682 0.73227
 C84 C 0.27840 0.22509 0.74228
 H85 H 0.21892 0.28440 0.74306
 H86 H 0.23018 0.20549 0.80298
 H87 H 0.27091 0.28630 0.79225
 H88 H 0.26339 0.20728 0.73246
 H89 H 0.13377 0.24108 0.79090
 H90 H 0.35703 0.25156 0.73926
 C91 C 0.70324 0.78081 0.70668
 C92 C 0.71894 0.75594 0.71805
 C93 C 0.70035 0.73299 0.73341
 C94 C 0.66606 0.73470 0.73826
 C95 C 0.65080 0.75967 0.72623
 C96 C 0.66878 0.78274 0.70990
 C97 C 0.75502 0.75363 0.71394
 C98 C 0.77628 0.77315 0.73227
 C99 C 0.81063 0.77007 0.73030
 C100 C 0.82321 0.74721 0.70931
 C101 C 0.80213 0.72739 0.69096
 C102 C 0.76812 0.73098 0.69328
 H103 H 0.71828 0.79806 0.69498
 H104 H 0.71336 0.71432 0.74199
 H105 H 0.76554 0.78986 0.74903
 H106 H 0.75163 0.71585 0.67932
 H107 H 0.62435 0.76108 0.72935
 H108 H 0.84954 0.74519 0.70712
 C109 C 0.72336 0.28078 0.21838
 C110 C 0.73830 0.25509 0.22826
 C111 C 0.71835 0.23139 0.23871
 C112 C 0.68395 0.23329 0.23964
 C113 C 0.66974 0.25911 0.23028
 C114 C 0.68897 0.28283 0.21929
 C115 C 0.77471 0.25317 0.22924
 C116 C 0.79393 0.27496 0.24607
 C117 C 0.82820 0.27259 0.24924
 C118 C 0.84315 0.24852 0.23425
 C119 C 0.82456 0.22674 0.21683
 C120 C 0.79025 0.22910 0.21471
 H121 H 0.73857 0.29908 0.21053
 H122 H 0.72985 0.21201 0.24766
 H123 H 0.78195 0.29348 0.25703
 H124 H 0.77545 0.21218 0.20223
 H125 H 0.64322 0.26069 0.23125
 H126 H 0.86955 0.24660 0.23649
 C127 C 0.21246 0.77127 0.24420
 C128 C 0.23235 0.75104 0.26145
 C129 C 0.21819 0.72950 0.28468
 C130 C 0.18416 0.72813 0.29200
 C131 C 0.16419 0.74867 0.27403
 C132 C 0.17798 0.76992 0.24899
 C133 C 0.26816 0.75204 0.25429
 C134 C 0.28749 0.77474 0.26794
 C135 C 0.32159 0.77612 0.26058
 C136 C 0.33594 0.75416 0.23917
 C137 C 0.31665 0.73116 0.22523
 C138 C 0.28280 0.73039 0.23329
 H139 H 0.22459 0.78794 0.22734
 H140 H 0.23413 0.71396 0.29763
 H141 H 0.27563 0.79066 0.28513
 H142 H 0.26751 0.71300 0.22272
 H143 H 0.13789 0.74802 0.27838
 H144 H 0.36203 0.75542 0.23331
 N145 N 1.03841 0.01835 0.05183
 N146 N 1.05938 0.03928 0.05942
 N147 N 1.01763 -0.04126 0.08420
 N148 N 1.02148 -0.06073 0.11161
 N149 N 1.04236 -0.04105 0.05938
 N150 N 1.06371 -0.06048 0.06929
 N151 N 1.01400 0.01793 0.07708
 N152 N 1.01783 0.03850 0.10266
 C153 C 1.04597 0.05186 0.09087
 C154 C 1.05028 -0.07259 0.10197
 N155 N 0.92681 -0.04966 0.04865
 N156 N 0.90718 -0.07194 0.05462
 N157 N 0.94356 0.01289 0.07049
 N158 N 0.93572 0.03500 0.09172
 N159 N 0.92294 0.00957 0.04149
 N160 N 0.90050 0.02924 0.04219
 N161 N 0.94729 -0.04642 0.07780
 N162 N 0.94211 -0.06639 0.10452
 Mn163 Mn 0.98057 -0.01418 0.07781
 C164 C 0.91706 -0.08215 0.08952
 C165 C 0.90879 0.04495 0.07359
 N166 N 1.04841 -0.04523 -0.02437
 N167 N 1.07385 -0.06168 -0.02843
 N168 N 1.02369 0.01045 -0.06101
 N169 N 1.02743 0.03078 -0.08740
 N170 N 1.04439 0.01418 -0.03213
 N171 N 1.06285 0.03733 -0.03827
 N172 N 1.02799 -0.04857 -0.05364
 N173 N 1.03936 -0.06715 -0.07866
 Mn174 Mn 1.04376 -0.01339 0.01370
 C175 C 1.06767 -0.07547 -0.06204
 C176 C 1.05191 0.04736 -0.07302
 N177 N 0.92918 0.00516 -0.04185
 N178 N 0.90940 0.02623 -0.04922
 N179 N 0.95689 -0.05407 -0.06020
 N180 N 0.95147 -0.07362 -0.08705
 N181 N 0.93258 -0.05412 -0.03477
 N182 N 0.91033 -0.07380 -0.04336
 N183 N 0.95359 0.00522 -0.06706
 N184 N 0.95106 0.02633 -0.09232
 Mn185 Mn 0.92758 -0.02230 0.00337
 Mn186 Mn 0.99059 -0.02187 -0.06085
 Cl187 Cl 0.98567 -0.01800 0.00850
 C188 C 0.92330 0.03912 -0.08090
 C189 C 0.92257 -0.08606 -0.07562
 N190 N 1.05833 0.52419 0.55628
 N191 N 1.07905 0.54554 0.56273
 N192 N 1.04132 0.46220 0.58386
 N193 N 1.04859 0.44121 0.60786
 N194 N 1.06332 0.46480 0.55575
 N195 N 1.08601 0.44550 0.55972
 N196 N 1.03694 0.52150 0.58501
 N197 N 1.04242 0.54098 0.61169
 C198 C 1.06849 0.55596 0.59718
 C199 C 1.07652 0.43095 0.59229
 N200 N 0.94683 0.45615 0.56188
 N201 N 0.92695 0.43414 0.56837
 N202 N 0.96683 0.51651 0.58882
 N203 N 0.96327 0.53804 0.61262
 N204 N 0.94338 0.51583 0.56270
 N205 N 0.92313 0.53695 0.56812
 N206 N 0.97035 0.45713 0.58790
 N207 N 0.96680 0.43601 0.61328
 Mn208 Mn 1.00387 0.48921 0.58682
 C209 C 0.93970 0.42179 0.60043
 C210 C 0.93588 0.55051 0.59954
 N211 N 1.06058 0.46562 0.47203
 N212 N 1.08472 0.44858 0.46385
 N213 N 1.03218 0.52254 0.44551
 N214 N 1.03363 0.54365 0.42010
 N215 N 1.05557 0.52520 0.47155
 N216 N 1.07372 0.54839 0.46429
 N217 N 1.03719 0.46333 0.44592
 N218 N 1.04519 0.44490 0.41877
 Mn219 Mn 1.05982 0.49511 0.51389
 C220 C 1.07474 0.43563 0.43088
 C221 C 1.05953 0.55964 0.43202
 N222 N 0.94065 0.51615 0.47845
 N223 N 0.91993 0.53710 0.47557
 N224 N 0.96581 0.45796 0.44993
 N225 N 0.95907 0.43843 0.42352
 N226 N 0.94400 0.45674 0.47836
 N227 N 0.92217 0.43618 0.47238
 N228 N 0.96218 0.51735 0.44975
 N229 N 0.95684 0.53925 0.42667
 Mn230 Mn 0.94334 0.48627 0.52038
 Mn231 Mn 0.99932 0.49012 0.44736
 Cl232 Cl 1.00162 0.49012 0.51709
 C233 C 0.93038 0.55125 0.44307
 C234 C 0.93198 0.42482 0.43830
 N235 N 0.56155 0.03907 0.51431
 N236 N 0.58675 0.05677 0.51883
 N237 N 0.53485 -0.01942 0.54355
 N238 N 0.54248 -0.03922 0.56930
 N239 N 0.55449 -0.02024 0.51307
 N240 N 0.57572 -0.04067 0.51698
 N241 N 0.54159 0.03994 0.54449
 N242 N 0.55268 0.05827 0.57043
 C243 C 0.58068 0.06880 0.55370
 C244 C 0.56779 -0.05249 0.55193
 N245 N 0.43990 -0.01276 0.52807
 N246 N 0.41790 -0.03322 0.53462
 N247 N 0.47170 0.04451 0.55367
 N248 N 0.47134 0.06458 0.58022
 N249 N 0.44666 0.04671 0.52995
 N250 N 0.42843 0.06832 0.53996
 N251 N 0.46459 -0.01479 0.55234
 N252 N 0.45996 -0.03657 0.57631
 Mn253 Mn 0.50315 0.01254 0.54894
 C254 C 0.43073 -0.04778 0.56481
 C255 C 0.44431 0.07930 0.57130
 N256 N 0.54706 -0.01824 0.43008
 N257 N 0.56544 -0.03986 0.42145
 N258 N 0.53005 0.04312 0.40633
 N259 N 0.53793 0.06154 0.37826
 N260 N 0.55436 0.04094 0.43112
 N261 N 0.57916 0.05786 0.42092
 N262 N 0.52284 -0.01611 0.40523
 N263 N 0.52431 -0.03616 0.37860
 Mn264 Mn 0.55456 0.01038 0.47209
 C265 C 0.55087 -0.05094 0.38951
 C266 C 0.56851 0.07077 0.38827
 N267 N 0.43965 0.04866 0.44602
 N268 N 0.41953 0.06999 0.44262
 N269 N 0.45278 -0.01177 0.41453
 N270 N 0.44416 -0.03252 0.39076
 N271 N 0.43249 -0.01083 0.44443
 N272 N 0.40942 -0.03088 0.44169
 N273 N 0.45948 0.04769 0.41565
 N274 N 0.45310 0.06823 0.39057
 Mn275 Mn 0.43928 0.01800 0.48716
 Mn276 Mn 0.49119 0.01579 0.40995
 Cl277 Cl 0.49702 0.01422 0.47953
 C278 C 0.42833 0.08206 0.40807
 C279 C 0.41705 -0.04424 0.40812
 N280 N 0.56351 0.53242 0.03085
 N281 N 0.58846 0.55012 0.03703
 N282 N 0.53982 0.47224 0.05658
 N283 N 0.54924 0.45251 0.08149
 N284 N 0.55928 0.47313 0.02584
 N285 N 0.58195 0.45381 0.02858
 N286 N 0.54364 0.53144 0.06119
 N287 N 0.55448 0.54851 0.08881
 C288 C 0.58221 0.56026 0.07304
 C289 C 0.57526 0.44097 0.06315
 N290 N 0.44424 0.47635 0.04227
 N291 N 0.42299 0.45513 0.04741
 N292 N 0.47373 0.53347 0.07117
 N293 N 0.47360 0.55354 0.09773
 N294 N 0.44883 0.53600 0.04732
 N295 N 0.43101 0.55793 0.05713
 N296 N 0.46906 0.47409 0.06629
 N297 N 0.46511 0.45142 0.08893
 Mn298 Mn 0.50652 0.50271 0.06424
 C299 C 0.43623 0.43989 0.07663
 C300 C 0.44687 0.56862 0.08869
 N301 N 0.55159 0.47736 -0.05680
 N302 N 0.57174 0.45746 -0.06746
 N303 N 0.53122 0.53844 -0.07695
 N304 N 0.53702 0.55900 -0.10275
 N305 N 0.55573 0.53668 -0.05239
 N306 N 0.57872 0.55597 -0.06057
 N307 N 0.52701 0.47907 -0.08123
 N308 N 0.53007 0.46049 -0.10965
 Mn309 Mn 0.55773 0.50495 -0.01320
 C310 C 0.55793 0.44694 -0.10020
 C311 C 0.56666 0.56985 -0.09177
 N312 N 0.44100 0.53980 -0.03643
 N313 N 0.41829 0.55903 -0.04028
 N314 N 0.45641 0.48069 -0.07099
 N315 N 0.44746 0.46089 -0.09617
 N316 N 0.43634 0.48050 -0.04080
 N317 N 0.41326 0.46066 -0.04459
 N318 N 0.46082 0.54025 -0.06689
 N319 N 0.45213 0.55992 -0.09216
 Mn320 Mn 0.44226 0.50824 0.00319
 Mn321 Mn 0.49378 0.50961 -0.07451
 Cl322 Cl 0.50006 0.50639 -0.00509
 C323 C 0.42590 0.57171 -0.07480
 C324 C 0.42051 0.44853 -0.07910
 C325 C 1.19306 0.18207 0.18146
 C326 C 1.18092 0.15507 0.19135
 C327 C 1.15619 0.13969 0.16776
 C328 C 1.13564 0.11924 0.18598
 C329 C 1.11339 0.10307 0.16409
 C330 C 1.11164 0.10683 0.12338
 C331 C 1.13228 0.12722 0.10513
 C332 C 1.15422 0.14367 0.12710
 C333 C 1.09078 0.08815 0.09902
 C334 C 1.06222 0.07461 0.11296
 H335 H 1.18900 0.14516 0.21817
 H336 H 1.13709 0.11555 0.21719
 H337 H 1.09858 0.08692 0.17895
 H338 H 1.13173 0.13014 0.07372
 H339 H 1.17040 0.15871 0.11201
 H340 H 1.09857 0.08450 0.06920
 H341 H 1.18181 0.19373 0.15790
 H342 H 1.05225 0.07986 0.14128
 C343 C 1.21309 0.68739 0.68797
 C344 C 1.20217 0.65990 0.69699
 C345 C 1.17819 0.64407 0.67304
 C346 C 1.15928 0.62229 0.69072
 C347 C 1.13746 0.60590 0.66869
 C348 C 1.13437 0.61088 0.62834
 C349 C 1.15356 0.63245 0.61051
 C350 C 1.17519 0.64907 0.63267
 C351 C 1.11316 0.59256 0.60400
 C352 C 1.08545 0.57837 0.61896
 H353 H 1.21046 0.64994 0.72366
 H354 H 1.16161 0.61778 0.72165
 H355 H 1.12392 0.58877 0.68315
 H356 H 1.15200 0.63629 0.57934
 H357 H 1.19019 0.66515 0.61794
 H358 H 1.11989 0.58979 0.57362
 H359 H 1.20158 0.69902 0.66458
 H360 H 1.07671 0.58276 0.64814
 C361 C 0.69608 0.17814 0.72292
 C362 C 0.69879 0.15246 0.70352
 C363 C 0.67275 0.14023 0.67861
 C364 C 0.68154 0.12089 0.64982
 C365 C 0.65761 0.10782 0.62676
 C366 C 0.62424 0.11374 0.63226
 C367 C 0.61534 0.13284 0.66140
 C368 C 0.63938 0.14613 0.68429
 C369 C 0.59835 0.09885 0.60983
 C370 C 0.60405 0.08818 0.57270
 H371 H 0.72175 0.14140 0.70502
 H372 H 0.70705 0.11567 0.64536
 H373 H 0.66531 0.09243 0.60557
 H374 H 0.58974 0.13731 0.66660
 H375 H 0.63167 0.16030 0.70706
 H376 H 0.57430 0.09583 0.62316
 H377 H 0.67518 0.19131 0.71746
 H378 H 0.62695 0.09303 0.55760
 C379 C 0.69187 0.66676 0.24856
 C380 C 0.69583 0.64058 0.23090
 C381 C 0.67063 0.62751 0.20562
 C382 C 0.68061 0.60935 0.17591
 C383 C 0.65749 0.59656 0.15142
 C384 C 0.62384 0.60154 0.15651
 C385 C 0.61378 0.61914 0.18685
 C386 C 0.63697 0.63219 0.21112
 C387 C 0.59881 0.58729 0.13216
 C388 C 0.60526 0.57868 0.09416
 H389 H 0.71930 0.63038 0.23292
 H390 H 0.70639 0.60512 0.17155
 H391 H 0.66602 0.58227 0.12924
 H392 H 0.58794 0.62281 0.19176
 H393 H 0.62843 0.64540 0.23457
 H394 H 0.57459 0.58333 0.14464
 H395 H 0.67021 0.67881 0.24232
 H396 H 0.62831 0.58448 0.08000
 C397 C 0.80505 -0.18397 0.26212
 C398 C 0.82482 -0.19367 0.23186
 C399 C 0.84890 -0.17482 0.21138
 C400 C 0.85451 -0.17865 0.17135
 C401 C 0.87464 -0.15951 0.15032
 C402 C 0.88977 -0.13634 0.16916
 C403 C 0.88590 -0.13362 0.20967
 C404 C 0.86552 -0.15260 0.23063
 C405 C 0.90885 -0.11432 0.14733
 C406 C 0.90128 -0.10670 0.10908
 H407 H 0.81949 -0.21423 0.21933
 H408 H 0.84241 -0.19593 0.15606
 H409 H 0.87808 -0.16279 0.11934
 H410 H 0.89782 -0.11622 0.22491
 H411 H 0.86259 -0.14968 0.26176
 H412 H 0.92691 -0.10172 0.16306
 H413 H 0.80784 -0.16214 0.27122
 H414 H 0.88163 -0.11764 0.09380
 C415 C 0.81443 0.32100 0.75605
 C416 C 0.84006 0.31050 0.73336
 C417 C 0.86564 0.32954 0.71600
 C418 C 0.87721 0.32411 0.67822
 C419 C 0.89905 0.34317 0.65958
 C420 C 0.91009 0.36779 0.67875
 C421 C 0.90030 0.37223 0.71750
 C422 C 0.87803 0.35338 0.73594
 C423 C 0.93038 0.38970 0.65830
 C424 C 0.92445 0.39680 0.61946
 H425 H 0.83947 0.28881 0.72358
 H426 H 0.86839 0.30562 0.66255
 H427 H 0.90694 0.33883 0.63003
 H428 H 0.90887 0.39088 0.73297
 H429 H 0.87030 0.35762 0.76558
 H430 H 0.94692 0.40297 0.67524
 H431 H 0.81464 0.34363 0.76123
 H432 H 0.90539 0.38551 0.60358
 C433 C 0.31555 -0.15804 0.72119
 C434 C 0.33719 -0.16593 0.69169
 C435 C 0.36185 -0.14608 0.67456
 C436 C 0.36959 -0.14842 0.63480
 C437 C 0.39052 -0.12848 0.61667
 C438 C 0.40441 -0.10609 0.63823
 C439 C 0.39851 -0.10484 0.67854
 C440 C 0.37713 -0.12459 0.69661
 C441 C 0.42374 -0.08324 0.61884
 C442 C 0.41438 -0.07259 0.58267
 H443 H 0.33315 -0.18590 0.67698
 H444 H 0.35849 -0.16512 0.61743
 H445 H 0.39549 -0.13034 0.58571
 H446 H 0.40940 -0.08794 0.69571
 H447 H 0.37240 -0.12286 0.72763
 H448 H 0.44304 -0.07247 0.63502
 H449 H 0.31701 -0.13666 0.73236
 H450 H 0.39294 -0.08140 0.56820
 C451 C 0.30384 0.33304 0.21015
 C452 C 0.33139 0.32295 0.19053
 C453 C 0.35822 0.34232 0.17724
 C454 C 0.37247 0.33823 0.14041
 C455 C 0.39556 0.35785 0.12542
 C456 C 0.40523 0.38156 0.14745
 C457 C 0.39278 0.38456 0.18540
 C458 C 0.36918 0.36522 0.20011
 C459 C 0.42630 0.40428 0.13024
 C460 C 0.42041 0.41410 0.09257
 H461 H 0.33187 0.30146 0.18005
 H462 H 0.36470 0.32049 0.12257
 H463 H 0.40538 0.35482 0.09634
 H464 H 0.40020 0.40257 0.20294
 H465 H 0.35921 0.36836 0.22910
 H466 H 0.44297 0.41609 0.14892
 H467 H 0.30328 0.35562 0.21554
 H468 H 0.40090 0.40436 0.07560
 C469 C 0.78612 0.16153 -0.18270
 C470 C 0.81768 0.16686 -0.16859
 C471 C 0.83476 0.14523 -0.14549
 C472 C 0.86872 0.14223 -0.15002
 C473 C 0.88477 0.12044 -0.13053
 C474 C 0.86703 0.10151 -0.10585
 C475 C 0.83343 0.10558 -0.09973
 C476 C 0.81739 0.12714 -0.11943
 C477 C 0.88247 0.07736 -0.08602
 C478 C 0.91052 0.06444 -0.10006
 H479 H 0.83114 0.18593 -0.17747
 H480 H 0.88265 0.15628 -0.16944
 H481 H 0.91095 0.11857 -0.13483
 H482 H 0.81938 0.09162 -0.08029
 H483 H 0.79136 0.12957 -0.11430
 H484 H 0.86981 0.06805 -0.06091
 H485 H 0.77494 0.14073 -0.17778
 H486 H 0.92295 0.07232 -0.12611
 C487 C 0.78554 0.66072 0.33813
 C488 C 0.81336 0.67008 0.35846
 C489 C 0.83199 0.65021 0.38268
 C490 C 0.86638 0.65199 0.38265
 C491 C 0.88440 0.63181 0.40284
 C492 C 0.86815 0.60983 0.42383
 C493 C 0.83378 0.60920 0.42590
 C494 C 0.81580 0.62910 0.40529
 C495 C 0.88620 0.58687 0.44285
 C496 C 0.91508 0.57656 0.42709
 H497 H 0.82361 0.69120 0.35413
 H498 H 0.87928 0.66843 0.36595
 H499 H 0.91094 0.63336 0.40180
 H500 H 0.82080 0.59271 0.44243
 H501 H 0.78924 0.62784 0.40679
 H502 H 0.87461 0.57572 0.46729
 H503 H 0.77941 0.63824 0.33972
 H504 H 0.92582 0.58613 0.40101
 C505 C 0.29557 0.17803 0.25695
 C506 C 0.32059 0.18816 0.28142
 C507 C 0.34546 0.16933 0.29807
 C508 C 0.35787 0.17501 0.33537
 C509 C 0.38028 0.15688 0.35265
 C510 C 0.39102 0.13292 0.33260
 C511 C 0.37996 0.12809 0.29448
 C512 C 0.35721 0.14601 0.27739
 C513 C 0.41296 0.11234 0.35108
 C514 C 0.41087 0.10585 0.39079
 H515 H 0.32060 0.20962 0.29202
 H516 H 0.34962 0.19315 0.35155
 H517 H 0.38916 0.16165 0.38165
 H518 H 0.38829 0.10998 0.27830
 H519 H 0.34895 0.14165 0.24802
 H520 H 0.42816 0.09960 0.33240
 H521 H 0.29457 0.15547 0.25130
 H522 H 0.39341 0.11651 0.40913
 C523 C 0.31328 0.68744 -0.22932
 C524 C 0.31318 0.65823 -0.22230
 C525 C 0.33881 0.64473 -0.19897
 C526 C 0.32988 0.62181 -0.17460
 C527 C 0.35337 0.60865 -0.15179
 C528 C 0.38640 0.61794 -0.15346
 C529 C 0.39559 0.64029 -0.17876
 C530 C 0.37191 0.65384 -0.20112
 C531 C 0.41156 0.60344 -0.13053
 C532 C 0.40446 0.59199 -0.09377
 H533 H 0.29203 0.64511 -0.22964
 H534 H 0.30458 0.61423 -0.17293
 H535 H 0.34576 0.59082 -0.13351
 H536 H 0.42103 0.64739 -0.18098
 H537 H 0.37955 0.67103 -0.22052
 H538 H 0.43583 0.60124 -0.14311
 H539 H 0.33278 0.70016 -0.21631
 H540 H 0.38133 0.59640 -0.07958
 C541 C 1.20102 -0.16842 -0.22555
 C542 C 1.20164 -0.14354 -0.20389
 C543 C 1.17259 -0.13284 -0.18322
 C544 C 1.17765 -0.11542 -0.15079
 C545 C 1.15107 -0.10514 -0.12990
 C546 C 1.11870 -0.11203 -0.14111
 C547 C 1.11355 -0.12871 -0.17430
 C548 C 1.14024 -0.13916 -0.19515
 C549 C 1.09023 -0.10067 -0.11993
 C550 C 1.09200 -0.09330 -0.08071
 H551 H 1.22500 -0.13293 -0.19848
 H552 H 1.20232 -0.10986 -0.14142
 H553 H 1.15607 -0.09131 -0.10553
 H554 H 1.08884 -0.13373 -0.18400
 H555 H 1.13542 -0.15175 -0.22081
 H556 H 1.06777 -0.09721 -0.13588
 H557 H 1.17845 -0.18092 -0.22718
 H558 H 1.11347 -0.09839 -0.06382
 C559 C 1.19085 0.32911 0.26399
 C560 C 1.19376 0.35467 0.28405
 C561 C 1.16646 0.36812 0.30507
 C562 C 1.17448 0.38831 0.33343
 C563 C 1.14997 0.40140 0.35471
 C564 C 1.11667 0.39459 0.34818
 C565 C 1.10843 0.37519 0.31880
 C566 C 1.13310 0.36191 0.29748
 C567 C 1.09059 0.40826 0.37108
 C568 C 1.09611 0.41663 0.40943
 H569 H 1.21793 0.36426 0.28763
 H570 H 1.19990 0.39389 0.33938
 H571 H 1.15725 0.41718 0.37591
 H572 H 1.08292 0.37008 0.31270
 H573 H 1.12591 0.34714 0.27497
 H574 H 1.06714 0.41210 0.35753
 H575 H 1.16751 0.31767 0.26387
 H576 H 1.11862 0.41085 0.42377
 C577 C 0.69323 -0.18614 0.32273
 C578 C 0.68368 -0.15967 0.30928
 C579 C 0.65691 -0.14411 0.32795
 C580 C 0.63987 -0.12400 0.30613
 C581 C 0.61603 -0.10756 0.32391
 C582 C 0.60918 -0.11084 0.36402
 C583 C 0.62597 -0.13116 0.38566
 C584 C 0.64955 -0.14769 0.36787
 C585 C 0.58791 -0.09133 0.38526
 C586 C 0.56432 -0.07464 0.36777
 H587 H 0.69561 -0.15034 0.28372
 H588 H 0.64545 -0.12067 0.27542
 H589 H 0.60418 -0.09154 0.30660
 H590 H 0.62149 -0.13370 0.41674
 H591 H 0.66289 -0.16237 0.38588
 H592 H 0.59218 -0.08904 0.41631
 H593 H 0.67836 -0.19726 0.34457
 H594 H 0.55674 -0.07808 0.33793
 C595 C 0.70507 0.31928 -0.18093
 C596 C 0.69582 0.34651 -0.19152
 C597 C 0.66927 0.36119 -0.17098
 C598 C 0.65118 0.38161 -0.19096
 C599 C 0.62701 0.39672 -0.17147
 C600 C 0.62094 0.39186 -0.13147
 C601 C 0.63900 0.37140 -0.11162
 C602 C 0.66283 0.35614 -0.13112
 C603 C 0.59886 0.40968 -0.10850
 C604 C 0.57342 0.42531 -0.12415
 H605 H 0.70742 0.35690 -0.21654
 H606 H 0.65601 0.38606 -0.22157
 H607 H 0.61415 0.41290 -0.18738
 H608 H 0.63514 0.36765 -0.08064
 H609 H 0.67698 0.34116 -0.11454
 H610 H 0.60358 0.41119 -0.07745
 H611 H 0.69040 0.30740 -0.15965
 H612 H 0.56564 0.42246 -0.15405
 C613 C 1.16818 0.19640 -0.17730
 C614 C 1.13524 0.19074 -0.16702
 C615 C 1.12414 0.16527 -0.14404
 C616 C 1.09134 0.15579 -0.14714
 C617 C 1.07986 0.13178 -0.12650
 C618 C 1.10097 0.11660 -0.10203
 C619 C 1.13346 0.12666 -0.09775
 C620 C 1.14500 0.15067 -0.11854
 C621 C 1.08967 0.09061 -0.08037
 C622 C 1.06376 0.07331 -0.09338
 H623 H 1.11622 0.20431 -0.17758
 H624 H 1.07452 0.16689 -0.16589
 H625 H 1.05430 0.12548 -0.12946
 H626 H 1.15008 0.11574 -0.07854
 H627 H 1.17008 0.15786 -0.11401
 H628 H 1.10311 0.08416 -0.05471
 H629 H 1.18599 0.18110 -0.16812
 H630 H 1.05174 0.07839 -0.12054
 C631 C 1.17212 0.70599 0.31670
 C632 C 1.13930 0.70093 0.32792
 C633 C 1.12865 0.67651 0.35334
 C634 C 1.09587 0.66674 0.35182
 C635 C 1.08505 0.64331 0.37419
 C636 C 1.10687 0.62891 0.39874
 C637 C 1.13928 0.63944 0.40161
 C638 C 1.15010 0.66294 0.37927
 C639 C 1.09663 0.60315 0.42168
 C640 C 1.06998 0.58578 0.41107
 H641 H 1.12022 0.71404 0.31640
 H642 H 1.07857 0.67709 0.33286
 H643 H 1.05949 0.63680 0.37226
 H644 H 1.15646 0.62923 0.42088
 H645 H 1.17518 0.67044 0.38283
 H646 H 1.11152 0.59680 0.44622
 H647 H 1.18995 0.69124 0.32742
 H648 H 1.05615 0.59085 0.38521
 C649 C 0.66166 0.20963 0.25203
 C650 C 0.67022 0.18124 0.25385
 C651 C 0.64711 0.15923 0.26943
 C652 C 0.65956 0.13629 0.29034
 C653 C 0.63826 0.11678 0.30890
 C654 C 0.60402 0.11982 0.30664
 C655 C 0.59156 0.14153 0.28333
 C656 C 0.61289 0.16116 0.26494
 C657 C 0.58110 0.10103 0.32902
 C658 C 0.58969 0.09019 0.36534
 H659 H 0.69493 0.17512 0.24670
 H660 H 0.68582 0.13403 0.29348
 H661 H 0.64866 0.09951 0.32529
 H662 H 0.56529 0.14387 0.28043
 H663 H 0.60250 0.17793 0.24756
 H664 H 0.55654 0.09714 0.31801
 H665 H 0.63699 0.21513 0.26054
 H666 H 0.61336 0.09574 0.37768
 C667 C 0.64618 0.71280 -0.24508
 C668 C 0.65740 0.68675 -0.23130
 C669 C 0.63585 0.66535 -0.21123
 C670 C 0.65037 0.64566 -0.18624
 C671 C 0.63116 0.62559 -0.16576
 C672 C 0.59678 0.62477 -0.16978
 C673 C 0.58231 0.64367 -0.19599
 C674 C 0.60158 0.66381 -0.21653
 C675 C 0.57576 0.60403 -0.14779
 C676 C 0.58545 0.59237 -0.11229
 H677 H 0.68317 0.68208 -0.23255
 H678 H 0.67674 0.64597 -0.18221
 H679 H 0.64346 0.61058 -0.14724
 H680 H 0.55597 0.64302 -0.20028
 H681 H 0.58950 0.67779 -0.23674
 H682 H 0.55186 0.59825 -0.15939
 H683 H 0.62031 0.71688 -0.24163
 H684 H 0.60825 0.59933 -0.09904
 C685 C 0.83425 -0.21083 -0.24890
 C686 C 0.82578 -0.18567 -0.23042
 C687 C 0.84886 -0.16835 -0.20650
 C688 C 0.83570 -0.15012 -0.17866
 C689 C 0.85621 -0.13346 -0.15516
 C690 C 0.89057 -0.13455 -0.15901
 C691 C 0.90381 -0.15214 -0.18763
 C692 C 0.88323 -0.16900 -0.21106
 C693 C 0.91279 -0.11664 -0.13476
 C694 C 0.90369 -0.10740 -0.09773
 H695 H 0.80075 -0.17871 -0.23161
 H696 H 0.80935 -0.14881 -0.17493
 H697 H 0.84495 -0.11935 -0.13459
 H698 H 0.93016 -0.15294 -0.19174
 H699 H 0.89439 -0.18203 -0.23303
 H700 H 0.93679 -0.11060 -0.14633
 H701 H 0.85936 -0.21762 -0.24709
 H702 H 0.88077 -0.11496 -0.08481
 C703 C 0.84932 0.29458 0.26793
 C704 C 0.83772 0.31395 0.29507
 C705 C 0.85914 0.33454 0.31611
 C706 C 0.84678 0.34716 0.34990
 C707 C 0.86596 0.36649 0.37103
 C708 C 0.89823 0.37363 0.35890
 C709 C 0.91034 0.36157 0.32453
 C710 C 0.89107 0.34226 0.30329
 C711 C 0.91930 0.39428 0.38033
 C712 C 0.91324 0.40211 0.41884
 H713 H 0.81213 0.31276 0.30366
 H714 H 0.82209 0.34201 0.36010
 H715 H 0.85500 0.37604 0.39636
 H716 H 0.93484 0.36711 0.31407
 H717 H 0.90125 0.33388 0.27671
 H718 H 0.94038 0.40369 0.36520
 H719 H 0.87542 0.29379 0.26228
 H720 H 0.89336 0.39217 0.43538
 C721 C 0.34303 -0.20048 0.27586
 C722 C 0.33110 -0.17471 0.28943
 C723 C 0.35159 -0.15197 0.30761
 C724 C 0.33585 -0.13165 0.33034
 C725 C 0.35375 -0.10955 0.34775
 C726 C 0.38799 -0.10711 0.34269
 C727 C 0.40372 -0.12712 0.31941
 C728 C 0.38581 -0.14940 0.30217
 C729 C 0.40765 -0.08341 0.35980
 C730 C 0.39764 -0.06831 0.39255
 H731 H 0.30511 -0.17088 0.28778
 H732 H 0.30948 -0.13286 0.33464
 H733 H 0.34049 -0.09410 0.36436
 H734 H 0.43001 -0.12549 0.31454
 H735 H 0.39884 -0.16407 0.28405
 H736 H 0.43138 -0.07821 0.34679
 H737 H 0.36913 -0.20406 0.27679
 H738 H 0.37532 -0.07447 0.40798
 C739 C 0.33702 0.29422 -0.21978
 C740 C 0.32465 0.31963 -0.19491
 C741 C 0.34714 0.34466 -0.17835
 C742 C 0.33322 0.36568 -0.15523
 C743 C 0.35276 0.38752 -0.13973
 C744 C 0.38684 0.38878 -0.14687
 C745 C 0.40065 0.36812 -0.17080
 C746 C 0.38102 0.34614 -0.18621
 C747 C 0.40818 0.41160 -0.13030
 C748 C 0.40031 0.42538 -0.09568
 H749 H 0.29669 0.32468 -0.18364
 H750 H 0.30712 0.36524 -0.14901
 H751 H 0.34094 0.40355 -0.12264
 H752 H 0.42675 0.36875 -0.17711
 H753 H 0.39229 0.33026 -0.20414
 H754 H 0.43130 0.41685 -0.14477
 H755 H 0.32950 0.30775 -0.20631
 H756 H 0.37868 0.41874 -0.07922
 C757 C 1.15710 -0.21098 0.22955
 C758 C 1.16740 -0.19310 0.19845
 C759 C 1.14657 -0.17243 0.17766
 C760 C 1.11716 -0.16215 0.19325
 C761 C 1.09965 -0.14136 0.17309
 C762 C 1.11121 -0.13041 0.13690
 C763 C 1.14040 -0.14097 0.12147
 C764 C 1.15782 -0.16157 0.14154
 C765 C 1.09458 -0.10769 0.11448
 C766 C 1.06487 -0.09563 0.12502
 H767 H 1.19175 -0.19521 0.18639
 H768 H 1.10800 -0.16950 0.22136
 H769 H 1.07749 -0.13380 0.18646
 H770 H 1.15005 -0.13304 0.09379
 H771 H 1.18045 -0.16892 0.12880
 H772 H 1.10660 -0.09987 0.08805
 H773 H 1.13136 -0.21133 0.23760
 H774 H 1.05156 -0.10292 0.15071
 C775 C 1.15157 0.28650 0.74783
 C776 C 1.15991 0.30251 0.71434
 C777 C 1.14016 0.32554 0.69711
 C778 C 1.15472 0.34250 0.66755
 C779 C 1.13761 0.36445 0.64996
 C780 C 1.10508 0.36988 0.66113
 C781 C 1.09049 0.35303 0.69088
 C782 C 1.10773 0.33106 0.70867
 C783 C 1.08602 0.39316 0.64326
 C784 C 1.09511 0.40725 0.60858
 H785 H 1.18267 0.29806 0.69942
 H786 H 1.17973 0.33893 0.65818
 H787 H 1.15039 0.37724 0.62811
 H788 H 1.06554 0.35677 0.70027
 H789 H 1.09533 0.31846 0.73102
 H790 H 1.06357 0.39921 0.65778
 H791 H 1.12813 0.28925 0.76206
 H792 H 1.11645 0.40097 0.59224
 C793 C 0.65110 -0.19363 0.69706
 C794 C 0.66445 -0.16969 0.67776
 C795 C 0.64373 -0.14705 0.66153
 C796 C 0.65561 -0.13107 0.62951
 C797 C 0.63632 -0.11046 0.61214
 C798 C 0.60455 -0.10533 0.62647
 C799 C 0.59324 -0.12039 0.65960
 C800 C 0.61257 -0.14105 0.67701
 C801 C 0.58313 -0.08404 0.60819
 C802 C 0.58687 -0.07527 0.56940
 H803 H 0.69035 -0.16826 0.67093
 H804 H 0.67977 -0.13484 0.61750
 H805 H 0.64664 -0.09845 0.58778
 H806 H 0.56922 -0.11638 0.67181
 H807 H 0.60305 -0.15201 0.70269
 H808 H 0.56344 -0.07545 0.62552
 H809 H 0.62469 -0.19477 0.70075
 H810 H 0.60517 -0.08471 0.55096
 C811 C 0.67166 0.30915 0.20974
 C812 C 0.68431 0.33062 0.18534
 C813 C 0.66340 0.35352 0.17042
 C814 C 0.67076 0.36576 0.13389
 C815 C 0.64984 0.38543 0.11718
 C816 C 0.62093 0.39323 0.13674
 C817 C 0.61463 0.38223 0.17428
 C818 C 0.63564 0.36264 0.19106
 C819 C 0.59724 0.41302 0.11935
 C820 C 0.59631 0.41919 0.07953
 H821 H 0.70856 0.32863 0.17274
 H822 H 0.69235 0.35955 0.11775
 H823 H 0.65663 0.39438 0.08904
 H824 H 0.59306 0.38844 0.19046
 H825 H 0.62992 0.35467 0.22008
 H826 H 0.57970 0.42289 0.13852
 H827 H 0.64621 0.30996 0.21881
 H828 H 0.61280 0.40912 0.05943
 C829 C 0.84183 0.20142 0.20291
 C830 C 0.82939 0.18309 0.17449
 C831 C 0.84745 0.15820 0.16053
 C832 C 0.84106 0.14783 0.12302
 C833 C 0.85768 0.12446 0.10878
 C834 C 0.88078 0.11058 0.13215
 C835 C 0.88700 0.12090 0.16978
 C836 C 0.87045 0.14433 0.18395
 C837 C 0.89914 0.08571 0.11843
 C838 C 0.89020 0.06963 0.08603
 H839 H 0.80677 0.18814 0.15988
 H840 H 0.82345 0.15812 0.10441
 H841 H 0.85258 0.11779 0.07930
 H842 H 0.90456 0.11063 0.18847
 H843 H 0.87538 0.15116 0.21345
 H844 H 0.92012 0.07924 0.13535
 H845 H 0.86633 0.19818 0.21387
 H846 H 0.86863 0.07456 0.06935
 C847 C 0.81451 0.70280 0.66899
 C848 C 0.84504 0.69079 0.67580
 C849 C 0.85729 0.66535 0.65554
 C850 C 0.89060 0.65896 0.65932
 C851 C 0.90330 0.63481 0.64212
 C852 C 0.88281 0.61613 0.62099
 C853 C 0.84964 0.62273 0.61649
 C854 C 0.83689 0.64694 0.63375
 C855 C 0.89533 0.58990 0.60318
 C856 C 0.92297 0.57628 0.61716
 H857 H 0.86098 0.70018 0.69753
 H858 H 0.90697 0.67279 0.67567
 H859 H 0.92925 0.63110 0.64517
 H860 H 0.83336 0.60880 0.60020
 H861 H 0.81098 0.65060 0.63049
 H862 H 0.88160 0.58036 0.57948
 H863 H 0.79813 0.69334 0.64782
 H864 H 0.93578 0.58440 0.64242
 C865 C 0.32542 0.20376 0.70812
 C866 C 0.35560 0.20529 0.68836
 C867 C 0.36730 0.18233 0.66280
 C868 C 0.40118 0.17962 0.65672
 C869 C 0.41315 0.15825 0.63284
 C870 C 0.39138 0.13918 0.61422
 C871 C 0.35748 0.14249 0.61922
 C872 C 0.34551 0.16375 0.64332
 C873 C 0.40314 0.11597 0.58915
 C874 C 0.43360 0.10364 0.59425
 H875 H 0.37178 0.22354 0.69197
 H876 H 0.41848 0.19400 0.67073
 H877 H 0.43942 0.15703 0.62864
 H878 H 0.34017 0.12841 0.60469
 H879 H 0.31921 0.16580 0.64599
 H880 H 0.38638 0.10695 0.56791
 H881 H 0.31022 0.18480 0.70506
 H882 H 0.44964 0.11083 0.61738
 C883 C 0.32999 0.70770 0.20155
 C884 C 0.36318 0.70386 0.19278
 C885 C 0.37479 0.67989 0.16883
 C886 C 0.40729 0.67116 0.17284
 C887 C 0.41898 0.64840 0.15127
 C888 C 0.39831 0.63379 0.12499
 C889 C 0.36615 0.64316 0.12002
 C890 C 0.35448 0.66591 0.14158
 C891 C 0.40935 0.60917 0.10188
 C892 C 0.43685 0.59344 0.11122
 H893 H 0.38165 0.71776 0.20537
 H894 H 0.42369 0.68186 0.19302
 H895 H 0.44428 0.64269 0.15510
 H896 H 0.34986 0.63272 0.09949
 H897 H 0.32971 0.67264 0.13629
 H898 H 0.39440 0.60240 0.07746
 H899 H 0.31233 0.69202 0.19130
 H900 H 0.45146 0.59875 0.13646
   
