data_POSCAR
  _audit_creation_date              2014-09-24
  _audit_creation_method            'ToBaCCo'
  _symmetry_space_group_name_H-M    'P1'
  _symmetry_Int_Tables_number       1
  _symmetry_cell_setting            triclinic
  loop_
  _symmetry_equiv_pos_as_xyz
 x,y,z
_cell_length_a 38.2406
_cell_length_b 49.5703
_cell_length_c 34.9794
_cell_angle_alpha 90.076800
_cell_angle_beta 90.000400
_cell_angle_gamma 90.082100
loop_
  _atom_site_label
  _atom_site_type_symbol
  _atom_site_fract_x
  _atom_site_fract_y
  _atom_site_fract_z
O1 O 0.29546 0.22378 0.24936
 O2 O 0.24669 0.27693 0.19875
 O3 O 0.29550 0.27640 0.25057
 O4 O 0.24687 0.22442 0.19716
 O5 O 0.20643 0.22379 0.24234
 O6 O 0.25509 0.27580 0.29578
 O7 O 0.20628 0.27629 0.24398
 O8 O 0.25501 0.22319 0.29454
 Cu9 Cu 0.27523 0.25043 0.21942
 Cu10 Cu 0.22665 0.24969 0.27375
 C11 C 0.28341 0.21449 0.28048
 C12 C 0.21826 0.28559 0.21286
 C13 C 0.28345 0.28494 0.28211
 C14 C 0.21842 0.21536 0.21070
 O15 O 0.74858 0.22408 0.30156
 O16 O 0.79611 0.27594 0.24683
 O17 O 0.74861 0.27654 0.30030
 O18 O 0.79627 0.22337 0.24844
 O19 O 0.75492 0.22266 0.20426
 O20 O 0.70723 0.27584 0.25614
 O21 O 0.75473 0.27521 0.20269
 O22 O 0.70723 0.22340 0.25736
 Cu23 Cu 0.77660 0.25007 0.27871
 Cu24 Cu 0.72688 0.24922 0.22563
 C25 C 0.71984 0.21502 0.28870
 C26 C 0.78344 0.28433 0.21551
 C27 C 0.71982 0.28509 0.28706
 C28 C 0.78362 0.21401 0.21764
 O29 O 0.74867 0.77677 0.69850
 O30 O 0.79608 0.72493 0.75320
 O31 O 0.74858 0.72431 0.69973
 O32 O 0.79638 0.77749 0.75162
 O33 O 0.75504 0.77817 0.79580
 O34 O 0.70720 0.72497 0.74389
 O35 O 0.75469 0.72562 0.79735
 O36 O 0.70733 0.77741 0.74271
 Cu37 Cu 0.77663 0.75079 0.72133
 Cu38 Cu 0.72692 0.75160 0.77442
 C39 C 0.71996 0.78580 0.71137
 C40 C 0.78338 0.71653 0.78451
 C41 C 0.71977 0.71573 0.71297
 C42 C 0.78376 0.78684 0.78243
 O43 O 0.29542 0.77603 0.75066
 O44 O 0.24665 0.72280 0.80132
 O45 O 0.29547 0.72342 0.74952
 O46 O 0.24682 0.77531 0.80284
 O47 O 0.20639 0.77582 0.75765
 O48 O 0.25506 0.72390 0.70429
 O49 O 0.20625 0.72332 0.75608
 O50 O 0.25498 0.77650 0.70547
 Cu51 Cu 0.27519 0.74935 0.78063
 Cu52 Cu 0.22662 0.74995 0.72629
 C53 C 0.28338 0.78528 0.71953
 C54 C 0.21823 0.71407 0.78723
 C55 C 0.28342 0.71482 0.71798
 C56 C 0.21837 0.78430 0.78929
 C57 C 0.98284 -0.00024 -0.00033
 C58 C 1.01851 -0.00023 -0.00030
 C59 C 1.03892 0.02151 0.01868
 C60 C 1.03888 -0.02198 -0.01925
 C61 C 0.96243 -0.02016 -0.02296
 C62 C 0.96247 0.01970 0.02226
 C63 C 1.03337 0.04877 0.00944
 C64 C 1.05221 0.06905 0.02815
 C65 C 1.07702 0.06228 0.05597
 C66 C 1.08318 0.03515 0.06471
 C67 C 1.06433 0.01486 0.04606
 C68 C 1.06437 -0.01532 -0.04655
 C69 C 1.08319 -0.03560 -0.06515
 C70 C 1.07693 -0.06273 -0.05643
 C71 C 1.05203 -0.06951 -0.02869
 C72 C 1.03321 -0.04923 -0.01002
 C73 C 0.93691 -0.03606 -0.00487
 C74 C 0.91803 -0.05525 -0.02568
 C75 C 0.92426 -0.05861 -0.06483
 C76 C 0.94917 -0.04247 -0.08322
 C77 C 0.96805 -0.02323 -0.06245
 C78 C 0.96804 0.02276 0.06176
 C79 C 0.94923 0.04202 0.08250
 C80 C 0.92444 0.05818 0.06405
 C81 C 0.91826 0.05482 0.02489
 C82 C 0.93707 0.03561 0.00412
 H83 H 1.01437 0.05429 -0.01212
 H84 H 1.04737 0.08998 0.02104
 H85 H 1.10237 0.02969 0.08612
 H86 H 1.06914 -0.00603 0.05341
 H87 H 1.06927 0.00557 -0.05388
 H88 H 1.10246 -0.03014 -0.08650
 H89 H 1.01414 -0.05476 0.01148
 H90 H 0.93205 -0.03388 0.02548
 H91 H 0.89876 -0.06759 -0.01119
 H92 H 0.95407 -0.04482 -0.11355
 H93 H 0.98713 -0.01081 -0.07708
 H94 H 0.98704 0.01033 0.07643
 H95 H 0.95410 0.04436 0.11283
 H96 H 0.89907 0.06718 0.01036
 H97 H 0.93225 0.03343 -0.02624
 H98 H 1.04710 -0.09044 -0.02159
 C99 C 0.48191 0.50012 0.50004
 C100 C 0.51758 0.50017 0.50002
 C101 C 0.53799 0.52177 0.51933
 C102 C 0.53801 0.47864 0.48069
 C103 C 0.46153 0.48011 0.47751
 C104 C 0.46152 0.52006 0.52258
 C105 C 0.53259 0.54909 0.51038
 C106 C 0.55153 0.56921 0.52933
 C107 C 0.57628 0.56220 0.55709
 C108 C 0.58226 0.53500 0.56557
 C109 C 0.56332 0.51489 0.54668
 C110 C 0.56331 0.48560 0.45333
 C111 C 0.58228 0.46554 0.43443
 C112 C 0.57635 0.43833 0.44291
 C113 C 0.55163 0.43125 0.47068
 C114 C 0.53266 0.45130 0.48965
 C115 C 0.43632 0.46404 0.49579
 C116 C 0.41763 0.44465 0.47514
 C117 C 0.42373 0.44127 0.43597
 C118 C 0.44829 0.45762 0.41738
 C119 C 0.46699 0.47705 0.43800
 C120 C 0.46700 0.52313 0.56209
 C121 C 0.44830 0.54251 0.58272
 C122 C 0.42371 0.55879 0.56415
 C123 C 0.41758 0.55540 0.52498
 C124 C 0.43628 0.53606 0.50432
 H125 H 0.51365 0.55479 0.48884
 H126 H 0.54683 0.59019 0.52243
 H127 H 0.60141 0.52937 0.58693
 H128 H 0.56800 0.49394 0.55380
 H129 H 0.56796 0.50656 0.44621
 H130 H 0.60141 0.47125 0.41306
 H131 H 0.51374 0.44554 0.51119
 H132 H 0.43160 0.46620 0.52617
 H133 H 0.39861 0.43215 0.48978
 H134 H 0.45309 0.45527 0.38704
 H135 H 0.48584 0.48960 0.42324
 H136 H 0.48587 0.51064 0.57684
 H137 H 0.45312 0.54488 0.61306
 H138 H 0.39854 0.56784 0.51036
 H139 H 0.43154 0.53388 0.47395
 H140 H 0.54696 0.41025 0.47759
 C141 C 0.01477 0.49975 0.00035
 C142 C -0.02090 0.49978 0.00043
 C143 C -0.04131 0.47806 0.01939
 C144 C -0.04124 0.52153 -0.01844
 C145 C 0.03521 0.51984 -0.02188
 C146 C 0.03518 0.47965 0.02250
 C147 C -0.03587 0.45079 0.01000
 C148 C -0.05450 0.43053 0.02894
 C149 C -0.07898 0.43732 0.05710
 C150 C -0.08510 0.46446 0.06592
 C151 C -0.06647 0.48474 0.04705
 C152 C -0.06651 0.51488 -0.04603
 C153 C -0.08506 0.53518 -0.06485
 C154 C -0.07875 0.56231 -0.05606
 C155 C -0.05416 0.56907 -0.02796
 C156 C -0.03562 0.54878 -0.00908
 C157 C 0.06064 0.53562 -0.00341
 C158 C 0.07967 0.55490 -0.02383
 C159 C 0.07367 0.55845 -0.06297
 C160 C 0.04880 0.54244 -0.08174
 C161 C 0.02978 0.52312 -0.06135
 C162 C 0.02986 0.47637 0.06200
 C163 C 0.04888 0.45705 0.08231
 C164 C 0.07362 0.44104 0.06345
 C165 C 0.07949 0.44458 0.02427
 C166 C 0.06047 0.46385 0.00393
 H167 H -0.01706 0.44525 -0.01176
 H168 H -0.04968 0.40959 0.02177
 H169 H -0.10404 0.46994 0.08760
 H170 H -0.07118 0.50563 0.05451
 H171 H -0.07136 0.49399 -0.05348
 H172 H -0.10409 0.52973 -0.08648
 H173 H -0.01671 0.55430 0.01263
 H174 H 0.06536 0.53328 0.02694
 H175 H 0.09891 0.56713 -0.00905
 H176 H 0.04408 0.54494 -0.11207
 H177 H 0.01076 0.51079 -0.07627
 H178 H 0.01095 0.48871 0.07699
 H179 H 0.04426 0.45456 0.11266
 H180 H 0.09863 0.43234 0.00942
 H181 H 0.06510 0.46620 -0.02644
 H182 H -0.04920 0.59000 -0.02081
 C183 C 0.51588 1.00015 0.50003
 C184 C 0.48022 1.00010 0.50002
 C185 C 0.45987 0.98034 0.52295
 C186 C 0.45986 1.01980 0.47707
 C187 C 0.53630 1.02180 0.48090
 C188 C 0.53632 0.97857 0.51917
 C189 C 0.43446 0.96417 0.50512
 C190 C 0.41590 0.94496 0.52618
 C191 C 0.42234 0.94187 0.56533
 C192 C 0.44707 0.95833 0.58348
 C193 C 0.46563 0.97758 0.56246
 C194 C 0.46563 1.02258 0.43758
 C195 C 0.44707 1.04178 0.41655
 C196 C 0.42232 1.05818 0.43468
 C197 C 0.41587 1.05507 0.47383
 C198 C 0.43443 1.03591 0.49490
 C199 C 0.53074 1.04910 0.48993
 C200 C 0.54989 1.06926 0.47140
 C201 C 0.57500 1.06231 0.44398
 C202 C 0.58108 1.03513 0.43537
 C203 C 0.56193 1.01497 0.45384
 C204 C 0.56194 0.98547 0.54624
 C205 C 0.58111 0.96537 0.56471
 C206 C 0.57507 0.93818 0.55610
 C207 C 0.54997 0.93115 0.52868
 C208 C 0.53079 0.95125 0.51014
 H209 H 0.42950 0.96610 0.47476
 H210 H 0.39676 0.93236 0.51188
 H211 H 0.45214 0.95620 0.61380
 H212 H 0.48463 0.99021 0.57689
 H213 H 0.48465 1.01000 0.42315
 H214 H 0.45214 1.04393 0.38623
 H215 H 0.42946 1.03396 0.52525
 H216 H 0.51157 1.05476 0.51127
 H217 H 0.54510 1.09023 0.47840
 H218 H 0.60051 1.02954 0.41426
 H219 H 0.56675 0.99404 0.44666
 H220 H 0.56673 1.00642 0.55341
 H221 H 0.60053 0.97102 0.58582
 H222 H 0.54521 0.91017 0.52167
 H223 H 0.51164 0.94554 0.48880
 H224 H 0.39671 1.06762 0.48813
 C225 C 1.14697 0.14668 0.09580
 C226 C 1.13182 0.16376 0.12902
 C227 C 1.16537 0.15858 0.15203
 C228 C 1.18081 0.14183 0.11914
 C229 C 1.13090 0.12131 0.11389
 C230 C 1.16444 0.11613 0.13690
 C231 C 1.11546 0.13806 0.14678
 C232 C 1.14930 0.13320 0.17011
 C233 C 1.18461 0.17927 0.17336
 C234 C 1.20049 0.19625 0.19094
 C235 C 1.11171 0.10043 0.09287
 C236 C 1.09592 0.08312 0.07587
 H237 H 1.14579 0.15199 0.06500
 H238 H 1.11862 0.18357 0.12603
 H239 H 1.20790 0.14361 0.10802
 H240 H 1.17765 0.09632 0.13990
 H241 H 1.08837 0.13627 0.15790
 H242 H 1.15046 0.12788 0.20090
 C243 C 0.64699 0.64602 0.59745
 C244 C 0.63207 0.66306 0.63083
 C245 C 0.66563 0.65766 0.65370
 C246 C 0.68085 0.64094 0.62066
 C247 C 0.63076 0.62067 0.61544
 C248 C 0.66432 0.61527 0.63832
 C249 C 0.61554 0.63739 0.64848
 C250 C 0.64940 0.63231 0.67168
 C251 C 0.68502 0.67828 0.67500
 C252 C 0.70092 0.69532 0.69242
 C253 C 0.61134 0.59999 0.59430
 C254 C 0.59536 0.58285 0.57717
 H255 H 0.64578 0.65143 0.56670
 H256 H 0.61902 0.68295 0.62799
 H257 H 0.70793 0.64262 0.60947
 H258 H 0.67737 0.59538 0.64115
 H259 H 0.58846 0.63571 0.65967
 H260 H 0.65061 0.62689 0.70244
 C261 C -0.12509 0.37214 0.15877
 C262 C -0.16514 0.37129 0.16528
 C263 C -0.16498 0.34108 0.15545
 C264 C -0.12521 0.34160 0.14927
 C265 C -0.13154 0.37833 0.11632
 C266 C -0.13137 0.34812 0.10648
 C267 C -0.17131 0.37780 0.12251
 C268 C -0.17144 0.34726 0.11300
 C269 C -0.18366 0.32039 0.17731
 C270 C -0.19909 0.30342 0.19531
 C271 C -0.11289 0.39919 0.09479
 C272 C -0.09748 0.41649 0.07740
 H273 H -0.10582 0.38260 0.17735
 H274 H -0.17923 0.38059 0.18971
 H275 H -0.10646 0.32650 0.16052
 H276 H -0.11727 0.33883 0.08205
 H277 H -0.19005 0.39291 0.11126
 H278 H -0.19071 0.33680 0.09442
 C279 C 0.34218 0.86455 0.60750
 C280 C 0.35967 0.84013 0.62735
 C281 C 0.33650 0.84496 0.66258
 C282 C 0.31873 0.86907 0.64304
 C283 C 0.36994 0.88316 0.62530
 C284 C 0.34678 0.88800 0.66053
 C285 C 0.38772 0.85906 0.64483
 C286 C 0.36426 0.86356 0.68039
 C287 C 0.31776 0.82365 0.68312
 C288 C 0.30217 0.80611 0.69983
 C289 C 0.38854 0.90431 0.60427
 C290 C 0.40389 0.92154 0.58668
 H291 H 0.33330 0.86520 0.57731
 H292 H 0.36477 0.82022 0.61393
 H293 H 0.29015 0.87295 0.64253
 H294 H 0.34168 0.90792 0.67393
 H295 H 0.41630 0.85518 0.64533
 H296 H 0.37314 0.86291 0.71059
 C297 C -0.12237 0.62928 -0.15661
 C298 C -0.16193 0.62886 -0.16610
 C299 C -0.16428 0.65867 -0.15431
 C300 C -0.12500 0.65941 -0.14514
 C301 C -0.13102 0.62137 -0.11521
 C302 C -0.13336 0.65118 -0.10340
 C303 C -0.17030 0.62064 -0.12438
 C304 C -0.17294 0.65077 -0.11291
 C305 C -0.18286 0.67936 -0.17616
 C306 C -0.19822 0.69635 -0.19415
 C307 C -0.11247 0.60049 -0.09369
 C308 C -0.09716 0.58317 -0.07632
 H309 H -0.10136 0.62021 -0.17433
 H310 H -0.17387 0.61990 -0.19212
 H311 H -0.10657 0.67557 -0.15393
 H312 H -0.12142 0.66012 -0.07738
 H313 H -0.18873 0.60447 -0.11559
 H314 H -0.19395 0.65984 -0.09519
 C315 C 0.37808 1.12527 0.33342
 C316 C 0.33836 1.12527 0.32462
 C317 C 0.33652 1.15490 0.33741
 C318 C 0.37594 1.15524 0.34588
 C319 C 0.36993 1.11677 0.37470
 C320 C 0.36809 1.14640 0.38747
 C321 C 0.33051 1.11644 0.36623
 C322 C 0.32839 1.14639 0.37869
 C323 C 0.31778 1.17618 0.31687
 C324 C 0.30220 1.19369 0.30016
 C325 C 0.38853 1.09566 0.39573
 C326 C 0.40388 1.07847 0.41333
 H327 H 0.39871 1.11634 0.31504
 H328 H 0.32592 1.11682 0.29854
 H329 H 0.39441 1.17142 0.33729
 H330 H 0.38052 1.15486 0.41356
 H331 H 0.31204 1.10025 0.37482
 H332 H 0.30776 1.15531 0.39709
 C333 C 1.12889 -0.12570 -0.15768
 C334 C 1.16922 -0.12849 -0.15879
 C335 C 1.16530 -0.15898 -0.15219
 C336 C 1.12526 -0.15650 -0.15140
 C337 C 1.13081 -0.12173 -0.11416
 C338 C 1.12688 -0.15222 -0.10755
 C339 C 1.17085 -0.12420 -0.11494
 C340 C 1.16723 -0.15502 -0.10867
 C341 C 1.18455 -0.17965 -0.17346
 C342 C 1.20043 -0.19662 -0.19099
 C343 C 1.11162 -0.10087 -0.09321
 C344 C 1.09582 -0.08357 -0.07626
 H345 H 1.11291 -0.11341 -0.17760
 H346 H 1.18683 -0.11896 -0.18009
 H347 H 1.10673 -0.17001 -0.16664
 H348 H 1.10926 -0.16174 -0.08624
 H349 H 1.18938 -0.11069 -0.09971
 H350 H 1.18321 -0.16731 -0.08875
 C351 C 0.62877 0.37602 0.34105
 C352 C 0.66914 0.37361 0.33966
 C353 C 0.66575 0.34310 0.34631
 C354 C 0.62568 0.34518 0.34738
 C355 C 0.63089 0.38001 0.38456
 C356 C 0.62750 0.34949 0.39121
 C357 C 0.67096 0.37793 0.38349
 C358 C 0.66787 0.34709 0.38981
 C359 C 0.68513 0.32250 0.32502
 C360 C 0.70101 0.30549 0.30760
 C361 C 0.61146 0.40064 0.40569
 C362 C 0.59546 0.41774 0.42283
 H363 H 0.61247 0.38814 0.32124
 H364 H 0.68648 0.38330 0.31823
 H365 H 0.60728 0.33149 0.33227
 H366 H 0.61016 0.33981 0.41264
 H367 H 0.68935 0.39162 0.39859
 H368 H 0.68417 0.33496 0.40962
 C369 C 0.83740 -0.13109 -0.10907
 C370 C 0.82025 -0.12772 -0.14891
 C371 C 0.83607 -0.15486 -0.16116
 C372 C 0.85292 -0.15855 -0.12165
 C373 C 0.87039 -0.11693 -0.12416
 C374 C 0.88620 -0.14408 -0.13642
 C375 C 0.85354 -0.11323 -0.16367
 C376 C 0.86906 -0.14070 -0.17625
 C377 C 0.81700 -0.17604 -0.18169
 C378 C 0.80134 -0.19349 -0.19855
 C379 C 0.88953 -0.09594 -0.10334
 C380 C 0.90533 -0.07883 -0.08595
 H381 H 0.82459 -0.12689 -0.08122
 H382 H 0.79292 -0.12123 -0.15427
 H383 H 0.85246 -0.17742 -0.10459
 H384 H 0.91353 -0.15056 -0.13106
 H385 H 0.85402 -0.09436 -0.18072
 H386 H 0.88187 -0.14490 -0.20411
 C387 C 0.38026 0.35226 0.37820
 C388 C 0.34112 0.34520 0.38380
 C389 C 0.33669 0.34412 0.34017
 C390 C 0.37555 0.35085 0.33425
 C391 C 0.37060 0.38232 0.37707
 C392 C 0.36617 0.38125 0.33344
 C393 C 0.33174 0.37559 0.38299
 C394 C 0.32703 0.37419 0.33904
 C395 C 0.31777 0.32288 0.31960
 C396 C 0.30214 0.30549 0.30257
 C397 C 0.38949 0.40351 0.39777
 C398 C 0.40506 0.42082 0.41503
 H399 H 0.40238 0.34348 0.39453
 H400 H 0.33062 0.33014 0.40428
 H401 H 0.39335 0.34044 0.31399
 H402 H 0.37668 0.39631 0.31297
 H403 H 0.31394 0.38600 0.40325
 H404 H 0.30492 0.38297 0.32271
 C405 C 0.13187 0.64609 -0.10697
 C406 C 0.17152 0.64519 -0.11594
 C407 C 0.16368 0.65471 -0.15682
 C408 C 0.12433 0.65594 -0.14816
 C409 C 0.12853 0.61680 -0.12091
 C410 C 0.12068 0.62631 -0.16179
 C411 C 0.16788 0.61557 -0.12956
 C412 C 0.16035 0.62542 -0.17077
 C413 C 0.18322 0.67588 -0.17675
 C414 C 0.19925 0.69332 -0.19316
 C415 C 0.10896 0.59580 -0.10066
 C416 C 0.09286 0.57868 -0.08368
 H417 H 0.11993 0.65436 -0.08051
 H418 H 0.19263 0.65319 -0.09730
 H419 H 0.10664 0.67278 -0.15602
 H420 H 0.09957 0.61831 -0.18042
 H421 H 0.18557 0.59873 -0.12170
 H422 H 0.17229 0.61715 -0.19723
 C423 C 0.67039 1.12338 0.38722
 C424 C 0.66981 1.12709 0.34325
 C425 C 0.66569 1.15765 0.34906
 C426 C 0.66658 1.15427 0.39270
 C427 C 0.63036 1.12079 0.38690
 C428 C 0.62623 1.15134 0.39272
 C429 C 0.62948 1.12418 0.34326
 C430 C 0.62565 1.15505 0.34875
 C431 C 0.68524 1.17813 0.32775
 C432 C 0.70115 1.19496 0.31001
 C433 C 0.61063 1.10014 0.40767
 C434 C 0.59438 1.08299 0.42442
 H435 H 0.68857 1.11013 0.40328
 H436 H 0.68794 1.11735 0.32267
 H437 H 0.68207 1.16687 0.41278
 H438 H 0.60809 1.16108 0.41330
 H439 H 0.61399 1.11159 0.32317
 H440 H 0.60747 1.16830 0.33269
 C441 C 0.12120 0.37358 0.16237
 C442 C 0.12418 0.34383 0.14914
 C443 C 0.16369 0.34486 0.15701
 C444 C 0.16102 0.37429 0.17056
 C445 C 0.12851 0.38273 0.12120
 C446 C 0.16802 0.38377 0.12906
 C447 C 0.13119 0.35331 0.10766
 C448 C 0.17099 0.35402 0.11583
 C449 C 0.18325 0.32372 0.17689
 C450 C 0.19928 0.30631 0.19326
 C451 C 0.10892 0.40371 0.10101
 C452 C 0.09282 0.42082 0.08409
 H453 H 0.10051 0.38187 0.18128
 H454 H 0.10638 0.32717 0.15761
 H455 H 0.17352 0.38267 0.19665
 H456 H 0.18582 0.40043 0.12059
 H457 H 0.11870 0.34492 0.08157
 H458 H 0.19167 0.34574 0.09691
 C459 C 0.62281 0.87142 0.65458
 C460 C 0.62648 0.84147 0.64255
 C461 C 0.66586 0.84308 0.65101
 C462 C 0.66247 0.87272 0.66336
 C463 C 0.63049 0.87985 0.61317
 C464 C 0.66987 0.88147 0.62163
 C465 C 0.63386 0.85022 0.60081
 C466 C 0.67355 0.85151 0.60960
 C467 C 0.68541 0.82265 0.67232
 C468 C 0.70130 0.80584 0.69006
 C469 C 0.61075 0.90045 0.59241
 C470 C 0.59448 0.91755 0.57566
 H471 H 0.60172 0.87982 0.67283
 H472 H 0.60886 0.82479 0.65140
 H473 H 0.67446 0.88174 0.68930
 H474 H 0.68748 0.89815 0.61278
 H475 H 0.62187 0.84121 0.57486
 H476 H 0.69465 0.84310 0.59136
 C477 C 0.87419 0.14690 0.11499
 C478 C 0.83386 0.14944 0.11701
 C479 C 0.83669 0.15455 0.16023
 C480 C 0.87673 0.15234 0.15852
 C481 C 0.87082 0.11658 0.12327
 C482 C 0.87366 0.12169 0.16649
 C483 C 0.83079 0.11879 0.12498
 C484 C 0.83332 0.12423 0.16853
 C485 C 0.81771 0.17575 0.18072
 C486 C 0.80213 0.19322 0.19756
 C487 C 0.88987 0.09556 0.10249
 C488 C 0.90560 0.07842 0.08513
 H489 H 0.89121 0.15599 0.09274
 H490 H 0.81729 0.16108 0.09689
 H491 H 0.89542 0.16637 0.17253
 H492 H 0.89024 0.11004 0.18660
 H493 H 0.81211 0.10475 0.11096
 H494 H 0.81629 0.11514 0.19077
 C495 C 0.37407 0.64792 0.61467
 C496 C 0.33375 0.65057 0.61677
 C497 C 0.33668 0.65574 0.65996
 C498 C 0.37670 0.65342 0.65819
 C499 C 0.37058 0.61762 0.62306
 C500 C 0.37351 0.62279 0.66626
 C501 C 0.33055 0.61994 0.62484
 C502 C 0.33318 0.62544 0.66836
 C503 C 0.31775 0.67695 0.68053
 C504 C 0.30212 0.69431 0.69754
 C505 C 0.38946 0.59647 0.60236
 C506 C 0.40504 0.57920 0.58510
 H507 H 0.39110 0.65693 0.59237
 H508 H 0.31721 0.66223 0.59664
 H509 H 0.39547 0.66743 0.67212
 H510 H 0.39006 0.61112 0.68638
 H511 H 0.31178 0.60594 0.61090
 H512 H 0.31615 0.61643 0.69066
   
