data_POSCAR
  _audit_creation_date              2014-09-24
  _audit_creation_method            'ToBaCCo'
  _symmetry_space_group_name_H-M    'P1'
  _symmetry_Int_Tables_number       1
  _symmetry_cell_setting            triclinic
  loop_
  _symmetry_equiv_pos_as_xyz
 x,y,z
_cell_length_a 42.1621
_cell_length_b 41.9847
_cell_length_c 19.6799
_cell_angle_alpha 89.839400
_cell_angle_beta 90.034000
_cell_angle_gamma 122.621700
loop_
  _atom_site_label
  _atom_site_type_symbol
  _atom_site_fract_x
  _atom_site_fract_y
  _atom_site_fract_z
C1 C 0.47560 1.00009 0.46676
 C2 C 0.47628 1.00073 0.53565
 C3 C 0.45889 0.96539 0.57580
 C4 C 0.49393 1.03652 0.57435
 C5 C 0.49288 1.03517 0.42569
 C6 C 0.45731 0.96409 0.42862
 C7 C 0.41979 0.94193 0.58198
 C8 C 0.40359 0.90906 0.62156
 C9 C 0.42628 0.89851 0.65574
 C10 C 0.46582 0.92226 0.64674
 C11 C 0.48177 0.95542 0.60832
 C12 C 0.47173 1.04302 0.61792
 C13 C 0.48784 1.07637 0.65544
 C14 C 0.52663 1.10377 0.65058
 C15 C 0.54893 1.09697 0.60747
 C16 C 0.53267 1.06367 0.56935
 C17 C 0.52243 1.04384 0.38120
 C18 C 0.53830 1.07606 0.34025
 C19 C 0.52441 1.09986 0.34203
 C20 C 0.49487 1.09124 0.38709
 C21 C 0.47924 1.05912 0.42864
 C22 C 0.47180 0.94088 0.43059
 C23 C 0.45536 0.90797 0.39149
 C24 C 0.42404 0.89763 0.35009
 C25 C 0.40953 0.92095 0.34868
 C26 C 0.42615 0.95394 0.38740
 H27 H 0.40179 0.94924 0.55640
 H28 H 0.37326 0.89214 0.62304
 H29 H 0.48500 0.91607 0.67090
 H30 H 0.51213 0.97331 0.60359
 H31 H 0.44183 1.02222 0.62276
 H32 H 0.47003 1.08020 0.68953
 H33 H 0.55029 1.05887 0.53651
 H34 H 0.53319 1.02556 0.37821
 H35 H 0.56093 1.08191 0.30596
 H36 H 0.48398 1.10936 0.39054
 H37 H 0.45624 1.05266 0.46247
 H38 H 0.49625 0.94865 0.46135
 H39 H 0.46730 0.89071 0.39322
 H40 H 0.38614 0.91447 0.31601
 H41 H 0.41492 0.97182 0.38480
 H42 H 0.57892 1.11746 0.60316
 C43 C 0.00944 0.50251 0.46472
 C44 C 0.00995 0.50337 0.53360
 C45 C 0.04557 0.52450 0.57247
 C46 C -0.02524 0.48272 0.57380
 C47 C -0.02637 0.48134 0.42671
 C48 C 0.04438 0.52271 0.42371
 C49 C 0.07269 0.51496 0.56825
 C50 C 0.10552 0.53438 0.60728
 C51 C 0.11189 0.56382 0.65069
 C52 C 0.08459 0.57324 0.65460
 C53 C 0.05168 0.55361 0.61610
 C54 C -0.03204 0.45254 0.61543
 C55 C -0.06454 0.43343 0.65527
 C56 C -0.09069 0.44445 0.65464
 C57 C -0.08359 0.47496 0.61316
 C58 C -0.05119 0.49385 0.57281
 C59 C -0.04010 0.50104 0.39380
 C60 C -0.07332 0.48161 0.35613
 C61 C -0.09313 0.44191 0.34853
 C62 C -0.07915 0.42234 0.38316
 C63 C -0.04625 0.44191 0.42200
 C64 C 0.06840 0.56221 0.42644
 C65 C 0.10078 0.58090 0.38595
 C66 C 0.10959 0.56033 0.34203
 C67 C 0.08566 0.52073 0.34030
 C68 C 0.05320 0.50216 0.38029
 H69 H 0.06814 0.49217 0.53551
 H70 H 0.12594 0.52634 0.60366
 H71 H 0.08806 0.59502 0.68887
 H72 H 0.03084 0.56106 0.62043
 H73 H -0.01203 0.44391 0.61722
 H74 H -0.06859 0.41075 0.68797
 H75 H -0.04603 0.51748 0.54162
 H76 H -0.02501 0.53157 0.39731
 H77 H -0.08264 0.49817 0.33110
 H78 H -0.09356 0.39191 0.38210
 H79 H -0.03601 0.42636 0.44785
 H80 H 0.06189 0.57853 0.45949
 H81 H 0.11897 0.61136 0.38943
 H82 H 0.09164 0.50415 0.30688
 H83 H 0.03496 0.47165 0.37755
 H84 H -0.10312 0.48420 0.61202
 C85 C 0.49903 0.49224 0.46765
 C86 C 0.49438 0.48841 0.53612
 C87 C 0.47476 0.50338 0.57374
 C88 C 0.50849 0.46915 0.57775
 C89 C 0.52173 0.48070 0.42996
 C90 C 0.48064 0.50724 0.42576
 C91 C 0.49551 0.53384 0.61776
 C92 C 0.47786 0.54825 0.65489
 C93 C 0.43856 0.53201 0.65035
 C94 C 0.41794 0.50128 0.60513
 C95 C 0.43593 0.48724 0.56731
 C96 C 0.54700 0.48340 0.58359
 C97 C 0.55942 0.46529 0.62557
 C98 C 0.53360 0.43231 0.66270
 C99 C 0.49483 0.41840 0.65584
 C100 C 0.48266 0.43670 0.61429
 C101 C 0.51274 0.44329 0.43105
 C102 C 0.53335 0.43290 0.39161
 C103 C 0.56316 0.45964 0.35004
 C104 C 0.57184 0.49705 0.34913
 C105 C 0.55137 0.50738 0.38867
 C106 C 0.45520 0.48418 0.37521
 C107 C 0.43778 0.49744 0.33406
 C108 C 0.44541 0.53420 0.34259
 C109 C 0.47144 0.55755 0.39268
 C110 C 0.48894 0.54419 0.43394
 H111 H 0.52558 0.54661 0.62322
 H112 H 0.49530 0.57179 0.68841
 H113 H 0.38807 0.48800 0.59735
 H114 H 0.41954 0.46362 0.53330
 H115 H 0.56742 0.50877 0.55630
 H116 H 0.58946 0.47737 0.62872
 H117 H 0.45278 0.42554 0.61082
 H118 H 0.48937 0.42202 0.46132
 H119 H 0.52568 0.40379 0.39305
 H120 H 0.59358 0.51826 0.31625
 H121 H 0.55832 0.53625 0.38634
 H122 H 0.44887 0.45578 0.36753
 H123 H 0.41904 0.47905 0.29456
 H124 H 0.47821 0.58612 0.40000
 H125 H 0.50912 0.56270 0.47178
 H126 H 0.47328 0.39416 0.68365
 O127 O 0.40669 0.66470 -0.05751
 O128 O 0.40269 0.72405 -0.07883
 C129 C 0.38361 0.73850 -0.09204
 O130 O 0.35368 0.72969 -0.06033
 O131 O 0.29282 0.66311 -0.07874
 C132 C 0.27700 0.62815 -0.09112
 O133 O 0.28437 0.60673 -0.05853
 O134 O 0.34932 0.61430 -0.07775
 C135 C 0.38436 0.63441 -0.08964
 O136 O 0.40457 0.67426 0.07722
 O137 O 0.40344 0.73494 0.05589
 C138 C 0.37947 0.73859 0.08802
 O139 O 0.34452 0.71901 0.07523
 O140 O 0.28228 0.65351 0.05667
 C141 C 0.27726 0.62497 0.08924
 O142 O 0.29538 0.60945 0.07670
 O143 O 0.35907 0.61420 0.05774
 C144 C 0.38786 0.63924 0.09024
 Cr145 Cr 0.40214 0.69822 -0.00089
 Cr146 Cr 0.31950 0.69040 -0.00178
 Cr147 Cr 0.32306 0.61337 -0.00049
 O148 O 0.34821 0.66734 -0.00112
 O149 O 0.61613 0.34536 -0.05998
 O150 O 0.61998 0.28621 -0.08242
 C151 C 0.63843 0.27096 -0.09392
 O152 O 0.66720 0.27845 -0.05962
 O153 O 0.72875 0.34528 -0.07394
 C154 C 0.74534 0.38058 -0.08413
 O155 O 0.73806 0.40172 -0.05045
 O156 O 0.67430 0.39592 -0.07315
 C157 C 0.63979 0.37640 -0.08910
 O158 O 0.61435 0.33235 0.07455
 O159 O 0.61548 0.27193 0.05226
 C160 C 0.63858 0.26766 0.08634
 O161 O 0.67383 0.28720 0.07617
 O162 O 0.73709 0.35241 0.06197
 C163 C 0.74175 0.38032 0.09592
 O164 O 0.72372 0.39599 0.08403
 O165 O 0.66097 0.39273 0.06179
 C166 C 0.63099 0.36690 0.09075
 Cr167 Cr 0.61867 0.31019 -0.00377
 Cr168 Cr 0.70059 0.31679 0.00111
 Cr169 Cr 0.69820 0.39440 0.00540
 O170 O 0.67248 0.34048 0.00092
 C171 C 0.42271 0.82680 -0.23600
 C172 C 0.38508 0.80627 -0.21515
 N173 N 0.36124 0.81587 -0.23936
 C174 C 0.37325 0.84532 -0.28321
 C175 C 0.41166 0.86727 -0.30337
 N176 N 0.43500 0.85668 -0.27856
 N177 N 0.44659 0.81700 -0.21241
 C178 C 0.43452 0.78775 -0.16798
 C179 C 0.39697 0.76783 -0.14511
 N180 N 0.37313 0.77761 -0.16973
 H181 H 0.35283 0.85176 -0.29888
 H182 H 0.45430 0.78092 -0.14924
 C183 C 0.18959 0.57871 -0.23680
 C184 C 0.20619 0.61661 -0.21752
 N185 N 0.19279 0.63710 -0.24347
 C186 C 0.16312 0.62124 -0.28709
 C187 C 0.14579 0.58296 -0.30552
 N188 N 0.15992 0.56283 -0.28022
 N189 N 0.20265 0.55806 -0.21022
 C190 C 0.23133 0.57346 -0.16451
 C191 C 0.24771 0.61131 -0.14414
 N192 N 0.23478 0.63202 -0.17177
 H193 H 0.15324 0.63841 -0.30711
 H194 H 0.24088 0.55615 -0.14373
 C195 C 0.43001 0.59386 -0.23061
 C196 C 0.39102 0.57543 -0.22236
 N197 N 0.36794 0.54339 -0.25794
 C198 C 0.38202 0.52868 -0.30112
 C199 C 0.42151 0.54659 -0.30870
 N200 N 0.44410 0.57899 -0.27278
 N201 N 0.45332 0.62591 -0.19527
 C202 C 0.43934 0.64020 -0.15119
 C203 C 0.40017 0.62132 -0.14126
 N204 N 0.37691 0.58934 -0.17763
 H205 H 0.36220 0.50271 -0.32674
 H206 H 0.45871 0.66559 -0.12319
 C207 C 0.59528 0.18307 -0.23891
 C208 C 0.57527 0.19983 -0.22130
 N209 N 0.54057 0.18613 -0.24795
 C210 C 0.52462 0.15596 -0.29059
 C211 C 0.54413 0.13838 -0.30717
 N212 N 0.57933 0.15285 -0.28133
 N213 N 0.62976 0.19644 -0.21141
 C214 C 0.64495 0.22550 -0.16627
 C215 C 0.62466 0.24191 -0.14740
 N216 N 0.59033 0.22872 -0.17608
 H217 H 0.49696 0.14582 -0.31116
 H218 H 0.67228 0.23520 -0.14452
 C219 C 0.83360 0.43070 -0.22854
 C220 C 0.81567 0.39227 -0.21166
 N221 N 0.82770 0.37120 -0.24016
 C222 C 0.85723 0.38694 -0.28419
 C223 C 0.87580 0.42568 -0.30045
 N224 N 0.86310 0.44646 -0.27246
 N225 N 0.82183 0.45187 -0.19950
 C226 C 0.79309 0.43641 -0.15377
 C227 C 0.77528 0.39795 -0.13605
 N228 N 0.78700 0.37681 -0.16599
 H229 H 0.86595 0.36930 -0.30637
 H230 H 0.78451 0.45408 -0.13111
 C231 C 0.59895 0.41930 -0.23625
 C232 C 0.57457 0.38505 -0.20282
 N233 N 0.53719 0.36605 -0.21605
 C234 C 0.52279 0.37995 -0.26032
 C235 C 0.54695 0.41514 -0.29324
 N236 N 0.58468 0.43337 -0.28030
 N237 N 0.63642 0.43843 -0.22291
 C238 C 0.65054 0.42496 -0.17698
 C239 C 0.62603 0.39081 -0.14241
 N240 N 0.58854 0.37161 -0.15675
 H241 H 0.49290 0.36296 -0.26940
 H242 H 0.68051 0.44103 -0.16697
 C243 C 0.82884 0.42724 0.24201
 C244 C 0.81409 0.39063 0.21732
 N245 N 0.82915 0.37077 0.23831
 C246 C 0.85857 0.38590 0.28253
 C247 C 0.87454 0.42335 0.30629
 N248 N 0.85867 0.44268 0.28492
 N249 N 0.81369 0.44714 0.22154
 C250 C 0.78467 0.43219 0.17656
 C251 C 0.77055 0.39589 0.14979
 N252 N 0.78563 0.37593 0.17130
 H253 H 0.87000 0.36908 0.29569
 H254 H 0.77353 0.44896 0.16042
 C255 C 0.59346 0.18043 0.23373
 C256 C 0.57098 0.19185 0.20366
 N257 N 0.53405 0.17402 0.22084
 C258 C 0.51845 0.14507 0.26653
 C259 C 0.54073 0.13303 0.29598
 N260 N 0.57783 0.15123 0.27859
 N261 N 0.63042 0.19828 0.21672
 C262 C 0.64592 0.22693 0.17049
 C263 C 0.62331 0.23799 0.13910
 N264 N 0.58629 0.22011 0.15684
 H265 H 0.48874 0.13091 0.27793
 H266 H 0.67541 0.24044 0.15761
 C267 C 0.58131 0.39938 0.23928
 C268 C 0.61733 0.42551 0.21359
 N269 N 0.63595 0.46186 0.23527
 C270 C 0.61991 0.47351 0.28051
 C271 C 0.58314 0.44772 0.30476
 N272 N 0.56508 0.41105 0.28381
 N273 N 0.56275 0.36294 0.21803
 C274 C 0.57843 0.35149 0.17160
 C275 C 0.61422 0.37780 0.14442
 N276 N 0.63286 0.41425 0.16660
 H277 H 0.63590 0.50260 0.29719
 H278 H 0.56274 0.32230 0.15521
 C279 C 0.19042 0.57719 0.23645
 C280 C 0.20242 0.61228 0.20651
 N281 N 0.18493 0.63048 0.22293
 C282 C 0.15574 0.61507 0.26772
 C283 C 0.14307 0.57950 0.29704
 N284 N 0.16097 0.56154 0.28045
 N285 N 0.20787 0.55895 0.21992
 C286 C 0.23660 0.57405 0.17413
 C287 C 0.24815 0.60884 0.14273
 N288 N 0.23073 0.62714 0.16017
 H289 H 0.14187 0.62992 0.27842
 H290 H 0.24970 0.55865 0.16144
 C291 C 0.41942 0.82527 0.23490
 C292 C 0.38137 0.80450 0.21581
 N293 N 0.35751 0.81344 0.24270
 C294 C 0.37010 0.84262 0.28711
 C295 C 0.40845 0.86410 0.30536
 N296 N 0.43201 0.85443 0.27904
 N297 N 0.44340 0.81665 0.20757
 C298 C 0.43116 0.78839 0.16134
 C299 C 0.39313 0.76780 0.14117
 N300 N 0.36909 0.77631 0.16949
 H301 H 0.35029 0.84885 0.30791
 H302 H 0.45107 0.78240 0.14006
 C303 C 0.43202 0.60030 0.23841
 C304 C 0.39713 0.57554 0.20757
 N305 N 0.37777 0.53824 0.22357
 C306 C 0.39201 0.52432 0.26811
 C307 C 0.42766 0.54875 0.29760
 N308 N 0.44651 0.58639 0.28245
 N309 N 0.45127 0.63767 0.22244
 C310 C 0.43739 0.65134 0.17636
 C311 C 0.40280 0.62640 0.14411
 N312 N 0.38348 0.58905 0.16110
 H313 H 0.37551 0.49449 0.28022
 H314 H 0.45357 0.68119 0.16409
   
