data_POSCAR
  _audit_creation_date              2014-09-24
  _audit_creation_method            'ToBaCCo'
  _symmetry_space_group_name_H-M    'P1'
  _symmetry_Int_Tables_number       1
  _symmetry_cell_setting            triclinic
  loop_
  _symmetry_equiv_pos_as_xyz
 x,y,z
_cell_length_a 28.0617
_cell_length_b 28.5155
_cell_length_c 31.7549
_cell_angle_alpha 89.776600
_cell_angle_beta 88.504000
_cell_angle_gamma 87.861700
loop_
  _atom_site_label
  _atom_site_type_symbol
  _atom_site_fract_x
  _atom_site_fract_y
  _atom_site_fract_z
N1 N 0.60720 0.71184 0.59967
 N2 N 0.58287 0.71090 0.63559
 C3 C 0.54584 0.74230 0.63402
 C4 C 0.54683 0.76333 0.59474
 C5 C 0.58612 0.74319 0.57372
 H6 H 0.51909 0.74793 0.65881
 H7 H 0.59837 0.75069 0.54190
 Cu8 Cu 0.59970 0.66551 0.67902
 Cu9 Cu 0.66503 0.67330 0.58969
 Cu10 Cu 0.68552 0.58219 0.66057
 N11 N 0.60440 0.60886 0.71311
 N12 N 0.63970 0.57772 0.70735
 C13 C 0.63616 0.54369 0.73664
 C14 C 0.59562 0.55336 0.76118
 C15 C 0.57610 0.59487 0.74528
 H16 H 0.66030 0.51336 0.73896
 H17 H 0.54431 0.61392 0.75666
 N18 N 0.72037 0.58704 0.60606
 N19 N 0.71416 0.62307 0.58026
 C20 C 0.74319 0.61688 0.54620
 C21 C 0.76793 0.57454 0.55032
 C22 C 0.75261 0.55626 0.58845
 H23 H 0.74472 0.64034 0.51940
 H24 H 0.76398 0.52307 0.60219
 H25 H 0.63708 0.61818 0.62336
 H26 H 0.68177 0.65344 0.65018
 N27 N 0.91638 0.29040 0.12594
 N28 N 0.91139 0.29446 0.16709
 C29 C 0.93531 0.25871 0.18576
 C30 C 0.95710 0.23109 0.15455
 C31 C 0.94448 0.25223 0.11695
 H32 H 0.93790 0.25419 0.21946
 H33 H 0.95474 0.24068 0.08547
 Cu34 Cu 0.87844 0.34832 0.19286
 Cu35 Cu 0.88575 0.33500 0.08746
 Cu36 Cu 0.80838 0.41758 0.13411
 N37 N 0.86115 0.41224 0.20990
 N38 N 0.83562 0.44044 0.18574
 C39 C 0.83414 0.48393 0.20223
 C40 C 0.85964 0.48245 0.23893
 C41 C 0.87595 0.43646 0.24308
 H42 H 0.81676 0.51441 0.18814
 H43 H 0.89935 0.42238 0.26694
 N44 N 0.80457 0.39983 0.07489
 N45 N 0.83637 0.37108 0.05614
 C46 C 0.82514 0.36695 0.01533
 C47 C 0.78387 0.39365 0.00872
 C48 C 0.77165 0.41384 0.04706
 H49 H 0.84396 0.34426 -0.00724
 H50 H 0.74115 0.43705 0.05417
 H51 H 0.87603 0.39220 0.12675
 H52 H 0.83100 0.34551 0.13002
 N53 N 0.39733 0.20868 -0.08601
 N54 N 0.41556 0.21661 -0.12382
 C55 C 0.44803 0.24990 -0.12155
 C56 C 0.45099 0.26296 -0.07992
 C57 C 0.41860 0.23595 -0.05803
 H58 H 0.46945 0.26217 -0.14788
 H59 H 0.41117 0.23595 -0.02443
 Cu60 Cu 0.39911 0.17906 -0.17152
 Cu61 Cu 0.34805 0.16268 -0.07697
 Cu62 Cu 0.29610 0.12442 -0.16839
 N63 N 0.38743 0.12873 -0.21038
 N64 N 0.34598 0.10871 -0.21093
 C65 C 0.34798 0.07473 -0.24042
 C66 C 0.39350 0.07287 -0.25833
 C67 C 0.41755 0.10762 -0.23858
 H68 H 0.31963 0.05110 -0.24629
 H69 H 0.45454 0.11611 -0.24351
 N70 N 0.26361 0.12298 -0.11279
 N71 N 0.28497 0.13383 -0.07771
 C72 C 0.25478 0.12705 -0.04479
 C73 C 0.21232 0.11205 -0.06001
 C74 C 0.21896 0.10996 -0.10325
 H75 H 0.26218 0.13480 -0.01235
 H76 H 0.19338 0.09958 -0.12601
 H77 H 0.35298 0.12257 -0.13122
 H78 H 0.32214 0.18148 -0.13402
 N79 N 0.13316 0.76580 0.39803
 N80 N 0.11157 0.76660 0.36178
 C81 C 0.07681 0.73518 0.36293
 C82 C 0.07642 0.71421 0.40236
 C83 C 0.11298 0.73415 0.42361
 H84 H 0.05231 0.72969 0.33782
 H85 H 0.12311 0.72763 0.45579
 Cu86 Cu 0.12898 0.81173 0.31836
 Cu87 Cu 0.18247 0.80946 0.41085
 Cu88 Cu 0.16221 0.91426 0.35826
 N89 N 0.13937 0.86590 0.28246
 N90 N 0.14946 0.90672 0.29853
 C91 C 0.15087 0.93893 0.26747
 C92 C 0.14258 0.91671 0.22995
 C93 C 0.13542 0.87039 0.24048
 H94 H 0.15855 0.97548 0.27174
 H95 H 0.12685 0.84242 0.21937
 N96 N 0.19670 0.90934 0.41181
 N97 N 0.20769 0.86856 0.42958
 C98 C 0.23518 0.87543 0.46281
 C99 C 0.24125 0.92293 0.46664
 C100 C 0.21640 0.94364 0.43391
 H101 H 0.24895 0.84792 0.48320
 H102 H 0.21425 0.98055 0.42594
 H103 H 0.13454 0.85432 0.38462
 H104 H 0.19275 0.84919 0.35494
 C105 C 0.06497 0.10114 0.12208
 N106 N 0.08346 0.06229 0.14142
 C107 C 0.11357 0.03200 0.12012
 N108 N 0.12633 0.04130 0.07948
 C109 C 0.10813 0.08022 0.05999
 N110 N 0.07701 0.10984 0.08116
 C111 C 0.42726 0.89103 0.58650
 N112 N 0.43673 0.91797 0.62017
 C113 C 0.40806 0.95604 0.63010
 N114 N 0.36984 0.96720 0.60609
 C115 C 0.36028 0.94027 0.57235
 N116 N 0.38912 0.90240 0.56264
 C117 C 0.94577 0.60999 0.41228
 N118 N 0.91743 0.59250 0.44337
 C119 C 0.88225 0.56327 0.43418
 N120 N 0.87518 0.55138 0.39357
 C121 C 0.90243 0.56990 0.36212
 N122 N 0.93759 0.59946 0.37148
 C123 C 0.57113 0.38011 -0.07910
 N124 N 0.61659 0.37914 -0.06541
 C125 C 0.64938 0.40701 -0.08388
 N126 N 0.63633 0.43669 -0.11547
 C127 C 0.59041 0.43917 -0.12800
 N128 N 0.55807 0.41041 -0.11014
 C129 C -0.01356 0.19109 0.15975
 C130 C -0.00435 0.16994 0.19804
 C131 C 0.02578 0.13265 0.18883
 C132 C 0.03306 0.13407 0.14573
 O133 O 0.00916 0.16940 0.12793
 H134 H -0.01795 0.18028 0.22895
 H135 H 0.04119 0.10778 0.21093
 C136 C 0.51178 0.79744 0.57778
 C137 C 0.50040 0.80035 0.53587
 C138 C 0.46594 0.83515 0.53377
 C139 C 0.45958 0.85138 0.57446
 O140 O 0.48722 0.82846 0.60136
 H141 H 0.51506 0.77919 0.51009
 H142 H 0.44826 0.84789 0.50585
 C143 C 1.04384 0.68264 0.41861
 C144 C 1.04223 0.66784 0.46008
 C145 C 1.00451 0.63938 0.46318
 C146 C 0.98619 0.63839 0.42335
 O147 O 1.00992 0.66461 0.39611
 H148 H 1.06526 0.67711 0.48531
 H149 H 0.99214 0.62103 0.49105
 C150 C 0.48472 0.29597 -0.06332
 C151 C 0.50073 0.29604 -0.02262
 C152 C 0.53549 0.32840 -0.02261
 C153 C 0.53715 0.34610 -0.06307
 O154 O 0.50661 0.32639 -0.08781
 H155 H 0.48988 0.27380 0.00332
 H156 H 0.55738 0.33754 0.00346
 C157 C 0.14097 -0.06167 0.18800
 C158 C 0.15234 -0.08470 0.15079
 C159 C 0.14575 -0.05179 0.11994
 C160 C 0.13013 -0.01151 0.14078
 O161 O 0.12737 -0.01736 0.18207
 H162 H 0.16400 -0.12104 0.14671
 H163 H 0.15015 -0.05692 0.08629
 C164 C 0.57824 0.52638 -0.20555
 C165 C 0.53346 0.53242 -0.18685
 C166 C 0.53123 0.49854 -0.15653
 C167 C 0.57512 0.47516 -0.15840
 O168 O 0.60370 0.49178 -0.18818
 H169 H 0.50563 0.55808 -0.19456
 H170 H 0.50185 0.49269 -0.13461
 C171 C 0.41402 1.03771 0.71205
 C172 C 0.46155 1.02351 0.71056
 C173 C 0.46535 0.98980 0.68028
 C174 C 0.42000 0.98655 0.66513
 O175 O 0.38863 1.01546 0.68443
 H176 H 0.48986 1.03581 0.72970
 H177 H 0.49746 0.97055 0.66988
 C178 C 0.87197 0.52181 0.26562
 C179 C 0.88036 0.56644 0.25106
 C180 C 0.89454 0.59046 0.28538
 C181 C 0.89274 0.55880 0.31824
 O182 O 0.87925 0.51708 0.30637
 H183 H 0.87766 0.57944 0.21911
 H184 H 0.90418 0.62682 0.28654
 C185 C 0.16862 0.10373 -0.03511
 C186 C 0.12296 0.11092 -0.04949
 C187 C 0.09363 0.10338 -0.01532
 C188 C 0.12373 0.09117 0.01684
 O189 O 0.16920 0.09159 0.00507
 H190 H 0.11247 0.12192 -0.08066
 H191 H 0.05506 0.10630 -0.01396
 C192 C 0.80147 0.55346 0.51901
 C193 C 0.80771 0.50605 0.51113
 C194 C 0.83870 0.50292 0.47719
 C195 C 0.84951 0.54859 0.46783
 O196 O 0.82688 0.57925 0.49292
 H197 H 0.79059 0.47748 0.52730
 H198 H 0.85210 0.47134 0.46143
 C199 C 0.75658 0.39769 -0.02994
 C200 C 0.77640 0.40080 -0.06997
 C201 C 0.73849 0.40619 -0.09590
 C202 C 0.69865 0.40483 -0.06964
 O203 O 0.70947 0.39988 -0.02960
 H204 H 0.81388 0.40010 -0.07897
 H205 H 0.73964 0.40972 -0.12985
 C206 C 0.26971 0.94517 0.49854
 C207 C 0.26488 0.99137 0.51114
 C208 C 0.29754 0.99587 0.54197
 C209 C 0.32007 0.95221 0.54520
 O210 O 0.30316 0.92148 0.51902
 H211 H 0.24028 1.01825 0.49956
 H212 H 0.30477 1.02730 0.55931
   
