data_POSCAR
  _audit_creation_date              2014-09-24
  _audit_creation_method            'ToBaCCo'
  _symmetry_space_group_name_H-M    'P1'
  _symmetry_Int_Tables_number       1
  _symmetry_cell_setting            triclinic
  loop_
  _symmetry_equiv_pos_as_xyz
 x,y,z
_cell_length_a 47.2910
_cell_length_b 46.1047
_cell_length_c 45.4306
_cell_angle_alpha 90.850600
_cell_angle_beta 89.212900
_cell_angle_gamma 92.755400
loop_
  _atom_site_label
  _atom_site_type_symbol
  _atom_site_fract_x
  _atom_site_fract_y
  _atom_site_fract_z
C1 C 0.20454 0.55727 1.02775
 H2 H 0.20480 0.57317 1.01046
 C3 C 0.18284 0.55663 1.04894
 H4 H 0.16671 0.57250 1.04773
 C5 C 0.22477 0.51680 1.04917
 H6 H 0.24075 0.50086 1.04885
 C7 C 0.20360 0.51539 1.07087
 H8 H 0.20476 0.49841 1.08680
 N9 N 0.22487 0.53745 1.02814
 C10 C 0.30020 0.56913 0.98033
 H11 H 0.30323 0.55041 0.96620
 C12 C 0.32092 0.59168 0.98138
 H13 H 0.33977 0.59033 0.96771
 C14 C 0.27204 0.59338 1.01558
 H15 H 0.25321 0.59370 1.02928
 C16 C 0.29204 0.61673 1.01689
 H17 H 0.28845 0.63496 1.03156
 Zn18 Zn 0.25146 0.53686 0.99658
 N19 N 0.27652 0.57016 0.99755
 C20 C 0.23570 0.55550 0.94006
 N21 N 0.23055 0.53556 0.96143
 C22 C 0.20890 0.51522 0.95923
 C23 C 0.19126 0.51437 0.93483
 C24 C 0.21863 0.55545 0.91522
 C25 C 0.29210 0.50350 1.02165
 C26 C 0.30946 0.48038 1.02555
 C27 C 0.28747 0.45765 0.98022
 C28 C 0.27129 0.48202 0.97865
 N29 N 0.27360 0.50375 0.99910
 H30 H 0.25275 0.57178 0.94246
 H31 H 0.20503 0.49993 0.97684
 H32 H 0.17403 0.49817 0.93450
 H33 H 0.22299 0.57177 0.89862
 H34 H 0.29328 0.52167 1.03702
 H35 H 0.32381 0.48101 1.04394
 H36 H 0.28486 0.44075 0.96356
 H37 H 0.25667 0.48351 0.96076
 C38 C 0.31711 0.61566 1.00018
 C39 C 0.18169 0.53523 1.07082
 C40 C 0.30876 0.45453 1.00484
 C41 C 0.19585 0.53487 0.91230
 C42 C 0.80772 0.47994 -0.01906
 H43 H 0.80898 0.49513 -0.00069
 C44 C 0.82970 0.47950 -0.03973
 H45 H 0.84799 0.49412 -0.03653
 C46 C 0.78264 0.44154 -0.04415
 H47 H 0.76443 0.42655 -0.04554
 C48 C 0.80413 0.44051 -0.06556
 H49 H 0.80214 0.42489 -0.08355
 N50 N 0.78458 0.46153 -0.02185
 C51 C 0.71885 0.50852 0.02331
 H52 H 0.71311 0.49393 0.04108
 C53 C 0.70427 0.53389 0.01987
 H54 H 0.68718 0.53834 0.03507
 C55 C 0.74687 0.51901 -0.01918
 H56 H 0.76296 0.51281 -0.03483
 C57 C 0.73281 0.54451 -0.02349
 H58 H 0.73849 0.55789 -0.04227
 Zn59 Zn 0.75659 0.46546 0.00777
 N60 N 0.73972 0.50161 0.00394
 C61 C 0.77794 0.48619 0.06301
 N62 N 0.77549 0.46324 0.04393
 C63 C 0.78910 0.43847 0.04855
 C64 C 0.80614 0.43608 0.07307
 C65 C 0.79506 0.48488 0.08777
 C66 C 0.71182 0.43525 -0.02028
 C67 C 0.68866 0.41554 -0.02322
 C68 C 0.69787 0.39793 0.02536
 C69 C 0.72093 0.41793 0.02727
 N70 N 0.72742 0.43610 0.00461
 H71 H 0.76732 0.50587 0.05861
 H72 H 0.78718 0.42076 0.03270
 H73 H 0.81702 0.41618 0.07598
 H74 H 0.79648 0.50361 0.10232
 H75 H 0.71715 0.45033 -0.03775
 H76 H 0.67702 0.41595 -0.04344
 H77 H 0.69290 0.38400 0.04393
 H78 H 0.73311 0.41939 0.04721
 C79 C 0.71123 0.55226 -0.00387
 C80 C 0.82775 0.46008 -0.06384
 C81 C 0.68101 0.39665 0.00006
 C82 C 0.80994 0.45965 0.09282
 C83 C -0.04559 0.27909 0.48957
 H84 H -0.06007 0.27959 0.50820
 C85 C -0.04922 0.29723 0.46575
 H86 H -0.06687 0.31140 0.46634
 C87 C -0.00454 0.26066 0.46723
 H88 H 0.01331 0.24697 0.46828
 C89 C -0.00718 0.27858 0.44300
 H90 H 0.00892 0.27758 0.42602
 N91 N -0.02353 0.26131 0.48992
 C92 C -0.04871 0.19790 0.55692
 H93 H -0.03128 0.20083 0.57202
 C94 C -0.06991 0.17634 0.56197
 H95 H -0.06872 0.16279 0.58115
 C96 C -0.07055 0.21097 0.51274
 H97 H -0.07021 0.22381 0.49304
 C98 C -0.09213 0.18961 0.51687
 H99 H -0.10794 0.18652 0.50003
 Zn100 Zn -0.01798 0.24053 0.52476
 N101 N -0.04934 0.21461 0.53257
 C102 C -0.02997 0.27048 0.57905
 N103 N -0.01281 0.26886 0.55488
 C104 C 0.00820 0.28933 0.54970
 C105 C 0.01279 0.31254 0.56925
 C106 C -0.02627 0.29358 0.59922
 C107 C 0.01385 0.19660 0.50010
 C108 C 0.03747 0.18009 0.49520
 C109 C 0.06196 0.20808 0.53323
 C110 C 0.03774 0.22390 0.53751
 N111 N 0.01455 0.21834 0.52062
 H112 H -0.04699 0.25432 0.58236
 H113 H 0.02118 0.28779 0.53000
 H114 H 0.02956 0.32867 0.56433
 H115 H -0.04069 0.29443 0.61782
 H116 H -0.00502 0.19239 0.48722
 H117 H 0.03644 0.16312 0.47843
 H118 H 0.07988 0.21358 0.54700
 H119 H 0.03766 0.24072 0.55429
 C120 C -0.09186 0.17175 0.54169
 C121 C -0.02969 0.29765 0.44205
 C122 C 0.06221 0.18585 0.51154
 C123 C -0.00470 0.31525 0.59428
 C124 C 1.00407 0.70974 0.51477
 H125 H 0.98888 0.70357 0.49794
 C126 C 1.00696 0.69205 0.53904
 H127 H 0.99412 0.67204 0.54044
 C128 C 1.04012 0.74280 0.53237
 H129 H 1.05323 0.76241 0.52947
 C130 C 1.04383 0.72562 0.55697
 H131 H 1.05966 0.73227 0.57304
 N132 N 1.02016 0.73481 0.51215
 C133 C 0.97022 0.79015 0.45846
 H134 H 0.98471 0.79489 0.44034
 C135 C 0.94445 0.80376 0.46038
 H136 H 0.93963 0.81895 0.44350
 C137 C 0.96031 0.76594 0.50331
 H138 H 0.96683 0.75195 0.52052
 C139 C 0.93434 0.77888 0.50601
 H140 H 0.92106 0.77433 0.52516
 Zn141 Zn 1.01445 0.75710 0.47842
 N142 N 0.97770 0.77177 0.47983
 C143 C 0.99774 0.72559 0.42667
 N144 N 1.01916 0.73204 0.44568
 C145 C 1.04376 0.71805 0.44403
 C146 C 1.04742 0.69622 0.42297
 C147 C 1.00040 0.70373 0.40528
 C148 C 1.03701 0.81020 0.49832
 C149 C 1.05545 0.83465 0.49965
 C150 C 1.08146 0.81556 0.45809
 C151 C 1.06221 0.79157 0.45736
 N152 N 1.04079 0.78917 0.47759
 H153 H 0.97811 0.73655 0.42882
 H154 H 1.06021 0.72318 0.45986
 H155 H 1.06701 0.68495 0.42265
 H156 H 0.98251 0.69870 0.39129
 H157 H 1.01960 0.80785 0.51393
 H158 H 1.05196 0.85106 0.51646
 H159 H 1.09803 0.81679 0.44150
 H160 H 1.06445 0.77494 0.44062
 C161 C 0.92617 0.79830 0.48461
 C162 C 1.02678 0.70021 0.56077
 C163 C 1.07831 0.83753 0.47966
 C164 C 1.02540 0.68821 0.40358
 C165 C 0.46763 -0.02246 0.28846
 H166 H 0.48314 -0.03893 0.28671
 C167 C 0.44630 -0.02460 0.30997
 H168 H 0.44538 -0.04291 0.32467
 C169 C 0.45046 0.02179 0.27183
 H170 H 0.45236 0.04003 0.25718
 C171 C 0.42878 0.02052 0.29305
 H172 H 0.41383 0.03754 0.29374
 N173 N 0.46931 0.00045 0.26990
 C174 C 0.51767 -0.02773 0.19329
 H175 H 0.53353 -0.01004 0.19249
 C176 C 0.51746 -0.04947 0.17159
 H177 H 0.53355 -0.04744 0.15461
 C178 C 0.47744 -0.04998 0.21674
 H179 H 0.46162 -0.04984 0.23411
 C180 C 0.47644 -0.07230 0.19556
 H181 H 0.45983 -0.08926 0.19731
 Zn182 Zn 0.50023 0.00276 0.24301
 N183 N 0.49811 -0.02849 0.21545
 C184 C 0.55215 -0.01969 0.26059
 N185 N 0.53363 0.00157 0.26544
 C186 C 0.53749 0.02129 0.28773
 C187 C 0.56068 0.02007 0.30637
 C188 C 0.57566 -0.02167 0.27856
 C189 C 0.47821 0.03979 0.20230
 C190 C 0.47747 0.06353 0.18367
 C191 C 0.52204 0.08173 0.20370
 C192 C 0.52185 0.05760 0.22200
 N193 N 0.50008 0.03729 0.22101
 H194 H 0.54848 -0.03553 0.24316
 H195 H 0.52226 0.03781 0.29126
 H196 H 0.56290 0.03628 0.32367
 H197 H 0.58995 -0.03899 0.27433
 H198 H 0.46149 0.02294 0.20151
 H199 H 0.45989 0.06402 0.16884
 H200 H 0.53975 0.09751 0.20472
 H201 H 0.53940 0.05487 0.23652
 C202 C 0.49672 -0.07261 0.17252
 C203 C 0.42678 -0.00274 0.31277
 C204 C 0.49970 0.08508 0.18407
 C205 C 0.58010 -0.00195 0.30215
 C206 C 0.53244 -0.02850 0.70874
 H207 H 0.51588 -0.04536 0.70640
 C208 C 0.55556 -0.02773 0.68933
 H209 H 0.55611 -0.04409 0.67210
 C210 C 0.54989 0.01449 0.73283
 H211 H 0.54715 0.03136 0.74923
 C212 C 0.57351 0.01602 0.71393
 H213 H 0.58900 0.03397 0.71624
 N214 N 0.52996 -0.00760 0.72990
 C215 C 0.46947 -0.04646 0.79336
 H216 H 0.45274 -0.03128 0.79274
 C217 C 0.46769 -0.06938 0.81321
 H218 H 0.44938 -0.07183 0.82770
 C219 C 0.51410 -0.06104 0.77595
 H220 H 0.53240 -0.05747 0.76176
 C221 C 0.51316 -0.08429 0.79539
 H222 H 0.53055 -0.09864 0.79495
 Zn223 Zn 0.49541 -0.00912 0.75157
 N224 N 0.49252 -0.04261 0.77538
 C225 C 0.44462 -0.02930 0.72132
 N226 N 0.46658 -0.00922 0.72309
 C227 C 0.46933 0.01307 0.70389
 C228 C 0.44895 0.01667 0.68265
 C229 C 0.42365 -0.02666 0.70012
 C230 C 0.51103 0.02977 0.79841
 C231 C 0.50791 0.05351 0.81760
 C232 C 0.46545 0.06448 0.79190
 C233 C 0.46940 0.04067 0.77335
 N234 N 0.49204 0.02397 0.77663
 H235 H 0.44307 -0.04708 0.73660
 H236 H 0.48718 0.02856 0.70565
 H237 H 0.45143 0.03508 0.66813
 H238 H 0.40608 -0.04252 0.69984
 H239 H 0.52859 0.01584 0.80095
 H240 H 0.52361 0.05746 0.83440
 H241 H 0.44715 0.07730 0.78867
 H242 H 0.45394 0.03534 0.75664
 C243 C 0.48994 -0.08836 0.81485
 C244 C 0.57657 -0.00519 0.69175
 C245 C 0.48468 0.07131 0.81454
 C246 C 0.42549 -0.00306 0.68061
 C247 C 0.23774 0.05974 0.50827
 C248 C 0.25539 0.05046 0.53391
 C249 C 0.27139 0.02569 0.52809
 C250 C 0.26726 0.01306 0.49703
 C251 C 0.25832 0.06300 0.48235
 C252 C 0.27406 0.03830 0.47601
 C253 C 0.21832 0.03363 0.50099
 C254 C 0.23299 0.00573 0.49404
 H255 H 0.25515 0.06202 0.55476
 H256 H 0.27949 -0.00654 0.49306
 H257 H 0.26079 0.08277 0.46977
 H258 H 0.19556 0.03492 0.50140
 C259 C 0.76119 -0.05467 0.48643
 C260 C 0.74177 -0.05993 0.51305
 C261 C 0.72548 -0.03595 0.52103
 C262 C 0.73091 -0.00978 0.50063
 C263 C 0.74175 -0.04592 0.46197
 C264 C 0.72536 -0.02174 0.46938
 C265 C 0.77903 -0.02724 0.49386
 C266 C 0.76297 -0.00301 0.50182
 H267 H 0.74056 -0.08022 0.52485
 H268 H 0.71850 0.00942 0.50595
 H269 H 0.73983 -0.05830 0.44165
 H270 H 0.80183 -0.02645 0.49153
 C271 C 0.43996 0.27389 0.99369
 C272 C 0.44401 0.25009 0.97045
 C273 C 0.46855 0.23398 0.97479
 C274 C 0.48539 0.24408 1.00200
 C275 C 0.43967 0.25832 1.02304
 C276 C 0.46383 0.24208 1.02771
 C277 C 0.46746 0.29241 0.99307
 C278 C 0.49207 0.27659 0.99725
 H279 H 0.42900 0.24574 0.95302
 H280 H 0.50473 0.23185 1.00491
 H281 H 0.42175 0.25820 1.03817
 H282 H 0.46752 0.31562 0.99011
 C283 C 0.57040 0.72323 0.00543
 C284 C 0.56808 0.73963 -0.02307
 C285 C 0.54172 0.75645 -0.02576
 C286 C 0.52234 0.75118 0.00463
 C287 C 0.56757 0.74589 0.02981
 C288 C 0.54223 0.76092 0.02968
 C289 C 0.54373 0.70370 0.00759
 C290 C 0.51810 0.71809 0.00715
 H291 H 0.58447 0.74009 -0.03995
 H292 H 0.50251 0.76282 0.00398
 H293 H 0.58431 0.75112 0.04535
 H294 H 0.54436 0.68030 0.00923
 C295 C 1.00346 0.44729 0.27331
 C296 C 0.97645 0.44873 0.25570
 C297 C 0.97496 0.47388 0.23829
 C298 C 1.00124 0.49437 0.24056
 C299 C 1.02738 0.44855 0.25070
 C300 C 1.02834 0.47452 0.23115
 C301 C 1.00637 0.47581 0.29060
 C302 C 1.00496 0.50107 0.27331
 H303 H 0.96035 0.43131 0.25635
 H304 H 1.00020 0.51411 0.22692
 H305 H 1.04321 0.43238 0.24901
 H306 H 1.00856 0.47613 0.31425
 C307 C -0.00171 0.55049 0.73319
 C308 C -0.02579 0.54811 0.75574
 C309 C -0.02565 0.52296 0.77323
 C310 C -0.00093 0.50355 0.76560
 C311 C 0.02523 0.54882 0.75096
 C312 C 0.02579 0.52361 0.76857
 C313 C -0.00414 0.52231 0.71532
 C314 C -0.00359 0.49687 0.73255
 H315 H -0.04147 0.56435 0.75845
 H316 H -0.00004 0.48370 0.77894
 H317 H 0.04174 0.56584 0.75030
 H318 H -0.00667 0.52243 0.69174
 C319 C 0.08590 0.16927 0.50534
 C320 C 0.11231 0.17299 0.51893
 C321 C 0.13655 0.15485 0.51153
 C322 C 0.15792 0.15234 0.53235
 C323 C 0.18064 0.13467 0.52665
 C324 C 0.18243 0.11910 0.49986
 C325 C 0.16176 0.12271 0.47852
 C326 C 0.13910 0.14041 0.48419
 C327 C 0.20480 0.09838 0.49346
 C328 C 0.22132 0.08634 0.51497
 H329 H 0.11551 0.18868 0.53657
 H330 H 0.15681 0.16374 0.55332
 H331 H 0.19658 0.13339 0.54332
 H332 H 0.16288 0.11140 0.45749
 H333 H 0.12386 0.14278 0.46698
 H334 H 0.20632 0.08972 0.47120
 H335 H 0.08330 0.15218 0.48888
 H336 H 0.21904 0.09298 0.53775
 C337 C 0.69538 0.57842 -0.00998
 C338 C 0.67938 0.59273 0.01130
 C339 C 0.66142 0.61721 0.00460
 C340 C 0.65304 0.63550 0.02773
 C341 C 0.63463 0.65769 0.02277
 C342 C 0.62410 0.66204 -0.00558
 C343 C 0.63252 0.64377 -0.02873
 C344 C 0.65100 0.62161 -0.02378
 C345 C 0.60252 0.68350 -0.01122
 C346 C 0.59692 0.70658 0.00789
 H347 H 0.68052 0.58633 0.03405
 H348 H 0.66041 0.63231 0.04988
 H349 H 0.62798 0.67054 0.04148
 H350 H 0.62433 0.64631 -0.05066
 H351 H 0.65619 0.60744 -0.04203
 H352 H 0.58942 0.68020 -0.03049
 H353 H 0.69711 0.58711 -0.03196
 H354 H 0.61080 0.71153 0.02620
 C355 C 0.89964 -0.18636 0.48975
 C356 C 0.88784 -0.16791 0.46962
 C357 C 0.86381 -0.14956 0.47721
 C358 C 0.84798 -0.13841 0.45445
 C359 C 0.82628 -0.11958 0.46067
 C360 C 0.82000 -0.11144 0.48995
 C361 C 0.83583 -0.12265 0.51268
 C362 C 0.85751 -0.14142 0.50647
 C363 C 0.79873 -0.08990 0.49771
 C364 C 0.77888 -0.07998 0.47824
 H365 H 0.89612 -0.16685 0.44736
 H366 H 0.85268 -0.14397 0.43171
 H367 H 0.81522 -0.11092 0.44236
 H368 H 0.83177 -0.11640 0.53538
 H369 H 0.86980 -0.14861 0.52463
 H370 H 0.79923 -0.08055 0.51974
 H371 H 0.88906 -0.18966 0.51079
 H372 H 0.77663 -0.08963 0.45653
 C373 C 0.32867 0.42818 1.00961
 C374 C 0.32885 0.40356 0.99155
 C375 C 0.34836 0.38003 0.99671
 C376 C 0.34805 0.35578 0.97765
 C377 C 0.36676 0.33357 0.98161
 C378 C 0.38630 0.33531 1.00476
 C379 C 0.38615 0.35932 1.02412
 C380 C 0.36749 0.38145 1.02017
 C381 C 0.40739 0.31312 1.00951
 C382 C 0.41447 0.29165 0.98902
 H383 H 0.31466 0.40154 0.97303
 H384 H 0.33336 0.35406 0.95955
 H385 H 0.36567 0.31521 0.96655
 H386 H 0.40085 0.36118 1.04222
 H387 H 0.36827 0.39974 1.03540
 H388 H 0.41966 0.31503 1.02949
 H389 H 0.31788 0.44084 1.00577
 H390 H 0.40404 0.28987 0.96802
 C391 C 0.88782 0.14656 0.54572
 C392 C 0.86326 0.14161 0.52920
 C393 C 0.84703 0.11327 0.52827
 C394 C 0.81941 0.11187 0.51716
 C395 C 0.80452 0.08510 0.51337
 C396 C 0.81712 0.05915 0.52056
 C397 C 0.84458 0.06063 0.53197
 C398 C 0.85940 0.08729 0.53577
 C399 C 0.80361 0.03008 0.51444
 C400 C 0.77464 0.02456 0.50965
 H401 H 0.85573 0.15882 0.51590
 H402 H 0.80955 0.13151 0.51078
 H403 H 0.78369 0.08485 0.50384
 H404 H 0.85493 0.04096 0.53734
 H405 H 0.88093 0.08716 0.54343
 H406 H 0.81749 0.01215 0.51467
 H407 H 0.89303 0.13078 0.56193
 H408 H 0.76029 0.04191 0.51296
 C409 C 0.33936 0.63912 0.00308
 C410 C 0.36786 0.63272 0.00373
 C411 C 0.39129 0.65478 0.00740
 C412 C 0.41599 0.64658 0.02103
 C413 C 0.43963 0.66576 0.02278
 C414 C 0.43946 0.69338 0.00996
 C415 C 0.41429 0.70208 -0.00261
 C416 C 0.39035 0.68293 -0.00391
 C417 C 0.46537 0.71292 0.00878
 C418 C 0.49237 0.70180 0.00870
 H419 H 0.37325 0.61013 0.00335
 H420 H 0.41706 0.62512 0.03025
 H421 H 0.45800 0.65867 0.03407
 H422 H 0.41346 0.72332 -0.01233
 H423 H 0.37161 0.68976 -0.01479
 H424 H 0.46282 0.73589 0.00606
 H425 H 0.33321 0.66110 0.00748
 H426 H 0.49386 0.67848 0.00928
 C427 C 0.09652 -0.13755 0.48183
 C428 C 0.12192 -0.13289 0.46603
 C429 C 0.13908 -0.10540 0.46922
 C430 C 0.16874 -0.10561 0.46773
 C431 C 0.18524 -0.07987 0.47192
 C432 C 0.17220 -0.05346 0.47718
 C433 C 0.14256 -0.05321 0.47759
 C434 C 0.12615 -0.07886 0.47366
 C435 C 0.18855 -0.02589 0.48271
 C436 C 0.21781 -0.02417 0.48599
 H437 H 0.13070 -0.15009 0.45291
 H438 H 0.17913 -0.12579 0.46398
 H439 H 0.20808 -0.08070 0.47121
 H440 H 0.13201 -0.03310 0.48128
 H441 H 0.10332 -0.07784 0.47394
 H442 H 0.17670 -0.00650 0.48497
 H443 H 0.09090 -0.12096 0.49774
 H444 H 0.22808 -0.00881 0.49017
 C445 C 0.65683 0.37751 0.99974
 C446 C 0.63724 0.37512 0.97686
 C447 C 0.60975 0.35850 0.97933
 C448 C 0.58710 0.36754 0.96272
 C449 C 0.56038 0.35360 0.96524
 C450 C 0.55576 0.32990 0.98399
 C451 C 0.57856 0.32023 1.00015
 C452 C 0.60537 0.33439 0.99780
 C453 C 0.52662 0.31704 0.98691
 C454 C 0.51993 0.28853 0.99578
 H455 H 0.64035 0.38794 0.95732
 H456 H 0.58990 0.38594 0.94823
 H457 H 0.54318 0.36149 0.95255
 H458 H 0.57567 0.30227 1.01512
 H459 H 0.62251 0.32635 1.01039
 H460 H 0.51003 0.33046 0.97970
 H461 H 0.65233 0.36490 1.01931
 H462 H 0.53693 0.27440 1.00021
 C463 C 0.50099 0.10916 1.16520
 C464 C 0.47950 0.11604 1.14590
 C465 C 0.48212 0.14009 1.12457
 C466 C 0.45729 0.15053 1.11297
 C467 C 0.45857 0.17211 1.09170
 C468 C 0.48485 0.18386 1.08149
 C469 C 0.50974 0.17322 1.09283
 C470 C 0.50846 0.15160 1.11420
 C471 C 0.48686 0.20574 1.05785
 C472 C 0.46499 0.22418 1.05227
 H473 H 0.45924 0.10425 1.14676
 H474 H 0.43674 0.14170 1.12014
 H475 H 0.43889 0.17881 1.08272
 H476 H 0.53024 0.18149 1.08493
 H477 H 0.52810 0.14347 1.12180
 H478 H 0.50620 0.20711 1.04491
 H479 H 0.51976 0.12353 1.16602
 H480 H 0.44725 0.22432 1.06759
 C481 C 0.03056 0.68223 0.58695
 C482 C 0.00849 0.66471 0.59881
 C483 C 0.01173 0.64525 0.62398
 C484 C -0.01263 0.63543 0.63948
 C485 C -0.01085 0.61567 0.66228
 C486 C 0.01547 0.60525 0.67003
 C487 C 0.03985 0.61501 0.65448
 C488 C 0.03808 0.63488 0.63170
 C489 C 0.01792 0.58270 0.69253
 C490 C -0.00254 0.57699 0.71437
 H491 H -0.01252 0.66597 0.58988
 H492 H -0.03323 0.64275 0.63364
 H493 H -0.03028 0.60795 0.67297
 H494 H 0.06030 0.60693 0.65971
 H495 H 0.05722 0.64124 0.61969
 H496 H 0.03627 0.56949 0.69151
 H497 H 0.05071 0.68416 0.59798
 H498 H -0.02024 0.59085 0.71699
 C499 C 0.48823 0.88839 -0.16276
 C500 C 0.51173 0.87390 -0.15325
 C501 C 0.51083 0.85226 -0.12931
 C502 C 0.53361 0.83404 -0.12692
 C503 C 0.53463 0.81439 -0.10387
 C504 C 0.51289 0.81267 -0.08243
 C505 C 0.48996 0.83068 -0.08490
 C506 C 0.48891 0.85032 -0.10804
 C507 C 0.51414 0.79315 -0.05688
 C508 C 0.53695 0.77577 -0.05281
 H509 H 0.53218 0.87866 -0.16342
 H510 H 0.55086 0.83515 -0.14287
 H511 H 0.55267 0.80089 -0.10268
 H512 H 0.47304 0.82992 -0.06858
 H513 H 0.47132 0.86442 -0.10852
 H514 H 0.49727 0.79333 -0.04046
 H515 H 0.46774 0.88348 -0.15270
 H516 H 0.53589 0.76623 -0.03639
 C517 C 0.96716 0.31694 0.42027
 C518 C 0.98509 0.32054 0.39557
 C519 C 0.98312 0.34467 0.37459
 C520 C 0.99601 0.34216 0.34671
 C521 C 0.99597 0.36498 0.32681
 C522 C 0.98321 0.39099 0.33455
 C523 C 0.96996 0.39340 0.36221
 C524 C 0.97014 0.37065 0.38218
 C525 C 0.98316 0.41587 0.31439
 C526 C 1.00373 0.42095 0.29251
 H527 H 1.00119 0.30530 0.39069
 H528 H 1.00619 0.32244 0.34029
 H529 H 1.00569 0.36200 0.30536
 H530 H 0.96002 0.41324 0.36867
 H531 H 0.96076 0.37398 0.40372
 H532 H 0.96727 0.43179 0.31789
 H533 H 0.94951 0.33100 0.42215
 H534 H 1.02100 0.40652 0.28999
 C535 C 0.49545 0.90510 0.15266
 C536 C 0.51470 0.90132 0.12925
 C537 C 0.51371 0.87567 0.10915
 C538 C 0.53890 0.86807 0.09502
 C539 C 0.53933 0.84394 0.07617
 C540 C 0.51446 0.82682 0.07090
 C541 C 0.48898 0.83500 0.08407
 C542 C 0.48857 0.85914 0.10318
 C543 C 0.51482 0.80085 0.05133
 C544 C 0.53851 0.78390 0.04963
 H545 H 0.53270 0.91629 0.12624
 H546 H 0.55845 0.88073 0.09877
 H547 H 0.55914 0.83896 0.06547
 H548 H 0.46945 0.82247 0.07986
 H549 H 0.46854 0.86493 0.11280
 H550 H 0.49585 0.79474 0.03929
 H551 H 0.47880 0.88837 0.15550
 H552 H 0.55560 0.78901 0.06478
 C553 C -0.00055 0.34022 0.61215
 C554 C -0.01646 0.34707 0.63730
 C555 C -0.01366 0.37619 0.65148
 C556 C -0.01954 0.37951 0.68168
 C557 C -0.01738 0.40702 0.69524
 C558 C -0.00947 0.43174 0.67864
 C559 C -0.00424 0.42835 0.64836
 C560 C -0.00636 0.40101 0.63490
 C561 C -0.00745 0.46155 0.69128
 C562 C -0.00564 0.46830 0.72137
 H563 H -0.03099 0.33116 0.64724
 H564 H -0.02576 0.36078 0.69479
 H565 H -0.02242 0.40875 0.71846
 H566 H 0.00139 0.44703 0.63491
 H567 H -0.00287 0.39955 0.61135
 H568 H -0.00630 0.47883 0.67549
 H569 H 0.01608 0.35584 0.60547
 H570 H -0.00525 0.45090 0.73701
 C571 C 0.47950 0.09543 0.83289
 C572 C 0.49556 0.10464 0.85728
 C573 C 0.48817 0.13011 0.87570
 C574 C 0.49579 0.13123 0.90546
 C575 C 0.48829 0.15449 0.92363
 C576 C 0.47331 0.17737 0.91221
 C577 C 0.46614 0.17647 0.88235
 C578 C 0.47369 0.15330 0.86420
 C579 C 0.46394 0.20192 0.93077
 C580 C 0.47726 0.21094 0.95687
 H581 H 0.51280 0.09213 0.86459
 H582 H 0.50701 0.11371 0.91485
 H583 H 0.49365 0.15402 0.94668
 H584 H 0.45475 0.19387 0.87296
 H585 H 0.46835 0.15385 0.84115
 H586 H 0.44679 0.21400 0.92248
 H587 H 0.46095 0.10735 0.82817
 H588 H 0.49595 0.20021 0.96347
 C589 C 1.02875 0.66395 0.38491
 C590 C 1.00849 0.65245 0.36520
 C591 C 1.01073 0.62343 0.35115
 C592 C 0.99648 0.61707 0.32476
 C593 C 0.99690 0.58929 0.31194
 C594 C 1.01148 0.56728 0.32547
 C595 C 1.02546 0.57362 0.35198
 C596 C 1.02514 0.60133 0.36470
 C597 C 1.01127 0.53714 0.31375
 C598 C 1.00629 0.52970 0.28425
 H599 H 0.99033 0.66454 0.35972
 H600 H 0.98476 0.63355 0.31421
 H601 H 0.98508 0.58502 0.29200
 H602 H 1.03644 0.55693 0.36311
 H603 H 1.03542 0.60499 0.38564
 H604 H 1.01638 0.52057 0.32909
 H605 H 1.04824 0.65269 0.38663
 H606 H 1.00385 0.54685 0.26863
 C607 C 1.15952 0.53432 0.09012
 C608 C 1.15493 0.51369 0.11236
 C609 C 1.12947 0.51189 0.13185
 C610 C 1.12349 0.48595 0.14701
 C611 C 1.09999 0.48297 0.16581
 C612 C 1.08185 0.50600 0.17003
 C613 C 1.08777 0.53201 0.15501
 C614 C 1.11141 0.53505 0.13621
 C615 C 1.05706 0.50350 0.19026
 C616 C 1.05244 0.47940 0.20799
 H617 H 1.16957 0.49677 0.11520
 H618 H 1.13704 0.46779 0.14421
 H619 H 1.09611 0.46257 0.17700
 H620 H 1.07426 0.55016 0.15809
 H621 H 1.11556 0.55573 0.12573
 H622 H 1.04287 0.52128 0.19189
 H623 H 1.14364 0.55019 0.08759
 H624 H 1.03746 0.48059 0.21925
 C625 C 0.60069 -0.00210 0.67054
 C626 C 0.60898 -0.02461 0.65178
 C627 C 0.63073 -0.02136 0.62800
 C628 C 0.63950 -0.04655 0.61350
 C629 C 0.65891 -0.04482 0.59006
 C630 C 0.67027 -0.01770 0.58062
 C631 C 0.66133 0.00753 0.59492
 C632 C 0.64178 0.00581 0.61833
 C633 C 0.69049 -0.01485 0.55539
 C634 C 0.70683 -0.03756 0.54528
 H635 H 0.59928 -0.04611 0.65466
 H636 H 0.63100 -0.06775 0.62008
 H637 H 0.66427 -0.06480 0.57906
 H638 H 0.66940 0.02873 0.58784
 H639 H 0.63514 0.02586 0.62820
 H640 H 0.69297 0.00626 0.54544
 H641 H 0.61231 0.01865 0.67009
 H642 H 0.70562 -0.05776 0.55713
 C643 C -0.15015 0.45979 0.91274
 C644 C -0.13238 0.48415 0.90669
 C645 C -0.11076 0.48562 0.88282
 C646 C -0.09949 0.51309 0.87471
 C647 C -0.07914 0.51593 0.85232
 C648 C -0.06963 0.49126 0.83737
 C649 C -0.08015 0.46368 0.84605
 C650 C -0.10061 0.46081 0.86854
 C651 C -0.04837 0.49383 0.81322
 C652 C -0.04615 0.51824 0.79533
 H653 H -0.13557 0.50409 0.91887
 H654 H -0.10651 0.53253 0.88571
 H655 H -0.07066 0.53748 0.84713
 H656 H -0.07273 0.44433 0.83522
 H657 H -0.10805 0.43920 0.87474
 H658 H -0.03548 0.47549 0.80890
 H659 H -0.14943 0.44070 0.89868
 H660 H -0.06157 0.53469 0.79836
 C661 C 0.40478 -0.00503 0.33629
 C662 C 0.39111 0.01893 0.34782
 C663 C 0.37008 0.01717 0.37231
 C664 C 0.36442 0.04262 0.38819
 C665 C 0.34471 0.04210 0.41139
 C666 C 0.32987 0.01605 0.41899
 C667 C 0.33558 -0.00945 0.40321
 C668 C 0.35528 -0.00892 0.37995
 C669 C 0.30891 0.01462 0.44353
 C670 C 0.29373 0.03852 0.45265
 H671 H 0.39738 0.04037 0.34000
 H672 H 0.37555 0.06299 0.38284
 H673 H 0.34159 0.06204 0.42359
 H674 H 0.32445 -0.02980 0.40864
 H675 H 0.35842 -0.02889 0.36784
 H676 H 0.30444 -0.00639 0.45320
 H677 H 0.40093 -0.02603 0.34627
 H678 H 0.29665 0.05846 0.44044
 C679 C 0.17815 0.53648 0.88774
 C680 C 0.15497 0.51733 0.88165
 C681 C 0.13469 0.52207 0.85779
 C682 C 0.11786 0.49839 0.84714
 C683 C 0.09751 0.50225 0.82567
 C684 C 0.09336 0.53007 0.81467
 C685 C 0.11042 0.55366 0.82508
 C686 C 0.13069 0.54982 0.84656
 C687 C 0.07169 0.53553 0.79244
 C688 C 0.04747 0.51740 0.78794
 H689 H 0.15138 0.49774 0.89416
 H690 H 0.12048 0.47679 0.85545
 H691 H 0.08538 0.48335 0.81765
 H692 H 0.10763 0.57532 0.81702
 H693 H 0.14252 0.56882 0.85478
 H694 H 0.07437 0.55572 0.78075
 H695 H 0.18284 0.55393 0.87249
 H696 H 0.04450 0.49789 0.80073
 C697 C 0.60347 -0.00546 0.32047
 C698 C 0.60938 0.01048 0.34639
 C699 C 0.63359 0.00438 0.36536
 C700 C 0.63163 0.00995 0.39577
 C701 C 0.65352 0.00298 0.41447
 C702 C 0.67806 -0.00933 0.40294
 C703 C 0.68033 -0.01403 0.37242
 C704 C 0.65848 -0.00710 0.35379
 C705 C 0.70091 -0.01924 0.42184
 C706 C 0.70515 -0.01019 0.45109
 H707 H 0.59487 0.02613 0.35468
 H708 H 0.61273 0.01892 0.40521
 H709 H 0.65066 0.00646 0.43788
 H710 H 0.69905 -0.02333 0.36292
 H711 H 0.66125 -0.01071 0.33037
 H712 H 0.71532 -0.03396 0.41159
 H713 H 0.61725 -0.02282 0.31473
 H714 H 0.69266 0.00690 0.46020
 C715 C 0.82887 0.45702 0.11615
 C716 C 0.83802 0.47957 0.13526
 C717 C 0.85994 0.47548 0.15757
 C718 C 0.87840 0.49898 0.16544
 C719 C 0.90032 0.49532 0.18523
 C720 C 0.90406 0.46799 0.19764
 C721 C 0.88475 0.44489 0.19076
 C722 C 0.86293 0.44854 0.17098
 C723 C 0.92736 0.46250 0.21800
 C724 C 0.95226 0.48008 0.22022
 H725 H 0.83146 0.50143 0.13218
 H726 H 0.87618 0.52009 0.15581
 H727 H 0.91401 0.51399 0.19075
 H728 H 0.88676 0.42377 0.20044
 H729 H 0.84840 0.43025 0.16636
 H730 H 0.92495 0.44286 0.23060
 H731 H 0.83845 0.43629 0.11832
 H732 H 0.95468 0.49942 0.20710
 C733 C 0.40460 0.00258 0.66001
 C734 C 0.38057 -0.01523 0.65380
 C735 C 0.35847 -0.00519 0.63413
 C736 C 0.34422 -0.02486 0.61496
 C737 C 0.32389 -0.01524 0.59566
 C738 C 0.31723 0.01419 0.59566
 C739 C 0.33072 0.03352 0.61568
 C740 C 0.35119 0.02401 0.63462
 C741 C 0.29600 0.02561 0.57578
 C742 C 0.28988 0.01362 0.54797
 H743 H 0.37829 -0.03712 0.66200
 H744 H 0.34917 -0.04756 0.61459
 H745 H 0.31323 -0.03091 0.58116
 H746 H 0.32564 0.05618 0.61646
 H747 H 0.36112 0.03951 0.64985
 H748 H 0.28684 0.04563 0.58272
 H749 H 0.40728 0.02258 0.64780
 H750 H 0.30080 -0.00534 0.54068
   
