data_POSCAR
  _audit_creation_date              2014-09-24
  _audit_creation_method            'ToBaCCo'
  _symmetry_space_group_name_H-M    'P1'
  _symmetry_Int_Tables_number       1
  _symmetry_cell_setting            triclinic
  loop_
  _symmetry_equiv_pos_as_xyz
 x,y,z
_cell_length_a 20.8266
_cell_length_b 21.3748
_cell_length_c 19.1401
_cell_angle_alpha 89.520400
_cell_angle_beta 89.883800
_cell_angle_gamma 91.536400
loop_
  _atom_site_label
  _atom_site_type_symbol
  _atom_site_fract_x
  _atom_site_fract_y
  _atom_site_fract_z
O1 O 0.20829 0.31453 0.16476
 O2 O 0.33772 0.20710 0.21207
 O3 O 0.22288 0.19295 0.15922
 O4 O 0.32647 0.32591 0.21047
 O5 O 0.28852 0.31906 0.31826
 O6 O 0.18545 0.18355 0.26698
 O7 O 0.29922 0.20001 0.31966
 O8 O 0.16948 0.30496 0.27189
 Cu9 Cu 0.27688 0.26113 0.17551
 Cu10 Cu 0.23094 0.25180 0.30471
 C11 C 0.16648 0.32734 0.21057
 C12 C 0.34121 0.18647 0.27443
 C13 C 0.18799 0.16461 0.20432
 C14 C 0.32766 0.34284 0.27365
 O15 O 0.82335 0.30615 0.28685
 O16 O 0.71846 0.17137 0.33619
 O17 O 0.83700 0.18770 0.29312
 O18 O 0.70882 0.29379 0.34312
 O19 O 0.66974 0.28904 0.23604
 O20 O 0.79962 0.18469 0.18517
 O21 O 0.68076 0.16759 0.22847
 O22 O 0.78369 0.30354 0.17984
 Cu23 Cu 0.77496 0.24028 0.32595
 Cu24 Cu 0.72903 0.23581 0.19690
 C25 C 0.82302 0.32602 0.22414
 C26 C 0.68249 0.14605 0.29025
 C27 C 0.84153 0.16993 0.23034
 C28 C 0.66759 0.30950 0.29809
 O29 O 0.70457 0.83039 0.68289
 O30 O 0.83542 0.72420 0.72645
 O31 O 0.71787 0.71117 0.67613
 O32 O 0.82268 0.84595 0.72380
 O33 O 0.78633 0.83959 0.83222
 O34 O 0.68253 0.70475 0.78495
 O35 O 0.80002 0.71751 0.83515
 O36 O 0.66853 0.82259 0.79144
 Cu37 Cu 0.77440 0.77829 0.69158
 Cu38 Cu 0.73179 0.77000 0.82222
 C39 C 0.66335 0.84317 0.72945
 C40 C 0.84001 0.70292 0.78833
 C41 C 0.68012 0.68718 0.72180
 C42 C 0.82104 0.86641 0.78569
 O43 O 0.15696 0.78720 0.72365
 O44 O 0.28892 0.68217 0.67941
 O45 O 0.16944 0.66599 0.71636
 O46 O 0.27483 0.80190 0.67313
 O47 O 0.30899 0.80483 0.78228
 O48 O 0.20451 0.66823 0.82521
 O49 O 0.32316 0.68689 0.78858
 O50 O 0.19120 0.78978 0.83273
 Cu51 Cu 0.21862 0.73437 0.68730
 Cu52 Cu 0.25937 0.73830 0.81843
 C53 C 0.15151 0.80585 0.78621
 C54 C 0.32927 0.66793 0.72648
 C55 C 0.17025 0.64327 0.77763
 C56 C 0.31214 0.82436 0.71947
 C57 C 1.01666 0.09053 0.15838
 C58 C 1.07090 0.06169 0.13141
 C59 C 1.06622 0.02749 0.06950
 C60 C 1.00738 0.02061 0.03361
 C61 C 0.95296 0.04856 0.06292
 C62 C 0.95732 0.08375 0.12410
 C63 C 1.00252 -0.01531 -0.03359
 C64 C 0.95150 -0.00541 -0.08054
 C65 C 0.94342 -0.04234 -0.13990
 C66 C 0.98990 -0.08553 -0.15758
 C67 C 1.04367 -0.09303 -0.11473
 C68 C 1.04826 -0.06020 -0.05176
 H69 H 1.02068 0.11741 0.20596
 H70 H 1.10973 0.00799 0.04925
 H71 H 0.90605 0.04281 0.03952
 H72 H 0.91631 0.02976 -0.07106
 H73 H 0.98425 -0.11268 -0.20480
 H74 H 1.08808 -0.07031 -0.01782
 C75 C 0.50731 0.60480 0.65328
 C76 C 0.56519 0.59134 0.61982
 C77 C 0.56421 0.55223 0.56128
 C78 C 0.50604 0.52356 0.53788
 C79 C 0.44871 0.53813 0.57326
 C80 C 0.44887 0.58028 0.62842
 C81 C 0.50445 0.48091 0.47562
 C82 C 0.44639 0.46843 0.43909
 C83 C 0.44420 0.42733 0.38287
 C84 C 0.50080 0.40077 0.35951
 C85 C 0.55876 0.41110 0.39482
 C86 C 0.56029 0.45024 0.45325
 H87 H 0.50731 0.63850 0.69519
 H88 H 0.60888 0.54587 0.53374
 H89 H 0.40271 0.51818 0.55830
 H90 H 0.40187 0.48956 0.45345
 H91 H 0.49856 0.36764 0.31705
 H92 H 0.60493 0.45495 0.48165
 C93 C -0.00723 0.40469 0.14552
 C94 C -0.06592 0.42066 0.11538
 C95 C -0.06603 0.45713 0.05418
 C96 C -0.00769 0.47854 0.02353
 C97 C 0.05071 0.46105 0.05466
 C98 C 0.05109 0.42264 0.11396
 C99 C -0.00699 0.51589 -0.04273
 C100 C 0.04330 0.50930 -0.09114
 C101 C 0.04871 0.54834 -0.14962
 C102 C 0.00087 0.59130 -0.16396
 C103 C -0.05238 0.59556 -0.11922
 C104 C -0.05517 0.55915 -0.05782
 H105 H -0.00711 0.37330 0.19019
 H106 H -0.11146 0.46648 0.02931
 H107 H 0.09644 0.47572 0.03220
 H108 H 0.07994 0.47508 -0.08283
 H109 H 0.00504 0.62070 -0.21019
 H110 H -0.09480 0.56505 -0.02200
 C111 C 0.48612 0.90826 0.65343
 C112 C 0.42887 0.92032 0.61766
 C113 C 0.43140 0.95564 0.55543
 C114 C 0.49063 0.97997 0.52950
 C115 C 0.54715 0.96712 0.56677
 C116 C 0.54543 0.92971 0.62676
 C117 C 0.49490 1.01573 0.46209
 C118 C 0.54996 1.01196 0.41959
 C119 C 0.55810 1.05004 0.36050
 C120 C 0.50844 1.08875 0.33918
 C121 C 0.45099 1.08978 0.37790
 C122 C 0.44533 1.05489 0.44017
 H123 H 0.48501 0.87743 0.69861
 H124 H 0.38754 0.96185 0.52623
 H125 H 0.59355 0.98431 0.54838
 H126 H 0.58797 0.98045 0.43283
 H127 H 0.51434 1.11712 0.29235
 H128 H 0.40220 1.05875 0.47132
 N129 N 1.15686 0.11344 0.18631
 N130 N 1.13087 0.06392 0.16762
 N131 N 0.62948 0.64488 0.70163
 N132 N 0.62331 0.62403 0.63981
 N133 N -0.12711 0.36849 0.20191
 N134 N -0.12400 0.39045 0.13995
 N135 N 0.36328 0.86684 0.70013
 N136 N 0.37032 0.88821 0.63819
 N137 N -0.10880 0.66225 -0.19519
 N138 N -0.10400 0.63635 -0.13534
 N139 N 0.39397 1.14885 0.29411
 N140 N 0.39800 1.12642 0.35573
 N141 N 1.09986 -0.15470 -0.19578
 N142 N 1.09463 -0.13316 -0.13425
 N143 N 0.61620 0.34855 0.31734
 N144 N 0.61445 0.37707 0.37546
 N145 N 0.85512 -0.08380 -0.19794
 N146 N 0.88636 -0.03680 -0.18046
 N147 N 0.37982 0.38207 0.29591
 N148 N 0.38378 0.40358 0.35750
 N149 N 0.13594 0.59293 -0.20791
 N150 N 0.10454 0.54516 -0.19264
 N151 N 0.64802 1.09611 0.30657
 N152 N 0.61731 1.04808 0.32276
 N153 N 0.11260 0.36371 0.19234
 N154 N 0.10966 0.39435 0.13522
 N155 N 0.60765 0.87674 0.71069
 N156 N 0.60426 0.90494 0.65212
 N157 N 0.89629 0.13560 0.20984
 N158 N 0.90109 0.11423 0.14830
 N159 N 0.38513 0.63443 0.70862
 N160 N 0.38926 0.60502 0.65141
   
