data_POSCAR
  _audit_creation_date              2014-09-24
  _audit_creation_method            'ToBaCCo'
  _symmetry_space_group_name_H-M    'P1'
  _symmetry_Int_Tables_number       1
  _symmetry_cell_setting            triclinic
  loop_
  _symmetry_equiv_pos_as_xyz
 x,y,z
_cell_length_a 31.2262
_cell_length_b 31.1113
_cell_length_c 39.3064
_cell_angle_alpha 88.354900
_cell_angle_beta 90.475800
_cell_angle_gamma 81.158600
loop_
  _atom_site_label
  _atom_site_type_symbol
  _atom_site_fract_x
  _atom_site_fract_y
  _atom_site_fract_z
C1 C 1.21239 0.24108 0.20465
 C2 C 1.24137 0.26886 0.18606
 C3 C 1.26193 0.29358 0.20670
 C4 C 1.25175 0.28843 0.24470
 C5 C 1.24143 0.21493 0.23208
 C6 C 1.26202 0.23946 0.25286
 C7 C 1.18151 0.27344 0.22524
 C8 C 1.20175 0.29780 0.24689
 H9 H 1.24539 0.26887 0.15870
 H10 H 1.26934 0.30808 0.26146
 H11 H 1.24242 0.18033 0.23685
 H12 H 1.14682 0.27414 0.22468
 C13 C 0.69995 -0.25397 0.20215
 C14 C 0.73213 -0.22871 0.18449
 C15 C 0.75381 -0.20576 0.20579
 C16 C 0.74106 -0.20942 0.24334
 C17 C 0.72651 -0.28154 0.23018
 C18 C 0.74802 -0.25854 0.25164
 C19 C 0.67022 -0.21911 0.22143
 C20 C 0.69140 -0.19685 0.24386
 H21 H 0.73837 -0.23005 0.15742
 H22 H 0.75871 -0.19050 0.26072
 H23 H 0.72775 -0.31648 0.23288
 H24 H 0.63532 -0.21438 0.22017
 C25 C 0.71680 0.21104 -0.29178
 C26 C 0.73747 0.23860 -0.31471
 C27 C 0.76370 0.26595 -0.29825
 C28 C 0.76387 0.26034 -0.26094
 C29 C 0.75156 0.18703 -0.27067
 C30 C 0.77832 0.21359 -0.25349
 C31 C 0.69256 0.24044 -0.26819
 C32 C 0.71782 0.26842 -0.25090
 H33 H 0.73589 0.23594 -0.34212
 H34 H 0.78367 0.28224 -0.24914
 H35 H 0.74982 0.15424 -0.26160
 H36 H 0.66043 0.23584 -0.26030
 C37 C 1.20978 -0.27677 -0.29071
 C38 C 1.23297 -0.24519 -0.31123
 C39 C 1.25825 -0.22286 -0.29235
 C40 C 1.25829 -0.23427 -0.25402
 C41 C 1.24566 -0.30595 -0.27039
 C42 C 1.27078 -0.28401 -0.25091
 C43 C 1.18492 -0.24912 -0.26341
 C44 C 1.21020 -0.22697 -0.24423
 H45 H 1.22990 -0.24129 -0.33867
 H46 H 1.27887 -0.21615 -0.23837
 H47 H 1.24788 -0.34104 -0.26877
 H48 H 1.15131 -0.24974 -0.25743
 C49 C 0.22153 0.23233 0.78990
 C50 C 0.25411 0.24940 0.80927
 C51 C 0.28197 0.27236 0.78954
 C52 C 0.27197 0.27371 0.75298
 C53 C 0.19743 0.27132 0.76888
 C54 C 0.22360 0.29265 0.74914
 C55 C 0.24677 0.20427 0.76307
 C56 C 0.27295 0.22572 0.74326
 H57 H 0.25477 0.24804 0.83686
 H58 H 0.29323 0.29133 0.73705
 H59 H 0.16310 0.27496 0.76310
 H60 H 0.24180 0.17117 0.75871
 C61 C 0.74087 0.71615 0.79193
 C62 C 0.75896 0.74667 0.81266
 C63 C 0.78278 0.77519 0.79436
 C64 C 0.78387 0.76776 0.75754
 C65 C 0.71521 0.74241 0.76572
 C66 C 0.73785 0.77197 0.74664
 C67 C 0.77718 0.69327 0.77335
 C68 C 0.80130 0.72117 0.75372
 H69 H 0.75707 0.74593 0.84022
 H70 H 0.80235 0.79071 0.74449
 H71 H 0.68408 0.73457 0.75790
 H72 H 0.77756 0.65981 0.76668
 C73 C 0.74087 0.21323 0.30375
 C74 C 0.77013 0.24348 0.31866
 C75 C 0.78834 0.26737 0.29500
 C76 C 0.77558 0.25964 0.25819
 C77 C 0.70774 0.24388 0.28161
 C78 C 0.72575 0.26754 0.25740
 C79 C 0.76925 0.18620 0.27805
 C80 C 0.78713 0.21024 0.25413
 H81 H 0.77441 0.24841 0.34548
 H82 H 0.79055 0.27929 0.23893
 H83 H 0.67305 0.24476 0.28363
 H84 H 0.77334 0.15098 0.27808
 C85 C 0.24715 0.71030 0.29457
 C86 C 0.27862 0.73589 0.31150
 C87 C 0.30008 0.75944 0.28968
 C88 C 0.28784 0.75520 0.25161
 C89 C 0.21750 0.74404 0.27255
 C90 C 0.23799 0.76675 0.24927
 C91 C 0.27504 0.68258 0.26878
 C92 C 0.29540 0.70576 0.24561
 H93 H 0.28326 0.73567 0.33887
 H94 H 0.30525 0.77443 0.23373
 H95 H 0.18254 0.74675 0.27363
 H96 H 0.27757 0.64776 0.26758
 O97 O 1.07361 0.01796 0.04342
 O98 O 0.93003 -0.01733 0.04568
 O99 O 0.97504 0.07515 0.04258
 O100 O 1.03013 -0.07776 0.04481
 O101 O 0.91596 0.05637 0.02632
 O102 O 1.08739 -0.05629 0.02667
 O103 O 0.95747 -0.07899 0.02747
 O104 O 1.04508 0.07872 0.02171
 C105 C 1.06584 0.05784 0.04556
 C106 C 0.93764 -0.05719 0.05031
 C107 C 0.93673 0.07315 0.04831
 C108 C 1.06877 -0.07502 0.04941
 O109 O 1.07601 -0.02821 -0.03954
 O110 O 0.92434 0.02870 -0.03993
 O111 O 1.01584 0.07191 -0.04269
 O112 O 0.98136 -0.07226 -0.03955
 O113 O 0.92156 -0.04319 -0.01930
 O114 O 1.07811 0.04335 -0.02392
 O115 O 1.05621 -0.08639 -0.02056
 O116 O 0.94310 0.08614 -0.02203
 Co117 Co 1.07117 -0.00523 0.00184
 Co118 Co 0.93037 0.00574 0.00299
 Co119 Co 0.99524 0.07046 0.00003
 Co120 Co 1.00570 -0.07118 0.00280
 O121 O 1.00067 -0.00013 0.00199
 C122 C 1.07370 -0.06683 -0.04344
 C123 C 0.92756 0.06720 -0.04546
 C124 C 1.05540 0.06449 -0.04688
 C125 C 0.94153 -0.06329 -0.04284
 O126 O 1.06315 0.55199 0.51963
 O127 O 0.90587 0.46562 0.52177
 O128 O 0.92906 0.59459 0.51805
 O129 O 1.04128 0.42219 0.52422
 O130 O 0.91007 0.53767 0.53927
 O131 O 1.06121 0.48064 0.54013
 O132 O 0.96691 0.43648 0.54247
 O133 O 1.00245 0.58081 0.53831
 C134 C 1.04194 0.57159 0.54266
 C135 C 0.92698 0.44329 0.54498
 C136 C 0.91517 0.57581 0.54300
 C137 C 1.05983 0.44181 0.54584
 O138 O 1.07045 0.45186 0.47566
 O139 O 0.89913 0.56556 0.47186
 O140 O 1.02891 0.58753 0.47252
 O141 O 0.94108 0.43067 0.47640
 O142 O 0.91195 0.49186 0.45540
 O143 O 1.05619 0.52585 0.45453
 O144 O 1.01298 0.43130 0.45813
 O145 O 0.95761 0.58395 0.45342
 Co146 Co 1.05525 0.50314 0.49738
 Co147 Co 0.91427 0.51470 0.49721
 Co148 Co 0.98005 0.57923 0.49586
 Co149 Co 0.99012 0.43767 0.50012
 O150 O 0.98496 0.50861 0.49759
 C151 C 1.05108 0.43514 0.45294
 C152 C 0.91869 0.58292 0.44890
 C153 C 1.05091 0.56584 0.45079
 C154 C 0.92200 0.45224 0.45197
 O155 O 0.55068 0.00714 0.55215
 O156 O 0.40998 -0.04238 0.52330
 O157 O 0.44499 0.08868 0.52293
 O158 O 0.54435 -0.06918 0.54237
 O159 O 0.40521 0.03752 0.53555
 O160 O 0.60199 -0.04755 0.52139
 O161 O 0.46920 -0.06422 0.54967
 O162 O 0.52418 0.07242 0.53413
 C163 C 0.54306 0.04712 0.55721
 C164 C 0.42920 -0.05888 0.54949
 C165 C 0.41526 0.07466 0.54014
 C166 C 0.58549 -0.07527 0.54071
 O167 O 0.56247 -0.02502 0.46425
 O168 O 0.40369 0.05546 0.47187
 O169 O 0.53460 0.05842 0.46498
 O170 O 0.45740 -0.08194 0.48160
 O171 O 0.41914 -0.02370 0.45871
 O172 O 0.58508 0.03431 0.49852
 O173 O 0.53415 -0.08210 0.47402
 O174 O 0.46256 0.07507 0.45540
 Co175 Co 0.55387 -0.01027 0.50809
 Co176 Co 0.41712 0.00587 0.49778
 Co177 Co 0.49164 0.06797 0.49529
 Co178 Co 0.50025 -0.06798 0.51091
 O179 O 0.48807 0.00144 0.50184
 C180 C 0.55540 -0.06086 0.45486
 C181 C 0.42345 0.07576 0.45125
 C182 C 0.57326 0.05640 0.47249
 C183 C 0.43401 -0.06322 0.45726
 O184 O 0.58746 0.53157 0.02108
 O185 O 0.42987 0.44502 0.01802
 O186 O 0.45258 0.57487 0.01742
 O187 O 0.56393 0.40202 0.02457
 O188 O 0.43161 0.51682 0.03535
 O189 O 0.58357 0.46007 0.04152
 O190 O 0.48948 0.41676 0.04092
 O191 O 0.52551 0.56018 0.03808
 C192 C 0.56512 0.55336 0.04260
 C193 C 0.44975 0.42635 0.04328
 C194 C 0.43431 0.55536 0.03986
 C195 C 0.58034 0.42162 0.04739
 O196 O 0.59558 0.43067 -0.02300
 O197 O 0.42457 0.54524 -0.03059
 O198 O 0.55368 0.56625 -0.02700
 O199 O 0.46609 0.40971 -0.02603
 O200 O 0.43941 0.47100 -0.04829
 O201 O 0.58350 0.50483 -0.04417
 O202 O 0.53821 0.41170 -0.04229
 O203 O 0.48293 0.56454 -0.04757
 Co204 Co 0.57998 0.48231 -0.00141
 Co205 Co 0.43886 0.49393 -0.00620
 Co206 Co 0.50411 0.55884 -0.00459
 Co207 Co 0.51399 0.41749 -0.00088
 O208 O 0.50924 0.48817 -0.00327
 C209 C 0.57662 0.41494 -0.04657
 C210 C 0.44453 0.56250 -0.05318
 C211 C 0.57537 0.54468 -0.04894
 C212 C 0.44704 0.43101 -0.05065
 C213 C 1.15068 0.15815 0.13874
 C214 C 1.13050 0.20125 0.14430
 C215 C 1.15067 0.22816 0.16522
 C216 C 1.19105 0.21288 0.18075
 C217 C 1.21263 0.17155 0.17230
 C218 C 1.19256 0.14430 0.15208
 C219 C 1.12759 0.12991 0.11727
 C220 C 1.14285 0.08531 0.11306
 C221 C 1.12161 0.06110 0.09089
 C222 C 1.08497 0.08096 0.07245
 C223 C 1.06810 0.12456 0.07803
 C224 C 1.08870 0.14893 0.10061
 C225 C 1.09080 0.21750 0.12837
 C226 C 1.07077 0.19215 0.10641
 H227 H 1.07545 0.25062 0.13236
 H228 H 1.04062 0.20648 0.09397
 H229 H 1.13501 0.26118 0.16900
 H230 H 1.24527 0.15992 0.18140
 H231 H 1.13478 0.02727 0.08725
 H232 H 1.03922 0.13982 0.06430
 H233 H 1.21066 0.11287 0.14672
 H234 H 1.17118 0.06868 0.12646
 C235 C 1.13786 0.64971 0.64309
 C236 C 1.11543 0.68456 0.66129
 C237 C 1.13834 0.70839 0.68281
 C238 C 1.18364 0.69795 0.68665
 C239 C 1.20572 0.66465 0.66718
 C240 C 1.18331 0.64062 0.64599
 C241 C 1.11256 0.62567 0.61987
 C242 C 1.13196 0.58968 0.60165
 C243 C 1.10821 0.57128 0.57753
 C244 C 1.06443 0.58769 0.57144
 C245 C 1.04372 0.62112 0.59139
 C246 C 1.06759 0.64039 0.61546
 C247 C 1.07047 0.69623 0.65715
 C248 C 1.04709 0.67488 0.63443
 H249 H 1.05323 0.72296 0.67109
 H250 H 1.01257 0.68583 0.63141
 H251 H 1.12061 0.73581 0.69551
 H252 H 1.24075 0.65721 0.66827
 H253 H 1.12452 0.54465 0.56301
 H254 H 1.00961 0.63342 0.58714
 H255 H 1.20240 0.61572 0.63166
 H256 H 1.16554 0.57567 0.60509
 C257 C 0.63848 0.13340 0.65282
 C258 C 0.62362 0.17795 0.65808
 C259 C 0.64929 0.20282 0.67643
 C260 C 0.69036 0.18433 0.68982
 C261 C 0.70591 0.14061 0.68214
 C262 C 0.68023 0.11549 0.66455
 C263 C 0.61049 0.10813 0.63262
 C264 C 0.62116 0.06305 0.62759
 C265 C 0.59685 0.04216 0.60509
 C266 C 0.56140 0.06574 0.58719
 C267 C 0.54824 0.10967 0.59447
 C268 C 0.57227 0.13089 0.61714
 C269 C 0.58388 0.19785 0.64397
 C270 C 0.55913 0.17502 0.62342
 H271 H 0.57241 0.23200 0.64791
 H272 H 0.52946 0.19230 0.61201
 H273 H 0.63750 0.23705 0.67982
 H274 H 0.73845 0.12543 0.68902
 H275 H 0.60747 0.00812 0.60014
 H276 H 0.52057 0.12805 0.58108
 H277 H 0.69425 0.08243 0.65949
 H278 H 0.64877 0.04365 0.64006
 C279 C 0.64525 0.65780 0.13609
 C280 C 0.61729 0.68732 0.15562
 C281 C 0.63436 0.71645 0.17658
 C282 C 0.67929 0.71721 0.17825
 C283 C 0.70671 0.68771 0.15873
 C284 C 0.69013 0.65862 0.13790
 C285 C 0.62571 0.62746 0.11390
 C286 C 0.65081 0.59654 0.09381
 C287 C 0.63096 0.57117 0.07175
 C288 C 0.58569 0.57583 0.06925
 C289 C 0.56040 0.60466 0.09056
 C290 C 0.58001 0.63055 0.11269
 C291 C 0.57238 0.68774 0.15412
 C292 C 0.55412 0.66010 0.13298
 H293 H 0.55092 0.71020 0.16920
 H294 H 0.51917 0.66213 0.13232
 H295 H 0.61207 0.73764 0.19169
 H296 H 0.74151 0.68685 0.15993
 H297 H 0.65119 0.54870 0.05587
 H298 H 0.52536 0.60805 0.08912
 H299 H 0.71310 0.63714 0.12354
 H300 H 0.68573 0.59190 0.09421
 C301 C 0.84915 -0.14437 0.15436
 C302 C 0.81473 -0.11867 0.17121
 C303 C 0.78549 -0.13881 0.19089
 C304 C 0.78963 -0.18424 0.19318
 C305 C 0.82506 -0.20950 0.17823
 C306 C 0.85476 -0.18994 0.15934
 C307 C 0.87616 -0.12219 0.13009
 C308 C 0.90896 -0.14521 0.11027
 C309 C 0.92981 -0.12372 0.08523
 C310 C 0.91897 -0.07869 0.07949
 C311 C 0.88826 -0.05500 0.10050
 C312 C 0.86644 -0.07643 0.12537
 C313 C 0.80834 -0.07328 0.16676
 C314 C 0.83372 -0.05261 0.14441
 H315 H 0.78240 -0.05350 0.17993
 H316 H 0.82660 -0.01752 0.14111
 H317 H 0.75782 -0.11936 0.20233
 H318 H 0.82862 -0.24470 0.17994
 H319 H 0.95386 -0.14265 0.06974
 H320 H 0.87982 -0.02011 0.09644
 H321 H 0.88072 -0.21123 0.14777
 H322 H 0.91821 -0.17998 0.11291
 C323 C 0.83494 0.34695 0.64215
 C324 C 0.79427 0.33778 0.63088
 C325 C 0.77127 0.31123 0.65082
 C326 C 0.78687 0.29438 0.68299
 C327 C 0.82601 0.30601 0.69511
 C328 C 0.84996 0.33142 0.67484
 C329 C 0.85974 0.37303 0.61864
 C330 C 0.90275 0.37979 0.62512
 C331 C 0.92477 0.40287 0.60148
 C332 C 0.90412 0.42050 0.57124
 C333 C 0.86120 0.41442 0.56495
 C334 C 0.83944 0.39014 0.58776
 C335 C 0.77635 0.35539 0.59982
 C336 C 0.79805 0.38169 0.57908
 H337 H 0.74487 0.34891 0.59144
 H338 H 0.78264 0.39462 0.55535
 H339 H 0.74012 0.30503 0.64146
 H340 H 0.83975 0.29363 0.71947
 H341 H 0.95800 0.40686 0.60681
 H342 H 0.84512 0.42714 0.54139
 H343 H 0.88020 0.33847 0.68510
 H344 H 0.92015 0.36662 0.64786
 C345 C 0.33312 -0.14015 0.65235
 C346 C 0.28796 -0.13698 0.64634
 C347 C 0.26340 -0.16220 0.66600
 C348 C 0.28300 -0.19103 0.69164
 C349 C 0.32701 -0.19210 0.69926
 C350 C 0.35194 -0.16699 0.67984
 C351 C 0.35891 -0.11635 0.62815
 C352 C 0.40445 -0.11989 0.63005
 C353 C 0.42719 -0.10014 0.60508
 C354 C 0.40514 -0.07623 0.57771
 C355 C 0.35974 -0.07087 0.57646
 C356 C 0.33663 -0.09102 0.60109
 C357 C 0.26775 -0.10997 0.61992
 C358 C 0.29153 -0.08728 0.59791
 H359 H 0.23307 -0.10714 0.61568
 H360 H 0.27446 -0.06758 0.57737
 H361 H 0.22907 -0.16063 0.66053
 H362 H 0.34264 -0.21403 0.71909
 H363 H 0.46225 -0.10456 0.60676
 H364 H 0.34233 -0.05221 0.55555
 H365 H 0.38597 -0.17000 0.68611
 H366 H 0.42319 -0.13867 0.65006
 C367 C 0.34818 0.36307 0.15164
 C368 C 0.30270 0.37568 0.14856
 C369 C 0.27475 0.35514 0.16891
 C370 C 0.29124 0.32204 0.19244
 C371 C 0.33609 0.31158 0.19740
 C372 C 0.36442 0.33190 0.17726
 C373 C 0.37655 0.38166 0.12613
 C374 C 0.42187 0.36872 0.12480
 C375 C 0.44608 0.38407 0.09849
 C376 C 0.42568 0.41267 0.07297
 C377 C 0.38102 0.42723 0.07503
 C378 C 0.35640 0.41178 0.10100
 C379 C 0.28518 0.40713 0.12406
 C380 C 0.31149 0.42503 0.10094
 H381 H 0.25042 0.41721 0.12209
 H382 H 0.29622 0.44847 0.08190
 H383 H 0.23993 0.36310 0.16513
 H384 H 0.34923 0.28579 0.21538
 H385 H 0.48060 0.37264 0.09762
 H386 H 0.36496 0.44973 0.05566
 H387 H 0.39872 0.32164 0.18124
 H388 H 0.43902 0.34596 0.14328
 C389 C 0.85727 0.15695 -0.16992
 C390 C 0.84465 0.13077 -0.19579
 C391 C 0.82209 0.15010 -0.22466
 C392 C 0.80895 0.19560 -0.22779
 C393 C 0.82532 0.22142 -0.20339
 C394 C 0.84885 0.20247 -0.17489
 C395 C 0.87782 0.13488 -0.13804
 C396 C 0.89049 0.15791 -0.11026
 C397 C 0.90709 0.13584 -0.08040
 C398 C 0.91113 0.09037 -0.07737
 C399 C 0.89972 0.06705 -0.10515
 C400 C 0.88330 0.08884 -0.13534
 C401 C 0.85304 0.08530 -0.19221
 C402 C 0.87173 0.06479 -0.16257
 H403 H 0.84374 0.06521 -0.21224
 H404 H 0.87645 0.02954 -0.16068
 H405 H 0.81415 0.12889 -0.24432
 H406 H 0.81902 0.25637 -0.20488
 H407 H 0.91617 0.15451 -0.05941
 H408 H 0.90338 0.03181 -0.10320
 H409 H 0.85903 0.22415 -0.15660
 H410 H 0.88744 0.19292 -0.11088
 C411 C 0.82384 0.67772 0.33562
 C412 C 0.78233 0.66725 0.32814
 C413 C 0.75775 0.68848 0.30090
 C414 C 0.77350 0.72073 0.28112
 C415 C 0.81374 0.73245 0.28931
 C416 C 0.83881 0.71113 0.31616
 C417 C 0.84969 0.65304 0.36419
 C418 C 0.89252 0.65865 0.37214
 C419 C 0.91503 0.63525 0.39926
 C420 C 0.89537 0.60593 0.41928
 C421 C 0.85312 0.59938 0.41119
 C422 C 0.83040 0.62227 0.38366
 C423 C 0.76542 0.63585 0.34796
 C424 C 0.78873 0.61423 0.37539
 H425 H 0.73349 0.62809 0.34233
 H426 H 0.77407 0.59049 0.39014
 H427 H 0.72604 0.68014 0.29520
 H428 H 0.82632 0.75742 0.27438
 H429 H 0.94778 0.64065 0.40487
 H430 H 0.83798 0.57623 0.42622
 H431 H 0.86967 0.72130 0.32122
 H432 H 0.90930 0.68075 0.35770
 C433 C 0.33199 0.17833 0.34014
 C434 C 0.28965 0.17015 0.33261
 C435 C 0.26676 0.19122 0.30460
 C436 C 0.28520 0.22067 0.28386
 C437 C 0.32597 0.23079 0.29229
 C438 C 0.34933 0.20976 0.32010
 C439 C 0.35644 0.15280 0.36894
 C440 C 0.39990 0.15584 0.37688
 C441 C 0.42155 0.13063 0.40348
 C442 C 0.40040 0.10198 0.42298
 C443 C 0.35717 0.09864 0.41530
 C444 C 0.33527 0.12337 0.38831
 C445 C 0.27051 0.14071 0.35277
 C446 C 0.29269 0.11814 0.38027
 H447 H 0.23790 0.13487 0.34711
 H448 H 0.27652 0.09560 0.39507
 H449 H 0.23451 0.18443 0.29870
 H450 H 0.34033 0.25396 0.27674
 H451 H 0.45500 0.13374 0.40888
 H452 H 0.34071 0.07625 0.43002
 H453 H 0.38089 0.21828 0.32523
 H454 H 0.41794 0.17704 0.36267
 C455 C 0.35065 0.65147 -0.16920
 C456 C 0.30947 0.64001 -0.17642
 C457 C 0.28414 0.66095 -0.20331
 C458 C 0.29873 0.69381 -0.22320
 C459 C 0.33887 0.70614 -0.21559
 C460 C 0.36478 0.68507 -0.18903
 C461 C 0.37669 0.62796 -0.14021
 C462 C 0.41888 0.63524 -0.13177
 C463 C 0.44121 0.61333 -0.10389
 C464 C 0.42196 0.58390 -0.08367
 C465 C 0.38053 0.57553 -0.09238
 C466 C 0.35799 0.59697 -0.12051
 C467 C 0.29334 0.60825 -0.15648
 C468 C 0.31691 0.58748 -0.12891
 H469 H 0.26170 0.59968 -0.16202
 H470 H 0.30278 0.56352 -0.11398
 H471 H 0.25236 0.65232 -0.20824
 H472 H 0.35040 0.73181 -0.23042
 H473 H 0.47337 0.62003 -0.09781
 H474 H 0.36576 0.55223 -0.07721
 H475 H 0.39544 0.69583 -0.18426
 H476 H 0.43518 0.65768 -0.14629
 C477 C 1.15782 -0.15673 -0.15773
 C478 C 1.14742 -0.19846 -0.16412
 C479 C 1.16523 -0.22134 -0.19208
 C480 C 1.19355 -0.20343 -0.21392
 C481 C 1.20535 -0.16302 -0.20689
 C482 C 1.18764 -0.13975 -0.17916
 C483 C 1.13657 -0.13262 -0.12841
 C484 C 1.14257 -0.08988 -0.12117
 C485 C 1.12189 -0.06869 -0.09369
 C486 C 1.09491 -0.08958 -0.07260
 C487 C 1.08834 -0.13195 -0.07969
 C488 C 1.10860 -0.15341 -0.10754
 C489 C 1.11929 -0.21714 -0.14268
 C490 C 1.10057 -0.19523 -0.11480
 H491 H 1.11162 -0.24924 -0.14752
 H492 H 1.07906 -0.21108 -0.09893
 H493 H 1.15712 -0.25332 -0.19681
 H494 H 1.22747 -0.14893 -0.22338
 H495 H 1.12728 -0.03583 -0.08885
 H496 H 1.06706 -0.14805 -0.06376
 H497 H 1.19760 -0.10861 -0.17510
 H498 H 1.16276 -0.07205 -0.13648
 C499 C 1.13793 0.36470 0.33201
 C500 C 1.11914 0.33225 0.31551
 C501 C 1.13975 0.31119 0.28770
 C502 C 1.17846 0.32276 0.27481
 C503 C 1.19588 0.35650 0.29021
 C504 C 1.17606 0.37712 0.31849
 C505 C 1.11630 0.38410 0.36319
 C506 C 1.13453 0.41325 0.38369
 C507 C 1.11354 0.42940 0.41301
 C508 C 1.07361 0.41750 0.42229
 C509 C 1.05517 0.38864 0.40205
 C510 C 1.07649 0.37128 0.37312
 C511 C 1.07995 0.32069 0.32688
 C512 C 1.05867 0.34037 0.35469
 H513 H 1.06533 0.29615 0.31396
 H514 H 1.02828 0.33046 0.36236
 H515 H 1.12588 0.28472 0.27697
 H516 H 1.22499 0.36707 0.28052
 H517 H 1.12850 0.45149 0.42837
 H518 H 1.02460 0.37880 0.40927
 H519 H 1.19100 0.40272 0.32932
 H520 H 1.16522 0.42339 0.37783
 C521 C 0.62622 -0.13616 0.33034
 C522 C 0.66043 -0.11786 0.31497
 C523 C 0.68139 -0.13716 0.28632
 C524 C 0.66824 -0.17423 0.27259
 C525 C 0.63406 -0.19184 0.28783
 C526 C 0.61323 -0.17310 0.31608
 C527 C 0.60589 -0.11607 0.36163
 C528 C 0.57297 -0.13322 0.37940
 C529 C 0.55644 -0.11476 0.40931
 C530 C 0.57184 -0.07846 0.42221
 C531 C 0.60372 -0.06019 0.40427
 C532 C 0.62116 -0.07901 0.37432
 C533 C 0.67367 -0.08077 0.32853
 C534 C 0.65432 -0.06164 0.35745
 H535 H 0.69962 -0.06648 0.31673
 H536 H 0.66595 -0.03318 0.36707
 H537 H 0.70786 -0.12345 0.27476
 H538 H 0.62398 -0.22119 0.27851
 H539 H 0.53161 -0.12921 0.42252
 H540 H 0.61584 -0.03209 0.41413
 H541 H 0.58746 -0.18859 0.32649
 H542 H 0.55982 -0.16125 0.37106
 C543 C 0.66301 0.34211 -0.16724
 C544 C 0.63625 0.32759 -0.19222
 C545 C 0.65463 0.30578 -0.22059
 C546 C 0.70000 0.29608 -0.22450
 C547 C 0.72616 0.31336 -0.20057
 C548 C 0.70807 0.33573 -0.17241
 C549 C 0.64202 0.36286 -0.13620
 C550 C 0.66560 0.37767 -0.10928
 C551 C 0.64443 0.39502 -0.08032
 C552 C 0.59937 0.39777 -0.07739
 C553 C 0.57559 0.38403 -0.10436
 C554 C 0.59639 0.36676 -0.13352
 C555 C 0.59116 0.33389 -0.18850
 C556 C 0.57169 0.35291 -0.15975
 H557 H 0.57059 0.32306 -0.20780
 H558 H 0.53673 0.35627 -0.15782
 H559 H 0.63279 0.29652 -0.23956
 H560 H 0.76090 0.30869 -0.20218
 H561 H 0.66346 0.40581 -0.05999
 H562 H 0.54064 0.38652 -0.10259
 H563 H 0.73008 0.34696 -0.15462
 H564 H 0.70035 0.37581 -0.10995
 C565 C 1.14355 0.15885 -0.14580
 C566 C 1.18783 0.14326 -0.15137
 C567 C 1.21224 0.16715 -0.17241
 C568 C 1.19362 0.20713 -0.18777
 C569 C 1.15015 0.22341 -0.18062
 C570 C 1.12540 0.19949 -0.16030
 C571 C 1.11859 0.13258 -0.12306
 C572 C 1.07372 0.14381 -0.11767
 C573 C 1.05269 0.12033 -0.09403
 C574 C 1.07590 0.08523 -0.07526
 C575 C 1.11989 0.07202 -0.08209
 C576 C 1.14126 0.09515 -0.10599
 C577 C 1.20781 0.10460 -0.13515
 C578 C 1.18519 0.08143 -0.11248
 H579 H 1.24178 0.09268 -0.13932
 H580 H 1.20239 0.05240 -0.09976
 H581 H 1.24619 0.15497 -0.17652
 H582 H 1.13490 0.25510 -0.18990
 H583 H 1.01852 0.13069 -0.08955
 H584 H 1.13780 0.04426 -0.06820
 H585 H 1.09243 0.21398 -0.15555
 H586 H 1.05442 0.17085 -0.13110
 C587 C 1.16231 0.65036 0.36269
 C588 C 1.19072 0.62371 0.34144
 C589 C 1.21943 0.64222 0.32022
 C590 C 1.22071 0.68734 0.31988
 C591 C 1.19400 0.71301 0.34256
 C592 C 1.16526 0.69499 0.36356
 C593 C 1.13083 0.62967 0.38376
 C594 C 1.09922 0.65389 0.40383
 C595 C 1.07207 0.63301 0.42434
 C596 C 1.07557 0.58751 0.42536
 C597 C 1.10530 0.56319 0.40406
 C598 C 1.13278 0.58392 0.38325
 C599 C 1.19029 0.57871 0.34141
 C600 C 1.16235 0.55917 0.36220
 H601 H 1.21221 0.55816 0.32529
 H602 H 1.16372 0.52417 0.36161
 H603 H 1.23996 0.62086 0.30399
 H604 H 1.19455 0.74771 0.34329
 H605 H 1.04899 0.65262 0.44018
 H606 H 1.10783 0.52806 0.40429
 H607 H 1.14556 0.71669 0.38013
 H608 H 1.09511 0.68891 0.40432
 C609 C 0.67674 0.13295 0.37347
 C610 C 0.71080 0.15358 0.38573
 C611 C 0.73251 0.17865 0.36336
 C612 C 0.72005 0.18454 0.32875
 C613 C 0.68799 0.16167 0.31655
 C614 C 0.66656 0.13643 0.33842
 C615 C 0.65227 0.10923 0.39847
 C616 C 0.61613 0.09028 0.38883
 C617 C 0.59183 0.07215 0.41321
 C618 C 0.60307 0.07172 0.44782
 C619 C 0.64035 0.08820 0.45781
 C620 C 0.66465 0.10768 0.43335
 C621 C 0.72256 0.14963 0.42034
 C622 C 0.70007 0.12705 0.44362
 H623 H 0.74906 0.16496 0.42972
 H624 H 0.70985 0.12572 0.47019
 H625 H 0.75899 0.19319 0.37340
 H626 H 0.67902 0.16383 0.28980
 H627 H 0.56350 0.05887 0.40491
 H628 H 0.64904 0.08791 0.48459
 H629 H 0.64191 0.12034 0.32727
 H630 H 0.60514 0.09012 0.36279
 C631 C 0.66375 0.64242 -0.14573
 C632 C 0.70376 0.62181 -0.15831
 C633 C 0.72938 0.64550 -0.17862
 C634 C 0.71535 0.68983 -0.18762
 C635 C 0.67579 0.70993 -0.17412
 C636 C 0.65039 0.68678 -0.15387
 C637 C 0.63816 0.61654 -0.12311
 C638 C 0.59863 0.63466 -0.10860
 C639 C 0.57777 0.61046 -0.08553
 C640 C 0.59517 0.56733 -0.07672
 C641 C 0.63322 0.54798 -0.09240
 C642 C 0.65513 0.57247 -0.11516
 C643 C 0.71833 0.57780 -0.15009
 C644 C 0.69450 0.55365 -0.12906
 H645 H 0.74889 0.56183 -0.15980
 H646 H 0.70750 0.51990 -0.12312
 H647 H 0.76067 0.62912 -0.18640
 H648 H 0.66443 0.74424 -0.17919
 H649 H 0.54825 0.62594 -0.07391
 H650 H 0.64690 0.51462 -0.08563
 H651 H 0.62062 0.70457 -0.14466
 H652 H 0.58364 0.66774 -0.11400
 C653 C 0.84390 -0.14100 -0.14466
 C654 C 0.86602 -0.16077 -0.17287
 C655 C 0.84432 -0.18506 -0.19554
 C656 C 0.80216 -0.19341 -0.18829
 C657 C 0.78079 -0.17340 -0.16018
 C658 C 0.80086 -0.14721 -0.13912
 C659 C 0.86815 -0.11720 -0.12017
 C660 C 0.84768 -0.09368 -0.09320
 C661 C 0.87182 -0.07553 -0.06906
 C662 C 0.91714 -0.08014 -0.07089
 C663 C 0.93781 -0.10123 -0.09895
 C664 C 0.91342 -0.11923 -0.12387
 C665 C 0.91034 -0.15867 -0.17668
 C666 C 0.93372 -0.13935 -0.15230
 H667 H 0.92769 -0.17395 -0.19802
 H668 H 0.96825 -0.14029 -0.15572
 H669 H 0.86180 -0.20103 -0.21656
 H670 H 0.74795 -0.17807 -0.15424
 H671 H 0.85473 -0.05855 -0.04833
 H672 H 0.97270 -0.10399 -0.10121
 H673 H 0.78264 -0.13389 -0.11766
 H674 H 0.81301 -0.08899 -0.09013
 C675 C 0.85828 0.35600 0.34341
 C676 C 0.87507 0.31101 0.34329
 C677 C 0.85431 0.28277 0.32420
 C678 C 0.81657 0.29842 0.30549
 C679 C 0.80178 0.34318 0.30326
 C680 C 0.82250 0.37187 0.32192
 C681 C 0.87723 0.38373 0.36842
 C682 C 0.86097 0.42813 0.37271
 C683 C 0.87648 0.45103 0.39913
 C684 C 0.90837 0.43014 0.42187
 C685 C 0.92641 0.38680 0.41660
 C686 C 0.91114 0.36353 0.39031
 C687 C 0.91066 0.29389 0.36397
 C688 C 0.92839 0.31964 0.38694
 H689 H 0.92390 0.25961 0.36338
 H690 H 0.95492 0.30449 0.40329
 H691 H 0.86554 0.24798 0.32590
 H692 H 0.77242 0.35559 0.28901
 H693 H 0.86245 0.48470 0.40246
 H694 H 0.95152 0.37056 0.43379
 H695 H 0.80877 0.40587 0.32050
 H696 H 0.83552 0.44540 0.35658
 C697 C 0.37257 -0.16049 0.34669
 C698 C 0.38266 -0.20638 0.34945
 C699 C 0.36220 -0.23236 0.32780
 C700 C 0.33098 -0.21355 0.30359
 C701 C 0.32343 -0.16824 0.29899
 C702 C 0.34406 -0.14190 0.32019
 C703 C 0.39075 -0.13417 0.37338
 C704 C 0.38022 -0.08859 0.37462
 C705 C 0.39501 -0.06599 0.40146
 C706 C 0.42092 -0.08794 0.42795
 C707 C 0.43298 -0.13321 0.42631
 C708 C 0.41786 -0.15638 0.39951
 C709 C 0.41118 -0.22619 0.37502
 C710 C 0.42853 -0.20177 0.39937
 H711 H 0.41928 -0.26134 0.37685
 H712 H 0.44959 -0.21886 0.41907
 H713 H 0.36818 -0.26748 0.33142
 H714 H 0.29925 -0.15308 0.28066
 H715 H 0.38546 -0.03102 0.40168
 H716 H 0.45315 -0.15063 0.44638
 H717 H 0.33580 -0.10713 0.31640
 H718 H 0.35986 -0.06985 0.35548
 C719 C 0.36633 0.33912 -0.15434
 C720 C 0.36059 0.29625 -0.14480
 C721 C 0.33408 0.27402 -0.16441
 C722 C 0.31381 0.29281 -0.19452
 C723 C 0.32366 0.33329 -0.20617
 C724 C 0.34899 0.35660 -0.18599
 C725 C 0.38986 0.36383 -0.12978
 C726 C 0.39149 0.40882 -0.13357
 C727 C 0.41067 0.43084 -0.10827
 C728 C 0.42937 0.40832 -0.07899
 C729 C 0.42921 0.36336 -0.07573
 C730 C 0.40872 0.34139 -0.10015
 C731 C 0.38061 0.27585 -0.11535
 C732 C 0.40502 0.29763 -0.09393
 H733 H 0.37699 0.24260 -0.10855
 H734 H 0.41952 0.28049 -0.07126
 H735 H 0.32925 0.24159 -0.15605
 H736 H 0.30910 0.34865 -0.22943
 H737 H 0.41034 0.46560 -0.11136
 H738 H 0.44316 0.34561 -0.05311
 H739 H 0.35402 0.38846 -0.19517
 H740 H 0.37679 0.42769 -0.15528
 C741 C 1.16456 -0.16708 0.16392
 C742 C 1.20345 -0.15305 0.17459
 C743 C 1.22753 -0.17429 0.20256
 C744 C 1.21369 -0.21004 0.21953
 C745 C 1.17648 -0.22516 0.20714
 C746 C 1.15221 -0.20401 0.18008
 C747 C 1.13875 -0.14294 0.13508
 C748 C 1.09755 -0.15179 0.12526
 C749 C 1.07501 -0.12924 0.09783
 C750 C 1.09287 -0.09740 0.07918
 C751 C 1.13344 -0.08736 0.08931
 C752 C 1.15609 -0.10937 0.11750
 C753 C 1.21817 -0.11847 0.15687
 C754 C 1.19547 -0.09770 0.12857
 H755 H 1.24809 -0.10776 0.16464
 H756 H 1.20865 -0.07165 0.11544
 H757 H 1.25673 -0.16284 0.21116
 H758 H 1.16610 -0.25416 0.21798
 H759 H 1.04357 -0.13723 0.09092
 H760 H 1.14708 -0.06206 0.07555
 H761 H 1.12432 -0.21772 0.17185
 H762 H 1.08186 -0.17569 0.13861
 C763 C 1.15986 0.35253 0.65901
 C764 C 1.17643 0.37865 0.68340
 C765 C 1.19918 0.35906 0.71233
 C766 C 1.20558 0.31380 0.71705
 C767 C 1.19097 0.28801 0.69215
 C768 C 1.16859 0.30697 0.66342
 C769 C 1.13330 0.37452 0.62975
 C770 C 1.11281 0.35148 0.60563
 C771 C 1.08839 0.37342 0.57879
 C772 C 1.08381 0.41880 0.57522
 C773 C 1.10336 0.44215 0.59947
 C774 C 1.12773 0.42045 0.62673
 C775 C 1.16957 0.42402 0.67897
 C776 C 1.14614 0.44445 0.65105
 H777 H 1.18246 0.44408 0.69741
 H778 H 1.14182 0.47966 0.64873
 H779 H 1.21066 0.37891 0.73163
 H780 H 1.19571 0.25294 0.69554
 H781 H 1.07342 0.35472 0.56054
 H782 H 1.09956 0.47735 0.59720
 H783 H 1.15792 0.28532 0.64535
 H784 H 1.11501 0.31656 0.60702
 C785 C 0.67376 -0.16179 0.65950
 C786 C 0.71857 -0.16146 0.66419
 C787 C 0.74013 -0.18172 0.69364
 C788 C 0.71721 -0.20206 0.71882
 C789 C 0.67161 -0.19665 0.71523
 C790 C 0.65045 -0.17750 0.68615
 C791 C 0.65223 -0.14329 0.62706
 C792 C 0.60962 -0.14853 0.61843
 C793 C 0.58950 -0.12833 0.58925
 C794 C 0.61113 -0.10230 0.56769
 C795 C 0.65495 -0.09954 0.57464
 C796 C 0.67584 -0.12057 0.60402
 C797 C 0.74108 -0.14039 0.63959
 C798 C 0.71989 -0.11931 0.61066
 H799 H 0.77535 -0.13935 0.64310
 H800 H 0.73846 -0.10249 0.59295
 H801 H 0.77454 -0.18194 0.69607
 H802 H 0.65121 -0.20667 0.73507
 H803 H 0.55612 -0.13201 0.58420
 H804 H 0.67236 -0.08029 0.55782
 H805 H 0.61557 -0.17469 0.68528
 H806 H 0.59118 -0.16801 0.63398
 C807 C 0.65646 0.33307 0.17074
 C808 C 0.68914 0.35198 0.18734
 C809 C 0.71110 0.33090 0.21601
 C810 C 0.70026 0.29164 0.22904
 C811 C 0.66670 0.27388 0.21340
 C812 C 0.64509 0.29420 0.18464
 C813 C 0.63559 0.35525 0.13903
 C814 C 0.60553 0.33721 0.11897
 C815 C 0.58777 0.35873 0.08922
 C816 C 0.59908 0.39893 0.07890
 C817 C 0.62878 0.41729 0.09876
 C818 C 0.64759 0.39550 0.12828
 C819 C 0.69974 0.39172 0.17517
 C820 C 0.67897 0.41331 0.14658
 H821 H 0.72442 0.40646 0.18802
 H822 H 0.68827 0.44406 0.13828
 H823 H 0.73667 0.34505 0.22823
 H824 H 0.65803 0.24332 0.22275
 H825 H 0.56490 0.34396 0.07432
 H826 H 0.63807 0.44819 0.09079
 H827 H 0.61984 0.27877 0.17362
 H828 H 0.59575 0.30629 0.12551
 C829 C 0.85459 0.15402 0.16721
 C830 C 0.81629 0.13931 0.17851
 C831 C 0.79502 0.15724 0.20728
 C832 C 0.81064 0.19060 0.22459
 C833 C 0.84773 0.20611 0.21284
 C834 C 0.86969 0.18793 0.18462
 C835 C 0.87678 0.13341 0.13676
 C836 C 0.91676 0.14328 0.12511
 C837 C 0.93602 0.12347 0.09652
 C838 C 0.91581 0.09366 0.07855
 C839 C 0.87622 0.08319 0.09006
 C840 C 0.85699 0.10222 0.11931
 C841 C 0.79899 0.10745 0.16070
 C842 C 0.81855 0.08977 0.13144
 H843 H 0.76950 0.09641 0.16925
 H844 H 0.80360 0.06563 0.11831
 H845 H 0.76554 0.14603 0.21571
 H846 H 0.86004 0.23206 0.22577
 H847 H 0.96676 0.13184 0.08828
 H848 H 0.86076 0.05966 0.07659
 H849 H 0.89803 0.20125 0.17667
 H850 H 0.93396 0.16582 0.13785
 C851 C 0.86815 0.66567 0.66787
 C852 C 0.86207 0.63952 0.69684
 C853 C 0.84463 0.65881 0.72649
 C854 C 0.82949 0.70398 0.72736
 C855 C 0.84009 0.73000 0.69968
 C856 C 0.85893 0.71121 0.67039
 C857 C 0.88246 0.64353 0.63554
 C858 C 0.88850 0.66654 0.60499
 C859 C 0.89924 0.64440 0.57510
 C860 C 0.90374 0.59886 0.57475
 C861 C 0.89884 0.57554 0.60513
 C862 C 0.88857 0.59744 0.63545
 C863 C 0.87127 0.59407 0.69561
 C864 C 0.88390 0.57347 0.66550
 H865 H 0.86703 0.57401 0.71796
 H866 H 0.88927 0.53821 0.66560
 H867 H 0.84145 0.63779 0.74845
 H868 H 0.83220 0.76488 0.69920
 H869 H 0.90349 0.66308 0.55203
 H870 H 0.90319 0.54027 0.60521
 H871 H 0.86440 0.73295 0.64957
 H872 H 0.88479 0.70157 0.60353
 C873 C 0.32765 0.16764 0.65184
 C874 C 0.35037 0.19587 0.67005
 C875 C 0.33238 0.21547 0.69971
 C876 C 0.29208 0.20695 0.71149
 C877 C 0.26913 0.18037 0.69240
 C878 C 0.28644 0.16112 0.66310
 C879 C 0.34859 0.14537 0.62158
 C880 C 0.32960 0.11449 0.60358
 C881 C 0.35112 0.09275 0.57678
 C882 C 0.39199 0.10134 0.56673
 C883 C 0.41083 0.13304 0.58372
 C884 C 0.38975 0.15453 0.61148
 C885 C 0.39094 0.20388 0.65864
 C886 C 0.41003 0.18394 0.62985
 H887 H 0.40834 0.22571 0.67230
 H888 H 0.44159 0.19097 0.62228
 H889 H 0.35014 0.23641 0.71401
 H890 H 0.23718 0.17460 0.69993
 H891 H 0.33576 0.06859 0.56403
 H892 H 0.44251 0.13970 0.57625
 H893 H 0.26684 0.14124 0.64979
 H894 H 0.29860 0.10569 0.61016
 C895 C 0.35084 0.64250 0.15604
 C896 C 0.36710 0.67939 0.16807
 C897 C 0.34923 0.70027 0.19733
 C898 C 0.31457 0.68531 0.21422
 C899 C 0.29685 0.65061 0.20042
 C900 C 0.31474 0.62939 0.17206
 C901 C 0.37199 0.61944 0.12619
 C902 C 0.36144 0.57956 0.11531
 C903 C 0.38184 0.55916 0.08741
 C904 C 0.41306 0.57799 0.06929
 C905 C 0.42435 0.61751 0.08014
 C906 C 0.40473 0.63781 0.10894
 C907 C 0.40058 0.69531 0.15047
 C908 C 0.41827 0.67557 0.12111
 H909 H 0.41287 0.72385 0.15923
 H910 H 0.44354 0.68961 0.10812
 H911 H 0.36259 0.72769 0.20706
 H912 H 0.26847 0.63981 0.21131
 H913 H 0.37289 0.52849 0.07986
 H914 H 0.44907 0.63189 0.06669
 H915 H 0.29930 0.60322 0.16280
 H916 H 0.33808 0.56309 0.12833
   
