data_POSCAR
  _audit_creation_date              2014-09-24
  _audit_creation_method            'ToBaCCo'
  _symmetry_space_group_name_H-M    'P1'
  _symmetry_Int_Tables_number       1
  _symmetry_cell_setting            triclinic
  loop_
  _symmetry_equiv_pos_as_xyz
 x,y,z
_cell_length_a 32.8953
_cell_length_b 32.0709
_cell_length_c 7.1501
_cell_angle_alpha 89.613900
_cell_angle_beta 89.108200
_cell_angle_gamma 90.030100
loop_
  _atom_site_label
  _atom_site_type_symbol
  _atom_site_fract_x
  _atom_site_fract_y
  _atom_site_fract_z
C1 C 0.37632 0.27223 0.23255
 C2 C 0.37683 0.22955 0.22957
 C3 C 0.33708 0.21634 0.26131
 N4 N 0.31228 0.24967 0.28096
 C5 C 0.33626 0.28381 0.26312
 C6 C 0.32471 0.17406 0.27907
 C7 C 0.28318 0.16168 0.27813
 C8 C 0.26885 0.12293 0.33619
 C9 C 0.22769 0.12268 0.30830
 C10 C 0.21740 0.16169 0.23804
 N11 N 0.25157 0.18512 0.21865
 C12 C 0.17803 0.17338 0.17728
 C13 C 0.16665 0.21543 0.14314
 C14 C 0.12891 0.22825 0.07969
 C15 C 0.12878 0.27091 0.08297
 C16 C 0.16626 0.28305 0.14959
 N17 N 0.18914 0.24912 0.18830
 C18 C 0.17740 0.32479 0.18596
 C19 C 0.21642 0.33688 0.24517
 C20 C 0.22624 0.37606 0.31231
 C21 C 0.26747 0.37616 0.34112
 C22 C 0.28173 0.33717 0.28950
 N23 N 0.25049 0.31352 0.23055
 C24 C 0.32304 0.32532 0.28641
 H25 H 0.40245 0.29246 0.21397
 H26 H 0.40352 0.21042 0.20692
 H27 H 0.25306 0.28502 0.16354
 H28 H 0.28618 0.09724 0.39273
 H29 H 0.20798 0.09630 0.33568
 H30 H 0.10338 0.20908 0.04082
 H31 H 0.10345 0.29061 0.04530
 H32 H 0.28501 0.40225 0.39118
 H33 H 0.25392 0.21360 0.14916
 H34 H 0.20602 0.40215 0.33588
 C35 C 0.87398 0.22811 0.13812
 C36 C 0.87432 0.27083 0.14201
 C37 C 0.83596 0.28314 0.20276
 N38 N 0.81240 0.24935 0.23809
 C39 C 0.83540 0.21569 0.19612
 C40 C 0.82404 0.32494 0.23273
 C41 C 0.78404 0.33690 0.28267
 C42 C 0.77291 0.37609 0.34630
 C43 C 0.73120 0.37614 0.36343
 C44 C 0.71802 0.33711 0.30794
 N45 N 0.75039 0.31348 0.25869
 C46 C 0.67688 0.32528 0.29185
 C47 C 0.66408 0.28393 0.26158
 C48 C 0.62461 0.27253 0.22091
 C49 C 0.62403 0.22985 0.21616
 C50 C 0.66307 0.21648 0.25699
 N51 N 0.68755 0.24969 0.28386
 C52 C 0.67487 0.17417 0.27813
 C53 C 0.71628 0.16162 0.28582
 C54 C 0.72962 0.12270 0.34566
 C55 C 0.77127 0.12268 0.32879
 C56 C 0.78250 0.16182 0.26327
 N57 N 0.74887 0.18528 0.23600
 C58 C 0.82284 0.17384 0.21901
 H59 H 0.89943 0.20846 0.09901
 H60 H 0.90007 0.29050 0.10627
 H61 H 0.74807 0.21409 0.16886
 H62 H 0.79265 0.40220 0.37492
 H63 H 0.71268 0.40227 0.40751
 H64 H 0.59888 0.29286 0.19785
 H65 H 0.59772 0.21081 0.18720
 H66 H 0.79102 0.09682 0.36245
 H67 H 0.74924 0.28503 0.19080
 H68 H 0.71137 0.09691 0.39748
 C69 C 0.87574 0.73022 0.72561
 C70 C 0.87514 0.77288 0.72886
 C71 C 0.83543 0.78433 0.76948
 N72 N 0.81178 0.75013 0.79347
 C73 C 0.83645 0.71689 0.76755
 C74 C 0.82239 0.82581 0.79563
 C75 C 0.78114 0.83769 0.80819
 C76 C 0.76750 0.87685 0.86104
 C77 C 0.72597 0.87675 0.84182
 C78 C 0.71536 0.83740 0.77957
 N79 N 0.74922 0.81395 0.75804
 C80 C 0.67570 0.82523 0.73001
 C81 C 0.66410 0.78335 0.70090
 C82 C 0.62623 0.77082 0.63989
 C83 C 0.62661 0.72809 0.63796
 C84 C 0.66472 0.71586 0.69765
 N85 N 0.68739 0.74966 0.73839
 C86 C 0.67700 0.67406 0.72410
 C87 C 0.71697 0.66219 0.77057
 C88 C 0.72764 0.62322 0.83853
 C89 C 0.76914 0.62330 0.85670
 C90 C 0.78297 0.66209 0.79559
 N91 N 0.75084 0.68562 0.74345
 C92 C 0.82445 0.67459 0.78837
 H93 H 0.90217 0.71117 0.69568
 H94 H 0.90098 0.79319 0.70363
 H95 H 0.75227 0.71425 0.67477
 H96 H 0.78563 0.90304 0.90550
 H97 H 0.70602 0.90292 0.86850
 H98 H 0.60075 0.79035 0.60253
 H99 H 0.60148 0.70833 0.59903
 H100 H 0.78697 0.59765 0.91015
 H101 H 0.75100 0.78534 0.69147
 H102 H 0.70765 0.59740 0.87288
 C103 C 0.37468 0.77128 0.82588
 C104 C 0.37470 0.72850 0.82553
 C105 C 0.33519 0.71626 0.78935
 N106 N 0.31112 0.74995 0.76809
 C107 C 0.33514 0.78359 0.79030
 C108 C 0.32298 0.67498 0.75461
 C109 C 0.28210 0.66321 0.72747
 C110 C 0.27012 0.62517 0.65559
 C111 C 0.22840 0.62499 0.65792
 C112 C 0.21593 0.66287 0.73193
 N113 N 0.24885 0.68607 0.77382
 C114 C 0.17488 0.67408 0.76742
 C115 C 0.16249 0.71609 0.79199
 C116 C 0.12528 0.72831 0.86729
 C117 C 0.12524 0.77095 0.86840
 C118 C 0.16243 0.78369 0.79388
 N119 N 0.18532 0.75005 0.74773
 C120 C 0.17477 0.82585 0.77180
 C121 C 0.21581 0.83728 0.73685
 C122 C 0.22827 0.87553 0.66417
 C123 C 0.26998 0.87534 0.66118
 C124 C 0.28198 0.83693 0.73131
 N125 N 0.24874 0.81387 0.77735
 C126 C 0.32288 0.82500 0.75685
 H127 H 0.40097 0.79106 0.84422
 H128 H 0.40100 0.70870 0.84365
 H129 H 0.24835 0.78568 0.85004
 H130 H 0.28941 0.60003 0.60685
 H131 H 0.20934 0.59973 0.61099
 H132 H 0.10104 0.70860 0.92124
 H133 H 0.10096 0.79030 0.92328
 H134 H 0.28926 0.90072 0.61304
 H135 H 0.24841 0.71384 0.84794
 H136 H 0.20920 0.90099 0.61824
 O137 O 0.95968 -0.02692 -0.21632
 O138 O 1.04005 0.04878 -0.10784
 O139 O 1.03869 -0.02730 -0.23335
 O140 O 0.96058 0.04878 -0.09493
 O141 O 0.96142 0.02731 0.19850
 O142 O 1.04210 -0.04680 0.06283
 O143 O 1.04096 0.02863 0.18744
 O144 O 0.96273 -0.04894 0.07583
 Cu145 Cu 0.99967 0.01355 -0.19133
 Cu146 Cu 1.00188 -0.01255 0.15957
 C147 C 0.94754 -0.05124 -0.08588
 C148 C 1.05434 0.05182 0.05548
 C149 C 1.05397 -0.04987 -0.10607
 C150 C 0.94711 0.05088 0.07188
 O151 O 0.45948 0.47331 0.30982
 O152 O 0.54000 0.54765 0.42985
 O153 O 0.53897 0.47187 0.30802
 O154 O 0.46093 0.54927 0.43650
 O155 O 0.45947 0.52722 0.72914
 O156 O 0.53823 0.45073 0.60204
 O157 O 0.53898 0.52684 0.72443
 O158 O 0.45931 0.45129 0.60245
 Cu159 Cu 0.49981 0.51312 0.34275
 Cu160 Cu 0.49886 0.48646 0.69295
 C161 C 0.44576 0.44915 0.43753
 C162 C 0.55341 0.55010 0.59478
 C163 C 0.55216 0.44800 0.43612
 C164 C 0.44681 0.55169 0.60228
 O165 O -0.03706 0.55015 0.06980
 O166 O 0.03966 0.47135 0.18916
 O167 O 0.04211 0.54669 0.06032
 O168 O -0.03964 0.47372 0.19946
 O169 O -0.03981 0.45139 -0.09145
 O170 O 0.03787 0.52788 -0.23538
 O171 O 0.03952 0.45188 -0.10612
 O172 O -0.04124 0.52692 -0.21899
 Cu173 Cu 0.00127 0.51311 0.15811
 Cu174 Cu -0.00104 0.48682 -0.19109
 C175 C -0.05252 0.55199 -0.09158
 C176 C 0.05333 0.44848 0.05812
 C177 C 0.05367 0.55000 -0.10911
 C178 C -0.05350 0.44963 0.07514
 O179 O 0.53902 1.02732 0.29327
 O180 O 0.46065 0.95045 0.42900
 O181 O 0.45922 1.02632 0.29775
 O182 O 0.53958 0.95180 0.42228
 O183 O 0.53891 0.97320 0.71474
 O184 O 0.45976 1.04894 0.58838
 O185 O 0.45938 0.97292 0.71968
 O186 O 0.53807 1.04932 0.58506
 Cu187 Cu 0.49957 0.98638 0.33229
 Cu188 Cu 0.49896 1.01357 0.68044
 C189 C 0.55186 1.05171 0.41867
 C190 C 0.44661 0.94830 0.59507
 C191 C 0.44610 1.05090 0.42363
 C192 C 0.55304 0.94958 0.58731
 C193 C 1.13153 0.11961 0.30062
 C194 C 1.14875 0.14200 0.14911
 C195 C 1.13492 0.13418 -0.03215
 C196 C 1.10442 0.10486 -0.06164
 C197 C 1.08698 0.08255 0.08941
 C198 C 1.10103 0.09002 0.27090
 H199 H 1.14111 0.12565 0.44221
 H200 H 1.14771 0.15103 -0.15112
 H201 H 1.09446 0.09975 -0.20333
 H202 H 1.08811 0.07340 0.39004
 C203 C 0.63782 0.62839 0.51306
 C204 C 0.64651 0.64076 0.69545
 C205 C 0.62532 0.62254 0.84712
 C206 C 0.59546 0.59228 0.81591
 C207 C 0.58609 0.58046 0.63243
 C208 C 0.60778 0.59871 0.48164
 H209 H 0.65391 0.64228 0.39484
 H210 H 0.63174 0.63197 0.98888
 H211 H 0.57921 0.57880 0.93457
 H212 H 0.60149 0.59012 0.33870
 C213 C -0.12485 0.37714 0.34461
 C214 C -0.14554 0.35821 0.19739
 C215 C -0.13675 0.37017 0.01260
 C216 C -0.10710 0.40014 -0.02564
 C217 C -0.08587 0.41907 0.12054
 C218 C -0.09532 0.40768 0.30648
 H219 H -0.13142 0.36807 0.48813
 H220 H -0.15255 0.35581 -0.10221
 H221 H -0.10073 0.40843 -0.17029
 H222 H -0.07940 0.42172 0.42163
 C223 C 0.36676 0.88447 0.85884
 C224 C 0.35500 0.85644 0.72003
 C225 C 0.37337 0.85847 0.54237
 C226 C 0.40309 0.88833 0.50279
 C227 C 0.41517 0.91667 0.64071
 C228 C 0.39682 0.91437 0.81966
 H229 H 0.35269 0.88315 0.99676
 H230 H 0.36440 0.83703 0.43398
 H231 H 0.41656 0.88919 0.36359
 H232 H 0.40551 0.93575 0.92864
 C233 C -0.14324 0.60796 -0.29594
 C234 C -0.14497 0.64417 -0.18553
 C235 C -0.11565 0.64965 -0.04657
 C236 C -0.08574 0.61968 -0.01735
 C237 C -0.08384 0.58379 -0.12836
 C238 C -0.11260 0.57831 -0.26921
 H239 H -0.16514 0.60304 -0.40529
 H240 H -0.11654 0.67676 0.04309
 H241 H -0.06394 0.62469 0.09228
 H242 H -0.11181 0.55081 -0.35629
 C243 C 0.35768 1.10736 0.20022
 C244 C 0.35488 1.14345 0.31118
 C245 C 0.38256 1.14854 0.45729
 C246 C 0.41194 1.11836 0.49270
 C247 C 0.41500 1.08262 0.38104
 C248 C 0.38786 1.07750 0.23324
 H249 H 0.33702 1.10272 0.08567
 H250 H 0.38078 1.17552 0.54752
 H251 H 0.43250 1.12315 0.60748
 H252 H 0.38957 1.05016 0.14538
 C253 C 1.10907 -0.14259 -0.30940
 C254 C 1.14554 -0.14205 -0.20843
 C255 C 1.15221 -0.10926 -0.08250
 C256 C 1.12246 -0.07901 -0.05173
 C257 C 1.08616 -0.07991 -0.15140
 C258 C 1.07990 -0.11131 -0.28322
 H259 H 1.10334 -0.16703 -0.40953
 H260 H 1.17972 -0.10815 -0.00126
 H261 H 1.12762 -0.05499 0.05106
 H262 H 1.05188 -0.11245 -0.36064
 C263 C 0.62735 0.36030 0.50361
 C264 C 0.64516 0.35717 0.32533
 C265 C 0.63242 0.38378 0.18117
 C266 C 0.60197 0.41338 0.21579
 C267 C 0.58408 0.41671 0.39520
 C268 C 0.59718 0.38983 0.53851
 H269 H 0.63692 0.33984 0.61584
 H270 H 0.64591 0.38147 0.04239
 H271 H 0.59251 0.43363 0.10273
 H272 H 0.58410 0.39151 0.67829
 C273 C 0.87312 -0.13962 -0.00319
 C274 C 0.85392 -0.14199 -0.17607
 C275 C 0.86539 -0.11453 -0.32105
 C276 C 0.89602 -0.08497 -0.29308
 C277 C 0.91537 -0.08248 -0.11933
 C278 C 0.90347 -0.11010 0.02524
 H279 H 0.86456 -0.16073 0.10970
 H280 H 0.85085 -0.11626 -0.45571
 H281 H 0.90450 -0.06414 -0.40701
 H282 H 0.91768 -0.10904 0.16075
 C283 C 0.37094 0.36028 0.50092
 C284 C 0.35414 0.35758 0.32276
 C285 C 0.36712 0.38522 0.18108
 C286 C 0.39694 0.41518 0.21744
 C287 C 0.41394 0.41796 0.39640
 C288 C 0.40046 0.39023 0.53774
 H289 H 0.36111 0.33914 0.61151
 H290 H 0.35439 0.38334 0.04254
 H291 H 0.40669 0.43605 0.10576
 H292 H 0.41284 0.39147 0.67707
 C293 C 0.15239 0.60852 -0.08901
 C294 C 0.14569 0.64185 -0.21396
 C295 C 0.10913 0.64289 -0.31422
 C296 C 0.07981 0.61168 -0.28757
 C297 C 0.08607 0.57980 -0.15623
 C298 C 0.12252 0.57829 -0.05791
 H299 H 0.17999 0.60698 -0.00850
 H300 H 0.10340 0.66775 -0.41373
 H301 H 0.05166 0.61329 -0.36388
 H302 H 0.12767 0.55388 0.04453
 C303 C 0.64246 1.10749 0.19832
 C304 C 0.64404 1.14393 0.30712
 C305 C 0.61447 1.14975 0.44876
 C306 C 0.58457 1.11980 0.48286
 C307 C 0.58290 1.08359 0.37419
 C308 C 0.61176 1.07784 0.22991
 H309 H 0.66458 1.10234 0.08701
 H310 H 0.61522 1.17706 0.53714
 H311 H 0.56264 1.12502 0.59486
 H312 H 0.61112 1.05007 0.14467
 C313 C 0.12525 0.37527 0.30830
 C314 C 0.14656 0.35775 0.15653
 C315 C 0.13768 0.37058 -0.02591
 C316 C 0.10739 0.40009 -0.05703
 C317 C 0.08575 0.41771 0.09410
 C318 C 0.09524 0.40536 0.27742
 H319 H 0.13178 0.36549 0.45000
 H320 H 0.15388 0.35723 -0.14426
 H321 H 0.10096 0.40914 -0.19977
 H322 H 0.07903 0.41840 0.39637
 C323 C 0.63651 0.87025 0.51390
 C324 C 0.64515 0.85831 0.69767
 C325 C 0.62422 0.87714 0.84734
 C326 C 0.59468 0.90758 0.81280
 C327 C 0.58539 0.91900 0.62803
 C328 C 0.60679 0.90013 0.47922
 H329 H 0.65249 0.85596 0.39721
 H330 H 0.63066 0.86812 0.99010
 H331 H 0.57863 0.92154 0.92996
 H332 H 0.60053 0.90839 0.33537
 C333 C 0.87464 0.12256 0.33520
 C334 C 0.85339 0.14066 0.18651
 C335 C 0.86225 0.12847 0.00287
 C336 C 0.89252 0.09911 -0.03290
 C337 C 0.91432 0.08102 0.11471
 C338 C 0.90477 0.09262 0.29963
 H339 H 0.86810 0.13188 0.47784
 H340 H 0.84610 0.14229 -0.11304
 H341 H 0.89892 0.09065 -0.17680
 H342 H 0.92109 0.07922 0.41585
 C343 C 0.36720 0.61595 0.86110
 C344 C 0.35511 0.64356 0.71964
 C345 C 0.37322 0.64115 0.54159
 C346 C 0.40299 0.61130 0.50434
 C347 C 0.41537 0.58337 0.64505
 C348 C 0.39727 0.58607 0.82426
 H349 H 0.35337 0.61759 0.99936
 H350 H 0.36404 0.66226 0.43108
 H351 H 0.41623 0.61010 0.36482
 H352 H 0.40617 0.56502 0.93541
   
