data_POSCAR
  _audit_creation_date              2014-09-24
  _audit_creation_method            'ToBaCCo'
  _symmetry_space_group_name_H-M    'P1'
  _symmetry_Int_Tables_number       1
  _symmetry_cell_setting            triclinic
  loop_
  _symmetry_equiv_pos_as_xyz
 x,y,z
_cell_length_a 39.6870
_cell_length_b 39.6342
_cell_length_c 40.0016
_cell_angle_alpha 90.183100
_cell_angle_beta 90.302600
_cell_angle_gamma 89.653100
loop_
  _atom_site_label
  _atom_site_type_symbol
  _atom_site_fract_x
  _atom_site_fract_y
  _atom_site_fract_z
N1 N 0.15770 0.23835 0.24375
 N2 N 0.16703 0.21224 0.26180
 C3 C 0.14482 0.20817 0.28682
 C4 C 0.12008 0.23280 0.28401
 C5 C 0.12925 0.25163 0.25646
 H6 H 0.14599 0.18840 0.30536
 H7 H 0.11629 0.27333 0.24625
 Cu8 Cu 0.20635 0.18546 0.24950
 Cu9 Cu 0.18272 0.25316 0.20482
 Cu10 Cu 0.25352 0.20641 0.18326
 N11 N 0.24607 0.15927 0.23729
 N12 N 0.26432 0.16767 0.21131
 C13 C 0.28972 0.14533 0.20786
 C14 C 0.28756 0.12181 0.23324
 C15 C 0.25927 0.13119 0.25119
 H16 H 0.30801 0.14575 0.18794
 H17 H 0.24888 0.11815 0.27244
 N18 N 0.23834 0.24651 0.15814
 N19 N 0.21134 0.26419 0.16639
 C20 C 0.20746 0.28976 0.14462
 C21 C 0.23349 0.28844 0.12182
 C22 C 0.25233 0.26042 0.13087
 H23 H 0.18701 0.30787 0.14506
 H24 H 0.27447 0.25083 0.11830
 H25 H 0.20242 0.20637 0.19233
 H26 H 0.22891 0.23380 0.21975
 N27 N 0.66227 0.74265 0.74765
 N28 N 0.67074 0.71568 0.76488
 C29 C 0.64791 0.71100 0.78919
 C30 C 0.62360 0.73607 0.78673
 C31 C 0.63372 0.75587 0.76022
 H32 H 0.64824 0.69041 0.80685
 H33 H 0.62119 0.77805 0.75047
 Cu34 Cu 0.70943 0.68827 0.75210
 Cu35 Cu 0.68785 0.75796 0.70923
 Cu36 Cu 0.75691 0.70930 0.68638
 N37 N 0.74851 0.66135 0.73942
 N38 N 0.76681 0.66987 0.71353
 C39 C 0.79164 0.64708 0.70940
 C40 C 0.78914 0.62310 0.73426
 C41 C 0.76118 0.63268 0.75264
 H42 H 0.80984 0.64757 0.68940
 H43 H 0.75068 0.61945 0.77372
 N44 N 0.74289 0.75014 0.66215
 N45 N 0.71698 0.76905 0.67111
 C46 C 0.71353 0.79455 0.64918
 C47 C 0.73814 0.79126 0.62503
 C48 C 0.75644 0.76294 0.63421
 H49 H 0.69394 0.81361 0.64993
 H50 H 0.77780 0.75214 0.62135
 H51 H 0.70567 0.71091 0.69562
 H52 H 0.73320 0.73673 0.72359
 N53 N 0.33897 0.75677 0.74490
 N54 N 0.32794 0.78041 0.76522
 C55 C 0.35025 0.78431 0.79042
 C56 C 0.37679 0.76200 0.78551
 C57 C 0.36864 0.74485 0.75636
 H58 H 0.34773 0.80236 0.81060
 H59 H 0.38309 0.72525 0.74417
 Cu60 Cu 0.28597 0.80435 0.75626
 Cu61 Cu 0.31422 0.74322 0.70502
 Cu62 Cu 0.24462 0.79154 0.68339
 N63 N 0.25125 0.83527 0.74048
 N64 N 0.23474 0.82991 0.71242
 C65 C 0.21224 0.85504 0.70775
 C66 C 0.21521 0.87778 0.73400
 C67 C 0.24005 0.86411 0.75452
 H68 H 0.19524 0.85696 0.68661
 H69 H 0.24924 0.87413 0.77798
 N70 N 0.25917 0.75163 0.65746
 N71 N 0.28587 0.73343 0.66572
 C72 C 0.28980 0.70846 0.64320
 C73 C 0.26414 0.71071 0.61978
 C74 C 0.24542 0.73866 0.62937
 H75 H 0.31014 0.69021 0.64350
 H76 H 0.22361 0.74890 0.61657
 H77 H 0.29460 0.79130 0.69757
 H78 H 0.26649 0.76007 0.71839
 N79 N 0.83720 0.25428 0.24738
 N80 N 0.82684 0.27867 0.26719
 C81 C 0.84955 0.28291 0.29197
 C82 C 0.87576 0.26009 0.28727
 C83 C 0.86683 0.24220 0.25873
 H84 H 0.84759 0.30160 0.31164
 H85 H 0.88070 0.22208 0.24673
 Cu86 Cu 0.78530 0.30328 0.25803
 Cu87 Cu 0.81242 0.24064 0.20757
 Cu88 Cu 0.74352 0.28977 0.18570
 N89 N 0.75017 0.33391 0.24244
 N90 N 0.73338 0.32800 0.21465
 C91 C 0.71050 0.35273 0.20996
 C92 C 0.71338 0.37570 0.23590
 C93 C 0.73873 0.36282 0.25622
 H94 H 0.69334 0.35432 0.18893
 H95 H 0.74814 0.37349 0.27932
 N96 N 0.75800 0.25001 0.15970
 N97 N 0.78409 0.23106 0.16818
 C98 C 0.78801 0.20650 0.14515
 C99 C 0.76348 0.21040 0.12078
 C100 C 0.74476 0.23815 0.13097
 H101 H 0.80766 0.18750 0.14553
 H102 H 0.72321 0.24911 0.11840
 H103 H 0.79382 0.28883 0.19956
 H104 H 0.76533 0.25842 0.22100
 N105 N 0.83547 0.74677 0.25344
 N106 N 0.82496 0.72192 0.23431
 C107 C 0.84690 0.71745 0.20909
 C108 C 0.87268 0.74059 0.21277
 C109 C 0.86444 0.75888 0.24116
 H110 H 0.84481 0.69828 0.18990
 H111 H 0.87853 0.77917 0.25249
 Cu112 Cu 0.78455 0.69678 0.24496
 Cu113 Cu 0.81187 0.76068 0.29369
 Cu114 Cu 0.74608 0.71011 0.31878
 N115 N 0.75153 0.66547 0.26237
 N116 N 0.73623 0.67107 0.29092
 C117 C 0.71428 0.64603 0.29658
 C118 C 0.71628 0.62317 0.27047
 C119 C 0.73998 0.63651 0.24899
 H120 H 0.69792 0.64451 0.31805
 H121 H 0.74785 0.62627 0.22519
 N122 N 0.76000 0.75077 0.34349
 N123 N 0.78482 0.77032 0.33371
 C124 C 0.78870 0.79549 0.35607
 C125 C 0.76547 0.79138 0.38134
 C126 C 0.74755 0.76285 0.37241
 H127 H 0.80754 0.81502 0.35466
 H128 H 0.72715 0.75145 0.38599
 H129 H 0.79556 0.71212 0.30283
 H130 H 0.76483 0.74155 0.28223
 N131 N 0.34447 0.24401 -0.24613
 N132 N 0.33960 0.21402 -0.25932
 C133 C 0.36123 0.20941 -0.28473
 C134 C 0.38045 0.23827 -0.28808
 C135 C 0.36936 0.25956 -0.26276
 H136 H 0.36341 0.18647 -0.29931
 H137 H 0.37942 0.28398 -0.25612
 Cu138 Cu 0.30653 0.18301 -0.24149
 Cu139 Cu 0.31974 0.25949 -0.20696
 Cu140 Cu 0.25388 0.20937 -0.18088
 N141 N 0.26568 0.15856 -0.23075
 N142 N 0.24507 0.16901 -0.20726
 C143 C 0.21924 0.14729 -0.20498
 C144 C 0.22395 0.12175 -0.22819
 C145 C 0.25372 0.12982 -0.24420
 H146 H 0.19866 0.14957 -0.18749
 H147 H 0.26594 0.11597 -0.26407
 N148 N 0.26693 0.25117 -0.15761
 N149 N 0.29176 0.27054 -0.16779
 C150 C 0.29495 0.29671 -0.14647
 C151 C 0.27081 0.29380 -0.12182
 C152 C 0.25379 0.26442 -0.12949
 H153 H 0.31411 0.31587 -0.14814
 H154 H 0.23370 0.25329 -0.11518
 H155 H 0.30542 0.21314 -0.18827
 H156 H 0.27728 0.23269 -0.22069
 N157 N 0.65884 0.25895 -0.25140
 N158 N 0.67166 0.28156 -0.27157
 C159 C 0.65084 0.28583 -0.29793
 C160 C 0.62355 0.26445 -0.29423
 C161 C 0.62938 0.24814 -0.26414
 H162 H 0.65491 0.30381 -0.31773
 H163 H 0.61312 0.22997 -0.25229
 Cu164 Cu 0.71369 0.30443 -0.26124
 Cu165 Cu 0.68105 0.24547 -0.21001
 Cu166 Cu 0.74851 0.29408 -0.18498
 N167 N 0.74808 0.33481 -0.24413
 N168 N 0.76079 0.33121 -0.21395
 C169 C 0.78343 0.35569 -0.20829
 C170 C 0.78548 0.37548 -0.23659
 C171 C 0.76244 0.36164 -0.25882
 H172 H 0.79774 0.35876 -0.18541
 H173 H 0.75623 0.37057 -0.28361
 N174 N 0.73256 0.25521 -0.15925
 N175 N 0.70713 0.23622 -0.16896
 C176 C 0.70313 0.21116 -0.14666
 C177 C 0.72706 0.21472 -0.12161
 C178 C 0.74535 0.24287 -0.13057
 H179 H 0.68426 0.19166 -0.14838
 H180 H 0.76679 0.25337 -0.11759
 H181 H 0.69949 0.29354 -0.20340
 H182 H 0.72934 0.26115 -0.22079
 N183 N 0.15927 0.75972 0.24850
 N184 N 0.16442 0.78930 0.23475
 C185 C 0.14017 0.79524 0.21183
 C186 C 0.11839 0.76807 0.21146
 C187 C 0.13162 0.74577 0.23476
 H188 H 0.13825 0.81774 0.19671
 H189 H 0.12191 0.72126 0.24137
 Cu190 Cu 0.20213 0.81715 0.24867
 Cu191 Cu 0.18912 0.74159 0.28299
 Cu192 Cu 0.23957 0.80143 0.32204
 N193 N 0.24251 0.84120 0.26225
 N194 N 0.25682 0.83538 0.29139
 C195 C 0.28252 0.85698 0.29579
 C196 C 0.28500 0.87695 0.26749
 C197 C 0.25877 0.86649 0.24695
 H198 H 0.29777 0.85855 0.31823
 H199 H 0.25127 0.87732 0.22327
 N200 N 0.22960 0.75715 0.34190
 N201 N 0.21152 0.73397 0.32642
 C202 C 0.20979 0.70640 0.34587
 C203 C 0.22779 0.71241 0.37504
 C204 C 0.23989 0.74490 0.37163
 H205 H 0.19572 0.68403 0.33946
 H206 H 0.25515 0.75853 0.38956
 H207 H 0.19217 0.78898 0.30197
 H208 H 0.23109 0.77347 0.28083
 N209 N 0.48538 0.40769 0.48931
 N210 N 0.46507 0.42065 0.51184
 C211 C 0.46352 0.39967 0.53816
 C212 C 0.48388 0.37194 0.53178
 C213 C 0.49735 0.37791 0.50042
 H214 H 0.44814 0.40376 0.56005
 H215 H 0.51415 0.36179 0.48634
 Cu216 Cu 0.44085 0.46248 0.50367
 Cu217 Cu 0.49333 0.42976 0.44660
 Cu218 Cu 0.46563 0.51286 0.44160
 N219 N 0.41274 0.49953 0.48804
 N220 N 0.42262 0.51977 0.46412
 C221 C 0.39899 0.54384 0.45936
 C222 C 0.37269 0.53809 0.48124
 C223 C 0.38244 0.50974 0.49913
 H224 H 0.40073 0.56402 0.44132
 H225 H 0.36893 0.49754 0.51905
 N226 N 0.49947 0.49351 0.41117
 N227 N 0.50890 0.46154 0.41216
 C228 C 0.53128 0.45575 0.38760
 C229 C 0.53642 0.48554 0.37047
 C230 C 0.51564 0.50895 0.38604
 H231 H 0.54342 0.43174 0.38275
 H232 H 0.51201 0.53511 0.37936
 H233 H 0.49046 0.47527 0.47001
 H234 H 0.45308 0.46385 0.44396
 N235 N -0.01279 -0.09082 0.99288
 N236 N -0.04316 -0.08569 1.00488
 C237 C -0.04889 -0.10819 1.02933
 C238 C -0.02041 -0.12822 1.03313
 C239 C 0.00186 -0.11662 1.00932
 H240 H -0.07210 -0.11008 1.04323
 H241 H 0.02656 -0.12670 1.00373
 Cu242 Cu -0.07257 -0.05046 0.98728
 Cu243 Cu 0.00486 -0.06487 0.95578
 Cu244 Cu -0.04193 0.00440 0.93082
 N245 N -0.09522 -0.00793 0.97749
 N246 N -0.08299 0.01356 0.95582
 C247 C -0.10356 0.04061 0.95397
 C248 C -0.13012 0.03594 0.97579
 C249 C -0.12409 0.00469 0.99007
 H250 H -0.09977 0.06172 0.93741
 H251 H -0.13971 -0.00790 1.00821
 N252 N 0.00034 -0.00931 0.90882
 N253 N 0.01835 -0.03559 0.91861
 C254 C 0.04508 -0.03916 0.89829
 C255 C 0.04408 -0.01369 0.87473
 C256 C 0.01512 0.00449 0.88192
 H257 H 0.06326 -0.05951 0.89972
 H258 H 0.00517 0.02566 0.86795
 H259 H -0.02143 -0.02204 0.97048
 H260 H -0.04031 -0.04756 0.93563
 N261 N 1.00698 0.59042 0.99691
 N262 N 1.03536 0.58389 1.01274
 C263 C 1.03841 0.60508 1.03889
 C264 C 1.01027 0.62584 1.03980
 C265 C 0.99105 0.61609 1.01244
 H266 H 1.06020 0.60641 1.05518
 H267 H 0.96810 0.62792 1.00353
 Cu268 Cu 1.06738 0.55070 0.99609
 Cu269 Cu 0.99529 0.56773 0.95519
 Cu270 Cu 1.04194 0.49600 0.93663
 N271 N 1.09197 0.50926 0.98688
 N272 N 1.08160 0.48764 0.96416
 C273 C 1.10365 0.46178 0.96251
 C274 C 1.12929 0.46752 0.98533
 C275 C 1.12097 0.49792 1.00048
 H276 H 1.10180 0.44074 0.94534
 H277 H 1.13503 0.51118 1.01955
 N278 N 1.00116 0.50921 0.91155
 N279 N 0.98318 0.53638 0.91874
 C280 C 0.95812 0.53941 0.89611
 C281 C 0.96086 0.51332 0.87318
 C282 C 0.98829 0.49452 0.88395
 H283 H 0.93995 0.55984 0.89542
 H284 H 0.99870 0.47227 0.87217
 H285 H 1.01728 0.52442 0.97287
 H286 H 1.04142 0.54759 0.94037
 N287 N 0.50156 0.08377 0.50168
 N288 N 0.52753 0.07500 0.52027
 C289 C 0.53316 0.09923 0.54321
 C290 C 0.50958 0.12469 0.53860
 C291 C 0.48972 0.11385 0.51212
 H292 H 0.55313 0.09861 0.56172
 H293 H 0.46819 0.12659 0.50122
 Cu294 Cu 0.55205 0.03320 0.51238
 Cu295 Cu 0.48483 0.05509 0.46585
 Cu296 Cu 0.54391 -0.00208 0.43613
 N297 N 0.58485 0.00108 0.49549
 N298 N 0.58249 -0.01117 0.46502
 C299 C 0.60876 -0.03194 0.45940
 C300 C 0.62841 -0.03322 0.48804
 C301 C 0.61256 -0.01172 0.51045
 H302 H 0.61283 -0.04596 0.43653
 H303 H 0.62054 -0.00563 0.53561
 N304 N 0.50266 0.01014 0.41125
 N305 N 0.47975 0.03126 0.42299
 C306 C 0.45423 0.03363 0.40082
 C307 C 0.46129 0.01286 0.37387
 C308 C 0.49224 -0.00162 0.38137
 H309 H 0.43216 0.04947 0.40384
 H310 H 0.50622 -0.01946 0.36634
 H311 H 0.51049 0.00935 0.47325
 H312 H 0.53426 0.04553 0.45549
 N313 N -0.00587 0.09053 0.50408
 N314 N -0.02831 0.07693 0.48398
 C315 C -0.03313 0.09717 0.45743
 C316 C -0.01242 0.12496 0.46097
 C317 C 0.00430 0.12000 0.49104
 H318 H -0.05102 0.09232 0.43756
 H319 H 0.02237 0.13677 0.50258
 Cu320 Cu -0.05036 0.03483 0.49469
 Cu321 Cu 0.00833 0.06884 0.54548
 Cu322 Cu -0.04005 0.00171 0.57152
 N323 N -0.08123 0.00168 0.51226
 N324 N -0.07779 -0.01056 0.54259
 C325 C -0.10289 -0.03246 0.54829
 C326 C -0.12290 -0.03434 0.51986
 C327 C -0.10848 -0.01208 0.49758
 H328 H -0.10624 -0.04634 0.57125
 H329 H -0.11730 -0.00592 0.47271
 N330 N -0.00046 0.01796 0.59676
 N331 N 0.01831 0.04324 0.58651
 C332 C 0.04425 0.04728 0.60796
 C333 C 0.04188 0.02320 0.63280
 C334 C 0.01297 0.00536 0.62511
 H335 H 0.06345 0.06633 0.60566
 H336 H 0.00284 -0.01560 0.63898
 H337 H -0.00736 0.01984 0.53571
 H338 H -0.03969 0.05010 0.55246
 N339 N 0.49798 0.58518 -0.00198
 N340 N 0.46856 0.57935 -0.01599
 C341 C 0.46216 0.60325 -0.03898
 C342 C 0.48932 0.62492 -0.03997
 C343 C 0.51156 0.61278 -0.01593
 H344 H 0.43950 0.60472 -0.05407
 H345 H 0.53556 0.62341 -0.00870
 Cu346 Cu 0.44217 0.54018 -0.00413
 Cu347 Cu 0.51591 0.55622 0.03331
 Cu348 Cu 0.45412 0.50944 0.07294
 N349 N 0.41410 0.50456 0.01330
 N350 N 0.41859 0.49268 0.04364
 C351 C 0.39465 0.46968 0.04996
 C352 C 0.37394 0.46718 0.02209
 C353 C 0.38733 0.48943 -0.00082
 H354 H 0.39231 0.45606 0.07321
 H355 H 0.37802 0.49455 -0.02574
 N356 N 0.49849 0.51879 0.09313
 N357 N 0.52237 0.53558 0.07763
 C358 C 0.54976 0.53713 0.09755
 C359 C 0.54282 0.52037 0.12705
 C360 C 0.51010 0.50912 0.12331
 H361 H 0.57268 0.55010 0.09112
 H362 H 0.49587 0.49486 0.14135
 H363 H 0.48423 0.51371 0.03240
 H364 H 0.46792 0.55446 0.04952
 N365 N 0.50874 -0.09198 0.00367
 N366 N 0.53759 -0.08561 -0.01094
 C367 C 0.54191 -0.10730 -0.03652
 C368 C 0.51409 -0.12811 -0.03834
 C369 C 0.49373 -0.11791 -0.01216
 H370 H 0.56401 -0.10849 -0.05218
 H371 H 0.47036 -0.12931 -0.00444
 Cu372 Cu 0.56776 -0.05073 0.00532
 Cu373 Cu 0.49406 -0.06790 0.04353
 Cu374 Cu 0.54183 0.00070 0.06733
 N375 N 0.59054 -0.00856 0.01531
 N376 N 0.58006 0.01154 0.03931
 C377 C 0.60054 0.03836 0.04134
 C378 C 0.62512 0.03512 0.01710
 C379 C 0.61819 0.00480 0.00127
 H380 H 0.59828 0.05820 0.05980
 H381 H 0.63256 -0.00682 -0.01862
 N382 N 0.50227 -0.01433 0.09245
 N383 N 0.48371 -0.04027 0.08324
 C384 C 0.45890 -0.04441 0.10570
 C385 C 0.46228 -0.02014 0.13043
 C386 C 0.48994 -0.00139 0.12104
 H387 H 0.44007 -0.06399 0.10465
 H388 H 0.50046 0.02006 0.13399
 H389 H 0.51766 -0.02437 0.02844
 H390 H 0.54049 -0.05124 0.05982
 N391 N 1.00848 0.40824 0.50181
 N392 N 1.03758 0.41389 0.48741
 C393 C 1.04184 0.39172 0.46221
 C394 C 1.01373 0.37132 0.46040
 C395 C 0.99321 0.38230 0.48620
 H396 H 1.06407 0.38998 0.44676
 H397 H 0.96956 0.37144 0.49383
 Cu398 Cu 1.06810 0.44849 0.50353
 Cu399 Cu 0.99395 0.43319 0.54126
 Cu400 Cu 1.04257 0.50159 0.56436
 N401 N 1.09136 0.49050 0.51278
 N402 N 1.08113 0.51141 0.53622
 C403 C 1.10231 0.53776 0.53778
 C404 C 1.12733 0.53305 0.51421
 C405 C 1.11945 0.50277 0.49869
 H406 H 1.10036 0.55844 0.55537
 H407 H 1.13323 0.49021 0.47899
 N408 N 1.00265 0.48737 0.58958
 N409 N 0.98378 0.46158 0.58053
 C410 C 0.95908 0.45771 0.60313
 C411 C 0.96282 0.48193 0.62783
 C412 C 0.99061 0.50044 0.61826
 H413 H 0.94018 0.43819 0.60231
 H414 H 1.00152 0.52167 0.63127
 H415 H 1.01836 0.47628 0.52578
 H416 H 1.04050 0.44966 0.55782
 Si417 Si 0.37325 -0.00316 0.25137
 Si418 Si 0.13199 0.00216 0.75316
 Si419 Si 0.62783 0.50121 0.25132
 Si420 Si 0.87438 0.49752 0.74948
 Si421 Si 0.25221 0.37867 0.00229
 Si422 Si 0.74674 0.12336 -0.00242
 Si423 Si 0.24740 0.62411 0.49642
 Si424 Si 0.75283 0.88005 0.50378
 Si425 Si -0.00145 0.24789 0.37316
 Si426 Si -0.00517 0.75139 0.12419
 Si427 Si 0.49929 0.25119 0.62244
 Si428 Si 0.50027 0.74890 0.87365
 C429 C 0.08955 0.23708 0.30596
 C430 C 0.06258 0.26184 0.29288
 C431 C 0.03545 0.26509 0.31324
 C432 C 0.03724 0.24338 0.34500
 C433 C 0.04335 0.20727 0.33198
 C434 C 0.07045 0.20404 0.31154
 C435 C 0.09814 0.24987 0.34122
 C436 C 0.07089 0.25324 0.36155
 H437 H 0.06405 0.27537 0.26945
 H438 H 0.01459 0.28160 0.30686
 H439 H 0.02776 0.18586 0.33807
 H440 H 0.07759 0.18007 0.30035
 H441 H 0.12351 0.25592 0.34946
 H442 H 0.07334 0.26211 0.38707
 C443 C 0.59252 0.73976 0.80798
 C444 C 0.56556 0.76434 0.79457
 C445 C 0.53795 0.76706 0.81439
 C446 C 0.53938 0.74508 0.84600
 C447 C 0.54612 0.70918 0.83275
 C448 C 0.57366 0.70645 0.81283
 C449 C 0.60027 0.75229 0.84349
 C450 C 0.57260 0.75515 0.86328
 H451 H 0.56736 0.77800 0.77123
 H452 H 0.51696 0.78327 0.80769
 H453 H 0.53058 0.68756 0.83819
 H454 H 0.58121 0.68269 0.80146
 H455 H 0.62540 0.75855 0.85229
 H456 H 0.57450 0.76383 0.88891
 C457 C 0.40784 0.75822 0.80721
 C458 C 0.43493 0.73381 0.79387
 C459 C 0.46251 0.73109 0.81398
 C460 C 0.46101 0.75290 0.84580
 C461 C 0.45411 0.78885 0.83291
 C462 C 0.42651 0.79159 0.81275
 C463 C 0.40015 0.74541 0.84252
 C464 C 0.42784 0.74261 0.86263
 H465 H 0.43314 0.71988 0.77059
 H466 H 0.48342 0.71477 0.80744
 H467 H 0.46949 0.81052 0.83892
 H468 H 0.41870 0.81540 0.80174
 H469 H 0.37505 0.73899 0.85098
 H470 H 0.42604 0.73384 0.88817
 C471 C -0.09451 0.25676 0.30750
 C472 C -0.07566 0.29019 0.31245
 C473 C -0.04790 0.28765 0.33243
 C474 C -0.04097 0.25186 0.34569
 C475 C -0.07399 0.24187 0.36296
 C476 C -0.10186 0.24441 0.34309
 C477 C -0.06748 0.23215 0.29422
 C478 C -0.03978 0.22967 0.31412
 H479 H -0.08341 0.31390 0.30115
 H480 H -0.03239 0.30934 0.33803
 H481 H -0.07556 0.23356 0.38867
 H482 H -0.12687 0.23818 0.35196
 H483 H -0.06914 0.21809 0.27102
 H484 H -0.01891 0.21336 0.30748
 C485 C -0.09662 0.74376 0.19093
 C486 C -0.06994 0.76895 0.20328
 C487 C -0.04266 0.77113 0.18308
 C488 C -0.04402 0.74805 0.15213
 C489 C -0.04995 0.71258 0.16642
 C490 C -0.07725 0.71039 0.18672
 C491 C -0.10499 0.75503 0.15515
 C492 C -0.07759 0.75730 0.13493
 H493 H -0.07178 0.78377 0.22601
 H494 H -0.02205 0.78791 0.18896
 H495 H -0.03416 0.69085 0.16120
 H496 H -0.08441 0.68696 0.19867
 H497 H -0.13033 0.76079 0.14646
 H498 H -0.07989 0.76493 0.10905
 C499 C 0.40871 0.24245 0.69028
 C500 C 0.41999 0.27909 0.68445
 C501 C 0.44725 0.28179 0.66407
 C502 C 0.46096 0.24781 0.65111
 C503 C 0.46752 0.22702 0.68293
 C504 C 0.44034 0.22418 0.70325
 C505 C 0.40301 0.22827 0.65489
 C506 C 0.43024 0.23095 0.63460
 H507 H 0.40729 0.30115 0.69457
 H508 H 0.45760 0.30608 0.65742
 H509 H 0.49149 0.21544 0.68924
 H510 H 0.44139 0.21030 0.72660
 H511 H 0.37942 0.21752 0.64624
 H512 H 0.42946 0.22227 0.60893
 C513 C 0.59420 0.26147 0.68504
 C514 C 0.58251 0.22486 0.68015
 C515 C 0.55394 0.22187 0.66149
 C516 C 0.53943 0.25562 0.64887
 C517 C 0.53503 0.27708 0.68067
 C518 C 0.56350 0.28006 0.69953
 C519 C 0.59757 0.27516 0.64923
 C520 C 0.56902 0.27212 0.63049
 H521 H 0.59567 0.20303 0.69025
 H522 H 0.54302 0.19746 0.65616
 H523 H 0.51165 0.28923 0.68786
 H524 H 0.56414 0.29464 0.72255
 H525 H 0.62053 0.28537 0.63886
 H526 H 0.56813 0.28015 0.60467
 C527 C 0.08736 0.76379 0.18993
 C528 C 0.06782 0.79676 0.18364
 C529 C 0.04024 0.79302 0.16368
 C530 C 0.03413 0.75658 0.15182
 C531 C 0.06746 0.74609 0.13511
 C532 C 0.09518 0.74990 0.15497
 C533 C 0.06094 0.73964 0.20416
 C534 C 0.03331 0.73585 0.18428
 H535 H 0.07480 0.82100 0.19421
 H536 H 0.02421 0.81427 0.15732
 H537 H 0.06938 0.73652 0.10981
 H538 H 0.12039 0.74355 0.14654
 H539 H 0.06327 0.72699 0.22807
 H540 H 0.01274 0.71967 0.19147
 C541 C 0.30920 0.09082 0.23815
 C542 C 0.31406 0.08032 0.27482
 C543 C 0.33317 0.05196 0.27882
 C544 C 0.34604 0.03650 0.24588
 C545 C 0.31398 0.03119 0.22476
 C546 C 0.29481 0.05948 0.22075
 C547 C 0.34518 0.09403 0.22462
 C548 C 0.36429 0.06574 0.22856
 H549 H 0.30368 0.09412 0.29589
 H550 H 0.33869 0.04177 0.30335
 H551 H 0.30677 0.00729 0.21373
 H552 H 0.27149 0.05955 0.20644
 H553 H 0.35523 0.11682 0.21361
 H554 H 0.39028 0.06485 0.22056
 C555 C 0.81051 0.59186 0.73841
 C556 C 0.79589 0.56098 0.72038
 C557 C 0.81497 0.53251 0.72369
 C558 C 0.84713 0.53724 0.74480
 C559 C 0.86542 0.56675 0.72801
 C560 C 0.84646 0.59520 0.72481
 C561 C 0.81543 0.58056 0.77479
 C562 C 0.83441 0.55205 0.77811
 H563 H 0.77250 0.56147 0.70618
 H564 H 0.80760 0.50890 0.71219
 H565 H 0.89132 0.56587 0.71972
 H566 H 0.85660 0.61815 0.71422
 H567 H 0.80510 0.59389 0.79619
 H568 H 0.83978 0.54130 0.80240
 C569 C 0.80765 0.40590 0.75901
 C570 C 0.81269 0.41752 0.72276
 C571 C 0.83274 0.44510 0.71991
 C572 C 0.84611 0.45885 0.75346
 C573 C 0.81426 0.46479 0.77450
 C574 C 0.79430 0.43718 0.77745
 C575 C 0.84357 0.40069 0.77263
 C576 C 0.86351 0.42832 0.76991
 H577 H 0.80211 0.40493 0.70104
 H578 H 0.83870 0.45574 0.69578
 H579 H 0.80770 0.48863 0.78613
 H580 H 0.77095 0.43764 0.79147
 H581 H 0.85268 0.37721 0.78336
 H582 H 0.88940 0.42807 0.77857
 C583 C 0.30649 -0.09458 0.26304
 C584 C 0.34231 -0.09944 0.27715
 C585 C 0.36232 -0.07192 0.27371
 C586 C 0.34507 -0.04182 0.25626
 C587 C 0.33205 -0.05651 0.22302
 C588 C 0.31205 -0.08404 0.22646
 C589 C 0.29301 -0.06270 0.28040
 C590 C 0.31306 -0.03525 0.27685
 H591 H 0.35144 -0.12266 0.28843
 H592 H 0.38823 -0.07203 0.28229
 H593 H 0.33838 -0.04667 0.19864
 H594 H 0.30203 -0.09745 0.20495
 H595 H 0.26960 -0.06174 0.29433
 H596 H 0.30652 -0.01112 0.28789
 C597 C 0.19576 -0.09206 0.73891
 C598 C 0.19085 -0.07113 0.70691
 C599 C 0.17148 -0.04302 0.71118
 C600 C 0.15881 -0.03778 0.74713
 C601 C 0.14071 -0.07089 0.75554
 C602 C 0.15992 -0.09913 0.75120
 C603 C 0.21031 -0.06680 0.76443
 C604 C 0.19102 -0.03867 0.76869
 H605 H 0.20186 -0.07763 0.68293
 H606 H 0.16604 -0.02604 0.69067
 H607 H 0.11494 -0.07227 0.76416
 H608 H 0.15042 -0.12424 0.75620
 H609 H 0.23416 -0.06992 0.77745
 H610 H 0.19860 -0.01873 0.78562
 C611 C 0.69265 0.40741 0.24037
 C612 C 0.70602 0.43269 0.26639
 C613 C 0.68651 0.46086 0.26967
 C614 C 0.65521 0.46152 0.24677
 C615 C 0.66941 0.45615 0.21143
 C616 C 0.68903 0.42810 0.20813
 C617 C 0.65637 0.40022 0.25117
 C618 C 0.63689 0.42838 0.25458
 H619 H 0.72914 0.42937 0.28059
 H620 H 0.69324 0.48093 0.28682
 H621 H 0.66480 0.47297 0.19061
 H622 H 0.70102 0.42138 0.18469
 H623 H 0.64684 0.37508 0.25590
 H624 H 0.61080 0.42690 0.26218
 C625 C 0.69486 0.59227 0.26557
 C626 C 0.65952 0.60080 0.25234
 C627 C 0.63942 0.57345 0.24806
 C628 C 0.65624 0.53967 0.25743
 C629 C 0.68878 0.53868 0.23664
 C630 C 0.70891 0.56605 0.24085
 C631 C 0.68887 0.57225 0.29780
 C632 C 0.66863 0.54494 0.29358
 H633 H 0.65102 0.62626 0.24672
 H634 H 0.61383 0.57595 0.23886
 H635 H 0.69592 0.51809 0.22026
 H636 H 0.73295 0.56819 0.22830
 H637 H 0.69986 0.57874 0.32186
 H638 H 0.66249 0.52854 0.31423
 C639 C 0.20141 0.09164 0.76646
 C640 C 0.16580 0.10127 0.75456
 C641 C 0.14484 0.07446 0.75056
 C642 C 0.16117 0.04014 0.75879
 C643 C 0.19284 0.03878 0.73678
 C644 C 0.21381 0.06553 0.74073
 C645 C 0.19595 0.07125 0.79852
 C646 C 0.17494 0.04453 0.79456
 H647 H 0.15777 0.12701 0.74961
 H648 H 0.11899 0.07764 0.74227
 H649 H 0.19857 0.01864 0.71937
 H650 H 0.23698 0.06747 0.72670
 H651 H 0.20765 0.07731 0.82237
 H652 H 0.16888 0.02810 0.81523
 C653 C 0.23860 0.31116 0.09216
 C654 C 0.27562 0.31641 0.08248
 C655 C 0.27975 0.33659 0.05534
 C656 C 0.24656 0.35001 0.04019
 C657 C 0.22571 0.31813 0.03317
 C658 C 0.22158 0.29791 0.06026
 C659 C 0.22451 0.34706 0.09679
 C660 C 0.22856 0.36721 0.06970
 H661 H 0.29684 0.30556 0.09597
 H662 H 0.30452 0.34251 0.04585
 H663 H 0.21498 0.31179 0.00902
 H664 H 0.20744 0.27457 0.05907
 H665 H 0.21302 0.35628 0.11963
 H666 H 0.22015 0.39323 0.06983
 C667 C 0.74236 0.81311 0.59459
 C668 C 0.76706 0.79953 0.56821
 C669 C 0.77014 0.81981 0.54110
 C670 C 0.74836 0.85202 0.54237
 C671 C 0.71236 0.83914 0.54825
 C672 C 0.70929 0.81875 0.57531
 C673 C 0.75502 0.84868 0.60288
 C674 C 0.75821 0.86896 0.57567
 H675 H 0.78069 0.77583 0.57001
 H676 H 0.78654 0.81306 0.52059
 H677 H 0.69088 0.84524 0.53261
 H678 H 0.68542 0.80764 0.58230
 H679 H 0.76108 0.85717 0.62802
 H680 H 0.76692 0.89470 0.57794
 C681 C 0.76188 0.81312 0.41215
 C682 C 0.79526 0.81809 0.43108
 C683 C 0.79267 0.83840 0.45845
 C684 C 0.75685 0.85194 0.46488
 C685 C 0.74674 0.86920 0.43186
 C686 C 0.74937 0.84897 0.40442
 C687 C 0.73745 0.79991 0.43869
 C688 C 0.73490 0.82010 0.46606
 H689 H 0.81896 0.80659 0.42361
 H690 H 0.81434 0.84408 0.47396
 H691 H 0.73834 0.89516 0.42992
 H692 H 0.74313 0.85773 0.37944
 H693 H 0.72356 0.77652 0.43677
 H694 H 0.71872 0.81352 0.48669
 C695 C 0.26615 0.31553 -0.09117
 C696 C 0.28047 0.35135 -0.09381
 C697 C 0.27630 0.37025 -0.06567
 C698 C 0.25810 0.35192 -0.03718
 C699 C 0.22495 0.33976 -0.05317
 C700 C 0.22913 0.32092 -0.08137
 C701 C 0.28296 0.30047 -0.05994
 C702 C 0.27882 0.31944 -0.03182
 H703 H 0.29211 0.36149 -0.11607
 H704 H 0.28473 0.39614 -0.06436
 H705 H 0.20015 0.34545 -0.04343
 H706 H 0.20795 0.31096 -0.09546
 H707 H 0.29709 0.27694 -0.05997
 H708 H 0.28955 0.31183 -0.00805
 C709 C 0.73214 0.19211 -0.09168
 C710 C 0.75771 0.20495 -0.06565
 C711 C 0.76190 0.18409 -0.03910
 C712 C 0.74026 0.15206 -0.04041
 C713 C 0.70397 0.16528 -0.04509
 C714 C 0.69979 0.18625 -0.07171
 C715 C 0.74466 0.15659 -0.10098
 C716 C 0.74889 0.13571 -0.07427
 H717 H 0.77114 0.22859 -0.06724
 H718 H 0.77909 0.19031 -0.01896
 H719 H 0.68313 0.15880 -0.02903
 H720 H 0.67560 0.19753 -0.07801
 H721 H 0.74969 0.14851 -0.12643
 H722 H 0.75739 0.10987 -0.07726
 C723 C 0.23250 0.68966 0.40495
 C724 C 0.26955 0.68501 0.41527
 C725 C 0.27408 0.66540 0.44284
 C726 C 0.24118 0.65187 0.45780
 C727 C 0.21953 0.68360 0.46392
 C728 C 0.21504 0.70327 0.43641
 C729 C 0.21916 0.65350 0.40085
 C730 C 0.22370 0.63391 0.42837
 H731 H 0.29050 0.69614 0.40199
 H732 H 0.29894 0.66009 0.45286
 H733 H 0.20845 0.69019 0.48776
 H734 H 0.20023 0.72638 0.43696
 H735 H 0.20771 0.64361 0.37823
 H736 H 0.21588 0.60780 0.42869
 C737 C 0.25944 0.68899 0.58909
 C738 C 0.27422 0.65323 0.59243
 C739 C 0.27061 0.63398 0.56452
 C740 C 0.25230 0.65179 0.53547
 C741 C 0.21885 0.66406 0.55076
 C742 C 0.22255 0.68337 0.57876
 C743 C 0.27621 0.70367 0.55793
 C744 C 0.27250 0.68431 0.52999
 H745 H 0.28573 0.64336 0.61506
 H746 H 0.27946 0.60812 0.56381
 H747 H 0.19421 0.65806 0.54068
 H748 H 0.20113 0.69345 0.59237
 H749 H 0.28983 0.72734 0.55784
 H750 H 0.28305 0.69172 0.50622
 C751 C 0.75909 0.18900 0.08979
 C752 C 0.73334 0.20248 0.06423
 C753 C 0.72989 0.18264 0.03672
 C754 C 0.75233 0.15085 0.03675
 C755 C 0.78822 0.16437 0.04218
 C756 C 0.79171 0.18437 0.06972
 C757 C 0.74748 0.15300 0.09745
 C758 C 0.74396 0.13311 0.06984
 H759 H 0.71929 0.22585 0.06684
 H760 H 0.71275 0.18949 0.01672
 H761 H 0.80927 0.15878 0.02591
 H762 H 0.81557 0.19575 0.07662
 H763 H 0.74257 0.14386 0.12250
 H764 H 0.73621 0.10705 0.07171
 C765 C 0.48835 0.34154 0.55404
 C766 C 0.45512 0.32316 0.56067
 C767 C 0.45831 0.29616 0.58140
 C768 C 0.49453 0.28955 0.59374
 C769 C 0.51544 0.28698 0.56153
 C770 C 0.51228 0.31397 0.54087
 C771 C 0.50217 0.35030 0.58892
 C772 C 0.50532 0.32323 0.60963
 H773 H 0.43106 0.33076 0.54997
 H774 H 0.43680 0.28105 0.58823
 H775 H 0.53173 0.26592 0.55531
 H776 H 0.52596 0.31530 0.51754
 H777 H 0.50887 0.37566 0.59669
 H778 H 0.51461 0.32582 0.63501
 C779 C -0.01611 0.84197 0.05614
 C780 C -0.03444 0.81045 0.04343
 C781 C -0.03122 0.78325 0.06389
 C782 C -0.00995 0.78975 0.09550
 C783 C 0.02368 0.80324 0.08224
 C784 C 0.02054 0.83042 0.06179
 C785 C -0.02987 0.84792 0.09149
 C786 C -0.02678 0.82068 0.11196
 H787 H -0.04876 0.80959 0.02025
 H788 H -0.04299 0.75939 0.05791
 H789 H 0.04813 0.79280 0.08867
 H790 H 0.04236 0.84292 0.05147
 H791 H -0.04095 0.87158 0.09983
 H792 H -0.03541 0.82146 0.13757
 C793 C 0.00570 0.65684 0.06125
 C794 C -0.03101 0.66829 0.06607
 C795 C -0.03432 0.69673 0.08501
 C796 C -0.00071 0.71135 0.09764
 C797 C 0.01647 0.68168 0.11585
 C798 C 0.01973 0.65325 0.09694
 C799 C 0.02362 0.68769 0.04688
 C800 C 0.02029 0.71606 0.06580
 H801 H -0.05262 0.65498 0.05597
 H802 H -0.05881 0.70744 0.09066
 H803 H 0.02508 0.68254 0.14156
 H804 H 0.03087 0.63022 0.10673
 H805 H 0.03779 0.68725 0.02374
 H806 H 0.03180 0.73959 0.05852
 C807 C 0.50653 0.15665 0.55890
 C808 C 0.53997 0.17559 0.56262
 C809 C 0.53785 0.20390 0.58184
 C810 C 0.50239 0.21116 0.59562
 C811 C 0.47956 0.21154 0.56441
 C812 C 0.48166 0.18320 0.54526
 C813 C 0.49500 0.15017 0.59482
 C814 C 0.49279 0.17853 0.61394
 H815 H 0.56336 0.16750 0.55105
 H816 H 0.55961 0.21961 0.58653
 H817 H 0.46319 0.23235 0.55751
 H818 H 0.46727 0.18056 0.52231
 H819 H 0.48899 0.12534 0.60442
 H820 H 0.48499 0.17747 0.63979
 C821 C -0.00982 0.15526 0.43847
 C822 C -0.02496 0.15080 0.40328
 C823 C -0.02247 0.17868 0.38374
 C824 C -0.00502 0.20876 0.40082
 C825 C -0.02514 0.21442 0.43316
 C826 C -0.02755 0.18656 0.45279
 C827 C 0.02657 0.16645 0.43229
 C828 C 0.02907 0.19438 0.41279
 H829 H -0.03591 0.12759 0.39394
 H830 H -0.03163 0.17875 0.35821
 H831 H -0.03677 0.23815 0.44019
 H832 H -0.04111 0.18675 0.47629
 H833 H 0.04856 0.15350 0.44232
 H834 H 0.05328 0.20503 0.40657
 C835 C 0.49266 0.65576 0.93836
 C836 C 0.47883 0.65097 0.90271
 C837 C 0.48089 0.67903 0.88335
 C838 C 0.49694 0.70954 0.90103
 C839 C 0.47573 0.71447 0.93278
 C840 C 0.47348 0.68643 0.95219
 C841 C 0.52889 0.66812 0.93336
 C842 C 0.53108 0.69612 0.91393
 H843 H 0.46849 0.62746 0.89333
 H844 H 0.47204 0.67912 0.85771
 H845 H 0.46334 0.73789 0.93959
 H846 H 0.45933 0.68614 0.97534
 H847 H 0.55109 0.65567 0.94349
 H848 H 0.55517 0.70723 0.90808
 C849 C 0.50989 0.84147 0.93942
 C850 C 0.47336 0.82973 0.93437
 C851 C 0.47045 0.80185 0.91461
 C852 C 0.50422 0.78805 0.90145
 C853 C 0.52046 0.81846 0.88411
 C854 C 0.52331 0.84632 0.90385
 C855 C 0.52872 0.81042 0.95282
 C856 C 0.52575 0.78258 0.93310
 H857 H 0.45154 0.84248 0.94481
 H858 H 0.44614 0.79102 0.90870
 H859 H 0.52875 0.81852 0.85838
 H860 H 0.53380 0.86977 0.89474
 H861 H 0.54313 0.81029 0.97597
 H862 H 0.53779 0.75894 0.93971
 C863 C 0.00923 0.34077 0.43833
 C864 C 0.02819 0.30972 0.45161
 C865 C 0.02496 0.28182 0.43201
 C866 C 0.00304 0.28721 0.40062
 C867 C -0.03054 0.30115 0.41410
 C868 C -0.02736 0.32907 0.43374
 C869 C 0.02225 0.34545 0.40256
 C870 C 0.01913 0.31750 0.38296
 H871 H 0.04291 0.30967 0.47457
 H872 H 0.03709 0.25817 0.43847
 H873 H -0.05495 0.29040 0.40846
 H874 H -0.04905 0.34192 0.44432
 H875 H 0.03274 0.36883 0.39328
 H876 H 0.02720 0.31737 0.35715
 C877 C 0.34110 0.55915 0.48511
 C878 C 0.32137 0.56405 0.45233
 C879 C 0.29328 0.58372 0.45552
 C880 C 0.28711 0.59680 0.49127
 C881 C 0.28705 0.56474 0.51282
 C882 C 0.31503 0.54515 0.50968
 C883 C 0.34821 0.59504 0.49766
 C884 C 0.32014 0.61466 0.50084
 H885 H 0.32882 0.55295 0.42863
 H886 H 0.27704 0.58926 0.43437
 H887 H 0.26670 0.55753 0.52915
 H888 H 0.31765 0.52164 0.52320
 H889 H 0.37326 0.60431 0.50345
 H890 H 0.32162 0.64061 0.50921
 C891 C 0.83955 0.05841 -0.01867
 C892 C 0.84272 0.09455 -0.03215
 C893 C 0.81484 0.11400 -0.02714
 C894 C 0.78600 0.09590 -0.00910
 C895 C 0.77966 0.06405 -0.03025
 C896 C 0.80752 0.04454 -0.03518
 C897 C 0.83031 0.06313 0.01831
 C898 C 0.80236 0.08259 0.02329
 H899 H 0.86518 0.10459 -0.04367
 H900 H 0.81402 0.14017 -0.03475
 H901 H 0.75539 0.05725 -0.04068
 H902 H 0.80683 0.02135 -0.04968
 H903 H 0.84462 0.05226 0.03886
 H904 H 0.79303 0.08804 0.04814
 C905 C 0.65517 0.05752 0.01176
 C906 C 0.65141 0.09332 0.02619
 C907 C 0.67895 0.11296 0.02180
 C908 C 0.70807 0.09541 0.00324
 C909 C 0.71497 0.06311 0.02345
 C910 C 0.68742 0.04339 0.02785
 C911 C 0.66428 0.06306 -0.02510
 C912 C 0.69192 0.08276 -0.02953
 H913 H 0.62872 0.10307 0.03781
 H914 H 0.67923 0.13896 0.03009
 H915 H 0.73939 0.05610 0.03354
 H916 H 0.68850 0.01983 0.04160
 H917 H 0.65014 0.05257 -0.04593
 H918 H 0.70118 0.08881 -0.05421
 C919 C 0.15747 0.55542 0.50893
 C920 C 0.17774 0.56121 0.54118
 C921 C 0.20452 0.58205 0.53746
 C922 C 0.20916 0.59530 0.50166
 C923 C 0.21042 0.56328 0.47984
 C924 C 0.18357 0.54250 0.48356
 C925 C 0.14809 0.59097 0.49673
 C926 C 0.17502 0.61175 0.49292
 H927 H 0.17155 0.54986 0.56503
 H928 H 0.22079 0.58828 0.55834
 H929 H 0.23061 0.55722 0.46271
 H930 H 0.18151 0.51914 0.46959
 H931 H 0.12244 0.59908 0.49144
 H932 H 0.17203 0.63752 0.48446
 C933 C 0.16019 0.44578 -0.00963
 C934 C 0.18590 0.45874 0.01620
 C935 C 0.21343 0.43847 0.01971
 C936 C 0.21316 0.40688 -0.00275
 C937 C 0.17959 0.38955 0.00537
 C938 C 0.15200 0.40984 0.00180
 C939 C 0.18052 0.44107 -0.04185
 C940 C 0.20803 0.42076 -0.03831
 H941 H 0.18304 0.48169 0.03072
 H942 H 0.23341 0.44459 0.03719
 H943 H 0.17742 0.36354 0.01322
 H944 H 0.12665 0.40107 0.00671
 H945 H 0.17389 0.45280 -0.06550
 H946 H 0.22455 0.41535 -0.05912
 C947 C 0.65960 0.94547 0.49304
 C948 C 0.69038 0.95921 0.47459
 C949 C 0.71857 0.93975 0.47798
 C950 C 0.71361 0.90798 0.49936
 C951 C 0.69964 0.92150 0.53267
 C952 C 0.67148 0.94106 0.52943
 C953 C 0.65541 0.90932 0.47987
 C954 C 0.68354 0.88991 0.48296
 H955 H 0.69013 0.98247 0.46034
 H956 H 0.74220 0.94665 0.46651
 H957 H 0.71059 0.91604 0.55692
 H958 H 0.65876 0.95174 0.55095
 H959 H 0.63219 0.89965 0.46918
 H960 H 0.68388 0.86392 0.47463
 C961 C 0.84609 0.94433 0.51506
 C962 C 0.81527 0.95837 0.53356
 C963 C 0.78713 0.93917 0.53008
 C964 C 0.79215 0.90734 0.50852
 C965 C 0.80608 0.92065 0.47530
 C966 C 0.83418 0.93991 0.47864
 C967 C 0.85038 0.90816 0.52808
 C968 C 0.82228 0.88896 0.52481
 H969 H 0.81547 0.98162 0.54798
 H970 H 0.76352 0.94630 0.54164
 H971 H 0.79520 0.91516 0.45102
 H972 H 0.84697 0.95024 0.45712
 H973 H 0.87363 0.89834 0.53876
 H974 H 0.82195 0.86295 0.53292
 C975 C 0.34340 0.44519 0.01750
 C976 C 0.35200 0.40991 0.00406
 C977 C 0.32467 0.38975 -0.00041
 C978 C 0.29092 0.40656 0.00889
 C979 C 0.29614 0.41865 0.04516
 C980 C 0.32341 0.43887 0.04964
 C981 C 0.31718 0.45941 -0.00717
 C982 C 0.28999 0.43924 -0.01173
 H983 H 0.37746 0.40143 -0.00134
 H984 H 0.32713 0.36411 -0.00956
 H985 H 0.27975 0.41231 0.06572
 H986 H 0.32978 0.44965 0.07381
 H987 H 0.31927 0.48359 -0.01960
 H988 H 0.26962 0.44645 -0.02836
 C989 C 0.55929 0.49035 0.34084
 C990 C 0.54619 0.47284 0.30912
 C991 C 0.56674 0.47613 0.28221
 C992 C 0.59886 0.49660 0.28918
 C993 C 0.58586 0.53031 0.30347
 C994 C 0.56525 0.52712 0.33034
 C995 C 0.59481 0.47573 0.34625
 C996 C 0.61537 0.47886 0.31932
 H997 H 0.52262 0.45912 0.30787
 H998 H 0.56045 0.46508 0.25820
 H999 H 0.59244 0.55483 0.29370
 H1000 H 0.55490 0.54897 0.34312
 H1001 H 0.60318 0.46399 0.36935
 H1002 H 0.64108 0.46962 0.31980
 C1003 C 0.06661 -0.00956 0.84480
 C1004 C 0.05196 -0.02584 0.81314
 C1005 C 0.07164 -0.02237 0.78565
 C1006 C 0.10443 -0.00277 0.79198
 C1007 C 0.09273 0.03083 0.80761
 C1008 C 0.07310 0.02731 0.83517
 C1009 C 0.10199 -0.02516 0.84858
 C1010 C 0.12163 -0.02166 0.82103
 H1011 H 0.02816 -0.03919 0.81244
 H1012 H 0.06437 -0.03293 0.76171
 H1013 H 0.09937 0.05546 0.79813
 H1014 H 0.06337 0.04885 0.84898
 H1015 H 0.11126 -0.03721 0.87116
 H1016 H 0.14729 -0.03107 0.82048
 C1017 C 0.06496 0.01797 0.66246
 C1018 C 0.10091 0.03153 0.65821
 C1019 C 0.12105 0.02684 0.68547
 C1020 C 0.10373 0.00893 0.71476
 C1021 C 0.07204 0.03041 0.72153
 C1022 C 0.05183 0.03502 0.69432
 C1023 C 0.07006 -0.01923 0.67200
 C1024 C 0.09014 -0.02391 0.69928
 H1025 H 0.11018 0.04308 0.63553
 H1026 H 0.14711 0.03475 0.68567
 H1027 H 0.06590 0.04143 0.74556
 H1028 H 0.02872 0.04977 0.69534
 H1029 H 0.05915 -0.04021 0.65830
 H1030 H 0.09588 -0.04891 0.70861
 C1031 C 0.56486 0.51584 0.15758
 C1032 C 0.56942 0.47876 0.16770
 C1033 C 0.58827 0.47429 0.19590
 C1034 C 0.60116 0.50728 0.21168
 C1035 C 0.61978 0.52496 0.18304
 C1036 C 0.60095 0.52945 0.15487
 C1037 C 0.55030 0.53320 0.18870
 C1038 C 0.56916 0.52874 0.21685
 H1039 H 0.55877 0.45775 0.15384
 H1040 H 0.59337 0.44940 0.20584
 H1041 H 0.64574 0.53309 0.18438
 H1042 H 0.61128 0.54121 0.13280
 H1043 H 0.52714 0.54791 0.18858
 H1044 H 0.56177 0.53977 0.24051
 C1045 C 0.44039 -0.01571 0.16087
 C1046 C 0.40482 -0.00286 0.15243
 C1047 C 0.38451 0.00082 0.17954
 C1048 C 0.40140 -0.00872 0.21296
 C1049 C 0.41441 -0.04495 0.20732
 C1050 C 0.43482 -0.04856 0.18028
 C1051 C 0.45380 0.00921 0.18723
 C1052 C 0.43350 0.01280 0.21424
 H1053 H 0.39630 0.00285 0.12723
 H1054 H 0.35871 0.00956 0.17713
 H1055 H 0.40829 -0.06614 0.22314
 H1056 H 0.44597 -0.07265 0.17336
 H1057 H 0.47750 0.02251 0.18556
 H1058 H 0.44022 0.02936 0.23474
 C1059 C 0.94126 0.48619 0.65856
 C1060 C 0.90565 0.49915 0.65052
 C1061 C 0.88554 0.50253 0.67780
 C1062 C 0.90262 0.49258 0.71100
 C1063 C 0.91562 0.45643 0.70489
 C1064 C 0.93582 0.45313 0.67767
 C1065 C 0.95487 0.51081 0.68510
 C1066 C 0.93477 0.51406 0.71234
 H1067 H 0.89698 0.50525 0.62546
 H1068 H 0.85978 0.51146 0.67566
 H1069 H 0.90977 0.43508 0.72058
 H1070 H 0.94702 0.42914 0.67049
 H1071 H 0.97857 0.52410 0.68335
 H1072 H 0.94168 0.53027 0.73306
 C1073 C 0.93974 0.50858 0.84204
 C1074 C 0.95349 0.48300 0.81640
 C1075 C 0.93377 0.47962 0.78867
 C1076 C 0.90194 0.50196 0.78871
 C1077 C 0.88420 0.49307 0.82164
 C1078 C 0.90386 0.49665 0.84941
 C1079 C 0.93509 0.54129 0.82208
 C1080 C 0.91532 0.53790 0.79446
 H1081 H 0.97693 0.46910 0.81915
 H1082 H 0.94066 0.46272 0.76847
 H1083 H 0.85839 0.48456 0.82325
 H1084 H 0.89476 0.49118 0.87434
 H1085 H 0.94656 0.56515 0.82893
 H1086 H 0.91015 0.55907 0.77819
 C1087 C 0.43968 0.00817 0.34309
 C1088 C 0.45315 -0.01716 0.31713
 C1089 C 0.43304 -0.02049 0.28973
 C1090 C 0.40111 0.00169 0.29032
 C1091 C 0.38385 -0.00746 0.32341
 C1092 C 0.40397 -0.00413 0.35090
 C1093 C 0.43441 0.04103 0.32355
 C1094 C 0.41430 0.03769 0.29612
 H1095 H 0.47620 -0.03170 0.31981
 H1096 H 0.43944 -0.03777 0.26972
 H1097 H 0.35801 -0.01580 0.32535
 H1098 H 0.39523 -0.00975 0.37593
 H1099 H 0.44559 0.06495 0.33067
 H1100 H 0.40852 0.05897 0.28015
   
