data_POSCAR
  _audit_creation_date              2014-09-24
  _audit_creation_method            'ToBaCCo'
  _symmetry_space_group_name_H-M    'P1'
  _symmetry_Int_Tables_number       1
  _symmetry_cell_setting            triclinic
  loop_
  _symmetry_equiv_pos_as_xyz
 x,y,z
_cell_length_a 35.3673
_cell_length_b 34.6586
_cell_length_c 21.3472
_cell_angle_alpha 89.891700
_cell_angle_beta 89.997600
_cell_angle_gamma 122.500900
loop_
  _atom_site_label
  _atom_site_type_symbol
  _atom_site_fract_x
  _atom_site_fract_y
  _atom_site_fract_z
O1 O -0.05863 0.40765 0.01858
 O2 O 0.00790 0.52492 0.07792
 O3 O -0.06635 0.47751 0.01433
 O4 O 0.01740 0.45657 0.07987
 O5 O 0.05440 0.47765 -0.00989
 O6 O -0.02838 0.50073 -0.07447
 O7 O 0.04528 0.54834 -0.01147
 O8 O -0.02128 0.42970 -0.07084
 Cu9 Cu -0.02866 0.46426 0.05659
 Cu10 Cu 0.01649 0.49132 -0.05055
 C11 C -0.05208 0.39879 -0.03648
 C12 C 0.03773 0.55652 0.04356
 C13 C -0.06171 0.49263 -0.04128
 C14 C 0.05028 0.46391 0.04632
 O15 O 0.47138 0.49303 0.07698
 O16 O 0.58162 0.52409 0.01767
 O17 O 0.54943 0.56683 0.07660
 O18 O 0.50342 0.45076 0.01636
 O19 O 0.48687 0.47018 -0.07330
 O20 O 0.53646 0.58804 -0.01444
 O21 O 0.56704 0.54386 -0.07332
 O22 O 0.45591 0.51277 -0.01342
 Cu23 Cu 0.52793 0.50675 0.05600
 Cu24 Cu 0.51015 0.53100 -0.05264
 C25 C 0.44507 0.49783 0.04228
 C26 C 0.59264 0.53801 -0.03831
 C27 C 0.55048 0.59704 0.04166
 C28 C 0.48790 0.44077 -0.03897
 O29 O 0.52587 1.01014 -0.08127
 O30 O 0.41070 0.94870 -0.01669
 O31 O 0.45952 1.02301 -0.08113
 O32 O 0.47584 0.93425 -0.01640
 O33 O 0.50467 0.97518 0.06963
 O34 O 0.48456 1.06159 0.00734
 O35 O 0.43782 0.98581 0.07254
 O36 O 0.55098 1.05057 0.00581
 Cu37 Cu 0.46554 0.97501 -0.05780
 Cu38 Cu 0.49700 1.02219 0.04766
 C39 C 0.55778 1.04164 -0.04906
 C40 C 0.40508 0.95640 0.03957
 C41 C 0.46939 1.05753 -0.04783
 C42 C 0.49281 0.93955 0.03777
 O43 O 0.93448 0.47383 0.49129
 O44 O 1.02338 0.46056 0.42709
 O45 O 0.95461 0.40891 0.49104
 O46 O 1.01252 0.52486 0.42421
 O47 O 1.04191 0.55424 0.51652
 O48 O 0.98348 0.43853 0.58362
 O49 O 1.06007 0.48701 0.51641
 O50 O 0.97257 0.50365 0.57873
 Cu51 Cu 0.97579 0.46457 0.45075
 Cu52 Cu 1.01990 0.49845 0.55645
 C53 C 0.93796 0.49044 0.54558
 C54 C 1.05698 0.47165 0.46133
 C55 C 0.95892 0.40410 0.54909
 C56 C 1.03769 0.55927 0.45855
 O57 O 0.45859 0.51917 0.51261
 O58 O 0.56800 0.55078 0.57770
 O59 O 0.53945 0.59455 0.51247
 O60 O 0.48940 0.47889 0.57866
 O61 O 0.50297 0.45554 0.49000
 O62 O 0.55343 0.57118 0.42421
 O63 O 0.58443 0.52979 0.48930
 O64 O 0.47523 0.49863 0.42395
 Cu65 Cu 0.51236 0.53854 0.55397
 Cu66 Cu 0.53093 0.51150 0.44826
 C67 C 0.44844 0.50365 0.45716
 C68 C 0.59441 0.54490 0.54492
 C69 C 0.55425 0.60222 0.45668
 C70 C 0.48781 0.44769 0.54562
 O71 O 0.46456 0.02693 0.57159
 O72 O 0.47848 -0.06337 0.50739
 O73 O 0.52978 0.01387 0.56930
 O74 O 0.41323 -0.04805 0.51155
 O75 O 0.43853 -0.01616 0.41879
 O76 O 0.55259 0.05415 0.48159
 O77 O 0.50780 -0.02272 0.42102
 O78 O 0.48544 0.06273 0.48032
 Cu79 Cu 0.46916 -0.02189 0.54879
 Cu80 Cu 0.49806 0.02306 0.44112
 C81 C 0.47324 0.06051 0.53688
 C82 C 0.49578 -0.05823 0.45343
 C83 C 0.56048 0.04621 0.53645
 C84 C 0.40636 -0.04370 0.45438
 C85 C 0.16134 0.46503 0.31058
 C86 C 0.13899 0.45920 0.25384
 C87 C 0.15862 0.46168 0.19575
 C88 C 0.20211 0.46888 0.19433
 C89 C 0.22401 0.47161 0.25147
 C90 C 0.20473 0.47224 0.30950
 C91 C 0.23062 0.48273 0.36411
 C92 C 0.27164 0.48623 0.36323
 C93 C 0.28857 0.47942 0.30769
 C94 C 0.26613 0.47535 0.25055
 C95 C 0.22562 0.47617 0.13798
 C96 C 0.26686 0.47998 0.13709
 C97 C 0.28638 0.47659 0.19250
 C98 C 0.32677 0.47711 0.19208
 C99 C 0.34643 0.47753 0.24930
 C100 C 0.32854 0.47922 0.30697
 H101 H 0.22019 0.48957 0.40801
 H102 H 0.29034 0.49561 0.40647
 H103 H 0.21320 0.48038 0.09398
 H104 H 0.28364 0.48683 0.09243
 H105 H 0.10522 0.45216 0.25495
 H106 H 0.37624 0.47603 0.24897
 C107 C 0.52120 0.84714 0.18867
 C108 C 0.51525 0.86275 0.24596
 C109 C 0.52234 0.84799 0.30326
 C110 C 0.53738 0.81745 0.30357
 C111 C 0.54431 0.80165 0.24595
 C112 C 0.53613 0.81648 0.18833
 C113 C 0.54354 0.80058 0.13210
 C114 C 0.55598 0.76877 0.13212
 C115 C 0.56481 0.75383 0.18829
 C116 C 0.55922 0.77072 0.24598
 C117 C 0.54612 0.80260 0.35980
 C118 C 0.55875 0.77097 0.35994
 C119 C 0.56633 0.75506 0.30378
 C120 C 0.57913 0.72267 0.30348
 C121 C 0.58482 0.70691 0.24622
 C122 C 0.57742 0.72127 0.18884
 H123 H 0.53975 0.81233 0.08706
 H124 H 0.55817 0.75607 0.08715
 H125 H 0.54326 0.81509 0.40472
 H126 H 0.56200 0.75913 0.40509
 H127 H 0.50286 0.88537 0.24599
 H128 H 0.59411 0.68173 0.24638
 C129 C 0.12269 0.68622 0.30656
 C130 C 0.10198 0.66687 0.24918
 C131 C 0.12195 0.68709 0.19169
 C132 C 0.16274 0.73043 0.19115
 C133 C 0.18283 0.75225 0.24875
 C134 C 0.16470 0.72860 0.30620
 C135 C 0.19107 0.74652 0.36037
 C136 C 0.23013 0.78980 0.36038
 C137 C 0.24459 0.81723 0.30623
 C138 C 0.22276 0.79674 0.24878
 C139 C 0.18580 0.75127 0.13525
 C140 C 0.22463 0.79473 0.13525
 C141 C 0.24230 0.81932 0.19119
 C142 C 0.28077 0.86442 0.19178
 C143 C 0.29872 0.88584 0.24926
 C144 C 0.28223 0.86299 0.30651
 H145 H 0.18315 0.72670 0.40285
 H146 H 0.24960 0.80035 0.40288
 H147 H 0.17506 0.73399 0.09076
 H148 H 0.24108 0.80795 0.09076
 H149 H 0.06979 0.63473 0.24900
 H150 H 0.32719 0.92088 0.24915
 C151 C 0.84358 0.51458 0.69439
 C152 C 0.86179 0.51248 0.75162
 C153 C 0.84913 0.52220 0.80869
 C154 C 0.81828 0.53642 0.80822
 C155 C 0.79756 0.53634 0.75116
 C156 C 0.81069 0.52608 0.69392
 C157 C 0.79088 0.52818 0.63801
 C158 C 0.75680 0.53688 0.63857
 C159 C 0.74283 0.54674 0.69466
 C160 C 0.76341 0.54633 0.75153
 C161 C 0.80853 0.55219 0.86269
 C162 C 0.77461 0.56111 0.86315
 C163 C 0.74918 0.55473 0.80917
 C164 C 0.71052 0.55730 0.81093
 C165 C 0.69187 0.55953 0.75412
 C166 C 0.70816 0.55578 0.69603
 H167 H 0.80118 0.52293 0.59291
 H168 H 0.74098 0.53457 0.59434
 H169 H 0.82726 0.55819 0.90546
 H170 H 0.76878 0.57356 0.90620
 H171 H 0.88496 0.50111 0.75176
 H172 H 0.66337 0.56318 0.75484
 C173 C 0.44814 0.15441 0.80285
 C174 C 0.45478 0.13928 0.74545
 C175 C 0.45595 0.16008 0.68846
 C176 C 0.45100 0.19810 0.68878
 C177 C 0.44451 0.21404 0.74643
 C178 C 0.44034 0.19046 0.80292
 C179 C 0.42734 0.20303 0.85748
 C180 C 0.42633 0.24259 0.85901
 C181 C 0.43844 0.27106 0.80615
 C182 C 0.44291 0.25421 0.74795
 C183 C 0.45206 0.22057 0.63333
 C184 C 0.45189 0.26059 0.63494
 C185 C 0.44724 0.27813 0.69174
 C186 C 0.44792 0.31938 0.69446
 C187 C 0.44852 0.33787 0.75310
 C188 C 0.44548 0.31536 0.80939
 H189 H 0.41778 0.18240 0.89954
 H190 H 0.41579 0.25056 0.90201
 H191 H 0.45334 0.20790 0.58777
 H192 H 0.45666 0.27793 0.59090
 H193 H 0.46163 0.11234 0.74521
 H194 H 0.45239 0.37098 0.75446
 C195 C 0.86488 0.26943 0.81196
 C196 C 0.88746 0.29136 0.75635
 C197 C 0.86935 0.27344 0.69717
 C198 C 0.82587 0.23313 0.69318
 C199 C 0.80313 0.20994 0.74894
 C200 C 0.82437 0.22605 0.80780
 C201 C 0.80416 0.19818 0.86067
 C202 C 0.76027 0.16062 0.85813
 C203 C 0.73519 0.14990 0.80265
 C204 C 0.75797 0.17205 0.74646
 C205 C 0.80365 0.21607 0.63566
 C206 C 0.75988 0.17822 0.63326
 C207 C 0.73526 0.15776 0.68832
 C208 C 0.68869 0.12381 0.68719
 C209 C 0.66618 0.10441 0.74382
 C210 C 0.68829 0.11770 0.80168
 H211 H 0.82196 0.20563 0.90466
 H212 H 0.74593 0.14054 0.90030
 H213 H 0.81893 0.23230 0.59167
 H214 H 0.74553 0.16574 0.58746
 H215 H 0.91894 0.32402 0.75863
 H216 H 0.63013 0.08105 0.74308
 N217 N 0.12938 0.43347 0.08617
 N218 N 0.10127 0.43475 0.04660
 C219 C 0.08443 0.45737 0.07381
 C220 C 0.10289 0.47160 0.13267
 C221 C 0.13199 0.45653 0.13863
 H222 H 0.09605 0.49039 0.16639
 H223 H 0.14490 0.41546 0.07797
 H224 H 0.09259 0.41891 0.00279
 N225 N 0.59803 0.71558 0.07691
 N226 N 0.59019 0.68244 0.03782
 C227 C 0.56624 0.64218 0.06823
 C228 C 0.55809 0.64978 0.12866
 C229 C 0.57796 0.69667 0.13220
 H230 H 0.53924 0.62450 0.16467
 H231 H 0.61755 0.75039 0.06598
 H232 H 0.60181 0.68752 -0.00830
 N233 N 0.28843 0.89230 0.07988
 N234 N 0.32147 0.91602 0.03941
 C235 C 0.36058 0.92987 0.06833
 C236 C 0.35227 0.91415 0.12924
 C237 C 0.30604 0.88961 0.13459
 H238 H 0.37648 0.91859 0.16419
 H239 H 0.25465 0.87889 0.07009
 H240 H 0.31723 0.92306 -0.00673
 N241 N 0.83286 0.47320 0.59253
 N242 N 0.85811 0.46752 0.55268
 C243 C 0.90105 0.49307 0.57176
 C244 C 0.90332 0.51637 0.62551
 C245 C 0.85943 0.50326 0.63701
 H246 H 0.93251 0.53797 0.65418
 H247 H 0.79787 0.45464 0.59109
 H248 H 0.84569 0.44445 0.51538
 N249 N 0.42750 0.32870 0.58455
 N250 N 0.43886 0.36262 0.54487
 C251 C 0.46890 0.40222 0.57299
 C252 C 0.47741 0.39336 0.63262
 C253 C 0.45118 0.34615 0.63792
 H254 H 0.49991 0.41790 0.66705
 H255 H 0.40297 0.29449 0.57557
 H256 H 0.42513 0.35871 0.50026
 N257 N 0.66517 0.14216 0.58613
 N258 N 0.63188 0.12109 0.54573
 C259 C 0.60503 0.07709 0.56333
 C260 C 0.62233 0.06955 0.61673
 C261 C 0.66102 0.11167 0.62943
 H262 H 0.60740 0.03858 0.64453
 H263 H 0.68813 0.17749 0.58627
 H264 H 0.62596 0.13753 0.50956
 N265 N 0.47510 0.16027 0.91346
 N266 N 0.48060 0.13274 0.95530
 C267 C 0.46481 0.09204 0.92747
 C268 C 0.44786 0.09212 0.86884
 C269 C 0.45468 0.13537 0.86166
 H270 H 0.43414 0.06482 0.83468
 H271 H 0.48904 0.19527 0.91967
 H272 H 0.49735 0.14373 0.99814
 N273 N 0.68350 0.52646 0.91963
 N274 N 0.65313 0.52241 0.95967
 C275 C 0.63415 0.54413 0.93635
 C276 C 0.65407 0.56383 0.87944
 C277 C 0.68567 0.55207 0.87029
 H278 H 0.64441 0.58129 0.84745
 H279 H 0.69931 0.50840 0.92411
 H280 H 0.64309 0.50184 0.99974
 N281 N 0.85258 0.29157 0.91876
 N282 N 0.87497 0.32524 0.95907
 C283 C 0.91720 0.35279 0.93830
 C284 C 0.92232 0.33521 0.88305
 C285 C 0.88035 0.29589 0.87189
 H286 H 0.95154 0.35110 0.85301
 H287 H 0.81788 0.26898 0.92098
 H288 H 0.86031 0.33134 0.99712
 N289 N 0.48638 0.83746 0.40891
 N290 N 0.47982 0.86245 0.44883
 C291 C 0.50058 0.90558 0.42680
 C292 C 0.52157 0.90827 0.37082
 C293 C 0.51214 0.86442 0.36122
 H294 H 0.53930 0.93748 0.33980
 H295 H 0.47132 0.80209 0.41281
 H296 H 0.45951 0.84949 0.48862
 N297 N 0.33354 0.45798 0.41876
 N298 N 0.36539 0.46546 0.45871
 C299 C 0.40536 0.49161 0.43031
 C300 C 0.39891 0.50164 0.37016
 C301 C 0.35282 0.48038 0.36472
 H302 H 0.42432 0.52137 0.33513
 H303 H 0.29930 0.43626 0.42784
 H304 H 0.35961 0.45115 0.50349
 N305 N 0.10194 0.67808 0.42160
 N306 N 0.07938 0.64211 0.46431
 C307 C 0.06167 0.60279 0.43201
 C308 C 0.07308 0.61246 0.36932
 C309 C 0.09967 0.65992 0.36476
 H310 H 0.06535 0.58786 0.33247
 H311 H 0.11625 0.71253 0.43270
 H312 H 0.07642 0.64584 0.51227
 N313 N 0.84136 0.49431 0.91969
 N314 N 0.86666 0.48627 0.96159
 C315 C 0.90591 0.49942 0.93351
 C316 C 0.90704 0.51699 0.87454
 C317 C 0.86617 0.51349 0.86753
 H318 H 0.93362 0.52920 0.84019
 H319 H 0.80769 0.48303 0.92633
 H320 H 0.85525 0.47002 1.00497
 N321 N 0.47383 0.33469 0.92055
 N322 N 0.48445 0.36937 0.96342
 C323 C 0.47414 0.39780 0.93696
 C324 C 0.45489 0.38097 0.87870
 C325 C 0.45509 0.34118 0.86967
 H326 H 0.44474 0.39748 0.84578
 H327 H 0.48499 0.31240 0.92484
 H328 H 0.50227 0.37465 1.00490
 N329 N 0.66890 0.13086 0.90932
 N330 N 0.63469 0.11056 0.94845
 C331 C 0.60301 0.06998 0.92427
 C332 C 0.61805 0.06375 0.86755
 C333 C 0.66042 0.10320 0.85975
 H334 H 0.59963 0.03575 0.83504
 H335 H 0.69588 0.16453 0.91481
 H336 H 0.63206 0.12572 0.98909
 N337 N 0.13707 0.44264 0.42330
 N338 N 0.11039 0.44565 0.46370
 C339 C 0.09277 0.46724 0.43555
 C340 C 0.10906 0.47884 0.37523
 C341 C 0.13769 0.46332 0.36923
 H342 H 0.10032 0.49532 0.34010
 H343 H 0.15260 0.42467 0.43194
 H344 H 0.10258 0.43095 0.50834
 N345 N 0.60282 0.71987 0.41463
 N346 N 0.59545 0.68771 0.45545
 C347 C 0.57048 0.64670 0.42744
 C348 C 0.56120 0.65276 0.36685
 C349 C 0.58142 0.69956 0.36072
 H350 H 0.54111 0.62657 0.33261
 H351 H 0.62266 0.75494 0.42360
 H352 H 0.60786 0.69391 0.50117
 N353 N 0.28985 0.88293 0.42196
 N354 N 0.32533 0.90802 0.46357
 C355 C 0.36341 0.92959 0.42968
 C356 C 0.35353 0.91839 0.36709
 C357 C 0.30741 0.88779 0.36416
 H358 H 0.37741 0.92860 0.32915
 H359 H 0.25602 0.86492 0.43451
 H360 H 0.32209 0.90961 0.51198
 N361 N 0.48349 0.83549 0.08423
 N362 N 0.47643 0.86011 0.04416
 C363 C 0.49760 0.90348 0.06510
 C364 C 0.51940 0.90672 0.12048
 C365 C 0.51004 0.86293 0.13086
 H366 H 0.53776 0.93629 0.15056
 H367 H 0.46828 0.80007 0.08118
 H368 H 0.45557 0.84680 0.00502
 N369 N 0.33031 0.45258 0.08165
 N370 N 0.36180 0.45900 0.04163
 C371 C 0.40208 0.48688 0.06826
 C372 C 0.39619 0.49915 0.12713
 C373 C 0.35013 0.47729 0.13388
 H374 H 0.42196 0.52030 0.16090
 H375 H 0.29604 0.42976 0.07423
 H376 H 0.35563 0.44265 -0.00163
 N377 N 0.09384 0.67565 0.07990
 N378 N 0.07274 0.64110 0.04019
 C379 C 0.06422 0.60274 0.06928
 C380 C 0.08068 0.61310 0.12950
 C381 C 0.10002 0.65985 0.13434
 H382 H 0.07871 0.58972 0.16500
 H383 H 0.10226 0.70892 0.07027
 H384 H 0.06280 0.64357 -0.00493
 N385 N 0.49544 0.16907 0.58613
 N386 N 0.49869 0.14241 0.54524
 C387 C 0.47179 0.09861 0.56375
 C388 C 0.45006 0.09726 0.61837
 C389 C 0.46543 0.14269 0.63071
 H390 H 0.42804 0.06761 0.64693
 H391 H 0.51578 0.20474 0.58537
 H392 H 0.52136 0.15436 0.50790
 N393 N 0.70703 0.58123 0.58532
 N394 N 0.67681 0.57766 0.54517
 C395 C 0.63634 0.55442 0.57297
 C396 C 0.64070 0.54219 0.63281
 C397 C 0.68602 0.55903 0.63870
 H398 H 0.61438 0.52325 0.66700
 H399 H 0.74150 0.59983 0.57666
 H400 H 0.68410 0.59219 0.50042
 N401 N 0.90154 0.28500 0.58806
 N402 N 0.92469 0.31957 0.54877
 C403 C 0.93428 0.35840 0.57738
 C404 C 0.91630 0.34828 0.63696
 C405 C 0.89494 0.30119 0.64166
 H406 H 0.91737 0.37176 0.67135
 H407 H 0.89113 0.25116 0.57834
 H408 H 0.93422 0.31655 0.50364
   
