data_POSCAR
  _audit_creation_date              2014-09-24
  _audit_creation_method            'ToBaCCo'
  _symmetry_space_group_name_H-M    'P1'
  _symmetry_Int_Tables_number       1
  _symmetry_cell_setting            triclinic
  loop_
  _symmetry_equiv_pos_as_xyz
 x,y,z
_cell_length_a 47.0337
_cell_length_b 45.6165
_cell_length_c 48.0713
_cell_angle_alpha 90.687600
_cell_angle_beta 88.123900
_cell_angle_gamma 89.578900
loop_
  _atom_site_label
  _atom_site_type_symbol
  _atom_site_fract_x
  _atom_site_fract_y
  _atom_site_fract_z
N1 N 0.15096 0.18707 0.22378
 N2 N 0.15403 0.16115 0.23493
 C3 C 0.13562 0.15866 0.25674
 C4 C 0.12003 0.18449 0.25949
 C5 C 0.13037 0.20199 0.23809
 H6 H 0.13434 0.13972 0.27001
 H7 H 0.12350 0.22392 0.23316
 Cu8 Cu 0.18302 0.13385 0.22129
 Cu9 Cu 0.17360 0.19924 0.19135
 Cu10 Cu 0.22720 0.15145 0.16815
 N11 N 0.21975 0.11488 0.21577
 N12 N 0.23763 0.12245 0.19559
 C13 C 0.26165 0.10638 0.19723
 C14 C 0.25847 0.08769 0.21963
 C15 C 0.23159 0.09368 0.23084
 H16 H 0.27978 0.10776 0.18288
 H17 H 0.22151 0.08368 0.24888
 N18 N 0.21818 0.18817 0.14899
 N19 N 0.19861 0.20694 0.15859
 C20 C 0.19780 0.23003 0.14146
 C21 C 0.21757 0.22547 0.11992
 C22 C 0.23010 0.19868 0.12531
 H23 H 0.18327 0.24842 0.14392
 H24 H 0.24680 0.18779 0.11303
 H25 H 0.18363 0.15818 0.17597
 H26 H 0.20900 0.17443 0.20076
 N27 N 0.66600 0.72778 0.73220
 N28 N 0.66983 0.70118 0.74168
 C29 C 0.65461 0.69817 0.76568
 C30 C 0.64108 0.72456 0.77174
 C31 C 0.64874 0.74287 0.75014
 H32 H 0.65359 0.67840 0.77786
 H33 H 0.64128 0.76506 0.74716
 Cu34 Cu 0.69523 0.67346 0.72247
 Cu35 Cu 0.68104 0.73962 0.69592
 Cu36 Cu 0.73338 0.69525 0.66568
 N37 N 0.72968 0.65320 0.70962
 N38 N 0.74447 0.66157 0.68748
 C39 C 0.76781 0.64446 0.68429
 C40 C 0.76777 0.62441 0.70574
 C41 C 0.74315 0.63062 0.72136
 H42 H 0.78413 0.64716 0.66818
 H43 H 0.73572 0.61990 0.74014
 N44 N 0.71879 0.73059 0.64756
 N45 N 0.69869 0.74746 0.65915
 C46 C 0.69321 0.76973 0.64198
 C47 C 0.71087 0.76693 0.61851
 C48 C 0.72687 0.74187 0.62280
 H49 H 0.67795 0.78712 0.64649
 H50 H 0.74316 0.73255 0.60891
 H51 H 0.69099 0.69864 0.67851
 H52 H 0.71800 0.71560 0.70162
 N53 N 0.35013 0.76608 0.72527
 N54 N 0.34299 0.78982 0.73969
 C55 C 0.36235 0.79448 0.75925
 C56 C 0.38296 0.77278 0.75647
 C57 C 0.37466 0.75523 0.73460
 H58 H 0.36177 0.81249 0.77410
 H59 H 0.38526 0.73562 0.72655
 Cu60 Cu 0.30974 0.81270 0.73049
 Cu61 Cu 0.32664 0.75079 0.69594
 Cu62 Cu 0.25802 0.78004 0.69605
 N63 N 0.27736 0.83490 0.71778
 N64 N 0.25584 0.82151 0.70654
 C65 C 0.23444 0.84088 0.70364
 C66 C 0.24341 0.86823 0.71271
 C67 C 0.27094 0.86350 0.72130
 H68 H 0.21418 0.83547 0.69495
 H69 H 0.28463 0.87924 0.73107
 N70 N 0.26948 0.74373 0.67571
 N71 N 0.29543 0.73249 0.67600
 C72 C 0.29689 0.70871 0.65917
 C73 C 0.27084 0.70522 0.64723
 C74 C 0.25399 0.72787 0.65798
 H75 H 0.31600 0.69602 0.65446
 H76 H 0.23249 0.73317 0.65234
 H77 H 0.29979 0.78644 0.68763
 H78 H 0.29192 0.76393 0.71907
 N79 N 0.83409 0.29159 0.24943
 N80 N 0.83225 0.31939 0.25670
 C81 C 0.85341 0.32588 0.27386
 C82 C 0.86949 0.30062 0.27776
 C83 C 0.85630 0.27929 0.26186
 H84 H 0.85647 0.34733 0.28298
 H85 H 0.86223 0.25648 0.25917
 Cu86 Cu 0.80165 0.34395 0.24381
 Cu87 Cu 0.80727 0.27336 0.22463
 Cu88 Cu 0.76779 0.32262 0.18701
 N89 N 0.76705 0.36349 0.23286
 N90 N 0.75417 0.35567 0.21011
 C91 C 0.73150 0.37335 0.20689
 C92 C 0.72989 0.39310 0.22906
 C93 C 0.75287 0.38614 0.24511
 H94 H 0.71699 0.37148 0.18998
 H95 H 0.75905 0.39692 0.26410
 N96 N 0.77446 0.28164 0.17505
 N97 N 0.78799 0.26247 0.19025
 C98 C 0.78827 0.23623 0.17711
 C99 C 0.77444 0.23909 0.15231
 C100 C 0.76596 0.26822 0.15170
 H101 H 0.79876 0.21678 0.18450
 H102 H 0.75425 0.27881 0.13559
 H103 H 0.80750 0.31140 0.20323
 H104 H 0.77416 0.30408 0.22398
 N105 N 0.82776 0.75024 0.24973
 N106 N 0.82615 0.72395 0.23838
 C107 C 0.84535 0.72153 0.21710
 C108 C 0.85939 0.74789 0.21470
 C109 C 0.84770 0.76570 0.23564
 H110 H 0.84859 0.70222 0.20407
 H111 H 0.85401 0.78780 0.24082
 Cu112 Cu 0.79819 0.69580 0.25122
 Cu113 Cu 0.80612 0.76105 0.28373
 Cu114 Cu 0.75574 0.71105 0.30681
 N115 N 0.76237 0.67561 0.25740
 N116 N 0.74584 0.68167 0.27928
 C117 C 0.72299 0.66416 0.27909
 C118 C 0.72516 0.64619 0.25566
 C119 C 0.75047 0.65416 0.24232
 H120 H 0.70604 0.66468 0.29484
 H121 H 0.75984 0.64474 0.22338
 N122 N 0.76311 0.74798 0.32661
 N123 N 0.78228 0.76711 0.31800
 C124 C 0.78307 0.78927 0.33678
 C125 C 0.76317 0.78392 0.35797
 C126 C 0.75087 0.75761 0.35072
 H127 H 0.79721 0.80781 0.33530
 H128 H 0.73478 0.74590 0.36259
 H129 H 0.79873 0.71951 0.29734
 H130 H 0.77150 0.73540 0.27438
 N131 N 0.35850 0.21672 -0.22436
 N132 N 0.35484 0.18985 -0.23366
 C133 C 0.37371 0.18433 -0.25479
 C134 C 0.38951 0.20951 -0.25956
 C135 C 0.37917 0.22958 -0.23971
 H136 H 0.37468 0.16407 -0.26672
 H137 H 0.38641 0.25172 -0.23619
 Cu138 Cu 0.32361 0.16590 -0.21924
 Cu139 Cu 0.33620 0.23242 -0.19265
 Cu140 Cu 0.26772 0.20679 -0.19537
 N141 N 0.28618 0.14899 -0.21257
 N142 N 0.26414 0.16550 -0.20500
 C143 C 0.24046 0.14919 -0.20505
 C144 C 0.24815 0.12081 -0.21243
 C145 C 0.27734 0.12136 -0.21701
 H146 H 0.21924 0.15736 -0.20000
 H147 H 0.29085 0.10339 -0.22434
 N148 N 0.27791 0.24264 -0.17455
 N149 N 0.30445 0.25116 -0.17194
 C150 C 0.30531 0.27243 -0.15238
 C151 C 0.27784 0.27782 -0.14246
 C152 C 0.26099 0.25872 -0.15705
 H153 H 0.32457 0.28236 -0.14513
 H154 H 0.23851 0.25499 -0.15334
 H155 H 0.30726 0.19837 -0.18152
 H156 H 0.30534 0.21618 -0.21629
 N157 N 0.65636 0.28371 -0.21268
 N158 N 0.67015 0.29750 -0.23272
 C159 C 0.65406 0.29798 -0.25539
 C160 C 0.62856 0.28373 -0.24919
 C161 C 0.63094 0.27522 -0.22167
 H162 H 0.66056 0.30804 -0.27478
 H163 H 0.61580 0.26312 -0.20902
 Cu164 Cu 0.70762 0.31385 -0.22673
 Cu165 Cu 0.67254 0.27699 -0.17651
 Cu166 Cu 0.74534 0.28606 -0.17534
 N167 N 0.74192 0.33306 -0.21425
 N168 N 0.75656 0.32216 -0.19390
 C169 C 0.77845 0.33999 -0.18864
 C170 C 0.77752 0.36337 -0.20668
 C171 C 0.75412 0.35815 -0.22278
 H172 H 0.79375 0.33627 -0.17271
 H173 H 0.74607 0.37203 -0.23887
 N174 N 0.72441 0.26103 -0.14900
 N175 N 0.69638 0.25954 -0.14797
 C176 C 0.68815 0.24275 -0.12635
 C177 C 0.71225 0.23290 -0.11350
 C178 C 0.73486 0.24485 -0.12842
 H179 H 0.66633 0.23749 -0.12078
 H180 H 0.75719 0.24275 -0.12406
 H181 H 0.70694 0.30532 -0.17662
 H182 H 0.71019 0.27059 -0.19744
 N183 N 0.16211 0.75762 0.25448
 N184 N 0.17589 0.77297 0.23547
 C185 C 0.15802 0.77942 0.21496
 C186 C 0.13158 0.76773 0.22178
 C187 C 0.13510 0.75402 0.24694
 H188 H 0.16358 0.79238 0.19693
 H189 H 0.11915 0.74220 0.25891
 Cu190 Cu 0.21528 0.78473 0.24031
 Cu191 Cu 0.17977 0.74349 0.28779
 Cu192 Cu 0.24354 0.77484 0.30336
 N193 N 0.24871 0.80619 0.25197
 N194 N 0.25804 0.80390 0.27732
 C195 C 0.27916 0.82315 0.28085
 C196 C 0.28385 0.83815 0.25619
 C197 C 0.26418 0.82649 0.23819
 H198 H 0.29069 0.82545 0.29982
 H199 H 0.26032 0.83330 0.21717
 N200 N 0.22548 0.74456 0.32670
 N201 N 0.20117 0.73231 0.32054
 C202 C 0.19453 0.71209 0.33981
 C203 C 0.21575 0.71145 0.35917
 C204 C 0.23503 0.73245 0.35006
 H205 H 0.17563 0.69880 0.33962
 H206 H 0.25473 0.73837 0.35951
 H207 H 0.20301 0.78183 0.28944
 H208 H 0.22245 0.74812 0.27582
 N209 N 0.48781 0.41576 0.48038
 N210 N 0.47412 0.43005 0.50068
 C211 C 0.47426 0.41362 0.52385
 C212 C 0.48852 0.38755 0.51747
 C213 C 0.49681 0.38978 0.48974
 H214 H 0.46382 0.41964 0.54349
 H215 H 0.50848 0.37358 0.47725
 Cu216 Cu 0.45557 0.46773 0.49425
 Cu217 Cu 0.49326 0.43160 0.44331
 Cu218 Cu 0.45204 0.49133 0.42795
 N219 N 0.42833 0.49774 0.48356
 N220 N 0.42595 0.50538 0.45743
 C221 C 0.40438 0.52469 0.45558
 C222 C 0.39284 0.52981 0.48198
 C223 C 0.40860 0.51248 0.49933
 H224 H 0.39779 0.53466 0.43652
 H225 H 0.40538 0.51012 0.52157
 N226 N 0.48009 0.47400 0.40118
 N227 N 0.49580 0.45099 0.40706
 C228 C 0.51410 0.44531 0.38553
 C229 C 0.50988 0.46588 0.36510
 C230 C 0.48806 0.48370 0.37577
 H231 H 0.53033 0.42840 0.38537
 H232 H 0.47919 0.50285 0.36614
 H233 H 0.48436 0.47561 0.45207
 H234 H 0.45317 0.45082 0.44653
 N235 N -0.00593 -0.06278 0.98380
 N236 N -0.02411 -0.05290 1.00309
 C237 C -0.02696 -0.07316 1.02319
 C238 C -0.00982 -0.09704 1.01584
 C239 C 0.00317 -0.08963 0.99075
 H240 H -0.04105 -0.07114 1.04135
 H241 H 0.01825 -0.10280 0.97848
 Cu242 Cu -0.04351 -0.01530 0.99912
 Cu243 Cu 0.00496 -0.04029 0.95125
 Cu244 Cu -0.02877 0.02637 0.94268
 N245 N -0.06430 0.02086 0.99217
 N246 N -0.05778 0.03751 0.97078
 C247 C -0.07579 0.06058 0.97077
 C248 C -0.09490 0.05812 0.99311
 C249 C -0.08699 0.03259 1.00622
 H250 H -0.07599 0.07709 0.95482
 H251 H -0.09735 0.02302 1.02431
 N252 N 0.00105 0.01102 0.91641
 N253 N 0.01352 -0.01463 0.91962
 C254 C 0.03203 -0.01962 0.89815
 C255 C 0.03132 0.00399 0.88035
 C256 C 0.01134 0.02304 0.89268
 H257 H 0.04479 -0.03929 0.89552
 H258 H 0.00463 0.04401 0.88489
 H259 H -0.00468 0.00082 0.96806
 H260 H -0.03361 -0.01792 0.94903
 N261 N 1.01406 0.57626 0.99911
 N262 N 1.03153 0.56488 1.01689
 C263 C 1.03726 0.58488 1.03658
 C264 C 1.02257 0.61043 1.03109
 C265 C 1.00786 0.60411 1.00715
 H266 H 1.05121 0.58102 1.05360
 H267 H 0.99429 0.61884 0.99603
 Cu268 Cu 1.04637 0.52550 1.01239
 Cu269 Cu 1.00200 0.55387 0.96647
 Cu270 Cu 1.03630 0.48686 0.95404
 N271 N 1.07008 0.49201 1.00244
 N272 N 1.06571 0.47625 0.97995
 C273 C 1.08595 0.45524 0.97743
 C274 C 1.10416 0.45841 0.99934
 C275 C 1.09339 0.48197 1.01478
 H276 H 1.08831 0.43999 0.96010
 H277 H 1.10231 0.49164 1.03317
 N278 N 1.00611 0.50197 0.93039
 N279 N 0.99321 0.52750 0.93483
 C280 C 0.97425 0.53162 0.91477
 C281 C 0.97524 0.50753 0.89683
 C282 C 0.99572 0.48925 0.90751
 H283 H 0.96063 0.55069 0.91343
 H284 H 1.00290 0.46835 0.89902
 H285 H 1.00951 0.51193 0.98028
 H286 H 1.04003 0.53119 0.96291
 N287 N 0.51385 0.09055 0.49349
 N288 N 0.53747 0.08399 0.50599
 C289 C 0.54057 0.10278 0.52754
 C290 C 0.51758 0.12207 0.52864
 C291 C 0.50111 0.11352 0.50665
 H292 H 0.55827 0.10253 0.54132
 H293 H 0.48165 0.12372 0.50018
 Cu294 Cu 0.56212 0.05200 0.49216
 Cu295 Cu 0.50163 0.06985 0.46037
 Cu296 Cu 0.54509 0.01346 0.43508
 N297 N 0.58622 0.01985 0.47770
 N298 N 0.57948 0.00546 0.45503
 C299 C 0.59966 -0.01476 0.44878
 C300 C 0.62027 -0.01320 0.46858
 C301 C 0.61099 0.00897 0.48677
 H302 H 0.59920 -0.02979 0.43124
 H303 H 0.62173 0.01686 0.50491
 N304 N 0.50943 0.02468 0.41766
 N305 N 0.49290 0.04632 0.42711
 C306 C 0.47064 0.04901 0.41033
 C307 C 0.47322 0.02793 0.38940
 C308 C 0.49807 0.01293 0.39478
 H309 H 0.45376 0.06507 0.41316
 H310 H 0.50754 -0.00482 0.38253
 H311 H 0.52177 0.03079 0.46872
 H312 H 0.54186 0.05732 0.44639
 N313 N -0.00922 0.09404 0.51898
 N314 N -0.03424 0.09202 0.50778
 C315 C -0.03583 0.11113 0.48689
 C316 C -0.01048 0.12629 0.48481
 C317 C 0.00602 0.11475 0.50552
 H318 H -0.05411 0.11349 0.47403
 H319 H 0.02729 0.12118 0.51071
 Cu320 Cu -0.06282 0.06493 0.52110
 Cu321 Cu 0.00084 0.07006 0.55063
 Cu322 Cu -0.04656 0.01509 0.56887
 N323 N -0.08576 0.03039 0.52682
 N324 N -0.07956 0.01101 0.54570
 C325 C -0.09876 -0.01068 0.54514
 C326 C -0.11799 -0.00460 0.52466
 C327 C -0.10899 0.02170 0.51346
 H328 H -0.09833 -0.02977 0.55823
 H329 H -0.11856 0.03369 0.49687
 N330 N -0.01182 0.02299 0.58939
 N331 N 0.00659 0.04345 0.58210
 C332 C 0.02782 0.04356 0.60024
 C333 C 0.02239 0.02231 0.61999
 C334 C -0.00292 0.00972 0.61243
 H335 H 0.04544 0.05866 0.59969
 H336 H -0.01407 -0.00777 0.62300
 H337 H -0.02360 0.03560 0.53721
 H338 H -0.03959 0.05988 0.56533
 N339 N 0.45809 0.59088 0.00787
 N340 N 0.43409 0.58446 -0.00394
 C341 C 0.43061 0.60213 -0.02576
 C342 C 0.45368 0.62083 -0.02786
 C343 C 0.47069 0.61296 -0.00604
 H344 H 0.41262 0.60115 -0.03913
 H345 H 0.49085 0.62234 -0.00070
 Cu346 Cu 0.40961 0.55342 0.00971
 Cu347 Cu 0.47133 0.56967 0.04000
 Cu348 Cu 0.43348 0.50760 0.05806
 N349 N 0.39161 0.51600 0.01676
 N350 N 0.40109 0.49811 0.03559
 C351 C 0.38470 0.47410 0.03645
 C352 C 0.36370 0.47701 0.01706
 C353 C 0.36886 0.50396 0.00491
 H354 H 0.38795 0.45589 0.05019
 H355 H 0.35682 0.51430 -0.01110
 N356 N 0.46674 0.52102 0.07831
 N357 N 0.48100 0.54490 0.07176
 C358 C 0.50211 0.54842 0.08976
 C359 C 0.50114 0.52556 0.10847
 C360 C 0.47843 0.50866 0.10053
 H361 H 0.51725 0.56612 0.08911
 H362 H 0.47067 0.48903 0.11048
 H363 H 0.45291 0.53147 0.02636
 H364 H 0.43295 0.55289 0.05425
 N365 N 0.50249 -0.06109 -0.00838
 N366 N 0.52744 -0.05732 -0.02090
 C367 C 0.53240 -0.07953 -0.03921
 C368 C 0.50941 -0.09829 -0.03766
 C369 C 0.49081 -0.08584 -0.01802
 H370 H 0.55195 -0.08279 -0.05137
 H371 H 0.47080 -0.09475 -0.01042
 Cu372 Cu 0.55205 -0.02540 -0.00978
 Cu373 Cu 0.48839 -0.03520 0.02140
 Cu374 Cu 0.54299 -0.00304 0.05692
 N375 N 0.57854 0.00127 0.00735
 N376 N 0.57493 0.01019 0.03334
 C377 C 0.59676 0.02761 0.03998
 C378 C 0.61509 0.02967 0.01689
 C379 C 0.60275 0.01262 -0.00342
 H380 H 0.59935 0.03749 0.06030
 H381 H 0.61077 0.00867 -0.02447
 N382 N 0.50454 -0.00936 0.07374
 N383 N 0.48338 -0.01988 0.05939
 C384 C 0.46008 -0.02205 0.07616
 C385 C 0.46686 -0.01281 0.10258
 C386 C 0.49524 -0.00477 0.10027
 H387 H 0.44025 -0.03162 0.06997
 H388 H 0.50828 0.00332 0.11676
 H389 H 0.51867 -0.00104 0.02338
 H390 H 0.52888 -0.03871 0.03426
 N391 N 1.02137 0.40143 0.52548
 N392 N 1.04300 0.40974 0.50959
 C393 C 1.04243 0.39528 0.48507
 C394 C 1.01907 0.37693 0.48562
 C395 C 1.00618 0.38144 0.51164
 H396 H 1.05800 0.39774 0.46822
 H397 H 0.98774 0.37032 0.52028
 Cu398 Cu 1.07068 0.43747 0.52308
 Cu399 Cu 1.01624 0.41567 0.56357
 Cu400 Cu 1.04647 0.48395 0.57367
 N401 N 1.09224 0.47143 0.53419
 N402 N 1.08224 0.49048 0.55286
 C403 C 1.10065 0.51290 0.55470
 C404 C 1.12358 0.50710 0.53661
 C405 C 1.11754 0.48061 0.52402
 H406 H 1.09784 0.53166 0.56853
 H407 H 1.13032 0.46929 0.50809
 N408 N 1.01665 0.46764 0.59902
 N409 N 1.00596 0.44128 0.59532
 C410 C 0.98714 0.43565 0.61610
 C411 C 0.98579 0.45954 0.63411
 C412 C 1.00480 0.47952 0.62254
 H413 H 0.97496 0.41571 0.61759
 H414 H 1.00998 0.50090 0.63079
 H415 H 1.02696 0.45456 0.54691
 H416 H 1.05341 0.43990 0.57147
 C417 C 0.38722 -0.02253 0.25395
 C418 C 0.13393 0.00056 0.74226
 C419 C 0.60875 0.51936 0.23544
 C420 C 0.87744 0.50328 0.76174
 C421 C 0.24251 0.35339 0.00721
 C422 C 0.75194 0.13535 0.01783
 C423 C 0.24710 0.62397 0.50068
 C424 C 0.75471 0.88183 0.49888
 C425 C 0.00153 0.25168 0.36825
 C426 C 0.00106 0.76317 0.11676
 C427 C 0.51247 0.26245 0.63330
 C428 C 0.50309 0.75268 0.87080
 C429 C 0.08635 0.17026 0.29854
 C430 C 0.09782 0.19202 0.28108
 C431 C 0.08800 0.22108 0.28450
 C432 C 0.06721 0.22831 0.30506
 C433 C 0.05603 0.20632 0.32257
 C434 C 0.06564 0.17733 0.31906
 C435 C 0.03522 0.21355 0.34313
 C436 C 0.02575 0.24284 0.34714
 C437 C 0.03642 0.26417 0.32853
 C438 C 0.05715 0.25713 0.30811
 H439 H 0.09657 0.23822 0.27139
 H440 H 0.05719 0.16012 0.33220
 H441 H 0.02601 0.19601 0.35526
 H442 H 0.06512 0.27421 0.29453
 H443 H 0.09317 0.14763 0.29634
 H444 H 0.02863 0.28655 0.32998
 C445 C 0.62302 0.75739 0.81011
 C446 C 0.62062 0.73129 0.79470
 C447 C 0.59743 0.71277 0.79987
 C448 C 0.57581 0.72118 0.81920
 C449 C 0.57822 0.74759 0.83454
 C450 C 0.60229 0.76517 0.83036
 C451 C 0.55602 0.75671 0.85289
 C452 C 0.52994 0.74148 0.85412
 C453 C 0.52876 0.71421 0.83988
 C454 C 0.55138 0.70416 0.82274
 H455 H 0.59544 0.69275 0.78772
 H456 H 0.60447 0.78555 0.84188
 H457 H 0.55928 0.77607 0.86546
 H458 H 0.54927 0.68365 0.81142
 H459 H 0.64086 0.77184 0.80628
 H460 H 0.50963 0.70116 0.84117
 C461 C 0.43401 0.75929 0.76104
 C462 C 0.40812 0.76880 0.77349
 C463 C 0.40623 0.77401 0.80232
 C464 C 0.42989 0.76912 0.81872
 C465 C 0.45601 0.76002 0.80600
 C466 C 0.45791 0.75538 0.77710
 C467 C 0.47977 0.75542 0.82231
 C468 C 0.47760 0.75784 0.85169
 C469 C 0.45128 0.76738 0.86383
 C470 C 0.42784 0.77301 0.84761
 H471 H 0.38616 0.78105 0.81205
 H472 H 0.47776 0.74829 0.76698
 H473 H 0.49976 0.75016 0.81167
 H474 H 0.40800 0.78009 0.85774
 H475 H 0.43582 0.75527 0.73880
 H476 H 0.44885 0.77026 0.88617
 C477 C -0.09493 0.32129 0.30870
 C478 C -0.10647 0.29723 0.29431
 C479 C -0.09345 0.26952 0.29698
 C480 C -0.07000 0.26580 0.31384
 C481 C -0.05885 0.29000 0.32827
 C482 C -0.07135 0.31772 0.32535
 C483 C -0.03555 0.28607 0.34546
 C484 C -0.02385 0.25784 0.34939
 C485 C -0.03473 0.23425 0.33375
 C486 C -0.05755 0.23811 0.31644
 H487 H -0.10152 0.25047 0.28630
 H488 H -0.06306 0.33663 0.33618
 H489 H -0.02667 0.30513 0.35544
 H490 H -0.06559 0.21932 0.30524
 H491 H -0.10392 0.34307 0.30724
 H492 H -0.02572 0.21246 0.33541
 C493 C -0.11753 0.78118 0.18007
 C494 C -0.11723 0.75487 0.19485
 C495 C -0.09445 0.73514 0.19065
 C496 C -0.07175 0.74190 0.17224
 C497 C -0.07245 0.76807 0.15688
 C498 C -0.09556 0.78750 0.16082
 C499 C -0.04991 0.77461 0.13814
 C500 C -0.02527 0.75660 0.13606
 C501 C -0.02540 0.73034 0.15145
 C502 C -0.04831 0.72302 0.16909
 H503 H -0.09407 0.71492 0.20228
 H504 H -0.09641 0.80779 0.14937
 H505 H -0.05208 0.79375 0.12540
 H506 H -0.04744 0.70280 0.18064
 H507 H -0.13504 0.79657 0.18309
 H508 H -0.00732 0.71550 0.15002
 C509 C 0.42526 0.19018 0.70669
 C510 C 0.41086 0.21404 0.71978
 C511 C 0.41830 0.24268 0.71180
 C512 C 0.43965 0.24736 0.69132
 C513 C 0.45500 0.22341 0.67962
 C514 C 0.44755 0.19485 0.68731
 C515 C 0.47782 0.22837 0.66075
 C516 C 0.48482 0.25707 0.65161
 C517 C 0.46789 0.28044 0.66283
 C518 C 0.44602 0.27568 0.68252
 H519 H 0.40698 0.26145 0.72081
 H520 H 0.45893 0.17610 0.67831
 H521 H 0.49071 0.20967 0.65410
 H522 H 0.43413 0.29435 0.69103
 H523 H 0.42025 0.16784 0.71225
 H524 H 0.47135 0.30286 0.65738
 C525 C 0.58074 0.26465 0.74360
 C526 C 0.60559 0.27846 0.73323
 C527 C 0.60689 0.28649 0.70491
 C528 C 0.58410 0.28061 0.68750
 C529 C 0.55954 0.26680 0.69840
 C530 C 0.55807 0.25897 0.72644
 C531 C 0.53674 0.26088 0.68121
 C532 C 0.53763 0.26866 0.65278
 C533 C 0.56275 0.28200 0.64219
 C534 C 0.58552 0.28803 0.65930
 H535 H 0.62561 0.29700 0.69610
 H536 H 0.53932 0.24835 0.73517
 H537 H 0.51849 0.25004 0.69045
 H538 H 0.60432 0.29839 0.65040
 H539 H 0.57839 0.25818 0.76509
 H540 H 0.56484 0.28762 0.62040
 C541 C 0.07856 0.76771 0.22076
 C542 C 0.10492 0.76958 0.20629
 C543 C 0.10546 0.77217 0.17714
 C544 C 0.07997 0.77162 0.16260
 C545 C 0.05369 0.76917 0.17742
 C546 C 0.05320 0.76776 0.20652
 C547 C 0.02829 0.76759 0.16302
 C548 C 0.02850 0.76675 0.13359
 C549 C 0.05488 0.77090 0.11925
 C550 C 0.08024 0.77307 0.13351
 H551 H 0.12566 0.77358 0.16574
 H552 H 0.03323 0.76606 0.21825
 H553 H 0.00856 0.76687 0.17513
 H554 H 0.10011 0.77538 0.12172
 H555 H 0.07747 0.76621 0.24323
 H556 H 0.05586 0.77158 0.09673
 C557 C 0.26872 0.03997 0.24217
 C558 C 0.27880 0.06546 0.22920
 C559 C 0.30826 0.06947 0.22545
 C560 C 0.32744 0.04804 0.23432
 C561 C 0.31703 0.02211 0.24658
 C562 C 0.28764 0.01840 0.25064
 C563 C 0.33602 -0.00002 0.25409
 C564 C 0.36573 0.00300 0.24947
 C565 C 0.37565 0.02994 0.23868
 C566 C 0.35681 0.05198 0.23099
 H567 H 0.31624 0.08929 0.21585
 H568 H 0.27926 -0.00131 0.26011
 H569 H 0.32714 -0.01970 0.26298
 H570 H 0.36525 0.07194 0.22206
 H571 H 0.24611 0.03634 0.24521
 H572 H 0.39824 0.03357 0.23543
 C573 C 0.80946 0.59297 0.69046
 C574 C 0.78996 0.60231 0.71157
 C575 C 0.79194 0.59054 0.73836
 C576 C 0.81311 0.56985 0.74401
 C577 C 0.83255 0.56062 0.72266
 C578 C 0.83049 0.57223 0.69592
 C579 C 0.85353 0.53968 0.72821
 C580 C 0.85620 0.52824 0.75525
 C581 C 0.83582 0.53710 0.77597
 C582 C 0.81488 0.55789 0.77057
 H583 H 0.77725 0.59765 0.75495
 H584 H 0.84516 0.56531 0.67923
 H585 H 0.86699 0.53179 0.71102
 H586 H 0.79984 0.56435 0.78712
 H587 H 0.80832 0.60143 0.66959
 H588 H 0.83614 0.52769 0.79654
 C589 C 0.81010 0.39858 0.81642
 C590 C 0.79670 0.38892 0.79230
 C591 C 0.80165 0.40386 0.76726
 C592 C 0.82005 0.42794 0.76622
 C593 C 0.83318 0.43772 0.79061
 C594 C 0.82795 0.42294 0.81565
 C595 C 0.85132 0.46205 0.78963
 C596 C 0.85796 0.47603 0.76415
 C597 C 0.84394 0.46620 0.74021
 C598 C 0.82541 0.44250 0.74119
 H599 H 0.79160 0.39645 0.74849
 H600 H 0.83782 0.43007 0.83460
 H601 H 0.85973 0.47006 0.80891
 H602 H 0.81533 0.43550 0.72230
 H603 H 0.80642 0.38758 0.83602
 H604 H 0.84757 0.47696 0.72047
 C605 C 0.31122 -0.13096 0.22369
 C606 C 0.30358 -0.13926 0.25106
 C607 C 0.31574 -0.12404 0.27338
 C608 C 0.33426 -0.10055 0.26853
 C609 C 0.34241 -0.09304 0.24109
 C610 C 0.33091 -0.10857 0.21879
 C611 C 0.36109 -0.06952 0.23633
 C612 C 0.37055 -0.05178 0.25859
 C613 C 0.36077 -0.05930 0.28583
 C614 C 0.34381 -0.08372 0.29073
 H615 H 0.30972 -0.12927 0.29467
 H616 H 0.33666 -0.10299 0.19750
 H617 H 0.36714 -0.06501 0.21509
 H618 H 0.33715 -0.08868 0.31194
 H619 H 0.30262 -0.14220 0.20593
 H620 H 0.36554 -0.04580 0.30370
 C621 C 0.24178 -0.07834 0.71714
 C622 C 0.22774 -0.10537 0.71452
 C623 C 0.19775 -0.10546 0.71485
 C624 C 0.18221 -0.07936 0.71962
 C625 C 0.19663 -0.05249 0.72198
 C626 C 0.22639 -0.05215 0.72008
 C627 C 0.18120 -0.02646 0.72716
 C628 C 0.15163 -0.02708 0.73344
 C629 C 0.13750 -0.05404 0.72981
 C630 C 0.15253 -0.07975 0.72282
 H631 H 0.18637 -0.12595 0.71328
 H632 H 0.23783 -0.03171 0.72189
 H633 H 0.19264 -0.00602 0.72669
 H634 H 0.14099 -0.10010 0.72082
 H635 H 0.26477 -0.07721 0.71640
 H636 H 0.11466 -0.05527 0.73307
 C637 C 0.70385 0.42813 0.26159
 C638 C 0.70829 0.41643 0.23458
 C639 C 0.69202 0.42727 0.21289
 C640 C 0.67168 0.44949 0.21807
 C641 C 0.66726 0.46090 0.24529
 C642 C 0.68348 0.45010 0.26691
 C643 C 0.64685 0.48303 0.25044
 C644 C 0.63004 0.49385 0.22891
 C645 C 0.63590 0.48305 0.20158
 C646 C 0.65604 0.46086 0.19637
 H647 H 0.69545 0.41879 0.19189
 H648 H 0.68040 0.45863 0.28794
 H649 H 0.64384 0.49189 0.27136
 H650 H 0.65969 0.45290 0.17522
 H651 H 0.71588 0.42008 0.27876
 H652 H 0.62557 0.49197 0.18379
 C653 C 0.70530 0.61216 0.21980
 C654 C 0.70511 0.62301 0.24731
 C655 C 0.68568 0.61142 0.26702
 C656 C 0.66672 0.58940 0.25944
 C657 C 0.66689 0.57878 0.23176
 C658 C 0.68630 0.59029 0.21207
 C659 C 0.64786 0.55668 0.22433
 C660 C 0.62804 0.54516 0.24402
 C661 C 0.62932 0.55533 0.27189
 C662 C 0.64800 0.57743 0.27932
 H663 H 0.68554 0.61912 0.28842
 H664 H 0.68680 0.58238 0.19071
 H665 H 0.64840 0.54827 0.20313
 H666 H 0.64813 0.58481 0.30083
 H667 H 0.71991 0.62076 0.20413
 H668 H 0.61656 0.54585 0.28850
 C669 C 0.23595 0.06794 0.79272
 C670 C 0.22895 0.09596 0.78324
 C671 C 0.20365 0.10020 0.76912
 C672 C 0.18589 0.07642 0.76363
 C673 C 0.19277 0.04835 0.77358
 C674 C 0.21769 0.04438 0.78841
 C675 C 0.17506 0.02458 0.76785
 C676 C 0.15228 0.02750 0.74958
 C677 C 0.14490 0.05615 0.74127
 C678 C 0.16153 0.08021 0.74814
 H679 H 0.19834 0.12179 0.76153
 H680 H 0.22340 0.02294 0.79605
 H681 H 0.17983 0.00334 0.77651
 H682 H 0.15552 0.10174 0.74095
 H683 H 0.25538 0.06440 0.80373
 H684 H 0.12605 0.06029 0.72961
 C685 C 0.23196 0.23317 0.06995
 C686 C 0.22332 0.24488 0.09605
 C687 C 0.21974 0.27534 0.09920
 C688 C 0.22494 0.29396 0.07663
 C689 C 0.23314 0.28202 0.05033
 C690 C 0.23651 0.25155 0.04719
 C691 C 0.23802 0.30067 0.02766
 C692 C 0.23656 0.33151 0.03114
 C693 C 0.22780 0.34278 0.05761
 C694 C 0.22206 0.32433 0.07997
 H695 H 0.21336 0.28461 0.11934
 H696 H 0.24287 0.24196 0.02719
 H697 H 0.24280 0.29076 0.00752
 H698 H 0.21563 0.33388 0.09997
 H699 H 0.23465 0.20973 0.06702
 H700 H 0.22575 0.36621 0.06104
 C701 C 0.69021 0.80585 0.58878
 C702 C 0.71318 0.78741 0.59492
 C703 C 0.73872 0.78951 0.57911
 C704 C 0.74171 0.81066 0.55828
 C705 C 0.71871 0.82951 0.55267
 C706 C 0.69285 0.82653 0.56768
 C707 C 0.72209 0.85152 0.53271
 C708 C 0.74882 0.85632 0.51929
 C709 C 0.77093 0.83597 0.52400
 C710 C 0.76749 0.81361 0.54331
 H711 H 0.75665 0.77554 0.58368
 H712 H 0.67490 0.84068 0.56359
 H713 H 0.70379 0.86485 0.52813
 H714 H 0.78526 0.79906 0.54699
 H715 H 0.67016 0.80439 0.60037
 H716 H 0.79140 0.83814 0.51327
 C717 C 0.73038 0.79998 0.39733
 C718 C 0.75718 0.80146 0.38363
 C719 C 0.77838 0.81903 0.39508
 C720 C 0.77300 0.83454 0.42015
 C721 C 0.74596 0.83300 0.43363
 C722 C 0.72476 0.81574 0.42201
 C723 C 0.74060 0.84849 0.45863
 C724 C 0.76170 0.86609 0.47062
 C725 C 0.78905 0.86607 0.45744
 C726 C 0.79441 0.85098 0.43232
 H727 H 0.79927 0.82000 0.38494
 H728 H 0.70388 0.81428 0.43210
 H729 H 0.71979 0.84704 0.46891
 H730 H 0.81553 0.85176 0.42267
 H731 H 0.71364 0.78676 0.38886
 H732 H 0.80680 0.87705 0.46654
 C733 C 0.24377 0.31250 -0.11842
 C734 C 0.26888 0.29578 -0.11806
 C735 C 0.28454 0.29490 -0.09371
 C736 C 0.27465 0.30982 -0.06957
 C737 C 0.24947 0.32679 -0.07012
 C738 C 0.23440 0.32835 -0.09478
 C739 C 0.23946 0.34156 -0.04595
 C740 C 0.25293 0.33795 -0.02029
 C741 C 0.27861 0.32161 -0.02059
 C742 C 0.28929 0.30774 -0.04481
 H743 H 0.30376 0.28166 -0.09326
 H744 H 0.21498 0.34120 -0.09558
 H745 H 0.22128 0.35591 -0.04768
 H746 H 0.30880 0.29504 -0.04404
 H747 H 0.23145 0.31331 -0.13705
 H748 H 0.29033 0.31931 -0.00170
 C749 C 0.69403 0.21843 -0.06630
 C750 C 0.71376 0.21451 -0.08859
 C751 C 0.73565 0.19363 -0.08660
 C752 C 0.73832 0.17740 -0.06223
 C753 C 0.71933 0.18257 -0.03934
 C754 C 0.69693 0.20277 -0.04173
 C755 C 0.72347 0.16804 -0.01424
 C756 C 0.74681 0.14871 -0.01121
 C757 C 0.76350 0.14147 -0.03537
 C758 C 0.75976 0.15619 -0.06030
 H759 H 0.75062 0.19014 -0.10398
 H760 H 0.68198 0.20681 -0.02446
 H761 H 0.70929 0.17275 0.00350
 H762 H 0.77375 0.15102 -0.07807
 H763 H 0.67697 0.23440 -0.06753
 H764 H 0.77966 0.12456 -0.03542
 C765 C 0.19642 0.67143 0.38992
 C766 C 0.21750 0.69243 0.38404
 C767 C 0.24027 0.69513 0.40217
 C768 C 0.24184 0.67742 0.42576
 C769 C 0.22044 0.65664 0.43153
 C770 C 0.19791 0.65371 0.41337
 C771 C 0.22188 0.63913 0.45531
 C772 C 0.24415 0.64262 0.47412
 C773 C 0.26590 0.66272 0.46720
 C774 C 0.26462 0.68008 0.44359
 H775 H 0.25683 0.71101 0.39816
 H776 H 0.18131 0.63780 0.41736
 H777 H 0.20578 0.62265 0.45866
 H778 H 0.28147 0.69561 0.43930
 H779 H 0.17865 0.66853 0.37649
 H780 H 0.28385 0.66526 0.48055
 C781 C 0.27192 0.65563 0.62471
 C782 C 0.26477 0.68551 0.62377
 C783 C 0.25391 0.69711 0.59941
 C784 C 0.25132 0.67929 0.57570
 C785 C 0.25828 0.64917 0.57673
 C786 C 0.26814 0.63742 0.60151
 C787 C 0.25599 0.63153 0.55278
 C788 C 0.24943 0.64391 0.52691
 C789 C 0.24133 0.67389 0.52687
 C790 C 0.24235 0.69125 0.55085
 H791 H 0.24883 0.72030 0.59852
 H792 H 0.27375 0.61440 0.60268
 H793 H 0.26030 0.60821 0.55397
 H794 H 0.23633 0.71419 0.54985
 H795 H 0.28050 0.64646 0.64337
 H796 H 0.23344 0.68421 0.50851
 C797 C 0.76918 0.18653 0.13764
 C798 C 0.77062 0.21631 0.13061
 C799 C 0.76868 0.22426 0.10260
 C800 C 0.76527 0.20280 0.08187
 C801 C 0.76321 0.17299 0.08914
 C802 C 0.76531 0.16506 0.11710
 C803 C 0.75909 0.15168 0.06835
 C804 C 0.75644 0.15959 0.04018
 C805 C 0.76061 0.18939 0.03334
 C806 C 0.76434 0.21068 0.05392
 H807 H 0.77032 0.24711 0.09685
 H808 H 0.76391 0.14228 0.12310
 H809 H 0.75747 0.12882 0.07406
 H810 H 0.76683 0.23336 0.04788
 H811 H 0.77058 0.17987 0.15909
 H812 H 0.76147 0.19671 0.01206
 C813 C 0.49381 0.33361 0.52339
 C814 C 0.49267 0.36184 0.53540
 C815 C 0.49603 0.36512 0.56423
 C816 C 0.50073 0.34040 0.58077
 C817 C 0.50133 0.31217 0.56849
 C818 C 0.49792 0.30903 0.53976
 C819 C 0.50544 0.28740 0.58493
 C820 C 0.50855 0.28976 0.61413
 C821 C 0.50987 0.31857 0.62543
 C822 C 0.50545 0.34336 0.60923
 H823 H 0.49560 0.38685 0.57362
 H824 H 0.49841 0.28752 0.52992
 H825 H 0.50653 0.26662 0.57415
 H826 H 0.50591 0.36487 0.61899
 H827 H 0.49109 0.33045 0.50128
 H828 H 0.51412 0.32203 0.64722
 C829 C -0.00015 0.84912 0.01551
 C830 C -0.00672 0.87495 0.03065
 C831 C -0.00994 0.87379 0.05980
 C832 C -0.00653 0.84707 0.07363
 C833 C -0.00052 0.82118 0.05810
 C834 C 0.00279 0.82247 0.02907
 C835 C 0.00219 0.79436 0.07172
 C836 C -0.00175 0.79248 0.10094
 C837 C -0.00545 0.81903 0.11616
 C838 C -0.00849 0.84582 0.10271
 H839 H -0.01455 0.89369 0.07170
 H840 H 0.00754 0.80283 0.01682
 H841 H 0.00789 0.77523 0.05922
 H842 H -0.01230 0.86555 0.11508
 H843 H 0.00227 0.84939 -0.00696
 H844 H -0.00678 0.81883 0.13869
 C845 C 0.04571 0.64337 0.06545
 C846 C 0.02332 0.63827 0.04735
 C847 C 0.00161 0.65951 0.04560
 C848 C 0.00200 0.68511 0.06222
 C849 C 0.02448 0.68969 0.08049
 C850 C 0.04629 0.66877 0.08182
 C851 C 0.02468 0.71479 0.09760
 C852 C 0.00290 0.73625 0.09659
 C853 C -0.01980 0.73078 0.07869
 C854 C -0.02005 0.70584 0.06150
 H855 H -0.01590 0.65582 0.03192
 H856 H 0.06377 0.67195 0.09566
 H857 H 0.04143 0.71665 0.11234
 H858 H -0.03774 0.70258 0.04793
 H859 H 0.06301 0.62778 0.06699
 H860 H -0.03752 0.74604 0.07811
 C861 C 0.48496 0.16034 0.55022
 C862 C 0.51212 0.14720 0.54807
 C863 C 0.53402 0.15874 0.56410
 C864 C 0.52900 0.18338 0.58146
 C865 C 0.50178 0.19654 0.58306
 C866 C 0.47984 0.18472 0.56755
 C867 C 0.49693 0.22150 0.59989
 C868 C 0.51899 0.23437 0.61517
 C869 C 0.54593 0.22023 0.61373
 C870 C 0.55082 0.19526 0.59705
 H871 H 0.55511 0.14905 0.56267
 H872 H 0.45874 0.19446 0.56864
 H873 H 0.47594 0.23153 0.60073
 H874 H 0.57182 0.18528 0.59629
 H875 H 0.46751 0.15182 0.53853
 H876 H 0.56364 0.22801 0.62534
 C877 C 0.02499 0.15890 0.46016
 C878 C -0.00327 0.14985 0.46485
 C879 C -0.02495 0.16335 0.45003
 C880 C -0.01860 0.18497 0.43046
 C881 C 0.00980 0.19368 0.42556
 C882 C 0.03147 0.18066 0.44069
 C883 C 0.01599 0.21516 0.40561
 C884 C -0.00572 0.22737 0.38953
 C885 C -0.03413 0.21931 0.39605
 C886 C -0.04039 0.19816 0.41590
 H887 H -0.04693 0.15723 0.45370
 H888 H 0.05343 0.18709 0.43728
 H889 H 0.03778 0.22218 0.40221
 H890 H -0.06240 0.19226 0.41999
 H891 H 0.04216 0.14892 0.47121
 H892 H -0.05195 0.22962 0.38633
 C893 C 0.43940 0.64867 0.92997
 C894 C 0.45896 0.64391 0.95103
 C895 C 0.48350 0.66138 0.95169
 C896 C 0.48829 0.68328 0.93183
 C897 C 0.46835 0.68789 0.91100
 C898 C 0.44408 0.67037 0.91017
 C899 C 0.47293 0.70987 0.89127
 C900 C 0.49693 0.72830 0.89234
 C901 C 0.51720 0.72242 0.91264
 C902 C 0.51279 0.70049 0.93230
 H903 H 0.49895 0.65812 0.96758
 H904 H 0.42858 0.67353 0.89426
 H905 H 0.45783 0.71198 0.87494
 H906 H 0.52857 0.69701 0.94787
 H907 H 0.42033 0.63573 0.92862
 H908 H 0.53642 0.73530 0.91344
 C909 C 0.49623 0.84916 0.96514
 C910 C 0.50698 0.87250 0.94933
 C911 C 0.51518 0.86774 0.92129
 C912 C 0.51226 0.83984 0.90905
 C913 C 0.50218 0.81632 0.92536
 C914 C 0.49414 0.82123 0.95336
 C915 C 0.49981 0.78833 0.91343
 C916 C 0.50738 0.78298 0.88509
 C917 C 0.51516 0.80740 0.86873
 C918 C 0.51845 0.83519 0.88067
 H919 H 0.52308 0.88585 0.90893
 H920 H 0.48612 0.80349 0.96612
 H921 H 0.49099 0.77117 0.92631
 H922 H 0.52536 0.85313 0.86759
 H923 H 0.48991 0.85243 0.98683
 H924 H 0.51918 0.80474 0.84652
 C925 C -0.01730 0.34573 0.46279
 C926 C 0.01090 0.35552 0.46402
 C927 C 0.03151 0.34399 0.44502
 C928 C 0.02424 0.32250 0.42548
 C929 C -0.00412 0.31279 0.42439
 C930 C -0.02480 0.32469 0.44302
 C931 C -0.01120 0.29085 0.40519
 C932 C 0.00960 0.27819 0.38674
 C933 C 0.03805 0.28759 0.38904
 C934 C 0.04509 0.30983 0.40768
 H935 H 0.05343 0.35098 0.44602
 H936 H -0.04667 0.31747 0.44253
 H937 H -0.03292 0.28310 0.40489
 H938 H 0.06710 0.31651 0.40874
 H939 H -0.03362 0.35442 0.47707
 H940 H 0.05538 0.27730 0.37722
 C941 C 0.36915 0.56776 0.51297
 C942 C 0.36850 0.54922 0.48950
 C943 C 0.34463 0.54966 0.47273
 C944 C 0.32141 0.56817 0.47950
 C945 C 0.32246 0.58739 0.50268
 C946 C 0.34652 0.58708 0.51924
 C947 C 0.29941 0.60636 0.50908
 C948 C 0.27403 0.60478 0.49408
 C949 C 0.27386 0.58565 0.47069
 C950 C 0.29717 0.56777 0.46345
 H951 H 0.34394 0.53518 0.45471
 H952 H 0.34769 0.60152 0.53723
 H953 H 0.30178 0.62223 0.52565
 H954 H 0.29604 0.55328 0.44550
 H955 H 0.38747 0.56776 0.52604
 H956 H 0.25523 0.58433 0.45810
 C957 C 0.88020 0.10671 -0.00805
 C958 C 0.87998 0.07707 -0.00046
 C959 C 0.85516 0.06535 0.01198
 C960 C 0.83044 0.08267 0.01554
 C961 C 0.83081 0.11231 0.00748
 C962 C 0.85595 0.12428 -0.00380
 C963 C 0.80579 0.12921 0.00988
 C964 C 0.77955 0.11649 0.01809
 C965 C 0.78013 0.08738 0.02789
 C966 C 0.80519 0.07070 0.02646
 H967 H 0.85464 0.04246 0.01773
 H968 H 0.85662 0.14701 -0.01009
 H969 H 0.80630 0.15200 0.00373
 H970 H 0.80468 0.04821 0.03345
 H971 H 0.89915 0.11631 -0.01741
 H972 H 0.76134 0.07718 0.03679
 C973 C 0.66259 0.03849 -0.00660
 C974 C 0.64226 0.04595 0.01446
 C975 C 0.64800 0.06919 0.03291
 C976 C 0.67348 0.08496 0.03011
 C977 C 0.69365 0.07723 0.00888
 C978 C 0.68806 0.05390 -0.00931
 C979 C 0.71891 0.09318 0.00586
 C980 C 0.72484 0.11696 0.02385
 C981 C 0.70388 0.12486 0.04443
 C982 C 0.67883 0.10879 0.04776
 H983 H 0.63245 0.07544 0.04906
 H984 H 0.70332 0.04766 -0.02573
 H985 H 0.73406 0.08735 -0.01082
 H986 H 0.66331 0.11544 0.06381
 H987 H 0.65898 0.02054 -0.02093
 H988 H 0.70607 0.14397 0.05761
 C989 C 0.17568 0.51104 0.52694
 C990 C 0.14917 0.52495 0.53135
 C991 C 0.14720 0.55560 0.52952
 C992 C 0.17146 0.57213 0.52252
 C993 C 0.19806 0.55793 0.51836
 C994 C 0.19999 0.52741 0.52090
 C995 C 0.22235 0.57432 0.51157
 C996 C 0.22057 0.60490 0.50723
 C997 C 0.19377 0.61866 0.51195
 C998 C 0.16960 0.60255 0.51944
 H999 H 0.12671 0.56639 0.53263
 H1000 H 0.22022 0.51613 0.51775
 H1001 H 0.24255 0.56287 0.51013
 H1002 H 0.14943 0.61390 0.52268
 H1003 H 0.17760 0.48744 0.52837
 H1004 H 0.19157 0.64215 0.50977
 C1005 C 0.15404 0.45734 0.01530
 C1006 C 0.13116 0.44261 0.00353
 C1007 C 0.13441 0.41300 -0.00446
 C1008 C 0.16037 0.39833 -0.00080
 C1009 C 0.18349 0.41365 0.01023
 C1010 C 0.18003 0.44306 0.01846
 C1011 C 0.20973 0.39944 0.01294
 C1012 C 0.21379 0.36991 0.00430
 C1013 C 0.18966 0.35436 -0.00434
 C1014 C 0.16355 0.36853 -0.00758
 H1015 H 0.11669 0.40137 -0.01316
 H1016 H 0.19749 0.45511 0.02716
 H1017 H 0.22665 0.41157 0.02237
 H1018 H 0.14583 0.35613 -0.01529
 H1019 H 0.15209 0.48019 0.02146
 H1020 H 0.19136 0.33120 -0.00940
 C1021 C 0.65763 0.95527 0.44498
 C1022 C 0.64630 0.96841 0.46956
 C1023 C 0.65950 0.96308 0.49487
 C1024 C 0.68312 0.94403 0.49567
 C1025 C 0.69395 0.93063 0.47086
 C1026 C 0.68130 0.93673 0.44559
 C1027 C 0.71710 0.91115 0.47161
 C1028 C 0.72914 0.90342 0.49711
 C1029 C 0.71891 0.91830 0.52145
 C1030 C 0.69606 0.93803 0.52081
 H1031 H 0.65096 0.97302 0.51398
 H1032 H 0.68944 0.92680 0.42631
 H1033 H 0.72561 0.90244 0.45204
 H1034 H 0.68841 0.94843 0.54003
 H1035 H 0.64823 0.95934 0.42513
 H1036 H 0.72843 0.91413 0.54124
 C1037 C 0.84526 0.98146 0.49027
 C1038 C 0.85759 0.97741 0.51623
 C1039 C 0.84653 0.95584 0.53409
 C1040 C 0.82383 0.93830 0.52602
 C1041 C 0.81187 0.94223 0.49978
 C1042 C 0.82261 0.96402 0.48211
 C1043 C 0.78954 0.92418 0.49157
 C1044 C 0.77943 0.90131 0.50875
 C1045 C 0.79061 0.89914 0.53565
 C1046 C 0.81275 0.91704 0.54393
 H1047 H 0.85543 0.95274 0.55435
 H1048 H 0.81367 0.96740 0.46190
 H1049 H 0.78031 0.92743 0.47145
 H1050 H 0.82112 0.91433 0.56449
 H1051 H 0.85337 0.99779 0.47600
 H1052 H 0.78219 0.88399 0.55085
 C1053 C 0.32369 0.45970 -0.01226
 C1054 C 0.34049 0.45617 0.01117
 C1055 C 0.33482 0.43263 0.02912
 C1056 C 0.31269 0.41311 0.02391
 C1057 C 0.29591 0.41696 0.00043
 C1058 C 0.30165 0.44025 -0.01760
 C1059 C 0.27365 0.39754 -0.00458
 C1060 C 0.26704 0.37459 0.01401
 C1061 C 0.28496 0.37047 0.03672
 C1062 C 0.30721 0.38968 0.04174
 H1063 H 0.34732 0.42955 0.04738
 H1064 H 0.28902 0.44350 -0.03578
 H1065 H 0.26099 0.40045 -0.02281
 H1066 H 0.32030 0.38604 0.05953
 H1067 H 0.32759 0.47738 -0.02664
 H1068 H 0.28245 0.35215 0.05057
 C1069 C 0.54433 0.44681 0.32815
 C1070 C 0.52728 0.46989 0.33916
 C1071 C 0.52802 0.49721 0.32593
 C1072 C 0.54640 0.50178 0.30283
 C1073 C 0.56399 0.47869 0.29243
 C1074 C 0.56238 0.45111 0.30491
 C1075 C 0.58333 0.48365 0.27015
 C1076 C 0.58654 0.51197 0.25885
 C1077 C 0.56735 0.53415 0.26841
 C1078 C 0.54778 0.52923 0.29024
 H1079 H 0.51513 0.51530 0.33412
 H1080 H 0.57556 0.43304 0.29711
 H1081 H 0.59579 0.46531 0.26198
 H1082 H 0.53409 0.54710 0.29760
 H1083 H 0.54391 0.42540 0.33761
 H1084 H 0.56823 0.55580 0.25943
 C1085 C 0.04201 0.03066 0.83566
 C1086 C 0.04791 0.00749 0.85371
 C1087 C 0.06977 -0.01257 0.84600
 C1088 C 0.08522 -0.00975 0.82074
 C1089 C 0.07900 0.01349 0.80280
 C1090 C 0.05742 0.03365 0.81048
 C1091 C 0.09456 0.01628 0.77756
 C1092 C 0.11591 -0.00435 0.76932
 C1093 C 0.12245 -0.02674 0.78821
 C1094 C 0.10706 -0.02961 0.81333
 H1095 H 0.07504 -0.03039 0.85960
 H1096 H 0.05236 0.05166 0.79697
 H1097 H 0.09004 0.03456 0.76417
 H1098 H 0.11253 -0.04722 0.82716
 H1099 H 0.02534 0.04645 0.84079
 H1100 H 0.13993 -0.04186 0.78411
 C1101 C 0.02632 0.00244 0.66808
 C1102 C 0.03927 0.01546 0.64458
 C1103 C 0.06837 0.02217 0.64484
 C1104 C 0.08427 0.01624 0.66834
 C1105 C 0.07091 0.00376 0.69206
 C1106 C 0.04197 -0.00329 0.69163
 C1107 C 0.08664 -0.00148 0.71583
 C1108 C 0.11565 0.00625 0.71666
 C1109 C 0.12894 0.01681 0.69202
 C1110 C 0.11338 0.02228 0.66840
 H1111 H 0.07874 0.03175 0.62669
 H1112 H 0.03137 -0.01300 0.70959
 H1113 H 0.07617 -0.01194 0.73341
 H1114 H 0.12416 0.03120 0.65015
 H1115 H 0.00391 -0.00282 0.66853
 H1116 H 0.15151 0.02137 0.69130
 C1117 C 0.52186 0.49203 0.14348
 C1118 C 0.52012 0.52013 0.13191
 C1119 C 0.53642 0.54291 0.14305
 C1120 C 0.55410 0.53768 0.16548
 C1121 C 0.55567 0.50936 0.17680
 C1122 C 0.53947 0.48669 0.16568
 C1123 C 0.57333 0.50409 0.19910
 C1124 C 0.59034 0.52649 0.21021
 C1125 C 0.58746 0.55501 0.19939
 C1126 C 0.56990 0.56039 0.17708
 H1127 H 0.53508 0.56477 0.13462
 H1128 H 0.54046 0.46479 0.17412
 H1129 H 0.57419 0.48230 0.20782
 H1130 H 0.56844 0.58245 0.16910
 H1131 H 0.50983 0.47396 0.13522
 H1132 H 0.59816 0.57357 0.20831
 C1133 C 0.41867 -0.01426 0.12626
 C1134 C 0.44844 -0.01442 0.12808
 C1135 C 0.46045 -0.01716 0.15429
 C1136 C 0.44297 -0.01989 0.17833
 C1137 C 0.41316 -0.01958 0.17634
 C1138 C 0.40117 -0.01669 0.15018
 C1139 C 0.39577 -0.02162 0.20051
 C1140 C 0.40737 -0.02427 0.22727
 C1141 C 0.43752 -0.02431 0.22839
 C1142 C 0.45487 -0.02250 0.20439
 H1143 H 0.48336 -0.01765 0.15601
 H1144 H 0.37829 -0.01630 0.14821
 H1145 H 0.37293 -0.01991 0.19854
 H1146 H 0.47777 -0.02245 0.20634
 H1147 H 0.40883 -0.01202 0.10634
 H1148 H 0.44859 -0.02465 0.24758
 C1149 C 0.95365 0.43797 0.67089
 C1150 C 0.96729 0.46271 0.65963
 C1151 C 0.96235 0.49028 0.67245
 C1152 C 0.94311 0.49319 0.69536
 C1153 C 0.92880 0.46827 0.70565
 C1154 C 0.93465 0.44072 0.69364
 C1155 C 0.90847 0.47125 0.72747
 C1156 C 0.90097 0.49912 0.73867
 C1157 C 0.91728 0.52336 0.72977
 C1158 C 0.93769 0.52055 0.70805
 H1159 H 0.97278 0.50957 0.66423
 H1160 H 0.92413 0.42130 0.70152
 H1161 H 0.89849 0.45163 0.73543
 H1162 H 0.94894 0.53986 0.70097
 H1163 H 0.95740 0.41632 0.66207
 H1164 H 0.91341 0.54483 0.73905
 C1165 C 0.95825 0.47447 0.85872
 C1166 C 0.95846 0.50237 0.87155
 C1167 C 0.94270 0.52524 0.85988
 C1168 C 0.92700 0.52029 0.83592
 C1169 C 0.92699 0.49220 0.82334
 C1170 C 0.94274 0.46946 0.83485
 C1171 C 0.91120 0.48724 0.79949
 C1172 C 0.89417 0.50961 0.78838
 C1173 C 0.89579 0.53796 0.80045
 C1174 C 0.91161 0.54309 0.82409
 H1175 H 0.94277 0.54697 0.86919
 H1176 H 0.94294 0.44772 0.82550
 H1177 H 0.91171 0.46569 0.78971
 H1178 H 0.91199 0.56501 0.83300
 H1179 H 0.96987 0.45627 0.86716
 H1180 H 0.88530 0.55660 0.79152
 C1181 C 0.43559 0.04513 0.35738
 C1182 C 0.45426 0.02297 0.36579
 C1183 C 0.45512 -0.00389 0.35111
 C1184 C 0.43807 -0.00837 0.32807
 C1185 C 0.41987 0.01422 0.31942
 C1186 C 0.41859 0.04082 0.33439
 C1187 C 0.40334 0.01000 0.29590
 C1188 C 0.40494 -0.01655 0.28029
 C1189 C 0.42253 -0.03919 0.29025
 C1190 C 0.43900 -0.03509 0.31354
 H1191 H 0.46899 -0.02142 0.35759
 H1192 H 0.40466 0.05842 0.32815
 H1193 H 0.38935 0.02765 0.29023
 H1194 H 0.45260 -0.05283 0.32007
 H1195 H 0.43452 0.06607 0.36818
 H1196 H 0.42392 -0.06013 0.27938
   
