data_POSCAR
  _audit_creation_date              2014-09-24
  _audit_creation_method            'ToBaCCo'
  _symmetry_space_group_name_H-M    'P1'
  _symmetry_Int_Tables_number       1
  _symmetry_cell_setting            triclinic
  loop_
  _symmetry_equiv_pos_as_xyz
 x,y,z
_cell_length_a 44.7100
_cell_length_b 44.7073
_cell_length_c 44.7278
_cell_angle_alpha 78.548100
_cell_angle_beta 101.459500
_cell_angle_gamma 77.881700
loop_
  _atom_site_label
  _atom_site_type_symbol
  _atom_site_fract_x
  _atom_site_fract_y
  _atom_site_fract_z
O1 O 0.53950 0.48362 0.02916
 O2 O 0.45487 0.49235 0.02458
 O3 O 0.50253 0.44553 0.02934
 O4 O 0.49159 0.53066 0.02384
 O5 O 0.48150 0.54027 -0.02810
 O6 O 0.49248 0.45528 -0.02261
 O7 O 0.44473 0.50199 -0.02736
 O8 O 0.52948 0.49331 -0.02278
 Cu9 Cu 0.49816 0.48710 0.03197
 Cu10 Cu 0.48605 0.49871 -0.03045
 C11 C 0.54878 0.48708 0.00398
 C12 C 0.43554 0.49839 -0.00211
 C13 C 0.49910 0.43609 0.00423
 C14 C 0.48480 0.54981 -0.00306
 O15 O -0.02790 0.55597 0.49791
 O16 O -0.02335 0.47125 0.50679
 O17 O -0.02312 0.50881 0.54460
 O18 O -0.02865 0.51863 0.45987
 O19 O 0.02344 0.50800 0.46944
 O20 O 0.02898 0.49823 0.55430
 O21 O 0.02874 0.46070 0.51643
 O22 O 0.02418 0.54530 0.50752
 Cu23 Cu -0.03101 0.51470 0.50130
 Cu24 Cu 0.03159 0.50197 0.51287
 C25 C -0.00257 0.56489 0.50145
 C26 C 0.00347 0.45169 0.51302
 C27 C 0.00381 0.50211 0.56372
 C28 C -0.00355 0.51487 0.45036
 O29 O 0.50635 0.02170 0.53066
 O30 O 0.49876 0.02645 0.44614
 O31 O 0.46001 0.02689 0.48277
 O32 O 0.54488 0.02175 0.49384
 O33 O 0.55533 -0.03036 0.50380
 O34 O 0.47032 -0.02520 0.49277
 O35 O 0.50910 -0.02565 0.45619
 O36 O 0.51674 -0.03039 0.54059
 Cu37 Cu 0.50143 0.02945 0.48737
 Cu38 Cu 0.51389 -0.03316 0.49936
 C39 C 0.51273 -0.00515 0.54988
 C40 C 0.50287 0.00115 0.43695
 C41 C 0.45084 0.00173 0.48601
 C42 C 0.56440 -0.00512 0.50046
 C43 C 0.49850 -0.01895 0.00356
 C44 C 0.50110 0.00428 -0.01986
 C45 C 0.50364 -0.00089 -0.05118
 C46 C 0.50159 0.03624 -0.01538
 C47 C 0.49897 -0.01458 0.03572
 C48 C 0.49489 -0.04994 -0.00164
 C49 C 0.52739 -0.02562 -0.05391
 C50 C 0.53011 -0.02941 -0.08366
 C51 C 0.50927 -0.00839 -0.11091
 C52 C 0.48566 0.01631 -0.10829
 C53 C 0.48292 0.02011 -0.07862
 C54 C 0.52661 0.04903 -0.02123
 C55 C 0.52725 0.07917 -0.01744
 C56 C 0.50279 0.09694 -0.00797
 C57 C 0.47760 0.08448 -0.00239
 C58 C 0.47691 0.05431 -0.00620
 C59 C 0.47419 -0.01977 0.04934
 C60 C 0.47447 -0.01618 0.07971
 C61 C 0.49963 -0.00758 0.09690
 C62 C 0.52458 -0.00263 0.08360
 C63 C 0.52433 -0.00624 0.05320
 C64 C 0.47029 -0.05179 -0.02569
 C65 C 0.46659 -0.08123 -0.02948
 C66 C 0.48728 -0.10903 -0.00914
 C67 C 0.51173 -0.10729 0.01488
 C68 C 0.51546 -0.07793 0.01869
 H69 H 0.54402 -0.04169 -0.03306
 H70 H 0.54860 -0.04848 -0.08542
 H71 H 0.46949 0.03277 -0.12921
 H72 H 0.46460 0.03944 -0.07703
 H73 H 0.54573 0.03554 -0.02852
 H74 H 0.54677 0.08865 -0.02196
 H75 H 0.45710 0.04512 -0.00217
 H76 H 0.45454 -0.02640 0.03634
 H77 H 0.45512 -0.02020 0.08982
 H78 H 0.54427 0.00382 0.09678
 H79 H 0.54397 -0.00273 0.04336
 H80 H 0.45379 -0.03048 -0.04122
 H81 H 0.44746 -0.08232 -0.04803
 H82 H 0.52780 -0.12865 0.03082
 H83 H 0.53442 -0.07700 0.03749
 H84 H 0.45844 0.09813 0.00473
 C85 C -0.01914 0.49887 0.99582
 C86 C 0.00416 0.50143 1.01919
 C87 C 0.03632 0.50126 1.01490
 C88 C -0.00118 0.50472 1.05024
 C89 C -0.05039 0.49602 1.00088
 C90 C -0.01460 0.49873 0.96383
 C91 C 0.05419 0.47616 1.00610
 C92 C 0.08458 0.47619 1.00260
 C93 C 0.09749 0.50114 1.00812
 C94 C 0.07991 0.52604 1.01718
 C95 C 0.04955 0.52606 1.02065
 C96 C 0.01939 0.48407 1.07797
 C97 C 0.01546 0.48753 1.10740
 C98 C -0.00893 0.51179 1.10948
 C99 C -0.02951 0.53256 1.08195
 C100 C -0.02560 0.52913 1.05244
 C101 C -0.07811 0.51674 0.98019
 C102 C -0.10771 0.51370 0.98387
 C103 C -0.10998 0.48979 1.00812
 C104 C -0.08246 0.46896 1.02882
 C105 C -0.05278 0.47197 1.02516
 C106 C -0.00576 0.52363 0.94622
 C107 C -0.00190 0.52327 0.91601
 C108 C -0.00711 0.49820 0.90305
 C109 C -0.01625 0.47352 0.92035
 C110 C -0.02008 0.47383 0.95054
 H111 H 0.04466 0.45651 1.00215
 H112 H 0.09807 0.45670 0.99578
 H113 H 0.08972 0.54539 1.02164
 H114 H 0.03624 0.54551 1.02766
 H115 H 0.03848 0.46526 1.07677
 H116 H 0.03159 0.47141 1.12855
 H117 H -0.04131 0.54570 1.03135
 H118 H -0.07678 0.53529 0.96121
 H119 H -0.12884 0.52988 0.96765
 H120 H -0.08395 0.45024 1.04754
 H121 H -0.03171 0.45535 1.04097
 H122 H -0.00202 0.54335 0.95581
 H123 H 0.00496 0.54260 0.90272
 H124 H -0.02048 0.45409 0.91048
 H125 H -0.02711 0.45454 0.96366
 H126 H -0.04834 0.55155 1.08331
 C127 C 0.01907 -0.00407 0.49856
 C128 C -0.00432 0.01940 0.50139
 C129 C -0.03629 0.01506 0.50185
 C130 C 0.00066 0.05066 0.50424
 C131 C 0.05011 0.00102 0.49507
 C132 C 0.01485 -0.03619 0.49864
 C133 C -0.05414 0.00620 0.47708
 C134 C -0.08433 0.00255 0.47772
 C135 C -0.09704 0.00797 0.50295
 C136 C -0.07949 0.01711 0.52750
 C137 C -0.04933 0.02074 0.52691
 C138 C -0.02032 0.07835 0.48377
 C139 C -0.01672 0.10798 0.48680
 C140 C 0.00775 0.11029 0.51046
 C141 C 0.02875 0.08279 0.53104
 C142 C 0.02516 0.05309 0.52804
 C143 C 0.07804 -0.01963 0.51544
 C144 C 0.10745 -0.01595 0.51180
 C145 C 0.10932 0.00827 0.48762
 C146 C 0.08159 0.02894 0.46713
 C147 C 0.05209 0.02528 0.47075
 C148 C 0.00633 -0.05387 0.52377
 C149 C 0.00287 -0.08422 0.52365
 C150 C 0.00814 -0.09727 0.49856
 C151 C 0.01691 -0.07988 0.47363
 C152 C 0.02035 -0.04955 0.47372
 H153 H -0.04475 0.00231 0.45724
 H154 H -0.09781 -0.00432 0.45849
 H155 H -0.08917 0.02150 0.54706
 H156 H -0.03602 0.02778 0.54611
 H157 H -0.03948 0.07699 0.46542
 H158 H -0.03316 0.12909 0.47083
 H159 H 0.04121 0.03204 0.54447
 H160 H 0.07701 -0.03860 0.53419
 H161 H 0.12876 -0.03214 0.52771
 H162 H 0.08278 0.04765 0.44821
 H163 H 0.03085 0.04105 0.45439
 H164 H 0.00258 -0.04423 0.54351
 H165 H -0.00372 -0.09757 0.54316
 H166 H 0.02118 -0.08980 0.45418
 H167 H 0.02712 -0.03638 0.45424
 H168 H 0.04765 0.08432 0.54956
 C169 C -0.41832 0.48435 1.00580
 C170 C -0.39072 0.48248 1.00741
 C171 C -0.35785 0.48075 1.00934
 C172 C -0.33824 0.48292 1.03697
 C173 C -0.30654 0.48224 1.03855
 C174 C -0.29402 0.47937 1.01246
 C175 C -0.31388 0.47690 0.98488
 C176 C -0.34557 0.47761 0.98335
 C177 C -0.26063 0.47965 1.01370
 C178 C -0.24224 0.45954 0.99986
 C179 C -0.21117 0.46065 1.00007
 C180 C -0.19806 0.48183 1.01412
 C181 C -0.21601 0.50167 1.02828
 C182 C -0.24707 0.50058 1.02812
 C183 C -0.16665 0.48409 1.01290
 C184 C -0.14064 0.48643 1.01115
 H185 H -0.34749 0.48533 1.05725
 H186 H -0.29178 0.48380 1.06023
 H187 H -0.30509 0.47511 0.96425
 H188 H -0.36057 0.47606 0.96179
 H189 H -0.25185 0.44290 0.98893
 H190 H -0.19749 0.44520 0.98902
 H191 H -0.20616 0.51831 1.03905
 H192 H -0.26073 0.51667 1.03859
 C193 C 0.40455 0.50040 0.99645
 C194 C 0.37720 0.50152 0.99557
 C195 C 0.34477 0.50213 0.99502
 C196 C 0.32303 0.53046 0.99295
 C197 C 0.29176 0.53077 0.99331
 C198 C 0.28184 0.50270 0.99578
 C199 C 0.30384 0.47440 0.99759
 C200 C 0.33508 0.47415 0.99723
 C201 C 0.24887 0.50279 0.99704
 C202 C 0.23265 0.48450 0.98104
 C203 C 0.20184 0.48414 0.98281
 C204 C 0.18685 0.50202 1.00057
 C205 C 0.20272 0.52040 1.01644
 C206 C 0.23350 0.52081 1.01469
 C207 C 0.15530 0.50139 1.00280
 C208 C 0.12893 0.50110 1.00503
 H209 H 0.33028 0.55227 0.99119
 H210 H 0.27529 0.55300 0.99148
 H211 H 0.29707 0.45234 0.99994
 H212 H 0.35176 0.45206 0.99900
 H213 H 0.24369 0.47068 0.96695
 H214 H 0.18974 0.46989 0.97037
 H215 H 0.19137 0.53425 1.03034
 H216 H 0.24548 0.53478 1.02762
 C217 C -0.00401 -0.40411 0.49932
 C218 C -0.00488 -0.37673 0.49806
 C219 C -0.00543 -0.34427 0.49723
 C220 C -0.00264 -0.32423 0.47019
 C221 C -0.00215 -0.29299 0.46982
 C222 C -0.00443 -0.28138 0.49655
 C223 C -0.00752 -0.30166 0.52352
 C224 C -0.00798 -0.33288 0.52384
 C225 C -0.00299 -0.24848 0.49655
 C226 C -0.02261 -0.23015 0.51088
 C227 C -0.02077 -0.19939 0.51132
 C228 C 0.00069 -0.18656 0.49749
 C229 C 0.02021 -0.20454 0.48309
 C230 C 0.01840 -0.23528 0.48259
 C231 C 0.00289 -0.15503 0.49816
 C232 C 0.00509 -0.12867 0.49850
 H233 H -0.00066 -0.33280 0.44945
 H234 H -0.00015 -0.27785 0.44857
 H235 H -0.00889 -0.29358 0.54460
 H236 H -0.00999 -0.34824 0.54495
 H237 H -0.03957 -0.23950 0.52148
 H238 H -0.03605 -0.18564 0.52246
 H239 H 0.03698 -0.19487 0.47239
 H240 H 0.03414 -0.24892 0.47179
 C241 C 0.00528 0.41879 0.51580
 C242 C 0.00689 0.39119 0.51769
 C243 C 0.00882 0.35831 0.51943
 C244 C -0.01712 0.34630 0.52291
 C245 C -0.01560 0.31460 0.52360
 C246 C 0.01192 0.29448 0.52077
 C247 C 0.03797 0.30674 0.51756
 C248 C 0.03640 0.33844 0.51690
 C249 C 0.01315 0.26107 0.52047
 C250 C 0.02730 0.24721 0.49935
 C251 C 0.02749 0.21613 0.49829
 C252 C 0.01361 0.19845 0.51832
 C253 C -0.00019 0.21188 0.53967
 C254 C -0.00042 0.24297 0.54077
 C255 C 0.01242 0.16702 0.51612
 C256 C 0.01072 0.14097 0.51380
 H257 H -0.03864 0.36151 0.52475
 H258 H -0.03620 0.30601 0.52566
 H259 H 0.05961 0.29177 0.51571
 H260 H 0.05664 0.34749 0.51422
 H261 H 0.03755 0.26065 0.48313
 H262 H 0.03805 0.20604 0.48153
 H263 H -0.01102 0.19842 0.55527
 H264 H -0.01114 0.25282 0.55754
 C265 C 0.51493 -0.00691 -0.41907
 C266 C 0.51650 -0.00856 -0.39154
 C267 C 0.51791 -0.01052 -0.35875
 C268 C 0.51098 -0.03614 -0.34039
 C269 C 0.51145 -0.03767 -0.30876
 C270 C 0.51886 -0.01355 -0.29506
 C271 C 0.52608 0.01197 -0.31366
 C272 C 0.52557 0.01346 -0.34529
 C273 C 0.51844 -0.01464 -0.26172
 C274 C 0.54152 -0.00517 -0.24217
 C275 C 0.54047 -0.00526 -0.21111
 C276 C 0.51639 -0.01482 -0.19916
 C277 C 0.49352 -0.02460 -0.21831
 C278 C 0.49454 -0.02455 -0.24936
 C279 C 0.51442 -0.01344 -0.16771
 C280 C 0.51233 -0.01157 -0.14164
 H281 H 0.50505 -0.05486 -0.35056
 H282 H 0.50618 -0.05781 -0.29498
 H283 H 0.53145 0.03113 -0.30394
 H284 H 0.53084 0.03347 -0.35932
 H285 H 0.56044 0.00222 -0.25086
 H286 H 0.55828 0.00239 -0.19650
 H287 H 0.47465 -0.03185 -0.20937
 H288 H 0.47618 -0.03155 -0.26392
 C289 C 0.50109 0.00274 0.40427
 C290 C 0.50027 0.00364 0.37699
 C291 C 0.49999 0.00419 0.34465
 C292 C 0.47198 0.01758 0.32090
 C293 C 0.47175 0.01757 0.28958
 C294 C 0.49958 0.00415 0.28162
 C295 C 0.52764 -0.00907 0.30567
 C296 C 0.52781 -0.00904 0.33694
 C297 C 0.49929 0.00344 0.24850
 C298 C 0.52464 0.00907 0.23589
 C299 C 0.52470 0.00755 0.20497
 C300 C 0.49947 0.00040 0.18625
 C301 C 0.47405 -0.00498 0.19847
 C302 C 0.47392 -0.00346 0.22937
 C303 C 0.49984 -0.00198 0.15470
 C304 C 0.49992 -0.00435 0.12832
 H305 H 0.45033 0.02796 0.32659
 H306 H 0.44987 0.02827 0.27156
 H307 H 0.54933 -0.01997 0.30039
 H308 H 0.54960 -0.01956 0.35515
 H309 H 0.54431 0.01483 0.24988
 H310 H 0.54447 0.01182 0.19572
 H311 H 0.45445 -0.01065 0.18422
 H312 H 0.45428 -0.00832 0.23849
 C313 C 0.48128 -0.41714 -0.00524
 C314 C 0.47885 -0.38941 -0.00717
 C315 C 0.47657 -0.35641 -0.00947
 C316 C 0.47748 -0.33669 -0.03762
 C317 C 0.47657 -0.30490 -0.03952
 C318 C 0.47474 -0.29243 -0.01322
 C319 C 0.47345 -0.31237 0.01485
 C320 C 0.47439 -0.34415 0.01669
 C321 C 0.47506 -0.25901 -0.01475
 C322 C 0.45578 -0.24074 -0.00010
 C323 C 0.45714 -0.20972 -0.00042
 C324 C 0.47772 -0.19654 -0.01539
 C325 C 0.49666 -0.21435 -0.03041
 C326 C 0.49534 -0.24537 -0.03014
 C327 C 0.48043 -0.16529 -0.01413
 C328 C 0.48325 -0.13944 -0.01231
 H329 H 0.47915 -0.34594 -0.05803
 H330 H 0.47721 -0.29007 -0.06156
 H331 H 0.47248 -0.30360 0.03562
 H332 H 0.47383 -0.35925 0.03865
 H333 H 0.43966 -0.25045 0.01160
 H334 H 0.44239 -0.19615 0.01131
 H335 H 0.51284 -0.20445 -0.04188
 H336 H 0.51079 -0.25894 -0.04124
 C337 C 0.50208 0.40317 0.00609
 C338 C 0.50380 0.37569 0.00717
 C339 C 0.50504 0.34314 0.00789
 C340 C 0.47894 0.33151 0.01166
 C341 C 0.47950 0.30024 0.01115
 C342 C 0.50621 0.28018 0.00681
 C343 C 0.53247 0.29200 0.00338
 C344 C 0.53186 0.32329 0.00391
 C345 C 0.50633 0.24731 0.00514
 C346 C 0.51916 0.23441 -0.01722
 C347 C 0.51854 0.20378 -0.01938
 C348 C 0.50515 0.18562 0.00077
 C349 C 0.49252 0.19813 0.02324
 C350 C 0.49309 0.22878 0.02543
 C351 C 0.50415 0.15429 -0.00190
 C352 C 0.50342 0.12811 -0.00449
 H353 H 0.45799 0.34673 0.01459
 H354 H 0.45876 0.29199 0.01343
 H355 H 0.55351 0.27702 0.00039
 H356 H 0.55219 0.33206 0.00098
 H357 H 0.52910 0.24823 -0.03347
 H358 H 0.52830 0.19435 -0.03692
 H359 H 0.48218 0.18423 0.03901
 H360 H 0.48338 0.23791 0.04313
 C361 C -0.40271 -0.00684 0.50354
 C362 C -0.37525 -0.00777 0.50538
 C363 C -0.34272 -0.00826 0.50680
 C364 C -0.32601 0.00427 0.52898
 C365 C -0.29486 0.00512 0.52937
 C366 C -0.28002 -0.00654 0.50753
 C367 C -0.29690 -0.01946 0.48559
 C368 C -0.32805 -0.02027 0.48523
 C369 C -0.24735 -0.00456 0.50713
 C370 C -0.22565 -0.02959 0.50199
 C371 C -0.19508 -0.02739 0.50110
 C372 C -0.18583 -0.00017 0.50530
 C373 C -0.20720 0.02480 0.51051
 C374 C -0.23775 0.02265 0.51143
 C375 C -0.15446 0.00227 0.50426
 C376 C -0.12825 0.00468 0.50353
 H377 H -0.33715 0.01363 0.54578
 H378 H -0.28235 0.01483 0.54681
 H379 H -0.28629 -0.02824 0.46822
 H380 H -0.34084 -0.02985 0.46784
 H381 H -0.23223 -0.05097 0.49896
 H382 H -0.17868 -0.04690 0.49715
 H383 H -0.20030 0.04601 0.51372
 H384 H -0.25403 0.04250 0.51496
 C385 C 0.41783 0.00378 0.48246
 C386 C 0.39012 0.00564 0.47997
 C387 C 0.35711 0.00789 0.47763
 C388 C 0.33679 0.03641 0.47746
 C389 C 0.30498 0.03832 0.47645
 C390 C 0.29307 0.01167 0.47560
 C391 C 0.31363 -0.01679 0.47538
 C392 C 0.34544 -0.01865 0.47642
 C393 C 0.25960 0.01326 0.47581
 C394 C 0.24207 -0.00225 0.45728
 C395 C 0.21099 -0.00181 0.45854
 C396 C 0.19702 0.01412 0.47827
 C397 C 0.21410 0.02998 0.49646
 C398 C 0.24518 0.02960 0.49523
 C399 C 0.16570 0.01300 0.48091
 C400 C 0.13979 0.01130 0.48367
 H401 H 0.34559 0.05711 0.47837
 H402 H 0.28967 0.06065 0.47625
 H403 H 0.30530 -0.03783 0.47518
 H404 H 0.36100 -0.04088 0.47669
 H405 H 0.25238 -0.01470 0.44182
 H406 H 0.19798 -0.01420 0.44438
 H407 H 0.20359 0.04221 0.51197
 H408 H 0.25818 0.04139 0.51009
 C409 C -0.00573 0.51798 1.41741
 C410 C -0.00764 0.52012 1.38977
 C411 C -0.00989 0.52210 1.35687
 C412 C 0.01584 0.52560 1.34436
 C413 C 0.01408 0.52639 1.31264
 C414 C -0.01348 0.52362 1.29302
 C415 C -0.03934 0.52043 1.30576
 C416 C -0.03752 0.51967 1.33748
 C417 C -0.01490 0.52326 1.25964
 C418 C -0.02882 0.50197 1.24620
 C419 C -0.02903 0.50072 1.21518
 C420 C -0.01543 0.52075 1.19717
 C421 C -0.00191 0.54230 1.21016
 C422 C -0.00165 0.54358 1.24119
 C423 C -0.01409 0.51822 1.16587
 C424 C -0.01220 0.51558 1.13996
 H425 H 0.03740 0.52734 1.35920
 H426 H 0.03453 0.52843 1.30366
 H427 H -0.06099 0.51863 1.29117
 H428 H -0.05759 0.51698 1.34692
 H429 H -0.03881 0.48572 1.25993
 H430 H -0.03936 0.48380 1.20542
 H431 H 0.00872 0.55788 1.19642
 H432 H 0.00889 0.56047 1.25074
 C433 C 0.00569 0.49958 0.59653
 C434 C 0.00679 0.49823 0.62392
 C435 C 0.00754 0.49742 0.65637
 C436 C 0.00326 0.52557 0.66607
 C437 C 0.00300 0.52511 0.69735
 C438 C 0.00700 0.49642 0.71937
 C439 C 0.01156 0.46819 0.70945
 C440 C 0.01182 0.46871 0.67814
 C441 C 0.00573 0.49608 0.75236
 C442 C -0.01028 0.47659 0.76799
 C443 C -0.01226 0.47692 0.79872
 C444 C 0.00176 0.49667 0.81425
 C445 C 0.01797 0.51596 0.79903
 C446 C 0.01996 0.51568 0.76828
 C447 C -0.00094 0.49741 0.84563
 C448 C -0.00357 0.49789 0.87184
 H449 H -0.00023 0.54794 0.64937
 H450 H -0.00100 0.54727 0.70413
 H451 H 0.01509 0.44570 0.72594
 H452 H 0.01518 0.44678 0.67087
 H453 H -0.02185 0.46158 0.75623
 H454 H -0.02495 0.46197 0.81027
 H455 H 0.02897 0.53128 0.81088
 H456 H 0.03278 0.53066 0.75702
   
