data_POSCAR
  _audit_creation_date              2014-09-24
  _audit_creation_method            'ToBaCCo'
  _symmetry_space_group_name_H-M    'P1'
  _symmetry_Int_Tables_number       1
  _symmetry_cell_setting            triclinic
  loop_
  _symmetry_equiv_pos_as_xyz
 x,y,z
_cell_length_a 35.1430
_cell_length_b 9.3285
_cell_length_c 11.0538
_cell_angle_alpha 90.341100
_cell_angle_beta 90.263200
_cell_angle_gamma 88.140400
loop_
  _atom_site_label
  _atom_site_type_symbol
  _atom_site_fract_x
  _atom_site_fract_y
  _atom_site_fract_z
C1 C 0.63412 0.12058 0.47941
 C2 C 0.65296 0.12847 0.59125
 C3 C 0.69293 0.11973 0.59244
 C4 C 0.71398 0.08989 0.48540
 C5 C 0.69353 0.07807 0.37515
 C6 C 0.65399 0.09890 0.37128
 C7 C 0.75691 0.08193 0.48780
 C8 C 0.77831 0.10055 0.38057
 C9 C 0.81804 0.10863 0.38422
 C10 C 0.83663 0.09570 0.49611
 C11 C 0.81663 0.07575 0.60306
 C12 C 0.77713 0.06270 0.59831
 H13 H 0.60411 0.14875 0.47419
 H14 H 0.70716 0.13900 0.67749
 H15 H 0.70770 0.05635 0.29038
 H16 H 0.76466 0.11723 0.29399
 H17 H 0.86746 0.09250 0.50035
 H18 H 0.76271 0.03989 0.68171
 C19 C 0.16421 0.88165 0.50647
 C20 C 0.18290 0.87748 0.61907
 C21 C 0.22238 0.89432 0.62253
 C22 C 0.24349 0.91534 0.51525
 C23 C 0.22294 0.93149 0.40507
 C24 C 0.18381 0.90901 0.39975
 C25 C 0.28649 0.91447 0.51692
 C26 C 0.30735 0.89208 0.40879
 C27 C 0.34718 0.88812 0.40831
 C28 C 0.36681 0.90002 0.51834
 C29 C 0.34724 0.91225 0.62902
 C30 C 0.30732 0.92356 0.62673
 H31 H 0.13350 0.87614 0.50182
 H32 H 0.23608 0.88386 0.70958
 H33 H 0.23682 0.95988 0.32208
 H34 H 0.29319 0.87109 0.32399
 H35 H 0.39727 0.88046 0.51817
 H36 H 0.29316 0.93842 0.71240
 C37 C 0.33480 0.45014 -0.50658
 C38 C 0.31598 0.43222 -0.61667
 C39 C 0.27661 0.41642 -0.61794
 C40 C 0.25507 0.42287 -0.50942
 C41 C 0.27500 0.44639 -0.39920
 C42 C 0.31483 0.45392 -0.39752
 C43 C 0.21258 0.40162 -0.51180
 C44 C 0.19223 0.36829 -0.40528
 C45 C 0.15248 0.35258 -0.40729
 C46 C 0.13360 0.35756 -0.51987
 C47 C 0.15329 0.38059 -0.62737
 C48 C 0.19201 0.40818 -0.62231
 H49 H 0.36542 0.46163 -0.50570
 H50 H 0.26389 0.39432 -0.70463
 H51 H 0.26032 0.45631 -0.31387
 H52 H 0.20682 0.35386 -0.31984
 H53 H 0.10415 0.32807 -0.52650
 H54 H 0.20538 0.43280 -0.70685
 C55 C -0.13535 0.65898 -0.47841
 C56 C -0.15356 0.65830 -0.59154
 C57 C -0.19306 0.63741 -0.59533
 C58 C -0.21347 0.60252 -0.48916
 C59 C -0.19312 0.59764 -0.37788
 C60 C -0.15470 0.63021 -0.37189
 C61 C -0.25568 0.57565 -0.49269
 C62 C -0.27737 0.58009 -0.38448
 C63 C -0.31639 0.55695 -0.38611
 C64 C -0.33469 0.53218 -0.49576
 C65 C -0.31497 0.53532 -0.60493
 C66 C -0.27532 0.55031 -0.60337
 H67 H -0.10648 0.69506 -0.47094
 H68 H -0.20730 0.64817 -0.68166
 H69 H -0.20637 0.56942 -0.29398
 H70 H -0.26510 0.60716 -0.29813
 H71 H -0.36506 0.51460 -0.49649
 H72 H -0.26068 0.54556 -0.68895
 O73 O -0.03381 0.73513 0.24050
 O74 O -0.08430 0.81903 0.12579
 C75 C -0.06985 0.74462 0.21444
 O76 O 0.03654 1.31466 0.19004
 O77 O 0.08633 1.20193 0.08979
 C78 C 0.07236 1.29828 0.16435
 O79 O -0.06456 1.21757 0.21676
 O80 O -0.09903 1.05042 0.11419
 C81 C -0.09560 1.15065 0.19524
 O82 O 0.07018 0.80313 0.21834
 O83 O 0.10219 0.96361 0.10272
 C84 C 0.10079 0.86697 0.18679
 Zr85 Zr 0.01305 0.83717 0.16320
 O86 O 0.01813 0.86285 0.35317
 O87 O 0.02450 0.61553 0.18208
 Zr88 Zr -0.00994 1.18946 0.14120
 O89 O -0.00464 1.21707 0.33070
 O90 O -0.02905 1.40503 0.12524
 O91 O -0.03122 0.98923 0.18007
 O92 O 0.03382 1.04096 0.17120
 O93 O 0.06641 0.77189 -0.20716
 O94 O 0.10051 0.94405 -0.10925
 C95 C 0.09745 0.83909 -0.18640
 O96 O -0.06844 1.18224 -0.22500
 O97 O -0.10086 1.03089 -0.10239
 C98 C -0.09913 1.12075 -0.19118
 O99 O 0.03419 1.27333 -0.22964
 O100 O 0.08533 1.18120 -0.12191
 C101 C 0.07037 1.26222 -0.20602
 O102 O -0.03653 0.69703 -0.20172
 O103 O -0.08551 0.79849 -0.09033
 C104 C -0.07209 0.70954 -0.17164
 Zr105 Zr 0.01112 0.80634 -0.13762
 O106 O 0.01266 0.76563 -0.32579
 O107 O 0.02326 0.58607 -0.10521
 Zr108 Zr -0.01200 1.16057 -0.16003
 O109 O -0.01046 1.14743 -0.35143
 O110 O -0.02882 1.37930 -0.16655
 Zr111 Zr -0.05525 0.95419 0.00740
 Zr112 Zr 0.05624 1.04282 -0.00524
 O113 O 0.03113 1.00695 -0.17575
 O114 O -0.03341 0.95507 -0.17005
 O115 O 0.04745 0.82104 0.01029
 O116 O -0.04532 1.17459 -0.00704
 O117 O -0.01903 0.77061 0.01775
 O118 O 0.02078 1.22932 -0.01508
 H119 H 0.05048 1.06034 0.24157
 H120 H -0.06749 1.24302 -0.00883
 H121 H 0.04621 1.01411 -0.25083
 H122 H -0.03092 0.67639 0.02395
 H123 H -0.01721 1.44061 0.05102
 H124 H -0.02866 1.40556 -0.25326
 H125 H -0.02766 1.07078 -0.37687
 H126 H 0.00461 0.85617 -0.36563
 H127 H 0.05077 0.57299 -0.08729
 H128 H 0.04383 0.58864 0.12070
 H129 H -0.00690 0.89681 0.38460
 H130 H -0.01751 1.13680 0.36952
 O131 O 0.56774 0.66888 0.22810
 O132 O 0.60037 0.50753 0.10643
 C133 C 0.59842 0.59802 0.19605
 O134 O 0.43197 0.29681 0.20362
 O135 O 0.39911 0.47803 0.10437
 C136 C 0.40128 0.37282 0.18114
 O137 O 0.53514 0.19272 0.20203
 O138 O 0.58456 0.27929 0.09194
 C139 C 0.57081 0.19508 0.17264
 O140 O 0.46556 0.79320 0.22443
 O141 O 0.41489 0.71136 0.11481
 C142 C 0.42953 0.79130 0.19841
 Zr143 Zr 0.51174 0.66436 0.15860
 O144 O 0.50879 0.65869 0.34991
 O145 O 0.52945 0.87785 0.16302
 Zr146 Zr 0.48786 0.31641 0.13819
 O147 O 0.48465 0.29072 0.32782
 O148 O 0.47572 0.09764 0.11137
 O149 O 0.53265 0.45316 0.17082
 O150 O 0.46813 0.52342 0.17350
 O151 O 0.46495 0.82245 -0.19532
 O152 O 0.41453 0.72689 -0.09571
 C153 C 0.42899 0.81668 -0.17102
 O154 O 0.53375 0.22274 -0.23825
 O155 O 0.58403 0.29633 -0.12268
 C156 C 0.56969 0.22346 -0.21111
 O157 O 0.43009 0.32208 -0.22168
 O158 O 0.39810 0.49274 -0.10698
 C159 C 0.39952 0.39483 -0.19117
 O160 O 0.56614 0.69834 -0.21617
 O161 O 0.59943 0.52330 -0.11109
 C162 C 0.59686 0.62304 -0.19245
 Zr163 Zr 0.51105 0.68653 -0.14307
 O164 O 0.50686 0.71141 -0.33294
 O165 O 0.53033 0.89745 -0.12662
 Zr166 Zr 0.48704 0.34013 -0.16344
 O167 O 0.48282 0.36110 -0.35387
 O168 O 0.47498 0.12118 -0.17953
 Zr169 Zr 0.55504 0.44191 -0.00585
 Zr170 Zr 0.44395 0.56190 0.00150
 O171 O 0.46703 0.54953 -0.17392
 O172 O 0.53182 0.47932 -0.17969
 O173 O 0.47980 0.73861 0.01157
 O174 O 0.51833 0.26852 -0.01618
 O175 O 0.54576 0.66531 0.00701
 O176 O 0.45215 0.33747 -0.01162
 H177 H 0.45267 0.53652 0.24768
 H178 H 0.52986 0.17070 -0.02163
 H179 H 0.45073 0.57168 -0.24519
 H180 H 0.56818 0.72704 0.00984
 H181 H 0.44882 0.09144 0.08553
 H182 H 0.45477 0.10238 -0.12039
 H183 H 0.50788 0.38968 -0.38426
 H184 H 0.51956 0.62633 -0.37057
 H185 H 0.51744 0.93878 -0.05480
 H186 H 0.52853 0.90712 0.24927
 H187 H 0.52456 0.57526 0.37739
 H188 H 0.50510 0.34749 0.36405
 C189 C 0.33819 0.43140 0.27022
 C190 C 0.36884 0.34376 0.25976
 H191 H 0.33223 0.51466 0.20432
 H192 H 0.37333 0.26021 0.32676
 C193 C -0.13302 0.69125 0.30311
 C194 C -0.09492 0.67094 0.29784
 H195 H -0.14818 0.73697 0.22615
 H196 H -0.08023 0.60805 0.36680
 C197 C 0.66242 0.53242 0.28170
 C198 C 0.63187 0.62185 0.27292
 H199 H 0.66774 0.44778 0.21596
 H200 H 0.62832 0.70622 0.34045
 C201 C 0.13461 1.35141 0.25483
 C202 C 0.09787 1.38657 0.23737
 H203 H 0.14934 1.27923 0.19236
 H204 H 0.08422 1.46210 0.29972
 C205 C 0.63249 0.16288 -0.30235
 C206 C 0.59495 0.14172 -0.29309
 H207 H 0.64721 0.21392 -0.22810
 H208 H 0.58070 0.07556 -0.35895
 C209 C 0.16193 0.86824 -0.27296
 C210 C 0.12860 0.80268 -0.27025
 H211 H 0.17234 0.92001 -0.19180
 H212 H 0.12117 0.73219 -0.34451
 C213 C 0.36653 0.88997 -0.25987
 C214 C 0.40404 0.90790 -0.24773
 H215 H 0.35109 0.84387 -0.18566
 H216 H 0.41857 0.97183 -0.31357
 C217 C -0.16154 1.06590 -0.28223
 C218 C -0.13304 1.15564 -0.26415
 H219 H -0.16532 0.97512 -0.22351
 H220 H -0.13078 1.24686 -0.32396
 C221 C 0.66071 0.56329 -0.27473
 C222 C 0.62931 0.64806 -0.27160
 H223 H 0.66690 0.48619 -0.20389
 H224 H 0.62464 0.72579 -0.34330
 C225 C 0.13271 1.31710 -0.30074
 C226 C 0.09480 1.33870 -0.29039
 H227 H 0.14846 1.26775 -0.22652
 H228 H 0.07960 1.40399 -0.35665
 C229 C 0.33690 0.46204 -0.28344
 C230 C 0.36581 0.36711 -0.26598
 H231 H 0.33312 0.55543 -0.22555
 H232 H 0.36838 0.27565 -0.32699
 C233 C -0.13533 0.65413 -0.25446
 C234 C -0.09808 0.62255 -0.24348
 H235 H -0.14983 0.72099 -0.18760
 H236 H -0.08483 0.55131 -0.30996
 C237 C 0.36788 0.84506 0.29626
 C238 C 0.40424 0.87784 0.27776
 H239 H 0.35417 0.77148 0.23506
 H240 H 0.41765 0.95434 0.33699
 C241 C -0.16061 1.12129 0.27755
 C242 C -0.12676 1.18366 0.27944
 H243 H -0.17118 1.07601 0.19385
 H244 H -0.11916 1.24905 0.35684
 C245 C 0.63398 0.12585 0.25480
 C246 C 0.59679 0.10172 0.24363
 H247 H 0.64805 0.19065 0.18858
 H248 H 0.58365 0.03224 0.30838
 C249 C 0.16205 0.92262 0.28489
 C250 C 0.13463 0.83025 0.26023
 H251 H 0.16507 1.01794 0.23084
 H252 H 0.13282 0.73521 0.31584
   
