data_POSCAR
  _audit_creation_date              2014-09-24
  _audit_creation_method            'ToBaCCo'
  _symmetry_space_group_name_H-M    'P1'
  _symmetry_Int_Tables_number       1
  _symmetry_cell_setting            triclinic
  loop_
  _symmetry_equiv_pos_as_xyz
 x,y,z
_cell_length_a 35.6252
_cell_length_b 35.6269
_cell_length_c 35.6297
_cell_angle_alpha 89.924300
_cell_angle_beta 90.000500
_cell_angle_gamma 90.022600
loop_
  _atom_site_label
  _atom_site_type_symbol
  _atom_site_fract_x
  _atom_site_fract_y
  _atom_site_fract_z
C1 C 0.36035 0.24743 -0.03414
 C2 C 0.37578 0.23592 0.00040
 C3 C 0.36254 0.24986 0.03475
 C4 C 0.33144 0.27469 0.03497
 C5 C 0.31562 0.28694 0.00064
 C6 C 0.32840 0.27155 -0.03370
 C7 C 0.30739 0.27941 -0.06623
 C8 C 0.27973 0.30691 -0.06626
 C9 C 0.27177 0.32790 -0.03379
 C10 C 0.28725 0.31520 0.00059
 C11 C 0.31495 0.28700 0.06863
 C12 C 0.28734 0.31455 0.06858
 C13 C 0.27500 0.33100 0.03487
 C14 C 0.25015 0.36208 0.03457
 C15 C 0.23605 0.37521 0.00021
 C16 C 0.24749 0.35975 -0.03430
 H17 H 0.31123 0.26376 -0.09187
 H18 H 0.26404 0.31063 -0.09193
 H19 H 0.32272 0.27513 0.09544
 H20 H 0.27544 0.32233 0.09536
 H21 H 0.40078 0.21870 0.00070
 H22 H 0.21878 0.40017 0.00048
 C23 C 0.75106 0.63833 0.03623
 C24 C 0.76475 0.62497 0.00180
 C25 C 0.75263 0.63998 -0.03274
 C26 C 0.72817 0.67170 -0.03227
 C27 C 0.71329 0.68474 0.00224
 C28 C 0.72611 0.66933 0.03653
 C29 C 0.71401 0.68597 0.07023
 C30 C 0.68594 0.71310 0.07035
 C31 C 0.66890 0.72489 0.03677
 C32 C 0.68469 0.71271 0.00241
 C33 C 0.71909 0.69197 -0.06503
 C34 C 0.69095 0.71899 -0.06492
 C35 C 0.67124 0.72754 -0.03189
 C36 C 0.63909 0.75099 -0.03216
 C37 C 0.62303 0.76189 0.00207
 C38 C 0.63710 0.74892 0.03652
 H39 H 0.72632 0.67854 0.09693
 H40 H 0.67816 0.72494 0.09714
 H41 H 0.73398 0.68786 -0.09108
 H42 H 0.68521 0.73344 -0.09099
 H43 H 0.78213 0.60008 0.00206
 H44 H 0.59746 0.77832 0.00178
 C45 C 0.64053 0.24714 1.03440
 C46 C 0.62558 0.23498 0.99989
 C47 C 0.63891 0.24873 0.96545
 C48 C 0.66992 0.27366 0.96508
 C49 C 0.68528 0.28654 0.99932
 C50 C 0.67218 0.27172 1.03389
 C51 C 0.69231 0.28104 1.06664
 C52 C 0.71928 0.30925 1.06642
 C53 C 0.72794 0.32881 1.03329
 C54 C 0.71321 0.31520 0.99904
 C55 C 0.68656 0.28570 0.93133
 C56 C 0.71369 0.31378 0.93109
 C57 C 0.72542 0.33091 0.96461
 C58 C 0.74939 0.36277 0.96472
 C59 C 0.76231 0.37694 0.99910
 C60 C 0.75137 0.36099 1.03340
 H61 H 0.68812 0.26627 1.09278
 H62 H 0.73361 0.31516 1.09250
 H63 H 0.67910 0.27334 0.90467
 H64 H 0.72554 0.32153 0.90427
 H65 H 0.60070 0.21758 0.99963
 H66 H 0.77871 0.40255 0.99928
 C67 C 0.25060 0.63694 0.96489
 C68 C 0.23662 0.62381 0.99932
 C69 C 0.24814 0.63933 1.03378
 C70 C 0.27228 0.67127 1.03318
 C71 C 0.28776 0.68390 0.99878
 C72 C 0.27553 0.66799 0.96452
 C73 C 0.28793 0.68437 0.93080
 C74 C 0.31552 0.71200 0.93074
 C75 C 0.33195 0.72444 0.96439
 C76 C 0.31609 0.71224 0.99871
 C77 C 0.28006 0.69242 1.06559
 C78 C 0.30763 0.72002 1.06552
 C79 C 0.32875 0.72778 1.03304
 C80 C 0.36069 0.75194 1.03352
 C81 C 0.37618 0.76341 0.99899
 C82 C 0.36301 0.74937 0.96463
 H83 H 0.27610 0.67653 0.90402
 H84 H 0.32330 0.72382 0.90391
 H85 H 0.26432 0.68871 1.09123
 H86 H 0.31132 0.73582 1.09110
 H87 H 0.21934 0.59883 0.99915
 H88 H 0.40116 0.78069 0.99873
 C89 C 0.03529 0.24935 0.36194
 C90 C 0.00086 0.23549 0.37521
 C91 C -0.03362 0.24706 0.35968
 C92 C -0.03302 0.27112 0.32766
 C93 C 0.00138 0.28652 0.31497
 C94 C 0.03564 0.27417 0.33078
 C95 C 0.06934 0.28640 0.31424
 C96 C 0.06941 0.31406 0.28667
 C97 C 0.03577 0.33070 0.27444
 C98 C 0.00144 0.31491 0.28669
 C99 C -0.06547 0.27898 0.30654
 C100 C -0.06542 0.30666 0.27903
 C101 C -0.03291 0.32775 0.27132
 C102 C -0.03338 0.35986 0.24738
 C103 C 0.00115 0.37532 0.23587
 C104 C 0.03555 0.36192 0.24969
 H105 H 0.09611 0.27439 0.32195
 H106 H 0.09621 0.32175 0.27474
 H107 H -0.09113 0.26325 0.31023
 H108 H -0.09104 0.31050 0.26329
 H109 H 0.00103 0.21830 0.40026
 H110 H 0.00142 0.40042 0.21876
 C111 C -0.03395 0.64040 0.75319
 C112 C 0.00056 0.62488 0.76465
 C113 C 0.03494 0.63799 0.75057
 C114 C 0.03524 0.66907 0.72565
 C115 C 0.00095 0.68493 0.71340
 C116 C -0.03342 0.67230 0.72893
 C117 C -0.06588 0.69339 0.72104
 C118 C -0.06588 0.72088 0.69333
 C119 C -0.03339 0.72866 0.67224
 C120 C 0.00097 0.71320 0.68499
 C121 C 0.06894 0.68549 0.71325
 C122 C 0.06896 0.71305 0.68559
 C123 C 0.03529 0.72540 0.66911
 C124 C 0.03503 0.75023 0.63797
 C125 C 0.00066 0.76421 0.62474
 C126 C -0.03387 0.75276 0.64023
 H127 H -0.09152 0.68974 0.73680
 H128 H -0.09151 0.73660 0.68951
 H129 H 0.09573 0.67770 0.72513
 H130 H 0.09577 0.72489 0.67777
 H131 H 0.00078 0.59991 0.78195
 H132 H 0.00094 0.78142 0.59971
 C133 C 0.96513 0.63711 0.25142
 C134 C 0.99950 0.62297 0.23843
 C135 C 1.03381 0.63892 0.24931
 C136 C 1.03368 0.67105 0.27277
 C137 C 0.99941 0.68465 0.28749
 C138 C 0.96499 0.66895 0.27532
 C139 C 0.93144 0.68606 0.28703
 C140 C 0.93164 0.71413 0.31411
 C141 C 0.96538 0.72618 0.33073
 C142 C 0.99965 0.71329 0.31539
 C143 C 1.06680 0.69057 0.28145
 C144 C 1.06698 0.71877 0.30839
 C145 C 1.03420 0.72810 0.32847
 C146 C 1.03467 0.75268 0.36008
 C147 C 1.00014 0.76485 0.37500
 C148 C 0.96572 0.75110 0.36169
 H149 H 0.90463 0.67828 0.27519
 H150 H 0.90496 0.72647 0.32155
 H151 H 1.09289 0.68465 0.26715
 H152 H 1.09311 0.73352 0.31258
 H153 H 0.99966 0.59739 0.22205
 H154 H 0.99986 0.78226 0.39985
 C155 C 1.03209 0.25004 0.63807
 C156 C 0.99780 0.23927 0.62202
 C157 C 0.96341 0.25244 0.63598
 C158 C 0.96326 0.27656 0.66769
 C159 C 0.99769 0.28856 0.68354
 C160 C 1.03192 0.27356 0.67016
 C161 C 1.06499 0.28198 0.68988
 C162 C 1.06522 0.30891 0.71807
 C163 C 1.03257 0.32926 0.72721
 C164 C 0.99799 0.31647 0.71219
 C165 C 0.92972 0.28859 0.68460
 C166 C 0.92998 0.31569 0.71267
 C167 C 0.96377 0.33202 0.72496
 C168 C 0.96423 0.36284 0.75010
 C169 C 0.99871 0.37590 0.76398
 C170 C 1.03318 0.36081 0.75188
 H171 H 1.09100 0.26745 0.68414
 H172 H 1.09130 0.31286 0.73299
 H173 H 0.90285 0.27696 0.67671
 H174 H 0.90328 0.32329 0.72487
 H175 H 0.99802 0.22274 0.59652
 H176 H 0.99855 0.40065 0.78153
 C177 C 0.25001 0.03496 0.36240
 C178 C 0.23592 0.00061 0.37559
 C179 C 0.24732 -0.03391 0.36013
 C180 C 0.27143 -0.03343 0.32816
 C181 C 0.28696 0.00091 0.31543
 C182 C 0.27486 0.03523 0.33130
 C183 C 0.28731 0.06890 0.31486
 C184 C 0.31485 0.06887 0.28722
 C185 C 0.33117 0.03516 0.27481
 C186 C 0.31524 0.00088 0.28706
 C187 C 0.27917 -0.06592 0.30712
 C188 C 0.30668 -0.06594 0.27946
 C189 C 0.32781 -0.03349 0.27156
 C190 C 0.35971 -0.03404 0.24734
 C191 C 0.37527 0.00046 0.23585
 C192 C 0.36221 0.03485 0.24989
 H193 H 0.27556 0.09572 0.32270
 H194 H 0.32271 0.09567 0.27536
 H195 H 0.26342 -0.09155 0.31094
 H196 H 0.31031 -0.09158 0.26374
 H197 H 0.21870 0.00087 0.40059
 H198 H 0.40022 0.00068 0.21856
 C199 C 0.63999 -0.03386 0.75216
 C200 C 0.62500 0.00059 0.76445
 C201 C 0.63833 0.03512 0.75086
 C202 C 0.66928 0.03561 0.72584
 C203 C 0.68465 0.00142 0.71284
 C204 C 0.67165 -0.03320 0.72761
 C205 C 0.69190 -0.06587 0.71831
 C206 C 0.71885 -0.06555 0.69010
 C207 C 0.72736 -0.03239 0.67053
 C208 C 0.71254 0.00180 0.68415
 C209 C 0.68587 0.06941 0.71384
 C210 C 0.71289 0.06975 0.68566
 C211 C 0.72464 0.03628 0.66846
 C212 C 0.74856 0.03626 0.63658
 C213 C 0.76158 0.00192 0.62239
 C214 C 0.75078 -0.03242 0.63835
 H215 H 0.68783 -0.09203 0.73309
 H216 H 0.73328 -0.09157 0.68419
 H217 H 0.67849 0.09604 0.72630
 H218 H 0.72467 0.09661 0.67790
 H219 H 0.60016 0.00074 0.78190
 H220 H 0.77797 0.00180 0.59678
 C221 C 0.24892 0.96527 0.63848
 C222 C 0.23525 0.99977 0.62522
 C223 C 0.24743 1.03424 0.64029
 C224 C 0.27197 1.03360 0.67196
 C225 C 0.28675 0.99898 0.68495
 C226 C 0.27383 0.96479 0.66949
 C227 C 0.28582 0.93098 0.68605
 C228 C 0.31389 0.93066 0.71319
 C229 C 0.33105 0.96414 0.72501
 C230 C 0.31538 0.99862 0.71289
 C231 C 0.28128 1.06627 0.69220
 C232 C 0.30948 1.06596 0.71916
 C233 C 0.32900 1.03281 0.72772
 C234 C 0.36116 1.03286 0.75117
 C235 C 0.37708 0.99852 0.76202
 C236 C 0.36288 0.96418 0.74898
 H237 H 0.27343 0.90434 0.67854
 H238 H 0.32161 0.90379 0.72498
 H239 H 0.26652 1.09241 0.68811
 H240 H 0.31541 1.09199 0.73358
 H241 H 0.21786 0.99960 0.60034
 H242 H 0.40267 0.99864 0.77842
 C243 C 0.63710 0.96465 0.25041
 C244 C 0.62394 0.99902 0.23632
 C245 C 0.63949 1.03354 0.24766
 C246 C 0.67147 1.03305 0.27177
 C247 C 0.68416 0.99870 0.28731
 C248 C 0.66824 0.96439 0.27522
 C249 C 0.68469 0.93072 0.28761
 C250 C 0.71244 0.93075 0.31506
 C251 C 0.72488 0.96444 0.33140
 C252 C 0.71257 0.99873 0.31555
 C253 C 0.69259 1.06553 0.27945
 C254 C 0.72023 1.06556 0.30697
 C255 C 0.72808 1.03311 0.32813
 C256 C 0.75227 1.03367 0.36004
 C257 C 0.76386 0.99918 0.37552
 C258 C 0.74990 0.96476 0.36239
 H259 H 0.67681 0.90391 0.27587
 H260 H 0.72436 0.90395 0.32279
 H261 H 0.68884 1.09115 0.26367
 H262 H 0.73600 1.09120 0.31060
 H263 H 0.59893 0.99877 0.21912
 H264 H 0.78119 0.99897 0.40045
 O265 O 0.83329 0.88505 0.53774
 O266 O 0.88505 0.83252 0.46441
 O267 O 0.83272 0.88434 0.46435
 O268 O 0.88585 0.83340 0.53794
 O269 O 0.84151 0.79007 0.53910
 O270 O 0.78960 0.83981 0.46569
 O271 O 0.84142 0.78852 0.46632
 O272 O 0.78992 0.84073 0.53802
 Cu273 Cu 0.86371 0.86329 0.50097
 Cu274 Cu 0.81137 0.81034 0.50227
 C275 C 0.80258 0.87169 0.55015
 C276 C 0.87189 0.80135 0.45310
 C277 C 0.80185 0.87066 0.45277
 C278 C 0.87237 0.80309 0.55117
 O279 O 0.11578 0.16740 0.46446
 O280 O 0.16677 0.11459 0.53819
 O281 O 0.11507 0.16717 0.53790
 O282 O 0.16805 0.11553 0.46471
 O283 O 0.21185 0.15938 0.46651
 O284 O 0.15928 0.21065 0.53812
 O285 O 0.21000 0.15902 0.53919
 O286 O 0.16010 0.21074 0.46572
 Cu287 Cu 0.13697 0.13669 0.50120
 Cu288 Cu 0.18970 0.18923 0.50238
 C289 C 0.12935 0.19829 0.45279
 C290 C 0.19709 0.12810 0.55129
 C291 C 0.12833 0.19792 0.55026
 C292 C 0.19922 0.12880 0.45341
 O293 O 0.16647 0.88575 0.46226
 O294 O 0.11542 0.83254 0.53573
 O295 O 0.16721 0.88490 0.53575
 O296 O 0.11449 0.83355 0.46229
 O297 O 0.15895 0.79036 0.46146
 O298 O 0.21095 0.84104 0.53399
 O299 O 0.15963 0.78914 0.53405
 O300 O 0.20985 0.84150 0.46129
 Cu301 Cu 0.13642 0.86364 0.49917
 Cu302 Cu 0.18922 0.81120 0.49776
 C303 C 0.19684 0.87234 0.44917
 C304 C 0.12893 0.80153 0.54713
 C305 C 0.19829 0.87159 0.54714
 C306 C 0.12803 0.80318 0.44934
 O307 O 0.88316 0.16898 0.53503
 O308 O 0.83280 0.11492 0.46180
 O309 O 0.88504 0.16697 0.46169
 O310 O 0.83125 0.11673 0.53519
 O311 O 0.78766 0.16071 0.53256
 O312 O 0.84068 0.21022 0.45972
 O313 O 0.78949 0.15922 0.45989
 O314 O 0.83909 0.21247 0.53233
 Cu315 Cu 0.86252 0.13744 0.49870
 Cu316 Cu 0.80988 0.18999 0.49604
 C317 C 0.86961 0.20014 0.54590
 C318 C 0.80251 0.12819 0.44834
 C319 C 0.87174 0.19721 0.44816
 C320 C 0.80011 0.13025 0.54618
 O321 O 0.46465 0.88364 0.83129
 O322 O 0.53822 0.83276 0.88449
 O323 O 0.53807 0.88531 0.83272
 O324 O 0.46480 0.83195 0.88381
 O325 O 0.46650 0.78850 0.83969
 O326 O 0.53939 0.84088 0.78957
 O327 O 0.53890 0.78924 0.84041
 O328 O 0.46669 0.83967 0.78771
 Cu329 Cu 0.50127 0.86290 0.86251
 Cu330 Cu 0.50292 0.81028 0.80996
 C331 C 0.45337 0.87019 0.80022
 C332 C 0.55089 0.80210 0.87133
 C333 C 0.55124 0.87190 0.80240
 C334 C 0.45343 0.80091 0.87038
 O335 O 0.53801 0.16641 0.11444
 O336 O 0.46442 0.11533 0.16750
 O337 O 0.46453 0.16744 0.11535
 O338 O 0.53785 0.11415 0.16646
 O339 O 0.53908 0.15851 0.20970
 O340 O 0.46641 0.21093 0.15942
 O341 O 0.46643 0.15928 0.21111
 O342 O 0.53905 0.20968 0.15876
 Cu343 Cu 0.50101 0.13638 0.13647
 Cu344 Cu 0.50271 0.18893 0.18909
 C345 C 0.55110 0.19678 0.12788
 C346 C 0.45319 0.12870 0.19860
 C347 C 0.45324 0.19850 0.12878
 C348 C 0.55101 0.12757 0.19680
 O349 O 0.53582 0.11540 0.83303
 O350 O 0.46237 0.16664 0.88583
 O351 O 0.46236 0.11504 0.83333
 O352 O 0.53588 0.16745 0.88501
 O353 O 0.53419 0.21138 0.84125
 O354 O 0.46233 0.15928 0.78983
 O355 O 0.46143 0.20991 0.84138
 O356 O 0.53474 0.15985 0.78978
 Cu357 Cu 0.49921 0.13667 0.86378
 Cu358 Cu 0.49821 0.18952 0.81128
 C359 C 0.54756 0.12903 0.80219
 C360 C 0.44929 0.19696 0.87226
 C361 C 0.45000 0.12842 0.80259
 C362 C 0.54733 0.19858 0.87177
 O363 O 0.46201 0.83315 0.11451
 O364 O 0.53513 0.88417 0.16809
 O365 O 0.53539 0.83175 0.11643
 O366 O 0.46166 0.88521 0.16668
 O367 O 0.46008 0.84089 0.21006
 O368 O 0.53315 0.78835 0.16070
 O369 O 0.53274 0.84030 0.21187
 O370 O 0.46050 0.78992 0.15897
 Cu371 Cu 0.49877 0.86303 0.13696
 Cu372 Cu 0.49658 0.81054 0.18976
 C373 C 0.44879 0.80279 0.12790
 C374 C 0.54615 0.87083 0.19931
 C375 C 0.54658 0.80073 0.13012
 C376 C 0.44826 0.87182 0.19697
 O377 O 0.88534 0.53846 0.83414
 O378 O 0.83191 0.46472 0.88459
 O379 O 0.88426 0.46499 0.83284
 O380 O 0.83335 0.53812 0.88648
 O381 O 0.79000 0.53950 0.84218
 O382 O 0.84033 0.46742 0.78918
 O383 O 0.78848 0.46689 0.84042
 O384 O 0.84092 0.54008 0.79093
 Cu385 Cu 0.86318 0.50136 0.86398
 Cu386 Cu 0.81060 0.50352 0.81133
 C387 C 0.87189 0.55187 0.80389
 C388 C 0.80091 0.45345 0.87097
 C389 C 0.87085 0.45398 0.80168
 C390 C 0.80292 0.55125 0.87319
 O391 O 0.11592 0.53765 0.16725
 O392 O 0.16840 0.46423 0.11553
 O393 O 0.11625 0.46417 0.16757
 O394 O 0.16733 0.53764 0.11451
 O395 O 0.21063 0.53872 0.15887
 O396 O 0.16070 0.46530 0.21075
 O397 O 0.21235 0.46602 0.15920
 O398 O 0.16018 0.53774 0.21066
 Cu399 Cu 0.13749 0.50079 0.13677
 Cu400 Cu 0.19037 0.50189 0.18915
 C401 C 0.12932 0.55005 0.19793
 C402 C 0.19961 0.45293 0.12867
 C403 C 0.12986 0.45246 0.19842
 C404 C 0.19766 0.55078 0.12797
 O405 O 0.88596 0.46213 0.16738
 O406 O 0.83295 0.53573 0.11660
 O407 O 0.88445 0.53550 0.16919
 O408 O 0.83313 0.46225 0.11604
 O409 O 0.78961 0.46172 0.16019
 O410 O 0.84057 0.53337 0.21293
 O411 O 0.78957 0.53416 0.16087
 O412 O 0.84153 0.46066 0.21059
 Cu413 Cu 0.86359 0.49906 0.13784
 Cu414 Cu 0.81103 0.49744 0.19054
 C415 C 0.87249 0.44879 0.19762
 C416 C 0.80205 0.54728 0.13018
 C417 C 0.87110 0.54666 0.20034
 C418 C 0.80242 0.44967 0.12928
 O419 O 0.16764 0.53515 0.88458
 O420 O 0.11403 0.46208 0.83339
 O421 O 0.16626 0.46167 0.88546
 O422 O 0.11536 0.53552 0.83264
 O423 O 0.15934 0.53367 0.78901
 O424 O 0.20941 0.46051 0.84096
 O425 O 0.15829 0.46107 0.78999
 O426 O 0.21114 0.53317 0.84047
 Cu427 Cu 0.13638 0.49879 0.86349
 Cu428 Cu 0.18888 0.49714 0.81077
 C429 C 0.19876 0.54633 0.87113
 C430 C 0.12733 0.44913 0.80290
 C431 C 0.19652 0.44846 0.87190
 C432 C 0.12878 0.54690 0.80158
 N433 N 0.25529 0.41508 0.11975
 N434 N 0.26952 0.39075 0.09567
 C435 C 0.24348 0.38509 0.06875
 C436 C 0.21284 0.40763 0.07686
 N437 N 0.22135 0.42556 0.10900
 H438 H 0.18728 0.41111 0.06080
 N439 N 0.74669 0.58581 0.12194
 N440 N 0.73237 0.61019 0.09789
 C441 C 0.75807 0.61551 0.07056
 C442 C 0.78859 0.59269 0.07840
 N443 N 0.78036 0.57496 0.11078
 H444 H 0.81386 0.58884 0.06198
 N445 N 0.74571 0.41441 0.87850
 N446 N 0.73123 0.39003 0.90249
 C447 C 0.75655 0.38524 0.93026
 C448 C 0.78698 0.40828 0.92273
 N449 N 0.77910 0.42569 0.89013
 H450 H 0.81193 0.41252 0.93954
 N451 N 0.25471 0.58402 0.87954
 N452 N 0.26928 0.60827 0.90353
 C453 C 0.24353 0.61401 0.93071
 C454 C 0.21271 0.59158 0.92284
 N455 N 0.22082 0.57365 0.89060
 H456 H 0.18728 0.58817 0.93913
 N457 N 0.12091 0.25383 0.41450
 N458 N 0.09680 0.26821 0.39022
 C459 C 0.06955 0.24244 0.38486
 C460 C 0.07749 0.21182 0.40754
 N461 N 0.10985 0.22005 0.42523
 H462 H 0.06116 0.18646 0.41128
 N463 N 0.12048 0.74579 0.58516
 N464 N 0.09643 0.73135 0.60948
 C465 C 0.06928 0.75715 0.61506
 C466 C 0.07722 0.78786 0.59248
 N467 N 0.10947 0.77963 0.57461
 H468 H 0.06095 0.81327 0.58891
 N469 N 0.88041 0.74606 0.41465
 N470 N 0.90438 0.73196 0.39010
 C471 C 0.93148 0.75789 0.38465
 C472 C 0.92360 0.78831 0.40755
 N473 N 0.89143 0.77978 0.42548
 H474 H 0.93985 0.81370 0.41130
 N475 N 0.87731 0.25580 0.58416
 N476 N 0.90132 0.27051 0.60834
 C477 C 0.92899 0.24516 0.61350
 C478 C 0.92138 0.21448 0.59088
 N479 N 0.88883 0.22224 0.57334
 H480 H 0.93811 0.18942 0.58701
 N481 N 0.41534 0.12012 0.25440
 N482 N 0.39100 0.09609 0.26884
 C483 C 0.38524 0.06904 0.24298
 C484 C 0.40773 0.07702 0.21224
 N485 N 0.42573 0.10921 0.22051
 H486 H 0.41115 0.06083 0.18678
 N487 N 0.58590 0.12080 0.74676
 N488 N 0.61018 0.09677 0.73234
 C489 C 0.61549 0.06937 0.75798
 C490 C 0.59275 0.07714 0.78858
 N491 N 0.57509 0.10956 0.78044
 H492 H 0.58894 0.06066 0.81384
 N493 N 0.41446 0.87804 0.74501
 N494 N 0.39013 0.90209 0.73060
 C495 C 0.38533 0.92972 0.75603
 C496 C 0.40833 0.92205 0.78644
 N497 N 0.42572 0.88951 0.77845
 H498 H 0.41254 0.93873 0.81147
 N499 N 0.58404 0.87932 0.25511
 N500 N 0.60841 0.90333 0.26948
 C501 C 0.61413 0.93042 0.24359
 C502 C 0.59159 0.92247 0.21289
 N503 N 0.57359 0.89029 0.22122
 H504 H 0.58814 0.93870 0.18742
 N505 N 0.40203 0.24556 0.87631
 N506 N 0.37751 0.25934 0.90047
 C507 C 0.37993 0.23883 0.93230
 C508 C 0.40764 0.21189 0.92664
 N509 N 0.42035 0.21708 0.89143
 H510 H 0.41781 0.19076 0.94597
 N511 N 0.59236 0.74891 0.87896
 N512 N 0.61616 0.73466 0.90360
 C513 C 0.61814 0.75891 0.93260
 C514 C 0.59395 0.78846 0.92507
 N515 N 0.57872 0.78113 0.89127
 H516 H 0.58745 0.81236 0.94263
 N517 N 0.40182 0.75399 0.12332
 N518 N 0.37755 0.74010 0.09897
 C519 C 0.38014 0.76060 0.06715
 C520 C 0.40775 0.78765 0.07301
 N521 N 0.42017 0.78255 0.10835
 H522 H 0.41798 0.80881 0.05374
 N523 N 0.59762 0.24604 0.12340
 N524 N 0.62223 0.25983 0.09931
 C525 C 0.62059 0.23877 0.06785
 C526 C 0.59318 0.21149 0.07365
 N527 N 0.57993 0.21702 0.10860
 H528 H 0.58362 0.18987 0.05460
 N529 N 0.24635 0.12352 0.59781
 N530 N 0.26015 0.09928 0.62228
 C531 C 0.23908 0.06779 0.62050
 C532 C 0.21179 0.07373 0.59317
 N533 N 0.21731 0.10877 0.58010
 H534 H 0.19018 0.05469 0.58352
 N535 N 0.75398 0.12345 0.40112
 N536 N 0.74026 0.09908 0.37681
 C537 C 0.76081 0.06733 0.37949
 C538 C 0.78773 0.07327 0.40721
 N539 N 0.78249 0.10858 0.41960
 H540 H 0.80887 0.05407 0.41756
 N541 N 0.74906 0.87894 0.59128
 N542 N 0.73463 0.90342 0.61509
 C543 C 0.75884 0.93248 0.61731
 C544 C 0.78854 0.92518 0.59326
 N545 N 0.78134 0.89144 0.57787
 H546 H 0.81246 0.94284 0.58699
 N547 N 0.24534 0.87650 0.40181
 N548 N 0.25910 0.90068 0.37725
 C549 C 0.23865 0.93250 0.37971
 C550 C 0.21176 0.92682 0.40749
 N551 N 0.21692 0.89160 0.42021
 H552 H 0.19069 0.94614 0.41771
 N553 N 0.12256 0.40297 0.75344
 N554 N 0.09829 0.37868 0.73945
 C555 C 0.06676 0.38046 0.76043
 C556 C 0.07271 0.40762 0.78788
 N557 N 0.10782 0.42058 0.78251
 H558 H 0.05364 0.41722 0.80947
 N559 N 0.12231 0.59151 0.25120
 N560 N 0.09796 0.61555 0.26549
 C561 C 0.06891 0.61783 0.24129
 C562 C 0.07609 0.59359 0.21174
 N563 N 0.10973 0.57800 0.21902
 H564 H 0.05837 0.58727 0.18788
 N565 N 0.87697 0.40137 0.24609
 N566 N 0.90129 0.37686 0.25967
 C567 C 0.93301 0.37950 0.23905
 C568 C 0.92714 0.40735 0.21226
 N569 N 0.89190 0.41988 0.21762
 H570 H 0.94634 0.41768 0.19110
 N571 N 0.87626 0.59921 0.75538
 N572 N 0.90055 0.62358 0.74152
 C573 C 0.93240 0.62096 0.76193
 C574 C 0.92661 0.59324 0.78891
 N575 N 0.89129 0.58077 0.78384
 H576 H 0.94592 0.58291 0.80996
 N577 N 0.75354 0.59752 0.87810
 N578 N 0.73976 0.62192 0.90234
 C579 C 0.76089 0.62011 0.93378
 C580 C 0.78819 0.59279 0.92781
 N581 N 0.78262 0.57980 0.89277
 H582 H 0.80987 0.58317 0.94680
 N583 N 0.24509 0.40120 0.87599
 N584 N 0.25902 0.37677 0.90020
 C585 C 0.23867 0.37923 0.93209
 C586 C 0.21165 0.40690 0.92641
 N587 N 0.21665 0.41952 0.89113
 H588 H 0.19062 0.41711 0.94578
 N589 N 0.24627 0.59804 0.12358
 N590 N 0.26006 0.62244 0.09924
 C591 C 0.23954 0.61988 0.06746
 C592 C 0.21259 0.59219 0.07332
 N593 N 0.21776 0.57966 0.10861
 H594 H 0.19146 0.58192 0.05408
 N595 N 0.74914 0.40826 0.12190
 N596 N 0.73492 0.38429 0.09745
 C597 C 0.75924 0.38211 0.06850
 C598 C 0.78879 0.40635 0.07584
 N599 N 0.78138 0.42183 0.10949
 H600 H 0.81274 0.41271 0.05825
 N601 N 0.87650 0.75468 0.59869
 N602 N 0.90069 0.74094 0.62323
 C603 C 0.93254 0.76139 0.62067
 C604 C 0.92684 0.78825 0.59283
 N605 N 0.89160 0.78308 0.58020
 H606 H 0.94618 0.80930 0.58251
 N607 N 0.87657 0.24569 0.40084
 N608 N 0.90101 0.25931 0.37648
 C609 C 0.93270 0.23867 0.37920
 C610 C 0.92668 0.21183 0.40699
 N611 N 0.89137 0.21718 0.41938
 H612 H 0.94582 0.19065 0.41737
 N613 N 0.12102 0.25138 0.59139
 N614 N 0.09647 0.26589 0.61509
 C615 C 0.06730 0.24180 0.61721
 C616 C 0.07463 0.21208 0.59320
 N617 N 0.10849 0.21916 0.57794
 H618 H 0.05690 0.18825 0.58684
 N619 N 0.12365 0.75379 0.40304
 N620 N 0.09957 0.73996 0.37846
 C621 C 0.06811 0.76105 0.38000
 C622 C 0.07387 0.78838 0.40729
 N623 N 0.10880 0.78285 0.42059
 H624 H 0.05480 0.81003 0.41675
 N625 N 0.59755 0.87686 0.75299
 N626 N 0.62194 0.90119 0.73921
 C627 C 0.62016 0.93257 0.76038
 C628 C 0.59288 0.92649 0.78770
 N629 N 0.57987 0.89145 0.78211
 H630 H 0.58327 0.94541 0.80941
 N631 N 0.40085 0.87618 0.24535
 N632 N 0.37647 0.90046 0.25912
 C633 C 0.37913 0.93231 0.23867
 C634 C 0.40688 0.92652 0.21176
 N635 N 0.41934 0.89121 0.21692
 H636 H 0.41725 0.94584 0.19072
 N637 N 0.59821 0.12326 0.24543
 N638 N 0.62259 0.09900 0.25931
 C639 C 0.62002 0.06715 0.23892
 C640 C 0.59234 0.07291 0.21194
 N641 N 0.57982 0.10820 0.21698
 H642 H 0.58208 0.05360 0.19089
 N643 N 0.40860 0.12137 0.74926
 N644 N 0.38457 0.09700 0.73495
 C645 C 0.38229 0.06794 0.75918
 C646 C 0.40651 0.07513 0.78876
 N647 N 0.42209 0.10880 0.78147
 H648 H 0.41281 0.05743 0.81265
 N649 N 0.58540 0.74541 0.12268
 N650 N 0.60970 0.73084 0.09872
 C651 C 0.61459 0.75614 0.07092
 C652 C 0.59167 0.78664 0.07838
 N653 N 0.57425 0.77884 0.11099
 H654 H 0.58753 0.81161 0.06153
 N655 N 0.41530 0.25424 0.12026
 N656 N 0.39102 0.26870 0.09618
 C657 C 0.38542 0.24291 0.06903
 C658 C 0.40795 0.21220 0.07701
 N659 N 0.42581 0.22040 0.10928
 H660 H 0.41149 0.18679 0.06076
 N661 N 0.58593 0.25383 0.88020
 N662 N 0.61053 0.26790 0.90413
 C663 C 0.61593 0.24197 0.93125
 C664 C 0.59293 0.21157 0.92342
 N665 N 0.57501 0.22011 0.89126
 H666 H 0.58912 0.18618 0.93970
 N667 N 0.41567 0.74505 0.87907
 N668 N 0.39151 0.73053 0.90323
 C669 C 0.38588 0.75634 0.93035
 C670 C 0.40828 0.78713 0.92227
 N671 N 0.42608 0.77896 0.88996
 H672 H 0.41177 0.81258 0.93848
 N673 N 0.74601 0.87907 0.41499
 N674 N 0.73137 0.90318 0.39086
 C675 C 0.75705 0.93048 0.38524
 C676 C 0.78789 0.92256 0.40762
 N677 N 0.77987 0.89015 0.42539
 H678 H 0.81325 0.93893 0.41112
 N679 N 0.25368 0.88000 0.58555
 N680 N 0.26790 0.90396 0.61003
 C681 C 0.24205 0.93110 0.61548
 C682 C 0.21156 0.92326 0.59262
 N683 N 0.21995 0.89106 0.57474
 H684 H 0.18619 0.93955 0.58888
 N685 N 0.25490 0.12016 0.41545
 N686 N 0.26919 0.09617 0.39105
 C687 C 0.24324 0.06915 0.38538
 C688 C 0.21260 0.07712 0.40799
 N689 N 0.22102 0.10925 0.42597
 H690 H 0.18710 0.06095 0.41149
 N691 N 0.74478 0.12255 0.58503
 N692 N 0.73029 0.09848 0.60933
 C693 C 0.75567 0.07078 0.61417
 C694 C 0.78614 0.07843 0.59124
 N695 N 0.77823 0.11103 0.57384
 H696 H 0.81114 0.06169 0.58707
 N697 N 0.87910 0.58533 0.25562
 N698 N 0.90315 0.60967 0.26998
 C699 C 0.93072 0.61458 0.24446
 C700 C 0.92302 0.59165 0.21405
 N701 N 0.89051 0.57419 0.22213
 H702 H 0.93965 0.58756 0.18895
 N703 N 0.87904 0.41609 0.74592
 N704 N 0.90290 0.39165 0.73145
 C705 C 0.93007 0.38584 0.75721
 C706 C 0.92234 0.40840 0.78792
 N707 N 0.89018 0.42650 0.77973
 H708 H 0.93868 0.41183 0.81330
 N709 N 0.12029 0.58504 0.74593
 N710 N 0.09626 0.60941 0.73157
 C711 C 0.06916 0.61501 0.75743
 C712 C 0.07712 0.59238 0.78810
 N713 N 0.10934 0.57448 0.77979
 H714 H 0.06089 0.58880 0.81354
 N715 N 0.12138 0.41420 0.25399
 N716 N 0.09721 0.38999 0.26843
 C717 C 0.06989 0.38471 0.24272
 C718 C 0.07787 0.40737 0.21208
 N719 N 0.11031 0.42496 0.22024
 H720 H 0.06151 0.41117 0.18676
   
