data_POSCAR
  _audit_creation_date              2014-09-24
  _audit_creation_method            'ToBaCCo'
  _symmetry_space_group_name_H-M    'P1'
  _symmetry_Int_Tables_number       1
  _symmetry_cell_setting            triclinic
  loop_
  _symmetry_equiv_pos_as_xyz
 x,y,z
_cell_length_a 43.3825
_cell_length_b 42.6268
_cell_length_c 44.7857
_cell_angle_alpha 91.431100
_cell_angle_beta 90.397100
_cell_angle_gamma 89.819200
loop_
  _atom_site_label
  _atom_site_type_symbol
  _atom_site_fract_x
  _atom_site_fract_y
  _atom_site_fract_z
N1 N 0.59309 0.66681 0.60594
 N2 N 0.57964 0.65122 0.62721
 C3 C 0.54980 0.65997 0.62877
 C4 C 0.54432 0.68175 0.60696
 C5 C 0.57225 0.68554 0.59290
 H6 H 0.53337 0.65143 0.64467
 H7 H 0.57733 0.70171 0.57537
 Cu8 Cu 0.60304 0.62198 0.65133
 Cu9 Cu 0.63732 0.66423 0.59910
 Cu10 Cu 0.67030 0.59555 0.62398
 N11 N 0.62695 0.59015 0.67174
 N12 N 0.65408 0.58129 0.66170
 C13 C 0.66649 0.56040 0.68031
 C14 C 0.64586 0.55541 0.70325
 C15 C 0.62084 0.57463 0.69686
 H16 H 0.68851 0.54904 0.67668
 H17 H 0.60015 0.57782 0.70990
 N18 N 0.68928 0.62151 0.59343
 N19 N 0.67768 0.64871 0.58541
 C20 C 0.69682 0.66188 0.56583
 C21 C 0.72146 0.64177 0.56105
 C22 C 0.71590 0.61636 0.57881
 H23 H 0.69271 0.68402 0.55518
 H24 H 0.73052 0.59600 0.58138
 H25 H 0.63211 0.61790 0.60494
 H26 H 0.65411 0.63872 0.63537
 N27 N 0.91046 0.33244 0.10225
 N28 N 0.91859 0.33837 0.13011
 C29 C 0.94645 0.32544 0.13522
 C30 C 0.95665 0.31113 0.10887
 C31 C 0.93315 0.31637 0.08839
 H32 H 0.95852 0.32685 0.15640
 H33 H 0.93176 0.30760 0.06557
 Cu34 Cu 0.89229 0.36290 0.15694
 Cu35 Cu 0.86958 0.34234 0.08714
 Cu36 Cu 0.82477 0.39180 0.13105
 N37 N 0.86961 0.39564 0.17851
 N38 N 0.84278 0.40589 0.16892
 C39 C 0.83151 0.42701 0.18885
 C40 C 0.85262 0.43057 0.21192
 C41 C 0.87663 0.41045 0.20460
 H42 H 0.80982 0.43931 0.18654
 H43 H 0.89733 0.40649 0.21758
 N44 N 0.81083 0.37478 0.09198
 N45 N 0.82753 0.35488 0.07581
 C46 C 0.81091 0.34515 0.05185
 C47 C 0.78274 0.36020 0.05272
 C48 C 0.78340 0.37893 0.07830
 H49 H 0.81856 0.32825 0.03507
 H50 H 0.76479 0.39341 0.08684
 H51 H 0.86762 0.38353 0.11271
 H52 H 0.84671 0.34878 0.12742
 N53 N 0.40310 0.17519 -0.11740
 N54 N 0.41174 0.16461 -0.14387
 C55 C 0.42742 0.18720 -0.15764
 C56 C 0.42920 0.21311 -0.13851
 C57 C 0.41369 0.20462 -0.11306
 H58 H 0.43812 0.18451 -0.17930
 H59 H 0.41055 0.21866 -0.09285
 Cu60 Cu 0.40507 0.12109 -0.15607
 Cu61 Cu 0.37968 0.14929 -0.09042
 Cu62 Cu 0.34529 0.08454 -0.12572
 N63 N 0.39354 0.07889 -0.16896
 N64 N 0.36909 0.06523 -0.15803
 C65 C 0.36479 0.03739 -0.17229
 C66 C 0.38829 0.03314 -0.19270
 C67 C 0.40617 0.05985 -0.18997
 H68 H 0.34635 0.02122 -0.16773
 H69 H 0.42637 0.06526 -0.20286
 N70 N 0.33285 0.10096 -0.08605
 N71 N 0.34567 0.12570 -0.07276
 C72 C 0.33212 0.13090 -0.04611
 C73 C 0.31027 0.10787 -0.04224
 C74 C 0.31141 0.08922 -0.06788
 H75 H 0.33815 0.14961 -0.03041
 H76 H 0.29762 0.06864 -0.07292
 H77 H 0.38482 0.10354 -0.10860
 H78 H 0.35853 0.13181 -0.12731
 N79 N 0.09287 0.82838 0.37776
 N80 N 0.08646 0.83702 0.35047
 C81 C 0.06921 0.81478 0.33670
 C82 C 0.06363 0.79117 0.35675
 C83 C 0.07899 0.80080 0.38272
 H84 H 0.05987 0.81668 0.31438
 H85 H 0.08041 0.78862 0.40358
 Cu86 Cu 0.09744 0.87851 0.33720
 Cu87 Cu 0.11857 0.85403 0.40462
 Cu88 Cu 0.15790 0.91395 0.36971
 N89 N 0.10997 0.92025 0.32595
 N90 N 0.13471 0.93349 0.33769
 C91 C 0.13943 0.96121 0.32471
 C92 C 0.11586 0.96585 0.30433
 C93 C 0.09754 0.93948 0.30573
 H94 H 0.15809 0.97714 0.33027
 H95 H 0.07702 0.93449 0.29262
 N96 N 0.16927 0.89854 0.40938
 N97 N 0.15461 0.87564 0.42258
 C98 C 0.16810 0.87058 0.44923
 C99 C 0.19186 0.89184 0.45318
 C100 C 0.19188 0.90927 0.42760
 H101 H 0.16081 0.85321 0.46487
 H102 H 0.20727 0.92833 0.42264
 H103 H 0.11709 0.89837 0.38519
 H104 H 0.14227 0.86719 0.36833
 C105 C 0.12300 0.16703 0.12598
 N106 N 0.14735 0.15777 0.10899
 C107 C 0.16455 0.13243 0.11647
 N108 N 0.15700 0.11609 0.14103
 C109 C 0.13270 0.12512 0.15823
 N110 N 0.11572 0.15052 0.15049
 C111 C 0.37965 0.83018 0.62098
 N112 N 0.38719 0.84726 0.64597
 C113 C 0.37091 0.87340 0.65384
 N114 N 0.34708 0.88264 0.63629
 C115 C 0.33929 0.86582 0.61121
 N116 N 0.35575 0.83967 0.60358
 C117 C 0.91645 0.62825 0.37626
 N118 N 0.90073 0.63665 0.40136
 C119 C 0.87594 0.61982 0.41000
 N120 N 0.86682 0.59452 0.39318
 C121 C 0.88233 0.58585 0.36804
 N122 N 0.90703 0.60294 0.35960
 C123 C 0.58110 0.37453 -0.12687
 N124 N 0.59863 0.36617 -0.10309
 C125 C 0.62554 0.38113 -0.09669
 N126 N 0.63521 0.40431 -0.11460
 C127 C 0.61800 0.41284 -0.13853
 N128 N 0.59099 0.39784 -0.14460
 C129 C 0.02644 0.26278 0.12292
 C130 C 0.03585 0.25656 0.09413
 C131 C 0.02042 0.26806 0.06942
 C132 C -0.00596 0.28649 0.07455
 C133 C -0.01613 0.29370 0.10412
 C134 C 0.00093 0.28198 0.12863
 O135 O 0.04268 0.24739 0.14311
 C136 C 0.06287 0.23122 0.12669
 C137 C 0.05993 0.23632 0.09661
 C138 C 0.07815 0.22108 0.07531
 C139 C 0.09998 0.19933 0.08540
 C140 C 0.10267 0.19275 0.11623
 C141 C 0.08403 0.20930 0.13717
 H142 H 0.02796 0.26239 0.04693
 H143 H -0.01812 0.29530 0.05532
 H144 H -0.00628 0.28601 0.15148
 H145 H 0.07528 0.22534 0.05173
 H146 H 0.11386 0.18669 0.06905
 H147 H 0.08540 0.20468 0.16081
 C148 C 0.47417 0.73234 0.61953
 C149 C 0.46453 0.73661 0.59056
 C150 C 0.47959 0.72303 0.56611
 C151 C 0.50574 0.70453 0.57178
 C152 C 0.51578 0.69951 0.60147
 C153 C 0.49950 0.71328 0.62568
 O154 O 0.45840 0.74941 0.63937
 C155 C 0.43830 0.76472 0.62261
 C156 C 0.44082 0.75748 0.59262
 C157 C 0.42267 0.77168 0.57105
 C158 C 0.40141 0.79462 0.58076
 C159 C 0.39919 0.80331 0.61149
 C160 C 0.41767 0.78772 0.63269
 H161 H 0.47203 0.72727 0.54348
 H162 H 0.51829 0.69425 0.55312
 H163 H 0.50727 0.71051 0.64850
 H164 H 0.42520 0.76577 0.54755
 H165 H 0.38763 0.80647 0.56421
 H166 H 0.41669 0.79392 0.65626
 C167 C 1.01338 0.72282 0.37117
 C168 C 1.00587 0.71355 0.34243
 C169 C 1.01703 0.72862 0.31760
 C170 C 1.03649 0.75449 0.32259
 C171 C 1.04504 0.76446 0.35208
 C172 C 1.03357 0.74775 0.37667
 O173 O 0.99833 0.70702 0.39165
 C174 C 0.98108 0.68725 0.37546
 C175 C 0.98513 0.69001 0.34521
 C176 C 0.96883 0.67204 0.32415
 C177 C 0.94716 0.65066 0.33470
 C178 C 0.94173 0.64821 0.36578
 C179 C 0.95924 0.66660 0.38642
 H180 H 1.01039 0.72122 0.29518
 H181 H 1.04506 0.76637 0.30328
 H182 H 1.03866 0.75486 0.39952
 H183 H 0.97232 0.67473 0.30045
 H184 H 0.93378 0.63695 0.31862
 H185 H 0.95553 0.66535 0.41024
 C186 C 0.48228 0.28187 -0.12542
 C187 C 0.48323 0.29398 -0.15360
 C188 C 0.46645 0.28123 -0.17753
 C189 C 0.44819 0.25481 -0.17222
 C190 C 0.44673 0.24210 -0.14329
 C191 C 0.46370 0.25617 -0.11949
 O192 O 0.50180 0.29572 -0.10639
 C193 C 0.51535 0.31705 -0.12287
 C194 C 0.50465 0.31719 -0.15184
 C195 C 0.51663 0.33686 -0.17318
 C196 C 0.54095 0.35681 -0.16440
 C197 C 0.55309 0.35635 -0.13487
 C198 C 0.53963 0.33644 -0.11375
 H199 H 0.46801 0.29074 -0.19965
 H200 H 0.43539 0.24410 -0.19062
 H201 H 0.46367 0.24642 -0.09739
 H202 H 0.50802 0.33638 -0.19592
 H203 H 0.55104 0.37169 -0.18094
 H204 H 0.54841 0.33530 -0.09111
 C205 C 0.13036 0.03142 0.25138
 C206 C 0.10093 0.04295 0.24782
 C207 C 0.07558 0.03045 0.26214
 C208 C 0.08079 0.00497 0.28081
 C209 C 0.11099 -0.00694 0.28521
 C210 C 0.13616 0.00670 0.27050
 O211 O 0.15087 0.04526 0.23428
 C212 C 0.13406 0.06606 0.21970
 C213 C 0.10343 0.06583 0.22741
 C214 C 0.08166 0.08540 0.21451
 C215 C 0.09180 0.10577 0.19251
 C216 C 0.12312 0.10577 0.18346
 C217 C 0.14455 0.08575 0.19754
 H218 H 0.05257 0.03956 0.25861
 H219 H 0.06138 -0.00540 0.29196
 H220 H 0.15934 -0.00241 0.27303
 H221 H 0.05765 0.08473 0.22089
 H222 H 0.07504 0.12076 0.18184
 H223 H 0.16857 0.08512 0.19111
 C224 C 0.62842 0.50546 -0.23210
 C225 C 0.65748 0.49478 -0.22525
 C226 C 0.68341 0.50306 -0.24120
 C227 C 0.67927 0.52314 -0.26526
 C228 C 0.64958 0.53524 -0.27255
 C229 C 0.62386 0.52630 -0.25528
 O230 O 0.60661 0.49314 -0.21538
 C231 C 0.62231 0.47445 -0.19747
 C232 C 0.65357 0.47494 -0.20234
 C233 C 0.67436 0.45707 -0.18617
 C234 C 0.66240 0.43760 -0.16430
 C235 C 0.63014 0.43582 -0.15953
 C236 C 0.60985 0.45471 -0.17628
 H237 H 0.70601 0.49399 -0.23563
 H238 H 0.69948 0.52963 -0.27765
 H239 H 0.60072 0.53417 -0.26033
 H240 H 0.69887 0.45786 -0.19043
 H241 H 0.67818 0.42309 -0.15182
 H242 H 0.58514 0.45380 -0.17316
 C243 C 0.37381 0.96778 0.75084
 C244 C 0.40328 0.95645 0.74686
 C245 C 0.42868 0.96909 0.76194
 C246 C 0.42347 0.99448 0.78187
 C247 C 0.39323 1.00614 0.78672
 C248 C 0.36802 0.99240 0.77116
 O249 O 0.35321 0.95379 0.73301
 C250 C 0.36999 0.93307 0.71755
 C251 C 0.40070 0.93350 0.72540
 C252 C 0.42243 0.91392 0.71179
 C253 C 0.41213 0.89332 0.68893
 C254 C 0.38072 0.89312 0.67976
 C255 C 0.35936 0.91319 0.69452
 H256 H 0.45171 0.96011 0.75810
 H257 H 0.44290 1.00495 0.79365
 H258 H 0.34480 1.00131 0.77406
 H259 H 0.44648 0.91472 0.71831
 H260 H 0.42881 0.87827 0.67773
 H261 H 0.33527 0.91362 0.68803
 C262 C 0.87211 0.48766 0.27484
 C263 C 0.84362 0.49164 0.28773
 C264 C 0.81737 0.47633 0.27704
 C265 C 0.82061 0.45617 0.25198
 C266 C 0.84983 0.45135 0.23857
 C267 C 0.87599 0.46714 0.25038
 O268 O 0.89372 0.50572 0.28738
 C269 C 0.87858 0.52134 0.30872
 C270 C 0.84793 0.51337 0.31006
 C271 C 0.82776 0.52715 0.33054
 C272 C 0.83958 0.55032 0.35024
 C273 C 0.87095 0.55961 0.34878
 C274 C 0.89072 0.54463 0.32778
 H275 H 0.79511 0.48015 0.28730
 H276 H 0.80044 0.44418 0.24312
 H277 H 0.89844 0.46432 0.24023
 H278 H 0.80371 0.52053 0.33114
 H279 H 0.82406 0.56162 0.36602
 H280 H 0.91473 0.55116 0.32606
 C281 C 0.25738 0.12490 0.02257
 C282 C 0.25242 0.09506 0.03252
 C283 C 0.26554 0.06855 0.01896
 C284 C 0.28452 0.07301 -0.00584
 C285 C 0.29043 0.10361 -0.01610
 C286 C 0.27683 0.12992 -0.00151
 O287 O 0.24132 0.14669 0.03740
 C288 C 0.22599 0.13030 0.05723
 C289 C 0.23221 0.09864 0.05541
 C290 C 0.21839 0.07715 0.07393
 C291 C 0.19698 0.08872 0.09488
 C292 C 0.18940 0.12114 0.09651
 C293 C 0.20442 0.14221 0.07752
 H294 H 0.26093 0.04526 0.02688
 H295 H 0.29484 0.05273 -0.01689
 H296 H 0.28053 0.15347 -0.00926
 H297 H 0.22361 0.05234 0.07206
 H298 H 0.18554 0.07225 0.10909
 H299 H 0.19912 0.16706 0.07817
 C300 C 0.78466 0.62556 0.50541
 C301 C 0.79642 0.65522 0.50225
 C302 C 0.78474 0.68137 0.51762
 C303 C 0.75991 0.67673 0.53697
 C304 C 0.74775 0.64627 0.54093
 C305 C 0.76051 0.62031 0.52505
 O306 O 0.79780 0.60420 0.48754
 C307 C 0.81840 0.62069 0.47286
 C308 C 0.81873 0.65196 0.48122
 C309 C 0.83827 0.67351 0.46832
 C310 C 0.85798 0.66244 0.44561
 C311 C 0.85739 0.63045 0.43594
 C312 C 0.83745 0.60929 0.45009
 H313 H 0.79406 0.70456 0.51446
 H314 H 0.75030 0.69676 0.54903
 H315 H 0.75129 0.59691 0.52720
 H316 H 0.83808 0.69802 0.47521
 H317 H 0.87292 0.67901 0.43492
 H318 H 0.83637 0.58477 0.44322
 C319 C 0.71890 0.37596 -0.00222
 C320 C 0.70857 0.34592 -0.00812
 C321 C 0.72160 0.31972 0.00499
 C322 C 0.74629 0.32470 0.02496
 C323 C 0.75680 0.35550 0.03185
 C324 C 0.74277 0.38150 0.01826
 O325 O 0.70463 0.39737 -0.01835
 C326 C 0.68473 0.38053 -0.03465
 C327 C 0.68594 0.34898 -0.02897
 C328 C 0.66710 0.32709 -0.04359
 C329 C 0.64639 0.33815 -0.06516
 C330 C 0.64545 0.37044 -0.07212
 C331 C 0.66482 0.39193 -0.05647
 H332 H 0.71341 0.29627 -0.00036
 H333 H 0.75708 0.30470 0.03526
 H334 H 0.75082 0.40517 0.02285
 H335 H 0.66845 0.30238 -0.03873
 H336 H 0.63182 0.32144 -0.07712
 H337 H 0.66458 0.41669 -0.06131
 C338 C 0.24544 0.87423 0.51724
 C339 C 0.25185 0.90413 0.52777
 C340 C 0.23947 0.93079 0.51493
 C341 C 0.21973 0.92645 0.49021
 C342 C 0.21233 0.89585 0.47935
 C343 C 0.22518 0.86936 0.49324
 O344 O 0.26097 0.85221 0.53150
 C345 C 0.27742 0.86855 0.55155
 C346 C 0.27241 0.90038 0.55041
 C347 C 0.28738 0.92185 0.56930
 C348 C 0.30862 0.91007 0.59001
 C349 C 0.31492 0.87740 0.59103
 C350 C 0.29887 0.85637 0.57157
 H351 H 0.24521 0.95410 0.52332
 H352 H 0.21001 0.94685 0.47966
 H353 H 0.22030 0.84579 0.48499
 H354 H 0.28307 0.94680 0.56798
 H355 H 0.32084 0.92650 0.60459
 H356 H 0.30317 0.83134 0.57180
   
