data_POSCAR
  _audit_creation_date              2014-09-24
  _audit_creation_method            'ToBaCCo'
  _symmetry_space_group_name_H-M    'P1'
  _symmetry_Int_Tables_number       1
  _symmetry_cell_setting            triclinic
  loop_
  _symmetry_equiv_pos_as_xyz
 x,y,z
_cell_length_a 42.0789
_cell_length_b 42.0561
_cell_length_c 42.1015
_cell_angle_alpha 89.968700
_cell_angle_beta 90.000200
_cell_angle_gamma 89.937300
loop_
  _atom_site_label
  _atom_site_type_symbol
  _atom_site_fract_x
  _atom_site_fract_y
  _atom_site_fract_z
O1 O 0.27640 1.03121 0.46947
 O2 O 0.27627 0.96930 0.53130
 O3 O 0.27629 0.96927 0.46942
 O4 O 0.27635 1.03124 0.53135
 O5 O 0.22399 1.03139 0.53132
 O6 O 0.22389 0.96941 0.46942
 O7 O 0.22386 0.96945 0.53128
 O8 O 0.22399 1.03135 0.46945
 Cu9 Cu 0.28157 1.00024 0.50039
 Cu10 Cu 0.21870 1.00042 0.50037
 C11 C 0.25022 1.04188 0.45886
 C12 C 0.25005 0.95876 0.54189
 C13 C 0.25007 0.95872 0.45880
 C14 C 0.25019 1.04200 0.54202
 O15 O 0.72354 -0.03132 0.46965
 O16 O 0.72364 0.03053 0.53141
 O17 O 0.72360 0.03058 0.46957
 O18 O 0.72359 -0.03137 0.53151
 O19 O 0.77595 -0.03150 0.53148
 O20 O 0.77601 0.03047 0.46955
 O21 O 0.77605 0.03042 0.53138
 O22 O 0.77596 -0.03143 0.46963
 Cu23 Cu 0.71835 -0.00039 0.50054
 Cu24 Cu 0.78124 -0.00052 0.50051
 C25 C 0.74973 -0.04196 0.45904
 C26 C 0.74987 0.04109 0.54197
 C27 C 0.74981 0.04115 0.45894
 C28 C 0.74976 -0.04212 0.54217
 O29 O 0.22391 0.46831 0.96949
 O30 O 0.22391 0.53018 1.03128
 O31 O 0.22389 0.53021 0.96944
 O32 O 0.22397 0.46828 1.03134
 O33 O 0.27633 0.46824 1.03130
 O34 O 0.27630 0.53018 0.96942
 O35 O 0.27633 0.53015 1.03126
 O36 O 0.27632 0.46827 0.96946
 Cu37 Cu 0.21867 0.49925 1.00039
 Cu38 Cu 0.28157 0.49920 1.00036
 C39 C 0.25011 0.45770 0.95887
 C40 C 0.25012 0.54078 1.04186
 C41 C 0.25008 0.54081 0.95882
 C42 C 0.25016 0.45758 1.04199
 O43 O 0.46974 0.27610 1.03118
 O44 O 0.53158 0.27608 0.96942
 O45 O 0.46969 0.27602 0.96933
 O46 O 0.53164 0.27609 1.03127
 O47 O 0.53171 0.22370 1.03135
 O48 O 0.46978 0.22359 0.96940
 O49 O 0.53166 0.22364 0.96949
 O50 O 0.46982 0.22366 1.03126
 Cu51 Cu 0.50065 0.28132 1.00029
 Cu52 Cu 0.50075 0.21840 1.00039
 C53 C 0.45918 0.24989 1.04180
 C54 C 0.54221 0.24985 0.95886
 C55 C 0.45911 0.24979 0.95874
 C56 C 0.54235 0.24991 1.04200
 O57 O 0.46962 0.72384 -0.03137
 O58 O 0.53146 0.72399 0.03039
 O59 O 0.46958 0.72388 0.03047
 O60 O 0.53152 0.72399 -0.03147
 O61 O 0.53135 0.77638 -0.03154
 O62 O 0.46942 0.77631 0.03043
 O63 O 0.53130 0.77643 0.03033
 O64 O 0.46946 0.77628 -0.03143
 Cu65 Cu 0.50057 0.71868 -0.00049
 Cu66 Cu 0.50037 0.78160 -0.00056
 C67 C 0.45893 0.75003 -0.04198
 C68 C 0.54197 0.75024 0.04096
 C69 C 0.45888 0.75008 0.04107
 C70 C 0.54212 0.75020 -0.04219
 O71 O 1.03132 0.46953 0.27607
 O72 O 0.96945 0.53141 0.27610
 O73 O 0.96943 0.46948 0.27608
 O74 O 1.03135 0.53146 0.27608
 O75 O 1.03135 0.53150 0.22375
 O76 O 0.96943 0.46954 0.22370
 O77 O 0.96945 0.53146 0.22372
 O78 O 1.03131 0.46959 0.22369
 Cu79 Cu 1.00039 0.50047 0.28132
 Cu80 Cu 1.00039 0.50053 0.21848
 C81 C 1.04192 0.45896 0.24987
 C82 C 0.95884 0.54204 0.24991
 C83 C 0.95882 0.45888 0.24989
 C84 C 1.04203 0.54216 0.24992
 O85 O -0.03144 0.46959 0.72373
 O86 O 0.03035 0.53141 0.72383
 O87 O 0.03044 0.46949 0.72376
 O88 O -0.03155 0.53153 0.72382
 O89 O -0.03159 0.53144 0.77615
 O90 O 0.03042 0.46941 0.77614
 O91 O 0.03032 0.53132 0.77622
 O92 O -0.03147 0.46951 0.77611
 Cu93 Cu -0.00055 0.50052 0.71854
 Cu94 Cu -0.00059 0.50042 0.78139
 C95 C -0.04204 0.45895 0.74990
 C96 C 0.04093 0.54195 0.75004
 C97 C 0.04106 0.45882 0.74994
 C98 C -0.04226 0.54218 0.74999
 O99 O 0.46839 0.96959 0.22374
 O100 O 0.53022 1.03143 0.22379
 O101 O 0.53024 0.96955 0.22378
 O102 O 0.46836 1.03150 0.22380
 O103 O 0.46833 1.03144 0.27613
 O104 O 0.53022 0.96951 0.27616
 O105 O 0.53020 1.03139 0.27618
 O106 O 0.46837 0.96954 0.27613
 Cu107 Cu 0.49930 1.00053 0.21853
 Cu108 Cu 0.49927 1.00047 0.28140
 C109 C 0.45779 0.95896 0.24993
 C110 C 0.54082 1.04200 0.24999
 C111 C 0.54084 0.95892 0.24997
 C112 C 0.45768 1.04216 0.24997
 O113 O 1.03105 0.27608 0.53069
 O114 O 0.96917 0.27608 0.46889
 O115 O 0.96920 0.27609 0.53071
 O116 O 1.03103 0.27615 0.46886
 O117 O 1.03112 0.22370 0.46886
 O118 O 0.96927 0.22364 0.53072
 O119 O 0.96925 0.22364 0.46890
 O120 O 1.03113 0.22364 0.53068
 Cu121 Cu 1.00010 0.28136 0.49979
 Cu122 Cu 1.00020 0.21840 0.49979
 C123 C 1.04169 0.24986 0.54128
 C124 C 0.95861 0.24986 0.45830
 C125 C 0.95864 0.24986 0.54132
 C126 C 1.04167 0.24994 0.45826
 O127 O -0.03101 0.72391 0.53095
 O128 O 0.03085 0.72383 0.46914
 O129 O 0.03084 0.72385 0.53097
 O130 O -0.03100 0.72390 0.46912
 O131 O -0.03101 0.77635 0.46908
 O132 O 0.03084 0.77630 0.53093
 O133 O 0.03085 0.77627 0.46910
 O134 O -0.03102 0.77636 0.53090
 Cu135 Cu -0.00008 0.71862 0.50005
 Cu136 Cu -0.00008 0.78158 0.50000
 C137 C -0.04162 0.75015 0.54152
 C138 C 0.04145 0.75003 0.45852
 C139 C 0.04143 0.75006 0.54155
 C140 C -0.04161 0.75013 0.45851
 O141 O 0.72365 0.46917 1.03086
 O142 O 0.72364 0.53106 0.96908
 O143 O 0.72368 0.46918 0.96906
 O144 O 0.72365 0.53105 1.03089
 O145 O 0.77606 0.53101 1.03090
 O146 O 0.77610 0.46915 0.96907
 O147 O 0.77605 0.53102 0.96909
 O148 O 0.77607 0.46914 1.03088
 Cu149 Cu 0.71839 0.50012 0.99997
 Cu150 Cu 0.78133 0.50008 0.99998
 C151 C 0.74986 0.45855 1.04146
 C152 C 0.74984 0.54164 0.95849
 C153 C 0.74990 0.45856 0.95846
 C154 C 0.74985 0.54163 1.04149
 O155 O 0.46849 1.03141 0.72381
 O156 O 0.53037 0.96950 0.72382
 O157 O 0.46852 0.96952 0.72384
 O158 O 0.53035 1.03138 0.72379
 O159 O 0.53036 1.03139 0.77617
 O160 O 0.46853 0.96953 0.77623
 O161 O 0.53038 0.96951 0.77621
 O162 O 0.46850 1.03143 0.77614
 Cu163 Cu 0.49943 1.00045 0.71857
 Cu164 Cu 0.49944 1.00047 0.78144
 C165 C 0.45782 1.04209 0.74996
 C166 C 0.54099 0.95889 0.75002
 C167 C 0.45794 0.95891 0.75005
 C168 C 0.54096 1.04198 0.74997
 C169 C 0.25041 0.22648 0.27357
 C170 C 0.22670 0.25018 0.27352
 C171 C 0.22671 0.27386 0.24980
 C172 C 0.25039 0.27385 0.22612
 C173 C 0.27409 0.25012 0.22618
 C174 C 0.27410 0.22644 0.24990
 C175 C 0.74973 0.77392 0.27369
 C176 C 0.77346 0.75024 0.27368
 C177 C 0.77351 0.72659 0.24996
 C178 C 0.74985 0.72662 0.22626
 C179 C 0.72615 0.75033 0.22626
 C180 C 0.72608 0.77398 0.24997
 C181 C 0.75010 0.22627 0.72627
 C182 C 0.77378 0.24995 0.72623
 C183 C 0.77377 0.27366 0.74988
 C184 C 0.75012 0.27367 0.77359
 C185 C 0.72646 0.24997 0.77363
 C186 C 0.72642 0.22628 0.74995
 C187 C 0.24984 0.77357 0.72658
 C188 C 0.22616 0.74989 0.72659
 C189 C 0.22619 0.72617 0.75028
 C190 C 0.24990 0.72611 0.77394
 C191 C 0.27358 0.74980 0.77390
 C192 C 0.27354 0.77354 0.75024
 C193 C 0.22650 0.24970 0.72615
 C194 C 0.22645 0.27340 0.74986
 C195 C 0.25016 0.27333 0.77356
 C196 C 0.27391 0.24962 0.77355
 C197 C 0.27391 0.22595 0.74982
 C198 C 0.25022 0.22596 0.72611
 C199 C 0.77350 0.75020 0.72632
 C200 C 0.74979 0.77393 0.72630
 C201 C 0.72610 0.77393 0.75001
 C202 C 0.72610 0.75024 0.77373
 C203 C 0.74984 0.72652 0.77370
 C204 C 0.77355 0.72647 0.75001
 C205 C 0.22622 0.74977 0.27361
 C206 C 0.24988 0.77351 0.27362
 C207 C 0.27357 0.77350 0.24990
 C208 C 0.27363 0.74978 0.22621
 C209 C 0.24994 0.72606 0.22626
 C210 C 0.22622 0.72604 0.24994
 C211 C 0.77362 0.24992 0.27361
 C212 C 0.77366 0.27364 0.24990
 C213 C 0.74993 0.27365 0.22623
 C214 C 0.72619 0.24999 0.22622
 C215 C 0.72618 0.22631 0.24996
 C216 C 0.74988 0.22626 0.27365
 C217 C 0.27910 0.10199 0.39825
 C218 C 0.25035 0.11397 0.38657
 C219 C 0.22155 0.10243 0.39852
 C220 C 0.22148 0.07897 0.42206
 C221 C 0.25026 0.06675 0.43396
 C222 C 0.27909 0.07853 0.42179
 C223 C 0.25038 0.13809 0.36234
 C224 C 0.25041 0.15828 0.34203
 C225 C 0.25043 0.18192 0.31827
 C226 C 0.25043 0.20214 0.29798
 H227 H 0.30152 0.11077 0.38915
 H228 H 0.19916 0.11155 0.38964
 H229 H 0.19888 0.07042 0.43091
 H230 H 0.30165 0.06964 0.43043
 C231 C 0.72087 0.89806 0.39842
 C232 C 0.74963 0.88613 0.38674
 C233 C 0.77843 0.89764 0.39869
 C234 C 0.77849 0.92104 0.42225
 C235 C 0.74970 0.93322 0.43415
 C236 C 0.72087 0.92145 0.42198
 C237 C 0.74961 0.86208 0.36248
 C238 C 0.74960 0.84194 0.34216
 C239 C 0.74961 0.81837 0.31839
 C240 C 0.74965 0.79820 0.29809
 H241 H 0.69845 0.88929 0.38931
 H242 H 0.80082 0.88854 0.38980
 H243 H 0.80108 0.92958 0.43111
 H244 H 0.69831 0.93032 0.43063
 C245 C 0.77873 0.10168 0.60198
 C246 C 0.74997 0.11338 0.61390
 C247 C 0.72118 0.10147 0.60234
 C248 C 0.72111 0.07792 0.57893
 C249 C 0.74990 0.06599 0.56678
 C250 C 0.77873 0.07813 0.57858
 C251 C 0.75000 0.13761 0.63797
 C252 C 0.75004 0.15790 0.65814
 C253 C 0.75007 0.18163 0.68176
 C254 C 0.75009 0.20190 0.70196
 H255 H 0.80115 0.11076 0.61078
 H256 H 0.69878 0.11038 0.61143
 H257 H 0.69852 0.06909 0.57037
 H258 H 0.80130 0.06946 0.56973
 C259 C 0.22114 0.89820 0.60203
 C260 C 0.24989 0.88649 0.61398
 C261 C 0.27869 0.89838 0.60239
 C262 C 0.27878 0.92191 0.57893
 C263 C 0.24999 0.93385 0.56674
 C264 C 0.22116 0.92173 0.57857
 C265 C 0.24984 0.86227 0.63812
 C266 C 0.24982 0.84199 0.65834
 C267 C 0.24981 0.81825 0.68201
 C268 C 0.24981 0.79797 0.70223
 H269 H 0.19872 0.88914 0.61084
 H270 H 0.30108 0.88947 0.61150
 H271 H 0.30137 0.93072 0.57035
 H272 H 0.19860 0.93041 0.56970
 C273 C 0.39891 0.22114 0.10222
 C274 C 0.38693 0.24994 0.11377
 C275 C 0.39855 0.27872 0.10184
 C276 C 0.42208 0.27874 0.07842
 C277 C 0.43429 0.24990 0.06662
 C278 C 0.42244 0.22109 0.07879
 C279 C 0.36272 0.24996 0.13786
 C280 C 0.34244 0.24999 0.15804
 C281 C 0.31872 0.25005 0.18166
 C282 C 0.29845 0.25009 0.20186
 H283 H 0.39007 0.19873 0.11132
 H284 H 0.38942 0.30115 0.11064
 H285 H 0.43069 0.30132 0.06956
 H286 H 0.43133 0.19849 0.07022
 C287 C 0.39849 0.77866 0.89766
 C288 C 0.38660 0.74984 0.88614
 C289 C 0.39834 0.72108 0.89806
 C290 C 0.42191 0.72110 0.92145
 C291 C 0.43402 0.74996 0.93322
 C292 C 0.42205 0.77876 0.92106
 C293 C 0.36235 0.74978 0.86209
 C294 C 0.34203 0.74975 0.84194
 C295 C 0.31827 0.74974 0.81836
 C296 C 0.29797 0.74975 0.79819
 H297 H 0.38955 0.80106 0.88857
 H298 H 0.38928 0.69864 0.88928
 H299 H 0.43060 0.69854 0.93031
 H300 H 0.43087 0.80137 0.92961
 C301 C 0.60195 0.77916 0.10156
 C302 C 0.61391 0.75039 0.11324
 C303 C 0.60241 0.72157 0.10130
 C304 C 0.57900 0.72149 0.07776
 C305 C 0.56680 0.75029 0.06585
 C306 C 0.57854 0.77915 0.07800
 C307 C 0.63796 0.75043 0.13749
 C308 C 0.65811 0.75044 0.15780
 C309 C 0.68169 0.75043 0.18157
 C310 C 0.70186 0.75040 0.20186
 H311 H 0.61070 0.80160 0.11066
 H312 H 0.61153 0.69917 0.11020
 H313 H 0.57048 0.69889 0.06890
 H314 H 0.56965 0.80172 0.06935
 C315 C 0.60233 0.22106 0.89828
 C316 C 0.61419 0.24985 0.88662
 C317 C 0.60258 0.27864 0.89857
 C318 C 0.57915 0.27868 0.92210
 C319 C 0.56705 0.24985 0.93398
 C320 C 0.57891 0.22102 0.92182
 C321 C 0.63826 0.24985 0.86239
 C322 C 0.65841 0.24987 0.84208
 C323 C 0.68200 0.24991 0.81832
 C324 C 0.70217 0.24994 0.79803
 H325 H 0.61117 0.19864 0.88918
 H326 H 0.61162 0.30106 0.88969
 H327 H 0.57054 0.30127 0.93095
 H328 H 0.57009 0.19843 0.93046
 C329 C 0.10214 0.39832 0.27857
 C330 C 0.11406 0.38672 0.24980
 C331 C 0.10243 0.39871 0.22105
 C332 C 0.07894 0.42223 0.22104
 C333 C 0.06679 0.43406 0.24985
 C334 C 0.07866 0.42185 0.27863
 C335 C 0.13821 0.36252 0.24976
 C336 C 0.15843 0.34224 0.24975
 C337 C 0.18211 0.31851 0.24975
 C338 C 0.20234 0.29824 0.24977
 H339 H 0.11100 0.38918 0.30096
 H340 H 0.11151 0.38987 0.19864
 H341 H 0.07032 0.43113 0.19849
 H342 H 0.06981 0.43045 0.30121
 C343 C 0.89795 0.39833 0.72106
 C344 C 0.88606 0.38663 0.74980
 C345 C 0.89761 0.39856 0.77858
 C346 C 0.92102 0.42212 0.77864
 C347 C 0.93315 0.43404 0.74986
 C348 C 0.92135 0.42189 0.72105
 C349 C 0.86200 0.36239 0.74978
 C350 C 0.84184 0.34209 0.74977
 C351 C 0.81825 0.31833 0.74979
 C352 C 0.79807 0.29805 0.74983
 H353 H 0.88915 0.38924 0.69865
 H354 H 0.88854 0.38966 0.80096
 H355 H 0.92959 0.43096 0.80122
 H356 H 0.93019 0.43056 0.69850
 C357 C 0.10156 0.60193 0.77892
 C358 C 0.11325 0.61386 0.75018
 C359 C 0.10130 0.60233 0.72140
 C360 C 0.07775 0.57893 0.72132
 C361 C 0.06583 0.56677 0.75009
 C362 C 0.07800 0.57854 0.77891
 C363 C 0.13749 0.63791 0.75022
 C364 C 0.15779 0.65807 0.75027
 C365 C 0.18154 0.68167 0.75030
 C366 C 0.20182 0.70186 0.75030
 H367 H 0.11066 0.61071 0.80133
 H368 H 0.11020 0.61142 0.69902
 H369 H 0.06889 0.57038 0.69874
 H370 H 0.06934 0.56968 0.80146
 C371 C 0.89818 0.60220 0.22116
 C372 C 0.88652 0.61409 0.24992
 C373 C 0.89849 0.60248 0.27868
 C374 C 0.92205 0.57902 0.27872
 C375 C 0.93393 0.56690 0.24992
 C376 C 0.92174 0.57876 0.22112
 C377 C 0.86227 0.63820 0.24992
 C378 C 0.84196 0.65839 0.24992
 C379 C 0.81820 0.68203 0.24993
 C380 C 0.79791 0.70225 0.24994
 H381 H 0.88906 0.61105 0.19877
 H382 H 0.88961 0.61154 0.30108
 H383 H 0.93093 0.57041 0.30128
 H384 H 0.93038 0.56992 0.19856
 C385 C 0.10188 0.27862 0.60180
 C386 C 0.11385 0.24982 0.61341
 C387 C 0.10227 0.22104 0.60147
 C388 C 0.07878 0.22102 0.57799
 C389 C 0.06657 0.24985 0.56614
 C390 C 0.07840 0.27867 0.57831
 C391 C 0.13801 0.24980 0.63759
 C392 C 0.15824 0.24979 0.65784
 C393 C 0.18190 0.24976 0.68155
 C394 C 0.20214 0.24974 0.70180
 H395 H 0.11069 0.30103 0.61090
 H396 H 0.11139 0.19861 0.61030
 H397 H 0.07020 0.19843 0.56913
 H398 H 0.06951 0.30126 0.56971
 C399 C 0.89814 0.72141 0.60202
 C400 C 0.88620 0.75021 0.61362
 C401 C 0.89782 0.77899 0.60168
 C402 C 0.92132 0.77901 0.57821
 C403 C 0.93349 0.75017 0.56637
 C404 C 0.92164 0.72136 0.57854
 C405 C 0.86202 0.75022 0.63778
 C406 C 0.84177 0.75021 0.65801
 C407 C 0.81809 0.75019 0.68171
 C408 C 0.79785 0.75018 0.70195
 H409 H 0.88930 0.69900 0.61111
 H410 H 0.88872 0.80142 0.61051
 H411 H 0.92993 0.80159 0.56935
 H412 H 0.93050 0.69876 0.56995
 C413 C 0.10163 0.72114 0.39801
 C414 C 0.11357 0.74990 0.38635
 C415 C 0.10197 0.77871 0.39827
 C416 C 0.07849 0.77879 0.42177
 C417 C 0.06632 0.74999 0.43365
 C418 C 0.07816 0.72114 0.42151
 C419 C 0.13772 0.74986 0.36217
 C420 C 0.15795 0.74981 0.34192
 C421 C 0.18162 0.74978 0.31821
 C422 C 0.20186 0.74977 0.29797
 H423 H 0.11045 0.69870 0.38893
 H424 H 0.11106 0.80112 0.38941
 H425 H 0.06990 0.80140 0.43060
 H426 H 0.06930 0.69857 0.43014
 C427 C 0.89830 0.27862 0.39781
 C428 C 0.88640 0.24983 0.38621
 C429 C 0.89809 0.22104 0.39815
 C430 C 0.92159 0.22102 0.42161
 C431 C 0.93372 0.24985 0.43345
 C432 C 0.92180 0.27867 0.42128
 C433 C 0.86222 0.24981 0.36206
 C434 C 0.84196 0.24981 0.34184
 C435 C 0.81825 0.24983 0.31817
 C436 C 0.79799 0.24986 0.29794
 H437 H 0.88941 0.30104 0.38872
 H438 H 0.88903 0.19862 0.38932
 H439 H 0.93025 0.19844 0.43047
 H440 H 0.93062 0.30126 0.42988
 C441 C 0.22131 0.39763 0.89825
 C442 C 0.25008 0.38570 0.88657
 C443 C 0.27886 0.39725 0.89853
 C444 C 0.27891 0.42068 0.92208
 C445 C 0.25011 0.43285 0.93397
 C446 C 0.22129 0.42105 0.92180
 C447 C 0.25007 0.36162 0.86233
 C448 C 0.25007 0.34145 0.84201
 C449 C 0.25009 0.31783 0.81825
 C450 C 0.25012 0.29764 0.79796
 H451 H 0.19890 0.38884 0.88914
 H452 H 0.30127 0.38816 0.88966
 H453 H 0.30149 0.42924 0.93094
 H454 H 0.19872 0.42991 0.93043
 C455 C 0.72110 0.39799 0.10162
 C456 C 0.74987 0.38636 0.11356
 C457 C 0.77865 0.39829 0.10197
 C458 C 0.77868 0.42179 0.07849
 C459 C 0.74987 0.43366 0.06631
 C460 C 0.72106 0.42150 0.07814
 C461 C 0.74987 0.36218 0.13772
 C462 C 0.74989 0.34194 0.15795
 C463 C 0.74992 0.31825 0.18164
 C464 C 0.74994 0.29800 0.20188
 H465 H 0.69869 0.38890 0.11045
 H466 H 0.80106 0.38943 0.11108
 H467 H 0.80126 0.43065 0.06990
 H468 H 0.69848 0.43012 0.06927
 C469 C 0.72104 0.60221 0.89829
 C470 C 0.74981 0.61382 0.88637
 C471 C 0.77860 0.60187 0.89800
 C472 C 0.77864 0.57838 0.92149
 C473 C 0.74983 0.56653 0.93364
 C474 C 0.72101 0.57871 0.92178
 C475 C 0.74980 0.63798 0.86221
 C476 C 0.74981 0.65822 0.84196
 C477 C 0.74984 0.68190 0.81828
 C478 C 0.74985 0.70215 0.79804
 H479 H 0.69863 0.61131 0.88944
 H480 H 0.80100 0.61071 0.88891
 H481 H 0.80122 0.56951 0.93011
 H482 H 0.69844 0.57010 0.93062
 C483 C 0.27888 0.60141 0.10194
 C484 C 0.25010 0.61308 0.11385
 C485 C 0.22133 0.60114 0.10225
 C486 C 0.22130 0.57760 0.07882
 C487 C 0.25012 0.56569 0.06669
 C488 C 0.27892 0.57786 0.07852
 C489 C 0.25008 0.63732 0.13794
 C490 C 0.25005 0.65763 0.15811
 C491 C 0.25002 0.68138 0.18174
 C492 C 0.24999 0.70167 0.20194
 H493 H 0.30128 0.61050 0.11076
 H494 H 0.19891 0.61002 0.11132
 H495 H 0.19873 0.56874 0.07024
 H496 H 0.30150 0.56921 0.06969
 C497 C 0.39849 0.10131 0.72116
 C498 C 0.38676 0.11316 0.74988
 C499 C 0.39860 0.10145 0.77864
 C500 C 0.42210 0.07794 0.77873
 C501 C 0.43418 0.06574 0.74994
 C502 C 0.42201 0.07780 0.72112
 C503 C 0.36257 0.13736 0.74985
 C504 C 0.34230 0.15761 0.74981
 C505 C 0.31857 0.18132 0.74980
 C506 C 0.29830 0.20157 0.74980
 H507 H 0.38947 0.11023 0.69875
 H508 H 0.38966 0.11049 0.80102
 H509 H 0.43076 0.06938 0.80141
 H510 H 0.43058 0.06913 0.69846
 C511 C 0.39776 0.89830 0.22111
 C512 C 0.38586 0.88659 0.24986
 C513 C 0.39743 0.89854 0.27863
 C514 C 0.42083 0.92211 0.27869
 C515 C 0.43297 0.93404 0.24990
 C516 C 0.42116 0.92187 0.22110
 C517 C 0.36180 0.86232 0.24983
 C518 C 0.34164 0.84200 0.24983
 C519 C 0.31804 0.81822 0.24984
 C520 C 0.29787 0.79792 0.24986
 H521 H 0.38897 0.88920 0.19870
 H522 H 0.38837 0.88964 0.30102
 H523 H 0.42940 0.93096 0.30126
 H524 H 0.43000 0.93053 0.19854
 C525 C 0.60118 0.10239 0.22127
 C526 C 0.61315 0.11396 0.25003
 C527 C 0.60147 0.10204 0.27878
 C528 C 0.57791 0.07863 0.27881
 C529 C 0.56573 0.06683 0.25001
 C530 C 0.57763 0.07898 0.22122
 C531 C 0.63740 0.13803 0.25003
 C532 C 0.65772 0.15820 0.25003
 C533 C 0.68148 0.18181 0.25002
 C534 C 0.70177 0.20200 0.25000
 H535 H 0.61007 0.11146 0.19887
 H536 H 0.61058 0.11084 0.30118
 H537 H 0.56927 0.06979 0.30137
 H538 H 0.56876 0.07040 0.19865
 C539 C 0.60129 0.89832 0.77879
 C540 C 0.61322 0.88669 0.75003
 C541 C 0.60157 0.89863 0.72127
 C542 C 0.57805 0.92213 0.72124
 C543 C 0.56588 0.93400 0.75003
 C544 C 0.57777 0.92182 0.77882
 C545 C 0.63743 0.86251 0.75003
 C546 C 0.65771 0.84227 0.75002
 C547 C 0.68144 0.81857 0.75000
 C548 C 0.70171 0.79831 0.74999
 H549 H 0.61015 0.88922 0.80119
 H550 H 0.61066 0.88978 0.69888
 H551 H 0.56942 0.93099 0.69867
 H552 H 0.56891 0.93044 0.80139
 C553 C 0.72097 0.89871 0.60156
 C554 C 0.74971 0.88679 0.61331
 C555 C 0.77847 0.89847 0.60143
 C556 C 0.77855 0.92198 0.57792
 C557 C 0.74975 0.93423 0.56583
 C558 C 0.72093 0.92221 0.57804
 C559 C 0.74969 0.86258 0.63754
 C560 C 0.74969 0.84232 0.65783
 C561 C 0.74971 0.81860 0.68158
 C562 C 0.74974 0.79834 0.70188
 H563 H 0.69856 0.88984 0.61059
 H564 H 0.80087 0.88941 0.61036
 H565 H 0.80124 0.93049 0.56925
 H566 H 0.69825 0.93091 0.56948
 C567 C 0.22146 0.39841 0.10137
 C568 C 0.25022 0.38654 0.11310
 C569 C 0.27896 0.39825 0.10123
 C570 C 0.27901 0.42174 0.07771
 C571 C 0.25018 0.43394 0.06564
 C572 C 0.22137 0.42189 0.07785
 C573 C 0.25024 0.36237 0.13733
 C574 C 0.25027 0.34213 0.15762
 C575 C 0.25032 0.31844 0.18138
 C576 C 0.25036 0.29820 0.20168
 H577 H 0.19906 0.38950 0.11041
 H578 H 0.30138 0.38922 0.11015
 H579 H 0.30168 0.43028 0.06905
 H580 H 0.19868 0.43056 0.06929
 C581 C 0.27899 0.10116 0.60140
 C582 C 0.25026 0.11310 0.61313
 C583 C 0.22150 0.10144 0.60123
 C584 C 0.22141 0.07793 0.57773
 C585 C 0.25021 0.06566 0.56567
 C586 C 0.27903 0.07766 0.57789
 C587 C 0.25027 0.13731 0.63736
 C588 C 0.25027 0.15758 0.65764
 C589 C 0.25026 0.18130 0.68140
 C590 C 0.25023 0.20156 0.70169
 H591 H 0.30141 0.11001 0.61043
 H592 H 0.19910 0.11051 0.61014
 H593 H 0.19872 0.06944 0.56907
 H594 H 0.30171 0.06894 0.56935
 C595 C 0.22121 0.89817 0.39851
 C596 C 0.24995 0.88645 0.38653
 C597 C 0.27873 0.89834 0.39817
 C598 C 0.27881 0.92184 0.42168
 C599 C 0.25003 0.93380 0.43389
 C600 C 0.22122 0.92168 0.42201
 C601 C 0.24990 0.86223 0.36230
 C602 C 0.24987 0.84196 0.34203
 C603 C 0.24986 0.81822 0.31829
 C604 C 0.24986 0.79794 0.29802
 H605 H 0.19878 0.88914 0.38969
 H606 H 0.30113 0.88946 0.38908
 H607 H 0.30140 0.93064 0.43028
 H608 H 0.19865 0.93034 0.43088
 C609 C 0.72106 0.10149 0.39831
 C610 C 0.74983 0.11340 0.38664
 C611 C 0.77860 0.10171 0.39860
 C612 C 0.77863 0.07820 0.42212
 C613 C 0.74982 0.06606 0.43402
 C614 C 0.72102 0.07799 0.42183
 C615 C 0.74983 0.13761 0.36241
 C616 C 0.74983 0.15787 0.34212
 C617 C 0.74983 0.18159 0.31836
 C618 C 0.74984 0.20186 0.29808
 H619 H 0.69865 0.11036 0.38922
 H620 H 0.80101 0.11076 0.38975
 H621 H 0.80120 0.06955 0.43098
 H622 H 0.69845 0.06917 0.43045
 C623 C 0.60154 0.72150 0.89859
 C624 C 0.61320 0.75028 0.88668
 C625 C 0.60125 0.77903 0.89839
 C626 C 0.57776 0.77907 0.92191
 C627 C 0.56576 0.75023 0.93415
 C628 C 0.57804 0.72142 0.92210
 C629 C 0.63741 0.75029 0.86245
 C630 C 0.65768 0.75029 0.84217
 C631 C 0.68142 0.75027 0.81843
 C632 C 0.70169 0.75025 0.79815
 H633 H 0.61061 0.69909 0.88970
 H634 H 0.61010 0.80146 0.88935
 H635 H 0.56905 0.80175 0.93044
 H636 H 0.56955 0.69871 0.93078
 C637 C 0.10187 0.27881 0.39776
 C638 C 0.11386 0.25004 0.38612
 C639 C 0.10227 0.22123 0.39804
 C640 C 0.07877 0.22116 0.42151
 C641 C 0.06655 0.24997 0.43339
 C642 C 0.07838 0.27881 0.42124
 C643 C 0.13804 0.25007 0.36196
 C644 C 0.15830 0.25012 0.34173
 C645 C 0.18203 0.25017 0.31807
 C646 C 0.20230 0.25019 0.29785
 H647 H 0.11069 0.30124 0.38869
 H648 H 0.11139 0.19882 0.38919
 H649 H 0.07019 0.19856 0.43035
 H650 H 0.06949 0.30139 0.42986
 C651 C 0.60163 0.27873 0.10124
 C652 C 0.61340 0.24998 0.11316
 C653 C 0.60159 0.22121 0.10143
 C654 C 0.57811 0.22112 0.07790
 C655 C 0.56600 0.24993 0.06566
 C656 C 0.57814 0.27877 0.07772
 C657 C 0.63759 0.25000 0.13741
 C658 C 0.65783 0.25001 0.15772
 C659 C 0.68154 0.25001 0.18150
 C660 C 0.70179 0.25001 0.20179
 H661 H 0.61060 0.30116 0.11014
 H662 H 0.61053 0.19879 0.11048
 H663 H 0.56950 0.19842 0.06936
 H664 H 0.56955 0.30146 0.06904
 C665 C 0.39846 0.27846 0.89837
 C666 C 0.38685 0.24966 0.88646
 C667 C 0.39886 0.22090 0.89817
 C668 C 0.42236 0.22091 0.92169
 C669 C 0.43420 0.24975 0.93382
 C670 C 0.42197 0.27854 0.92188
 C671 C 0.36263 0.24961 0.86224
 C672 C 0.34236 0.24959 0.84196
 C673 C 0.31861 0.24958 0.81823
 C674 C 0.29833 0.24959 0.79796
 H675 H 0.38935 0.30087 0.88949
 H676 H 0.39006 0.19846 0.88914
 H677 H 0.43124 0.19834 0.93034
 H678 H 0.43054 0.30114 0.93069
 C679 C 0.39834 0.72119 0.10138
 C680 C 0.38660 0.74995 0.11334
 C681 C 0.39849 0.77875 0.10167
 C682 C 0.42199 0.77883 0.07817
 C683 C 0.43396 0.75004 0.06599
 C684 C 0.42185 0.72120 0.07788
 C685 C 0.36237 0.74990 0.13755
 C686 C 0.34208 0.74984 0.15781
 C687 C 0.31833 0.74980 0.18154
 C688 C 0.29805 0.74979 0.20181
 H689 H 0.38932 0.69875 0.11022
 H690 H 0.38959 0.80116 0.11074
 H691 H 0.43078 0.80143 0.06955
 H692 H 0.43052 0.69863 0.06904
 C693 C 0.89846 0.60166 0.72128
 C694 C 0.88657 0.61338 0.75001
 C695 C 0.89832 0.60146 0.77874
 C696 C 0.92185 0.57793 0.77879
 C697 C 0.93407 0.56587 0.75000
 C698 C 0.92198 0.57812 0.72121
 C699 C 0.86233 0.63764 0.75002
 C700 C 0.84204 0.65794 0.75002
 C701 C 0.81827 0.68172 0.75000
 C702 C 0.79798 0.70202 0.75001
 H703 H 0.88955 0.61071 0.69888
 H704 H 0.88929 0.61036 0.80114
 H705 H 0.93040 0.56924 0.80146
 H706 H 0.93065 0.56958 0.69853
 C707 C 0.39857 0.10164 0.22122
 C708 C 0.38674 0.11338 0.24996
 C709 C 0.39843 0.10148 0.27870
 C710 C 0.42190 0.07792 0.27877
 C711 C 0.43407 0.06584 0.24996
 C712 C 0.42203 0.07807 0.22116
 C713 C 0.36261 0.13764 0.24995
 C714 C 0.34239 0.15795 0.24993
 C715 C 0.31871 0.18172 0.24993
 C716 C 0.29847 0.20202 0.24992
 H717 H 0.38967 0.11070 0.19882
 H718 H 0.38942 0.11042 0.30109
 H719 H 0.43044 0.06922 0.30144
 H720 H 0.43068 0.06950 0.19849
 C721 C 0.10134 0.60143 0.27866
 C722 C 0.11321 0.61320 0.24994
 C723 C 0.10143 0.60138 0.22120
 C724 C 0.07790 0.57791 0.22113
 C725 C 0.06570 0.56580 0.24993
 C726 C 0.07781 0.57795 0.27872
 C727 C 0.13747 0.63738 0.24994
 C728 C 0.15777 0.65763 0.24993
 C729 C 0.18153 0.68135 0.24993
 C730 C 0.20181 0.70162 0.24994
 H731 H 0.11028 0.61040 0.30106
 H732 H 0.11045 0.61032 0.19881
 H733 H 0.06932 0.56930 0.19846
 H734 H 0.06917 0.56937 0.30139
 C735 C 0.89825 0.39856 0.22111
 C736 C 0.88660 0.38655 0.24985
 C737 C 0.89855 0.39819 0.27861
 C738 C 0.92204 0.42172 0.27865
 C739 C 0.93392 0.43395 0.24988
 C740 C 0.92174 0.42208 0.22109
 C741 C 0.86240 0.36231 0.24984
 C742 C 0.84213 0.34203 0.24984
 C743 C 0.81839 0.31829 0.24985
 C744 C 0.79810 0.29803 0.24988
 H745 H 0.88918 0.38974 0.19870
 H746 H 0.88973 0.38908 0.30100
 H747 H 0.93088 0.43031 0.30122
 H748 H 0.93034 0.43096 0.19853
 C749 C 0.10172 0.39839 0.77865
 C750 C 0.11341 0.38645 0.74990
 C751 C 0.10144 0.39817 0.72116
 C752 C 0.07791 0.42171 0.72114
 C753 C 0.06600 0.43387 0.74993
 C754 C 0.07819 0.42192 0.77870
 C755 C 0.13765 0.36221 0.74988
 C756 C 0.15795 0.34191 0.74988
 C757 C 0.18172 0.31814 0.74987
 C758 C 0.20201 0.29784 0.74987
 H759 H 0.11080 0.38951 0.80105
 H760 H 0.11029 0.38912 0.69875
 H761 H 0.06906 0.43036 0.69858
 H762 H 0.06956 0.43075 0.80127
 C763 C 0.89782 0.77895 0.39829
 C764 C 0.88620 0.75017 0.38638
 C765 C 0.89816 0.72137 0.39802
 C766 C 0.92166 0.72133 0.42149
 C767 C 0.93351 0.75015 0.43364
 C768 C 0.92132 0.77898 0.42176
 C769 C 0.86201 0.75017 0.36222
 C770 C 0.84176 0.75017 0.34199
 C771 C 0.81806 0.75018 0.31830
 C772 C 0.79781 0.75020 0.29806
 H773 H 0.88871 0.80138 0.38944
 H774 H 0.88933 0.69895 0.38895
 H775 H 0.93053 0.69874 0.43011
 H776 H 0.92992 0.80156 0.43059
 C777 C 0.89816 0.22105 0.60157
 C778 C 0.88651 0.24983 0.61351
 C779 C 0.89841 0.27862 0.60187
 C780 C 0.92189 0.27866 0.57837
 C781 C 0.93377 0.24985 0.56621
 C782 C 0.92164 0.22102 0.57808
 C783 C 0.86234 0.24983 0.63769
 C784 C 0.84210 0.24984 0.65793
 C785 C 0.81840 0.24987 0.68163
 C786 C 0.79815 0.24991 0.70187
 H787 H 0.88910 0.19862 0.61042
 H788 H 0.88955 0.30104 0.61096
 H789 H 0.93071 0.30126 0.56976
 H790 H 0.93027 0.19843 0.56922
 C791 C 0.10191 0.77878 0.60182
 C792 C 0.11351 0.74998 0.61380
 C793 C 0.10159 0.72121 0.60217
 C794 C 0.07814 0.72120 0.57865
 C795 C 0.06629 0.75004 0.56645
 C796 C 0.07845 0.77885 0.57831
 C797 C 0.13765 0.74995 0.63801
 C798 C 0.15786 0.74993 0.65827
 C799 C 0.18154 0.74992 0.68199
 C800 C 0.20178 0.74991 0.70223
 H801 H 0.11098 0.80120 0.61067
 H802 H 0.11041 0.69878 0.61128
 H803 H 0.06929 0.69862 0.57004
 H804 H 0.06985 0.80145 0.56943
 C805 C 0.77861 0.60186 0.10199
 C806 C 0.74983 0.61384 0.11360
 C807 C 0.72106 0.60223 0.10167
 C808 C 0.72103 0.57872 0.07820
 C809 C 0.74984 0.56652 0.06635
 C810 C 0.77865 0.57836 0.07851
 C811 C 0.74983 0.63803 0.13775
 C812 C 0.74984 0.65829 0.15798
 C813 C 0.74987 0.68200 0.18166
 C814 C 0.74988 0.70225 0.20190
 H815 H 0.80101 0.61068 0.11107
 H816 H 0.69865 0.61135 0.11050
 H817 H 0.69846 0.57013 0.06935
 H818 H 0.80122 0.56948 0.06992
 C819 C 0.22125 0.60114 0.89827
 C820 C 0.25001 0.61310 0.88663
 C821 C 0.27879 0.60143 0.89856
 C822 C 0.27885 0.57791 0.92205
 C823 C 0.25006 0.56573 0.93393
 C824 C 0.22124 0.57762 0.92177
 C825 C 0.24998 0.63732 0.86245
 C826 C 0.24995 0.65762 0.84222
 C827 C 0.24993 0.68139 0.81854
 C828 C 0.24992 0.70169 0.79831
 H829 H 0.19883 0.61000 0.88920
 H830 H 0.30119 0.61052 0.88972
 H831 H 0.30144 0.56928 0.93089
 H832 H 0.19868 0.56877 0.93038
 C833 C 0.72119 0.39805 0.89822
 C834 C 0.74997 0.38642 0.88629
 C835 C 0.77873 0.39834 0.89793
 C836 C 0.77874 0.42182 0.92143
 C837 C 0.74992 0.43369 0.93359
 C838 C 0.72113 0.42154 0.92171
 C839 C 0.75000 0.36226 0.86211
 C840 C 0.75003 0.34202 0.84186
 C841 C 0.75008 0.31831 0.81817
 C842 C 0.75011 0.29806 0.79794
 H843 H 0.69878 0.38897 0.88937
 H844 H 0.80115 0.38950 0.88885
 H845 H 0.80131 0.43066 0.93004
 H846 H 0.69854 0.43015 0.93056
 C847 C 0.60149 0.89865 0.27872
 C848 C 0.61313 0.88672 0.24996
 C849 C 0.60115 0.89836 0.22121
 C850 C 0.57762 0.92186 0.22118
 C851 C 0.56575 0.93402 0.24997
 C852 C 0.57795 0.92214 0.27876
 C853 C 0.63735 0.86255 0.24995
 C854 C 0.65765 0.84232 0.24995
 C855 C 0.68140 0.81863 0.24996
 C856 C 0.70168 0.79837 0.24997
 H857 H 0.61060 0.88980 0.30112
 H858 H 0.61000 0.88928 0.19881
 H859 H 0.56875 0.93048 0.19861
 H860 H 0.56934 0.93099 0.30133
 C861 C 0.60166 0.10203 0.72118
 C862 C 0.61333 0.11393 0.74993
 C863 C 0.60134 0.10236 0.77869
 C864 C 0.57777 0.07895 0.77874
 C865 C 0.56588 0.06681 0.74995
 C866 C 0.57809 0.07863 0.72115
 C867 C 0.63760 0.13800 0.74991
 C868 C 0.65793 0.15816 0.74992
 C869 C 0.68171 0.18177 0.74993
 C870 C 0.70201 0.20196 0.74995
 H871 H 0.61078 0.11083 0.69877
 H872 H 0.61021 0.11142 0.80108
 H873 H 0.56889 0.07037 0.80131
 H874 H 0.56946 0.06980 0.69860
 C875 C 0.39755 0.89852 0.72136
 C876 C 0.38598 0.88655 0.75013
 C877 C 0.39788 0.89823 0.77887
 C878 C 0.42129 0.92179 0.77888
 C879 C 0.43311 0.93399 0.75007
 C880 C 0.42097 0.92208 0.72129
 C881 C 0.36189 0.86229 0.75015
 C882 C 0.34172 0.84198 0.75019
 C883 C 0.31809 0.81822 0.75022
 C884 C 0.29788 0.79793 0.75024
 H885 H 0.38849 0.88965 0.69897
 H886 H 0.38908 0.88911 0.80128
 H887 H 0.43013 0.93043 0.80143
 H888 H 0.42954 0.93096 0.69872
   
