data_POSCAR
  _audit_creation_date              2014-09-24
  _audit_creation_method            'ToBaCCo'
  _symmetry_space_group_name_H-M    'P1'
  _symmetry_Int_Tables_number       1
  _symmetry_cell_setting            triclinic
  loop_
  _symmetry_equiv_pos_as_xyz
 x,y,z
_cell_length_a 27.4044
_cell_length_b 27.3567
_cell_length_c 48.2218
_cell_angle_alpha 89.896300
_cell_angle_beta 92.497500
_cell_angle_gamma 89.988200
loop_
  _atom_site_label
  _atom_site_type_symbol
  _atom_site_fract_x
  _atom_site_fract_y
  _atom_site_fract_z
C1 C -0.00227 0.39456 1.02553
 C2 C -0.00034 0.36966 1.00033
 C3 C 0.00160 0.39486 0.97522
 C4 C 0.00177 0.44648 0.97497
 C5 C -0.00030 0.47232 1.00040
 C6 C -0.00240 0.44629 1.02583
 C7 C -0.00456 0.47267 1.05077
 C8 C -0.00469 0.52355 1.05075
 C9 C -0.00255 0.55010 1.02581
 C10 C -0.00027 0.52424 1.00039
 C11 C 0.00396 0.47289 0.95003
 C12 C 0.00415 0.52377 0.95002
 C13 C 0.00205 0.55021 0.97495
 C14 C 0.00219 0.60193 0.97522
 C15 C -0.00020 0.62695 1.00036
 C16 C -0.00263 0.60183 1.02551
 H17 H -0.00622 0.45409 1.07055
 H18 H -0.00644 0.54199 1.07054
 H19 H 0.00559 0.45437 0.93027
 H20 H 0.00592 0.54230 0.93022
 H21 H -0.00035 0.32994 1.00021
 H22 H -0.00017 0.66669 1.00034
 C23 C 0.40030 0.00866 0.52651
 C24 C 0.37270 0.00889 0.50148
 C25 C 0.39511 0.00921 0.47603
 C26 C 0.44659 0.00921 0.47532
 C27 C 0.47506 0.00914 0.50062
 C28 C 0.45184 0.00894 0.52636
 C29 C 0.48070 0.00894 0.55118
 C30 C 0.53149 0.00909 0.55077
 C31 C 0.55533 0.00913 0.52549
 C32 C 0.52683 0.00912 0.50018
 C33 C 0.47030 0.00920 0.45004
 C34 C 0.52108 0.00900 0.44960
 C35 C 0.55000 0.00894 0.47442
 C36 C 0.60152 0.00861 0.47422
 C37 C 0.62920 0.00878 0.49922
 C38 C 0.60689 0.00908 0.52473
 H39 H 0.46421 0.00884 0.57118
 H40 H 0.55199 0.00910 0.57048
 H41 H 0.44974 0.00926 0.43036
 H42 H 0.53753 0.00893 0.42959
 H43 H 0.33311 0.00867 0.50182
 H44 H 0.66880 0.00854 0.49875
 C45 C 0.08122 0.00148 0.26330
 H46 H 0.08479 0.00087 0.24105
 C47 C 0.12295 0.00383 0.28102
 H48 H 0.15883 0.00482 0.27246
 C49 C 0.03023 0.00143 0.30180
 H50 H -0.00585 0.00131 0.30991
 C51 C 0.07087 0.00383 0.32018
 H52 H 0.06586 0.00493 0.34234
 N53 N 0.03602 -0.00049 0.27392
 C54 C -0.05927 -0.07145 0.21116
 H55 H -0.08960 -0.04608 0.21053
 C56 C -0.06022 -0.11200 0.19361
 H57 H -0.09130 -0.11790 0.17936
 C58 C 0.01896 -0.09407 0.22993
 H59 H 0.04971 -0.08705 0.24411
 C60 C 0.01948 -0.13510 0.21272
 H61 H 0.05087 -0.15922 0.21348
 Zn62 Zn -0.01963 -0.00390 0.24919
 N63 N -0.01952 -0.06254 0.22831
 C64 C -0.01671 0.04364 0.19708
 N65 N -0.01773 0.05075 0.22499
 C66 C -0.01555 0.09654 0.23602
 C67 C -0.01371 0.13750 0.21868
 C68 C -0.01485 0.08348 0.17908
 C69 C -0.08493 -0.04286 0.28609
 C70 C -0.12446 -0.04362 0.30337
 C71 C -0.14902 0.03555 0.28535
 C72 C -0.10898 0.03484 0.26836
 N73 N -0.07720 -0.00346 0.26958
 H74 H -0.01695 0.00713 0.18867
 H75 H -0.01540 0.10117 0.25830
 H76 H -0.01236 0.17384 0.22757
 H77 H -0.01430 0.07740 0.15689
 H78 H -0.05937 -0.07303 0.28642
 H79 H -0.12937 -0.07441 0.31714
 H80 H -0.17331 0.06682 0.28494
 H81 H -0.10286 0.06533 0.25470
 C82 C -0.02016 -0.14368 0.19411
 C83 C 0.11762 0.00474 0.30973
 C84 C -0.15634 -0.00372 0.30331
 C85 C -0.01356 0.13080 0.18994
 C86 C 0.01533 0.09621 0.76360
 H87 H 0.01528 0.10092 0.74131
 C88 C 0.01340 0.13711 0.78090
 H89 H 0.01209 0.17348 0.77198
 C90 C 0.01632 0.04317 0.80258
 H91 H 0.01654 0.00663 0.81103
 C92 C 0.01438 0.08293 0.82054
 H93 H 0.01374 0.07678 0.84273
 N94 N 0.01747 0.05038 0.77467
 C95 C 0.08503 -0.04300 0.71376
 H96 H 0.05948 -0.07316 0.71340
 C97 C 0.12470 -0.04372 0.69658
 H98 H 0.12973 -0.07446 0.68286
 C99 C 0.10896 0.03462 0.73148
 H100 H 0.10275 0.06505 0.74510
 C101 C 0.14914 0.03537 0.71459
 H102 H 0.17344 0.06662 0.71504
 Zn103 Zn 0.01953 -0.00420 0.75054
 N104 N 0.07719 -0.00366 0.73022
 C105 C -0.03020 0.00117 0.69788
 N106 N -0.03606 -0.00079 0.72575
 C107 C -0.08129 0.00115 0.73633
 C108 C -0.12298 0.00351 0.71858
 C109 C -0.07081 0.00357 0.67946
 C110 C 0.05916 -0.07177 0.78869
 C111 C 0.06009 -0.11230 0.80634
 C112 C -0.01957 -0.13541 0.78725
 C113 C -0.01903 -0.09440 0.76993
 N114 N 0.01944 -0.06288 0.77150
 H115 H 0.00589 0.00107 0.68979
 H116 H -0.08491 0.00052 0.75858
 H117 H -0.15888 0.00447 0.72712
 H118 H -0.06576 0.00469 0.65731
 H119 H 0.08947 -0.04640 0.78929
 H120 H 0.09115 -0.11818 0.82064
 H121 H -0.05095 -0.15952 0.78653
 H122 H -0.04976 -0.08739 0.75573
 C123 C 0.15660 -0.00384 0.69669
 C124 C 0.01313 0.13029 0.80965
 C125 C 0.02004 -0.14397 0.80590
 C126 C -0.11759 0.00445 0.68987
 C127 C -0.01295 -0.30624 0.13801
 C128 C -0.05145 -0.31088 0.11359
 C129 C -0.00988 -0.31255 0.09323
 C130 C 0.02866 -0.30851 0.11723
 C131 C -0.01441 -0.25040 0.13460
 C132 C 0.02711 -0.25214 0.11422
 C133 C -0.05290 -0.25450 0.11059
 C134 C -0.01135 -0.25670 0.08992
 C135 C -0.00727 -0.34550 0.06945
 C136 C -0.00509 -0.37097 0.04917
 C137 C -0.01675 -0.21417 0.15683
 C138 C -0.01845 -0.18282 0.17429
 H139 H -0.01364 -0.32618 0.15805
 H140 H -0.08371 -0.33545 0.11305
 H141 H 0.06221 -0.33111 0.11968
 H142 H 0.05940 -0.22760 0.11471
 H143 H -0.08647 -0.23191 0.10809
 H144 H -0.01065 -0.23665 0.06990
 C145 C 0.03197 0.24636 0.11264
 C146 C -0.00691 0.25140 0.08859
 C147 C -0.00665 0.30706 0.09277
 C148 C 0.03230 0.30256 0.11653
 C149 C -0.00919 0.24249 0.13317
 C150 C -0.00894 0.29813 0.13746
 C151 C -0.04809 0.24707 0.10938
 C152 C -0.04786 0.30327 0.11327
 C153 C -0.00519 0.34107 0.06934
 C154 C -0.00388 0.36709 0.04919
 C155 C -0.01064 0.20469 0.15467
 C156 C -0.01191 0.17186 0.17132
 H157 H 0.06479 0.22257 0.11260
 H158 H -0.00607 0.23251 0.06826
 H159 H 0.06536 0.32581 0.11920
 H160 H -0.00979 0.31689 0.15782
 H161 H -0.08117 0.22385 0.10666
 H162 H -0.08067 0.32708 0.11326
 C163 C 0.26137 0.04342 0.61635
 C164 C 0.31789 0.04319 0.61939
 C165 C 0.31914 0.00487 0.59618
 C166 C 0.26313 0.00517 0.59283
 C167 C 0.25986 0.00160 0.63761
 C168 C 0.26119 -0.03666 0.61437
 C169 C 0.31587 0.00129 0.64106
 C170 C 0.31769 -0.03699 0.61742
 C171 C 0.35028 0.00651 0.57228
 C172 C 0.37404 0.00763 0.55184
 C173 C 0.22506 -0.00031 0.65980
 C174 C 0.19472 -0.00192 0.67712
 H175 H 0.23784 0.07647 0.61615
 H176 H 0.34159 0.07603 0.62118
 H177 H 0.24174 0.00679 0.57276
 H178 H 0.23751 -0.06952 0.61254
 H179 H 0.33714 -0.00033 0.66116
 H180 H 0.34123 -0.07002 0.61758
 C181 C -0.23746 -0.03119 0.60944
 C182 C -0.29325 -0.03257 0.61329
 C183 C -0.29977 0.00864 0.59176
 C184 C -0.24451 0.00998 0.58762
 C185 C -0.23238 0.00775 0.63231
 C186 C -0.23895 0.04892 0.61076
 C187 C -0.28761 0.00640 0.63655
 C188 C -0.29478 0.04763 0.61460
 C189 C -0.33560 0.00895 0.56833
 C190 C -0.36337 0.00906 0.54825
 C191 C -0.19324 0.00697 0.65398
 C192 C -0.15951 0.00601 0.67086
 H193 H -0.21347 -0.06362 0.60754
 H194 H -0.31601 -0.06607 0.61406
 H195 H -0.22714 0.01145 0.56726
 H196 H -0.21621 0.08243 0.60994
 H197 H -0.30486 0.00493 0.65694
 H198 H -0.31880 0.08004 0.61644
 C199 C 0.02661 -0.23770 0.89627
 C200 C -0.02005 -0.26481 0.90464
 C201 C 0.00957 -0.31240 0.90734
 C202 C 0.05623 -0.28573 0.89928
 C203 C 0.01417 -0.25044 0.86576
 C204 C 0.04385 -0.29800 0.86840
 C205 C -0.03250 -0.27710 0.87381
 C206 C -0.00290 -0.32528 0.87685
 C207 C 0.00692 -0.34530 0.93121
 C208 C 0.00470 -0.37078 0.95153
 C209 C 0.01655 -0.21431 0.84340
 C210 C 0.01829 -0.18304 0.82585
 H211 H 0.03877 -0.20132 0.90404
 H212 H -0.04635 -0.25150 0.91979
 H213 H 0.09268 -0.28965 0.91002
 H214 H 0.07014 -0.31123 0.85323
 H215 H -0.06896 -0.27315 0.86308
 H216 H -0.01506 -0.36171 0.86917
 C217 C 0.01518 0.29707 0.86248
 C218 C -0.02896 0.30597 0.88095
 C219 C 0.00608 0.30612 0.90670
 C220 C 0.05018 0.29785 0.88866
 C221 C 0.00864 0.24173 0.86634
 C222 C 0.04363 0.24198 0.89211
 C223 C -0.03542 0.25004 0.88440
 C224 C -0.00044 0.25075 0.91044
 C225 C 0.00461 0.34005 0.93010
 C226 C 0.00330 0.36603 0.95020
 C227 C 0.01012 0.20404 0.84485
 C228 C 0.01143 0.17128 0.82823
 H229 H 0.02161 0.31567 0.84249
 H230 H -0.05882 0.33272 0.87663
 H231 H 0.08536 0.31792 0.89068
 H232 H 0.07349 0.21527 0.89649
 H233 H -0.07061 0.22999 0.88242
 H234 H -0.00687 0.23203 0.93040
 C235 C -0.31497 0.00038 0.35951
 C236 C -0.31586 -0.03740 0.38352
 C237 C -0.31778 0.00489 0.40437
 C238 C -0.31747 0.04271 0.38079
 C239 C -0.25896 0.00166 0.36274
 C240 C -0.26094 0.04392 0.38361
 C241 C -0.25936 -0.03610 0.38635
 C242 C -0.26177 0.00616 0.40750
 C243 C -0.34871 0.00650 0.42837
 C244 C -0.37233 0.00760 0.44886
 C245 C -0.22441 -0.00022 0.34043
 C246 C -0.19425 -0.00182 0.32300
 H247 H -0.33644 -0.00202 0.33950
 H248 H -0.33882 -0.07081 0.38376
 H249 H -0.34174 0.07513 0.37879
 H250 H -0.23799 0.07734 0.38341
 H251 H -0.23511 -0.06854 0.38841
 H252 H -0.24019 0.00856 0.42748
 C253 C 0.24071 -0.03334 0.38854
 C254 C 0.29642 -0.02979 0.38467
 C255 C 0.29995 0.00887 0.40774
 C256 C 0.24480 0.00528 0.41190
 C257 C 0.23249 0.00800 0.36723
 C258 C 0.23610 0.04662 0.39033
 C259 C 0.28762 0.01160 0.36297
 C260 C 0.29181 0.05026 0.38647
 C261 C 0.33584 0.00915 0.43115
 C262 C 0.36370 0.00924 0.45118
 C263 C 0.19333 0.00724 0.34558
 C264 C 0.15957 0.00629 0.32872
 H265 H 0.21928 -0.06773 0.38916
 H266 H 0.32165 -0.06119 0.38262
 H267 H 0.22754 0.00268 0.43226
 H268 H 0.21089 0.07803 0.39243
 H269 H 0.30476 0.01419 0.34259
 H270 H 0.31327 0.08463 0.38589
   
