data_POSCAR
  _audit_creation_date              2014-09-24
  _audit_creation_method            'ToBaCCo'
  _symmetry_space_group_name_H-M    'P1'
  _symmetry_Int_Tables_number       1
  _symmetry_cell_setting            triclinic
  loop_
  _symmetry_equiv_pos_as_xyz
 x,y,z
_cell_length_a 37.0331
_cell_length_b 36.7112
_cell_length_c 37.5808
_cell_angle_alpha 88.987800
_cell_angle_beta 85.430900
_cell_angle_gamma 88.311400
loop_
  _atom_site_label
  _atom_site_type_symbol
  _atom_site_fract_x
  _atom_site_fract_y
  _atom_site_fract_z
C1 C 0.28375 0.45875 0.99037
 C2 C 0.26520 0.49239 0.99077
 C3 C 0.28434 0.52472 0.99074
 C4 C 0.32259 0.52408 0.99024
 C5 C 0.34072 0.48959 0.98973
 C6 C 0.32151 0.45722 0.98971
 C7 C 0.22547 0.49388 0.99167
 C8 C 0.20472 0.49608 1.02443
 C9 C 0.16649 0.49764 1.02589
 C10 C 0.15009 0.49689 0.99319
 C11 C 0.17069 0.49511 0.96019
 C12 C 0.20856 0.49342 0.95975
 H13 H 0.26881 0.43378 0.99053
 H14 H 0.26866 0.55001 0.99261
 H15 H 0.21895 0.49530 1.04846
 H16 H 0.22506 0.49252 0.93463
 H17 H 0.36982 0.48730 0.98863
 H18 H 0.12104 0.49835 0.99309
 C19 C 0.71826 0.46689 0.00528
 C20 C 0.73265 0.50164 0.00599
 C21 C 0.70947 0.53245 0.00863
 C22 C 0.67166 0.52887 0.01065
 C23 C 0.65753 0.49369 0.01073
 C24 C 0.68070 0.46277 0.00809
 C25 C 0.77204 0.50584 0.00452
 C26 C 0.79307 0.50257 -0.02791
 C27 C 0.83078 0.50778 -0.02991
 C28 C 0.84681 0.51506 0.00203
 C29 C 0.82591 0.51755 0.03497
 C30 C 0.78833 0.51360 0.03564
 H31 H 0.73627 0.44306 0.00317
 H32 H 0.72115 0.55918 0.00813
 H33 H 0.77925 0.49786 -0.05165
 H34 H 0.77153 0.51628 0.06047
 H35 H 0.62858 0.49020 0.01271
 H36 H 0.87587 0.51646 0.00179
 C37 C 0.03200 0.21152 0.49904
 C38 C -0.00039 0.23074 0.49371
 C39 C -0.03169 0.21177 0.48823
 C40 C -0.03096 0.17352 0.48813
 C41 C 0.00204 0.15458 0.49241
 C42 C 0.03362 0.17329 0.49820
 C43 C -0.00187 0.27079 0.49486
 C44 C -0.00856 0.29125 0.46415
 C45 C -0.01064 0.32974 0.46465
 C46 C -0.00731 0.34675 0.49763
 C47 C -0.00094 0.32638 0.52862
 C48 C 0.00245 0.28839 0.52685
 H49 H 0.05579 0.22649 0.50412
 H50 H -0.05685 0.22698 0.48546
 H51 H -0.01297 0.27651 0.44028
 H52 H 0.00708 0.27236 0.55065
 H53 H 0.00328 0.12527 0.49055
 H54 H -0.00755 0.37595 0.49937
 C55 C 1.03493 0.79204 0.50504
 C56 C 1.00321 0.77285 0.50229
 C57 C 0.96987 0.79157 0.50216
 C58 C 0.96765 0.82951 0.50542
 C59 C 0.99967 0.84875 0.50771
 C60 C 1.03398 0.83048 0.50693
 C61 C 1.00462 0.73293 0.49929
 C62 C 1.01293 0.71100 0.52851
 C63 C 1.01121 0.67261 0.52743
 C64 C 1.00229 0.65711 0.49507
 C65 C 0.99519 0.67901 0.46518
 C66 C 0.99599 0.71695 0.46774
 H67 H 1.06040 0.77672 0.50376
 H68 H 0.94547 0.77631 0.50042
 H69 H 1.02071 0.72443 0.55197
 H70 H 0.98962 0.73420 0.44524
 H71 H 0.99733 0.87796 0.51056
 H72 H 1.00018 0.62806 0.49262
 C73 C 0.49974 0.02536 0.20966
 C74 C 0.49666 -0.00607 0.23120
 C75 C 0.48691 -0.03887 0.21666
 C76 C 0.48021 -0.04066 0.18051
 C77 C 0.48291 -0.00881 0.15921
 C78 C 0.49275 0.02421 0.17358
 C79 C 0.50254 -0.00464 0.26932
 C80 C 0.47277 -0.00511 0.29468
 C81 C 0.47768 -0.00514 0.33135
 C82 C 0.51322 -0.00490 0.34219
 C83 C 0.54319 -0.00444 0.31682
 C84 C 0.53770 -0.00387 0.28038
 H85 H 0.50650 0.05072 0.22139
 H86 H 0.48447 -0.06299 0.23365
 H87 H 0.44583 -0.00459 0.28553
 H88 H 0.56074 -0.00363 0.26069
 H89 H 0.47850 -0.00982 0.13110
 H90 H 0.51771 -0.00513 0.37029
 C91 C 0.51574 0.03108 0.78691
 C92 C 0.50717 -0.00183 0.77198
 C93 C 0.50456 -0.03350 0.79320
 C94 C 0.51079 -0.03288 0.82979
 C95 C 0.51894 0.00093 0.84438
 C96 C 0.52140 0.03288 0.82322
 C97 C 0.50110 -0.00292 0.73385
 C98 C 0.53044 0.00048 0.70821
 C99 C 0.52518 0.00094 0.67155
 C100 C 0.48955 -0.00133 0.66124
 C101 C 0.46009 -0.00457 0.68687
 C102 C 0.46601 -0.00586 0.72315
 H103 H 0.51787 0.05535 0.77011
 H104 H 0.49677 -0.05817 0.78086
 H105 H 0.55714 0.00210 0.71737
 H106 H 0.44326 -0.00803 0.74303
 H107 H 0.52399 0.00257 0.87222
 H108 H 0.48442 0.00002 0.63328
 C109 C 0.31155 0.02600 0.48096
 H110 H 0.30568 0.04896 0.49834
 C111 C 0.34139 0.02653 0.45585
 H112 H 0.35763 0.05060 0.45347
 C113 C 0.29738 -0.03328 0.46357
 H114 H 0.28082 -0.05699 0.46756
 C115 C 0.32730 -0.03412 0.43844
 H116 H 0.33327 -0.05864 0.42338
 N117 N 0.29021 -0.00354 0.48427
 C118 C 0.19825 0.04083 0.55063
 H119 H 0.19925 0.02220 0.57318
 C120 C 0.17007 0.06674 0.54982
 H121 H 0.15027 0.06862 0.57250
 C122 C 0.22236 0.05977 0.49320
 H123 H 0.24187 0.05581 0.47056
 C124 C 0.19424 0.08581 0.49107
 H125 H 0.19270 0.10182 0.46675
 Zn126 Zn 0.25419 -0.00435 0.52271
 N127 N 0.22348 0.03759 0.52249
 C128 C 0.27947 0.02092 0.58699
 N129 N 0.27932 -0.00763 0.56446
 C130 C 0.30159 -0.03735 0.56798
 C131 C 0.32612 -0.03869 0.59436
 C132 C 0.30345 0.02064 0.61385
 C133 C 0.20522 -0.04306 0.48861
 C134 C 0.17637 -0.06596 0.48549
 C135 C 0.18488 -0.09022 0.54449
 C136 C 0.21382 -0.06679 0.54647
 N137 N 0.22292 -0.04346 0.51890
 H138 H 0.26240 0.04479 0.58308
 H139 H 0.30153 -0.05924 0.54909
 H140 H 0.34482 -0.06183 0.59543
 H141 H 0.30377 0.04400 0.63100
 H142 H 0.21257 -0.02369 0.46742
 H143 H 0.16222 -0.06466 0.46134
 H144 H 0.17695 -0.10718 0.56735
 H145 H 0.22760 -0.06581 0.57073
 C146 C 0.16705 0.08885 0.51928
 C147 C 0.35001 -0.00404 0.43448
 C148 C 0.16518 -0.08928 0.51399
 C149 C 0.32786 -0.00903 0.61724
 C150 C 0.70221 0.03756 0.53737
 H151 H 0.71836 0.06149 0.53294
 C152 C 0.67173 0.03870 0.56182
 H153 H 0.66503 0.06356 0.57627
 C154 C 0.68968 -0.02281 0.52190
 H155 H 0.69653 -0.04641 0.50563
 C156 C 0.65920 -0.02296 0.54621
 H157 H 0.64340 -0.04731 0.54909
 N158 N 0.71052 0.00707 0.51802
 C159 C 0.78896 0.06572 0.45214
 H160 H 0.77747 0.06054 0.42722
 C161 C 0.81738 0.08996 0.45282
 H162 H 0.82731 0.10345 0.42829
 C163 C 0.79270 0.05139 0.51349
 H164 H 0.78385 0.03517 0.53670
 C165 C 0.82066 0.07561 0.51548
 H166 H 0.83214 0.07882 0.54074
 Zn167 Zn 0.74785 0.00609 0.48072
 N168 N 0.77776 0.04658 0.48212
 C169 C 0.70262 0.03486 0.43145
 N170 N 0.72406 0.00528 0.43824
 C171 C 0.72340 -0.02558 0.41885
 C172 C 0.69949 -0.02785 0.39206
 C173 C 0.67845 0.03383 0.40487
 C174 C 0.77918 -0.05454 0.51622
 C175 C 0.80691 -0.08026 0.52143
 C176 C 0.83405 -0.06555 0.46251
 C177 C 0.80597 -0.03997 0.45848
 N178 N 0.77937 -0.03486 0.48518
 H179 H 0.70301 0.05864 0.44799
 H180 H 0.73990 -0.04915 0.42543
 H181 H 0.69845 -0.05300 0.37760
 H182 H 0.66042 0.05709 0.40115
 H183 H 0.75865 -0.04903 0.53765
 H184 H 0.80720 -0.09502 0.54662
 H185 H 0.85579 -0.06826 0.44164
 H186 H 0.80615 -0.02301 0.43464
 C187 C 0.83433 0.09427 0.48461
 C188 C 0.64949 0.00829 0.56624
 C189 C 0.83483 -0.08567 0.49446
 C190 C 0.67600 0.00183 0.38536
 C191 C 0.47754 0.20781 1.05630
 H192 H 0.45407 0.22531 1.05279
 C193 C 0.47486 0.17849 1.08056
 H194 H 0.44948 0.17430 1.09626
 C195 C 0.53843 0.19058 1.03864
 H196 H 0.56267 0.19473 1.02117
 C197 C 0.53705 0.16123 1.06269
 H198 H 0.56052 0.14306 1.06370
 N199 N 0.50887 0.21291 1.03561
 C200 C 0.45092 0.27928 0.96597
 H201 H 0.45891 0.26277 0.94300
 C202 C 0.42262 0.30510 0.96426
 H203 H 0.40851 0.30768 0.94015
 C204 C 0.46072 0.29742 1.02456
 H205 H 0.47650 0.29491 1.04755
 C206 C 0.43244 0.32338 1.02411
 H207 H 0.42662 0.34076 1.04694
 Zn208 Zn 0.51154 0.24588 0.99645
 N209 N 0.46939 0.27606 0.99578
 C210 C 0.49009 0.19271 0.95214
 N211 N 0.51719 0.21625 0.95575
 C212 C 0.54835 0.21481 0.93396
 C213 C 0.55319 0.18852 0.90738
 C214 C 0.49376 0.16619 0.92592
 C215 C 0.56965 0.27886 1.02776
 C216 C 0.59579 0.30522 1.02998
 C217 C 0.58270 0.32773 0.97144
 C218 C 0.55667 0.30115 0.97045
 N219 N 0.55069 0.27738 0.99830
 H220 H 0.46611 0.19379 0.97056
 H221 H 0.57004 0.23294 0.93809
 H222 H 0.57842 0.18679 0.89073
 H223 H 0.47256 0.14676 0.92425
 H224 H 0.56374 0.26041 1.05004
 H225 H 0.61036 0.30634 1.05379
 H226 H 0.58636 0.34695 0.94936
 H227 H 0.54051 0.29993 0.94777
 C228 C 0.41326 0.32778 0.99348
 C229 C 0.50467 0.15428 1.08339
 C230 C 0.60241 0.33024 1.00167
 C231 C 0.52568 0.16384 0.90341
 C232 C 0.45901 0.80459 -0.03541
 H233 H 0.43505 0.80203 -0.01719
 C234 C 0.46143 0.83366 -0.05986
 H235 H 0.43883 0.85282 -0.06100
 C236 C 0.51815 0.78325 -0.05514
 H237 H 0.54078 0.76449 -0.05219
 C238 C 0.52162 0.81181 -0.08011
 H239 H 0.54678 0.81455 -0.09660
 N240 N 0.48734 0.78048 -0.03311
 C241 C 0.44257 0.69169 0.03305
 H242 H 0.45917 0.69407 0.05527
 C243 C 0.41995 0.66220 0.03168
 H244 H 0.41836 0.64262 0.05355
 C245 C 0.42579 0.71374 -0.02316
 H246 H 0.42943 0.73306 -0.04510
 C247 C 0.40271 0.68453 -0.02561
 H248 H 0.38834 0.68182 -0.04937
 Zn249 Zn 0.48475 0.74777 0.00630
 N250 N 0.44561 0.71628 0.00560
 C251 C 0.44960 0.77880 0.06929
 N252 N 0.48055 0.77704 0.04722
 C253 C 0.50820 0.79989 0.05088
 C254 C 0.50523 0.82618 0.07735
 C255 C 0.44545 0.80486 0.09611
 C256 C 0.53208 0.69496 -0.02334
 C257 C 0.55780 0.66649 -0.02364
 C258 C 0.57079 0.68259 0.03597
 C259 C 0.54503 0.71115 0.03497
 N260 N 0.52600 0.71641 0.00573
 H261 H 0.42753 0.76113 0.06515
 H262 H 0.53203 0.79852 0.03228
 H263 H 0.52683 0.84516 0.07905
 H264 H 0.42036 0.80690 0.11293
 H265 H 0.51596 0.69926 -0.04590
 H266 H 0.56219 0.64995 -0.04716
 H267 H 0.58447 0.67777 0.06009
 H268 H 0.53888 0.72776 0.05825
 C269 C 0.40056 0.65772 0.00157
 C270 C 0.49341 0.83795 -0.08192
 C271 C 0.57685 0.65929 0.00666
 C272 C 0.47346 0.82894 0.10008
 C273 C 1.02850 0.47515 0.19803
 H274 H 1.00805 0.45487 0.20332
 C275 C 1.05395 0.47122 0.16896
 H276 H 1.05342 0.44709 0.15315
 C277 C 1.05264 0.53161 0.21233
 H278 H 1.05097 0.55577 0.22849
 C279 C 1.07843 0.52897 0.18307
 H280 H 1.09657 0.55126 0.17715
 N281 N 1.02795 0.50513 0.21873
 C282 C 0.95114 0.47007 0.30539
 H283 H 0.93022 0.49104 0.30343
 C284 C 0.94843 0.44444 0.33330
 H285 H 0.92492 0.44534 0.35233
 C286 C 1.00810 0.44457 0.28386
 H287 H 1.03209 0.44575 0.26561
 C288 C 1.00638 0.41831 0.31122
 H289 H 1.02903 0.39929 0.31342
 Zn290 Zn 0.98628 0.51074 0.25056
 N291 N 0.98087 0.47001 0.28171
 C292 C 0.92460 0.48884 0.21652
 N293 N 0.94789 0.51606 0.22067
 C294 C 0.94853 0.54607 0.19903
 C295 C 0.92578 0.54922 0.17128
 C296 C 0.90161 0.49067 0.18870
 C297 C 1.01638 0.55233 0.30140
 C298 C 1.01587 0.57745 0.32891
 C299 C 0.95772 0.60061 0.31218
 C300 C 0.95937 0.57515 0.28488
 N301 N 0.98822 0.55139 0.28032
 H302 H 0.92523 0.46479 0.23351
 H303 H 0.96775 0.56707 0.20261
 H304 H 0.92688 0.57366 0.15478
 H305 H 0.88461 0.46789 0.18553
 H306 H 1.03839 0.53236 0.29788
 H307 H 1.03773 0.57712 0.34643
 H308 H 0.93405 0.61848 0.31658
 H309 H 0.93666 0.57302 0.26875
 C310 C 0.97668 0.41863 0.33689
 C311 C 1.07860 0.49891 0.16029
 C312 C 0.98596 0.60141 0.33476
 C313 C 0.90276 0.52066 0.16470
 C314 C -0.04194 0.46753 0.79449
 H315 H -0.02879 0.44179 0.78701
 C316 C -0.06780 0.46882 0.82354
 H317 H -0.07504 0.44390 0.83788
 C318 C -0.04603 0.53177 0.78706
 H319 H -0.03635 0.55624 0.77347
 C320 C -0.07125 0.53440 0.81672
 H321 H -0.08155 0.56092 0.82553
 N322 N -0.03176 0.49867 0.77677
 C323 C 0.04146 0.44341 0.69714
 H324 H 0.06654 0.45629 0.70173
 C325 C 0.04080 0.41821 0.66975
 H326 H 0.06560 0.41144 0.65371
 C327 C -0.02206 0.43965 0.70976
 H328 H -0.04680 0.44955 0.72398
 C329 C -0.02397 0.41468 0.68250
 H330 H -0.05008 0.40455 0.67699
 Zn331 Zn 0.01004 0.49591 0.74463
 N332 N 0.01027 0.45374 0.71637
 C333 C 0.06873 0.46580 0.78180
 N334 N 0.04901 0.49636 0.77408
 C335 C 0.05208 0.52774 0.79210
 C336 C 0.07554 0.52933 0.81912
 C337 C 0.09217 0.46602 0.80926
 C338 C -0.01522 0.53677 0.68867
 C339 C -0.01314 0.56057 0.65926
 C340 C 0.04269 0.58294 0.67864
 C341 C 0.04008 0.55799 0.70719
 N342 N 0.01150 0.53538 0.71153
 H343 H 0.06474 0.44070 0.76822
 H344 H 0.03524 0.55132 0.78628
 H345 H 0.07754 0.55476 0.83278
 H346 H 0.10624 0.44096 0.81623
 H347 H -0.03731 0.51811 0.69238
 H348 H -0.03385 0.56052 0.64048
 H349 H 0.06595 0.60020 0.67484
 H350 H 0.06177 0.55563 0.72473
 C351 C 0.00757 0.40442 0.66152
 C352 C -0.08205 0.50262 0.83541
 C353 C 0.01632 0.58361 0.65390
 C354 C 0.09512 0.49793 0.82890
 C355 C 0.06887 0.12050 0.52358
 C356 C 0.06805 0.15309 0.50403
 C357 C 0.10234 0.16591 0.49049
 C358 C 0.13488 0.14574 0.49596
 C359 C 0.13421 0.11242 0.51569
 C360 C 0.10007 0.10182 0.52973
 C361 C 0.08074 0.07126 0.54876
 C362 C 0.04549 0.09245 0.54201
 H363 H 0.10409 0.19093 0.47485
 H364 H 0.16035 0.15620 0.48458
 H365 H 0.08578 0.06934 0.57750
 H366 H 0.08433 0.04532 0.53389
 H367 H 0.03038 0.10287 0.56666
 H368 H 0.02916 0.07806 0.52346
 C369 C 0.61507 0.56316 -0.00532
 C370 C 0.64731 0.56182 0.01151
 C371 C 0.65602 0.59453 0.02813
 C372 C 0.63333 0.62634 0.02670
 C373 C 0.60132 0.62664 0.00833
 C374 C 0.59376 0.59384 -0.00736
 C375 C 0.56732 0.57594 -0.02883
 C376 C 0.59160 0.54139 -0.02682
 H377 H 0.68019 0.59569 0.04241
 H378 H 0.64126 0.65072 0.03949
 H379 H 0.56704 0.58734 -0.05638
 H380 H 0.54030 0.57344 -0.01398
 H381 H 0.60549 0.53349 -0.05297
 H382 H 0.57814 0.51896 -0.01113
 C383 C 0.90453 -0.16290 0.48577
 C384 C 0.93171 -0.15129 0.50651
 C385 C 0.92316 -0.12103 0.52865
 C386 C 0.89053 -0.10068 0.52605
 C387 C 0.86611 -0.10991 0.50096
 C388 C 0.87277 -0.14260 0.48276
 C389 C 0.87145 -0.15189 0.44438
 C390 C 0.90636 -0.17422 0.44772
 H391 H 0.94220 -0.11222 0.54693
 H392 H 0.88549 -0.07648 0.54196
 H393 H 0.87515 -0.12804 0.42599
 H394 H 0.84792 -0.16887 0.43992
 H395 H 0.93010 -0.16305 0.43158
 H396 H 0.90285 -0.20400 0.44519
 C397 C 0.35983 0.40830 0.95865
 C398 C 0.34073 0.42154 0.98953
 C399 C 0.33969 0.39919 1.02042
 C400 C 0.36179 0.36729 1.02140
 C401 C 0.38490 0.35696 0.99130
 C402 C 0.38116 0.37668 0.95947
 C403 C 0.40919 0.39160 0.93282
 C404 C 0.38575 0.42630 0.93192
 H405 H 0.32364 0.40759 1.04438
 H406 H 0.36209 0.35180 1.04617
 H407 H 0.41089 0.37655 0.90731
 H408 H 0.43556 0.39542 0.94430
 H409 H 0.37397 0.43115 0.90590
 H410 H 0.39882 0.45019 0.94265
 C411 C 0.92805 0.12145 0.50483
 C412 C 0.93508 0.15350 0.48543
 C413 C 0.90689 0.16651 0.46458
 C414 C 0.87390 0.14761 0.46414
 C415 C 0.86779 0.11551 0.48506
 C416 C 0.89613 0.10403 0.50524
 C417 C 0.90767 0.07494 0.53045
 C418 C 0.94366 0.09476 0.53015
 H419 H 0.91030 0.19101 0.44837
 H420 H 0.85318 0.15843 0.44781
 H421 H 0.91033 0.04773 0.51783
 H422 H 0.89189 0.07582 0.55684
 H423 H 0.96675 0.07848 0.51748
 H424 H 0.94832 0.10720 0.55608
 C425 C 0.37721 0.55818 0.00194
 C426 C 0.34192 0.55697 -0.00906
 C427 C 0.32673 0.59165 -0.01877
 C428 C 0.34568 0.62442 -0.01579
 C429 C 0.38027 0.62408 -0.00242
 C430 C 0.39468 0.58985 0.00594
 C431 C 0.42653 0.57172 0.02114
 C432 C 0.40698 0.53590 0.01717
 H433 H 0.30061 0.59407 -0.02963
 H434 H 0.33293 0.65000 -0.02340
 H435 H 0.42894 0.57879 0.04945
 H436 H 0.45169 0.57419 0.00316
 H437 H 0.39805 0.52278 0.04315
 H438 H 0.42165 0.51761 -0.00271
 C439 C 0.09936 -0.16723 0.51586
 C440 C 0.06666 -0.15008 0.50696
 C441 C 0.06870 -0.11280 0.49663
 C442 C 0.10066 -0.09347 0.49890
 C443 C 0.13179 -0.11033 0.51190
 C444 C 0.13073 -0.14789 0.51880
 C445 C 0.14083 -0.17014 0.55034
 C446 C 0.10687 -0.19154 0.54689
 H447 H 0.04598 -0.09806 0.48638
 H448 H 0.10058 -0.06483 0.49148
 H449 H 0.13932 -0.15454 0.57549
 H450 H 0.16625 -0.18655 0.54451
 H451 H 0.08623 -0.18812 0.56984
 H452 H 0.11292 -0.22021 0.53885
 C453 C 0.64921 0.40988 1.03834
 C454 C 0.66584 0.42607 1.00757
 C455 C 0.66831 0.40588 0.97591
 C456 C 0.64949 0.37318 0.97426
 C457 C 0.62833 0.35992 1.00443
 C458 C 0.63118 0.37748 1.03684
 C459 C 0.60266 0.38912 1.06500
 C460 C 0.62250 0.42469 1.06666
 H461 H 0.68261 0.41663 0.95192
 H462 H 0.64992 0.35947 0.94896
 H463 H 0.60356 0.37221 1.08976
 H464 H 0.57543 0.39255 1.05466
 H465 H 0.63484 0.42817 1.09236
 H466 H 0.60646 0.44864 1.05758
 C467 C 0.52850 0.07506 1.14413
 C468 C 0.49573 0.05710 1.15042
 C469 C 0.46675 0.06887 1.13050
 C470 C 0.46949 0.10039 1.10858
 C471 C 0.50157 0.12049 1.10557
 C472 C 0.53140 0.10559 1.12198
 C473 C 0.55722 0.12310 1.14439
 C474 C 0.55389 0.08978 1.16897
 H475 H 0.44155 0.05445 1.13286
 H476 H 0.44636 0.10917 1.09440
 H477 H 0.54576 0.14857 1.15693
 H478 H 0.58461 0.12544 1.13027
 H479 H 0.54065 0.09648 1.19570
 H480 H 0.57944 0.07316 1.16919
 C481 C 0.01817 0.66590 0.59235
 C482 C 0.01785 0.65068 0.55809
 C483 C 0.02433 0.61234 0.55632
 C484 C 0.02526 0.59063 0.58751
 C485 C 0.02077 0.60646 0.62136
 C486 C 0.01987 0.64435 0.62302
 C487 C -0.00561 0.66871 0.64482
 C488 C -0.00790 0.69233 0.61150
 H489 H 0.02799 0.59833 0.53125
 H490 H 0.02807 0.56129 0.58519
 H491 H 0.00790 0.68214 0.66625
 H492 H -0.03150 0.65546 0.65365
 H493 H 0.00387 0.71955 0.61424
 H494 H -0.03513 0.69282 0.60093
 C495 C 0.50444 0.93640 -0.11116
 C496 C 0.50924 0.93489 -0.14865
 C497 C 0.51338 0.89943 -0.16332
 C498 C 0.50868 0.86791 -0.14163
 C499 C 0.49880 0.87073 -0.10485
 C500 C 0.49892 0.90538 -0.09006
 C501 C 0.47235 0.92456 -0.06439
 C502 C 0.47839 0.95862 -0.08735
 H503 H 0.52045 0.89551 -0.19147
 H504 H 0.51147 0.84137 -0.15385
 H505 H 0.48256 0.92663 -0.03750
 H506 H 0.44431 0.91473 -0.06466
 H507 H 0.49197 0.98022 -0.07344
 H508 H 0.45404 0.96802 -0.10084
 C509 C 0.97127 0.38678 0.43315
 C510 C 0.98456 0.35052 0.43297
 C511 C 0.99374 0.33630 0.39815
 C512 C 0.99036 0.35787 0.36680
 C513 C 0.97684 0.39424 0.36869
 C514 C 0.96661 0.40675 0.40282
 C515 C 0.95326 0.44009 0.42206
 C516 C 0.95790 0.41786 0.45644
 H517 H 1.00559 0.30925 0.39452
 H518 H 0.99885 0.34613 0.34114
 H519 H 0.92451 0.44716 0.41787
 H520 H 0.97241 0.46281 0.41786
 H521 H 0.93185 0.41201 0.47199
 H522 H 0.97922 0.42896 0.47206
 C523 C 0.48838 0.89137 0.17571
 C524 C 0.47169 0.92404 0.16489
 C525 C 0.44815 0.92203 0.13723
 C526 C 0.44640 0.88971 0.11777
 C527 C 0.46832 0.85902 0.12549
 C528 C 0.48705 0.85977 0.15630
 C529 C 0.52492 0.84836 0.16319
 C530 C 0.52642 0.88312 0.18444
 H531 H 0.43287 0.94594 0.12913
 H532 H 0.43035 0.88972 0.09490
 H533 H 0.54386 0.84815 0.13875
 H534 H 0.52585 0.82323 0.18006
 H535 H 0.54588 0.90305 0.17204
 H536 H 0.52833 0.87792 0.21347
 C537 C -0.02295 0.37240 0.57442
 C538 C 0.00162 0.34483 0.56297
 C539 C 0.02884 0.33555 0.58633
 C540 C 0.03091 0.35447 0.61882
 C541 C 0.00523 0.38247 0.62919
 C542 C -0.02164 0.38966 0.60592
 C543 C -0.05279 0.41482 0.59932
 C544 C -0.05452 0.39497 0.56378
 H545 H 0.04897 0.31440 0.57917
 H546 H 0.05250 0.34723 0.63565
 H547 H -0.04450 0.44361 0.59590
 H548 H -0.07672 0.41025 0.61847
 H549 H -0.04763 0.41265 0.54006
 H550 H -0.07921 0.37868 0.56257
 C551 C 0.51201 0.10072 0.82801
 C552 C 0.52910 0.06835 0.83903
 C553 C 0.55249 0.07087 0.86677
 C554 C 0.55371 0.10335 0.88609
 C555 C 0.53143 0.13369 0.87813
 C556 C 0.51283 0.13247 0.84726
 C557 C 0.47486 0.14330 0.84016
 C558 C 0.47393 0.10836 0.81908
 H559 H 0.56813 0.04725 0.87497
 H560 H 0.56966 0.10371 0.90901
 H561 H 0.47367 0.16832 0.82316
 H562 H 0.45582 0.14340 0.86452
 H563 H 0.47210 0.11335 0.79001
 H564 H 0.45471 0.08823 0.83150
 C565 C 1.00118 0.67674 0.39823
 C566 C 0.98702 0.66244 0.43109
 C567 C 0.96578 0.63118 0.43031
 C568 C 0.96352 0.61242 0.39819
 C569 C 0.98252 0.62452 0.36644
 C570 C 0.99918 0.65813 0.36669
 C571 C 1.03611 0.66906 0.35251
 C572 C 1.03835 0.68952 0.38709
 H573 H 0.95251 0.62016 0.45469
 H574 H 0.94904 0.58718 0.39866
 H575 H 1.03528 0.68738 0.32870
 H576 H 1.05570 0.64557 0.34948
 H577 H 1.03882 0.71959 0.38315
 H578 H 1.05917 0.67787 0.40412
 C579 C 1.10794 0.49177 0.06141
 C580 C 1.14489 0.50016 0.05889
 C581 C 1.15871 0.51186 0.09087
 C582 C 1.13737 0.51136 0.12372
 C583 C 1.10175 0.49849 0.12607
 C584 C 1.08735 0.49028 0.09388
 C585 C 1.06738 0.45800 0.08298
 C586 C 1.08938 0.46007 0.04730
 H587 H 1.18587 0.52177 0.09107
 H588 H 1.14924 0.52001 0.14748
 H589 H 1.03804 0.46428 0.08111
 H590 H 1.07389 0.43256 0.09789
 H591 H 1.07255 0.46797 0.02505
 H592 H 1.10802 0.43611 0.04209
 C593 C 0.58507 0.02767 0.64780
 C594 C 0.55617 0.00443 0.64387
 C595 C 0.55600 -0.01327 0.61077
 C596 C 0.58543 -0.01079 0.58476
 C597 C 0.61604 0.00951 0.59097
 C598 C 0.61371 0.03059 0.62178
 C599 C 0.64085 0.03569 0.64827
 C600 C 0.60996 0.03163 0.67698
 H601 H 0.53397 -0.03061 0.60548
 H602 H 0.58455 -0.02581 0.56035
 H603 H 0.65194 0.06353 0.64668
 H604 H 0.66147 0.01305 0.64829
 H605 H 0.60386 0.05686 0.69252
 H606 H 0.61344 0.00631 0.69315
 C607 C -0.11570 0.52434 0.93004
 C608 C -0.14813 0.50577 0.93694
 C609 C -0.15854 0.48508 0.90779
 C610 C -0.13728 0.48399 0.87462
 C611 C -0.10563 0.50453 0.86886
 C612 C -0.09644 0.52457 0.89761
 C613 C -0.06932 0.55039 0.90832
 C614 C -0.09114 0.55088 0.94490
 H615 H -0.18220 0.46839 0.91063
 H616 H -0.14567 0.46721 0.85351
 H617 H -0.07057 0.57678 0.89346
 H618 H -0.04188 0.53739 0.90892
 H619 H -0.10509 0.57753 0.95099
 H620 H -0.07557 0.53892 0.96655
 C621 C 0.41413 -0.02314 0.35271
 C622 C 0.44586 -0.00507 0.35811
 C623 C 0.44559 0.01370 0.39080
 C624 C 0.41472 0.01389 0.41578
 C625 C 0.38295 -0.00475 0.40905
 C626 C 0.38475 -0.02347 0.37695
 C627 C 0.36348 -0.04629 0.35425
 C628 C 0.39669 -0.04611 0.32698
 H629 H 0.46888 0.02884 0.39697
 H630 H 0.41608 0.02844 0.44040
 H631 H 0.33943 -0.03125 0.34490
 H632 H 0.35819 -0.07377 0.36606
 H633 H 0.39121 -0.03131 0.30186
 H634 H 0.41053 -0.07324 0.32351
 C635 C 0.12124 0.51677 0.92189
 C636 C 0.15262 0.49577 0.92625
 C637 C 0.16613 0.47529 0.89611
 C638 C 0.14800 0.47614 0.86409
 C639 C 0.11606 0.49790 0.86102
 C640 C 0.10445 0.51827 0.89099
 C641 C 0.07483 0.54336 0.90587
 C642 C 0.09397 0.54192 0.94068
 H643 H 0.19018 0.45800 0.89738
 H644 H 0.15910 0.45982 0.84191
 H645 H 0.04804 0.53027 0.90819
 H646 H 0.07536 0.57076 0.89285
 H647 H 0.07755 0.52848 0.96292
 H648 H 0.10580 0.56821 0.94727
 C649 C 0.59612 -0.03571 0.34307
 C650 C 0.58032 -0.00453 0.32824
 C651 C 0.60119 0.02697 0.32458
 C652 C 0.63417 0.02850 0.34083
 C653 C 0.64699 -0.00166 0.36062
 C654 C 0.62873 -0.03437 0.35861
 C655 C 0.61708 -0.06153 0.38697
 C656 C 0.58131 -0.06306 0.36982
 H657 H 0.59074 0.05117 0.31155
 H658 H 0.64832 0.05393 0.33980
 H659 H 0.61435 -0.04962 0.41410
 H660 H 0.63338 -0.08740 0.38462
 H661 H 0.55795 -0.05237 0.38732
 H662 H 0.57715 -0.08977 0.35752
 C663 C 0.82836 0.50805 0.10127
 C664 C 0.84316 0.52293 0.06893
 C665 C 0.87570 0.54171 0.06993
 C666 C 0.89455 0.54131 0.10106
 C667 C 0.88145 0.52234 0.13244
 C668 C 0.84708 0.50717 0.13192
 C669 C 0.83348 0.47001 0.14197
 C670 C 0.81247 0.47171 0.10893
 H671 H 0.88755 0.55549 0.04632
 H672 H 0.92052 0.55421 0.09954
 H673 H 0.81572 0.47006 0.16725
 H674 H 0.85510 0.44831 0.14004
 H675 H 0.78264 0.47366 0.11519
 H676 H 0.82193 0.45114 0.08864
 C677 C 0.40502 0.02664 0.66529
 C678 C 0.42293 -0.00529 0.67578
 C679 C 0.40458 -0.03822 0.67452
 C680 C 0.37182 -0.03939 0.65782
 C681 C 0.35688 -0.00755 0.64229
 C682 C 0.37276 0.02556 0.64911
 C683 C 0.38274 0.05690 0.62475
 C684 C 0.41810 0.05811 0.64264
 H685 H 0.41683 -0.06334 0.68401
 H686 H 0.35953 -0.06550 0.65518
 H687 H 0.36478 0.08127 0.63025
 H688 H 0.38647 0.04896 0.59624
 H689 H 0.42035 0.08308 0.65853
 H690 H 0.44226 0.05115 0.62432
   
