data_POSCAR
  _audit_creation_date              2014-09-24
  _audit_creation_method            'ToBaCCo'
  _symmetry_space_group_name_H-M    'P1'
  _symmetry_Int_Tables_number       1
  _symmetry_cell_setting            triclinic
  loop_
  _symmetry_equiv_pos_as_xyz
 x,y,z
_cell_length_a 23.2853
_cell_length_b 29.1470
_cell_length_c 23.2853
_cell_angle_alpha 90.000100
_cell_angle_beta 90.000100
_cell_angle_gamma 90.000200
loop_
  _atom_site_label
  _atom_site_type_symbol
  _atom_site_fract_x
  _atom_site_fract_y
  _atom_site_fract_z
C1 C 1.25003 0.25001 0.25000
 C2 C 0.75003 -0.25008 0.25000
 C3 C 0.75003 0.25001 -0.25000
 C4 C 1.25003 -0.24990 -0.25000
 C5 C 0.25003 0.24998 0.74999
 C6 C 0.75003 0.75001 0.74999
 C7 C 0.75003 0.25005 0.24999
 C8 C 0.25003 0.75001 0.24999
 N9 N 1.11576 0.04676 0.03441
 N10 N 1.15510 0.07933 0.03366
 N11 N 1.08689 -0.04970 0.08353
 N12 N 1.10571 -0.08290 0.11740
 N13 N 1.11509 -0.04963 0.03468
 N14 N 1.15411 -0.08250 0.03412
 N15 N 1.08751 0.04712 0.08320
 N16 N 1.10664 0.08015 0.11692
 C17 C 1.14856 0.10006 0.08519
 C18 C 1.14756 -0.10315 0.08580
 N19 N 0.91863 -0.04850 0.08736
 N20 N 0.88456 -0.08131 0.10641
 N21 N 0.96794 0.04774 0.11559
 N22 N 0.96837 0.08034 0.15496
 N23 N 0.91919 0.04804 0.08721
 N24 N 0.88529 0.08098 0.10624
 N25 N 0.96740 -0.04851 0.11568
 N26 N 0.96779 -0.08113 0.15493
 Mn27 Mn 1.02761 -0.00082 0.10012
 C28 C 0.91607 -0.10148 0.14828
 C29 C 0.91675 0.10101 0.14823
 N30 N 1.08221 -0.04936 -0.08489
 N31 N 1.11595 -0.08223 -0.10438
 N32 N 1.03421 0.04732 -0.11312
 N33 N 1.03381 0.07984 -0.15251
 N34 N 1.08311 0.04725 -0.08500
 N35 N 1.11724 0.07998 -0.10437
 N36 N 1.03341 -0.04884 -0.11314
 N37 N 1.03266 -0.08117 -0.15278
 Mn38 Mn 1.09965 -0.00126 -0.02539
 C39 C 1.08418 -0.10192 -0.14642
 C40 C 1.08561 0.10016 -0.14622
 N41 N 0.88652 0.04808 -0.03209
 N42 N 0.84701 0.08057 -0.03189
 N43 N 0.91417 -0.04851 -0.08083
 N44 N 0.89474 -0.08120 -0.11492
 N45 N 0.88594 -0.04830 -0.03204
 N46 N 0.84627 -0.08066 -0.03169
 N47 N 0.91484 0.04816 -0.08084
 N48 N 0.89557 0.08086 -0.11505
 Mn49 Mn 0.90198 -0.00019 0.02782
 Mn50 Mn 0.97400 -0.00046 -0.09754
 Cl51 Cl 1.00083 -0.00068 0.00126
 C52 C 0.85353 0.10097 -0.08368
 C53 C 0.85265 -0.10112 -0.08346
 N54 N 1.11571 0.54853 0.53263
 N55 N 1.15497 0.58115 0.53224
 N56 N 1.08725 0.45199 0.58083
 N57 N 1.10627 0.41904 0.61474
 N58 N 1.11563 0.45229 0.53209
 N59 N 1.15500 0.41968 0.53166
 N60 N 1.08739 0.54852 0.58140
 N61 N 1.10645 0.58134 0.61547
 C62 C 1.14832 0.60151 0.58396
 C63 C 1.14826 0.39902 0.58327
 N64 N 0.91919 0.45186 0.58518
 N65 N 0.88498 0.41917 0.60446
 N66 N 0.96800 0.54833 0.61409
 N67 N 0.96834 0.58069 0.65375
 N68 N 0.91920 0.54853 0.58585
 N69 N 0.88511 0.58122 0.60528
 N70 N 0.96794 0.45194 0.61351
 N71 N 0.96815 0.41946 0.65302
 Mn72 Mn 1.02785 0.50021 0.59804
 C73 C 0.91636 0.39905 0.64649
 C74 C 0.91658 0.60115 0.64737
 N75 N 1.08323 0.45290 0.41252
 N76 N 1.11696 0.41988 0.39338
 N77 N 1.03471 0.54965 0.38494
 N78 N 1.03416 0.58253 0.34592
 N79 N 1.08357 0.54972 0.41314
 N80 N 1.11743 0.58293 0.39432
 N81 N 1.03444 0.45327 0.38427
 N82 N 1.03369 0.42069 0.34493
 Mn83 Mn 1.10016 0.50084 0.47241
 C84 C 1.08523 0.39997 0.35147
 C85 C 1.08583 0.60318 0.35246
 N86 N 0.88689 0.54887 0.46662
 N87 N 0.84725 0.58120 0.46736
 N88 N 0.91503 0.45278 0.41692
 N89 N 0.89566 0.42005 0.38279
 N90 N 0.88692 0.45270 0.46581
 N91 N 0.84752 0.42018 0.46622
 N92 N 0.91514 0.54939 0.41781
 N93 N 0.89566 0.58226 0.38408
 Mn94 Mn 0.90249 0.50049 0.52602
 Mn95 Mn 0.97464 0.50128 0.40037
 Cl96 Cl 1.00130 0.50071 0.49919
 C97 C 0.85362 0.60194 0.41585
 C98 C 0.85381 0.39987 0.41441
 N99 N 0.61354 0.04809 0.53209
 N100 N 0.65305 0.08057 0.53188
 N101 N 0.58589 -0.04851 0.58082
 N102 N 0.60532 -0.08120 0.61491
 N103 N 0.61413 -0.04830 0.53203
 N104 N 0.65379 -0.08066 0.53168
 N105 N 0.58522 0.04816 0.58084
 N106 N 0.60449 0.08086 0.61505
 C107 C 0.64653 0.10097 0.58367
 C108 C 0.64741 -0.10112 0.58344
 N109 N 0.41785 -0.04936 0.58488
 N110 N 0.38412 -0.08223 0.60437
 N111 N 0.46585 0.04732 0.61311
 N112 N 0.46625 0.07984 0.65250
 N113 N 0.41695 0.04725 0.58500
 N114 N 0.38282 0.07998 0.60437
 N115 N 0.46665 -0.04884 0.61314
 N116 N 0.46740 -0.08117 0.65277
 Mn117 Mn 0.52606 -0.00046 0.59753
 C118 C 0.41588 -0.10192 0.64641
 C119 C 0.41445 0.10016 0.64621
 N120 N 0.58143 -0.04850 0.41263
 N121 N 0.61550 -0.08131 0.39358
 N122 N 0.53212 0.04774 0.38440
 N123 N 0.53169 0.08034 0.34503
 N124 N 0.58087 0.04804 0.41278
 N125 N 0.61477 0.08099 0.39375
 N126 N 0.53266 -0.04850 0.38431
 N127 N 0.53227 -0.08112 0.34506
 Mn128 Mn 0.59808 -0.00018 0.47218
 C129 C 0.58399 -0.10148 0.35171
 C130 C 0.58331 0.10101 0.35177
 N131 N 0.38430 0.04676 0.46559
 N132 N 0.34496 0.07933 0.46633
 N133 N 0.41317 -0.04970 0.41646
 N134 N 0.39435 -0.08290 0.38259
 N135 N 0.38497 -0.04963 0.46531
 N136 N 0.34596 -0.08250 0.46587
 N137 N 0.41255 0.04712 0.41679
 N138 N 0.39341 0.08015 0.38307
 Mn139 Mn 0.40041 -0.00126 0.52538
 Mn140 Mn 0.47245 -0.00082 0.39987
 Cl141 Cl 0.49923 -0.00068 0.49873
 C142 C 0.35150 0.10006 0.41480
 C143 C 0.35250 -0.10315 0.41419
 N144 N 0.61317 0.54887 0.03337
 N145 N 0.65281 0.58120 0.03263
 N146 N 0.58503 0.45278 0.08308
 N147 N 0.60440 0.42005 0.11720
 N148 N 0.61314 0.45271 0.03418
 N149 N 0.65254 0.42018 0.03377
 N150 N 0.58492 0.54939 0.08218
 N151 N 0.60440 0.58226 0.11591
 C152 C 0.64644 0.60195 0.08415
 C153 C 0.64625 0.39987 0.08558
 N154 N 0.41683 0.45290 0.08748
 N155 N 0.38311 0.41987 0.10661
 N156 N 0.46535 0.54965 0.11505
 N157 N 0.46590 0.58253 0.15407
 N158 N 0.41649 0.54972 0.08685
 N159 N 0.38263 0.58292 0.10567
 N160 N 0.46562 0.45327 0.11572
 N161 N 0.46637 0.42069 0.15506
 Mn162 Mn 0.52542 0.50128 0.09962
 C163 C 0.41483 0.39996 0.14852
 C164 C 0.41423 0.60318 0.14753
 N165 N 0.58087 0.45187 -0.08519
 N166 N 0.61508 0.41917 -0.10447
 N167 N 0.53206 0.54833 -0.11410
 N168 N 0.53172 0.58069 -0.15376
 N169 N 0.58086 0.54854 -0.08586
 N170 N 0.61495 0.58122 -0.10529
 N171 N 0.53212 0.45194 -0.11351
 N172 N 0.53192 0.41946 -0.15302
 Mn173 Mn 0.59757 0.50049 -0.02603
 C174 C 0.58371 0.39905 -0.14650
 C175 C 0.58348 0.60115 -0.14738
 N176 N 0.38435 0.54853 -0.03263
 N177 N 0.34509 0.58115 -0.03224
 N178 N 0.41281 0.45199 -0.08084
 N179 N 0.39379 0.41904 -0.11474
 N180 N 0.38444 0.45228 -0.03210
 N181 N 0.34506 0.41968 -0.03167
 N182 N 0.41267 0.54852 -0.08141
 N183 N 0.39361 0.58134 -0.11548
 Mn184 Mn 0.39991 0.50084 0.02758
 Mn185 Mn 0.47221 0.50021 -0.09805
 Cl186 Cl 0.49876 0.50071 0.00080
 C187 C 0.35174 0.60151 -0.08396
 C188 C 0.35180 0.39902 -0.08328
 C189 C 1.20527 0.21890 0.22273
 C190 C 1.21644 0.19420 0.17559
 C191 C 1.17567 0.15965 0.15437
 C192 C 1.18567 0.13745 0.10526
 H193 H 1.25711 0.19850 0.15355
 H194 H 1.13796 0.15156 0.17973
 H195 H 1.16527 0.21301 0.24548
 H196 H 1.22274 0.14632 0.07938
 C197 C 1.20527 0.71900 0.72283
 C198 C 1.21632 0.69466 0.67541
 C199 C 1.17554 0.66033 0.65391
 C200 C 1.18540 0.63870 0.60442
 H201 H 1.25688 0.69919 0.65322
 H202 H 1.13795 0.65193 0.67932
 H203 H 1.16543 0.71285 0.74575
 H204 H 1.22235 0.64787 0.57854
 C205 C 0.70509 0.21884 0.72282
 C206 C 0.71581 0.19420 0.67543
 C207 C 0.67464 0.15985 0.65398
 C208 C 0.68404 0.13805 0.60438
 H209 H 0.75634 0.19851 0.65314
 H210 H 0.63707 0.15167 0.67951
 H211 H 0.66521 0.21297 0.74576
 H212 H 0.72100 0.14705 0.57842
 C213 C 0.70521 0.71885 0.22290
 C214 C 0.71590 0.69466 0.17528
 C215 C 0.67474 0.66054 0.15392
 C216 C 0.68406 0.63891 0.10432
 H217 H 0.75631 0.69917 0.15283
 H218 H 0.63725 0.65231 0.17955
 H219 H 0.66549 0.71267 0.24602
 H220 H 0.72093 0.64786 0.07821
 C221 C 0.77720 -0.21897 0.20524
 C222 C 0.82462 -0.19464 0.21629
 C223 C 0.84612 -0.16030 0.17550
 C224 C 0.89561 -0.13867 0.18537
 H225 H 0.84681 -0.19916 0.25684
 H226 H 0.82071 -0.15191 0.13791
 H227 H 0.75427 -0.21283 0.16540
 H228 H 0.92149 -0.14785 0.22232
 C229 C 0.77721 0.28119 0.70506
 C230 C 0.82460 0.30583 0.71578
 C231 C 0.84604 0.34017 0.67461
 C232 C 0.89565 0.36198 0.68401
 H233 H 0.84689 0.30152 0.75630
 H234 H 0.82052 0.34836 0.63703
 H235 H 0.75427 0.28706 0.66517
 H236 H 0.92161 0.35298 0.72096
 C237 C 0.27713 -0.21882 0.70518
 C238 C 0.32475 -0.19463 0.71587
 C239 C 0.34611 -0.16052 0.67471
 C240 C 0.39571 -0.13889 0.68402
 H241 H 0.34720 -0.19914 0.75628
 H242 H 0.32048 -0.15229 0.63722
 H243 H 0.25401 -0.21264 0.66545
 H244 H 0.42182 -0.14783 0.72090
 C245 C 0.27730 0.28112 0.20523
 C246 C 0.32444 0.30582 0.21641
 C247 C 0.34566 0.34037 0.17564
 C248 C 0.39477 0.36258 0.18564
 H249 H 0.34648 0.30153 0.25708
 H250 H 0.32029 0.34847 0.13792
 H251 H 0.25455 0.28702 0.16524
 H252 H 0.42065 0.35371 0.22271
 C253 C 0.79497 0.21884 -0.22282
 C254 C 0.78425 0.19420 -0.17543
 C255 C 0.82542 0.15985 -0.15399
 C256 C 0.81602 0.13804 -0.10439
 H257 H 0.74372 0.19851 -0.15314
 H258 H 0.86299 0.15167 -0.17951
 H259 H 0.83485 0.21297 -0.24576
 H260 H 0.77906 0.14705 -0.07842
 C261 C 0.79485 0.71885 0.27710
 C262 C 0.78416 0.69466 0.32472
 C263 C 0.82532 0.66054 0.34608
 C264 C 0.81600 0.63891 0.39567
 H265 H 0.74375 0.69917 0.34717
 H266 H 0.86281 0.65231 0.32045
 H267 H 0.83458 0.71267 0.25398
 H268 H 0.77913 0.64786 0.42179
 C269 C 0.29479 0.21890 0.27727
 C270 C 0.28362 0.19420 0.32440
 C271 C 0.32439 0.15965 0.34563
 C272 C 0.31438 0.13745 0.39473
 H273 H 0.24295 0.19850 0.34645
 H274 H 0.36211 0.15156 0.32026
 H275 H 0.33479 0.21301 0.25451
 H276 H 0.27732 0.14632 0.42061
 C277 C 0.29479 0.71900 -0.22283
 C278 C 0.28374 0.69466 -0.17541
 C279 C 0.32452 0.66033 -0.15392
 C280 C 0.31466 0.63870 -0.10443
 H281 H 0.24318 0.69919 -0.15323
 H282 H 0.36211 0.65193 -0.17932
 H283 H 0.33463 0.71285 -0.24576
 H284 H 0.27771 0.64787 -0.07854
 C285 C 1.22293 -0.21882 -0.20518
 C286 C 1.17531 -0.19463 -0.21588
 C287 C 1.15395 -0.16052 -0.17472
 C288 C 1.10436 -0.13889 -0.18403
 H289 H 1.15286 -0.19914 -0.25628
 H290 H 1.17958 -0.15229 -0.13722
 H291 H 1.24605 -0.21264 -0.16546
 H292 H 1.07824 -0.14783 -0.22091
 C293 C 1.22276 0.28112 0.29476
 C294 C 1.17563 0.30583 0.28358
 C295 C 1.15440 0.34037 0.32435
 C296 C 1.10530 0.36258 0.31435
 H297 H 1.15358 0.30153 0.24292
 H298 H 1.17977 0.34847 0.36207
 H299 H 1.24552 0.28702 0.33476
 H300 H 1.07942 0.35371 0.27728
 C301 C 0.72286 -0.21897 0.29476
 C302 C 0.67544 -0.19464 0.28371
 C303 C 0.65394 -0.16030 0.32449
 C304 C 0.60446 -0.13867 0.31463
 H305 H 0.65325 -0.19916 0.24315
 H306 H 0.67935 -0.15191 0.36208
 H307 H 0.74579 -0.21283 0.33460
 H308 H 0.57857 -0.14785 0.27768
 C309 C 0.72285 0.28119 -0.20506
 C310 C 0.67546 0.30583 -0.21578
 C311 C 0.65402 0.34017 -0.17462
 C312 C 0.60442 0.36198 -0.18401
 H313 H 0.65317 0.30152 -0.25631
 H314 H 0.67954 0.34836 -0.13704
 H315 H 0.74579 0.28706 -0.16518
 H316 H 0.57845 0.35298 -0.22097
 C317 C 1.22305 0.21883 -0.20501
 C318 C 1.17589 0.19398 -0.21563
 C319 C 1.15514 0.15946 -0.17444
 C320 C 1.10584 0.13731 -0.18374
 H321 H 1.15343 0.19819 -0.25608
 H322 H 1.18088 0.15143 -0.13695
 H323 H 1.24615 0.21299 -0.16520
 H324 H 1.07964 0.14618 -0.22058
 C325 C 1.22606 0.72009 0.29376
 C326 C 1.17454 0.69565 0.28644
 C327 C 1.15681 0.66187 0.32525
 C328 C 1.10420 0.63949 0.31793
 H329 H 1.14815 0.70259 0.24907
 H330 H 1.18428 0.65281 0.36109
 H331 H 1.25258 0.71115 0.33050
 H332 H 1.07591 0.65046 0.28357
 C333 C 0.72272 0.21890 0.29481
 C334 C 0.67532 0.19438 0.28371
 C335 C 0.65348 0.16004 0.32455
 C336 C 0.60396 0.13828 0.31462
 H337 H 0.65333 0.19877 0.24303
 H338 H 0.67874 0.15174 0.36226
 H339 H 0.74544 0.21301 0.33482
 H340 H 0.57822 0.14736 0.27753
 C341 C 0.72258 0.71887 -0.20528
 C342 C 0.67521 0.69433 -0.21631
 C343 C 0.65360 0.66002 -0.17529
 C344 C 0.60409 0.63819 -0.18490
 H345 H 0.65312 0.69869 -0.25693
 H346 H 0.67897 0.65185 -0.13760
 H347 H 0.74533 0.71291 -0.16530
 H348 H 0.57822 0.64714 -0.22195
 C349 C 0.79475 -0.21884 -0.22256
 C350 C 0.78373 -0.19430 -0.17519
 C351 C 0.82475 -0.15999 -0.15358
 C352 C 0.81513 -0.13817 -0.10406
 H353 H 0.74310 -0.19866 -0.15310
 H354 H 0.86243 -0.15183 -0.17895
 H355 H 0.83474 -0.21288 -0.24530
 H356 H 0.77809 -0.14711 -0.07820
 C357 C 0.79502 0.28120 0.27698
 C358 C 0.78440 0.30605 0.32413
 C359 C 0.82560 0.34057 0.34489
 C360 C 0.81630 0.36271 0.39418
 H361 H 0.74395 0.30184 0.34659
 H362 H 0.86308 0.34860 0.31915
 H363 H 0.83483 0.28704 0.25387
 H364 H 0.77945 0.35385 0.42038
 C365 C 0.29380 -0.22006 0.27396
 C366 C 0.28648 -0.19562 0.32548
 C367 C 0.32528 -0.16185 0.34321
 C368 C 0.31796 -0.13947 0.39583
 H369 H 0.24910 -0.20256 0.35187
 H370 H 0.36112 -0.15279 0.31574
 H371 H 0.33054 -0.21113 0.24745
 H372 H 0.28361 -0.15044 0.42412
 C373 C 0.29485 0.28112 -0.22270
 C374 C 0.28375 0.30564 -0.17530
 C375 C 0.32458 0.33999 -0.15346
 C376 C 0.31466 0.36175 -0.10393
 H377 H 0.24307 0.30126 -0.15331
 H378 H 0.36230 0.34829 -0.17871
 H379 H 0.33486 0.28702 -0.24542
 H380 H 0.27757 0.35267 -0.07820
 C381 C 1.20626 -0.22006 0.22602
 C382 C 1.21358 -0.19562 0.17451
 C383 C 1.17478 -0.16185 0.15678
 C384 C 1.18210 -0.13947 0.10416
 H385 H 1.25096 -0.20256 0.14812
 H386 H 1.13894 -0.15279 0.18425
 H387 H 1.16952 -0.21113 0.25254
 H388 H 1.21645 -0.15044 0.07587
 C389 C 1.20521 0.28112 0.72269
 C390 C 1.21631 0.30564 0.67529
 C391 C 1.17548 0.33999 0.65345
 C392 C 1.18540 0.36175 0.60392
 H393 H 1.25699 0.30126 0.65330
 H394 H 1.13776 0.34829 0.67870
 H395 H 1.16520 0.28702 0.74540
 H396 H 1.22249 0.35267 0.57819
 C397 C 0.70531 -0.21884 0.72255
 C398 C 0.71633 -0.19430 0.67517
 C399 C 0.67531 -0.15999 0.65356
 C400 C 0.68493 -0.13817 0.60405
 H401 H 0.75696 -0.19866 0.65308
 H402 H 0.63762 -0.15183 0.67893
 H403 H 0.66532 -0.21288 0.74529
 H404 H 0.72197 -0.14711 0.57818
 C405 C 0.70504 0.28120 0.22301
 C406 C 0.71566 0.30605 0.17586
 C407 C 0.67446 0.34057 0.15510
 C408 C 0.68376 0.36272 0.10581
 H409 H 0.75611 0.30184 0.15340
 H410 H 0.63698 0.34860 0.18084
 H411 H 0.66523 0.28704 0.24611
 H412 H 0.72061 0.35385 0.07960
 C413 C 0.77733 0.21890 0.20517
 C414 C 0.82473 0.19438 0.21628
 C415 C 0.84658 0.16004 0.17544
 C416 C 0.89610 0.13828 0.18537
 H417 H 0.84672 0.19877 0.25696
 H418 H 0.82132 0.15173 0.13773
 H419 H 0.75462 0.21301 0.16516
 H420 H 0.92183 0.14736 0.22246
 C421 C 0.77748 0.71887 0.70527
 C422 C 0.82485 0.69433 0.71630
 C423 C 0.84646 0.66002 0.67528
 C424 C 0.89597 0.63819 0.68489
 H425 H 0.84694 0.69869 0.75692
 H426 H 0.82109 0.65185 0.63759
 H427 H 0.75473 0.71291 0.66529
 H428 H 0.92184 0.64714 0.72194
 C429 C 0.27701 0.21883 0.70500
 C430 C 0.32417 0.19398 0.71562
 C431 C 0.34492 0.15945 0.67443
 C432 C 0.39422 0.13731 0.68373
 H433 H 0.34663 0.19819 0.75607
 H434 H 0.31918 0.15143 0.63694
 H435 H 0.25391 0.21299 0.66519
 H436 H 0.42042 0.14618 0.72057
 C437 C 0.27400 0.72009 0.20622
 C438 C 0.32551 0.69565 0.21355
 C439 C 0.34325 0.66187 0.17474
 C440 C 0.39586 0.63949 0.18206
 H441 H 0.35190 0.70259 0.25092
 H442 H 0.31577 0.65281 0.13890
 H443 H 0.24748 0.71115 0.16948
 H444 H 0.42415 0.65046 0.21642
   
