data_POSCAR
  _audit_creation_date              2014-09-24
  _audit_creation_method            'ToBaCCo'
  _symmetry_space_group_name_H-M    'P1'
  _symmetry_Int_Tables_number       1
  _symmetry_cell_setting            triclinic
  loop_
  _symmetry_equiv_pos_as_xyz
 x,y,z
_cell_length_a 21.8616
_cell_length_b 21.8250
_cell_length_c 22.0464
_cell_angle_alpha 86.866800
_cell_angle_beta 89.772600
_cell_angle_gamma 96.206000
loop_
  _atom_site_label
  _atom_site_type_symbol
  _atom_site_fract_x
  _atom_site_fract_y
  _atom_site_fract_z
C1 C 0.61684 0.62963 -0.00290
 C2 C 0.63035 0.56943 0.01286
 C3 C 0.58148 0.52216 0.02108
 C4 C 0.51971 0.53332 0.01139
 C5 C 0.50803 0.59465 -0.00422
 C6 C 0.55599 0.64327 -0.01088
 C7 C 0.46829 0.48102 0.01506
 C8 C 0.40599 0.49230 0.02038
 C9 C 0.35802 0.44427 0.01727
 C10 C 0.37183 0.38341 0.01524
 C11 C 0.43300 0.37033 0.01406
 C12 C 0.48056 0.41895 0.01124
 H13 H 0.65410 0.66679 -0.00543
 H14 H 0.59283 0.47627 0.03314
 H15 H 0.46194 0.60521 -0.01436
 H16 H 0.39342 0.53826 0.02540
 H17 H 0.33492 0.34612 0.01382
 H18 H 0.52672 0.40693 0.00555
 C19 C -0.01955 0.59978 0.38047
 C20 C -0.00590 0.61735 0.43951
 C21 C -0.00367 0.57108 0.48606
 C22 C -0.01549 0.50785 0.47476
 C23 C -0.02838 0.49191 0.41442
 C24 C -0.03055 0.53751 0.36697
 C25 C -0.01370 0.45926 0.52576
 C26 C -0.00449 0.39794 0.51422
 C27 C -0.00306 0.35289 0.56192
 C28 C -0.00344 0.37013 0.62211
 C29 C -0.01044 0.43116 0.63506
 C30 C -0.02021 0.47382 0.58700
 H31 H -0.01782 0.63520 0.34383
 H32 H 0.00643 0.58531 0.53137
 H33 H -0.03958 0.44426 0.40395
 H34 H 0.00094 0.38384 0.46849
 H35 H 0.00084 0.33580 0.65882
 H36 H -0.03166 0.51868 0.59859
 C37 C 0.61347 -0.00911 0.61614
 C38 C 0.55406 0.00558 0.62672
 C39 C 0.51223 0.00627 0.57919
 C40 C 0.52833 -0.00960 0.52044
 C41 C 0.58927 -0.02355 0.51049
 C42 C 0.63263 -0.02277 0.55794
 C43 C 0.48192 -0.00954 0.47016
 C44 C 0.49997 -0.00349 0.40825
 C45 C 0.45591 -0.00144 0.36224
 C46 C 0.39381 -0.00188 0.37747
 C47 C 0.37485 -0.00667 0.43821
 C48 C 0.41827 -0.01412 0.48384
 H49 H 0.64478 -0.01045 0.65411
 H50 H 0.46770 0.02085 0.58885
 H51 H 0.60416 -0.03295 0.46558
 H52 H 0.54780 0.00049 0.39470
 H53 H 0.36021 0.00211 0.34181
 H54 H 0.40130 -0.02260 0.52995
 O55 O 0.45600 0.00530 -0.09333
 O56 O 0.44955 -0.01238 0.07385
 O57 O 0.43633 0.07602 -0.00535
 O58 O 0.46201 -0.08671 -0.01411
 O59 O 0.56232 -0.06120 -0.00965
 O60 O 0.53675 0.10278 -0.00275
 O61 O 0.54979 0.01442 0.07747
 O62 O 0.55637 0.03063 -0.08866
 Cu63 Cu 0.44096 -0.00745 -0.01014
 Cu64 Cu 0.56145 0.02385 -0.00548
 C65 C 0.50765 0.02158 -0.11936
 C66 C 0.49824 0.00056 0.10402
 C67 C 0.48186 0.11686 -0.00162
 C68 C 0.51645 -0.10172 -0.01449
 O69 O -0.08034 0.55889 0.99390
 O70 O 0.08371 0.53704 0.99798
 O71 O -0.00021 0.53895 0.91268
 O72 O -0.00250 0.55078 1.07898
 O73 O -0.02555 0.44980 1.09182
 O74 O -0.02119 0.43835 0.92589
 O75 O 0.06061 0.43631 1.01249
 O76 O -0.10469 0.45809 1.00694
 Cu77 Cu 0.00344 0.55635 0.99445
 Cu78 Cu -0.02471 0.43545 1.00999
 C79 C -0.12041 0.51259 1.00198
 C80 C 0.10031 0.48324 1.00555
 C81 C -0.01009 0.48635 0.89060
 C82 C -0.01740 0.50272 1.11339
 O83 O -0.00392 -0.09012 0.44226
 O84 O -0.00243 0.07564 0.46416
 O85 O 0.08071 0.00131 0.44117
 O86 O -0.08723 -0.01736 0.46239
 O87 O -0.07466 -0.03254 0.56131
 O88 O 0.09330 -0.01572 0.53989
 O89 O 0.01158 0.05879 0.56264
 O90 O 0.00780 -0.10755 0.54095
 Cu91 Cu -0.00435 -0.00557 0.44254
 Cu92 Cu 0.01066 -0.02598 0.56117
 C93 C 0.00279 -0.12694 0.48774
 C94 C 0.00377 0.09527 0.51722
 C95 C 0.11539 -0.00513 0.48657
 C96 C -0.10945 -0.02786 0.51565
 C97 C -0.28465 0.51731 1.06246
 C98 C -0.30769 0.55608 1.01560
 C99 C -0.26759 0.58055 0.96813
 C100 C -0.20804 0.56451 0.96413
 C101 C -0.18569 0.52352 1.00734
 C102 C -0.22353 0.50027 1.05779
 C103 C -0.31884 0.49956 1.11641
 C104 C -0.29524 0.46315 1.16264
 C105 C -0.23667 0.44485 1.15708
 C106 C -0.20084 0.46350 1.10563
 H107 H -0.36323 0.51527 1.12448
 H108 H -0.32219 0.44993 1.20348
 H109 H -0.21828 0.41722 1.19350
 H110 H -0.15478 0.45012 1.10499
 H111 H -0.28323 0.61038 0.93181
 H112 H -0.17913 0.58393 0.92627
 C113 C 0.27119 0.49105 0.96182
 C114 C 0.29301 0.45750 1.01275
 C115 C 0.25142 0.43232 1.05833
 C116 C 0.18923 0.44085 1.05492
 C117 C 0.16667 0.47509 1.00598
 C118 C 0.20760 0.50004 0.95848
 C119 C 0.31074 0.51384 0.91289
 C120 C 0.28857 0.54562 0.86258
 C121 C 0.22664 0.55438 0.85933
 C122 C 0.18633 0.53146 0.90636
 H123 H 0.35886 0.50668 0.91233
 H124 H 0.31948 0.56287 0.82555
 H125 H 0.20971 0.57839 0.81973
 H126 H 0.13838 0.53758 0.90082
 H127 H 0.26733 0.40570 1.09692
 H128 H 0.15847 0.42104 1.09121
 C129 C 0.04916 -0.29186 0.48897
 C130 C 0.00151 -0.31928 0.45177
 C131 C -0.04124 -0.28177 0.42626
 C132 C -0.03986 -0.22021 0.43906
 C133 C 0.00426 -0.19309 0.47780
 C134 C 0.05007 -0.22840 0.50248
 C135 C 0.09890 -0.32418 0.50869
 C136 C 0.14569 -0.29643 0.54392
 C137 C 0.14547 -0.23534 0.55850
 C138 C 0.09888 -0.20122 0.53733
 H139 H 0.10355 -0.37041 0.49555
 H140 H 0.18307 -0.32211 0.55890
 H141 H 0.18253 -0.21375 0.58504
 H142 H 0.10281 -0.15311 0.54739
 H143 H -0.07817 -0.30082 0.39791
 H144 H -0.07451 -0.19361 0.41908
 C145 C -0.05468 0.25389 0.52154
 C146 C -0.00343 0.28704 0.54876
 C147 C 0.04752 0.25653 0.56573
 C148 C 0.04906 0.19440 0.55505
 C149 C -0.00007 0.16110 0.52665
 C150 C -0.05292 0.19043 0.51025
 C151 C -0.10861 0.28184 0.50725
 C152 C -0.15916 0.24835 0.48188
 C153 C -0.15746 0.18641 0.47093
 C154 C -0.10517 0.15747 0.48515
 H155 H -0.11279 0.32939 0.51634
 H156 H -0.20013 0.27043 0.47127
 H157 H -0.19713 0.16045 0.45188
 H158 H -0.10674 0.10895 0.47713
 H159 H 0.08651 0.28116 0.58733
 H160 H 0.08921 0.17221 0.56868
 C161 C 0.56386 0.06961 -0.28080
 C162 C 0.53565 0.01858 -0.31117
 C163 C 0.49268 -0.02428 -0.28024
 C164 C 0.48109 -0.02014 -0.21860
 C165 C 0.51212 0.02704 -0.18626
 C166 C 0.55158 0.07425 -0.21786
 C167 C 0.60375 0.11631 -0.31181
 C168 C 0.63061 0.16670 -0.28152
 C169 C 0.61783 0.17184 -0.22023
 C170 C 0.57853 0.12637 -0.18858
 H171 H 0.61377 0.11476 -0.35978
 H172 H 0.66093 0.20228 -0.30589
 H173 H 0.63811 0.21153 -0.19717
 H174 H 0.56856 0.13325 -0.14152
 H175 H 0.47052 -0.06323 -0.30324
 H176 H 0.45047 -0.05628 -0.19522
 C177 C 0.50510 0.05352 0.26689
 C178 C 0.47368 0.00043 0.29739
 C179 C 0.45344 -0.05093 0.26457
 C180 C 0.46318 -0.05039 0.20221
 C181 C 0.49399 0.00133 0.17075
 C182 C 0.51558 0.05404 0.20296
 C183 C 0.52399 0.10702 0.29812
 C184 C 0.55291 0.15977 0.26725
 C185 C 0.56308 0.16050 0.20490
 C186 C 0.54459 0.10844 0.17288
 H187 H 0.51603 0.10890 0.34639
 H188 H 0.56701 0.20050 0.29176
 H189 H 0.58490 0.20187 0.18106
 H190 H 0.55220 0.11216 0.12437
 H191 H 0.42867 -0.09146 0.28740
 H192 H 0.44590 -0.09056 0.17811
 C193 C 0.57854 -0.25075 -0.06099
 C194 C 0.54313 -0.29461 -0.02082
 C195 C 0.49595 -0.27415 0.01389
 C196 C 0.48786 -0.21186 0.01441
 C197 C 0.52597 -0.16736 -0.02014
 C198 C 0.57018 -0.18672 -0.06021
 C199 C 0.61868 -0.26957 -0.10517
 C200 C 0.65217 -0.22657 -0.14492
 C201 C 0.64513 -0.16419 -0.14303
 C202 C 0.60409 -0.14432 -0.10179
 H203 H 0.62319 -0.31777 -0.11087
 H204 H 0.68285 -0.24189 -0.17821
 H205 H 0.67051 -0.13112 -0.17472
 H206 H 0.59808 -0.09578 -0.10442
 H207 H 0.46760 -0.30594 0.04454
 H208 H 0.45277 -0.19802 0.04407
 C209 C 0.42784 0.26139 0.06202
 C210 C 0.44717 0.30540 0.01409
 C211 C 0.48002 0.28721 -0.03538
 C212 C 0.49199 0.22612 -0.03912
 C213 C 0.47049 0.18129 0.00594
 C214 C 0.43867 0.19863 0.05739
 C215 C 0.39940 0.27867 0.11523
 C216 C 0.38083 0.23493 0.16199
 C217 C 0.39031 0.17342 0.15693
 C218 C 0.41885 0.15524 0.10526
 H219 H 0.39222 0.32611 0.12177
 H220 H 0.35925 0.24892 0.20252
 H221 H 0.37607 0.13969 0.19349
 H222 H 0.42610 0.10718 0.10383
 H223 H 0.49561 0.32046 -0.07198
 H224 H 0.51683 0.21340 -0.07832
 C225 C -0.28360 -0.07495 0.50971
 C226 C -0.30444 -0.02999 0.54744
 C227 C -0.25994 0.01081 0.57515
 C228 C -0.19755 0.00971 0.56467
 C229 C -0.17648 -0.03143 0.52537
 C230 C -0.21918 -0.07444 0.49754
 C231 C -0.32425 -0.12348 0.48778
 C232 C -0.30298 -0.16683 0.45100
 C233 C -0.24071 -0.16417 0.43674
 C234 C -0.19894 -0.11901 0.46030
 H235 H -0.37243 -0.12988 0.50028
 H236 H -0.33492 -0.20330 0.43424
 H237 H -0.22445 -0.19827 0.40857
 H238 H -0.15069 -0.12027 0.45015
 H239 H -0.27331 0.04633 0.60339
 H240 H -0.16528 0.04286 0.58619
 C241 C 0.28899 0.04136 0.49061
 C242 C 0.30914 -0.00408 0.45359
 C243 C 0.26558 -0.04697 0.42833
 C244 C 0.20309 -0.04600 0.43935
 C245 C 0.18217 -0.00269 0.47667
 C246 C 0.22491 0.04140 0.50291
 C247 C 0.33070 0.08808 0.51401
 C248 C 0.31000 0.13228 0.55012
 C249 C 0.24754 0.13157 0.56290
 C250 C 0.20518 0.08692 0.53928
 H251 H 0.37943 0.09170 0.50406
 H252 H 0.34258 0.16764 0.56787
 H253 H 0.23174 0.16627 0.59062
 H254 H 0.15699 0.08892 0.54918
 H255 H 0.28017 -0.08161 0.39970
 H256 H 0.17067 -0.07996 0.41914
 C257 C -0.07498 0.55489 1.26440
 C258 C -0.03859 0.52206 1.30570
 C259 C -0.00390 0.47754 1.28295
 C260 C 0.00148 0.47120 1.22062
 C261 C -0.02780 0.50871 1.17899
 C262 C -0.06868 0.54902 1.20068
 C263 C -0.12028 0.59057 1.28537
 C264 C -0.15606 0.62207 1.24475
 C265 C -0.14840 0.61799 1.18257
 C266 C -0.10548 0.58174 1.16058
 H267 H -0.12965 0.59306 1.33335
 H268 H -0.19043 0.64920 1.26166
 H269 H -0.17672 0.64204 1.15117
 H270 H -0.10299 0.57841 1.11204
 H271 H 0.02350 0.45085 1.31301
 H272 H 0.03111 0.43862 1.20465
 C273 C 0.03000 0.50163 0.71851
 C274 C -0.00886 0.44992 0.69915
 C275 C -0.04715 0.41456 0.74175
 C276 C -0.04708 0.42849 0.80248
 C277 C -0.00980 0.47933 0.82347
 C278 C 0.02806 0.51798 0.78055
 C279 C 0.07235 0.53638 0.67787
 C280 C 0.10827 0.58861 0.69593
 C281 C 0.10410 0.60657 0.75503
 C282 C 0.06549 0.57141 0.79719
 H283 H 0.07902 0.52343 0.63194
 H284 H 0.13976 0.61513 0.66394
 H285 H 0.13207 0.64740 0.76876
 H286 H 0.06625 0.58765 0.84227
 H287 H -0.07740 0.37523 0.72792
 H288 H -0.07697 0.39879 0.83361
   
