data_POSCAR
  _audit_creation_date              2014-09-24
  _audit_creation_method            'ToBaCCo'
  _symmetry_space_group_name_H-M    'P1'
  _symmetry_Int_Tables_number       1
  _symmetry_cell_setting            triclinic
  loop_
  _symmetry_equiv_pos_as_xyz
 x,y,z
_cell_length_a 48.7220
_cell_length_b 50.0411
_cell_length_c 50.6325
_cell_angle_alpha 86.390000
_cell_angle_beta 88.645300
_cell_angle_gamma 88.049900
loop_
  _atom_site_label
  _atom_site_type_symbol
  _atom_site_fract_x
  _atom_site_fract_y
  _atom_site_fract_z
C1 C 0.20060 0.54121 1.02487
 H2 H 0.20123 0.55516 1.00767
 C3 C 0.17950 0.54351 1.04372
 H4 H 0.16414 0.55955 1.04073
 C5 C 0.21959 0.50303 1.04868
 H6 H 0.23491 0.48690 1.05012
 C7 C 0.19886 0.50460 1.06821
 H8 H 0.19914 0.48944 1.08433
 N9 N 0.21999 0.52117 1.02755
 C10 C 0.28534 0.55023 0.97446
 H11 H 0.28619 0.53447 0.96076
 C12 C 0.30336 0.57131 0.97114
 H13 H 0.31755 0.57173 0.95440
 C14 C 0.26517 0.56862 1.01261
 H15 H 0.25056 0.56722 1.02899
 C16 C 0.28289 0.59006 1.01009
 H17 H 0.28167 0.60515 1.02453
 Zn18 Zn 0.24504 0.51866 0.99871
 N19 N 0.26682 0.54921 0.99496
 C20 C 0.22107 0.53786 0.95053
 N21 N 0.22347 0.51656 0.96845
 C22 C 0.20815 0.49457 0.96676
 C23 C 0.19007 0.49302 0.94599
 C24 C 0.20262 0.53754 0.92988
 C25 C 0.28688 0.48814 1.02398
 C26 C 0.30729 0.46800 1.02714
 C27 C 0.29151 0.44880 0.98786
 C28 C 0.27157 0.46948 0.98534
 N29 N 0.26954 0.48857 1.00332
 H30 H 0.23266 0.55558 0.95278
 H31 H 0.20962 0.47839 0.98192
 H32 H 0.17783 0.47543 0.94576
 H33 H 0.20059 0.55498 0.91617
 H34 H 0.28524 0.50389 1.03767
 H35 H 0.32113 0.46840 1.04355
 H36 H 0.29273 0.43454 0.97271
 H37 H 0.25840 0.47068 0.96845
 C38 C 0.30264 0.59133 0.98946
 C39 C 0.17803 0.52496 1.06574
 C40 C 0.31005 0.44797 1.00889
 C41 C 0.18686 0.51490 0.92726
 C42 C 0.79909 0.50451 -0.01124
 H43 H 0.79708 0.51750 0.00505
 C44 C 0.82074 0.50754 -0.02948
 H45 H 0.83535 0.52303 -0.02719
 C46 C 0.78277 0.46807 -0.03342
 H47 H 0.76825 0.45233 -0.03444
 C48 C 0.80421 0.47040 -0.05221
 H49 H 0.80584 0.45622 -0.06745
 N50 N 0.78063 0.48509 -0.01351
 C51 C 0.71177 0.51701 0.03238
 H52 H 0.71016 0.50214 0.04875
 C53 C 0.69301 0.53880 0.03045
 H54 H 0.67693 0.54043 0.04542
 C55 C 0.73344 0.53168 -0.00812
 H56 H 0.74859 0.52842 -0.02359
 C57 C 0.71495 0.55347 -0.01099
 H58 H 0.71630 0.56699 -0.02851
 Zn59 Zn 0.75390 0.48222 0.01397
 N60 N 0.73146 0.51387 0.01321
 C61 C 0.77371 0.49584 0.06386
 N62 N 0.77399 0.47722 0.04543
 C63 C 0.79208 0.45595 0.04664
 C64 C 0.81147 0.45317 0.06650
 C65 C 0.79282 0.49388 0.08415
 C66 C 0.71477 0.45544 -0.01216
 C67 C 0.69580 0.43594 -0.01627
 C68 C 0.71027 0.41219 0.02432
 C69 C 0.72889 0.43228 0.02768
 N70 N 0.73076 0.45337 0.00953
 H71 H 0.75966 0.51300 0.06210
 H72 H 0.79226 0.44177 0.03136
 H73 H 0.82620 0.43644 0.06646
 H74 H 0.79247 0.50961 0.09780
 H75 H 0.71659 0.47255 -0.02619
 H76 H 0.68374 0.43856 -0.03389
 H77 H 0.70896 0.39571 0.03920
 H78 H 0.74146 0.43122 0.04504
 C79 C 0.69434 0.55715 0.00830
 C80 C 0.82357 0.49041 -0.05029
 C81 C 0.69301 0.41394 0.00234
 C82 C 0.81265 0.47262 0.08524
 C83 C -0.02222 0.28415 0.47119
 H84 H -0.03824 0.28277 0.48633
 C85 C -0.02388 0.30432 0.45090
 H86 H -0.04163 0.31784 0.45102
 C87 C 0.02120 0.26908 0.45497
 H88 H 0.03915 0.25592 0.45723
 C89 C 0.02071 0.28928 0.43465
 H90 H 0.03828 0.29094 0.42118
 N91 N 0.00015 0.26722 0.47299
 C92 C -0.02472 0.20672 0.53392
 H93 H -0.00761 0.20777 0.54701
 C94 C -0.04487 0.18797 0.53964
 H95 H -0.04321 0.17470 0.55732
 C96 C -0.04684 0.22198 0.49435
 H97 H -0.04702 0.23468 0.47629
 C98 C -0.06749 0.20345 0.49930
 H99 H -0.08325 0.20233 0.48479
 Zn100 Zn 0.00424 0.24545 0.50456
 N101 N -0.02602 0.22325 0.51162
 C102 C -0.01013 0.27080 0.55222
 N103 N 0.00790 0.26941 0.53142
 C104 C 0.02835 0.28709 0.52751
 C105 C 0.03127 0.30728 0.54483
 C106 C -0.00798 0.29074 0.57014
 C107 C 0.03558 0.20369 0.48431
 C108 C 0.05688 0.18440 0.48311
 C109 C 0.07860 0.20472 0.51892
 C110 C 0.05674 0.22349 0.51953
 N111 N 0.03574 0.22254 0.50245
 H112 H -0.02668 0.25696 0.55457
 H113 H 0.04209 0.28579 0.51051
 H114 H 0.04758 0.32131 0.54101
 H115 H -0.02302 0.29140 0.58610
 H116 H 0.01853 0.20337 0.47104
 H117 H 0.05576 0.16993 0.46830
 H118 H 0.09488 0.20564 0.53302
 H119 H 0.05628 0.23833 0.53414
 C120 C -0.06653 0.18600 0.52219
 C121 C -0.00174 0.30775 0.43261
 C122 C 0.07869 0.18437 0.50099
 C123 C 0.01284 0.30963 0.56638
 C124 C 0.97138 0.70486 0.52095
 H125 H 0.95724 0.70836 0.50485
 C126 C 0.96897 0.68228 0.53829
 H127 H 0.95271 0.66855 0.53552
 C128 C 1.01043 0.71804 0.54328
 H129 H 1.02704 0.73163 0.54462
 C130 C 1.00881 0.69559 0.56110
 H131 H 1.02434 0.69244 0.57595
 N132 N 0.99186 0.72217 0.52369
 C133 C 0.96274 0.79368 0.47799
 H134 H 0.97949 0.79589 0.46369
 C135 C 0.94099 0.81258 0.47776
 H136 H 0.94099 0.82895 0.46275
 C137 C 0.94262 0.76934 0.51473
 H138 H 0.94362 0.75280 0.52949
 C139 C 0.92039 0.78773 0.51514
 H140 H 0.90430 0.78503 0.53011
 Zn141 Zn 0.99501 0.74979 0.49676
 N142 N 0.96326 0.77268 0.49637
 C143 C 0.97772 0.73288 0.44778
 N144 N 0.99889 0.73224 0.46483
 C145 C 1.02114 0.71548 0.46185
 C146 C 1.02250 0.69801 0.44137
 C147 C 0.97797 0.71542 0.42732
 C148 C 1.02361 0.78518 0.52474
 C149 C 1.04380 0.80311 0.52988
 C150 C 1.06723 0.79221 0.48917
 C151 C 1.04643 0.77449 0.48478
 N152 N 1.02521 0.77132 0.50252
 H153 H 0.95984 0.74574 0.45097
 H154 H 1.03725 0.71473 0.47625
 H155 H 1.04003 0.68427 0.44047
 H156 H 0.96033 0.71551 0.41466
 H157 H 1.00627 0.78259 0.53830
 H158 H 1.04178 0.81412 0.54762
 H159 H 1.08343 0.79445 0.47435
 H160 H 1.04695 0.76381 0.46688
 C161 C 0.91968 0.80997 0.49686
 C162 C 0.98790 0.67725 0.55857
 C163 C 1.06597 0.80710 0.51196
 C164 C 1.00025 0.69722 0.42415
 C165 C 0.48642 -0.03598 0.28237
 H166 H 0.50435 -0.04902 0.27990
 C167 C 0.46851 -0.04066 0.30392
 H168 H 0.47265 -0.05753 0.31789
 C169 C 0.46030 0.00281 0.26799
 H170 H 0.45782 0.02031 0.25453
 C171 C 0.44177 -0.00116 0.28930
 H172 H 0.42523 0.01348 0.29177
 N173 N 0.48223 -0.01440 0.26511
 C174 C 0.53623 -0.03169 0.19827
 H175 H 0.54913 -0.01452 0.19838
 C176 C 0.53958 -0.04946 0.17824
 H177 H 0.55543 -0.04574 0.16319
 C178 C 0.49930 -0.05627 0.21737
 H179 H 0.48314 -0.05834 0.23228
 C180 C 0.50191 -0.07466 0.19768
 H181 H 0.48757 -0.09067 0.19842
 Zn182 Zn 0.51089 -0.00716 0.24018
 N183 N 0.51619 -0.03519 0.21712
 C184 C 0.56186 -0.02387 0.26194
 N185 N 0.54259 -0.00359 0.26029
 C186 C 0.54314 0.01717 0.27631
 C187 C 0.56349 0.01796 0.29520
 C188 C 0.58222 -0.02421 0.28092
 C189 C 0.48032 0.02238 0.20279
 C190 C 0.47444 0.04240 0.18317
 C191 C 0.51434 0.06561 0.19576
 C192 C 0.51947 0.04499 0.21518
 N193 N 0.50262 0.02385 0.21815
 H194 H 0.56052 -0.04063 0.24962
 H195 H 0.52695 0.03252 0.27525
 H196 H 0.56245 0.03428 0.30821
 H197 H 0.59670 -0.04113 0.28256
 H198 H 0.46759 0.00506 0.20522
 H199 H 0.45687 0.04033 0.17082
 H200 H 0.52868 0.08162 0.19356
 H201 H 0.53756 0.04539 0.22706
 C202 C 0.52203 -0.07113 0.17726
 C203 C 0.44606 -0.02298 0.30783
 C204 C 0.49177 0.06422 0.17898
 C205 C 0.58304 -0.00338 0.29823
 C206 C 0.52215 -0.01183 0.71191
 H207 H 0.50525 -0.02537 0.71323
 C208 C 0.54379 -0.01583 0.69382
 H209 H 0.54356 -0.03292 0.68179
 C210 C 0.54262 0.02690 0.72616
 H211 H 0.54180 0.04390 0.73830
 C212 C 0.56472 0.02357 0.70846
 H213 H 0.58090 0.03795 0.70739
 N214 N 0.52185 0.00933 0.72752
 C215 C 0.46553 -0.00936 0.79377
 H216 H 0.45161 0.00790 0.79144
 C217 C 0.46282 -0.02732 0.81580
 H218 H 0.44655 -0.02388 0.83026
 C219 C 0.50446 -0.03393 0.77832
 H220 H 0.52116 -0.03591 0.76408
 C221 C 0.50248 -0.05246 0.80012
 H222 H 0.51788 -0.06847 0.80221
 Zn223 Zn 0.49019 0.01524 0.74913
 N224 N 0.48614 -0.01285 0.77564
 C225 C 0.43880 0.00033 0.73006
 N226 N 0.45965 0.01765 0.72652
 C227 C 0.46061 0.03554 0.70522
 C228 C 0.44044 0.03607 0.68600
 C229 C 0.41805 0.00030 0.71149
 C230 C 0.51321 0.04573 0.78595
 C231 C 0.51539 0.06642 0.80291
 C232 C 0.47672 0.08926 0.78141
 C233 C 0.47531 0.06801 0.76482
 N234 N 0.49331 0.04671 0.76756
 H235 H 0.43861 -0.01409 0.74685
 H236 H 0.47758 0.04894 0.70278
 H237 H 0.44226 0.05052 0.66937
 H238 H 0.40195 -0.01406 0.71455
 H239 H 0.52706 0.02839 0.78787
 H240 H 0.53155 0.06440 0.81715
 H241 H 0.46181 0.10578 0.77923
 H242 H 0.45934 0.06819 0.75035
 C243 C 0.48151 -0.04910 0.81935
 C244 C 0.56525 0.00233 0.69164
 C245 C 0.49655 0.08849 0.80126
 C246 C 0.41892 0.01783 0.68867
 C247 C 0.23094 -0.03657 0.50106
 C248 C 0.24150 -0.01079 0.50036
 C249 C 0.22355 0.01172 0.50061
 C250 C 0.19497 0.00858 0.50123
 C251 C 0.18471 -0.01732 0.50234
 C252 C 0.20250 -0.04003 0.50262
 C253 C 0.27129 -0.00719 0.49736
 C254 C 0.28415 -0.01003 0.47262
 C255 C 0.31230 -0.00584 0.46902
 C256 C 0.32754 0.00144 0.49055
 C257 C 0.31498 0.00408 0.51556
 C258 C 0.28663 -0.00007 0.51878
 H259 H 0.24487 -0.05389 0.50046
 H260 H 0.23201 0.03149 0.49894
 H261 H 0.27210 -0.01527 0.45609
 H262 H 0.27628 0.00270 0.53761
 H263 H 0.16270 -0.01969 0.50215
 H264 H 0.34914 0.00551 0.48787
 C265 C 0.77472 -0.01560 0.50229
 C266 C 0.75680 0.00688 0.50343
 C267 C 0.76730 0.03226 0.50629
 C268 C 0.79562 0.03528 0.50848
 C269 C 0.81342 0.01270 0.50694
 C270 C 0.80325 -0.01278 0.50385
 C271 C 0.72715 0.00405 0.50016
 C272 C 0.71022 -0.00349 0.52195
 C273 C 0.68189 -0.00646 0.51872
 C274 C 0.67109 -0.00298 0.49320
 C275 C 0.68793 0.00479 0.47133
 C276 C 0.71585 0.00872 0.47505
 H277 H 0.76629 -0.03485 0.49916
 H278 H 0.75339 0.04961 0.50679
 H279 H 0.71931 -0.00712 0.54120
 H280 H 0.72897 0.01483 0.45830
 H281 H 0.83543 0.01500 0.50737
 H282 H 0.64931 -0.00528 0.49051
 C283 C 0.52006 0.28308 0.97932
 C284 C 0.49637 0.26806 0.98317
 C285 C 0.47051 0.28111 0.98475
 C286 C 0.46818 0.30916 0.98262
 C287 C 0.49200 0.32403 0.97819
 C288 C 0.51799 0.31120 0.97691
 C289 C 0.49875 0.23868 0.98674
 C290 C 0.49846 0.22633 1.01236
 C291 C 0.50113 0.19841 1.01623
 C292 C 0.50462 0.18292 0.99410
 C293 C 0.50480 0.19501 0.96831
 C294 C 0.50189 0.22306 0.96473
 H295 H 0.53993 0.27280 0.97804
 H296 H 0.45228 0.26942 0.98807
 H297 H 0.49616 0.23852 1.02929
 H298 H 0.50269 0.23288 0.94507
 H299 H 0.49041 0.34569 0.97581
 H300 H 0.50763 0.16139 0.99686
 C301 C 0.52658 0.72041 0.00872
 C302 C 0.50263 0.73483 0.00086
 C303 C 0.48039 0.72128 -0.00843
 C304 C 0.48205 0.69334 -0.00997
 C305 C 0.50655 0.67935 -0.00323
 C306 C 0.52893 0.69273 0.00605
 C307 C 0.50139 0.76426 0.00110
 C308 C 0.50031 0.77986 -0.02283
 C309 C 0.49973 0.80791 -0.02309
 C310 C 0.50041 0.82029 0.00111
 C311 C 0.50156 0.80475 0.02528
 C312 C 0.50192 0.77673 0.02505
 H313 H 0.54380 0.73092 0.01575
 H314 H 0.46205 0.73258 -0.01461
 H315 H 0.50011 0.77007 -0.04133
 H316 H 0.50276 0.76456 0.04352
 H317 H 0.50791 0.65780 -0.00456
 H318 H 0.50012 0.84188 0.00118
 C319 C 1.00832 0.52912 0.28975
 C320 C 0.99857 0.50719 0.27727
 C321 C 0.98905 0.48494 0.29257
 C322 C 0.99012 0.48409 0.32021
 C323 C 0.99905 0.50645 0.33263
 C324 C 1.00766 0.52925 0.31744
 C325 C 0.99811 0.50743 0.24820
 C326 C 1.02272 0.50783 0.23332
 C327 C 1.02246 0.50724 0.20568
 C328 C 0.99715 0.50598 0.19300
 C329 C 0.97235 0.50549 0.20783
 C330 C 0.97304 0.50642 0.23539
 H331 H 1.01526 0.54650 0.27791
 H332 H 0.98183 0.46786 0.28289
 H333 H 1.04209 0.50838 0.24334
 H334 H 0.95405 0.50607 0.24699
 H335 H 0.99921 0.50615 0.35405
 H336 H 0.99673 0.50524 0.17172
 C337 C 0.00569 0.50974 0.71948
 C338 C 0.00202 0.48535 0.73403
 C339 C -0.00221 0.46210 0.72093
 C340 C -0.00199 0.46290 0.69322
 C341 C 0.00106 0.48760 0.67872
 C342 C 0.00452 0.51121 0.69180
 C343 C 0.00262 0.48428 0.76303
 C344 C -0.02196 0.48318 0.77791
 C345 C -0.02170 0.48365 0.80555
 C346 C 0.00363 0.48464 0.81820
 C347 C 0.02835 0.48530 0.80337
 C348 C 0.02773 0.48502 0.77578
 H349 H 0.00874 0.52771 0.72981
 H350 H -0.00488 0.44325 0.73233
 H351 H -0.04132 0.48247 0.76787
 H352 H 0.04674 0.48563 0.76421
 H353 H 0.00075 0.48840 0.65735
 H354 H 0.00440 0.48381 0.83957
 C355 C 0.10004 0.16464 0.50217
 C356 C 0.10070 0.14136 0.48820
 C357 C 0.12209 0.12011 0.49212
 N358 N 0.11878 0.09610 0.48182
 N359 N 0.13744 0.07628 0.48565
 C360 C 0.16021 0.07971 0.49986
 N361 N 0.16371 0.10384 0.50995
 N362 N 0.14494 0.12366 0.50623
 C363 C 0.18079 0.05774 0.50426
 C364 C 0.17514 0.03160 0.49852
 H365 H 0.08433 0.13720 0.47523
 H366 H 0.20013 0.06215 0.51282
 H367 H 0.11641 0.16689 0.51592
 H368 H 0.15472 0.02756 0.49208
 C369 C 0.67316 0.57856 0.00327
 C370 C 0.65715 0.59000 0.02305
 C371 C 0.63391 0.60853 0.01631
 N372 N 0.62202 0.62388 0.03487
 N373 N 0.60034 0.63996 0.02896
 C374 C 0.58969 0.64106 0.00434
 N375 N 0.60150 0.62563 -0.01412
 N376 N 0.62326 0.60976 -0.00829
 C377 C 0.56492 0.65737 -0.00232
 C378 C 0.55476 0.67790 0.01289
 H379 H 0.66159 0.58532 0.04371
 H380 H 0.55457 0.65334 -0.02029
 H381 H 0.67004 0.58566 -0.01714
 H382 H 0.56662 0.68412 0.02913
 C383 C 0.89682 -0.16986 0.49848
 C384 C 0.89962 -0.14304 0.48984
 C385 C 0.87777 -0.12245 0.49328
 N386 N 0.88310 -0.09638 0.48700
 N387 N 0.86386 -0.07729 0.49032
 C388 C 0.83849 -0.08351 0.50000
 N389 N 0.83305 -0.10963 0.50612
 N390 N 0.85235 -0.12877 0.50287
 C391 C 0.81719 -0.06239 0.50388
 C392 C 0.82334 -0.03531 0.50066
 H393 H 0.91902 -0.13635 0.48146
 H394 H 0.79680 -0.06839 0.51006
 H395 H 0.87797 -0.17586 0.50863
 H396 H 0.84444 -0.03017 0.49615
 C397 C 0.33196 0.42898 1.01168
 C398 C 0.33658 0.40720 0.99590
 C399 C 0.36223 0.39076 0.99722
 N400 N 0.36496 0.36836 0.98346
 N401 N 0.38857 0.35408 0.98339
 C402 C 0.41036 0.36180 0.99698
 N403 N 0.40761 0.38417 1.01074
 N404 N 0.38399 0.39836 1.01090
 C405 C 0.43705 0.34724 0.99606
 C406 C 0.44079 0.32262 0.98476
 H407 H 0.32158 0.40190 0.98194
 H408 H 0.45431 0.35623 1.00479
 H409 H 0.34665 0.43162 1.02699
 H410 H 0.42309 0.31239 0.97840
 C411 C 0.91385 0.16425 0.52770
 C412 C 0.88938 0.16188 0.51433
 C413 C 0.87306 0.13764 0.51816
 N414 N 0.84956 0.13563 0.50464
 N415 N 0.83554 0.11314 0.50682
 C416 C 0.84456 0.09184 0.52262
 N417 N 0.86792 0.09393 0.53626
 N418 N 0.88189 0.11640 0.53411
 C419 C 0.83078 0.06611 0.52383
 C420 C 0.80651 0.06227 0.51070
 H421 H 0.88227 0.17755 0.50021
 H422 H 0.84071 0.04936 0.53481
 H423 H 0.91941 0.14883 0.54280
 H424 H 0.79519 0.07942 0.50183
 C425 C 0.32236 0.61330 -0.01197
 C426 C 0.34795 0.61141 -0.02484
 C427 C 0.36892 0.63165 -0.02318
 N428 N 0.39451 0.62682 -0.03326
 N429 N 0.41429 0.64413 -0.03076
 C430 C 0.40921 0.66700 -0.01815
 N431 N 0.38349 0.67205 -0.00840
 N432 N 0.36370 0.65468 -0.01084
 C433 C 0.43141 0.68532 -0.01370
 C434 C 0.45886 0.67802 -0.01864
 H435 H 0.35392 0.59363 -0.03490
 H436 H 0.42622 0.70363 -0.00415
 H437 H 0.31755 0.63058 -0.00063
 H438 H 0.46366 0.65871 -0.02647
 C439 C 0.08501 -0.17344 0.51715
 C440 C 0.10830 -0.16707 0.50157
 C441 C 0.12463 -0.14368 0.50650
 N442 N 0.14782 -0.13854 0.49192
 N443 N 0.16184 -0.11660 0.49526
 C444 C 0.15310 -0.09899 0.51326
 N445 N 0.13001 -0.10421 0.52789
 N446 N 0.11608 -0.12614 0.52462
 C447 C 0.16685 -0.07364 0.51593
 C448 C 0.19152 -0.06725 0.50287
 H449 H 0.11461 -0.17864 0.48506
 H450 H 0.15669 -0.05916 0.52819
 H451 H 0.08099 -0.16199 0.53440
 H452 H 0.20314 -0.08254 0.49277
 C453 C 0.67347 0.39406 1.00024
 C454 C 0.65321 0.39471 0.98101
 C455 C 0.63174 0.37470 0.98126
 N456 N 0.60993 0.37909 0.96521
 N457 N 0.58972 0.36180 0.96577
 C458 C 0.59061 0.33936 0.98231
 N459 N 0.61261 0.33475 0.99811
 N460 N 0.63279 0.35214 0.99765
 C461 C 0.56780 0.32073 0.98390
 C462 C 0.54240 0.32784 0.97287
 H463 H 0.65148 0.41102 0.96610
 H464 H 0.57040 0.30206 0.99570
 H465 H 0.67333 0.37763 1.01526
 H466 H 0.53951 0.34759 0.96308
 C467 C 0.48658 0.08258 1.15731
 C468 C 0.50183 0.10522 1.15016
 C469 C 0.49791 0.12041 1.12455
 N470 N 0.51101 0.14369 1.11902
 N471 N 0.50863 0.15684 1.09540
 C472 C 0.49318 0.14709 1.07641
 N473 N 0.48011 0.12385 1.08195
 N474 N 0.48238 0.11079 1.10557
 C475 C 0.49138 0.16046 1.04977
 C476 C 0.50137 0.18592 1.04350
 H477 H 0.51740 0.11186 1.16286
 H478 H 0.48162 0.14991 1.03470
 H479 H 0.46988 0.07840 1.14456
 H480 H 0.50867 0.19746 1.05917
 C481 C -0.01418 0.65200 0.57532
 C482 C 0.00092 0.64559 0.59808
 C483 C -0.00088 0.61920 0.61251
 N484 N 0.01310 0.61386 0.63520
 N485 N 0.01188 0.58990 0.64819
 C486 C -0.00332 0.57039 0.63889
 N487 N -0.01723 0.57573 0.61618
 N488 N -0.01604 0.59967 0.60324
 C489 C -0.00497 0.54380 0.65280
 C490 C 0.00715 0.53758 0.67720
 H491 H 0.01434 0.65990 0.60568
 H492 H -0.01701 0.52912 0.64389
 H493 H -0.02839 0.63751 0.56919
 H494 H 0.01734 0.55314 0.68679
 C495 C 0.47937 0.93351 -0.15591
 C496 C 0.49284 0.90857 -0.15180
 C497 C 0.49145 0.89316 -0.12604
 N498 N 0.50336 0.86826 -0.12327
 N499 N 0.50269 0.85433 -0.09996
 C500 C 0.49015 0.86481 -0.07850
 N501 N 0.47829 0.88972 -0.08126
 N502 N 0.47890 0.90362 -0.10458
 C503 C 0.48959 0.84989 -0.05248
 C504 C 0.49951 0.82344 -0.04900
 H505 H 0.50461 0.89988 -0.16766
 H506 H 0.48055 0.85993 -0.03592
 H507 H 0.46636 0.94080 -0.14007
 H508 H 0.50655 0.81320 -0.06627
 C509 C 0.99975 0.32882 0.41458
 C510 C 0.97876 0.34816 0.40948
 C511 C 0.98425 0.37357 0.39440
 N512 N 0.96334 0.38838 0.38302
 N513 N 0.96800 0.41200 0.37033
 C514 C 0.99368 0.42183 0.36895
 N515 N 1.01451 0.40714 0.38056
 N516 N 1.00991 0.38340 0.39297
 C517 C 0.99917 0.44799 0.35543
 C518 C 0.98232 0.45951 0.33571
 H519 H 0.95789 0.34509 0.41639
 H520 H 1.01814 0.45745 0.35960
 H521 H 1.01887 0.33150 0.40343
 H522 H 0.96516 0.44853 0.32927
 C523 C 0.52464 0.91330 0.15636
 C524 C 0.50876 0.89121 0.15203
 C525 C 0.51067 0.87790 0.12687
 N526 N 0.49684 0.85518 0.12409
 N527 N 0.49766 0.84349 0.10114
 C528 C 0.51222 0.85416 0.08006
 N529 N 0.52599 0.87689 0.08281
 N530 N 0.52526 0.88851 0.10578
 C531 C 0.51278 0.84197 0.05434
 C532 C 0.50166 0.81711 0.05107
 H533 H 0.49426 0.88337 0.16676
 H534 H 0.52284 0.85267 0.03778
 H535 H 0.53997 0.91858 0.14120
 H536 H 0.49385 0.80561 0.06832
 C537 C 0.01553 0.33132 0.58239
 C538 C -0.00114 0.33680 0.60440
 C539 C 0.00149 0.36167 0.61804
 N540 N -0.01352 0.36579 0.64043
 N541 N -0.01169 0.38852 0.65256
 C542 C 0.00515 0.40798 0.64266
 N543 N 0.02007 0.40389 0.62026
 N544 N 0.01830 0.38117 0.60819
 C545 C 0.00734 0.43331 0.65549
 C546 C -0.00508 0.43774 0.67997
 H547 H -0.01664 0.32321 0.61188
 H548 H 0.02003 0.44845 0.64572
 H549 H 0.03154 0.34527 0.57689
 H550 H -0.01575 0.42160 0.69063
 C551 C 0.49615 0.10915 0.81906
 C552 C 0.51295 0.10942 0.84113
 C553 C 0.50981 0.12961 0.86102
 N554 N 0.52408 0.12608 0.88371
 N555 N 0.52103 0.14345 0.90250
 C556 C 0.50364 0.16513 0.89931
 N557 N 0.48957 0.16889 0.87646
 N558 N 0.49253 0.15140 0.85767
 C559 C 0.49965 0.18400 0.92041
 C560 C 0.50937 0.17771 0.94586
 H561 H 0.52810 0.09363 0.84542
 H562 H 0.48765 0.20230 0.91620
 H563 H 0.48095 0.12535 0.81621
 H564 H 0.51936 0.15828 0.95006
 C565 C 0.99830 0.67758 0.40563
 C566 C 1.01942 0.65935 0.39913
 C567 C 1.01382 0.63535 0.38504
 N568 N 1.03457 0.62181 0.37277
 N569 N 1.02984 0.59923 0.36123
 C570 C 1.00425 0.58920 0.36190
 N571 N 0.98358 0.60263 0.37433
 N572 N 0.98824 0.62533 0.38559
 C573 C 0.99872 0.56387 0.35018
 C574 C 1.01527 0.55355 0.33019
 H575 H 1.04039 0.66219 0.40458
 H576 H 0.98001 0.55388 0.35627
 H577 H 0.97871 0.67585 0.39624
 H578 H 1.03212 0.56509 0.32176
 C579 C 1.15638 0.52712 0.08282
 C580 C 1.15179 0.51072 0.10587
 C581 C 1.12599 0.51302 0.12149
 N582 N 1.12339 0.49942 0.14542
 N583 N 1.09991 0.50085 0.15939
 C584 C 1.07810 0.51581 0.14987
 N585 N 1.08067 0.52931 0.12591
 N586 N 1.10417 0.52798 0.11201
 C587 C 1.05178 0.51711 0.16465
 C588 C 1.04894 0.50679 0.19076
 H589 H 1.16691 0.49590 0.11303
 H590 H 1.03442 0.52706 0.15481
 H591 H 1.14092 0.54276 0.07829
 H592 H 1.06704 0.49910 0.20111
 C593 C 0.58815 0.00010 0.67201
 C594 C 0.58614 -0.01288 0.64853
 C595 C 0.60798 -0.01202 0.62788
 N596 N 0.60367 -0.02229 0.60421
 N597 N 0.62275 -0.02072 0.58492
 C598 C 0.64691 -0.00885 0.58861
 N599 N 0.65134 0.00118 0.61237
 N600 N 0.63224 -0.00035 0.63164
 C601 C 0.66774 -0.00583 0.56714
 C602 C 0.66291 -0.01277 0.54140
 H603 H 0.56739 -0.02252 0.64416
 H604 H 0.68649 0.00387 0.57146
 H605 H 0.60652 0.01099 0.67516
 H606 H 0.64326 -0.02088 0.53719
 C607 C -0.15234 0.49344 0.93156
 C608 C -0.14924 0.48163 0.90738
 C609 C -0.12405 0.48480 0.89103
 N610 N -0.12170 0.47378 0.86724
 N611 N -0.09876 0.47624 0.85254
 C612 C -0.07734 0.48982 0.86114
 N613 N -0.07971 0.50083 0.88490
 N614 N -0.10262 0.49839 0.89955
 C615 C -0.05159 0.49230 0.84564
 C616 C -0.04800 0.48225 0.82069
 H617 H -0.16540 0.47000 0.90004
 H618 H -0.03516 0.50266 0.85420
 H619 H -0.13622 0.50603 0.93754
 H620 H -0.06533 0.47384 0.81149
 C621 C 0.42939 -0.02662 0.33256
 C622 C 0.40368 -0.01424 0.33673
 C623 C 0.38995 -0.01556 0.36299
 N624 N 0.36395 -0.00542 0.36593
 N625 N 0.35175 -0.00557 0.38979
 C626 C 0.36518 -0.01574 0.41159
 N627 N 0.39117 -0.02585 0.40864
 N628 N 0.40331 -0.02580 0.38479
 C629 C 0.35250 -0.01514 0.43822
 C630 C 0.32491 -0.00790 0.44233
 H631 H 0.39339 -0.00307 0.32065
 H632 H 0.36527 -0.02094 0.45497
 H633 H 0.43811 -0.03941 0.34851
 H634 H 0.31178 -0.00453 0.42538
 C635 C 0.16736 0.51561 0.90721
 C636 C 0.15380 0.49324 0.89970
 C637 C 0.13016 0.49600 0.88219
 N638 N 0.12303 0.47510 0.86828
 N639 N 0.10071 0.47693 0.85349
 C640 C 0.08454 0.49961 0.85239
 N641 N 0.09157 0.52043 0.86646
 N642 N 0.11407 0.51872 0.88098
 C643 C 0.05897 0.50122 0.83759
 C644 C 0.05493 0.48523 0.81660
 H645 H 0.16068 0.47318 0.90621
 H646 H 0.04306 0.51560 0.84308
 H647 H 0.16263 0.53469 0.89667
 H648 H 0.07193 0.47326 0.80898
 C649 C 0.60172 -0.00582 0.31910
 C650 C 0.60654 0.01428 0.33623
 C651 C 0.62132 0.00846 0.36104
 N652 N 0.63250 0.02861 0.37346
 N653 N 0.64454 0.02374 0.39671
 C654 C 0.64547 -0.00138 0.40857
 N655 N 0.63412 -0.02148 0.39625
 N656 N 0.62237 -0.01667 0.37286
 C657 C 0.65743 -0.00680 0.43482
 C658 C 0.67650 0.00990 0.44470
 H659 H 0.59947 0.03474 0.33173
 H660 H 0.65178 -0.02486 0.44631
 H661 H 0.61285 -0.02482 0.32254
 H662 H 0.68458 0.02614 0.43198
 C663 C 0.83463 0.47082 0.10289
 C664 C 0.83943 0.48900 0.12203
 C665 C 0.86570 0.48858 0.13589
 N666 N 0.86896 0.50487 0.15594
 N667 N 0.89305 0.50556 0.16778
 C668 C 0.91483 0.49012 0.15987
 N669 N 0.91158 0.47388 0.13979
 N670 N 0.88748 0.47310 0.12804
 C671 C 0.94178 0.49114 0.17218
 C672 C 0.94543 0.50446 0.19514
 H673 H 0.82439 0.50444 0.12668
 H674 H 0.95895 0.48039 0.16333
 H675 H 0.84978 0.45467 0.10073
 H676 H 0.92763 0.51304 0.20513
 C677 C 0.39887 0.01571 0.66933
 C678 C 0.39902 0.02933 0.64429
 C679 C 0.37923 0.02386 0.62386
 N680 N 0.38301 0.03437 0.59873
 N681 N 0.36599 0.02887 0.57973
 C682 C 0.34446 0.01271 0.58515
 N683 N 0.34049 0.00244 0.61036
 N684 N 0.35759 0.00785 0.62935
 C685 C 0.32595 0.00586 0.56416
 C686 C 0.33196 0.01213 0.53743
 H687 H 0.41486 0.04317 0.63838
 H688 H 0.30814 -0.00566 0.56989
 H689 H 0.38288 0.00141 0.67359
 H690 H 0.35102 0.02187 0.53213
   
