data_POSCAR
  _audit_creation_date              2014-09-24
  _audit_creation_method            'ToBaCCo'
  _symmetry_space_group_name_H-M    'P1'
  _symmetry_Int_Tables_number       1
  _symmetry_cell_setting            triclinic
  loop_
  _symmetry_equiv_pos_as_xyz
 x,y,z
_cell_length_a 32.3021
_cell_length_b 30.1528
_cell_length_c 14.8953
_cell_angle_alpha 89.919000
_cell_angle_beta 89.940400
_cell_angle_gamma 128.797600
loop_
  _atom_site_label
  _atom_site_type_symbol
  _atom_site_fract_x
  _atom_site_fract_y
  _atom_site_fract_z
C1 C 0.47376 0.88990 0.58381
 C2 C 0.47019 0.86540 0.50098
 C3 C 0.47346 0.89055 0.41972
 C4 C 0.48638 0.94480 0.41934
 C5 C 0.49506 0.97308 0.50151
 C6 C 0.48835 0.94550 0.58409
 C7 C 0.49831 0.97532 0.66416
 C8 C 0.51015 1.02820 0.66385
 C9 C 0.51755 1.05683 0.58322
 C10 C 0.50941 1.02858 0.50096
 C11 C 0.49062 0.97130 0.33851
 C12 C 0.50359 1.02474 0.33799
 C13 C 0.51496 1.05526 0.41807
 C14 C 0.52801 1.10993 0.41765
 C15 C 0.53031 1.13422 0.49981
 C16 C 0.52973 1.11123 0.58248
 H17 H 0.49785 0.95891 0.72885
 H18 H 0.51189 1.04511 0.72871
 H19 H 0.48372 0.95083 0.27443
 H20 H 0.50278 1.04078 0.27369
 H21 H 0.45831 0.82285 0.49902
 H22 H 0.54048 1.17601 0.49913
 C23 C -0.09798 0.48148 0.41952
 C24 C -0.11992 0.48032 0.50128
 C25 C -0.09855 0.48095 0.58384
 C26 C -0.04946 0.49035 0.58404
 C27 C -0.02536 0.49439 0.50119
 C28 C -0.05009 0.48909 0.41881
 C29 C -0.02552 0.49309 0.33778
 C30 C 0.02205 0.50159 0.33740
 C31 C 0.04795 0.50822 0.41795
 C32 C 0.02388 0.50423 0.50062
 C33 C -0.02190 0.49972 0.66424
 C34 C 0.02620 0.50934 0.66360
 C35 C 0.04964 0.51147 0.58265
 C36 C 0.09852 0.52123 0.58160
 C37 C 0.12081 0.52306 0.49997
 C38 C 0.09720 0.51851 0.41821
 H39 H -0.04234 0.49056 0.27343
 H40 H 0.03824 0.50289 0.27296
 H41 H -0.03601 0.50179 0.72861
 H42 H 0.04505 0.51546 0.72751
 H43 H -0.15754 0.47262 0.50000
 H44 H 0.15918 0.53241 0.50000
 C45 C 0.42161 0.51645 0.58328
 C46 C 0.40060 0.51601 0.50032
 C47 C 0.42134 0.51459 0.41910
 C48 C 0.46043 0.50729 0.41907
 C49 C 0.47973 0.50334 0.50167
 C50 C 0.46069 0.50831 0.58410
 C51 C 0.47969 0.50242 0.66451
 C52 C 0.51856 0.49583 0.66444
 C53 C 0.53764 0.49006 0.58397
 C54 C 0.51851 0.49488 0.50161
 C55 C 0.48008 0.50301 0.33816
 C56 C 0.51809 0.49512 0.33809
 C57 C 0.53778 0.49088 0.41894
 C58 C 0.57695 0.48370 0.41886
 C59 C 0.59790 0.48261 0.49999
 C60 C 0.57692 0.48222 0.58303
 H61 H 0.46435 0.50162 0.72932
 H62 H 0.53386 0.49655 0.72919
 H63 H 0.46583 0.50517 0.27386
 H64 H 0.53236 0.49299 0.27374
 H65 H 0.37176 0.52338 0.49797
 H66 H 0.62688 0.47544 0.49763
 O67 O 0.40017 0.62307 -0.07529
 O68 O 0.41409 0.71689 -0.10323
 C69 C 0.39631 0.74338 -0.11970
 O70 O 0.35979 0.73705 -0.07367
 O71 O 0.26482 0.64174 -0.10276
 C72 C 0.23418 0.58916 -0.12100
 O73 O 0.23407 0.55268 -0.07773
 O74 O 0.31434 0.55402 -0.10390
 C75 C 0.36309 0.58073 -0.12085
 O76 O 0.40048 0.63814 0.10240
 O77 O 0.41939 0.73490 0.07693
 C78 C 0.39071 0.74267 0.12129
 O79 O 0.34231 0.71740 0.10375
 O80 O 0.24587 0.62489 0.07474
 C81 C 0.23149 0.58121 0.11896
 O82 O 0.24802 0.55355 0.10191
 O83 O 0.32569 0.55015 0.07637
 C84 C 0.36837 0.58543 0.12005
 Cr85 Cr 0.40566 0.67683 0.00019
 Cr86 Cr 0.30424 0.67863 0.00050
 Cr87 Cr 0.28240 0.55567 -0.00078
 O88 O 0.33073 0.63696 0.00035
 O89 O 0.59906 0.37491 -0.07774
 O90 O 0.58567 0.28123 -0.10211
 C91 C 0.60526 0.25680 -0.12082
 O92 O 0.64309 0.26470 -0.07704
 O93 O 0.73854 0.36047 -0.10013
 C94 C 0.76706 0.41266 -0.12065
 O95 O 0.76509 0.44828 -0.08003
 O96 O 0.68479 0.44652 -0.10260
 C97 C 0.63612 0.41863 -0.12119
 O98 O 0.59834 0.36148 0.10056
 O99 O 0.58050 0.26545 0.07895
 C100 C 0.60853 0.25607 0.12097
 O101 O 0.65638 0.27971 0.10149
 O102 O 0.75278 0.37359 0.07839
 C103 C 0.76809 0.41825 0.12005
 O104 O 0.75288 0.44691 0.10043
 O105 O 0.67439 0.44920 0.07823
 C106 C 0.63088 0.41384 0.11993
 Cr107 Cr 0.59398 0.32229 -0.00014
 Cr108 Cr 0.69654 0.32136 0.00066
 Cr109 Cr 0.71733 0.44443 -0.00087
 O110 O 0.66934 0.36275 0.00021
 N111 N 0.43142 0.85897 -0.27063
 C112 C 0.45741 0.85548 -0.33854
 N113 N 0.46266 0.81412 -0.33374
 N114 N 0.44431 0.77924 -0.26320
 C115 C 0.41885 0.78342 -0.19538
 N116 N 0.41249 0.82372 -0.20062
 N117 N 0.14075 0.50212 -0.30442
 C118 C 0.13074 0.53660 -0.33708
 N119 N 0.15439 0.58794 -0.29806
 N120 N 0.18692 0.60429 -0.22865
 C121 C 0.19683 0.56982 -0.19551
 N122 N 0.17294 0.51827 -0.23431
 N123 N 0.44076 0.56148 -0.27194
 C124 C 0.40593 0.52990 -0.33952
 N125 N 0.35689 0.51586 -0.33464
 N126 N 0.34283 0.53102 -0.26424
 C127 C 0.37768 0.56200 -0.19667
 N128 N 0.42701 0.57728 -0.20207
 N129 N 0.57498 0.14494 -0.27500
 C130 C 0.54624 0.14593 -0.34036
 N131 N 0.53779 0.18473 -0.33324
 N132 N 0.55555 0.21929 -0.26256
 C133 C 0.58352 0.21732 -0.19699
 N134 N 0.59325 0.17982 -0.20491
 N135 N 0.86819 0.43458 -0.27224
 C136 C 0.87054 0.46726 -0.33833
 N137 N 0.83822 0.48161 -0.33176
 N138 N 0.80627 0.46547 -0.26118
 C139 C 0.80420 0.43290 -0.19561
 N140 N 0.83546 0.41744 -0.20254
 N141 N 0.55797 0.43708 -0.27211
 C142 C 0.59284 0.46910 -0.33973
 N143 N 0.64215 0.48384 -0.33488
 N144 N 0.65641 0.46890 -0.26444
 C145 C 0.62149 0.43741 -0.19686
 N146 N 0.57190 0.42146 -0.20225
 N147 N 0.85694 0.42480 0.28352
 C148 C 0.87041 0.46824 0.33752
 N149 N 0.85013 0.49544 0.31961
 N150 N 0.81828 0.48033 0.24934
 C151 C 0.80507 0.43702 0.19513
 N152 N 0.82500 0.40958 0.21355
 N153 N 0.57366 0.14221 0.27539
 C154 C 0.54459 0.14384 0.33941
 N155 N 0.53671 0.18300 0.33043
 N156 N 0.55564 0.21764 0.25943
 C157 C 0.58452 0.21559 0.19586
 N158 N 0.59348 0.17753 0.20539
 N159 N 0.55338 0.41914 0.29388
 C160 C 0.59110 0.46849 0.33681
 N161 N 0.64218 0.50042 0.30764
 N162 N 0.65486 0.48379 0.23714
 C163 C 0.61705 0.43420 0.19449
 N164 N 0.56613 0.40225 0.22418
 N165 N 0.15065 0.50569 0.32081
 C166 C 0.12829 0.53100 0.33571
 N167 N 0.13975 0.57252 0.27863
 N168 N 0.17192 0.58777 0.20874
 C169 C 0.19403 0.56226 0.19352
 N170 N 0.18267 0.52078 0.25063
 N171 N 0.40880 0.83772 0.29893
 C172 C 0.45452 0.85492 0.33842
 N173 N 0.47977 0.83544 0.30590
 N174 N 0.46020 0.80051 0.23542
 C175 C 0.41430 0.78323 0.19609
 N176 N 0.38902 0.80247 0.22924
 N177 N 0.44513 0.57984 0.29477
 C178 C 0.40741 0.53001 0.33701
 N179 N 0.35655 0.49775 0.30702
 N180 N 0.34408 0.51457 0.23641
 C181 C 0.38190 0.56466 0.19448
 N182 N 0.43259 0.59690 0.22499
   
