data_POSCAR
  _audit_creation_date              2014-09-24
  _audit_creation_method            'ToBaCCo'
  _symmetry_space_group_name_H-M    'P1'
  _symmetry_Int_Tables_number       1
  _symmetry_cell_setting            triclinic
  loop_
  _symmetry_equiv_pos_as_xyz
 x,y,z
_cell_length_a 40.2420
_cell_length_b 43.7774
_cell_length_c 15.2293
_cell_angle_alpha 89.518000
_cell_angle_beta 89.877700
_cell_angle_gamma 90.190100
loop_
  _atom_site_label
  _atom_site_type_symbol
  _atom_site_fract_x
  _atom_site_fract_y
  _atom_site_fract_z
C1 C 0.17787 0.25613 0.13701
 C2 C 0.18723 0.22822 0.17606
 C3 C 0.21384 0.22812 0.23573
 C4 C 0.23302 0.25464 0.25069
 C5 C 0.22334 0.28210 0.20902
 C6 C 0.19560 0.28308 0.15371
 C7 C 0.26348 0.25336 0.30733
 C8 C 0.27547 0.27963 0.35014
 C9 C 0.30559 0.27896 0.39592
 C10 C 0.32226 0.25117 0.40765
 C11 C 0.30997 0.22415 0.37005
 C12 C 0.28160 0.22595 0.31652
 H13 H 0.15568 0.25758 0.09754
 H14 H 0.21979 0.20700 0.26951
 H15 H 0.23748 0.30289 0.21780
 H16 H 0.26222 0.30104 0.34586
 H17 H 0.34529 0.25127 0.44401
 H18 H 0.27373 0.20566 0.28211
 C19 C 0.81998 0.24475 0.11004
 C20 C 0.80383 0.27268 0.12306
 C21 C 0.77497 0.27340 0.17465
 C22 C 0.76266 0.24674 0.21631
 C23 C 0.77992 0.21909 0.20400
 C24 C 0.80782 0.21779 0.14891
 C25 C 0.73204 0.24779 0.27237
 C26 C 0.71117 0.22205 0.28092
 C27 C 0.68287 0.22238 0.33523
 C28 C 0.67404 0.24994 0.37649
 C29 C 0.69387 0.27626 0.36637
 C30 C 0.72316 0.27464 0.31670
 H31 H 0.84298 0.24414 0.07319
 H32 H 0.76216 0.29495 0.18136
 H33 H 0.77191 0.19838 0.23717
 H34 H 0.71691 0.20143 0.24527
 H35 H 0.65090 0.25157 0.41189
 H36 H 0.73886 0.29471 0.31255
 C37 C 0.67902 0.75240 0.68961
 C38 C 0.69737 0.72522 0.69033
 C39 C 0.72953 0.72510 0.72524
 C40 C 0.74260 0.75119 0.76659
 C41 C 0.72340 0.77807 0.76711
 C42 C 0.69226 0.77915 0.72605
 C43 C 0.77545 0.75000 0.81219
 C44 C 0.79582 0.77623 0.81777
 C45 C 0.82567 0.77571 0.86631
 C46 C 0.83528 0.74826 0.90710
 C47 C 0.81644 0.72161 0.89799
 C48 C 0.78626 0.72271 0.85246
 H49 H 0.65432 0.75254 0.66153
 H50 H 0.74383 0.70422 0.72238
 H51 H 0.73243 0.79833 0.79973
 H52 H 0.78795 0.79690 0.78508
 H53 H 0.85834 0.74721 0.94378
 H54 H 0.77087 0.70242 0.85089
 C55 C 0.31846 0.74425 0.62361
 C56 C 0.30071 0.77174 0.62521
 C57 C 0.26879 0.77227 0.66207
 C58 C 0.25562 0.74629 0.70542
 C59 C 0.27442 0.71913 0.70527
 C60 C 0.30512 0.71763 0.66182
 C61 C 0.22342 0.74788 0.75486
 C62 C 0.20381 0.72148 0.76865
 C63 C 0.17562 0.72193 0.82342
 C64 C 0.16543 0.75007 0.85847
 C65 C 0.18330 0.77691 0.84117
 C66 C 0.21275 0.77557 0.79203
 H67 H 0.34301 0.74391 0.59443
 H68 H 0.25498 0.79343 0.65966
 H69 H 0.26564 0.69899 0.73993
 H70 H 0.21082 0.70016 0.73837
 H71 H 0.14272 0.75190 0.89602
 H72 H 0.22762 0.79606 0.78513
 O73 O 0.97676 -0.01148 -0.20856
 O74 O 1.03769 0.04933 -0.16412
 O75 O 1.04164 -0.00840 -0.20440
 O76 O 0.97360 0.04602 -0.16889
 O77 O 0.97272 0.03394 -0.02774
 O78 O 1.04077 -0.02074 -0.06350
 O79 O 1.03711 0.03705 -0.02313
 O80 O 0.97620 -0.02376 -0.06760
 Cu81 Cu 1.00759 0.01998 -0.20074
 Cu82 Cu 1.00666 0.00532 -0.03133
 C83 C 0.96603 -0.02791 -0.14552
 C84 C 1.04740 0.05382 -0.08606
 C85 C 1.05270 -0.02392 -0.14015
 C86 C 0.96178 0.04946 -0.09232
 O87 O 0.53004 0.46221 0.62925
 O88 O 0.46734 0.52298 0.60816
 O89 O 0.46858 0.46464 0.57718
 O90 O 0.52858 0.52141 0.65908
 O91 O 0.54554 0.53072 0.52341
 O92 O 0.48627 0.47339 0.44185
 O93 O 0.48409 0.53216 0.47225
 O94 O 0.54744 0.47208 0.49431
 Cu95 Cu 0.49707 0.49183 0.63214
 Cu96 Cu 0.51752 0.50301 0.46935
 C97 C 0.54914 0.45655 0.56499
 C98 C 0.46522 0.53807 0.53681
 C99 C 0.46749 0.45917 0.49546
 C100 C 0.54678 0.53614 0.60512
 O101 O -0.03173 0.45303 -0.08866
 O102 O 0.02792 0.51551 -0.13052
 O103 O 0.03280 0.45796 -0.08561
 O104 O -0.03659 0.51052 -0.13094
 O105 O -0.03830 0.52272 0.00944
 O106 O 0.03113 0.47049 0.05449
 O107 O 0.02570 0.52797 0.00959
 O108 O -0.03359 0.46536 0.05160
 Cu109 Cu -0.00164 0.48297 -0.12301
 Cu110 Cu -0.00384 0.49777 0.04544
 C111 C -0.04295 0.44868 -0.01153
 C112 C 0.03660 0.53264 -0.06773
 C113 C 0.04370 0.45523 -0.00770
 C114 C -0.04917 0.52564 -0.06838
 O115 O 0.46586 1.03294 0.63396
 O116 O 0.53161 0.97443 0.63636
 O117 O 0.52970 1.03382 0.61822
 O118 O 0.46776 0.97350 0.65632
 O119 O 0.46135 0.96791 0.51331
 O120 O 0.52445 1.02830 0.47485
 O121 O 0.52556 0.96861 0.49336
 O122 O 0.46029 1.02722 0.49078
 Cu123 Cu 0.49925 1.00420 0.65052
 Cu124 Cu 0.49237 0.99740 0.47868
 C125 C 0.45235 1.04043 0.56166
 C126 C 0.53941 0.96125 0.56522
 C127 C 0.53730 1.04170 0.54043
 C128 C 0.45429 0.96018 0.59184
 C129 C 1.17076 0.20050 0.15800
 C130 C 1.14942 0.19634 0.08661
 C131 C 1.13299 0.16707 0.06821
 N132 N 1.11803 0.16300 -0.01054
 N133 N 1.10240 0.13695 -0.02840
 C134 C 1.10101 0.11400 0.03202
 N135 N 1.11588 0.11808 0.11102
 N136 N 1.13171 0.14411 0.12874
 C137 C 1.08249 0.08572 0.01409
 C138 C 1.07002 0.07949 -0.06922
 H139 H 1.14588 0.21426 0.03838
 H140 H 1.07779 0.06996 0.06797
 H141 H 1.17652 0.18066 0.19818
 H142 H 1.07586 0.09469 -0.12363
 C143 C 0.68281 0.69647 0.65780
 C144 C 0.65054 0.68786 0.68069
 C145 C 0.63609 0.65823 0.65658
 N146 N 0.60907 0.64753 0.70060
 N147 N 0.59521 0.62098 0.67901
 C148 C 0.60772 0.60421 0.61210
 N149 N 0.63464 0.61500 0.56760
 N150 N 0.64872 0.64145 0.58978
 C151 C 0.59130 0.57581 0.58448
 C152 C 0.56828 0.56070 0.63805
 H153 H 0.63601 0.70259 0.72264
 H154 H 0.59665 0.56716 0.51954
 H155 H 0.69877 0.68036 0.62456
 H156 H 0.56463 0.56815 0.70503
 C157 C -0.18174 0.30167 0.08971
 C158 C -0.16125 0.30322 0.01578
 C159 C -0.14111 0.33040 -0.00516
 N160 N -0.13764 0.35341 0.05340
 N161 N -0.11736 0.37685 0.03639
 C162 C -0.09981 0.37814 -0.03983
 N163 N -0.10356 0.35532 -0.09874
 N164 N -0.12371 0.33179 -0.08152
 C165 C -0.07648 0.40332 -0.05831
 C166 C -0.06715 0.42415 0.00591
 H167 H -0.15882 0.28357 -0.02638
 H168 H -0.06543 0.40476 -0.12315
 H169 H -0.18663 0.32230 0.12631
 H170 H -0.07737 0.42212 0.07157
 C171 C 0.31621 0.80049 0.59410
 C172 C 0.34868 0.80769 0.61811
 C173 C 0.36434 0.83735 0.59900
 N174 N 0.39044 0.84654 0.64838
 N175 N 0.40539 0.87316 0.63227
 C176 C 0.39502 0.89151 0.56554
 N177 N 0.36910 0.88219 0.51533
 N178 N 0.35385 0.85565 0.53213
 C179 C 0.41246 0.92041 0.54622
 C180 C 0.43162 0.93456 0.61031
 H181 H 0.36239 0.79182 0.65914
 H182 H 0.41066 0.93034 0.48104
 H183 H 0.30089 0.81765 0.56251
 H184 H 0.43105 0.92569 0.67696
 C185 C -0.17059 0.69281 -0.06467
 C186 C -0.17325 0.66517 -0.10900
 C187 C -0.15319 0.63851 -0.08369
 N188 N -0.14861 0.61547 -0.14148
 N189 N -0.12836 0.59235 -0.12219
 C190 C -0.11208 0.59138 -0.04417
 N191 N -0.11718 0.61411 0.01427
 N192 N -0.13726 0.63731 -0.00523
 C193 C -0.08810 0.56712 -0.02369
 C194 C -0.07628 0.54713 -0.08723
 H195 H -0.18713 0.66411 -0.16977
 H196 H -0.07771 0.56642 0.04186
 H197 H -0.15425 0.69427 -0.00838
 H198 H -0.08578 0.54840 -0.15365
 C199 C 0.32533 1.19555 0.38232
 C200 C 0.34908 1.18928 0.44698
 C201 C 0.36435 1.15898 0.45716
 N202 N 0.38201 1.15234 0.53062
 N203 N 0.39676 1.12532 0.54006
 C204 C 0.39449 1.10396 0.47618
 N205 N 0.37686 1.11061 0.40264
 N206 N 0.36193 1.13757 0.39341
 C207 C 0.41254 1.07488 0.48306
 C208 C 0.42845 1.06574 0.56011
 H209 H 0.35569 1.20620 0.49520
 H210 H 0.41472 1.06109 0.42461
 H211 H 0.31689 1.17662 0.34259
 H212 H 0.42508 1.07876 0.61962
 C213 C 1.17024 -0.19395 -0.12494
 C214 C 1.17266 -0.16661 -0.17227
 C215 C 1.15302 -0.13963 -0.14830
 N216 N 1.14923 -0.11640 -0.20693
 N217 N 1.12955 -0.09287 -0.18868
 C218 C 1.11303 -0.09164 -0.11090
 N219 N 1.11727 -0.11460 -0.05166
 N220 N 1.13682 -0.13820 -0.07009
 C221 C 1.08963 -0.06681 -0.09173
 C222 C 1.07930 -0.04615 -0.15613
 H223 H 1.18629 -0.16592 -0.23364
 H224 H 1.07856 -0.06612 -0.02687
 H225 H 1.15435 -0.19490 -0.06743
 H226 H 1.08961 -0.04740 -0.22176
 C227 C 0.68335 0.30656 0.39911
 C228 C 0.65916 0.31099 0.46363
 C229 C 0.64471 0.34135 0.47942
 N230 N 0.62196 0.34517 0.54433
 N231 N 0.60688 0.37198 0.55477
 C232 C 0.61393 0.39593 0.50043
 N233 N 0.63685 0.39216 0.43605
 N234 N 0.65199 0.36542 0.42583
 C235 C 0.59542 0.42479 0.50533
 C236 C 0.57247 0.43081 0.57161
 H237 H 0.64955 0.29182 0.50119
 H238 H 0.59863 0.44110 0.45205
 H239 H 0.69441 0.32651 0.36801
 H240 H 0.57015 0.41529 0.62708
 C241 C 0.84638 -0.19860 -0.12309
 C242 C 0.84303 -0.17053 -0.16675
 C243 C 0.86607 -0.14511 -0.14915
 N244 N 0.86834 -0.12114 -0.20599
 N245 N 0.88954 -0.09831 -0.19101
 C246 C 0.90905 -0.09854 -0.11827
 N247 N 0.90648 -0.12231 -0.06101
 N248 N 0.88547 -0.14520 -0.07628
 C249 C 0.93273 -0.07374 -0.10051
 C250 C 0.94154 -0.05200 -0.16376
 H251 H 0.82469 -0.16713 -0.21752
 H252 H 0.94453 -0.07333 -0.03665
 H253 H 0.86732 -0.20097 -0.07884
 H254 H 0.93101 -0.05318 -0.22906
 C255 C 0.32047 0.30771 0.42743
 C256 C 0.35382 0.31424 0.41061
 C257 C 0.36988 0.34305 0.43557
 N258 N 0.39883 0.35139 0.39630
 N259 N 0.41445 0.37691 0.41950
 C260 C 0.40185 0.39494 0.48346
 N261 N 0.37296 0.38653 0.52319
 N262 N 0.35712 0.36111 0.49933
 C263 C 0.42008 0.42219 0.51277
 C264 C 0.44529 0.43528 0.46190
 H265 H 0.36846 0.29814 0.37332
 H266 H 0.41401 0.43174 0.57618
 H267 H 0.30454 0.32505 0.45517
 H268 H 0.44959 0.42713 0.39590
 C269 C 0.15855 0.69434 -0.15924
 C270 C 0.13489 0.69061 -0.09244
 C271 C 0.11753 0.66156 -0.07549
 N272 N 0.11833 0.63822 -0.13372
 N273 N 0.10164 0.61241 -0.11745
 C274 C 0.08371 0.60900 -0.04225
 N275 N 0.08311 0.63226 0.01593
 N276 N 0.09962 0.65808 -0.00052
 C277 C 0.06446 0.58113 -0.02337
 C278 C 0.05903 0.55854 -0.08569
 H279 H 0.12988 0.70874 -0.04670
 H280 H 0.05261 0.57921 0.04039
 H281 H 0.16540 0.67430 -0.19644
 H282 H 0.06978 0.56084 -0.15068
 C283 C 0.66418 1.19525 0.34455
 C284 C 0.63990 1.19023 0.40898
 C285 C 0.62222 1.16088 0.41771
 N286 N 0.60629 1.15391 0.49385
 N287 N 0.59020 1.12746 0.50327
 C288 C 0.58921 1.10703 0.43667
 N289 N 0.60486 1.11411 0.36009
 N290 N 0.62122 1.14050 0.35090
 C291 C 0.57058 1.07816 0.44608
 C292 C 0.56023 1.06757 0.52824
 H293 H 0.63526 1.20699 0.45919
 H294 H 0.56445 1.06541 0.38762
 H295 H 0.67040 1.17618 0.30267
 H296 H 0.56798 1.07967 0.58655
 C297 C 0.18390 0.31279 0.11869
 C298 C 0.16712 0.31530 0.03889
 C299 C 0.14794 0.34255 0.01414
 N300 N 0.14182 0.36507 0.07278
 N301 N 0.12179 0.38819 0.05195
 C302 C 0.10716 0.38965 -0.02830
 N303 N 0.11366 0.36737 -0.08722
 N304 N 0.13356 0.34418 -0.06624
 C305 C 0.08330 0.41388 -0.05064
 C306 C 0.07082 0.43384 0.01210
 H307 H 0.16639 0.29598 -0.00502
 H308 H 0.07361 0.41462 -0.11693
 H309 H 0.18756 0.33294 0.15837
 H310 H 0.07988 0.43264 0.07897
 C311 C 0.67364 0.80823 0.72427
 C312 C 0.65294 0.81631 0.65453
 C313 C 0.63477 0.84541 0.65124
 N314 N 0.61831 0.85352 0.57704
 N315 N 0.60113 0.87944 0.57326
 C316 C 0.59969 0.89823 0.64369
 N317 N 0.61615 0.89012 0.71797
 N318 N 0.63346 0.86423 0.72164
 C319 C 0.57945 0.92618 0.64173
 C320 C 0.56385 0.93636 0.56527
 H321 H 0.65066 0.80126 0.59881
 H322 H 0.57576 0.93835 0.70260
 H323 H 0.67814 0.82456 0.77601
 H324 H 0.56826 0.92463 0.50400
 C325 C 0.82486 0.18833 0.13526
 C326 C 0.84063 0.18165 0.05611
 C327 C 0.86019 0.15382 0.04249
 N328 N 0.87322 0.14832 -0.03797
 N329 N 0.89237 0.12406 -0.05118
 C330 C 0.89932 0.10440 0.01569
 N331 N 0.88617 0.10982 0.09621
 N332 N 0.86691 0.13409 0.10942
 C333 C 0.92194 0.07849 0.00259
 C334 C 0.93572 0.07239 -0.07944
 H335 H 0.83882 0.19757 0.00153
 H336 H 0.92891 0.06479 0.05914
 H337 H 0.82399 0.17125 0.18712
 H338 H 0.92829 0.08584 -0.13604
 C339 C 0.32347 0.68838 0.66134
 C340 C 0.34553 0.68059 0.59438
 C341 C 0.36415 0.65172 0.59482
 N342 N 0.38384 0.64468 0.52552
 N343 N 0.40154 0.61902 0.52566
 C344 C 0.40021 0.59943 0.59522
 N345 N 0.38044 0.60643 0.66445
 N346 N 0.36269 0.63207 0.66425
 C347 C 0.42074 0.57170 0.59821
 C348 C 0.44141 0.56335 0.52887
 H349 H 0.34902 0.69584 0.53880
 H350 H 0.42050 0.55815 0.65807
 H351 H 0.31820 0.67188 0.71300
 H352 H 0.44134 0.57659 0.46848
   
