data_POSCAR
  _audit_creation_date              2014-09-24
  _audit_creation_method            'ToBaCCo'
  _symmetry_space_group_name_H-M    'P1'
  _symmetry_Int_Tables_number       1
  _symmetry_cell_setting            triclinic
  loop_
  _symmetry_equiv_pos_as_xyz
 x,y,z
_cell_length_a 56.2383
_cell_length_b 55.7035
_cell_length_c 53.6114
_cell_angle_alpha 94.446000
_cell_angle_beta 92.940500
_cell_angle_gamma 92.210900
loop_
  _atom_site_label
  _atom_site_type_symbol
  _atom_site_fract_x
  _atom_site_fract_y
  _atom_site_fract_z
C1 C 0.23376 0.49933 1.06990
 H2 H 0.24465 0.51569 1.06951
 C3 C 0.21722 0.49759 1.08835
 H4 H 0.21584 0.51310 1.10152
 C5 C 0.22102 0.46085 1.05117
 H6 H 0.22246 0.44673 1.03636
 C7 C 0.20437 0.45824 1.06926
 H8 H 0.19409 0.44138 1.06840
 N9 N 0.23520 0.48117 1.05169
 C10 C 0.27944 0.52625 1.01102
 H11 H 0.26871 0.52371 0.99364
 C12 C 0.29756 0.54427 1.01384
 H13 H 0.30038 0.55546 0.99854
 C14 C 0.29035 0.51314 1.05085
 H15 H 0.28779 0.50049 1.06490
 C16 C 0.30854 0.53104 1.05455
 H17 H 0.31954 0.53234 1.07181
 Zn18 Zn 0.25438 0.48421 1.02408
 N19 N 0.27617 0.51113 1.02941
 C20 C 0.22185 0.50850 0.99521
 N21 N 0.23323 0.48745 0.99600
 C22 C 0.22839 0.46891 0.97817
 C23 C 0.21191 0.47141 0.95822
 C24 C 0.20557 0.51192 0.97540
 C25 C 0.27734 0.44182 1.03694
 C26 C 0.29369 0.42371 1.03358
 C27 C 0.30041 0.43683 0.99252
 C28 C 0.28439 0.45496 0.99689
 N29 N 0.27313 0.45706 1.01872
 H30 H 0.22549 0.52269 1.01002
 H31 H 0.23693 0.45199 0.97963
 H32 H 0.20820 0.45653 0.94416
 H33 H 0.19668 0.52880 0.97504
 H34 H 0.26879 0.44434 1.05450
 H35 H 0.29752 0.41246 1.04874
 H36 H 0.30878 0.43538 0.97477
 H37 H 0.28113 0.46765 0.98295
 C38 C 0.31260 0.54672 1.03574
 C39 C 0.20162 0.47700 1.08809
 C40 C 0.30575 0.42119 1.01122
 C41 C 0.20042 0.49320 0.95663
 C42 C 0.77400 0.53163 -0.04969
 H43 H 0.76802 0.54698 -0.03847
 C44 C 0.79040 0.53503 -0.06794
 H45 H 0.79671 0.55313 -0.07096
 C46 C 0.77397 0.48925 -0.05851
 H47 H 0.76817 0.47142 -0.05405
 C48 C 0.79020 0.49184 -0.07705
 H49 H 0.79673 0.47589 -0.08684
 N50 N 0.76637 0.50899 -0.04517
 C51 C 0.72890 0.54553 0.00947
 H52 H 0.74239 0.54315 0.02401
 C53 C 0.71193 0.56288 0.01360
 H54 H 0.71250 0.57362 0.03137
 C55 C 0.71166 0.53470 -0.03127
 H56 H 0.71150 0.52354 -0.04867
 C57 C 0.69450 0.55194 -0.02802
 H58 H 0.68105 0.55363 -0.04290
 Zn59 Zn 0.74800 0.50480 -0.01714
 N60 N 0.72800 0.53131 -0.01241
 C61 C 0.76143 0.50143 0.03487
 N62 N 0.76935 0.50268 0.01140
 C63 C 0.79307 0.50285 0.00747
 C64 C 0.80978 0.50199 0.02743
 C65 C 0.77762 0.50055 0.05547
 C66 C 0.71706 0.47236 -0.04678
 C67 C 0.69985 0.45368 -0.05189
 C68 C 0.70586 0.44307 -0.00928
 C69 C 0.72318 0.46182 -0.00507
 N70 N 0.72801 0.47643 -0.02354
 H71 H 0.74253 0.50155 0.03771
 H72 H 0.79920 0.50370 -0.01120
 H73 H 0.82852 0.50187 0.02370
 H74 H 0.77102 0.50000 0.07405
 H75 H 0.72135 0.48394 -0.06133
 H76 H 0.69125 0.45098 -0.07048
 H77 H 0.70146 0.43250 0.00609
 H78 H 0.73206 0.46514 0.01324
 C79 C 0.69413 0.56588 -0.00511
 C80 C 0.79898 0.51494 -0.08160
 C81 C 0.69352 0.43914 -0.03280
 C82 C 0.80220 0.50103 0.05187
 C83 C -0.01624 0.27998 0.46758
 H84 H -0.03156 0.27702 0.47851
 C85 C -0.01832 0.29364 0.44693
 H86 H -0.03572 0.30008 0.44213
 C87 C 0.02414 0.27339 0.46029
 H88 H 0.04076 0.26570 0.46562
 C89 C 0.02297 0.28717 0.43955
 H90 H 0.03923 0.29008 0.43012
 N91 N 0.00490 0.27069 0.47430
 C92 C -0.03127 0.23648 0.53077
 H93 H -0.02341 0.24756 0.54675
 C94 C -0.05002 0.22007 0.53400
 H95 H -0.05681 0.21903 0.55244
 C96 C -0.03116 0.22348 0.48760
 H97 H -0.02314 0.22441 0.46977
 C98 C -0.04993 0.20681 0.49000
 H99 H -0.05625 0.19494 0.47387
 Zn100 Zn 0.00655 0.25612 0.50522
 N101 N -0.02201 0.23760 0.50793
 C102 C -0.00959 0.29581 0.53342
 N103 N 0.00903 0.28105 0.53157
 C104 C 0.02850 0.28433 0.54780
 C105 C 0.03004 0.30356 0.56629
 C106 C -0.00896 0.31499 0.55179
 C107 C 0.02679 0.21174 0.51131
 C108 C 0.04449 0.19527 0.51421
 C109 C 0.07409 0.22684 0.50929
 C110 C 0.05571 0.24290 0.50669
 N111 N 0.03251 0.23512 0.50765
 H112 H -0.02510 0.29259 0.52070
 H113 H 0.04301 0.27226 0.54633
 H114 H 0.04601 0.30627 0.57849
 H115 H -0.02422 0.32619 0.55305
 H116 H 0.00845 0.20569 0.51229
 H117 H 0.03941 0.17674 0.51697
 H118 H 0.09246 0.23327 0.50870
 H119 H 0.06001 0.26166 0.50437
 C120 C -0.05920 0.20454 0.51358
 C121 C 0.00169 0.29841 0.43289
 C122 C 0.06848 0.20273 0.51335
 C123 C 0.01121 0.31936 0.56833
 C124 C 0.97709 0.74662 0.55394
 H125 H 0.96286 0.75839 0.54969
 C126 C 0.97585 0.73288 0.57459
 H127 H 0.96080 0.73445 0.58634
 C128 C 1.01316 0.72893 0.54293
 H129 H 1.02717 0.72690 0.52993
 C130 C 1.01278 0.71509 0.56353
 H131 H 1.02660 0.70240 0.56631
 N132 N 0.99535 0.74410 0.53839
 C133 C 0.97092 0.79956 0.52160
 H134 H 0.98647 0.80266 0.53434
 C135 C 0.95343 0.81664 0.52118
 H136 H 0.95603 0.83299 0.53345
 C137 C 0.94972 0.77502 0.48917
 H138 H 0.94853 0.75905 0.47634
 C139 C 0.93153 0.79140 0.48846
 H140 H 0.91628 0.78736 0.47548
 Zn141 Zn 0.99450 0.75834 0.50753
 N142 N 0.96880 0.77924 0.50577
 C143 C 0.97121 0.71778 0.48224
 N144 N 0.99099 0.73259 0.48224
 C145 C 1.00844 0.72780 0.46614
 C146 C 1.00626 0.70745 0.44907
 C147 C 0.96810 0.69753 0.46522
 C148 C 1.03902 0.78217 0.52351
 C149 C 1.05810 0.79861 0.52144
 C150 C 1.04316 0.80440 0.47936
 C151 C 1.02429 0.78806 0.48232
 N152 N 1.02252 0.77738 0.50413
 H153 H 0.95790 0.72164 0.49568
 H154 H 1.02443 0.73928 0.46703
 H155 H 1.02074 0.70357 0.43706
 H156 H 0.95195 0.68634 0.46534
 H157 H 1.03691 0.77402 0.54095
 H158 H 1.07051 0.80289 0.53741
 H159 H 1.04420 0.81263 0.46179
 H160 H 1.01070 0.78420 0.46737
 C161 C 0.93327 0.81268 0.50453
 C162 C 0.99363 0.71654 0.57928
 C163 C 1.06016 0.81026 0.49925
 C164 C 0.98590 0.69188 0.44850
 C165 C 0.46255 0.00702 0.27738
 H166 H 0.47400 -0.00815 0.27618
 C167 C 0.44357 0.00700 0.29316
 H168 H 0.44040 -0.00831 0.30401
 C169 C 0.45387 0.04619 0.26611
 H170 H 0.45846 0.06173 0.25617
 C171 C 0.43496 0.04710 0.28202
 H172 H 0.42481 0.06321 0.28388
 N173 N 0.46733 0.02642 0.26427
 C174 C 0.51822 -0.00241 0.21245
 H175 H 0.53235 0.01127 0.21668
 C176 C 0.52116 -0.02129 0.19444
 H177 H 0.53821 -0.02206 0.18605
 C178 C 0.47961 -0.01769 0.21975
 H179 H 0.46316 -0.01577 0.22913
 C180 C 0.48168 -0.03690 0.20166
 H181 H 0.46632 -0.04907 0.19750
 Zn182 Zn 0.49575 0.02684 0.24699
 N183 N 0.49779 -0.00096 0.22476
 C184 C 0.53598 0.01046 0.27424
 N185 N 0.52110 0.02889 0.27173
 C186 C 0.52281 0.04891 0.28803
 C187 C 0.54016 0.05106 0.30772
 C188 C 0.55355 0.01182 0.29375
 C189 C 0.47935 0.05525 0.20968
 C190 C 0.48091 0.07245 0.19218
 C191 C 0.51981 0.08537 0.21075
 C192 C 0.51740 0.06810 0.22810
 N193 N 0.49749 0.05332 0.22708
 H194 H 0.53386 -0.00563 0.26159
 H195 H 0.51050 0.06314 0.28579
 H196 H 0.54131 0.06723 0.32038
 H197 H 0.56478 -0.00332 0.29584
 H198 H 0.46399 0.04286 0.20892
 H199 H 0.46664 0.07322 0.17794
 H200 H 0.53602 0.09660 0.21135
 H201 H 0.53190 0.06581 0.24160
 C202 C 0.50264 -0.03895 0.18826
 C203 C 0.42985 0.02743 0.29598
 C204 C 0.50155 0.08743 0.19227
 C205 C 0.55571 0.03227 0.31092
 C206 C 0.52631 -0.06015 0.70163
 H207 H 0.51325 -0.07485 0.70216
 C208 C 0.54346 -0.06132 0.68373
 H209 H 0.54373 -0.07724 0.67084
 C210 C 0.54138 -0.02138 0.71763
 H211 H 0.54000 -0.00553 0.73032
 C212 C 0.55876 -0.02172 0.69990
 H213 H 0.57062 -0.00604 0.69924
 N214 N 0.52557 -0.04042 0.71810
 C215 C 0.47951 -0.06979 0.77215
 H216 H 0.46506 -0.05757 0.77112
 C217 C 0.47862 -0.08828 0.78827
 H218 H 0.46341 -0.09020 0.79967
 C219 C 0.51754 -0.08122 0.75958
 H220 H 0.53294 -0.07799 0.74886
 C221 C 0.51754 -0.09973 0.77575
 H222 H 0.53282 -0.11091 0.77705
 Zn223 Zn 0.49971 -0.03943 0.73926
 N224 N 0.49872 -0.06666 0.75817
 C225 C 0.45652 -0.05802 0.71346
 N226 N 0.47202 -0.03860 0.71788
 C227 C 0.46959 -0.01861 0.70510
 C228 C 0.45077 -0.01741 0.68733
 C229 C 0.43765 -0.05774 0.69548
 C230 C 0.52303 -0.00929 0.77752
 C231 C 0.52605 0.00980 0.79601
 C232 C 0.48685 0.02260 0.78391
 C233 C 0.48467 0.00336 0.76548
 N234 N 0.50270 -0.01203 0.76256
 H235 H 0.45924 -0.07404 0.72320
 H236 H 0.48258 -0.00372 0.70846
 H237 H 0.44931 -0.00150 0.67704
 H238 H 0.42565 -0.07344 0.69181
 H239 H 0.53691 -0.02205 0.77509
 H240 H 0.54255 0.01180 0.80743
 H241 H 0.47204 0.03425 0.78635
 H242 H 0.46830 0.00038 0.75403
 C243 C 0.49796 -0.10329 0.79045
 C244 C 0.55977 -0.04178 0.68243
 C245 C 0.50774 0.02599 0.79955
 C246 C 0.43470 -0.03726 0.68214
 C247 C 0.21603 -0.01280 0.48437
 C248 C 0.23132 0.00782 0.48607
 C249 C 0.22197 0.03078 0.48877
 C250 C 0.19736 0.03323 0.49034
 C251 C 0.18219 0.01249 0.48863
 C252 C 0.19129 -0.01062 0.48540
 C253 C 0.25722 0.00535 0.48593
 C254 C 0.26895 0.00641 0.46357
 C255 C 0.29376 0.00466 0.46365
 C256 C 0.30667 0.00139 0.48614
 C257 C 0.29502 0.00007 0.50855
 C258 C 0.27025 0.00226 0.50837
 H259 H 0.22344 -0.03045 0.48199
 H260 H 0.23389 0.04665 0.49032
 H261 H 0.25886 0.00901 0.44629
 H262 H 0.26109 0.00135 0.52559
 H263 H 0.16318 0.01441 0.48991
 H264 H 0.32585 0.00001 0.48622
 C265 C 0.77969 -0.01718 0.51028
 C266 C 0.76686 0.00344 0.50643
 C267 C 0.77910 0.02573 0.50529
 C268 C 0.80404 0.02768 0.50884
 C269 C 0.81663 0.00694 0.51303
 C270 C 0.80459 -0.01551 0.51343
 C271 C 0.74061 0.00189 0.50466
 C272 C 0.72815 -0.00531 0.52502
 C273 C 0.70315 -0.00617 0.52400
 C274 C 0.69075 -0.00020 0.50208
 C275 C 0.70298 0.00683 0.48144
 C276 C 0.72801 0.00803 0.48297
 H277 H 0.77030 -0.03447 0.51092
 H278 H 0.76913 0.04167 0.50253
 H279 H 0.73800 -0.01002 0.54173
 H280 H 0.73772 0.01372 0.46735
 H281 H 0.83592 0.00811 0.51529
 H282 H 0.67145 -0.00095 0.50109
 C283 C 0.52144 0.27220 0.97554
 C284 C 0.49924 0.26063 0.97822
 C285 C 0.47866 0.27405 0.97931
 C286 C 0.48016 0.29913 0.97767
 C287 C 0.50263 0.31051 0.97555
 C288 C 0.52332 0.29725 0.97426
 C289 C 0.49773 0.23442 0.98011
 C290 C 0.49523 0.22528 1.00352
 C291 C 0.49578 0.20042 1.00581
 C292 C 0.49797 0.18472 0.98438
 C293 C 0.50008 0.19358 0.96072
 C294 C 0.50018 0.21861 0.95881
 H295 H 0.53720 0.26164 0.97448
 H296 H 0.46155 0.26484 0.98089
 H297 H 0.49384 0.23757 1.02003
 H298 H 0.50246 0.22589 0.94087
 H299 H 0.50413 0.32995 0.97546
 H300 H 0.49764 0.16547 0.98621
 C301 C 0.51976 0.71604 0.00163
 C302 C 0.49921 0.72883 0.00596
 C303 C 0.47838 0.71661 0.01230
 C304 C 0.47784 0.69150 0.01395
 C305 C 0.49878 0.67900 0.01001
 C306 C 0.51981 0.69116 0.00401
 C307 C 0.49976 0.75506 0.00401
 C308 C 0.50355 0.76437 -0.01912
 C309 C 0.50578 0.78932 -0.02078
 C310 C 0.50427 0.80490 0.00083
 C311 C 0.50050 0.79588 0.02413
 C312 C 0.49794 0.77083 0.02551
 H313 H 0.53591 0.72564 -0.00290
 H314 H 0.46261 0.72667 0.01572
 H315 H 0.50509 0.75221 -0.03569
 H316 H 0.49551 0.76352 0.04340
 H317 H 0.49860 0.65963 0.01081
 H318 H 0.50570 0.82420 -0.00064
 C319 C 0.99334 0.50967 0.27607
 C320 C 0.99475 0.48684 0.26331
 C321 C 0.99418 0.46612 0.27663
 C322 C 0.99186 0.46814 0.30264
 C323 C 0.99124 0.49114 0.31526
 C324 C 0.99176 0.51205 0.30221
 C325 C 0.99579 0.48471 0.23585
 C326 C 1.01685 0.47801 0.22471
 C327 C 1.01812 0.47689 0.19855
 C328 C 0.99806 0.48242 0.18372
 C329 C 0.97691 0.48911 0.19466
 C330 C 0.97589 0.49020 0.22081
 H331 H 0.99326 0.52549 0.26553
 H332 H 0.99458 0.44849 0.26661
 H333 H 1.03222 0.47390 0.23640
 H334 H 0.95976 0.49564 0.22950
 H335 H 0.99052 0.49266 0.33547
 H336 H 0.99897 0.48175 0.16354
 C337 C 0.00830 0.54812 0.73861
 C338 C 0.00860 0.52533 0.74804
 C339 C 0.00802 0.50450 0.73149
 C340 C 0.00682 0.50624 0.70543
 C341 C 0.00657 0.52921 0.69629
 C342 C 0.00723 0.55011 0.71270
 C343 C 0.00803 0.52313 0.77517
 C344 C -0.01311 0.52727 0.78731
 C345 C -0.01421 0.52441 0.81301
 C346 C 0.00611 0.51738 0.82643
 C347 C 0.02737 0.51332 0.81448
 C348 C 0.02826 0.51624 0.78878
 H349 H 0.00846 0.56420 0.75139
 H350 H 0.00762 0.48698 0.73898
 H351 H -0.02869 0.53262 0.77670
 H352 H 0.04455 0.51295 0.77935
 H353 H 0.00612 0.53099 0.67629
 H354 H 0.00538 0.51498 0.84626
 C355 C 0.10097 0.15035 0.53721
 C356 C 0.11862 0.14649 0.51958
 C357 C 0.12116 0.16354 0.50144
 C358 C 0.10561 0.18268 0.50025
 C359 C 0.08718 0.18506 0.51677
 C360 C 0.08551 0.16918 0.53563
 C361 C 0.13865 0.16095 0.48405
 C362 C 0.15314 0.14128 0.48350
 C363 C 0.15053 0.12312 0.50027
 C364 C 0.13322 0.12597 0.51887
 C365 C 0.13043 0.10775 0.53553
 C366 C 0.14320 0.08699 0.53346
 C367 C 0.15952 0.08356 0.51500
 C368 C 0.16403 0.10178 0.49855
 C369 C 0.18147 0.09745 0.48070
 C370 C 0.19285 0.07554 0.47860
 C371 C 0.18723 0.05729 0.49409
 C372 C 0.17096 0.06166 0.51261
 H373 H 0.09822 0.13897 0.55222
 H374 H 0.10709 0.19501 0.48566
 H375 H 0.07179 0.17107 0.54904
 H376 H 0.14088 0.17405 0.47033
 H377 H 0.16585 0.14056 0.46915
 H378 H 0.11799 0.10857 0.55012
 H379 H 0.13995 0.07324 0.54628
 H380 H 0.18655 0.11042 0.46786
 H381 H 0.20554 0.07256 0.46426
 H382 H 0.16696 0.04772 0.52500
 C383 C 0.64304 0.59600 0.02622
 C384 C 0.63369 0.61014 0.00747
 C385 C 0.64604 0.61085 -0.01490
 C386 C 0.66601 0.59686 -0.01868
 C387 C 0.67438 0.58223 -0.00030
 C388 C 0.66298 0.58232 0.02231
 C389 C 0.63826 0.62526 -0.03354
 C390 C 0.61837 0.63900 -0.03064
 C391 C 0.60505 0.63853 -0.00904
 C392 C 0.61256 0.62347 0.01010
 C393 C 0.59834 0.62169 0.03090
 C394 C 0.57764 0.63427 0.03310
 C395 C 0.57040 0.64946 0.01497
 C396 C 0.58414 0.65221 -0.00617
 C397 C 0.57635 0.66863 -0.02347
 C398 C 0.55561 0.68124 -0.02008
 C399 C 0.54186 0.67786 0.00048
 C400 C 0.54941 0.66197 0.01796
 H401 H 0.63545 0.59508 0.04417
 H402 H 0.67503 0.59726 -0.03605
 H403 H 0.66909 0.57117 0.03683
 H404 H 0.64765 0.62590 -0.05066
 H405 H 0.61353 0.64937 -0.04612
 H406 H 0.60237 0.61019 0.04565
 H407 H 0.56719 0.63209 0.04927
 H408 H 0.58597 0.67244 -0.03966
 H409 H 0.55014 0.69353 -0.03378
 H410 H 0.53906 0.65964 0.03420
 C411 C 0.88555 -0.14748 0.47958
 C412 C 0.88027 -0.13284 0.50119
 C413 C 0.89285 -0.13659 0.52405
 C414 C 0.90929 -0.15488 0.52518
 C415 C 0.91457 -0.16908 0.50353
 C416 C 0.90249 -0.16509 0.48077
 C417 C 0.88929 -0.12183 0.54564
 C418 C 0.87433 -0.10263 0.54485
 C419 C 0.86167 -0.09788 0.52247
 C420 C 0.86356 -0.11413 0.50071
 C421 C 0.84852 -0.11127 0.47934
 C422 C 0.83305 -0.09246 0.47876
 C423 C 0.83248 -0.07532 0.49907
 C424 C 0.84700 -0.07756 0.52114
 C425 C 0.84687 -0.05885 0.54062
 C426 C 0.83287 -0.03892 0.53815
 C427 C 0.81825 -0.03723 0.51655
 C428 C 0.81786 -0.05560 0.49720
 H429 H 0.87762 -0.14513 0.46126
 H430 H 0.91814 -0.15785 0.54304
 H431 H 0.90657 -0.17516 0.46355
 H432 H 0.89863 -0.12479 0.56326
 H433 H 0.87259 -0.09209 0.56233
 H434 H 0.84788 -0.12370 0.46286
 H435 H 0.82182 -0.09099 0.46194
 H436 H 0.85809 -0.05859 0.55755
 H437 H 0.83357 -0.02464 0.55312
 H438 H 0.80685 -0.05398 0.48025
 C439 C 0.34140 0.36475 1.01566
 C440 C 0.36187 0.37024 1.00249
 C441 C 0.36285 0.39250 0.99137
 C442 C 0.34472 0.40887 0.99450
 C443 C 0.32469 0.40338 1.00787
 C444 C 0.32317 0.38102 1.01820
 C445 C 0.38201 0.39852 0.97728
 C446 C 0.40025 0.38282 0.97362
 C447 C 0.40038 0.36054 0.98449
 C448 C 0.38132 0.35451 0.99990
 C449 C 0.38277 0.33338 1.01279
 C450 C 0.40215 0.31871 1.01076
 C451 C 0.42047 0.32398 0.99521
 C452 C 0.41944 0.34453 0.98121
 C453 C 0.43759 0.34819 0.96442
 C454 C 0.45669 0.33305 0.96294
 C455 C 0.45855 0.31373 0.97808
 C456 C 0.44001 0.30898 0.99380
 H457 H 0.33868 0.34785 1.02382
 H458 H 0.34652 0.42620 0.98674
 H459 H 0.30769 0.37591 1.02810
 H460 H 0.38290 0.41559 0.96885
 H461 H 0.41453 0.38915 0.96285
 H462 H 0.36954 0.32811 1.02537
 H463 H 0.40276 0.30300 1.02148
 H464 H 0.43741 0.36235 0.95184
 H465 H 0.47016 0.33656 0.94979
 H466 H 0.44105 0.29396 1.00546
 C467 C 0.91083 0.15133 0.54092
 C468 C 0.89235 0.14397 0.52267
 C469 C 0.88914 0.15821 0.50204
 C470 C 0.90451 0.17828 0.49947
 C471 C 0.92323 0.18472 0.51728
 C472 C 0.92596 0.17126 0.53815
 C473 C 0.87087 0.15217 0.48383
 C474 C 0.85587 0.13200 0.48527
 C475 C 0.85869 0.11675 0.50497
 C476 C 0.87725 0.12284 0.52400
 C477 C 0.88047 0.10730 0.54339
 C478 C 0.86649 0.08635 0.54401
 C479 C 0.84852 0.08005 0.52557
 C480 C 0.84396 0.09529 0.50602
 C481 C 0.82497 0.08816 0.48822
 C482 C 0.81180 0.06653 0.48945
 C483 C 0.81707 0.05126 0.50833
 C484 C 0.83524 0.05833 0.52651
 H485 H 0.91435 0.14204 0.55750
 H486 H 0.90201 0.18883 0.48343
 H487 H 0.94037 0.17569 0.55213
 H488 H 0.86825 0.16307 0.46809
 H489 H 0.84246 0.12861 0.47022
 H490 H 0.89405 0.11049 0.55829
 H491 H 0.86993 0.07481 0.55907
 H492 H 0.81983 0.09876 0.47304
 H493 H 0.79778 0.06144 0.47519
 H494 H 0.83907 0.04681 0.54150
 C495 C 0.37504 0.57424 0.05014
 C496 C 0.37387 0.59690 0.03996
 C497 C 0.35166 0.60298 0.02893
 C498 C 0.33163 0.58702 0.02843
 C499 C 0.33325 0.56445 0.03818
 C500 C 0.35513 0.55837 0.04915
 C501 C 0.34961 0.62477 0.01802
 C502 C 0.36935 0.64031 0.01678
 C503 C 0.39202 0.63484 0.02683
 C504 C 0.39407 0.61332 0.03963
 C505 C 0.41625 0.60893 0.05162
 C506 C 0.43608 0.62421 0.04998
 C507 C 0.43479 0.64432 0.03612
 C508 C 0.41277 0.65007 0.02442
 C509 C 0.41268 0.67045 0.01016
 C510 C 0.43360 0.68409 0.00735
 C511 C 0.45533 0.67811 0.01873
 C512 C 0.45562 0.65843 0.03351
 H513 H 0.39126 0.56778 0.05825
 H514 H 0.31477 0.59211 0.02012
 H515 H 0.35717 0.54088 0.05633
 H516 H 0.33262 0.62967 0.00985
 H517 H 0.36614 0.65668 0.00794
 H518 H 0.41889 0.59383 0.06268
 H519 H 0.45279 0.61993 0.05928
 H520 H 0.39694 0.67590 0.00018
 H521 H 0.43285 0.69893 -0.00454
 H522 H 0.47224 0.65381 0.04275
 C523 C 0.11932 -0.15388 0.50747
 C524 C 0.11424 -0.13262 0.49564
 C525 C 0.09114 -0.13121 0.48407
 C526 C 0.07386 -0.14989 0.48517
 C527 C 0.07902 -0.17057 0.49739
 C528 C 0.10198 -0.17243 0.50831
 C529 C 0.08518 -0.11104 0.47168
 C530 C 0.10157 -0.09200 0.47049
 C531 C 0.12472 -0.09218 0.48199
 C532 C 0.13110 -0.11271 0.49502
 C533 C 0.15388 -0.11238 0.50746
 C534 C 0.16979 -0.09267 0.50745
 C535 C 0.16389 -0.07262 0.49477
 C536 C 0.14148 -0.07223 0.48143
 C537 C 0.13677 -0.05173 0.46821
 C538 C 0.15311 -0.03217 0.46923
 C539 C 0.17478 -0.03225 0.48328
 C540 C 0.18023 -0.05277 0.49566
 H541 H 0.13651 -0.15687 0.51617
 H542 H 0.05609 -0.14798 0.47695
 H543 H 0.10664 -0.18840 0.51746
 H544 H 0.06754 -0.10989 0.46281
 H545 H 0.09522 -0.07709 0.46080
 H546 H 0.15989 -0.12693 0.51793
 H547 H 0.18692 -0.09312 0.51761
 H548 H 0.12069 -0.05015 0.45679
 H549 H 0.14874 -0.01685 0.45886
 H550 H 0.19697 -0.05305 0.50659
 C551 C 0.63276 0.41087 0.94596
 C552 C 0.63231 0.38892 0.95761
 C553 C 0.65293 0.38350 0.97211
 C554 C 0.67310 0.39941 0.97447
 C555 C 0.67306 0.42126 0.96310
 C556 C 0.65270 0.42668 0.94878
 C557 C 0.65318 0.36246 0.98460
 C558 C 0.63306 0.34709 0.98395
 C559 C 0.61186 0.35196 0.97033
 C560 C 0.61186 0.37265 0.95604
 C561 C 0.59137 0.37644 0.94074
 C562 C 0.57106 0.36152 0.94057
 C563 C 0.57019 0.34232 0.95569
 C564 C 0.59058 0.33699 0.97061
 C565 C 0.58847 0.31730 0.98573
 C566 C 0.56691 0.30406 0.98638
 C567 C 0.54676 0.30987 0.97200
 C568 C 0.54876 0.32870 0.95628
 H569 H 0.61773 0.41688 0.93525
 H570 H 0.68877 0.39487 0.98546
 H571 H 0.65180 0.44367 0.94030
 H572 H 0.66897 0.35807 0.99550
 H573 H 0.63479 0.33138 0.99429
 H574 H 0.59044 0.39079 0.92843
 H575 H 0.55565 0.36539 0.92878
 H576 H 0.60288 0.31209 0.99789
 H577 H 0.56580 0.28972 0.99886
 H578 H 0.53337 0.33306 0.94471
 C579 C 0.52848 0.11643 1.13828
 C580 C 0.50963 0.13001 1.12905
 C581 C 0.48878 0.13117 1.14282
 C582 C 0.48642 0.11775 1.16378
 C583 C 0.50483 0.10345 1.17181
 C584 C 0.52602 0.10340 1.15925
 C585 C 0.47023 0.14537 1.13539
 C586 C 0.47170 0.15830 1.11434
 C587 C 0.49162 0.15699 1.09936
 C588 C 0.51067 0.14219 1.10657
 C589 C 0.52969 0.13926 1.09055
 C590 C 0.53009 0.15021 1.06822
 C591 C 0.51193 0.16500 1.06117
 C592 C 0.49275 0.16925 1.07689
 C593 C 0.47550 0.18552 1.06929
 C594 C 0.47678 0.19607 1.04653
 C595 C 0.49509 0.19063 1.03062
 C596 C 0.51276 0.17537 1.03820
 H597 H 0.54540 0.11549 1.12980
 H598 H 0.47013 0.11824 1.17376
 H599 H 0.54056 0.09258 1.16518
 H600 H 0.45430 0.14644 1.14591
 H601 H 0.45641 0.16851 1.10976
 H602 H 0.54424 0.12781 1.09423
 H603 H 0.54480 0.14697 1.05626
 H604 H 0.46091 0.19062 1.08054
 H605 H 0.46311 0.20812 1.04107
 H606 H 0.52728 0.17158 1.02611
 C607 C -0.03250 0.66788 0.61625
 C608 C -0.01267 0.66170 0.63145
 C609 C 0.00867 0.67609 0.63120
 C610 C 0.01047 0.69446 0.61475
 C611 C -0.00895 0.69929 0.59876
 C612 C -0.03057 0.68632 0.60020
 C613 C 0.02827 0.67173 0.64694
 C614 C 0.02745 0.65301 0.66261
 C615 C 0.00710 0.63733 0.66260
 C616 C -0.01316 0.64154 0.64646
 C617 C -0.03279 0.62480 0.64490
 C618 C -0.03250 0.60438 0.65812
 C619 C -0.01300 0.60009 0.67399
 C620 C 0.00672 0.61690 0.67727
 C621 C 0.02539 0.61221 0.69482
 C622 C 0.02506 0.59098 0.70714
 C623 C 0.00628 0.57383 0.70231
 C624 C -0.01293 0.57870 0.68616
 H625 H -0.04976 0.65882 0.61622
 H626 H 0.02713 0.70482 0.61408
 H627 H -0.04589 0.68983 0.58814
 H628 H 0.04457 0.68279 0.64700
 H629 H 0.04353 0.65068 0.67378
 H630 H -0.04837 0.62635 0.63270
 H631 H -0.04768 0.59166 0.65570
 H632 H 0.04050 0.62452 0.69942
 H633 H 0.03992 0.58756 0.71986
 H634 H -0.02769 0.56554 0.68278
 C635 C 0.47799 0.84782 -0.16898
 C636 C 0.49765 0.84710 -0.15147
 C637 C 0.51782 0.86256 -0.15429
 C638 C 0.51819 0.87775 -0.17398
 C639 C 0.49834 0.87866 -0.19067
 C640 C 0.47834 0.86349 -0.18810
 C641 C 0.53730 0.86331 -0.13706
 C642 C 0.53677 0.85007 -0.11620
 C643 C 0.51679 0.83509 -0.11200
 C644 C 0.49759 0.83241 -0.13071
 C645 C 0.47897 0.81523 -0.12795
 C646 C 0.47833 0.80222 -0.10688
 C647 C 0.49582 0.80623 -0.08746
 C648 C 0.51530 0.82276 -0.08966
 C649 C 0.53193 0.82709 -0.06888
 C650 C 0.52902 0.81574 -0.04688
 C651 C 0.50981 0.79945 -0.04494
 C652 C 0.49353 0.79433 -0.06546
 H653 H 0.46171 0.83720 -0.16788
 H654 H 0.53356 0.88978 -0.17561
 H655 H 0.46278 0.86395 -0.20080
 H656 H 0.55293 0.87478 -0.13936
 H657 H 0.55253 0.85174 -0.10380
 H658 H 0.46469 0.81117 -0.14198
 H659 H 0.46358 0.78938 -0.10548
 H660 H 0.54680 0.83990 -0.06858
 H661 H 0.54169 0.81999 -0.03109
 H662 H 0.47841 0.78198 -0.06380
 C663 C 1.01703 0.33149 0.37691
 C664 C 1.00059 0.35010 0.37743
 C665 C 0.98366 0.35015 0.39608
 C666 C 0.98379 0.33282 0.41373
 C667 C 1.00070 0.31477 0.41370
 C668 C 1.01707 0.31432 0.39463
 C669 C 0.96683 0.36783 0.39753
 C670 C 0.96675 0.38601 0.38133
 C671 C 0.98371 0.38742 0.36292
 C672 C 1.00062 0.36889 0.36055
 C673 C 1.01721 0.37005 0.34171
 C674 C 1.01782 0.38899 0.32628
 C675 C 1.00204 0.40760 0.32894
 C676 C 0.98458 0.40699 0.34711
 C677 C 0.96904 0.42638 0.34908
 C678 C 0.97131 0.44571 0.33428
 C679 C 0.98895 0.44652 0.31686
 C680 C 1.00396 0.42713 0.31387
 H681 H 1.03026 0.32968 0.36315
 H682 H 0.97137 0.33466 0.42844
 H683 H 1.02983 0.30036 0.39274
 H684 H 0.95365 0.36780 0.41160
 H685 H 0.95311 0.39884 0.38399
 H686 H 1.03023 0.35666 0.33847
 H687 H 1.03109 0.38923 0.31232
 H688 H 0.95513 0.42752 0.36210
 H689 H 0.95919 0.46027 0.33658
 H690 H 1.01769 0.42765 0.30041
 C691 C 0.52318 0.92739 0.13059
 C692 C 0.50988 0.90528 0.12959
 C693 C 0.49349 0.90227 0.14840
 C694 C 0.49129 0.92046 0.16779
 C695 C 0.50492 0.94237 0.16888
 C696 C 0.52073 0.94539 0.14969
 C697 C 0.47927 0.88111 0.14776
 C698 C 0.48046 0.86310 0.12847
 C699 C 0.49641 0.86527 0.10918
 C700 C 0.51195 0.88635 0.11028
 C701 C 0.52922 0.88775 0.09218
 C702 C 0.53053 0.86985 0.07293
 C703 C 0.51468 0.84989 0.07077
 C704 C 0.49744 0.84710 0.08884
 C705 C 0.48173 0.82643 0.08542
 C706 C 0.48300 0.80963 0.06477
 C707 C 0.49989 0.81281 0.04688
 C708 C 0.51593 0.83279 0.05033
 H709 H 0.53518 0.93179 0.11645
 H710 H 0.47933 0.91693 0.18238
 H711 H 0.53069 0.96219 0.14839
 H712 H 0.46677 0.87858 0.16216
 H713 H 0.46877 0.84746 0.12942
 H714 H 0.54234 0.90237 0.09248
 H715 H 0.54398 0.87184 0.05937
 H716 H 0.46788 0.82295 0.09797
 H717 H 0.47026 0.79443 0.06245
 H718 H 0.52941 0.83517 0.03687
 C719 C 0.02491 0.35904 0.62877
 C720 C 0.01490 0.38110 0.62323
 C721 C 0.00331 0.38214 0.59925
 C722 C 0.00260 0.36221 0.58151
 C723 C 0.01261 0.34050 0.58723
 C724 C 0.02370 0.33916 0.61108
 C725 C -0.00757 0.40305 0.59297
 C726 C -0.00774 0.42295 0.61014
 C727 C 0.00345 0.42294 0.63432
 C728 C 0.01575 0.40202 0.64065
 C729 C 0.02885 0.40294 0.66393
 C730 C 0.02969 0.42342 0.68056
 C731 C 0.01703 0.44356 0.67507
 C732 C 0.00328 0.44342 0.65213
 C733 C -0.01031 0.46377 0.64810
 C734 C -0.00933 0.48372 0.66554
 C735 C 0.00521 0.48430 0.68762
 C736 C 0.01813 0.46394 0.69239
 H737 H 0.03332 0.35633 0.64678
 H738 H -0.00570 0.36375 0.56304
 H739 H 0.03114 0.32251 0.61632
 H740 H -0.01627 0.40400 0.57457
 H741 H -0.01631 0.43841 0.60356
 H742 H 0.03925 0.38828 0.66962
 H743 H 0.04028 0.42340 0.69804
 H744 H -0.02229 0.46470 0.63191
 H745 H -0.02026 0.49874 0.66175
 H746 H 0.02939 0.46405 0.70943
 C747 C 0.52317 0.05994 0.86276
 C748 C 0.51387 0.08288 0.85981
 C749 C 0.50229 0.08664 0.83640
 C750 C 0.50074 0.06831 0.81675
 C751 C 0.51010 0.04571 0.82002
 C752 C 0.52123 0.04178 0.84324
 C753 C 0.49208 0.10860 0.83274
 C754 C 0.49239 0.12675 0.85205
 C755 C 0.50340 0.12385 0.87584
 C756 C 0.51516 0.10192 0.87943
 C757 C 0.52794 0.09981 0.90247
 C758 C 0.52825 0.11789 0.92180
 C759 C 0.51566 0.13868 0.91915
 C760 C 0.50310 0.14210 0.89618
 C761 C 0.49029 0.16343 0.89483
 C762 C 0.48977 0.18026 0.91551
 C763 C 0.50203 0.17657 0.93820
 C764 C 0.51532 0.15590 0.93965
 H765 H 0.53146 0.05513 0.88011
 H766 H 0.49222 0.07169 0.79885
 H767 H 0.52806 0.02435 0.84662
 H768 H 0.48338 0.11167 0.81482
 H769 H 0.48404 0.14307 0.84757
 H770 H 0.53822 0.08445 0.90615
 H771 H 0.53816 0.11535 0.93921
 H772 H 0.47986 0.16736 0.87835
 H773 H 0.47909 0.19590 0.91393
 H774 H 0.52526 0.15303 0.95696
 C775 C 0.97045 0.62722 0.42353
 C776 C 0.97954 0.62600 0.39937
 C777 C 0.99139 0.64695 0.39184
 C778 C 0.99294 0.66844 0.40755
 C779 C 0.98361 0.66940 0.43140
 C780 C 0.97259 0.64845 0.43919
 C781 C 1.00186 0.64628 0.36877
 C782 C 1.00157 0.62504 0.35332
 C783 C 0.99008 0.60367 0.36001
 C784 C 0.97784 0.60454 0.38280
 C785 C 0.96404 0.58404 0.38811
 C786 C 0.96324 0.56298 0.37248
 C787 C 0.97651 0.56125 0.35122
 C788 C 0.99022 0.58147 0.34462
 C789 C 1.00396 0.57833 0.32327
 C790 C 1.00414 0.55604 0.30936
 C791 C 0.99053 0.53617 0.31604
 C792 C 0.97638 0.53916 0.33675
 H793 H 0.96232 0.61185 0.43131
 H794 H 1.00146 0.68444 0.40113
 H795 H 0.96599 0.64822 0.45779
 H796 H 1.01080 0.66228 0.36279
 H797 H 1.01013 0.62609 0.33589
 H798 H 0.95315 0.58386 0.40405
 H799 H 0.95244 0.54767 0.37739
 H800 H 1.01543 0.59248 0.31732
 H801 H 1.01557 0.55422 0.29373
 H802 H 0.96536 0.52412 0.34188
 C803 C 1.16578 0.48956 0.14456
 C804 C 1.14451 0.47553 0.13825
 C805 C 1.14333 0.46092 0.11537
 C806 C 1.16234 0.46102 0.09937
 C807 C 1.18317 0.47570 0.10531
 C808 C 1.18457 0.48964 0.12846
 C809 C 1.12293 0.44657 0.10812
 C810 C 1.10322 0.44694 0.12260
 C811 C 1.10300 0.46188 0.14509
 C812 C 1.12421 0.47593 0.15343
 C813 C 1.12422 0.49025 0.17636
 C814 C 1.10397 0.49172 0.19010
 C815 C 1.08286 0.47908 0.18163
 C816 C 1.08210 0.46367 0.15922
 C817 C 1.06014 0.45130 0.15151
 C818 C 1.03976 0.45501 0.16482
 C819 C 1.04048 0.47089 0.18640
 C820 C 1.06226 0.48237 0.19511
 H821 H 1.16853 0.50091 0.16173
 H822 H 1.15989 0.45059 0.08149
 H823 H 1.20045 0.50042 0.13479
 H824 H 1.12203 0.43510 0.09077
 H825 H 1.08829 0.43535 0.11539
 H826 H 1.13959 0.50087 0.18420
 H827 H 1.10474 0.50332 0.20735
 H828 H 1.05780 0.43908 0.13494
 H829 H 1.02318 0.44567 0.15795
 H830 H 1.06292 0.49482 0.21174
 C831 C 0.58488 -0.05027 0.61822
 C832 C 0.60821 -0.03973 0.62224
 C833 C 0.61544 -0.03019 0.64688
 C834 C 0.59990 -0.03146 0.66650
 C835 C 0.57677 -0.04174 0.66208
 C836 C 0.56953 -0.05116 0.63778
 C837 C 0.63801 -0.01909 0.65178
 C838 C 0.65335 -0.01636 0.63263
 C839 C 0.64684 -0.02499 0.60764
 C840 C 0.62429 -0.03773 0.60256
 C841 C 0.61854 -0.04799 0.57797
 C842 C 0.63357 -0.04478 0.55870
 C843 C 0.65486 -0.03112 0.56299
 C844 C 0.66201 -0.02118 0.58751
 C845 C 0.68375 -0.00726 0.59061
 C846 C 0.69731 -0.00301 0.57016
 C847 C 0.68983 -0.01251 0.54596
 C848 C 0.66881 -0.02698 0.54266
 H849 H 0.57757 -0.05737 0.60008
 H850 H 0.60581 -0.02428 0.68526
 H851 H 0.55159 -0.05869 0.63362
 H852 H 0.64374 -0.01200 0.67063
 H853 H 0.67036 -0.00746 0.63812
 H854 H 0.60249 -0.05882 0.57292
 H855 H 0.62822 -0.05274 0.54006
 H856 H 0.69047 0.00127 0.60842
 H857 H 0.71334 0.00848 0.57322
 H858 H 0.66305 -0.03477 0.52406
 C859 C -0.16274 0.50521 0.86264
 C860 C -0.14212 0.52002 0.87000
 C861 C -0.14200 0.53403 0.89327
 C862 C -0.16167 0.53307 0.90831
 C863 C -0.18159 0.51780 0.90104
 C864 C -0.18202 0.50409 0.87800
 C865 C -0.12202 0.54849 0.90180
 C866 C -0.10160 0.54859 0.88835
 C867 C -0.10041 0.53436 0.86552
 C868 C -0.12138 0.52076 0.85559
 C869 C -0.12082 0.50827 0.83169
 C870 C -0.10019 0.50797 0.81852
 C871 C -0.07919 0.51975 0.82871
 C872 C -0.07893 0.53315 0.85234
 C873 C -0.05690 0.54410 0.86216
 C874 C -0.03617 0.54156 0.84915
 C875 C -0.03660 0.52826 0.82589
 C876 C -0.05827 0.51772 0.81558
 H877 H -0.16431 0.49367 0.84552
 H878 H -0.16100 0.54344 0.92633
 H879 H -0.19727 0.49220 0.87195
 H880 H -0.12197 0.55950 0.91939
 H881 H -0.08702 0.56028 0.89636
 H882 H -0.13617 0.49861 0.82246
 H883 H -0.10058 0.49795 0.80033
 H884 H -0.05484 0.55416 0.88016
 H885 H -0.01961 0.54994 0.85743
 H886 H -0.05865 0.50711 0.79771
 C887 C 0.39702 0.04936 0.35249
 C888 C 0.38068 0.02986 0.35521
 C889 C 0.37923 0.01053 0.33628
 C890 C 0.39495 0.01001 0.31671
 C891 C 0.41179 0.02893 0.31510
 C892 C 0.41226 0.04882 0.33275
 C893 C 0.36238 -0.00836 0.33718
 C894 C 0.34698 -0.00869 0.35660
 C895 C 0.34835 0.00958 0.37648
 C896 C 0.36593 0.02882 0.37611
 C897 C 0.36893 0.04580 0.39711
 C898 C 0.35535 0.04405 0.41781
 C899 C 0.33775 0.02581 0.41820
 C900 C 0.33339 0.00875 0.39725
 C901 C 0.31426 -0.00847 0.39813
 C902 C 0.30100 -0.00935 0.41941
 C903 C 0.30649 0.00668 0.44046
 C904 C 0.32465 0.02440 0.43964
 H905 H 0.39842 0.06536 0.36520
 H906 H 0.39423 -0.00522 0.30276
 H907 H 0.42503 0.06373 0.33174
 H908 H 0.36112 -0.02314 0.32271
 H909 H 0.33477 -0.02413 0.35602
 H910 H 0.38239 0.06020 0.39862
 H911 H 0.35870 0.05716 0.43376
 H912 H 0.30894 -0.02134 0.38262
 H913 H 0.28675 -0.02297 0.41967
 H914 H 0.32855 0.03714 0.45582
 C915 C 0.16586 0.52051 0.90420
 C916 C 0.14682 0.50331 0.89811
 C917 C 0.14611 0.48243 0.91167
 C918 C 0.16408 0.47886 0.93003
 C919 C 0.18255 0.49624 0.93599
 C920 C 0.18327 0.51703 0.92294
 C921 C 0.12723 0.46544 0.90725
 C922 C 0.10836 0.46915 0.89046
 C923 C 0.10791 0.48989 0.87689
 C924 C 0.12809 0.50651 0.87971
 C925 C 0.12887 0.52571 0.86400
 C926 C 0.11004 0.52935 0.84712
 C927 C 0.08945 0.51445 0.84562
 C928 C 0.08797 0.49456 0.86057
 C929 C 0.06621 0.48072 0.85923
 C930 C 0.04683 0.48661 0.84391
 C931 C 0.04855 0.50615 0.82913
 C932 C 0.07003 0.51975 0.82970
 H933 H 0.16740 0.53723 0.89546
 H934 H 0.16322 0.46291 0.94040
 H935 H 0.19739 0.53073 0.92733
 H936 H 0.12674 0.44929 0.91732
 H937 H 0.09451 0.45514 0.88818
 H938 H 0.14407 0.53808 0.86400
 H939 H 0.11140 0.54441 0.83553
 H940 H 0.06322 0.46581 0.87049
 H941 H 0.03028 0.47597 0.84378
 H942 H 0.07125 0.53514 0.81855
 C943 C 0.58302 0.04325 0.37712
 C944 C 0.60599 0.03392 0.37510
 C945 C 0.61221 0.02441 0.35112
 C946 C 0.59606 0.02444 0.33023
 C947 C 0.57330 0.03349 0.33268
 C948 C 0.56707 0.04296 0.35630
 C949 C 0.63439 0.01457 0.34811
 C950 C 0.65033 0.01309 0.36853
 C951 C 0.64481 0.02171 0.39293
 C952 C 0.62264 0.03311 0.39611
 C953 C 0.61781 0.04319 0.42021
 C954 C 0.63335 0.04105 0.44076
 C955 C 0.65428 0.02873 0.43826
 C956 C 0.66057 0.01911 0.41434
 C957 C 0.68208 0.00670 0.41308
 C958 C 0.69614 0.00342 0.43471
 C959 C 0.68938 0.01241 0.45828
 C960 C 0.66870 0.02556 0.45979
 H961 H 0.57648 0.05033 0.39460
 H962 H 0.60120 0.01728 0.31200
 H963 H 0.54945 0.04962 0.35890
 H964 H 0.63936 0.00750 0.32977
 H965 H 0.66695 0.00508 0.36446
 H966 H 0.60209 0.05300 0.42392
 H967 H 0.62867 0.04878 0.45895
 H968 H 0.68826 -0.00135 0.39582
 H969 H 0.71195 -0.00696 0.43304
 H970 H 0.66355 0.03300 0.47792
 C971 C 0.83419 0.48360 0.11150
 C972 C 0.85607 0.49722 0.11201
 C973 C 0.85915 0.51300 0.09279
 C974 C 0.84121 0.51471 0.07393
 C975 C 0.82003 0.50054 0.07324
 C976 C 0.81655 0.48528 0.09241
 C977 C 0.88029 0.52674 0.09213
 C978 C 0.89905 0.52446 0.10946
 C979 C 0.89737 0.50834 0.12842
 C980 C 0.87519 0.49527 0.13040
 C981 C 0.87297 0.48061 0.15057
 C982 C 0.89201 0.47791 0.16755
 C983 C 0.91414 0.48935 0.16495
 C984 C 0.91719 0.50475 0.14538
 C985 C 0.94023 0.51533 0.14315
 C986 C 0.95928 0.51052 0.15942
 C987 C 0.95615 0.49523 0.17859
 C988 C 0.93342 0.48501 0.18154
 H989 H 0.83034 0.47097 0.12511
 H990 H 0.84391 0.52697 0.05947
 H991 H 0.80043 0.47397 0.09223
 H992 H 0.88256 0.53913 0.07771
 H993 H 0.91466 0.53581 0.10751
 H994 H 0.85662 0.47099 0.15390
 H995 H 0.88950 0.46631 0.18261
 H996 H 0.94440 0.52687 0.12863
 H997 H 0.97668 0.51874 0.15690
 H998 H 0.93095 0.47293 0.19620
 C999 C 0.39728 -0.05485 0.62248
 C1000 C 0.38341 -0.03439 0.61984
 C1001 C 0.38524 -0.01587 0.63963
 C1002 C 0.40162 -0.01712 0.66011
 C1003 C 0.41598 -0.03698 0.66175
 C1004 C 0.41325 -0.05604 0.64311
 C1005 C 0.37101 0.00401 0.63872
 C1006 C 0.35503 0.00613 0.61847
 C1007 C 0.35312 -0.01133 0.59784
 C1008 C 0.36800 -0.03162 0.59826
 C1009 C 0.36767 -0.04794 0.57672
 C1010 C 0.35343 -0.04459 0.55547
 C1011 C 0.33845 -0.02527 0.55498
 C1012 C 0.33748 -0.00874 0.57637
 C1013 C 0.32090 0.00974 0.57525
 C1014 C 0.30681 0.01222 0.55345
 C1015 C 0.30888 -0.00344 0.53207
 C1016 C 0.32453 -0.02230 0.53304
 H1017 H 0.39618 -0.07029 0.60901
 H1018 H 0.40335 -0.00253 0.67480
 H1019 H 0.42406 -0.07165 0.64412
 H1020 H 0.37228 0.01819 0.65383
 H1021 H 0.34503 0.02224 0.61917
 H1022 H 0.37895 -0.06312 0.57528
 H1023 H 0.35419 -0.05730 0.53919
 H1024 H 0.31817 0.02242 0.59095
 H1025 H 0.29459 0.02677 0.55311
 H1026 H 0.32576 -0.03477 0.51663
   
