data_POSCAR
  _audit_creation_date              2014-09-24
  _audit_creation_method            'ToBaCCo'
  _symmetry_space_group_name_H-M    'P1'
  _symmetry_Int_Tables_number       1
  _symmetry_cell_setting            triclinic
  loop_
  _symmetry_equiv_pos_as_xyz
 x,y,z
_cell_length_a 45.2615
_cell_length_b 25.7099
_cell_length_c 16.2539
_cell_angle_alpha 89.472500
_cell_angle_beta 88.491500
_cell_angle_gamma 90.329600
loop_
  _atom_site_label
  _atom_site_type_symbol
  _atom_site_fract_x
  _atom_site_fract_y
  _atom_site_fract_z
C1 C 0.74188 0.22670 0.46542
 C2 C 0.74163 0.22776 0.54920
 C3 C 0.71730 0.25348 0.59650
 C4 C 0.76599 0.20428 0.59647
 C5 C 0.76791 0.20886 0.41680
 C6 C 0.71674 0.24586 0.41744
 C7 C 0.70968 0.30522 0.57971
 C8 C 0.68555 0.32807 0.62036
 C9 C 0.66860 0.30020 0.68023
 C10 C 0.67714 0.24851 0.69866
 C11 C 0.70123 0.22575 0.65736
 C12 C 0.78071 0.23390 0.65486
 C13 C 0.80470 0.21314 0.69620
 C14 C 0.81454 0.16246 0.67981
 C15 C 0.79896 0.13200 0.62372
 C16 C 0.77485 0.15271 0.58276
 C17 C 0.76520 0.16639 0.36405
 C18 C 0.78933 0.15045 0.31559
 C19 C 0.81621 0.17775 0.31723
 C20 C 0.81889 0.22048 0.37001
 C21 C 0.79488 0.23583 0.41962
 C22 C 0.68834 0.22438 0.42895
 C23 C 0.66474 0.24385 0.38451
 C24 C 0.66918 0.28531 0.32872
 C25 C 0.69786 0.30547 0.31525
 C26 C 0.72143 0.28577 0.35911
 H27 H 0.72220 0.32776 0.53411
 H28 H 0.68013 0.36785 0.60433
 H29 H 0.66528 0.22429 0.74299
 H30 H 0.70687 0.18579 0.67138
 H31 H 0.77407 0.27356 0.66701
 H32 H 0.81604 0.23718 0.73991
 H33 H 0.76319 0.12859 0.53988
 H34 H 0.74443 0.14541 0.36099
 H35 H 0.78692 0.11711 0.27598
 H36 H 0.83960 0.24144 0.37405
 H37 H 0.79719 0.26899 0.45962
 H38 H 0.68447 0.19288 0.47268
 H39 H 0.64287 0.22738 0.39510
 H40 H 0.70213 0.33638 0.27077
 H41 H 0.74328 0.30233 0.34870
 H42 H 0.80503 0.09210 0.61185
 C43 C 0.25271 0.75053 0.53702
 C44 C 0.25388 0.75570 0.45322
 C45 C 0.28025 0.73919 0.40341
 C46 C 0.22899 0.77761 0.40575
 C47 C 0.22882 0.77500 0.58780
 C48 C 0.27559 0.72052 0.58121
 C49 C 0.30873 0.75677 0.42210
 C50 C 0.33305 0.74328 0.37222
 C51 C 0.32918 0.71298 0.30169
 C52 C 0.30070 0.69651 0.28196
 C53 C 0.27649 0.70902 0.33277
 C54 C 0.23509 0.81269 0.34051
 C55 C 0.21273 0.82868 0.28863
 C56 C 0.18366 0.81110 0.30219
 C57 C 0.17726 0.77684 0.36828
 C58 C 0.19982 0.75967 0.41891
 C59 C 0.21203 0.74495 0.64453
 C60 C 0.18857 0.76709 0.68955
 C61 C 0.18176 0.82022 0.67969
 C62 C 0.19913 0.85033 0.62412
 C63 C 0.22248 0.82811 0.57904
 C64 C 0.28223 0.66919 0.55893
 C65 C 0.30536 0.64266 0.59585
 C66 C 0.32222 0.66649 0.65653
 C67 C 0.31481 0.71747 0.68076
 C68 C 0.29161 0.74394 0.64376
 H69 H 0.31207 0.78159 0.47455
 H70 H 0.35474 0.75754 0.38769
 H71 H 0.29725 0.67331 0.22770
 H72 H 0.25471 0.69552 0.31658
 H73 H 0.25740 0.82680 0.32852
 H74 H 0.21811 0.85499 0.23792
 H75 H 0.19463 0.73125 0.46675
 H76 H 0.21654 0.70388 0.65216
 H77 H 0.17553 0.74193 0.73000
 H78 H 0.19448 0.89124 0.61504
 H79 H 0.23543 0.85226 0.53654
 H80 H 0.26986 0.65003 0.51164
 H81 H 0.31035 0.60351 0.57599
 H82 H 0.32715 0.73791 0.72646
 H83 H 0.28682 0.78350 0.66193
 H84 H 0.15506 0.76191 0.37891
 C85 C 0.24848 0.25939 -0.46024
 C86 C 0.24682 0.25871 -0.54389
 C87 C 0.27018 0.28256 -0.59798
 C88 C 0.22199 0.23222 -0.58445
 C89 C 0.22293 0.24211 -0.40795
 C90 C 0.27547 0.27770 -0.41891
 C91 C 0.27893 0.33445 -0.58772
 C92 C 0.30351 0.35446 -0.63129
 C93 C 0.31984 0.32324 -0.68662
 C94 C 0.30974 0.27188 -0.70001
 C95 C 0.28514 0.25205 -0.65631
 C96 C 0.20417 0.25981 -0.63849
 C97 C 0.17987 0.23565 -0.67368
 C98 C 0.17300 0.18294 -0.65553
 C99 C 0.19160 0.15536 -0.60279
 C100 C 0.21594 0.17954 -0.56835
 C101 C 0.22433 0.19570 -0.36259
 C102 C 0.19880 0.17467 -0.32472
 C103 C 0.17139 0.20042 -0.33051
 C104 C 0.17084 0.24905 -0.37090
 C105 C 0.19624 0.26933 -0.41015
 C106 C 0.30344 0.25904 -0.44342
 C107 C 0.32904 0.28198 -0.41405
 C108 C 0.32715 0.32219 -0.35666
 C109 C 0.29920 0.33850 -0.32763
 C110 C 0.27352 0.31646 -0.35881
 H111 H 0.26731 0.35888 -0.54379
 H112 H 0.31022 0.39423 -0.61983
 H113 H 0.32081 0.24577 -0.74203
 H114 H 0.27856 0.21197 -0.66536
 H115 H 0.20869 0.30047 -0.65195
 H116 H 0.16658 0.25924 -0.71337
 H117 H 0.22993 0.15723 -0.52832
 H118 H 0.24490 0.17450 -0.35991
 H119 H 0.20092 0.13843 -0.29130
 H120 H 0.15038 0.27045 -0.37560
 H121 H 0.19489 0.30546 -0.44465
 H122 H 0.30546 0.22810 -0.48795
 H123 H 0.35038 0.26858 -0.43662
 H124 H 0.29721 0.36981 -0.28376
 H125 H 0.25219 0.33123 -0.33873
 H126 H 0.18732 0.11480 -0.58778
 C127 C -0.24471 0.75104 -0.46092
 C128 C -0.24728 0.75172 -0.54465
 C129 C -0.22399 0.77569 -0.59903
 C130 C -0.27267 0.72760 -0.58647
 C131 C -0.26955 0.73424 -0.40423
 C132 C -0.21662 0.76784 -0.42261
 C133 C -0.21579 0.82789 -0.58974
 C134 C -0.19179 0.84863 -0.63497
 C135 C -0.17534 0.81769 -0.69048
 C136 C -0.18474 0.76581 -0.70242
 C137 C -0.20892 0.74533 -0.65745
 C138 C -0.28825 0.75641 -0.64449
 C139 C -0.31204 0.73417 -0.68471
 C140 C -0.32074 0.68228 -0.66878
 C141 C -0.30451 0.65317 -0.61120
 C142 C -0.28077 0.67568 -0.57085
 C143 C -0.26394 0.70271 -0.33544
 C144 C -0.28701 0.68645 -0.28217
 C145 C -0.31643 0.69997 -0.29757
 C146 C -0.32187 0.73321 -0.36507
 C147 C -0.29864 0.75082 -0.41658
 C148 C -0.18932 0.74745 -0.44961
 C149 C -0.16289 0.76753 -0.42046
 C150 C -0.16326 0.80640 -0.36063
 C151 C -0.19054 0.82459 -0.32959
 C152 C -0.21702 0.80563 -0.36072
 H153 H -0.22748 0.85213 -0.54569
 H154 H -0.18559 0.88877 -0.62454
 H155 H -0.17359 0.74010 -0.74496
 H156 H -0.21516 0.70502 -0.66583
 H157 H -0.28220 0.79647 -0.65795
 H158 H -0.32373 0.75791 -0.72852
 H159 H -0.26861 0.65246 -0.52745
 H160 H -0.24167 0.69008 -0.32337
 H161 H -0.28186 0.66166 -0.23026
 H162 H -0.34379 0.74729 -0.37737
 H163 H -0.30348 0.77750 -0.46628
 H164 H -0.18844 0.71705 -0.49526
 H165 H -0.14209 0.75280 -0.44482
 H166 H -0.19136 0.85499 -0.28393
 H167 H -0.23779 0.82163 -0.33846
 H168 H -0.30963 0.61314 -0.59609
 N169 N 0.02799 1.07625 0.13629
 N170 N 0.05038 1.08912 0.18257
 N171 N -0.03634 1.09741 0.08314
 N172 N -0.06003 1.12647 0.09508
 N173 N -0.03381 1.06366 0.14356
 N174 N -0.05572 1.06839 0.19786
 N175 N 0.02531 1.10987 0.07568
 N176 N 0.04564 1.14668 0.07925
 C177 C 0.06109 1.13320 0.14610
 C178 C -0.07185 1.10761 0.16692
 N179 N -0.03464 1.05150 -0.14663
 N180 N -0.05742 1.05201 -0.19592
 N181 N 0.02505 1.10213 -0.10067
 N182 N 0.04718 1.13538 -0.11137
 N183 N 0.02757 1.06349 -0.15268
 N184 N 0.05169 1.06918 -0.19949
 N185 N -0.03667 1.08961 -0.09358
 N186 N -0.06073 1.11709 -0.10528
 Mn187 Mn -0.00574 1.10034 -0.00905
 C188 C -0.07347 1.09321 -0.16914
 C189 C 0.06348 1.11448 -0.17343
 N190 N -0.02707 0.95313 0.15688
 N191 N -0.05020 0.94649 0.20707
 N192 N 0.03701 0.92690 0.09845
 N193 N 0.05841 0.89515 0.12016
 N194 N 0.03445 0.96523 0.15100
 N195 N 0.05366 0.96034 0.21005
 N196 N -0.02505 0.91481 0.10424
 N197 N -0.04688 0.88116 0.11694
 Mn198 Mn 0.00043 1.01466 0.14767
 C199 C -0.06224 0.90137 0.18166
 C200 C 0.06877 0.91713 0.18934
 N201 N 0.03423 0.95237 -0.14057
 N202 N 0.05607 0.94662 -0.19507
 N203 N -0.02537 0.90713 -0.07201
 N204 N -0.04739 0.87319 -0.07160
 N205 N -0.02758 0.94013 -0.13371
 N206 N -0.05092 0.92909 -0.17752
 N207 N 0.03675 0.91921 -0.07923
 N208 N 0.06046 0.89005 -0.09034
 Mn209 Mn -0.00012 1.00187 -0.14449
 Mn210 Mn 0.00595 0.91635 0.01283
 Cl211 Cl 0.00018 1.00823 0.00171
 C212 C 0.07232 0.90781 -0.16285
 C213 C -0.06291 0.88700 -0.13826
 N214 N 0.47429 0.44073 0.16035
 N215 N 0.45186 0.43719 0.21389
 N216 N 0.53367 0.40088 0.08355
 N217 N 0.55515 0.36646 0.08799
 N218 N 0.53626 0.43619 0.14069
 N219 N 0.55966 0.42727 0.18503
 N220 N 0.47189 0.40548 0.10298
 N221 N 0.44783 0.37713 0.11565
 C222 C 0.43565 0.39711 0.18524
 C223 C 0.57123 0.38375 0.15141
 N224 N 0.52719 0.44116 -0.14894
 N225 N 0.54888 0.43527 -0.20410
 N226 N 0.46612 0.40862 -0.07158
 N227 N 0.44199 0.37961 -0.07161
 N228 N 0.46513 0.44518 -0.12832
 N229 N 0.44042 0.44153 -0.16947
 N230 N 0.52799 0.40426 -0.09259
 N231 N 0.55008 0.37225 -0.10794
 Mn232 Mn 0.49996 0.40422 0.00545
 C233 C 0.56286 0.39193 -0.17784
 C234 C 0.42632 0.40034 -0.13325
 N235 N 0.53966 0.54731 0.14345
 N236 N 0.56285 0.55215 0.19017
 N237 N 0.47718 0.58960 0.10777
 N238 N 0.45731 0.62474 0.12947
 N239 N 0.47824 0.55253 0.16368
 N240 N 0.45961 0.56169 0.22541
 N241 N 0.53925 0.58457 0.08769
 N242 N 0.56228 0.61592 0.09520
 Mn243 Mn 0.50709 0.49411 0.15285
 C244 C 0.57684 0.59495 0.15924
 C245 C 0.44656 0.60649 0.20294
 N246 N 0.46804 0.55764 -0.12579
 N247 N 0.44427 0.56748 -0.16874
 N248 N 0.53343 0.58769 -0.08934
 N249 N 0.55502 0.62048 -0.11021
 N250 N 0.52971 0.55337 -0.14763
 N251 N 0.54828 0.56233 -0.21012
 N252 N 0.47139 0.59285 -0.06860
 N253 N 0.44998 0.62743 -0.07098
 Mn254 Mn 0.49744 0.49930 -0.13872
 Mn255 Mn 0.50538 0.58937 0.00931
 Cl256 Cl 0.50249 0.49688 0.00714
 C257 C 0.43324 0.61115 -0.13361
 C258 C 0.56414 0.60377 -0.18550
 C259 C 0.34589 0.34430 0.27643
 C260 C 0.36398 0.31887 0.22381
 C261 C 0.39189 0.34071 0.18893
 C262 C 0.40754 0.37894 0.22311
 H263 H 0.35852 0.28066 0.20191
 H264 H 0.40056 0.32211 0.13391
 H265 H 0.35169 0.38378 0.29241
 H266 H 0.40017 0.39685 0.27991
 C267 C -0.14988 0.83978 0.27087
 C268 C -0.13077 0.81448 0.22076
 C269 C -0.10327 0.83816 0.18568
 C270 C -0.08956 0.87914 0.21828
 H271 H -0.13485 0.77496 0.20234
 H272 H -0.09339 0.81938 0.13237
 H273 H -0.14536 0.88019 0.28403
 H274 H -0.09823 0.89741 0.27338
 C275 C 0.65471 0.66242 0.28925
 C276 C 0.64371 0.61389 0.29820
 C277 C 0.61709 0.59427 0.25719
 C278 C 0.60396 0.61713 0.19328
 H279 H 0.65332 0.58644 0.34011
 H280 H 0.60807 0.55799 0.28160
 H281 H 0.64375 0.68893 0.24815
 H282 H 0.61282 0.65230 0.16504
 C283 C 0.14829 1.15660 0.31361
 C284 C 0.12926 1.17654 0.26012
 C285 C 0.10381 1.14565 0.23356
 C286 C 0.08654 1.16315 0.17423
 H287 H 0.13207 1.21518 0.23442
 H288 H 0.09931 1.10809 0.26226
 H289 H 0.14438 1.11687 0.33458
 H290 H 0.09144 1.20014 0.14421
 C291 C 0.64485 0.32392 -0.28410
 C292 C 0.62666 0.30241 -0.22089
 C293 C 0.60123 0.32583 -0.18734
 C294 C 0.58789 0.37117 -0.21696
 H295 H 0.63235 0.26594 -0.19229
 H296 H 0.59090 0.30587 -0.13495
 H297 H 0.63987 0.36281 -0.30530
 H298 H 0.59639 0.39099 -0.27155
 C299 C 0.15616 0.84537 -0.27750
 C300 C 0.14122 0.82460 -0.21243
 C301 C 0.11502 0.84865 -0.17150
 C302 C 0.09902 0.88699 -0.20431
 H303 H 0.14859 0.78866 -0.18508
 H304 H 0.10801 0.83206 -0.11262
 H305 H 0.14995 0.88324 -0.30044
 H306 H 0.10482 0.90324 -0.26414
 C307 C 0.34781 0.63739 -0.31050
 C308 C 0.36414 0.65287 -0.24749
 C309 C 0.39007 0.62268 -0.22174
 C310 C 0.40661 0.63884 -0.15986
 H311 H 0.35884 0.68799 -0.21439
 H312 H 0.39592 0.58746 -0.25438
 H313 H 0.35369 0.60124 -0.34049
 H314 H 0.40066 0.67407 -0.12742
 C315 C -0.15923 1.14291 -0.27682
 C316 C -0.14145 1.10538 -0.30655
 C317 C -0.11411 1.08728 -0.26699
 C318 C -0.10122 1.11138 -0.20446
 H319 H -0.14653 1.08687 -0.36398
 H320 H -0.10368 1.05317 -0.29315
 H321 H -0.15408 1.16216 -0.22016
 H322 H -0.11053 1.14623 -0.17816
 C323 C 0.66089 0.68003 -0.24493
 C324 C 0.63227 0.67824 -0.26422
 C325 C 0.61001 0.65416 -0.20795
 C326 C 0.58672 0.62953 -0.23824
 H327 H 0.62512 0.69049 -0.32432
 H328 H 0.61335 0.65450 -0.14214
 H329 H 0.66714 0.66168 -0.18760
 H330 H 0.58487 0.62569 -0.30428
 C331 C 0.14452 1.17953 -0.29890
 C332 C 0.14045 1.12970 -0.27519
 C333 C 0.11144 1.10886 -0.24665
 C334 C 0.09160 1.13700 -0.20413
 H335 H 0.15783 1.10144 -0.28302
 H336 H 0.10718 1.06796 -0.25697
 H337 H 0.12535 1.20465 -0.29884
 H338 H 0.09664 1.17665 -0.18726
 C339 C 0.35455 0.34822 -0.33163
 C340 C 0.35894 0.36276 -0.25432
 C341 C 0.38722 0.38630 -0.23179
 C342 C 0.39724 0.38052 -0.15593
 H343 H 0.34233 0.35455 -0.20662
 H344 H 0.40077 0.40578 -0.27885
 H345 H 0.37237 0.35251 -0.37715
 H346 H 0.38468 0.35766 -0.11070
 C347 C -0.13504 0.82979 -0.33583
 C348 C -0.12942 0.84127 -0.25780
 C349 C -0.10117 0.86574 -0.23661
 C350 C -0.09067 0.86159 -0.16089
 H351 H -0.14544 0.83165 -0.20919
 H352 H -0.08854 0.88661 -0.28411
 H353 H -0.11792 0.83575 -0.38295
 H354 H -0.10237 0.83811 -0.11473
 C355 C 0.35437 0.69822 0.24754
 C356 C 0.38035 0.68445 0.27769
 C357 C 0.40402 0.66396 0.22374
 C358 C 0.42404 0.63197 0.25458
 H359 H 0.38342 0.68432 0.34363
 H360 H 0.40393 0.67217 0.15818
 H361 H 0.35064 0.69384 0.18233
 H362 H 0.42267 0.62109 0.31918
 C363 C -0.15852 1.15907 0.26679
 C364 C -0.13777 1.19093 0.23386
 C365 C -0.11167 1.17133 0.18782
 C366 C -0.09878 1.12655 0.20828
 H367 H -0.14024 1.23267 0.23842
 H368 H -0.10167 1.19614 0.14048
 H369 H -0.15758 1.11776 0.25433
 H370 H -0.10732 1.10378 0.26012
 C371 C 0.64362 0.30725 0.28609
 C372 C 0.64181 0.35812 0.26858
 C373 C 0.61552 0.38214 0.23348
 C374 C 0.59770 0.35789 0.18155
 H375 H 0.65905 0.38441 0.28766
 H376 H 0.61139 0.42234 0.24939
 H377 H 0.62493 0.28189 0.27549
 H378 H 0.60269 0.31909 0.16009
 C379 C 0.16064 0.82780 0.24518
 C380 C 0.13370 0.84143 0.27202
 C381 C 0.11174 0.86175 0.21508
 C382 C 0.09104 0.89438 0.24254
 H383 H 0.12838 0.84073 0.33747
 H384 H 0.11325 0.85192 0.15038
 H385 H 0.16670 0.83301 0.18062
 H386 H 0.09106 0.90672 0.30615
   
