data_POSCAR
  _audit_creation_date              2014-09-24
  _audit_creation_method            'ToBaCCo'
  _symmetry_space_group_name_H-M    'P1'
  _symmetry_Int_Tables_number       1
  _symmetry_cell_setting            triclinic
  loop_
  _symmetry_equiv_pos_as_xyz
 x,y,z
_cell_length_a 33.0434
_cell_length_b 32.9543
_cell_length_c 32.9544
_cell_angle_alpha 89.999900
_cell_angle_beta 89.972100
_cell_angle_gamma 89.971300
loop_
  _atom_site_label
  _atom_site_type_symbol
  _atom_site_fract_x
  _atom_site_fract_y
  _atom_site_fract_z
C1 C 0.20746 1.23962 0.17858
 C2 C 0.23747 1.20951 0.17803
 C3 C 0.23711 1.17901 0.20678
 C4 C 0.20680 1.17828 0.23660
 C5 C 0.17742 1.20797 0.23718
 C6 C 0.17766 1.23881 0.20781
 C7 C 0.19844 1.27087 0.15248
 N8 N 0.16348 1.28935 0.16479
 C9 C 0.15096 1.26959 0.19903
 C10 C 0.15072 1.19829 0.26768
 N11 N 0.16289 1.16313 0.28601
 C12 C 0.19749 1.15099 0.26675
 C13 C 0.26776 1.15246 0.19705
 N14 N 0.28685 1.16606 0.16306
 C15 C 0.26842 1.20111 0.15140
 H16 H 0.21562 1.27781 0.12547
 H17 H 0.12400 1.27598 0.21643
 H18 H 0.12363 1.21535 0.27442
 H19 H 0.21503 1.12413 0.27335
 H20 H 0.27434 1.12435 0.21268
 H21 H 0.27636 1.21908 0.12510
 C22 C 0.79287 0.76368 0.17827
 C23 C 0.76257 0.79353 0.17890
 C24 C 0.76215 0.82233 0.20935
 C25 C 0.79211 0.82183 0.23949
 C26 C 0.82180 0.79246 0.23887
 C27 C 0.82214 0.76309 0.20804
 C28 C 0.80222 0.73348 0.15105
 N29 N 0.83674 0.71418 0.16331
 C30 C 0.84881 0.73253 0.19847
 C31 C 0.84834 0.80118 0.26978
 N32 N 0.83588 0.83556 0.28935
 C33 C 0.80110 0.84800 0.27067
 C34 C 0.73127 0.84899 0.20084
 N35 N 0.71292 0.83728 0.16578
 C36 C 0.73201 0.80325 0.15227
 H37 H 0.78476 0.72687 0.12416
 H38 H 0.87581 0.72575 0.21563
 H39 H 0.87576 0.78434 0.27571
 H40 H 0.78338 0.87450 0.27819
 H41 H 0.72331 0.87533 0.21874
 H42 H 0.72549 0.78758 0.12418
 C43 C 0.79312 1.23667 -0.17844
 C44 C 0.76283 1.20685 -0.17911
 C45 C 0.76251 1.17801 -0.20953
 C46 C 0.79255 1.17845 -0.23961
 C47 C 0.82239 1.20763 -0.23881
 C48 C 0.82263 1.23703 -0.20800
 C49 C 0.80234 1.26695 -0.15127
 N50 N 0.83706 1.28600 -0.16332
 C51 C 0.84939 1.26744 -0.19830
 C52 C 0.84912 1.19873 -0.26953
 N53 N 0.83658 1.16449 -0.28925
 C54 C 0.80159 1.15228 -0.27080
 C55 C 0.73153 1.15145 -0.20112
 N56 N 0.71304 1.16324 -0.16613
 C57 C 0.73212 1.19725 -0.15259
 H58 H 0.78532 1.27305 -0.12395
 H59 H 0.87597 1.27477 -0.21590
 H60 H 0.87612 1.21605 -0.27590
 H61 H 0.78438 1.12530 -0.27772
 H62 H 0.72361 1.12512 -0.21903
 H63 H 0.72548 1.21297 -0.12454
 C64 C 0.20790 0.76047 -0.17810
 C65 C 0.23789 0.79058 -0.17771
 C66 C 0.23751 0.82095 -0.20659
 C67 C 0.20724 0.82152 -0.23644
 C68 C 0.17783 0.79188 -0.23681
 C69 C 0.17818 0.76107 -0.20741
 C70 C 0.19889 0.72935 -0.15185
 N71 N 0.16407 0.71070 -0.16419
 C72 C 0.15160 0.73023 -0.19857
 C73 C 0.15110 0.80146 -0.26728
 N74 N 0.16333 0.83646 -0.28586
 C75 C 0.19798 0.84862 -0.26677
 C76 C 0.26813 0.84755 -0.19699
 N77 N 0.28720 0.83411 -0.16294
 C78 C 0.26879 0.79911 -0.15111
 H79 H 0.21663 0.72185 -0.12537
 H80 H 0.12414 0.72432 -0.21534
 H81 H 0.12461 0.78377 -0.27466
 H82 H 0.21490 0.87598 -0.27288
 H83 H 0.27470 0.87558 -0.21275
 H84 H 0.27672 0.78127 -0.12473
 C85 C 0.55880 1.05929 -0.01444
 H86 H 0.55721 1.06264 0.01818
 C87 C 0.58636 1.08237 -0.03674
 H88 H 0.60604 1.10343 -0.02105
 C89 C 0.53622 1.02636 -0.07423
 H90 H 0.51726 1.00388 -0.08860
 C91 C 0.56368 1.04851 -0.09766
 H92 H 0.56505 1.04344 -0.13010
 N93 N 0.53419 1.03223 -0.03341
 C94 C 0.44107 1.01451 0.05872
 H95 H 0.44269 0.98189 0.06203
 C96 C 0.41349 1.03676 0.08183
 H97 H 0.39381 1.02104 0.10288
 C98 C 0.46365 1.07435 0.02585
 H99 H 0.48263 1.08875 0.00339
 C100 C 0.43616 1.09773 0.04804
 H101 H 0.43479 1.13018 0.04301
 Zn102 Zn 0.49999 1.00035 -0.00020
 N103 N 0.46570 1.03352 0.03168
 C104 C 0.53626 0.97437 0.07381
 N105 N 0.53426 0.96853 0.03299
 C106 C 0.55895 0.94150 0.01400
 C107 C 0.58652 0.91842 0.03627
 C108 C 0.56374 0.95222 0.09722
 C109 C 0.44113 0.98606 -0.05908
 C110 C 0.41359 0.96375 -0.08213
 C111 C 0.43638 0.90285 -0.04826
 C112 C 0.46382 0.92630 -0.02614
 N113 N 0.46579 0.96712 -0.03202
 H114 H 0.51724 0.99682 0.08820
 H115 H 0.55738 0.93817 -0.01863
 H116 H 0.60624 0.89737 0.02057
 H117 H 0.56506 0.95727 0.12966
 H118 H 0.44267 1.01868 -0.06244
 H119 H 0.39387 0.97941 -0.10319
 H120 H 0.43507 0.87042 -0.04317
 H121 H 0.48282 0.91195 -0.00366
 C122 C 0.41063 1.07890 0.07642
 C123 C 0.58920 1.07691 -0.07887
 C124 C 0.41081 0.92161 -0.07665
 C125 C 0.58932 0.92385 0.07841
 C126 C -0.01332 0.56285 1.05528
 H127 H 0.01941 0.56362 1.05503
 C128 C -0.03491 0.59102 1.07832
 H129 H -0.01850 0.61358 1.09562
 C130 C -0.07429 0.53358 1.03131
 H131 H -0.08951 0.51159 1.01241
 C132 C -0.09711 0.56126 1.05388
 H133 H -0.12982 0.55974 1.05270
 N134 N -0.03316 0.53479 1.03252
 C135 C 0.05443 0.43781 1.01317
 H136 H 0.05414 0.43641 0.98037
 C137 C 0.07779 0.41033 1.03527
 H138 H 0.09526 0.38764 1.01919
 C139 C 0.03035 0.46800 1.07383
 H140 H 0.01129 0.49007 1.08874
 C141 C 0.05321 0.44102 1.09715
 H142 H 0.05209 0.44315 1.12992
 Zn143 Zn -0.00116 0.50005 0.99997
 N144 N 0.03150 0.46603 1.03261
 C145 C 0.07241 0.53183 0.96806
 N146 N 0.03130 0.53371 0.96674
 C147 C 0.01196 0.56169 0.94345
 C148 C 0.03405 0.58916 0.92004
 C149 C 0.09570 0.55874 0.94510
 C150 C -0.05714 0.43789 0.98786
 C151 C -0.08009 0.40974 0.96616
 C152 C -0.05511 0.43917 0.90385
 C153 C -0.03262 0.46678 0.92676
 N154 N -0.03408 0.46568 0.96800
 H155 H 0.08727 0.50997 0.98738
 H156 H -0.02076 0.56301 0.94360
 H157 H 0.01803 0.61175 0.90240
 H158 H 0.12838 0.55669 0.94643
 H159 H -0.05710 0.43720 1.02068
 H160 H -0.09751 0.38730 0.98260
 H161 H -0.05366 0.44058 0.87106
 H162 H -0.01349 0.48854 0.91152
 C163 C 0.07726 0.41160 1.07787
 C164 C -0.07741 0.59059 1.07768
 C165 C -0.07906 0.40995 0.92355
 C166 C 0.07654 0.58808 0.92085
 C167 C 1.05720 -0.01263 0.56215
 H168 H 1.05711 0.02019 0.56282
 C169 C 1.08021 -0.03430 0.59029
 H170 H 1.09762 -0.01784 0.61271
 C171 C 1.03277 -0.07376 0.53330
 H172 H 1.01366 -0.08903 0.51157
 C173 C 1.05533 -0.09664 0.56090
 H174 H 1.05393 -0.12943 0.55951
 N175 N 1.03415 -0.03252 0.53438
 C176 C 1.01318 0.05471 0.43721
 H177 H 0.98045 0.05444 0.43645
 C178 C 1.03471 0.07779 0.40903
 H179 H 1.01826 0.09507 0.38649
 C180 C 1.07421 0.03080 0.46644
 H181 H 1.08948 0.01191 0.48841
 C182 C 1.09697 0.05340 0.43875
 H183 H 1.12969 0.05226 0.44026
 Zn184 Zn 1.00115 -0.00058 0.50004
 N185 N 1.03308 0.03198 0.46525
 C186 C 0.96962 0.07329 0.53209
 N187 N 0.96850 0.03207 0.53408
 C188 C 0.94563 0.01266 0.56234
 C189 C 0.92229 0.03478 0.58984
 C190 C 0.94677 0.09663 0.55909
 C191 C 0.98802 -0.05713 0.43844
 C192 C 0.96591 -0.08051 0.41098
 C193 C 0.90428 -0.05542 0.44145
 C194 C 0.92759 -0.03249 0.46835
 N195 N 0.96869 -0.03382 0.46643
 H196 H 0.98863 0.08820 0.50999
 H197 H 0.94595 -0.02014 0.56375
 H198 H 0.90486 0.01871 0.61256
 H199 H 0.94787 0.12940 0.55694
 H200 H 1.02074 -0.05699 0.43708
 H201 H 0.98192 -0.09815 0.38837
 H202 H 0.87160 -0.05407 0.44353
 H203 H 0.91274 -0.01315 0.49022
 C204 C 1.07721 0.07720 0.40944
 C205 C 1.07926 -0.07691 0.59009
 C206 C 0.92343 -0.07967 0.41209
 C207 C 0.92278 0.07737 0.58855
 C208 C 0.16070 0.33972 1.11085
 C209 C 0.14357 0.32039 1.14513
 C210 C 0.10482 0.33355 1.15786
 C211 C 0.08378 0.36351 1.13651
 C212 C 0.10065 0.38150 1.10186
 C213 C 0.13952 0.36963 1.08959
 H214 H 0.19057 0.33224 1.09992
 H215 H 0.08965 0.32035 1.18365
 H216 H 0.05365 0.37173 1.14652
 H217 H 0.15370 0.38359 1.06346
 C218 C -0.10944 0.66380 1.16058
 C219 C -0.14352 0.68323 1.14331
 C220 C -0.15617 0.67006 1.10446
 C221 C -0.13513 0.63974 1.08360
 C222 C -0.10086 0.62140 1.10073
 C223 C -0.08851 0.63351 1.13958
 H224 H -0.09854 0.67136 1.19048
 H225 H -0.18170 0.68347 1.08912
 H226 H -0.14515 0.63141 1.05345
 H227 H -0.06263 0.61936 1.15395
 C228 C -0.16095 0.33609 0.89092
 C229 C -0.14334 0.31694 0.85677
 C230 C -0.10460 0.33039 0.84439
 C231 C -0.08418 0.36077 0.86568
 C232 C -0.10166 0.37895 0.89995
 C233 C -0.14039 0.36649 0.91209
 H234 H -0.19081 0.32827 0.90159
 H235 H -0.08898 0.31709 0.81891
 H236 H -0.05408 0.36927 0.85586
 H237 H -0.15503 0.38049 0.93797
 C238 C 0.15662 0.66611 0.89420
 C239 C 0.14415 0.67967 0.85544
 C240 C 0.10989 0.66076 0.83800
 C241 C 0.08850 0.63072 0.85887
 C242 C 0.10057 0.61838 0.89775
 C243 C 0.13511 0.63610 0.91495
 H244 H 0.18227 0.67915 0.90966
 H245 H 0.09923 0.66859 0.80807
 H246 H 0.06245 0.61700 0.84442
 H247 H 0.14494 0.62762 0.94513
 C248 C 1.15592 0.10420 0.33003
 C249 C 1.14318 0.14305 0.31691
 C250 C 1.10905 0.16023 0.33634
 C251 C 1.08816 0.13916 0.36659
 C252 C 1.10060 0.10031 0.37865
 C253 C 1.13493 0.08326 0.36031
 H254 H 1.18150 0.08893 0.31660
 H255 H 1.09807 0.19013 0.32882
 H256 H 1.06224 0.15347 0.38075
 H257 H 1.14502 0.05311 0.36860
 C258 C 1.16123 -0.10939 0.66396
 C259 C 1.14370 -0.14353 0.68316
 C260 C 1.10500 -0.15598 0.66972
 C261 C 1.08452 -0.13474 0.63931
 C262 C 1.10193 -0.10047 0.62110
 C263 C 1.14064 -0.08827 0.63353
 H264 H 1.19108 -0.09868 0.67177
 H265 H 1.08943 -0.18146 0.68305
 H266 H 1.05444 -0.14461 0.63082
 H267 H 1.15521 -0.06240 0.61951
 C268 C 0.84332 -0.10613 0.33405
 C269 C 0.85579 -0.14489 0.32043
 C270 C 0.89004 -0.16240 0.33932
 C271 C 0.91144 -0.14159 0.36939
 C272 C 0.89938 -0.10271 0.38178
 C273 C 0.86483 -0.08545 0.36409
 H274 H 0.81767 -0.09062 0.32104
 H275 H 0.90070 -0.19233 0.33145
 H276 H 0.93749 -0.15609 0.38308
 H277 H 0.85501 -0.05528 0.37261
 C278 C 0.83938 0.11044 0.66048
 C279 C 0.85650 0.14475 0.67974
 C280 C 0.89524 0.15744 0.66655
 C281 C 0.91628 0.13605 0.63661
 C282 C 0.89941 0.10139 0.61866
 C283 C 0.86056 0.08914 0.63059
 H284 H 0.80954 0.09953 0.66800
 H285 H 0.91040 0.18325 0.67970
 H286 H 0.94639 0.14604 0.62835
 H287 H 0.84638 0.06300 0.61666
 C288 C 0.32581 1.15258 0.10015
 C289 C 0.31912 1.14549 0.14174
 C290 C 0.34388 1.11716 0.16188
 C291 C 0.37386 1.09588 0.14081
 C292 C 0.38009 1.10272 0.09922
 C293 C 0.35604 1.13157 0.07921
 H294 H 0.30705 1.17355 0.08335
 H295 H 0.34023 1.11142 0.19398
 H296 H 0.39235 1.07415 0.15707
 H297 H 0.35982 1.13703 0.04702
 C298 C 0.67406 1.10040 -0.15255
 C299 C 0.68074 1.14200 -0.14555
 C300 C 0.65596 1.16222 -0.11728
 C301 C 0.62597 1.14122 -0.09597
 C302 C 0.61975 1.09963 -0.10273
 C303 C 0.64381 1.07953 -0.13152
 H304 H 0.69282 1.08353 -0.17348
 H305 H 0.65961 1.19433 -0.11159
 H306 H 0.60748 1.15755 -0.07428
 H307 H 0.64003 1.04734 -0.13691
 C308 C 0.34414 0.88307 -0.16194
 C309 C 0.31942 0.85478 -0.14170
 C310 C 0.32610 0.84783 -0.10009
 C311 C 0.35629 0.86892 -0.07923
 C312 C 0.38030 0.89772 -0.09935
 C313 C 0.37407 0.90444 -0.14095
 H314 H 0.34049 0.88872 -0.19405
 H315 H 0.30738 0.82690 -0.08321
 H316 H 0.36008 0.86356 -0.04703
 H317 H 0.39253 0.92613 -0.15729
 C318 C 0.65601 0.83843 0.11679
 C319 C 0.68071 0.85859 0.14513
 C320 C 0.67402 0.90020 0.15216
 C321 C 0.64383 0.92112 0.13110
 C322 C 0.61983 0.90108 0.10225
 C323 C 0.62608 0.85949 0.09546
 H324 H 0.65967 0.80633 0.11108
 H325 H 0.69273 0.91702 0.17314
 H326 H 0.64003 0.95331 0.13653
 H327 H 0.60763 0.84320 0.07373
   
