data_POSCAR
  _audit_creation_date              2014-09-24
  _audit_creation_method            'ToBaCCo'
  _symmetry_space_group_name_H-M    'P1'
  _symmetry_Int_Tables_number       1
  _symmetry_cell_setting            triclinic
  loop_
  _symmetry_equiv_pos_as_xyz
 x,y,z
_cell_length_a 42.1628
_cell_length_b 24.9333
_cell_length_c 13.4041
_cell_angle_alpha 89.984200
_cell_angle_beta 89.996900
_cell_angle_gamma 89.997700
loop_
  _atom_site_label
  _atom_site_type_symbol
  _atom_site_fract_x
  _atom_site_fract_y
  _atom_site_fract_z
C1 C 0.72471 0.27216 0.55439
 C2 C 0.72487 0.27190 0.44915
 C3 C 0.75032 0.24875 0.39762
 C4 C 0.77574 0.22581 0.44972
 C5 C 0.77564 0.22609 0.55520
 C6 C 0.75012 0.24925 0.60668
 H7 H 0.75003 0.24946 0.68771
 H8 H 0.75029 0.24868 0.31663
 C9 C 0.22547 0.77382 0.55466
 C10 C 0.22534 0.77373 0.44959
 C11 C 0.25034 0.74962 0.39749
 C12 C 0.27547 0.72566 0.44933
 C13 C 0.27565 0.72582 0.55460
 C14 C 0.25059 0.74992 0.60667
 H15 H 0.25059 0.75013 0.68764
 H16 H 0.25024 0.74952 0.31656
 C17 C 0.27451 0.27280 -0.55349
 C18 C 0.27451 0.27277 -0.44845
 C19 C 0.24940 0.24905 -0.39618
 C20 C 0.22416 0.22525 -0.44787
 C21 C 0.22415 0.22527 -0.55335
 C22 C 0.24935 0.24905 -0.60540
 H23 H 0.24942 0.24915 -0.68638
 H24 H 0.24955 0.24920 -0.31521
 C25 C -0.22554 0.77287 -0.55332
 C26 C -0.22551 0.77318 -0.44824
 C27 C -0.25084 0.75007 -0.39610
 C28 C -0.27622 0.72658 -0.44771
 C29 C -0.27623 0.72622 -0.55320
 C30 C -0.25084 0.74943 -0.60513
 H31 H -0.25071 0.74931 -0.68611
 H32 H -0.25074 0.75039 -0.31512
 O33 O 0.04422 0.90786 -0.18214
 O34 O 0.07897 0.95587 -0.08581
 C35 C 0.07273 0.92138 -0.15536
 O36 O -0.04489 1.09901 -0.17218
 O37 O -0.07969 1.04770 -0.08166
 C38 C -0.07342 1.08487 -0.14644
 O39 O 0.04419 1.09472 -0.18173
 O40 O 0.07898 1.04642 -0.08588
 C41 C 0.07273 1.08105 -0.15531
 O42 O -0.04453 0.90334 -0.17433
 O43 O -0.07928 0.95450 -0.08382
 C44 C -0.07305 0.91744 -0.14880
 Zr45 Zr -0.00023 0.93363 -0.12569
 O46 O -0.00367 0.93447 -0.28329
 O47 O 0.00319 0.84891 -0.12557
 Zr48 Zr -0.00026 1.06903 -0.12494
 O49 O -0.00381 1.06933 -0.28250
 O50 O 0.00318 1.15374 -0.12358
 O51 O 0.02814 1.00135 -0.14490
 O52 O -0.02782 1.00137 -0.14349
 O53 O -0.04488 0.90325 0.17376
 O54 O -0.07969 0.95460 0.08342
 C55 C -0.07341 0.91740 0.14810
 O56 O 0.04423 1.09418 0.18371
 O57 O 0.07898 1.04621 0.08725
 C58 C 0.07274 1.08064 0.15691
 O59 O -0.04482 1.09834 0.17510
 O60 O -0.07969 1.04734 0.08432
 C61 C -0.07339 1.08427 0.14955
 O62 O 0.04417 0.90745 0.18310
 O63 O 0.07898 0.95569 0.08721
 C64 C 0.07271 0.92107 0.15664
 Zr65 Zr -0.00026 0.93317 0.12636
 O66 O -0.00377 0.93277 0.28393
 O67 O 0.00318 0.84845 0.12486
 Zr68 Zr -0.00020 1.06858 0.12697
 O69 O -0.00363 1.06847 0.28457
 O70 O 0.00320 1.15331 0.12633
 Zr71 Zr 0.04716 1.00107 0.00067
 Zr72 Zr -0.04744 1.00113 0.00085
 O73 O -0.02777 1.00087 0.14510
 O74 O 0.02814 1.00083 0.14624
 O75 O -0.02858 0.92284 0.00030
 O76 O 0.02736 1.07859 0.00101
 O77 O 0.02733 0.92357 0.00032
 O78 O -0.02856 1.07942 0.00116
 H79 H -0.04212 1.00150 -0.20212
 H80 H 0.04163 1.11017 0.00110
 H81 H -0.04206 1.00076 0.20376
 H82 H 0.04158 0.89197 0.00026
 H83 H -0.01479 1.16761 -0.08379
 H84 H -0.01490 1.16729 0.08725
 H85 H 0.01400 1.04636 0.31057
 H86 H 0.01381 0.95491 0.31021
 H87 H -0.01496 0.83456 0.08587
 H88 H -0.01452 0.83492 -0.08480
 H89 H 0.01436 0.95569 -0.30916
 H90 H 0.01379 1.04724 -0.30879
 O91 O 0.45600 0.40667 0.18142
 O92 O 0.42114 0.45407 0.08431
 C93 C 0.42743 0.41991 0.15448
 O94 O 0.54471 0.59642 0.17384
 O95 O 0.57964 0.54587 0.08268
 C96 C 0.57328 0.58262 0.14816
 O97 O 0.45595 0.59209 0.18122
 O98 O 0.42112 0.54427 0.08482
 C99 C 0.42742 0.57857 0.15463
 O100 O 0.54465 0.40153 0.17208
 O101 O 0.57961 0.45240 0.08142
 C102 C 0.57322 0.41544 0.14650
 Zr103 Zr 0.50034 0.43093 0.12185
 O104 O 0.50103 0.42256 0.27885
 O105 O 0.49929 0.34673 0.10423
 Zr106 Zr 0.50036 0.56648 0.12447
 O107 O 0.50331 0.56573 0.28217
 O108 O 0.49701 0.65122 0.12440
 O109 O 0.47212 0.49866 0.14305
 O110 O 0.52792 0.49866 0.14177
 O111 O 0.54475 0.40176 -0.17710
 O112 O 0.57964 0.45290 -0.08673
 C113 C 0.57332 0.41581 -0.15162
 O114 O 0.45592 0.59355 -0.18373
 O115 O 0.42113 0.54504 -0.08834
 C116 C 0.42738 0.57987 -0.15737
 O117 O 0.54477 0.59790 -0.17502
 O118 O 0.57969 0.54651 -0.08528
 C119 C 0.57333 0.58381 -0.14966
 O120 O 0.45591 0.40654 -0.18576
 O121 O 0.42112 0.45460 -0.08952
 C122 C 0.42739 0.42015 -0.15916
 Zr123 Zr 0.50035 0.43220 -0.12901
 O124 O 0.50379 0.43322 -0.28661
 O125 O 0.49738 0.34745 -0.12914
 Zr126 Zr 0.50036 0.56751 -0.12727
 O127 O 0.50386 0.56783 -0.28486
 O128 O 0.49690 0.65223 -0.12546
 Zr129 Zr 0.45293 0.49940 -0.00231
 Zr130 Zr 0.54779 0.49946 -0.00216
 O131 O 0.52799 0.49993 -0.14633
 O132 O 0.47197 0.49994 -0.14781
 O133 O 0.52884 0.42123 -0.00352
 O134 O 0.47276 0.57685 -0.00126
 O135 O 0.47253 0.42180 -0.00349
 O136 O 0.52874 0.57764 -0.00121
 H137 H 0.54219 0.49859 0.20048
 H138 H 0.45852 0.60847 -0.00090
 H139 H 0.54227 0.50010 -0.20505
 H140 H 0.45813 0.39038 -0.00356
 H141 H 0.51509 0.66527 0.08531
 H142 H 0.51480 0.66604 -0.08529
 H143 H 0.48605 0.54626 -0.31122
 H144 H 0.48585 0.45470 -0.31234
 H145 H 0.51351 0.33397 -0.08172
 H146 H 0.49861 0.33157 0.17252
 H147 H 0.50604 0.45818 0.30686
 H148 H 0.48564 0.54335 0.30732
 C149 C 0.34854 0.34359 0.29997
 C150 C 0.37952 0.33338 0.33240
 C151 C 0.40523 0.35832 0.28554
 C152 C 0.30021 0.29725 0.39160
 C153 C 0.36897 0.40424 0.17413
 C154 C 0.34333 0.37916 0.22096
 C155 C 0.32211 0.31819 0.34881
 C156 C 0.40027 0.39402 0.20568
 H157 H 0.38379 0.30611 0.39391
 H158 H 0.42896 0.34959 0.31187
 H159 H 0.36423 0.43142 0.11288
 H160 H 0.31944 0.38752 0.19552
 C161 C -0.15184 0.84065 0.29442
 C162 C -0.12075 0.82897 0.32363
 C163 C -0.09520 0.85340 0.27525
 C164 C -0.19980 0.79648 0.39104
 C165 C -0.13183 0.90129 0.16788
 C166 C -0.15734 0.87667 0.21627
 C167 C -0.17805 0.81648 0.34619
 C168 C -0.10044 0.89010 0.19713
 H169 H -0.11627 0.80127 0.38434
 H170 H -0.07139 0.84397 0.29989
 H171 H -0.13674 0.92925 0.10800
 H172 H -0.18134 0.88603 0.19323
 C173 C 0.65157 0.65910 0.29667
 C174 C 0.62041 0.67038 0.32583
 C175 C 0.59493 0.64600 0.27687
 C176 C 0.69943 0.70359 0.39393
 C177 C 0.63173 0.59888 0.16904
 C178 C 0.65717 0.62344 0.21800
 C179 C 0.67773 0.68342 0.34882
 C180 C 0.60027 0.60973 0.19813
 H181 H 0.61581 0.69778 0.38689
 H182 H 0.57108 0.65519 0.30146
 H183 H 0.63673 0.57125 0.10873
 H184 H 0.68120 0.61436 0.19491
 C185 C 0.15163 1.15668 0.30180
 C186 C 0.12070 1.16672 0.33480
 C187 C 0.09497 1.14193 0.28797
 C188 C 0.19987 1.20237 0.39427
 C189 C 0.13115 1.09661 0.17536
 C190 C 0.15681 1.12155 0.22219
 C191 C 0.17803 1.18172 0.35096
 C192 C 0.09990 1.10659 0.20760
 H193 H 0.11649 1.19366 0.39683
 H194 H 0.07128 1.15041 0.31483
 H195 H 0.13584 1.06970 0.11369
 H196 H 0.18068 1.11337 0.19639
 C197 C 0.65195 0.33894 -0.29778
 C198 C 0.65734 0.37470 -0.21915
 C199 C 0.63178 0.39936 -0.17099
 C200 C 0.70016 0.29457 -0.39354
 C201 C 0.59524 0.35215 -0.27953
 C202 C 0.62086 0.32766 -0.32771
 C203 C 0.67828 0.31463 -0.34914
 C204 C 0.60039 0.38853 -0.20085
 H205 H 0.68131 0.38380 -0.19547
 H206 H 0.63665 0.42706 -0.11068
 H207 H 0.57145 0.34298 -0.30468
 H208 H 0.61641 0.30019 -0.38878
 C209 C 0.15162 0.84474 -0.29922
 C210 C 0.15679 0.87998 -0.21975
 C211 C 0.13113 0.90514 -0.17332
 C212 C 0.19988 0.79838 -0.39048
 C213 C 0.09498 0.85987 -0.28608
 C214 C 0.12071 0.83486 -0.33252
 C215 C 0.17803 0.81935 -0.34777
 C216 C 0.09990 0.89529 -0.20581
 H217 H 0.18065 0.88803 -0.19370
 H218 H 0.13581 0.93210 -0.11171
 H219 H 0.07129 0.85150 -0.31312
 H220 H 0.11651 0.80784 -0.39443
 C221 C 0.34839 0.65658 -0.30169
 C222 C 0.34323 0.62100 -0.22265
 C223 C 0.36891 0.59590 -0.17603
 C224 C 0.30001 0.70270 -0.39355
 C225 C 0.40510 0.64189 -0.28760
 C226 C 0.37935 0.66685 -0.33424
 C227 C 0.32192 0.68186 -0.35060
 C228 C 0.40019 0.60610 -0.20783
 H229 H 0.31936 0.61261 -0.19710
 H230 H 0.36421 0.56865 -0.11485
 H231 H 0.42880 0.65057 -0.31416
 H232 H 0.38358 0.69412 -0.39578
 C233 C -0.15195 1.16089 -0.29360
 C234 C -0.12087 1.17267 -0.32281
 C235 C -0.09529 1.14855 -0.27406
 C236 C -0.19996 1.20417 -0.39143
 C237 C -0.13186 1.10081 -0.16627
 C238 C -0.15740 1.12512 -0.21503
 C239 C -0.17820 1.18459 -0.34597
 C240 C -0.10048 1.11205 -0.19558
 H241 H -0.11642 1.20017 -0.38385
 H242 H -0.07148 1.15801 -0.29876
 H243 H -0.13673 1.07300 -0.10612
 H244 H -0.18139 1.11567 -0.19198
 C245 C 0.65160 0.66057 -0.29676
 C246 C 0.62048 0.67217 -0.32580
 C247 C 0.59498 0.64779 -0.27709
 C248 C 0.69946 0.70439 -0.39445
 C249 C 0.63171 0.60015 -0.16969
 C250 C 0.65717 0.62471 -0.21841
 C251 C 0.67776 0.68456 -0.34905
 C252 C 0.60029 0.61121 -0.19882
 H253 H 0.61594 0.69973 -0.38667
 H254 H 0.57114 0.65712 -0.30164
 H255 H 0.63668 0.57228 -0.10969
 H256 H 0.68120 0.61541 -0.19550
 C257 C 0.15163 1.15682 -0.30171
 C258 C 0.15685 1.12151 -0.22230
 C259 C 0.13120 1.09672 -0.17493
 C260 C 0.19987 1.20236 -0.39516
 C261 C 0.09492 1.14253 -0.28647
 C262 C 0.12064 1.16717 -0.33385
 C263 C 0.17804 1.18177 -0.35146
 C264 C 0.09990 1.10699 -0.20636
 H265 H 0.18075 1.11307 -0.19707
 H266 H 0.13594 1.06965 -0.11350
 H267 H 0.07119 1.15125 -0.31277
 H268 H 0.11635 1.19424 -0.39565
 C269 C 0.34850 0.34354 -0.30295
 C270 C 0.37941 0.33357 -0.33618
 C271 C 0.40515 0.35862 -0.28983
 C272 C 0.30019 0.29719 -0.39384
 C273 C 0.36899 0.40412 -0.17739
 C274 C 0.34333 0.37892 -0.22372
 C275 C 0.32209 0.31812 -0.35133
 C276 C 0.40023 0.39415 -0.20975
 H277 H 0.38361 0.30644 -0.39793
 H278 H 0.42884 0.35015 -0.31676
 H279 H 0.36431 0.43117 -0.11592
 H280 H 0.31948 0.38706 -0.19775
 C281 C -0.15162 0.84131 -0.29642
 C282 C -0.15708 0.87729 -0.21817
 C283 C -0.13155 0.90172 -0.16945
 C284 C -0.19969 0.79702 -0.39295
 C285 C -0.09493 0.85378 -0.27665
 C286 C -0.12051 0.82954 -0.32537
 C287 C -0.17789 0.81711 -0.34825
 C288 C -0.10013 0.89039 -0.19836
 H289 H -0.18108 0.88675 -0.19522
 H290 H -0.13645 0.92962 -0.10949
 H291 H -0.07111 0.84423 -0.30109
 H292 H -0.11601 0.80187 -0.38608
 C293 C 0.34886 0.65473 0.30094
 C294 C 0.34350 0.61969 0.22129
 C295 C 0.36904 0.59467 0.17400
 C296 C 0.30091 0.70103 0.39376
 C297 C 0.40545 0.63969 0.28630
 C298 C 0.37984 0.66455 0.33358
 C299 C 0.32261 0.68005 0.35035
 C300 C 0.40035 0.60448 0.20583
 H301 H 0.31958 0.61169 0.19576
 H302 H 0.36424 0.56785 0.11227
 H303 H 0.42920 0.64802 0.31287
 H304 H 0.38419 0.69142 0.39562
 C305 C -0.15181 1.15985 0.29896
 C306 C -0.12066 1.17166 0.32747
 C307 C -0.09514 1.14765 0.27809
 C308 C -0.19978 1.20355 0.39690
 C309 C -0.13187 1.09988 0.17103
 C310 C -0.15735 1.12408 0.22043
 C311 C -0.17802 1.18373 0.35157
 C312 C -0.10042 1.11122 0.19956
 H313 H -0.11610 1.19917 0.38840
 H314 H -0.07129 1.15721 0.30226
 H315 H -0.13683 1.07211 0.11093
 H316 H -0.18138 1.11460 0.19781
 C317 C 0.65138 0.33914 0.29493
 C318 C 0.62025 0.32779 0.32415
 C319 C 0.59478 0.35208 0.27510
 C320 C 0.69918 0.29530 0.39277
 C321 C 0.63159 0.39916 0.16706
 C322 C 0.65701 0.37468 0.21612
 C323 C 0.67750 0.31514 0.34736
 C324 C 0.60015 0.38830 0.19629
 H325 H 0.61567 0.30047 0.38537
 H326 H 0.57093 0.34293 0.29974
 H327 H 0.63659 0.42675 0.10666
 H328 H 0.68105 0.38378 0.19308
 C329 C 0.15149 0.84469 0.30249
 C330 C 0.12050 0.83463 0.33491
 C331 C 0.09483 0.85952 0.28777
 C332 C 0.19969 0.79833 0.39475
 C333 C 0.13116 0.90504 0.17598
 C334 C 0.15677 0.88000 0.22311
 C335 C 0.17786 0.81932 0.35172
 C336 C 0.09985 0.89501 0.20761
 H337 H 0.11618 0.80756 0.39669
 H338 H 0.07110 0.85099 0.31423
 H339 H 0.13593 0.93206 0.11451
 H340 H 0.18067 0.88821 0.19765
   
