data_POSCAR
  _audit_creation_date              2014-09-24
  _audit_creation_method            'ToBaCCo'
  _symmetry_space_group_name_H-M    'P1'
  _symmetry_Int_Tables_number       1
  _symmetry_cell_setting            triclinic
  loop_
  _symmetry_equiv_pos_as_xyz
 x,y,z
_cell_length_a 50.2435
_cell_length_b 50.2632
_cell_length_c 50.2929
_cell_angle_alpha 90.008800
_cell_angle_beta 90.023900
_cell_angle_gamma 89.984600
loop_
  _atom_site_label
  _atom_site_type_symbol
  _atom_site_fract_x
  _atom_site_fract_y
  _atom_site_fract_z
C1 C 0.28594 0.32045 0.01296
 C2 C 0.28597 0.32050 -0.01508
 C3 C 0.30297 0.30327 -0.02894
 C4 C 0.32014 0.28620 -0.01509
 C5 C 0.32009 0.28616 0.01295
 C6 C 0.30289 0.30317 0.02679
 H7 H 0.30308 0.30335 0.04836
 H8 H 0.30321 0.30352 -0.05053
 C9 C 0.71348 0.68013 0.01329
 C10 C 0.71344 0.68018 -0.01471
 C11 C 0.69639 0.69737 -0.02853
 C12 C 0.67916 0.71434 -0.01464
 C13 C 0.67922 0.71428 0.01341
 C14 C 0.69648 0.69728 0.02719
 H15 H 0.69631 0.69701 0.04876
 H16 H 0.69621 0.69713 -0.05011
 C17 C 0.71392 0.32072 0.98600
 C18 C 0.71399 0.32068 1.01405
 C19 C 0.69701 0.30344 1.02790
 C20 C 0.67977 0.28647 1.01404
 C21 C 0.67970 0.28653 0.98604
 C22 C 0.69687 0.30354 0.97218
 H23 H 0.69658 0.30378 0.95061
 H24 H 0.69679 0.30355 1.04948
 C25 C 0.28558 0.68026 0.98751
 C26 C 0.28559 0.68019 1.01556
 C27 C 0.30258 0.69741 1.02945
 C28 C 0.31977 0.71447 1.01563
 C29 C 0.31972 0.71452 0.98758
 C30 C 0.30253 0.69753 0.97372
 H31 H 0.30273 0.69735 0.95215
 H32 H 0.30281 0.69715 1.05104
 C33 C 0.01429 0.28549 0.31957
 C34 C -0.01374 0.28534 0.31939
 C35 C -0.02760 0.30225 0.30211
 C36 C -0.01374 0.31951 0.28521
 C37 C 0.01430 0.31965 0.28538
 C38 C 0.02816 0.30254 0.30246
 H39 H 0.04975 0.30288 0.30282
 H40 H -0.04919 0.30237 0.30221
 C41 C 0.01361 0.71394 0.67978
 C42 C -0.01447 0.71386 0.67964
 C43 C -0.02836 0.69681 0.69677
 C44 C -0.01451 0.67964 0.71384
 C45 C 0.01357 0.67976 0.71398
 C46 C 0.02743 0.69700 0.69705
 H47 H 0.04902 0.69686 0.69695
 H48 H -0.04997 0.69652 0.69646
 C49 C 0.98655 0.71340 0.31997
 C50 C 1.01458 0.71341 0.31996
 C51 C 1.02846 0.69646 0.30275
 C52 C 1.01461 0.67926 0.28571
 C53 C 0.98653 0.67927 0.28571
 C54 C 0.97269 0.69644 0.30274
 H55 H 0.95110 0.69623 0.30297
 H56 H 1.05006 0.69631 0.30303
 C57 C 0.98655 0.28575 0.67924
 C58 C 1.01463 0.28575 0.67928
 C59 C 1.02846 0.30276 0.69651
 C60 C 1.01455 0.31996 0.71346
 C61 C 0.98653 0.31997 0.71339
 C62 C 0.97268 0.30277 0.69640
 H63 H 0.95109 0.30301 0.69615
 H64 H 1.05006 0.30303 0.69640
 C65 C 0.32037 0.01302 0.28662
 C66 C 0.32043 -0.01505 0.28667
 C67 C 0.30326 -0.02890 0.30373
 C68 C 0.28627 -0.01502 0.32095
 C69 C 0.28625 0.01304 0.32089
 C70 C 0.30319 0.02686 0.30363
 H71 H 0.30337 0.04845 0.30381
 H72 H 0.30350 -0.05050 0.30398
 C73 C 0.67989 0.01397 0.71430
 C74 C 0.67996 -0.01406 0.71442
 C75 C 0.69719 -0.02796 0.69751
 C76 C 0.71415 -0.01415 0.68026
 C77 C 0.71408 0.01387 0.68013
 C78 C 0.69705 0.02778 0.69725
 H79 H 0.69677 0.04936 0.69692
 H80 H 0.69702 -0.04955 0.69738
 C81 C 0.32011 0.98728 0.71436
 C82 C 0.32012 1.01534 0.71429
 C83 C 0.30293 1.02916 0.69721
 C84 C 0.28595 1.01525 0.67999
 C85 C 0.28597 0.98719 0.68008
 C86 C 0.30293 0.97340 0.69736
 H87 H 0.30315 0.95182 0.69720
 H88 H 0.30314 1.05077 0.69695
 C89 C 0.68013 0.98593 0.28622
 C90 C 0.68009 1.01394 0.28623
 C91 C 0.69728 1.02783 0.30321
 C92 C 0.71433 1.01400 0.32041
 C93 C 0.71438 0.98593 0.32038
 C94 C 0.69737 0.97208 0.30318
 H95 H 0.69717 0.95050 0.30338
 H96 H 0.69697 1.04943 0.30338
 O97 O 0.85445 0.89007 0.52630
 O98 O 0.89117 0.85331 0.47452
 O99 O 0.85449 0.89006 0.47449
 O100 O 0.89113 0.85330 0.52633
 O101 O 0.85992 0.82227 0.52622
 O102 O 0.82337 0.85894 0.47451
 O103 O 0.85997 0.82229 0.47453
 O104 O 0.82334 0.85895 0.52619
 Cu105 Cu 0.87597 0.87483 0.50042
 Cu106 Cu 0.83851 0.83749 0.50036
 C107 C 0.83265 0.88071 0.53494
 C108 C 0.88176 0.83156 0.46583
 C109 C 0.83271 0.88070 0.46580
 C110 C 0.88170 0.83154 0.53498
 O111 O 0.14639 0.10954 0.52661
 O112 O 0.10961 0.14607 0.47468
 O113 O 0.14634 0.10936 0.47480
 O114 O 0.10964 0.14623 0.52650
 O115 O 0.14079 0.17730 0.52633
 O116 O 0.17741 0.14053 0.47476
 O117 O 0.14077 0.17714 0.47464
 O118 O 0.17745 0.14071 0.52644
 Cu119 Cu 0.12485 0.12465 0.50066
 Cu120 Cu 0.16223 0.16205 0.50053
 C121 C 0.16817 0.11896 0.53524
 C122 C 0.11899 0.16781 0.46594
 C123 C 0.16811 0.11873 0.46610
 C124 C 0.11902 0.16802 0.53510
 O125 O 0.14668 0.89051 0.47404
 O126 O 0.10981 0.85392 0.52582
 O127 O 0.14650 0.89066 0.52586
 O128 O 0.10996 0.85381 0.47402
 O129 O 0.14115 0.82275 0.47426
 O130 O 0.17760 0.85951 0.52598
 O131 O 0.14101 0.82286 0.52595
 O132 O 0.17778 0.85936 0.47429
 Cu133 Cu 0.12509 0.87537 0.49992
 Cu134 Cu 0.16252 0.83799 0.50014
 C135 C 0.16849 0.88111 0.46547
 C136 C 0.11919 0.83217 0.53458
 C137 C 0.16825 0.88130 0.53462
 C138 C 0.11939 0.83202 0.46544
 O139 O 0.89067 0.14543 0.52530
 O140 O 0.85385 0.10868 0.47357
 O141 O 0.89062 0.14532 0.47350
 O142 O 0.85394 0.10875 0.52538
 O143 O 0.82288 0.13995 0.52530
 O144 O 0.85948 0.17643 0.47354
 O145 O 0.82280 0.13988 0.47361
 O146 O 0.85952 0.17653 0.52522
 Cu147 Cu 0.87541 0.12389 0.49944
 Cu148 Cu 0.83804 0.16133 0.49941
 C149 C 0.88130 0.16723 0.53394
 C150 C 0.83207 0.11808 0.46490
 C151 C 0.88124 0.16709 0.46481
 C152 C 0.83218 0.11819 0.53406
 O153 O 0.47389 0.89103 0.85478
 O154 O 0.52571 0.85409 0.89135
 O155 O 0.52574 0.89083 0.85471
 O156 O 0.47385 0.85431 0.89146
 O157 O 0.47372 0.82325 0.86030
 O158 O 0.52550 0.85969 0.82364
 O159 O 0.52546 0.82304 0.86018
 O160 O 0.47377 0.85988 0.82371
 Cu161 Cu 0.49981 0.87571 0.87622
 Cu162 Cu 0.49959 0.83833 0.83883
 C163 C 0.46514 0.88168 0.83303
 C164 C 0.53429 0.83230 0.88192
 C165 C 0.53433 0.88142 0.83293
 C166 C 0.46508 0.83258 0.88208
 O167 O 0.47385 0.10921 0.14606
 O168 O 0.52566 0.14598 0.10937
 O169 O 0.52571 0.10929 0.14606
 O170 O 0.47380 0.14588 0.10932
 O171 O 0.47379 0.17698 0.14044
 O172 O 0.52558 0.14047 0.17710
 O173 O 0.52553 0.17707 0.14050
 O174 O 0.47385 0.14039 0.17709
 Cu175 Cu 0.49976 0.12444 0.12456
 Cu176 Cu 0.49968 0.16186 0.16191
 C177 C 0.46517 0.11859 0.16782
 C178 C 0.53429 0.16778 0.11875
 C179 C 0.53436 0.11871 0.16782
 C180 C 0.46509 0.16765 0.11868
 O181 O 0.47338 0.14669 0.89036
 O182 O 0.52524 0.10984 0.85379
 O183 O 0.52524 0.14657 0.89046
 O184 O 0.47337 0.10995 0.85369
 O185 O 0.47353 0.14109 0.82263
 O186 O 0.52528 0.17762 0.85931
 O187 O 0.52528 0.14098 0.82273
 O188 O 0.47354 0.17773 0.85920
 Cu189 Cu 0.49930 0.12512 0.87522
 Cu190 Cu 0.49942 0.16249 0.83783
 C191 C 0.46476 0.16847 0.88095
 C192 C 0.53397 0.11920 0.83205
 C193 C 0.53397 0.16832 0.88109
 C194 C 0.46474 0.11935 0.83192
 O195 O 0.47319 0.85384 0.11009
 O196 O 0.52516 0.89059 0.14661
 O197 O 0.52505 0.85393 0.10988
 O198 O 0.47329 0.89051 0.14682
 O199 O 0.47355 0.85931 0.17783
 O200 O 0.52519 0.82283 0.14098
 O201 O 0.52529 0.85940 0.17762
 O202 O 0.47345 0.82274 0.14118
 Cu203 Cu 0.49915 0.87537 0.12521
 Cu204 Cu 0.49939 0.83793 0.16253
 C205 C 0.46460 0.83205 0.11948
 C206 C 0.53395 0.88119 0.16832
 C207 C 0.53381 0.83217 0.11920
 C208 C 0.46473 0.88107 0.16860
 O209 O 0.89077 0.52633 0.85300
 O210 O 0.85408 0.47454 0.88978
 O211 O 0.89081 0.47448 0.85311
 O212 O 0.85405 0.52637 0.88969
 O213 O 0.82297 0.52623 0.85854
 O214 O 0.85964 0.47446 0.82205
 O215 O 0.82300 0.47452 0.85863
 O216 O 0.85959 0.52619 0.82195
 Cu217 Cu 0.87558 0.50044 0.87454
 Cu218 Cu 0.83817 0.50034 0.83716
 C219 C 0.88136 0.53496 0.83123
 C220 C 0.83231 0.46584 0.88041
 C221 C 0.88142 0.46576 0.83136
 C222 C 0.83226 0.53500 0.88029
 O223 O 0.14622 0.47471 0.10921
 O224 O 0.10951 0.52642 0.14612
 O225 O 0.14624 0.52656 0.10946
 O226 O 0.10951 0.47458 0.14589
 O227 O 0.14069 0.47449 0.17694
 O228 O 0.17732 0.52634 0.14061
 O229 O 0.14068 0.52620 0.17718
 O230 O 0.17730 0.47462 0.14036
 Cu231 Cu 0.12472 0.50058 0.12452
 Cu232 Cu 0.16213 0.50040 0.16190
 C233 C 0.16799 0.46598 0.11856
 C234 C 0.11891 0.53499 0.16792
 C235 C 0.16802 0.53518 0.11889
 C236 C 0.11891 0.46580 0.16760
 O237 O 0.89047 0.47376 0.14518
 O238 O 0.85371 0.52564 0.10856
 O239 O 0.89047 0.52560 0.14523
 O240 O 0.85367 0.47380 0.10855
 O241 O 0.82264 0.47387 0.13972
 O242 O 0.85934 0.52555 0.17631
 O243 O 0.82267 0.52559 0.13973
 O244 O 0.85934 0.47383 0.17626
 Cu245 Cu 0.87522 0.49970 0.12373
 Cu246 Cu 0.83787 0.49971 0.16114
 C247 C 0.88110 0.46509 0.16695
 C248 C 0.83195 0.53433 0.11796
 C249 C 0.88111 0.53426 0.16700
 C250 C 0.83191 0.46514 0.11796
 O251 O 0.10976 0.47402 0.85401
 O252 O 0.14628 0.52582 0.89095
 O253 O 0.10963 0.52585 0.85418
 O254 O 0.14644 0.47398 0.89074
 O255 O 0.17756 0.47423 0.85966
 O256 O 0.14084 0.52597 0.82319
 O257 O 0.17741 0.52595 0.85987
 O258 O 0.14097 0.47426 0.82302
 Cu259 Cu 0.12488 0.49990 0.87561
 Cu260 Cu 0.16234 0.50012 0.83831
 C261 C 0.11920 0.46544 0.83224
 C262 C 0.16805 0.53459 0.88164
 C263 C 0.11903 0.53461 0.83247
 C264 C 0.16825 0.46539 0.88136
 C265 C 0.23959 0.37430 0.05361
 C266 C 0.23568 0.40016 0.03783
 C267 C 0.22070 0.41866 0.05080
 C268 C 0.21110 0.40949 0.07828
 C269 C 0.23649 0.40153 0.09329
 C270 C 0.25146 0.38304 0.08032
 C271 C 0.21133 0.36472 0.06018
 C272 C 0.19635 0.38323 0.07317
 C273 C 0.25586 0.35454 0.03962
 C274 C 0.26947 0.33874 0.02780
 C275 C 0.19518 0.42949 0.09238
 C276 C 0.18253 0.44608 0.10421
 H277 H 0.24393 0.40361 0.01817
 H278 H 0.21611 0.43795 0.04226
 H279 H 0.24221 0.40970 0.11245
 H280 H 0.27000 0.37537 0.08837
 H281 H 0.20376 0.34515 0.05506
 H282 H 0.17593 0.37952 0.07918
 C283 C 0.76007 0.62617 0.05349
 C284 C 0.74773 0.61647 0.07964
 C285 C 0.76276 0.59795 0.09251
 C286 C 0.78868 0.59093 0.07796
 C287 C 0.80299 0.61761 0.07394
 C288 C 0.78794 0.63615 0.06105
 C289 C 0.76492 0.60083 0.03713
 C290 C 0.77996 0.58230 0.05000
 C291 C 0.74373 0.64596 0.03963
 C292 C 0.73004 0.66179 0.02793
 C293 C 0.80467 0.57090 0.09195
 C294 C 0.81736 0.55428 0.10370
 H295 H 0.72884 0.62354 0.08739
 H296 H 0.75674 0.58915 0.11128
 H297 H 0.82317 0.62158 0.08058
 H298 H 0.79522 0.65600 0.05665
 H299 H 0.75723 0.59772 0.01719
 H300 H 0.78518 0.56333 0.04108
 C301 C 0.76040 0.37444 0.94536
 C302 C 0.74540 0.40030 0.93915
 C303 C 0.76044 0.41871 0.92618
 C304 C 0.78903 0.40948 0.92067
 C305 C 0.78606 0.38316 0.90545
 C306 C 0.77101 0.36474 0.91843
 C307 C 0.78518 0.38319 0.96096
 C308 C 0.80024 0.40163 0.94797
 C309 C 0.74406 0.35476 0.95935
 C310 C 0.73041 0.33900 0.97117
 C311 C 0.80503 0.42940 0.90657
 C312 C 0.81773 0.44595 0.89475
 H313 H 0.72477 0.40386 0.94452
 H314 H 0.75270 0.43805 0.92043
 H315 H 0.79502 0.37933 0.88619
 H316 H 0.76706 0.34512 0.91030
 H317 H 0.79042 0.37559 0.98048
 H318 H 0.81838 0.40984 0.95637
 C319 C 0.23935 0.62638 0.94676
 C320 C 0.25132 0.61761 0.92011
 C321 C 0.23641 0.59910 0.90710
 C322 C 0.21098 0.59115 0.92201
 C323 C 0.19618 0.61741 0.92703
 C324 C 0.21111 0.63594 0.94006
 C325 C 0.23541 0.60054 0.96256
 C326 C 0.22049 0.58202 0.94954
 C327 C 0.25556 0.64615 0.96079
 C328 C 0.26913 0.66196 0.97265
 C329 C 0.19512 0.57113 0.90787
 C330 C 0.18253 0.55452 0.89602
 H331 H 0.26988 0.62528 0.91214
 H332 H 0.24220 0.59091 0.88798
 H333 H 0.17579 0.62111 0.92093
 H334 H 0.20351 0.65551 0.94513
 H335 H 0.24360 0.59710 0.98225
 H336 H 0.21588 0.56273 0.95809
 C337 C 0.05453 0.23924 0.37378
 C338 C 0.08095 0.22752 0.36393
 C339 C 0.09381 0.21256 0.38254
 C340 C 0.07897 0.21079 0.40916
 C341 C 0.05117 0.20027 0.40209
 C342 C 0.03831 0.21523 0.38347
 C343 C 0.06167 0.25472 0.39910
 C344 C 0.07452 0.23977 0.41769
 C345 C 0.04068 0.25549 0.35392
 C346 C 0.02897 0.26907 0.33800
 C347 C 0.09295 0.19490 0.42926
 C348 C 0.10470 0.18229 0.44594
 H349 H 0.08885 0.23067 0.34409
 H350 H 0.11273 0.20289 0.37863
 H351 H 0.04236 0.18264 0.41091
 H352 H 0.01849 0.21041 0.37634
 H353 H 0.05700 0.27559 0.40218
 H354 H 0.08086 0.24784 0.43669
 C355 C 0.05427 0.76045 0.62612
 C356 C 0.03811 0.76509 0.60061
 C357 C 0.05107 0.78011 0.58216
 C358 C 0.07893 0.78902 0.59101
 C359 C 0.09357 0.76322 0.59829
 C360 C 0.08062 0.74821 0.61674
 C361 C 0.06158 0.78840 0.63605
 C362 C 0.07456 0.80343 0.61758
 C363 C 0.04029 0.74413 0.64582
 C364 C 0.02847 0.73048 0.66157
 C365 C 0.09301 0.80498 0.57105
 C366 C 0.10484 0.81764 0.55448
 H367 H 0.01823 0.75728 0.59735
 H368 H 0.04229 0.78519 0.56309
 H369 H 0.11249 0.75727 0.58970
 H370 H 0.08843 0.72941 0.62396
 H371 H 0.05693 0.79574 0.65581
 H372 H 0.08104 0.82365 0.62152
 C373 C 0.94626 0.75983 0.37396
 C374 C 0.93802 0.78742 0.36379
 C375 C 0.92514 0.80244 0.38234
 C376 C 0.92178 0.78837 0.40923
 C377 C 0.95006 0.78027 0.41752
 C378 C 0.96292 0.76526 0.39898
 C379 C 0.92046 0.74712 0.38419
 C380 C 0.90760 0.76212 0.40272
 C381 C 0.96013 0.74352 0.35416
 C382 C 0.97185 0.72989 0.33831
 C383 C 0.90779 0.80432 0.42927
 C384 C 0.89604 0.81699 0.44589
 H385 H 0.94199 0.79455 0.34380
 H386 H 0.91806 0.82244 0.37825
 H387 H 0.95918 0.78586 0.43628
 H388 H 0.98307 0.75797 0.40186
 H389 H 0.91294 0.72802 0.37746
 H390 H 0.88906 0.75586 0.41187
 C391 C 0.94604 0.23918 0.62549
 C392 C 0.96216 0.23469 0.59995
 C393 C 0.94924 0.21962 0.58148
 C394 C 0.92147 0.21053 0.59036
 C395 C 0.90668 0.23622 0.59772
 C396 C 0.91959 0.25128 0.61618
 C397 C 0.93893 0.21117 0.63537
 C398 C 0.92599 0.19610 0.61689
 C399 C 0.95996 0.25554 0.64520
 C400 C 0.97174 0.26922 0.66098
 C401 C 0.90743 0.19452 0.57040
 C402 C 0.89563 0.18181 0.55384
 H403 H 0.98199 0.24262 0.59667
 H404 H 0.95801 0.21463 0.56239
 H405 H 0.88771 0.24208 0.58918
 H406 H 0.91169 0.27002 0.62345
 H407 H 0.94366 0.20382 0.65511
 H408 H 0.91964 0.17583 0.62080
 C409 C 0.37391 0.05364 0.23991
 C410 C 0.38244 0.08056 0.25150
 C411 C 0.40082 0.09353 0.23641
 C412 C 0.40888 0.07832 0.21119
 C413 C 0.38264 0.07286 0.19651
 C414 C 0.36424 0.05987 0.21162
 C415 C 0.39990 0.03802 0.23616
 C416 C 0.41829 0.05099 0.22106
 C417 C 0.35427 0.03966 0.25632
 C418 C 0.33856 0.02784 0.27004
 C419 C 0.42877 0.09242 0.19514
 C420 C 0.44530 0.10425 0.18241
 H421 H 0.37472 0.08873 0.26993
 H422 H 0.40884 0.11282 0.24192
 H423 H 0.37887 0.07864 0.17606
 H424 H 0.34470 0.05451 0.20412
 H425 H 0.40353 0.01846 0.24460
 H426 H 0.43766 0.04255 0.21655
 C427 C 0.62587 0.05441 0.76058
 C428 C 0.60062 0.03797 0.76567
 C429 C 0.58208 0.05090 0.78063
 C430 C 0.59060 0.07900 0.78903
 C431 C 0.59745 0.09334 0.76297
 C432 C 0.61598 0.08041 0.74802
 C433 C 0.63592 0.06230 0.78831
 C434 C 0.61737 0.07524 0.80328
 C435 C 0.64568 0.04047 0.74433
 C436 C 0.66153 0.02870 0.73074
 C437 C 0.57055 0.09306 0.80492
 C438 C 0.55392 0.10486 0.81755
 H439 H 0.59759 0.01793 0.75819
 H440 H 0.56317 0.04193 0.78598
 H441 H 0.58853 0.11202 0.75679
 H442 H 0.62294 0.08802 0.72905
 H443 H 0.65584 0.05806 0.79556
 H444 H 0.62138 0.08210 0.82335
 C445 C 0.37376 0.94670 0.76104
 C446 C 0.38036 0.96099 0.78722
 C447 C 0.39878 0.94801 0.80233
 C448 C 0.40879 0.92203 0.78975
 C449 C 0.41907 0.93005 0.76216
 C450 C 0.40066 0.94303 0.74708
 C451 C 0.36517 0.91859 0.76926
 C452 C 0.38359 0.90561 0.78435
 C453 C 0.35409 0.96068 0.74465
 C454 C 0.33835 0.97248 0.73094
 C455 C 0.42870 0.90793 0.80578
 C456 C 0.44525 0.89608 0.81848
 H457 H 0.37138 0.97967 0.79333
 H458 H 0.40560 0.95556 0.82137
 H459 H 0.43908 0.92596 0.75510
 H460 H 0.40491 0.95005 0.72711
 H461 H 0.34629 0.90966 0.76373
 H462 H 0.38048 0.88557 0.79176
 C463 C 0.62608 0.94564 0.23984
 C464 C 0.63716 0.93427 0.21376
 C465 C 0.61856 0.92141 0.19878
 C466 C 0.59072 0.92120 0.21135
 C467 C 0.58410 0.95058 0.21645
 C468 C 0.60269 0.96343 0.23143
 C469 C 0.61324 0.92187 0.25403
 C470 C 0.59466 0.90903 0.23906
 C471 C 0.64592 0.95949 0.25611
 C472 C 0.66179 0.97122 0.26974
 C473 C 0.57062 0.90723 0.19543
 C474 C 0.55395 0.89548 0.18281
 H475 H 0.65778 0.93617 0.20761
 H476 H 0.62325 0.91229 0.17978
 H477 H 0.56639 0.96043 0.20895
 H478 H 0.60088 0.98428 0.23680
 H479 H 0.61830 0.91566 0.27408
 H480 H 0.58380 0.89182 0.24630
 C481 C 0.37301 0.24049 0.94536
 C482 C 0.39781 0.23452 0.96219
 C483 C 0.41631 0.21944 0.94933
 C484 C 0.40821 0.21183 0.92090
 C485 C 0.40218 0.23835 0.90701
 C486 C 0.38368 0.25341 0.91987
 C487 C 0.36257 0.21314 0.93666
 C488 C 0.38108 0.19806 0.92378
 C489 C 0.35326 0.25686 0.95924
 C490 C 0.33747 0.27055 0.97100
 C491 C 0.42821 0.19581 0.90692
 C492 C 0.44481 0.18309 0.89519
 H493 H 0.40058 0.24151 0.98244
 H494 H 0.43492 0.21349 0.95856
 H495 H 0.41160 0.24474 0.88867
 H496 H 0.37727 0.27270 0.91255
 H497 H 0.34243 0.20623 0.94032
 H498 H 0.37681 0.17822 0.91640
 C499 C 0.62616 0.76010 0.94602
 C500 C 0.63664 0.77329 0.92058
 C501 C 0.61810 0.78841 0.90779
 C502 C 0.59091 0.78885 0.92171
 C503 C 0.59674 0.79819 0.95019
 C504 C 0.61529 0.78307 0.96298
 C505 C 0.60148 0.74439 0.93725
 C506 C 0.58296 0.75949 0.92447
 C507 C 0.64595 0.74369 0.95980
 C508 C 0.66178 0.72998 0.97150
 C509 C 0.57087 0.80491 0.90782
 C510 C 0.55425 0.81766 0.89613
 H511 H 0.65684 0.77099 0.91326
 H512 H 0.62242 0.79907 0.88952
 H513 H 0.58717 0.81518 0.95948
 H514 H 0.62163 0.78712 0.98322
 H515 H 0.59878 0.72325 0.94079
 H516 H 0.56439 0.75129 0.91707
 C517 C 0.37270 0.76011 0.05517
 C518 C 0.39728 0.74432 0.06407
 C519 C 0.41580 0.75937 0.07690
 C520 C 0.40794 0.78876 0.07959
 C521 C 0.38069 0.78845 0.09340
 C522 C 0.36215 0.77339 0.08055
 C523 C 0.38372 0.78301 0.03823
 C524 C 0.40226 0.79808 0.05108
 C525 C 0.35292 0.74375 0.04132
 C526 C 0.33711 0.73008 0.02956
 C527 C 0.42798 0.80476 0.09354
 C528 C 0.44462 0.81747 0.10526
 H529 H 0.39993 0.72317 0.06056
 H530 H 0.43431 0.75111 0.08440
 H531 H 0.37633 0.79916 0.11163
 H532 H 0.34192 0.77117 0.08778
 H533 H 0.37747 0.78706 0.01796
 H534 H 0.41193 0.81502 0.04180
 C535 C 0.62596 0.23981 0.05429
 C536 C 0.61605 0.25224 0.08034
 C537 C 0.59757 0.23716 0.09319
 C538 C 0.59079 0.21112 0.07875
 C539 C 0.61761 0.19697 0.07493
 C540 C 0.63611 0.21206 0.06205
 C541 C 0.60072 0.23470 0.03785
 C542 C 0.58223 0.21961 0.05070
 C543 C 0.64570 0.25620 0.04044
 C544 C 0.66150 0.26990 0.02873
 C545 C 0.57081 0.19509 0.09273
 C546 C 0.55422 0.18237 0.10448
 H547 H 0.62295 0.27121 0.08803
 H548 H 0.58864 0.24323 0.11189
 H549 H 0.62169 0.17687 0.08169
 H550 H 0.65604 0.20490 0.05779
 H551 H 0.59764 0.24226 0.01785
 H552 H 0.56333 0.21423 0.04172
 C553 C 0.24025 0.05469 0.62703
 C554 C 0.25587 0.06297 0.60216
 C555 C 0.24079 0.07580 0.58367
 C556 C 0.21154 0.07908 0.59182
 C557 C 0.21242 0.09327 0.61885
 C558 C 0.22752 0.08044 0.63736
 C559 C 0.21693 0.03796 0.61653
 C560 C 0.20183 0.05079 0.59801
 C561 C 0.25664 0.04085 0.64679
 C562 C 0.27033 0.02913 0.66261
 C563 C 0.19550 0.09303 0.57181
 C564 C 0.18277 0.10474 0.55520
 H565 H 0.27694 0.05908 0.59931
 H566 H 0.24894 0.08289 0.56497
 H567 H 0.20207 0.11176 0.62308
 H568 H 0.23011 0.08793 0.65745
 H569 H 0.21264 0.01783 0.62308
 H570 H 0.18462 0.04165 0.58868
 C571 C 0.76002 0.05358 0.37327
 C572 C 0.74443 0.06174 0.39820
 C573 C 0.75951 0.07461 0.41667
 C574 C 0.78871 0.07805 0.40843
 C575 C 0.78767 0.09229 0.38144
 C576 C 0.77258 0.07941 0.36294
 C577 C 0.78347 0.03695 0.38366
 C578 C 0.79856 0.04982 0.40216
 C579 C 0.74364 0.03970 0.35353
 C580 C 0.72996 0.02794 0.33774
 C581 C 0.80474 0.09204 0.42841
 C582 C 0.81746 0.10379 0.44500
 H583 H 0.72340 0.05774 0.40111
 H584 H 0.75138 0.08162 0.43541
 H585 H 0.79791 0.11083 0.37721
 H586 H 0.76989 0.08692 0.34288
 H587 H 0.78784 0.01685 0.37704
 H588 H 0.81584 0.04074 0.41142
 C589 C 0.76075 0.94542 0.62651
 C590 C 0.76673 0.96222 0.60173
 C591 C 0.78179 0.94931 0.58326
 C592 C 0.78938 0.92086 0.59138
 C593 C 0.76284 0.90700 0.59741
 C594 C 0.74779 0.91991 0.61587
 C595 C 0.78811 0.93670 0.63696
 C596 C 0.80317 0.92377 0.61848
 C597 C 0.74439 0.95934 0.64623
 C598 C 0.73070 0.97111 0.66201
 C599 C 0.80538 0.90682 0.57142
 C600 C 0.81808 0.89503 0.55484
 H601 H 0.75975 0.98248 0.59894
 H602 H 0.78774 0.95851 0.56466
 H603 H 0.75643 0.88865 0.58801
 H604 H 0.72850 0.91262 0.62229
 H605 H 0.79504 0.94038 0.65707
 H606 H 0.82302 0.91637 0.62276
 C607 C 0.24058 0.94548 0.37383
 C608 C 0.25384 0.92040 0.38511
 C609 C 0.23877 0.90756 0.40358
 C610 C 0.21189 0.92104 0.40899
 C611 C 0.19845 0.92322 0.38165
 C612 C 0.21354 0.93608 0.36316
 C613 C 0.23394 0.96261 0.39822
 C614 C 0.21885 0.94976 0.41671
 C615 C 0.25696 0.95933 0.35409
 C616 C 0.27065 0.97107 0.33830
 C617 C 0.19586 0.90708 0.42898
 C618 C 0.18312 0.89535 0.44556
 H619 H 0.27336 0.91333 0.37910
 H620 H 0.24538 0.88949 0.41340
 H621 H 0.17880 0.91539 0.37723
 H622 H 0.20683 0.93927 0.34288
 H623 H 0.24051 0.98303 0.40075
 H624 H 0.21247 0.95919 0.43506
 C625 C 0.05481 0.37380 0.76010
 C626 C 0.06539 0.36276 0.78653
 C627 C 0.07827 0.38126 0.80163
 C628 C 0.07927 0.40896 0.78880
 C629 C 0.05012 0.41606 0.78297
 C630 C 0.03726 0.39758 0.76788
 C631 C 0.07913 0.38605 0.74633
 C632 C 0.09198 0.40453 0.76141
 C633 C 0.04094 0.35406 0.74372
 C634 C 0.02923 0.33825 0.73002
 C635 C 0.09324 0.42894 0.80484
 C636 C 0.10497 0.44553 0.81759
 H637 H 0.06297 0.34225 0.79284
 H638 H 0.08688 0.37660 0.82087
 H639 H 0.04044 0.43402 0.79008
 H640 H 0.01656 0.39971 0.76203
 H641 H 0.08569 0.38068 0.72647
 H642 H 0.10956 0.41499 0.75446
 C643 C 0.05426 0.62651 0.23998
 C644 C 0.06199 0.63666 0.21225
 C645 C 0.07492 0.61819 0.19717
 C646 C 0.07881 0.59139 0.21131
 C647 C 0.05076 0.58279 0.21980
 C648 C 0.03785 0.60125 0.23488
 C649 C 0.08036 0.61665 0.25240
 C650 C 0.09326 0.59820 0.23733
 C651 C 0.04034 0.64621 0.25636
 C652 C 0.02855 0.66197 0.27005
 C653 C 0.09284 0.57144 0.19529
 C654 C 0.10462 0.55487 0.18255
 H655 H 0.05767 0.65657 0.20509
 H656 H 0.08167 0.62227 0.17708
 H657 H 0.04181 0.56388 0.21441
 H658 H 0.01785 0.59815 0.24243
 H659 H 0.08804 0.62357 0.27136
 H660 H 0.11200 0.58931 0.24339
 C661 C 0.94587 0.37333 0.23864
 C662 C 0.96167 0.39920 0.23486
 C663 C 0.94874 0.41771 0.21984
 C664 C 0.92128 0.40853 0.21009
 C665 C 0.90614 0.40055 0.23537
 C666 C 0.91907 0.38205 0.25037
 C667 C 0.93943 0.36377 0.21037
 C668 C 0.92648 0.38228 0.19535
 C669 C 0.95980 0.35358 0.25496
 C670 C 0.97156 0.33778 0.26864
 C671 C 0.90722 0.42854 0.19414
 C672 C 0.89542 0.44514 0.18148
 H673 H 0.98130 0.40266 0.24320
 H674 H 0.95730 0.43701 0.21531
 H675 H 0.88694 0.40870 0.24099
 H676 H 0.91094 0.37436 0.26883
 H677 H 0.94461 0.34421 0.20281
 H678 H 0.92056 0.37859 0.17492
 C679 C 0.94589 0.62669 0.75937
 C680 C 0.92024 0.63714 0.77224
 C681 C 0.90736 0.61863 0.78728
 C682 C 0.92139 0.59150 0.78797
 C683 C 0.94977 0.59746 0.79760
 C684 C 0.96266 0.61598 0.78256
 C685 C 0.93738 0.60193 0.74367
 C686 C 0.92450 0.58344 0.75870
 C687 C 0.95979 0.64645 0.74304
 C688 C 0.97156 0.66226 0.72941
 C689 C 0.90739 0.57149 0.80395
 C690 C 0.89564 0.55489 0.81665
 H691 H 0.91287 0.65729 0.76977
 H692 H 0.88894 0.62294 0.79770
 H693 H 0.95893 0.58800 0.81472
 H694 H 0.98285 0.62240 0.78680
 H695 H 0.94116 0.59915 0.72260
 H696 H 0.91725 0.56482 0.75050
 C697 C 0.76012 0.62648 0.94489
 C698 C 0.77234 0.63678 0.91890
 C699 C 0.78746 0.61834 0.90599
 C700 C 0.78886 0.59141 0.92034
 C701 C 0.75976 0.58294 0.92410
 C702 C 0.74466 0.60136 0.93700
 C703 C 0.78380 0.61637 0.96134
 C704 C 0.79892 0.59792 0.94843
 C705 C 0.74371 0.64617 0.95880
 C706 C 0.73000 0.66193 0.97056
 C707 C 0.80491 0.57148 0.90632
 C708 C 0.81765 0.55491 0.89456
 H709 H 0.76941 0.65679 0.91131
 H710 H 0.79749 0.62255 0.88734
 H711 H 0.75172 0.56409 0.91726
 H712 H 0.72369 0.59830 0.94122
 H713 H 0.78831 0.62313 0.98135
 H714 H 0.81637 0.58885 0.95738
 C715 C 0.24031 0.37350 0.94550
 C716 C 0.21711 0.38414 0.96231
 C717 C 0.20202 0.40269 0.94951
 C718 C 0.21161 0.40876 0.92117
 C719 C 0.21231 0.38167 0.90706
 C720 C 0.22740 0.36313 0.91986
 C721 C 0.25598 0.39830 0.93707
 C722 C 0.24091 0.41682 0.92428
 C723 C 0.25669 0.35371 0.95930
 C724 C 0.27036 0.33788 0.97102
 C725 C 0.19558 0.42879 0.90726
 C726 C 0.18285 0.44542 0.89557
 H727 H 0.21291 0.37765 0.98247
 H728 H 0.18490 0.41211 0.95870
 H729 H 0.20184 0.37743 0.88865
 H730 H 0.22988 0.34300 0.91242
 H731 H 0.27708 0.40108 0.94084
 H732 H 0.24909 0.43547 0.91709
 C733 C 0.23995 0.62718 0.05490
 C734 C 0.22705 0.63752 0.08055
 C735 C 0.21197 0.61896 0.09332
 C736 C 0.21130 0.59189 0.07919
 C737 C 0.24060 0.58384 0.07609
 C738 C 0.25566 0.60238 0.06332
 C739 C 0.21677 0.61655 0.03807
 C740 C 0.20169 0.59798 0.05085
 C741 C 0.25631 0.64698 0.04112
 C742 C 0.26998 0.66281 0.02943
 C743 C 0.19529 0.57183 0.09306
 C744 C 0.18259 0.55518 0.10472
 H745 H 0.22950 0.65765 0.08800
 H746 H 0.20151 0.62319 0.11173
 H747 H 0.24880 0.56518 0.08326
 H748 H 0.27675 0.59961 0.05955
 H749 H 0.21255 0.62305 0.01792
 H750 H 0.18457 0.58855 0.04164
 C751 C 0.75980 0.37347 0.05357
 C752 C 0.78710 0.36295 0.06239
 C753 C 0.80222 0.38145 0.07525
 C754 C 0.78853 0.40863 0.07799
 C755 C 0.76194 0.40277 0.09182
 C756 C 0.74684 0.38429 0.07898
 C757 C 0.76591 0.39816 0.03667
 C758 C 0.78102 0.41665 0.04951
 C759 C 0.74340 0.35374 0.03972
 C760 C 0.72968 0.33797 0.02797
 C761 C 0.80457 0.42862 0.09195
 C762 C 0.81730 0.44521 0.10369
 H763 H 0.79396 0.34278 0.05883
 H764 H 0.82203 0.37713 0.08271
 H765 H 0.75553 0.41229 0.11011
 H766 H 0.72751 0.37798 0.08627
 H767 H 0.75898 0.40088 0.01639
 H768 H 0.78706 0.43519 0.04023
 C769 C 0.94605 0.75952 0.62671
 C770 C 0.91988 0.77159 0.63680
 C771 C 0.90704 0.78668 0.61830
 C772 C 0.92163 0.78821 0.59152
 C773 C 0.92563 0.75916 0.58301
 C774 C 0.93847 0.74409 0.60150
 C775 C 0.96248 0.78330 0.61682
 C776 C 0.94964 0.79839 0.59830
 C777 C 0.95989 0.74314 0.64646
 C778 C 0.97163 0.72947 0.66227
 C779 C 0.90768 0.80424 0.57152
 C780 C 0.89595 0.81695 0.55492
 H781 H 0.91213 0.76858 0.65672
 H782 H 0.88828 0.79661 0.62237
 H783 H 0.91899 0.75114 0.56409
 H784 H 0.94283 0.72315 0.59842
 H785 H 0.98243 0.78788 0.62376
 H786 H 0.95858 0.81589 0.58936
 C787 C 0.94589 0.23878 0.37313
 C788 C 0.96228 0.23380 0.39841
 C789 C 0.94937 0.21877 0.41690
 C790 C 0.92134 0.21021 0.40829
 C791 C 0.92526 0.19596 0.38157
 C792 C 0.93818 0.21099 0.36307
 C793 C 0.91977 0.25122 0.38289
 C794 C 0.90687 0.23621 0.40137
 C795 C 0.95979 0.25510 0.35340
 C796 C 0.97154 0.26878 0.33762
 C797 C 0.90731 0.19426 0.42828
 C798 C 0.89553 0.18161 0.44487
 H799 H 0.98228 0.24138 0.40151
 H800 H 0.95831 0.21347 0.43583
 H801 H 0.91852 0.17583 0.37756
 H802 H 0.94253 0.20375 0.34320
 H803 H 0.91208 0.27016 0.37589
 H804 H 0.88812 0.24229 0.41021
 C805 C 0.05433 0.24006 0.62655
 C806 C 0.08029 0.22772 0.63688
 C807 C 0.09322 0.21264 0.61843
 C808 C 0.07891 0.21139 0.59147
 C809 C 0.07524 0.24052 0.58310
 C810 C 0.06232 0.25558 0.60153
 C811 C 0.03782 0.21647 0.61631
 C812 C 0.05075 0.20139 0.59786
 C813 C 0.04040 0.25643 0.64624
 C814 C 0.02859 0.27011 0.66199
 C815 C 0.09295 0.19537 0.57154
 C816 C 0.10473 0.18264 0.55498
 H817 H 0.08784 0.23055 0.65691
 H818 H 0.11185 0.20254 0.62266
 H819 H 0.08215 0.24860 0.56431
 H820 H 0.05816 0.27657 0.59853
 H821 H 0.01777 0.21201 0.62299
 H822 H 0.04177 0.18401 0.58870
 C823 C 0.05489 0.75998 0.37382
 C824 C 0.03873 0.78412 0.38330
 C825 C 0.05163 0.79920 0.40179
 C826 C 0.07940 0.78865 0.40896
 C827 C 0.09424 0.78660 0.38236
 C828 C 0.08134 0.77152 0.36387
 C829 C 0.06197 0.74469 0.39927
 C830 C 0.07486 0.75976 0.41773
 C831 C 0.04100 0.74361 0.35409
 C832 C 0.02927 0.72993 0.33828
 C833 C 0.09340 0.80466 0.42893
 C834 C 0.10515 0.81739 0.44552
 H835 H 0.01892 0.78894 0.37612
 H836 H 0.04287 0.81694 0.41047
 H837 H 0.11319 0.79617 0.37837
 H838 H 0.08924 0.76817 0.34407
 H839 H 0.05725 0.72387 0.40252
 H840 H 0.08118 0.75183 0.43680
 C841 C 0.62611 0.94575 0.76102
 C842 C 0.60090 0.93811 0.74556
 C843 C 0.58240 0.92527 0.76061
 C844 C 0.59091 0.92132 0.78966
 C845 C 0.59762 0.94933 0.79982
 C846 C 0.61614 0.96218 0.78476
 C847 C 0.63625 0.91962 0.77312
 C848 C 0.61774 0.90676 0.78818
 C849 C 0.64586 0.95959 0.74466
 C850 C 0.66167 0.97129 0.73098
 C851 C 0.57090 0.90736 0.80565
 C852 C 0.55429 0.89564 0.81835
 H853 H 0.59783 0.94244 0.72464
 H854 H 0.56349 0.91859 0.75257
 H855 H 0.58863 0.95827 0.81730
 H856 H 0.62304 0.98214 0.78934
 H857 H 0.65621 0.91190 0.77014
 H858 H 0.62184 0.88803 0.79811
 C859 C 0.37319 0.94542 0.24087
 C860 C 0.38394 0.96229 0.21780
 C861 C 0.40241 0.94944 0.20267
 C862 C 0.40830 0.92099 0.21209
 C863 C 0.38111 0.90705 0.21269
 C864 C 0.36264 0.91990 0.22783
 C865 C 0.39794 0.93672 0.25651
 C866 C 0.41639 0.92387 0.24138
 C867 C 0.35349 0.95927 0.25730
 C868 C 0.33773 0.97103 0.27102
 C869 C 0.42825 0.90703 0.19602
 C870 C 0.44483 0.89531 0.18325
 H871 H 0.37758 0.98253 0.21371
 H872 H 0.41190 0.95867 0.18561
 H873 H 0.37674 0.88873 0.20214
 H874 H 0.34246 0.91259 0.23025
 H875 H 0.40075 0.94035 0.27760
 H876 H 0.43500 0.91651 0.24953
 C877 C 0.62614 0.05420 0.23972
 C878 C 0.63466 0.08228 0.23131
 C879 C 0.61615 0.09517 0.21626
 C880 C 0.59093 0.07870 0.21109
 C881 C 0.58081 0.07081 0.23878
 C882 C 0.59931 0.05793 0.25382
 C883 C 0.61940 0.03977 0.21365
 C884 C 0.60088 0.05266 0.19859
 C885 C 0.64590 0.04033 0.25606
 C886 C 0.66175 0.02861 0.26972
 C887 C 0.57093 0.09270 0.19510
 C888 C 0.55431 0.10445 0.18240
 H889 H 0.65357 0.09124 0.23668
 H890 H 0.61920 0.11518 0.20873
 H891 H 0.56084 0.07493 0.24592
 H892 H 0.59519 0.05100 0.27384
 H893 H 0.62836 0.02107 0.20759
 H894 H 0.59396 0.04501 0.17962
 C895 C 0.37295 0.05494 0.75997
 C896 C 0.39627 0.03715 0.76854
 C897 C 0.41478 0.05001 0.78361
 C898 C 0.40816 0.07940 0.78863
 C899 C 0.38024 0.07924 0.80103
 C900 C 0.36172 0.06636 0.78596
 C901 C 0.38588 0.07868 0.74581
 C902 C 0.40439 0.09153 0.76087
 C903 C 0.35320 0.04107 0.74361
 C904 C 0.33742 0.02929 0.72993
 C905 C 0.42817 0.09337 0.80463
 C906 C 0.44479 0.10510 0.81733
 H907 H 0.39809 0.01629 0.76321
 H908 H 0.43244 0.04016 0.79123
 H909 H 0.37545 0.08839 0.81999
 H910 H 0.34106 0.06449 0.79200
 H911 H 0.38094 0.08486 0.72572
 H912 H 0.41529 0.10873 0.75367
 C913 C 0.62544 0.76062 0.05414
 C914 C 0.59943 0.76427 0.03851
 C915 C 0.58095 0.77926 0.05151
 C916 C 0.59028 0.78911 0.07886
 C917 C 0.61644 0.80395 0.07346
 C918 C 0.63493 0.78896 0.06045
 C919 C 0.61695 0.74891 0.08100
 C920 C 0.59848 0.76388 0.09400
 C921 C 0.64517 0.74435 0.04014
 C922 C 0.66095 0.73074 0.02829
 C923 C 0.57030 0.80502 0.09298
 C924 C 0.55372 0.81766 0.10482
 H925 H 0.59587 0.75587 0.01894
 H926 H 0.56156 0.78370 0.04307
 H927 H 0.62009 0.82442 0.07930
 H928 H 0.65443 0.79658 0.05513
 H929 H 0.62478 0.73048 0.08912
 H930 H 0.59048 0.75827 0.11325
 C931 C 0.37369 0.23954 0.05364
 C932 C 0.38280 0.21502 0.03785
 C933 C 0.40123 0.19995 0.05086
 C934 C 0.40871 0.21089 0.07838
 C935 C 0.38220 0.21349 0.09334
 C936 C 0.36379 0.22856 0.08033
 C937 C 0.39938 0.25465 0.06029
 C938 C 0.41778 0.23960 0.07329
 C939 C 0.35403 0.25591 0.03962
 C940 C 0.33830 0.26960 0.02779
 C941 C 0.42862 0.19489 0.09250
 C942 C 0.44518 0.18220 0.10434
 H943 H 0.37542 0.20995 0.01819
 H944 H 0.40965 0.18197 0.04236
 H945 H 0.37824 0.20428 0.11246
 H946 H 0.34405 0.23227 0.08830
 H947 H 0.40283 0.27535 0.05519
 H948 H 0.43700 0.24741 0.07934
 C949 C 0.62575 0.24006 0.94574
 C950 C 0.61602 0.21607 0.96195
 C951 C 0.59749 0.20104 0.94905
 C952 C 0.59054 0.21148 0.92120
 C953 C 0.61726 0.21326 0.90652
 C954 C 0.63578 0.22829 0.91943
 C955 C 0.60041 0.25547 0.93842
 C956 C 0.58191 0.24045 0.92553
 C957 C 0.64552 0.25639 0.95963
 C958 C 0.66136 0.27003 0.97136
 C959 C 0.57052 0.19552 0.90718
 C960 C 0.55391 0.18285 0.89540
 H961 H 0.62307 0.21132 0.98180
 H962 H 0.58865 0.18341 0.95784
 H963 H 0.62130 0.20355 0.88767
 H964 H 0.65568 0.23146 0.91163
 H965 H 0.59726 0.27634 0.94301
 H966 H 0.56291 0.24846 0.91906
 C967 C 0.37344 0.76100 0.94699
 C968 C 0.39950 0.76450 0.96255
 C969 C 0.41797 0.77950 0.94958
 C970 C 0.40857 0.78951 0.92231
 C971 C 0.38247 0.80439 0.92787
 C972 C 0.36398 0.78939 0.94086
 C973 C 0.38181 0.74940 0.92004
 C974 C 0.40028 0.76438 0.90707
 C975 C 0.35373 0.74470 0.96097
 C976 C 0.33796 0.73106 0.97278
 C977 C 0.42855 0.80544 0.90822
 C978 C 0.44514 0.81807 0.89641
 H979 H 0.40311 0.75599 0.98207
 H980 H 0.43740 0.78384 0.95798
 H981 H 0.37884 0.82490 0.92215
 H982 H 0.34452 0.79704 0.94628
 H983 H 0.37391 0.73104 0.91185
 H984 H 0.40820 0.75885 0.88776
 C985 C 0.76092 0.94540 0.37412
 C986 C 0.78907 0.93856 0.36440
 C987 C 0.80411 0.92562 0.38289
 C988 C 0.78952 0.92082 0.40928
 C989 C 0.76399 0.90590 0.40163
 C990 C 0.74896 0.91882 0.38315
 C991 C 0.76510 0.96138 0.39981
 C992 C 0.78014 0.94846 0.41829
 C993 C 0.74459 0.95933 0.35439
 C994 C 0.73092 0.97112 0.33862
 C995 C 0.80549 0.90679 0.42927
 C996 C 0.81817 0.89501 0.44586
 H997 H 0.79652 0.94348 0.34474
 H998 H 0.82447 0.91945 0.37909
 H999 H 0.75823 0.88684 0.40999
 H1000 H 0.73033 0.91082 0.37568
 H1001 H 0.75699 0.98112 0.40316
 H1002 H 0.78493 0.95714 0.43748
 C1003 C 0.23968 0.94641 0.62630
 C1004 C 0.21153 0.93954 0.63597
 C1005 C 0.19657 0.92650 0.61747
 C1006 C 0.21124 0.92165 0.59114
 C1007 C 0.23680 0.90681 0.59890
 C1008 C 0.25174 0.91983 0.61738
 C1009 C 0.23552 0.96230 0.60056
 C1010 C 0.22056 0.94928 0.58207
 C1011 C 0.25592 0.96044 0.64604
 C1012 C 0.26951 0.97231 0.66182
 C1013 C 0.19536 0.90751 0.57115
 C1014 C 0.18275 0.89566 0.55455
 H1015 H 0.20400 0.94450 0.65559
 H1016 H 0.17622 0.92029 0.62124
 H1017 H 0.24265 0.88774 0.59061
 H1018 H 0.27038 0.91191 0.62493
 H1019 H 0.24358 0.98205 0.59716
 H1020 H 0.21580 0.95788 0.56285
 C1021 C 0.23985 0.05373 0.37463
 C1022 C 0.22970 0.08093 0.36517
 C1023 C 0.21468 0.09392 0.38363
 C1024 C 0.21129 0.07843 0.40972
 C1025 C 0.23973 0.07239 0.41911
 C1026 C 0.25473 0.05940 0.40067
 C1027 C 0.21479 0.03837 0.38300
 C1028 C 0.19977 0.05137 0.40146
 C1029 C 0.25615 0.03973 0.35493
 C1030 C 0.26978 0.02789 0.33916
 C1031 C 0.19534 0.09254 0.42966
 C1032 C 0.18267 0.10437 0.44622
 H1033 H 0.23391 0.08924 0.34570
 H1034 H 0.20602 0.11337 0.37996
 H1035 H 0.24740 0.07780 0.43855
 H1036 H 0.27525 0.05368 0.40432
 H1037 H 0.20934 0.01901 0.37513
 H1038 H 0.18145 0.04314 0.40942
 C1039 C 0.76048 0.05397 0.62605
 C1040 C 0.74535 0.06015 0.60027
 C1041 C 0.76035 0.07296 0.58171
 C1042 C 0.78904 0.07833 0.59074
 C1043 C 0.80013 0.05098 0.59864
 C1044 C 0.78510 0.03817 0.61722
 C1045 C 0.77132 0.08089 0.63556
 C1046 C 0.78633 0.09370 0.61699
 C1047 C 0.74418 0.04018 0.64587
 C1048 C 0.73055 0.02851 0.66175
 C1049 C 0.80498 0.09226 0.57068
 C1050 C 0.81764 0.10396 0.55403
 H1051 H 0.72467 0.05488 0.59686
 H1052 H 0.75252 0.07867 0.56241
 H1053 H 0.81816 0.04244 0.59036
 H1054 H 0.79027 0.01864 0.62488
 H1055 H 0.76755 0.08914 0.65515
 H1056 H 0.79544 0.11294 0.62068
 C1057 C 0.94594 0.62565 0.23906
 C1058 C 0.96219 0.61590 0.21511
 C1059 C 0.94924 0.59746 0.20001
 C1060 C 0.92132 0.59062 0.21034
 C1061 C 0.90672 0.61740 0.21215
 C1062 C 0.91967 0.63583 0.22725
 C1063 C 0.93848 0.60033 0.25438
 C1064 C 0.92554 0.58192 0.23929
 C1065 C 0.95989 0.64531 0.25546
 C1066 C 0.97170 0.66105 0.26916
 C1067 C 0.90726 0.57071 0.19430
 C1068 C 0.89545 0.55416 0.18158
 H1069 H 0.98210 0.62286 0.21043
 H1070 H 0.95806 0.58862 0.18239
 H1071 H 0.88789 0.62154 0.20240
 H1072 H 0.91194 0.65574 0.23045
 H1073 H 0.94300 0.59712 0.27525
 H1074 H 0.91897 0.56294 0.24724
 C1075 C 0.94613 0.37393 0.75977
 C1076 C 0.94170 0.40046 0.74532
 C1077 C 0.92878 0.41897 0.76031
 C1078 C 0.92155 0.40916 0.78828
 C1079 C 0.94798 0.39983 0.80047
 C1080 C 0.96091 0.38129 0.78546
 C1081 C 0.91834 0.36509 0.76880
 C1082 C 0.90541 0.38361 0.78380
 C1083 C 0.96004 0.35415 0.74348
 C1084 C 0.97180 0.33831 0.72986
 C1085 C 0.90752 0.42918 0.80421
 C1086 C 0.89573 0.44580 0.81685
 H1087 H 0.94819 0.40438 0.72511
 H1088 H 0.92420 0.43875 0.75293
 H1089 H 0.95586 0.40715 0.81919
 H1090 H 0.97987 0.37273 0.79134
 H1091 H 0.90959 0.34596 0.76388
 H1092 H 0.88559 0.38035 0.79173
 C1093 C 0.05417 0.62613 0.76061
 C1094 C 0.03846 0.60020 0.76435
 C1095 C 0.05142 0.58176 0.77941
 C1096 C 0.07880 0.59105 0.78926
 C1097 C 0.07344 0.61727 0.80397
 C1098 C 0.06047 0.63573 0.78890
 C1099 C 0.08105 0.61753 0.74898
 C1100 C 0.09400 0.59909 0.76403
 C1101 C 0.04021 0.64582 0.74425
 C1102 C 0.02840 0.66155 0.73055
 C1103 C 0.09287 0.57110 0.80525
 C1104 C 0.10468 0.55453 0.81793
 H1105 H 0.01888 0.59665 0.75593
 H1106 H 0.04292 0.56242 0.78391
 H1107 H 0.07927 0.62100 0.82443
 H1108 H 0.05518 0.65527 0.79644
 H1109 H 0.08921 0.62525 0.73055
 H1110 H 0.11326 0.59101 0.75849
 C1111 C 0.05453 0.37374 0.23908
 C1112 C 0.03771 0.38451 0.21596
 C1113 C 0.05055 0.40310 0.20097
 C1114 C 0.07893 0.40907 0.21059
 C1115 C 0.09300 0.38195 0.21115
 C1116 C 0.08017 0.36337 0.22614
 C1117 C 0.06303 0.39845 0.25487
 C1118 C 0.07586 0.41701 0.23989
 C1119 C 0.04069 0.35391 0.25536
 C1120 C 0.02899 0.33803 0.26896
 C1121 C 0.09289 0.42914 0.19468
 C1122 C 0.10463 0.44580 0.18206
 H1123 H 0.01751 0.37808 0.21172
 H1124 H 0.04135 0.41262 0.18391
 H1125 H 0.11141 0.37771 0.20068
 H1126 H 0.08757 0.34322 0.22852
 H1127 H 0.05927 0.40115 0.27595
 H1128 H 0.08309 0.43561 0.24816
   
