data_POSCAR
  _audit_creation_date              2014-09-24
  _audit_creation_method            'ToBaCCo'
  _symmetry_space_group_name_H-M    'P1'
  _symmetry_Int_Tables_number       1
  _symmetry_cell_setting            triclinic
  loop_
  _symmetry_equiv_pos_as_xyz
 x,y,z
_cell_length_a 28.3524
_cell_length_b 31.9370
_cell_length_c 16.5502
_cell_angle_alpha 89.688800
_cell_angle_beta 89.636000
_cell_angle_gamma 88.936600
loop_
  _atom_site_label
  _atom_site_type_symbol
  _atom_site_fract_x
  _atom_site_fract_y
  _atom_site_fract_z
C1 C 0.69929 0.35600 0.49743
 C2 C 0.71310 0.33913 0.57225
 C3 C 0.73447 0.29890 0.57380
 C4 C 0.74083 0.27504 0.50229
 C5 C 0.72466 0.29281 0.42893
 C6 C 0.70562 0.33345 0.42615
 C7 C 0.76358 0.23192 0.50394
 C8 C 0.78153 0.21300 0.43241
 C9 C 0.79995 0.17170 0.43261
 C10 C 0.80547 0.15110 0.50716
 C11 C 0.79027 0.16974 0.57923
 C12 C 0.76798 0.20917 0.57707
 H13 H 0.68091 0.38605 0.49449
 H14 H 0.74719 0.28739 0.63120
 H15 H 0.72594 0.27553 0.37309
 H16 H 0.78038 0.22956 0.37550
 H17 H 0.82389 0.12106 0.50975
 H18 H 0.75469 0.22148 0.63352
 C19 C 0.18645 0.84325 0.47919
 C20 C 0.18804 0.82205 0.55369
 C21 C 0.20786 0.78135 0.55608
 C22 C 0.22894 0.76299 0.48685
 C23 C 0.22757 0.78596 0.41336
 C24 C 0.20520 0.82536 0.40906
 C25 C 0.25069 0.71968 0.49081
 C26 C 0.25639 0.69554 0.42013
 C27 C 0.27916 0.65631 0.42211
 C28 C 0.29299 0.63923 0.49638
 C29 C 0.28526 0.66095 0.56898
 C30 C 0.26654 0.70214 0.56492
 H31 H 0.16986 0.87405 0.47510
 H32 H 0.20440 0.76345 0.61134
 H33 H 0.24334 0.77376 0.35858
 H34 H 0.24409 0.70693 0.36230
 H35 H 0.31233 0.60961 0.49714
 H36 H 0.26360 0.71993 0.62009
 C37 C 0.32824 0.33469 -0.49778
 C38 C 0.31619 0.31619 -0.57068
 C39 C 0.28529 0.28244 -0.57062
 C40 C 0.26430 0.26789 -0.49782
 C41 C 0.27619 0.28828 -0.42516
 C42 C 0.30944 0.32022 -0.42497
 C43 C 0.23247 0.23053 -0.49757
 C44 C 0.22312 0.20748 -0.42578
 C45 C 0.19678 0.17050 -0.42732
 C46 C 0.17926 0.15674 -0.50140
 C47 C 0.18630 0.17972 -0.57216
 C48 C 0.21215 0.21653 -0.57013
 H49 H 0.35375 0.35959 -0.49748
 H50 H 0.27927 0.26743 -0.62779
 H51 H 0.26114 0.27924 -0.36777
 H52 H 0.23798 0.21640 -0.36868
 H53 H 0.15779 0.12901 -0.50371
 H54 H 0.21546 0.23395 -0.62589
 C55 C -0.18429 0.84743 -0.49844
 C56 C -0.20290 0.83614 -0.57352
 C57 C -0.23989 0.80733 -0.57472
 C58 C -0.25410 0.78579 -0.50395
 C59 C -0.23267 0.79674 -0.43006
 C60 C -0.19922 0.82828 -0.42716
 C61 C -0.28951 0.75123 -0.50764
 C62 C -0.31136 0.73615 -0.43636
 C63 C -0.33962 0.70081 -0.43796
 C64 C -0.34985 0.68191 -0.51124
 C65 C -0.33056 0.69702 -0.58320
 C66 C -0.29985 0.73096 -0.58146
 H67 H -0.15631 0.87005 -0.49514
 H68 H -0.25755 0.80236 -0.63139
 H69 H -0.24073 0.78092 -0.37406
 H70 H -0.30596 0.75053 -0.37841
 H71 H -0.37175 0.65442 -0.51199
 H72 H -0.28312 0.73984 -0.63761
 N73 N 0.04566 0.95595 -0.14895
 N74 N 0.07203 0.94622 -0.21204
 N75 N -0.05000 0.92479 -0.08342
 N76 N -0.07739 0.89321 -0.10199
 N77 N -0.05303 0.95429 -0.13885
 N78 N -0.08255 0.94363 -0.19602
 N79 N 0.04872 0.92644 -0.09352
 N80 N 0.07728 0.89578 -0.11801
 C81 C 0.09247 0.90921 -0.19127
 C82 C -0.09784 0.90569 -0.17209
 N83 N -0.04415 0.95622 0.14443
 N84 N -0.07754 0.95077 0.19892
 N85 N 0.05447 0.92750 0.08064
 N86 N 0.08820 0.89936 0.09508
 N87 N 0.05516 0.95744 0.13461
 N88 N 0.08945 0.95061 0.18675
 N89 N -0.04461 0.92625 0.09071
 N90 N -0.07806 0.89935 0.10806
 Mn91 Mn 0.00218 0.92580 -0.00117
 C92 C -0.09889 0.91523 0.17553
 C93 C 0.11046 0.91473 0.16056
 N94 N -0.05682 1.04405 -0.14037
 N95 N -0.09127 1.05011 -0.19229
 N96 N 0.04320 1.07572 -0.09708
 N97 N 0.07709 1.10230 -0.11486
 N98 N 0.04202 1.04583 -0.15108
 N99 N 0.07472 1.05122 -0.20676
 N100 N -0.05623 1.07433 -0.08712
 N101 N -0.09027 1.10212 -0.10215
 Mn102 Mn -0.00557 1.00014 -0.14522
 C103 C -0.11251 1.08595 -0.16702
 C104 C 0.09699 1.08611 -0.18309
 N105 N 0.05119 1.04757 0.13308
 N106 N 0.07938 1.05893 0.19167
 N107 N -0.05072 1.07547 0.08799
 N108 N -0.08315 1.10377 0.10913
 N109 N -0.04748 1.04585 0.14315
 N110 N -0.07763 1.05293 0.20253
 N111 N 0.04803 1.07714 0.07766
 N112 N 0.07398 1.10938 0.09775
 Mn113 Mn 0.00376 1.00168 0.13937
 Mn114 Mn -0.00397 1.07622 -0.00483
 Cl115 Cl -0.00084 1.00100 -0.00296
 C116 C 0.09378 1.09724 0.16851
 C117 C -0.10037 1.08862 0.18003
 N118 N 0.53660 0.58174 -0.09156
 N119 N 0.56074 0.61519 -0.11199
 N120 N 0.44346 0.54235 -0.14543
 N121 N 0.41180 0.54788 -0.20254
 N122 N 0.43884 0.57145 -0.09001
 N123 N 0.40410 0.59791 -0.10888
 N124 N 0.54182 0.55235 -0.14635
 N125 N 0.57021 0.56481 -0.20471
 C126 C 0.58246 0.60364 -0.18158
 C127 C 0.38680 0.58205 -0.17832
 N128 N 0.46014 0.42369 -0.09153
 N129 N 0.43286 0.39196 -0.10900
 N130 N 0.55479 0.46257 -0.14838
 N131 N 0.58730 0.45809 -0.20511
 N132 N 0.55881 0.43260 -0.09415
 N133 N 0.59438 0.40698 -0.11274
 N134 N 0.45652 0.45303 -0.14709
 N135 N 0.42683 0.44200 -0.20377
 Mn136 Mn 0.49924 0.50259 -0.14738
 C137 C 0.41221 0.40386 -0.17925
 C138 C 0.61255 0.42385 -0.18138
 N139 N 0.43968 0.56981 0.08523
 N140 N 0.40298 0.59423 0.10290
 N141 N 0.54325 0.55039 0.13681
 N142 N 0.57408 0.56097 0.19201
 N143 N 0.53792 0.58045 0.08302
 N144 N 0.56497 0.61241 0.10071
 N145 N 0.44485 0.54021 0.13998
 N146 N 0.41164 0.54341 0.19576
 Mn147 Mn 0.48811 0.57631 -0.00320
 C148 C 0.38523 0.57674 0.17119
 C149 C 0.58817 0.59935 0.16800
 N150 N 0.55933 0.43114 0.08015
 N151 N 0.59195 0.40290 0.09968
 N152 N 0.45813 0.45108 0.13917
 N153 N 0.43041 0.43897 0.19873
 N154 N 0.46127 0.42213 0.08327
 N155 N 0.43590 0.38937 0.10391
 N156 N 0.55653 0.46068 0.13503
 N157 N 0.58767 0.45357 0.19259
 Mn158 Mn 0.50984 0.42698 -0.00569
 Mn159 Mn 0.50080 0.50066 0.13831
 Cl160 Cl 0.49953 0.50163 -0.00450
 C161 C 0.61019 0.41800 0.16871
 C162 C 0.41655 0.40056 0.17593
 C163 C 0.34880 0.39306 0.26753
 C164 C 0.32427 0.37275 0.32879
 C165 C 0.33761 0.33235 0.35377
 C166 C 0.37528 0.31124 0.31354
 C167 C 0.40051 0.33194 0.25084
 C168 C 0.38748 0.37369 0.22891
 C169 C 0.43952 0.31074 0.21597
 N170 N 0.45150 0.27149 0.24104
 N171 N 0.42762 0.25211 0.29928
 C172 C 0.39016 0.27070 0.33668
 H173 H 0.33858 0.42499 0.25224
 H174 H 0.29586 0.38945 0.35958
 H175 H 0.46106 0.32474 0.16970
 H176 H 0.37260 0.25365 0.38439
 C177 C -0.15178 0.91702 0.29361
 C178 C -0.17581 0.89762 0.35600
 C179 C -0.18445 0.85446 0.35502
 C180 C -0.17159 0.83133 0.28416
 C181 C -0.14958 0.85217 0.21770
 C182 C -0.13563 0.89455 0.22613
 C183 C -0.14135 0.82922 0.14638
 N184 N -0.14974 0.78763 0.14460
 N185 N -0.16564 0.76730 0.20925
 C186 C -0.17623 0.78748 0.27898
 H187 H -0.14383 0.94985 0.30055
 H188 H -0.18677 0.91670 0.40699
 H189 H -0.12980 0.84368 0.09105
 H190 H -0.18713 0.76856 0.32957
 C191 C 0.60528 0.66840 0.22793
 C192 C 0.62515 0.69240 0.28877
 C193 C 0.65881 0.67481 0.34104
 C194 C 0.67586 0.63355 0.32724
 C195 C 0.65595 0.60921 0.26518
 C196 C 0.61840 0.62613 0.21821
 C197 C 0.67441 0.56857 0.25257
 N198 N 0.70949 0.55335 0.30035
 N199 N 0.72753 0.57596 0.35960
 C200 C 0.71194 0.61552 0.37468
 H201 H 0.57693 0.68208 0.19237
 H202 H 0.61177 0.72396 0.29876
 H203 H 0.66207 0.54904 0.20428
 H204 H 0.72828 0.63272 0.42285
 C205 C 0.16109 1.10657 0.25812
 C206 C 0.18347 1.12634 0.32145
 C207 C 0.16595 1.16440 0.35176
 C208 C 0.12619 1.18394 0.31511
 C209 C 0.10324 1.16382 0.25026
 C210 C 0.12064 1.12431 0.22277
 C211 C 0.06209 1.18301 0.21882
 N212 N 0.04596 1.21995 0.24926
 N213 N 0.06769 1.23883 0.30967
 C214 C 0.10700 1.22200 0.34395
 H215 H 0.17436 1.07617 0.23872
 H216 H 0.21359 1.11090 0.34950
 H217 H 0.04212 1.16919 0.17102
 H218 H 0.12256 1.23843 0.39376
 C219 C 0.65294 0.35963 -0.23282
 C220 C 0.67854 0.33853 -0.29288
 C221 C 0.70076 0.36072 -0.35575
 C222 C 0.70368 0.40503 -0.34884
 C223 C 0.67800 0.42641 -0.28723
 C224 C 0.64954 0.40348 -0.23251
 C225 C 0.68251 0.47012 -0.28166
 N226 N 0.71076 0.49074 -0.33425
 N227 N 0.73535 0.47067 -0.39129
 C228 C 0.73320 0.42859 -0.39982
 H229 H 0.63258 0.34136 -0.19022
 H230 H 0.67629 0.30472 -0.29475
 H231 H 0.66529 0.48803 -0.23445
 H232 H 0.75541 0.41381 -0.44514
 C233 C 0.09851 0.88107 -0.32759
 C234 C 0.12160 0.86017 -0.38956
 C235 C 0.16587 0.84049 -0.37796
 C236 C 0.18640 0.84161 -0.29926
 C237 C 0.16179 0.86245 -0.23519
 C238 C 0.11805 0.88294 -0.25059
 C239 C 0.18313 0.86407 -0.15885
 N240 N 0.22660 0.84678 -0.14766
 N241 N 0.25045 0.82863 -0.20790
 C242 C 0.23225 0.82595 -0.28322
 H243 H 0.06475 0.89613 -0.34022
 H244 H 0.10401 0.85903 -0.44744
 H245 H 0.16609 0.87943 -0.10821
 H246 H 0.25459 0.81265 -0.32977
 C247 C 0.35208 0.64627 -0.24055
 C248 C 0.32694 0.66591 -0.30290
 C249 C 0.30011 0.64241 -0.35710
 C250 C 0.29304 0.59922 -0.33919
 C251 C 0.31878 0.57937 -0.27606
 C252 C 0.35070 0.60277 -0.22979
 C253 C 0.31094 0.53667 -0.26018
 N254 N 0.27889 0.51564 -0.30389
 N255 N 0.25380 0.53446 -0.36173
 C256 C 0.25937 0.57547 -0.38024
 H257 H 0.37570 0.66480 -0.20472
 H258 H 0.33262 0.69895 -0.31330
 H259 H 0.32881 0.52008 -0.21185
 H260 H 0.23653 0.58940 -0.42539
 C261 C -0.14357 1.15147 -0.22811
 C262 C -0.16721 1.17189 -0.29095
 C263 C -0.19665 1.14978 -0.34273
 C264 C -0.20668 1.10745 -0.32482
 C265 C -0.18258 1.08662 -0.26103
 C266 C -0.14856 1.10835 -0.21576
 C267 C -0.19328 1.04452 -0.24504
 N268 N -0.22565 1.02484 -0.29056
 N269 N -0.24816 1.04443 -0.35062
 C270 C -0.23988 1.08506 -0.36916
 H271 H -0.11807 1.16874 -0.19375
 H272 H -0.15938 1.20439 -0.30327
 H273 H -0.17704 1.02733 -0.19578
 H274 H -0.25986 1.09972 -0.41740
 C275 C 0.58439 0.66836 -0.26293
 C276 C 0.60294 0.69185 -0.32644
 C277 C 0.64587 0.68000 -0.36246
 C278 C 0.67211 0.64557 -0.33089
 C279 C 0.65312 0.62159 -0.26680
 C280 C 0.60817 0.63231 -0.23493
 C281 C 0.67992 0.58758 -0.23657
 N282 N 0.72294 0.57846 -0.26892
 N283 N 0.74063 0.60073 -0.32986
 C284 C 0.71664 0.63383 -0.36222
 H285 H 0.54986 0.67683 -0.23905
 H286 H 0.58266 0.71819 -0.35019
 H287 H 0.66737 0.56860 -0.18684
 H288 H 0.73280 0.65093 -0.41140
 C289 C 0.13718 1.15010 -0.23246
 C290 C 0.16268 1.17102 -0.29238
 C291 C 0.18459 1.14871 -0.35579
 C292 C 0.18755 1.10428 -0.35005
 C293 C 0.16315 1.08310 -0.28738
 C294 C 0.13431 1.10630 -0.23251
 C295 C 0.16908 1.03930 -0.28124
 N296 N 0.19666 1.01834 -0.33529
 N297 N 0.21923 1.03817 -0.39447
 C298 C 0.21594 1.08033 -0.40335
 H299 H 0.11661 1.16849 -0.18967
 H300 H 0.16062 1.20493 -0.29396
 H301 H 0.15358 1.02155 -0.23246
 H302 H 0.23652 1.09485 -0.45069
 C303 C 0.34495 0.39871 -0.27113
 C304 C 0.31924 0.37858 -0.33018
 C305 C 0.32874 0.33665 -0.34895
 C306 C 0.36322 0.31384 -0.30430
 C307 C 0.38987 0.33436 -0.24423
 C308 C 0.38118 0.37770 -0.22910
 C309 C 0.42601 0.31105 -0.20550
 N310 N 0.43378 0.27023 -0.22429
 N311 N 0.40848 0.25107 -0.27996
 C312 C 0.37378 0.27148 -0.32093
 H313 H 0.33784 0.43172 -0.26073
 H314 H 0.29344 0.39650 -0.36464
 H315 H 0.44874 0.32438 -0.16116
 H316 H 0.35501 0.25434 -0.36628
 C317 C -0.16639 0.90075 -0.26077
 C318 C -0.19120 0.88210 -0.32272
 C319 C -0.17864 0.84203 -0.34998
 C320 C -0.14195 0.81930 -0.31086
 C321 C -0.11637 0.83828 -0.24752
 C322 C -0.12820 0.87997 -0.22383
 C323 C -0.07821 0.81548 -0.21391
 N324 N -0.06744 0.77638 -0.24070
 N325 N -0.09172 0.75861 -0.29949
 C326 C -0.12838 0.77879 -0.33578
 H327 H -0.17572 0.93264 -0.24411
 H328 H -0.21891 0.90000 -0.35265
 H329 H -0.05646 0.82803 -0.16713
 H330 H -0.14644 0.76302 -0.38387
 C331 C 0.34843 0.63991 0.23089
 C332 C 0.32258 0.65932 0.29231
 C333 C 0.29520 0.63578 0.34617
 C334 C 0.28994 0.59238 0.33203
 C335 C 0.31677 0.57249 0.27011
 C336 C 0.34813 0.59634 0.22214
 C337 C 0.31102 0.52930 0.25814
 N338 N 0.28047 0.50778 0.30531
 N339 N 0.25514 0.52652 0.36319
 C340 C 0.25868 0.56807 0.37794
 H341 H 0.37181 0.65877 0.19432
 H342 H 0.32692 0.69259 0.30154
 H343 H 0.32962 0.51261 0.21068
 H344 H 0.23646 0.58188 0.42433
 C345 C -0.13144 1.15381 0.24337
 C346 C -0.15585 1.17430 0.30565
 C347 C -0.18413 1.15191 0.36056
 C348 C -0.19276 1.10891 0.34423
 C349 C -0.16789 1.08821 0.28084
 C350 C -0.13497 1.11050 0.23318
 C351 C -0.17781 1.04590 0.26580
 N352 N -0.21072 1.02598 0.31071
 N353 N -0.23484 1.04558 0.36891
 C354 C -0.22743 1.08631 0.38654
 H355 H -0.10698 1.17149 0.20667
 H356 H -0.14888 1.20714 0.31504
 H357 H -0.16094 1.02875 0.21715
 H358 H -0.24973 1.10091 0.43184
 C359 C 0.62823 0.35393 0.24662
 C360 C 0.65127 0.33332 0.30985
 C361 C 0.68887 0.35212 0.34936
 C362 C 0.70616 0.39071 0.32004
 C363 C 0.68240 0.41183 0.25636
 C364 C 0.64203 0.39393 0.22198
 C365 C 0.70021 0.45011 0.22865
 N366 N 0.73962 0.46572 0.26232
 N367 N 0.76202 0.44588 0.32220
 C368 C 0.74660 0.40899 0.35236
 H369 H 0.59742 0.33979 0.22057
 H370 H 0.63783 0.30370 0.33129
 H371 H 0.68370 0.46732 0.17961
 H372 H 0.76657 0.39391 0.40016
 C373 C 0.14192 0.84773 0.21573
 C374 C 0.16578 0.82557 0.27628
 C375 C 0.19490 0.84630 0.33062
 C376 C 0.20468 0.88912 0.31705
 C377 C 0.18045 0.91170 0.25554
 C378 C 0.14639 0.89124 0.20819
 C379 C 0.19102 0.95419 0.24405
 N380 N 0.22321 0.97264 0.29186
 N381 N 0.24561 0.95149 0.35010
 C382 C 0.23749 0.91038 0.36429
 H383 H 0.11660 0.83130 0.17947
 H384 H 0.15793 0.79280 0.28543
 H385 H 0.17484 0.97270 0.19652
 H386 H 0.25715 0.89448 0.41153
   
