data_POSCAR
  _audit_creation_date              2014-09-24
  _audit_creation_method            'ToBaCCo'
  _symmetry_space_group_name_H-M    'P1'
  _symmetry_Int_Tables_number       1
  _symmetry_cell_setting            triclinic
  loop_
  _symmetry_equiv_pos_as_xyz
 x,y,z
_cell_length_a 62.0469
_cell_length_b 61.7170
_cell_length_c 61.8027
_cell_angle_alpha 90.014700
_cell_angle_beta 89.918000
_cell_angle_gamma 90.036700
loop_
  _atom_site_label
  _atom_site_type_symbol
  _atom_site_fract_x
  _atom_site_fract_y
  _atom_site_fract_z
C1 C 0.31316 0.31239 -0.00952
 C2 C 0.31341 0.31279 0.01254
 C3 C 0.29852 0.32683 0.02518
 C4 C 0.32912 0.29977 0.02510
 C5 C 0.32699 0.29730 -0.02214
 C6 C 0.29967 0.32763 -0.02220
 C7 C 0.30692 0.34133 0.04053
 C8 C 0.29322 0.35513 0.05204
 C9 C 0.27096 0.35448 0.04847
 C10 C 0.26240 0.33974 0.03353
 C11 C 0.27609 0.32590 0.02201
 C12 C 0.35138 0.30188 0.02140
 C13 C 0.36602 0.28931 0.03309
 C14 C 0.35857 0.27468 0.04871
 C15 C 0.33644 0.27282 0.05277
 C16 C 0.32178 0.28538 0.04108
 C17 C 0.32640 0.27483 -0.01843
 C18 C 0.33990 0.26093 -0.03013
 C19 C 0.35398 0.26935 -0.04581
 C20 C 0.35429 0.29170 -0.04984
 C21 C 0.34084 0.30555 -0.03813
 C22 C 0.28528 0.31957 -0.03777
 C23 C 0.27266 0.33377 -0.04994
 C24 C 0.27443 0.35616 -0.04679
 C25 C 0.28893 0.36432 -0.03148
 C26 C 0.30158 0.35013 -0.01931
 H27 H 0.32413 0.34225 0.04328
 H28 H 0.30002 0.36644 0.06358
 H29 H 0.24519 0.33904 0.03071
 H30 H 0.26925 0.31457 0.01054
 H31 H 0.35737 0.31322 0.00945
 H32 H 0.38312 0.29096 0.02992
 H33 H 0.30469 0.28367 0.04426
 H34 H 0.31557 0.26810 -0.00644
 H35 H 0.33937 0.24368 -0.02685
 H36 H 0.36504 0.29850 -0.06191
 H37 H 0.34147 0.32281 -0.04130
 H38 H 0.28374 0.30227 -0.04034
 H39 H 0.26154 0.32731 -0.06181
 H40 H 0.29052 0.38163 -0.02903
 H41 H 0.31292 0.35667 -0.00771
 H42 H 0.33052 0.26161 0.06489
 C43 C 0.68698 0.68692 -0.01332
 C44 C 0.68711 0.68685 0.00875
 C45 C 0.70223 0.67300 0.02129
 C46 C 0.67164 0.70007 0.02148
 C47 C 0.67307 0.70200 -0.02585
 C48 C 0.70023 0.67142 -0.02600
 C49 C 0.69411 0.65873 0.03701
 C50 C 0.70803 0.64520 0.04853
 C51 C 0.73024 0.64588 0.04458
 C52 C 0.73852 0.66037 0.02923
 C53 C 0.72460 0.67395 0.01771
 C54 C 0.64932 0.69802 0.01823
 C55 C 0.63492 0.71063 0.03022
 C56 C 0.64266 0.72522 0.04572
 C57 C 0.66486 0.72706 0.04930
 C58 C 0.67929 0.71448 0.03729
 C59 C 0.67381 0.72450 -0.02226
 C60 C 0.66007 0.73837 -0.03365
 C61 C 0.64563 0.72993 -0.04889
 C62 C 0.64519 0.70761 -0.05288
 C63 C 0.65888 0.69373 -0.04150
 C64 C 0.71465 0.67915 -0.04173
 C65 C 0.72748 0.66469 -0.05346
 C66 C 0.72586 0.64238 -0.04970
 C67 C 0.71119 0.63455 -0.03434
 C68 C 0.69835 0.64898 -0.02262
 H69 H 0.67695 0.65780 0.04009
 H70 H 0.70145 0.63408 0.06039
 H71 H 0.75569 0.66110 0.02610
 H72 H 0.73123 0.68511 0.00593
 H73 H 0.64309 0.68667 0.00643
 H74 H 0.61776 0.70899 0.02743
 H75 H 0.69643 0.71614 0.04014
 H76 H 0.68490 0.73126 -0.01055
 H77 H 0.66062 0.75563 -0.03049
 H78 H 0.63411 0.70090 -0.06465
 H79 H 0.65811 0.67647 -0.04458
 H80 H 0.71620 0.69638 -0.04467
 H81 H 0.73873 0.67091 -0.06537
 H82 H 0.70973 0.61730 -0.03139
 H83 H 0.68700 0.64268 -0.01086
 H84 H 0.67101 0.73825 0.06131
 C85 C 0.68879 0.31245 1.01169
 C86 C 0.68828 0.31217 0.98962
 C87 C 0.70317 0.32568 0.97644
 C88 C 0.67234 0.29885 0.97760
 C89 C 0.67518 0.29765 1.02488
 C90 C 0.70250 0.32806 1.02373
 C91 C 0.69477 0.33988 0.96083
 C92 C 0.70850 0.35329 0.94889
 C93 C 0.73079 0.35255 0.95230
 C94 C 0.73933 0.33807 0.96747
 C95 C 0.72561 0.32461 0.97941
 C96 C 0.65014 0.30104 0.98158
 C97 C 0.63529 0.28831 0.97028
 C98 C 0.64247 0.27344 0.95475
 C99 C 0.66454 0.27146 0.95044
 C100 C 0.67941 0.28417 0.96175
 C101 C 0.67573 0.27510 1.02165
 C102 C 0.66227 0.26148 1.03371
 C103 C 0.64832 0.27023 1.04925
 C104 C 0.64808 0.29262 1.05288
 C105 C 0.66149 0.30624 1.04083
 C106 C 0.71715 0.32049 1.03927
 C107 C 0.73022 0.33504 1.05060
 C108 C 0.72863 0.35733 1.04662
 C109 C 0.71378 0.36501 1.03139
 C110 C 0.70070 0.35047 1.02008
 H111 H 0.67754 0.34090 0.95822
 H112 H 0.70171 0.36441 0.93718
 H113 H 0.75656 0.33730 0.97019
 H114 H 0.73244 0.31350 0.99109
 H115 H 0.64433 0.31259 0.99342
 H116 H 0.61824 0.29007 0.97364
 H117 H 0.69644 0.28238 0.95834
 H118 H 0.68644 0.26810 1.00970
 H119 H 0.66264 0.24417 1.03082
 H120 H 0.63737 0.29956 1.06488
 H121 H 0.66089 0.32356 1.04364
 H122 H 0.71864 0.30329 1.04242
 H123 H 0.74157 0.32887 1.06240
 H124 H 0.71227 0.38222 1.02824
 H125 H 0.68918 0.35665 1.00848
 H126 H 0.67026 0.26007 0.93840
 C127 C 0.31258 0.68799 1.01197
 C128 C 0.31252 0.68797 0.98991
 C129 C 0.29928 0.67236 0.97732
 C130 C 0.32628 0.70308 0.97725
 C131 C 0.32812 0.70131 1.02453
 C132 C 0.29758 0.67416 1.02467
 C133 C 0.30120 0.64992 0.98074
 C134 C 0.28876 0.63539 0.96871
 C135 C 0.27445 0.64311 0.95300
 C136 C 0.27269 0.66542 0.94931
 C137 C 0.28511 0.67997 0.96135
 C138 C 0.34051 0.69483 0.96160
 C139 C 0.35410 0.70875 0.95012
 C140 C 0.35351 0.73108 0.95403
 C141 C 0.33902 0.73949 0.96925
 C142 C 0.32537 0.72558 0.98074
 C143 C 0.32057 0.71566 1.04046
 C144 C 0.33505 0.72825 1.05238
 C145 C 0.35725 0.72649 1.04861
 C146 C 0.36490 0.71196 1.03295
 C147 C 0.35043 0.69936 1.02105
 C148 C 0.27520 0.67504 1.02125
 C149 C 0.26137 0.66142 1.03287
 C150 C 0.26977 0.64695 1.04816
 C151 C 0.29201 0.64637 1.05196
 C152 C 0.30582 0.65995 1.04034
 H153 H 0.31237 0.64370 0.99266
 H154 H 0.29034 0.61815 0.97160
 H155 H 0.26174 0.67156 0.93713
 H156 H 0.28355 0.69719 0.95835
 H157 H 0.34139 0.67756 0.95861
 H158 H 0.36523 0.70207 0.93836
 H159 H 0.31424 0.73230 0.99246
 H160 H 0.30344 0.71725 1.04349
 H161 H 0.32890 0.73935 1.06449
 H162 H 0.38204 0.71033 1.02995
 H163 H 0.35659 0.68805 1.00916
 H164 H 0.26849 0.68617 1.00951
 H165 H 0.24419 0.66211 1.02982
 H166 H 0.29873 0.63528 1.06376
 H167 H 0.32301 0.65909 1.04327
 H168 H 0.33838 0.75676 0.97234
 C169 C -0.01231 0.31355 0.31201
 C170 C 0.00967 0.31334 0.31215
 C171 C 0.02207 0.29813 0.32606
 C172 C 0.02244 0.32884 0.29897
 C173 C -0.02470 0.32762 0.29695
 C174 C -0.02506 0.30027 0.32744
 C175 C 0.03771 0.30628 0.34032
 C176 C 0.04911 0.29228 0.35389
 C177 C 0.04513 0.26996 0.35328
 C178 C 0.02986 0.26166 0.33881
 C179 C 0.01845 0.27565 0.32518
 C180 C 0.01927 0.35130 0.30102
 C181 C 0.03127 0.36574 0.28843
 C182 C 0.04670 0.35789 0.27386
 C183 C 0.05020 0.33556 0.27202
 C184 C 0.03819 0.32110 0.28459
 C185 C -0.02109 0.32690 0.27449
 C186 C -0.03243 0.34072 0.26063
 C187 C -0.04764 0.35525 0.26905
 C188 C -0.05162 0.35569 0.29137
 C189 C -0.04029 0.34191 0.30521
 C190 C -0.04080 0.28591 0.31965
 C191 C -0.05272 0.27317 0.33404
 C192 C -0.04914 0.27481 0.35636
 C193 C -0.03373 0.28940 0.36424
 C194 C -0.02183 0.30216 0.34986
 H195 H 0.04082 0.32353 0.34120
 H196 H 0.06091 0.29889 0.36499
 H197 H 0.02670 0.24440 0.33812
 H198 H 0.00674 0.26899 0.31404
 H199 H 0.00751 0.35760 0.31236
 H200 H 0.02853 0.38299 0.29007
 H201 H 0.04097 0.30385 0.28293
 H202 H -0.00943 0.31573 0.26774
 H203 H -0.02923 0.34012 0.24339
 H204 H -0.06336 0.36680 0.29813
 H205 H -0.04338 0.34266 0.32245
 H206 H -0.04362 0.28438 0.30243
 H207 H -0.06465 0.26201 0.32772
 H208 H -0.03088 0.29094 0.38147
 H209 H -0.01007 0.31347 0.35619
 H210 H 0.06216 0.32934 0.26084
 C211 C -0.01041 0.68756 0.68886
 C212 C 0.01156 0.68787 0.68854
 C213 C 0.02383 0.70309 0.67450
 C214 C 0.02446 0.67242 0.70158
 C215 C -0.02269 0.67334 0.70390
 C216 C -0.02327 0.70084 0.67359
 C217 C 0.03933 0.69494 0.66005
 C218 C 0.05059 0.70893 0.64632
 C219 C 0.04661 0.73124 0.64696
 C220 C 0.03149 0.73956 0.66161
 C221 C 0.02022 0.72557 0.67540
 C222 C 0.02142 0.64996 0.69947
 C223 C 0.03365 0.63556 0.71183
 C224 C 0.04918 0.64348 0.72623
 C225 C 0.05252 0.66583 0.72814
 C226 C 0.04028 0.68024 0.71581
 C227 C -0.01904 0.67394 0.72634
 C228 C -0.03035 0.66002 0.74017
 C229 C -0.04557 0.64552 0.73173
 C230 C -0.04958 0.64520 0.70943
 C231 C -0.03827 0.65907 0.69562
 C232 C -0.03895 0.71515 0.68157
 C233 C -0.05104 0.72784 0.66733
 C234 C -0.04767 0.72620 0.64497
 C235 C -0.03229 0.71166 0.63690
 C236 C -0.02023 0.69895 0.65113
 H237 H 0.04243 0.67770 0.65915
 H238 H 0.06228 0.70232 0.63507
 H239 H 0.02834 0.75680 0.66231
 H240 H 0.00861 0.73222 0.68669
 H241 H 0.00961 0.64361 0.68825
 H242 H 0.03103 0.61829 0.71014
 H243 H 0.04297 0.69750 0.71750
 H244 H -0.00737 0.68510 0.73310
 H245 H -0.02713 0.66053 0.75740
 H246 H -0.06132 0.63410 0.70266
 H247 H -0.04139 0.65841 0.67839
 H248 H -0.04162 0.71667 0.69883
 H249 H -0.06293 0.73897 0.67379
 H250 H -0.02961 0.71012 0.61964
 H251 H -0.00852 0.68767 0.64467
 H252 H 0.06456 0.67210 0.73918
 C253 C 1.01040 0.68803 0.31285
 C254 C 0.98842 0.68796 0.31290
 C255 C 0.97581 0.70106 0.32864
 C256 C 0.97589 0.67427 0.29764
 C257 C 1.02301 0.67261 0.29937
 C258 C 1.02293 0.70311 0.32674
 C259 C 0.97928 0.69897 0.35102
 C260 C 0.96738 0.71142 0.36567
 C261 C 0.95174 0.72591 0.35813
 C262 C 0.94795 0.72779 0.33588
 C263 C 0.95987 0.71537 0.32121
 C264 C 0.96037 0.65979 0.30570
 C265 C 0.94905 0.64624 0.29162
 C266 C 0.95298 0.64714 0.26933
 C267 C 0.96806 0.66190 0.26112
 C268 C 0.97939 0.67550 0.27519
 C269 C 1.03882 0.68043 0.28509
 C270 C 1.05068 0.66607 0.27225
 C271 C 1.04698 0.64371 0.27369
 C272 C 1.03147 0.63579 0.28818
 C273 C 1.01963 0.65015 0.30103
 C274 C 1.01932 0.72559 0.32600
 C275 C 1.03065 0.73948 0.33978
 C276 C 1.04584 0.73107 0.35427
 C277 C 1.04987 0.70874 0.35469
 C278 C 1.03854 0.69486 0.34094
 H279 H 0.99118 0.68769 0.35711
 H280 H 0.97035 0.70974 0.38286
 H281 H 0.93584 0.73890 0.32987
 H282 H 0.95684 0.71707 0.30404
 H283 H 0.95737 0.65866 0.32293
 H284 H 0.93739 0.63490 0.29813
 H285 H 0.99102 0.68683 0.26863
 H286 H 1.04177 0.69767 0.28371
 H287 H 1.06268 0.67244 0.26118
 H288 H 1.02852 0.61854 0.28958
 H289 H 1.00783 0.64376 0.31227
 H290 H 1.00762 0.73231 0.31488
 H291 H 1.02743 0.75673 0.33922
 H292 H 1.06160 0.70200 0.36578
 H293 H 1.04162 0.67760 0.34169
 H294 H 0.97117 0.66278 0.24389
 C295 C 1.01181 0.31077 0.68692
 C296 C 0.98983 0.31088 0.68723
 C297 C 0.97696 0.29782 0.67171
 C298 C 0.97756 0.32468 0.70261
 C299 C 1.02464 0.32627 0.70006
 C300 C 1.02410 0.29564 0.67287
 C301 C 0.98013 0.29992 0.64928
 C302 C 0.96788 0.28762 0.63482
 C303 C 0.95219 0.27327 0.64261
 C304 C 0.94873 0.27135 0.66492
 C305 C 0.96100 0.28362 0.67940
 C306 C 0.96200 0.33916 0.69472
 C307 C 0.95093 0.35284 0.70889
 C308 C 0.95516 0.35207 0.73111
 C309 C 0.97029 0.33732 0.73918
 C310 C 0.98137 0.32360 0.72501
 C311 C 1.04065 0.31854 0.71411
 C312 C 1.05279 0.33300 0.72655
 C313 C 1.04916 0.35533 0.72493
 C314 C 1.03344 0.36316 0.71071
 C315 C 1.02131 0.34873 0.69825
 C316 C 1.02043 0.27317 0.67370
 C317 C 1.03157 0.25922 0.65981
 C318 C 1.04665 0.26758 0.64511
 C319 C 1.05073 0.28990 0.64458
 C320 C 1.03958 0.30383 0.65844
 H321 H 0.99204 0.31112 0.64300
 H322 H 0.97059 0.28934 0.61759
 H323 H 0.93658 0.26036 0.67111
 H324 H 0.95819 0.28192 0.69662
 H325 H 0.95877 0.34019 0.67753
 H326 H 0.93923 0.36417 0.70249
 H327 H 0.99304 0.31228 0.73145
 H328 H 1.04356 0.30130 0.71560
 H329 H 1.06496 0.32677 0.73745
 H330 H 1.03059 0.38042 0.70923
 H331 H 1.00936 0.35504 0.68717
 H332 H 1.00882 0.26649 0.68499
 H333 H 1.02831 0.24198 0.66045
 H334 H 1.06238 0.29659 0.63332
 H335 H 1.04270 0.32108 0.65761
 H336 H 0.97362 0.33655 0.75636
 C337 C 0.31246 -0.01202 0.31111
 C338 C 0.31226 0.01008 0.31127
 C339 C 0.32617 0.02301 0.29652
 C340 C 0.29866 0.02243 0.32674
 C341 C 0.29739 -0.02492 0.32470
 C342 C 0.32826 -0.02439 0.29794
 C343 C 0.33998 0.03885 0.30513
 C344 C 0.35359 0.05073 0.29157
 C345 C 0.35345 0.04704 0.26922
 C346 C 0.33941 0.03159 0.26045
 C347 C 0.32574 0.01971 0.27401
 C348 C 0.30036 0.01893 0.34914
 C349 C 0.28741 0.03057 0.36354
 C350 C 0.27282 0.04598 0.35572
 C351 C 0.27132 0.04981 0.33345
 C352 C 0.28424 0.03815 0.31902
 C353 C 0.27498 -0.02166 0.32359
 C354 C 0.26111 -0.03335 0.33711
 C355 C 0.26947 -0.04855 0.35168
 C356 C 0.29171 -0.05224 0.35246
 C357 C 0.30559 -0.04055 0.33899
 C358 C 0.32102 -0.04027 0.28340
 C359 C 0.33576 -0.05201 0.27092
 C360 C 0.35791 -0.04809 0.27300
 C361 C 0.36525 -0.03249 0.28772
 C362 C 0.35051 -0.02078 0.30022
 H363 H 0.34050 0.04172 0.32242
 H364 H 0.36437 0.06265 0.29853
 H365 H 0.33911 0.02866 0.24317
 H366 H 0.31494 0.00785 0.26700
 H367 H 0.31170 0.00719 0.35544
 H368 H 0.28880 0.02759 0.38076
 H369 H 0.28284 0.04119 0.30182
 H370 H 0.26830 -0.00995 0.31242
 H371 H 0.24391 -0.03042 0.33632
 H372 H 0.29835 -0.06397 0.36364
 H373 H 0.32278 -0.04337 0.34003
 H374 H 0.30394 -0.04340 0.28156
 H375 H 0.32985 -0.06409 0.25966
 H376 H 0.38234 -0.02938 0.28960
 H377 H 0.35644 -0.00892 0.31168
 H378 H 0.26014 0.06176 0.32724
 C379 C 0.68577 -0.00942 0.68829
 C380 C 0.68602 0.01267 0.68793
 C381 C 0.67235 0.02575 0.70279
 C382 C 0.69945 0.02488 0.67219
 C383 C 0.70062 -0.02250 0.67464
 C384 C 0.67016 -0.02164 0.70186
 C385 C 0.65836 0.04144 0.69425
 C386 C 0.64491 0.05337 0.70793
 C387 C 0.64540 0.04988 0.73030
 C388 C 0.65964 0.03460 0.73899
 C389 C 0.67315 0.02266 0.72532
 C390 C 0.69752 0.02114 0.64984
 C391 C 0.71026 0.03271 0.63518
 C392 C 0.72488 0.04827 0.64269
 C393 C 0.72663 0.05231 0.66491
 C394 C 0.71391 0.04074 0.67959
 C395 C 0.72304 -0.01930 0.67539
 C396 C 0.73671 -0.03135 0.66198
 C397 C 0.72811 -0.04685 0.64786
 C398 C 0.70584 -0.05043 0.64739
 C399 C 0.69217 -0.03839 0.66075
 C400 C 0.67763 -0.03732 0.71648
 C401 C 0.66309 -0.04889 0.72936
 C402 C 0.64092 -0.04501 0.72760
 C403 C 0.63335 -0.02961 0.71279
 C404 C 0.64788 -0.01806 0.69990
 H405 H 0.65757 0.04413 0.67696
 H406 H 0.63397 0.06517 0.70103
 H407 H 0.66020 0.03182 0.75628
 H408 H 0.68409 0.01091 0.73226
 H409 H 0.68614 0.00931 0.64378
 H410 H 0.70869 0.02956 0.61801
 H411 H 0.71549 0.04396 0.69674
 H412 H 0.72991 -0.00740 0.68627
 H413 H 0.75393 -0.02850 0.66254
 H414 H 0.69902 -0.06240 0.63655
 H415 H 0.67496 -0.04118 0.65998
 H416 H 0.69474 -0.04042 0.71808
 H417 H 0.66918 -0.06081 0.74068
 H418 H 0.61623 -0.02653 0.71116
 H419 H 0.64178 -0.00636 0.68839
 H420 H 0.73783 0.06438 0.67088
 C421 C 0.31241 1.01179 0.68649
 C422 C 0.31230 0.98968 0.68643
 C423 C 0.32597 0.97691 0.70151
 C424 C 0.29901 0.97718 0.67083
 C425 C 0.29747 1.02456 0.67268
 C426 C 0.32791 1.02427 0.69990
 C427 C 0.34013 0.96120 0.69326
 C428 C 0.35363 0.94961 0.70714
 C429 C 0.35300 0.95346 0.72946
 C430 C 0.33857 0.96875 0.73788
 C431 C 0.32503 0.98034 0.72399
 C432 C 0.30098 0.98067 0.64844
 C433 C 0.28820 0.96901 0.63392
 C434 C 0.27349 0.95360 0.64161
 C435 C 0.27175 0.94976 0.66387
 C436 C 0.28451 0.96143 0.67841
 C437 C 0.27507 1.02114 0.67351
 C438 C 0.26132 1.03272 0.65982
 C439 C 0.26979 1.04799 0.64535
 C440 C 0.29202 1.05183 0.64484
 C441 C 0.30578 1.04026 0.65848
 C442 C 0.32031 1.04002 0.71443
 C443 C 0.33475 1.05162 0.72735
 C444 C 0.35693 1.04773 0.72572
 C445 C 0.36463 1.03234 0.71097
 C446 C 0.35021 1.02075 0.69803
 H447 H 0.34104 0.95824 0.67600
 H448 H 0.36470 0.93780 0.70046
 H449 H 0.33790 0.97181 0.75513
 H450 H 0.31395 0.99211 0.73073
 H451 H 0.31239 0.99243 0.64224
 H452 H 0.28977 0.97201 0.61672
 H453 H 0.28289 0.95840 0.69560
 H454 H 0.26829 1.00939 0.68461
 H455 H 0.24414 1.02967 0.66042
 H456 H 0.29875 1.06363 0.63374
 H457 H 0.32297 1.04321 0.65766
 H458 H 0.30319 1.04308 0.71597
 H459 H 0.32863 1.06355 0.73865
 H460 H 0.38176 1.02929 0.70950
 H461 H 0.35641 1.00899 0.68661
 H462 H 0.26048 0.93782 0.66998
 C463 C 0.68832 1.00930 0.31259
 C464 C 0.68873 0.98722 0.31289
 C465 C 0.67513 0.97409 0.29805
 C466 C 0.70212 0.97507 0.32863
 C467 C 0.70295 1.02249 0.32635
 C468 C 0.67268 1.02139 0.29905
 C469 C 0.66111 0.95840 0.30662
 C470 C 0.64763 0.94650 0.29298
 C471 C 0.64810 0.95003 0.27062
 C472 C 0.66239 0.96529 0.26189
 C473 C 0.67593 0.97719 0.27553
 C474 C 0.70000 0.97871 0.35099
 C475 C 0.71265 0.96713 0.36566
 C476 C 0.72737 0.95166 0.35815
 C477 C 0.72933 0.94774 0.33593
 C478 C 0.71670 0.95933 0.32123
 C479 C 0.72541 1.01948 0.32571
 C480 C 0.73887 1.03161 0.33923
 C481 C 0.73003 1.04701 0.35335
 C482 C 0.70772 1.05039 0.35369
 C483 C 0.69427 1.03826 0.34022
 C484 C 0.68008 1.03705 0.28433
 C485 C 0.66549 1.04845 0.27145
 C486 C 0.64335 1.04443 0.27329
 C487 C 0.63584 1.02909 0.28819
 C488 C 0.65041 1.01770 0.30110
 H489 H 0.66030 0.95570 0.32392
 H490 H 0.63665 0.93472 0.29991
 H491 H 0.66294 0.96809 0.24460
 H492 H 0.68689 0.98895 0.26857
 H493 H 0.68851 0.99045 0.35703
 H494 H 0.71091 0.97018 0.38284
 H495 H 0.71842 0.95618 0.30408
 H496 H 0.73246 1.00766 0.31485
 H497 H 0.75612 1.02888 0.33873
 H498 H 0.70065 1.06227 0.36450
 H499 H 0.67703 1.04090 0.34089
 H500 H 0.69718 1.04023 0.28267
 H501 H 0.67146 1.06036 0.26003
 H502 H 0.61873 1.02597 0.28984
 H503 H 0.64436 1.00601 0.31268
 H504 H 0.74061 0.93574 0.32996
 O505 O 0.86933 0.83915 0.48169
 O506 O 0.84037 0.86953 0.52402
 O507 O 0.86971 0.83933 0.52374
 O508 O 0.83986 0.86930 0.48190
 O509 O 0.81442 0.84418 0.48233
 O510 O 0.84424 0.81425 0.52414
 O511 O 0.81491 0.84443 0.52444
 O512 O 0.84387 0.81405 0.48211
 Cu513 Cu 0.85738 0.85687 0.50279
 Cu514 Cu 0.82678 0.82671 0.50329
 C515 C 0.86155 0.82141 0.47484
 C516 C 0.82274 0.86212 0.53136
 C517 C 0.86204 0.82169 0.53094
 C518 C 0.82207 0.86182 0.47510
 O519 O 0.12587 0.15524 0.47722
 O520 O 0.15577 0.12603 0.51969
 O521 O 0.12532 0.15505 0.51941
 O522 O 0.15646 0.12618 0.47758
 O523 O 0.18095 0.15223 0.47804
 O524 O 0.14986 0.18105 0.51980
 O525 O 0.18027 0.15207 0.52010
 O526 O 0.15040 0.18124 0.47766
 Cu527 Cu 0.13837 0.13801 0.49840
 Cu528 Cu 0.16782 0.16928 0.49892
 C529 C 0.13307 0.17321 0.47031
 C530 C 0.17309 0.13411 0.52704
 C531 C 0.13238 0.17291 0.52669
 C532 C 0.17403 0.13428 0.47085
 O533 O 0.15574 0.87348 0.47785
 O534 O 0.12616 0.84466 0.52088
 O535 O 0.15679 0.87368 0.51994
 O536 O 0.12533 0.84438 0.47868
 O537 O 0.14987 0.81840 0.47829
 O538 O 0.18126 0.84765 0.51948
 O539 O 0.15067 0.81867 0.52043
 O540 O 0.18024 0.84747 0.47743
 Cu541 Cu 0.13852 0.86166 0.49941
 Cu542 Cu 0.16796 0.83041 0.49889
 C543 C 0.17300 0.86534 0.47040
 C544 C 0.13341 0.82678 0.52789
 C545 C 0.17439 0.86565 0.52658
 C546 C 0.13234 0.82645 0.47149
 O547 O 0.86820 0.16093 0.51994
 O548 O 0.83969 0.13047 0.47744
 O549 O 0.86890 0.16084 0.47790
 O550 O 0.83878 0.13067 0.51957
 O551 O 0.81327 0.15567 0.51902
 O552 O 0.84334 0.18580 0.47740
 O553 O 0.81415 0.15545 0.47691
 O554 O 0.84267 0.18592 0.51942
 Cu555 Cu 0.85645 0.14319 0.49878
 Cu556 Cu 0.82576 0.17321 0.49815
 C557 C 0.86033 0.17864 0.52675
 C558 C 0.82210 0.13781 0.47001
 C559 C 0.86122 0.17846 0.47068
 C560 C 0.82090 0.13806 0.52627
 O561 O 0.47795 0.87430 0.84355
 O562 O 0.52049 0.84468 0.87284
 O563 O 0.51989 0.87429 0.84269
 O564 O 0.47846 0.84475 0.87365
 O565 O 0.47800 0.81918 0.84858
 O566 O 0.51938 0.84870 0.81765
 O567 O 0.51998 0.81912 0.84777
 O568 O 0.47749 0.84870 0.81851
 Cu569 Cu 0.49927 0.86207 0.86073
 Cu570 Cu 0.49868 0.83133 0.83062
 C571 C 0.47057 0.86650 0.82606
 C572 C 0.52739 0.82687 0.86526
 C573 C 0.52654 0.86653 0.82489
 C574 C 0.47122 0.82699 0.86631
 O575 O 0.52278 0.15772 0.12943
 O576 O 0.47948 0.12848 0.15799
 O577 O 0.48085 0.15897 0.12884
 O578 O 0.52141 0.12744 0.15882
 O579 O 0.52159 0.15235 0.18455
 O580 O 0.48111 0.18382 0.15464
 O581 O 0.47970 0.15335 0.18375
 O582 O 0.52300 0.18260 0.15519
 Cu583 Cu 0.50111 0.14064 0.14116
 Cu584 Cu 0.50138 0.17054 0.17213
 C585 C 0.53016 0.17512 0.13745
 C586 C 0.47231 0.13595 0.17571
 C587 C 0.47417 0.17675 0.13669
 C588 C 0.52830 0.13457 0.17678
 O589 O 0.52008 0.12949 0.84339
 O590 O 0.47698 0.15796 0.87299
 O591 O 0.47814 0.12865 0.84256
 O592 O 0.51893 0.15904 0.87353
 O593 O 0.51877 0.18471 0.84856
 O594 O 0.47805 0.15439 0.81767
 O595 O 0.47685 0.18367 0.84807
 O596 O 0.51996 0.15518 0.81846
 Cu597 Cu 0.49853 0.14119 0.86064
 Cu598 Cu 0.49838 0.17208 0.83068
 C599 C 0.52727 0.13750 0.82591
 C600 C 0.46969 0.17566 0.86557
 C601 C 0.47127 0.13638 0.82484
 C602 C 0.52571 0.17703 0.86626
 O603 O 0.47919 0.83920 0.13074
 O604 O 0.52188 0.86908 0.15946
 O605 O 0.52105 0.83897 0.12993
 O606 O 0.47990 0.86931 0.16042
 O607 O 0.48025 0.84414 0.18589
 O608 O 0.52137 0.81383 0.15543
 O609 O 0.52221 0.84393 0.18494
 O610 O 0.47953 0.81405 0.15622
 Cu611 Cu 0.50045 0.85670 0.14258
 Cu612 Cu 0.50085 0.82647 0.17321
 C613 C 0.47227 0.82150 0.13854
 C614 C 0.52925 0.86154 0.17705
 C615 C 0.52810 0.82123 0.13750
 C616 C 0.47318 0.86187 0.17834
 O617 O 0.87455 0.52057 0.84418
 O618 O 0.84457 0.47794 0.87322
 O619 O 0.87535 0.47832 0.84452
 O620 O 0.84357 0.52009 0.87279
 O621 O 0.81943 0.51928 0.84651
 O622 O 0.85114 0.47759 0.81830
 O623 O 0.82040 0.47718 0.84696
 O624 O 0.85037 0.51979 0.81794
 Cu625 Cu 0.86197 0.49933 0.86131
 Cu626 Cu 0.83291 0.49840 0.82977
 C627 C 0.86753 0.52736 0.82614
 C628 C 0.82741 0.47039 0.86500
 C629 C 0.86856 0.47088 0.82664
 C630 C 0.82608 0.52666 0.86445
 O631 O 0.15801 0.48022 0.12889
 O632 O 0.12863 0.52236 0.15924
 O633 O 0.15776 0.52250 0.12877
 O634 O 0.12883 0.48027 0.15932
 O635 O 0.15451 0.48051 0.18411
 O636 O 0.18342 0.52270 0.15357
 O637 O 0.15431 0.52256 0.18402
 O638 O 0.18366 0.48046 0.15369
 Cu639 Cu 0.14075 0.50131 0.14152
 Cu640 Cu 0.17159 0.50158 0.17131
 C641 C 0.17579 0.47322 0.13619
 C642 C 0.13645 0.52947 0.17682
 C643 C 0.17547 0.52973 0.13603
 C644 C 0.13673 0.47337 0.17694
 O645 O 0.84454 0.52175 0.12507
 O646 O 0.87399 0.47939 0.15496
 O647 O 0.84398 0.47959 0.12539
 O648 O 0.87441 0.52165 0.15469
 O649 O 0.84935 0.52206 0.18018
 O650 O 0.81898 0.48006 0.15092
 O651 O 0.84896 0.47985 0.18045
 O652 O 0.81952 0.52218 0.15060
 Cu653 Cu 0.86177 0.50053 0.13747
 Cu654 Cu 0.83170 0.50107 0.16812
 C655 C 0.82703 0.52908 0.13277
 C656 C 0.86646 0.47249 0.17277
 C657 C 0.82629 0.47281 0.13317
 C658 C 0.86698 0.52896 0.17238
 O659 O 0.13328 0.47822 0.83749
 O660 O 0.16299 0.52016 0.86766
 O661 O 0.13343 0.52035 0.83770
 O662 O 0.16280 0.47805 0.86748
 O663 O 0.18816 0.47807 0.84229
 O664 O 0.15879 0.52037 0.81251
 O665 O 0.18834 0.52018 0.84246
 O666 O 0.15864 0.47825 0.81230
 Cu667 Cu 0.14556 0.49919 0.85512
 Cu668 Cu 0.17604 0.49922 0.82484
 C669 C 0.14090 0.47121 0.81976
 C670 C 0.18072 0.52718 0.86019
 C671 C 0.14111 0.52744 0.82004
 C672 C 0.18048 0.47099 0.85996
 C673 C 0.23267 0.39728 0.08103
 N674 N 0.22310 0.41387 0.07035
 N675 N 0.21152 0.42855 0.08110
 C676 C 0.20918 0.42709 0.10288
 N677 N 0.21874 0.41049 0.11356
 N678 N 0.23031 0.39581 0.10281
 C679 C 0.24574 0.38190 0.06954
 C680 C 0.25704 0.36924 0.05993
 C681 C 0.19719 0.44321 0.11454
 C682 C 0.18732 0.45687 0.12439
 C683 C 0.76921 0.60402 0.07743
 N684 N 0.78012 0.58828 0.06671
 N685 N 0.79191 0.57388 0.07755
 C686 C 0.79315 0.57477 0.09945
 N687 N 0.78227 0.59052 0.11017
 N688 N 0.77047 0.60492 0.09933
 C689 C 0.75589 0.61906 0.06582
 C690 C 0.74439 0.63144 0.05611
 C691 C 0.80535 0.55887 0.11117
 C692 C 0.81537 0.54535 0.12103
 C693 C 0.76935 0.39465 0.91917
 N694 N 0.76771 0.39644 0.89736
 N695 N 0.77949 0.41100 0.88666
 C696 C 0.79324 0.42422 0.89745
 N697 N 0.79489 0.42242 0.91926
 N698 N 0.78312 0.40785 0.92995
 C699 C 0.75613 0.37948 0.93076
 C700 C 0.74474 0.36703 0.94055
 C701 C 0.80549 0.44030 0.88600
 C702 C 0.81559 0.45397 0.87640
 C703 C 0.23838 0.60053 0.91780
 N704 N 0.22232 0.58907 0.92735
 N705 N 0.21074 0.57494 0.91591
 C706 C 0.21486 0.57186 0.89457
 N707 N 0.23092 0.58333 0.88502
 N708 N 0.24250 0.59746 0.89646
 C709 C 0.25101 0.61556 0.93018
 C710 C 0.26167 0.62813 0.94058
 C711 C 0.20266 0.55635 0.88235
 C712 C 0.19255 0.54314 0.87218
 C713 C 0.07777 0.23086 0.39523
 N714 N 0.06717 0.22055 0.41144
 N715 N 0.07798 0.20875 0.42587
 C716 C 0.09972 0.20692 0.42453
 N717 N 0.11032 0.21720 0.40830
 N718 N 0.09951 0.22900 0.39387
 C719 C 0.06621 0.24420 0.38015
 C720 C 0.05657 0.25574 0.36774
 C721 C 0.11144 0.19475 0.44046
 C722 C 0.12130 0.18479 0.45400
 C723 C 0.07878 0.77011 0.60435
 N724 N 0.06806 0.77994 0.58795
 N725 N 0.07874 0.79155 0.57325
 C726 C 0.10047 0.79367 0.57447
 N727 N 0.11118 0.78386 0.59089
 N728 N 0.10050 0.77225 0.60560
 C729 C 0.06738 0.75690 0.61969
 C730 C 0.05787 0.74542 0.63229
 C731 C 0.11205 0.80561 0.55825
 C732 C 0.12179 0.81539 0.54446
 C733 C 0.91751 0.76251 0.40111
 N734 N 0.92778 0.77278 0.41754
 N735 N 0.91668 0.78458 0.43177
 C736 C 0.89498 0.78649 0.42999
 N737 N 0.88471 0.77623 0.41355
 N738 N 0.89581 0.76443 0.39932
 C739 C 0.92947 0.74965 0.38592
 C740 C 0.93958 0.73883 0.37322
 C741 C 0.88303 0.79895 0.44553
 C742 C 0.87314 0.80929 0.45878
 C743 C 0.91674 0.23756 0.59997
 N744 N 0.90747 0.21861 0.60608
 N745 N 0.89611 0.20696 0.59195
 C746 C 0.89369 0.21392 0.57127
 N747 N 0.90296 0.23286 0.56517
 N748 N 0.91431 0.24451 0.57930
 C749 C 0.92912 0.25005 0.61510
 C750 C 0.93960 0.26061 0.62769
 C751 C 0.88170 0.20130 0.55593
 C752 C 0.87182 0.19086 0.54277
 C753 C 0.39582 0.08066 0.23145
 N754 N 0.40992 0.07002 0.21845
 N755 N 0.42459 0.08097 0.20709
 C756 C 0.42563 0.10288 0.20839
 N757 N 0.41151 0.11352 0.22136
 N758 N 0.39684 0.10257 0.23273
 C759 C 0.38056 0.06882 0.24431
 C760 C 0.36803 0.05888 0.25547
 C761 C 0.44185 0.11461 0.19666
 C762 C 0.45567 0.12440 0.18700
 C763 C 0.60333 0.08332 0.76856
 N764 N 0.59101 0.07280 0.78334
 N765 N 0.57642 0.08358 0.79498
 C766 C 0.57371 0.10520 0.79217
 N767 N 0.58606 0.11573 0.77740
 N768 N 0.60064 0.10495 0.76577
 C769 C 0.61849 0.07159 0.75548
 C770 C 0.63093 0.06171 0.74418
 C771 C 0.55758 0.11668 0.80425
 C772 C 0.54383 0.12624 0.81422
 C773 C 0.39511 0.92097 0.76838
 N774 N 0.41066 0.93192 0.77925
 N775 N 0.42517 0.92126 0.79105
 C776 C 0.42457 0.89933 0.79233
 N777 N 0.40900 0.88838 0.78148
 N778 N 0.39449 0.89904 0.76968
 C779 C 0.37996 0.93239 0.75506
 C780 C 0.36750 0.94199 0.74357
 C781 C 0.44059 0.88781 0.80450
 C782 C 0.45420 0.87810 0.81447
 C783 C 0.60564 0.91684 0.23270
 N784 N 0.60641 0.89491 0.23151
 N785 N 0.59170 0.88404 0.22015
 C786 C 0.57576 0.89478 0.20966
 N787 N 0.57501 0.91671 0.21083
 N788 N 0.58972 0.92758 0.22219
 C789 C 0.62097 0.92850 0.24560
 C790 C 0.63353 0.93830 0.25680
 C791 C 0.55956 0.88305 0.19796
 C792 C 0.54579 0.87321 0.18832
 C793 C 0.39425 0.23196 0.92169
 N794 N 0.39392 0.23179 0.89975
 N795 N 0.40835 0.22025 0.88867
 C796 C 0.42356 0.20854 0.89920
 N797 N 0.42387 0.20868 0.92114
 N798 N 0.40944 0.22022 0.93222
 C799 C 0.37928 0.24511 0.93359
 C800 C 0.36700 0.25655 0.94352
 C801 C 0.43956 0.19669 0.88727
 C802 C 0.45320 0.18697 0.87731
 C803 C 0.60313 0.76884 0.91905
 N804 N 0.60350 0.77004 0.89714
 N805 N 0.58892 0.78187 0.88662
 C806 C 0.57351 0.79286 0.89769
 N807 N 0.57316 0.79169 0.91960
 N808 N 0.58774 0.77985 0.93012
 C809 C 0.61840 0.75552 0.93034
 C810 C 0.63096 0.74403 0.93981
 C811 C 0.55744 0.80512 0.88632
 C812 C 0.54379 0.81517 0.87673
 C813 C 0.39908 0.76255 0.08228
 N814 N 0.39320 0.77207 0.10117
 N815 N 0.40732 0.78391 0.11233
 C816 C 0.42774 0.78658 0.10492
 N817 N 0.43360 0.77707 0.08603
 N818 N 0.41949 0.76524 0.07488
 C819 C 0.38396 0.74969 0.07030
 C820 C 0.37138 0.73881 0.06015
 C821 C 0.44307 0.79911 0.11698
 C822 C 0.45623 0.80946 0.12694
 C823 C 0.60633 0.23214 0.08300
 N824 N 0.59458 0.21671 0.07275
 N825 N 0.57999 0.20512 0.08360
 C826 C 0.57671 0.20863 0.10502
 N827 N 0.58848 0.22404 0.11527
 N828 N 0.60306 0.23562 0.10443
 C829 C 0.62146 0.24516 0.07117
 C830 C 0.63388 0.25641 0.06119
 C831 C 0.56055 0.19661 0.11655
 C832 C 0.54678 0.18671 0.12615
 C833 C 0.23117 0.08037 0.60286
 N834 N 0.21891 0.06927 0.58847
 N835 N 0.20711 0.07981 0.57386
 C836 C 0.20722 0.10178 0.57319
 N837 N 0.21947 0.11288 0.58760
 N838 N 0.23126 0.10234 0.60220
 C839 C 0.24441 0.06900 0.61813
 C840 C 0.25582 0.05943 0.63070
 C841 C 0.19496 0.11313 0.55710
 C842 C 0.18487 0.12270 0.54344
 C843 C 0.76680 0.08081 0.39446
 N844 N 0.77968 0.07048 0.40886
 N845 N 0.79095 0.08174 0.42337
 C846 C 0.78965 0.10367 0.42394
 N847 N 0.77680 0.11400 0.40953
 N848 N 0.76553 0.10275 0.39502
 C849 C 0.75404 0.06866 0.37938
 C850 C 0.74296 0.05848 0.36700
 C851 C 0.80130 0.11574 0.43997
 C852 C 0.81088 0.12585 0.45361
 C853 C 0.76626 0.91893 0.60629
 N854 N 0.76561 0.89696 0.60618
 N855 N 0.77712 0.88576 0.59179
 C856 C 0.78961 0.89619 0.57708
 N857 N 0.79028 0.91815 0.57721
 N858 N 0.77877 0.92936 0.59160
 C859 C 0.75325 0.93100 0.62126
 C860 C 0.74199 0.94111 0.63356
 C861 C 0.80151 0.88415 0.56118
 C862 C 0.81130 0.87407 0.54765
 C863 C 0.23067 0.91890 0.39398
 N864 N 0.21750 0.92992 0.40763
 N865 N 0.20575 0.91937 0.42230
 C866 C 0.20683 0.89747 0.42379
 N867 N 0.21997 0.88644 0.41013
 N868 N 0.23172 0.89700 0.39545
 C869 C 0.24392 0.93032 0.37872
 C870 C 0.25538 0.93994 0.36621
 C871 C 0.19467 0.88615 0.44002
 C872 C 0.18467 0.87665 0.45381
 C873 C 0.08413 0.39777 0.76139
 N874 N 0.10536 0.40106 0.75725
 N875 N 0.11664 0.41520 0.76896
 C876 C 0.10705 0.42647 0.78518
 N877 N 0.08583 0.42316 0.78932
 N878 N 0.07454 0.40902 0.77761
 C879 C 0.07190 0.38275 0.74861
 C880 C 0.06157 0.37021 0.73783
 C881 C 0.11910 0.44200 0.79752
 C882 C 0.12911 0.45523 0.80776
 C883 C 0.08041 0.60236 0.23668
 N884 N 0.07006 0.58636 0.22580
 N885 N 0.08112 0.57235 0.21371
 C886 C 0.10287 0.57392 0.21211
 N887 N 0.11322 0.58993 0.22298
 N888 N 0.10216 0.60394 0.23508
 C889 C 0.06849 0.61728 0.24991
 C890 C 0.05842 0.62972 0.26107
 C891 C 0.11480 0.55854 0.19944
 C892 C 0.12474 0.54540 0.18899
 C893 C 0.92077 0.39698 0.23091
 N894 N 0.93157 0.41310 0.22063
 N895 N 0.92095 0.42765 0.20881
 C896 C 0.89919 0.42655 0.20691
 N897 N 0.88840 0.41041 0.21717
 N898 N 0.89902 0.39586 0.22899
 C899 C 0.93214 0.38173 0.24422
 C900 C 0.94165 0.36916 0.25572
 C901 C 0.88769 0.44256 0.19465
 C902 C 0.87800 0.45616 0.18455
 C903 C 0.92267 0.60354 0.76952
 N904 N 0.90101 0.60518 0.77206
 N905 N 0.89024 0.59049 0.78362
 C906 C 0.90080 0.57370 0.79298
 N907 N 0.92246 0.57208 0.79047
 N908 N 0.93323 0.58677 0.77891
 C909 C 0.93415 0.61890 0.75640
 C910 C 0.94371 0.63155 0.74501
 C911 C 0.88912 0.55753 0.80491
 C912 C 0.87927 0.54382 0.81470
 C913 C 0.76396 0.59986 0.91732
 N914 N 0.75500 0.58303 0.90646
 N915 N 0.76741 0.56886 0.89600
 C916 C 0.78915 0.57109 0.89608
 N917 N 0.79813 0.58792 0.90693
 N918 N 0.78571 0.60210 0.91740
 C919 C 0.75060 0.61495 0.92879
 C920 C 0.73932 0.62751 0.93853
 C921 C 0.80246 0.55568 0.88496
 C922 C 0.81340 0.54254 0.87561
 C923 C 0.23796 0.39786 0.91763
 N924 N 0.22160 0.40900 0.92701
 N925 N 0.20999 0.42299 0.91549
 C926 C 0.21438 0.42625 0.89423
 N927 N 0.23073 0.41509 0.88484
 N928 N 0.24235 0.40110 0.89637
 C929 C 0.25069 0.38309 0.93011
 C930 C 0.26148 0.37078 0.94064
 C931 C 0.20224 0.44171 0.88199
 C932 C 0.19221 0.45495 0.87184
 C933 C 0.23192 0.60551 0.08038
 N934 N 0.22197 0.58909 0.06975
 N935 N 0.21040 0.57449 0.08062
 C936 C 0.20846 0.57586 0.10244
 N937 N 0.21839 0.59230 0.11306
 N938 N 0.22996 0.60690 0.10219
 C939 C 0.24507 0.62071 0.06879
 C940 C 0.25649 0.63319 0.05908
 C941 C 0.19657 0.55977 0.11420
 C942 C 0.18682 0.54611 0.12414
 C943 C 0.76614 0.39922 0.07862
 N944 N 0.77007 0.39654 0.10004
 N945 N 0.78228 0.41074 0.11071
 C946 C 0.79093 0.42802 0.10028
 N947 N 0.78701 0.43068 0.07886
 N948 N 0.77480 0.41648 0.06819
 C949 C 0.75276 0.38411 0.06719
 C950 C 0.74144 0.37151 0.05755
 C951 C 0.80367 0.44356 0.11185
 C952 C 0.81414 0.45681 0.12158
 C953 C 0.91850 0.76282 0.60389
 N954 N 0.92885 0.77562 0.58938
 N955 N 0.91769 0.78755 0.57536
 C956 C 0.89584 0.78704 0.57545
 N957 N 0.88548 0.77426 0.58997
 N958 N 0.89665 0.76233 0.60400
 C959 C 0.93053 0.74975 0.61874
 C960 C 0.94073 0.73870 0.63110
 C961 C 0.88386 0.79948 0.56003
 C962 C 0.87386 0.80975 0.54686
 C963 C 0.91755 0.23793 0.39783
 N964 N 0.92718 0.23034 0.41600
 N965 N 0.91613 0.21829 0.43005
 C966 C 0.89514 0.21346 0.42635
 N967 N 0.88551 0.22103 0.40818
 N968 N 0.89656 0.23308 0.39412
 C969 C 0.92940 0.25110 0.38285
 C970 C 0.93943 0.26223 0.37037
 C971 C 0.88315 0.20086 0.44172
 C972 C 0.87312 0.19050 0.45483
 C973 C 0.07744 0.22944 0.60286
 N974 N 0.06756 0.22339 0.58424
 N975 N 0.07812 0.21175 0.56949
 C976 C 0.09888 0.20582 0.57290
 N977 N 0.10875 0.21184 0.59152
 N978 N 0.09819 0.22348 0.60628
 C979 C 0.06634 0.24269 0.61833
 C980 C 0.05708 0.25420 0.63106
 C981 C 0.11048 0.19392 0.55671
 C982 C 0.12039 0.18419 0.54302
 C983 C 0.07702 0.76923 0.39620
 N984 N 0.06717 0.77555 0.41476
 N985 N 0.07781 0.78730 0.42937
 C986 C 0.09861 0.79307 0.42584
 N987 N 0.10845 0.78678 0.40727
 N988 N 0.09781 0.77503 0.39267
 C989 C 0.06580 0.75593 0.38086
 C990 C 0.05642 0.74442 0.36823
 C991 C 0.11028 0.80513 0.44185
 C992 C 0.12025 0.81500 0.45537
 C993 C 0.59917 0.92220 0.76459
 N994 N 0.58096 0.93194 0.77186
 N995 N 0.56691 0.92100 0.78399
 C996 C 0.57065 0.90000 0.78923
 N997 N 0.58887 0.89026 0.78198
 N998 N 0.60292 0.90120 0.76984
 C999 C 0.61419 0.93392 0.75137
 C1000 C 0.62676 0.94380 0.74021
 C1001 C 0.55533 0.88816 0.80200
 C1002 C 0.54229 0.87825 0.81256
 C1003 C 0.40023 0.91859 0.23718
 N1004 N 0.39419 0.90014 0.22691
 N1005 N 0.40839 0.88901 0.21512
 C1006 C 0.42903 0.89601 0.21325
 N1007 N 0.43505 0.91447 0.22352
 N1008 N 0.42086 0.92559 0.23531
 C1009 C 0.38500 0.93050 0.24998
 C1010 C 0.37226 0.94054 0.26078
 C1011 C 0.44439 0.88394 0.20077
 C1012 C 0.45745 0.87384 0.19043
 C1013 C 0.60068 0.07759 0.23575
 N1014 N 0.60678 0.09598 0.22541
 N1015 N 0.59270 0.10699 0.21343
 C1016 C 0.57210 0.09992 0.21142
 N1017 N 0.56600 0.08152 0.22175
 N1018 N 0.58008 0.07051 0.23373
 C1019 C 0.61574 0.06591 0.24887
 C1020 C 0.62835 0.05611 0.25998
 C1021 C 0.55682 0.11200 0.19893
 C1022 C 0.54386 0.12225 0.18866
 C1023 C 0.39919 0.08079 0.76398
 N1024 N 0.39438 0.10094 0.77129
 N1025 N 0.40835 0.11175 0.78361
 C1026 C 0.42753 0.10272 0.78900
 N1027 N 0.43232 0.08256 0.78170
 N1028 N 0.41836 0.07175 0.76939
 C1029 C 0.38425 0.06922 0.75055
 C1030 C 0.37177 0.05946 0.73923
 C1031 C 0.44275 0.11450 0.80191
 C1032 C 0.45568 0.12446 0.81253
 C1033 C 0.60038 0.76217 0.08021
 N1034 N 0.60499 0.76837 0.10075
 N1035 N 0.59099 0.78026 0.11201
 C1036 C 0.57198 0.78632 0.10306
 N1037 N 0.56738 0.78013 0.08252
 N1038 N 0.58138 0.76824 0.07126
 C1039 C 0.61534 0.74922 0.06815
 C1040 C 0.62782 0.73829 0.05795
 C1041 C 0.55675 0.79883 0.11526
 C1042 C 0.54377 0.80917 0.12545
 C1043 C 0.40147 0.23747 0.08198
 N1044 N 0.41562 0.24679 0.09586
 N1045 N 0.42979 0.23467 0.10660
 C1046 C 0.43024 0.21289 0.10376
 N1047 N 0.41609 0.20357 0.08988
 N1048 N 0.40191 0.21568 0.07915
 C1049 C 0.38631 0.25054 0.07035
 C1050 C 0.37364 0.26155 0.06052
 C1051 C 0.44558 0.19991 0.11526
 C1052 C 0.45857 0.18921 0.12500
 C1053 C 0.59908 0.23619 0.92201
 N1054 N 0.57965 0.23149 0.93093
 N1055 N 0.56536 0.21953 0.92014
 C1056 C 0.57009 0.21190 0.90010
 N1057 N 0.58952 0.21658 0.89119
 N1058 N 0.60381 0.22854 0.90199
 C1059 C 0.61437 0.24924 0.93354
 C1060 C 0.62719 0.26027 0.94321
 C1061 C 0.55456 0.19936 0.88832
 C1062 C 0.54143 0.18904 0.87831
 C1063 C 0.39599 0.76988 0.92183
 N1064 N 0.39262 0.77535 0.90086
 N1065 N 0.40719 0.78702 0.89010
 C1066 C 0.42559 0.79355 0.90000
 N1067 N 0.42894 0.78810 0.92098
 N1068 N 0.41436 0.77643 0.93173
 C1069 C 0.38069 0.75665 0.93318
 C1070 C 0.36812 0.74519 0.94269
 C1071 C 0.44155 0.80557 0.88824
 C1072 C 0.45507 0.81545 0.87828
 C1073 C 0.76400 0.91784 0.40115
 N1074 N 0.76251 0.89594 0.40223
 N1075 N 0.77422 0.88489 0.41652
 C1076 C 0.78779 0.89542 0.43014
 N1077 N 0.78929 0.91731 0.42905
 N1078 N 0.77757 0.92836 0.41476
 C1079 C 0.75119 0.92974 0.38597
 C1080 C 0.74036 0.93974 0.37326
 C1081 C 0.80008 0.88357 0.44579
 C1082 C 0.81023 0.87362 0.45909
 C1083 C 0.23583 0.92027 0.59900
 N1084 N 0.21458 0.91708 0.60309
 N1085 N 0.20232 0.90632 0.58902
 C1086 C 0.21094 0.89845 0.57044
 N1087 N 0.23218 0.90165 0.56635
 N1088 N 0.24445 0.91240 0.58042
 C1089 C 0.24904 0.93193 0.61407
 C1090 C 0.26018 0.94178 0.62665
 C1091 C 0.19778 0.88693 0.55522
 C1092 C 0.18695 0.87722 0.54225
 C1093 C 0.23513 0.07965 0.39808
 N1094 N 0.24433 0.09117 0.41431
 N1095 N 0.23212 0.10201 0.42837
 C1096 C 0.21034 0.10167 0.42662
 N1097 N 0.20113 0.09016 0.41038
 N1098 N 0.21334 0.07931 0.39631
 C1099 C 0.24830 0.06785 0.38308
 C1100 C 0.25945 0.05790 0.37057
 C1101 C 0.19725 0.11317 0.44193
 C1102 C 0.18649 0.12282 0.45501
 C1103 C 0.76201 0.08194 0.59979
 N1104 N 0.77341 0.07134 0.58434
 N1105 N 0.78531 0.08236 0.57013
 C1106 C 0.78618 0.10431 0.57097
 N1107 N 0.77478 0.11490 0.58644
 N1108 N 0.76288 0.10388 0.60064
 C1109 C 0.74901 0.07010 0.61493
 C1110 C 0.73803 0.06015 0.62760
 C1111 C 0.79865 0.11619 0.55542
 C1112 C 0.80893 0.12617 0.54220
 C1113 C 0.92133 0.60475 0.22997
 N1114 N 0.89995 0.60705 0.22608
 N1115 N 0.88943 0.59243 0.21423
 C1116 C 0.89998 0.57506 0.20594
 N1117 N 0.92137 0.57277 0.20981
 N1118 N 0.93188 0.58740 0.22165
 C1119 C 0.93248 0.62002 0.24341
 C1120 C 0.94182 0.63256 0.25504
 C1121 C 0.88851 0.55895 0.19380
 C1122 C 0.87875 0.54530 0.18388
 C1123 C 0.92399 0.39484 0.77046
 N1124 N 0.90361 0.39087 0.77735
 N1125 N 0.89302 0.40559 0.78902
 C1126 C 0.90250 0.42473 0.79414
 N1127 N 0.92290 0.42868 0.78728
 N1128 N 0.93348 0.41396 0.77561
 C1129 C 0.93504 0.37943 0.75710
 C1130 C 0.94424 0.36677 0.74547
 C1131 C 0.89080 0.44090 0.80596
 C1132 C 0.88077 0.45457 0.81557
 C1133 C 0.08438 0.60118 0.76238
 N1134 N 0.10550 0.59769 0.75791
 N1135 N 0.11684 0.58353 0.76951
 C1136 C 0.10740 0.57245 0.78593
 N1137 N 0.08628 0.57595 0.79041
 N1138 N 0.07495 0.59011 0.77881
 C1139 C 0.07209 0.61616 0.74970
 C1140 C 0.06168 0.62865 0.73901
 C1141 C 0.11945 0.55686 0.79810
 C1142 C 0.12943 0.54354 0.80820
 C1143 C 0.08093 0.40049 0.23691
 N1144 N 0.07707 0.42204 0.23865
 N1145 N 0.08812 0.43614 0.22666
 C1146 C 0.10335 0.42911 0.21255
 N1147 N 0.10721 0.40756 0.21080
 N1148 N 0.09616 0.39345 0.22280
 C1149 C 0.06901 0.38536 0.24985
 C1150 C 0.05890 0.37278 0.26078
 C1151 C 0.11526 0.44437 0.19976
 C1152 C 0.12514 0.45745 0.18921
   
