data_POSCAR
  _audit_creation_date              2014-09-24
  _audit_creation_method            'ToBaCCo'
  _symmetry_space_group_name_H-M    'P1'
  _symmetry_Int_Tables_number       1
  _symmetry_cell_setting            triclinic
  loop_
  _symmetry_equiv_pos_as_xyz
 x,y,z
_cell_length_a 31.5643
_cell_length_b 39.7914
_cell_length_c 18.0417
_cell_angle_alpha 90.032700
_cell_angle_beta 89.950700
_cell_angle_gamma 120.515200
loop_
  _atom_site_label
  _atom_site_type_symbol
  _atom_site_fract_x
  _atom_site_fract_y
  _atom_site_fract_z
C1 C 0.46991 0.92101 0.57056
 C2 C 0.46465 0.90203 0.50261
 C3 C 0.46613 0.91976 0.43515
 C4 C 0.47620 0.95864 0.43401
 C5 C 0.48534 0.97957 0.50136
 C6 C 0.48193 0.96073 0.56988
 C7 C 0.49287 0.98269 0.63546
 C8 C 0.50332 1.02103 0.63454
 C9 C 0.50697 1.04042 0.56752
 C10 C 0.49760 1.01937 0.50015
 C11 C 0.47725 0.97705 0.36717
 C12 C 0.48770 1.01543 0.36622
 C13 C 0.50002 1.03783 0.43160
 C14 C 0.51161 1.07740 0.43059
 C15 C 0.51641 1.09642 0.49845
 C16 C 0.51705 1.07955 0.56645
 H17 H 0.49383 0.97066 0.68869
 H18 H 0.50788 1.03502 0.68766
 H19 H 0.46966 0.96187 0.31471
 H20 H 0.48520 1.02710 0.31338
 H21 H 0.45478 0.87163 0.50197
 H22 H 0.52626 1.12681 0.49805
 C23 C -0.10010 0.43646 0.43465
 C24 C -0.12420 0.42190 0.50231
 C25 C -0.10056 0.43717 0.57031
 C26 C -0.04968 0.46609 0.57035
 C27 C -0.02422 0.47987 0.50199
 C28 C -0.04953 0.46518 0.43398
 C29 C -0.02340 0.47897 0.36704
 C30 C 0.02638 0.50708 0.36670
 C31 C 0.05225 0.52203 0.43331
 C32 C 0.02684 0.50826 0.50158
 C33 C -0.02281 0.47991 0.63678
 C34 C 0.02689 0.50806 0.63635
 C35 C 0.05254 0.52253 0.56944
 C36 C 0.10328 0.55090 0.56852
 C37 C 0.12740 0.56490 0.50078
 C38 C 0.10291 0.55048 0.43351
 H39 H -0.04106 0.46783 0.31407
 H40 H 0.04446 0.51694 0.31354
 H41 H -0.03960 0.46864 0.69017
 H42 H 0.04503 0.51818 0.68934
 H43 H -0.16327 0.40058 0.50165
 H44 H 0.16646 0.58625 0.50040
 C45 C 0.53429 0.44730 0.43455
 C46 C 0.53753 0.43143 0.50183
 C47 C 0.53281 0.44620 0.57012
 C48 C 0.52017 0.47588 0.57024
 C49 C 0.51502 0.49127 0.50198
 C50 C 0.52292 0.47735 0.43402
 C51 C 0.51867 0.49347 0.36715
 C52 C 0.50676 0.52265 0.36684
 C53 C 0.49749 0.53628 0.43328
 C54 C 0.50176 0.52058 0.50156
 C55 C 0.51000 0.48918 0.63640
 C56 C 0.49823 0.51839 0.63610
 C57 C 0.49262 0.53397 0.56933
 C58 C 0.48033 0.56381 0.56856
 C59 C 0.47857 0.58007 0.50044
 C60 C 0.48472 0.56561 0.43313
 H61 H 0.52436 0.48357 0.31420
 H62 H 0.50517 0.53459 0.31374
 H63 H 0.51039 0.47692 0.68962
 H64 H 0.49399 0.52873 0.68940
 H65 H 0.54802 0.40935 0.50067
 H66 H 0.46769 0.60193 0.49921
 O67 O 0.45458 0.69606 -0.06420
 O68 O 0.44939 0.75819 -0.08576
 C69 C 0.42452 0.77416 -0.10088
 O70 O 0.38715 0.76808 -0.06337
 O71 O 0.30788 0.70073 -0.08415
 C72 C 0.28699 0.66460 -0.09832
 O73 O 0.29498 0.64124 -0.06111
 O74 O 0.37903 0.64558 -0.08348
 C75 C 0.42422 0.66562 -0.09974
 O76 O 0.45311 0.70649 0.08413
 O77 O 0.45194 0.77072 0.06233
 C78 C 0.42058 0.77534 0.09844
 O79 O 0.37498 0.75648 0.08416
 O80 O 0.29331 0.69067 0.06391
 C81 C 0.28736 0.66116 0.10017
 O82 O 0.31091 0.64396 0.08603
 O83 O 0.39328 0.64525 0.06373
 C84 C 0.43075 0.67043 0.09958
 Cr85 Cr 0.44953 0.73172 -0.00074
 Cr86 Cr 0.34227 0.72795 0.00019
 Cr87 Cr 0.34590 0.64622 0.00130
 O88 O 0.37925 0.70196 0.00047
 O89 O 0.55096 0.29910 -0.08582
 O90 O 0.54455 0.23232 -0.06413
 C91 C 0.57450 0.22589 -0.09976
 O92 O 0.61961 0.24180 -0.08347
 O93 O 0.70382 0.30470 -0.06317
 C94 C 0.71264 0.33518 -0.09873
 O95 O 0.69305 0.35527 -0.08301
 O96 O 0.61378 0.35892 -0.06334
 C97 C 0.57636 0.33511 -0.10099
 O98 O 0.54826 0.30953 0.06211
 O99 O 0.54655 0.24427 0.08427
 C100 C 0.56888 0.22630 0.10043
 O101 O 0.60597 0.23063 0.06427
 O102 O 0.68892 0.29523 0.08532
 C103 C 0.71214 0.33128 0.10070
 O104 O 0.70656 0.35619 0.06454
 O105 O 0.62528 0.35679 0.08447
 C106 C 0.57967 0.33919 0.09846
 Cr107 Cr 0.55033 0.27233 -0.00079
 Cr108 Cr 0.65331 0.26927 0.00079
 Cr109 Cr 0.65816 0.35455 0.00067
 O110 O 0.62063 0.29871 0.00022
 C111 C 0.42685 0.89850 -0.31023
 C112 C 0.45952 0.89867 -0.36378
 C113 C 0.47837 0.87358 -0.35367
 C114 C 0.46608 0.84979 -0.29063
 C115 C 0.43343 0.85011 -0.23743
 C116 C 0.41410 0.87461 -0.24771
 C117 C 0.42021 0.82560 -0.17528
 C118 C 0.43966 0.80100 -0.16508
 C119 C 0.47281 0.80147 -0.21783
 C120 C 0.48575 0.82552 -0.28013
 H121 H 0.50352 0.87318 -0.39419
 H122 H 0.38860 0.87494 -0.20786
 H123 H 0.39477 0.82568 -0.13495
 H124 H 0.51093 0.82497 -0.32029
 H125 H 0.40969 0.91591 -0.31798
 H126 H 0.48819 0.78271 -0.21161
 C127 C 0.14147 0.54032 -0.31934
 C128 C 0.13320 0.56553 -0.36324
 C129 C 0.15623 0.60525 -0.34500
 C130 C 0.18733 0.61977 -0.28317
 C131 C 0.19556 0.59423 -0.23919
 C132 C 0.17222 0.55451 -0.25749
 C133 C 0.22755 0.60891 -0.17836
 C134 C 0.25171 0.64890 -0.16083
 C135 C 0.24277 0.67391 -0.20461
 C136 C 0.21088 0.65948 -0.26515
 H137 H 0.15023 0.62477 -0.37947
 H138 H 0.17823 0.53454 -0.22458
 H139 H 0.23400 0.58920 -0.14529
 H140 H 0.20496 0.67946 -0.29825
 H141 H 0.12450 0.50972 -0.33362
 H142 H 0.26081 0.70482 -0.19254
 C143 C 0.42876 0.54874 -0.32078
 C144 C 0.46636 0.57612 -0.36722
 C145 C 0.48750 0.61616 -0.35129
 C146 C 0.47297 0.62850 -0.28828
 C147 C 0.43507 0.60063 -0.24244
 C148 C 0.41317 0.56087 -0.25923
 C149 C 0.41948 0.61297 -0.18077
 C150 C 0.44217 0.65279 -0.16299
 C151 C 0.48080 0.68024 -0.20755
 C152 C 0.49576 0.66823 -0.27017
 H153 H 0.51635 0.63762 -0.38671
 H154 H 0.38386 0.53914 -0.22491
 H155 H 0.38990 0.59159 -0.14626
 H156 H 0.52507 0.68999 -0.30443
 H157 H 0.41037 0.51786 -0.33338
 H158 H 0.49855 0.71109 -0.19500
 C159 C 0.57108 0.10774 -0.32591
 C160 C 0.53180 0.10355 -0.36983
 C161 C 0.50959 0.12556 -0.35175
 C162 C 0.52464 0.14967 -0.28878
 C163 C 0.56403 0.15342 -0.24528
 C164 C 0.58708 0.13246 -0.26447
 C165 C 0.57992 0.17820 -0.18346
 C166 C 0.55620 0.19866 -0.16320
 C167 C 0.51624 0.19401 -0.20558
 C168 C 0.50087 0.16999 -0.26828
 H169 H 0.47952 0.12287 -0.38528
 H170 H 0.61757 0.13522 -0.23204
 H171 H 0.61057 0.18139 -0.15078
 H172 H 0.47045 0.16735 -0.30073
 H173 H 0.59029 0.09252 -0.34028
 H174 H 0.49766 0.20972 -0.19124
 C175 C 0.87024 0.45220 -0.31559
 C176 C 0.87051 0.42476 -0.36465
 C177 C 0.83885 0.38471 -0.35046
 C178 C 0.80892 0.37232 -0.28706
 C179 C 0.80867 0.40025 -0.23891
 C180 C 0.83948 0.44007 -0.25362
 C181 C 0.77733 0.38790 -0.17717
 C182 C 0.74725 0.34797 -0.16160
 C183 C 0.74898 0.32042 -0.20819
 C184 C 0.77918 0.33248 -0.27093
 H185 H 0.83859 0.36320 -0.38773
 H186 H 0.83959 0.46186 -0.21743
 H187 H 0.77647 0.40932 -0.14099
 H188 H 0.77915 0.31066 -0.30694
 H189 H 0.89274 0.48318 -0.32657
 H190 H 0.72584 0.28950 -0.19723
 C191 C 0.57670 0.45827 -0.31152
 C192 C 0.54362 0.43221 -0.36471
 C193 C 0.52434 0.39188 -0.35451
 C194 C 0.53636 0.37785 -0.29146
 C195 C 0.56928 0.40436 -0.23843
 C196 C 0.58926 0.44450 -0.24903
 C197 C 0.58203 0.39032 -0.17607
 C198 C 0.56182 0.34999 -0.16548
 C199 C 0.52849 0.32388 -0.21814
 C200 C 0.51603 0.33768 -0.28065
 H201 H 0.49892 0.37131 -0.39485
 H202 H 0.61498 0.46528 -0.20935
 H203 H 0.60764 0.41080 -0.13585
 H204 H 0.49064 0.31693 -0.32068
 H205 H 0.59413 0.48951 -0.31942
 H206 H 0.51255 0.29269 -0.21166
 C207 C 0.86404 0.45000 0.32310
 C208 C 0.86969 0.42319 0.36628
 C209 C 0.84358 0.38346 0.34740
 C210 C 0.81215 0.37060 0.28569
 C211 C 0.80671 0.39782 0.24250
 C212 C 0.83304 0.43748 0.26144
 C213 C 0.77449 0.38490 0.18178
 C214 C 0.74735 0.34501 0.16347
 C215 C 0.75347 0.31827 0.20650
 C216 C 0.78556 0.33095 0.26697
 H217 H 0.84745 0.36267 0.38126
 H218 H 0.82916 0.45872 0.22918
 H219 H 0.77027 0.40593 0.14930
 H220 H 0.78927 0.30968 0.29943
 H221 H 0.88322 0.48062 0.33789
 H222 H 0.73311 0.28740 0.19385
 C223 C 0.55575 0.09875 0.31203
 C224 C 0.52332 0.09979 0.36461
 C225 C 0.50644 0.12612 0.35317
 C226 C 0.52057 0.15001 0.28996
 C227 C 0.55301 0.14845 0.23796
 C228 C 0.57023 0.12265 0.24942
 C229 C 0.56825 0.17309 0.17584
 C230 C 0.55116 0.19916 0.16441
 C231 C 0.51810 0.19991 0.21583
 C232 C 0.50310 0.17567 0.27812
 H233 H 0.48148 0.12748 0.39276
 H234 H 0.59554 0.12136 0.21051
 H235 H 0.59356 0.17201 0.13658
 H236 H 0.47809 0.17721 0.31729
 H237 H 0.57154 0.08043 0.32069
 H238 H 0.50446 0.21977 0.20865
 C239 C 0.59224 0.45828 0.33106
 C240 C 0.54729 0.43377 0.36648
 C241 C 0.51678 0.39560 0.34043
 C242 C 0.53124 0.38189 0.27934
 C243 C 0.57702 0.40658 0.24472
 C244 C 0.60702 0.44482 0.27057
 C245 C 0.59237 0.39250 0.18547
 C246 C 0.56242 0.35413 0.15952
 C247 C 0.51648 0.33010 0.19320
 C248 C 0.50113 0.34380 0.25283
 H249 H 0.48223 0.37662 0.36831
 H250 H 0.64217 0.46413 0.24462
 H251 H 0.62769 0.41146 0.15957
 H252 H 0.46589 0.32451 0.27855
 H253 H 0.61627 0.48764 0.35132
 H254 H 0.49280 0.30042 0.17434
 C255 C 0.14521 0.53972 0.32748
 C256 C 0.13264 0.56428 0.36507
 C257 C 0.15181 0.60289 0.34116
 C258 C 0.18389 0.61707 0.28023
 C259 C 0.19727 0.59239 0.24359
 C260 C 0.17731 0.55365 0.26710
 C261 C 0.23089 0.60697 0.18470
 C262 C 0.25097 0.64581 0.16108
 C263 C 0.23648 0.66983 0.19660
 C264 C 0.20344 0.65565 0.25598
 H265 H 0.14228 0.62187 0.37073
 H266 H 0.18709 0.53433 0.23953
 H267 H 0.24137 0.58804 0.15720
 H268 H 0.19346 0.67492 0.28326
 H269 H 0.13098 0.51000 0.34609
 H270 H 0.25148 0.69985 0.17941
 C271 C 0.40650 0.88202 0.33485
 C272 C 0.45254 0.89525 0.36776
 C273 C 0.48387 0.88287 0.33973
 C274 C 0.46919 0.85728 0.27899
 C275 C 0.42244 0.84370 0.24671
 C276 C 0.39154 0.85647 0.27467
 C277 C 0.40705 0.81720 0.18759
 C278 C 0.43784 0.80418 0.15953
 C279 C 0.48464 0.81845 0.19106
 C280 C 0.50010 0.84464 0.25047
 H281 H 0.51927 0.89288 0.36572
 H282 H 0.35562 0.84636 0.25056
 H283 H 0.37102 0.80671 0.16348
 H284 H 0.53609 0.85481 0.27440
 H285 H 0.38185 0.89106 0.35669
 H286 H 0.50902 0.80884 0.17060
 C287 C 0.43266 0.55204 0.32031
 C288 C 0.47211 0.57896 0.36423
 C289 C 0.49642 0.61876 0.34585
 C290 C 0.48144 0.63156 0.28402
 C291 C 0.44164 0.60420 0.24023
 C292 C 0.41775 0.56449 0.25853
 C293 C 0.42578 0.61701 0.17962
 C294 C 0.44896 0.65694 0.16200
 C295 C 0.48890 0.68385 0.20549
 C296 C 0.50499 0.67128 0.26587
 H297 H 0.52646 0.63965 0.38027
 H298 H 0.38704 0.54315 0.22580
 H299 H 0.39496 0.59584 0.14677
 H300 H 0.53556 0.69266 0.29878
 H301 H 0.41288 0.52137 0.33473
 H302 H 0.50750 0.71477 0.19334
   
