data_POSCAR
  _audit_creation_date              2014-09-24
  _audit_creation_method            'ToBaCCo'
  _symmetry_space_group_name_H-M    'P1'
  _symmetry_Int_Tables_number       1
  _symmetry_cell_setting            triclinic
  loop_
  _symmetry_equiv_pos_as_xyz
 x,y,z
_cell_length_a 42.3689
_cell_length_b 42.2346
_cell_length_c 42.3576
_cell_angle_alpha 79.650200
_cell_angle_beta 91.370900
_cell_angle_gamma 79.465400
loop_
  _atom_site_label
  _atom_site_type_symbol
  _atom_site_fract_x
  _atom_site_fract_y
  _atom_site_fract_z
O1 O 0.55293 0.48245 0.03127
 O2 O 0.46465 0.48981 0.02692
 O3 O 0.51321 0.44151 0.03238
 O4 O 0.50368 0.53056 0.02669
 O5 O 0.50277 0.53740 -0.02630
 O6 O 0.51501 0.44768 -0.02042
 O7 O 0.46476 0.49463 -0.02586
 O8 O 0.55227 0.49038 -0.02176
 Cu9 Cu 0.50872 0.48541 0.03464
 Cu10 Cu 0.50860 0.49320 -0.02891
 C11 C 0.56752 0.48564 0.00534
 C12 C 0.44973 0.49299 -0.00020
 C13 C 0.51573 0.42943 0.00701
 C14 C 0.50155 0.54916 -0.00067
 O15 O -0.03058 0.55970 0.48791
 O16 O -0.02617 0.47087 0.49599
 O17 O -0.02531 0.51085 0.53576
 O18 O -0.03053 0.51946 0.44743
 O19 O 0.02252 0.51066 0.44775
 O20 O 0.02754 0.50520 0.53526
 O21 O 0.02685 0.46319 0.49655
 O22 O 0.02219 0.55272 0.48558
 Cu23 Cu -0.03348 0.51600 0.49172
 Cu24 Cu 0.03011 0.50720 0.49136
 C25 C -0.00502 0.57142 0.48531
 C26 C 0.00100 0.45189 0.49768
 C27 C 0.00200 0.50698 0.55044
 C28 C -0.00472 0.51599 0.43267
 O29 O 0.49119 0.02726 0.54291
 O30 O 0.48806 0.02656 0.45588
 O31 O 0.44628 0.02703 0.50023
 O32 O 0.53285 0.02771 0.49863
 O33 O 0.54358 -0.02638 0.51113
 O34 O 0.45670 -0.02712 0.50839
 O35 O 0.50070 -0.02753 0.46643
 O36 O 0.49945 -0.02685 0.55315
 Cu37 Cu 0.48856 0.03258 0.49833
 Cu38 Cu 0.50122 -0.03242 0.51079
 C39 C 0.49522 0.00029 0.56286
 C40 C 0.49429 -0.00067 0.44639
 C41 C 0.43674 -0.00014 0.50445
 C42 C 0.55295 0.00085 0.50490
 C43 C 0.49742 -0.02074 0.01738
 C44 C 0.49845 0.00492 -0.00694
 C45 C 0.49686 0.00257 -0.04160
 C46 C 0.50193 0.03725 0.00008
 C47 C 0.49807 -0.01678 0.05162
 C48 C 0.49587 -0.05413 0.01161
 C49 C 0.51890 0.01567 -0.06189
 C50 C 0.51714 0.01533 -0.09473
 C51 C 0.49352 0.00149 -0.10809
 C52 C 0.47154 -0.01191 -0.08789
 C53 C 0.47286 -0.01090 -0.05501
 C54 C 0.53174 0.04237 0.01107
 C55 C 0.53534 0.07360 0.01539
 C56 C 0.50893 0.09980 0.00961
 C57 C 0.47895 0.09435 -0.00062
 C58 C 0.47563 0.06341 -0.00592
 C59 C 0.47443 0.00593 0.06264
 C60 C 0.47479 0.00860 0.09508
 C61 C 0.49836 -0.01194 0.11727
 C62 C 0.52175 -0.03491 0.10620
 C63 C 0.52160 -0.03726 0.07371
 C64 C 0.47251 -0.07044 0.02635
 C65 C 0.47138 -0.10238 0.02270
 C66 C 0.49355 -0.11876 0.00411
 C67 C 0.51684 -0.10236 -0.01089
 C68 C 0.51823 -0.07045 -0.00686
 H69 H 0.53760 0.02627 -0.05231
 H70 H 0.53451 0.02567 -0.10965
 H71 H 0.45287 -0.02242 -0.09765
 H72 H 0.45497 -0.02030 -0.04014
 H73 H 0.55230 0.02238 0.01551
 H74 H 0.55866 0.07730 0.02332
 H75 H 0.45256 0.05979 -0.01464
 H76 H 0.45540 0.02121 0.04625
 H77 H 0.45620 0.02626 0.10288
 H78 H 0.54024 -0.05109 0.12263
 H79 H 0.53985 -0.05517 0.06576
 H80 H 0.45513 -0.05841 0.04083
 H81 H 0.45308 -0.11425 0.03450
 H82 H 0.53445 -0.11446 -0.02510
 H83 H 0.53695 -0.05865 -0.01783
 H84 H 0.45834 0.11426 -0.00549
 C85 C -0.00386 0.49744 0.98306
 C86 C 0.01864 0.49931 1.00578
 C87 C 0.05264 0.50081 0.99866
 C88 C 0.01084 0.49972 1.03973
 C89 C -0.03805 0.49734 0.99030
 C90 C 0.00379 0.49568 0.94929
 C91 C 0.07205 0.47677 0.98490
 C92 C 0.10480 0.47727 0.98150
 C93 C 0.11878 0.50131 0.99257
 C94 C 0.09918 0.52552 1.00585
 C95 C 0.06651 0.52534 1.00871
 C96 C 0.02917 0.47624 1.06408
 C97 C 0.02453 0.47753 1.09630
 C98 C 0.00137 0.50234 1.10494
 C99 C -0.01762 0.52546 1.08054
 C100 C -0.01271 0.52435 1.04814
 C101 C -0.06215 0.52063 0.97134
 C102 C -0.09451 0.51968 0.97551
 C103 C -0.10359 0.49540 0.99885
 C104 C -0.07946 0.47242 1.01840
 C105 C -0.04692 0.47319 1.01395
 C106 C 0.01716 0.51996 0.92998
 C107 C 0.02102 0.51924 0.89734
 C108 C 0.01088 0.49466 0.88343
 C109 C -0.00192 0.47016 0.90301
 C110 C -0.00533 0.47064 0.93555
 H111 H 0.06211 0.45713 0.97767
 H112 H 0.11942 0.45816 0.97140
 H113 H 0.10917 0.54450 1.01438
 H114 H 0.05208 0.54407 1.01949
 H115 H 0.04751 0.45713 1.05808
 H116 H 0.03942 0.45922 1.11446
 H117 H -0.02670 0.54308 1.02968
 H118 H -0.05584 0.53938 0.95290
 H119 H -0.11243 0.53786 0.96018
 H120 H -0.08570 0.45329 1.03643
 H121 H -0.02869 0.45456 1.02841
 H122 H 0.02373 0.53991 0.93992
 H123 H 0.03076 0.53857 0.88276
 H124 H -0.00973 0.45077 0.89309
 H125 H -0.01579 0.45174 0.94998
 H126 H -0.03551 0.54499 1.08646
 C127 C 0.00528 -0.00399 0.50018
 C128 C -0.01898 0.02184 0.50104
 C129 C -0.05314 0.01794 0.50040
 C130 C -0.01322 0.05531 0.50240
 C131 C 0.03988 -0.00174 0.50188
 C132 C -0.00168 -0.03642 0.49694
 C133 C -0.07511 0.03784 0.47642
 C134 C -0.10755 0.03541 0.47621
 C135 C -0.11863 0.01293 0.49997
 C136 C -0.09656 -0.00698 0.52400
 C137 C -0.06420 -0.00421 0.52442
 C138 C 0.00553 0.07128 0.48019
 C139 C 0.00947 0.10328 0.48133
 C140 C -0.00591 0.12013 0.50422
 C141 C -0.02476 0.10409 0.52626
 C142 C -0.02831 0.07207 0.52538
 C143 C 0.05320 0.01134 0.52622
 C144 C 0.08608 0.01222 0.52773
 C145 C 0.10629 -0.00086 0.50551
 C146 C 0.09296 -0.01422 0.48148
 C147 C 0.06014 -0.01450 0.47960
 C148 C 0.00339 -0.06210 0.52364
 C149 C -0.00145 -0.09324 0.52050
 C150 C -0.01019 -0.09943 0.49033
 C151 C -0.01509 -0.07372 0.46355
 C152 C -0.01133 -0.04225 0.46694
 H153 H -0.06710 0.05533 0.45788
 H154 H -0.12392 0.05110 0.45737
 H155 H -0.10441 -0.02422 0.54288
 H156 H -0.04788 -0.01899 0.54378
 H157 H 0.01677 0.05917 0.46173
 H158 H 0.02389 0.11509 0.46383
 H159 H -0.04302 0.06033 0.54265
 H160 H 0.03826 0.02055 0.54421
 H161 H 0.09580 0.02239 0.54669
 H162 H 0.10788 -0.02428 0.46390
 H163 H 0.05058 -0.02475 0.46062
 H164 H 0.01113 -0.05796 0.54687
 H165 H 0.00272 -0.11279 0.54140
 H166 H -0.02185 -0.07800 0.44008
 H167 H -0.01503 -0.02267 0.44608
 H168 H -0.03685 0.11629 0.54426
 C169 C -0.33352 0.48435 1.00706
 N170 N -0.35165 0.49242 0.97894
 N171 N -0.38306 0.49241 0.97853
 C172 C -0.39762 0.48450 1.00626
 N173 N -0.37952 0.47638 1.03448
 N174 N -0.34798 0.47620 1.03487
 C175 C -0.29902 0.48527 1.00702
 N176 N -0.27925 0.47341 1.03393
 N177 N -0.24801 0.47463 1.03340
 C178 C -0.23553 0.48796 1.00599
 N179 N -0.25535 0.49983 0.97920
 N180 N -0.28645 0.49842 0.97968
 C181 C -0.20129 0.48991 1.00490
 N182 N -0.19071 0.50765 0.97875
 N183 N -0.15977 0.50951 0.97712
 C184 C -0.13806 0.49358 1.00149
 N185 N -0.14864 0.47571 1.02771
 N186 N -0.17972 0.47401 1.02944
 C187 C 0.35222 0.49590 0.99564
 N188 N 0.36826 0.49553 1.02387
 N189 N 0.39987 0.49461 1.02521
 C190 C 0.41661 0.49437 0.99827
 N191 N 0.40050 0.49497 0.96996
 N192 N 0.36892 0.49558 0.96869
 C193 C 0.31740 0.49667 0.99442
 N194 N 0.30222 0.48971 0.96861
 N195 N 0.27065 0.49018 0.96783
 C196 C 0.25309 0.49792 0.99274
 N197 N 0.26828 0.50501 1.01844
 N198 N 0.29985 0.50423 1.01934
 C199 C 0.21824 0.49889 0.99209
 N200 N 0.20018 0.51351 1.01337
 N201 N 0.16862 0.51444 1.01320
 C202 C 0.15382 0.50056 0.99194
 N203 N 0.17193 0.48575 0.97071
 N204 N 0.20354 0.48508 0.97067
 C205 C -0.01046 -0.32961 0.47946
 N206 N 0.01774 -0.34915 0.47522
 N207 N 0.01954 -0.38127 0.47701
 C208 C -0.00691 -0.39495 0.48264
 N209 N -0.03519 -0.37527 0.48643
 N210 N -0.03688 -0.34325 0.48512
 C211 C -0.01216 -0.29454 0.47906
 N212 N -0.03496 -0.27793 0.49510
 N213 N -0.03584 -0.24639 0.49586
 C214 C -0.01424 -0.23018 0.48016
 N215 N 0.00834 -0.24668 0.46379
 N216 N 0.00951 -0.27837 0.46343
 C217 C -0.01452 -0.19577 0.48195
 N218 N -0.00136 -0.17630 0.45894
 N219 N -0.00072 -0.14535 0.46119
 C220 C -0.01281 -0.13291 0.48677
 N221 N -0.02592 -0.15243 0.50979
 N222 N -0.02699 -0.18321 0.50729
 C223 C 0.00321 0.35159 0.50368
 N224 N 0.03015 0.36420 0.49727
 N225 N 0.02968 0.39610 0.49583
 C226 C 0.00220 0.41652 0.50055
 N227 N -0.02468 0.40387 0.50696
 N228 N -0.02415 0.37200 0.50863
 C229 C 0.00320 0.31662 0.50473
 N230 N -0.02234 0.30360 0.51576
 N231 N -0.02294 0.27212 0.51619
 C232 C 0.00186 0.25250 0.50537
 N233 N 0.02745 0.26549 0.49430
 N234 N 0.02815 0.29698 0.49408
 C235 C 0.00055 0.21796 0.50541
 N236 N 0.02220 0.19927 0.48992
 N237 N 0.02027 0.16817 0.48952
 C238 C -0.00325 0.15453 0.50477
 N239 N -0.02474 0.17329 0.52035
 N240 N -0.02295 0.20438 0.52058
 C241 C 0.49261 0.00083 -0.34035
 N242 N 0.49116 0.02919 -0.36181
 N243 N 0.49202 0.02903 -0.39321
 C244 C 0.49470 0.00047 -0.40431
 N245 N 0.49635 -0.02791 -0.38278
 N246 N 0.49520 -0.02772 -0.35140
 C247 C 0.49156 0.00107 -0.30576
 N248 N 0.48624 -0.02556 -0.28484
 N249 N 0.48545 -0.02531 -0.25344
 C250 C 0.49021 0.00150 -0.24181
 N251 N 0.49559 0.02807 -0.26273
 N252 N 0.49609 0.02793 -0.29414
 C253 C 0.49032 0.00163 -0.20716
 N254 N 0.50251 0.02484 -0.19512
 N255 N 0.50339 0.02475 -0.16367
 C256 C 0.49185 0.00164 -0.14302
 N257 N 0.47936 -0.02143 -0.15511
 N258 N 0.47876 -0.02153 -0.18659
 C259 C 0.49504 -0.00264 0.34801
 N260 N 0.48431 0.02585 0.35836
 N261 N 0.48404 0.02654 0.38970
 C262 C 0.49433 -0.00126 0.41182
 N263 N 0.50494 -0.02974 0.40146
 N264 N 0.50537 -0.03040 0.37015
 C265 C 0.49564 -0.00354 0.31350
 N266 N 0.51012 -0.03108 0.30337
 N267 N 0.51077 -0.03205 0.27213
 C268 C 0.49683 -0.00559 0.24984
 N269 N 0.48228 0.02195 0.25994
 N270 N 0.48178 0.02298 0.29120
 C271 C 0.49742 -0.00691 0.21541
 N272 N 0.48009 0.01768 0.19315
 N273 N 0.48041 0.01614 0.16199
 C274 C 0.49820 -0.00995 0.15186
 N275 N 0.51563 -0.03444 0.17421
 N276 N 0.51518 -0.03299 0.20536
 C277 C 0.49409 -0.35023 -0.00414
 N278 N 0.50085 -0.36325 -0.03084
 N279 N 0.50272 -0.39526 -0.02999
 C280 C 0.49811 -0.41538 -0.00234
 N281 N 0.49133 -0.40232 0.02429
 N282 N 0.48922 -0.37033 0.02337
 C283 C 0.49271 -0.31518 -0.00449
 N284 N 0.48129 -0.30181 0.02078
 N285 N 0.48073 -0.27027 0.02117
 C286 C 0.49181 -0.25096 -0.00358
 N287 N 0.50325 -0.26428 -0.02891
 N288 N 0.50360 -0.29583 -0.02940
 C289 C 0.49180 -0.21642 -0.00240
 N290 N 0.50770 -0.19808 -0.02382
 N291 N 0.50824 -0.16701 -0.02190
 C292 C 0.49276 -0.15307 0.00139
 N293 N 0.47676 -0.17148 0.02264
 N294 N 0.47637 -0.20254 0.02085
 C295 C 0.52186 0.32863 0.01354
 N296 N 0.53173 0.34684 -0.01282
 N297 N 0.53001 0.37898 -0.01489
 C298 C 0.51874 0.39393 0.00951
 N299 N 0.50924 0.37565 0.03601
 N300 N 0.51056 0.34362 0.03789
 C301 C 0.52205 0.29363 0.01517
 N302 N 0.50248 0.27831 0.03493
 N303 N 0.50148 0.24688 0.03548
 C304 C 0.52038 0.22952 0.01664
 N305 N 0.54026 0.24472 -0.00284
 N306 N 0.54094 0.27629 -0.00371
 C307 C 0.51820 0.19535 0.01628
 N308 N 0.54241 0.17499 0.00546
 N309 N 0.53979 0.14429 0.00409
 C310 C 0.51271 0.13301 0.01307
 N311 N 0.48852 0.15341 0.02388
 N312 N 0.49131 0.18394 0.02567
 C313 C -0.34885 0.00292 0.50358
 N314 N -0.37109 0.03063 0.49328
 N315 N -0.40237 0.02994 0.49389
 C316 C -0.41255 0.00147 0.50466
 N317 N -0.39032 -0.02629 0.51491
 N318 N -0.35901 -0.02555 0.51447
 C319 C -0.31442 0.00388 0.50280
 N320 N -0.29200 -0.02251 0.51678
 N321 N -0.26078 -0.02140 0.51617
 C322 C -0.25087 0.00607 0.50138
 N323 N -0.27329 0.03239 0.48731
 N324 N -0.30449 0.03135 0.48808
 C325 C -0.21653 0.00750 0.50075
 N326 N -0.20663 0.03344 0.48274
 N327 N -0.17554 0.03501 0.48232
 C328 C -0.15312 0.01079 0.50003
 N329 N -0.16310 -0.01515 0.51807
 N330 N -0.19420 -0.01682 0.51835
 C331 C 0.33839 -0.00079 0.50743
 N332 N 0.34962 0.02713 0.50849
 N333 N 0.38097 0.02738 0.50727
 C334 C 0.40221 -0.00032 0.50514
 N335 N 0.39099 -0.02826 0.50419
 N336 N 0.35962 -0.02845 0.50516
 C337 C 0.30386 -0.00105 0.50845
 N338 N 0.29205 -0.02684 0.50126
 N339 N 0.26066 -0.02695 0.50167
 C340 C 0.23996 -0.00142 0.50959
 N341 N 0.25177 0.02430 0.51701
 N342 N 0.28317 0.02452 0.51634
 C343 C 0.20534 -0.00144 0.50929
 N344 N 0.18490 0.02079 0.52226
 N345 N 0.15341 0.02084 0.52144
 C346 C 0.14121 -0.00116 0.50735
 N347 N 0.16175 -0.02335 0.49442
 N348 N 0.19320 -0.02358 0.49548
 C349 C -0.00701 0.51726 1.33380
 N350 N -0.03475 0.52560 1.34836
 N351 N -0.03419 0.52554 1.37989
 C352 C -0.00587 0.51733 1.39782
 N353 N 0.02177 0.50927 1.38315
 N354 N 0.02120 0.50916 1.35177
 C355 C -0.00709 0.51590 1.29943
 N356 N 0.02019 0.50229 1.28699
 N357 N 0.02059 0.50033 1.25602
 C358 C -0.00621 0.51209 1.23621
 N359 N -0.03356 0.52590 1.24854
 N360 N -0.03403 0.52766 1.27967
 C361 C -0.00513 0.50947 1.20217
 N362 N -0.02948 0.52540 1.18040
 N363 N -0.02764 0.52313 1.14945
 C364 C -0.00151 0.50465 1.13923
 N365 N 0.02264 0.48868 1.16116
 N366 N 0.02091 0.49110 1.19195
 C367 C 0.00732 0.50204 0.64988
 N368 N 0.03314 0.50650 0.63243
 N369 N 0.03156 0.50775 0.60075
 C370 C 0.00402 0.50486 0.58538
 N371 N -0.02181 0.50050 0.60282
 N372 N -0.02014 0.49896 0.63451
 C373 C 0.00886 0.50062 0.68475
 N374 N -0.01445 0.48986 0.70277
 N375 N -0.01330 0.48860 0.73441
 C376 C 0.01105 0.49834 0.74919
 N377 N 0.03435 0.50923 0.73118
 N378 N 0.03334 0.51023 0.69953
 C379 C 0.01184 0.49706 0.78405
 N380 N 0.03173 0.51267 0.79855
 N381 N 0.03163 0.51190 0.83017
 C382 C 0.01186 0.49523 0.84846
 N383 N -0.00783 0.47952 0.83385
 N384 N -0.00793 0.48051 0.80228
   
