data_POSCAR
  _audit_creation_date              2014-09-24
  _audit_creation_method            'ToBaCCo'
  _symmetry_space_group_name_H-M    'P1'
  _symmetry_Int_Tables_number       1
  _symmetry_cell_setting            triclinic
  loop_
  _symmetry_equiv_pos_as_xyz
 x,y,z
_cell_length_a 51.0473
_cell_length_b 51.0628
_cell_length_c 51.0807
_cell_angle_alpha 90.008500
_cell_angle_beta 90.023700
_cell_angle_gamma 89.984300
loop_
  _atom_site_label
  _atom_site_type_symbol
  _atom_site_fract_x
  _atom_site_fract_y
  _atom_site_fract_z
C1 C 0.28954 0.32352 0.01273
 C2 C 0.28954 0.32357 -0.01489
 C3 C 0.30630 0.30659 -0.02851
 C4 C 0.32321 0.28976 -0.01491
 C5 C 0.32317 0.28972 0.01271
 C6 C 0.30625 0.30651 0.02630
 H7 H 0.30640 0.30664 0.04754
 H8 H 0.30647 0.30678 -0.04977
 C9 C 0.70994 0.67704 0.01310
 C10 C 0.70995 0.67713 -0.01447
 C11 C 0.69317 0.69407 -0.02805
 C12 C 0.67617 0.71079 -0.01441
 C13 C 0.67618 0.71070 0.01321
 C14 C 0.69315 0.69391 0.02675
 H15 H 0.69300 0.69367 0.04799
 H16 H 0.69307 0.69391 -0.04930
 C17 C 0.71040 0.32377 0.98618
 C18 C 0.71042 0.32377 1.01381
 C19 C 0.69364 0.30682 1.02740
 C20 C 0.67669 0.29008 1.01379
 C21 C 0.67667 0.29009 0.98622
 C22 C 0.69360 0.30683 0.97261
 H23 H 0.69341 0.30699 0.95137
 H24 H 0.69343 0.30692 1.04866
 C25 C 0.28916 0.67721 0.98772
 C26 C 0.28912 0.67719 1.01533
 C27 C 0.30587 0.69415 1.02898
 C28 C 0.32282 0.71095 1.01541
 C29 C 0.32282 0.71096 0.98779
 C30 C 0.30591 0.69419 0.97418
 H31 H 0.30609 0.69404 0.95294
 H32 H 0.30601 0.69397 1.05024
 C33 C 0.01411 0.28894 0.32252
 C34 C -0.01349 0.28884 0.32241
 C35 C -0.02711 0.30554 0.30543
 C36 C -0.01351 0.32252 0.28873
 C37 C 0.01408 0.32261 0.28882
 C38 C 0.02771 0.30573 0.30564
 H39 H 0.04896 0.30598 0.30589
 H40 H -0.04837 0.30564 0.30552
 C41 C 0.01336 0.71045 0.67674
 C42 C -0.01427 0.71039 0.67664
 C43 C -0.02791 0.69359 0.69353
 C44 C -0.01431 0.67668 0.71036
 C45 C 0.01333 0.67676 0.71046
 C46 C 0.02693 0.69373 0.69374
 H47 H 0.04819 0.69362 0.69366
 H48 H -0.04918 0.69339 0.69330
 C49 C 0.98681 0.70980 0.32304
 C50 C 1.01440 0.70982 0.32305
 C51 C 1.02804 0.69310 0.30612
 C52 C 1.01446 0.67616 0.28931
 C53 C 0.98682 0.67616 0.28929
 C54 C 0.97321 0.69307 0.30608
 H55 H 0.95196 0.69291 0.30624
 H56 H 1.04931 0.69301 0.30635
 C57 C 0.98683 0.28934 0.67617
 C58 C 1.01447 0.28935 0.67621
 C59 C 1.02804 0.30615 0.69317
 C60 C 1.01437 0.32309 0.70988
 C61 C 0.98678 0.32307 0.70983
 C62 C 0.97320 0.30612 0.69307
 H63 H 0.95195 0.30628 0.69288
 H64 H 1.04930 0.30638 0.69311
 C65 C 0.32346 0.01282 0.29014
 C66 C 0.32350 -0.01481 0.29018
 C67 C 0.30660 -0.02840 0.30702
 C68 C 0.28985 -0.01477 0.32398
 C69 C 0.28984 0.01285 0.32392
 C70 C 0.30655 0.02642 0.30693
 H71 H 0.30669 0.04767 0.30705
 H72 H 0.30677 -0.04967 0.30720
 C73 C 0.67681 0.01371 0.71072
 C74 C 0.67687 -0.01387 0.71082
 C75 C 0.69383 -0.02752 0.69413
 C76 C 0.71057 -0.01396 0.67716
 C77 C 0.71052 0.01363 0.67706
 C78 C 0.69373 0.02728 0.69393
 H79 H 0.69352 0.04853 0.69368
 H80 H 0.69370 -0.04877 0.69404
 C81 C 0.32309 0.98742 0.71092
 C82 C 0.32311 1.01505 0.71087
 C83 C 0.30618 1.02863 0.69403
 C84 C 0.28943 1.01499 0.67707
 C85 C 0.28945 0.98736 0.67714
 C86 C 0.30618 0.97381 0.69414
 H87 H 0.30634 0.95256 0.69403
 H88 H 0.30633 1.04990 0.69383
 C89 C 0.67706 0.98626 0.28974
 C90 C 0.67708 1.01384 0.28972
 C91 C 0.69404 1.02746 0.30645
 C92 C 0.71083 1.01386 0.32339
 C93 C 0.71081 0.98623 0.32339
 C94 C 0.69401 0.97265 0.30647
 H95 H 0.69382 0.95140 0.30664
 H96 H 0.69383 1.04872 0.30654
 O97 O 0.88494 0.84773 0.47488
 O98 O 0.84880 0.88388 0.52580
 O99 O 0.88489 0.84772 0.52584
 O100 O 0.84885 0.88388 0.47484
 O101 O 0.81830 0.85335 0.47483
 O102 O 0.85428 0.81725 0.52576
 O103 O 0.81825 0.85335 0.52572
 O104 O 0.85434 0.81726 0.47486
 Cu105 Cu 0.86994 0.86887 0.50034
 Cu106 Cu 0.83323 0.83225 0.50029
 C107 C 0.87585 0.82626 0.46619
 C108 C 0.82729 0.87484 0.53443
 C109 C 0.87578 0.82624 0.53448
 C110 C 0.82735 0.87483 0.46615
 O111 O 0.15196 0.11565 0.52617
 O112 O 0.11580 0.15160 0.47508
 O113 O 0.15193 0.11548 0.47522
 O114 O 0.11580 0.15175 0.52604
 O115 O 0.14636 0.18227 0.52592
 O116 O 0.18244 0.14605 0.47515
 O117 O 0.14638 0.18211 0.47502
 O118 O 0.18246 0.14623 0.52605
 Cu119 Cu 0.13081 0.13056 0.50064
 Cu120 Cu 0.16746 0.16722 0.50053
 C121 C 0.17345 0.12476 0.53481
 C122 C 0.12488 0.17305 0.46634
 C123 C 0.17342 0.12453 0.46653
 C124 C 0.12487 0.17327 0.53464
 O125 O 0.15219 0.88445 0.47451
 O126 O 0.11591 0.84843 0.52543
 O127 O 0.15198 0.88459 0.52547
 O128 O 0.11606 0.84833 0.47447
 O129 O 0.14667 0.81783 0.47469
 O130 O 0.18254 0.85405 0.52563
 O131 O 0.14652 0.81795 0.52558
 O132 O 0.18273 0.85389 0.47473
 Cu133 Cu 0.13097 0.86951 0.49995
 Cu134 Cu 0.16767 0.83288 0.50018
 C135 C 0.17372 0.87536 0.46595
 C136 C 0.12498 0.82697 0.53417
 C137 C 0.17346 0.87556 0.53423
 C138 C 0.12518 0.82682 0.46590
 O139 O 0.88453 0.15103 0.52490
 O140 O 0.84831 0.11486 0.47403
 O141 O 0.88449 0.15090 0.47395
 O142 O 0.84839 0.11495 0.52499
 O143 O 0.81790 0.14556 0.52493
 O144 O 0.85394 0.18146 0.47395
 O145 O 0.81783 0.14547 0.47403
 O146 O 0.85398 0.18158 0.52483
 Cu147 Cu 0.86949 0.12986 0.49947
 Cu148 Cu 0.83286 0.16658 0.49943
 C149 C 0.87549 0.17255 0.53353
 C150 C 0.82682 0.12395 0.46536
 C151 C 0.87542 0.17239 0.46526
 C152 C 0.82692 0.12408 0.53366
 O153 O 0.47431 0.88480 0.84916
 O154 O 0.52527 0.84847 0.88516
 O155 O 0.52530 0.88462 0.84910
 O156 O 0.47428 0.84870 0.88529
 O157 O 0.47413 0.81819 0.85472
 O158 O 0.52509 0.85406 0.81858
 O159 O 0.52506 0.81798 0.85458
 O160 O 0.47416 0.85423 0.81866
 Cu161 Cu 0.49981 0.86971 0.87024
 Cu162 Cu 0.49959 0.83306 0.83358
 C163 C 0.46557 0.87576 0.82769
 C164 C 0.53385 0.82696 0.87605
 C165 C 0.53388 0.87551 0.82760
 C166 C 0.46552 0.82724 0.87623
 O167 O 0.52519 0.15164 0.11550
 O168 O 0.47429 0.11540 0.15161
 O169 O 0.47420 0.15149 0.11546
 O170 O 0.52528 0.11552 0.15160
 O171 O 0.52516 0.14611 0.18209
 O172 O 0.47414 0.18202 0.14600
 O173 O 0.47423 0.14600 0.18209
 O174 O 0.52507 0.18216 0.14605
 Cu175 Cu 0.49974 0.13045 0.13048
 Cu176 Cu 0.49964 0.16713 0.16711
 C177 C 0.53380 0.17316 0.12458
 C178 C 0.46560 0.12447 0.17309
 C179 C 0.46548 0.17297 0.12450
 C180 C 0.53392 0.12463 0.17308
 O181 O 0.47387 0.15219 0.88427
 O182 O 0.52484 0.11593 0.84827
 O183 O 0.52486 0.15209 0.88434
 O184 O 0.47384 0.11604 0.84820
 O185 O 0.47395 0.14658 0.81767
 O186 O 0.52491 0.18257 0.85375
 O187 O 0.52489 0.14647 0.81774
 O188 O 0.47398 0.18267 0.85368
 Cu189 Cu 0.49934 0.13100 0.86934
 Cu190 Cu 0.49944 0.16762 0.83265
 C191 C 0.46524 0.17368 0.87517
 C192 C 0.53354 0.12497 0.82680
 C193 C 0.53357 0.17355 0.87525
 C194 C 0.46521 0.12511 0.82670
 O195 O 0.52479 0.88441 0.15217
 O196 O 0.47369 0.84827 0.11623
 O197 O 0.47380 0.88434 0.15238
 O198 O 0.52469 0.84834 0.11602
 O199 O 0.52484 0.81779 0.14654
 O200 O 0.47402 0.85373 0.18284
 O201 O 0.47391 0.81772 0.14675
 O202 O 0.52495 0.85380 0.18263
 Cu203 Cu 0.49923 0.86941 0.13114
 Cu204 Cu 0.49945 0.83271 0.16774
 C205 C 0.53358 0.87532 0.17361
 C206 C 0.46510 0.82676 0.12531
 C207 C 0.46524 0.87523 0.17388
 C208 C 0.53343 0.82685 0.12503
 O209 O 0.88467 0.52589 0.84752
 O210 O 0.84858 0.47495 0.88369
 O211 O 0.88471 0.47490 0.84760
 O212 O 0.84854 0.52592 0.88361
 O213 O 0.81802 0.52582 0.85303
 O214 O 0.85413 0.47487 0.81709
 O215 O 0.81806 0.47491 0.85312
 O216 O 0.85410 0.52579 0.81700
 Cu217 Cu 0.86969 0.50042 0.86866
 Cu218 Cu 0.83302 0.50034 0.83200
 C219 C 0.87559 0.53452 0.82602
 C220 C 0.82708 0.46626 0.87463
 C221 C 0.87564 0.46619 0.82613
 C222 C 0.82704 0.53455 0.87451
 O223 O 0.11569 0.52591 0.15167
 O224 O 0.15182 0.47512 0.11532
 O225 O 0.11572 0.47494 0.15143
 O226 O 0.15182 0.52609 0.11559
 O227 O 0.18234 0.52592 0.14617
 O228 O 0.14632 0.47483 0.18193
 O229 O 0.18235 0.47500 0.14588
 O230 O 0.14627 0.52574 0.18218
 Cu231 Cu 0.13070 0.50053 0.13044
 Cu232 Cu 0.16738 0.50036 0.16709
 C233 C 0.12476 0.53448 0.17319
 C234 C 0.17332 0.46640 0.12436
 C235 C 0.12482 0.46617 0.17287
 C236 C 0.17331 0.53472 0.12472
 O237 O 0.88430 0.47418 0.15079
 O238 O 0.84815 0.52522 0.11477
 O239 O 0.88432 0.52516 0.15085
 O240 O 0.84809 0.47424 0.11475
 O241 O 0.81763 0.47428 0.14535
 O242 O 0.85378 0.52513 0.18139
 O243 O 0.81768 0.52520 0.14536
 O244 O 0.85377 0.47422 0.18133
 Cu245 Cu 0.86928 0.49970 0.12972
 Cu246 Cu 0.83266 0.49971 0.16641
 C247 C 0.87526 0.46551 0.17227
 C248 C 0.82667 0.53390 0.12387
 C249 C 0.87528 0.53381 0.17236
 C250 C 0.82661 0.46559 0.12385
 O251 O 0.15185 0.52547 0.88482
 O252 O 0.11592 0.47454 0.84846
 O253 O 0.15203 0.47449 0.88459
 O254 O 0.11579 0.52550 0.84863
 O255 O 0.14642 0.52567 0.81819
 O256 O 0.18258 0.47472 0.85407
 O257 O 0.14653 0.47476 0.81801
 O258 O 0.18241 0.52564 0.85432
 Cu259 Cu 0.13083 0.49998 0.86969
 Cu260 Cu 0.16755 0.50022 0.83310
 C261 C 0.17333 0.53423 0.87582
 C262 C 0.12504 0.46598 0.82696
 C263 C 0.17356 0.46591 0.87551
 C264 C 0.12488 0.53427 0.82719
 C265 C 0.22611 0.41777 0.10529
 C266 C 0.21668 0.40861 0.08125
 C267 C 0.19291 0.41809 0.07142
 C268 C 0.17866 0.43677 0.08552
 C269 C 0.27322 0.34129 0.02754
 C270 C 0.21192 0.43644 0.11941
 C271 C 0.23167 0.38983 0.06651
 C272 C 0.24451 0.37430 0.05421
 C273 C 0.25985 0.35637 0.03983
 C274 C 0.18807 0.44623 0.10964
 H275 H 0.24451 0.41058 0.11306
 H276 H 0.18545 0.41116 0.05281
 H277 H 0.16039 0.44390 0.07745
 H278 H 0.21971 0.44330 0.13790
 C279 C 0.77382 0.58258 0.10508
 C280 C 0.78317 0.59182 0.08105
 C281 C 0.80693 0.58240 0.07116
 C282 C 0.82123 0.56368 0.08516
 C283 C 0.72635 0.65924 0.02773
 C284 C 0.78806 0.56388 0.11911
 C285 C 0.76812 0.61063 0.06640
 C286 C 0.75522 0.62617 0.05418
 C287 C 0.73979 0.64413 0.03991
 C288 C 0.81189 0.55414 0.10926
 H289 H 0.75542 0.58972 0.11290
 H290 H 0.81434 0.58939 0.05255
 H291 H 0.83949 0.55659 0.07703
 H292 H 0.78031 0.55695 0.13758
 C293 C 0.80737 0.41797 0.92752
 C294 C 0.78358 0.40855 0.91767
 C295 C 0.77420 0.41771 0.89361
 C296 C 0.78845 0.43634 0.87951
 C297 C 0.72678 0.34148 0.97138
 C298 C 0.82167 0.43660 0.91344
 C299 C 0.76852 0.38983 0.93241
 C300 C 0.75562 0.37437 0.94471
 C301 C 0.74020 0.35650 0.95909
 C302 C 0.81231 0.44608 0.88931
 H303 H 0.81479 0.41103 0.94614
 H304 H 0.75579 0.41058 0.88583
 H305 H 0.78069 0.44322 0.86101
 H306 H 0.83995 0.44370 0.92153
 C307 C 0.19273 0.58259 0.92878
 C308 C 0.21650 0.59211 0.91901
 C309 C 0.22597 0.58298 0.89498
 C310 C 0.21184 0.56428 0.88083
 C311 C 0.27286 0.65945 0.97288
 C312 C 0.17855 0.56388 0.91466
 C313 C 0.23143 0.61090 0.93379
 C314 C 0.24423 0.62643 0.94613
 C315 C 0.25953 0.64437 0.96055
 C316 C 0.18800 0.55444 0.89056
 H317 H 0.18524 0.58950 0.94739
 H318 H 0.24437 0.59019 0.88725
 H319 H 0.21967 0.55744 0.86236
 H320 H 0.16028 0.55671 0.92270
 C321 C 0.10608 0.22566 0.41743
 C322 C 0.08206 0.21623 0.40817
 C323 C 0.07217 0.19251 0.41768
 C324 C 0.08616 0.17833 0.43649
 C325 C 0.02878 0.27265 0.34039
 C326 C 0.12010 0.21153 0.43622
 C327 C 0.06743 0.23117 0.38927
 C328 C 0.05522 0.24398 0.37363
 C329 C 0.04097 0.25930 0.35557
 C330 C 0.11026 0.18774 0.44604
 H331 H 0.11390 0.24402 0.41022
 H332 H 0.05357 0.18506 0.41068
 H333 H 0.07804 0.16010 0.44364
 H334 H 0.13857 0.21932 0.44315
 C335 C 0.10599 0.77421 0.58283
 C336 C 0.08190 0.78357 0.59194
 C337 C 0.07203 0.80732 0.58245
 C338 C 0.08611 0.82158 0.56379
 C339 C 0.02818 0.72683 0.65905
 C340 C 0.12010 0.78842 0.56418
 C341 C 0.06716 0.76854 0.61068
 C342 C 0.05486 0.75566 0.62616
 C343 C 0.04048 0.74025 0.64403
 C344 C 0.11028 0.81223 0.55436
 H345 H 0.11380 0.75584 0.59002
 H346 H 0.05338 0.81473 0.58934
 H347 H 0.07800 0.83982 0.55663
 H348 H 0.13863 0.78067 0.55735
 C349 C 0.89469 0.77345 0.41752
 C350 C 0.91873 0.78282 0.40829
 C351 C 0.92862 0.80657 0.41774
 C352 C 0.91461 0.82084 0.43645
 C353 C 0.97212 0.72615 0.34084
 C354 C 0.88065 0.78766 0.43622
 C355 C 0.93339 0.76780 0.38948
 C356 C 0.94562 0.75493 0.37392
 C357 C 0.95991 0.73955 0.35595
 C358 C 0.89049 0.81149 0.44597
 H359 H 0.88687 0.75507 0.41036
 H360 H 0.94724 0.81398 0.41075
 H361 H 0.92273 0.83909 0.44355
 H362 H 0.86216 0.77991 0.44313
 C363 C 0.89445 0.22547 0.58204
 C364 C 0.91849 0.21608 0.59128
 C365 C 0.92834 0.19228 0.58191
 C366 C 0.91428 0.17798 0.56325
 C367 C 0.97206 0.27294 0.65844
 C368 C 0.88036 0.21121 0.56339
 C369 C 0.93320 0.23115 0.61002
 C370 C 0.94547 0.24406 0.62551
 C371 C 0.95980 0.25950 0.64340
 C372 C 0.89016 0.18734 0.55371
 H373 H 0.88665 0.24388 0.58914
 H374 H 0.94696 0.18486 0.58890
 H375 H 0.92237 0.15969 0.55620
 H376 H 0.86187 0.21898 0.55647
 C377 C 0.41741 0.07149 0.19291
 C378 C 0.40799 0.08135 0.21668
 C379 C 0.41712 0.10545 0.22600
 C380 C 0.43571 0.11958 0.21172
 C381 C 0.34112 0.02761 0.27369
 C382 C 0.43600 0.08559 0.17857
 C383 C 0.38933 0.06659 0.23178
 C384 C 0.37391 0.05428 0.24473
 C385 C 0.35610 0.03990 0.26022
 C386 C 0.44545 0.10976 0.18788
 H387 H 0.41050 0.05283 0.18553
 H388 H 0.40999 0.11325 0.24439
 H389 H 0.44256 0.13810 0.21944
 H390 H 0.44310 0.07749 0.16031
 C391 C 0.58227 0.10597 0.77410
 C392 C 0.59148 0.08194 0.78352
 C393 C 0.58201 0.07211 0.80728
 C394 C 0.56329 0.08617 0.82149
 C395 C 0.65900 0.02842 0.72703
 C396 C 0.56355 0.12006 0.78826
 C397 C 0.61031 0.06724 0.76856
 C398 C 0.62588 0.05497 0.75574
 C399 C 0.64386 0.04065 0.74040
 C400 C 0.55377 0.11028 0.81209
 H401 H 0.58944 0.11375 0.75571
 H402 H 0.58899 0.05351 0.81474
 H403 H 0.55616 0.07810 0.83975
 H404 H 0.55665 0.13854 0.78047
 C405 C 0.41732 0.92877 0.80800
 C406 C 0.40783 0.91892 0.78425
 C407 C 0.41693 0.89482 0.77490
 C408 C 0.43557 0.88068 0.78913
 C409 C 0.34079 0.97265 0.72736
 C410 C 0.43596 0.91465 0.82229
 C411 C 0.38912 0.93369 0.76920
 C412 C 0.37366 0.94600 0.75628
 C413 C 0.35580 0.96037 0.74082
 C414 C 0.44538 0.89048 0.81295
 H415 H 0.41043 0.94742 0.81540
 H416 H 0.40974 0.88703 0.75652
 H417 H 0.44239 0.86215 0.78138
 H418 H 0.44312 0.92275 0.84053
 C419 C 0.58209 0.92811 0.19315
 C420 C 0.59164 0.91821 0.21685
 C421 C 0.58247 0.89417 0.22623
 C422 C 0.56371 0.88011 0.21208
 C423 C 0.65923 0.97160 0.27340
 C424 C 0.56333 0.91409 0.17893
 C425 C 0.61049 0.93288 0.23182
 C426 C 0.62608 0.94512 0.24465
 C427 C 0.64409 0.95940 0.26001
 C428 C 0.55385 0.88996 0.18830
 H429 H 0.58903 0.94673 0.18572
 H430 H 0.58970 0.88634 0.24458
 H431 H 0.55684 0.86162 0.21984
 H432 H 0.55614 0.92222 0.16072
 C433 C 0.41664 0.22663 0.89390
 C434 C 0.40735 0.21729 0.91792
 C435 C 0.41672 0.19351 0.92783
 C436 C 0.43543 0.17918 0.91385
 C437 C 0.34003 0.27423 0.97122
 C438 C 0.43533 0.21235 0.87990
 C439 C 0.38856 0.23237 0.93255
 C440 C 0.37303 0.24530 0.94476
 C441 C 0.35511 0.26076 0.95902
 C442 C 0.44502 0.18850 0.88976
 H443 H 0.40954 0.24503 0.88607
 H444 H 0.40969 0.18612 0.94642
 H445 H 0.44248 0.16091 0.92198
 H446 H 0.44230 0.22008 0.86143
 C447 C 0.58250 0.80709 0.92862
 C448 C 0.59183 0.78331 0.91868
 C449 C 0.58246 0.77398 0.89468
 C450 C 0.56373 0.78826 0.88072
 C451 C 0.65932 0.72632 0.97175
 C452 C 0.56376 0.82143 0.91468
 C453 C 0.61066 0.76821 0.93325
 C454 C 0.62623 0.75527 0.94540
 C455 C 0.64420 0.73980 0.95960
 C456 C 0.55409 0.81212 0.89061
 H457 H 0.58959 0.81448 0.94720
 H458 H 0.58952 0.75557 0.88682
 H459 H 0.55671 0.78054 0.86226
 H460 H 0.55674 0.83971 0.92284
 C461 C 0.41643 0.77389 0.10658
 C462 C 0.40706 0.78329 0.08261
 C463 C 0.41640 0.80708 0.07273
 C464 C 0.43515 0.82136 0.08669
 C465 C 0.33964 0.72646 0.02931
 C466 C 0.43517 0.78812 0.12057
 C467 C 0.38824 0.76823 0.06799
 C468 C 0.37268 0.75533 0.05579
 C469 C 0.35473 0.73990 0.04152
 C470 C 0.44482 0.81199 0.11074
 H471 H 0.40936 0.75548 0.11440
 H472 H 0.40931 0.81451 0.05417
 H473 H 0.44218 0.83965 0.07858
 H474 H 0.44219 0.78035 0.13901
 C475 C 0.58225 0.19297 0.07186
 C476 C 0.59160 0.21676 0.08174
 C477 C 0.58232 0.22612 0.10575
 C478 C 0.56365 0.21184 0.11979
 C479 C 0.65892 0.27367 0.02845
 C480 C 0.56358 0.17864 0.08586
 C481 C 0.61038 0.23184 0.06709
 C482 C 0.62590 0.24477 0.05488
 C483 C 0.64383 0.26022 0.04063
 C484 C 0.55399 0.18797 0.10995
 H485 H 0.58928 0.18556 0.05326
 H486 H 0.58940 0.24453 0.11357
 H487 H 0.55670 0.21959 0.13825
 H488 H 0.55654 0.16035 0.07775
 C489 C 0.19323 0.07213 0.58339
 C490 C 0.21701 0.08205 0.59277
 C491 C 0.22636 0.10606 0.58347
 C492 C 0.21210 0.12006 0.56476
 C493 C 0.27392 0.02884 0.66020
 C494 C 0.17892 0.08610 0.56467
 C495 C 0.23209 0.06743 0.61158
 C496 C 0.24501 0.05524 0.62713
 C497 C 0.26046 0.04101 0.64509
 C498 C 0.18825 0.11019 0.55506
 H499 H 0.18583 0.05354 0.59044
 H500 H 0.24476 0.11391 0.59057
 H501 H 0.21984 0.13853 0.55778
 H502 H 0.16065 0.07796 0.55761
 C503 C 0.77393 0.10514 0.41674
 C504 C 0.78327 0.08109 0.40752
 C505 C 0.80703 0.07117 0.41695
 C506 C 0.82134 0.08518 0.43564
 C507 C 0.72637 0.02774 0.34020
 C508 C 0.78818 0.11918 0.43542
 C509 C 0.76821 0.06643 0.38873
 C510 C 0.75529 0.05421 0.37320
 C511 C 0.73984 0.03995 0.35528
 C512 C 0.81201 0.10931 0.44516
 H513 H 0.75554 0.11298 0.40959
 H514 H 0.81443 0.05254 0.40997
 H515 H 0.83960 0.07704 0.44274
 H516 H 0.78045 0.13768 0.44233
 C517 C 0.80760 0.92764 0.58285
 C518 C 0.78380 0.91780 0.59223
 C519 C 0.77440 0.89378 0.58297
 C520 C 0.78864 0.87970 0.56431
 C521 C 0.72697 0.97133 0.65944
 C522 C 0.82189 0.91359 0.56418
 C523 C 0.76875 0.93250 0.61098
 C524 C 0.75585 0.94477 0.62648
 C525 C 0.74042 0.95909 0.64438
 C526 C 0.81251 0.88950 0.55462
 H527 H 0.81503 0.94624 0.58986
 H528 H 0.75598 0.88600 0.59007
 H529 H 0.78086 0.86123 0.55738
 H530 H 0.84018 0.92168 0.55713
 C531 C 0.22674 0.89412 0.41748
 C532 C 0.21739 0.91812 0.40815
 C533 C 0.19357 0.92802 0.41744
 C534 C 0.17922 0.91404 0.43611
 C535 C 0.27434 0.97137 0.34083
 C536 C 0.21245 0.88011 0.43614
 C537 C 0.23249 0.93275 0.38938
 C538 C 0.24543 0.94494 0.37385
 C539 C 0.26089 0.95919 0.35592
 C540 C 0.18856 0.88996 0.44575
 H541 H 0.24517 0.88629 0.41044
 H542 H 0.18617 0.94661 0.41037
 H543 H 0.16092 0.92217 0.44311
 H544 H 0.22019 0.86165 0.44314
 C545 C 0.07239 0.41746 0.80705
 C546 C 0.08229 0.40817 0.78325
 C547 C 0.10631 0.41751 0.77392
 C548 C 0.12032 0.43617 0.78823
 C549 C 0.02901 0.34087 0.72630
 C550 C 0.08637 0.43614 0.82141
 C551 C 0.06766 0.38941 0.76814
 C552 C 0.05545 0.37389 0.75521
 C553 C 0.04119 0.35596 0.73975
 C554 C 0.11046 0.44578 0.81210
 H555 H 0.05380 0.41039 0.81443
 H556 H 0.11414 0.41047 0.75551
 H557 H 0.13878 0.44318 0.78051
 H558 H 0.07824 0.44313 0.83970
 C559 C 0.07198 0.58288 0.19304
 C560 C 0.08185 0.59219 0.21685
 C561 C 0.10587 0.58290 0.22621
 C562 C 0.11993 0.56426 0.21193
 C563 C 0.02837 0.65937 0.27379
 C564 C 0.08601 0.56424 0.17870
 C565 C 0.06716 0.61093 0.23195
 C566 C 0.05491 0.62643 0.24487
 C567 C 0.04060 0.64432 0.26032
 C568 C 0.11011 0.55464 0.18804
 H569 H 0.05337 0.58992 0.18564
 H570 H 0.11368 0.58995 0.24464
 H571 H 0.13841 0.55729 0.21967
 H572 H 0.07790 0.55723 0.16040
 C573 C 0.89422 0.41684 0.22504
 C574 C 0.91824 0.40759 0.21562
 C575 C 0.92807 0.41701 0.19184
 C576 C 0.91401 0.43572 0.17760
 C577 C 0.97179 0.34026 0.27232
 C578 C 0.88014 0.43554 0.21085
 C579 C 0.93296 0.38880 0.23063
 C580 C 0.94523 0.37327 0.24349
 C581 C 0.95956 0.35534 0.25889
 C582 C 0.88992 0.44527 0.18700
 H583 H 0.88645 0.40970 0.24344
 H584 H 0.94667 0.41001 0.18439
 H585 H 0.92209 0.44281 0.15933
 H586 H 0.86167 0.44247 0.21863
 C587 C 0.89441 0.58312 0.77316
 C588 C 0.91843 0.59241 0.78254
 C589 C 0.92832 0.58303 0.80632
 C590 C 0.91431 0.56432 0.82060
 C591 C 0.97180 0.65982 0.72582
 C592 C 0.88038 0.56442 0.78738
 C593 C 0.93308 0.61121 0.76751
 C594 C 0.94531 0.62676 0.75463
 C595 C 0.95959 0.64472 0.73923
 C596 C 0.89021 0.55473 0.81124
 H597 H 0.88659 0.59022 0.75476
 H598 H 0.94692 0.59006 0.81375
 H599 H 0.92243 0.55726 0.83888
 H600 H 0.86191 0.55747 0.77962
 C601 C 0.77408 0.58310 0.89333
 C602 C 0.78343 0.59235 0.91737
 C603 C 0.80723 0.58299 0.92725
 C604 C 0.82157 0.56433 0.91323
 C605 C 0.72640 0.65944 0.97083
 C606 C 0.78836 0.56445 0.87928
 C607 C 0.76832 0.61107 0.93205
 C608 C 0.75537 0.62655 0.94430
 C609 C 0.73989 0.64441 0.95861
 C610 C 0.81223 0.55476 0.88912
 H611 H 0.75566 0.59019 0.88552
 H612 H 0.81463 0.58999 0.94586
 H613 H 0.83985 0.55727 0.92135
 H614 H 0.78062 0.55751 0.86080
 C615 C 0.22650 0.41728 0.89417
 C616 C 0.21713 0.40791 0.91813
 C617 C 0.19334 0.41724 0.92804
 C618 C 0.17902 0.43598 0.91411
 C619 C 0.27405 0.34043 0.97125
 C620 C 0.21224 0.43602 0.88020
 C621 C 0.23221 0.38908 0.93271
 C622 C 0.24514 0.37351 0.94488
 C623 C 0.26059 0.35554 0.95909
 C624 C 0.18837 0.44566 0.89006
 H625 H 0.24492 0.41022 0.88633
 H626 H 0.18592 0.41014 0.94660
 H627 H 0.16073 0.44300 0.92224
 H628 H 0.21999 0.44304 0.86177
 C629 C 0.22612 0.58348 0.10619
 C630 C 0.21675 0.59283 0.08221
 C631 C 0.19299 0.58346 0.07225
 C632 C 0.17871 0.56468 0.08616
 C633 C 0.27361 0.66034 0.02917
 C634 C 0.21190 0.56471 0.12012
 C635 C 0.23180 0.61168 0.06765
 C636 C 0.24471 0.62726 0.05550
 C637 C 0.26016 0.64523 0.04131
 C638 C 0.18807 0.55502 0.11021
 H639 H 0.24452 0.59058 0.11405
 H640 H 0.18558 0.59054 0.05368
 H641 H 0.16045 0.55762 0.07799
 H642 H 0.21965 0.55770 0.13857
 C643 C 0.77369 0.41700 0.10507
 C644 C 0.78300 0.40777 0.08102
 C645 C 0.80676 0.41717 0.07110
 C646 C 0.82109 0.43585 0.08510
 C647 C 0.72597 0.34056 0.02769
 C648 C 0.78796 0.43567 0.11910
 C649 C 0.76790 0.38902 0.06637
 C650 C 0.75495 0.37351 0.05415
 C651 C 0.73946 0.35562 0.03989
 C652 C 0.81179 0.44539 0.10923
 H653 H 0.75530 0.40988 0.11291
 H654 H 0.81412 0.41018 0.05248
 H655 H 0.83934 0.44293 0.07696
 H656 H 0.78025 0.44259 0.13760
 C657 C 0.92849 0.80649 0.58301
 C658 C 0.91856 0.78274 0.59240
 C659 C 0.89453 0.77339 0.58313
 C660 C 0.88051 0.78764 0.56443
 C661 C 0.97186 0.72589 0.65978
 C662 C 0.91450 0.82079 0.56429
 C663 C 0.93320 0.76768 0.61120
 C664 C 0.94541 0.75477 0.62674
 C665 C 0.95967 0.73934 0.64468
 C666 C 0.89038 0.81146 0.55472
 H667 H 0.94710 0.81388 0.59003
 H668 H 0.88668 0.75501 0.59025
 H669 H 0.86202 0.77990 0.55748
 H670 H 0.92264 0.83904 0.55722
 C671 C 0.89432 0.22512 0.41657
 C672 C 0.91835 0.21569 0.40736
 C673 C 0.92821 0.19193 0.41680
 C674 C 0.91417 0.17769 0.43550
 C675 C 0.97184 0.27243 0.34013
 C676 C 0.88025 0.21093 0.43526
 C677 C 0.93305 0.23070 0.38860
 C678 C 0.94531 0.24358 0.37309
 C679 C 0.95962 0.25899 0.35519
 C680 C 0.89006 0.18710 0.44502
 H681 H 0.88653 0.24351 0.40942
 H682 H 0.94682 0.18448 0.40982
 H683 H 0.92227 0.15942 0.44261
 H684 H 0.86177 0.21872 0.44217
 C685 C 0.07208 0.19309 0.58301
 C686 C 0.08194 0.21689 0.59235
 C687 C 0.10596 0.22626 0.58309
 C688 C 0.12003 0.21198 0.56445
 C689 C 0.02840 0.27383 0.65944
 C690 C 0.08612 0.17875 0.56436
 C691 C 0.06724 0.23198 0.61107
 C692 C 0.05497 0.24491 0.62654
 C693 C 0.04065 0.26036 0.64441
 C694 C 0.11022 0.18810 0.55480
 H695 H 0.05347 0.18568 0.59002
 H696 H 0.11376 0.24468 0.59016
 H697 H 0.13851 0.21973 0.55751
 H698 H 0.07802 0.16046 0.55733
 C699 C 0.07251 0.80697 0.41738
 C700 C 0.08241 0.78316 0.40808
 C701 C 0.10643 0.77381 0.41741
 C702 C 0.12045 0.78811 0.43607
 C703 C 0.02905 0.72622 0.34083
 C704 C 0.08650 0.82132 0.43605
 C705 C 0.06776 0.76806 0.38933
 C706 C 0.05553 0.75513 0.37382
 C707 C 0.04125 0.73967 0.35591
 C708 C 0.11060 0.81199 0.44569
 H709 H 0.05391 0.81437 0.41031
 H710 H 0.11425 0.75539 0.41036
 H711 H 0.13892 0.78037 0.44307
 H712 H 0.07837 0.83962 0.44305
 C713 C 0.58247 0.89423 0.77471
 C714 C 0.59181 0.91822 0.78409
 C715 C 0.58248 0.92811 0.80788
 C716 C 0.56377 0.91414 0.82218
 C717 C 0.65912 0.97149 0.72724
 C718 C 0.56376 0.88024 0.78895
 C719 C 0.61059 0.93285 0.76903
 C720 C 0.62612 0.94506 0.75613
 C721 C 0.64404 0.95931 0.74069
 C722 C 0.55412 0.89008 0.81281
 H723 H 0.58953 0.88642 0.75629
 H724 H 0.58956 0.94669 0.81530
 H725 H 0.55675 0.92227 0.84046
 H726 H 0.55675 0.86179 0.78119
 C727 C 0.41678 0.89395 0.22690
 C728 C 0.40745 0.91798 0.21759
 C729 C 0.41675 0.92790 0.19381
 C730 C 0.43542 0.91392 0.17944
 C731 C 0.34028 0.97130 0.27464
 C732 C 0.43544 0.87994 0.21259
 C733 C 0.38871 0.93261 0.23271
 C734 C 0.37321 0.94482 0.24567
 C735 C 0.35532 0.95909 0.26115
 C736 C 0.44505 0.88982 0.18874
 H737 H 0.40974 0.88611 0.24531
 H738 H 0.40969 0.94650 0.18644
 H739 H 0.44242 0.92206 0.16117
 H740 H 0.44243 0.86147 0.22030
 C741 C 0.58251 0.07197 0.19278
 C742 C 0.59189 0.08186 0.21655
 C743 C 0.58260 0.10587 0.22593
 C744 C 0.56387 0.11989 0.21169
 C745 C 0.65930 0.02851 0.27334
 C746 C 0.56378 0.08596 0.17849
 C747 C 0.61070 0.06722 0.23160
 C748 C 0.62624 0.05499 0.24449
 C749 C 0.64419 0.04071 0.25991
 C750 C 0.55418 0.11004 0.18785
 H751 H 0.58956 0.05338 0.18537
 H752 H 0.58970 0.11370 0.24433
 H753 H 0.55690 0.13836 0.21945
 H754 H 0.55672 0.07783 0.16022
 C755 C 0.41663 0.07244 0.80701
 C756 C 0.40725 0.08232 0.78323
 C757 C 0.41654 0.10632 0.77385
 C758 C 0.43526 0.12034 0.78808
 C759 C 0.33991 0.02896 0.72638
 C760 C 0.43536 0.08643 0.82129
 C761 C 0.38845 0.06767 0.76818
 C762 C 0.37291 0.05545 0.75528
 C763 C 0.35498 0.04117 0.73984
 C764 C 0.44496 0.11051 0.81193
 H765 H 0.40959 0.05385 0.81443
 H766 H 0.40943 0.11414 0.75545
 H767 H 0.44223 0.13880 0.78032
 H768 H 0.44242 0.07832 0.83956
 C769 C 0.58172 0.80732 0.07207
 C770 C 0.59122 0.78355 0.08187
 C771 C 0.58209 0.77412 0.10591
 C772 C 0.56343 0.78830 0.12005
 C773 C 0.65843 0.72701 0.02805
 C774 C 0.56305 0.82155 0.08618
 C775 C 0.60997 0.76856 0.06710
 C776 C 0.62547 0.75572 0.05477
 C777 C 0.64337 0.74037 0.04037
 C778 C 0.55362 0.81214 0.11030
 H779 H 0.58862 0.81477 0.05345
 H780 H 0.58929 0.75572 0.11366
 H781 H 0.55660 0.78050 0.13854
 H782 H 0.55589 0.83982 0.07813
 C783 C 0.41717 0.19261 0.07157
 C784 C 0.40774 0.21639 0.08138
 C785 C 0.41687 0.22578 0.10544
 C786 C 0.43550 0.21155 0.11958
 C787 C 0.34083 0.27328 0.02751
 C788 C 0.43581 0.17832 0.08568
 C789 C 0.38906 0.23146 0.06659
 C790 C 0.37363 0.24437 0.05424
 C791 C 0.35581 0.25982 0.03983
 C792 C 0.44527 0.18770 0.10981
 H793 H 0.41025 0.18518 0.05293
 H794 H 0.40972 0.24419 0.11320
 H795 H 0.44237 0.21932 0.13808
 H796 H 0.44293 0.16005 0.07761
 C797 C 0.58203 0.19322 0.92805
 C798 C 0.59150 0.21695 0.91816
 C799 C 0.58230 0.22632 0.89411
 C800 C 0.56359 0.21211 0.88005
 C801 C 0.65889 0.27371 0.97155
 C802 C 0.56332 0.17895 0.91402
 C803 C 0.61029 0.23198 0.93283
 C804 C 0.62584 0.24486 0.94507
 C805 C 0.64379 0.26028 0.95935
 C806 C 0.55381 0.18830 0.88990
 H807 H 0.58900 0.18581 0.94667
 H808 H 0.58947 0.24469 0.88629
 H809 H 0.55669 0.21985 0.86156
 H810 H 0.55619 0.16071 0.92214
 C811 C 0.41718 0.80773 0.92913
 C812 C 0.40767 0.78398 0.91929
 C813 C 0.41679 0.77457 0.89524
 C814 C 0.43546 0.78874 0.88112
 C815 C 0.34054 0.72734 0.97302
 C816 C 0.43586 0.82195 0.91504
 C817 C 0.38893 0.76899 0.93405
 C818 C 0.37345 0.75613 0.94636
 C819 C 0.35557 0.74075 0.96074
 C820 C 0.44530 0.81255 0.89091
 H821 H 0.41028 0.81517 0.94776
 H822 H 0.40958 0.75619 0.88746
 H823 H 0.44230 0.78095 0.86263
 H824 H 0.44303 0.84020 0.92312
 C825 C 0.77455 0.89376 0.41749
 C826 C 0.78395 0.91779 0.40828
 C827 C 0.80773 0.92764 0.41772
 C828 C 0.82200 0.91359 0.43641
 C829 C 0.72720 0.97143 0.34110
 C830 C 0.78876 0.87968 0.43617
 C831 C 0.76892 0.93251 0.38953
 C832 C 0.75603 0.94479 0.37403
 C833 C 0.74062 0.95915 0.35614
 C834 C 0.81261 0.88949 0.44593
 H835 H 0.75615 0.88598 0.41034
 H836 H 0.81517 0.94625 0.41075
 H837 H 0.84027 0.92168 0.44352
 H838 H 0.78098 0.86121 0.44307
 C839 C 0.19290 0.92849 0.58261
 C840 C 0.21667 0.91868 0.59213
 C841 C 0.22612 0.89463 0.58300
 C842 C 0.21197 0.88050 0.56430
 C843 C 0.27313 0.97252 0.65939
 C844 C 0.17870 0.91439 0.56391
 C845 C 0.23163 0.93345 0.61090
 C846 C 0.24445 0.94578 0.62642
 C847 C 0.25978 0.96019 0.64433
 C848 C 0.18814 0.89027 0.55447
 H849 H 0.18543 0.94711 0.58952
 H850 H 0.24452 0.88687 0.59021
 H851 H 0.21979 0.86201 0.55746
 H852 H 0.16044 0.92245 0.55673
 C853 C 0.19307 0.07160 0.41823
 C854 C 0.21684 0.08144 0.40879
 C855 C 0.22624 0.10549 0.41796
 C856 C 0.21202 0.11960 0.43661
 C857 C 0.27350 0.02768 0.34165
 C858 C 0.17880 0.08569 0.43689
 C859 C 0.23186 0.06669 0.39006
 C860 C 0.24473 0.05438 0.37457
 C861 C 0.26011 0.03999 0.35669
 C862 C 0.18818 0.10982 0.44636
 H863 H 0.18563 0.05298 0.41129
 H864 H 0.24464 0.11326 0.41081
 H865 H 0.21979 0.13810 0.44348
 H866 H 0.16052 0.07761 0.44399
 C867 C 0.80729 0.07148 0.58228
 C868 C 0.78354 0.08142 0.59170
 C869 C 0.77416 0.10543 0.58242
 C870 C 0.78835 0.11940 0.56366
 C871 C 0.72688 0.02826 0.65925
 C872 C 0.82154 0.08543 0.56352
 C873 C 0.76854 0.06682 0.61055
 C874 C 0.75567 0.05464 0.62613
 C875 C 0.74028 0.04042 0.64412
 C876 C 0.81217 0.10952 0.55393
 H877 H 0.81471 0.05289 0.58932
 H878 H 0.75578 0.11328 0.58956
 H879 H 0.78059 0.13787 0.55670
 H880 H 0.83979 0.07728 0.55643
 C881 C 0.92818 0.58212 0.19211
 C882 C 0.91834 0.59150 0.21590
 C883 C 0.89429 0.58231 0.22526
 C884 C 0.88017 0.56369 0.21100
 C885 C 0.97203 0.65848 0.27286
 C886 C 0.91410 0.56349 0.17780
 C887 C 0.93309 0.61020 0.23099
 C888 C 0.94538 0.62564 0.24392
 C889 C 0.95975 0.64348 0.25939
 C890 C 0.88997 0.55398 0.18714
 H891 H 0.94681 0.58908 0.18471
 H892 H 0.88650 0.58942 0.24367
 H893 H 0.86168 0.55680 0.21874
 H894 H 0.92218 0.55641 0.15952
 C895 C 0.92845 0.41771 0.80655
 C896 C 0.91858 0.40825 0.78280
 C897 C 0.89453 0.41746 0.77340
 C898 C 0.88047 0.43617 0.78759
 C899 C 0.97207 0.34085 0.72618
 C900 C 0.91441 0.43643 0.82079
 C901 C 0.93327 0.38945 0.76781
 C902 C 0.94553 0.37390 0.75495
 C903 C 0.95984 0.35595 0.73957
 C904 C 0.89029 0.44595 0.81141
 H905 H 0.94707 0.41074 0.81399
 H906 H 0.88673 0.41029 0.75502
 H907 H 0.86197 0.44308 0.77981
 H908 H 0.92252 0.44356 0.83904
 C909 C 0.07192 0.58256 0.80750
 C910 C 0.08182 0.59207 0.78379
 C911 C 0.10593 0.58297 0.77447
 C912 C 0.12004 0.56432 0.78869
 C913 C 0.02813 0.65909 0.72689
 C914 C 0.08601 0.56390 0.82178
 C915 C 0.06707 0.61079 0.76873
 C916 C 0.05477 0.62625 0.75582
 C917 C 0.04041 0.64409 0.74036
 C918 C 0.11019 0.55448 0.81246
 H919 H 0.05325 0.58945 0.81487
 H920 H 0.11375 0.59018 0.75612
 H921 H 0.13858 0.55749 0.78097
 H922 H 0.07788 0.55673 0.83999
 C923 C 0.10605 0.41724 0.22541
 C924 C 0.08202 0.40803 0.21600
 C925 C 0.07210 0.41757 0.19230
 C926 C 0.08609 0.43636 0.17812
 C927 C 0.02873 0.34043 0.27250
 C928 C 0.12008 0.43601 0.21129
 C929 C 0.06737 0.38917 0.23094
 C930 C 0.05517 0.37357 0.24377
 C931 C 0.04092 0.35557 0.25912
 C932 C 0.11021 0.44587 0.18752
 H933 H 0.11389 0.41001 0.24376
 H934 H 0.05348 0.41060 0.18486
 H935 H 0.07795 0.44354 0.15990
 H936 H 0.13856 0.44291 0.21907
   
