data_POSCAR
  _audit_creation_date              2014-09-24
  _audit_creation_method            'ToBaCCo'
  _symmetry_space_group_name_H-M    'P1'
  _symmetry_Int_Tables_number       1
  _symmetry_cell_setting            triclinic
  loop_
  _symmetry_equiv_pos_as_xyz
 x,y,z
_cell_length_a 47.3694
_cell_length_b 43.2966
_cell_length_c 45.7376
_cell_angle_alpha 89.453400
_cell_angle_beta 90.674400
_cell_angle_gamma 92.455300
loop_
  _atom_site_label
  _atom_site_type_symbol
  _atom_site_fract_x
  _atom_site_fract_y
  _atom_site_fract_z
N1 N 0.59785 0.68016 0.60776
 N2 N 0.58712 0.66761 0.63166
 C3 C 0.56414 0.68293 0.63910
 C4 C 0.56019 0.70621 0.61864
 C5 C 0.58202 0.70369 0.59908
 H6 H 0.55096 0.67725 0.65768
 H7 H 0.58622 0.71801 0.58001
 Cu8 Cu 0.60411 0.63217 0.65030
 Cu9 Cu 0.63137 0.66506 0.58942
 Cu10 Cu 0.66228 0.60231 0.62243
 N11 N 0.62154 0.59675 0.66847
 N12 N 0.64471 0.58580 0.65790
 C13 C 0.65282 0.56215 0.67487
 C14 C 0.63353 0.55767 0.69732
 C15 C 0.61390 0.58016 0.69238
 H16 H 0.67117 0.54896 0.67070
 H17 H 0.59566 0.58456 0.70541
 N18 N 0.67686 0.62224 0.58640
 N19 N 0.66535 0.64646 0.57413
 C20 C 0.68017 0.65495 0.55022
 C21 C 0.70194 0.63499 0.54711
 C22 C 0.69916 0.61452 0.57042
 H23 H 0.67524 0.67393 0.53580
 H24 H 0.71261 0.59561 0.57551
 H25 H 0.62616 0.61988 0.60419
 H26 H 0.64885 0.64671 0.62704
 N27 N 0.91054 0.32784 0.10384
 N28 N 0.92033 0.33873 0.12884
 C29 C 0.94435 0.32475 0.13589
 C30 C 0.95017 0.30397 0.11401
 C31 C 0.92813 0.30677 0.09395
 H32 H 0.95674 0.32967 0.15538
 H33 H 0.92467 0.29406 0.07393
 Cu34 Cu 0.90106 0.37044 0.14975
 Cu35 Cu 0.87522 0.34105 0.08648
 Cu36 Cu 0.84098 0.39850 0.12249
 N37 N 0.88201 0.40342 0.16909
 N38 N 0.85837 0.41400 0.15850
 C39 C 0.84955 0.43626 0.17612
 C40 C 0.86880 0.44004 0.19896
 C41 C 0.88917 0.41882 0.19373
 H42 H 0.83075 0.44909 0.17233
 H43 H 0.90767 0.41474 0.20703
 N44 N 0.82662 0.37989 0.08582
 N45 N 0.83926 0.35751 0.07244
 C46 C 0.82378 0.34904 0.04869
 C47 C 0.80048 0.36719 0.04691
 C48 C 0.80301 0.38652 0.07076
 H49 H 0.82920 0.33125 0.03357
 H50 H 0.78839 0.40373 0.07695
 H51 H 0.87809 0.38490 0.10395
 H52 H 0.85701 0.35480 0.12477
 N53 N 0.40372 0.16688 -0.10853
 N54 N 0.41460 0.15316 -0.13103
 C55 C 0.43787 0.16953 -0.13968
 C56 C 0.44197 0.19471 -0.12149
 C57 C 0.41991 0.19224 -0.10189
 H58 H 0.45107 0.16345 -0.15768
 H59 H 0.41567 0.20803 -0.08446
 Cu60 Cu 0.39760 0.11511 -0.14683
 Cu61 Cu 0.36890 0.15128 -0.09025
 Cu62 Cu 0.33719 0.08439 -0.11913
 N63 N 0.37932 0.07788 -0.16297
 N64 N 0.35550 0.06619 -0.15231
 C65 C 0.34708 0.04117 -0.16789
 C66 C 0.36677 0.03680 -0.18945
 C67 C 0.38695 0.06055 -0.18562
 H68 H 0.32810 0.02714 -0.16376
 H69 H 0.40547 0.06525 -0.19878
 N70 N 0.32184 0.10613 -0.08560
 N71 N 0.33359 0.13185 -0.07486
 C72 C 0.31789 0.14117 -0.05246
 C73 C 0.29533 0.12015 -0.04879
 C74 C 0.29856 0.09826 -0.07017
 H75 H 0.32275 0.16142 -0.03940
 H76 H 0.28477 0.07822 -0.07433
 H77 H 0.37313 0.10548 -0.10077
 H78 H 0.35246 0.12925 -0.12695
 N79 N 0.09320 0.82957 0.39360
 N80 N 0.07778 0.84768 0.37738
 C81 C 0.05303 0.83277 0.37085
 C82 C 0.05301 0.80338 0.38335
 C83 C 0.07902 0.80231 0.39761
 H84 H 0.03679 0.84239 0.35718
 H85 H 0.08702 0.78341 0.41039
 Cu86 Cu 0.09201 0.88828 0.36462
 Cu87 Cu 0.13007 0.84314 0.40901
 Cu88 Cu 0.16068 0.90868 0.37714
 N89 N 0.11141 0.92115 0.34257
 N90 N 0.13833 0.92851 0.34688
 C91 C 0.14628 0.95133 0.32814
 C92 C 0.12306 0.95872 0.31116
 C93 C 0.10129 0.93905 0.32100
 H94 H 0.16732 0.96196 0.32720
 H95 H 0.07980 0.93740 0.31275
 N96 N 0.17935 0.88531 0.40851
 N97 N 0.16719 0.86084 0.42132
 C98 C 0.18383 0.85158 0.44349
 C99 C 0.20776 0.87097 0.44450
 C100 C 0.20430 0.89200 0.42193
 H101 H 0.17883 0.83233 0.45802
 H102 H 0.21835 0.91152 0.41655
 H103 H 0.12813 0.89080 0.40281
 H104 H 0.13831 0.86738 0.37050
 C105 C 0.10518 0.15588 0.12074
 N106 N 0.10458 0.13613 0.14400
 C107 C 0.12382 0.11392 0.14685
 N108 N 0.14389 0.11163 0.12612
 C109 C 0.14489 0.13127 0.10276
 N110 N 0.12540 0.15333 0.10014
 C111 C 0.40008 0.85032 0.62042
 N112 N 0.39652 0.86790 0.64446
 C113 C 0.37371 0.88574 0.64661
 N114 N 0.35428 0.88569 0.62450
 C115 C 0.35773 0.86845 0.60026
 N116 N 0.38071 0.85094 0.59831
 C117 C 0.89535 0.64438 0.37538
 N118 N 0.87369 0.64771 0.39411
 C119 C 0.85152 0.62678 0.39470
 N120 N 0.85090 0.60264 0.37591
 C121 C 0.87228 0.59919 0.35679
 N122 N 0.89459 0.62002 0.35685
 C123 C 0.60143 0.35455 -0.12390
 N124 N 0.62216 0.35227 -0.10327
 C125 C 0.64478 0.37267 -0.10300
 N126 N 0.64661 0.39540 -0.12366
 C127 C 0.62607 0.39794 -0.14441
 N128 N 0.60356 0.37744 -0.14439
 C129 C 0.01797 0.24400 0.11171
 C130 C 0.00012 0.24639 0.08719
 C131 C -0.02233 0.26626 0.08787
 C132 C -0.02698 0.28414 0.11280
 C133 C -0.00821 0.28119 0.13670
 N134 N 0.01314 0.26128 0.13565
 C135 C 0.04097 0.22201 0.11295
 N136 N 0.04773 0.20909 0.13921
 C137 C 0.06821 0.18823 0.14216
 C138 C 0.08358 0.17944 0.11777
 C139 C 0.07745 0.19303 0.09056
 C140 C 0.05606 0.21418 0.08803
 H141 H -0.03585 0.26747 0.06872
 H142 H -0.01067 0.29399 0.15659
 H143 H 0.07245 0.17859 0.16361
 H144 H 0.08885 0.18696 0.07120
 H145 H 0.00293 0.23248 0.06800
 H146 H 0.05165 0.22450 0.06691
 C147 C 0.49344 0.76974 0.61566
 C148 C 0.50909 0.76477 0.59039
 C149 C 0.53095 0.74420 0.59141
 C150 C 0.53730 0.72848 0.61749
 C151 C 0.52139 0.73441 0.64236
 N152 N 0.50026 0.75468 0.64087
 C153 C 0.46986 0.79106 0.61576
 N154 N 0.46328 0.80500 0.64120
 C155 C 0.44153 0.82435 0.64310
 C156 C 0.42454 0.83026 0.61847
 C157 C 0.43087 0.81596 0.59206
 C158 C 0.45346 0.79644 0.59060
 H159 H 0.54261 0.74040 0.57166
 H160 H 0.52579 0.72319 0.66304
 H161 H 0.43731 0.83468 0.66397
 H162 H 0.41827 0.81970 0.57253
 H163 H 0.50483 0.77687 0.57012
 H164 H 0.45748 0.78514 0.57016
 C165 C 0.98849 0.73356 0.37830
 C166 C 1.01511 0.72636 0.38940
 C167 C 1.03643 0.74951 0.39138
 C168 C 1.03157 0.77984 0.38173
 C169 C 1.00450 0.78584 0.37050
 N170 N 0.98391 0.76301 0.36947
 C171 C 0.96504 0.71012 0.37695
 N172 N 0.93858 0.71830 0.38402
 C173 C 0.91611 0.69771 0.38370
 C174 C 0.91955 0.66700 0.37536
 C175 C 0.94654 0.65825 0.36735
 C176 C 0.96940 0.67967 0.36840
 H177 H 1.05675 0.74328 0.40007
 H178 H 0.99928 0.80871 0.36313
 H179 H 0.89555 0.70541 0.38973
 H180 H 0.95003 0.63476 0.36078
 H181 H 1.01923 0.70322 0.39705
 H182 H 0.99016 0.67263 0.36224
 C183 C 0.50848 0.26450 -0.12537
 C184 C 0.50046 0.24821 -0.15074
 C185 C 0.47878 0.22544 -0.14944
 C186 C 0.46486 0.21900 -0.12304
 C187 C 0.47346 0.23585 -0.09817
 N188 N 0.49494 0.25766 -0.09987
 C189 C 0.53187 0.28822 -0.12556
 N190 N 0.54851 0.29195 -0.10127
 C191 C 0.57071 0.31291 -0.10019
 C192 C 0.57705 0.33197 -0.12448
 C193 C 0.55975 0.32893 -0.14951
 C194 C 0.53727 0.30706 -0.15018
 H195 H 0.47280 0.21307 -0.16917
 H196 H 0.46350 0.23134 -0.07731
 H197 H 0.58330 0.31471 -0.08034
 H198 H 0.56375 0.34321 -0.16870
 H199 H 0.51118 0.25251 -0.17124
 H200 H 0.52408 0.30524 -0.16962
 C201 C 0.12003 0.02673 0.24277
 C202 C 0.09478 0.01521 0.25541
 C203 C 0.09576 -0.00693 0.27772
 C204 C 0.12178 -0.01767 0.28756
 C205 C 0.14651 -0.00566 0.27426
 N206 N 0.14501 0.01575 0.25243
 C207 C 0.12027 0.04971 0.21861
 N208 N 0.14221 0.05065 0.19963
 C209 C 0.14386 0.07091 0.17676
 C210 C 0.12260 0.09209 0.17201
 C211 C 0.10002 0.09189 0.19164
 C212 C 0.09877 0.07082 0.21491
 H213 H 0.07613 -0.01548 0.28729
 H214 H 0.16702 -0.01352 0.28084
 H215 H 0.16179 0.07036 0.16236
 H216 H 0.08324 0.10794 0.18901
 H217 H 0.07442 0.02264 0.24785
 H218 H 0.08138 0.07147 0.22997
 C219 C 0.63380 0.49095 -0.23491
 C220 C 0.65711 0.49436 -0.25342
 C221 C 0.65699 0.51630 -0.27596
 C222 C 0.63382 0.53529 -0.28004
 C223 C 0.61092 0.53101 -0.26081
 N224 N 0.61140 0.50912 -0.23932
 C225 C 0.63261 0.46743 -0.21130
 N226 N 0.60727 0.45334 -0.20448
 C227 C 0.60469 0.43121 -0.18328
 C228 C 0.62850 0.42238 -0.16719
 C229 C 0.65473 0.43711 -0.17346
 C230 C 0.65690 0.45948 -0.19557
 H231 H 0.67529 0.51836 -0.28985
 H232 H 0.59235 0.54452 -0.26294
 H233 H 0.58401 0.42067 -0.17895
 H234 H 0.67363 0.43107 -0.16154
 H235 H 0.67503 0.47983 -0.25095
 H236 H 0.67728 0.47070 -0.20000
 C237 C 0.36528 0.96857 0.74344
 C238 C 0.34018 0.97471 0.75794
 C239 C 0.34069 0.99670 0.78010
 C240 C 0.36606 1.01266 0.78779
 C241 C 0.39075 1.00541 0.77312
 N242 N 0.38976 0.98381 0.75172
 C243 C 0.36601 0.94609 0.71934
 N244 N 0.39053 0.93191 0.71414
 C245 C 0.39323 0.91200 0.69165
 C246 C 0.37051 0.90583 0.67228
 C247 C 0.34500 0.92019 0.67725
 C248 C 0.34264 0.94022 0.70073
 H249 H 0.32114 1.00148 0.79083
 H250 H 0.41087 1.01673 0.77865
 H251 H 0.41335 0.90162 0.68857
 H252 H 0.32695 0.91622 0.66282
 H253 H 0.32042 0.96255 0.75250
 H254 H 0.32301 0.95166 0.70362
 C255 C 0.86691 0.50457 0.26910
 C256 C 0.84182 0.49632 0.25389
 C257 C 0.84242 0.47521 0.23108
 C258 C 0.86787 0.46216 0.22339
 C259 C 0.89246 0.47094 0.23920
 N260 N 0.89141 0.49181 0.26114
 C261 C 0.86770 0.52781 0.29262
 N262 N 0.89198 0.54510 0.29735
 C263 C 0.89408 0.56754 0.31794
 C264 C 0.87081 0.57365 0.33541
 C265 C 0.84580 0.55550 0.33144
 C266 C 0.84415 0.53263 0.31012
 H267 H 0.82293 0.46909 0.21955
 H268 H 0.91261 0.46176 0.23382
 H269 H 0.91389 0.58072 0.32043
 H270 H 0.82736 0.55921 0.34451
 H271 H 0.82205 0.50655 0.25898
 H272 H 0.82472 0.51881 0.30760
 C273 C 0.23076 0.12173 0.01569
 C274 C 0.23699 0.09363 0.00266
 C275 C 0.25794 0.09317 -0.01847
 C276 C 0.27287 0.12054 -0.02657
 C277 C 0.26588 0.14819 -0.01316
 N278 N 0.24516 0.14813 0.00719
 C279 C 0.20869 0.12335 0.03815
 N280 N 0.19368 0.14937 0.04007
 C281 C 0.17312 0.15235 0.06025
 C282 C 0.16695 0.12837 0.08039
 C283 C 0.18248 0.10154 0.07901
 C284 C 0.20324 0.09890 0.05793
 H285 H 0.26263 0.07130 -0.02818
 H286 H 0.27660 0.16989 -0.01905
 H287 H 0.16185 0.17356 0.06071
 H288 H 0.17855 0.08250 0.09415
 H289 H 0.22554 0.07230 0.00836
 H290 H 0.21521 0.07818 0.05755
 C291 C 0.76444 0.63571 0.48041
 C292 C 0.75062 0.66294 0.48643
 C293 C 0.73011 0.66268 0.50808
 C294 C 0.72344 0.63546 0.52389
 C295 C 0.73760 0.60868 0.51704
 N296 N 0.75732 0.60943 0.49566
 C297 C 0.78636 0.63469 0.45776
 N298 N 0.78985 0.60773 0.44342
 C299 C 0.81002 0.60486 0.42284
 C300 C 0.82861 0.62997 0.41605
 C301 C 0.82548 0.65793 0.43070
 C302 C 0.80437 0.66042 0.45145
 H303 H 0.71974 0.68387 0.51264
 H304 H 0.73282 0.58708 0.52837
 H305 H 0.81182 0.58279 0.41226
 H306 H 0.83942 0.67786 0.42624
 H307 H 0.75525 0.68411 0.47431
 H308 H 0.80272 0.68201 0.46291
 C309 C 0.73389 0.36508 -0.01703
 C310 C 0.74882 0.33827 -0.01154
 C311 C 0.77078 0.33897 0.00913
 C312 C 0.77764 0.36617 0.02456
 C313 C 0.76223 0.39246 0.01836
 N314 N 0.74123 0.39135 -0.00215
 C315 C 0.71089 0.36589 -0.03908
 N316 N 0.70679 0.39273 -0.05394
 C317 C 0.68600 0.39534 -0.07443
 C318 C 0.66742 0.37005 -0.08065
 C319 C 0.67097 0.34227 -0.06522
 C320 C 0.69276 0.34004 -0.04456
 H321 H 0.78213 0.31817 0.01327
 H322 H 0.76708 0.41402 0.02947
 H323 H 0.68386 0.41727 -0.08561
 H324 H 0.65708 0.32222 -0.06928
 H325 H 0.74397 0.31716 -0.02342
 H326 H 0.69501 0.31853 -0.03268
 C327 C 0.27443 0.86995 0.50806
 C328 C 0.28021 0.88094 0.47969
 C329 C 0.25841 0.88144 0.45890
 C330 C 0.23108 0.87053 0.46620
 C331 C 0.22624 0.85958 0.49475
 N332 N 0.24766 0.85988 0.51478
 C333 C 0.29650 0.86976 0.53105
 N334 N 0.28944 0.87604 0.55907
 C335 C 0.30865 0.87608 0.58138
 C336 C 0.33673 0.86884 0.57614
 C337 C 0.34436 0.86184 0.54748
 C338 C 0.32437 0.86253 0.52484
 H339 H 0.26297 0.89008 0.43709
 H340 H 0.20535 0.85138 0.50135
 H341 H 0.30186 0.88133 0.60323
 H342 H 0.36581 0.85611 0.54253
 H343 H 0.30117 0.88963 0.47382
 H344 H 0.33052 0.85687 0.50287
   
