data_POSCAR
  _audit_creation_date              2014-09-24
  _audit_creation_method            'ToBaCCo'
  _symmetry_space_group_name_H-M    'P1'
  _symmetry_Int_Tables_number       1
  _symmetry_cell_setting            triclinic
  loop_
  _symmetry_equiv_pos_as_xyz
 x,y,z
_cell_length_a 50.1559
_cell_length_b 31.1397
_cell_length_c 17.0060
_cell_angle_alpha 90.000500
_cell_angle_beta 90.000000
_cell_angle_gamma 89.998500
loop_
  _atom_site_label
  _atom_site_type_symbol
  _atom_site_fract_x
  _atom_site_fract_y
  _atom_site_fract_z
C1 C 0.72889 0.26798 0.54328
 C2 C 0.72899 0.26790 0.46031
 C3 C 0.75048 0.24974 0.41955
 C4 C 0.77194 0.23158 0.46052
 C5 C 0.77186 0.23163 0.54367
 C6 C 0.75033 0.24983 0.58440
 H7 H 0.75026 0.24988 0.64826
 H8 H 0.75045 0.24978 0.35572
 C9 C 0.22905 0.76803 0.54357
 C10 C 0.22895 0.76807 0.46071
 C11 C 0.25032 0.74981 0.41960
 C12 C 0.27178 0.73150 0.46029
 C13 C 0.27189 0.73142 0.54330
 C14 C 0.25049 0.74973 0.58439
 H15 H 0.25047 0.74977 0.64822
 H16 H 0.25025 0.74985 0.35581
 C17 C 0.27076 0.26760 -0.54187
 C18 C 0.27072 0.26766 -0.45904
 C19 C 0.24926 0.24961 -0.41798
 C20 C 0.22775 0.23141 -0.45875
 C21 C 0.22779 0.23134 -0.54192
 C22 C 0.24931 0.24945 -0.58281
 H23 H 0.24942 0.24946 -0.64663
 H24 H 0.24935 0.24976 -0.35416
 C25 C -0.22935 0.76788 -0.54181
 C26 C -0.22930 0.76780 -0.45897
 C27 C -0.25067 0.74943 -0.41802
 C28 C -0.27212 0.73110 -0.45890
 C29 C -0.27217 0.73117 -0.54206
 C30 C -0.25074 0.74960 -0.58284
 H31 H -0.25066 0.74976 -0.64667
 H32 H -0.25056 0.74943 -0.35419
 N33 N -0.02822 1.04700 -0.13846
 N34 N -0.04805 1.05297 -0.18827
 N35 N 0.02788 1.07689 -0.08398
 N36 N 0.04770 1.10413 -0.09535
 N37 N 0.02787 1.04700 -0.13849
 N38 N 0.04765 1.05305 -0.18848
 N39 N -0.02823 1.07688 -0.08393
 N40 N -0.04809 1.10404 -0.09508
 C41 C -0.06021 1.08854 -0.16017
 C42 C 0.05980 1.08866 -0.16054
 N43 N 0.02782 1.04699 0.14003
 N44 N 0.04765 1.05296 0.18986
 N45 N -0.02828 1.07689 0.08555
 N46 N -0.04808 1.10416 0.09696
 N47 N -0.02826 1.04700 0.14005
 N48 N -0.04803 1.05307 0.19008
 N49 N 0.02784 1.07687 0.08550
 N50 N 0.04770 1.10403 0.09668
 Mn51 Mn -0.00020 1.07739 0.00078
 C52 C 0.05981 1.08853 0.16178
 C53 C -0.06017 1.08870 0.16216
 N54 N 0.02783 0.95449 -0.13845
 N55 N 0.04767 0.94852 -0.18824
 N56 N -0.02828 0.92461 -0.08398
 N57 N -0.04808 0.89735 -0.09537
 N58 N -0.02826 0.95449 -0.13851
 N59 N -0.04803 0.94842 -0.18852
 N60 N 0.02784 0.92462 -0.08391
 N61 N 0.04770 0.89746 -0.09503
 Mn62 Mn -0.00020 1.00075 -0.13936
 C63 C 0.05983 0.91295 -0.16011
 C64 C -0.06018 0.91280 -0.16058
 N65 N -0.02823 0.95450 0.14002
 N66 N -0.04806 0.94852 0.18984
 N67 N 0.02787 0.92461 0.08556
 N68 N 0.04767 0.89734 0.09698
 N69 N 0.02785 0.95449 0.14008
 N70 N 0.04762 0.94842 0.19011
 N71 N -0.02824 0.92463 0.08549
 N72 N -0.04809 0.89746 0.09665
 Mn73 Mn -0.00020 1.00075 0.14093
 Mn74 Mn -0.00020 0.92411 0.00079
 Cl75 Cl -0.00020 1.00075 0.00078
 C76 C -0.06021 0.91296 0.16175
 C77 C 0.05976 0.91279 0.16219
 N78 N 0.52831 0.57546 -0.08632
 N79 N 0.54815 0.60264 -0.09751
 N80 N 0.47221 0.54561 -0.14090
 N81 N 0.45239 0.55164 -0.19080
 N82 N 0.47219 0.57548 -0.08637
 N83 N 0.45236 0.60269 -0.09762
 N84 N 0.52830 0.54558 -0.14085
 N85 N 0.54812 0.55158 -0.19070
 C86 C 0.56027 0.58715 -0.16261
 C87 C 0.44023 0.58723 -0.16277
 N88 N 0.47223 0.42322 -0.08635
 N89 N 0.45237 0.39607 -0.09750
 N90 N 0.52834 0.45307 -0.14088
 N91 N 0.54816 0.44706 -0.19075
 N92 N 0.52835 0.42319 -0.08635
 N93 N 0.54819 0.39600 -0.09758
 N94 N 0.47225 0.45309 -0.14088
 N95 N 0.45241 0.44713 -0.19068
 Mn96 Mn 0.50027 0.49934 -0.14177
 C97 C 0.44025 0.41158 -0.16259
 C98 C 0.56032 0.41146 -0.16272
 N99 N 0.47224 0.57547 0.08311
 N100 N 0.45242 0.60270 0.09441
 N101 N 0.52833 0.54559 0.13766
 N102 N 0.54810 0.55166 0.18770
 N103 N 0.52835 0.57547 0.08315
 N104 N 0.54815 0.60274 0.09456
 N105 N 0.47225 0.54559 0.13762
 N106 N 0.45246 0.55162 0.18756
 Mn107 Mn 0.50027 0.57598 -0.00161
 C108 C 0.44033 0.58722 0.15956
 C109 C 0.56024 0.58729 0.15977
 N110 N 0.52829 0.42321 0.08313
 N111 N 0.54811 0.39598 0.09443
 N112 N 0.47220 0.45310 0.13765
 N113 N 0.45240 0.44706 0.18762
 N114 N 0.47218 0.42321 0.08314
 N115 N 0.45235 0.39598 0.09449
 N116 N 0.52827 0.45309 0.13764
 N117 N 0.54806 0.44707 0.18758
 Mn118 Mn 0.50026 0.42270 -0.00161
 Mn119 Mn 0.50026 0.49934 0.13852
 Cl120 Cl 0.50027 0.49934 -0.00162
 C121 C 0.56020 0.41148 0.15958
 C122 C 0.44025 0.41145 0.15967
 C123 C 0.33368 0.32063 0.34042
 N124 N 0.35403 0.33766 0.38264
 N125 N 0.37487 0.35530 0.34635
 C126 C 0.37601 0.35646 0.26670
 N127 N 0.35565 0.33943 0.22442
 N128 N 0.33480 0.32177 0.26074
 C129 C 0.31126 0.30171 0.37987
 C130 C 0.29268 0.28605 0.41452
 C131 C 0.39848 0.37560 0.22787
 C132 C 0.41748 0.39185 0.19622
 C133 C -0.16673 0.82171 0.34104
 N134 N -0.16523 0.82198 0.26140
 N135 N -0.14439 0.83984 0.22536
 C136 C -0.12446 0.85792 0.26791
 N137 N -0.12598 0.85764 0.34751
 N138 N -0.14680 0.83980 0.38353
 C139 C -0.18906 0.80252 0.38017
 C140 C -0.20757 0.78662 0.41468
 C141 C -0.10200 0.87714 0.22943
 C142 C -0.08299 0.89342 0.19803
 C143 C 0.66644 0.67866 0.34146
 N144 N 0.64624 0.66103 0.38346
 N145 N 0.62548 0.64324 0.34695
 C146 C 0.62429 0.64255 0.26729
 N147 N 0.64451 0.66018 0.22523
 N148 N 0.66527 0.67798 0.26177
 C149 C 0.68874 0.69775 0.38119
 C150 C 0.70721 0.71354 0.41623
 C151 C 0.60190 0.62330 0.22824
 C152 C 0.58296 0.60696 0.19645
 C153 C 0.16631 1.17926 0.34205
 N154 N 0.14600 1.16213 0.38429
 N155 N 0.12517 1.14446 0.34800
 C156 C 0.12403 1.14338 0.26837
 N157 N 0.14435 1.16051 0.22607
 N158 N 0.16519 1.17820 0.26238
 C159 C 0.18865 1.19819 0.38151
 C160 C 0.20715 1.21386 0.41644
 C161 C 0.10159 1.12427 0.22963
 C162 C 0.08258 1.10805 0.19811
 C163 C 0.66710 0.32038 -0.34202
 N164 N 0.66579 0.32136 -0.26236
 N165 N 0.64490 0.33912 -0.22637
 C166 C 0.62471 0.35642 -0.26897
 N167 N 0.62604 0.35542 -0.34860
 N168 N 0.64691 0.33768 -0.38456
 C169 C 0.68954 0.30133 -0.38114
 C170 C 0.70813 0.28556 -0.41566
 C171 C 0.60218 0.37563 -0.23048
 C172 C 0.58314 0.39190 -0.19907
 C173 C 0.16642 0.82171 -0.33909
 N174 N 0.14645 0.83965 -0.38164
 N175 N 0.12562 0.85749 -0.34568
 C176 C 0.12412 0.85793 -0.26608
 N177 N 0.14409 0.83999 -0.22347
 N178 N 0.16494 0.82214 -0.25945
 C179 C 0.18877 0.80255 -0.37819
 C180 C 0.20728 0.78669 -0.41274
 C181 C 0.10164 0.87715 -0.22767
 C182 C 0.08262 0.89343 -0.19634
 C183 C 0.33356 0.67866 -0.34204
 N184 N 0.33500 0.67803 -0.26238
 N185 N 0.35586 0.66017 -0.22642
 C186 C 0.37590 0.64241 -0.26903
 N187 N 0.37444 0.64306 -0.34865
 N188 N 0.35360 0.66090 -0.38459
 C189 C 0.31116 0.69783 -0.38114
 C190 C 0.29260 0.71372 -0.41564
 C191 C 0.39841 0.62314 -0.23057
 C192 C 0.41744 0.60683 -0.19916
 C193 C -0.16671 1.17945 -0.34016
 N194 N -0.16553 1.17850 -0.26050
 N195 N -0.14470 1.16076 -0.22424
 C196 C -0.12445 1.14347 -0.26661
 N197 N -0.12565 1.14444 -0.34623
 N198 N -0.14647 1.16216 -0.38246
 C199 C -0.18905 1.19845 -0.37958
 C200 C -0.20754 1.21414 -0.41454
 C201 C -0.10200 1.12432 -0.22793
 C202 C -0.08299 1.10807 -0.19646
 C203 C 0.66660 0.67839 -0.34287
 N204 N 0.64660 0.66033 -0.38511
 N205 N 0.62583 0.64250 -0.34884
 C206 C 0.62442 0.64221 -0.26922
 N207 N 0.64442 0.66028 -0.22692
 N208 N 0.66521 0.67811 -0.26322
 C209 C 0.68887 0.69754 -0.38232
 C210 C 0.70731 0.71340 -0.41724
 C211 C 0.60201 0.62300 -0.23049
 C212 C 0.58302 0.60671 -0.19897
 C213 C 0.16618 1.17950 -0.34221
 N214 N 0.14571 1.16266 -0.38419
 N215 N 0.12491 1.14503 -0.34765
 C216 C 0.12394 1.14370 -0.26800
 N217 N 0.14442 1.16054 -0.22596
 N218 N 0.16523 1.17818 -0.26252
 C219 C 0.18854 1.19838 -0.38196
 C220 C 0.20707 1.21399 -0.41702
 C221 C 0.10151 1.12456 -0.22893
 C222 C 0.08254 1.10829 -0.19716
 C223 C 0.33355 0.32086 -0.34188
 N224 N 0.35375 0.33815 -0.38437
 N225 N 0.37462 0.35583 -0.34834
 C226 C 0.37592 0.35677 -0.26872
 N227 N 0.35572 0.33948 -0.22617
 N228 N 0.33484 0.32178 -0.26222
 C229 C 0.31115 0.30189 -0.38103
 C230 C 0.29258 0.28617 -0.41553
 C231 C 0.39842 0.37588 -0.23023
 C232 C 0.41745 0.39209 -0.19884
 C233 C -0.16657 0.82143 -0.34133
 N234 N -0.16526 0.82203 -0.26165
 N235 N -0.14445 0.83984 -0.22536
 C236 C -0.12433 0.85757 -0.26766
 N237 N -0.12565 0.85696 -0.34730
 N238 N -0.14645 0.83916 -0.38357
 C239 C -0.18892 0.80231 -0.38075
 C240 C -0.20745 0.78647 -0.41538
 C241 C -0.10189 0.87682 -0.22885
 C242 C -0.08291 0.89315 -0.19718
 C243 C 0.33421 0.67823 0.34126
 N244 N 0.33533 0.67758 0.26158
 N245 N 0.35609 0.65986 0.22495
 C246 C 0.37633 0.64227 0.26696
 N247 N 0.37519 0.64293 0.34660
 N248 N 0.35445 0.66065 0.38320
 C249 C 0.31195 0.69722 0.38104
 C250 C 0.29351 0.71296 0.41609
 C251 C 0.39869 0.62312 0.22788
 C252 C 0.41763 0.60683 0.19611
 C253 C -0.16648 1.17956 0.34414
 N254 N -0.16550 1.17840 0.26445
 N255 N -0.14470 1.16076 0.22783
 C256 C -0.12427 1.14376 0.26982
 N257 N -0.12526 1.14494 0.34948
 N258 N -0.14605 1.16257 0.38607
 C259 C -0.18883 1.19845 0.38394
 C260 C -0.20735 1.21410 0.41895
 C261 C -0.10185 1.12462 0.23068
 C262 C -0.08290 1.10834 0.19884
 C263 C 0.66642 0.32078 0.34132
 N264 N 0.66546 0.32192 0.26163
 N265 N 0.64467 0.33955 0.22500
 C266 C 0.62424 0.35655 0.26699
 N267 N 0.62522 0.35540 0.34663
 N268 N 0.64599 0.33778 0.38324
 C269 C 0.68872 0.30193 0.38110
 C270 C 0.70721 0.28631 0.41614
 C271 C 0.60186 0.37564 0.22790
 C272 C 0.58291 0.39189 0.19613
 C273 C 0.16615 0.82159 0.34322
 N274 N 0.14597 0.83916 0.38541
 N275 N 0.12516 0.85690 0.34908
 C276 C 0.12390 0.85762 0.26943
 N277 N 0.14409 0.84005 0.22719
 N278 N 0.16491 0.82230 0.26354
 C279 C 0.18851 0.80253 0.38269
 C280 C 0.20707 0.78673 0.41728
 C281 C 0.10146 0.87684 0.23055
 C282 C 0.08249 0.89315 0.19883
   
