data_POSCAR
  _audit_creation_date              2014-09-24
  _audit_creation_method            'ToBaCCo'
  _symmetry_space_group_name_H-M    'P1'
  _symmetry_Int_Tables_number       1
  _symmetry_cell_setting            triclinic
  loop_
  _symmetry_equiv_pos_as_xyz
 x,y,z
_cell_length_a 18.3544
_cell_length_b 18.4339
_cell_length_c 46.4471
_cell_angle_alpha 81.899900
_cell_angle_beta 94.097700
_cell_angle_gamma 120.226500
loop_
  _atom_site_label
  _atom_site_type_symbol
  _atom_site_fract_x
  _atom_site_fract_y
  _atom_site_fract_z
C1 C 0.01051 0.16050 0.53445
 H2 H 0.07078 0.16409 0.53283
 C3 C 0.00212 0.21055 0.55224
 H4 H 0.05599 0.25272 0.56446
 C5 C -0.13354 0.10018 0.52069
 H6 H -0.18589 0.05696 0.50829
 C7 C -0.14478 0.14934 0.53843
 H8 H -0.20609 0.14373 0.53987
 N9 N -0.05684 0.10608 0.51938
 C10 C -0.00622 -0.09584 0.51022
 H11 H 0.00012 -0.09022 0.48692
 C12 C -0.00973 -0.16558 0.52793
 H13 H -0.00484 -0.21321 0.51833
 C14 C -0.02678 -0.04434 0.55115
 H15 H -0.03685 0.00085 0.56009
 C16 C -0.03031 -0.11264 0.56956
 H17 H -0.04158 -0.11872 0.59259
 Zn18 Zn -0.03291 0.04290 0.49692
 N19 N -0.01595 -0.03765 0.52201
 C20 C 0.13485 0.11664 0.47428
 N21 N 0.06382 0.12227 0.47485
 C22 C 0.05852 0.18814 0.45963
 C23 C 0.12546 0.25082 0.44236
 C24 C 0.20359 0.17828 0.45714
 C25 C -0.19372 -0.08764 0.48324
 C26 C -0.25236 -0.14614 0.46544
 C27 C -0.16403 -0.06049 0.42394
 C28 C -0.10707 -0.00416 0.44248
 N29 N -0.12191 -0.01932 0.47161
 H30 H 0.13794 0.06425 0.48686
 H31 H 0.00149 0.19125 0.46073
 H32 H 0.11994 0.30222 0.42996
 H33 H 0.25957 0.17304 0.45629
 H34 H -0.20293 -0.09936 0.50655
 H35 H -0.30745 -0.20230 0.47509
 H36 H -0.14954 -0.04917 0.40094
 H37 H -0.04884 0.04892 0.43366
 C38 C -0.02339 -0.17461 0.55780
 C39 C -0.07616 0.20469 0.55442
 C40 C -0.23628 -0.13328 0.43556
 C41 C 0.19843 0.24569 0.44096
 C42 C 1.22199 0.09458 0.12940
 H43 H 1.22670 0.15548 0.12942
 C44 C 1.27648 0.08704 0.11225
 H45 H 1.32321 0.14220 0.09890
 C46 C 1.15406 -0.05210 0.14640
 H47 H 1.10606 -0.10591 0.15973
 C48 C 1.20744 -0.06248 0.12941
 H49 H 1.20023 -0.12456 0.12949
 N50 N 1.16157 0.02545 0.14568
 C51 C 0.95491 0.07351 0.15167
 H52 H 0.95275 0.07482 0.17480
 C53 C 0.88916 0.07069 0.13375
 H54 H 0.83685 0.07109 0.14301
 C55 C 1.02148 0.06351 0.11165
 H56 H 1.07086 0.05685 0.10326
 C57 C 0.95733 0.06086 0.09303
 H58 H 0.95851 0.05354 0.07035
 Zn59 Zn 1.09064 0.04580 0.16667
 N60 N 1.01842 0.06816 0.14050
 C61 C 1.15408 0.20719 0.18703
 N62 N 1.16179 0.13732 0.18762
 C63 C 1.22242 0.12884 0.20380
 C64 C 1.27693 0.19090 0.22101
 C65 C 1.20748 0.27099 0.20407
 C66 C 0.95501 -0.11789 0.18181
 C67 C 0.88942 -0.18081 0.19979
 C68 C 0.95816 -0.10235 0.24044
 C69 C 1.02212 -0.04088 0.22175
 N70 N 1.01870 -0.04881 0.19291
 H71 H 1.10590 0.21283 0.17378
 H72 H 1.22724 0.07276 0.20369
 H73 H 1.32381 0.18263 0.23429
 H74 H 1.20010 0.32569 0.20411
 H75 H 0.95256 -0.12153 0.15868
 H76 H 0.83695 -0.23369 0.19059
 H77 H 0.95962 -0.09367 0.26311
 H78 H 1.07165 0.01534 0.23008
 C79 C 0.88961 0.06240 0.10429
 C80 C 1.26875 0.00779 0.11204
 C81 C 0.89024 -0.17182 0.22924
 C82 C 1.26897 0.26221 0.22136
 C83 C 0.05802 0.86966 0.87356
 H84 H 0.00109 0.80935 0.87238
 C85 C 0.12487 0.87415 0.89092
 H86 H 0.11939 0.81722 0.90331
 C87 C 0.13418 1.01773 0.85903
 H88 H 0.13723 1.07321 0.84647
 C89 C 0.20283 1.02506 0.87627
 H90 H 0.25870 1.08645 0.87721
 N91 N 0.06328 0.94084 0.85836
 C92 C -0.19425 0.89250 0.84979
 H93 H -0.20342 0.89504 0.82648
 C94 C -0.25286 0.89227 0.86756
 H95 H -0.30792 0.89332 0.85793
 C96 C -0.10767 0.89581 0.89060
 H97 H -0.04946 0.90109 0.89946
 C98 C -0.16464 0.89510 0.90910
 H99 H -0.15032 0.89836 0.93210
 Zn100 Zn -0.03340 0.92320 0.83620
 N101 N -0.12246 0.89612 0.86146
 C102 C -0.13389 0.76510 0.81237
 N103 N -0.05720 0.83607 0.81373
 C104 C 0.01020 0.84921 0.79872
 C105 C 0.00188 0.79078 0.78091
 C106 C -0.14506 0.70471 0.79461
 C107 C -0.00683 1.08865 0.82292
 C108 C -0.01032 1.15487 0.80521
 C109 C -0.03066 1.08140 0.76357
 C110 C -0.02716 1.01664 0.78198
 N111 N -0.01645 1.02074 0.81113
 H112 H -0.18628 0.75581 0.82472
 H113 H 0.07046 0.90602 0.80038
 H114 H 0.05579 0.80264 0.76873
 H115 H -0.20636 0.64887 0.79313
 H116 H -0.00059 1.08934 0.84624
 H117 H -0.00550 1.20737 0.81481
 H118 H -0.04182 1.07623 0.74052
 H119 H -0.03713 0.96139 0.77303
 C120 C -0.23679 0.89552 0.89742
 C121 C 0.19769 0.95247 0.89245
 C122 C -0.02384 1.15027 0.77532
 C123 C -0.07638 0.71818 0.77867
 C124 C 0.29243 -0.05183 0.01904
 C125 C 0.28310 -0.05889 -0.01017
 C126 C 0.35979 -0.04343 -0.02003
 N127 N 0.41583 -0.02596 0.00208
 C128 C 0.37478 -0.03148 0.02603
 C129 C 0.37793 -0.04128 -0.04928
 C130 C 0.45064 -0.03969 -0.05840
 C131 C 0.47295 -0.03027 -0.08719
 C132 C 0.54378 -0.03807 -0.08688
 C133 C 0.56330 -0.05118 -0.05792
 N134 N 0.50569 -0.05315 -0.04077
 C135 C 0.63128 -0.06355 -0.04805
 C136 C 0.66388 -0.05423 -0.01947
 C137 C 0.73100 -0.06531 -0.00932
 C138 C 0.74761 -0.04331 0.01841
 C139 C 0.68958 -0.02031 0.02445
 N140 N 0.63912 -0.02626 0.00117
 C141 C 0.68701 0.00968 0.05051
 C142 C 0.62001 0.01988 0.05842
 C143 C 0.62005 0.05649 0.08257
 C144 C 0.54186 0.04920 0.08373
 C145 C 0.49647 0.00905 0.06011
 N146 N 0.54413 -0.00951 0.04505
 C147 C 0.41233 -0.01176 0.05355
 H148 H 0.24451 -0.05919 0.03334
 H149 H 0.22637 -0.07350 -0.02272
 H150 H 0.52269 -0.04809 0.02856
 H151 H 0.44087 -0.02002 -0.10645
 H152 H 0.57729 -0.03417 -0.10582
 H153 H 0.76554 -0.08553 -0.02087
 H154 H 0.79693 -0.04400 0.03249
 H155 H 0.52095 0.07125 0.10004
 H156 H 0.49930 -0.07183 -0.01853
 H157 H 0.67076 0.08459 0.09800
 C158 C -0.10055 0.67935 0.65133
 C159 C -0.10829 0.66474 0.68104
 C160 C -0.09359 0.59823 0.69010
 N161 N -0.07744 0.57173 0.66691
 C162 C -0.08220 0.62077 0.64316
 C163 C -0.08718 0.56891 0.71943
 C164 C -0.07097 0.50178 0.72808
 C165 C -0.04208 0.48604 0.75534
 C166 C -0.03438 0.41568 0.75493
 C167 C -0.05953 0.38989 0.72751
 N168 N -0.08268 0.44217 0.71144
 C169 C -0.06479 0.31712 0.71865
 C170 C -0.08239 0.29609 0.68992
 C171 C -0.10076 0.21911 0.68173
 C172 C -0.10842 0.22601 0.65202
 C173 C -0.09364 0.30728 0.64297
 N174 N -0.07752 0.34995 0.66618
 C175 C -0.08712 0.34308 0.61365
 C176 C -0.07084 0.42648 0.60501
 C177 C -0.04186 0.47121 0.57777
 C178 C -0.03410 0.54931 0.57819
 C179 C -0.05932 0.54988 0.60558
 N180 N -0.08256 0.47436 0.62163
 C181 C -0.06454 0.61740 0.61444
 H182 H -0.10698 0.72804 0.63737
 H183 H -0.12112 0.70047 0.69447
 H184 H -0.11251 0.45341 0.64168
 H185 H -0.02732 0.52195 0.77355
 H186 H -0.01332 0.38646 0.77288
 H187 H -0.10726 0.16395 0.69569
 H188 H -0.12124 0.17743 0.63857
 H189 H -0.01296 0.59967 0.56025
 H190 H -0.11258 0.43314 0.69137
 H191 H -0.02707 0.45009 0.55957
 C192 C 0.74910 0.79214 0.31527
 C193 C 0.73267 0.79756 0.34301
 C194 C 0.66539 0.71933 0.35313
 N195 N 0.64035 0.66653 0.33248
 C196 C 0.69081 0.71105 0.30921
 C197 C 0.63288 0.69606 0.38172
 C198 C 0.56469 0.61569 0.39156
 C199 C 0.54518 0.58303 0.42052
 C200 C 0.47414 0.50436 0.42080
 C201 C 0.45172 0.49150 0.39200
 N202 N 0.50688 0.56005 0.37439
 C203 C 0.37883 0.42035 0.38285
 C204 C 0.36053 0.40441 0.35359
 C205 C 0.28370 0.34320 0.34371
 C206 C 0.29289 0.34548 0.31449
 C207 C 0.37530 0.40745 0.30752
 N208 N 0.41653 0.44297 0.33149
 C209 C 0.41276 0.42526 0.28000
 C210 C 0.49698 0.48852 0.27348
 C211 C 0.54220 0.49365 0.24986
 C212 C 0.62055 0.56453 0.25104
 C213 C 0.62076 0.60119 0.27521
 N214 N 0.54489 0.55478 0.28856
 C215 C 0.68798 0.67842 0.28313
 H216 H 0.79847 0.84215 0.30120
 H217 H 0.76741 0.85238 0.35457
 H218 H 0.52363 0.57202 0.30504
 H219 H 0.57882 0.61262 0.43946
 H220 H 0.44202 0.46199 0.44005
 H221 H 0.22695 0.30109 0.35625
 H222 H 0.24485 0.30493 0.30017
 H223 H 0.67119 0.58706 0.23563
 H224 H 0.50049 0.57238 0.35216
 H225 H 0.52109 0.45064 0.23354
 C226 C -0.08494 0.25349 0.57408
 C227 C -0.08767 0.29457 0.59157
 C228 C 0.81846 0.77155 0.24750
 C229 C 0.75871 0.72778 0.26337
 C230 C 0.26454 -0.04244 -0.08827
 C231 C 0.31747 -0.04113 -0.07108
 C232 C -0.03602 0.75067 0.57640
 C233 C -0.04870 0.68916 0.59310
 C234 C 0.32099 0.32310 0.24077
 C235 C 0.36362 0.37095 0.25809
 C236 C 0.71391 -0.09332 -0.08515
 C237 C 0.67442 -0.08065 -0.06881
 C238 C 0.32078 -0.00111 0.09271
 C239 C 0.36337 -0.00641 0.07544
 C240 C 0.71624 0.80863 0.41881
 C241 C 0.67637 0.75635 0.40249
 C242 C -0.03642 0.21235 0.75671
 C243 C -0.04904 0.26118 0.74000
 C244 C 0.81768 0.04715 0.08610
 C245 C 0.75782 0.03112 0.07027
 C246 C 0.26538 0.30778 0.42177
 C247 C 0.31837 0.35960 0.40463
 C248 C -0.08509 0.66062 0.75901
 C249 C -0.08777 0.61684 0.74151
   
