data_POSCAR
  _audit_creation_date              2014-09-24
  _audit_creation_method            'ToBaCCo'
  _symmetry_space_group_name_H-M    'P1'
  _symmetry_Int_Tables_number       1
  _symmetry_cell_setting            triclinic
  loop_
  _symmetry_equiv_pos_as_xyz
 x,y,z
_cell_length_a 27.6065
_cell_length_b 27.6704
_cell_length_c 27.6709
_cell_angle_alpha 89.919900
_cell_angle_beta 89.999200
_cell_angle_gamma 90.118200
loop_
  _atom_site_label
  _atom_site_type_symbol
  _atom_site_fract_x
  _atom_site_fract_y
  _atom_site_fract_z
C1 C 0.29074 0.22987 0.22867
 C2 C 0.27008 0.20916 0.27012
 C3 C 0.22927 0.22967 0.29075
 C4 C 0.20865 0.27115 0.27017
 C5 C 0.22908 0.29161 0.22921
 C6 C 0.27036 0.27086 0.20834
 C7 C 0.33031 0.21772 0.20098
 N8 N 0.33411 0.25034 0.16465
 C9 C 0.29786 0.28298 0.16860
 C10 C 0.20163 0.33134 0.21720
 N11 N 0.16534 0.33517 0.24989
 C12 C 0.16908 0.29877 0.28243
 C13 C 0.21719 0.20207 0.33043
 N14 N 0.24968 0.16565 0.33404
 C15 C 0.28216 0.16943 0.29757
 H16 H 0.35453 0.18752 0.20673
 H17 H 0.29203 0.31319 0.14438
 H18 H 0.20750 0.35563 0.18703
 H19 H 0.14482 0.29291 0.31263
 H20 H 0.18712 0.20796 0.35485
 H21 H 0.31224 0.14511 0.29156
 C22 C 0.70818 -0.23018 0.22844
 C23 C 0.72890 -0.20953 0.26985
 C24 C 0.76996 -0.22985 0.29021
 C25 C 0.79079 -0.27106 0.26944
 C26 C 0.77032 -0.29149 0.22852
 C27 C 0.72877 -0.27093 0.20790
 C28 C 0.66836 -0.21816 0.20096
 N29 N 0.66465 -0.25066 0.16457
 C30 C 0.70117 -0.28308 0.16825
 C31 C 0.79801 -0.33100 0.21633
 N32 N 0.83446 -0.33467 0.24889
 C33 C 0.83062 -0.29844 0.28152
 C34 C 0.78209 -0.20240 0.32989
 N35 N 0.74939 -0.16620 0.33379
 C36 C 0.71672 -0.17001 0.29748
 H37 H 0.64397 -0.18814 0.20694
 H38 H 0.70715 -0.31314 0.14395
 H39 H 0.79212 -0.35522 0.18616
 H40 H 0.85491 -0.29251 0.31169
 H41 H 0.81235 -0.20820 0.35409
 H42 H 0.68646 -0.14584 0.29169
 C43 C 0.70913 0.23041 0.77063
 C44 C 0.73012 0.20968 0.72946
 C45 C 0.77111 0.23026 0.70905
 C46 C 0.79162 0.27186 0.72958
 C47 C 0.77087 0.29235 0.77029
 C48 C 0.72940 0.27151 0.79093
 C49 C 0.66932 0.21816 0.79806
 N50 N 0.66530 0.25087 0.83420
 C51 C 0.70161 0.28364 0.83042
 C52 C 0.79826 0.33220 0.78235
 N53 N 0.83481 0.33605 0.74992
 C54 C 0.83133 0.29958 0.71750
 C55 C 0.78347 0.20262 0.66958
 N56 N 0.75095 0.16609 0.66589
 C57 C 0.71819 0.16986 0.70210
 H58 H 0.64516 0.18783 0.79224
 H59 H 0.70733 0.31393 0.85453
 H60 H 0.79213 0.35651 0.81239
 H61 H 0.85582 0.29368 0.68750
 H62 H 0.81371 0.20856 0.64535
 H63 H 0.68802 0.14549 0.70798
 C64 C 0.29162 -0.23097 0.77222
 C65 C 0.27097 -0.21027 0.73079
 C66 C 0.22976 -0.23051 0.71054
 C67 C 0.20870 -0.27166 0.73146
 C68 C 0.22909 -0.29214 0.77241
 C69 C 0.27081 -0.27167 0.79291
 C70 C 0.33154 -0.21900 0.79961
 N71 N 0.33510 -0.25148 0.83609
 C72 C 0.29839 -0.28384 0.83258
 C73 C 0.20116 -0.33160 0.78473
 N74 N 0.16466 -0.33519 0.75221
 C75 C 0.16870 -0.29895 0.71949
 C76 C 0.21775 -0.20301 0.67081
 N77 N 0.25066 -0.16689 0.66677
 C78 C 0.28336 -0.17077 0.70304
 H79 H 0.35607 -0.18901 0.79351
 H80 H 0.29225 -0.31386 0.85700
 H81 H 0.20695 -0.35586 0.81493
 H82 H 0.14443 -0.29298 0.68931
 H83 H 0.18740 -0.20874 0.64667
 H84 H 0.31377 -0.14666 0.70874
 C85 C 0.70825 -0.23066 0.77211
 C86 C 0.72900 -0.20995 0.73069
 C87 C 0.77005 -0.23026 0.71036
 C88 C 0.79086 -0.27151 0.73119
 C89 C 0.77036 -0.29200 0.77213
 C90 C 0.72881 -0.27146 0.79271
 C91 C 0.66844 -0.21865 0.79956
 N92 N 0.66470 -0.25119 0.83600
 C93 C 0.70119 -0.28363 0.83238
 C94 C 0.79804 -0.33155 0.78437
 N95 N 0.83449 -0.33518 0.75182
 C96 C 0.83067 -0.29889 0.71915
 C97 C 0.78220 -0.20273 0.67066
 N98 N 0.74952 -0.16652 0.66671
 C99 C 0.71683 -0.17038 0.70302
 H100 H 0.64409 -0.18859 0.79355
 H101 H 0.70715 -0.31372 0.85674
 H102 H 0.79213 -0.35581 0.81456
 H103 H 0.85497 -0.29293 0.68898
 H104 H 0.81247 -0.20851 0.64646
 H105 H 0.68659 -0.14621 0.70878
 C106 C 0.29156 0.22996 0.77074
 C107 C 0.27059 0.20915 0.72957
 C108 C 0.22952 0.22949 0.70924
 C109 C 0.20893 0.27091 0.72987
 C110 C 0.22966 0.29148 0.77057
 C111 C 0.27121 0.27089 0.79114
 C112 C 0.33143 0.21792 0.79811
 N113 N 0.33540 0.25059 0.83431
 C114 C 0.29901 0.28314 0.83062
 C115 C 0.20216 0.33112 0.78268
 N116 N 0.16557 0.33480 0.75031
 C117 C 0.16915 0.29838 0.71786
 C118 C 0.21719 0.20183 0.66975
 N119 N 0.24979 0.16553 0.66596
 C120 C 0.28259 0.16946 0.70214
 H121 H 0.35565 0.18776 0.79221
 H122 H 0.29323 0.31333 0.85480
 H123 H 0.20823 0.35546 0.81270
 H124 H 0.14466 0.29242 0.68789
 H125 H 0.18690 0.20760 0.64557
 H126 H 0.31283 0.14527 0.70794
 C127 C 0.29168 -0.23048 0.22833
 C128 C 0.27105 -0.20984 0.26974
 C129 C 0.22983 -0.23009 0.29002
 C130 C 0.20874 -0.27120 0.26916
 C131 C 0.22911 -0.29162 0.22823
 C132 C 0.27083 -0.27114 0.20769
 C133 C 0.33160 -0.21851 0.20091
 N134 N 0.33513 -0.25096 0.16447
 C135 C 0.29839 -0.28329 0.16805
 C136 C 0.20117 -0.33105 0.21597
 N137 N 0.16467 -0.33467 0.24851
 C138 C 0.16873 -0.29849 0.28118
 C139 C 0.21784 -0.20267 0.32973
 N140 N 0.25078 -0.16657 0.33372
 C141 C 0.28347 -0.17040 0.29744
 H142 H 0.35617 -0.18856 0.20696
 H143 H 0.29223 -0.31328 0.14368
 H144 H 0.20693 -0.35526 0.18579
 H145 H 0.14448 -0.29256 0.31136
 H146 H 0.18750 -0.20843 0.35388
 H147 H 0.31388 -0.14628 0.29172
 C148 C 0.70995 0.23032 0.22878
 C149 C 0.73062 0.20968 0.27021
 C150 C 0.77135 0.23043 0.29093
 C151 C 0.79188 0.27209 0.27045
 C152 C 0.77143 0.29249 0.22948
 C153 C 0.73024 0.27148 0.20854
 C154 C 0.67043 0.21795 0.20102
 N155 N 0.66659 0.25062 0.16474
 C156 C 0.70275 0.28349 0.16879
 C157 C 0.79878 0.33243 0.21753
 N158 N 0.83502 0.33643 0.25027
 C159 C 0.83139 0.29996 0.28279
 C160 C 0.78346 0.20285 0.33058
 N161 N 0.75106 0.16620 0.33410
 C162 C 0.71861 0.16983 0.29759
 H163 H 0.64628 0.18759 0.20670
 H164 H 0.70852 0.31379 0.14465
 H165 H 0.79284 0.35668 0.18734
 H166 H 0.85564 0.29416 0.31301
 H167 H 0.81347 0.20892 0.35505
 H168 H 0.68860 0.14532 0.29151
 O169 O 0.21001 0.04599 0.45309
 O170 O 0.21047 -0.04818 0.54727
 O171 O 0.20998 0.04594 0.54716
 O172 O 0.21053 -0.04811 0.45310
 O173 O 0.29064 -0.04756 0.45313
 O174 O 0.29009 0.04649 0.54718
 O175 O 0.29058 -0.04764 0.54730
 O176 O 0.29012 0.04655 0.45311
 Cu177 Cu 0.20216 -0.00117 0.50016
 Cu178 Cu 0.29845 -0.00050 0.50019
 C179 C 0.24999 0.06218 0.43722
 C180 C 0.25060 -0.06378 0.56321
 C181 C 0.24995 0.06212 0.56302
 C182 C 0.25067 -0.06368 0.43721
 O183 O 0.79070 0.04652 0.54716
 O184 O 0.79000 -0.04756 0.45310
 O185 O 0.79067 0.04656 0.45308
 O186 O 0.79006 -0.04763 0.54727
 O187 O 0.70995 -0.04728 0.54731
 O188 O 0.71056 0.04691 0.45311
 O189 O 0.70989 -0.04721 0.45313
 O190 O 0.71059 0.04686 0.54719
 Cu191 Cu 0.79844 -0.00059 0.50015
 Cu192 Cu 0.70216 -0.00016 0.50019
 C193 C 0.75075 0.06260 0.56301
 C194 C 0.74983 -0.06323 0.43721
 C195 C 0.75071 0.06266 0.43722
 C196 C 0.74991 -0.06333 0.56321
 O197 O 0.45318 0.21051 0.04528
 O198 O 0.54751 0.21067 -0.04883
 O199 O 0.54747 0.21054 0.04529
 O200 O 0.45315 0.21064 -0.04882
 O201 O 0.45328 0.29057 -0.04883
 O202 O 0.54760 0.29047 0.04527
 O203 O 0.54764 0.29060 -0.04884
 O204 O 0.45331 0.29044 0.04526
 Cu205 Cu 0.50032 0.20252 -0.00178
 Cu206 Cu 0.50048 0.29859 -0.00180
 C207 C 0.43734 0.25045 0.06117
 C208 C 0.56350 0.25066 -0.06470
 C209 C 0.56343 0.25049 0.06119
 C210 C 0.43727 0.25062 -0.06468
 O211 O 0.54715 0.78896 0.04721
 O212 O 0.45279 0.78863 -0.04693
 O213 O 0.45280 0.78883 0.04720
 O214 O 0.54716 0.78875 -0.04693
 O215 O 0.54709 0.70883 -0.04666
 O216 O 0.45272 0.70891 0.04748
 O217 O 0.45272 0.70870 -0.04665
 O218 O 0.54708 0.70903 0.04749
 Cu219 Cu 0.49998 0.79685 0.00011
 Cu220 Cu 0.49990 0.70081 0.00044
 C221 C 0.56303 0.74905 0.06324
 C222 C 0.43682 0.74862 -0.06267
 C223 C 0.43683 0.74889 0.06322
 C224 C 0.56306 0.74878 -0.06268
 O225 O 0.04627 0.45426 0.20970
 O226 O -0.04797 0.54829 0.20925
 O227 O 0.04643 0.54836 0.20908
 O228 O -0.04800 0.45415 0.20987
 O229 O -0.04788 0.45451 0.28979
 O230 O 0.04656 0.54873 0.28900
 O231 O -0.04784 0.54866 0.28917
 O232 O 0.04640 0.45463 0.28963
 Cu233 Cu -0.00084 0.50125 0.20141
 Cu234 Cu -0.00069 0.50170 0.29746
 C235 C 0.06221 0.43856 0.24973
 C236 C -0.06384 0.56432 0.24914
 C237 C 0.06248 0.56440 0.24892
 C238 C -0.06383 0.43838 0.24995
 O239 O 0.04644 0.54762 0.79159
 O240 O -0.04801 0.45341 0.79065
 O241 O 0.04628 0.45352 0.79082
 O242 O -0.04797 0.54755 0.79142
 O243 O -0.04783 0.54827 0.71150
 O244 O 0.04641 0.45425 0.71090
 O245 O -0.04788 0.45413 0.71073
 O246 O 0.04657 0.54834 0.71167
 Cu247 Cu -0.00084 0.50047 0.79919
 Cu248 Cu -0.00068 0.50135 0.70314
 C249 C 0.06249 0.56384 0.75178
 C250 C -0.06385 0.43783 0.75054
 C251 C 0.06224 0.43800 0.75076
 C252 C -0.06383 0.56376 0.75156
 C253 C 0.36989 0.25036 0.12874
 C254 C 0.40068 0.25039 0.09787
 C255 C 0.63066 0.74926 0.13071
 C256 C 0.59977 0.74917 0.09991
 C257 C 0.63124 0.25078 -0.13202
 C258 C 0.60029 0.25072 -0.10129
 C259 C 0.36911 0.74849 -0.13005
 C260 C 0.40003 0.74851 -0.09928
 C261 C 0.12958 0.37102 0.24992
 C262 C 0.09882 0.40187 0.24988
 C263 C 0.13049 0.63106 0.75220
 C264 C 0.09942 0.60037 0.75209
 C265 C -0.13154 0.63156 0.24891
 C266 C -0.10061 0.60086 0.24898
 C267 C -0.13130 0.37008 0.75003
 C268 C -0.10050 0.40103 0.75021
 C269 C 0.24973 0.12978 0.36983
 C270 C 0.24983 0.09891 0.40061
 C271 C 0.75103 0.13021 0.63021
 C272 C 0.75097 0.09932 0.59953
 C273 C 0.25075 -0.13113 0.63086
 C274 C 0.25073 -0.10038 0.59996
 C275 C 0.74945 -0.13049 0.36965
 C276 C 0.74959 -0.09978 0.40050
 C277 C 0.63072 0.74877 -0.13013
 C278 C 0.59981 0.74876 -0.09933
 C279 C 0.36948 0.25063 -0.13193
 C280 C 0.40046 0.25064 -0.10123
 C281 C 0.36914 0.74897 0.13063
 C282 C 0.40006 0.74892 0.09985
 C283 C 0.63083 0.25052 0.12882
 C284 C 0.60006 0.25048 0.09792
 C285 C -0.13152 0.63103 0.75182
 C286 C -0.10060 0.60031 0.75175
 C287 C -0.13117 0.37053 0.25029
 C288 C -0.10043 0.40154 0.25021
 C289 C 0.12972 0.37057 0.75041
 C290 C 0.09890 0.40136 0.75055
 C291 C 0.13049 0.63160 0.24854
 C292 C 0.09941 0.60093 0.24866
 C293 C 0.74958 -0.13073 0.63082
 C294 C 0.74970 -0.09996 0.59994
 C295 C 0.25087 -0.13088 0.36960
 C296 C 0.25084 -0.10019 0.40048
 C297 C 0.75102 0.13030 0.36986
 C298 C 0.75092 0.09940 0.40062
 C299 C 0.24974 0.12968 0.63025
 C300 C 0.24978 0.09882 0.59955
   
