data_POSCAR
  _audit_creation_date              2014-09-24
  _audit_creation_method            'ToBaCCo'
  _symmetry_space_group_name_H-M    'P1'
  _symmetry_Int_Tables_number       1
  _symmetry_cell_setting            triclinic
  loop_
  _symmetry_equiv_pos_as_xyz
 x,y,z
_cell_length_a 41.5083
_cell_length_b 41.4795
_cell_length_c 41.5796
_cell_angle_alpha 90.047000
_cell_angle_beta 90.058100
_cell_angle_gamma 89.839500
loop_
  _atom_site_label
  _atom_site_type_symbol
  _atom_site_fract_x
  _atom_site_fract_y
  _atom_site_fract_z
C1 C 0.33935 0.33604 1.37958
 C2 C 0.31161 0.34830 1.39454
 C3 C 0.29620 0.37575 1.38218
 C4 C 0.30854 0.39123 1.35489
 C5 C 0.33624 0.37927 1.33966
 C6 C 0.35175 0.35154 1.35201
 C7 C 0.35468 0.30831 1.39146
 C8 C 0.38209 0.29594 1.37606
 C9 C 0.39450 0.31135 1.34877
 C10 C 0.37946 0.33911 1.33658
 C11 C 0.39137 0.35444 1.30900
 C12 C 0.37589 0.38187 1.29675
 C13 C 0.34849 0.39430 1.31205
 H14 H 0.30187 0.33636 1.41559
 H15 H 0.29642 0.41239 1.34537
 H16 H 0.34512 0.29619 1.41250
 H17 H 0.41565 0.30159 1.33688
 H18 H 0.41249 0.34494 1.29689
 H19 H 0.33660 0.41546 1.30229
 C20 C 1.16151 0.66428 0.87929
 C21 C 1.18922 0.65202 0.89434
 C22 C 1.20467 0.62459 0.88199
 C23 C 1.19242 0.60912 0.85461
 C24 C 1.16474 0.62108 0.83927
 C25 C 1.14919 0.64880 0.85162
 C26 C 1.14614 0.69200 0.89116
 C27 C 1.11875 0.70435 0.87567
 C28 C 1.10643 0.68896 0.84829
 C29 C 1.12151 0.66122 0.83610
 C30 C 1.10967 0.64590 0.80844
 C31 C 1.12519 0.61849 0.79618
 C32 C 1.15256 0.60607 0.81157
 H33 H 1.19890 0.66395 0.91547
 H34 H 1.20456 0.58797 0.84509
 H35 H 1.15563 0.70410 0.91228
 H36 H 1.08529 0.69872 0.83633
 H37 H 1.08857 0.65540 0.79626
 H38 H 1.16448 0.58491 0.80181
 C39 C 0.66042 -0.16424 0.12036
 C40 C 0.68806 -0.15204 0.10531
 C41 C 0.70343 -0.12468 0.11768
 C42 C 0.69121 -0.10919 0.14505
 C43 C 0.66361 -0.12107 0.16039
 C44 C 0.64811 -0.14874 0.14803
 C45 C 0.64511 -0.19192 0.10848
 C46 C 0.61779 -0.20421 0.12398
 C47 C 0.60548 -0.18880 0.15137
 C48 C 0.62051 -0.16109 0.16356
 C49 C 0.60869 -0.14576 0.19124
 C50 C 0.62417 -0.11840 0.20350
 C51 C 0.65147 -0.10604 0.18810
 H52 H 0.69779 -0.16393 0.08419
 H53 H 0.70338 -0.08810 0.15451
 H54 H 0.65460 -0.20404 0.08736
 H55 H 0.58441 -0.19850 0.16333
 H56 H 0.58765 -0.15521 0.20343
 H57 H 0.66335 -0.08492 0.19787
 C58 C -0.16115 1.16358 -0.38026
 C59 C -0.18892 1.15147 -0.39522
 C60 C -0.20436 1.12417 -0.38279
 C61 C -0.19203 1.10869 -0.35544
 C62 C -0.16430 1.12049 -0.34020
 C63 C -0.14876 1.14807 -0.35262
 C64 C -0.14577 1.19117 -0.39218
 C65 C -0.11835 1.20335 -0.37677
 C66 C -0.10596 1.18796 -0.34944
 C67 C -0.12102 1.16035 -0.33718
 C68 C -0.10912 1.14503 -0.30954
 C69 C -0.12464 1.11777 -0.29721
 C70 C -0.15207 1.10548 -0.31252
 H71 H -0.19865 1.16342 -0.41632
 H72 H -0.20418 1.08765 -0.34586
 H73 H -0.15525 1.20335 -0.41325
 H74 H -0.08480 1.19767 -0.33760
 H75 H -0.08798 1.15444 -0.29742
 H76 H -0.16398 1.08444 -0.30269
 C77 C 0.66179 0.66510 0.62200
 C78 C 0.68950 0.65243 0.60733
 C79 C 0.70454 0.62497 0.62002
 C80 C 0.69194 0.60985 0.64735
 C81 C 0.66425 0.62220 0.66232
 C82 C 0.64908 0.64996 0.64964
 C83 C 0.64680 0.69286 0.60978
 C84 C 0.61940 0.70560 0.62489
 C85 C 0.60668 0.69056 0.65225
 C86 C 0.62139 0.66278 0.66478
 C87 C 0.60916 0.64779 0.69240
 C88 C 0.62430 0.62033 0.70499
 C89 C 0.65169 0.60752 0.68997
 H90 H 0.69953 0.66403 0.58624
 H91 H 0.70385 0.58868 0.65705
 H92 H 0.65660 0.70468 0.58868
 H93 H 0.58554 0.70061 0.66391
 H94 H 0.58804 0.65759 0.70430
 H95 H 0.66331 0.58633 0.69998
 C96 C 0.83762 0.33518 0.12105
 C97 C 0.80984 0.34784 0.10646
 C98 C 0.79482 0.37532 0.11923
 C99 C 0.80758 0.39043 0.14657
 C100 C 0.83533 0.37809 0.16145
 C101 C 0.85044 0.35032 0.14868
 C102 C 0.85257 0.30743 0.10875
 C103 C 0.88005 0.29470 0.12378
 C104 C 0.89287 0.30974 0.15112
 C105 C 0.87821 0.33752 0.16373
 C106 C 0.89057 0.35251 0.19135
 C107 C 0.87547 0.37996 0.20402
 C108 C 0.84801 0.39276 0.18909
 H109 H 0.79978 0.33618 0.08536
 H110 H 0.79577 0.41163 0.15641
 H111 H 0.84269 0.29559 0.08766
 H112 H 0.91408 0.29970 0.16272
 H113 H 0.91174 0.34271 0.20318
 H114 H 0.83644 0.41395 0.19917
 C115 C 0.33693 0.16402 0.87919
 C116 C 0.30923 0.15144 0.89381
 C117 C 0.29419 0.12407 0.88099
 C118 C 0.30685 0.10897 0.85358
 C119 C 0.33452 0.12124 0.83867
 C120 C 0.34966 0.14889 0.85149
 C121 C 0.35191 0.19167 0.89153
 C122 C 0.37928 0.20430 0.87647
 C123 C 0.39201 0.18930 0.84908
 C124 C 0.37734 0.16162 0.83642
 C125 C 0.38961 0.14668 0.80873
 C126 C 0.37450 0.11933 0.79601
 C127 C 0.34712 0.10659 0.81096
 H128 H 0.29924 0.16309 0.91496
 H129 H 0.29502 0.08786 0.84370
 H130 H 0.34217 0.20356 0.91265
 H131 H 0.41314 0.19934 0.83753
 H132 H 0.41072 0.15643 0.79690
 H133 H 0.33553 0.08549 0.80083
 C134 C 0.16165 0.83500 0.37877
 C135 C 0.18932 0.84762 0.39347
 C136 C 0.20430 0.87500 0.38076
 C137 C 0.19165 0.89010 0.35337
 C138 C 0.16401 0.87781 0.33837
 C139 C 0.14890 0.85012 0.35108
 C140 C 0.14672 0.80732 0.39102
 C141 C 0.11935 0.79463 0.37586
 C142 C 0.10661 0.80965 0.34845
 C143 C 0.12125 0.83736 0.33590
 C144 C 0.10899 0.85232 0.30820
 C145 C 0.12408 0.87970 0.29560
 C146 C 0.15142 0.89246 0.31065
 H147 H 0.19939 0.83604 0.41461
 H148 H 0.20352 0.91122 0.34364
 H149 H 0.15654 0.79550 0.41216
 H150 H 0.08550 0.79964 0.33675
 H151 H 0.08791 0.84256 0.29628
 H152 H 0.16300 0.91359 0.30062
 Zn153 Zn 0.03910 0.98045 0.00522
 Zn154 Zn -0.02565 0.97406 -0.02613
 Zn155 Zn -0.01953 1.00543 0.03857
 Zn156 Zn 0.00539 1.03895 -0.01976
 O157 O -0.00021 0.99969 -0.00056
 O158 O 0.04217 0.94262 -0.01516
 O159 O -0.06205 0.96168 -0.00638
 O160 O 0.00428 0.99057 0.07135
 O161 O -0.00563 0.93762 -0.03845
 O162 O 0.04781 0.97204 0.04658
 O163 O -0.05727 0.98501 0.04138
 O164 O -0.00960 1.07179 0.00399
 O165 O -0.03804 0.99391 -0.06251
 O166 O -0.02807 1.04687 0.04731
 O167 O -0.01498 1.04181 -0.05754
 O168 O 0.04678 1.04773 -0.02807
 O169 O 0.07183 1.00431 -0.00951
 C170 C 0.02246 0.92709 -0.03249
 C171 C -0.07268 0.96764 0.02159
 C172 C 0.03168 0.97704 0.07197
 C173 C -0.02314 1.07235 0.03128
 C174 C -0.03220 1.02198 -0.07304
 C175 C 0.07230 1.03168 -0.02302
 Zn176 Zn 0.49471 -0.03880 0.48087
 Zn177 Zn 0.51961 -0.00511 0.53922
 Zn178 Zn 0.52579 0.02604 0.47449
 Zn179 Zn 0.46102 0.01980 0.50568
 O180 O 0.50032 0.00051 0.50003
 O181 O 0.50965 -0.07157 0.50470
 O182 O 0.55735 0.01532 0.54212
 O183 O 0.53816 0.00608 0.43815
 O184 O 0.52813 -0.04653 0.54803
 O185 O 0.51508 -0.04179 0.44314
 O186 O 0.56220 0.03843 0.49431
 O187 O 0.45800 0.05760 0.48529
 O188 O 0.49574 0.00978 0.57193
 O189 O 0.50582 0.06247 0.46211
 O190 O 0.45223 0.02824 0.54700
 O191 O 0.42829 -0.00407 0.49085
 O192 O 0.45333 -0.04759 0.47247
 C193 C 0.52318 -0.07206 0.53204
 C194 C 0.57279 0.03258 0.52233
 C195 C 0.53231 -0.02201 0.42764
 C196 C 0.47775 0.07307 0.46801
 C197 C 0.46831 0.02326 0.57245
 C198 C 0.42781 -0.03149 0.47742
 Zn199 Zn 0.96156 0.48071 0.49400
 Zn200 Zn 1.02639 0.47425 0.52525
 Zn201 Zn 1.02001 0.50558 0.46058
 Zn202 Zn 0.99506 0.53916 0.51901
 O203 O 1.00079 0.49989 0.49974
 O204 O 0.95871 0.44288 0.51429
 O205 O 1.06282 0.46182 0.50541
 O206 O 0.99620 0.49075 0.42781
 O207 O 1.00655 0.43782 0.53753
 O208 O 0.95278 0.47233 0.45265
 O209 O 1.05784 0.48512 0.45768
 O210 O 1.00983 0.57197 0.49526
 O211 O 1.03876 0.49410 0.56165
 O212 O 1.02835 0.54701 0.45188
 O213 O 1.01551 0.54203 0.55675
 O214 O 0.95366 0.54798 0.52745
 O215 O 0.92876 0.50458 0.50887
 C216 C 0.97851 0.42732 0.53156
 C217 C 1.07336 0.46776 0.47743
 C218 C 0.96884 0.47728 0.42723
 C219 C 1.02333 0.57250 0.46794
 C220 C 1.03284 0.52219 0.57221
 C221 C 0.92820 0.53195 0.52244
 Zn222 Zn 0.48058 0.49478 0.96145
 Zn223 Zn 0.53907 0.51968 0.99494
 Zn224 Zn 0.47426 0.52618 1.02613
 Zn225 Zn 0.50560 0.46126 1.01988
 O226 O 0.49984 0.50051 1.00064
 O227 O 0.50436 0.50954 0.92871
 O228 O 0.54196 0.55752 1.01530
 O229 O 0.43781 0.53861 1.00625
 O230 O 0.54778 0.52805 0.95360
 O231 O 0.44277 0.51527 0.95851
 O232 O 0.49411 0.56260 1.03846
 O233 O 0.48526 0.45846 1.05763
 O234 O 0.57190 0.49579 1.00976
 O235 O 0.46193 0.50637 1.06250
 O236 O 0.54702 0.45240 1.02826
 O237 O 0.49070 0.42845 0.99616
 O238 O 0.47215 0.45335 0.95276
 C239 C 0.53171 0.52304 0.92817
 C240 C 0.52217 0.57309 1.03256
 C241 C 0.42726 0.53266 0.97824
 C242 C 0.46792 0.47831 1.07307
 C243 C 0.57248 0.46841 1.02326
 C244 C 0.47714 0.42788 0.96884
 C245 C 1.18378 0.41023 0.46458
 C246 C 1.18680 0.38777 0.43490
 C247 C 1.21413 0.40910 0.42209
 C248 C 1.21162 0.43136 0.45155
 C249 C 1.15964 0.43118 0.44584
 C250 C 1.18699 0.45249 0.43303
 C251 C 1.16219 0.40892 0.41639
 C252 C 1.18996 0.43005 0.40341
 C253 C 1.24422 0.39695 0.40821
 C254 C 1.26874 0.38700 0.39623
 C255 C 1.12907 0.44377 0.45824
 C256 C 1.10372 0.45450 0.46753
 H257 H 1.18088 0.40222 0.48988
 H258 H 1.18706 0.36102 0.43550
 H259 H 1.23230 0.44045 0.46584
 H260 H 1.18674 0.47925 0.43241
 H261 H 1.14154 0.39982 0.40207
 H262 H 1.19282 0.43808 0.37811
 C263 C 0.31577 0.58827 0.96560
 C264 C 0.31294 0.61248 0.93733
 C265 C 0.28663 0.59126 0.92230
 C266 C 0.28895 0.56725 0.95034
 C267 C 0.34103 0.56923 0.94635
 C268 C 0.31471 0.54803 0.93132
 C269 C 0.33867 0.59323 0.91831
 C270 C 0.31192 0.57221 0.90311
 C271 C 0.25657 0.60339 0.90826
 C272 C 0.23209 0.61333 0.89615
 C273 C 0.37157 0.55665 0.95890
 C274 C 0.39690 0.54593 0.96827
 H275 H 0.31770 0.59474 0.99144
 H276 H 0.31187 0.63912 0.93964
 H277 H 0.26815 0.55670 0.96334
 H278 H 0.31576 0.52138 0.92899
 H279 H 0.35944 0.60379 0.90528
 H280 H 0.31002 0.56572 0.87727
 C281 C -0.19220 0.93754 0.03840
 C282 C -0.20055 0.90141 0.04297
 C283 C -0.21317 0.90915 0.07684
 C284 C -0.20532 0.94505 0.07248
 C285 C -0.15880 0.93115 0.05308
 C286 C -0.17148 0.93886 0.08694
 C287 C -0.16664 0.89524 0.05744
 C288 C -0.17976 0.90279 0.09149
 C289 C -0.24320 0.89704 0.09074
 C290 C -0.26766 0.88714 0.10275
 C291 C -0.12829 0.94371 0.04069
 C292 C -0.10299 0.95442 0.03144
 H293 H -0.19696 0.95195 0.01641
 H294 H -0.21286 0.88587 0.02505
 H295 H -0.22154 0.96540 0.07882
 H296 H -0.15921 0.95439 0.10490
 H297 H -0.15041 0.87490 0.05110
 H298 H -0.17496 0.88839 0.11348
 C299 C 0.69142 0.06819 0.53595
 C300 C 0.69757 0.10354 0.54642
 C301 C 0.71351 0.09109 0.57739
 C302 C 0.70787 0.05596 0.56714
 C303 C 0.65902 0.06908 0.55377
 C304 C 0.67502 0.05667 0.58474
 C305 C 0.66467 0.10421 0.56402
 C306 C 0.68110 0.09196 0.59517
 C307 C 0.74362 0.10319 0.59121
 C308 C 0.76816 0.11305 0.60317
 C309 C 0.62846 0.05651 0.54144
 C310 C 0.60312 0.04580 0.53221
 H311 H 0.69531 0.05828 0.51144
 H312 H 0.70720 0.12295 0.53082
 H313 H 0.72596 0.03626 0.56858
 H314 H 0.66542 0.03726 0.60037
 H315 H 0.64657 0.12391 0.56260
 H316 H 0.67718 0.10185 0.61968
 C317 C 0.46187 0.17989 0.40518
 C318 C 0.42858 0.18376 0.38868
 C319 C 0.42218 0.21382 0.40934
 C320 C 0.45525 0.21047 0.42564
 C321 C 0.44599 0.15934 0.43145
 C322 C 0.43959 0.18941 0.45210
 C323 C 0.41292 0.16274 0.41514
 C324 C 0.40634 0.19324 0.43560
 C325 C 0.40826 0.24393 0.39718
 C326 C 0.39622 0.26846 0.38725
 C327 C 0.45843 0.12876 0.44405
 C328 C 0.46776 0.10342 0.45478
 H329 H 0.48485 0.17405 0.39282
 H330 H 0.42389 0.18177 0.36247
 H331 H 0.47249 0.23045 0.42983
 H332 H 0.44426 0.19140 0.47832
 H333 H 0.39565 0.14279 0.41094
 H334 H 0.38336 0.19905 0.44798
 C335 C 0.95177 0.32833 0.60203
 C336 C 0.91542 0.32014 0.60376
 C337 C 0.92271 0.28673 0.58950
 C338 C 0.95887 0.29441 0.58796
 C339 C 0.94673 0.34110 0.56772
 C340 C 0.95404 0.30770 0.55344
 C341 C 0.91058 0.33337 0.56929
 C342 C 0.91768 0.29954 0.55520
 C343 C 0.90869 0.25670 0.60152
 C344 C 0.89661 0.23225 0.61139
 C345 C 0.95925 0.37163 0.55528
 C346 C 0.96859 0.39696 0.54468
 H347 H 0.96594 0.34050 0.62114
 H348 H 0.89937 0.32493 0.62458
 H349 H 0.97856 0.27802 0.59577
 H350 H 0.97008 0.30293 0.53261
 H351 H 0.89085 0.34972 0.56149
 H352 H 0.90351 0.28739 0.53608
 C353 C 0.05127 0.82927 -0.10396
 C354 C 0.08745 0.81998 -0.10371
 C355 C 0.07845 0.78640 -0.09106
 C356 C 0.04247 0.79519 -0.09150
 C357 C 0.05445 0.84084 -0.06899
 C358 C 0.04543 0.80727 -0.05632
 C359 C 0.09042 0.83199 -0.06858
 C360 C 0.08161 0.79800 -0.05610
 C361 C 0.09246 0.75632 -0.10321
 C362 C 0.10457 0.73181 -0.11313
 C363 C 0.04191 0.87139 -0.05640
 C364 C 0.03251 0.89673 -0.04570
 H365 H 0.03865 0.84247 -0.12349
 H366 H 0.10489 0.82488 -0.12332
 H367 H 0.02291 0.77969 -0.10107
 H368 H 0.02800 0.80239 -0.03671
 H369 H 0.11002 0.84745 -0.05903
 H370 H 0.09425 0.78482 -0.03656
 C371 C 0.53409 0.69029 1.07417
 C372 C 0.55070 0.69468 1.10732
 C373 C 0.57770 0.71380 1.09084
 C374 C 0.56132 0.70991 1.05792
 C375 C 0.55384 0.65935 1.06892
 C376 C 0.58083 0.67850 1.05248
 C377 C 0.57022 0.66325 1.10184
 C378 C 0.59739 0.68283 1.08556
 C379 C 0.59164 0.74387 1.10292
 C380 C 0.60368 0.76836 1.11280
 C381 C 0.54139 0.62880 1.05640
 C382 C 0.53208 0.60345 1.04574
 H383 H 0.50791 0.69300 1.06936
 H384 H 0.53847 0.70170 1.13001
 H385 H 0.55783 0.72943 1.03999
 H386 H 0.59310 0.67152 1.02979
 H387 H 0.57373 0.64374 1.11977
 H388 H 0.62357 0.68009 1.09036
 C389 C 0.43164 0.46475 1.19141
 C390 C 0.39656 0.45342 1.19728
 C391 C 0.40971 0.42279 1.21345
 C392 C 0.44457 0.43390 1.20808
 C393 C 0.43160 0.44668 1.15914
 C394 C 0.44471 0.41605 1.17535
 C395 C 0.39675 0.43556 1.16451
 C396 C 0.40969 0.40475 1.18116
 C397 C 0.39763 0.40883 1.24344
 C398 C 0.38774 0.39679 1.26787
 C399 C 0.44410 0.45914 1.12866
 C400 C 0.45475 0.46844 1.10337
 H401 H 0.44080 0.48958 1.19527
 H402 H 0.37662 0.46863 1.20665
 H403 H 0.46410 0.43305 1.22632
 H404 H 0.46465 0.40081 1.16601
 H405 H 0.37722 0.43640 1.14627
 H406 H 0.40055 0.37993 1.17726
 C407 C 0.59580 -0.07885 0.33894
 C408 C 0.57545 -0.09773 0.31408
 C409 C 0.59052 -0.07756 0.28705
 C410 C 0.61107 -0.05886 0.31147
 C411 C 0.56864 -0.05375 0.34149
 C412 C 0.58370 -0.03352 0.31450
 C413 C 0.54811 -0.07246 0.31706
 C414 C 0.56335 -0.05245 0.28958
 C415 C 0.60256 -0.09147 0.25698
 C416 C 0.61241 -0.10348 0.23247
 C417 C 0.55614 -0.04131 0.37203
 C418 C 0.54548 -0.03198 0.39734
 H419 H 0.60902 -0.08957 0.35956
 H420 H 0.57217 -0.12428 0.31358
 H421 H 0.63711 -0.05343 0.30882
 H422 H 0.58696 -0.00697 0.31503
 H423 H 0.52207 -0.07791 0.31968
 H424 H 0.55014 -0.04176 0.26893
 C425 C -0.09424 1.08020 -0.16174
 C426 C -0.07351 1.09698 -0.18770
 C427 C -0.09074 1.07709 -0.21368
 C428 C -0.11167 1.06049 -0.18816
 C429 C -0.06869 1.05344 -0.15924
 C430 C -0.08592 1.03350 -0.18519
 C431 C -0.04779 1.07005 -0.18477
 C432 C -0.06519 1.05033 -0.21122
 C433 C -0.10288 1.09092 -0.24376
 C434 C -0.11280 1.10288 -0.26825
 C435 C -0.05612 1.04110 -0.12869
 C436 C -0.04541 1.03185 -0.10337
 H437 H -0.10606 1.09235 -0.14106
 H438 H -0.06853 1.12323 -0.18904
 H439 H -0.13808 1.05672 -0.18991
 H440 H -0.09088 1.00726 -0.18381
 H441 H -0.02138 1.07384 -0.18305
 H442 H -0.05338 1.03821 -0.23192
 C443 C 1.05587 0.58407 0.67495
 C444 C 1.05666 0.56595 0.70749
 C445 C 1.09137 0.57764 0.71271
 C446 C 1.09074 0.59594 0.68060
 C447 C 1.06936 0.55382 0.65833
 C448 C 1.10406 0.56551 0.66355
 C449 C 1.06996 0.53547 0.69041
 C450 C 1.10489 0.54738 0.69612
 C451 C 1.10348 0.59155 0.74275
 C452 C 1.11338 0.60357 0.76723
 C453 C 1.05679 0.54139 0.62781
 C454 C 1.04608 0.53209 0.60251
 H455 H 1.03558 0.59904 0.66593
 H456 H 1.03730 0.56630 0.72589
 H457 H 1.09940 0.62096 0.67689
 H458 H 1.12342 0.56517 0.64515
 H459 H 1.06128 0.51046 0.69409
 H460 H 1.12519 0.53245 0.70519
 C461 C 0.81738 0.58765 0.53659
 C462 C 0.79019 0.56667 0.55112
 C463 C 0.78796 0.59012 0.57966
 C464 C 0.81466 0.61130 0.56536
 C465 C 0.84226 0.56789 0.55564
 C466 C 0.84000 0.59134 0.58418
 C467 C 0.81556 0.54672 0.56995
 C468 C 0.81286 0.57035 0.59867
 C469 C 0.75795 0.60247 0.59354
 C470 C 0.73349 0.61268 0.60540
 C471 C 0.87271 0.55535 0.54292
 C472 C 0.89795 0.54481 0.53316
 H473 H 0.81959 0.59463 0.51092
 H474 H 0.76936 0.55667 0.53769
 H475 H 0.81394 0.63800 0.56363
 H476 H 0.86081 0.60135 0.59764
 H477 H 0.81626 0.52002 0.57169
 H478 H 0.81068 0.56337 0.62434
 C479 C 0.66448 0.42548 1.09200
 C480 C 0.68009 0.39278 1.08289
 C481 C 0.71282 0.40972 1.07993
 C482 C 0.69764 0.44222 1.08923
 C483 C 0.65849 0.43219 1.05615
 C484 C 0.69122 0.44913 1.05318
 C485 C 0.67365 0.39967 1.04683
 C486 C 0.70688 0.41641 1.04407
 C487 C 0.74286 0.39725 1.09369
 C488 C 0.76736 0.38698 1.10548
 C489 C 0.62801 0.44486 1.04355
 C490 C 0.60275 0.45548 1.03389
 H491 H 0.64671 0.42933 1.11158
 H492 H 0.67585 0.36948 1.09527
 H493 H 0.70783 0.45958 1.10682
 H494 H 0.69545 0.47244 1.04081
 H495 H 0.66344 0.38232 1.02925
 H496 H 0.72468 0.41254 1.02452
 C497 C 0.16897 1.10299 -0.05361
 C498 C 0.20315 1.09135 -0.04391
 C499 C 0.21238 1.08995 -0.07966
 C500 C 0.17869 1.10177 -0.08955
 C501 C 0.15815 1.06767 -0.05586
 C502 C 0.16742 1.06628 -0.09160
 C503 C 0.19182 1.05582 -0.04595
 C504 C 0.20154 1.05464 -0.08190
 C505 C 0.24235 1.10231 -0.09344
 C506 C 0.26679 1.11250 -0.10525
 C507 C 0.12773 1.05509 -0.04326
 C508 C 0.10252 1.04454 -0.03361
 H509 H 0.15524 1.12272 -0.04183
 H510 H 0.21820 1.10180 -0.02446
 H511 H 0.17362 1.12080 -0.10764
 H512 H 0.15240 1.05585 -0.11109
 H513 H 0.19688 1.03679 -0.02786
 H514 H 0.21525 1.03489 -0.09369
 C515 C 0.33557 -0.10336 0.43720
 C516 C 0.30210 -0.10022 0.45342
 C517 C 0.28767 -0.09008 0.42091
 C518 C 0.32066 -0.09341 0.40451
 C519 C 0.34194 -0.06765 0.44463
 C520 C 0.32747 -0.05753 0.41212
 C521 C 0.30896 -0.06430 0.46106
 C522 C 0.29404 -0.05437 0.42833
 C523 C 0.25767 -0.10251 0.40717
 C524 C 0.23322 -0.11274 0.39537
 C525 C 0.37237 -0.05500 0.45718
 C526 C 0.39759 -0.04439 0.46681
 H527 H 0.35298 -0.12336 0.44100
 H528 H 0.29130 -0.11793 0.47024
 H529 H 0.32515 -0.10550 0.38111
 H530 H 0.33824 -0.03984 0.39527
 H531 H 0.30450 -0.05219 0.48446
 H532 H 0.27663 -0.03436 0.42453
 C533 C 0.55927 -0.16620 0.60414
 C534 C 0.54554 -0.20022 0.59715
 C535 C 0.57993 -0.21238 0.59069
 C536 C 0.59384 -0.17885 0.59788
 C537 C 0.55615 -0.15803 0.56824
 C538 C 0.59053 -0.17024 0.56181
 C539 C 0.54222 -0.19155 0.56103
 C540 C 0.57681 -0.20420 0.55479
 C541 C 0.59372 -0.24243 0.60313
 C542 C 0.60556 -0.26693 0.61334
 C543 C 0.54355 -0.12756 0.55557
 C544 C 0.53386 -0.10231 0.54495
 H545 H 0.55190 -0.15024 0.62429
 H546 H 0.52721 -0.21290 0.61182
 H547 H 0.61523 -0.17396 0.61316
 H548 H 0.60890 -0.15758 0.54714
 H549 H 0.52084 -0.19641 0.54574
 H550 H 0.58419 -0.22016 0.53464
 C551 C 1.08834 0.66130 0.41408
 C552 C 1.07171 0.68335 0.38899
 C553 C 1.07998 0.71275 0.40990
 C554 C 1.09680 0.69113 0.43480
 C555 C 1.05619 0.65846 0.43211
 C556 C 1.06445 0.68786 0.45302
 C557 C 1.03933 0.68005 0.40721
 C558 C 1.04781 0.70995 0.42792
 C559 C 1.09376 0.74276 0.39757
 C560 C 1.10557 0.76722 0.38741
 C561 C 1.04359 0.62801 0.44464
 C562 C 1.03393 0.60276 0.45515
 H563 H 1.10487 0.64097 0.40852
 H564 H 1.07486 0.68184 0.36252
 H565 H 1.12058 0.69602 0.44601
 H566 H 1.06132 0.68938 0.47949
 H567 H 1.01556 0.67514 0.39601
 H568 H 1.03131 0.73031 0.43348
 C569 C -0.09254 1.16519 0.07154
 C570 C -0.08538 1.17954 0.10518
 C571 C -0.08038 1.21270 0.08955
 C572 C -0.08774 1.19879 0.05609
 C573 C -0.05639 1.15837 0.06723
 C574 C -0.05139 1.19152 0.05158
 C575 C -0.04903 1.17227 0.10069
 C576 C -0.04423 1.20592 0.08525
 C577 C -0.09426 1.24274 0.10194
 C578 C -0.10613 1.26724 0.11216
 C579 C -0.04367 1.12789 0.05465
 C580 C -0.03390 1.10263 0.04411
 H581 H -0.11227 1.14812 0.06578
 H582 H -0.09951 1.17495 0.12735
 H583 H -0.10381 1.21002 0.03790
 H584 H -0.03726 1.19610 0.02941
 H585 H -0.03296 1.16102 0.11888
 H586 H -0.02453 1.22303 0.09102
 C587 C 0.45330 0.30828 0.94545
 C588 C 0.41719 0.29897 0.94628
 C589 C 0.41970 0.28767 0.91118
 C590 C 0.45561 0.29648 0.91013
 C591 C 0.44381 0.34194 0.93322
 C592 C 0.44633 0.33064 0.89812
 C593 C 0.40791 0.33308 0.93424
 C594 C 0.41023 0.32133 0.89897
 C595 C 0.40578 0.25767 0.89891
 C596 C 0.39389 0.23322 0.88875
 C597 C 0.45659 0.37238 0.94565
 C598 C 0.46639 0.39763 0.95610
 H599 H 0.47117 0.30326 0.96470
 H600 H 0.40504 0.28562 0.96594
 H601 H 0.47506 0.28108 0.90008
 H602 H 0.45847 0.34400 0.87845
 H603 H 0.38843 0.34845 0.94428
 H604 H 0.39236 0.32637 0.87972
 C605 C 0.60178 0.55050 0.82960
 C606 C 0.58754 0.54383 0.79576
 C607 C 0.58966 0.58002 0.78823
 C608 C 0.60408 0.58689 0.82157
 C609 C 0.56750 0.55608 0.84240
 C610 C 0.56964 0.59226 0.83482
 C611 C 0.55306 0.54920 0.80907
 C612 C 0.55539 0.58559 0.80105
 C613 C 0.60196 0.59387 0.75828
 C614 C 0.61210 0.60572 0.73387
 C615 C 0.55500 0.54340 0.87278
 C616 C 0.54450 0.53369 0.89798
 H617 H 0.62071 0.53593 0.84168
 H618 H 0.59504 0.52408 0.77935
 H619 H 0.62519 0.60255 0.82639
 H620 H 0.56215 0.61204 0.85121
 H621 H 0.53194 0.53354 0.80427
 H622 H 0.53645 0.60017 0.78898
 C623 C 0.40711 0.03889 0.67962
 C624 C 0.42773 0.04728 0.70958
 C625 C 0.40948 0.07942 0.71258
 C626 C 0.38866 0.07124 0.68312
 C627 C 0.43202 0.05590 0.65829
 C628 C 0.41377 0.08803 0.66133
 C629 C 0.45283 0.06408 0.68775
 C630 C 0.43439 0.09639 0.69122
 C631 C 0.39699 0.09306 0.74259
 C632 C 0.38675 0.10479 0.76706
 C633 C 0.44473 0.04343 0.62786
 C634 C 0.45538 0.03385 0.60265
 H635 H 0.39604 0.01510 0.67449
 H636 H 0.43333 0.03069 0.72977
 H637 H 0.36214 0.07435 0.68155
 H638 H 0.40816 0.10465 0.64116
 H639 H 0.47936 0.06098 0.68932
 H640 H 0.44547 0.12018 0.69632
 C641 C 0.04776 0.94145 0.18906
 C642 C 0.06039 0.90658 0.19365
 C643 C 0.08948 0.91996 0.21216
 C644 C 0.07706 0.95464 0.20804
 C645 C 0.06741 0.94391 0.15787
 C646 C 0.09651 0.95732 0.17635
 C647 C 0.07985 0.90924 0.16203
 C648 C 0.10913 0.92243 0.18097
 C649 C 0.10175 0.90612 0.24217
 C650 C 0.11187 0.89428 0.26664
 C651 C 0.05495 0.95661 0.12742
 C652 C 0.04447 0.96634 0.10219
 H653 H 0.02239 0.94942 0.19204
 H654 H 0.04567 0.88557 0.20109
 H655 H 0.07604 0.97315 0.22732
 H656 H 0.11122 0.97833 0.16889
 H657 H 0.08087 0.89071 0.14277
 H658 H 0.13450 0.91445 0.17797
 C659 C 0.93803 0.40929 0.33021
 C660 C 0.90198 0.40746 0.32084
 C661 C 0.91047 0.42028 0.28726
 C662 C 0.94635 0.42191 0.29619
 C663 C 0.93283 0.44422 0.34143
 C664 C 0.94134 0.45706 0.30786
 C665 C 0.89694 0.44259 0.33251
 C666 C 0.90524 0.45521 0.29844
 C667 C 0.89805 0.40643 0.25731
 C668 C 0.88780 0.39458 0.23290
 C669 C 0.94543 0.45690 0.37182
 C670 C 0.95599 0.46662 0.39702
 H671 H 0.95165 0.39053 0.34360
 H672 H 0.88567 0.38691 0.32586
 H673 H 0.96653 0.41325 0.28092
 H674 H 0.95766 0.47761 0.30286
 H675 H 0.87676 0.45124 0.34778
 H676 H 0.89161 0.47394 0.28502
   
