data_POSCAR
  _audit_creation_date              2014-09-24
  _audit_creation_method            'ToBaCCo'
  _symmetry_space_group_name_H-M    'P1'
  _symmetry_Int_Tables_number       1
  _symmetry_cell_setting            triclinic
  loop_
  _symmetry_equiv_pos_as_xyz
 x,y,z
_cell_length_a 42.7823
_cell_length_b 42.7989
_cell_length_c 42.8973
_cell_angle_alpha 89.989800
_cell_angle_beta 90.098400
_cell_angle_gamma 89.904900
loop_
  _atom_site_label
  _atom_site_type_symbol
  _atom_site_fract_x
  _atom_site_fract_y
  _atom_site_fract_z
C1 C 0.34092 0.38424 1.36209
 C2 C 0.36306 0.38598 1.33808
 C3 C 0.38664 0.36382 1.33614
 C4 C 0.38838 0.33965 1.35817
 C5 C 0.36649 0.33797 1.38190
 C6 C 0.34263 0.36037 1.38387
 C7 C 0.31467 0.40164 1.36883
 N8 N 0.30071 0.38881 1.39409
 C9 C 0.31741 0.36361 1.40353
 C10 C 0.37294 0.31148 1.39896
 N11 N 0.39813 0.29729 1.38611
 C12 C 0.40783 0.31411 1.36118
 C13 C 0.40381 0.37046 1.30984
 N14 N 0.39117 0.39601 1.29605
 C15 C 0.36627 0.40573 1.31294
 H16 H 0.30601 0.42166 1.35598
 H17 H 0.31129 0.34843 1.42277
 H18 H 0.35992 0.30282 1.41879
 H19 H 0.42709 0.30787 1.34605
 H20 H 0.42359 0.35737 1.30101
 H21 H 0.35130 0.42527 1.30698
 C22 C 1.16233 0.61900 0.86695
 C23 C 1.13993 0.61704 0.84314
 C24 C 1.11607 0.63891 0.84142
 C25 C 1.11431 0.66300 0.86351
 C26 C 1.13647 0.66494 0.88706
 C27 C 1.16064 0.64281 0.88879
 C28 C 1.18880 0.60184 0.87343
 N29 N 1.20297 0.61472 0.89858
 C30 C 1.18616 0.63976 0.90823
 C31 C 1.12982 0.69132 0.90421
 N32 N 1.10426 0.70515 0.89157
 C33 C 1.09454 0.68824 0.86671
 C34 C 1.09867 0.63212 0.81525
 N35 N 1.11147 0.60676 0.80132
 C36 C 1.13666 0.59731 0.81800
 H37 H 1.19747 0.58193 0.86045
 H38 H 1.19238 0.65493 0.92746
 H39 H 1.14292 0.70014 0.92396
 H40 H 1.07500 0.69420 0.85174
 H41 H 1.07864 0.64499 0.80660
 H42 H 1.15181 0.57796 0.81189
 C43 C 0.66090 -0.11451 0.13433
 C44 C 0.63862 -0.11292 0.15823
 C45 C 0.61500 -0.13498 0.15980
 C46 C 0.61336 -0.15889 0.13752
 C47 C 0.63538 -0.16046 0.11390
 C48 C 0.65929 -0.13815 0.11229
 C49 C 0.68719 -0.09716 0.12793
 N50 N 0.70131 -0.10976 0.10263
 C51 C 0.68466 -0.13480 0.09282
 C52 C 0.62896 -0.18678 0.09658
 N53 N 0.60366 -0.20093 0.10919
 C54 C 0.59388 -0.18429 0.13420
 C55 C 0.59771 -0.12858 0.18609
 N56 N 0.61031 -0.10328 0.20025
 C57 C 0.63531 -0.09346 0.18360
 H58 H 0.69578 -0.07732 0.14105
 H59 H 0.69090 -0.14979 0.07346
 H60 H 0.64207 -0.19535 0.07675
 H61 H 0.57453 -0.19055 0.14919
 H62 H 0.57788 -0.14170 0.19467
 H63 H 0.65029 -0.07408 0.18988
 C64 C -0.16465 1.11349 -0.36468
 C65 C -0.14251 1.11178 -0.34058
 C66 C -0.11870 1.13363 -0.33892
 C67 C -0.11673 1.15743 -0.36128
 C68 C -0.13861 1.15913 -0.38509
 C69 C -0.16271 1.13702 -0.38681
 C70 C -0.19105 1.09634 -0.37127
 N71 N -0.20490 1.10896 -0.39676
 C72 C -0.18798 1.13382 -0.40651
 C73 C -0.13183 1.18532 -0.40247
 N74 N -0.10646 1.19926 -0.38969
 C75 C -0.09698 1.18260 -0.36453
 C76 C -0.10157 1.12719 -0.31248
 N77 N -0.11446 1.10207 -0.29830
 C78 C -0.13948 1.09240 -0.31509
 H79 H -0.19989 1.07661 -0.35816
 H80 H -0.19396 1.14878 -0.42600
 H81 H -0.14474 1.19395 -0.42244
 H82 H -0.07764 1.18872 -0.34940
 H83 H -0.08167 1.14017 -0.30382
 H84 H -0.15466 1.07318 -0.30884
 C85 C 0.66350 0.61584 0.63396
 C86 C 0.64090 0.61460 0.65756
 C87 C 0.61727 0.63675 0.65854
 C88 C 0.61596 0.66040 0.63596
 C89 C 0.63831 0.66164 0.61263
 C90 C 0.66224 0.63922 0.61163
 C91 C 0.68986 0.59831 0.62814
 N92 N 0.70437 0.61053 0.60291
 C93 C 0.68788 0.63551 0.59258
 C94 C 0.63212 0.68779 0.59493
 N95 N 0.60663 0.70213 0.60704
 C96 C 0.59652 0.68578 0.63209
 C97 C 0.59962 0.63075 0.68467
 N98 N 0.61203 0.60559 0.69930
 C99 C 0.63724 0.59547 0.68312
 H100 H 0.69824 0.57858 0.64159
 H101 H 0.69443 0.65021 0.57312
 H102 H 0.64548 0.69612 0.57519
 H103 H 0.57696 0.69225 0.64675
 H104 H 0.57970 0.64405 0.69282
 H105 H 0.65214 0.57613 0.68984
 C106 C 0.83855 0.38679 0.13869
 C107 C 0.86091 0.38767 0.16264
 C108 C 0.88431 0.36527 0.16384
 C109 C 0.88566 0.34173 0.14115
 C110 C 0.86357 0.34087 0.11750
 C111 C 0.83990 0.36352 0.11626
 C112 C 0.81240 0.40459 0.13252
 N113 N 0.79816 0.39258 0.10698
 C114 C 0.81457 0.36751 0.09680
 C115 C 0.86965 0.31478 0.09972
 N116 N 0.89481 0.30005 0.11210
 C117 C 0.90485 0.31612 0.13740
 C118 C 0.90178 0.37100 0.19020
 N119 N 0.88950 0.39624 0.20477
 C120 C 0.86453 0.40667 0.18832
 H121 H 0.80401 0.42432 0.14594
 H122 H 0.80819 0.35292 0.07717
 H123 H 0.85638 0.30673 0.07975
 H124 H 0.92416 0.30932 0.15230
 H125 H 0.92153 0.35749 0.19852
 H126 H 0.84980 0.42617 0.19490
 C127 C 0.33506 0.11771 0.86142
 C128 C 0.35741 0.11626 0.83758
 C129 C 0.38101 0.13836 0.83618
 C130 C 0.38253 0.16217 0.85857
 C131 C 0.36045 0.16360 0.88212
 C132 C 0.33657 0.14125 0.88356
 C133 C 0.30884 0.10021 0.86774
 N134 N 0.29468 0.11265 0.89309
 C135 C 0.31123 0.13771 0.90301
 C136 C 0.36685 0.18978 0.89965
 N137 N 0.39220 0.20400 0.88723
 C138 C 0.40202 0.18750 0.86215
 C139 C 0.39848 0.13203 0.81000
 N140 N 0.38599 0.10673 0.79573
 C141 C 0.36092 0.09684 0.81222
 H142 H 0.30036 0.08035 0.85457
 H143 H 0.30497 0.15255 0.92248
 H144 H 0.35375 0.19823 0.91952
 H145 H 0.42147 0.19383 0.84733
 H146 H 0.41837 0.14516 0.80158
 H147 H 0.34605 0.07740 0.80586
 C148 C 0.15907 0.88240 0.36432
 C149 C 0.13645 0.88366 0.34068
 C150 C 0.11313 0.86126 0.33933
 C151 C 0.11216 0.83733 0.36164
 C152 C 0.13453 0.83610 0.38503
 C153 C 0.15814 0.85876 0.38638
 C154 C 0.18521 0.90013 0.37038
 N155 N 0.19990 0.88773 0.39551
 C156 C 0.18375 0.86246 0.40553
 C157 C 0.12874 0.80973 0.40244
 N158 N 0.10349 0.79517 0.39015
 C159 C 0.09312 0.81165 0.36523
 C160 C 0.09541 0.86743 0.31319
 N161 N 0.10750 0.89293 0.29895
 C162 C 0.13255 0.90308 0.31538
 H163 H 0.19333 0.92007 0.35713
 H164 H 0.19051 0.84755 0.42481
 H165 H 0.14222 0.80137 0.42215
 H166 H 0.07364 0.80507 0.35050
 H167 H 0.07567 0.85405 0.30477
 H168 H 0.14718 0.92268 0.30899
 Zn169 Zn 0.03617 0.98323 0.00879
 Zn170 Zn -0.02573 0.97738 -0.02332
 Zn171 Zn -0.02084 1.00992 0.03825
 Zn172 Zn 0.00585 1.03960 -0.01850
 O173 O -0.00118 1.00249 0.00126
 O174 O 0.03876 0.94589 -0.00948
 O175 O -0.06203 0.96711 -0.00488
 O176 O 0.00070 0.99588 0.07123
 O177 O -0.00688 0.94110 -0.03326
 O178 O 0.04313 0.97625 0.04936
 O179 O -0.05814 0.99148 0.04041
 O180 O -0.00820 1.07263 0.00300
 O181 O -0.03611 0.99562 -0.05967
 O182 O -0.02786 1.05057 0.04519
 O183 O -0.01281 1.04154 -0.05571
 O184 O 0.04642 1.04675 -0.02565
 O185 O 0.06899 1.00501 -0.00523
 C186 C 0.01996 0.93036 -0.02630
 C187 C -0.07323 0.97426 0.02160
 C188 C 0.02692 0.98212 0.07342
 C189 C -0.02188 1.07474 0.02915
 C190 C -0.02957 1.02233 -0.07082
 C191 C 0.07079 1.03099 -0.01938
 Zn192 Zn 0.49022 -0.03829 0.47919
 Zn193 Zn 0.51689 -0.00864 0.53603
 Zn194 Zn 0.52262 0.02345 0.47428
 Zn195 Zn 0.46043 0.01864 0.50581
 O196 O 0.49758 -0.00117 0.49878
 O197 O 0.50436 -0.07130 0.50068
 O198 O 0.55420 0.00973 0.53860
 O199 O 0.53291 0.00491 0.43808
 O200 O 0.52399 -0.04928 0.54296
 O201 O 0.50865 -0.04050 0.44196
 O202 O 0.55889 0.03346 0.49305
 O203 O 0.45838 0.05592 0.48721
 O204 O 0.49506 0.00540 0.56877
 O205 O 0.50430 0.05985 0.46394
 O206 O 0.45325 0.02581 0.54628
 O207 O 0.42744 -0.00295 0.49181
 O208 O 0.44957 -0.04528 0.47222
 C209 C 0.51815 -0.07343 0.52681
 C210 C 0.56968 0.02657 0.51981
 C211 C 0.52581 -0.02165 0.42691
 C212 C 0.47757 0.07103 0.47047
 C213 C 0.46902 0.01953 0.57058
 C214 C 0.42536 -0.02920 0.47819
 Zn215 Zn 1.01144 0.45844 0.48431
 Zn216 Zn 1.04113 0.51520 0.51139
 Zn217 Zn 0.97925 0.52035 0.47919
 Zn218 Zn 0.98433 0.48819 0.54093
 O219 O 1.00401 0.49558 0.50392
 O220 O 1.05212 0.45151 0.47734
 O221 O 1.04333 0.55256 0.49297
 O222 O 0.96906 0.50191 0.44296
 O223 O 1.07416 0.49362 0.49742
 O224 O 0.99296 0.45624 0.44700
 O225 O 0.99769 0.55662 0.46905
 O226 O 0.94695 0.50671 0.54307
 O227 O 1.04803 0.52224 0.55197
 O228 O 0.94294 0.53059 0.49753
 O229 O 1.00588 0.50222 0.57392
 O230 O 0.97729 0.44754 0.54780
 O231 O 0.99739 0.42545 0.50579
 C232 C 1.07629 0.46756 0.48346
 C233 C 1.02433 0.56774 0.47597
 C234 C 0.97595 0.47526 0.43186
 C235 C 0.93179 0.52372 0.52409
 C236 C 1.03196 0.51617 0.57606
 C237 C 0.98340 0.42336 0.53178
 Zn238 Zn 0.48156 0.49429 0.96090
 Zn239 Zn 0.53860 0.52090 0.99045
 Zn240 Zn 0.47690 0.52605 1.02292
 Zn241 Zn 0.50896 0.46407 1.01715
 O242 O 0.50146 0.50137 0.99790
 O243 O 0.50308 0.50822 0.92793
 O244 O 0.54088 0.55824 1.00880
 O245 O 0.44044 0.53646 1.00471
 O246 O 0.54549 0.52781 0.94989
 O247 O 0.44428 0.51301 0.95894
 O248 O 0.49551 0.56232 1.03311
 O249 O 0.49068 0.46162 1.05440
 O250 O 0.57165 0.49933 1.00450
 O251 O 0.46696 0.50732 1.05913
 O252 O 0.54963 0.45705 1.02415
 O253 O 0.49482 0.43124 0.99545
 O254 O 0.47432 0.45373 0.95379
 C255 C 0.52932 0.52183 0.92579
 C256 C 0.52208 0.57342 1.02595
 C257 C 0.42921 0.52986 0.97807
 C258 C 0.47388 0.48050 1.06987
 C259 C 0.57379 0.47317 1.01828
 C260 C 0.48060 0.42939 0.96953
 C261 C 1.16363 0.46342 0.46881
 C262 C 1.16615 0.43521 0.45251
 C263 C 1.13945 0.41715 0.44709
 C264 C 1.11027 0.42742 0.45758
 C265 C 1.27398 0.39834 0.40650
 C266 C 1.13447 0.47374 0.47933
 C267 C 1.19595 0.42515 0.44062
 C268 C 1.22073 0.41676 0.43022
 C269 C 1.24955 0.40688 0.41760
 C270 C 1.10740 0.45596 0.47363
 H271 H 1.18415 0.47759 0.47310
 H272 H 1.14113 0.39529 0.43447
 H273 H 1.08992 0.41317 0.45279
 H274 H 1.13309 0.49582 0.49159
 C275 C 0.35113 0.57227 0.98039
 C276 C 0.33889 0.56484 0.95103
 C277 C 0.35610 0.54599 0.93067
 C278 C 0.38541 0.53463 0.93952
 C279 C 0.22995 0.60526 0.91061
 C280 C 0.38052 0.56090 0.98934
 C281 C 0.30879 0.57652 0.94145
 C282 C 0.28374 0.58591 0.93252
 C283 C 0.25463 0.59651 0.92110
 C284 C 0.39801 0.54195 0.96895
 H285 H 0.33800 0.58686 0.99634
 H286 H 0.34686 0.54010 0.90788
 H287 H 0.39820 0.52011 0.92325
 H288 H 0.38954 0.56697 1.01214
 C289 C -0.14615 0.95927 0.06931
 C290 C -0.16338 0.94000 0.04937
 C291 C -0.15122 0.93191 0.02017
 C292 C -0.12189 0.94305 0.01098
 C293 C -0.27184 0.89986 0.09058
 C294 C -0.11690 0.97041 0.06022
 C295 C -0.19337 0.92850 0.05924
 C296 C -0.21832 0.91922 0.06839
 C297 C -0.24730 0.90868 0.08000
 C298 C -0.10437 0.96242 0.03095
 H299 H -0.15532 0.96566 0.09197
 H300 H -0.16437 0.91698 0.00456
 H301 H -0.11293 0.93647 -0.01168
 H302 H -0.10408 0.98525 0.07617
 C303 C 0.64213 0.04143 0.56849
 C304 C 0.65982 0.06023 0.54856
 C305 C 0.64812 0.06807 0.51907
 C306 C 0.61878 0.05714 0.50956
 C307 C 0.76827 0.09951 0.59094
 C308 C 0.61287 0.03050 0.55907
 C309 C 0.68983 0.07149 0.55875
 C310 C 0.71478 0.08056 0.56818
 C311 C 0.74374 0.09087 0.58011
 C312 C 0.60081 0.03823 0.52950
 H313 H 0.65094 0.03523 0.59137
 H314 H 0.66163 0.08265 0.50346
 H315 H 0.61018 0.06351 0.48666
 H316 H 0.59969 0.01600 0.57502
 C317 C 0.47992 0.14910 0.42835
 C318 C 0.45046 0.16131 0.43569
 C319 C 0.43001 0.14409 0.45437
 C320 C 0.43887 0.11478 0.46568
 C321 C 0.41015 0.27029 0.39550
 C322 C 0.48888 0.11972 0.43966
 C323 C 0.44088 0.19141 0.42408
 C324 C 0.43198 0.21647 0.41474
 C325 C 0.42061 0.24560 0.40420
 C326 C 0.46841 0.10221 0.45845
 H327 H 0.49594 0.16225 0.41389
 H328 H 0.40715 0.15330 0.46019
 H329 H 0.42254 0.10196 0.48007
 H330 H 0.51176 0.11072 0.43366
 C331 C 0.94688 0.36032 0.58200
 C332 C 0.95226 0.33360 0.56398
 C333 C 0.96857 0.33607 0.53585
 C334 C 0.97916 0.36520 0.52557
 C335 C 0.90601 0.22594 0.60079
 C336 C 0.95743 0.38946 0.57178
 C337 C 0.94030 0.30384 0.57400
 C338 C 0.92985 0.27909 0.58238
 C339 C 0.91717 0.25033 0.59225
 C340 C 0.97350 0.39228 0.54332
 H341 H 0.93424 0.35867 0.60381
 H342 H 0.97283 0.31554 0.52170
 H343 H 0.99143 0.36654 0.50355
 H344 H 0.95267 0.40982 0.58601
 C345 C 0.01943 0.85187 -0.06771
 C346 C 0.04901 0.84024 -0.05978
 C347 C 0.06891 0.85799 -0.04094
 C348 C 0.05939 0.88723 -0.03007
 C349 C 0.09186 0.73193 -0.09897
 C350 C 0.00981 0.88120 -0.05683
 C351 C 0.05932 0.81026 -0.07101
 C352 C 0.06886 0.78535 -0.08005
 C353 C 0.08093 0.75642 -0.09034
 C354 C 0.02974 0.89923 -0.03789
 H355 H 0.00384 0.83832 -0.08232
 H356 H 0.09186 0.84924 -0.03468
 H357 H 0.07532 0.90045 -0.01554
 H358 H -0.01314 0.88975 -0.06328
 C359 C 0.57010 0.64627 1.04072
 C360 C 0.55015 0.66362 1.05987
 C361 C 0.52086 0.65157 1.06796
 C362 C 0.51157 0.62222 1.05694
 C363 C 0.59160 0.77220 1.09961
 C364 C 0.56091 0.61699 1.02970
 C365 C 0.56011 0.69365 1.07124
 C366 C 0.56932 0.71862 1.08041
 C367 C 0.58099 0.74763 1.09086
 C368 C 0.53154 0.60457 1.03769
 H369 H 0.59283 0.65536 1.03433
 H370 H 0.50524 0.66482 1.08280
 H371 H 0.48883 0.61334 1.06351
 H372 H 0.57686 0.60408 1.01494
 C373 C 0.43249 0.48129 1.14819
 C374 C 0.44040 0.45173 1.15981
 C375 C 0.45922 0.43176 1.14211
 C376 C 0.47009 0.44119 1.11293
 C377 C 0.40118 0.40911 1.26785
 C378 C 0.44337 0.49082 1.11892
 C379 C 0.42917 0.44150 1.18973
 C380 C 0.42012 0.43202 1.21458
 C381 C 0.40982 0.42000 1.24343
 C382 C 0.46228 0.47082 1.10094
 H383 H 0.41790 0.49693 1.16170
 H384 H 0.46546 0.40883 1.15086
 H385 H 0.48460 0.42520 1.09976
 H386 H 0.43695 0.51376 1.11037
 C387 C 0.56806 -0.02017 0.34908
 C388 C 0.56006 -0.04946 0.33694
 C389 C 0.54089 -0.06948 0.35412
 C390 C 0.52976 -0.06038 0.38333
 C391 C 0.60017 -0.09054 0.22858
 C392 C 0.55693 -0.01097 0.37836
 C393 C 0.57154 -0.05931 0.30698
 C394 C 0.58082 -0.06843 0.28206
 C395 C 0.59135 -0.08000 0.25311
 C396 C 0.53766 -0.03102 0.39584
 H397 H 0.58292 -0.00448 0.33597
 H398 H 0.53457 -0.09221 0.34496
 H399 H 0.51498 -0.07640 0.39611
 H400 H 0.56344 0.01176 0.38731
 C401 C -0.04563 1.06976 -0.14374
 C402 C -0.06432 1.04928 -0.16100
 C403 C -0.07168 1.01984 -0.14884
 C404 C -0.06039 1.01093 -0.11949
 C405 C -0.10450 1.08941 -0.26982
 C406 C -0.03435 1.06095 -0.11446
 C407 C -0.07590 1.05881 -0.19106
 C408 C -0.08523 1.06768 -0.21609
 C409 C -0.09577 1.07901 -0.24518
 C410 C -0.04160 1.03143 -0.10195
 H411 H -0.03980 1.09261 -0.15291
 H412 H -0.08615 1.00380 -0.16201
 H413 H -0.06640 0.98806 -0.11054
 H414 H -0.01996 1.07730 -0.10163
 C415 C 1.08240 0.55260 0.63907
 C416 C 1.06432 0.54728 0.66569
 C417 C 1.03608 0.53103 0.66317
 C418 C 1.02574 0.52045 0.63409
 C419 C 1.10135 0.59354 0.77318
 C420 C 1.07213 0.54207 0.60996
 C421 C 1.07440 0.55923 0.69541
 C422 C 1.08283 0.56968 0.72012
 C423 C 1.09276 0.58237 0.74883
 C424 C 1.04355 0.52606 0.60709
 H425 H 1.10429 0.56519 0.64075
 H426 H 1.02188 0.52681 0.68363
 H427 H 1.00364 0.50823 0.63270
 H428 H 1.08639 0.54678 0.58968
 C429 C 0.85875 0.53950 0.57146
 C430 C 0.84158 0.55856 0.55120
 C431 C 0.85380 0.56620 0.52193
 C432 C 0.88315 0.55486 0.51297
 C433 C 0.73285 0.60000 0.59068
 C434 C 0.88804 0.52815 0.56259
 C435 C 0.81156 0.57032 0.56076
 C436 C 0.78656 0.57989 0.56952
 C437 C 0.75749 0.59084 0.58059
 C438 C 0.90062 0.53571 0.53325
 H439 H 0.84953 0.53345 0.59417
 H440 H 0.84070 0.58097 0.50607
 H441 H 0.89216 0.56111 0.49024
 H442 H 0.90083 0.51348 0.57877
 C443 C 0.63692 0.42252 1.05457
 C444 C 0.66361 0.44063 1.04942
 C445 C 0.66110 0.46899 1.03336
 C446 C 0.63195 0.47939 1.02278
 C447 C 0.77142 0.40263 1.09490
 C448 C 0.60775 0.43286 1.04403
 C449 C 0.69341 0.43042 1.06127
 C450 C 0.71819 0.42181 1.07159
 C451 C 0.74700 0.41158 1.08403
 C452 C 0.60489 0.46153 1.02819
 H453 H 0.63860 0.40054 1.06700
 H454 H 0.68162 0.48320 1.02927
 H455 H 0.63057 0.50156 1.01069
 H456 H 0.58741 0.41855 1.04859
 C457 C 0.13336 1.08206 -0.05558
 C458 C 0.16032 1.06440 -0.04987
 C459 C 0.15815 1.03618 -0.03354
 C460 C 0.12909 1.02548 -0.02322
 C461 C 0.26797 1.10283 -0.09474
 C462 C 0.10427 1.07141 -0.04530
 C463 C 0.19006 1.07490 -0.06146
 C464 C 0.21480 1.08367 -0.07159
 C465 C 0.24356 1.09397 -0.08389
 C466 C 0.10177 1.04288 -0.02917
 H467 H 0.13477 1.10392 -0.06823
 H468 H 0.17888 1.02231 -0.02903
 H469 H 0.12799 1.00343 -0.01089
 H470 H 0.08373 1.08538 -0.05027
 C471 C 0.33780 -0.03436 0.46499
 C472 C 0.33530 -0.06298 0.44943
 C473 C 0.36214 -0.08081 0.44377
 C474 C 0.39141 -0.06998 0.45338
 C475 C 0.22681 -0.10233 0.40720
 C476 C 0.36706 -0.02347 0.47464
 C477 C 0.30534 -0.07375 0.43863
 C478 C 0.28040 -0.08276 0.42914
 C479 C 0.25140 -0.09331 0.41754
 C480 C 0.39424 -0.04109 0.46880
 H481 H 0.31718 -0.02034 0.46945
 H482 H 0.36047 -0.10298 0.43169
 H483 H 0.41184 -0.08413 0.44852
 H484 H 0.36841 -0.00114 0.48645
 C485 C 0.53319 -0.16071 0.53091
 C486 C 0.54925 -0.16323 0.55925
 C487 C 0.55443 -0.13655 0.57736
 C488 C 0.54392 -0.10738 0.56704
 C489 C 0.59457 -0.27111 0.59708
 C490 C 0.52265 -0.13156 0.52053
 C491 C 0.56106 -0.19304 0.56944
 C492 C 0.57133 -0.21783 0.57803
 C493 C 0.58373 -0.24666 0.58820
 C494 C 0.52808 -0.10451 0.53839
 H495 H 0.52908 -0.18123 0.51670
 H496 H 0.56687 -0.13824 0.59932
 H497 H 0.54851 -0.08704 0.58135
 H498 H 0.51055 -0.13018 0.49838
 C499 C 1.02227 0.64574 0.43377
 C500 C 1.05163 0.65792 0.44149
 C501 C 1.07192 0.64070 0.46050
 C502 C 1.06299 0.61142 0.47173
 C503 C 1.09126 0.76667 0.40056
 C504 C 1.01326 0.61640 0.44500
 C505 C 1.06125 0.68794 0.42988
 C506 C 1.07005 0.71294 0.42042
 C507 C 1.08116 0.74202 0.40962
 C508 C 1.03356 0.59889 0.46409
 H509 H 1.00639 0.65887 0.41905
 H510 H 1.09471 0.64990 0.46660
 H511 H 1.07919 0.59860 0.48636
 H512 H 0.99046 0.60743 0.43869
 C513 C -0.05654 1.13798 0.08055
 C514 C -0.05091 1.16478 0.06276
 C515 C -0.03529 1.16226 0.03423
 C516 C -0.02554 1.13301 0.02340
 C517 C -0.09345 1.27317 0.10210
 C518 C -0.04683 1.10871 0.06978
 C519 C -0.06181 1.19473 0.07348
 C520 C -0.07137 1.21964 0.08248
 C521 C -0.08305 1.24861 0.09304
 C522 C -0.03135 1.10586 0.04099
 H523 H -0.06865 1.13966 0.10265
 H524 H -0.03086 1.18286 0.02025
 H525 H -0.01370 1.13164 0.00115
 H526 H -0.05166 1.08831 0.08390
 C527 C 0.46640 0.34206 0.96433
 C528 C 0.45002 0.33985 0.93616
 C529 C 0.44428 0.36678 0.91854
 C530 C 0.45458 0.39587 0.92918
 C531 C 0.40510 0.23221 0.89765
 C532 C 0.47673 0.37114 0.97504
 C533 C 0.43843 0.31011 0.92565
 C534 C 0.42829 0.28537 0.91686
 C535 C 0.41597 0.25660 0.90653
 C536 C 0.47076 0.39842 0.95766
 H537 H 0.47093 0.32136 0.97817
 H538 H 0.43159 0.36533 0.89671
 H539 H 0.44959 0.41639 0.91524
 H540 H 0.48910 0.37227 0.99705
 C541 C 0.58065 0.55639 0.86261
 C542 C 0.56269 0.55077 0.83591
 C543 C 0.53409 0.53516 0.83848
 C544 C 0.52335 0.52543 0.86768
 C545 C 0.60157 0.59322 0.72767
 C546 C 0.56997 0.54669 0.89182
 C547 C 0.57331 0.56167 0.80602
 C548 C 0.58219 0.57122 0.78114
 C549 C 0.59262 0.58287 0.75220
 C550 C 0.54110 0.53124 0.89472
 H551 H 0.60280 0.56850 0.86088
 H552 H 0.51998 0.53074 0.81796
 H553 H 0.50104 0.51361 0.86908
 H554 H 0.58421 0.55153 0.91215
 C555 C 0.41762 0.05540 0.63306
 C556 C 0.43524 0.04960 0.65997
 C557 C 0.46356 0.03336 0.65777
 C558 C 0.47441 0.02321 0.62875
 C559 C 0.39638 0.09391 0.76753
 C560 C 0.42841 0.04529 0.60402
 C561 C 0.42458 0.06100 0.68967
 C562 C 0.41569 0.07098 0.71439
 C563 C 0.40529 0.08314 0.74314
 C564 C 0.45704 0.02923 0.60149
 H565 H 0.39568 0.06799 0.63449
 H566 H 0.47740 0.02878 0.67846
 H567 H 0.49653 0.01093 0.62763
 H568 H 0.41446 0.05031 0.58352
 C569 C 0.03090 0.96714 0.16050
 C570 C 0.05929 0.95106 0.16308
 C571 C 0.07750 0.94588 0.13651
 C572 C 0.06721 0.95639 0.10739
 C573 C 0.09696 0.90569 0.27074
 C574 C 0.02055 0.97768 0.13140
 C575 C 0.06943 0.93923 0.19283
 C576 C 0.07797 0.92894 0.21757
 C577 C 0.08810 0.91653 0.24634
 C578 C 0.03850 0.97223 0.10446
 H579 H 0.01661 0.97125 0.18092
 H580 H 0.09951 0.93343 0.13825
 H581 H 0.08159 0.95179 0.08714
 H582 H -0.00166 0.98978 0.12996
 C583 C 0.93357 0.47734 0.35400
 C584 C 0.94124 0.44797 0.34183
 C585 C 0.96027 0.42767 0.35900
 C586 C 0.97158 0.43659 0.38823
 C587 C 0.89998 0.40842 0.23325
 C588 C 0.94487 0.48635 0.38329
 C589 C 0.92953 0.43836 0.31186
 C590 C 0.92000 0.42957 0.28690
 C591 C 0.90911 0.41850 0.25787
 C592 C 0.96399 0.46603 0.40076
 H593 H 0.91882 0.49324 0.34090
 H594 H 0.96634 0.40487 0.34981
 H595 H 0.98624 0.42038 0.40101
 H596 H 0.93860 0.50916 0.39225
   
