data_POSCAR
  _audit_creation_date              2014-09-24
  _audit_creation_method            'ToBaCCo'
  _symmetry_space_group_name_H-M    'P1'
  _symmetry_Int_Tables_number       1
  _symmetry_cell_setting            triclinic
  loop_
  _symmetry_equiv_pos_as_xyz
 x,y,z
_cell_length_a 32.6085
_cell_length_b 32.6142
_cell_length_c 30.4541
_cell_angle_alpha 90.082900
_cell_angle_beta 89.915000
_cell_angle_gamma 118.987700
loop_
  _atom_site_label
  _atom_site_type_symbol
  _atom_site_fract_x
  _atom_site_fract_y
  _atom_site_fract_z
O1 O 0.00053 0.53797 -0.05409
 O2 O 0.05141 0.48074 0.01439
 O3 O -0.00255 0.45698 -0.05482
 O4 O 0.05672 0.56269 0.01373
 O5 O -0.00575 0.53644 0.05648
 O6 O -0.06421 0.42920 -0.01098
 O7 O -0.00939 0.45565 0.05918
 O8 O -0.06184 0.50942 -0.01103
 Cu9 Cu 0.03271 0.51229 -0.02458
 Cu10 Cu -0.04151 0.47971 0.02783
 C11 C -0.03979 0.53255 -0.04465
 C12 C 0.03024 0.45976 0.04924
 C13 C -0.04382 0.42551 -0.04521
 C14 C 0.03584 0.56738 0.04698
 O15 O 0.46446 0.46861 -0.05867
 O16 O 0.51155 0.57197 0.01314
 O17 O 0.54197 0.54669 -0.05535
 O18 O 0.43432 0.49208 0.01224
 O19 O 0.46843 0.46447 0.05696
 O20 O 0.57186 0.51151 -0.01485
 O21 O 0.54658 0.54196 0.05373
 O22 O 0.49202 0.43445 -0.01395
 Cu23 Cu 0.48469 0.52291 -0.02636
 Cu24 Cu 0.52279 0.48473 0.02470
 C25 C 0.47056 0.43418 -0.04886
 C26 C 0.53725 0.57474 0.04549
 C27 C 0.57472 0.53721 -0.04727
 C28 C 0.43398 0.47054 0.04712
 O29 O 0.53796 0.99602 -0.05544
 O30 O 0.42894 0.93810 0.00947
 O31 O 0.45849 0.99451 -0.05980
 O32 O 0.50895 0.93970 0.01175
 O33 O 0.53796 1.00203 0.05486
 O34 O 0.48118 1.05358 -0.01332
 O35 O 0.45691 0.99857 0.05482
 O36 O 0.56326 1.05854 -0.01289
 Cu37 Cu 0.48059 0.96086 -0.02795
 Cu38 Cu 0.51256 1.03435 0.02528
 C39 C 0.56861 1.03764 -0.04580
 C40 C 0.42512 0.95789 0.04404
 C41 C 0.46178 1.03367 -0.04916
 C42 C 0.53202 0.96153 0.04550
 O43 O 0.99856 0.45750 0.55513
 O44 O 1.05840 0.56335 0.48696
 O45 O 1.00189 0.53848 0.55477
 O46 O 1.05338 0.48127 0.48675
 O47 O 0.99424 0.45827 0.44042
 O48 O 0.93949 0.50912 0.51184
 O49 O 0.99581 0.53777 0.44455
 O50 O 0.93802 0.42917 0.50993
 Cu51 Cu 1.03423 0.51291 0.52530
 Cu52 Cu 0.96066 0.48055 0.47226
 C53 C 0.95787 0.42562 0.54451
 C54 C 1.03746 0.56848 0.45405
 C55 C 0.96135 0.53244 0.54547
 C56 C 1.03343 0.46166 0.45099
 O57 O 0.54608 0.54131 0.44511
 O58 O 0.49129 0.43359 0.51242
 O59 O 0.46801 0.46385 0.44160
 O60 O 0.57118 0.51080 0.51348
 O61 O 0.54098 0.54560 0.55435
 O62 O 0.43382 0.49156 0.48632
 O63 O 0.46341 0.46757 0.55718
 O64 O 0.51110 0.57132 0.48598
 Cu65 Cu 0.52221 0.48399 0.47393
 Cu66 Cu 0.48391 0.52205 0.52519
 C67 C 0.53686 0.57415 0.45359
 C68 C 0.46960 0.43318 0.54728
 C69 C 0.43362 0.47010 0.45136
 C70 C 0.57382 0.53634 0.54599
 O71 O 0.56449 0.05688 0.51383
 O72 O 0.45882 -0.00231 0.44528
 O73 O 0.48261 0.05179 0.51444
 O74 O 0.53988 0.00092 0.44572
 O75 O 0.51058 -0.06177 0.48820
 O76 O 0.45788 -0.00872 0.55942
 O77 O 0.43057 -0.06362 0.48952
 O78 O 0.53834 -0.00579 0.55617
 Cu79 Cu 0.51419 0.03301 0.47545
 Cu80 Cu 0.48145 -0.04120 0.52772
 C81 C 0.56921 0.03588 0.54688
 C82 C 0.42704 -0.04327 0.45532
 C83 C 0.46182 0.03079 0.54942
 C84 C 0.53387 -0.03971 0.45460
 C85 C 0.07336 0.38028 0.27325
 C86 C 0.07302 0.37978 0.22808
 C87 C 0.11942 0.40408 0.21475
 N88 N 0.14798 0.41886 0.25008
 C89 C 0.11999 0.40517 0.28591
 C90 C 0.13555 0.41818 0.17143
 C91 C 0.18268 0.43208 0.16044
 C92 C 0.20804 0.46133 0.12608
 C93 C 0.25109 0.46314 0.12571
 C94 C 0.25089 0.43494 0.15986
 N95 N 0.20934 0.41679 0.18124
 C96 C 0.28720 0.42461 0.17024
 C97 C 0.29101 0.41099 0.21342
 C98 C 0.31677 0.38955 0.22639
 C99 C 0.31697 0.38983 0.27155
 C100 C 0.29139 0.41149 0.28456
 N101 N 0.27494 0.42361 0.24900
 C102 C 0.28810 0.42585 0.32762
 C103 C 0.25263 0.43741 0.33787
 C104 C 0.25450 0.46768 0.37077
 C105 C 0.21178 0.46658 0.37095
 C106 C 0.18479 0.43537 0.33834
 N107 N 0.21041 0.41859 0.31777
 C108 C 0.13712 0.42080 0.32880
 H109 H 0.04267 0.36424 0.29406
 H110 H 0.04212 0.36369 0.20753
 H111 H 0.19821 0.39227 0.29392
 H112 H 0.19750 0.48058 0.10416
 H113 H 0.27949 0.48406 0.10348
 H114 H 0.33396 0.37550 0.20564
 H115 H 0.33435 0.37601 0.29223
 H116 H 0.20274 0.48773 0.39197
 H117 H 0.19818 0.39187 0.20631
 H118 H 0.28385 0.48948 0.39170
 C119 C 0.55417 0.65621 0.27229
 C120 C 0.55413 0.65625 0.22731
 C121 C 0.57594 0.70281 0.21435
 N122 N 0.58934 0.73122 0.24991
 C123 C 0.57601 0.70276 0.28539
 C124 C 0.58404 0.71868 0.17041
 C125 C 0.59497 0.76483 0.15898
 C126 C 0.61246 0.78584 0.11868
 C127 C 0.61182 0.82776 0.11882
 C128 C 0.59389 0.83107 0.15919
 N129 N 0.58434 0.79290 0.18364
 C130 C 0.58150 0.86559 0.17085
 C131 C 0.57291 0.87295 0.21488
 C132 C 0.54937 0.89664 0.22811
 C133 C 0.54951 0.89664 0.27310
 C134 C 0.57319 0.87300 0.28596
 N135 N 0.58745 0.85851 0.25030
 C136 C 0.58225 0.86579 0.32987
 C137 C 0.59467 0.83120 0.34113
 C138 C 0.61303 0.82791 0.38120
 C139 C 0.61341 0.78586 0.38111
 C140 C 0.59543 0.76479 0.34094
 N141 N 0.58469 0.79291 0.31660
 C142 C 0.58424 0.71858 0.32936
 H143 H 0.53861 0.62527 0.29279
 H144 H 0.53855 0.62534 0.20672
 H145 H 0.56518 0.78331 0.28775
 H146 H 0.62337 0.77185 0.09157
 H147 H 0.62216 0.85234 0.09183
 H148 H 0.53254 0.91124 0.20770
 H149 H 0.53271 0.91119 0.29372
 H150 H 0.62452 0.77185 0.40798
 H151 H 0.56515 0.78333 0.21270
 H152 H 0.62385 0.85260 0.40817
 C153 C 0.10631 0.64745 0.22811
 C154 C 0.10656 0.64765 0.27310
 C155 C 0.13189 0.69417 0.28597
 N156 N 0.14710 0.72238 0.25035
 C157 C 0.13147 0.69385 0.21492
 C158 C 0.13956 0.71019 0.32988
 C159 C 0.17459 0.75578 0.34145
 C160 C 0.17798 0.77711 0.38170
 C161 C 0.21980 0.81846 0.38153
 C162 C 0.24074 0.82114 0.34118
 N163 N 0.21273 0.78307 0.31681
 C164 C 0.28657 0.85547 0.32928
 C165 C 0.30208 0.86281 0.28513
 C166 C 0.34844 0.88778 0.27171
 C167 C 0.34807 0.88772 0.22669
 C168 C 0.30149 0.86268 0.21398
 N169 N 0.27341 0.84749 0.24978
 C170 C 0.28529 0.85525 0.17008
 C171 C 0.23942 0.82066 0.15865
 C172 C 0.21797 0.81766 0.11858
 C173 C 0.17628 0.77618 0.11879
 C174 C 0.17345 0.75508 0.15900
 N175 N 0.21182 0.78263 0.18323
 C176 C 0.13864 0.70949 0.17091
 H177 H 0.09029 0.61646 0.20764
 H178 H 0.09077 0.61686 0.29378
 H179 H 0.22164 0.77293 0.21223
 H180 H 0.15337 0.76384 0.40873
 H181 H 0.23360 0.84323 0.40839
 H182 H 0.37951 0.90355 0.29204
 H183 H 0.37880 0.90343 0.20587
 H184 H 0.15135 0.76269 0.09206
 H185 H 0.22214 0.77312 0.28767
 H186 H 0.23135 0.84232 0.09163
 C187 C 0.65512 0.55274 0.72761
 C188 C 0.65497 0.55272 0.77259
 C189 C 0.70150 0.57505 0.78572
 N190 N 0.73006 0.58867 0.75025
 C191 C 0.70173 0.57502 0.71467
 C192 C 0.71722 0.58347 0.82971
 C193 C 0.76350 0.59492 0.84127
 C194 C 0.78444 0.61286 0.88150
 C195 C 0.82661 0.61270 0.88152
 C196 C 0.83017 0.59464 0.84131
 N197 N 0.79188 0.58452 0.81680
 C198 C 0.86503 0.58263 0.82990
 C199 C 0.87264 0.57393 0.78597
 C200 C 0.89687 0.55083 0.77304
 C201 C 0.89696 0.55070 0.72805
 C202 C 0.87277 0.57372 0.71490
 N203 N 0.85793 0.58792 0.75037
 C204 C 0.86528 0.58212 0.67089
 C205 C 0.83050 0.59413 0.65933
 C206 C 0.82704 0.61194 0.61901
 C207 C 0.78494 0.61222 0.61896
 C208 C 0.76396 0.59463 0.65926
 N209 N 0.79222 0.58430 0.68383
 C210 C 0.71769 0.58333 0.67075
 H211 H 0.62428 0.53688 0.70699
 H212 H 0.62397 0.53680 0.79304
 H213 H 0.78274 0.56511 0.71286
 H214 H 0.77028 0.62377 0.90846
 H215 H 0.85122 0.62345 0.90851
 H216 H 0.91178 0.53443 0.79363
 H217 H 0.91196 0.53420 0.70760
 H218 H 0.77083 0.62295 0.59190
 H219 H 0.78249 0.56513 0.78786
 H220 H 0.85167 0.62242 0.59200
 C221 C 0.38948 0.31655 0.77186
 C222 C 0.38912 0.31625 0.72670
 C223 C 0.41070 0.29062 0.71360
 N224 N 0.42348 0.27471 0.74911
 C225 C 0.41131 0.29114 0.78474
 C226 C 0.42433 0.28682 0.67036
 C227 C 0.43497 0.25070 0.65992
 C228 C 0.46332 0.25107 0.62576
 C229 C 0.46186 0.20818 0.62611
 C230 C 0.43264 0.18275 0.66048
 N231 N 0.41704 0.20922 0.68129
 C232 C 0.41904 0.13571 0.67145
 C233 C 0.40479 0.11955 0.71472
 C234 C 0.38059 0.07314 0.72795
 C235 C 0.38091 0.07346 0.77311
 C236 C 0.40561 0.12009 0.78588
 N237 N 0.41934 0.14809 0.75011
 C238 C 0.42108 0.13723 0.82880
 C239 C 0.43550 0.18486 0.83840
 C240 C 0.46664 0.21192 0.87102
 C241 C 0.46767 0.25460 0.87084
 C242 C 0.43743 0.25264 0.83797
 N243 N 0.41868 0.21039 0.81786
 C244 C 0.42580 0.28804 0.82773
 H245 H 0.37562 0.33389 0.79263
 H246 H 0.37492 0.33329 0.70604
 H247 H 0.39239 0.19812 0.79402
 H248 H 0.48414 0.27949 0.60353
 H249 H 0.48131 0.19781 0.60418
 H250 H 0.36471 0.04226 0.70733
 H251 H 0.36489 0.04275 0.79386
 H252 H 0.48944 0.28400 0.89177
 H253 H 0.39208 0.19795 0.70638
 H254 H 0.48779 0.20296 0.89201
 C255 C 0.88714 0.34920 0.77250
 C256 C 0.88717 0.34883 0.72748
 C257 C 0.86270 0.30223 0.71471
 N258 N 0.84776 0.27414 0.75046
 C259 C 0.86271 0.30281 0.78587
 C260 C 0.85558 0.28603 0.67079
 C261 C 0.82137 0.24001 0.65931
 C262 C 0.81875 0.21860 0.61925
 C263 C 0.77747 0.17671 0.61938
 C264 C 0.75612 0.17374 0.65954
 N265 N 0.78333 0.21221 0.68382
 C266 C 0.71057 0.13874 0.67133
 C267 C 0.69476 0.13151 0.71532
 C268 C 0.64833 0.10616 0.72845
 C269 C 0.64838 0.10650 0.77344
 C270 C 0.69484 0.13205 0.78637
 N271 N 0.72317 0.14732 0.75079
 C272 C 0.71074 0.13983 0.83031
 C273 C 0.75626 0.17498 0.84190
 C274 C 0.77764 0.17832 0.88206
 C275 C 0.81891 0.22023 0.88195
 C276 C 0.82145 0.24132 0.84177
 N277 N 0.78340 0.21325 0.81740
 C278 C 0.85562 0.28726 0.82999
 H279 H 0.90247 0.38029 0.79285
 H280 H 0.90257 0.37955 0.70668
 H281 H 0.77335 0.22265 0.78836
 H282 H 0.84351 0.23213 0.59235
 H283 H 0.76426 0.15176 0.59263
 H284 H 0.61742 0.08997 0.70793
 H285 H 0.61752 0.09061 0.79408
 H286 H 0.84371 0.23395 0.90875
 H287 H 0.77337 0.22193 0.71278
 H288 H 0.76447 0.15359 0.90896
 N289 N 0.08726 0.43324 0.06607
 C290 C 0.05337 0.44298 0.07998
 N291 N 0.04480 0.44212 0.12364
 N292 N 0.07000 0.43301 0.15245
 C293 C 0.10444 0.42384 0.13882
 N294 N 0.11190 0.42333 0.09492
 N295 N 0.58193 0.61940 0.10980
 C296 C 0.55430 0.61532 0.07495
 N297 N 0.53914 0.64715 0.07004
 N298 N 0.55021 0.68113 0.09949
 C299 C 0.57696 0.68464 0.13491
 N300 N 0.59316 0.65351 0.13916
 N301 N 0.35532 0.88608 0.06789
 C302 C 0.38498 0.93257 0.07356
 N303 N 0.38012 0.95411 0.10981
 N304 N 0.34732 0.92994 0.13965
 C305 C 0.31836 0.88319 0.13460
 N306 N 0.32262 0.86185 0.09785
 N307 N 0.96111 0.57659 0.61073
 C308 C 0.93825 0.55038 0.57516
 N309 N 0.89220 0.53722 0.56975
 N310 N 0.86952 0.54885 0.59936
 C311 C 0.89205 0.57423 0.63546
 N312 N 0.93847 0.58845 0.64023
 N313 N 0.44360 0.35039 0.56446
 C314 C 0.45389 0.39394 0.57816
 N315 N 0.45284 0.40182 0.62176
 N316 N 0.44277 0.36771 0.65071
 C317 C 0.43259 0.32403 0.63736
 N318 N 0.43266 0.31602 0.59349
 N319 N 0.63899 0.10759 0.57044
 C320 C 0.60953 0.06107 0.57616
 N321 N 0.61517 0.03950 0.61190
 N322 N 0.64851 0.06375 0.64127
 C323 C 0.67726 0.11056 0.63615
 N324 N 0.67221 0.13188 0.59988
 N325 N 0.43742 0.04237 0.87930
 C326 C 0.44634 0.05624 0.92186
 N327 N 0.44414 0.09506 0.93443
 N328 N 0.43399 0.11933 0.90539
 C329 C 0.42702 0.10680 0.86232
 N330 N 0.42850 0.06743 0.85014
 N331 N 0.64609 0.53968 0.93054
 C332 C 0.61319 0.55335 0.92473
 N333 N 0.61668 0.58001 0.88923
 N334 N 0.65099 0.59142 0.86005
 C335 C 0.68298 0.57642 0.86507
 N336 N 0.68022 0.55087 0.90122
 N337 N 0.88637 0.35672 0.93265
 C338 C 0.93239 0.38791 0.92621
 N339 N 0.95374 0.38418 0.88926
 N340 N 0.92981 0.35122 0.85947
 C341 C 0.88346 0.32090 0.86523
 N342 N 0.86237 0.32393 0.90269
 N343 N 0.53976 0.89320 0.43237
 C344 C 0.55092 0.93866 0.42613
 N345 N 0.57550 0.96116 0.38967
 N346 N 0.58736 0.93866 0.36004
 C347 C 0.57475 0.89269 0.36549
 N348 N 0.55127 0.87062 0.40255
 N349 N 0.40254 0.45307 0.37678
 C350 C 0.39460 0.45469 0.42029
 N351 N 0.35122 0.44531 0.43372
 N352 N 0.31707 0.43464 0.40451
 C353 C 0.32514 0.43394 0.36073
 N354 N 0.36865 0.44326 0.34763
 N355 N 0.04073 0.61507 0.38977
 C356 C 0.06259 0.60903 0.42507
 N357 N 0.10921 0.63825 0.43047
 N358 N 0.13332 0.67159 0.40107
 C359 C 0.11169 0.67698 0.36520
 N360 N 0.06480 0.64852 0.36046
 N361 N 0.89149 0.53798 0.93119
 C362 C 0.93748 0.55086 0.92577
 N363 N 0.96052 0.57695 0.89021
 N364 N 0.93807 0.58892 0.86071
 C365 C 0.89168 0.57491 0.86546
 N366 N 0.86900 0.54971 0.90157
 N367 N 0.44551 0.35167 0.93369
 C368 C 0.45498 0.39500 0.92017
 N369 N 0.45329 0.40274 0.87665
 N370 N 0.44335 0.36869 0.84758
 C371 C 0.43397 0.32523 0.86078
 N372 N 0.43473 0.31736 0.90457
 N373 N 0.63848 0.10943 0.93082
 C374 C 0.60933 0.06280 0.92536
 N375 N 0.61556 0.04095 0.89006
 N376 N 0.64910 0.06504 0.86082
 C377 C 0.67749 0.11194 0.86561
 N378 N 0.67194 0.13355 0.90149
 N379 N 0.09487 0.44402 0.43450
 C380 C 0.05600 0.44611 0.42201
 N381 N 0.04210 0.43701 0.37948
 N382 N 0.06719 0.42806 0.35027
 C383 C 0.10663 0.42671 0.36238
 N384 N 0.11917 0.43383 0.40543
 N385 N 0.58172 0.61895 0.38940
 C386 C 0.55413 0.61489 0.42434
 N387 N 0.53920 0.64688 0.42955
 N388 N 0.55044 0.68099 0.40028
 C389 C 0.57713 0.68447 0.36474
 N390 N 0.59311 0.65319 0.36021
 N391 N 0.35714 0.88532 0.43097
 C392 C 0.38713 0.93176 0.42550
 N393 N 0.38253 0.95360 0.38942
 N394 N 0.34959 0.92977 0.35961
 C395 C 0.32023 0.88308 0.36452
 N396 N 0.32431 0.86145 0.40104
 N397 N 0.53689 0.89246 0.06968
 C398 C 0.54981 0.93844 0.07526
 N399 N 0.57569 0.96125 0.11099
 N400 N 0.58748 0.93865 0.14047
 C401 C 0.57353 0.89231 0.13551
 N402 N 0.54846 0.86981 0.09927
 N403 N 0.40253 0.45383 0.12163
 C404 C 0.39469 0.45479 0.07803
 N405 N 0.35109 0.44422 0.06434
 N406 N 0.31662 0.43311 0.09337
 C407 C 0.32457 0.43313 0.13723
 N408 N 0.36831 0.44359 0.15058
 N409 N 0.10755 0.63733 0.07028
 C410 C 0.06105 0.60780 0.07617
 N411 N 0.03947 0.61360 0.11191
 N412 N 0.06371 0.64716 0.14112
 C413 C 0.11049 0.67597 0.13585
 N414 N 0.13182 0.67077 0.09958
 N415 N 0.44406 0.04552 0.62381
 C416 C 0.44493 0.05392 0.58014
 N417 N 0.43488 0.08754 0.56618
 N418 N 0.42465 0.11207 0.59498
 C419 C 0.42512 0.10476 0.63888
 N420 N 0.43463 0.07061 0.65257
 N421 N 0.64632 0.53841 0.57036
 C422 C 0.61434 0.55338 0.57545
 N423 N 0.61824 0.58085 0.61044
 N424 N 0.65233 0.59213 0.63977
 C425 C 0.68364 0.57615 0.63532
 N426 N 0.68029 0.54954 0.59977
 N427 N 0.88623 0.35568 0.56849
 C428 C 0.93264 0.38566 0.57420
 N429 N 0.95418 0.38122 0.61057
 N430 N 0.93010 0.34850 0.64047
 C431 C 0.88343 0.31919 0.63535
 N432 N 0.86209 0.32305 0.59851
   
