data_POSCAR
  _audit_creation_date              2014-09-24
  _audit_creation_method            'ToBaCCo'
  _symmetry_space_group_name_H-M    'P1'
  _symmetry_Int_Tables_number       1
  _symmetry_cell_setting            triclinic
  loop_
  _symmetry_equiv_pos_as_xyz
 x,y,z
_cell_length_a 52.8581
_cell_length_b 52.8752
_cell_length_c 41.1969
_cell_angle_alpha 89.980200
_cell_angle_beta 89.992000
_cell_angle_gamma 90.029800
loop_
  _atom_site_label
  _atom_site_type_symbol
  _atom_site_fract_x
  _atom_site_fract_y
  _atom_site_fract_z
O1 O -0.02423 0.30078 0.03078
 O2 O 0.02605 0.30069 -0.03139
 O3 O -0.02339 0.30097 -0.03244
 O4 O 0.02520 0.30054 0.03182
 O5 O 0.02485 0.25871 0.03154
 O6 O -0.02354 0.25914 -0.03249
 O7 O 0.02570 0.25886 -0.03143
 O8 O -0.02437 0.25895 0.03050
 Cu9 Cu 0.00093 0.30499 -0.00029
 Cu10 Cu 0.00063 0.25471 -0.00049
 C11 C -0.03283 0.27983 0.04103
 C12 C 0.03443 0.27971 -0.04178
 C13 C -0.03173 0.28009 -0.04318
 C14 C 0.03328 0.27950 0.04241
 O15 O 0.52555 0.80041 0.46823
 O16 O 0.47632 0.80069 0.53172
 O17 O 0.52580 0.80033 0.53143
 O18 O 0.47611 0.80065 0.46849
 O19 O 0.47594 0.75882 0.46860
 O20 O 0.52542 0.75850 0.53131
 O21 O 0.47614 0.75886 0.53160
 O22 O 0.52518 0.75858 0.46834
 Cu23 Cu 0.50097 0.80476 0.49998
 Cu24 Cu 0.50064 0.75449 0.49997
 C25 C 0.53374 0.77940 0.45770
 C26 C 0.46785 0.77977 0.54223
 C27 C 0.53408 0.77931 0.54183
 C28 C 0.46759 0.77974 0.45803
 O29 O 1.02637 0.70031 0.03191
 O30 O 0.97694 0.69995 -0.03134
 O31 O 1.02636 0.70025 -0.03132
 O32 O 0.97690 0.70006 0.03188
 O33 O 0.97679 0.74189 0.03166
 O34 O 1.02603 0.74208 -0.03132
 O35 O 0.97681 0.74178 -0.03134
 O36 O 1.02606 0.74213 0.03168
 Cu37 Cu 1.00166 0.69590 0.00031
 Cu38 Cu 1.00140 0.74617 0.00017
 C39 C 1.03464 0.72133 0.04233
 C40 C 0.96849 0.72084 -0.04192
 C41 C 1.03459 0.72125 -0.04189
 C42 C 0.96842 0.72099 0.04229
 O43 O 0.52531 0.19871 0.53253
 O44 O 0.47579 0.19843 0.46945
 O45 O 0.52525 0.19880 0.46933
 O46 O 0.47587 0.19847 0.53268
 O47 O 0.47573 0.24030 0.53257
 O48 O 0.52489 0.24063 0.46947
 O49 O 0.47564 0.24026 0.46957
 O50 O 0.52496 0.24054 0.53242
 Cu51 Cu 0.50057 0.19436 0.50099
 Cu52 Cu 0.50027 0.24464 0.50100
 C53 C 0.53357 0.21973 0.54298
 C54 C 0.46729 0.21934 0.45900
 C55 C 0.53349 0.21983 0.45886
 C56 C 0.46741 0.21938 0.54321
 O57 O 0.69784 0.02435 -0.03236
 O58 O 0.69701 -0.02534 0.03050
 O59 O 0.69694 0.02417 0.03067
 O60 O 0.69778 -0.02518 -0.03252
 O61 O 0.73961 -0.02508 -0.03150
 O62 O 0.73878 0.02411 0.03150
 O63 O 0.73884 -0.02521 0.03132
 O64 O 0.73968 0.02427 -0.03133
 Cu65 Cu 0.69315 -0.00050 -0.00102
 Cu66 Cu 0.74344 -0.00048 0.00008
 C67 C 0.71895 0.03286 -0.04218
 C68 C 0.71784 -0.03383 0.04127
 C69 C 0.71776 0.03263 0.04149
 C70 C 0.71888 -0.03363 -0.04240
 O71 O 0.19684 0.47516 0.53254
 O72 O 0.19660 0.52474 0.46952
 O73 O 0.19665 0.47520 0.46952
 O74 O 0.19671 0.52469 0.53256
 O75 O 0.23855 0.52472 0.53230
 O76 O 0.23849 0.47536 0.46944
 O77 O 0.23845 0.52472 0.46945
 O78 O 0.23869 0.47537 0.53227
 Cu79 Cu 0.19246 0.49994 0.50105
 Cu80 Cu 0.24275 0.50006 0.50084
 C81 C 0.21786 0.46673 0.54277
 C82 C 0.21754 0.53327 0.45912
 C83 C 0.21759 0.46675 0.45912
 C84 C 0.21767 0.53323 0.54280
 O85 O 0.29919 1.02525 0.03308
 O86 O 0.29949 0.97658 -0.03111
 O87 O 0.29937 1.02601 -0.03013
 O88 O 0.29938 0.97582 0.03211
 O89 O 0.25754 0.97577 0.03185
 O90 O 0.25753 1.02577 -0.03016
 O91 O 0.25765 0.97653 -0.03114
 O92 O 0.25736 1.02500 0.03282
 Cu93 Cu 0.30360 1.00093 0.00100
 Cu94 Cu 0.25332 1.00075 0.00082
 C95 C 0.27818 1.03341 0.04367
 C96 C 0.27857 0.96827 -0.04183
 C97 C 0.27840 1.03443 -0.04052
 C98 C 0.27841 0.96726 0.04235
 O99 O 0.80040 0.52459 0.53005
 O100 O 0.80008 0.47543 0.46652
 O101 O 0.80020 0.52488 0.46685
 O102 O 0.80024 0.47514 0.52971
 O103 O 0.75840 0.47534 0.52979
 O104 O 0.75836 0.52487 0.46717
 O105 O 0.75824 0.47563 0.46684
 O106 O 0.75856 0.52458 0.53013
 Cu107 Cu 0.80447 0.50000 0.49826
 Cu108 Cu 0.75418 0.50012 0.49850
 C109 C 0.77948 0.53296 0.54066
 C110 C 0.77905 0.46715 0.45612
 C111 C 0.77922 0.53335 0.45656
 C112 C 0.77927 0.46677 0.54020
 C113 C 0.20211 0.22005 0.17678
 C114 C 0.21978 0.20111 0.17770
 C115 C 0.23714 0.20769 0.20150
 N116 N 0.23055 0.22998 0.21510
 C117 C 0.20913 0.23762 0.20013
 C118 C 0.25909 0.19359 0.20911
 C119 C 0.27722 0.20053 0.23279
 C120 C 0.30062 0.18897 0.23637
 C121 C 0.31277 0.20108 0.26141
 C122 C 0.29652 0.21975 0.27260
 N123 N 0.27472 0.21898 0.25536
 C124 C 0.30225 0.23654 0.29834
 C125 C 0.28771 0.25796 0.30692
 C126 C 0.29349 0.27434 0.33216
 C127 C 0.27562 0.29310 0.33159
 C128 C 0.25941 0.28763 0.30604
 N129 N 0.26690 0.26617 0.29107
 C130 C 0.23797 0.30225 0.29762
 C131 C 0.22065 0.29631 0.27249
 C132 C 0.19827 0.30933 0.26687
 C133 C 0.18631 0.29743 0.24150
 C134 C 0.20162 0.27738 0.23219
 N135 N 0.22272 0.27718 0.25080
 C136 C 0.19538 0.25988 0.20741
 H137 H 0.18591 0.22072 0.16074
 H138 H 0.21992 0.18452 0.16232
 H139 H 0.23822 0.26554 0.24773
 H140 H 0.30831 0.17356 0.22218
 H141 H 0.33158 0.19673 0.27018
 H142 H 0.30903 0.27302 0.34917
 H143 H 0.27467 0.30892 0.34821
 H144 H 0.16814 0.30273 0.23147
 H145 H 0.25835 0.22898 0.26047
 H146 H 0.19105 0.32552 0.28001
 C147 C 0.71132 0.73014 0.33437
 C148 C 0.72973 0.71188 0.33451
 C149 C 0.74322 0.71470 0.30585
 N150 N 0.73355 0.73393 0.28818
 C151 C 0.71414 0.74351 0.30562
 C152 C 0.76290 0.69854 0.29554
 C153 C 0.77807 0.70299 0.26789
 C154 C 0.79466 0.68557 0.25445
 C155 C 0.80667 0.69753 0.22909
 C156 C 0.79705 0.72192 0.22767
 N157 N 0.77985 0.72514 0.25161
 C158 C 0.80522 0.74076 0.20571
 C159 C 0.79229 0.76375 0.20024
 C160 C 0.80085 0.78306 0.18025
 C161 C 0.78220 0.80109 0.17975
 C162 C 0.76287 0.79225 0.19950
 N163 N 0.76902 0.76935 0.21177
 C164 C 0.73944 0.80455 0.20413
 C165 C 0.72072 0.79644 0.22632
 C166 C 0.69614 0.80562 0.22741
 C167 C 0.68437 0.79387 0.25312
 C168 C 0.70207 0.77782 0.26703
 N169 N 0.72422 0.77973 0.25077
 C170 C 0.69781 0.76295 0.29500
 H171 H 0.69732 0.73306 0.35317
 H172 H 0.73270 0.69800 0.35344
 H173 H 0.74142 0.77219 0.25807
 H174 H 0.79794 0.66630 0.26227
 H175 H 0.82095 0.68923 0.21357
 H176 H 0.81852 0.78393 0.16704
 H177 H 0.78271 0.81858 0.16610
 H178 H 0.66503 0.79692 0.26078
 H179 H 0.77191 0.74222 0.25863
 H180 H 0.68760 0.81947 0.21146
 C181 C 0.71102 0.27055 0.33474
 C182 C 0.72932 0.28893 0.33449
 C183 C 0.74266 0.28603 0.30573
 N184 N 0.73298 0.26662 0.28837
 C185 C 0.71374 0.25702 0.30612
 C186 C 0.76219 0.30225 0.29506
 C187 C 0.77722 0.29777 0.26729
 C188 C 0.79363 0.31524 0.25354
 C189 C 0.80556 0.30324 0.22816
 C190 C 0.79608 0.27878 0.22706
 N191 N 0.77903 0.27556 0.25119
 C192 C 0.80422 0.25989 0.20518
 C193 C 0.79140 0.23678 0.20009
 C194 C 0.79993 0.21742 0.18020
 C195 C 0.78140 0.19925 0.18011
 C196 C 0.76215 0.20806 0.20000
 N197 N 0.76824 0.23108 0.21195
 C198 C 0.73883 0.19562 0.20500
 C199 C 0.72020 0.20370 0.22731
 C200 C 0.69569 0.19433 0.22874
 C201 C 0.68400 0.20613 0.25445
 C202 C 0.70167 0.22239 0.26803
 N203 N 0.72374 0.22057 0.25156
 C204 C 0.69747 0.23739 0.29588
 H205 H 0.69715 0.26764 0.35371
 H206 H 0.73233 0.30294 0.35324
 H207 H 0.74093 0.22828 0.25860
 H208 H 0.79685 0.33457 0.26115
 H209 H 0.81970 0.31156 0.21243
 H210 H 0.81752 0.21661 0.16678
 H211 H 0.78193 0.18169 0.16663
 H212 H 0.66472 0.20297 0.26233
 H213 H 0.77123 0.25847 0.25846
 H214 H 0.68715 0.18033 0.21301
 C215 C 0.21119 0.77024 0.16455
 C216 C 0.22957 0.78856 0.16443
 C217 C 0.24306 0.78578 0.19309
 N218 N 0.23341 0.76650 0.21074
 C219 C 0.21403 0.75686 0.19329
 C220 C 0.26269 0.80201 0.20341
 C221 C 0.27785 0.79763 0.23108
 C222 C 0.29437 0.81513 0.24454
 C223 C 0.30640 0.80323 0.26993
 C224 C 0.29688 0.77879 0.27132
 N225 N 0.27970 0.77549 0.24736
 C226 C 0.30509 0.75998 0.29329
 C227 C 0.29225 0.73692 0.29864
 C228 C 0.30090 0.71757 0.31848
 C229 C 0.28232 0.69946 0.31891
 C230 C 0.26292 0.70829 0.29930
 N231 N 0.26897 0.73126 0.28714
 C232 C 0.23949 0.69593 0.29474
 C233 C 0.22075 0.70396 0.27255
 C234 C 0.19620 0.69467 0.27147
 C235 C 0.18439 0.70637 0.24576
 C236 C 0.20204 0.72249 0.23183
 N237 N 0.22420 0.72067 0.24809
 C238 C 0.19773 0.73737 0.20388
 H239 H 0.19721 0.76729 0.14574
 H240 H 0.23251 0.80245 0.14551
 H241 H 0.24137 0.72829 0.24081
 H242 H 0.29758 0.83442 0.23673
 H243 H 0.32063 0.81159 0.28547
 H244 H 0.31861 0.71672 0.33163
 H245 H 0.28294 0.68190 0.33240
 H246 H 0.16505 0.70324 0.23809
 H247 H 0.27183 0.75838 0.24031
 H248 H 0.18770 0.68079 0.28743
 C249 C 0.78464 0.19930 0.81700
 C250 C 0.80312 0.21751 0.81628
 C251 C 0.79419 0.23681 0.79656
 N252 N 0.77084 0.23104 0.78543
 C253 C 0.76501 0.20804 0.79768
 C254 C 0.80683 0.25995 0.79104
 C255 C 0.79837 0.27871 0.76918
 C256 C 0.80775 0.30319 0.76766
 C257 C 0.79551 0.31501 0.74239
 C258 C 0.77899 0.29742 0.72914
 N259 N 0.78105 0.27530 0.74542
 C260 C 0.76361 0.30170 0.70164
 C261 C 0.74395 0.28540 0.69165
 C262 C 0.73020 0.28807 0.66318
 C263 C 0.71189 0.26971 0.66364
 C264 C 0.71502 0.25640 0.69238
 N265 N 0.73452 0.26614 0.70952
 C266 C 0.69888 0.23688 0.70330
 C267 C 0.70348 0.22206 0.73121
 C268 C 0.68600 0.20591 0.74544
 C269 C 0.69808 0.19424 0.77096
 C270 C 0.72262 0.20357 0.77162
 N271 N 0.72580 0.22028 0.74710
 C272 C 0.74160 0.19559 0.79350
 H273 H 0.78546 0.18175 0.83048
 H274 H 0.82095 0.21675 0.82916
 H275 H 0.74289 0.22792 0.73950
 H276 H 0.82205 0.31164 0.78303
 H277 H 0.79857 0.33431 0.73453
 H278 H 0.73294 0.30194 0.64416
 H279 H 0.69774 0.26666 0.64505
 H280 H 0.68977 0.18035 0.78706
 H281 H 0.77323 0.25814 0.73847
 H282 H 0.66659 0.20275 0.73810
 C283 C 0.27617 0.70643 0.67056
 C284 C 0.29409 0.72516 0.66985
 C285 C 0.28844 0.74157 0.69511
 N286 N 0.26767 0.73340 0.71110
 C287 C 0.26006 0.71194 0.69620
 C288 C 0.30306 0.76298 0.70355
 C289 C 0.29741 0.77984 0.72925
 C290 C 0.31372 0.79852 0.74031
 C291 C 0.30161 0.81073 0.76531
 C292 C 0.27819 0.79921 0.76899
 N293 N 0.27562 0.78069 0.74653
 C294 C 0.26008 0.80627 0.79263
 C295 C 0.23813 0.79221 0.80040
 C296 C 0.22079 0.79890 0.82418
 C297 C 0.20312 0.77995 0.82530
 C298 C 0.21011 0.76226 0.80210
 N299 N 0.23152 0.76983 0.78703
 C300 C 0.19634 0.73996 0.79505
 C301 C 0.20252 0.72235 0.77036
 C302 C 0.18719 0.70224 0.76126
 C303 C 0.19906 0.69028 0.73587
 C304 C 0.22140 0.70333 0.73002
 N305 N 0.22355 0.72253 0.75160
 C306 C 0.23861 0.69736 0.70478
 H307 H 0.27511 0.69060 0.65395
 H308 H 0.30957 0.72644 0.65274
 H309 H 0.23903 0.73424 0.75446
 H310 H 0.33253 0.80282 0.73148
 H311 H 0.30935 0.82618 0.77939
 H312 H 0.22095 0.81557 0.83941
 H313 H 0.18694 0.77936 0.84138
 H314 H 0.19180 0.67404 0.72286
 H315 H 0.25922 0.77071 0.74149
 H316 H 0.16906 0.69695 0.77145
 C317 C 0.28321 0.30047 0.68306
 C318 C 0.30170 0.28228 0.68354
 C319 C 0.29297 0.26303 0.70350
 N320 N 0.26973 0.26881 0.71501
 C321 C 0.26378 0.29177 0.70276
 C322 C 0.30569 0.23992 0.70893
 C323 C 0.29742 0.22122 0.73103
 C324 C 0.30682 0.19675 0.73253
 C325 C 0.29478 0.18499 0.75802
 C326 C 0.27838 0.20260 0.77144
 N327 N 0.28031 0.22468 0.75503
 C328 C 0.26324 0.19838 0.79918
 C329 C 0.24370 0.21471 0.80945
 C330 C 0.23023 0.21209 0.83815
 C331 C 0.21193 0.23046 0.83795
 C332 C 0.21479 0.24372 0.80912
 N333 N 0.23412 0.23395 0.79169
 C334 C 0.19856 0.26321 0.79842
 C335 C 0.20291 0.27798 0.77038
 C336 C 0.18531 0.29410 0.75639
 C337 C 0.19715 0.30568 0.73060
 C338 C 0.22166 0.29633 0.72955
 N339 N 0.22507 0.27969 0.75410
 C340 C 0.24042 0.30423 0.70730
 H341 H 0.28391 0.31799 0.66948
 H342 H 0.31939 0.28302 0.67035
 H343 H 0.24222 0.27205 0.76141
 H344 H 0.32098 0.18828 0.71698
 H345 H 0.29791 0.16571 0.76593
 H346 H 0.23313 0.19825 0.85715
 H347 H 0.19797 0.23353 0.85676
 H348 H 0.18869 0.31953 0.71458
 H349 H 0.27254 0.24185 0.76201
 H350 H 0.16599 0.29730 0.76405
 C351 C 0.71261 0.72920 0.66361
 C352 C 0.73095 0.71088 0.66354
 C353 C 0.74451 0.71374 0.69213
 N354 N 0.73493 0.73308 0.70970
 C355 C 0.71552 0.74267 0.69225
 C356 C 0.76414 0.69754 0.70249
 C357 C 0.77938 0.70199 0.73007
 C358 C 0.79587 0.68451 0.74359
 C359 C 0.80799 0.69649 0.76885
 C360 C 0.79854 0.72095 0.77010
 N361 N 0.78132 0.72419 0.74617
 C362 C 0.80684 0.73983 0.79190
 C363 C 0.79409 0.76294 0.79710
 C364 C 0.80284 0.78236 0.81674
 C365 C 0.78430 0.80050 0.81711
 C366 C 0.76481 0.79159 0.79767
 N367 N 0.77079 0.76856 0.78567
 C368 C 0.74138 0.80392 0.79317
 C369 C 0.72256 0.79582 0.77114
 C370 C 0.69801 0.80510 0.77015
 C371 C 0.68611 0.79333 0.74457
 C372 C 0.70370 0.77717 0.73064
 N373 N 0.72592 0.77904 0.74676
 C374 C 0.69929 0.76221 0.70279
 H375 H 0.69858 0.73211 0.64484
 H376 H 0.73383 0.69692 0.64469
 H377 H 0.74306 0.77141 0.73943
 H378 H 0.79901 0.66519 0.73592
 H379 H 0.82223 0.68816 0.78441
 H380 H 0.82058 0.78325 0.82980
 H381 H 0.78499 0.81811 0.83046
 H382 H 0.66675 0.79642 0.73699
 H383 H 0.77348 0.74129 0.73902
 H384 H 0.68958 0.81903 0.78606
 C385 C 0.27000 0.13017 0.15338
 C386 C 0.29381 0.12448 0.13945
 C387 C 0.29624 0.10364 0.11787
 C388 C 0.27484 0.08862 0.11036
 C389 C 0.25117 0.09392 0.12498
 C390 C 0.24875 0.11475 0.14656
 C391 C 0.22486 0.11977 0.16070
 C392 C 0.20396 0.10465 0.15371
 C393 C 0.20632 0.08429 0.13261
 C394 C 0.22960 0.07890 0.11834
 C395 C 0.32018 0.09842 0.10407
 C396 C 0.34115 0.11335 0.11139
 C397 C 0.33878 0.13374 0.13247
 C398 C 0.31541 0.13934 0.14640
 C399 C 0.27683 0.06833 0.08673
 C400 C 0.27781 0.05176 0.06667
 C401 C 0.26703 0.15239 0.17373
 C402 C 0.26383 0.17102 0.19009
 H403 H 0.22207 0.13534 0.17734
 H404 H 0.18583 0.10876 0.16476
 H405 H 0.19003 0.07259 0.12727
 H406 H 0.23049 0.06282 0.10214
 H407 H 0.32297 0.08274 0.08757
 H408 H 0.35934 0.10908 0.10064
 H409 H 0.35512 0.14528 0.13808
 H410 H 0.31449 0.15537 0.16267
 C411 C 0.77241 0.63285 0.64863
 C412 C 0.79625 0.62141 0.64323
 C413 C 0.79820 0.60015 0.62224
 C414 C 0.77631 0.59048 0.60682
 C415 C 0.75237 0.60156 0.61284
 C416 C 0.75042 0.62278 0.63385
 C417 C 0.72629 0.63358 0.63942
 C418 C 0.70474 0.62375 0.62459
 C419 C 0.70665 0.60303 0.60401
 C420 C 0.73014 0.59199 0.59812
 C421 C 0.82225 0.58913 0.61704
 C422 C 0.84375 0.59880 0.63219
 C423 C 0.84183 0.61958 0.65272
 C424 C 0.81839 0.63084 0.65826
 C425 C 0.77833 0.56964 0.58403
 C426 C 0.77929 0.55267 0.56453
 C427 C 0.77047 0.65543 0.66847
 C428 C 0.76806 0.67445 0.68427
 H429 H 0.72378 0.64964 0.65536
 H430 H 0.68645 0.63225 0.62913
 H431 H 0.68985 0.59545 0.59255
 H432 H 0.73063 0.57586 0.58197
 H433 H 0.82467 0.57292 0.60131
 H434 H 0.86200 0.59012 0.62797
 H435 H 0.85859 0.62701 0.66444
 H436 H 0.81782 0.64693 0.67447
 C437 C 0.72559 0.86550 0.14503
 C438 C 0.71978 0.88958 0.15805
 C439 C 0.71692 0.91071 0.13701
 C440 C 0.71983 0.90759 0.10309
 C441 C 0.72500 0.88337 0.09000
 C442 C 0.72795 0.86227 0.11105
 C443 C 0.73336 0.83829 0.09743
 C444 C 0.73566 0.83522 0.06396
 C445 C 0.73269 0.85583 0.04337
 C446 C 0.72747 0.87967 0.05610
 C447 C 0.71130 0.93464 0.15058
 C448 C 0.70853 0.93760 0.18401
 C449 C 0.71129 0.91694 0.20458
 C450 C 0.71686 0.89316 0.19189
 C451 C 0.71836 0.92932 0.08161
 C452 C 0.71779 0.94694 0.06305
 C453 C 0.72987 0.84417 0.16652
 C454 C 0.73395 0.82627 0.18389
 H455 H 0.73579 0.82167 0.11243
 H456 H 0.73974 0.81674 0.05396
 H457 H 0.73440 0.85333 0.01739
 H458 H 0.72531 0.89510 0.03906
 H459 H 0.70894 0.95125 0.13554
 H460 H 0.70421 0.95604 0.19399
 H461 H 0.70911 0.91935 0.23052
 H462 H 0.71879 0.87764 0.20884
 C463 C 0.22728 0.36486 0.64744
 C464 C 0.21390 0.38649 0.65815
 C465 C 0.21101 0.40762 0.63711
 C466 C 0.22148 0.40695 0.60549
 C467 C 0.23449 0.38512 0.59459
 C468 C 0.23739 0.36402 0.61562
 C469 C 0.25055 0.34246 0.60422
 C470 C 0.26059 0.34178 0.57296
 C471 C 0.25779 0.36243 0.55240
 C472 C 0.24488 0.38388 0.56293
 C473 C 0.19768 0.42908 0.64840
 C474 C 0.18746 0.42965 0.67958
 C475 C 0.19026 0.40898 0.70013
 C476 C 0.20332 0.38759 0.68968
 C477 C 0.21933 0.42874 0.58422
 C478 C 0.21825 0.44641 0.56579
 C479 C 0.23120 0.34365 0.66924
 C480 C 0.23507 0.32585 0.68684
 H481 H 0.25319 0.32589 0.61925
 H482 H 0.27061 0.32515 0.56465
 H483 H 0.26568 0.36184 0.52816
 H484 H 0.24315 0.39942 0.54598
 H485 H 0.19499 0.44559 0.63326
 H486 H 0.17730 0.44622 0.68782
 H487 H 0.18227 0.40951 0.72432
 H488 H 0.20499 0.37196 0.70651
 C489 C 0.86755 0.27147 0.14945
 C490 C 0.87127 0.29433 0.13220
 C491 C 0.89237 0.29693 0.11103
 C492 C 0.90960 0.27665 0.10726
 C493 C 0.90622 0.25403 0.12516
 C494 C 0.88514 0.25143 0.14631
 C495 C 0.88207 0.22856 0.16377
 C496 C 0.89934 0.20883 0.16044
 C497 C 0.91996 0.21137 0.13976
 C498 C 0.92345 0.23366 0.12226
 C499 C 0.89560 0.31989 0.09387
 C500 C 0.87850 0.33974 0.09754
 C501 C 0.85788 0.33719 0.11823
 C502 C 0.85420 0.31478 0.13541
 C503 C 0.93029 0.27862 0.08418
 C504 C 0.94726 0.27958 0.06465
 C505 C 0.84525 0.26816 0.16959
 C506 C 0.82664 0.26476 0.18594
 H507 H 0.86637 0.22570 0.18023
 H508 H 0.89671 0.19149 0.17399
 H509 H 0.93333 0.19599 0.13726
 H510 H 0.93982 0.23473 0.10653
 H511 H 0.91138 0.32277 0.07753
 H512 H 0.88127 0.35719 0.08425
 H513 H 0.84465 0.35267 0.12100
 H514 H 0.83790 0.31370 0.15124
 C515 C 0.36799 0.77241 0.65028
 C516 C 0.37621 0.79657 0.63988
 C517 C 0.39752 0.79875 0.61900
 C518 C 0.41049 0.77674 0.60870
 C519 C 0.40269 0.75263 0.61987
 C520 C 0.38140 0.75046 0.64074
 C521 C 0.37388 0.72614 0.65145
 C522 C 0.38701 0.70458 0.64178
 C523 C 0.40782 0.70669 0.62135
 C524 C 0.41566 0.73038 0.61045
 C525 C 0.40528 0.82308 0.60870
 C526 C 0.39236 0.84466 0.61880
 C527 C 0.37154 0.84254 0.63923
 C528 C 0.36345 0.81881 0.64972
 C529 C 0.43124 0.77868 0.58574
 C530 C 0.44815 0.77959 0.56614
 C531 C 0.34525 0.76993 0.66977
 C532 C 0.32617 0.76717 0.68538
 H533 H 0.35788 0.72351 0.66747
 H534 H 0.38101 0.68613 0.65022
 H535 H 0.41797 0.68988 0.61391
 H536 H 0.43200 0.73104 0.59465
 H537 H 0.42140 0.82567 0.59285
 H538 H 0.39856 0.86314 0.61072
 H539 H 0.36158 0.85937 0.64702
 H540 H 0.34719 0.81810 0.66566
 C541 C 0.13321 0.72882 0.14961
 C542 C 0.12320 0.75077 0.13469
 C543 C 0.10210 0.74877 0.11349
 C544 C 0.09106 0.72482 0.10738
 C545 C 0.10069 0.70295 0.12292
 C546 C 0.12183 0.70497 0.14411
 C547 C 0.13120 0.68285 0.15926
 C548 C 0.11999 0.65939 0.15363
 C549 C 0.09934 0.65742 0.13290
 C550 C 0.08972 0.67889 0.11763
 C551 C 0.09258 0.77097 0.09864
 C552 C 0.10357 0.79447 0.10461
 C553 C 0.12417 0.79644 0.12540
 C554 C 0.13395 0.77492 0.14035
 C555 C 0.07028 0.72275 0.08445
 C556 C 0.05335 0.72172 0.06488
 C557 C 0.15571 0.73082 0.16966
 C558 C 0.17468 0.73330 0.18560
 H559 H 0.14720 0.68347 0.17563
 H560 H 0.12738 0.64266 0.16544
 H561 H 0.09071 0.63915 0.12861
 H562 H 0.07361 0.67643 0.10174
 H563 H 0.07654 0.77044 0.08234
 H564 H 0.09603 0.81125 0.09307
 H565 H 0.13263 0.81474 0.13000
 H566 H 0.14992 0.77746 0.15643
 C567 C 0.63387 0.22793 0.65022
 C568 C 0.62363 0.24978 0.63531
 C569 C 0.60233 0.24759 0.61448
 C570 C 0.59134 0.22357 0.60874
 C571 C 0.60118 0.20182 0.62430
 C572 C 0.62252 0.20401 0.64513
 C573 C 0.63212 0.18201 0.66031
 C574 C 0.62095 0.15849 0.65507
 C575 C 0.60009 0.15633 0.63469
 C576 C 0.59025 0.17769 0.61940
 C577 C 0.59257 0.26969 0.59962
 C578 C 0.60353 0.29326 0.60522
 C579 C 0.62434 0.29541 0.62564
 C580 C 0.63434 0.27400 0.64060
 C581 C 0.57042 0.22130 0.58609
 C582 C 0.55339 0.22015 0.56670
 C583 C 0.65656 0.23011 0.66984
 C584 C 0.67568 0.23271 0.68541
 H585 H 0.64829 0.18277 0.67641
 H586 H 0.62851 0.14184 0.66689
 H587 H 0.59148 0.13802 0.63070
 H588 H 0.57398 0.17510 0.60380
 H589 H 0.57637 0.26902 0.58359
 H590 H 0.59582 0.30995 0.59367
 H591 H 0.63277 0.31376 0.62996
 H592 H 0.65047 0.27668 0.65639
 C593 C 0.72883 0.13481 0.85327
 C594 C 0.73918 0.13551 0.88495
 C595 C 0.73627 0.11439 0.90596
 C596 C 0.72301 0.09267 0.89515
 C597 C 0.71232 0.09213 0.86365
 C598 C 0.71523 0.11328 0.84264
 C599 C 0.70442 0.11230 0.81124
 C600 C 0.69113 0.09101 0.80087
 C601 C 0.68832 0.07032 0.82139
 C602 C 0.69876 0.07077 0.85245
 C603 C 0.74688 0.11550 0.93750
 C604 C 0.76003 0.13685 0.94794
 C605 C 0.76285 0.15751 0.92741
 C606 C 0.75259 0.15696 0.89627
 C607 C 0.72076 0.07089 0.91642
 C608 C 0.71955 0.05321 0.93484
 C609 C 0.73266 0.15607 0.83152
 C610 C 0.73642 0.17391 0.81395
 H611 H 0.70609 0.12794 0.79443
 H612 H 0.68297 0.09057 0.77678
 H613 H 0.67798 0.05383 0.81322
 H614 H 0.69606 0.05424 0.86757
 H615 H 0.74516 0.09994 0.95442
 H616 H 0.76808 0.13735 0.97209
 H617 H 0.77305 0.17407 0.93565
 H618 H 0.75525 0.17354 0.88124
 C619 C 0.22631 0.63526 0.35453
 C620 C 0.23644 0.63613 0.38633
 C621 C 0.23364 0.61500 0.40735
 C622 C 0.22071 0.59312 0.39645
 C623 C 0.21020 0.59242 0.36485
 C624 C 0.21299 0.61357 0.34383
 C625 C 0.20238 0.61243 0.31233
 C626 C 0.18939 0.59099 0.30188
 C627 C 0.18669 0.57029 0.32242
 C628 C 0.19694 0.57089 0.35358
 C629 C 0.24405 0.61627 0.43899
 C630 C 0.25689 0.63778 0.44951
 C631 C 0.25960 0.65845 0.42897
 C632 C 0.24952 0.65775 0.39773
 C633 C 0.21870 0.57129 0.41769
 C634 C 0.21775 0.55360 0.43611
 C635 C 0.23018 0.65647 0.33272
 C636 C 0.23406 0.67428 0.31513
 H637 H 0.20397 0.62808 0.29550
 H638 H 0.18138 0.59043 0.27771
 H639 H 0.17658 0.55368 0.31418
 H640 H 0.19433 0.55436 0.36870
 H641 H 0.24241 0.60072 0.45593
 H642 H 0.26480 0.63840 0.47373
 H643 H 0.26956 0.67513 0.43727
 H644 H 0.25208 0.67434 0.38271
 C645 C 0.27092 0.87005 0.84771
 C646 C 0.24964 0.88547 0.85431
 C647 C 0.25198 0.90642 0.87571
 C648 C 0.27560 0.91183 0.89039
 C649 C 0.29704 0.89683 0.88309
 C650 C 0.29469 0.87586 0.86168
 C651 C 0.31632 0.86102 0.85494
 C652 C 0.33964 0.86674 0.86891
 C653 C 0.34195 0.88724 0.88982
 C654 C 0.32094 0.90217 0.89694
 C655 C 0.23038 0.92144 0.88212
 C656 C 0.20715 0.91593 0.86780
 C657 C 0.20486 0.89545 0.84687
 C658 C 0.22579 0.88034 0.84011
 C659 C 0.27749 0.93222 0.91391
 C660 C 0.27838 0.94885 0.93389
 C661 C 0.26801 0.84770 0.82759
 C662 C 0.26483 0.82896 0.81142
 H663 H 0.31546 0.84490 0.83880
 H664 H 0.35602 0.85521 0.86346
 H665 H 0.36011 0.89161 0.90060
 H666 H 0.32367 0.91794 0.91331
 H667 H 0.23121 0.93761 0.89818
 H668 H 0.19083 0.92762 0.87296
 H669 H 0.18677 0.89125 0.83578
 H670 H 0.22306 0.86467 0.82359
 C671 C 0.77093 0.36706 0.34858
 C672 C 0.74907 0.37716 0.36363
 C673 C 0.75123 0.39843 0.38452
 C674 C 0.77523 0.40952 0.39016
 C675 C 0.79698 0.39981 0.37447
 C676 C 0.79482 0.37851 0.35359
 C677 C 0.81683 0.36904 0.33829
 C678 C 0.84033 0.38031 0.34345
 C679 C 0.84244 0.40113 0.36388
 C680 C 0.82108 0.41085 0.37928
 C681 C 0.72913 0.40805 0.39952
 C682 C 0.70559 0.39699 0.39401
 C683 C 0.70347 0.37622 0.37353
 C684 C 0.72489 0.36635 0.35844
 C685 C 0.77747 0.43041 0.41285
 C686 C 0.77862 0.44741 0.43229
 C687 C 0.76879 0.34443 0.32886
 C688 C 0.76625 0.32537 0.31315
 H689 H 0.81610 0.35290 0.32215
 H690 H 0.85698 0.37284 0.33153
 H691 H 0.86074 0.40981 0.36780
 H692 H 0.82365 0.42709 0.39492
 H693 H 0.72977 0.42422 0.41559
 H694 H 0.68889 0.40460 0.40567
 H695 H 0.68513 0.36771 0.36929
 H696 H 0.72223 0.35025 0.34261
 C697 C 0.13395 0.27204 0.85243
 C698 C 0.12257 0.29592 0.85766
 C699 C 0.10129 0.29801 0.87861
 C700 C 0.09153 0.27621 0.89418
 C701 C 0.10260 0.25224 0.88839
 C702 C 0.12385 0.25015 0.86742
 C703 C 0.13461 0.22599 0.86206
 C704 C 0.12474 0.20453 0.87707
 C705 C 0.10400 0.20658 0.89763
 C706 C 0.09298 0.23010 0.90330
 C707 C 0.09031 0.32210 0.88362
 C708 C 0.10005 0.34351 0.86832
 C709 C 0.12084 0.34145 0.84781
 C710 C 0.13206 0.31797 0.84246
 C711 C 0.07054 0.27835 0.91677
 C712 C 0.05339 0.27938 0.93603
 C713 C 0.15651 0.26994 0.83252
 C714 C 0.17551 0.26738 0.81666
 H715 H 0.15069 0.22337 0.84617
 H716 H 0.13322 0.18621 0.87270
 H717 H 0.09638 0.18985 0.90923
 H718 H 0.07684 0.23069 0.91944
 H719 H 0.07409 0.32462 0.89932
 H720 H 0.09141 0.36179 0.87239
 H721 H 0.12832 0.35814 0.83598
 H722 H 0.14817 0.31729 0.82627
 C723 C 0.63328 0.77155 0.34916
 C724 C 0.62188 0.79542 0.35441
 C725 C 0.60072 0.79751 0.37555
 C726 C 0.59110 0.77572 0.39128
 C727 C 0.60214 0.75175 0.38540
 C728 C 0.62326 0.74966 0.36425
 C729 C 0.63402 0.72550 0.35883
 C730 C 0.62424 0.70405 0.37396
 C731 C 0.60361 0.70610 0.39469
 C732 C 0.59261 0.72962 0.40043
 C733 C 0.58973 0.82159 0.38060
 C734 C 0.59935 0.84299 0.36515
 C735 C 0.62003 0.84093 0.34447
 C736 C 0.63126 0.81746 0.33908
 C737 C 0.57033 0.77790 0.41419
 C738 C 0.55343 0.77900 0.43378
 C739 C 0.65579 0.76948 0.32918
 C740 C 0.67476 0.76698 0.31328
 H741 H 0.65001 0.72289 0.34279
 H742 H 0.63271 0.68573 0.36953
 H743 H 0.59607 0.68938 0.40638
 H744 H 0.57655 0.73021 0.41670
 H745 H 0.57359 0.82411 0.39643
 H746 H 0.59070 0.86126 0.36925
 H747 H 0.62743 0.85761 0.33252
 H748 H 0.64728 0.81678 0.32274
 C749 C 0.87012 0.72834 0.84771
 C750 C 0.88774 0.74838 0.85079
 C751 C 0.90862 0.74596 0.87229
 C752 C 0.91178 0.72351 0.89060
 C753 C 0.89456 0.70320 0.88685
 C754 C 0.87366 0.70562 0.86532
 C755 C 0.85660 0.68514 0.86213
 C756 C 0.86008 0.66288 0.87968
 C757 C 0.88050 0.66051 0.90073
 C758 C 0.89760 0.68039 0.90438
 C759 C 0.92587 0.76634 0.87514
 C760 C 0.92258 0.78846 0.85724
 C761 C 0.90216 0.79083 0.83621
 C762 C 0.88488 0.77109 0.83293
 C763 C 0.93218 0.72177 0.91412
 C764 C 0.94889 0.72097 0.93401
 C765 C 0.84790 0.73156 0.82742
 C766 C 0.82931 0.73494 0.81104
 H767 H 0.84046 0.68609 0.84603
 H768 H 0.84687 0.64738 0.87693
 H769 H 0.88312 0.64317 0.91430
 H770 H 0.91321 0.67765 0.92100
 H771 H 0.94208 0.76539 0.89112
 H772 H 0.93597 0.80385 0.85969
 H773 H 0.89970 0.80804 0.82235
 H774 H 0.86935 0.77381 0.81618
 C775 C 0.36725 0.22690 0.35133
 C776 C 0.38079 0.24881 0.36076
 C777 C 0.40212 0.24658 0.38155
 C778 C 0.40981 0.22245 0.39276
 C779 C 0.39671 0.20048 0.38256
 C780 C 0.37537 0.20271 0.36176
 C781 C 0.36248 0.18052 0.35201
 C782 C 0.37046 0.15677 0.36252
 C783 C 0.39131 0.15459 0.38289
 C784 C 0.40436 0.17613 0.39288
 C785 C 0.41523 0.26879 0.39087
 C786 C 0.40750 0.29249 0.37994
 C787 C 0.38665 0.29466 0.35958
 C788 C 0.37338 0.27314 0.35002
 C789 C 0.43059 0.22046 0.41565
 C790 C 0.44754 0.21953 0.43519
 C791 C 0.34449 0.22944 0.33194
 C792 C 0.32538 0.23227 0.31641
 H793 H 0.34618 0.18127 0.33613
 H794 H 0.36040 0.13997 0.35481
 H795 H 0.39743 0.13610 0.39098
 H796 H 0.42050 0.17349 0.40868
 H797 H 0.43160 0.26808 0.40661
 H798 H 0.41775 0.30927 0.38729
 H799 H 0.38073 0.31312 0.35112
 H800 H 0.35736 0.27581 0.33406
 C801 C 0.72838 0.86464 0.85282
 C802 C 0.71496 0.88627 0.84216
 C803 C 0.71215 0.90740 0.86319
 C804 C 0.72273 0.90673 0.89475
 C805 C 0.73579 0.88492 0.90559
 C806 C 0.73861 0.86381 0.88457
 C807 C 0.75181 0.84225 0.89592
 C808 C 0.76197 0.84158 0.92711
 C809 C 0.75923 0.86223 0.94766
 C810 C 0.74629 0.88368 0.93719
 C811 C 0.69877 0.92886 0.85197
 C812 C 0.68843 0.92943 0.82086
 C813 C 0.69116 0.90875 0.80031
 C814 C 0.70426 0.88737 0.81071
 C815 C 0.72059 0.92849 0.91604
 C816 C 0.71944 0.94612 0.93452
 C817 C 0.73220 0.84343 0.83104
 C818 C 0.73603 0.82561 0.81349
 H819 H 0.75439 0.82568 0.88088
 H820 H 0.77201 0.82494 0.93538
 H821 H 0.76720 0.86164 0.97186
 H822 H 0.74463 0.89922 0.95413
 H823 H 0.69614 0.94538 0.86710
 H824 H 0.67824 0.94599 0.81266
 H825 H 0.68307 0.90928 0.77618
 H826 H 0.70587 0.87173 0.79388
 C827 C 0.22506 0.36418 0.35536
 C828 C 0.21984 0.38826 0.34191
 C829 C 0.21727 0.40963 0.36260
 C830 C 0.21986 0.40676 0.39660
 C831 C 0.22447 0.38256 0.41011
 C832 C 0.22712 0.36122 0.38943
 C833 C 0.23192 0.33725 0.40348
 C834 C 0.23393 0.33443 0.43701
 C835 C 0.23125 0.35527 0.45725
 C836 C 0.22662 0.37911 0.44410
 C837 C 0.21223 0.43354 0.34859
 C838 C 0.20975 0.43626 0.31509
 C839 C 0.21223 0.41537 0.29487
 C840 C 0.21723 0.39159 0.30799
 C841 C 0.21844 0.42867 0.41777
 C842 C 0.21777 0.44640 0.43614
 C843 C 0.22901 0.34256 0.33427
 C844 C 0.23281 0.32438 0.31730
 H845 H 0.23408 0.32044 0.38876
 H846 H 0.23754 0.31595 0.44734
 H847 H 0.23273 0.35297 0.48328
 H848 H 0.22468 0.39473 0.46087
 H849 H 0.21010 0.45033 0.36335
 H850 H 0.20587 0.45469 0.30477
 H851 H 0.21027 0.41758 0.26887
 H852 H 0.21897 0.37589 0.29130
 C853 C 0.27142 0.13392 0.85360
 C854 C 0.29522 0.12237 0.85890
 C855 C 0.29713 0.10109 0.87988
 C856 C 0.27523 0.09151 0.89540
 C857 C 0.25134 0.10275 0.88955
 C858 C 0.24943 0.12399 0.86855
 C859 C 0.22534 0.13493 0.86313
 C860 C 0.20379 0.12522 0.87811
 C861 C 0.20567 0.10449 0.89869
 C862 C 0.22911 0.09330 0.90443
 C863 C 0.32114 0.08994 0.88496
 C864 C 0.34264 0.09952 0.86970
 C865 C 0.34077 0.12031 0.84917
 C866 C 0.31737 0.13169 0.84375
 C867 C 0.27720 0.07052 0.91800
 C868 C 0.27813 0.05338 0.93728
 C869 C 0.26951 0.15643 0.83360
 C870 C 0.26714 0.17539 0.81763
 H871 H 0.22287 0.15101 0.84721
 H872 H 0.18554 0.13383 0.87369
 H873 H 0.18887 0.09701 0.91027
 H874 H 0.22957 0.07717 0.92059
 H875 H 0.32352 0.07372 0.90068
 H876 H 0.36086 0.09075 0.87383
 H877 H 0.35753 0.12767 0.83737
 H878 H 0.31683 0.14780 0.82754
 C879 C 0.77153 0.63392 0.34954
 C880 C 0.79540 0.62250 0.35470
 C881 C 0.79749 0.60116 0.37556
 C882 C 0.77568 0.59139 0.39110
 C883 C 0.75171 0.60250 0.38537
 C884 C 0.74962 0.62379 0.36449
 C885 C 0.72546 0.63459 0.35919
 C886 C 0.70400 0.62470 0.37418
 C887 C 0.70604 0.60391 0.39464
 C888 C 0.72956 0.59285 0.40025
 C889 C 0.82157 0.59015 0.38050
 C890 C 0.84299 0.59991 0.36523
 C891 C 0.84095 0.62076 0.34483
 C892 C 0.81747 0.63201 0.33954
 C893 C 0.77783 0.57039 0.41366
 C894 C 0.77890 0.55327 0.43295
 C895 C 0.76945 0.65651 0.32970
 C896 C 0.76694 0.67551 0.31386
 H897 H 0.72286 0.65071 0.34336
 H898 H 0.68568 0.63321 0.36985
 H899 H 0.68931 0.59628 0.40622
 H900 H 0.73015 0.57667 0.41632
 H901 H 0.82409 0.57389 0.39613
 H902 H 0.86128 0.59124 0.36925
 H903 H 0.85764 0.62826 0.33302
 H904 H 0.81680 0.64817 0.32342
 C905 C 0.13225 0.72948 0.84969
 C906 C 0.11735 0.75093 0.85725
 C907 C 0.09636 0.74851 0.87858
 C908 C 0.09037 0.72464 0.89219
 C909 C 0.10483 0.70306 0.88387
 C910 C 0.12583 0.70549 0.86253
 C911 C 0.14010 0.68369 0.85469
 C912 C 0.13379 0.66014 0.86757
 C913 C 0.11326 0.65777 0.88846
 C914 C 0.09888 0.67892 0.89662
 C915 C 0.08187 0.77027 0.88600
 C916 C 0.08794 0.79374 0.87270
 C917 C 0.10844 0.79610 0.85180
 C918 C 0.12304 0.77501 0.84407
 C919 C 0.06990 0.72259 0.91556
 C920 C 0.05316 0.72159 0.93539
 C921 C 0.15470 0.73239 0.82975
 C922 C 0.17354 0.73547 0.81373
 H923 H 0.15619 0.68460 0.83849
 H924 H 0.14488 0.64365 0.86130
 H925 H 0.10844 0.63943 0.89840
 H926 H 0.08306 0.67614 0.91291
 H927 H 0.06570 0.76940 0.90207
 H928 H 0.07664 0.81018 0.87862
 H929 H 0.11306 0.81436 0.84149
 H930 H 0.13873 0.77779 0.82759
 C931 C 0.63325 0.22836 0.35063
 C932 C 0.62310 0.25016 0.36576
 C933 C 0.60199 0.24788 0.38691
 C934 C 0.59107 0.22383 0.39274
 C935 C 0.60085 0.20213 0.37702
 C936 C 0.62201 0.20440 0.35588
 C937 C 0.63153 0.18244 0.34055
 C938 C 0.62046 0.15888 0.34592
 C939 C 0.59979 0.15665 0.36660
 C940 C 0.59002 0.17796 0.38205
 C941 C 0.59232 0.26993 0.40197
 C942 C 0.60319 0.29353 0.39627
 C943 C 0.62381 0.29576 0.37553
 C944 C 0.63372 0.27440 0.36038
 C945 C 0.57025 0.22150 0.41556
 C946 C 0.55327 0.22029 0.43505
 C947 C 0.65568 0.23063 0.33051
 C948 C 0.67457 0.23326 0.31445
 H949 H 0.64756 0.18325 0.32422
 H950 H 0.62797 0.14227 0.33398
 H951 H 0.59126 0.13831 0.37069
 H952 H 0.57390 0.17531 0.39788
 H953 H 0.57627 0.26920 0.41825
 H954 H 0.59555 0.31019 0.40798
 H955 H 0.63217 0.31414 0.37113
 H956 H 0.64969 0.27714 0.34434
 C957 C 0.87035 0.27205 0.84610
 C958 C 0.87383 0.29487 0.86350
 C959 C 0.89475 0.29749 0.88493
 C960 C 0.91205 0.27727 0.88879
 C961 C 0.90899 0.25475 0.87061
 C962 C 0.88808 0.25213 0.84921
 C963 C 0.88529 0.22936 0.83149
 C964 C 0.90268 0.20974 0.83483
 C965 C 0.92314 0.21229 0.85576
 C966 C 0.92635 0.23449 0.87351
 C967 C 0.89774 0.32039 0.90228
 C968 C 0.88056 0.34016 0.89854
 C969 C 0.86010 0.33760 0.87758
 C970 C 0.85667 0.31525 0.86022
 C971 C 0.93234 0.27913 0.91241
 C972 C 0.94892 0.27996 0.93247
 C973 C 0.84805 0.26859 0.82606
 C974 C 0.82938 0.26502 0.80990
 H975 H 0.86974 0.22649 0.81483
 H976 H 0.90028 0.19246 0.82108
 H977 H 0.93661 0.19700 0.85826
 H978 H 0.94260 0.23560 0.88943
 H979 H 0.91338 0.32328 0.91881
 H980 H 0.88313 0.35757 0.91197
 H981 H 0.84681 0.35302 0.87476
 H982 H 0.84050 0.31415 0.84418
 C983 C 0.36853 0.77163 0.34877
 C984 C 0.37232 0.79454 0.36587
 C985 C 0.39336 0.79711 0.38714
 C986 C 0.41047 0.77675 0.39116
 C987 C 0.40704 0.75409 0.37337
 C988 C 0.38602 0.75152 0.35212
 C989 C 0.38291 0.72862 0.33478
 C990 C 0.40007 0.70882 0.33833
 C991 C 0.42062 0.71132 0.35912
 C992 C 0.42416 0.73364 0.37650
 C993 C 0.39665 0.82012 0.40415
 C994 C 0.37967 0.84004 0.40024
 C995 C 0.35911 0.83753 0.37946
 C996 C 0.35537 0.81507 0.36242
 C997 C 0.43102 0.77867 0.41443
 C998 C 0.44786 0.77956 0.43415
 C999 C 0.34622 0.76832 0.32865
 C1000 C 0.32758 0.76490 0.31237
 H1001 H 0.36726 0.72578 0.31824
 H1002 H 0.39740 0.69144 0.32487
 H1003 H 0.43391 0.69589 0.36178
 H1004 H 0.44047 0.73470 0.39231
 H1005 H 0.41239 0.82298 0.42055
 H1006 H 0.38248 0.85753 0.41342
 H1007 H 0.34597 0.85306 0.37651
 H1008 H 0.33912 0.81401 0.34650
 C1009 C 0.27111 0.86660 0.14930
 C1010 C 0.24914 0.87668 0.13449
 C1011 C 0.25113 0.89795 0.11355
 C1012 C 0.27508 0.90908 0.10763
 C1013 C 0.29696 0.89935 0.12302
 C1014 C 0.29497 0.87804 0.14393
 C1015 C 0.31710 0.86857 0.15894
 C1016 C 0.34055 0.87984 0.15346
 C1017 C 0.34251 0.90066 0.13299
 C1018 C 0.32102 0.91038 0.11787
 C1019 C 0.22892 0.90755 0.09882
 C1020 C 0.20543 0.89647 0.10462
 C1021 C 0.20347 0.87570 0.12514
 C1022 C 0.22501 0.86585 0.13998
 C1023 C 0.27712 0.93009 0.08507
 C1024 C 0.27812 0.94725 0.06583
 C1025 C 0.26912 0.84403 0.16920
 C1026 C 0.26667 0.82504 0.18508
 H1027 H 0.31650 0.85243 0.17510
 H1028 H 0.35730 0.87237 0.16515
 H1029 H 0.36077 0.90935 0.12881
 H1030 H 0.32347 0.92663 0.10219
 H1031 H 0.22944 0.92371 0.08272
 H1032 H 0.18864 0.90407 0.09316
 H1033 H 0.18518 0.86718 0.12962
 H1034 H 0.22248 0.84975 0.15585
 C1035 C 0.77185 0.36623 0.64731
 C1036 C 0.74991 0.37627 0.63239
 C1037 C 0.75192 0.39755 0.61147
 C1038 C 0.77586 0.40872 0.60567
 C1039 C 0.79771 0.39903 0.62118
 C1040 C 0.79569 0.37771 0.64207
 C1041 C 0.81780 0.36828 0.65720
 C1042 C 0.84125 0.37960 0.65184
 C1043 C 0.84323 0.40044 0.63139
 C1044 C 0.82177 0.41012 0.61616
 C1045 C 0.72974 0.40711 0.59662
 C1046 C 0.70625 0.39599 0.60230
 C1047 C 0.70427 0.37521 0.62281
 C1048 C 0.72577 0.36540 0.63776
 C1049 C 0.77795 0.42973 0.58310
 C1050 C 0.77898 0.44684 0.56380
 C1051 C 0.76984 0.34367 0.66723
 C1052 C 0.76744 0.32470 0.68316
 H1053 H 0.81718 0.35214 0.67334
 H1054 H 0.85797 0.37217 0.66362
 H1055 H 0.86149 0.40915 0.62731
 H1056 H 0.82424 0.42637 0.60050
 H1057 H 0.73028 0.42328 0.58052
 H1058 H 0.68949 0.40355 0.59075
 H1059 H 0.68597 0.36666 0.62719
 H1060 H 0.72322 0.34929 0.65362
 C1061 C 0.72519 0.13445 0.14630
 C1062 C 0.72823 0.13751 0.11238
 C1063 C 0.72542 0.11637 0.09140
 C1064 C 0.71969 0.09226 0.10450
 C1065 C 0.71611 0.08931 0.13835
 C1066 C 0.71883 0.11049 0.15932
 C1067 C 0.71523 0.10709 0.19308
 C1068 C 0.70913 0.08343 0.20577
 C1069 C 0.70651 0.06271 0.18527
 C1070 C 0.70994 0.06551 0.15192
 C1071 C 0.72857 0.11990 0.05756
 C1072 C 0.73433 0.14363 0.04482
 C1073 C 0.73718 0.16428 0.06535
 C1074 C 0.73420 0.16137 0.09875
 C1075 C 0.71826 0.07049 0.08313
 C1076 C 0.71769 0.05287 0.06460
 C1077 C 0.72934 0.15582 0.16774
 C1078 C 0.73336 0.17378 0.18499
 H1079 H 0.71704 0.12266 0.20997
 H1080 H 0.70642 0.08116 0.23165
 H1081 H 0.70177 0.04437 0.19526
 H1082 H 0.70766 0.04886 0.13693
 H1083 H 0.72654 0.10442 0.04057
 H1084 H 0.73658 0.14600 0.01889
 H1085 H 0.74168 0.18267 0.05534
 H1086 H 0.73656 0.17803 0.11370
 C1087 C 0.22538 0.63552 0.64697
 C1088 C 0.22723 0.63861 0.61290
 C1089 C 0.22451 0.61733 0.59213
 C1090 C 0.22004 0.59306 0.60555
 C1091 C 0.21766 0.59007 0.63957
 C1092 C 0.22030 0.61138 0.66034
 C1093 C 0.21790 0.60794 0.69427
 C1094 C 0.21304 0.58410 0.70731
 C1095 C 0.21049 0.56326 0.68701
 C1096 C 0.21277 0.56610 0.65350
 C1097 C 0.22645 0.62089 0.55814
 C1098 C 0.23094 0.64479 0.54507
 C1099 C 0.23368 0.66558 0.56539
 C1100 C 0.23188 0.66264 0.59893
 C1101 C 0.21859 0.57121 0.58429
 C1102 C 0.21789 0.55353 0.56584
 C1103 C 0.22943 0.65709 0.66814
 C1104 C 0.23332 0.67524 0.68513
 H1105 H 0.21969 0.62360 0.71103
 H1106 H 0.21123 0.58180 0.73332
 H1107 H 0.20672 0.54479 0.69726
 H1108 H 0.21059 0.54935 0.63867
 H1109 H 0.22445 0.60532 0.54130
 H1110 H 0.23226 0.64718 0.51904
 H1111 H 0.23719 0.68410 0.55512
 H1112 H 0.23409 0.67941 0.61371
 C1113 C 0.86895 0.72923 0.15080
 C1114 C 0.88646 0.74935 0.14757
 C1115 C 0.90763 0.74675 0.12657
 C1116 C 0.91116 0.72405 0.10891
 C1117 C 0.89403 0.70368 0.11283
 C1118 C 0.87285 0.70628 0.13384
 C1119 C 0.85587 0.68574 0.13719
 C1120 C 0.85972 0.66325 0.12029
 C1121 C 0.88043 0.66070 0.09974
 C1122 C 0.89744 0.68063 0.09594
 C1123 C 0.92478 0.76720 0.12356
 C1124 C 0.92112 0.78956 0.14081
 C1125 C 0.90042 0.79210 0.16135
 C1126 C 0.88323 0.77230 0.16479
 C1127 C 0.93181 0.72213 0.08580
 C1128 C 0.94869 0.72121 0.06616
 C1129 C 0.84653 0.73256 0.17067
 C1130 C 0.82779 0.73595 0.18678
 H1131 H 0.83951 0.68683 0.15292
 H1132 H 0.84657 0.64771 0.12315
 H1133 H 0.88333 0.64319 0.08666
 H1134 H 0.91329 0.67775 0.07973
 H1135 H 0.94120 0.76612 0.10794
 H1136 H 0.93443 0.80500 0.13824
 H1137 H 0.89766 0.80951 0.17471
 H1138 H 0.86746 0.77516 0.18113
 C1139 C 0.36892 0.22784 0.65324
 C1140 C 0.38654 0.24785 0.64980
 C1141 C 0.40746 0.24517 0.62840
 C1142 C 0.41065 0.22250 0.61057
 C1143 C 0.39343 0.20224 0.61470
 C1144 C 0.37249 0.20492 0.63611
 C1145 C 0.35542 0.18448 0.63967
 C1146 C 0.35894 0.16201 0.62259
 C1147 C 0.37940 0.15939 0.60166
 C1148 C 0.39650 0.17922 0.59764
 C1149 C 0.42471 0.26552 0.62519
 C1150 C 0.42139 0.28785 0.64262
 C1151 C 0.40093 0.29046 0.66354
 C1152 C 0.38365 0.27076 0.66719
 C1153 C 0.43108 0.22050 0.58712
 C1154 C 0.44781 0.21957 0.56726
 C1155 C 0.34669 0.23129 0.67345
 C1156 C 0.32811 0.23485 0.68979
 H1157 H 0.33925 0.18562 0.65570
 H1158 H 0.34572 0.14655 0.62562
 H1159 H 0.38205 0.14189 0.58845
 H1160 H 0.41215 0.17628 0.58113
 H1161 H 0.44095 0.26438 0.60927
 H1162 H 0.43477 0.30321 0.63987
 H1163 H 0.39844 0.30785 0.67704
 H1164 H 0.36809 0.27368 0.68383
 C1165 C 0.13127 0.27065 0.15298
 C1166 C 0.12487 0.29473 0.14043
 C1167 C 0.10393 0.29729 0.11902
 C1168 C 0.08952 0.27574 0.11035
 C1169 C 0.09546 0.25179 0.12372
 C1170 C 0.11638 0.24924 0.14512
 C1171 C 0.12203 0.22508 0.15805
 C1172 C 0.10746 0.20403 0.15001
 C1173 C 0.08701 0.20651 0.12905
 C1174 C 0.08099 0.23006 0.11599
 C1175 C 0.09801 0.32151 0.10655
 C1176 C 0.11234 0.34263 0.11504
 C1177 C 0.13281 0.34013 0.13600
 C1178 C 0.13909 0.31649 0.14861
 C1179 C 0.06921 0.27792 0.08680
 C1180 C 0.05263 0.27904 0.06676
 C1181 C 0.15371 0.26761 0.17288
 C1182 C 0.17255 0.26445 0.18884
 H1183 H 0.13768 0.22220 0.17457
 H1184 H 0.11204 0.18570 0.16013
 H1185 H 0.07574 0.19011 0.12289
 H1186 H 0.06487 0.23104 0.09986
 H1187 H 0.08223 0.32439 0.09022
 H1188 H 0.10754 0.36103 0.10532
 H1189 H 0.14387 0.35659 0.14253
 H1190 H 0.15514 0.31549 0.16488
 C1191 C 0.63458 0.77104 0.64895
 C1192 C 0.62321 0.79495 0.64390
 C1193 C 0.60189 0.79715 0.62302
 C1194 C 0.59209 0.77542 0.60735
 C1195 C 0.60315 0.75142 0.61298
 C1196 C 0.62442 0.74922 0.63388
 C1197 C 0.63517 0.72502 0.63908
 C1198 C 0.62524 0.70364 0.62397
 C1199 C 0.60447 0.70579 0.60349
 C1200 C 0.59347 0.72935 0.59798
 C1201 C 0.59093 0.82127 0.61819
 C1202 C 0.60072 0.84260 0.63358
 C1203 C 0.62154 0.84045 0.65401
 C1204 C 0.63275 0.81693 0.65919
 C1205 C 0.57111 0.77770 0.58476
 C1206 C 0.55400 0.77886 0.56545
 C1207 C 0.65718 0.76885 0.66878
 C1208 C 0.67621 0.76629 0.68458
 H1209 H 0.65126 0.72234 0.65491
 H1210 H 0.63370 0.68529 0.62822
 H1211 H 0.59682 0.68912 0.59182
 H1212 H 0.57730 0.73002 0.58189
 H1213 H 0.57469 0.82387 0.60255
 H1214 H 0.59209 0.86091 0.62964
 H1215 H 0.62906 0.85708 0.66592
 H1216 H 0.64888 0.81617 0.67533
   
