data_POSCAR
  _audit_creation_date              2014-09-24
  _audit_creation_method            'ToBaCCo'
  _symmetry_space_group_name_H-M    'P1'
  _symmetry_Int_Tables_number       1
  _symmetry_cell_setting            triclinic
  loop_
  _symmetry_equiv_pos_as_xyz
 x,y,z
_cell_length_a 35.4290
_cell_length_b 34.5681
_cell_length_c 33.0973
_cell_angle_alpha 90.128700
_cell_angle_beta 89.317000
_cell_angle_gamma 86.064800
loop_
  _atom_site_label
  _atom_site_type_symbol
  _atom_site_fract_x
  _atom_site_fract_y
  _atom_site_fract_z
N1 N 0.14094 0.21510 0.24199
 N2 N 0.14329 0.17726 0.24701
 C3 C 0.11061 0.16649 0.26320
 C4 C 0.08663 0.19942 0.26897
 C5 C 0.10684 0.22975 0.25535
 H6 H 0.10561 0.13729 0.27248
 H7 H 0.09799 0.26032 0.25659
 Cu8 Cu 0.19047 0.14625 0.23728
 Cu9 Cu 0.18361 0.24262 0.22163
 Cu10 Cu 0.25561 0.18376 0.17820
 N11 N 0.24267 0.12425 0.23603
 N12 N 0.26824 0.13986 0.21333
 C13 C 0.30223 0.12140 0.21963
 C14 C 0.29775 0.09249 0.24759
 C15 C 0.25953 0.09464 0.25712
 H16 H 0.32827 0.12846 0.20484
 H17 H 0.24532 0.07684 0.27853
 N18 N 0.24714 0.23850 0.16461
 N19 N 0.22213 0.26188 0.18416
 C20 C 0.22631 0.29851 0.17197
 C21 C 0.25481 0.29765 0.14299
 C22 C 0.26714 0.25921 0.13867
 H23 H 0.20929 0.32377 0.18254
 H24 H 0.29001 0.24736 0.11944
 H25 H 0.19628 0.19626 0.18587
 H26 H 0.22837 0.20226 0.22938
 N27 N 0.67292 0.73733 0.75356
 N28 N 0.68246 0.71855 0.78679
 C29 C 0.65497 0.72499 0.81473
 C30 C 0.62629 0.74859 0.79790
 C31 C 0.63838 0.75571 0.75889
 H32 H 0.65501 0.71193 0.84439
 H33 H 0.62328 0.77286 0.73618
 Cu34 Cu 0.72732 0.68343 0.78910
 Cu35 Cu 0.70661 0.73576 0.70648
 Cu36 Cu 0.79530 0.68804 0.71880
 N37 N 0.76424 0.64022 0.77952
 N38 N 0.79112 0.64156 0.75192
 C39 C 0.81187 0.60732 0.75144
 C40 C 0.79683 0.58344 0.78016
 C41 C 0.76674 0.60532 0.79741
 H42 H 0.83562 0.60014 0.73132
 H43 H 0.74760 0.59640 0.82076
 N44 N 0.78476 0.72709 0.67644
 N45 N 0.75056 0.74383 0.67088
 C46 C 0.75215 0.76965 0.64071
 C47 C 0.78903 0.76936 0.62682
 C48 C 0.80909 0.74196 0.64998
 H49 H 0.72850 0.78849 0.63063
 H50 H 0.83910 0.73388 0.64818
 H51 H 0.73937 0.68452 0.71639
 H52 H 0.75349 0.72914 0.74259
 N53 N 0.35734 0.82108 0.67373
 N54 N 0.35094 0.84656 0.70323
 C55 C 0.38316 0.84933 0.72393
 C56 C 0.41118 0.82464 0.70641
 C57 C 0.39389 0.80760 0.67440
 H58 H 0.38503 0.86470 0.75227
 H59 H 0.40548 0.78308 0.65681
 Cu60 Cu 0.29935 0.86701 0.71894
 Cu61 Cu 0.31646 0.79616 0.64590
 Cu62 Cu 0.23038 0.81198 0.68891
 N63 N 0.24590 0.88607 0.72117
 N64 N 0.21926 0.86316 0.71149
 C65 C 0.18517 0.88159 0.71812
 C66 C 0.19049 0.91839 0.73222
 C67 C 0.22945 0.92048 0.73370
 H68 H 0.15854 0.86932 0.71205
 H69 H 0.24459 0.94477 0.74387
 N70 N 0.24163 0.76994 0.65119
 N71 N 0.27518 0.76386 0.63406
 C72 C 0.27464 0.73360 0.60851
 C73 C 0.23873 0.72038 0.60966
 C74 C 0.21844 0.74404 0.63697
 H75 H 0.29842 0.72236 0.59018
 H76 H 0.18901 0.74280 0.64557
 H77 H 0.28420 0.84600 0.66545
 H78 H 0.29703 0.80786 0.70425
 N79 N 0.83677 0.28447 0.23273
 N80 N 0.83544 0.32257 0.23111
 C81 C 0.86601 0.33522 0.24940
 C82 C 0.88742 0.30330 0.26384
 C83 C 0.86805 0.27155 0.25274
 H84 H 0.87119 0.36542 0.25359
 H85 H 0.87561 0.24142 0.25953
 Cu86 Cu 0.79188 0.35252 0.20956
 Cu87 Cu 0.79651 0.25502 0.21056
 Cu88 Cu 0.73404 0.30788 0.14898
 N89 N 0.74184 0.37584 0.19687
 N90 N 0.71924 0.35794 0.17304
 C91 C 0.68598 0.37884 0.17049
 C92 C 0.68782 0.41160 0.19407
 C93 C 0.72374 0.40908 0.21019
 H94 H 0.66210 0.37043 0.15325
 H95 H 0.73538 0.42925 0.23092
 N96 N 0.74110 0.25157 0.14643
 N97 N 0.76274 0.23096 0.17178
 C98 C 0.75973 0.19304 0.16379
 C99 C 0.73526 0.19013 0.13175
 C100 C 0.72423 0.22770 0.12135
 H101 H 0.77545 0.16945 0.17884
 H102 H 0.70524 0.23702 0.09737
 H103 H 0.79108 0.29503 0.16654
 H104 H 0.75268 0.29731 0.20572
 N105 N 0.88320 0.71428 0.24015
 N106 N 0.87760 0.67837 0.22993
 C107 C 0.90580 0.66482 0.20491
 C108 C 0.92966 0.69433 0.19866
 C109 C 0.91430 0.72536 0.22100
 H110 H 0.90797 0.63636 0.19107
 H111 H 0.92528 0.75369 0.22370
 Cu112 Cu 0.83183 0.65499 0.24756
 Cu113 Cu 0.85073 0.74317 0.27906
 Cu114 Cu 0.79450 0.68552 0.33652
 N115 N 0.78371 0.63776 0.26671
 N116 N 0.77059 0.64769 0.30290
 C117 C 0.73961 0.62849 0.31080
 C118 C 0.73239 0.60629 0.27732
 C119 C 0.76078 0.61289 0.24977
 H120 H 0.72348 0.63056 0.33878
 H121 H 0.76549 0.59910 0.22060
 N122 N 0.80943 0.73658 0.35518
 N123 N 0.82946 0.75893 0.33223
 C124 C 0.83487 0.79188 0.35229
 C125 C 0.81736 0.79040 0.38972
 C126 C 0.80132 0.75498 0.39059
 H127 H 0.85100 0.81494 0.34066
 H128 H 0.78499 0.74352 0.41508
 H129 H 0.84697 0.69167 0.30775
 H130 H 0.80257 0.71152 0.28344
 N131 N 0.35593 0.26306 -0.26216
 N132 N 0.32818 0.25504 -0.28615
 C133 C 0.34053 0.25328 -0.32457
 C134 C 0.37855 0.25946 -0.32506
 C135 C 0.38746 0.26636 -0.28496
 H136 H 0.32392 0.24397 -0.34953
 H137 H 0.41522 0.27042 -0.27304
 Cu138 Cu 0.28251 0.23520 -0.26563
 Cu139 Cu 0.34864 0.26281 -0.20295
 Cu140 Cu 0.26185 0.23396 -0.16763
 N141 N 0.24989 0.19806 -0.24369
 N142 N 0.24182 0.19619 -0.20493
 C143 C 0.22108 0.16528 -0.19857
 C144 C 0.21694 0.14686 -0.23548
 C145 C 0.23532 0.16869 -0.26323
 H146 H 0.21103 0.15615 -0.16935
 H147 H 0.23893 0.16311 -0.29525
 N148 N 0.29669 0.26166 -0.13348
 N149 N 0.33045 0.27107 -0.14606
 C150 C 0.34656 0.29066 -0.11619
 C151 C 0.32140 0.29423 -0.08385
 C152 C 0.29011 0.27573 -0.09593
 H153 H 0.37339 0.30368 -0.11876
 H154 H 0.26405 0.27360 -0.07897
 H155 H 0.30930 0.22146 -0.19972
 H156 H 0.29045 0.27300 -0.20481
 N157 N 0.61161 0.26724 -0.24649
 N158 N 0.61831 0.30323 -0.25514
 C159 C 0.59543 0.31638 -0.28478
 C160 C 0.57411 0.28651 -0.29664
 C161 C 0.58498 0.25558 -0.27176
 H162 H 0.59679 0.34438 -0.29906
 H163 H 0.57456 0.22689 -0.27217
 Cu164 Cu 0.66216 0.32646 -0.23503
 Cu165 Cu 0.63882 0.23964 -0.20294
 Cu166 Cu 0.71387 0.28506 -0.16115
 N167 N 0.71466 0.33634 -0.22888
 N168 N 0.73524 0.32150 -0.19920
 C169 C 0.76966 0.33602 -0.20106
 C170 C 0.77050 0.36023 -0.23442
 C171 C 0.73521 0.35967 -0.25124
 H172 H 0.79217 0.32965 -0.17979
 H173 H 0.72466 0.37621 -0.27694
 N174 N 0.69238 0.23912 -0.13645
 N175 N 0.66282 0.22295 -0.15151
 C176 C 0.65161 0.19603 -0.12541
 C177 C 0.67582 0.19458 -0.09298
 C178 C 0.70155 0.22192 -0.10104
 H179 H 0.62737 0.17909 -0.12943
 H180 H 0.72402 0.23003 -0.08155
 H181 H 0.65551 0.28885 -0.17395
 H182 H 0.69017 0.26495 -0.21087
 N183 N 0.16633 0.73665 0.23115
 N184 N 0.18592 0.76284 0.21330
 C185 C 0.17070 0.77119 0.17700
 C186 C 0.13958 0.74951 0.17248
 C187 C 0.13755 0.72801 0.20737
 H188 H 0.18040 0.79280 0.15646
 H189 H 0.11640 0.70805 0.21511
 Cu190 Cu 0.22692 0.78674 0.24108
 Cu191 Cu 0.18019 0.71652 0.28376
 Cu192 Cu 0.21912 0.77861 0.34545
 N193 N 0.25075 0.82160 0.27887
 N194 N 0.24495 0.82060 0.31835
 C195 C 0.26140 0.85043 0.33554
 C196 C 0.27886 0.87079 0.30540
 C197 C 0.27174 0.85156 0.26990
 H198 H 0.26149 0.85620 0.36767
 H199 H 0.28013 0.85954 0.23968
 N200 N 0.20869 0.72617 0.36293
 N201 N 0.19449 0.70149 0.33796
 C202 C 0.19240 0.66707 0.35636
 C203 C 0.20561 0.67041 0.39518
 C204 C 0.21553 0.70834 0.39855
 H205 H 0.18238 0.64144 0.34240
 H206 H 0.22804 0.72152 0.42439
 H207 H 0.19207 0.78494 0.28977
 H208 H 0.23632 0.75274 0.29317
 N209 N 0.47864 0.38602 0.44358
 N210 N 0.45215 0.39256 0.47149
 C211 C 0.45239 0.36197 0.49658
 C212 C 0.48062 0.33492 0.48387
 C213 C 0.49664 0.35101 0.45003
 H214 H 0.43477 0.36042 0.52338
 H215 H 0.52072 0.33908 0.43258
 Cu216 Cu 0.42218 0.44200 0.47503
 Cu217 Cu 0.48965 0.42533 0.40333
 Cu218 Cu 0.46952 0.51664 0.44340
 N219 N 0.40282 0.49543 0.48520
 N220 N 0.42303 0.52426 0.47440
 C221 C 0.40404 0.55807 0.48358
 C222 C 0.36952 0.55028 0.50017
 C223 C 0.36961 0.51014 0.50109
 H224 H 0.41360 0.58618 0.47578
 H225 H 0.34666 0.49310 0.51073
 N226 N 0.50271 0.50669 0.39625
 N227 N 0.50968 0.47217 0.37961
 C228 C 0.52965 0.47618 0.34506
 C229 C 0.53452 0.51526 0.33968
 C230 C 0.51732 0.53359 0.37272
 H231 H 0.53867 0.45272 0.32472
 H232 H 0.51436 0.56445 0.37854
 H233 H 0.48523 0.45818 0.45266
 H234 H 0.44787 0.47070 0.41457
 N235 N -0.01378 -0.08310 1.00889
 N236 N -0.04905 -0.07724 1.02149
 C237 C -0.05611 -0.10385 1.04976
 C238 C -0.02371 -0.12799 1.05406
 C239 C 0.00249 -0.11430 1.02762
 H240 H -0.08292 -0.10604 1.06526
 H241 H 0.03141 -0.12573 1.02300
 Cu242 Cu -0.08283 -0.03688 0.99811
 Cu243 Cu 0.00866 -0.04931 0.97016
 Cu244 Cu -0.04685 0.03113 0.93926
 N245 N -0.11116 0.01187 0.98679
 N246 N -0.09622 0.03907 0.96537
 C247 C -0.12093 0.07032 0.96382
 C248 C -0.15314 0.06203 0.98510
 C249 C -0.14617 0.02469 0.99916
 H250 H -0.11601 0.09689 0.94800
 H251 H -0.16481 0.00846 1.01771
 N252 N 0.00697 0.02211 0.92410
 N253 N 0.02853 -0.00751 0.93789
 C254 C 0.06387 -0.00549 0.92317
 C255 C 0.06430 0.02638 0.89829
 C256 C 0.02781 0.04311 0.89917
 H257 H 0.08701 -0.02699 0.92793
 H258 H 0.01714 0.06812 0.88216
 H259 H -0.02676 -0.00175 0.98712
 H260 H -0.03941 -0.02828 0.94063
 N261 N 1.03032 0.58430 0.96615
 N262 N 1.05760 0.57893 0.99281
 C263 C 1.06070 0.61222 1.01341
 C264 C 1.03397 0.63967 0.99898
 C265 C 1.01542 0.62105 0.96894
 H266 H 1.07927 0.61553 1.03871
 H267 H 0.99081 0.63237 0.95266
 Cu268 Cu 1.08403 0.52768 1.00199
 Cu269 Cu 1.00990 0.54190 0.93521
 Cu270 Cu 1.04269 0.45244 0.96168
 N271 N 1.11200 0.47758 0.99274
 N272 N 1.09523 0.44812 0.97757
 C273 C 1.11967 0.41667 0.97651
 C274 C 1.15368 0.42690 0.99173
 C275 C 1.14798 0.46579 1.00176
 H276 H 1.11298 0.38833 0.96596
 H277 H 1.16801 0.48375 1.01576
 N278 N 0.99646 0.46116 0.93147
 N279 N 0.98400 0.49627 0.92071
 C280 C 0.95429 0.49389 0.89621
 C281 C 0.94792 0.45521 0.89132
 C282 C 0.97510 0.43512 0.91418
 H283 H 0.93985 0.51829 0.88117
 H284 H 0.98058 0.40401 0.91586
 H285 H 1.02736 0.51733 0.98889
 H286 H 1.06372 0.51681 0.94748
 N287 N 0.52814 0.06391 0.50722
 N288 N 0.55497 0.05128 0.53208
 C289 C 0.55816 0.07783 0.56151
 C290 C 0.53260 0.10898 0.55419
 C291 C 0.51417 0.09936 0.51940
 H292 H 0.57739 0.07474 0.58660
 H293 H 0.49103 0.11606 0.50527
 Cu294 Cu 0.58327 0.00131 0.52399
 Cu295 Cu 0.51015 0.03161 0.46382
 Cu296 Cu 0.55651 -0.05903 0.45283
 N297 N 0.60840 -0.05056 0.51679
 N298 N 0.59537 -0.07515 0.49095
 C299 C 0.61832 -0.10775 0.48991
 C300 C 0.64788 -0.10316 0.51577
 C301 C 0.64086 -0.06651 0.53238
 H302 H 0.61609 -0.13126 0.46866
 H303 H 0.65927 -0.05175 0.55218
 N304 N 0.51404 -0.04118 0.41896
 N305 N 0.49657 -0.00632 0.42227
 C306 C 0.46940 -0.00268 0.39398
 C307 C 0.47026 -0.03685 0.37200
 C308 C 0.49875 -0.06050 0.38868
 H309 H 0.45044 0.02280 0.38960
 H310 H 0.50769 -0.08969 0.37929
 H311 H 0.52688 -0.01928 0.49145
 H312 H 0.56049 0.00141 0.45475
 N313 N -0.03468 0.12939 0.51143
 N314 N -0.06294 0.11363 0.49388
 C315 C -0.07628 0.13676 0.46400
 C316 C -0.05453 0.16828 0.46207
 C317 C -0.02811 0.16270 0.49230
 H318 H -0.09881 0.13021 0.44385
 H319 H -0.00586 0.18132 0.49975
 Cu320 Cu -0.07627 0.06240 0.50863
 Cu321 Cu -0.00922 0.10451 0.55751
 Cu322 Cu -0.05086 0.02347 0.59759
 N323 N -0.10115 0.01938 0.53068
 N324 N -0.09111 0.00277 0.56496
 C325 C -0.11474 -0.02552 0.57297
 C326 C -0.14109 -0.02556 0.54222
 C327 C -0.13143 0.00319 0.51614
 H328 H -0.11407 -0.04317 0.59993
 H329 H -0.14598 0.01226 0.48885
 N330 N -0.00993 0.04991 0.62495
 N331 N 0.00406 0.08165 0.61043
 C332 C 0.02810 0.09515 0.63734
 C333 C 0.03014 0.07037 0.66983
 C334 C 0.00606 0.04176 0.66107
 H335 H 0.04326 0.12103 0.63356
 H336 H -0.00029 0.01771 0.68025
 H337 H -0.02134 0.04649 0.55160
 H338 H -0.05810 0.07994 0.57606
 N339 N 0.47711 0.63151 -0.04729
 N340 N 0.45283 0.61119 -0.06640
 C341 C 0.44392 0.62835 -0.10177
 C342 C 0.46356 0.66137 -0.10487
 C343 C 0.48434 0.66261 -0.06981
 H344 H 0.42418 0.61796 -0.12325
 H345 H 0.50314 0.68453 -0.06129
 Cu346 Cu 0.43357 0.56552 -0.04244
 Cu347 Cu 0.49625 0.61627 0.00588
 Cu348 Cu 0.47667 0.52346 0.03701
 N349 N 0.40949 0.52703 -0.01073
 N350 N 0.42710 0.50862 0.01905
 C351 C 0.40451 0.48223 0.03433
 C352 C 0.37090 0.48510 0.01329
 C353 C 0.37486 0.51395 -0.01476
 H354 H 0.41126 0.46380 0.05998
 H355 H 0.35402 0.52477 -0.03632
 N356 N 0.51558 0.55365 0.06243
 N357 N 0.52237 0.58921 0.05125
 C358 C 0.54909 0.60248 0.07534
 C359 C 0.55941 0.57400 0.10313
 C360 C 0.53765 0.54347 0.09408
 H361 H 0.55990 0.63091 0.07315
 H362 H 0.53730 0.51621 0.11003
 H363 H 0.49531 0.55936 -0.00953
 H364 H 0.45643 0.57810 0.02515
 N365 N 0.46998 -0.07906 -0.02926
 N366 N 0.50593 -0.08780 -0.03748
 C367 C 0.50886 -0.11175 -0.06956
 C368 C 0.47277 -0.11830 -0.08194
 C369 C 0.44866 -0.09705 -0.05584
 H370 H 0.53520 -0.12489 -0.08169
 H371 H 0.41812 -0.09669 -0.05457
 Cu372 Cu 0.54575 -0.07058 -0.00347
 Cu373 Cu 0.45461 -0.05074 0.01923
 Cu374 Cu 0.51858 -0.00844 0.07550
 N375 N 0.58063 -0.03665 0.02274
 N376 N 0.57037 -0.01113 0.05126
 C377 C 0.59853 0.01294 0.05603
 C378 C 0.62768 0.00177 0.02911
 C379 C 0.61533 -0.02986 0.00894
 H380 H 0.59692 0.03816 0.07554
 H381 H 0.62908 -0.04474 -0.01658
 N382 N 0.47003 -0.02338 0.09877
 N383 N 0.44510 -0.03887 0.07564
 C384 C 0.41449 -0.04645 0.09768
 C385 C 0.42021 -0.03542 0.13702
 C386 C 0.45581 -0.02078 0.13687
 H387 H 0.39019 -0.05990 0.08598
 H388 H 0.47018 -0.00921 0.16241
 H389 H 0.51403 -0.02015 0.01297
 H390 H 0.51644 -0.06037 0.05076
 N391 N 1.01538 0.39060 0.50424
 N392 N 1.04802 0.39942 0.48866
 C393 C 1.05755 0.37542 0.45775
 C394 C 1.02916 0.35052 0.45315
 C395 C 1.00250 0.36103 0.48284
 H396 H 1.08342 0.37591 0.44011
 H397 H 0.97671 0.34715 0.48954
 Cu398 Cu 1.07609 0.44089 0.50985
 Cu399 Cu 0.99496 0.41676 0.55327
 Cu400 Cu 1.06810 0.45055 0.60960
 N401 N 1.11136 0.46967 0.53986
 N402 N 1.10963 0.47115 0.57951
 C403 C 1.13870 0.49030 0.59321
 C404 C 1.15910 0.50211 0.56017
 C405 C 1.14094 0.48878 0.52674
 H406 H 1.14354 0.49668 0.62467
 H407 H 1.14878 0.49248 0.49537
 N408 N 1.01697 0.44464 0.63168
 N409 N 0.98876 0.43207 0.61066
 C410 C 0.95689 0.43551 0.63355
 C411 C 0.96562 0.45193 0.67015
 C412 C 1.00378 0.45723 0.66790
 H413 H 0.92911 0.42897 0.62342
 H414 H 1.02040 0.47096 0.69032
 H415 H 1.03119 0.46211 0.56277
 H416 H 1.04903 0.41039 0.56895
 C417 C 0.36630 -0.03089 0.27460
 C418 C 0.12896 0.04320 0.77052
 C419 C 0.62329 0.53757 0.22907
 C420 C 0.86593 0.45465 0.77501
 C421 C 0.28342 0.38112 0.02961
 C422 C 0.71486 0.10638 0.01764
 C423 C 0.23967 0.60567 0.52214
 C424 C 0.78481 0.86267 0.51598
 C425 C -0.01525 0.25610 0.35618
 C426 C 0.01996 0.74236 0.10088
 C427 C 0.49453 0.24333 0.59569
 C428 C 0.48910 0.77756 0.81770
 C429 C 0.05041 0.20244 0.29141
 C430 C 0.03169 0.17121 0.30486
 C431 C 0.00329 0.18655 0.32936
 C432 C 0.00694 0.22622 0.32950
 O433 O 0.03504 0.23576 0.30551
 H434 H 0.03881 0.14078 0.29889
 H435 H -0.01667 0.17040 0.34624
 C436 C 0.58983 0.76061 0.81727
 C437 C 0.58414 0.76018 0.85845
 C438 C 0.54650 0.76853 0.86398
 C439 C 0.53157 0.77360 0.82567
 O440 O 0.55816 0.76883 0.79718
 H441 H 0.60478 0.75325 0.88162
 H442 H 0.53131 0.76918 0.89257
 C443 C 0.44606 0.80930 0.72614
 C444 C 0.47268 0.78311 0.70892
 C445 C 0.49479 0.76972 0.74012
 C446 C 0.48015 0.78890 0.77419
 O447 O 0.45068 0.81293 0.76538
 H448 H 0.47401 0.77279 0.67802
 H449 H 0.51671 0.74637 0.73870
 C450 C -0.08035 0.30322 0.28773
 C451 C -0.06285 0.33593 0.29902
 C452 C -0.03520 0.32320 0.32500
 C453 C -0.03796 0.28353 0.32811
 O454 O -0.06488 0.27142 0.30463
 H455 H -0.06986 0.36565 0.29019
 H456 H -0.01600 0.34110 0.34039
 C457 C -0.03708 0.69463 0.17202
 C458 C -0.01081 0.66400 0.16550
 C459 C 0.01542 0.67805 0.13979
 C460 C 0.00280 0.71614 0.13215
 O461 O -0.02915 0.72586 0.15177
 H462 H -0.01064 0.63518 0.17821
 H463 H 0.04025 0.66220 0.12723
 C464 C 0.40311 0.25354 0.64185
 C465 C 0.39213 0.24114 0.60428
 C466 C 0.42457 0.23565 0.58212
 C467 C 0.45301 0.24595 0.60731
 O468 O 0.44005 0.25646 0.64378
 H469 H 0.36404 0.23552 0.59437
 H470 H 0.42735 0.22518 0.55131
 C471 C 0.54928 0.28729 0.67105
 C472 C 0.53558 0.32083 0.65224
 C473 C 0.51288 0.30901 0.62259
 C474 C 0.51528 0.26889 0.62435
 O475 O 0.53702 0.25577 0.65435
 H476 H 0.54079 0.35047 0.65972
 H477 H 0.49670 0.32754 0.60188
 C478 C 0.11213 0.75142 0.13960
 C479 C 0.11775 0.76886 0.10285
 C480 C 0.08472 0.76626 0.08276
 C481 C 0.06129 0.74749 0.10884
 O482 O 0.07800 0.73844 0.14340
 H483 H 0.14263 0.78248 0.09233
 H484 H 0.07791 0.77777 0.05315
 C485 C 0.32780 0.06525 0.26284
 C486 C 0.36517 0.07358 0.26457
 C487 C 0.38443 0.03941 0.27359
 C488 C 0.35734 0.01253 0.27710
 O489 O 0.32288 0.02836 0.27015
 H490 H 0.37716 0.10078 0.25758
 H491 H 0.41488 0.03407 0.27394
 C492 C 0.80898 0.54294 0.78970
 C493 C 0.79222 0.52137 0.81904
 C494 C 0.81124 0.48585 0.81766
 C495 C 0.83844 0.48828 0.78766
 O496 O 0.83692 0.52297 0.77048
 H497 H 0.76880 0.53034 0.83896
 H498 H 0.80600 0.46098 0.83619
 C499 C 0.80031 0.38508 0.75248
 C500 C 0.80262 0.40060 0.71429
 C501 C 0.82972 0.42655 0.71648
 C502 C 0.84244 0.42465 0.75580
 O503 O 0.82404 0.39981 0.77777
 H504 H 0.78513 0.39525 0.68855
 H505 H 0.83741 0.44638 0.69300
 C506 C 0.29948 -0.09642 0.30958
 C507 C 0.30229 -0.07567 0.34495
 C508 C 0.32554 -0.04703 0.33583
 C509 C 0.33556 -0.05244 0.29560
 O510 O 0.31971 -0.08253 0.27972
 H511 H 0.28933 -0.08093 0.37401
 H512 H 0.33543 -0.02568 0.35641
 C513 C 0.16224 -0.05307 0.74253
 C514 C 0.12423 -0.05936 0.74538
 C515 C 0.10680 -0.02467 0.75654
 C516 C 0.13518 0.00076 0.75832
 O517 O 0.16904 -0.01677 0.75078
 H518 H 0.11080 -0.08619 0.74086
 H519 H 0.07691 -0.01854 0.76266
 C520 C 0.65743 0.44184 0.20141
 C521 C 0.61999 0.43811 0.19238
 C522 C 0.60182 0.47267 0.20285
 C523 C 0.62961 0.49511 0.21736
 O524 O 0.66343 0.47623 0.21655
 H525 H 0.60747 0.41329 0.17947
 H526 H 0.57201 0.48097 0.19951
 C527 C 0.70319 0.57836 0.27411
 C528 C 0.69450 0.55399 0.30509
 C529 C 0.66528 0.53447 0.29135
 C530 C 0.65735 0.54908 0.25318
 O531 O 0.68106 0.57539 0.24238
 H532 H 0.70780 0.55107 0.33430
 H533 H 0.65039 0.51304 0.30778
 C534 C 0.19874 0.11092 0.75527
 C535 C 0.20295 0.09199 0.71859
 C536 C 0.17927 0.06285 0.72039
 C537 C 0.16264 0.06552 0.75835
 O538 O 0.17419 0.09510 0.77948
 H539 H 0.22019 0.09936 0.69292
 H540 H 0.17337 0.04309 0.69623
 C541 C 0.26887 0.33060 0.12109
 C542 C 0.27453 0.36578 0.13854
 C543 C 0.28438 0.38885 0.10742
 C544 C 0.28333 0.36615 0.07285
 O545 O 0.27427 0.33051 0.08153
 H546 H 0.27096 0.37385 0.17003
 H547 H 0.28953 0.41920 0.10984
 C548 C 0.80283 0.79459 0.59502
 C549 C 0.84011 0.79795 0.58402
 C550 C 0.83901 0.82457 0.55343
 C551 C 0.80106 0.83517 0.54798
 O552 O 0.77931 0.81709 0.57345
 H553 H 0.86498 0.78286 0.59666
 H554 H 0.86282 0.83459 0.53663
 C555 C 0.81639 0.82056 0.42135
 C556 C 0.83434 0.85447 0.41771
 C557 C 0.82565 0.87465 0.45218
 C558 C 0.80266 0.85174 0.47475
 O559 O 0.79745 0.81858 0.45594
 H560 H 0.85158 0.86363 0.39277
 H561 H 0.83503 0.90289 0.45958
 C562 C 0.32442 0.31721 -0.04665
 C563 C 0.35716 0.32136 -0.02551
 C564 C 0.34648 0.34450 0.00683
 C565 C 0.30809 0.35358 0.00246
 O566 O 0.29486 0.33663 -0.02992
 H567 H 0.38524 0.30867 -0.03257
 H568 H 0.36457 0.35427 0.03035
 C569 C 0.67357 0.17053 -0.05656
 C570 C 0.64046 0.16275 -0.03691
 C571 C 0.65133 0.13954 -0.00520
 C572 C 0.69032 0.13418 -0.00833
 O573 O 0.70369 0.15327 -0.03951
 H574 H 0.61192 0.17288 -0.04476
 H575 H 0.63300 0.12693 0.01679
 C576 C 0.21062 0.63948 0.42542
 C577 C 0.20899 0.60051 0.41729
 C578 C 0.21836 0.58215 0.45253
 C579 C 0.22393 0.61138 0.48000
 O580 O 0.21997 0.64613 0.46315
 H581 H 0.20339 0.58700 0.38866
 H582 H 0.22214 0.55115 0.45710
 C583 C 0.22511 0.68843 0.58605
 C584 C 0.18762 0.68107 0.58191
 C585 C 0.18791 0.64959 0.55708
 C586 C 0.22564 0.64000 0.54816
 O587 O 0.24819 0.66361 0.56586
 H588 H 0.16307 0.69690 0.59508
 H589 H 0.16367 0.63505 0.54680
 C590 C 0.72589 0.15511 0.11005
 C591 C 0.73123 0.11800 0.12484
 C592 C 0.72370 0.09453 0.09325
 C593 C 0.71397 0.11910 0.06144
 O594 O 0.71562 0.15593 0.07178
 H595 H 0.74137 0.10913 0.15434
 H596 H 0.72783 0.06323 0.09249
 C597 C 0.49404 0.29975 0.50586
 C598 C 0.52745 0.27816 0.49782
 C599 C 0.53145 0.25240 0.52893
 C600 C 0.49965 0.25947 0.55323
 O601 O 0.47731 0.28863 0.53933
 H602 H 0.54761 0.28229 0.47367
 H603 H 0.55564 0.23234 0.53442
 C604 C -0.01795 0.83853 0.08065
 C605 C -0.02878 0.83820 0.12060
 C606 C -0.01589 0.80267 0.13433
 C607 C 0.00023 0.78311 0.10102
 O608 O 0.00021 0.80578 0.06884
 H609 H -0.04277 0.86168 0.13799
 H610 H -0.01734 0.79292 0.16529
 C611 C 0.02247 0.67762 0.01711
 C612 C -0.00770 0.70157 0.00431
 C613 C -0.01205 0.73025 0.03257
 C614 C 0.01631 0.72217 0.06035
 O615 O 0.03702 0.68994 0.05096
 H616 H -0.02574 0.69750 -0.02127
 H617 H -0.03461 0.75296 0.03379
 C618 C 0.52453 0.14346 0.57983
 C619 C 0.52647 0.14318 0.62132
 C620 C 0.51521 0.18000 0.63314
 C621 C 0.50862 0.20065 0.59783
 O622 O 0.51331 0.17799 0.56546
 H623 H 0.53390 0.11870 0.64067
 H624 H 0.51174 0.19031 0.66393
 C625 C -0.05711 0.19881 0.43145
 C626 C -0.09054 0.21360 0.41511
 C627 C -0.08032 0.23843 0.38574
 C628 C -0.04107 0.23620 0.38556
 O629 O -0.02714 0.21242 0.41390
 H630 H -0.11895 0.20678 0.42345
 H631 H -0.09956 0.25535 0.36656
 C632 C 0.46233 0.68959 0.86200
 C633 C 0.44241 0.68625 0.82682
 C634 C 0.44944 0.71832 0.80483
 C635 C 0.47336 0.73889 0.82824
 O636 O 0.48078 0.72142 0.86309
 H637 H 0.42484 0.66328 0.81822
 H638 H 0.43805 0.72582 0.77548
 C639 C 0.46298 0.85344 0.88760
 C640 C 0.42683 0.84375 0.87913
 C641 C 0.43140 0.81432 0.85166
 C642 C 0.47009 0.80829 0.84548
 O643 O 0.48911 0.83230 0.86719
 H644 H 0.40046 0.85600 0.89203
 H645 H 0.40933 0.79869 0.83805
 C646 C 0.02944 0.31833 0.42418
 C647 C 0.06210 0.29935 0.40939
 C648 C 0.05055 0.27281 0.38277
 C649 C 0.01138 0.27812 0.38233
 O650 O -0.00138 0.30545 0.40829
 H651 H 0.09095 0.30407 0.41741
 H652 H 0.06901 0.25218 0.36609
 C653 C 0.33767 0.57895 0.50797
 C654 C 0.33931 0.61815 0.50122
 C655 C 0.30337 0.63361 0.50681
 C656 C 0.28239 0.60286 0.51753
 O657 O 0.30321 0.56949 0.51767
 H658 H 0.36341 0.63349 0.49149
 H659 H 0.29331 0.66352 0.50217
 C660 C 0.81265 0.08769 -0.00824
 C661 C 0.81157 0.12745 -0.01103
 C662 C 0.77522 0.13980 -0.00182
 C663 C 0.75632 0.10652 0.00459
 O664 O 0.77950 0.07487 0.00177
 H665 H 0.83471 0.14530 -0.01790
 H666 H 0.76384 0.16960 0.00033
 C667 C 0.66136 0.02257 0.01798
 C668 C 0.68550 0.01157 -0.01364
 C669 C 0.70962 0.04031 -0.01724
 C670 C 0.69937 0.06651 0.01321
 O671 O 0.66947 0.05602 0.03413
 H672 H 0.68452 -0.01343 -0.03321
 H673 H 0.73095 0.04266 -0.04061
 C674 C 0.19111 0.52670 0.56031
 C675 C 0.21539 0.52980 0.59214
 C676 C 0.23855 0.55783 0.58092
 C677 C 0.22651 0.56989 0.54308
 O678 O 0.19756 0.55097 0.53069
 H679 H 0.21547 0.51427 0.62050
 H680 H 0.26037 0.56963 0.59890
 C681 C 0.18739 0.40086 -0.00098
 C682 C 0.18730 0.36105 -0.00029
 C683 C 0.22287 0.34842 0.01065
 C684 C 0.24250 0.38145 0.01524
 O685 O 0.22067 0.41332 0.00819
 H686 H 0.16381 0.34340 -0.00574
 H687 H 0.23327 0.31859 0.01523
 C688 C 0.68351 0.87248 0.51632
 C689 C 0.68746 0.83454 0.50331
 C690 C 0.72545 0.82516 0.50254
 C691 C 0.74208 0.85844 0.51432
 O692 O 0.71632 0.88674 0.52366
 H693 H 0.66538 0.81629 0.49434
 H694 H 0.73934 0.79755 0.49371
 C695 C 0.82540 0.95200 0.53751
 C696 C 0.79391 0.96709 0.51756
 C697 C 0.77338 0.93650 0.50963
 C698 C 0.79293 0.90446 0.52646
 O699 O 0.82519 0.91400 0.54282
 H700 H 0.78828 0.99644 0.50681
 H701 H 0.74897 0.93724 0.49027
 C702 C 0.33637 0.46544 0.02181
 C703 C 0.30306 0.48430 0.03485
 C704 C 0.27860 0.45594 0.03962
 C705 C 0.29846 0.42168 0.02782
 O706 O 0.33391 0.42769 0.01760
 H707 H 0.29769 0.51491 0.04128
 H708 H 0.25007 0.45985 0.05163
 C709 C 0.55267 0.53430 0.30570
 C710 C 0.54881 0.57366 0.29870
 C711 C 0.57268 0.57984 0.26731
 C712 C 0.58921 0.54370 0.25709
 O713 O 0.57712 0.51601 0.28064
 H714 H 0.53170 0.59549 0.31542
 H715 H 0.57885 0.60760 0.25473
 C716 C 0.09503 0.03529 0.87068
 C717 C 0.13283 0.02744 0.87871
 C718 C 0.15112 0.03298 0.84301
 C719 C 0.12302 0.04369 0.81577
 O720 O 0.08893 0.04498 0.83266
 H721 H 0.14525 0.01674 0.90660
 H722 H 0.18099 0.02705 0.83669
 C723 C 0.05312 0.07450 0.70595
 C724 C 0.05568 0.10893 0.72640
 C725 C 0.08252 0.10127 0.75494
 C726 C 0.09491 0.06279 0.74932
 O727 O 0.07692 0.04656 0.71948
 H728 H 0.04044 0.13650 0.72047
 H729 H 0.09324 0.12166 0.77607
 C730 C 0.58598 0.57603 0.13691
 C731 C 0.60616 0.60743 0.14634
 C732 C 0.62464 0.59755 0.18126
 C733 C 0.61483 0.56040 0.19036
 O734 O 0.59095 0.54787 0.16352
 H735 H 0.60625 0.63482 0.13060
 H736 H 0.64131 0.61638 0.19871
 C737 C 0.39341 -0.03920 0.17097
 C738 C 0.35609 -0.04711 0.16627
 C739 C 0.34093 -0.04667 0.20422
 C740 C 0.37038 -0.03967 0.22968
 O741 O 0.40209 -0.03424 0.20925
 H742 H 0.34125 -0.05120 0.13837
 H743 H 0.31151 -0.04941 0.21205
 C744 C 0.93982 0.46579 0.70293
 C745 C 0.94618 0.49726 0.72686
 C746 C 0.91808 0.49881 0.75514
 C747 C 0.89643 0.46803 0.74658
 O748 O 0.90984 0.44780 0.71478
 H749 H 0.96916 0.51623 0.72453
 H750 H 0.91472 0.51886 0.78029
 C751 C 0.92237 0.43961 0.86186
 C752 C 0.92070 0.40097 0.85229
 C753 C 0.89771 0.40047 0.81954
 C754 C 0.88658 0.43895 0.81201
 O755 O 0.90189 0.46253 0.83762
 H756 H 0.93607 0.37635 0.86600
 H757 H 0.89162 0.37525 0.80201
 C758 C 0.44621 -0.04672 0.33813
 C759 C 0.45043 -0.08120 0.31697
 C760 C 0.42207 -0.07936 0.28964
 C761 C 0.40286 -0.04362 0.29564
 O762 O 0.41723 -0.02398 0.32555
 H763 H 0.47120 -0.10518 0.32140
 H764 H 0.41550 -0.10170 0.26838
   
