data_POSCAR
  _audit_creation_date              2014-09-24
  _audit_creation_method            'ToBaCCo'
  _symmetry_space_group_name_H-M    'P1'
  _symmetry_Int_Tables_number       1
  _symmetry_cell_setting            triclinic
  loop_
  _symmetry_equiv_pos_as_xyz
 x,y,z
_cell_length_a 42.7095
_cell_length_b 42.5949
_cell_length_c 45.9456
_cell_angle_alpha 89.951900
_cell_angle_beta 90.102300
_cell_angle_gamma 120.475600
loop_
  _atom_site_label
  _atom_site_type_symbol
  _atom_site_fract_x
  _atom_site_fract_y
  _atom_site_fract_z
C1 C 0.03239 0.51421 1.31199
 C2 C -0.00067 0.49805 1.32688
 C3 C -0.03374 0.48208 1.31192
 C4 C -0.03409 0.48225 1.28112
 C5 C -0.00070 0.49839 1.26573
 C6 C 0.03271 0.51440 1.28119
 C7 C 0.06542 0.53012 1.26542
 C8 C 0.06538 0.53030 1.23514
 C9 C 0.03265 0.51467 1.21941
 C10 C -0.00073 0.49852 1.23480
 C11 C -0.06680 0.46683 1.26530
 C12 C -0.06682 0.46699 1.23503
 C13 C -0.03411 0.48257 1.21930
 C14 C -0.03372 0.48275 1.18850
 C15 C -0.00064 0.49881 1.17365
 C16 C 0.03233 0.51472 1.18867
 H17 H 0.09138 0.54238 1.27639
 H18 H 0.09132 0.54282 1.22416
 H19 H -0.09274 0.45456 1.27623
 H20 H -0.09278 0.45486 1.22402
 H21 H -0.00066 0.49789 1.35055
 H22 H -0.00048 0.49901 1.15000
 C23 C 0.48384 0.51638 1.31181
 C24 C 0.50058 0.50036 1.32688
 C25 C 0.51708 0.48390 1.31209
 C26 C 0.51696 0.48329 1.28129
 C27 C 0.49986 0.49935 1.26576
 C28 C 0.48332 0.51607 1.28107
 C29 C 0.46679 0.53207 1.26524
 C30 C 0.46631 0.53148 1.23495
 C31 C 0.48233 0.51489 1.21934
 C32 C 0.49936 0.49877 1.23486
 C33 C 0.53347 0.46719 1.26560
 C34 C 0.53296 0.46661 1.23530
 C35 C 0.51596 0.48213 1.21952
 C36 C 0.51515 0.48160 1.18877
 C37 C 0.49819 0.49745 1.17376
 C38 C 0.48190 0.51401 1.18861
 H39 H 0.45412 0.54525 1.27617
 H40 H 0.45328 0.54424 1.22385
 H41 H 0.54704 0.45496 1.27664
 H42 H 0.54610 0.45392 1.22434
 H43 H 0.50080 0.50080 1.35053
 H44 H 0.49775 0.49695 1.15013
 C45 C 0.47990 0.96752 1.31255
 C46 C 0.49562 1.00067 1.32747
 C47 C 0.51258 1.03384 1.31255
 C48 C 0.51395 1.03422 1.28177
 C49 C 0.49803 1.00073 1.26635
 C50 C 0.48101 0.96721 1.28177
 C51 C 0.46571 0.93440 1.26600
 C52 C 0.46680 0.93444 1.23573
 C53 C 0.48331 0.96727 1.22002
 C54 C 0.49920 1.00076 1.23543
 C55 C 0.53078 1.06707 1.26599
 C56 C 0.53181 1.06709 1.23571
 C57 C 0.51622 1.03425 1.21997
 C58 C 0.51713 1.03385 1.18917
 C59 C 0.50123 1.00065 1.17432
 C60 C 0.48441 0.96757 1.18929
 H61 H 0.45278 0.90834 1.27696
 H62 H 0.45463 0.90843 1.22474
 H63 H 0.54334 1.09312 1.27695
 H64 H 0.54495 1.09314 1.22471
 H65 H 0.49475 1.00065 1.35112
 H66 H 0.50187 1.00048 1.15068
 C67 C 1.03382 0.51471 0.81189
 C68 C 1.00064 0.49820 0.82663
 C69 C 0.96771 0.48225 0.81153
 C70 C 0.96756 0.48272 0.78078
 C71 C 1.00104 0.49929 0.76550
 C72 C 1.03435 0.51531 0.78108
 C73 C 1.06716 0.53143 0.76544
 C74 C 1.06731 0.53202 0.73515
 C75 C 1.03466 0.51638 0.71925
 C76 C 1.00119 0.49984 0.73458
 C77 C 0.93490 0.46714 0.76492
 C78 C 0.93505 0.46776 0.73463
 C79 C 0.96787 0.48390 0.71904
 C80 C 0.96832 0.48460 0.68831
 C81 C 1.00137 0.50092 0.67345
 C82 C 1.03442 0.51677 0.68844
 H83 H 1.09307 0.54371 0.77651
 H84 H 1.09332 0.54489 0.72429
 H85 H 0.90890 0.45437 0.77583
 H86 H 0.90914 0.45548 0.72352
 H87 H 1.00037 0.49773 0.85028
 H88 H 1.00128 0.50130 0.64980
 C89 C 0.51696 0.48453 0.68844
 C90 C 0.50009 0.50056 0.67356
 C91 C 0.48394 0.51721 0.68854
 C92 C 0.48452 0.51801 0.71928
 C93 C 0.50166 0.50188 0.73465
 C94 C 0.51795 0.48503 0.71918
 C95 C 0.53471 0.46916 0.73485
 C96 C 0.53547 0.46979 0.76515
 C97 C 0.51958 0.48639 0.78092
 C98 C 0.50250 0.50257 0.76555
 C99 C 0.46843 0.53441 0.73506
 C100 C 0.46922 0.53507 0.76536
 C101 C 0.48617 0.51938 0.78102
 C102 C 0.48722 0.51993 0.81176
 C103 C 0.50414 0.50394 0.82664
 C104 C 0.52022 0.48724 0.81166
 H105 H 0.54738 0.45609 0.72380
 H106 H 0.54864 0.45710 0.77612
 H107 H 0.45503 0.54686 0.72410
 H108 H 0.45636 0.54796 0.77642
 H109 H 0.49949 0.50007 0.64993
 H110 H 0.50471 0.50442 0.85027
 C111 C 0.51876 0.03241 0.68730
 C112 C 0.50280 -0.00069 0.67238
 C113 C 0.48573 -0.03386 0.68729
 C114 C 0.48448 -0.03420 0.71808
 C115 C 0.50076 -0.00067 0.73346
 C116 C 0.51794 0.03279 0.71802
 C117 C 0.53373 0.06567 0.73368
 C118 C 0.53284 0.06574 0.76396
 C119 C 0.51605 0.03294 0.77972
 C120 C 0.49981 -0.00058 0.76435
 C121 C 0.46738 -0.06701 0.73390
 C122 C 0.46650 -0.06691 0.76418
 C123 C 0.48262 -0.03402 0.77982
 C124 C 0.48202 -0.03357 0.81055
 C125 C 0.49811 -0.00042 0.82542
 C126 C 0.51499 0.03266 0.81045
 H127 H 0.54692 0.09168 0.72264
 H128 H 0.54545 0.09179 0.77493
 H129 H 0.45444 -0.09308 0.72297
 H130 H 0.45298 -0.09290 0.77524
 H131 H 0.50361 -0.00056 0.64874
 H132 H 0.49750 -0.00037 0.84905
 O133 O 0.38670 0.66811 0.96680
 O134 O 0.38801 0.72928 0.97613
 C135 C 0.36530 0.73428 0.96204
 O136 O 0.33149 0.71699 0.96694
 O137 O 0.27010 0.65655 0.97602
 C138 C 0.26486 0.62875 0.96178
 O139 O 0.28196 0.61219 0.96652
 O140 O 0.34193 0.61127 0.97569
 C141 C 0.36993 0.63424 0.96176
 O142 O 0.38811 0.65768 1.02451
 O143 O 0.38652 0.71737 1.03386
 C144 C 0.36969 0.73414 1.03879
 O145 O 0.34174 0.72860 1.02469
 O146 O 0.28193 0.66659 1.03375
 C147 C 0.26496 0.63265 1.03849
 O148 O 0.27022 0.61020 1.02426
 O149 O 0.33166 0.61229 1.03342
 C150 C 0.36546 0.62945 1.03844
 Cr151 Cr 0.38531 0.69208 1.00032
 Cr152 Cr 0.30734 0.69119 1.00035
 Cr153 Cr 0.30745 0.61352 0.99998
 O154 O 0.33337 0.66559 1.00022
 O155 O 0.61235 0.34211 0.97599
 O156 O 0.61312 0.28192 0.96692
 C157 C 0.62970 0.26489 0.96201
 O158 O 0.65754 0.27013 0.97613
 O159 O 0.71788 0.33164 0.96705
 C160 C 0.73513 0.36554 0.96208
 O161 O 0.73009 0.38829 0.97608
 O162 O 0.66899 0.38696 0.96689
 C163 C 0.63517 0.37015 0.96195
 O164 O 0.61376 0.33195 1.03376
 O165 O 0.61150 0.27025 1.02471
 C166 C 0.63393 0.26487 1.03883
 O167 O 0.66774 0.28177 1.03391
 O168 O 0.72953 0.34178 1.02481
 C169 C 0.73518 0.36986 1.03883
 O170 O 0.71857 0.38685 1.03383
 O171 O 0.65900 0.38851 1.02465
 C172 C 0.63094 0.36586 1.03869
 Cr173 Cr 0.61472 0.30757 1.00034
 Cr174 Cr 0.69217 0.30735 1.00047
 Cr175 Cr 0.69312 0.38561 1.00036
 O176 O 0.66667 0.33351 1.00039
 O177 O 0.65888 0.39010 0.52376
 O178 O 0.71859 0.38870 0.53294
 C179 C 0.73541 0.37188 0.53783
 O180 O 0.72995 0.34393 0.52370
 O181 O 0.66839 0.28377 0.53292
 C182 C 0.63460 0.26665 0.53787
 O183 O 0.61200 0.27191 0.52390
 O184 O 0.61398 0.33346 0.53308
 C185 C 0.63095 0.36739 0.53790
 O186 O 0.66884 0.38850 0.46603
 O187 O 0.73014 0.39022 0.47522
 C188 C 0.73521 0.36755 0.46113
 O189 O 0.71798 0.33364 0.46597
 O190 O 0.65787 0.27196 0.47521
 C191 C 0.62986 0.26650 0.46124
 O192 O 0.61327 0.28351 0.46617
 O193 O 0.61229 0.34356 0.47534
 C194 C 0.63500 0.37155 0.46119
 Cr195 Cr 0.69309 0.38734 0.49949
 Cr196 Cr 0.69254 0.30934 0.49945
 Cr197 Cr 0.61491 0.30914 0.49962
 O198 O 0.66685 0.33527 0.49951
 O199 O 0.33136 0.61278 0.53289
 O200 O 0.26982 0.61069 0.52409
 C201 C 0.26463 0.63328 0.53817
 O202 O 0.28161 0.66717 0.53319
 O203 O 0.34154 0.72898 0.52383
 C204 C 0.36968 0.73457 0.53767
 O205 O 0.38646 0.71780 0.53256
 O206 O 0.38774 0.65791 0.52338
 C207 C 0.36523 0.62990 0.53761
 O208 O 0.34087 0.61110 0.47509
 O209 O 0.28086 0.61209 0.46628
 C210 C 0.26393 0.62881 0.46145
 O211 O 0.26946 0.65685 0.47547
 O212 O 0.33084 0.71724 0.46610
 C213 C 0.36460 0.73448 0.46101
 O214 O 0.38734 0.72925 0.47483
 O215 O 0.38560 0.66779 0.46564
 C216 C 0.36871 0.63385 0.46087
 Cr217 Cr 0.30675 0.61371 0.49958
 Cr218 Cr 0.30688 0.69155 0.49964
 Cr219 Cr 0.38474 0.69215 0.49911
 O220 O 0.33279 0.66581 0.49944
 C221 C 0.41035 0.59283 0.40200
 C222 C 0.40122 0.58900 0.37207
 C223 C 0.41587 0.57362 0.35281
 C224 C 0.43966 0.56230 0.36359
 C225 C 0.44889 0.56626 0.39353
 C226 C 0.43419 0.58156 0.41278
 C227 C 0.44377 0.58516 0.44264
 C228 C 0.46721 0.57400 0.45314
 C229 C 0.48157 0.55903 0.43432
 C230 C 0.47262 0.55514 0.40484
 C231 C 0.40618 0.56987 0.32302
 C232 C 0.38279 0.58110 0.31251
 C233 C 0.36854 0.59621 0.33133
 C234 C 0.37753 0.60015 0.36080
 C235 C 0.45463 0.54640 0.34412
 C236 C 0.46762 0.53292 0.32886
 C237 C 0.39503 0.60794 0.42190
 C238 C 0.38273 0.62006 0.43922
 H239 H 0.43332 0.59663 0.45817
 H240 H 0.47428 0.57702 0.47601
 H241 H 0.49976 0.55039 0.44258
 H242 H 0.48452 0.54334 0.39110
 H243 H 0.41651 0.55821 0.30758
 H244 H 0.37569 0.57805 0.28964
 H245 H 0.35038 0.60489 0.32306
 H246 H 0.36575 0.61203 0.37461
 C247 C 0.40550 0.81811 0.40221
 C248 C 0.42929 0.85364 0.41298
 C249 C 0.44415 0.88388 0.39367
 C250 C 0.43511 0.87847 0.36369
 C251 C 0.41117 0.84296 0.35296
 C252 C 0.39640 0.81268 0.37227
 C253 C 0.37265 0.77746 0.36104
 C254 C 0.36368 0.77227 0.33156
 C255 C 0.37801 0.80188 0.31271
 C256 C 0.40147 0.83688 0.32318
 C257 C 0.46785 0.91913 0.40497
 C258 C 0.47661 0.92434 0.43448
 C259 C 0.46209 0.89478 0.45335
 C260 C 0.43869 0.85978 0.44286
 C261 C 0.45056 0.90957 0.34411
 C262 C 0.46402 0.93628 0.32880
 C263 C 0.39033 0.78736 0.42211
 C264 C 0.37824 0.76265 0.43940
 H265 H 0.36079 0.75360 0.37487
 H266 H 0.34546 0.74514 0.32332
 H267 H 0.37090 0.79773 0.28984
 H268 H 0.41179 0.85905 0.30773
 H269 H 0.47986 0.94303 0.39120
 H270 H 0.49476 0.95149 0.44274
 H271 H 0.46900 0.89896 0.47625
 H272 H 0.42811 0.83769 0.45843
 C273 C 0.18081 0.58675 0.40234
 C274 C 0.14505 0.56474 0.41310
 C275 C 0.11507 0.55007 0.39358
 C276 C 0.12100 0.55750 0.36339
 C277 C 0.15677 0.57955 0.35265
 C278 C 0.18677 0.59414 0.37217
 C279 C 0.22228 0.61602 0.36093
 C280 C 0.22799 0.62335 0.33123
 C281 C 0.19866 0.60919 0.31215
 C282 C 0.16341 0.58755 0.32263
 C283 C 0.07956 0.52820 0.40490
 C284 C 0.07385 0.52105 0.43461
 C285 C 0.10317 0.53538 0.45369
 C286 C 0.13840 0.55699 0.44319
 C287 C 0.09013 0.54247 0.34365
 C288 C 0.06354 0.52945 0.32827
 C289 C 0.21127 0.60204 0.42245
 C290 C 0.23583 0.61446 0.43983
 H291 H 0.24594 0.62768 0.37494
 H292 H 0.25532 0.64015 0.32299
 H293 H 0.20322 0.61500 0.28911
 H294 H 0.14149 0.57727 0.30701
 H295 H 0.05584 0.51641 0.39096
 H296 H 0.04652 0.50429 0.44287
 H297 H 0.09860 0.52971 0.47676
 H298 H 0.16029 0.56750 0.45893
 C299 C 0.59395 0.41295 0.40199
 C300 C 0.58494 0.43878 0.41213
 C301 C 0.56939 0.45315 0.39275
 C302 C 0.56289 0.44158 0.36334
 C303 C 0.57191 0.41577 0.35320
 C304 C 0.58758 0.40148 0.37258
 C305 C 0.59644 0.37576 0.36196
 C306 C 0.58993 0.36442 0.33302
 C307 C 0.57449 0.37829 0.31410
 C308 C 0.56549 0.40365 0.32397
 C309 C 0.56052 0.47887 0.40343
 C310 C 0.56683 0.49005 0.43240
 C311 C 0.58205 0.47600 0.45136
 C312 C 0.59105 0.45066 0.44147
 C313 C 0.54667 0.45618 0.34378
 C314 C 0.53295 0.46890 0.32843
 C315 C 0.60912 0.39782 0.42207
 C316 C 0.62125 0.38560 0.43949
 H317 H 0.60846 0.36418 0.37588
 H318 H 0.59685 0.34471 0.32525
 H319 H 0.56941 0.36935 0.29165
 H320 H 0.55341 0.41355 0.30850
 H321 H 0.54862 0.49061 0.38955
 H322 H 0.55987 0.50972 0.44018
 H323 H 0.58694 0.48479 0.47384
 H324 H 0.60283 0.44054 0.45707
 C325 C 0.58713 0.18297 0.40240
 C326 C 0.58276 0.18829 0.37258
 C327 C 0.56724 0.15806 0.35322
 C328 C 0.55637 0.12273 0.36378
 C329 C 0.56065 0.11742 0.39364
 C330 C 0.57605 0.14761 0.41300
 C331 C 0.57999 0.14159 0.44276
 C332 C 0.56904 0.10675 0.45309
 C333 C 0.55398 0.07723 0.43417
 C334 C 0.54977 0.08233 0.40478
 C335 C 0.56292 0.16401 0.32357
 C336 C 0.57377 0.19884 0.31327
 C337 C 0.58905 0.22841 0.33217
 C338 C 0.59354 0.22335 0.36152
 C339 C 0.54080 0.09171 0.34415
 C340 C 0.52769 0.06505 0.32881
 C341 C 0.60271 0.21366 0.42234
 C342 C 0.61534 0.23834 0.43964
 H343 H 0.59155 0.16366 0.45837
 H344 H 0.57230 0.10266 0.47590
 H345 H 0.54549 0.05021 0.44230
 H346 H 0.53789 0.05847 0.39095
 H347 H 0.55104 0.14186 0.30809
 H348 H 0.57027 0.20290 0.29050
 H349 H 0.59742 0.25542 0.32407
 H350 H 0.60550 0.24716 0.37541
 C351 C 0.81810 0.40860 0.40210
 C352 C 0.81192 0.40319 0.37176
 C353 C 0.84185 0.41789 0.35224
 C354 C 0.87777 0.43805 0.36319
 C355 C 0.88394 0.44337 0.39357
 C356 C 0.85402 0.42858 0.41307
 C357 C 0.86089 0.43418 0.44335
 C358 C 0.89628 0.45377 0.45405
 C359 C 0.92553 0.46827 0.43498
 C360 C 0.91961 0.46323 0.40509
 C361 C 0.83498 0.41193 0.32204
 C362 C 0.79959 0.39215 0.31136
 C363 C 0.77032 0.37788 0.33044
 C364 C 0.77625 0.38324 0.36032
 C365 C 0.90857 0.45336 0.34347
 C366 C 0.93514 0.46661 0.32813
 C367 C 0.78768 0.39354 0.42215
 C368 C 0.76319 0.38140 0.43951
 H369 H 0.83905 0.42347 0.45909
 H370 H 0.90102 0.45770 0.47726
 H371 H 0.95299 0.48348 0.44340
 H372 H 0.94329 0.47503 0.39117
 H373 H 0.85683 0.42238 0.30640
 H374 H 0.79485 0.38786 0.28817
 H375 H 0.74287 0.36253 0.32205
 H376 H 0.75264 0.37158 0.37432
 C377 C 0.59015 0.40739 1.09787
 C378 C 0.57885 0.43133 1.08726
 C379 C 0.56388 0.44617 1.10669
 C380 C 0.56027 0.43700 1.13663
 C381 C 0.57160 0.41311 1.14724
 C382 C 0.58664 0.39830 1.12780
 C383 C 0.59781 0.37452 1.13889
 C384 C 0.59421 0.36559 1.16836
 C385 C 0.57944 0.38001 1.18736
 C386 C 0.56820 0.40349 1.17702
 C387 C 0.55273 0.47000 1.09555
 C388 C 0.55631 0.47891 1.06608
 C389 C 0.57098 0.46442 1.04709
 C390 C 0.58214 0.44088 1.05742
 C391 C 0.54470 0.45212 1.15627
 C392 C 0.53146 0.46523 1.17165
 C393 C 0.60504 0.39202 1.07781
 C394 C 0.61708 0.37975 1.06039
 H395 H 0.60943 0.36261 1.12494
 H396 H 0.60290 0.34735 1.17650
 H397 H 0.57666 0.37296 1.21023
 H398 H 0.55681 0.41396 1.19259
 H399 H 0.54116 0.48200 1.10943
 H400 H 0.54765 0.49717 1.05796
 H401 H 0.57376 0.47147 1.02423
 H402 H 0.59338 0.43032 1.04176
 C403 C 0.81790 0.41140 1.09826
 C404 C 0.81237 0.40078 1.12788
 C405 C 0.84240 0.41518 1.14737
 C406 C 0.87773 0.44025 1.13714
 C407 C 0.88322 0.45096 1.10752
 C408 C 0.85323 0.43648 1.08802
 C409 C 0.85943 0.44751 1.05848
 C410 C 0.89426 0.47211 1.04850
 C411 C 0.92359 0.48626 1.06755
 C412 C 0.91831 0.47592 1.09673
 C413 C 0.83625 0.40393 1.17681
 C414 C 0.80142 0.37929 1.18678
 C415 C 0.77205 0.36528 1.16774
 C416 C 0.77730 0.37579 1.13859
 C417 C 0.90862 0.45494 1.15681
 C418 C 0.93519 0.46772 1.17219
 C419 C 0.78750 0.39621 1.07809
 C420 C 0.76307 0.38394 1.06061
 H421 H 0.83751 0.43728 1.04279
 H422 H 0.89849 0.48026 1.02586
 H423 H 0.95060 0.50535 1.05970
 H424 H 0.94202 0.48770 1.11068
 H425 H 0.85825 0.41397 1.19239
 H426 H 0.79721 0.37100 1.20939
 H427 H 0.74504 0.34613 1.17558
 H428 H 0.75364 0.36414 1.12459
 C429 C 0.59177 0.18222 1.09852
 C430 C 0.56556 0.14706 1.08851
 C431 C 0.55047 0.11711 1.10811
 C432 C 0.56166 0.12247 1.13763
 C433 C 0.58782 0.15763 1.14764
 C434 C 0.60288 0.18762 1.12804
 C435 C 0.62895 0.22251 1.13854
 C436 C 0.63988 0.22765 1.16760
 C437 C 0.62523 0.19833 1.18675
 C438 C 0.59951 0.16365 1.17699
 C439 C 0.52439 0.08220 1.09755
 C440 C 0.51351 0.07705 1.06849
 C441 C 0.52822 0.10633 1.04934
 C442 C 0.55396 0.14098 1.05910
 C443 C 0.54632 0.09159 1.15742
 C444 C 0.53294 0.06501 1.17286
 C445 C 0.60743 0.21259 1.07825
 C446 C 0.61988 0.23699 1.06068
 H447 H 0.64113 0.24613 1.12446
 H448 H 0.65986 0.25452 1.17528
 H449 H 0.63384 0.20245 1.20928
 H450 H 0.58896 0.14168 1.19265
 H451 H 0.51211 0.05853 1.11157
 H452 H 0.49353 0.05017 1.06081
 H453 H 0.51962 0.10221 1.02680
 H454 H 0.56459 0.16287 1.04334
 C455 C 0.40669 0.58809 1.09749
 C456 C 0.39786 0.58472 1.12745
 C457 C 0.41273 0.56968 1.14688
 C458 C 0.43644 0.55823 1.13624
 C459 C 0.44526 0.56160 1.10626
 C460 C 0.43034 0.57657 1.08683
 C461 C 0.43954 0.57963 1.05694
 C462 C 0.46281 0.56825 1.04656
 C463 C 0.47738 0.55358 1.06556
 C464 C 0.46882 0.55024 1.09507
 C465 C 0.40338 0.56641 1.17671
 C466 C 0.38010 0.57780 1.18707
 C467 C 0.36562 0.59258 1.16808
 C468 C 0.37429 0.59605 1.13858
 C469 C 0.45182 0.54289 1.15591
 C470 C 0.46519 0.52992 1.17134
 C471 C 0.39141 0.60316 1.07748
 C472 C 0.37923 0.61538 1.06010
 H473 H 0.42891 0.59085 1.04128
 H474 H 0.46959 0.57085 1.02366
 H475 H 0.49544 0.54476 1.05739
 H476 H 0.48086 0.53865 1.10895
 H477 H 0.41388 0.55500 1.19227
 H478 H 0.37325 0.57511 1.20997
 H479 H 0.34754 0.60138 1.17624
 H480 H 0.36234 0.60768 1.12463
 C481 C 0.18219 0.59055 1.09761
 C482 C 0.18827 0.59062 1.12791
 C483 C 0.15831 0.57525 1.14740
 C484 C 0.12249 0.55997 1.13646
 C485 C 0.11642 0.55991 1.10613
 C486 C 0.14636 0.57523 1.08665
 C487 C 0.13961 0.57483 1.05641
 C488 C 0.10431 0.55976 1.04574
 C489 C 0.07503 0.54477 1.06479
 C490 C 0.08085 0.54477 1.09464
 C491 C 0.16505 0.57557 1.17759
 C492 C 0.20036 0.59068 1.18824
 C493 C 0.22966 0.60572 1.16918
 C494 C 0.22384 0.60576 1.13933
 C495 C 0.09170 0.54432 1.15617
 C496 C 0.06520 0.53102 1.17155
 C497 C 0.21260 0.60603 1.07756
 C498 C 0.23706 0.61848 1.06017
 H499 H 0.16147 0.58615 1.04069
 H500 H 0.09967 0.55974 1.02257
 H501 H 0.04765 0.53309 1.05640
 H502 H 0.05715 0.53277 1.10855
 H503 H 0.14316 0.56415 1.19322
 H504 H 0.20501 0.59069 1.21141
 H505 H 0.25704 0.61742 1.17756
 H506 H 0.24747 0.61777 1.12534
 C507 C 0.41141 0.81714 1.09811
 C508 C 0.40451 0.81111 1.12832
 C509 C 0.41915 0.84118 1.14783
 C510 C 0.44066 0.87708 1.13701
 C511 C 0.44763 0.88309 1.10677
 C512 C 0.43297 0.85305 1.08728
 C513 C 0.44028 0.85977 1.05714
 C514 C 0.46146 0.89514 1.04658
 C515 C 0.47576 0.92452 1.06564
 C516 C 0.46902 0.91874 1.09540
 C517 C 0.41175 0.83447 1.17791
 C518 C 0.39057 0.79909 1.18846
 C519 C 0.37632 0.76969 1.16939
 C520 C 0.38311 0.77547 1.13964
 C521 C 0.45558 0.90800 1.15672
 C522 C 0.46845 0.93460 1.17213
 C523 C 0.39615 0.78663 1.07800
 C524 C 0.38383 0.76211 1.06055
 H525 H 0.42977 0.83784 1.04142
 H526 H 0.46683 0.89976 1.02349
 H527 H 0.49218 0.95196 1.05734
 H528 H 0.48078 0.94251 1.10931
 H529 H 0.42219 0.85644 1.19355
 H530 H 0.38519 0.79446 1.21156
 H531 H 0.35989 0.74226 1.17769
 H532 H 0.37142 0.75176 1.12564
 C533 C 0.58993 0.40872 0.59703
 C534 C 0.59253 0.40513 0.62743
 C535 C 0.57789 0.42024 0.64697
 C536 C 0.56076 0.43886 0.63597
 C537 C 0.55814 0.44240 0.60553
 C538 C 0.57276 0.42730 0.58601
 C539 C 0.56980 0.43120 0.55567
 C540 C 0.55286 0.44947 0.54494
 C541 C 0.53857 0.46425 0.56403
 C542 C 0.54110 0.46085 0.59398
 C543 C 0.58079 0.41628 0.67726
 C544 C 0.59770 0.39797 0.68798
 C545 C 0.61202 0.38322 0.66888
 C546 C 0.60954 0.38667 0.63893
 C547 C 0.54579 0.45447 0.65573
 C548 C 0.53293 0.46790 0.67119
 C549 C 0.60490 0.39345 0.57695
 C550 C 0.61701 0.38123 0.55956
 H551 H 0.58049 0.42019 0.53992
 H552 H 0.55080 0.45214 0.52169
 H553 H 0.52543 0.47843 0.55559
 H554 H 0.52954 0.47283 0.60791
 H555 H 0.57004 0.42725 0.69293
 H556 H 0.59968 0.39521 0.71124
 H557 H 0.62513 0.36901 0.67731
 H558 H 0.62108 0.37474 0.62492
 C559 C 0.59356 0.18322 0.59667
 C560 C 0.60141 0.18891 0.62680
 C561 C 0.58668 0.15868 0.64613
 C562 C 0.56412 0.12299 0.63521
 C563 C 0.55632 0.11732 0.60505
 C564 C 0.57109 0.14752 0.58573
 C565 C 0.56293 0.14115 0.55565
 C566 C 0.54083 0.10597 0.54500
 C567 C 0.52640 0.07642 0.56390
 C568 C 0.53395 0.08186 0.59358
 C569 C 0.59504 0.16501 0.67613
 C570 C 0.61720 0.20020 0.68677
 C571 C 0.63154 0.22977 0.66788
 C572 C 0.62383 0.22434 0.63820
 C573 C 0.54880 0.09196 0.65478
 C574 C 0.53545 0.06534 0.67013
 C575 C 0.60869 0.21390 0.57677
 C576 C 0.62081 0.23855 0.55948
 H577 H 0.57350 0.16322 0.54006
 H578 H 0.53484 0.10162 0.52196
 H579 H 0.50924 0.04913 0.55552
 H580 H 0.52207 0.05797 0.60738
 H581 H 0.58462 0.14288 0.69163
 H582 H 0.62330 0.20454 0.70980
 H583 H 0.64875 0.25705 0.67624
 H584 H 0.63562 0.24817 0.62434
 C585 C 0.81811 0.41364 0.59730
 C586 C 0.85325 0.43963 0.58727
 C587 C 0.88329 0.45396 0.60672
 C588 C 0.87802 0.44224 0.63609
 C589 C 0.84285 0.41646 0.64616
 C590 C 0.81278 0.40215 0.62671
 C591 C 0.77788 0.37640 0.63725
 C592 C 0.77282 0.36509 0.66620
 C593 C 0.80222 0.37904 0.68521
 C594 C 0.83690 0.40442 0.67541
 C595 C 0.91818 0.47981 0.59615
 C596 C 0.92323 0.49121 0.56723
 C597 C 0.89385 0.47724 0.54823
 C598 C 0.85922 0.45173 0.55800
 C599 C 0.90898 0.45658 0.65567
 C600 C 0.93552 0.46903 0.67105
 C601 C 0.78774 0.39838 0.57711
 C602 C 0.76332 0.38605 0.55960
 H603 H 0.75420 0.36478 0.62327
 H604 H 0.74593 0.34538 0.67392
 H605 H 0.79815 0.37015 0.70767
 H606 H 0.85893 0.41443 0.69097
 H607 H 0.94192 0.49151 0.61007
 H608 H 0.95010 0.51100 0.55954
 H609 H 0.89789 0.48626 0.52581
 H610 H 0.83725 0.44169 0.54236
 C611 C 0.40700 0.58926 0.59696
 C612 C 0.40649 0.59491 0.62728
 C613 C 0.42189 0.58056 0.64689
 C614 C 0.43766 0.56061 0.63606
 C615 C 0.43813 0.55494 0.60572
 C616 C 0.42276 0.56930 0.58612
 C617 C 0.42359 0.56329 0.55589
 C618 C 0.43914 0.54365 0.54532
 C619 C 0.45419 0.52963 0.56448
 C620 C 0.45377 0.53512 0.59433
 C621 C 0.42114 0.58663 0.67708
 C622 C 0.40559 0.60628 0.68763
 C623 C 0.39051 0.62028 0.66847
 C624 C 0.39088 0.61475 0.63861
 C625 C 0.45353 0.54587 0.65589
 C626 C 0.46712 0.53312 0.67136
 C627 C 0.39159 0.60408 0.57679
 C628 C 0.37925 0.61608 0.55933
 H629 H 0.41225 0.57364 0.54009
 H630 H 0.43947 0.53927 0.52215
 H631 H 0.46625 0.51441 0.55617
 H632 H 0.46583 0.52365 0.60832
 H633 H 0.43255 0.57632 0.69280
 H634 H 0.40525 0.61067 0.71081
 H635 H 0.37846 0.63553 0.67677
 H636 H 0.37883 0.62616 0.62454
 C637 C 0.41193 0.81764 0.59688
 C638 C 0.41451 0.81183 0.62692
 C639 C 0.42977 0.84188 0.64646
 C640 C 0.44216 0.87750 0.63585
 C641 C 0.43965 0.88330 0.60577
 C642 C 0.42451 0.85329 0.58624
 C643 C 0.42235 0.85979 0.55626
 C644 C 0.43477 0.89492 0.54590
 C645 C 0.44958 0.92427 0.56499
 C646 C 0.45205 0.91870 0.59459
 C647 C 0.43228 0.83543 0.67634
 C648 C 0.41993 0.80030 0.68668
 C649 C 0.40491 0.77092 0.66760
 C650 C 0.40218 0.77646 0.63802
 C651 C 0.45752 0.90835 0.65563
 C652 C 0.47057 0.93495 0.67104
 C653 C 0.39655 0.78713 0.57678
 C654 C 0.38407 0.76260 0.55936
 H655 H 0.41106 0.83787 0.54052
 H656 H 0.43287 0.89937 0.52292
 H657 H 0.45921 0.95151 0.55684
 H658 H 0.46381 0.94244 0.60855
 H659 H 0.44388 0.85742 0.69197
 H660 H 0.42205 0.79587 0.70963
 H661 H 0.39535 0.74368 0.67574
 H662 H 0.39035 0.75277 0.62400
 C663 C 0.18222 0.59185 0.59774
 C664 C 0.18839 0.59067 0.62790
 C665 C 0.15858 0.57536 0.64755
 C666 C 0.12277 0.56145 0.63694
 C667 C 0.11662 0.56270 0.60675
 C668 C 0.14641 0.57792 0.58711
 C669 C 0.13954 0.57879 0.55703
 C670 C 0.10428 0.56505 0.54667
 C671 C 0.07516 0.55018 0.56587
 C672 C 0.08109 0.54894 0.59557
 C673 C 0.16544 0.57433 0.67756
 C674 C 0.20072 0.58813 0.68792
 C675 C 0.22986 0.60316 0.66872
 C676 C 0.22393 0.60447 0.63902
 C677 C 0.09208 0.54575 0.65681
 C678 C 0.06557 0.53236 0.67223
 C679 C 0.21249 0.60710 0.57750
 C680 C 0.23684 0.61934 0.55998
 H681 H 0.16128 0.59008 0.54121
 H682 H 0.09955 0.56599 0.52361
 H683 H 0.04781 0.53954 0.55771
 H684 H 0.05751 0.53709 0.60959
 H685 H 0.14367 0.56285 0.69329
 H686 H 0.20546 0.58714 0.71097
 H687 H 0.25722 0.61384 0.67686
 H688 H 0.24745 0.61639 0.62491
 C689 C 0.41207 0.59392 0.90275
 C690 C 0.42490 0.57133 0.91357
 C691 C 0.44011 0.55669 0.89417
 C692 C 0.44242 0.56474 0.86406
 C693 C 0.42969 0.58741 0.85326
 C694 C 0.41441 0.60200 0.87267
 C695 C 0.40180 0.62453 0.86138
 C696 C 0.40425 0.63247 0.83175
 C697 C 0.41925 0.61826 0.81278
 C698 C 0.43189 0.59599 0.82331
 C699 C 0.45278 0.53420 0.90552
 C700 C 0.45047 0.52639 0.93517
 C701 C 0.43557 0.54068 0.95413
 C702 C 0.42290 0.56291 0.94359
 C703 C 0.45794 0.54958 0.84441
 C704 C 0.47109 0.53639 0.82900
 C705 C 0.39668 0.60886 0.92273
 C706 C 0.38423 0.62078 0.94009
 H707 H 0.38995 0.63623 0.87530
 H708 H 0.39448 0.64976 0.82347
 H709 H 0.42114 0.62454 0.78979
 H710 H 0.44343 0.58568 0.80775
 H711 H 0.46461 0.52242 0.89167
 H712 H 0.46029 0.50914 0.94345
 H713 H 0.43378 0.53449 0.97713
 H714 H 0.41156 0.57336 0.95924
 C715 C 0.18197 0.58679 0.90248
 C716 C 0.14636 0.56329 0.91300
 C717 C 0.11641 0.54871 0.89346
 C718 C 0.12221 0.55772 0.86350
 C719 C 0.15782 0.58124 0.85300
 C720 C 0.18781 0.59573 0.87254
 C721 C 0.22315 0.61910 0.86154
 C722 C 0.22873 0.62796 0.83206
 C723 C 0.19941 0.61390 0.81298
 C724 C 0.16431 0.59083 0.82323
 C725 C 0.08105 0.52533 0.90453
 C726 C 0.07547 0.51664 0.93403
 C727 C 0.10476 0.53089 0.95312
 C728 C 0.13985 0.55396 0.94287
 C729 C 0.09137 0.54282 0.84374
 C730 C 0.06485 0.52989 0.82829
 C731 C 0.21238 0.60206 0.92264
 C732 C 0.23687 0.61446 0.94008
 H733 H 0.24680 0.63073 0.87556
 H734 H 0.25595 0.64587 0.82401
 H735 H 0.20386 0.62092 0.79011
 H736 H 0.14238 0.58072 0.80761
 H737 H 0.05736 0.51354 0.89057
 H738 H 0.04825 0.49874 0.94210
 H739 H 0.10030 0.52402 0.97601
 H740 H 0.16173 0.56434 0.95861
 C741 C 0.40600 0.81686 0.90246
 C742 C 0.40696 0.81062 0.87230
 C743 C 0.42212 0.84049 0.85261
 C744 C 0.43613 0.87639 0.86322
 C745 C 0.43507 0.88260 0.89339
 C746 C 0.41997 0.85275 0.91306
 C747 C 0.41926 0.85965 0.94314
 C748 C 0.43307 0.89501 0.95347
 C749 C 0.44788 0.92422 0.93423
 C750 C 0.44894 0.91825 0.90453
 C751 C 0.42292 0.83362 0.82258
 C752 C 0.40908 0.79824 0.81227
 C753 C 0.39422 0.76902 0.83151
 C754 C 0.39311 0.77498 0.86122
 C755 C 0.45184 0.90711 0.84333
 C756 C 0.46532 0.93357 0.82781
 C757 C 0.39101 0.78655 0.92272
 C758 C 0.37899 0.76217 0.94026
 H759 H 0.40804 0.83785 0.95899
 H760 H 0.43225 0.89977 0.97652
 H761 H 0.45859 0.95165 0.94235
 H762 H 0.46072 0.94189 0.89047
 H763 H 0.43425 0.85546 0.80681
 H764 H 0.40991 0.79348 0.78921
 H765 H 0.38350 0.74158 0.82339
 H766 H 0.38130 0.75140 0.87535
 C767 C 0.59458 0.41216 0.90280
 C768 C 0.57275 0.42580 0.91363
 C769 C 0.55806 0.44097 0.89417
 C770 C 0.56527 0.44243 0.86395
 C771 C 0.58714 0.42885 0.85313
 C772 C 0.60180 0.41362 0.87261
 C773 C 0.62352 0.40014 0.86128
 C774 C 0.63059 0.40169 0.83155
 C775 C 0.61631 0.41663 0.81252
 C776 C 0.59484 0.43011 0.82308
 C777 C 0.53633 0.45445 0.90555
 C778 C 0.52930 0.45295 0.93527
 C779 C 0.54364 0.43809 0.95430
 C780 C 0.56514 0.42465 0.94374
 C781 C 0.55005 0.45794 0.84424
 C782 C 0.53681 0.47109 0.82883
 C783 C 0.60961 0.39683 0.92285
 C784 C 0.62160 0.38442 0.94025
 H785 H 0.63523 0.38829 0.87525
 H786 H 0.64726 0.39126 0.82325
 H787 H 0.62191 0.41781 0.78945
 H788 H 0.58441 0.44155 0.80747
 H789 H 0.52453 0.46628 0.89165
 H790 H 0.51263 0.46338 0.94358
 H791 H 0.53806 0.43693 0.97737
 H792 H 0.57566 0.41337 0.95944
 C793 C 0.81787 0.40664 0.90281
 C794 C 0.85384 0.42446 0.91378
 C795 C 0.88373 0.43952 0.89423
 C796 C 0.87749 0.43669 0.86379
 C797 C 0.84151 0.41880 0.85283
 C798 C 0.81161 0.40374 0.87240
 C799 C 0.77591 0.38602 0.86093
 C800 C 0.76989 0.38321 0.83098
 C801 C 0.79912 0.39791 0.81185
 C802 C 0.83457 0.41553 0.82254
 C803 C 0.91944 0.45719 0.90576
 C804 C 0.92545 0.45988 0.93571
 C805 C 0.89623 0.44516 0.95482
 C806 C 0.86080 0.42765 0.94412
 C807 C 0.90825 0.45228 0.84401
 C808 C 0.93476 0.46567 0.82860
 C809 C 0.78748 0.39146 0.92293
 C810 C 0.76304 0.37931 0.94037
 H811 H 0.75232 0.37416 0.87496
 H812 H 0.74241 0.36956 0.82257
 H813 H 0.79431 0.39564 0.78860
 H814 H 0.85640 0.42650 0.80685
 H815 H 0.94310 0.46909 0.89181
 H816 H 0.95293 0.47346 0.94413
 H817 H 0.90103 0.44729 0.97807
 H818 H 0.83900 0.41665 0.95989
 C819 C 0.58796 0.18230 0.90236
 C820 C 0.57018 0.14616 0.91316
 C821 C 0.55549 0.11633 0.89346
 C822 C 0.55867 0.12279 0.86305
 C823 C 0.57637 0.15891 0.85226
 C824 C 0.59107 0.18877 0.87198
 C825 C 0.60868 0.22463 0.86070
 C826 C 0.61169 0.23084 0.83077
 C827 C 0.59732 0.20166 0.81150
 C828 C 0.57982 0.16605 0.82201
 C829 C 0.53786 0.08045 0.90479
 C830 C 0.53487 0.07424 0.93471
 C831 C 0.54927 0.10341 0.95397
 C832 C 0.56673 0.13901 0.94345
 C833 C 0.54377 0.09210 0.84313
 C834 C 0.53094 0.06561 0.82762
 C835 C 0.60313 0.21263 0.92263
 C836 C 0.61545 0.23702 0.94018
 H837 H 0.62027 0.24820 0.87485
 H838 H 0.62525 0.25845 0.82250
 H839 H 0.59972 0.20661 0.78827
 H840 H 0.56907 0.14425 0.80620
 H841 H 0.52620 0.05682 0.89072
 H842 H 0.52132 0.04663 0.94298
 H843 H 0.54694 0.09845 0.97719
 H844 H 0.57745 0.16076 0.95934
   
