data_POSCAR
  _audit_creation_date              2014-09-24
  _audit_creation_method            'ToBaCCo'
  _symmetry_space_group_name_H-M    'P1'
  _symmetry_Int_Tables_number       1
  _symmetry_cell_setting            triclinic
  loop_
  _symmetry_equiv_pos_as_xyz
 x,y,z
_cell_length_a 51.0343
_cell_length_b 51.1666
_cell_length_c 22.9566
_cell_angle_alpha 89.990800
_cell_angle_beta 90.022600
_cell_angle_gamma 119.754000
loop_
  _atom_site_label
  _atom_site_type_symbol
  _atom_site_fract_x
  _atom_site_fract_y
  _atom_site_fract_z
C1 C 0.49067 0.97330 0.53412
 C2 C 0.48903 0.97244 0.47246
 C3 C 0.50074 0.99944 0.44107
 C4 C 0.51559 1.02787 0.46834
 C5 C 0.51867 1.02899 0.53026
 C6 C 0.50587 1.00165 0.56150
 H7 H 0.50748 1.00244 0.60864
 H8 H 0.49922 0.99807 0.39392
 C9 C 0.02744 0.52263 0.52982
 C10 C 0.02737 0.51642 0.46993
 C11 C -0.00021 0.49962 0.44082
 C12 C -0.02811 0.48929 0.46941
 C13 C -0.02780 0.49547 0.52998
 C14 C -0.00008 0.51231 0.55888
 H15 H 0.00008 0.51612 0.60539
 H16 H 0.00033 0.49629 0.39429
 C17 C 0.48279 0.51126 0.53148
 C18 C 0.47587 0.50389 0.47167
 C19 C 0.48580 0.48602 0.44369
 C20 C 0.50323 0.47585 0.47268
 C21 C 0.51070 0.48327 0.53231
 C22 C 0.50082 0.50143 0.56008
 H23 H 0.50483 0.50554 0.60641
 H24 H 0.48156 0.48158 0.39744
 O25 O 0.37853 0.66067 -0.04878
 O26 O 0.37801 0.71107 -0.06343
 C27 C 0.36443 0.72582 -0.07221
 O28 O 0.34145 0.72150 -0.04284
 O29 O 0.29110 0.67186 -0.06491
 C30 C 0.27704 0.64423 -0.07876
 O31 O 0.28110 0.62455 -0.05291
 O32 O 0.33187 0.62536 -0.07198
 C33 C 0.36012 0.63883 -0.08035
 O34 O 0.37597 0.66656 0.06724
 O35 O 0.37863 0.71854 0.05280
 C36 C 0.36011 0.72275 0.08275
 O37 O 0.33206 0.70915 0.07220
 O38 O 0.28090 0.66072 0.05013
 C39 C 0.27579 0.63661 0.07583
 O40 O 0.28923 0.62220 0.06255
 O41 O 0.33893 0.62069 0.04349
 C42 C 0.36155 0.63825 0.07461
 Cr43 Cr 0.37612 0.68842 0.00190
 Cr44 Cr 0.31219 0.68995 0.00350
 Cr45 Cr 0.31113 0.62486 -0.00452
 O46 O 0.33308 0.66772 0.00030
 O47 O 0.62131 0.34021 -0.05051
 O48 O 0.62424 0.29175 -0.07213
 C49 C 0.63872 0.27806 -0.08219
 O50 O 0.66123 0.28215 -0.05170
 O51 O 0.71043 0.33404 -0.06570
 C52 C 0.72423 0.36233 -0.07321
 O53 O 0.71908 0.37997 -0.04235
 O54 O 0.66804 0.37871 -0.06212
 C55 C 0.64033 0.36436 -0.07585
 O56 O 0.61993 0.32904 0.06461
 O57 O 0.62080 0.27930 0.04297
 C58 C 0.63929 0.27483 0.07271
 O59 O 0.66760 0.28957 0.06453
 O60 O 0.71846 0.33989 0.05040
 C61 C 0.72183 0.36182 0.08172
 O62 O 0.70707 0.37535 0.07301
 O63 O 0.65723 0.37630 0.05316
 C64 C 0.63341 0.35665 0.07859
 Cr65 Cr 0.62324 0.31093 -0.00357
 Cr66 Cr 0.68856 0.31222 -0.00058
 Cr67 Cr 0.68705 0.37592 0.00523
 O68 O 0.66624 0.33305 0.00038
 C69 C 0.45066 0.89581 -0.35699
 C70 C 0.44805 0.92122 -0.34409
 C71 C 0.46135 0.94655 -0.37988
 C72 C 0.47726 0.94713 -0.43050
 C73 C 0.47994 0.92159 -0.44326
 C74 C 0.46685 0.89628 -0.40687
 C75 C 0.43683 0.86931 -0.31778
 N76 N 0.44413 0.84718 -0.32163
 N77 N 0.43216 0.82389 -0.28497
 C78 C 0.41232 0.82172 -0.24316
 N79 N 0.40490 0.84374 -0.23971
 N80 N 0.41692 0.86703 -0.27612
 C81 C 0.39944 0.79635 -0.20119
 C82 C 0.37585 0.79224 -0.16388
 C83 C 0.36429 0.76912 -0.12271
 C84 C 0.37614 0.74962 -0.11748
 C85 C 0.39950 0.75346 -0.15523
 C86 C 0.41095 0.77652 -0.19680
 H87 H 0.43585 0.92172 -0.30592
 H88 H 0.45829 0.96543 -0.36870
 H89 H 0.49321 0.92150 -0.47990
 H90 H 0.46953 0.87714 -0.41771
 H91 H 0.36633 0.80699 -0.16621
 H92 H 0.34629 0.76682 -0.09443
 H93 H 0.40905 0.73875 -0.15251
 H94 H 0.42913 0.77908 -0.22484
 C95 C 0.10841 0.56506 -0.36667
 C96 C 0.10152 0.53958 -0.40071
 C97 C 0.07547 0.52611 -0.43494
 C98 C 0.05576 0.53782 -0.43589
 C99 C 0.06262 0.56335 -0.40235
 C100 C 0.08879 0.57697 -0.36832
 C101 C 0.13529 0.57840 -0.32821
 N102 N 0.14412 0.60486 -0.30013
 N103 N 0.16763 0.61620 -0.26391
 C104 C 0.18324 0.60149 -0.25408
 N105 N 0.17452 0.57514 -0.28246
 N106 N 0.15110 0.56388 -0.31880
 C107 C 0.20844 0.61324 -0.21162
 C108 C 0.22020 0.59499 -0.19270
 C109 C 0.24275 0.60526 -0.15023
 C110 C 0.25431 0.63414 -0.12602
 C111 C 0.24317 0.65274 -0.14604
 C112 C 0.22036 0.64233 -0.18817
 H113 H 0.11610 0.52982 -0.40053
 H114 H 0.07039 0.50620 -0.45997
 H115 H 0.04765 0.57267 -0.40248
 H116 H 0.09336 0.59650 -0.34253
 H117 H 0.21157 0.57247 -0.20980
 H118 H 0.25097 0.59044 -0.13604
 H119 H 0.25159 0.67510 -0.12822
 H120 H 0.21191 0.65701 -0.20199
 C121 C 0.44666 0.55528 -0.36613
 C122 C 0.42907 0.53459 -0.40944
 C123 C 0.44103 0.52049 -0.44382
 C124 C 0.47099 0.52665 -0.43586
 C125 C 0.48850 0.54749 -0.39232
 C126 C 0.47659 0.56175 -0.35836
 C127 C 0.43370 0.56935 -0.32792
 N128 N 0.45158 0.59163 -0.29036
 N129 N 0.43990 0.60358 -0.25444
 C130 C 0.40981 0.59373 -0.25436
 N131 N 0.39191 0.57156 -0.29217
 N132 N 0.40362 0.55965 -0.32826
 C133 C 0.39682 0.60624 -0.21239
 C134 C 0.36539 0.59332 -0.20597
 C135 C 0.35336 0.60417 -0.16382
 C136 C 0.37251 0.62824 -0.12737
 C137 C 0.40390 0.64162 -0.13493
 C138 C 0.41589 0.63073 -0.17679
 H139 H 0.40584 0.52890 -0.41630
 H140 H 0.42619 0.50363 -0.47467
 H141 H 0.51179 0.55343 -0.38522
 H142 H 0.49083 0.57760 -0.32542
 H143 H 0.35005 0.57444 -0.23271
 H144 H 0.32908 0.59341 -0.15928
 H145 H 0.41934 0.66027 -0.10781
 H146 H 0.44019 0.64136 -0.18072
 C147 C 0.55819 0.10890 -0.36773
 C148 C 0.53865 0.10555 -0.41388
 C149 C 0.52581 0.07947 -0.44821
 C150 C 0.53213 0.05605 -0.43697
 C151 C 0.55146 0.05950 -0.39018
 C152 C 0.56450 0.08561 -0.35654
 C153 C 0.57165 0.13609 -0.33030
 N154 N 0.59449 0.14136 -0.29325
 N155 N 0.60604 0.16504 -0.25780
 C156 C 0.59522 0.18450 -0.25763
 N157 N 0.57247 0.17940 -0.29498
 N158 N 0.56097 0.15571 -0.33070
 C159 C 0.60735 0.20994 -0.21581
 C160 C 0.59309 0.22715 -0.20743
 C161 C 0.60355 0.24972 -0.16485
 C162 C 0.62857 0.25561 -0.12996
 C163 C 0.64331 0.23899 -0.13967
 C164 C 0.63281 0.21644 -0.18192
 H165 H 0.53318 0.12303 -0.42337
 H166 H 0.51021 0.07727 -0.48236
 H167 H 0.55723 0.04225 -0.38041
 H168 H 0.57935 0.08734 -0.32122
 H169 H 0.57343 0.22274 -0.23282
 H170 H 0.59174 0.26218 -0.15864
 H171 H 0.66272 0.24298 -0.11386
 H172 H 0.64451 0.20381 -0.18742
 C173 C 0.89332 0.45492 -0.36050
 C174 C 0.90007 0.43701 -0.39711
 C175 C 0.92548 0.45019 -0.43316
 C176 C 0.94454 0.48154 -0.43356
 C177 C 0.93784 0.49949 -0.39725
 C178 C 0.91242 0.48634 -0.36128
 C179 C 0.86698 0.44093 -0.32070
 N180 N 0.85997 0.45828 -0.28661
 N181 N 0.83682 0.44578 -0.24971
 C182 C 0.81968 0.41537 -0.24520
 N183 N 0.82659 0.39800 -0.27950
 N184 N 0.84973 0.41051 -0.31648
 C185 C 0.79449 0.40157 -0.20276
 C186 C 0.77789 0.37017 -0.19524
 C187 C 0.75487 0.35735 -0.15367
 C188 C 0.74790 0.37565 -0.11872
 C189 C 0.76421 0.40700 -0.12692
 C190 C 0.78722 0.41979 -0.16835
 H191 H 0.88591 0.41275 -0.39758
 H192 H 0.93049 0.43591 -0.46029
 H193 H 0.95232 0.52371 -0.39683
 H194 H 0.90796 0.50083 -0.33363
 H195 H 0.78286 0.35544 -0.22103
 H196 H 0.74271 0.33311 -0.14860
 H197 H 0.75943 0.42180 -0.10091
 H198 H 0.79944 0.44405 -0.17303
 C199 C 0.55551 0.44857 -0.36370
 C200 C 0.56222 0.47857 -0.35757
 C201 C 0.54760 0.48998 -0.39194
 C202 C 0.52628 0.47190 -0.43439
 C203 C 0.51989 0.44188 -0.44067
 C204 C 0.53426 0.43040 -0.40576
 C205 C 0.56976 0.43602 -0.32498
 N206 N 0.55808 0.40579 -0.32022
 N207 N 0.57009 0.39442 -0.28360
 C208 C 0.59439 0.41281 -0.25041
 N209 N 0.60628 0.44305 -0.25562
 N210 N 0.59416 0.45442 -0.29202
 C211 C 0.60692 0.40013 -0.20789
 C212 C 0.63531 0.41842 -0.18220
 C213 C 0.64651 0.40667 -0.14025
 C214 C 0.62935 0.37648 -0.12252
 C215 C 0.60115 0.35811 -0.14877
 C216 C 0.59015 0.36975 -0.19122
 H217 H 0.57844 0.49317 -0.32547
 H218 H 0.55360 0.51330 -0.38608
 H219 H 0.50267 0.42666 -0.47058
 H220 H 0.52840 0.40710 -0.41130
 H221 H 0.64885 0.44188 -0.19430
 H222 H 0.66831 0.42140 -0.12079
 H223 H 0.58747 0.33471 -0.13633
 H224 H 0.56818 0.35505 -0.21007
 C225 C 0.89210 0.44606 0.36639
 C226 C 0.89489 0.46621 0.41070
 C227 C 0.92088 0.48013 0.44520
 C228 C 0.94488 0.47432 0.43633
 C229 C 0.94190 0.45414 0.39160
 C230 C 0.91583 0.44005 0.35757
 C231 C 0.86505 0.43196 0.32837
 N232 N 0.86078 0.40976 0.29063
 N233 N 0.83710 0.39771 0.25497
 C234 C 0.81666 0.40737 0.25531
 N235 N 0.82080 0.42947 0.29329
 N236 N 0.84448 0.44148 0.32914
 C237 C 0.79109 0.39470 0.21361
 C238 C 0.77252 0.40762 0.20704
 C239 C 0.74963 0.39666 0.16500
 C240 C 0.74474 0.37246 0.12882
 C241 C 0.76279 0.35907 0.13661
 C242 C 0.78568 0.37008 0.17834
 H243 H 0.87713 0.47154 0.41834
 H244 H 0.92264 0.49653 0.47700
 H245 H 0.95944 0.44852 0.38371
 H246 H 0.91447 0.42465 0.32380
 H247 H 0.77605 0.42660 0.23353
 H248 H 0.73607 0.40743 0.16027
 H249 H 0.75962 0.34033 0.10970
 H250 H 0.79939 0.35944 0.18241
 C251 C 0.55401 0.10436 0.35679
 C252 C 0.57070 0.10267 0.40391
 C253 C 0.55817 0.07765 0.44102
 C254 C 0.52857 0.05370 0.43200
 C255 C 0.51224 0.05536 0.38398
 C256 C 0.52466 0.08040 0.34735
 C257 C 0.56699 0.13069 0.31708
 N258 N 0.54928 0.13399 0.27700
 N259 N 0.56077 0.15726 0.24052
 C260 C 0.59053 0.17826 0.24236
 N261 N 0.60830 0.17505 0.28254
 N262 N 0.59676 0.15177 0.31923
 C263 C 0.60322 0.20372 0.20057
 C264 C 0.63456 0.22301 0.19582
 C265 C 0.64634 0.24627 0.15468
 C266 C 0.62703 0.25086 0.11765
 C267 C 0.59569 0.23188 0.12319
 C268 C 0.58395 0.20858 0.16398
 H269 H 0.59350 0.12062 0.41209
 H270 H 0.57204 0.07674 0.47576
 H271 H 0.48934 0.03761 0.37563
 H272 H 0.51117 0.08084 0.31135
 H273 H 0.65004 0.21989 0.22331
 H274 H 0.67060 0.26054 0.15169
 H275 H 0.58013 0.23475 0.09547
 H276 H 0.55970 0.19427 0.16658
 C277 C 0.54274 0.43534 0.36573
 C278 C 0.51121 0.42265 0.36874
 C279 C 0.49837 0.43572 0.40367
 C280 C 0.51678 0.46147 0.43682
 C281 C 0.54823 0.47409 0.43417
 C282 C 0.56109 0.46116 0.39903
 C283 C 0.55650 0.42229 0.32691
 N284 N 0.58669 0.43722 0.31676
 N285 N 0.59900 0.42608 0.28041
 C286 C 0.58168 0.39945 0.25277
 N287 N 0.55151 0.38436 0.26329
 N288 N 0.53917 0.39556 0.29952
 C289 C 0.59531 0.38774 0.21051
 C290 C 0.57842 0.35854 0.18742
 C291 C 0.59098 0.34812 0.14558
 C292 C 0.62060 0.36679 0.12551
 C293 C 0.63762 0.39578 0.14936
 C294 C 0.62518 0.40607 0.19151
 H295 H 0.49642 0.40285 0.34351
 H296 H 0.47405 0.42572 0.40502
 H297 H 0.56284 0.49418 0.45887
 H298 H 0.58544 0.47153 0.39776
 H299 H 0.55539 0.34378 0.20130
 H300 H 0.57727 0.32567 0.12806
 H301 H 0.66057 0.41067 0.13513
 H302 H 0.63885 0.42867 0.20834
 C303 C 0.10792 0.55269 0.36561
 C304 C 0.08802 0.52143 0.36795
 C305 C 0.06203 0.50963 0.40239
 C306 C 0.05565 0.52879 0.43565
 C307 C 0.07569 0.55992 0.43418
 C308 C 0.10156 0.57177 0.39950
 C309 C 0.13452 0.56541 0.32649
 N310 N 0.15047 0.59547 0.31597
 N311 N 0.17362 0.60684 0.27898
 C312 C 0.18189 0.58866 0.25105
 N313 N 0.16612 0.55862 0.26198
 N314 N 0.14290 0.54722 0.29883
 C315 C 0.20686 0.60124 0.20811
 C316 C 0.21835 0.58345 0.18530
 C317 C 0.24113 0.59507 0.14312
 C318 C 0.25268 0.62463 0.12241
 C319 C 0.24144 0.64252 0.14578
 C320 C 0.21891 0.63101 0.18829
 H321 H 0.09218 0.50610 0.34232
 H322 H 0.04680 0.48554 0.40294
 H323 H 0.07099 0.57511 0.45905
 H324 H 0.11641 0.59592 0.39881
 H325 H 0.20966 0.56047 0.19979
 H326 H 0.24929 0.58070 0.12600
 H327 H 0.24998 0.66544 0.13104
 H328 H 0.21058 0.64534 0.20486
 C329 C 0.44785 0.89153 0.36952
 C330 C 0.47895 0.91214 0.36557
 C331 C 0.49209 0.93824 0.39932
 C332 C 0.47456 0.94415 0.43833
 C333 C 0.44355 0.92364 0.44293
 C334 C 0.43027 0.89752 0.40872
 C335 C 0.43407 0.86444 0.33175
 N336 N 0.40361 0.84681 0.32733
 N337 N 0.39150 0.82321 0.29140
 C338 C 0.40934 0.81623 0.25855
 N339 N 0.43974 0.83371 0.26349
 N340 N 0.45182 0.85728 0.29922
 C341 C 0.39619 0.79089 0.21645
 C342 C 0.41511 0.78337 0.18484
 C343 C 0.40326 0.76084 0.14251
 C344 C 0.37215 0.74521 0.13052
 C345 C 0.35305 0.75213 0.16315
 C346 C 0.36495 0.77472 0.20569
 H347 H 0.49318 0.90838 0.33577
 H348 H 0.51605 0.95389 0.39514
 H349 H 0.42966 0.92801 0.47258
 H350 H 0.40627 0.88211 0.41282
 H351 H 0.43926 0.79519 0.19213
 H352 H 0.41864 0.75603 0.11848
 H353 H 0.32896 0.74048 0.15514
 H354 H 0.34972 0.77989 0.22931
 C355 C 0.43786 0.54472 0.36132
 C356 C 0.46288 0.56259 0.39701
 C357 C 0.47501 0.54931 0.43318
 C358 C 0.46229 0.51789 0.43470
 C359 C 0.43731 0.49998 0.39924
 C360 C 0.42513 0.51323 0.36310
 C361 C 0.42554 0.55883 0.32156
 N362 N 0.40101 0.54160 0.28795
 N363 N 0.39037 0.55423 0.25117
 C364 C 0.40381 0.58465 0.24633
 N365 N 0.42827 0.60190 0.28014
 N366 N 0.43889 0.58926 0.31698
 C367 C 0.39243 0.59861 0.20404
 C368 C 0.40730 0.63002 0.19646
 C369 C 0.39712 0.64298 0.15499
 C370 C 0.37183 0.62482 0.12018
 C371 C 0.35670 0.59346 0.12848
 C372 C 0.36688 0.58053 0.16983
 H373 H 0.47331 0.58689 0.39669
 H374 H 0.49457 0.56358 0.45959
 H375 H 0.42722 0.47570 0.39968
 H376 H 0.40589 0.49877 0.33616
 H377 H 0.42703 0.64463 0.22211
 H378 H 0.40927 0.66721 0.14983
 H379 H 0.33709 0.57877 0.10260
 H380 H 0.35480 0.55628 0.17457
   
