data_POSCAR
  _audit_creation_date              2014-09-24
  _audit_creation_method            'ToBaCCo'
  _symmetry_space_group_name_H-M    'P1'
  _symmetry_Int_Tables_number       1
  _symmetry_cell_setting            triclinic
  loop_
  _symmetry_equiv_pos_as_xyz
 x,y,z
_cell_length_a 25.2841
_cell_length_b 25.2712
_cell_length_c 25.1996
_cell_angle_alpha 90.123400
_cell_angle_beta 90.123600
_cell_angle_gamma 90.122900
loop_
  _atom_site_label
  _atom_site_type_symbol
  _atom_site_fract_x
  _atom_site_fract_y
  _atom_site_fract_z
C1 C 0.38868 1.00049 -0.54929
 C2 C 0.36172 1.00010 -0.50095
 C3 C 0.38899 0.99970 -0.45274
 C4 C 0.44486 0.99987 -0.45223
 C5 C 0.47283 1.00006 -0.50103
 C6 C 0.44466 1.00027 -0.54985
 C7 C 0.47322 1.00024 -0.59772
 C8 C 0.52829 0.99996 -0.59768
 C9 C 0.55702 0.99988 -0.54978
 C10 C 0.52903 1.00004 -0.50097
 C11 C 0.47345 0.99988 -0.40433
 C12 C 0.52851 1.00012 -0.40425
 C13 C 0.55713 1.00017 -0.45210
 C14 C 0.61310 1.00035 -0.45257
 C15 C 0.64016 0.99999 -0.50085
 C16 C 0.61299 0.99965 -0.54919
 H17 H 0.45313 1.00036 -0.63571
 H18 H 0.54825 0.99988 -0.63566
 H19 H 0.45341 0.99978 -0.36640
 H20 H 0.54856 1.00018 -0.36623
 H21 H 0.31875 1.00011 -0.50073
 H22 H 0.68317 0.99997 -0.50080
 C23 C -0.54743 1.38908 0.00057
 C24 C -0.49939 1.36200 0.00019
 C25 C -0.45129 1.38919 -0.00026
 C26 C -0.45068 1.44508 -0.00014
 C27 C -0.49927 1.47308 0.00005
 C28 C -0.54793 1.44497 0.00030
 C29 C -0.59564 1.47344 0.00026
 C30 C -0.59561 1.52854 -0.00007
 C31 C -0.54786 1.55718 -0.00019
 C32 C -0.49922 1.52924 -0.00003
 C33 C -0.40292 1.47366 -0.00018
 C34 C -0.40284 1.52877 0.00000
 C35 C -0.45055 1.55738 0.00006
 C36 C -0.45113 1.61337 0.00019
 C37 C -0.49930 1.64036 -0.00018
 C38 C -0.54734 1.61306 -0.00047
 H39 H -0.63348 1.45329 0.00041
 H40 H -0.63343 1.54856 -0.00015
 H41 H -0.36512 1.45360 -0.00028
 H42 H -0.36496 1.54885 0.00003
 H43 H -0.49944 1.31903 0.00025
 H44 H -0.49952 1.68335 -0.00023
 C45 C 0.00027 0.38665 0.45255
 C46 C -0.00009 0.35957 0.50081
 C47 C -0.00052 0.38675 0.54914
 C48 C -0.00039 0.44274 0.54974
 C49 C -0.00023 0.47074 0.50094
 C50 C -0.00001 0.44264 0.45208
 C51 C -0.00008 0.47126 0.40422
 C52 C -0.00041 0.52635 0.40430
 C53 C -0.00050 0.55494 0.45221
 C54 C -0.00031 0.52696 0.50100
 C55 C -0.00040 0.47147 0.59765
 C56 C -0.00020 0.52656 0.59769
 C57 C -0.00018 0.55513 0.54982
 C58 C -0.00005 0.61113 0.54925
 C59 C -0.00045 0.63811 0.50092
 C60 C -0.00077 0.61082 0.45272
 H61 H 0.00005 0.45121 0.36620
 H62 H -0.00052 0.54640 0.36637
 H63 H -0.00047 0.45149 0.63563
 H64 H -0.00015 0.54667 0.63569
 H65 H -0.00004 0.31654 0.50076
 H66 H -0.00050 0.68110 0.50071
 O67 O -0.13653 1.00161 -0.07208
 O68 O 0.13600 0.99833 -0.07165
 O69 O -0.00199 1.07139 -0.13636
 O70 O 0.00138 0.92839 -0.13655
 O71 O 0.00127 0.86354 -0.07210
 O72 O -0.00181 1.13636 -0.07174
 O73 O 0.07117 0.99818 -0.13635
 O74 O -0.07176 1.00163 -0.13656
 Zr75 Zr -0.00028 0.99993 -0.09322
 O76 O 0.04767 0.95191 -0.04809
 O77 O -0.04817 1.04803 -0.04810
 C78 C -0.12056 1.00241 -0.12094
 C79 C 0.11998 0.99744 -0.12056
 C80 C -0.00271 1.12025 -0.12062
 C81 C 0.00211 0.87957 -0.12094
 H82 H 0.07016 1.07040 -0.07035
 O83 O 0.04757 1.04786 -0.04772
 H84 H -0.07071 0.92952 -0.07075
 O85 O -0.04809 0.95209 -0.04800
 O86 O 0.13610 1.00186 0.07202
 O87 O -0.13645 0.99827 0.07163
 O88 O 0.07164 1.13649 0.00205
 O89 O 0.07124 0.86363 -0.00187
 O90 O -0.07209 0.86354 0.00147
 O91 O -0.07165 1.13640 -0.00168
 O92 O 0.00176 1.07158 0.13655
 O93 O -0.00202 0.92861 0.13633
 O94 O 0.00177 1.13646 0.07213
 O95 O -0.00212 0.86365 0.07171
 O96 O 0.13594 1.07167 0.00210
 O97 O -0.13616 1.07152 -0.00193
 O98 O -0.13639 0.92836 0.00150
 O99 O 0.13572 0.92854 -0.00174
 O100 O 0.07137 1.00191 0.13653
 O101 O -0.07161 0.99829 0.13632
 Zr102 Zr 0.09289 1.00007 0.00013
 Zr103 Zr -0.09334 0.99996 -0.00016
 Zr104 Zr -0.00007 1.09339 0.00013
 Zr105 Zr -0.00036 0.90663 -0.00014
 Zr106 Zr -0.00015 1.00007 0.09320
 O107 O -0.04826 0.95193 0.04793
 O108 O 0.04788 1.04817 0.04823
 C109 C 0.12016 1.00271 0.12089
 C110 C -0.12043 0.99747 0.12054
 C111 C 0.12033 1.12048 0.00293
 C112 C 0.11997 0.87971 -0.00263
 C113 C -0.12078 0.87955 0.00228
 C114 C -0.12039 1.12034 -0.00263
 C115 C 0.00261 1.12041 0.12097
 C116 C -0.00290 0.87975 0.12059
 H117 H -0.07039 1.07041 0.07052
 O118 O -0.04787 1.04786 0.04783
 H119 H 0.07005 0.92971 0.07053
 O120 O 0.04750 0.95222 0.04783
 C121 C 0.29493 1.00234 0.32083
 C122 C 0.32244 1.00480 0.26662
 C123 C 0.28809 1.00531 0.22476
 C124 C 0.22969 1.00332 0.24133
 C125 C 0.22263 1.05013 0.27954
 C126 C 0.25691 1.04962 0.32131
 C127 C 0.25909 0.95332 0.31796
 C128 C 0.22483 0.95384 0.27620
 C129 C 0.33105 1.00171 0.36645
 C130 C 0.35898 1.00113 0.40529
 C131 C 0.19208 1.00369 0.19692
 C132 C 0.15987 1.00353 0.16159
 H133 H 0.36505 1.00603 0.26157
 H134 H 0.30128 1.00699 0.18383
 H135 H 0.19334 1.08104 0.27422
 H136 H 0.25696 1.08009 0.35175
 H137 H 0.26056 0.92098 0.34621
 H138 H 0.19695 0.92193 0.26870
 C139 C -0.29402 0.99786 0.32075
 C140 C -0.32193 0.99533 0.26661
 C141 C -0.28789 0.99483 0.22464
 C142 C -0.22937 0.99690 0.24104
 C143 C -0.22198 0.95012 0.27906
 C144 C -0.25594 0.95063 0.32094
 C145 C -0.25827 1.04692 0.31794
 C146 C -0.22431 1.04642 0.27607
 C147 C -0.32982 0.99848 0.36648
 C148 C -0.35752 0.99904 0.40538
 C149 C -0.19207 0.99653 0.19652
 C150 C -0.16003 0.99668 0.16117
 H151 H -0.36458 0.99405 0.26169
 H152 H -0.30138 0.99310 0.18374
 H153 H -0.19269 0.91925 0.27354
 H154 H -0.25574 0.92018 0.35127
 H155 H -0.25956 1.07928 0.34631
 H156 H -0.19653 1.07835 0.26860
 C157 C -0.29391 1.00207 -0.32209
 C158 C -0.32192 1.00425 -0.26812
 C159 C -0.28797 1.00473 -0.22593
 C160 C -0.22942 1.00299 -0.24198
 C161 C -0.22196 1.04996 -0.27976
 C162 C -0.25585 1.04948 -0.32185
 C163 C -0.25815 0.95316 -0.31927
 C164 C -0.22428 0.95364 -0.27719
 C165 C -0.32963 1.00148 -0.36803
 C166 C -0.35733 1.00094 -0.40705
 C167 C -0.19220 1.00334 -0.19724
 C168 C -0.16019 1.00318 -0.16171
 H169 H -0.36458 1.00532 -0.26346
 H170 H -0.30153 1.00622 -0.18512
 H171 H -0.19269 1.08094 -0.27392
 H172 H -0.25559 1.08005 -0.35205
 H173 H -0.25939 0.92091 -0.34778
 H174 H -0.19650 0.92180 -0.26968
 C175 C 0.29403 0.99783 -0.32035
 C176 C 0.25588 0.95050 -0.32078
 C177 C 0.22178 0.94999 -0.27901
 C178 C 0.22913 0.99686 -0.24086
 C179 C 0.22426 1.04630 -0.27580
 C180 C 0.25835 1.04680 -0.31755
 C181 C 0.32176 0.99549 -0.26613
 C182 C 0.28759 0.99498 -0.22428
 C183 C 0.32999 0.99845 -0.36596
 C184 C 0.35782 0.99903 -0.40474
 C185 C 0.19170 0.99650 -0.19646
 C186 C 0.15960 0.99665 -0.16117
 H187 H 0.25572 0.91999 -0.35118
 H188 H 0.19242 0.91905 -0.27365
 H189 H 0.19650 1.07817 -0.26835
 H190 H 0.25979 1.07911 -0.34585
 H191 H 0.36439 0.99433 -0.26107
 H192 H 0.30094 0.99338 -0.18334
 C193 C 0.32031 1.29418 0.00257
 C194 C 0.31937 1.25767 0.05116
 C195 C 0.27751 1.22367 0.05169
 C196 C 0.24067 1.22951 0.00360
 C197 C 0.27660 1.22286 -0.04496
 C198 C 0.31845 1.25685 -0.04550
 C199 C 0.26644 1.32212 0.00280
 C200 C 0.22449 1.28805 0.00334
 C201 C 0.36597 1.33000 0.00191
 C202 C 0.40473 1.35780 0.00129
 C203 C 0.19621 1.19220 0.00398
 C204 C 0.16089 1.16013 0.00380
 H205 H 0.34894 1.25850 0.08246
 H206 H 0.27122 1.19539 0.08345
 H207 H 0.26973 1.19403 -0.07625
 H208 H 0.34742 1.25713 -0.07724
 H209 H 0.26167 1.36480 0.00257
 H210 H 0.18375 1.30154 0.00357
 C211 C 0.32021 0.70717 -0.00229
 C212 C 0.31562 0.74097 0.04814
 C213 C 0.27367 0.77465 0.04763
 C214 C 0.24036 0.77125 -0.00326
 C215 C 0.22453 0.71273 -0.00811
 C216 C 0.26659 0.67898 -0.00760
 C217 C 0.32159 0.74706 -0.04812
 C218 C 0.27963 0.78073 -0.04862
 C219 C 0.36598 0.67168 -0.00168
 C220 C 0.40480 0.64412 -0.00111
 C221 C 0.19580 0.80826 -0.00362
 C222 C 0.16046 0.84016 -0.00345
 H223 H 0.34289 0.73860 0.08139
 H224 H 0.26500 0.80113 0.08045
 H225 H 0.18394 0.69904 -0.01163
 H226 H 0.26206 0.63635 -0.01068
 H227 H 0.35275 0.74865 -0.07765
 H228 H 0.27484 0.81117 -0.07859
 C229 C -0.32119 0.70632 0.00187
 C230 C -0.32065 0.74404 0.04970
 C231 C -0.27868 0.77789 0.05019
 C232 C -0.24132 0.77074 0.00281
 C233 C -0.27668 0.77629 -0.04643
 C234 C -0.31864 0.74244 -0.04692
 C235 C -0.26742 0.67822 0.00353
 C236 C -0.22535 0.71214 0.00402
 C237 C -0.36697 0.67066 0.00128
 C238 C -0.40584 0.64298 0.00075
 C239 C -0.19675 0.80792 0.00317
 C240 C -0.16137 0.83993 0.00303
 H241 H -0.35058 0.74408 0.08053
 H242 H -0.27264 0.80694 0.08144
 H243 H -0.26935 0.80431 -0.07820
 H244 H -0.34725 0.74147 -0.07911
 H245 H -0.26281 0.63552 0.00425
 H246 H -0.18467 0.69853 0.00517
 C247 C -0.31944 1.29429 -0.00217
 C248 C -0.31665 1.25855 0.04690
 C249 C -0.27502 1.22448 0.04637
 C250 C -0.24020 1.22946 -0.00319
 C251 C -0.22370 1.28795 -0.00500
 C252 C -0.26544 1.32210 -0.00446
 C253 C -0.31983 1.25618 -0.04969
 C254 C -0.27818 1.22211 -0.05022
 C255 C -0.36489 1.33018 -0.00153
 C256 C -0.40353 1.35799 -0.00093
 C257 C -0.19596 1.19207 -0.00357
 C258 C -0.16081 1.15996 -0.00343
 H259 H -0.34487 1.25993 0.07929
 H260 H -0.26757 1.19669 0.07831
 H261 H -0.18291 1.30135 -0.00657
 H262 H -0.26044 1.36476 -0.00558
 H263 H -0.35012 1.25604 -0.08030
 H264 H -0.27279 1.19278 -0.08128
 C265 C 0.00220 1.29368 0.32213
 C266 C 0.00369 1.32175 0.26816
 C267 C 0.00423 1.28780 0.22598
 C268 C 0.00322 1.22920 0.24202
 C269 C -0.04580 1.22332 0.27736
 C270 C -0.04633 1.25720 0.31944
 C271 C 0.04997 1.25631 0.32175
 C272 C 0.05051 1.22242 0.27966
 C273 C 0.00154 1.32939 0.36805
 C274 C 0.00093 1.35708 0.40706
 C275 C 0.00360 1.19200 0.19729
 C276 C 0.00344 1.16001 0.16176
 H277 H 0.00429 1.36445 0.26351
 H278 H 0.00529 1.30139 0.18516
 H279 H -0.07738 1.19506 0.26994
 H280 H -0.07837 1.25795 0.34806
 H281 H 0.08074 1.25650 0.35187
 H282 H 0.08173 1.19359 0.27372
 C283 C -0.00232 1.29376 -0.32085
 C284 C -0.00397 1.32172 -0.26671
 C285 C -0.00448 1.28767 -0.22474
 C286 C -0.00328 1.22912 -0.24115
 C287 C 0.04580 1.22365 -0.27645
 C288 C 0.04631 1.25761 -0.31832
 C289 C -0.04999 1.25605 -0.32078
 C290 C -0.05049 1.22208 -0.27890
 C291 C -0.00170 1.32955 -0.36656
 C292 C -0.00113 1.35725 -0.40545
 C293 C -0.00364 1.19183 -0.19664
 C294 C -0.00349 1.15981 -0.16128
 H295 H -0.00468 1.36440 -0.26179
 H296 H -0.00563 1.30118 -0.18384
 H297 H 0.07745 1.19560 -0.26916
 H298 H 0.07838 1.25865 -0.34688
 H299 H -0.08072 1.25608 -0.35095
 H300 H -0.08165 1.19301 -0.27320
 C301 C 0.00170 0.70488 -0.32090
 C302 C -0.04690 0.74109 -0.31873
 C303 C -0.04640 0.77536 -0.27697
 C304 C 0.00265 0.77011 -0.24140
 C305 C 0.04990 0.77684 -0.27893
 C306 C 0.04940 0.74256 -0.32070
 C307 C 0.00328 0.67732 -0.26667
 C308 C 0.00378 0.71167 -0.22480
 C309 C 0.00109 0.66876 -0.36650
 C310 C 0.00054 0.64083 -0.40534
 C311 C 0.00301 0.80770 -0.19700
 C312 C 0.00287 0.83990 -0.16166
 H313 H -0.07896 0.73986 -0.34745
 H314 H -0.07803 0.80349 -0.26993
 H315 H 0.08107 0.80592 -0.27315
 H316 H 0.08015 0.74227 -0.35071
 H317 H 0.00396 0.63468 -0.26161
 H318 H 0.00489 0.69846 -0.18385
 C319 C -0.00262 0.70577 0.32039
 C320 C -0.00470 0.67800 0.26616
 C321 C -0.00520 0.71218 0.22431
 C322 C -0.00357 0.77068 0.24091
 C323 C 0.04572 0.77594 0.27621
 C324 C 0.04621 0.74184 0.31796
 C325 C -0.05006 0.74357 0.32047
 C326 C -0.05056 0.77768 0.27870
 C327 C -0.00201 0.66983 0.36598
 C328 C -0.00143 0.64199 0.40475
 C329 C -0.00391 0.80809 0.19652
 C330 C -0.00374 0.84018 0.16121
 H331 H -0.00570 0.63534 0.26110
 H332 H -0.00663 0.69881 0.18336
 H333 H 0.07750 0.80397 0.26899
 H334 H 0.07842 0.74065 0.34650
 H335 H -0.08065 0.74350 0.35065
 H336 H -0.08156 0.80682 0.27311
   
