data_POSCAR
  _audit_creation_date              2014-09-24
  _audit_creation_method            'ToBaCCo'
  _symmetry_space_group_name_H-M    'P1'
  _symmetry_Int_Tables_number       1
  _symmetry_cell_setting            triclinic
  loop_
  _symmetry_equiv_pos_as_xyz
 x,y,z
_cell_length_a 30.0439
_cell_length_b 27.4200
_cell_length_c 27.3648
_cell_angle_alpha 87.049800
_cell_angle_beta 88.910500
_cell_angle_gamma 87.840200
loop_
  _atom_site_label
  _atom_site_type_symbol
  _atom_site_fract_x
  _atom_site_fract_y
  _atom_site_fract_z
C1 C 0.13501 1.23434 0.18883
 C2 C 0.13076 1.27272 0.15303
 C3 C 0.16318 1.27888 0.11549
 C4 C 0.20061 1.24618 0.11499
 C5 C 0.20492 1.20727 0.14999
 C6 C 0.17196 1.20119 0.18689
 C7 C 0.10247 1.22811 0.22604
 C8 C 0.10590 1.18836 0.26083
 C9 C 0.14274 1.15526 0.25784
 C10 C 0.17572 1.16154 0.22150
 C11 C 0.21213 1.12823 0.21901
 C12 C 0.24503 1.13369 0.18204
 C13 C 0.24129 1.17365 0.14793
 H14 H 0.10188 1.29759 0.15432
 H15 H 0.22610 1.24958 0.08674
 H16 H 0.07427 1.25380 0.22692
 H17 H 0.14609 1.12439 0.28409
 H18 H 0.21432 1.09797 0.24590
 H19 H 0.26636 1.17821 0.11920
 C20 C 0.83868 0.73860 0.22355
 C21 C 0.83969 0.70076 0.19074
 C22 C 0.80434 0.69573 0.15841
 C23 C 0.76804 0.72987 0.15903
 C24 C 0.76745 0.76884 0.19016
 C25 C 0.80259 0.77301 0.22290
 C26 C 0.87342 0.74288 0.25658
 C27 C 0.87285 0.78160 0.28872
 C28 C 0.83683 0.81605 0.28698
 C29 C 0.80187 0.81202 0.25451
 C30 C 0.76646 0.84689 0.25275
 C31 C 0.73194 0.84354 0.21931
 C32 C 0.73258 0.80433 0.18831
 H33 H 0.86788 0.67485 0.19085
 H34 H 0.74090 0.72784 0.13389
 H35 H 0.90084 0.71616 0.25654
 H36 H 0.83575 0.84629 0.31107
 H37 H 0.76651 0.87732 0.27649
 H38 H 0.70586 0.80148 0.16263
 C39 C 0.81751 1.20986 -0.25045
 C40 C 0.84382 1.25120 -0.25484
 C41 C 0.83477 1.29102 -0.22540
 C42 C 0.79872 1.28963 -0.19205
 C43 C 0.77151 1.24913 -0.18810
 C44 C 0.78101 1.20897 -0.21725
 C45 C 0.82775 1.16901 -0.27796
 C46 C 0.80186 1.12713 -0.27329
 C47 C 0.76477 1.12726 -0.24078
 C48 C 0.75445 1.16765 -0.21260
 C49 C 0.71844 1.16693 -0.17908
 C50 C 0.70872 1.20679 -0.14979
 C51 C 0.73549 1.24787 -0.15474
 H52 H 0.87217 1.25167 -0.27991
 H53 H 0.79184 1.32024 -0.16914
 H54 H 0.85623 1.16991 -0.30290
 H55 H 0.74419 1.09579 -0.23618
 H56 H 0.69824 1.13497 -0.17539
 H57 H 0.72900 1.27879 -0.13233
 C58 C 0.21128 0.80178 -0.20662
 C59 C 0.18206 0.77102 -0.18002
 C60 C 0.19389 0.75008 -0.13375
 C61 C 0.23667 0.75768 -0.11602
 C62 C 0.26681 0.78625 -0.14319
 C63 C 0.25386 0.80941 -0.18809
 C64 C 0.19842 0.82566 -0.25103
 C65 C 0.22761 0.85671 -0.27725
 C66 C 0.27010 0.86385 -0.25856
 C67 C 0.28345 0.84041 -0.21423
 C68 C 0.32585 0.84753 -0.19543
 C69 C 0.33923 0.82277 -0.15173
 C70 C 0.30965 0.79236 -0.12577
 H71 H 0.14931 0.76541 -0.19428
 H72 H 0.24734 0.74043 -0.08151
 H73 H 0.16568 0.82003 -0.26527
 H74 H 0.29267 0.88819 -0.27801
 H75 H 0.34873 0.87143 -0.21511
 H76 H 0.31985 0.77415 -0.09144
 C77 C 0.54993 1.10452 0.02509
 H78 H 0.53982 1.10592 0.06316
 C79 C 0.57531 1.14160 0.00327
 H80 H 0.58430 1.17153 0.02491
 C81 C 0.55287 1.06184 -0.04812
 H82 H 0.54508 1.03000 -0.06754
 C83 C 0.57899 1.09768 -0.07110
 H84 H 0.59051 1.09352 -0.10845
 N85 N 0.53917 1.06573 -0.00076
 C86 C 0.43697 0.99518 0.08978
 H87 H 0.45099 0.95835 0.08823
 C88 C 0.39847 1.00398 0.11747
 H89 H 0.38287 0.97341 0.13654
 C90 C 0.44060 1.07925 0.06579
 H91 H 0.45710 1.10833 0.04535
 C92 C 0.40165 1.08970 0.09287
 H93 H 0.38856 1.12701 0.09342
 Zn94 Zn 0.51104 1.01313 0.03293
 N95 N 0.45779 1.03262 0.06561
 C96 C 0.54264 0.99074 0.12845
 N97 N 0.55171 0.98596 0.07997
 C98 C 0.59037 0.96384 0.06457
 C99 C 0.62073 0.94338 0.09858
 C100 C 0.57237 0.97157 0.16362
 C101 C 0.46414 0.98100 -0.04529
 C102 C 0.44574 0.94722 -0.07484
 C103 C 0.49146 0.88355 -0.03446
 C104 C 0.50873 0.91850 -0.00544
 N105 N 0.49464 0.96613 -0.01106
 H106 H 0.51254 1.00991 0.14007
 H107 H 0.59738 0.96166 0.02580
 H108 H 0.65109 0.92528 0.08576
 H109 H 0.56414 0.97529 0.20194
 H110 H 0.45294 1.01898 -0.04839
 H111 H 0.42053 0.95958 -0.10088
 H112 H 0.50218 0.84575 -0.02796
 H113 H 0.53184 0.90699 0.02296
 C114 C 0.38067 1.05186 0.11991
 C115 C 0.59067 1.13804 -0.04527
 C116 C 0.45881 0.89763 -0.06909
 C117 C 0.61186 0.94723 0.14879
 C118 C -0.05388 0.55341 1.03855
 H119 H -0.01943 0.55446 1.04913
 C120 C -0.08726 0.57432 1.06791
 H121 H -0.07818 0.59071 1.10131
 C122 C -0.10709 0.53443 0.98037
 H123 H -0.11470 0.52059 0.94536
 C124 C -0.14146 0.55453 1.00873
 H125 H -0.17493 0.55505 0.99491
 N126 N -0.06412 0.53511 0.99498
 C127 C 0.05710 0.45546 0.94872
 H128 H 0.05694 0.46660 0.91039
 C129 C 0.09067 0.42324 0.96627
 H130 H 0.11610 0.41058 0.94092
 C131 C 0.02214 0.45566 1.02695
 H132 H -0.00512 0.46747 1.05028
 C133 C 0.05500 0.42283 1.04605
 H134 H 0.05303 0.41026 1.08418
 Zn135 Zn -0.01846 0.51655 0.94951
 N136 N 0.02423 0.47198 0.97913
 C137 C 0.04377 0.57086 0.88982
 N138 N 0.01156 0.57362 0.92546
 C139 C 0.00476 0.61522 0.95012
 C140 C 0.03433 0.65310 0.94417
 C141 C 0.07353 0.60864 0.88177
 C142 C -0.06308 0.44050 0.91520
 C143 C -0.08235 0.41091 0.88228
 C144 C -0.06197 0.46842 0.81649
 C145 C -0.04368 0.49757 0.85101
 N146 N -0.04431 0.48287 0.89928
 H147 H 0.04810 0.53840 0.86933
 H148 H -0.02170 0.61810 0.97698
 H149 H 0.03071 0.68410 0.96711
 H150 H 0.10100 0.60446 0.85593
 H151 H -0.06294 0.42970 0.95378
 H152 H -0.09696 0.37721 0.89584
 H153 H -0.06113 0.48037 0.77818
 H154 H -0.02887 0.53160 0.83922
 C155 C 0.09018 0.40683 1.01566
 C156 C -0.13161 0.57622 1.05248
 C157 C -0.08151 0.42438 0.83220
 C158 C 0.07022 0.64895 0.91118
 C159 C 1.09315 -0.04593 0.51910
 H160 H 1.09468 -0.03772 0.48024
 C161 C 1.13214 -0.06087 0.54332
 H162 H 1.16289 -0.06390 0.52231
 C163 C 1.05125 -0.05348 0.59305
 H164 H 1.01953 -0.05107 0.61224
 C165 C 1.08949 -0.06909 0.61871
 H166 H 1.08693 -0.07800 0.65765
 N167 N 1.05370 -0.04200 0.54409
 C168 C 0.99378 0.07729 0.47031
 H169 H 0.97251 0.08455 0.50146
 C170 C 1.00212 0.11523 0.43555
 H171 H 0.98782 0.15139 0.44104
 C172 C 1.03719 0.02157 0.42431
 H173 H 1.04908 -0.01544 0.41877
 C174 C 1.04689 0.05842 0.38919
 H175 H 1.06731 0.04956 0.35759
 Zn176 Zn 1.00092 -0.02203 0.50969
 N177 N 1.01203 0.03162 0.46464
 C178 C 0.96170 0.03229 0.58516
 N179 N 0.95503 -0.00469 0.55513
 C180 C 0.91627 -0.02889 0.55713
 C181 C 0.88181 -0.01507 0.58911
 C182 C 0.92794 0.04768 0.61727
 C183 C 1.00470 -0.11787 0.47416
 C184 C 0.99264 -0.15419 0.44340
 C185 C 0.93545 -0.09863 0.40974
 C186 C 0.94878 -0.06338 0.44080
 N187 N 0.98284 -0.07347 0.47212
 H188 H 0.99314 0.05035 0.58359
 H189 H 0.91180 -0.05879 0.53374
 H190 H 0.85103 -0.03430 0.58928
 H191 H 0.93362 0.07770 0.64033
 H192 H 1.03182 -0.12499 0.49924
 H193 H 1.01054 -0.18917 0.44555
 H194 H 0.90845 -0.08965 0.38481
 H195 H 0.93232 -0.02756 0.43962
 C196 C 1.02936 0.10595 0.39459
 C197 C 1.13069 -0.07249 0.59386
 C198 C 0.95775 -0.14456 0.41036
 C199 C 0.88729 0.02404 0.61938
 C200 C 0.15693 0.31615 1.07854
 C201 C 0.18676 0.32746 1.04075
 C202 C 0.16618 0.36358 1.01267
 C203 C 0.12521 0.37198 1.03491
 O204 O 0.11974 0.34367 1.07505
 H205 H 0.21963 0.31174 1.03369
 H206 H 0.17972 0.38147 0.97982
 C207 C -0.19344 0.65839 1.12487
 C208 C -0.22816 0.64485 1.09653
 C209 C -0.21043 0.61018 1.06733
 C210 C -0.16600 0.60499 1.07939
 O211 O -0.15591 0.63371 1.11473
 H212 H -0.26246 0.65827 1.09655
 H213 H -0.22801 0.59215 1.03972
 C214 C -0.13597 0.33318 0.77311
 C215 C -0.11231 0.35094 0.73271
 C216 C -0.08951 0.38913 0.74863
 C217 C -0.10067 0.39147 0.79767
 O218 O -0.12891 0.35768 0.81235
 H219 H -0.11167 0.33764 0.69614
 H220 H -0.06650 0.41143 0.72736
 C221 C 0.16318 0.72277 0.89457
 C222 C 0.16544 0.71371 0.94478
 C223 C 0.12932 0.68727 0.95740
 C224 C 0.10792 0.68124 0.91423
 O225 O 0.12812 0.70277 0.87596
 H226 H 0.18968 0.72576 0.96981
 H227 H 0.12037 0.67260 0.99358
 C228 C 1.07357 0.18027 0.29803
 C229 C 1.03743 0.21088 0.30914
 C230 C 1.01595 0.18780 0.34775
 C231 C 1.04018 0.14471 0.35715
 O232 O 1.07491 0.14029 0.32724
 H233 H 1.02766 0.24589 0.29187
 H234 H 0.98582 0.20058 0.36606
 C235 C 1.21320 -0.11820 0.67614
 C236 C 1.24153 -0.09981 0.63998
 C237 C 1.21457 -0.08037 0.60401
 C238 C 1.17161 -0.08819 0.62068
 O239 O 1.17078 -0.11116 0.66444
 H240 H 1.27756 -0.10079 0.63940
 H241 H 1.22526 -0.06219 0.57003
 C242 C 0.90724 -0.21278 0.32209
 C243 C 0.94384 -0.24418 0.33032
 C244 C 0.96778 -0.22357 0.36529
 C245 C 0.94431 -0.18104 0.37589
 O246 O 0.90780 -0.17467 0.34983
 H247 H 0.95256 -0.27803 0.31330
 H248 H 0.99897 -0.23770 0.38037
 C249 C 0.81395 0.08616 0.69955
 C250 C 0.79072 0.04353 0.69828
 C251 C 0.81477 0.01440 0.66781
 C252 C 0.85110 0.04094 0.65268
 O253 O 0.85059 0.08428 0.67185
 H254 H 0.75992 0.03413 0.71686
 H255 H 0.80685 -0.02209 0.65849
 C256 C 0.28272 1.09744 0.17775
 C257 C 0.28829 1.05475 0.20651
 C258 C 0.32578 1.03202 0.18889
 C259 C 0.34062 1.06222 0.15055
 O260 O 0.31466 1.10200 0.14391
 H261 H 0.26765 1.04103 0.23654
 H262 H 0.34053 0.99762 0.20283
 C263 C 0.67163 1.20402 -0.11312
 C264 C 0.65768 1.24075 -0.08289
 C265 C 0.62486 1.22140 -0.05372
 C266 C 0.62088 1.17434 -0.06820
 O267 O 0.64901 1.16387 -0.10430
 H268 H 0.66989 1.27721 -0.08149
 H269 H 0.60622 1.23958 -0.02528
 C270 C 0.38367 0.82912 -0.13195
 C271 C 0.41288 0.79096 -0.11899
 C272 C 0.44668 0.81162 -0.09593
 C273 C 0.43526 0.86098 -0.09591
 O274 O 0.39704 0.87156 -0.11814
 H275 H 0.40912 0.75251 -0.12430
 H276 H 0.47523 0.79238 -0.07966
 C277 C 0.69565 0.88136 0.21526
 C278 C 0.68133 0.91110 0.25207
 C279 C 0.64749 0.93981 0.23245
 C280 C 0.64380 0.92569 0.18501
 O281 O 0.67296 0.89024 0.17463
 H282 H 0.69364 0.91156 0.28893
 H283 H 0.62834 0.96806 0.25051
   
