data_POSCAR
  _audit_creation_date              2014-09-24
  _audit_creation_method            'ToBaCCo'
  _symmetry_space_group_name_H-M    'P1'
  _symmetry_Int_Tables_number       1
  _symmetry_cell_setting            triclinic
  loop_
  _symmetry_equiv_pos_as_xyz
 x,y,z
_cell_length_a 15.8670
_cell_length_b 15.9759
_cell_length_c 15.5089
_cell_angle_alpha 90.127700
_cell_angle_beta 90.398100
_cell_angle_gamma 120.340900
loop_
  _atom_site_label
  _atom_site_type_symbol
  _atom_site_fract_x
  _atom_site_fract_y
  _atom_site_fract_z
O1 O 0.35597 0.51896 0.31286
 O2 O 0.19581 0.52314 0.33859
 C3 C 0.15300 0.56954 0.35710
 O4 O 0.16740 0.64487 0.31675
 O5 O 0.33225 0.80393 0.34601
 C6 C 0.42215 0.84639 0.36531
 O7 O 0.48360 0.83297 0.32436
 O8 O 0.47792 0.66792 0.34408
 C9 C 0.43145 0.57715 0.35623
 O10 O 0.33223 0.52928 0.14182
 O11 O 0.16784 0.52417 0.16659
 C12 C 0.15464 0.58560 0.12568
 O13 O 0.19855 0.67480 0.14552
 O14 O 0.36005 0.83753 0.17489
 C15 C 0.43589 0.85254 0.13440
 O16 O 0.48225 0.80933 0.15168
 O17 O 0.48396 0.64851 0.17165
 C18 C 0.42293 0.57572 0.12697
 Cr19 Cr 0.26569 0.52939 0.24023
 Cr20 Cr 0.26734 0.73752 0.24577
 Cr21 Cr 0.47634 0.73702 0.24787
 O22 O 0.33651 0.66806 0.24473
 O23 O 0.52205 0.35464 0.67777
 O24 O 0.52795 0.19619 0.65179
 C25 C 0.57472 0.15330 0.63502
 O26 O 0.65022 0.16817 0.67723
 O27 O 0.81030 0.33199 0.65004
 C28 C 0.85188 0.42081 0.63025
 O29 O 0.83792 0.48230 0.67039
 O30 O 0.67169 0.47601 0.64907
 C31 C 0.58038 0.42956 0.63556
 O32 O 0.53219 0.33232 0.84871
 O33 O 0.52777 0.16883 0.82349
 C34 C 0.58993 0.15759 0.86622
 O35 O 0.67998 0.20212 0.84901
 O36 O 0.84332 0.36164 0.82170
 C37 C 0.85906 0.43796 0.86158
 O38 O 0.81570 0.48379 0.84283
 O39 O 0.65245 0.48322 0.82149
 C40 C 0.57886 0.42250 0.86469
 Cr41 Cr 0.53307 0.26578 0.75031
 Cr42 Cr 0.74317 0.26870 0.74940
 Cr43 Cr 0.74174 0.47576 0.74601
 O44 O 0.67282 0.33690 0.74848
 C45 C 0.45545 -0.08428 0.43795
 C46 C 0.54855 -0.03551 0.46545
 C47 C 0.58350 0.03527 0.53765
 C48 C 0.53766 0.08194 0.56388
 H49 H 0.60180 -0.04971 0.43593
 H50 H 0.65217 0.05208 0.56770
 H51 H 0.40050 -0.07469 0.46993
 H52 H 0.47199 0.07003 0.53124
 C53 C 1.08260 0.53252 0.42835
 C54 C 1.03672 0.57844 0.45653
 C55 C 0.96735 0.54442 0.52921
 C56 C 0.92052 0.45279 0.55771
 H57 H 1.05310 0.64662 0.42760
 H58 H 0.95247 0.59724 0.55834
 H59 H 1.07113 0.46713 0.45949
 H60 H 0.93073 0.39801 0.52646
 C61 C 0.46625 0.53534 0.42237
 C62 C 0.55150 0.58828 0.46442
 C63 C 0.59134 0.54873 0.52871
 C64 C 0.53819 0.46382 0.56916
 H65 H 0.59726 0.66438 0.44909
 H66 H 0.66783 0.59447 0.54550
 H67 H 0.42185 0.45823 0.43334
 H68 H 0.46063 0.41942 0.55678
 C69 C 0.47389 -0.07593 1.06432
 C70 C 0.42856 -0.02913 1.03684
 C71 C 0.46403 0.04098 0.96496
 C72 C 0.55696 0.08849 0.93825
 H73 H 0.35979 -0.04554 1.06536
 H74 H 0.41115 0.05581 0.93490
 H75 H 0.53972 -0.06433 1.03322
 H76 H 0.61185 0.07866 0.97076
 C77 C 1.09098 0.55594 1.05943
 C78 C 1.04296 0.46027 1.02769
 C79 C 0.97318 0.42555 0.96108
 C80 C 0.92765 0.47478 0.92865
 H81 H 1.06288 0.40946 1.05328
 H82 H 0.95041 0.35358 0.93651
 H83 H 1.07951 0.60990 1.02814
 H84 H 0.94173 0.54208 0.95820
 C85 C 0.45788 0.54094 1.05545
 C86 C 0.55176 0.58558 1.03177
 C87 C 0.58768 0.55033 0.96073
 C88 C 0.54333 0.45708 0.93590
 H89 H 0.60448 0.65269 1.06322
 H90 H 0.65514 0.60295 0.93042
 H91 H 0.40364 0.47719 1.02088
 H92 H 0.47924 0.40303 0.96935
   
