data_POSCAR
  _audit_creation_date              2014-09-24
  _audit_creation_method            'ToBaCCo'
  _symmetry_space_group_name_H-M    'P1'
  _symmetry_Int_Tables_number       1
  _symmetry_cell_setting            triclinic
  loop_
  _symmetry_equiv_pos_as_xyz
 x,y,z
_cell_length_a 58.8166
_cell_length_b 58.0292
_cell_length_c 58.8578
_cell_angle_alpha 89.977400
_cell_angle_beta 89.990800
_cell_angle_gamma 90.015800
loop_
  _atom_site_label
  _atom_site_type_symbol
  _atom_site_fract_x
  _atom_site_fract_y
  _atom_site_fract_z
N1 N 0.59935 0.66164 0.61528
 N2 N 0.59080 0.65257 0.63386
 C3 C 0.57230 0.66472 0.64007
 C4 C 0.56907 0.68241 0.62456
 C5 C 0.58664 0.67985 0.60905
 H6 H 0.56206 0.66104 0.65487
 H7 H 0.58989 0.69031 0.59421
 Cu8 Cu 0.60464 0.62578 0.64816
 Cu9 Cu 0.62626 0.64917 0.60049
 Cu10 Cu 0.65066 0.60075 0.62486
 N11 N 0.61825 0.59824 0.66128
 N12 N 0.63621 0.58857 0.65210
 C13 C 0.64208 0.56995 0.66440
 C14 C 0.62695 0.56768 0.68241
 C15 C 0.61204 0.58608 0.67975
 H16 H 0.65633 0.55897 0.66036
 H17 H 0.59769 0.59039 0.69037
 N18 N 0.66281 0.61560 0.59730
 N19 N 0.65355 0.63405 0.58805
 C20 C 0.66571 0.64009 0.56960
 C21 C 0.68354 0.62470 0.56704
 C22 C 0.68110 0.60941 0.58496
 H23 H 0.66176 0.65455 0.55873
 H24 H 0.69198 0.59495 0.58889
 H25 H 0.62160 0.61572 0.61170
 H26 H 0.64050 0.63455 0.62918
 N27 N 0.90187 0.33821 0.11437
 N28 N 0.91071 0.34756 0.13266
 C29 C 0.92916 0.33538 0.13891
 C30 C 0.93215 0.31729 0.12370
 C31 C 0.91436 0.31979 0.10834
 H32 H 0.93956 0.33946 0.15348
 H33 H 0.91060 0.30908 0.09381
 Cu34 Cu 0.89718 0.37476 0.14649
 Cu35 Cu 0.87480 0.35057 0.09970
 Cu36 Cu 0.85035 0.39897 0.12412
 N37 N 0.88334 0.40195 0.16001
 N38 N 0.86501 0.41129 0.15119
 C39 C 0.85895 0.42969 0.16371
 C40 C 0.87432 0.43211 0.18140
 C41 C 0.88958 0.41414 0.17845
 H42 H 0.84451 0.44058 0.16003
 H43 H 0.90403 0.41011 0.18905
 N44 N 0.83806 0.38397 0.09670
 N45 N 0.84739 0.36559 0.08739
 C46 C 0.83517 0.35952 0.06898
 C47 C 0.81724 0.37479 0.06655
 C48 C 0.81966 0.39006 0.08448
 H49 H 0.83896 0.34491 0.05826
 H50 H 0.80893 0.40466 0.08826
 H51 H 0.87920 0.38420 0.11035
 H52 H 0.86101 0.36533 0.12852
 N53 N 0.40079 0.16203 -0.11517
 N54 N 0.40936 0.15295 -0.13373
 C55 C 0.42785 0.16511 -0.13995
 C56 C 0.43106 0.18283 -0.12448
 C57 C 0.41349 0.18027 -0.10898
 H58 H 0.43809 0.16142 -0.15475
 H59 H 0.41022 0.19074 -0.09416
 Cu60 Cu 0.39553 0.12612 -0.14797
 Cu61 Cu 0.37387 0.14955 -0.10037
 Cu62 Cu 0.34945 0.10111 -0.12469
 N63 N 0.38193 0.09858 -0.16105
 N64 N 0.36391 0.08893 -0.15191
 C65 C 0.35804 0.07033 -0.16422
 C66 C 0.37321 0.06809 -0.18211
 C67 C 0.38816 0.08638 -0.17949
 H68 H 0.34387 0.05917 -0.16026
 H69 H 0.40241 0.09062 -0.19029
 N70 N 0.33731 0.11597 -0.09715
 N71 N 0.34658 0.13442 -0.08791
 C72 C 0.33441 0.14046 -0.06947
 C73 C 0.31658 0.12507 -0.06690
 C74 C 0.31901 0.10978 -0.08481
 H75 H 0.33836 0.15492 -0.05861
 H76 H 0.30814 0.09532 -0.08873
 H77 H 0.37852 0.11609 -0.11152
 H78 H 0.35965 0.13491 -0.12905
 N79 N 0.09782 0.83848 0.38594
 N80 N 0.08864 0.84819 0.36800
 C81 C 0.07017 0.83601 0.36176
 C82 C 0.06752 0.81757 0.37663
 C83 C 0.08554 0.81983 0.39176
 H84 H 0.05955 0.84034 0.34743
 H85 H 0.08958 0.80883 0.40600
 Cu86 Cu 0.10172 0.87578 0.35446
 Cu87 Cu 0.12504 0.85067 0.40042
 Cu88 Cu 0.14937 0.89919 0.37613
 N89 N 0.11600 0.90262 0.34067
 N90 N 0.13457 0.91170 0.34924
 C91 C 0.14078 0.92995 0.33657
 C92 C 0.12528 0.93252 0.31901
 C93 C 0.10979 0.91480 0.32220
 H94 H 0.15561 0.94042 0.33985
 H95 H 0.09499 0.91112 0.31196
 N96 N 0.16182 0.88403 0.40338
 N97 N 0.15259 0.86554 0.41260
 C98 C 0.16493 0.85932 0.43087
 C99 C 0.18284 0.87464 0.43334
 C100 C 0.18026 0.89007 0.41556
 H101 H 0.16102 0.84483 0.44171
 H102 H 0.19112 0.90456 0.41164
 H103 H 0.12067 0.88449 0.39031
 H104 H 0.13821 0.86573 0.37140
 C105 C 0.11491 0.14447 0.11535
 C106 C 0.13441 0.13462 0.10567
 C107 C 0.14409 0.11528 0.11539
 C108 C 0.13437 0.10547 0.13490
 C109 C 0.11513 0.11516 0.14440
 C110 C 0.10536 0.13483 0.13459
 C111 C 0.10187 0.16325 0.10954
 N112 N 0.08463 0.16529 0.12481
 C113 C 0.08668 0.14792 0.14020
 C114 C 0.10947 0.10210 0.16309
 N115 N 0.12483 0.08471 0.16519
 C116 C 0.14013 0.08670 0.14797
 C117 C 0.16276 0.10954 0.10251
 N118 N 0.16466 0.12491 0.08516
 C119 C 0.14733 0.14031 0.08701
 H120 H 0.10495 0.17475 0.09539
 H121 H 0.07526 0.14478 0.15428
 H122 H 0.09538 0.10529 0.17448
 H123 H 0.15426 0.07517 0.14493
 H124 H 0.17394 0.09502 0.10541
 H125 H 0.14446 0.15482 0.07582
 C126 C 0.38467 0.85508 0.61547
 C127 C 0.36516 0.86486 0.60576
 C128 C 0.35542 0.88420 0.61542
 C129 C 0.36510 0.89406 0.63491
 C130 C 0.38435 0.88444 0.64446
 C131 C 0.39418 0.86477 0.63470
 C132 C 0.39776 0.83632 0.60972
 N133 N 0.41499 0.83435 0.62501
 C134 C 0.41288 0.85174 0.64035
 C135 C 0.38996 0.89755 0.66311
 N136 N 0.37456 0.91491 0.66515
 C137 C 0.35928 0.91285 0.64792
 C138 C 0.33675 0.88987 0.60251
 N139 N 0.33490 0.87447 0.58519
 C140 C 0.35227 0.85911 0.58710
 H141 H 0.39473 0.82478 0.59560
 H142 H 0.42428 0.85494 0.65443
 H143 H 0.40405 0.89443 0.67452
 H144 H 0.34512 0.92433 0.64484
 H145 H 0.32555 0.90437 0.60537
 H146 H 0.35518 0.84459 0.57594
 C147 C 0.88512 0.64428 0.38469
 C148 C 0.86562 0.63442 0.39437
 C149 C 0.85593 0.61509 0.38465
 C150 C 0.86563 0.60531 0.36513
 C151 C 0.88487 0.61501 0.35562
 C152 C 0.89466 0.63467 0.36543
 C153 C 0.89817 0.66306 0.39050
 N154 N 0.91540 0.66512 0.37522
 C155 C 0.91333 0.64778 0.35982
 C156 C 0.89051 0.60198 0.33692
 N157 N 0.87514 0.58460 0.33482
 C158 C 0.85985 0.58656 0.35205
 C159 C 0.83726 0.60933 0.39754
 N160 N 0.83538 0.62468 0.41490
 C161 C 0.85272 0.64008 0.41305
 H162 H 0.89510 0.67454 0.40466
 H163 H 0.92474 0.64466 0.34573
 H164 H 0.90460 0.60518 0.32552
 H165 H 0.84571 0.57503 0.35509
 H166 H 0.82608 0.59482 0.39464
 H167 H 0.85560 0.65457 0.42425
 C168 C 0.61549 0.35556 -0.11566
 C169 C 0.63502 0.36534 -0.10597
 C170 C 0.64477 0.38466 -0.11567
 C171 C 0.63510 0.39452 -0.13516
 C172 C 0.61583 0.38490 -0.14469
 C173 C 0.60598 0.36525 -0.13490
 C174 C 0.60238 0.33681 -0.10988
 N175 N 0.58514 0.33485 -0.12515
 C176 C 0.58727 0.35223 -0.14052
 C177 C 0.61023 0.39800 -0.16335
 N178 N 0.62565 0.41535 -0.16543
 C179 C 0.64093 0.41329 -0.14821
 C180 C 0.66345 0.39033 -0.10277
 N181 N 0.66529 0.37494 -0.08543
 C182 C 0.64791 0.35960 -0.08730
 H183 H 0.60540 0.32529 -0.09574
 H184 H 0.57586 0.35542 -0.15460
 H185 H 0.59612 0.39488 -0.17475
 H186 H 0.65511 0.42477 -0.14515
 H187 H 0.67468 0.40482 -0.10565
 H188 H 0.64498 0.34509 -0.07612
 C189 C -0.01636 0.26620 0.12407
 C190 C -0.01672 0.28322 0.14086
 C191 C -0.03367 0.30010 0.14077
 C192 C -0.05068 0.30027 0.12382
 C193 C -0.05002 0.28293 0.10700
 C194 C -0.03302 0.26610 0.10716
 C195 C 0.00110 0.24883 0.12421
 C196 C 0.01572 0.23427 0.12432
 C197 C 0.03315 0.21687 0.12445
 C198 C 0.04342 0.21007 0.10409
 C199 C 0.06034 0.19315 0.10418
 C200 C 0.06721 0.18277 0.12469
 C201 C 0.05675 0.18975 0.14507
 C202 C 0.03985 0.20669 0.14493
 H203 H -0.00387 0.28345 0.15405
 H204 H -0.03325 0.31289 0.15410
 H205 H -0.06254 0.28214 0.09359
 H206 H -0.03290 0.25297 0.09407
 H207 H 0.03831 0.21779 0.08812
 H208 H 0.06781 0.18797 0.08818
 H209 H 0.06184 0.18235 0.16116
 H210 H 0.03205 0.21187 0.16080
 C211 C 0.51642 0.73390 0.62463
 C212 C 0.53502 0.73605 0.60997
 C213 C 0.55213 0.71932 0.60991
 C214 C 0.55088 0.70017 0.62456
 C215 C 0.53205 0.69819 0.63923
 C216 C 0.51497 0.71494 0.63924
 C217 C 0.49885 0.75116 0.62469
 C218 C 0.48416 0.76564 0.62475
 C219 C 0.46664 0.78295 0.62482
 C220 C 0.45987 0.79312 0.64527
 C221 C 0.44290 0.81000 0.64536
 C222 C 0.43246 0.81692 0.62495
 C223 C 0.43940 0.80654 0.60448
 C224 C 0.45638 0.78969 0.60443
 H225 H 0.53633 0.75068 0.59861
 H226 H 0.56636 0.72159 0.59851
 H227 H 0.53034 0.68367 0.65062
 H228 H 0.50062 0.71309 0.65064
 H229 H 0.46766 0.78798 0.66117
 H230 H 0.43776 0.81739 0.66143
 H231 H 0.43194 0.81168 0.58845
 H232 H 0.46155 0.78197 0.58849
 C233 C 1.01626 0.76621 0.37602
 C234 C 1.01628 0.78359 0.35959
 C235 C 1.03317 0.80055 0.35974
 C236 C 1.05044 0.80045 0.37642
 C237 C 1.05014 0.78273 0.39289
 C238 C 1.03320 0.76582 0.39265
 C239 C 0.99884 0.74879 0.37584
 C240 C 0.98426 0.73419 0.37571
 C241 C 0.96686 0.71675 0.37558
 C242 C 0.95661 0.70990 0.39595
 C243 C 0.93970 0.69296 0.39585
 C244 C 0.93283 0.68261 0.37534
 C245 C 0.94326 0.68964 0.35496
 C246 C 0.96015 0.70660 0.35510
 H247 H 1.00321 0.78406 0.34662
 H248 H 1.03248 0.81364 0.34670
 H249 H 1.06287 0.78171 0.40608
 H250 H 1.03334 0.75242 0.40548
 H251 H 0.96173 0.71760 0.41191
 H252 H 0.93226 0.68774 0.41185
 H253 H 0.93816 0.68226 0.33887
 H254 H 0.96793 0.71182 0.33922
 C255 C 0.48368 0.23437 -0.12462
 C256 C 0.46508 0.23651 -0.10997
 C257 C 0.44798 0.21977 -0.10990
 C258 C 0.44924 0.20060 -0.12451
 C259 C 0.46807 0.19864 -0.13918
 C260 C 0.48514 0.21541 -0.13921
 C261 C 0.50124 0.25165 -0.12470
 C262 C 0.51593 0.26614 -0.12478
 C263 C 0.53345 0.28345 -0.12488
 C264 C 0.54022 0.29363 -0.14534
 C265 C 0.55719 0.31050 -0.14546
 C266 C 0.56765 0.31742 -0.12506
 C267 C 0.56072 0.30705 -0.10457
 C268 C 0.54373 0.29020 -0.10450
 H269 H 0.46375 0.25116 -0.09863
 H270 H 0.43374 0.22203 -0.09850
 H271 H 0.46979 0.18412 -0.15054
 H272 H 0.49950 0.21357 -0.15060
 H273 H 0.53241 0.28848 -0.16123
 H274 H 0.56233 0.31789 -0.16154
 H275 H 0.56819 0.31219 -0.08856
 H276 H 0.53857 0.28248 -0.08855
 C277 C 0.12520 -0.01589 0.26646
 C278 C 0.11061 -0.03487 0.26497
 C279 C 0.11062 -0.05165 0.28203
 C280 C 0.12527 -0.04968 0.30086
 C281 C 0.13989 -0.03051 0.30215
 C282 C 0.13983 -0.01375 0.28507
 C283 C 0.12513 0.00140 0.24893
 C284 C 0.12508 0.01590 0.23426
 C285 C 0.12501 0.03324 0.21677
 C286 C 0.10455 0.04343 0.21001
 C287 C 0.10446 0.06032 0.19307
 C288 C 0.12489 0.06726 0.18264
 C289 C 0.14538 0.05687 0.18955
 C290 C 0.14542 0.03999 0.20651
 H291 H 0.09923 -0.03671 0.25061
 H292 H 0.09925 -0.06618 0.28029
 H293 H 0.15128 -0.02824 0.31639
 H294 H 0.15117 0.00090 0.28641
 H295 H 0.08864 0.03828 0.21779
 H296 H 0.08839 0.06773 0.18794
 H297 H 0.16141 0.06202 0.18211
 H298 H 0.16137 0.03226 0.21167
 C299 C 0.62643 0.51638 -0.26629
 C300 C 0.64307 0.51600 -0.28323
 C301 C 0.64327 0.53290 -0.30017
 C302 C 0.62677 0.55057 -0.30049
 C303 C 0.61009 0.55067 -0.28322
 C304 C 0.60997 0.53373 -0.26632
 C305 C 0.62628 0.49897 -0.24887
 C306 C 0.62615 0.48438 -0.23428
 C307 C 0.62602 0.46696 -0.21688
 C308 C 0.64640 0.46012 -0.20664
 C309 C 0.64630 0.44319 -0.18973
 C310 C 0.62577 0.43284 -0.18285
 C311 C 0.60538 0.43985 -0.19327
 C312 C 0.60552 0.45680 -0.21016
 H313 H 0.65592 0.50263 -0.28337
 H314 H 0.65647 0.53189 -0.31291
 H315 H 0.59702 0.56372 -0.28253
 H316 H 0.59699 0.53418 -0.25325
 H317 H 0.66238 0.46783 -0.21176
 H318 H 0.66231 0.43798 -0.18229
 H319 H 0.58927 0.43248 -0.18816
 H320 H 0.58964 0.46202 -0.21793
 C321 C 0.37375 1.01599 0.76588
 C322 C 0.39235 1.03079 0.76842
 C323 C 0.39220 1.04773 0.78530
 C324 C 0.37340 1.05010 0.79994
 C325 C 0.35479 1.03509 0.79722
 C326 C 0.35498 1.01818 0.78031
 C327 C 0.37392 0.99857 0.74848
 C328 C 0.37405 0.98398 0.73392
 C329 C 0.37418 0.96655 0.71653
 C330 C 0.39468 0.95637 0.70984
 C331 C 0.39483 0.93941 0.69298
 C332 C 0.37443 0.93240 0.68254
 C333 C 0.35391 0.94277 0.68940
 C334 C 0.35381 0.95971 0.70628
 H335 H 0.40700 1.02922 0.75736
 H336 H 0.40692 1.05878 0.78693
 H337 H 0.33994 1.03644 0.80798
 H338 H 0.34047 1.00683 0.77847
 H339 H 0.41056 0.96159 0.71763
 H340 H 0.41093 0.93203 0.68790
 H341 H 0.33790 0.93757 0.68195
 H342 H 0.33783 0.96743 0.71138
 C343 C 0.87462 0.48390 0.23371
 C344 C 0.85568 0.48141 0.21955
 C345 C 0.85556 0.46459 0.20255
 C346 C 0.87442 0.44998 0.19947
 C347 C 0.89338 0.45264 0.21384
 C348 C 0.89345 0.46949 0.23082
 C349 C 0.87472 0.50124 0.25118
 C350 C 0.87480 0.51578 0.26581
 C351 C 0.87489 0.53314 0.28326
 C352 C 0.85450 0.53989 0.29353
 C353 C 0.85456 0.55677 0.31047
 C354 C 0.87506 0.56716 0.31737
 C355 C 0.89547 0.56024 0.30691
 C356 C 0.89537 0.54334 0.28999
 H357 H 0.84098 0.49246 0.22167
 H358 H 0.84059 0.46300 0.19200
 H359 H 0.90828 0.44190 0.21194
 H360 H 0.90823 0.47130 0.24167
 H361 H 0.83854 0.53215 0.28839
 H362 H 0.83853 0.56191 0.31793
 H363 H 0.91155 0.56764 0.31203
 H364 H 0.91126 0.53819 0.28219
 C365 C 0.26498 0.12493 -0.01505
 C366 C 0.26753 0.10588 -0.02937
 C367 C 0.28429 0.10589 -0.04622
 C368 C 0.29878 0.12501 -0.04899
 C369 C 0.29606 0.14408 -0.03445
 C370 C 0.27928 0.14402 -0.01762
 C371 C 0.24769 0.12490 0.00225
 C372 C 0.23320 0.12489 0.01674
 C373 C 0.21589 0.12488 0.03402
 C374 C 0.22050 0.11569 0.05551
 C375 C 0.20369 0.11568 0.07231
 C376 C 0.18201 0.12489 0.06784
 C377 C 0.17757 0.13410 0.04615
 C378 C 0.19440 0.13407 0.02938
 H379 H 0.25657 0.09098 -0.02751
 H380 H 0.28593 0.09083 -0.05690
 H381 H 0.30671 0.15918 -0.03611
 H382 H 0.27742 0.15889 -0.00665
 H383 H 0.23711 0.10860 0.05931
 H384 H 0.20777 0.10876 0.08888
 H385 H 0.16099 0.14102 0.04205
 H386 H 0.19062 0.14117 0.01277
 C387 C 0.73512 0.62458 0.51517
 C388 C 0.72083 0.64366 0.51774
 C389 C 0.70405 0.64372 0.53457
 C390 C 0.70133 0.62465 0.54912
 C391 C 0.71581 0.60553 0.54636
 C392 C 0.73257 0.60552 0.52951
 C393 C 0.75240 0.62456 0.49786
 C394 C 0.76689 0.62456 0.48337
 C395 C 0.78419 0.62457 0.46608
 C396 C 0.80569 0.63375 0.47071
 C397 C 0.82251 0.63380 0.45392
 C398 C 0.81804 0.62463 0.43224
 C399 C 0.79635 0.61543 0.42777
 C400 C 0.77956 0.61542 0.44458
 H401 H 0.72269 0.65853 0.50675
 H402 H 0.69341 0.65882 0.53623
 H403 H 0.71417 0.59046 0.55705
 H404 H 0.74352 0.59063 0.52764
 H405 H 0.80948 0.64083 0.48732
 H406 H 0.83909 0.64072 0.45802
 H407 H 0.79226 0.60853 0.41120
 H408 H 0.76294 0.60832 0.44080
 C409 C 0.76553 0.37481 0.01482
 C410 C 0.78479 0.36088 0.01244
 C411 C 0.80160 0.36086 0.02924
 C412 C 0.79939 0.37480 0.04869
 C413 C 0.77992 0.38875 0.05088
 C414 C 0.76314 0.38873 0.03406
 C415 C 0.74824 0.37481 -0.00247
 C416 C 0.73375 0.37482 -0.01696
 C417 C 0.71646 0.37485 -0.03425
 C418 C 0.69493 0.36572 -0.02962
 C419 C 0.67812 0.36573 -0.04641
 C420 C 0.68262 0.37491 -0.06810
 C421 C 0.70433 0.38406 -0.07256
 C422 C 0.72112 0.38401 -0.05575
 H423 H 0.78684 0.35006 -0.00242
 H424 H 0.81637 0.35004 0.02680
 H425 H 0.77747 0.39957 0.06563
 H426 H 0.74827 0.39955 0.03610
 H427 H 0.69112 0.35865 -0.01301
 H428 H 0.66152 0.35885 -0.04232
 H429 H 0.70846 0.39096 -0.08913
 H430 H 0.73776 0.39106 -0.05953
 C431 C 0.23469 0.87447 0.48491
 C432 C 0.22040 0.85539 0.48231
 C433 C 0.20355 0.85542 0.46555
 C434 C 0.20075 0.87457 0.45113
 C435 C 0.21527 0.89367 0.45390
 C436 C 0.23209 0.89360 0.47068
 C437 C 0.25200 0.87444 0.50219
 C438 C 0.26648 0.87442 0.51668
 C439 C 0.28376 0.87441 0.53399
 C440 C 0.30527 0.86524 0.52939
 C441 C 0.32207 0.86523 0.54619
 C442 C 0.31758 0.87444 0.56785
 C443 C 0.29588 0.88362 0.57229
 C444 C 0.27910 0.88359 0.55547
 H445 H 0.22229 0.84047 0.49322
 H446 H 0.19289 0.84033 0.46387
 H447 H 0.21358 0.90880 0.44331
 H448 H 0.24305 0.90849 0.47258
 H449 H 0.30908 0.85815 0.51279
 H450 H 0.33866 0.85833 0.54211
 H451 H 0.29176 0.89054 0.58885
 H452 H 0.26248 0.89068 0.55924
   
