data_POSCAR
  _audit_creation_date              2014-09-24
  _audit_creation_method            'ToBaCCo'
  _symmetry_space_group_name_H-M    'P1'
  _symmetry_Int_Tables_number       1
  _symmetry_cell_setting            triclinic
  loop_
  _symmetry_equiv_pos_as_xyz
 x,y,z
_cell_length_a 44.7413
_cell_length_b 41.9874
_cell_length_c 40.1283
_cell_angle_alpha 83.522500
_cell_angle_beta 94.305000
_cell_angle_gamma 93.325000
loop_
  _atom_site_label
  _atom_site_type_symbol
  _atom_site_fract_x
  _atom_site_fract_y
  _atom_site_fract_z
C1 C 0.22176 0.27887 0.27805
 C2 C 0.24600 0.29658 0.25675
 C3 C 0.26175 0.27696 0.24055
 C4 C 0.25237 0.24122 0.24754
 C5 C 0.20267 0.25889 0.25387
 C6 C 0.21852 0.23915 0.23797
 C7 C 0.23942 0.25423 0.30189
 C8 C 0.25524 0.23436 0.28606
 H9 H 0.25032 0.32235 0.25461
 H10 H 0.26537 0.22545 0.23429
 H11 H 0.17846 0.25966 0.25060
 H12 H 0.24195 0.25451 0.32886
 C13 C 0.72227 0.78823 0.27200
 C14 C 0.74615 0.80658 0.25072
 C15 C 0.76145 0.78780 0.23300
 C16 C 0.75148 0.75197 0.23834
 C17 C 0.70237 0.76977 0.24732
 C18 C 0.71730 0.75043 0.22991
 C19 C 0.73996 0.76243 0.29415
 C20 C 0.75504 0.74337 0.27660
 H21 H 0.75110 0.83212 0.25045
 H22 H 0.76396 0.73626 0.22447
 H23 H 0.67827 0.77177 0.24440
 H24 H 0.74201 0.76062 0.32133
 C25 C 0.71982 0.28244 0.77194
 C26 C 0.74114 0.30119 0.75129
 C27 C 0.75863 0.28290 0.73247
 C28 C 0.75093 0.24841 0.73801
 C29 C 0.70068 0.26231 0.74785
 C30 C 0.71680 0.24446 0.73002
 C31 C 0.73843 0.25729 0.79405
 C32 C 0.75487 0.23965 0.77632
 H33 H 0.74193 0.32715 0.74880
 H34 H 0.76375 0.23270 0.72462
 H35 H 0.67638 0.26136 0.74609
 H36 H 0.73788 0.25264 0.82103
 C37 C 0.21920 0.77098 0.78135
 C38 C 0.24339 0.78982 0.76092
 C39 C 0.26000 0.77140 0.74421
 C40 C 0.25099 0.73539 0.74971
 C41 C 0.20078 0.75167 0.75610
 C42 C 0.21722 0.73302 0.73957
 C43 C 0.23690 0.74580 0.80456
 C44 C 0.25339 0.72716 0.78803
 H45 H 0.24665 0.81568 0.75957
 H46 H 0.26439 0.72013 0.73633
 H47 H 0.17654 0.75191 0.75266
 H48 H 0.23893 0.74454 0.83165
 C49 C 0.06525 0.02930 0.01330
 H50 H 0.07584 0.01146 0.00148
 C51 C 0.08307 0.05128 0.03081
 H52 H 0.10726 0.05049 0.03171
 C53 C 0.02107 0.05187 0.02700
 H54 H -0.00307 0.05169 0.02615
 C55 C 0.03795 0.07423 0.04466
 H56 H 0.02646 0.09099 0.05718
 N57 N 0.03478 0.03012 0.01146
 C58 C 0.03043 -0.05873 -0.02514
 H59 H 0.01475 -0.06873 -0.00709
 C60 C 0.04769 -0.07928 -0.03978
 H61 H 0.04473 -0.10492 -0.03312
 C62 C 0.05314 -0.01340 -0.05588
 H63 H 0.05543 0.01238 -0.06166
 C64 C 0.07090 -0.03311 -0.07115
 H65 H 0.08686 -0.02227 -0.08858
 Zn66 Zn 0.00978 0.00040 -0.01187
 N67 N 0.03337 -0.02643 -0.03334
 C68 C -0.01384 0.02643 -0.07722
 N69 N -0.01717 0.02331 -0.04354
 C70 C -0.04047 0.03636 -0.03095
 C71 C -0.06087 0.05424 -0.05218
 C72 C -0.03384 0.04415 -0.09946
 C73 C -0.00503 -0.02685 0.05284
 C74 C -0.02267 -0.04473 0.07620
 C75 C -0.05700 -0.05939 0.03038
 C76 C -0.03862 -0.04134 0.00789
 N77 N -0.01338 -0.02528 0.01944
 H78 H 0.00431 0.01534 -0.08700
 H79 H -0.04343 0.03268 -0.00431
 H80 H -0.07871 0.06506 -0.04132
 H81 H -0.03083 0.04638 -0.12615
 H82 H 0.01532 -0.01417 0.06140
 H83 H -0.01556 -0.04579 0.10267
 H84 H -0.07745 -0.07121 0.02071
 H85 H -0.04472 -0.03966 -0.01883
 C86 C 0.06836 -0.06655 -0.06303
 C87 C 0.06939 0.07426 0.04665
 C88 C -0.04923 -0.06106 0.06510
 C89 C -0.05766 0.05852 -0.08695
 C90 C 0.06140 0.52544 0.51458
 H91 H 0.07158 0.50691 0.50339
 C92 C 0.07965 0.54706 0.53212
 H93 H 0.10377 0.54529 0.53359
 C94 C 0.01781 0.55015 0.52669
 H95 H -0.00627 0.55102 0.52514
 C96 C 0.03514 0.57213 0.54442
 H97 H 0.02402 0.58962 0.55633
 N98 N 0.03103 0.52751 0.51189
 C99 C 0.02611 0.43954 0.47289
 H100 H 0.01018 0.42896 0.49039
 C101 C 0.04353 0.41963 0.45759
 H102 H 0.04036 0.39387 0.46315
 C103 C 0.04934 0.48575 0.44425
 H104 H 0.05173 0.51162 0.43952
 C105 C 0.06738 0.46672 0.42852
 H106 H 0.08371 0.47823 0.41189
 Zn107 Zn 0.00569 0.49840 0.48806
 N108 N 0.02921 0.47198 0.46602
 C109 C -0.01749 0.52540 0.42294
 N110 N -0.02088 0.52199 0.45661
 C111 C -0.04404 0.53514 0.46932
 C112 C -0.06414 0.55359 0.44828
 C113 C -0.03724 0.54360 0.40086
 C114 C -0.01185 0.47299 0.55244
 C115 C -0.03059 0.45585 0.57516
 C116 C -0.06139 0.43759 0.52827
 C117 C -0.04211 0.45518 0.50643
 N118 N -0.01806 0.47262 0.51879
 H119 H 0.00050 0.51415 0.41303
 H120 H -0.04709 0.53116 0.49595
 H121 H -0.08179 0.56456 0.45929
 H122 H -0.03419 0.54602 0.37417
 H123 H 0.00749 0.48683 0.56172
 H124 H -0.02537 0.45652 0.60186
 H125 H -0.08087 0.42454 0.51797
 H126 H -0.04661 0.45548 0.47954
 C127 C 0.06467 0.43314 0.43520
 C128 C 0.06652 0.57093 0.54718
 C129 C -0.05594 0.43813 0.56314
 C130 C -0.06084 0.55822 0.41352
 C131 C 0.56166 0.01773 0.52580
 H132 H 0.57278 0.00151 0.51233
 C133 C 0.57876 0.03839 0.54560
 H134 H 0.60298 0.03753 0.54757
 C135 C 0.51666 0.03817 0.54029
 H136 H 0.49240 0.03777 0.53816
 C137 C 0.53281 0.05915 0.56028
 H138 H 0.52079 0.07516 0.57320
 N139 N 0.53116 0.01749 0.52419
 C140 C 0.52646 -0.03432 0.44236
 H141 H 0.51062 -0.01851 0.42846
 C142 C 0.54361 -0.05287 0.42505
 H143 H 0.54072 -0.05116 0.39789
 C144 C 0.54865 -0.05675 0.49459
 H145 H 0.55035 -0.05812 0.52175
 C146 C 0.56621 -0.07577 0.47832
 H147 H 0.58171 -0.09147 0.49314
 Zn148 Zn 0.50638 -0.01163 0.50043
 N149 N 0.52953 -0.03630 0.47649
 C150 C 0.49136 0.03697 0.44900
 N151 N 0.47947 0.01319 0.47072
 C152 C 0.44927 0.00859 0.47250
 C153 C 0.42977 0.02793 0.45157
 C154 C 0.47263 0.05713 0.42781
 C155 C 0.49051 -0.03806 0.56502
 C156 C 0.47344 -0.05688 0.58818
 C157 C 0.44643 -0.08105 0.54227
 C158 C 0.46445 -0.06211 0.51998
 N159 N 0.48507 -0.04014 0.53152
 H160 H 0.51547 0.04057 0.44855
 H161 H 0.44009 -0.00971 0.49045
 H162 H 0.40582 0.02341 0.45316
 H163 H 0.48259 0.07636 0.41129
 H164 H 0.50787 -0.02152 0.57393
 H165 H 0.47806 -0.05455 0.61469
 H166 H 0.42892 -0.09692 0.53228
 H167 H 0.46108 -0.06391 0.49326
 C168 C 0.56389 -0.07386 0.44306
 C169 C 0.56427 0.05903 0.56367
 C170 C 0.45033 -0.07800 0.57689
 C171 C 0.44133 0.05284 0.42904
 C172 C 0.54981 0.54287 0.01393
 H173 H 0.55144 0.54514 -0.01301
 C174 C 0.56538 0.56506 0.03313
 H175 H 0.57883 0.58449 0.02073
 C176 C 0.52920 0.51554 0.06251
 H177 H 0.51455 0.49678 0.07390
 C178 C 0.54438 0.53710 0.08264
 H179 H 0.54182 0.53398 0.10944
 N180 N 0.53244 0.51848 0.02885
 C181 C 0.52579 0.44684 -0.04277
 H182 H 0.50168 0.44313 -0.04627
 C183 C 0.54448 0.42972 -0.05982
 H184 H 0.53457 0.41270 -0.07633
 C185 C 0.56795 0.47282 -0.01609
 H186 H 0.57704 0.48928 0.00133
 C187 C 0.58745 0.45612 -0.03251
 H188 H 0.61144 0.46043 -0.02803
 Zn189 Zn 0.51102 0.49011 0.00091
 N190 N 0.53773 0.46820 -0.02174
 C191 C 0.48639 0.51649 -0.06374
 N192 N 0.48564 0.51553 -0.02980
 C193 C 0.46665 0.53357 -0.01591
 C194 C 0.44668 0.55278 -0.03626
 C195 C 0.46674 0.53547 -0.08511
 C196 C 0.50148 0.43993 0.05238
 C197 C 0.48464 0.41905 0.07420
 C198 C 0.43961 0.43537 0.04121
 C199 C 0.45724 0.45637 0.02042
 N200 N 0.48752 0.45899 0.02693
 H201 H 0.50208 0.50252 -0.07432
 H202 H 0.46691 0.53276 0.01116
 H203 H 0.43180 0.56699 -0.02463
 H204 H 0.46718 0.53549 -0.11206
 H205 H 0.52566 0.44195 0.05654
 H206 H 0.49592 0.40495 0.09519
 H207 H 0.41544 0.43440 0.03642
 H208 H 0.44660 0.47096 -0.00052
 C209 C 0.57577 0.43431 -0.05481
 C210 C 0.56275 0.56232 0.06802
 C211 C 0.45326 0.41706 0.06899
 C212 C 0.44632 0.55368 -0.07137
 C213 C 0.16914 -0.16053 -0.20797
 C214 C 0.16312 -0.16543 -0.17358
 C215 C 0.17521 -0.19253 -0.15404
 C216 C 0.19290 -0.21327 -0.16835
 C217 C 0.19966 -0.20741 -0.20220
 C218 C 0.18688 -0.18121 -0.22185
 C219 C 0.16962 -0.19900 -0.12020
 C220 C 0.15257 -0.17899 -0.10496
 C221 C 0.14025 -0.15142 -0.12304
 C222 C 0.14545 -0.14461 -0.15799
 C223 C 0.13285 -0.11721 -0.17614
 C224 C 0.11572 -0.09723 -0.16087
 C225 C 0.11055 -0.10344 -0.12689
 C226 C 0.12281 -0.13049 -0.10735
 C227 C 0.11708 -0.13535 -0.07285
 C228 C 0.09967 -0.11455 -0.05875
 C229 C 0.08733 -0.08813 -0.07829
 C230 C 0.09304 -0.08265 -0.11238
 H231 H 0.16053 -0.14101 -0.22501
 H232 H 0.20084 -0.23413 -0.15276
 H233 H 0.19076 -0.17658 -0.24832
 H234 H 0.17866 -0.21980 -0.10516
 H235 H 0.14943 -0.18603 -0.07879
 H236 H 0.13575 -0.11037 -0.20240
 H237 H 0.10646 -0.07655 -0.17592
 H238 H 0.12575 -0.15485 -0.05585
 H239 H 0.09613 -0.11903 -0.03218
 H240 H 0.08341 -0.06242 -0.12783
 C241 C 0.17416 0.34900 0.29067
 C242 C 0.16492 0.34118 0.32373
 C243 C 0.17460 0.31212 0.34162
 C244 C 0.19266 0.29209 0.32693
 C245 C 0.20261 0.30072 0.29461
 C246 C 0.19239 0.32901 0.27645
 C247 C 0.16609 0.30292 0.37414
 C248 C 0.14856 0.32214 0.38977
 C249 C 0.13852 0.35151 0.37334
 C250 C 0.14632 0.36091 0.33952
 C251 C 0.13507 0.38955 0.32259
 C252 C 0.11695 0.40840 0.33804
 C253 C 0.10967 0.39992 0.37115
 C254 C 0.12059 0.37159 0.38948
 C255 C 0.11324 0.36473 0.42336
 C256 C 0.09534 0.38473 0.43791
 C257 C 0.08403 0.41227 0.41944
 C258 C 0.09146 0.41976 0.38602
 H259 H 0.16777 0.37038 0.27499
 H260 H 0.19836 0.26942 0.34082
 H261 H 0.19839 0.33573 0.25088
 H262 H 0.17321 0.28057 0.38783
 H263 H 0.14294 0.31290 0.41476
 H264 H 0.13958 0.39807 0.29707
 H265 H 0.10870 0.43005 0.32391
 H266 H 0.12126 0.34439 0.43961
 H267 H 0.09070 0.37875 0.46404
 H268 H 0.08275 0.44091 0.37134
 C269 C 0.67907 -0.14145 0.29381
 C270 C 0.66714 -0.15353 0.32470
 C271 C 0.67295 -0.18559 0.33749
 C272 C 0.69077 -0.20406 0.32054
 C273 C 0.70385 -0.19116 0.29090
 C274 C 0.69676 -0.16004 0.27721
 C275 C 0.66081 -0.19928 0.36707
 C276 C 0.64298 -0.18189 0.38448
 C277 C 0.63667 -0.14975 0.37311
 C278 C 0.64924 -0.13521 0.34291
 C279 C 0.64376 -0.10275 0.33211
 C280 C 0.62624 -0.08522 0.34972
 C281 C 0.61342 -0.09915 0.37879
 C282 C 0.61836 -0.13158 0.39102
 C283 C 0.60466 -0.14438 0.42070
 C284 C 0.58714 -0.12567 0.43738
 C285 C 0.58249 -0.09366 0.42517
 C286 C 0.59572 -0.08059 0.39580
 H287 H 0.67474 -0.11795 0.28132
 H288 H 0.69402 -0.22880 0.33038
 H289 H 0.70445 -0.14998 0.25315
 H290 H 0.66512 -0.22383 0.37693
 H291 H 0.63469 -0.19445 0.40708
 H292 H 0.65302 -0.08987 0.31021
 H293 H 0.62269 -0.06037 0.34041
 H294 H 0.60677 -0.16880 0.43169
 H295 H 0.57680 -0.13652 0.45975
 H296 H 0.59258 -0.05570 0.38635
 C297 C 0.65980 0.33908 -0.21158
 C298 C 0.66477 0.34216 -0.17682
 C299 C 0.68968 0.32693 -0.15933
 C300 C 0.70772 0.30819 -0.17576
 C301 C 0.70125 0.30353 -0.20974
 C302 C 0.67782 0.32036 -0.22759
 C303 C 0.69654 0.33036 -0.12543
 C304 C 0.67900 0.34822 -0.10817
 C305 C 0.65347 0.36326 -0.12410
 C306 C 0.64611 0.36000 -0.15897
 C307 C 0.62005 0.37416 -0.17466
 C308 C 0.60191 0.39109 -0.15715
 C309 C 0.60888 0.39476 -0.12333
 C310 C 0.63483 0.38115 -0.10626
 C311 C 0.64089 0.38603 -0.07198
 C312 C 0.62183 0.40327 -0.05555
 C313 C 0.59609 0.41627 -0.07252
 C314 C 0.58983 0.41196 -0.10648
 H315 H 0.64238 0.35101 -0.22735
 H316 H 0.72699 0.29766 -0.16181
 H317 H 0.67326 0.31893 -0.25428
 H318 H 0.71568 0.31894 -0.11195
 H319 H 0.68594 0.34933 -0.08205
 H320 H 0.61263 0.37218 -0.20051
 H321 H 0.58205 0.40137 -0.17028
 H322 H 0.66014 0.37693 -0.05699
 H323 H 0.62707 0.40603 -0.02921
 H324 H 0.57021 0.42238 -0.12000
 C325 C -0.21799 0.16917 -0.16430
 C326 C -0.18897 0.16539 -0.17477
 C327 C -0.17906 0.18663 -0.20224
 C328 C -0.19778 0.21017 -0.21862
 C329 C -0.22618 0.21375 -0.20751
 C330 C -0.23611 0.19299 -0.18038
 C331 C -0.15033 0.18469 -0.21287
 C332 C -0.13066 0.16290 -0.19611
 C333 C -0.13917 0.14162 -0.16822
 C334 C -0.16924 0.14195 -0.15833
 C335 C -0.17858 0.11885 -0.13234
 C336 C -0.15888 0.09736 -0.11528
 C337 C -0.12901 0.09815 -0.12307
 C338 C -0.11863 0.12007 -0.14974
 C339 C -0.08788 0.12002 -0.15607
 C340 C -0.06842 0.09958 -0.13630
 C341 C -0.07881 0.07837 -0.10968
 C342 C -0.10934 0.07740 -0.10375
 H343 H -0.22716 0.15470 -0.14324
 H344 H -0.18981 0.22649 -0.23936
 H345 H -0.25812 0.19511 -0.17153
 H346 H -0.14273 0.20065 -0.23405
 H347 H -0.10890 0.16316 -0.20594
 H348 H -0.20121 0.11646 -0.12465
 H349 H -0.16703 0.08030 -0.09526
 H350 H -0.07787 0.13616 -0.17539
 H351 H -0.04488 0.10117 -0.14123
 H352 H -0.11781 0.06068 -0.08362
 C353 C -0.21838 0.67370 0.33739
 C354 C -0.18986 0.66862 0.32636
 C355 C -0.17990 0.68900 0.29829
 C356 C -0.19824 0.71276 0.28167
 C357 C -0.22625 0.71747 0.29318
 C358 C -0.23610 0.69778 0.32110
 C359 C -0.15149 0.68595 0.28728
 C360 C -0.13218 0.66385 0.30417
 C361 C -0.14081 0.64330 0.33254
 C362 C -0.17063 0.64471 0.34279
 C363 C -0.18029 0.62209 0.36905
 C364 C -0.16106 0.60005 0.38599
 C365 C -0.13133 0.59987 0.37791
 C366 C -0.12068 0.62134 0.35104
 C367 C -0.09005 0.62048 0.34454
 C368 C -0.07096 0.59959 0.36426
 C369 C -0.08164 0.57868 0.39096
 C370 C -0.11208 0.57858 0.39710
 H371 H -0.22739 0.66010 0.35907
 H372 H -0.19026 0.72835 0.26041
 H373 H -0.25774 0.70096 0.33036
 H374 H -0.14384 0.70125 0.26566
 H375 H -0.11065 0.66318 0.29401
 H376 H -0.20286 0.62046 0.37691
 H377 H -0.16944 0.58333 0.40617
 H378 H -0.07982 0.63638 0.32518
 H379 H -0.04747 0.60060 0.35920
 H380 H -0.12081 0.56213 0.41728
 C381 C 0.28535 0.17265 0.35446
 C382 C 0.31340 0.16620 0.34321
 C383 C 0.32097 0.18119 0.31127
 C384 C 0.30183 0.20302 0.29251
 C385 C 0.27475 0.21006 0.30478
 C386 C 0.26653 0.19421 0.33558
 C387 C 0.34774 0.17460 0.29836
 C388 C 0.36729 0.15338 0.31635
 C389 C 0.36114 0.13830 0.34856
 C390 C 0.33406 0.14543 0.36252
 C391 C 0.32889 0.13224 0.39566
 C392 C 0.34909 0.11239 0.41438
 C393 C 0.37505 0.10440 0.40083
 C394 C 0.38141 0.11684 0.36764
 C395 C 0.40781 0.10710 0.35505
 C396 C 0.42706 0.08642 0.37483
 C397 C 0.42083 0.07472 0.40782
 C398 C 0.39473 0.08400 0.42057
 H399 H 0.27702 0.16123 0.37756
 H400 H 0.30852 0.21516 0.26874
 H401 H 0.24527 0.19838 0.34517
 H402 H 0.35366 0.18596 0.27396
 H403 H 0.38750 0.14992 0.30454
 H404 H 0.30969 0.13741 0.40837
 H405 H 0.34422 0.10308 0.43982
 H406 H 0.41404 0.11455 0.32984
 H407 H 0.44673 0.07919 0.36402
 H408 H 0.38980 0.07560 0.44621
 C409 C 0.28360 0.66195 -0.14756
 C410 C 0.31239 0.65774 -0.15843
 C411 C 0.32100 0.67668 -0.18805
 C412 C 0.30148 0.69873 -0.20573
 C413 C 0.27333 0.70283 -0.19422
 C414 C 0.26457 0.68414 -0.16515
 C415 C 0.34922 0.67391 -0.19965
 C416 C 0.36954 0.65328 -0.18218
 C417 C 0.36237 0.63423 -0.15226
 C418 C 0.33304 0.63593 -0.14065
 C419 C 0.32538 0.61587 -0.11155
 C420 C 0.34583 0.59572 -0.09371
 C421 C 0.37479 0.59468 -0.10391
 C422 C 0.38356 0.61366 -0.13341
 C423 C 0.41339 0.61151 -0.14238
 C424 C 0.43348 0.59178 -0.12261
 C425 C 0.42467 0.57353 -0.09327
 C426 C 0.39512 0.57485 -0.08438
 H427 H 0.27513 0.64892 -0.12530
 H428 H 0.30867 0.71346 -0.22793
 H429 H 0.24277 0.68662 -0.15595
 H430 H 0.35585 0.68818 -0.22239
 H431 H 0.39080 0.65282 -0.19296
 H432 H 0.30358 0.61501 -0.10175
 H433 H 0.33894 0.58100 -0.07136
 H434 H 0.42219 0.62513 -0.16417
 H435 H 0.45626 0.59144 -0.12991
 H436 H 0.38789 0.56037 -0.06204
 C437 C -0.18698 -0.19863 0.16137
 C438 C -0.16850 -0.17169 0.16971
 C439 C -0.17297 -0.15929 0.20028
 C440 C -0.19512 -0.17316 0.22112
 C441 C -0.21381 -0.19916 0.21196
 C442 C -0.20917 -0.21201 0.18220
 C443 C -0.15561 -0.13280 0.20986
 C444 C -0.13452 -0.11739 0.18920
 C445 C -0.12976 -0.12802 0.15796
 C446 C -0.14627 -0.15628 0.14857
 C447 C -0.14007 -0.16806 0.11834
 C448 C -0.11931 -0.15227 0.09742
 C449 C -0.10411 -0.12391 0.10542
 C450 C -0.10904 -0.11131 0.13577
 C451 C -0.09346 -0.08205 0.14221
 C452 C -0.07400 -0.06621 0.11951
 C453 C -0.06918 -0.07882 0.08962
 C454 C -0.08422 -0.10788 0.08291
 H455 H -0.18545 -0.20955 0.13859
 H456 H -0.19787 -0.16347 0.24455
 H457 H -0.22330 -0.23192 0.17434
 H458 H -0.15866 -0.12351 0.23345
 H459 H -0.12214 -0.09719 0.19870
 H460 H -0.15081 -0.18968 0.11007
 H461 H -0.11545 -0.16217 0.07439
 H462 H -0.09628 -0.07021 0.16412
 H463 H -0.06322 -0.04346 0.12508
 H464 H -0.08047 -0.11809 0.06002
 C465 C -0.18680 0.29538 0.66499
 C466 C -0.17475 0.32690 0.66814
 C467 C -0.18490 0.34295 0.69401
 C468 C -0.20665 0.32829 0.71498
 C469 C -0.21903 0.29715 0.71129
 C470 C -0.20832 0.28090 0.68612
 C471 C -0.17332 0.37370 0.69905
 C472 C -0.15190 0.38914 0.67886
 C473 C -0.14123 0.37451 0.65236
 C474 C -0.15304 0.34297 0.64668
 C475 C -0.14305 0.32877 0.61950
 C476 C -0.12234 0.34469 0.59859
 C477 C -0.11047 0.37526 0.60393
 C478 C -0.11941 0.39055 0.63108
 C479 C -0.10611 0.42134 0.63568
 C480 C -0.08545 0.43635 0.61388
 C481 C -0.07718 0.42137 0.58677
 C482 C -0.08971 0.39069 0.58206
 H483 H -0.18015 0.28108 0.64642
 H484 H -0.21298 0.34122 0.73498
 H485 H -0.21705 0.25724 0.68136
 H486 H -0.18095 0.38609 0.71889
 H487 H -0.14450 0.41288 0.68454
 H488 H -0.15112 0.30538 0.61328
 H489 H -0.11557 0.33288 0.57789
 H490 H -0.11107 0.43465 0.65582
 H491 H -0.07631 0.46016 0.61796
 H492 H -0.08310 0.37868 0.56142
 C493 C 0.31294 -0.21573 0.67383
 C494 C 0.33023 -0.18776 0.68135
 C495 C 0.32389 -0.17377 0.71043
 C496 C 0.30161 -0.18761 0.73109
 C497 C 0.28447 -0.21503 0.72304
 C498 C 0.29046 -0.22899 0.69433
 C499 C 0.33959 -0.14581 0.71872
 C500 C 0.36076 -0.13052 0.69810
 C501 C 0.36746 -0.14293 0.66840
 C502 C 0.35301 -0.17280 0.66073
 C503 C 0.36202 -0.18677 0.63291
 C504 C 0.38356 -0.17156 0.61257
 C505 C 0.39646 -0.14151 0.61852
 C506 C 0.38838 -0.12658 0.64629
 C507 C 0.40098 -0.09543 0.65024
 C508 C 0.42102 -0.08016 0.62793
 C509 C 0.42955 -0.09526 0.60095
 C510 C 0.41717 -0.12612 0.59653
 H511 H 0.31558 -0.22745 0.65177
 H512 H 0.29763 -0.17684 0.75356
 H513 H 0.27720 -0.24980 0.68705
 H514 H 0.33514 -0.13529 0.74120
 H515 H 0.37195 -0.10919 0.70657
 H516 H 0.35319 -0.20986 0.62646
 H517 H 0.38979 -0.18325 0.59154
 H518 H 0.39509 -0.08165 0.66964
 H519 H 0.42925 -0.05592 0.63144
 H520 H 0.42356 -0.13822 0.57588
 C521 C 0.30730 0.29080 0.16430
 C522 C 0.32904 0.31487 0.17318
 C523 C 0.32931 0.32441 0.20601
 C524 C 0.30735 0.31198 0.22783
 C525 C 0.28543 0.28912 0.21804
 C526 C 0.28599 0.27810 0.18653
 C527 C 0.35133 0.34649 0.21688
 C528 C 0.37319 0.35956 0.19587
 C529 C 0.37336 0.35176 0.16256
 C530 C 0.35038 0.32979 0.15070
 C531 C 0.34878 0.32447 0.11647
 C532 C 0.36873 0.34019 0.09450
 C533 C 0.39167 0.36104 0.10585
 C534 C 0.39502 0.36627 0.14028
 C535 C 0.41989 0.38603 0.15085
 C536 C 0.43928 0.40144 0.12780
 C537 C 0.43459 0.39779 0.09355
 C538 C 0.41104 0.37712 0.08280
 H539 H 0.30636 0.28098 0.14055
 H540 H 0.30742 0.31992 0.25264
 H541 H 0.26938 0.26010 0.17872
 H542 H 0.35169 0.35379 0.24198
 H543 H 0.38901 0.37680 0.20615
 H544 H 0.33149 0.30920 0.10546
 H545 H 0.36611 0.33601 0.06824
 H546 H 0.42510 0.38996 0.17675
 H547 H 0.45753 0.41712 0.13667
 H548 H 0.40772 0.37374 0.05635
 C549 C 0.20105 0.16535 0.19245
 C550 C 0.17594 0.17418 0.17034
 C551 C 0.16580 0.20556 0.17046
 C552 C 0.17984 0.22659 0.19232
 C553 C 0.20426 0.21718 0.21437
 C554 C 0.21488 0.18655 0.21398
 C555 C 0.14156 0.21586 0.14894
 C556 C 0.12670 0.19565 0.12742
 C557 C 0.13539 0.16394 0.12662
 C558 C 0.16043 0.15301 0.14843
 C559 C 0.16882 0.12114 0.14797
 C560 C 0.15310 0.10048 0.12747
 C561 C 0.12853 0.11063 0.10635
 C562 C 0.11951 0.14261 0.10519
 C563 C 0.09469 0.15170 0.08281
 C564 C 0.07904 0.12969 0.06356
 C565 C 0.08750 0.09791 0.06563
 C566 C 0.11263 0.08870 0.08672
 H567 H 0.21058 0.14224 0.19394
 H568 H 0.17183 0.25052 0.19199
 H569 H 0.23359 0.17858 0.23097
 H570 H 0.13382 0.23987 0.14885
 H571 H 0.10810 0.20566 0.11199
 H572 H 0.18732 0.11110 0.16357
 H573 H 0.16019 0.07612 0.12836
 H574 H 0.08659 0.17556 0.07952
 H575 H 0.06013 0.13766 0.04688
 H576 H 0.11932 0.06412 0.08865
 C577 C 0.20017 0.66022 0.69240
 C578 C 0.17500 0.66932 0.67050
 C579 C 0.16514 0.70078 0.67084
 C580 C 0.17923 0.72146 0.69301
 C581 C 0.20347 0.71165 0.71512
 C582 C 0.21408 0.68110 0.71424
 C583 C 0.14103 0.71146 0.64933
 C584 C 0.12599 0.69152 0.62766
 C585 C 0.13428 0.65969 0.62679
 C586 C 0.15915 0.64834 0.64864
 C587 C 0.16686 0.61621 0.64845
 C588 C 0.15067 0.59571 0.62814
 C589 C 0.12635 0.60631 0.60687
 C590 C 0.11808 0.63858 0.60536
 C591 C 0.09366 0.64821 0.58264
 C592 C 0.07755 0.62641 0.56352
 C593 C 0.08513 0.59430 0.56608
 C594 C 0.10995 0.58457 0.58743
 H595 H 0.20968 0.63712 0.69346
 H596 H 0.17128 0.74538 0.69302
 H597 H 0.23275 0.67291 0.73117
 H598 H 0.13351 0.73554 0.64941
 H599 H 0.10744 0.70178 0.61233
 H600 H 0.18506 0.60581 0.66426
 H601 H 0.15718 0.57111 0.62929
 H602 H 0.08629 0.67237 0.57891
 H603 H 0.05899 0.63482 0.54655
 H604 H 0.11601 0.55975 0.58970
 C605 C 0.70008 0.19581 0.65616
 C606 C 0.67312 0.17819 0.66447
 C607 C 0.66164 0.18232 0.69560
 C608 C 0.67620 0.20355 0.71681
 C609 C 0.70237 0.22130 0.70781
 C610 C 0.71439 0.21692 0.67759
 C611 C 0.63552 0.16544 0.70552
 C612 C 0.62001 0.14475 0.68505
 C613 C 0.62998 0.14006 0.65347
 C614 C 0.65708 0.15691 0.64304
 C615 C 0.66700 0.15215 0.61146
 C616 C 0.65096 0.13201 0.59060
 C617 C 0.62442 0.11569 0.60023
 C618 C 0.61358 0.11929 0.63186
 C619 C 0.58658 0.10202 0.64038
 C620 C 0.57099 0.08261 0.61830
 C621 C 0.58156 0.07950 0.58694
 C622 C 0.60851 0.09593 0.57818
 H623 H 0.71067 0.19407 0.63326
 H624 H 0.66713 0.20611 0.74062
 H625 H 0.73456 0.23041 0.67005
 H626 H 0.62678 0.16842 0.72940
 H627 H 0.60003 0.13294 0.69484
 H628 H 0.68711 0.16387 0.60185
 H629 H 0.65940 0.12931 0.56649
 H630 H 0.57669 0.10286 0.66387
 H631 H 0.55058 0.06964 0.62603
 H632 H 0.61683 0.09382 0.55388
 C633 C 0.70030 0.69832 0.15866
 C634 C 0.67125 0.68470 0.16493
 C635 C 0.65771 0.69361 0.19310
 C636 C 0.67286 0.71474 0.21404
 C637 C 0.70156 0.72808 0.20743
 C638 C 0.71508 0.71953 0.17961
 C639 C 0.62908 0.68135 0.20046
 C640 C 0.61320 0.66062 0.18029
 C641 C 0.62545 0.65096 0.15183
 C642 C 0.65519 0.66271 0.14435
 C643 C 0.66796 0.65177 0.11685
 C644 C 0.65229 0.63029 0.09722
 C645 C 0.62314 0.61913 0.10377
 C646 C 0.60910 0.62955 0.13088
 C647 C 0.57915 0.61813 0.13575
 C648 C 0.56433 0.59669 0.11524
 C649 C 0.57859 0.58583 0.08908
 C650 C 0.60799 0.59742 0.08334
 H651 H 0.71219 0.69342 0.13760
 H652 H 0.66230 0.72039 0.23593
 H653 H 0.73704 0.72957 0.17357
 H654 H 0.61872 0.68796 0.22211
 H655 H 0.59139 0.65219 0.18816
 H656 H 0.69034 0.65900 0.10998
 H657 H 0.66316 0.62240 0.07654
 H658 H 0.56628 0.62548 0.15490
 H659 H 0.54134 0.58884 0.11970
 H660 H 0.61933 0.58911 0.06324
   
