data_POSCAR
  _audit_creation_date              2014-09-24
  _audit_creation_method            'ToBaCCo'
  _symmetry_space_group_name_H-M    'P1'
  _symmetry_Int_Tables_number       1
  _symmetry_cell_setting            triclinic
  loop_
  _symmetry_equiv_pos_as_xyz
 x,y,z
_cell_length_a 16.7932
_cell_length_b 16.3088
_cell_length_c 25.1467
_cell_angle_alpha 89.999900
_cell_angle_beta 89.724300
_cell_angle_gamma 89.998800
loop_
  _atom_site_label
  _atom_site_type_symbol
  _atom_site_fract_x
  _atom_site_fract_y
  _atom_site_fract_z
O1 O 0.15192 0.09860 0.03516
 O2 O -0.15211 -0.09306 0.03595
 O3 O -0.09151 0.15831 0.03834
 O4 O 0.09135 -0.15270 0.03782
 O5 O -0.13672 0.04439 0.06657
 O6 O 0.13638 -0.03895 0.06601
 O7 O -0.04255 -0.13737 0.06584
 O8 O 0.04240 0.14319 0.06559
 C9 C 0.11410 0.13217 0.07185
 C10 C -0.11434 -0.12676 0.07238
 C11 C -0.12548 0.11806 0.07409
 C12 C 0.12513 -0.11264 0.07348
 O13 O 0.15203 -0.09319 -0.03596
 O14 O -0.15189 0.09867 -0.03522
 O15 O 0.09157 0.15825 -0.03841
 O16 O -0.09146 -0.15267 -0.03779
 O17 O -0.13640 -0.03891 -0.06604
 O18 O 0.13672 0.04428 -0.06662
 O19 O 0.04244 -0.13748 -0.06581
 O20 O -0.04234 0.14318 -0.06565
 Co21 Co 0.13040 0.00269 -0.00031
 Co22 Co -0.13042 0.00277 0.00027
 Co23 Co 0.00003 0.13672 -0.00003
 Co24 Co -0.00005 -0.13102 0.00001
 O25 O -0.00001 0.00280 -0.00002
 C26 C 0.11423 -0.12692 -0.07236
 C27 C -0.11405 0.13223 -0.07191
 C28 C 0.12554 0.11796 -0.07414
 C29 C -0.12520 -0.11261 -0.07348
 O30 O 0.45774 0.35736 0.43433
 O31 O 0.54225 0.63805 0.43414
 O32 O 0.36356 0.53951 0.43406
 O33 O 0.63663 0.45615 0.43334
 O34 O 0.40842 0.65325 0.46234
 O35 O 0.59163 0.34228 0.46168
 O36 O 0.65188 0.59365 0.46386
 O37 O 0.34819 0.40195 0.46473
 C38 C 0.38609 0.36857 0.42799
 C39 C 0.61397 0.62722 0.42745
 C40 C 0.37483 0.61319 0.42660
 C41 C 0.62538 0.38249 0.42583
 O42 O 0.54234 0.35735 0.56561
 O43 O 0.45763 0.63794 0.56589
 O44 O 0.36338 0.45604 0.56661
 O45 O 0.63644 0.53955 0.56591
 O46 O 0.59146 0.65328 0.53769
 O47 O 0.40845 0.34221 0.53826
 O48 O 0.65185 0.40203 0.53521
 O49 O 0.34803 0.59352 0.53612
 Co50 Co 0.50003 0.36380 0.49997
 Co51 Co 0.49994 0.63161 0.50001
 Co52 Co 0.36961 0.49776 0.50033
 Co53 Co 0.63039 0.49784 0.49963
 O54 O 0.49999 0.49775 0.49999
 C55 C 0.61399 0.36863 0.57194
 C56 C 0.38591 0.62706 0.57257
 C57 C 0.37469 0.38239 0.57412
 C58 C 0.62511 0.61321 0.57341
 C59 C 0.21928 0.22228 0.20648
 C60 C 0.30654 0.19732 0.21422
 C61 C 0.33914 0.22739 0.25974
 C62 C 0.28121 0.27942 0.29301
 C63 C 0.20883 0.22390 0.30276
 C64 C 0.17625 0.19385 0.25724
 C65 C 0.21906 0.31631 0.20949
 C66 C 0.25165 0.34637 0.25502
 C67 C 0.18381 0.18995 0.15769
 C68 C 0.15310 0.16345 0.11809
 C69 C 0.31661 0.31159 0.34185
 C70 C 0.34722 0.33776 0.38158
 H71 H 0.33980 0.15941 0.18643
 H72 H 0.40039 0.21526 0.27094
 H73 H 0.18523 0.20949 0.34193
 H74 H 0.12471 0.15364 0.25741
 H75 H 0.19542 0.35579 0.17860
 H76 H 0.25594 0.41161 0.26314
 C77 C 0.78039 0.77971 0.20660
 C78 C 0.78217 0.68565 0.20888
 C79 C 0.74970 0.65417 0.25424
 C80 C 0.71869 0.71988 0.29281
 C81 C 0.66017 0.77147 0.26008
 C82 C 0.69265 0.80297 0.21473
 C83 C 0.82249 0.80798 0.25747
 C84 C 0.79002 0.77651 0.30282
 C85 C 0.81577 0.81351 0.15800
 C86 C 0.84651 0.84103 0.11852
 C87 C 0.68343 0.68623 0.34148
 C88 C 0.65288 0.65901 0.38110
 H89 H 0.80672 0.64717 0.17761
 H90 H 0.74643 0.58871 0.26187
 H91 H 0.59862 0.78228 0.27152
 H92 H 0.65901 0.84079 0.18731
 H93 H 0.87333 0.84911 0.25783
 H94 H 0.81300 0.79064 0.34205
 C95 C 0.78083 0.22247 0.79348
 C96 C 0.69040 0.21023 0.79028
 C97 C 0.65782 0.24029 0.74475
 C98 C 0.71892 0.27960 0.70694
 C99 C 0.78177 0.21291 0.69719
 C100 C 0.81434 0.18286 0.74271
 C101 C 0.79375 0.31496 0.78594
 C102 C 0.76116 0.34502 0.74041
 C103 C 0.81628 0.19012 0.84227
 C104 C 0.84698 0.16358 0.88187
 C105 C 0.68351 0.31174 0.65809
 C106 C 0.65289 0.33787 0.61836
 H107 H 0.65508 0.18061 0.82103
 H108 H 0.59451 0.23643 0.73650
 H109 H 0.79916 0.19120 0.65800
 H110 H 0.85964 0.13535 0.74253
 H111 H 0.82562 0.35345 0.81390
 H112 H 0.76510 0.40926 0.72935
 C113 C 0.21944 0.77937 0.79345
 C114 C 0.18850 0.82002 0.74251
 C115 C 0.22095 0.78854 0.69716
 C116 C 0.28112 0.71953 0.70724
 C117 C 0.23583 0.65591 0.74066
 C118 C 0.20336 0.68740 0.78602
 C119 C 0.31032 0.78814 0.79055
 C120 C 0.34279 0.75664 0.74519
 C121 C 0.18408 0.81319 0.84205
 C122 C 0.15335 0.84077 0.88152
 C123 C 0.31639 0.68591 0.65856
 C124 C 0.34696 0.65874 0.61892
 H125 H 0.14496 0.86923 0.74211
 H126 H 0.20522 0.81073 0.65788
 H127 H 0.22984 0.59182 0.72969
 H128 H 0.16952 0.65028 0.81394
 H129 H 0.34601 0.81652 0.82137
 H130 H 0.40637 0.75802 0.73715
 C131 C 0.21795 0.21859 0.79542
 C132 C 0.18607 0.17922 0.74430
 C133 C 0.21861 0.21089 0.69899
 C134 C 0.27989 0.27884 0.70920
 C135 C 0.34133 0.24027 0.74664
 C136 C 0.30877 0.20859 0.79195
 C137 C 0.20311 0.31083 0.78865
 C138 C 0.23568 0.34252 0.74334
 C139 C 0.18303 0.18389 0.84411
 C140 C 0.15497 0.15338 0.88369
 C141 C 0.31472 0.31338 0.66044
 C142 C 0.34261 0.34352 0.62071
 H143 H 0.14181 0.13070 0.74374
 H144 H 0.20226 0.18947 0.65965
 H145 H 0.40480 0.23805 0.73831
 H146 H 0.34439 0.17923 0.82243
 H147 H 0.17000 0.34800 0.81693
 H148 H 0.23047 0.40688 0.73285
 C149 C 0.78024 0.78127 0.79282
 C150 C 0.79527 0.68889 0.78696
 C151 C 0.76311 0.65603 0.74208
 C152 C 0.71907 0.71879 0.70744
 C153 C 0.78032 0.78659 0.69634
 C154 C 0.81246 0.81943 0.74121
 C155 C 0.68943 0.79103 0.78953
 C156 C 0.65727 0.75818 0.74466
 C157 C 0.81475 0.81712 0.84104
 C158 C 0.84258 0.84810 0.88033
 C159 C 0.68465 0.68310 0.65915
 C160 C 0.65701 0.65234 0.61973
 H161 H 0.82822 0.65248 0.81552
 H162 H 0.76852 0.59143 0.73224
 H163 H 0.79699 0.80701 0.65673
 H164 H 0.85668 0.86798 0.74002
 H165 H 0.65353 0.82105 0.81982
 H166 H 0.59386 0.76005 0.73651
 C167 C 0.21967 0.78136 0.20722
 C168 C 0.30771 0.80345 0.21519
 C169 C 0.33987 0.77060 0.26007
 C170 C 0.28084 0.71891 0.29261
 C171 C 0.24915 0.65449 0.25349
 C172 C 0.21700 0.68733 0.20861
 C173 C 0.17782 0.80886 0.25863
 C174 C 0.20998 0.77604 0.30351
 C175 C 0.18516 0.81718 0.15899
 C176 C 0.15733 0.84812 0.11969
 C177 C 0.31526 0.68319 0.34090
 C178 C 0.34290 0.65237 0.38029
 H179 H 0.34182 0.84152 0.18796
 H180 H 0.40150 0.78051 0.27126
 H181 H 0.25176 0.58883 0.26043
 H182 H 0.19205 0.64983 0.17714
 H183 H 0.12733 0.85042 0.25969
 H184 H 0.18706 0.78953 0.34299
 C185 C 0.78223 0.21873 0.20455
 C186 C 0.78286 0.31278 0.20628
 C187 C 0.75031 0.34445 0.25159
 C188 C 0.72029 0.27897 0.29077
 C189 C 0.79246 0.22340 0.30077
 C190 C 0.82500 0.19173 0.25546
 C191 C 0.69474 0.19454 0.21327
 C192 C 0.66218 0.22622 0.25858
 C193 C 0.81713 0.18402 0.15586
 C194 C 0.84514 0.15350 0.11627
 C195 C 0.68545 0.31351 0.33953
 C196 C 0.65752 0.34364 0.37925
 H197 H 0.80675 0.35111 0.17472
 H198 H 0.74631 0.40998 0.25881
 H199 H 0.81594 0.21009 0.33998
 H200 H 0.87637 0.15131 0.25588
 H201 H 0.66127 0.15595 0.18621
 H202 H 0.60088 0.21476 0.27032
   
