data_POSCAR
  _audit_creation_date              2014-09-24
  _audit_creation_method            'ToBaCCo'
  _symmetry_space_group_name_H-M    'P1'
  _symmetry_Int_Tables_number       1
  _symmetry_cell_setting            triclinic
  loop_
  _symmetry_equiv_pos_as_xyz
 x,y,z
_cell_length_a 31.2554
_cell_length_b 35.9537
_cell_length_c 31.2554
_cell_angle_alpha 90.000000
_cell_angle_beta 89.999900
_cell_angle_gamma 90.000000
loop_
  _atom_site_label
  _atom_site_type_symbol
  _atom_site_fract_x
  _atom_site_fract_y
  _atom_site_fract_z
C1 C 1.25002 0.25002 0.25002
 C2 C 0.75002 -0.24998 0.25001
 C3 C 0.75002 0.25002 -0.24998
 C4 C 1.25002 -0.24998 -0.24998
 C5 C 0.25002 0.25002 0.75001
 C6 C 0.75002 0.75002 0.75002
 C7 C 0.75002 0.25002 0.25002
 C8 C 0.25002 0.75002 0.25002
 N9 N 1.07658 0.03829 0.04686
 N10 N 1.10518 0.06450 0.05439
 N11 N 1.04664 -0.03996 0.07635
 N12 N 1.05451 -0.06588 0.10526
 N13 N 1.07636 -0.03996 0.04663
 N14 N 1.10526 -0.06588 0.05451
 N15 N 1.04687 0.03829 0.07658
 N16 N 1.05440 0.06450 0.10517
 C17 C 1.09056 0.08074 0.09055
 C18 C 1.09086 -0.08202 0.09085
 N19 N 0.92463 -0.03932 0.04645
 N20 N 0.89589 -0.06542 0.05390
 N21 N 0.95464 0.03864 0.07656
 N22 N 0.94705 0.06467 0.10539
 N23 N 0.92496 0.03885 0.04681
 N24 N 0.89636 0.06502 0.05455
 N25 N 0.95436 -0.03955 0.07616
 N26 N 0.94668 -0.06581 0.10466
 Mn27 Mn 1.00062 -0.00065 0.07686
 C28 C 0.91043 -0.08185 0.08998
 C29 C 0.91092 0.08104 0.09087
 N30 N 1.07617 -0.03955 -0.04564
 N31 N 1.10466 -0.06581 -0.05333
 N32 N 1.04682 0.03885 -0.07505
 N33 N 1.05456 0.06502 -0.10365
 N34 N 1.07657 0.03864 -0.04536
 N35 N 1.10540 0.06467 -0.05296
 N36 N 1.04646 -0.03932 -0.07537
 N37 N 1.05391 -0.06542 -0.10412
 Mn38 Mn 1.07686 -0.00065 0.00061
 C39 C 1.08998 -0.08185 -0.08957
 C40 C 1.09087 0.08104 -0.08909
 N41 N 0.92485 0.03920 -0.04544
 N42 N 0.89604 0.06521 -0.05320
 N43 N 0.95426 -0.03903 -0.07546
 N44 N 0.94650 -0.06503 -0.10427
 N45 N 0.92454 -0.03903 -0.04575
 N46 N 0.89573 -0.06503 -0.05351
 N47 N 0.95457 0.03920 -0.07515
 N48 N 0.94680 0.06521 -0.10397
 Mn49 Mn 0.92431 -0.00007 0.00053
 Mn50 Mn 1.00054 -0.00007 -0.07570
 Cl51 Cl 1.00058 -0.00036 0.00058
 C52 C 0.91053 0.08137 -0.08948
 C53 C 0.91021 -0.08117 -0.08980
 N54 N 1.07617 0.53960 0.54567
 N55 N 1.10466 0.56585 0.55336
 N56 N 1.04681 0.46119 0.57508
 N57 N 1.05456 0.43502 0.60368
 N58 N 1.07657 0.46141 0.54539
 N59 N 1.10540 0.43538 0.55298
 N60 N 1.04646 0.53937 0.57540
 N61 N 1.05391 0.56547 0.60415
 C62 C 1.08998 0.58189 0.58960
 C63 C 1.09087 0.41900 0.58912
 N64 N 0.92485 0.46084 0.54546
 N65 N 0.89604 0.43484 0.55323
 N66 N 0.95426 0.53908 0.57549
 N67 N 0.94650 0.56508 0.60430
 N68 N 0.92454 0.53908 0.54578
 N69 N 0.89573 0.56508 0.55353
 N70 N 0.95457 0.46084 0.57518
 N71 N 0.94680 0.43484 0.60399
 Mn72 Mn 1.00053 0.50012 0.57572
 C73 C 0.91052 0.41867 0.58951
 C74 C 0.91021 0.58121 0.58982
 N75 N 1.07658 0.46176 0.45317
 N76 N 1.10517 0.43555 0.44564
 N77 N 1.04664 0.54000 0.42367
 N78 N 1.05451 0.56593 0.39477
 N79 N 1.07636 0.54000 0.45339
 N80 N 1.10526 0.56593 0.44552
 N81 N 1.04686 0.46176 0.42345
 N82 N 1.05439 0.43555 0.39486
 Mn83 Mn 1.07686 0.50069 0.49941
 C84 C 1.09056 0.41931 0.40948
 C85 C 1.09085 0.58206 0.40918
 N86 N 0.92463 0.53937 0.45358
 N87 N 0.89588 0.56547 0.44613
 N88 N 0.95464 0.46141 0.42346
 N89 N 0.94705 0.43538 0.39464
 N90 N 0.92495 0.46119 0.45322
 N91 N 0.89636 0.43502 0.44548
 N92 N 0.95436 0.53960 0.42386
 N93 N 0.94668 0.56585 0.39537
 Mn94 Mn 0.92431 0.50012 0.49950
 Mn95 Mn 1.00062 0.50069 0.42317
 Cl96 Cl 1.00058 0.50041 0.49945
 C97 C 0.91043 0.58189 0.41005
 C98 C 0.91091 0.41900 0.40916
 N99 N 0.57519 0.03920 0.54547
 N100 N 0.60400 0.06521 0.55324
 N101 N 0.54578 -0.03903 0.57549
 N102 N 0.55354 -0.06503 0.60430
 N103 N 0.57550 -0.03903 0.54578
 N104 N 0.60431 -0.06503 0.55354
 N105 N 0.54547 0.03920 0.57518
 N106 N 0.55324 0.06521 0.60400
 C107 C 0.58951 0.08137 0.58951
 C108 C 0.58983 -0.08117 0.58983
 N109 N 0.42387 -0.03955 0.54567
 N110 N 0.39537 -0.06581 0.55336
 N111 N 0.45322 0.03885 0.57508
 N112 N 0.44548 0.06502 0.60368
 N113 N 0.42347 0.03864 0.54539
 N114 N 0.39464 0.06467 0.55299
 N115 N 0.45358 -0.03932 0.57540
 N116 N 0.44613 -0.06542 0.60415
 Mn117 Mn 0.49950 -0.00007 0.57573
 C118 C 0.41006 -0.08185 0.58960
 C119 C 0.40917 0.08104 0.58912
 N120 N 0.57540 -0.03932 0.45358
 N121 N 0.60415 -0.06542 0.44613
 N122 N 0.54540 0.03864 0.42347
 N123 N 0.55299 0.06467 0.39464
 N124 N 0.57508 0.03885 0.45322
 N125 N 0.60368 0.06502 0.44548
 N126 N 0.54568 -0.03955 0.42387
 N127 N 0.55336 -0.06581 0.39537
 Mn128 Mn 0.57573 -0.00007 0.49950
 C129 C 0.58960 -0.08185 0.41005
 C130 C 0.58912 0.08104 0.40916
 N131 N 0.42346 0.03828 0.45317
 N132 N 0.39486 0.06450 0.44564
 N133 N 0.45340 -0.03996 0.42368
 N134 N 0.44552 -0.06588 0.39477
 N135 N 0.42368 -0.03996 0.45340
 N136 N 0.39478 -0.06588 0.44552
 N137 N 0.45317 0.03828 0.42345
 N138 N 0.44564 0.06450 0.39486
 Mn139 Mn 0.42317 -0.00065 0.49942
 Mn140 Mn 0.49942 -0.00065 0.42317
 Cl141 Cl 0.49945 -0.00036 0.49945
 C142 C 0.40948 0.08074 0.40948
 C143 C 0.40918 -0.08202 0.40918
 N144 N 0.57540 0.53937 0.04646
 N145 N 0.60415 0.56547 0.05390
 N146 N 0.54540 0.46141 0.07657
 N147 N 0.55299 0.43538 0.10539
 N148 N 0.57508 0.46119 0.04681
 N149 N 0.60368 0.43502 0.05455
 N150 N 0.54568 0.53960 0.07617
 N151 N 0.55336 0.56585 0.10466
 C152 C 0.58960 0.58189 0.08998
 C153 C 0.58912 0.41900 0.09087
 N154 N 0.42346 0.46176 0.04686
 N155 N 0.39486 0.43555 0.05439
 N156 N 0.45340 0.54000 0.07636
 N157 N 0.44553 0.56593 0.10526
 N158 N 0.42368 0.54000 0.04664
 N159 N 0.39478 0.56593 0.05451
 N160 N 0.45317 0.46176 0.07658
 N161 N 0.44564 0.43555 0.10517
 Mn162 Mn 0.49942 0.50069 0.07686
 C163 C 0.40948 0.41931 0.09055
 C164 C 0.40918 0.58206 0.09085
 N165 N 0.57519 0.46084 -0.04543
 N166 N 0.60400 0.43484 -0.05320
 N167 N 0.54578 0.53908 -0.07546
 N168 N 0.55354 0.56508 -0.10427
 N169 N 0.57550 0.53908 -0.04575
 N170 N 0.60431 0.56508 -0.05350
 N171 N 0.54547 0.46084 -0.07515
 N172 N 0.55324 0.43484 -0.10396
 Mn173 Mn 0.57573 0.50012 0.00053
 C174 C 0.58951 0.41867 -0.08948
 C175 C 0.58983 0.58121 -0.08979
 N176 N 0.42387 0.53960 -0.04564
 N177 N 0.39538 0.56585 -0.05332
 N178 N 0.45322 0.46119 -0.07505
 N179 N 0.44548 0.43502 -0.10365
 N180 N 0.42347 0.46141 -0.04536
 N181 N 0.39464 0.43538 -0.05295
 N182 N 0.45358 0.53937 -0.07537
 N183 N 0.44613 0.56547 -0.10412
 Mn184 Mn 0.42318 0.50069 0.00062
 Mn185 Mn 0.49950 0.50012 -0.07569
 Cl186 Cl 0.49946 0.50041 0.00058
 C187 C 0.41006 0.58189 -0.08957
 C188 C 0.40917 0.41900 -0.08909
 C189 C 1.22306 0.22634 0.22306
 C190 C 1.20138 0.20603 0.20137
 C191 C 1.17662 0.18132 0.17661
 C192 C 1.15601 0.15942 0.15600
 C193 C 1.13253 0.13288 0.13252
 C194 C 1.11305 0.10946 0.11304
 C195 C 1.22305 0.72638 0.72306
 C196 C 1.20129 0.70618 0.70132
 C197 C 1.17639 0.68168 0.67644
 C198 C 1.15565 0.65998 0.65569
 C199 C 1.13204 0.63367 0.63202
 C200 C 1.11248 0.61044 0.61235
 C201 C 0.72302 0.22628 0.72301
 C202 C 0.70130 0.20593 0.70130
 C203 C 0.67645 0.18122 0.67645
 C204 C 0.65573 0.15940 0.65573
 C205 C 0.63204 0.13302 0.63204
 C206 C 0.61233 0.10982 0.61233
 C207 C 0.72306 0.72638 0.22305
 C208 C 0.70132 0.70618 0.20129
 C209 C 0.67645 0.68168 0.17639
 C210 C 0.65570 0.65998 0.15565
 C211 C 0.63203 0.63367 0.13204
 C212 C 0.61235 0.61044 0.11248
 C213 C 0.77698 -0.22633 0.22305
 C214 C 0.79872 -0.20613 0.20129
 C215 C 0.82359 -0.18163 0.17639
 C216 C 0.84434 -0.15993 0.15565
 C217 C 0.86801 -0.13363 0.13204
 C218 C 0.88769 -0.11040 0.11248
 C219 C 0.77702 0.27377 0.72301
 C220 C 0.79874 0.29412 0.70130
 C221 C 0.82358 0.31883 0.67645
 C222 C 0.84431 0.34065 0.65573
 C223 C 0.86800 0.36702 0.63203
 C224 C 0.88771 0.39022 0.61233
 C225 C 0.27699 -0.22634 0.72306
 C226 C 0.29875 -0.20614 0.70132
 C227 C 0.32365 -0.18163 0.67644
 C228 C 0.34439 -0.15994 0.65569
 C229 C 0.36800 -0.13363 0.63202
 C230 C 0.38755 -0.11040 0.61235
 C231 C 0.27697 0.27370 0.22306
 C232 C 0.29866 0.29402 0.20138
 C233 C 0.32342 0.31872 0.17661
 C234 C 0.34403 0.34062 0.15600
 C235 C 0.36751 0.36717 0.13253
 C236 C 0.38699 0.39058 0.11305
 C237 C 0.77702 0.22628 -0.22298
 C238 C 0.79874 0.20593 -0.20127
 C239 C 0.82358 0.18122 -0.17642
 C240 C 0.84431 0.15940 -0.15570
 C241 C 0.86800 0.13302 -0.13201
 C242 C 0.88771 0.10982 -0.11230
 C243 C 0.77698 0.72638 0.27698
 C244 C 0.79872 0.70618 0.29874
 C245 C 0.82359 0.68168 0.32364
 C246 C 0.84434 0.65998 0.34438
 C247 C 0.86801 0.63367 0.36799
 C248 C 0.88769 0.61044 0.38755
 C249 C 0.27697 0.22634 0.27697
 C250 C 0.29866 0.20603 0.29866
 C251 C 0.32342 0.18132 0.32342
 C252 C 0.34403 0.15942 0.34403
 C253 C 0.36751 0.13287 0.36751
 C254 C 0.38699 0.10946 0.38699
 C255 C 0.27699 0.72638 -0.22303
 C256 C 0.29875 0.70618 -0.20129
 C257 C 0.32365 0.68168 -0.17641
 C258 C 0.34439 0.65998 -0.15566
 C259 C 0.36800 0.63367 -0.13199
 C260 C 0.38755 0.61044 -0.11231
 C261 C 1.22305 -0.22634 -0.22303
 C262 C 1.20129 -0.20614 -0.20129
 C263 C 1.17639 -0.18163 -0.17641
 C264 C 1.15565 -0.15994 -0.15566
 C265 C 1.13204 -0.13363 -0.13199
 C266 C 1.11248 -0.11040 -0.11232
 C267 C 1.22306 0.27370 0.27697
 C268 C 1.20138 0.29402 0.29866
 C269 C 1.17661 0.31872 0.32342
 C270 C 1.15600 0.34062 0.34403
 C271 C 1.13253 0.36717 0.36751
 C272 C 1.11305 0.39058 0.38699
 C273 C 0.72306 -0.22633 0.27698
 C274 C 0.70132 -0.20613 0.29874
 C275 C 0.67645 -0.18163 0.32364
 C276 C 0.65570 -0.15993 0.34438
 C277 C 0.63203 -0.13363 0.36799
 C278 C 0.61235 -0.11040 0.38755
 C279 C 0.72302 0.27377 -0.22298
 C280 C 0.70130 0.29412 -0.20127
 C281 C 0.67645 0.31883 -0.17642
 C282 C 0.65573 0.34065 -0.15570
 C283 C 0.63204 0.36702 -0.13200
 C284 C 0.61233 0.39022 -0.11230
 C285 C 1.22307 0.22631 -0.22297
 C286 C 1.20151 0.20596 -0.20113
 C287 C 1.17694 0.18124 -0.17609
 C288 C 1.15649 0.15938 -0.15522
 C289 C 1.13310 0.13292 -0.13142
 C290 C 1.11359 0.10962 -0.11172
 C291 C 1.22439 0.72748 0.27564
 C292 C 1.20265 0.70705 0.29739
 C293 C 1.17782 0.68220 0.32221
 C294 C 1.15713 0.66027 0.34290
 C295 C 1.13346 0.63378 0.36657
 C296 C 1.11374 0.61053 0.38629
 C297 C 0.72300 0.22630 0.27696
 C298 C 0.70117 0.20596 0.29852
 C299 C 0.67613 0.18124 0.32309
 C300 C 0.65525 0.15938 0.34355
 C301 C 0.63145 0.13292 0.36693
 C302 C 0.61175 0.10962 0.38644
 C303 C 0.72303 0.72630 -0.22300
 C304 C 0.70133 0.70595 -0.20130
 C305 C 0.67652 0.68124 -0.17649
 C306 C 0.65584 0.65939 -0.15580
 C307 C 0.63221 0.63297 -0.13218
 C308 C 0.61257 0.60971 -0.11253
 C309 C 0.77700 -0.22626 -0.22300
 C310 C 0.79870 -0.20591 -0.20130
 C311 C 0.82352 -0.18119 -0.17649
 C312 C 0.84420 -0.15935 -0.15580
 C313 C 0.86783 -0.13292 -0.13218
 C314 C 0.88747 -0.10967 -0.11254
 C315 C 0.77704 0.27374 0.27696
 C316 C 0.79887 0.29408 0.29852
 C317 C 0.82391 0.31880 0.32309
 C318 C 0.84479 0.34067 0.34355
 C319 C 0.86859 0.36713 0.36693
 C320 C 0.88829 0.39043 0.38644
 C321 C 0.27565 -0.22744 0.27565
 C322 C 0.29739 -0.20701 0.29739
 C323 C 0.32221 -0.18216 0.32221
 C324 C 0.34290 -0.16023 0.34290
 C325 C 0.36658 -0.13373 0.36658
 C326 C 0.38630 -0.11048 0.38629
 C327 C 0.27697 0.27374 -0.22297
 C328 C 0.29853 0.29409 -0.20113
 C329 C 0.32309 0.31881 -0.17609
 C330 C 0.34355 0.34067 -0.15521
 C331 C 0.36694 0.36713 -0.13141
 C332 C 0.38645 0.39043 -0.11172
 C333 C 1.22439 -0.22743 0.22439
 C334 C 1.20265 -0.20701 0.20264
 C335 C 1.17782 -0.18216 0.17782
 C336 C 1.15714 -0.16023 0.15713
 C337 C 1.13346 -0.13373 0.13345
 C338 C 1.11374 -0.11048 0.11374
 C339 C 1.22307 0.27374 0.72300
 C340 C 1.20151 0.29409 0.70116
 C341 C 1.17694 0.31881 0.67612
 C342 C 1.15649 0.34067 0.65524
 C343 C 1.13310 0.36713 0.63144
 C344 C 1.11359 0.39043 0.61175
 C345 C 0.72303 -0.22626 0.72303
 C346 C 0.70133 -0.20591 0.70133
 C347 C 0.67652 -0.18119 0.67652
 C348 C 0.65584 -0.15935 0.65583
 C349 C 0.63221 -0.13292 0.63221
 C350 C 0.61257 -0.10967 0.61257
 C351 C 0.72300 0.27374 0.22307
 C352 C 0.70117 0.29408 0.20151
 C353 C 0.67613 0.31880 0.17694
 C354 C 0.65525 0.34067 0.15648
 C355 C 0.63145 0.36713 0.13310
 C356 C 0.61175 0.39043 0.11359
 C357 C 0.77704 0.22630 0.22307
 C358 C 0.79887 0.20596 0.20151
 C359 C 0.82391 0.18124 0.17694
 C360 C 0.84479 0.15938 0.15648
 C361 C 0.86859 0.13292 0.13310
 C362 C 0.88829 0.10962 0.11359
 C363 C 0.77700 0.72630 0.72303
 C364 C 0.79870 0.70595 0.70133
 C365 C 0.82352 0.68124 0.67652
 C366 C 0.84420 0.65939 0.65583
 C367 C 0.86782 0.63297 0.63221
 C368 C 0.88747 0.60972 0.61256
 C369 C 0.27697 0.22631 0.72300
 C370 C 0.29853 0.20596 0.70116
 C371 C 0.32309 0.18124 0.67612
 C372 C 0.34355 0.15938 0.65524
 C373 C 0.36693 0.13292 0.63145
 C374 C 0.38645 0.10962 0.61175
 C375 C 0.27565 0.72748 0.22439
 C376 C 0.29739 0.70705 0.20264
 C377 C 0.32222 0.68220 0.17782
 C378 C 0.34290 0.66027 0.15713
 C379 C 0.36658 0.63378 0.13346
 C380 C 0.38630 0.61053 0.11374
   
