data_POSCAR
  _audit_creation_date              2014-09-24
  _audit_creation_method            'ToBaCCo'
  _symmetry_space_group_name_H-M    'P1'
  _symmetry_Int_Tables_number       1
  _symmetry_cell_setting            triclinic
  loop_
  _symmetry_equiv_pos_as_xyz
 x,y,z
_cell_length_a 26.5155
_cell_length_b 26.0471
_cell_length_c 26.5686
_cell_angle_alpha 89.567800
_cell_angle_beta 90.327700
_cell_angle_gamma 90.535300
loop_
  _atom_site_label
  _atom_site_type_symbol
  _atom_site_fract_x
  _atom_site_fract_y
  _atom_site_fract_z
O1 O 0.54932 0.09292 0.05310
 O2 O 0.45902 -0.02624 -0.10976
 O3 O 0.55197 0.03340 -0.09016
 O4 O 0.41737 0.08439 -0.01187
 O5 O 0.55144 -0.04447 -0.10141
 O6 O 0.45967 0.09403 0.05839
 O7 O 0.39757 0.00513 -0.06589
 O8 O 0.55214 0.09148 -0.02621
 C9 C 0.55703 0.11639 0.01264
 C10 C 0.41499 -0.00899 -0.10729
 C11 C 0.56301 -0.00167 -0.11793
 C12 C 0.43261 0.11262 0.02301
 O13 O 0.46425 -0.00781 0.09803
 O14 O 0.53567 -0.09860 -0.02121
 O15 O 0.60329 0.02530 0.03628
 O16 O 0.39715 -0.05085 0.01548
 O17 O 0.44111 -0.09378 -0.03856
 O18 O 0.54969 -0.00876 0.08438
 O19 O 0.40129 0.02687 0.06680
 O20 O 0.59663 -0.04142 -0.02423
 Co21 Co 0.50466 0.03945 0.06694
 Co22 Co 0.49658 -0.05859 -0.06108
 Co23 Co 0.56950 0.02508 -0.02462
 Co24 Co 0.41272 0.01551 0.00019
 O25 O 0.49499 0.00448 -0.00486
 C26 C 0.41950 0.00225 0.10213
 C27 C 0.58111 -0.08701 -0.01472
 C28 C 0.59423 0.00073 0.07568
 C29 C 0.40566 -0.09158 -0.00757
 O30 O -0.10944 0.47562 -0.01701
 O31 O 0.01639 0.52240 0.10671
 O32 O -0.04136 0.41020 0.05881
 O33 O -0.05389 0.59068 0.03544
 O34 O 0.02671 0.43473 0.09501
 O35 O -0.09289 0.56370 -0.03091
 O36 O 0.03140 0.59190 0.06931
 O37 O -0.07373 0.40503 -0.02671
 C38 C -0.11239 0.42857 -0.01549
 C39 C 0.02146 0.56921 0.10916
 C40 C -0.01588 0.41343 0.09772
 C41 C -0.09254 0.59008 0.00884
 O42 O -0.01911 0.53731 -0.10119
 O43 O 0.09557 0.45759 0.01744
 O44 O 0.01951 0.41110 -0.06145
 O45 O 0.06740 0.58066 -0.02345
 O46 O 0.09723 0.54238 0.04155
 O47 O -0.04319 0.45049 -0.09588
 O48 O -0.01622 0.60213 -0.05520
 O49 O 0.05108 0.39123 0.02315
 Co50 Co -0.06055 0.50588 -0.05539
 Co51 Co 0.05335 0.48988 0.05945
 Co52 Co -0.01017 0.41406 -0.00098
 Co53 Co 0.00632 0.58155 0.00614
 O54 O -0.00287 0.49793 0.00233
 C55 C -0.00910 0.58338 -0.09722
 C56 C 0.09312 0.41077 0.01515
 C57 C -0.00552 0.42140 -0.09984
 C58 C 0.10423 0.56991 0.00321
 O59 O -0.03302 -0.10174 0.44054
 O60 O 0.09434 0.03434 0.55083
 O61 O 0.05894 0.02744 0.40028
 O62 O -0.02128 -0.07231 0.59314
 O63 O 0.10239 0.01858 0.46496
 O64 O -0.01482 -0.11232 0.52542
 O65 O 0.06250 -0.03432 0.58332
 O66 O 0.03111 -0.06205 0.40949
 C67 C 0.00775 -0.10297 0.41676
 C68 C 0.10006 -0.00681 0.57503
 C69 C 0.09974 0.01511 0.41891
 C70 C -0.00962 -0.11230 0.57139
 O71 O -0.09410 -0.04764 0.54989
 O72 O 0.03024 0.09612 0.44551
 O73 O -0.06210 -0.02981 0.39855
 O74 O 0.02250 0.05710 0.59663
 O75 O 0.01371 0.10039 0.53054
 O76 O -0.10450 -0.02669 0.46436
 O77 O -0.06276 0.01961 0.58537
 O78 O -0.03445 0.05879 0.41262
 Co79 Co -0.05618 -0.06585 0.49518
 Co80 Co 0.05473 0.05628 0.49775
 Co81 Co -0.00156 -0.00171 0.41453
 Co82 Co 0.00009 -0.00705 0.58007
 O83 O -0.00076 -0.00455 0.49697
 C84 C -0.09991 -0.00874 0.57693
 C85 C -0.01043 0.09900 0.42113
 C86 C -0.10323 -0.02192 0.41827
 C87 C 0.01252 0.09891 0.57673
 C88 C -0.41226 0.19145 -0.03714
 C89 C -0.38004 0.23369 -0.04217
 C90 C -0.35547 0.25413 -0.00014
 C91 C -0.36621 0.23407 0.04794
 C92 C -0.39830 0.19120 0.05306
 C93 C -0.41988 0.16823 0.01019
 N94 N -0.31459 0.28927 -0.00862
 N95 N -0.29437 0.31674 0.02551
 C96 C -0.24966 0.34590 0.01442
 C97 C -0.23930 0.39185 0.03976
 C98 C -0.19516 0.41992 0.02916
 C99 C -0.16014 0.40116 -0.00553
 C100 C -0.17025 0.35473 -0.03011
 C101 C -0.21487 0.32772 -0.02076
 H102 H -0.42856 0.17490 -0.07087
 H103 H -0.37192 0.24876 -0.07939
 H104 H -0.34721 0.24915 0.08091
 H105 H -0.40342 0.17402 0.08995
 H106 H -0.26560 0.40608 0.06726
 H107 H -0.18775 0.45549 0.04884
 H108 H -0.14374 0.33951 -0.05693
 H109 H -0.22174 0.29192 -0.04020
 C110 C 0.38374 0.82137 -0.02796
 C111 C 0.35173 0.77901 -0.02214
 C112 C 0.31317 0.77967 0.01364
 C113 C 0.30767 0.82261 0.04430
 C114 C 0.33872 0.86577 0.03772
 C115 C 0.37700 0.86612 0.00096
 N116 N 0.27796 0.73806 0.01803
 N117 N 0.26950 0.70749 -0.01825
 C118 C 0.23338 0.66674 -0.01374
 C119 C 0.20625 0.65122 -0.05643
 C120 C 0.16533 0.61736 -0.05162
 C121 C 0.15235 0.59733 -0.00417
 C122 C 0.18218 0.60985 0.03793
 C123 C 0.22201 0.64488 0.03331
 H124 H 0.41273 0.81936 -0.05645
 H125 H 0.35690 0.74584 -0.04581
 H126 H 0.27806 0.82331 0.07219
 H127 H 0.33233 0.89885 0.06125
 H128 H 0.21485 0.66785 -0.09290
 H129 H 0.14272 0.60831 -0.08453
 H130 H 0.17268 0.59522 0.07499
 H131 H 0.24297 0.65609 0.06661
 C132 C 0.39419 0.18088 0.07488
 C133 C 0.35820 0.21960 0.07844
 C134 C 0.33806 0.24227 0.03489
 C135 C 0.35713 0.22858 -0.01232
 C136 C 0.39235 0.18924 -0.01598
 C137 C 0.40954 0.16361 0.02747
 N138 N 0.29425 0.27369 0.03903
 N139 N 0.27757 0.30027 0.00226
 C140 C 0.23096 0.32727 0.00550
 C141 C 0.22391 0.37165 -0.02359
 C142 C 0.17867 0.39860 -0.02086
 C143 C 0.13913 0.38029 0.00954
 C144 C 0.14550 0.33474 0.03726
 C145 C 0.19139 0.30876 0.03582
 H146 H 0.40635 0.16131 0.10890
 H147 H 0.34377 0.22981 0.11504
 H148 H 0.34214 0.24553 -0.04652
 H149 H 0.40350 0.17641 -0.05295
 H150 H 0.25391 0.38593 -0.04752
 H151 H 0.17445 0.43374 -0.04249
 H152 H 0.11560 0.32021 0.06123
 H153 H 0.19587 0.27397 0.05790
 C154 C -0.40031 0.81978 -0.00555
 C155 C -0.36692 0.77927 0.00078
 C156 C -0.31612 0.78875 0.01136
 C157 C -0.29895 0.83978 0.01655
 C158 C -0.33239 0.88076 0.00937
 C159 C -0.38336 0.87107 -0.00242
 N160 N -0.28270 0.74591 0.01312
 N161 N -0.23812 0.74862 0.03084
 C162 C -0.20486 0.70556 0.02906
 C163 C -0.16013 0.70685 0.05711
 C164 C -0.12500 0.66747 0.05286
 C165 C -0.13360 0.62648 0.01953
 C166 C -0.17928 0.62437 -0.00743
 C167 C -0.21482 0.66340 -0.00245
 H168 H -0.43924 0.81074 -0.01465
 H169 H -0.38052 0.74019 -0.00346
 H170 H -0.25961 0.84794 0.02446
 H171 H -0.31830 0.91980 0.01212
 H172 H -0.15197 0.73905 0.08148
 H173 H -0.09003 0.67043 0.07395
 H174 H -0.18686 0.59340 -0.03345
 H175 H -0.24912 0.66160 -0.02467
 C176 C -0.00216 -0.42099 0.20010
 C177 C -0.00154 -0.39176 0.24424
 C178 C 0.02551 -0.34526 0.24608
 C179 C 0.05246 -0.32861 0.20357
 C180 C 0.05104 -0.35701 0.15954
 C181 C 0.02333 -0.40308 0.15714
 N182 N 0.02184 -0.31294 0.28922
 N183 N 0.05035 -0.27362 0.29354
 C184 C 0.04444 -0.23612 0.33193
 C185 C 0.07718 -0.19372 0.33217
 C186 C 0.06697 -0.15130 0.36209
 C187 C 0.02352 -0.15069 0.39202
 C188 C -0.00732 -0.19489 0.39448
 C189 C 0.00298 -0.23732 0.36453
 H190 H -0.02364 -0.45654 0.19901
 H191 H -0.02279 -0.40482 0.27665
 H192 H 0.07335 -0.29271 0.20373
 H193 H 0.07154 -0.34265 0.12712
 H194 H 0.10923 -0.19243 0.30709
 H195 H 0.09180 -0.11820 0.36001
 H196 H -0.04081 -0.19575 0.41763
 H197 H -0.02285 -0.26975 0.36489
 C198 C 0.04758 0.36173 0.85075
 C199 C 0.05353 0.32774 0.81101
 C200 C 0.01744 0.32470 0.77261
 C201 C -0.02380 0.35825 0.77290
 C202 C -0.03001 0.39237 0.81302
 C203 C 0.00488 0.39321 0.85317
 N204 N 0.02136 0.28362 0.73740
 N205 N -0.00588 0.27900 0.69804
 C206 C -0.00174 0.23404 0.66745
 C207 C -0.01828 0.23483 0.61721
 C208 C -0.01372 0.19101 0.58714
 C209 C 0.00626 0.14547 0.60751
 C210 C 0.02164 0.14463 0.65818
 C211 C 0.01810 0.18845 0.68766
 H212 H 0.07533 0.36158 0.88084
 H213 H 0.08542 0.30205 0.81119
 H214 H -0.05228 0.35633 0.74361
 H215 H -0.06330 0.41611 0.81389
 H216 H -0.03396 0.26957 0.60118
 H217 H -0.02595 0.19260 0.54820
 H218 H 0.03723 0.11018 0.67495
 H219 H 0.03050 0.18653 0.72652
 C220 C -0.07502 0.35392 0.14314
 C221 C -0.08593 0.32178 0.18408
 C222 C -0.05447 0.32141 0.22651
 C223 C -0.01325 0.35574 0.22871
 C224 C -0.00210 0.38770 0.18768
 C225 C -0.03199 0.38595 0.14388
 N226 N -0.06156 0.28212 0.26389
 N227 N -0.03418 0.27985 0.30331
 C228 C -0.03657 0.23757 0.33798
 C229 C -0.00366 0.23751 0.37926
 C230 C 0.00234 0.19320 0.40848
 C231 C -0.02455 0.14803 0.39674
 C232 C -0.06041 0.14925 0.35757
 C233 C -0.06629 0.19369 0.32824
 H234 H -0.09894 0.35187 0.11000
 H235 H -0.11770 0.29545 0.18185
 H236 H 0.01171 0.35617 0.26109
 H237 H 0.03106 0.41223 0.18946
 H238 H 0.01943 0.27104 0.38713
 H239 H 0.02990 0.19359 0.43873
 H240 H -0.08176 0.11510 0.34775
 H241 H -0.09203 0.19284 0.29648
 C242 C 0.01741 -0.33455 0.87205
 C243 C 0.02753 -0.30136 0.83217
 C244 C 0.02415 -0.31833 0.78269
 C245 C 0.01341 -0.37031 0.77316
 C246 C 0.00446 -0.40447 0.81345
 C247 C 0.00450 -0.38646 0.86351
 N248 N 0.02781 -0.28021 0.74393
 N249 N 0.01899 -0.28772 0.69744
 C250 C 0.01944 -0.24475 0.66322
 C251 C 0.00394 -0.25114 0.61308
 C252 C -0.00318 -0.20818 0.58168
 C253 C 0.00460 -0.15840 0.60051
 C254 C 0.02279 -0.15241 0.64978
 C255 C 0.03041 -0.19499 0.68069
 H256 H 0.01903 -0.31891 0.90969
 H257 H 0.03595 -0.26138 0.83981
 H258 H 0.01081 -0.38412 0.73490
 H259 H -0.00477 -0.44415 0.80519
 H260 H -0.00467 -0.28915 0.59902
 H261 H -0.01713 -0.21370 0.54368
 H262 H 0.02972 -0.11452 0.66502
 H263 H 0.04287 -0.18866 0.71903
 C264 C 0.33474 0.01205 0.85697
 C265 C 0.30031 0.00928 0.81755
 C266 C 0.31438 -0.00997 0.77107
 C267 C 0.36448 -0.02527 0.76354
 C268 C 0.39944 -0.02340 0.80364
 C269 C 0.38463 -0.00587 0.85157
 N270 N 0.27555 -0.01543 0.73390
 N271 N 0.28280 -0.02087 0.68699
 C272 C 0.23968 -0.02565 0.65451
 C273 C 0.23907 -0.00008 0.60800
 C274 C 0.19389 0.00426 0.58074
 C275 C 0.14909 -0.01822 0.59911
 C276 C 0.15086 -0.04743 0.64368
 C277 C 0.19561 -0.05061 0.67143
 H278 H 0.32110 0.02662 0.89243
 H279 H 0.26188 0.02148 0.82354
 H280 H 0.37597 -0.04027 0.72754
 H281 H 0.43731 -0.03722 0.79746
 H282 H 0.27269 0.01937 0.59453
 H283 H 0.19355 0.02669 0.54624
 H284 H 0.11699 -0.06520 0.65868
 H285 H 0.19546 -0.07092 0.70715
 C286 C -0.31590 0.00371 0.10457
 C287 C -0.28009 0.00220 0.14332
 C288 C -0.29428 -0.01116 0.19241
 C289 C -0.34447 -0.02546 0.20208
 C290 C -0.38031 -0.02434 0.16327
 C291 C -0.36659 -0.00850 0.11439
 N292 N -0.25713 -0.00822 0.23159
 N293 N -0.26660 -0.01642 0.27794
 C294 C -0.22734 -0.01229 0.31515
 C295 C -0.23618 -0.02820 0.36498
 C296 C -0.19659 -0.02865 0.40040
 C297 C -0.14784 -0.01321 0.38599
 C298 C -0.14004 0.00546 0.33689
 C299 C -0.17922 0.00596 0.30191
 H300 H -0.30425 0.01598 0.06733
 H301 H -0.24138 0.01298 0.13542
 H302 H -0.35617 -0.03629 0.23969
 H303 H -0.41916 -0.03386 0.17199
 H304 H -0.27323 -0.04197 0.37585
 H305 H -0.20345 -0.04337 0.43800
 H306 H -0.10298 0.01812 0.32488
 H307 H -0.17139 0.01931 0.26404
 C308 C 0.41295 -0.01464 0.19515
 C309 C 0.38334 -0.01921 0.23863
 C310 C 0.33057 -0.01997 0.23488
 C311 C 0.30787 -0.01744 0.18690
 C312 C 0.33720 -0.01197 0.14388
 C313 C 0.38989 -0.00969 0.14757
 N314 N 0.30020 -0.01981 0.27950
 N315 N 0.25266 -0.02542 0.27536
 C316 C 0.21724 -0.02158 0.31545
 C317 C 0.16661 -0.02896 0.30303
 C318 C 0.12918 -0.01844 0.33760
 C319 C 0.14144 -0.00085 0.38602
 C320 C 0.19257 0.00401 0.39986
 C321 C 0.23053 -0.00592 0.36443
 H322 H 0.45362 -0.01269 0.19887
 H323 H 0.40144 -0.02100 0.27522
 H324 H 0.26724 -0.01782 0.18261
 H325 H 0.31855 -0.00843 0.10764
 H326 H 0.15601 -0.04092 0.26543
 H327 H 0.09032 -0.02319 0.32583
 H328 H 0.20296 0.01756 0.43696
 H329 H 0.26969 0.00026 0.37461
 C330 C -0.38279 0.05550 0.82863
 C331 C -0.34640 0.06246 0.79128
 C332 C -0.33139 0.02118 0.76175
 C333 C -0.35437 -0.02722 0.76915
 C334 C -0.39033 -0.03443 0.80706
 C335 C -0.40424 0.00670 0.83775
 N336 N -0.29062 0.02849 0.72706
 N337 N -0.27967 -0.00524 0.69461
 C338 C -0.23701 -0.00055 0.66192
 C339 C -0.23186 -0.03632 0.62346
 C340 C -0.18835 -0.03693 0.59422
 C341 C -0.14853 -0.00203 0.60331
 C342 C -0.15452 0.03541 0.64064
 C343 C -0.19856 0.03623 0.66973
 H344 H -0.39265 0.08796 0.85174
 H345 H -0.32899 0.09988 0.78609
 H346 H -0.34325 -0.05984 0.74693
 H347 H -0.40614 -0.07241 0.81333
 H348 H -0.26115 -0.06482 0.61705
 H349 H -0.18519 -0.06613 0.56563
 H350 H -0.12454 0.06274 0.64858
 H351 H -0.20167 0.06420 0.69945
   
