data_POSCAR
  _audit_creation_date              2014-09-24
  _audit_creation_method            'ToBaCCo'
  _symmetry_space_group_name_H-M    'P1'
  _symmetry_Int_Tables_number       1
  _symmetry_cell_setting            triclinic
  loop_
  _symmetry_equiv_pos_as_xyz
 x,y,z
_cell_length_a 24.7347
_cell_length_b 25.5664
_cell_length_c 25.1420
_cell_angle_alpha 89.673300
_cell_angle_beta 89.514100
_cell_angle_gamma 90.155600
loop_
  _atom_site_label
  _atom_site_type_symbol
  _atom_site_fract_x
  _atom_site_fract_y
  _atom_site_fract_z
N1 N 0.12625 0.16546 0.26690
 N2 N 0.13529 0.11971 0.24485
 C3 C 0.11627 0.08192 0.27782
 C4 C 0.09792 0.10552 0.32426
 C5 C 0.10541 0.15854 0.31608
 H6 H 0.11851 0.04040 0.26997
 H7 H 0.09301 0.18981 0.34227
 Cu8 Cu 0.17635 0.11551 0.17716
 Cu9 Cu 0.13236 0.22928 0.22514
 Cu10 Cu 0.23461 0.23343 0.13837
 N11 N 0.24315 0.12136 0.13121
 N12 N 0.26921 0.16614 0.12441
 C13 C 0.31855 0.15712 0.10354
 C14 C 0.32295 0.10418 0.09381
 C15 C 0.27412 0.08265 0.11101
 H16 H 0.34808 0.18716 0.09412
 H17 H 0.26384 0.04151 0.11263
 N18 N 0.17426 0.28294 0.13363
 N19 N 0.13320 0.28001 0.16715
 C20 C 0.09518 0.31475 0.15272
 C21 C 0.11335 0.34054 0.10760
 C22 C 0.16389 0.32004 0.09678
 H23 H 0.05715 0.32065 0.17337
 H24 H 0.19055 0.33053 0.06406
 H25 H 0.16824 0.18710 0.14418
 H26 H 0.21349 0.18100 0.20251
 N27 N -0.11779 0.83614 0.26995
 N28 N -0.15616 0.87161 0.27224
 C29 C -0.14821 0.90187 0.31512
 C30 C -0.10275 0.88411 0.34089
 C31 C -0.08381 0.84294 0.31092
 H32 H -0.17212 0.93567 0.32569
 H33 H -0.04709 0.82095 0.31729
 Cu34 Cu -0.21020 0.87642 0.21669
 Cu35 Cu -0.11267 0.78647 0.21173
 Cu36 Cu -0.22023 0.78347 0.12363
 N37 N -0.26389 0.88125 0.16085
 N38 N -0.26973 0.84272 0.12686
 C39 C -0.31141 0.85340 0.09459
 C40 C -0.33188 0.90158 0.10850
 C41 C -0.30117 0.91836 0.15071
 H42 H -0.32504 0.82849 0.06270
 H43 H -0.30671 0.95389 0.17316
 N44 N -0.16421 0.72872 0.12637
 N45 N -0.12274 0.73060 0.15910
 C46 C -0.09016 0.68959 0.14947
 C47 C -0.11235 0.66057 0.10915
 C48 C -0.15880 0.68657 0.09482
 H49 H -0.05245 0.68193 0.16937
 H50 H -0.18525 0.67668 0.06233
 H51 H -0.15734 0.82516 0.15336
 H52 H -0.19521 0.78373 0.20241
 N53 N -0.12178 0.15876 -0.26678
 N54 N -0.17015 0.14159 -0.28046
 C55 C -0.16499 0.11344 -0.32553
 C56 C -0.11081 0.11248 -0.33986
 C57 C -0.08465 0.14138 -0.30175
 H58 H -0.19758 0.09259 -0.34457
 H59 H -0.04164 0.14889 -0.29950
 Cu60 Cu -0.23522 0.14941 -0.23370
 Cu61 Cu -0.10935 0.20188 -0.20389
 Cu62 Cu -0.20905 0.20361 -0.11542
 N63 N -0.28118 0.13664 -0.17064
 N64 N -0.26411 0.15012 -0.12321
 C65 C -0.29631 0.12851 -0.08578
 C66 C -0.33790 0.10284 -0.11110
 C67 C -0.32790 0.10956 -0.16508
 H68 H -0.29224 0.13439 -0.04339
 H69 H -0.35071 0.09313 -0.19752
 N70 N -0.15641 0.26037 -0.11845
 N71 N -0.11656 0.25939 -0.15335
 C72 C -0.08434 0.30122 -0.14579
 C73 C -0.10576 0.33023 -0.10449
 C74 C -0.15131 0.30312 -0.08772
 H75 H -0.04762 0.30943 -0.16800
 H76 H -0.17768 0.31288 -0.05470
 H77 H -0.17105 0.14718 -0.18308
 H78 H -0.18906 0.21285 -0.21046
 N79 N 0.12372 0.85004 -0.26412
 N80 N 0.17125 0.87195 -0.27285
 C81 C 0.16667 0.90685 -0.31307
 C82 C 0.11310 0.90790 -0.32862
 C83 C 0.08712 0.87117 -0.29707
 H84 H 0.19966 0.92972 -0.32965
 H85 H 0.04528 0.85899 -0.29967
 Cu86 Cu 0.23388 0.85411 -0.22824
 Cu87 Cu 0.11524 0.79211 -0.21439
 Cu88 Cu 0.18918 0.80695 -0.10602
 N89 N 0.27790 0.85730 -0.16255
 N90 N 0.25610 0.84792 -0.11527
 C91 C 0.28932 0.86577 -0.07737
 C92 C 0.33584 0.88432 -0.10183
 C93 C 0.32769 0.87791 -0.15588
 H94 H 0.28114 0.86360 -0.03504
 H95 H 0.35344 0.89228 -0.18779
 N96 N 0.14285 0.74535 -0.11544
 N97 N 0.11557 0.73824 -0.15951
 C98 C 0.08878 0.69231 -0.15652
 C99 C 0.09997 0.66961 -0.10783
 C100 C 0.13349 0.70467 -0.08235
 H101 H 0.06163 0.67761 -0.18650
 H102 H 0.14948 0.70108 -0.04255
 H103 H 0.17568 0.85485 -0.17216
 H104 H 0.20835 0.79014 -0.18241
 N105 N 0.15543 1.12637 0.73238
 N106 N 0.12792 1.16974 0.72492
 C107 C 0.10014 1.16582 0.67916
 C108 C 0.11133 1.11747 0.65733
 C109 C 0.14582 1.09328 0.69230
 H110 H 0.07113 1.19408 0.66487
 H111 H 0.16074 1.05360 0.69009
 Cu112 Cu 0.12535 1.22195 0.78103
 Cu113 Cu 0.19654 1.11294 0.79643
 Cu114 Cu 0.22646 1.22517 0.86798
 N115 N 0.12783 1.27481 0.83630
 N116 N 0.16742 1.27539 0.87095
 C117 C 0.15951 1.31481 0.90540
 C118 C 0.11232 1.33980 0.89157
 C119 C 0.09310 1.31365 0.84773
 H120 H 0.18571 1.32412 0.93831
 H121 H 0.05660 1.32223 0.82604
 N122 N 0.26783 1.15992 0.87388
 N123 N 0.25454 1.11646 0.84892
 C124 C 0.28906 1.07828 0.86271
 C125 C 0.32578 1.09917 0.89749
 C126 C 0.31153 1.15076 0.90389
 H127 H 0.28873 1.03891 0.84715
 H128 H 0.33094 1.17915 0.92919
 H129 H 0.17041 1.17053 0.84944
 H130 H 0.21667 1.18936 0.79348
 N131 N 0.86157 0.88794 0.75168
 N132 N 0.88087 0.84298 0.73499
 C133 C 0.90482 0.84997 0.68727
 C134 C 0.90116 0.90231 0.67427
 C135 C 0.87424 0.92559 0.71608
 H136 H 0.92516 0.81980 0.66474
 H137 H 0.86349 0.96641 0.71975
 Cu138 Cu 0.87793 0.78128 0.78002
 Cu139 Cu 0.81825 0.89266 0.81645
 Cu140 Cu 0.77176 0.77236 0.86203
 N141 N 0.87344 0.72628 0.83328
 N142 N 0.83099 0.72197 0.86490
 C143 C 0.83837 0.68143 0.89846
 C144 C 0.88822 0.65981 0.88724
 C145 C 0.90962 0.68911 0.84589
 H146 H 0.81040 0.66968 0.92965
 H147 H 0.94879 0.68432 0.82703
 N148 N 0.73251 0.83787 0.87410
 N149 N 0.75301 0.88405 0.86122
 C150 C 0.71870 0.92162 0.87735
 C151 C 0.67419 0.89766 0.90020
 C152 C 0.68399 0.84462 0.89760
 H153 H 0.72454 0.96312 0.87090
 H154 H 0.65836 0.81344 0.91270
 H155 H 0.83427 0.82300 0.85636
 H156 H 0.79059 0.82115 0.79618
 N157 N 0.15460 0.87127 1.26570
 N158 N 0.12670 0.82873 1.27693
 C159 C 0.09875 0.83615 1.32244
 C160 C 0.11029 0.88599 1.34002
 C161 C 0.14500 0.90749 1.30293
 H162 H 0.07014 0.80873 1.33975
 H163 H 0.16103 0.94691 1.30231
 Cu164 Cu 0.12565 0.77087 1.22744
 Cu165 Cu 0.19855 0.87814 1.20223
 Cu166 Cu 0.22969 0.76070 1.14201
 N167 N 0.12232 0.72448 1.16670
 N168 N 0.16399 0.71912 1.13433
 C169 C 0.15217 0.68296 1.09756
 C170 C 0.09998 0.66594 1.10681
 C171 C 0.08231 0.69233 1.15133
 H172 H 0.17967 0.66968 1.06683
 H173 H 0.04425 0.68715 1.17211
 N174 N 0.27459 0.82374 1.13392
 N175 N 0.25929 0.86940 1.15307
 C176 C 0.29406 0.90651 1.13664
 C177 C 0.33340 0.88290 1.10646
 C178 C 0.32047 0.83038 1.10541
 H179 H 0.29170 0.94747 1.14691
 H180 H 0.34140 0.79985 1.08396
 H181 H 0.17382 0.81621 1.15575
 H182 H 0.21817 0.80218 1.21375
 N183 N 0.85377 1.11158 1.25084
 N184 N 0.88096 1.15447 1.26148
 C185 C 0.90810 1.14783 1.30707
 C186 C 0.89767 1.09788 1.32534
 C187 C 0.86381 1.07544 1.28856
 H188 H 0.93467 1.17646 1.32470
 H189 H 0.84708 1.03628 1.28952
 Cu190 Cu 0.88084 1.21332 1.21292
 Cu191 Cu 0.80535 1.10813 1.19039
 Cu192 Cu 0.76598 1.23092 1.14588
 N193 N 0.87571 1.26547 1.15724
 N194 N 0.82947 1.27563 1.13388
 C195 C 0.83627 1.31703 1.10106
 C196 C 0.88994 1.33200 1.10313
 C197 C 0.91387 1.29863 1.13897
 H198 H 0.80492 1.33424 1.07690
 H199 H 0.95535 1.29968 1.15220
 N200 N 0.72103 1.16752 1.13746
 N201 N 0.73908 1.12051 1.15007
 C202 C 0.70388 1.08431 1.13333
 C203 C 0.66110 1.10958 1.11004
 C204 C 0.67287 1.16241 1.11315
 H205 H 0.70900 1.04255 1.13764
 H206 H 0.65004 1.19430 1.09606
 H207 H 0.82274 1.17498 1.14556
 H208 H 0.78712 1.18275 1.21067
 O209 O 0.41543 1.09828 1.08104
 O210 O 0.35967 1.03610 1.04560
 C211 C 0.36785 1.07828 1.07279
 O212 O 0.57107 1.08186 0.89491
 O213 O 0.63058 1.05013 0.95637
 C214 C 0.61940 1.07699 0.91405
 O215 O 0.41939 1.08936 0.90797
 O216 O 0.36158 1.03525 0.95455
 C217 C 0.37156 1.07290 0.92131
 O218 O 0.56756 1.09738 1.09374
 O219 O 0.63027 1.04832 1.04816
 C220 C 0.61690 1.08392 1.08222
 Zr221 Zr 0.49312 1.06565 1.06663
 O222 O 0.49361 1.14784 1.07445
 O223 O 0.48383 1.06086 1.15034
 Zr224 Zr 0.49615 1.06239 0.93223
 O225 O 0.50236 1.14504 0.93258
 O226 O 0.48848 1.06668 0.84864
 O227 O 0.44620 1.07163 0.99855
 O228 O 0.54111 1.07639 0.99942
 O229 O 0.57650 0.91022 1.09920
 O230 O 0.63432 0.96169 1.04961
 C231 C 0.62444 0.92638 1.08560
 O232 O 0.42739 0.90164 0.90603
 O233 O 0.36565 0.94291 0.95999
 C234 C 0.37825 0.91041 0.92256
 O235 O 0.57962 0.90599 0.91005
 O236 O 0.63552 0.96026 0.95728
 C237 C 0.62697 0.92315 0.92348
 O238 O 0.42657 0.89727 1.09262
 O239 O 0.36497 0.94650 1.04654
 C240 C 0.37767 0.90990 1.07984
 Zr241 Zr 0.50007 0.93399 1.07050
 O242 O 0.50857 0.85222 1.07949
 O243 O 0.49246 0.94126 1.15409
 Zr244 Zr 0.50207 0.93083 0.93574
 O245 O 0.50823 0.84830 0.93912
 O246 O 0.50129 0.92938 0.85154
 Zr247 Zr 0.41733 0.99374 1.00100
 Zr248 Zr 0.57833 1.00250 1.00218
 O249 O 0.54818 0.92530 1.00373
 O250 O 0.45378 0.91937 1.00304
 O251 O 0.54477 1.00256 1.07961
 O252 O 0.45205 0.99436 0.92413
 O253 O 0.44911 0.99758 1.07825
 O254 O 0.54764 0.99855 0.92423
 H255 H 0.56433 1.10805 0.99811
 H256 H 0.42835 0.99350 0.89257
 H257 H 0.57315 0.89509 1.00487
 H258 H 0.42328 0.99708 1.10861
 H259 H 0.50166 1.03306 0.83449
 H260 H 0.53301 0.94957 0.83855
 H261 H 0.47473 0.83470 0.95608
 H262 H 0.49853 0.83668 1.04506
 H263 H 0.52603 0.95772 1.16720
 H264 H 0.51934 1.05109 1.16520
 H265 H 0.49141 1.16230 1.03802
 H266 H 0.46943 1.15878 0.95015
 O267 O 0.09005 0.57726 -0.09851
 O268 O 0.03843 0.63211 -0.04714
 C269 C 0.07428 0.62346 -0.08370
 O270 O -0.09689 0.42207 -0.09368
 O271 O -0.04365 0.36679 -0.04446
 C272 C -0.08093 0.37576 -0.07918
 O273 O -0.09839 0.56961 -0.09821
 O274 O -0.05130 0.62889 -0.04786
 C275 C -0.08557 0.61691 -0.08463
 O276 O 0.09925 0.43010 -0.09440
 O277 O 0.04931 0.37080 -0.04560
 C278 C 0.08590 0.38277 -0.08072
 Zr279 Zr 0.06697 0.50235 -0.06815
 O280 O 0.06906 0.49754 -0.15218
 O281 O 0.15214 0.51059 -0.06617
 Zr282 Zr -0.06993 0.49704 -0.06849
 O283 O -0.06815 0.49224 -0.15254
 O284 O -0.15552 0.49865 -0.06811
 O285 O -0.00309 0.54630 -0.07887
 O286 O 0.00027 0.45450 -0.07776
 O287 O 0.09858 0.43023 0.09234
 O288 O 0.04891 0.37052 0.04507
 C289 C 0.08569 0.38284 0.07947
 O290 O -0.10016 0.56980 0.09532
 O291 O -0.05170 0.62883 0.04472
 C292 C -0.08671 0.61710 0.08142
 O293 O -0.10177 0.42278 0.08886
 O294 O -0.04429 0.36712 0.04451
 C295 C -0.08418 0.37653 0.07684
 O296 O 0.08911 0.57579 0.09512
 O297 O 0.03802 0.63195 0.04461
 C298 C 0.07358 0.62212 0.08094
 Zr299 Zr 0.06514 0.50193 0.06644
 O300 O 0.06211 0.49625 0.15048
 O301 O 0.15026 0.51059 0.06793
 Zr302 Zr -0.07150 0.49715 0.06584
 O303 O -0.07066 0.49048 0.14983
 O304 O -0.15699 0.50048 0.06761
 Zr305 Zr -0.00508 0.57725 -0.00130
 Zr306 Zr 0.00070 0.42182 -0.00060
 O307 O -0.00171 0.45405 0.07616
 O308 O -0.00491 0.54613 0.07647
 O309 O 0.07845 0.45578 -0.00064
 O310 O -0.08219 0.54221 -0.00156
 O311 O 0.07427 0.54778 -0.00102
 O312 O -0.07939 0.45006 -0.00113
 H313 H 0.00118 0.43118 -0.10910
 H314 H -0.11471 0.56476 -0.00160
 H315 H -0.00145 0.43029 0.10744
 H316 H 0.10525 0.57242 -0.00124
 H317 H -0.16851 0.46735 -0.04845
 H318 H -0.17026 0.47500 0.04130
 H319 H -0.05167 0.52159 0.16368
 H320 H 0.04136 0.52657 0.16382
 H321 H 0.16585 0.48373 0.04423
 H322 H 0.16668 0.48000 -0.04679
 H323 H 0.04487 0.52503 -0.16613
 H324 H -0.04782 0.52298 -0.16615
 O325 O 0.90668 0.08958 0.41834
 O326 O 0.95653 0.03660 0.36310
 C327 C 0.92140 0.07299 0.37169
 O328 O 1.09533 0.10429 0.56568
 O329 O 1.04834 0.05567 0.62794
 C330 C 1.08305 0.09138 0.61434
 O331 O 1.08355 0.10254 0.41552
 O332 O 1.04819 0.03874 0.36231
 C333 C 1.07575 0.08124 0.36927
 O334 O 0.89889 0.09246 0.56840
 O335 O 0.95485 0.05303 0.62897
 C336 C 0.91525 0.08379 0.61659
 Zr337 Zr 0.93155 0.06513 0.49521
 O338 O 0.92758 0.14785 0.49541
 O339 O 0.84629 0.06100 0.48961
 Zr340 Zr 1.06831 0.07141 0.49309
 O341 O 1.07468 0.15381 0.49192
 O342 O 1.15351 0.06843 0.48468
 O343 O 0.99924 0.07538 0.44641
 O344 O 0.99954 0.08088 0.53947
 O345 O 0.91127 -0.09025 0.58131
 O346 O 0.95817 -0.03417 0.63534
 C347 C 0.92439 -0.07210 0.62752
 O348 O 1.09845 -0.09678 0.43133
 O349 O 1.04967 -0.05043 0.36990
 C350 C 1.08436 -0.08582 0.38307
 O351 O 1.10572 -0.07963 0.57863
 O352 O 1.05067 -0.03229 0.63435
 C353 C 1.08934 -0.06537 0.62550
 O354 O 0.91162 -0.10091 0.43242
 O355 O 0.95945 -0.05321 0.37023
 C356 C 0.92504 -0.08913 0.38381
 Zr357 Zr 0.93770 -0.06662 0.50449
 O358 O 0.94106 -0.14877 0.51506
 O359 O 0.85223 -0.06943 0.50111
 Zr360 Zr 1.07467 -0.05994 0.50276
 O361 O 1.08356 -0.14134 0.51489
 O362 O 1.15959 -0.05196 0.49448
 Zr363 Zr 1.00291 -0.00279 0.41995
 Zr364 Zr 1.00307 0.00750 0.57771
 O365 O 1.00673 -0.06995 0.55000
 O366 O 1.00647 -0.07673 0.45732
 O367 O 0.92411 0.00171 0.54742
 O368 O 1.08134 0.00317 0.45128
 O369 O 0.92472 -0.00400 0.45384
 O370 O 1.08209 0.00933 0.54544
 H371 H 0.99781 0.11306 0.56118
 H372 H 1.11237 0.00295 0.42608
 H373 H 1.00838 -0.09953 0.57556
 H374 H 0.89292 -0.00646 0.43026
 H375 H 1.16856 0.06027 0.52010
 H376 H 1.17270 -0.03209 0.52549
 H377 H 1.05223 -0.15827 0.49792
 H378 H 0.96187 -0.16329 0.48482
 H379 H 0.83794 -0.05038 0.53232
 H380 H 0.83320 0.03850 0.51916
 H381 H 0.94979 0.16073 0.46512
 H382 H 1.03737 0.16734 0.49042
   
