data_POSCAR
  _audit_creation_date              2014-09-24
  _audit_creation_method            'ToBaCCo'
  _symmetry_space_group_name_H-M    'P1'
  _symmetry_Int_Tables_number       1
  _symmetry_cell_setting            triclinic
  loop_
  _symmetry_equiv_pos_as_xyz
 x,y,z
_cell_length_a 57.3531
_cell_length_b 57.1344
_cell_length_c 57.3506
_cell_angle_alpha 89.740300
_cell_angle_beta 89.651600
_cell_angle_gamma 90.235200
loop_
  _atom_site_label
  _atom_site_type_symbol
  _atom_site_fract_x
  _atom_site_fract_y
  _atom_site_fract_z
C1 C 0.21507 0.51877 1.02512
 H2 H 0.21446 0.53193 1.01150
 C3 C 0.19928 0.51964 1.04370
 H4 H 0.18641 0.53340 1.04344
 C5 C 0.23177 0.48413 1.04015
 H6 H 0.24432 0.47018 1.03860
 C7 C 0.21628 0.48423 1.05904
 H8 H 0.21817 0.47064 1.07204
 N9 N 0.23099 0.50131 1.02374
 C10 C 0.28665 0.52898 0.97933
 H11 H 0.28728 0.51547 0.96618
 C12 C 0.30242 0.54762 0.97840
 H13 H 0.31496 0.54851 0.96423
 C14 C 0.26947 0.54404 1.01378
 H15 H 0.25694 0.54233 1.02782
 C16 C 0.28493 0.56301 1.01353
 H17 H 0.28411 0.57571 1.02746
 Zn18 Zn 0.25079 0.50095 0.99723
 N19 N 0.27051 0.52758 0.99675
 C20 C 0.23258 0.51790 0.95429
 N21 N 0.23135 0.50063 0.97067
 C22 C 0.21528 0.48315 0.96921
 C23 C 0.19980 0.48237 0.95054
 C24 C 0.21742 0.51781 0.93533
 C25 C 0.28627 0.47285 1.01506
 C26 C 0.30195 0.45424 1.01582
 C27 C 0.28477 0.43910 0.98058
 C28 C 0.26939 0.45799 0.98051
 N29 N 0.27032 0.47432 0.99767
 H30 H 0.24512 0.53192 0.95600
 H31 H 0.21439 0.46990 0.98273
 H32 H 0.18691 0.46849 0.94989
 H33 H 0.21879 0.53158 0.92236
 H34 H 0.28693 0.48633 1.02822
 H35 H 0.31475 0.45361 1.02960
 H36 H 0.28365 0.42619 0.96687
 H37 H 0.25695 0.45971 0.96655
 C38 C 0.30176 0.56492 0.99571
 C39 C 0.19948 0.50215 1.06121
 C40 C 0.30138 0.43708 0.99837
 C41 C 0.20072 0.49989 0.93329
 C42 C 0.78641 0.51761 -0.02846
 H43 H 0.78752 0.53090 -0.01514
 C44 C 0.80180 0.51813 -0.04740
 H45 H 0.81484 0.53185 -0.04845
 C46 C 0.76864 0.48300 -0.04262
 H47 H 0.75596 0.46912 -0.04051
 C48 C 0.78371 0.48283 -0.06183
 H49 H 0.78213 0.46901 -0.07459
 N50 N 0.77016 0.50031 -0.02649
 C51 C 0.71591 0.52874 0.01860
 H52 H 0.71530 0.51531 0.03196
 C53 C 0.70048 0.54753 0.01955
 H54 H 0.68822 0.54861 0.03393
 C55 C 0.73269 0.54346 -0.01639
 H56 H 0.74492 0.54155 -0.03064
 C57 C 0.71757 0.56256 -0.01612
 H58 H 0.71835 0.57519 -0.03025
 Zn59 Zn 0.75093 0.50029 0.00043
 N60 N 0.73169 0.52711 0.00090
 C61 C 0.77037 0.51739 0.04262
 N62 N 0.77090 0.49993 0.02657
 C63 C 0.78672 0.48234 0.02799
 C64 C 0.80269 0.48166 0.04625
 C65 C 0.78605 0.51740 0.06116
 C66 C 0.71461 0.47263 -0.01638
 C67 C 0.69869 0.45411 -0.01684
 C68 C 0.71632 0.43859 0.01809
 C69 C 0.73194 0.45742 0.01786
 N70 N 0.73091 0.47387 0.00068
 H71 H 0.75803 0.53150 0.04094
 H72 H 0.78706 0.46894 0.01472
 H73 H 0.81539 0.46769 0.04684
 H74 H 0.78524 0.53135 0.07386
 H75 H 0.71390 0.48621 -0.02956
 H76 H 0.68565 0.45364 -0.03040
 H77 H 0.71754 0.42555 0.03178
 H78 H 0.74469 0.45896 0.03155
 C79 C 0.70112 0.56472 0.00198
 C80 C 0.80061 0.50054 -0.06439
 C81 C 0.69939 0.43677 0.00058
 C82 C 0.80254 0.49940 0.06312
 C83 C -0.01693 0.28597 0.47103
 H84 H -0.03027 0.28659 0.48443
 C85 C -0.01752 0.30174 0.45239
 H86 H -0.03129 0.31460 0.45238
 C87 C 0.01796 0.26934 0.45665
 H88 H 0.03190 0.25684 0.45848
 C89 C 0.01813 0.28481 0.43772
 H90 H 0.03193 0.28293 0.42496
 N91 N 0.00054 0.27011 0.47277
 C92 C -0.02726 0.21443 0.51732
 H93 H -0.01395 0.21392 0.53059
 C94 C -0.04579 0.19853 0.51814
 H95 H -0.04653 0.18569 0.53207
 C96 C -0.04181 0.23124 0.48250
 H97 H -0.04002 0.24377 0.46845
 C98 C -0.06062 0.21563 0.48263
 H99 H -0.07339 0.21666 0.46884
 Zn100 Zn 0.00066 0.25052 0.49946
 N101 N -0.02569 0.23047 0.49979
 C102 C -0.01666 0.26906 0.54224
 N103 N 0.00050 0.27034 0.52579
 C104 C 0.01769 0.28673 0.52702
 C105 C 0.01831 0.30248 0.54553
 C106 C -0.01670 0.28448 0.56108
 C107 C 0.02945 0.21508 0.48236
 C108 C 0.04835 0.19977 0.48194
 C109 C 0.06258 0.21771 0.51719
 C110 C 0.04342 0.23270 0.51692
 N111 N 0.02742 0.23124 0.49957
 H112 H -0.03051 0.25632 0.54065
 H113 H 0.03094 0.28754 0.51353
 H114 H 0.03233 0.31519 0.54633
 H115 H -0.03067 0.28343 0.57383
 H116 H 0.01623 0.21401 0.46903
 H117 H 0.04947 0.18681 0.46827
 H118 H 0.07525 0.21929 0.53103
 H119 H 0.04126 0.24529 0.53074
 C120 C -0.06277 0.19896 0.50060
 C121 C 0.00025 0.30158 0.43521
 C122 C 0.06522 0.20093 0.49956
 C123 C 0.00093 0.30152 0.56286
 C124 C 0.98103 0.71495 0.52885
 H125 H 0.96769 0.71385 0.51564
 C126 C 0.98049 0.69965 0.54789
 H127 H 0.96670 0.68669 0.54913
 C128 C 1.01579 0.73254 0.54260
 H129 H 1.02973 0.74510 0.54029
 C130 C 1.01593 0.71756 0.56191
 H131 H 1.02981 0.71911 0.57453
 N132 N 0.99841 0.73107 0.52662
 C133 C 0.97030 0.78551 0.48138
 H134 H 0.98352 0.78592 0.46785
 C135 C 0.95181 0.80131 0.48071
 H136 H 0.95100 0.81395 0.46662
 C137 C 0.95602 0.76918 0.51676
 H138 H 0.95792 0.75692 0.53099
 C139 C 0.93725 0.78468 0.51679
 H140 H 0.92462 0.78382 0.53087
 Zn141 Zn 0.99849 0.75013 0.49954
 N142 N 0.97201 0.76979 0.49915
 C143 C 0.98138 0.73042 0.45735
 N144 N 0.99856 0.72979 0.47359
 C145 C 1.01586 0.71363 0.47251
 C146 C 1.01654 0.69741 0.45440
 C147 C 0.98139 0.71451 0.43891
 C148 C 1.02678 0.78629 0.51588
 C149 C 1.04564 0.80178 0.51619
 C150 C 1.06059 0.78342 0.48133
 C151 C 1.04143 0.76824 0.48171
 N152 N 1.02511 0.76981 0.49894
 H153 H 0.96745 0.74299 0.45883
 H154 H 1.02913 0.71333 0.48583
 H155 H 1.03063 0.68488 0.45372
 H156 H 0.96738 0.71504 0.42635
 H157 H 1.01331 0.78743 0.52911
 H158 H 1.04648 0.81495 0.52968
 H159 H 1.07353 0.78174 0.46763
 H160 H 1.03956 0.75537 0.46811
 C161 C 0.93501 0.80109 0.49864
 C162 C 0.99815 0.70079 0.56471
 C163 C 1.06288 0.80046 0.49875
 C164 C 0.99910 0.69767 0.43731
 C165 C 0.47182 -0.01838 0.28679
 H166 H 0.48529 -0.03153 0.28799
 C167 C 0.45294 -0.01893 0.30225
 H168 H 0.45208 -0.03252 0.31545
 C169 C 0.45724 0.01589 0.26869
 H170 H 0.45916 0.02965 0.25585
 C171 C 0.43808 0.01603 0.28383
 H172 H 0.42517 0.02970 0.28213
 N173 N 0.47356 -0.00124 0.27034
 C174 C 0.51875 -0.02977 0.21630
 H175 H 0.53202 -0.01625 0.21562
 C176 C 0.51989 -0.04864 0.20100
 H177 H 0.53478 -0.04949 0.18940
 C178 C 0.48409 -0.04474 0.23331
 H179 H 0.46982 -0.04283 0.24551
 C180 C 0.48451 -0.06397 0.21835
 H181 H 0.47005 -0.07612 0.21936
 Zn182 Zn 0.50039 -0.00114 0.25098
 N183 N 0.50113 -0.02819 0.23210
 C184 C 0.54281 -0.01753 0.27049
 N185 N 0.52664 -0.00017 0.27080
 C186 C 0.52803 0.01770 0.28630
 C187 C 0.54635 0.01875 0.30219
 C188 C 0.56141 -0.01719 0.28609
 C189 C 0.48300 0.02560 0.21432
 C190 C 0.48225 0.04370 0.19794
 C191 C 0.51703 0.06012 0.21505
 C192 C 0.51712 0.04166 0.23113
 N193 N 0.50017 0.02495 0.23055
 H194 H 0.54116 -0.03187 0.25841
 H195 H 0.51468 0.03103 0.28648
 H196 H 0.54690 0.03291 0.31465
 H197 H 0.57418 -0.03108 0.28546
 H198 H 0.46992 0.01191 0.21408
 H199 H 0.46828 0.04401 0.18534
 H200 H 0.53087 0.07304 0.21552
 H201 H 0.53095 0.04053 0.24377
 C202 C 0.50253 -0.06627 0.20159
 C203 C 0.43577 -0.00152 0.30093
 C204 C 0.49948 0.06124 0.19810
 C205 C 0.56331 0.00108 0.30229
 C206 C 0.52405 -0.01907 0.71460
 H207 H 0.51057 -0.03237 0.71441
 C208 C 0.54233 -0.01991 0.69847
 H209 H 0.54299 -0.03416 0.68611
 C210 C 0.53938 0.01571 0.73098
 H211 H 0.53790 0.02984 0.74333
 C212 C 0.55799 0.01554 0.71515
 H213 H 0.57067 0.02962 0.71552
 N214 N 0.52295 -0.00152 0.73050
 C215 C 0.47910 -0.02891 0.78674
 H216 H 0.46598 -0.01537 0.78745
 C217 C 0.47829 -0.04749 0.80260
 H218 H 0.46424 -0.04830 0.81528
 C219 C 0.51336 -0.04412 0.76929
 H220 H 0.52727 -0.04248 0.75662
 C221 C 0.51322 -0.06302 0.78483
 H222 H 0.52711 -0.07576 0.78393
 Zn223 Zn 0.49668 -0.00104 0.75062
 N224 N 0.49636 -0.02761 0.77044
 C225 C 0.45355 -0.01797 0.73288
 N226 N 0.46992 -0.00071 0.73148
 C227 C 0.46833 0.01674 0.71538
 C228 C 0.44954 0.01749 0.70003
 C229 C 0.43448 -0.01791 0.71785
 C230 C 0.51501 0.02715 0.78575
 C231 C 0.51597 0.04577 0.80140
 C232 C 0.48047 0.06086 0.78470
 C233 C 0.48021 0.04196 0.76934
 N234 N 0.49740 0.02564 0.77006
 H235 H 0.45535 -0.03197 0.74543
 H236 H 0.48184 0.02998 0.71434
 H237 H 0.44881 0.03133 0.68711
 H238 H 0.42153 -0.03169 0.71934
 H239 H 0.52820 0.01368 0.78625
 H240 H 0.52992 0.04641 0.81401
 H241 H 0.46673 0.07376 0.78375
 H242 H 0.46609 0.04021 0.75710
 C243 C 0.49556 -0.06483 0.80184
 C244 C 0.55959 -0.00239 0.69853
 C245 C 0.49848 0.06291 0.80107
 C246 C 0.43232 -0.00004 0.70110
 Si247 Si 0.24918 0.00088 0.50068
 Si248 Si 0.74884 0.00033 0.50103
 Si249 Si 0.49951 0.24980 0.99947
 Si250 Si 0.50259 0.75000 0.00281
 Si251 Si 1.00138 0.50089 0.24860
 Si252 Si 0.00076 0.49901 0.74956
 C253 C 0.11476 0.16201 0.47917
 C254 C 0.12193 0.15195 0.50022
 C255 C 0.11090 0.15822 0.52109
 C256 C 0.09263 0.17434 0.52091
 C257 C 0.08511 0.18438 0.49982
 C258 C 0.09647 0.17812 0.47895
 C259 C 0.14008 0.13463 0.50034
 C260 C 0.15494 0.11978 0.50051
 C261 C 0.17190 0.10197 0.50075
 C262 C 0.18598 0.08637 0.50098
 C263 C 0.20223 0.06725 0.50126
 C264 C 0.20484 0.05376 0.52151
 C265 C 0.21945 0.03425 0.52140
 C266 C 0.23156 0.02808 0.50103
 C267 C 0.22925 0.04186 0.48089
 C268 C 0.21462 0.06139 0.48101
 H269 H 0.12318 0.15727 0.46291
 H270 H 0.11622 0.15043 0.53746
 H271 H 0.08403 0.17853 0.53722
 H272 H 0.09129 0.18576 0.46248
 H273 H 0.19525 0.05807 0.53724
 H274 H 0.22094 0.02371 0.53705
 H275 H 0.23824 0.03728 0.46492
 H276 H 0.21263 0.07163 0.46520
 C277 C 0.64506 0.59908 0.00886
 C278 C 0.65228 0.62163 0.00242
 C279 C 0.67552 0.62567 -0.00408
 C280 C 0.69146 0.60720 -0.00419
 C281 C 0.68434 0.58445 0.00225
 C282 C 0.66094 0.58062 0.00878
 C283 C 0.63568 0.64044 0.00238
 C284 C 0.62126 0.65573 0.00245
 C285 C 0.60378 0.67303 0.00266
 C286 C 0.58831 0.68724 0.00297
 C287 C 0.56918 0.70345 0.00349
 C288 C 0.56555 0.71889 -0.01517
 C289 C 0.54597 0.73342 -0.01531
 C290 C 0.52978 0.73240 0.00311
 C291 C 0.53392 0.71747 0.02211
 C292 C 0.55347 0.70299 0.02225
 H293 H 0.62709 0.59574 0.01383
 H294 H 0.68130 0.64308 -0.00906
 H295 H 0.70941 0.61076 -0.00906
 H296 H 0.65482 0.56326 0.01347
 H297 H 0.57765 0.71944 -0.02975
 H298 H 0.54342 0.74511 -0.02993
 H299 H 0.52171 0.71663 0.03658
 H300 H 0.55609 0.69112 0.03678
 C301 C 0.88661 -0.15885 0.47787
 C302 C 0.87985 -0.14812 0.49873
 C303 C 0.89082 -0.15427 0.51959
 C304 C 0.90859 -0.17095 0.51961
 C305 C 0.91566 -0.18170 0.49871
 C306 C 0.90439 -0.17553 0.47784
 C307 C 0.86207 -0.13041 0.49867
 C308 C 0.84742 -0.11534 0.49870
 C309 C 0.83055 -0.09743 0.49881
 C310 C 0.81639 -0.08190 0.49895
 C311 C 0.79979 -0.06306 0.49914
 C312 C 0.78357 -0.06120 0.51739
 C313 C 0.76796 -0.04246 0.51793
 C314 C 0.76839 -0.02552 0.50015
 C315 C 0.78468 -0.02744 0.48193
 C316 C 0.80027 -0.04617 0.48139
 H317 H 0.87822 -0.15423 0.46162
 H318 H 0.88581 -0.14600 0.53582
 H319 H 0.91713 -0.17506 0.53589
 H320 H 0.90923 -0.18369 0.46153
 H321 H 0.78317 -0.07407 0.53132
 H322 H 0.75589 -0.04112 0.53241
 H323 H 0.78544 -0.01435 0.46822
 H324 H 0.81283 -0.04735 0.46726
 C325 C 0.34536 0.39213 0.97762
 C326 C 0.35174 0.38149 0.99865
 C327 C 0.34135 0.38869 1.01955
 C328 C 0.32480 0.40660 1.01947
 C329 C 0.31842 0.41755 0.99843
 C330 C 0.32881 0.41002 0.97749
 C331 C 0.36935 0.36361 0.99882
 C332 C 0.38435 0.34889 0.99890
 C333 C 0.40218 0.33193 0.99892
 C334 C 0.41765 0.31771 0.99887
 C335 C 0.43641 0.30104 0.99876
 C336 C 0.43851 0.28474 1.01693
 C337 C 0.45716 0.26904 1.01712
 C338 C 0.47377 0.26946 0.99907
 C339 C 0.47162 0.28585 0.98094
 C340 C 0.45298 0.30152 0.98074
 H341 H 0.35338 0.38678 0.96136
 H342 H 0.34614 0.38056 1.03593
 H343 H 0.31691 0.41179 1.03583
 H344 H 0.32453 0.41832 0.96106
 H345 H 0.42588 0.28433 1.03105
 H346 H 0.45868 0.25690 1.03154
 H347 H 0.48446 0.28661 0.96702
 H348 H 0.45162 0.31414 0.96666
 C349 C 0.89229 0.15467 0.48028
 C350 C 0.88152 0.14834 0.50135
 C351 C 0.88866 0.15883 0.52214
 C352 C 0.90663 0.17545 0.52190
 C353 C 0.91770 0.18180 0.50082
 C354 C 0.91024 0.17129 0.47999
 C355 C 0.86353 0.13070 0.50169
 C356 C 0.84869 0.11570 0.50193
 C357 C 0.83158 0.09787 0.50215
 C358 C 0.81721 0.08241 0.50228
 C359 C 0.80037 0.06366 0.50235
 C360 C 0.80052 0.04690 0.52023
 C361 C 0.78473 0.02821 0.51989
 C362 C 0.76856 0.02620 0.50176
 C363 C 0.76844 0.04303 0.48387
 C364 C 0.78425 0.06172 0.48421
 H365 H 0.88697 0.14658 0.46410
 H366 H 0.88043 0.15407 0.53855
 H367 H 0.91177 0.18343 0.53817
 H368 H 0.91862 0.17555 0.46353
 H369 H 0.81301 0.04813 0.53428
 H370 H 0.78526 0.01520 0.53368
 H371 H 0.75648 0.04162 0.46945
 H372 H 0.78410 0.07449 0.47019
 C373 C 0.32849 0.62556 0.00172
 C374 C 0.35177 0.62121 -0.00423
 C375 C 0.35864 0.59859 -0.01039
 C376 C 0.34236 0.58034 -0.01052
 C377 C 0.31892 0.58446 -0.00449
 C378 C 0.31215 0.60730 0.00161
 C379 C 0.36885 0.63973 -0.00369
 C380 C 0.38370 0.65471 -0.00319
 C381 C 0.40176 0.67154 -0.00255
 C382 C 0.41777 0.68525 -0.00193
 C383 C 0.43760 0.70072 -0.00109
 C384 C 0.46007 0.69126 -0.00115
 C385 C 0.47953 0.70596 -0.00005
 C386 C 0.47674 0.73029 0.00134
 C387 C 0.45420 0.73977 0.00094
 C388 C 0.43468 0.72503 -0.00015
 H389 H 0.32299 0.64302 0.00651
 H390 H 0.37664 0.59500 -0.01491
 H391 H 0.34821 0.56291 -0.01493
 H392 H 0.29420 0.61108 0.00609
 H393 H 0.46254 0.67250 -0.00206
 H394 H 0.49665 0.69815 -0.00039
 H395 H 0.45173 0.75854 0.00162
 H396 H 0.41738 0.73255 -0.00022
 C397 C 0.10915 -0.15671 0.47735
 C398 C 0.11964 -0.15013 0.49830
 C399 C 0.11198 -0.16009 0.51934
 C400 C 0.09372 -0.17638 0.51947
 C401 C 0.08286 -0.18291 0.49853
 C402 C 0.09090 -0.17301 0.47743
 C403 C 0.13762 -0.13249 0.49832
 C404 C 0.15230 -0.11733 0.49842
 C405 C 0.16898 -0.09911 0.49863
 C406 C 0.18275 -0.08312 0.49888
 C407 C 0.19855 -0.06350 0.49924
 C408 C 0.22270 -0.06696 0.49892
 C409 C 0.23785 -0.04771 0.49935
 C410 C 0.22899 -0.02485 0.50023
 C411 C 0.20475 -0.02154 0.50033
 C412 C 0.18964 -0.04075 0.49990
 H413 H 0.11485 -0.14899 0.46098
 H414 H 0.11997 -0.15512 0.53566
 H415 H 0.08814 -0.18392 0.53595
 H416 H 0.08270 -0.17743 0.46107
 H417 H 0.22981 -0.08449 0.49830
 H418 H 0.25649 -0.05064 0.49890
 H419 H 0.19733 -0.00419 0.50067
 H420 H 0.17098 -0.03786 0.50005
 C421 C 0.65878 0.38865 0.97980
 C422 C 0.64856 0.38123 1.00079
 C423 C 0.65529 0.39160 1.02178
 C424 C 0.67203 0.40946 1.02176
 C425 C 0.68222 0.41723 1.00071
 C426 C 0.67550 0.40652 0.97974
 C427 C 0.63073 0.36342 1.00074
 C428 C 0.61556 0.34876 1.00068
 C429 C 0.59753 0.33188 1.00059
 C430 C 0.58189 0.31771 1.00053
 C431 C 0.56295 0.30110 1.00050
 C432 C 0.54629 0.30140 1.01843
 C433 C 0.52752 0.28575 1.01811
 C434 C 0.52532 0.26955 0.99994
 C435 C 0.54200 0.26933 0.98196
 C436 C 0.56079 0.28502 0.98228
 H437 H 0.65371 0.38072 0.96345
 H438 H 0.64741 0.38606 1.03812
 H439 H 0.67659 0.41756 1.03816
 H440 H 0.68324 0.41190 0.96329
 H441 H 0.54770 0.31386 1.03254
 H442 H 0.51463 0.28635 1.03198
 H443 H 0.54045 0.25734 0.96752
 H444 H 0.57349 0.28475 0.96821
 C445 C 0.49357 0.09329 1.14035
 C446 C 0.49920 0.11625 1.14665
 C447 C 0.50494 0.12129 1.16978
 C448 C 0.50505 0.10343 1.18656
 C449 C 0.49937 0.08029 1.18039
 C450 C 0.49365 0.07544 1.15707
 C451 C 0.49914 0.13451 1.12928
 C452 C 0.49904 0.14951 1.11443
 C453 C 0.49888 0.16674 1.09671
 C454 C 0.49873 0.18117 1.08132
 C455 C 0.49857 0.19806 1.06262
 C456 C 0.51677 0.21434 1.06031
 C457 C 0.51700 0.23020 1.04166
 C458 C 0.49896 0.22997 1.02525
 C459 C 0.48078 0.21362 1.02763
 C460 C 0.48055 0.19778 1.04627
 H461 H 0.48919 0.08917 1.12247
 H462 H 0.50930 0.13901 1.17485
 H463 H 0.50928 0.10777 1.20440
 H464 H 0.48955 0.05776 1.15168
 H465 H 0.53090 0.21458 1.07275
 H466 H 0.53146 0.24229 1.03996
 H467 H 0.46688 0.21300 1.01495
 H468 H 0.46646 0.18517 1.04779
 C469 C 0.01948 0.65763 0.61027
 C470 C -0.00142 0.65116 0.62129
 C471 C -0.02240 0.66133 0.61425
 C472 C -0.02253 0.67771 0.59606
 C473 C -0.00165 0.68412 0.58466
 C474 C 0.01939 0.67401 0.59209
 C475 C -0.00140 0.63341 0.63917
 C476 C -0.00131 0.61813 0.65374
 C477 C -0.00113 0.59977 0.67027
 C478 C -0.00090 0.58365 0.68389
 C479 C -0.00056 0.56387 0.69951
 C480 C 0.00021 0.54122 0.69039
 C481 C 0.00061 0.52186 0.70533
 C482 C 0.00036 0.52493 0.72960
 C483 C -0.00062 0.54770 0.73867
 C484 C -0.00102 0.56710 0.72370
 H485 H 0.03580 0.64975 0.61548
 H486 H -0.03868 0.65643 0.62266
 H487 H -0.03896 0.68540 0.59094
 H488 H 0.03571 0.67832 0.58346
 H489 H 0.00047 0.53852 0.67170
 H490 H 0.00103 0.50458 0.69775
 H491 H -0.00118 0.55045 0.75734
 H492 H -0.00173 0.58455 0.73096
 C493 C 0.48987 0.90171 -0.14110
 C494 C 0.49586 0.87903 -0.14794
 C495 C 0.50162 0.87459 -0.17125
 C496 C 0.50144 0.89280 -0.18765
 C497 C 0.49548 0.91568 -0.18092
 C498 C 0.48967 0.91991 -0.15744
 C499 C 0.49642 0.86055 -0.13082
 C500 C 0.49691 0.84559 -0.11594
 C501 C 0.49753 0.82876 -0.09787
 C502 C 0.49812 0.81503 -0.08186
 C503 C 0.49892 0.79951 -0.06206
 C504 C 0.49974 0.77520 -0.06504
 C505 C 0.50077 0.76040 -0.04555
 C506 C 0.50122 0.76981 -0.02300
 C507 C 0.49997 0.79415 -0.02014
 C508 C 0.49892 0.80890 -0.03957
 H509 H 0.48550 0.90537 -0.12308
 H510 H 0.50628 0.85710 -0.17673
 H511 H 0.50576 0.88895 -0.20563
 H512 H 0.48537 0.93737 -0.15161
 H513 H 0.49961 0.76773 -0.08236
 H514 H 0.50134 0.74164 -0.04807
 H515 H 0.49968 0.80190 -0.00300
 H516 H 0.49811 0.82767 -0.03705
 C517 C 0.97979 0.34539 0.39087
 C518 C 1.00074 0.35162 0.37995
 C519 C 1.02147 0.34099 0.38688
 C520 C 1.02134 0.32435 0.40482
 C521 C 1.00035 0.31797 0.41641
 C522 C 0.97953 0.32879 0.40884
 C523 C 1.00105 0.36938 0.36206
 C524 C 1.00131 0.38450 0.34734
 C525 C 1.00159 0.40250 0.33041
 C526 C 1.00181 0.41812 0.31621
 C527 C 1.00204 0.43706 0.29957
 C528 C 1.01998 0.45375 0.30002
 C529 C 1.01981 0.47260 0.28442
 C530 C 1.00181 0.47485 0.26813
 C531 C 0.98386 0.45811 0.26773
 C532 C 0.98402 0.43925 0.28336
 H533 H 0.96357 0.35339 0.38550
 H534 H 1.03786 0.34586 0.37866
 H535 H 1.03802 0.31749 0.41015
 H536 H 0.96273 0.32407 0.41615
 H537 H 1.03393 0.45232 0.31259
 H538 H 1.03365 0.48554 0.28517
 H539 H 0.96953 0.45970 0.25568
 H540 H 0.96995 0.42654 0.28298
 C541 C 0.51472 0.89807 0.14811
 C542 C 0.50316 0.87718 0.15349
 C543 C 0.49160 0.87476 0.17487
 C544 C 0.49146 0.89324 0.19079
 C545 C 0.50295 0.91467 0.18566
 C546 C 0.51467 0.91658 0.16392
 C547 C 0.50288 0.85849 0.13676
 C548 C 0.50278 0.84333 0.12221
 C549 C 0.50284 0.82620 0.10457
 C550 C 0.50304 0.81214 0.08896
 C551 C 0.50345 0.79611 0.06969
 C552 C 0.48474 0.78077 0.06597
 C553 C 0.48454 0.76640 0.04628
 C554 C 0.50294 0.76748 0.03007
 C555 C 0.52198 0.78231 0.03429
 C556 C 0.52219 0.79664 0.05394
 H557 H 0.52354 0.90021 0.13146
 H558 H 0.48271 0.85856 0.17929
 H559 H 0.48293 0.89018 0.20738
 H560 H 0.52302 0.93266 0.15835
 H561 H 0.47018 0.78017 0.07808
 H562 H 0.46988 0.75477 0.04367
 H563 H 0.53644 0.78319 0.02207
 H564 H 0.53676 0.80843 0.05664
 C565 C -0.00481 0.32727 0.62358
 C566 C 0.00109 0.35072 0.61937
 C567 C 0.00691 0.35806 0.59677
 C568 C 0.00686 0.34207 0.57842
 C569 C 0.00098 0.31845 0.58243
 C570 C -0.00488 0.31123 0.60522
 C571 C 0.00109 0.36738 0.63811
 C572 C 0.00116 0.38177 0.65342
 C573 C 0.00131 0.39912 0.67084
 C574 C 0.00148 0.41440 0.68525
 C575 C 0.00169 0.43321 0.70186
 C576 C 0.02192 0.44664 0.70478
 C577 C 0.02172 0.46595 0.71964
 C578 C 0.00127 0.47198 0.73168
 C579 C -0.01885 0.45823 0.72908
 C580 C -0.01864 0.43891 0.71420
 H581 H -0.00931 0.32140 0.64103
 H582 H 0.01140 0.37619 0.59330
 H583 H 0.01111 0.34826 0.56103
 H584 H -0.00923 0.29312 0.60891
 H585 H 0.03771 0.44247 0.69522
 H586 H 0.03736 0.47648 0.72136
 H587 H -0.03488 0.46271 0.73802
 H588 H -0.03443 0.42872 0.71196
 C589 C 0.52009 0.11127 0.84081
 C590 C 0.49932 0.11842 0.85148
 C591 C 0.47823 0.10776 0.84536
 C592 C 0.47791 0.08990 0.82878
 C593 C 0.49873 0.08242 0.81811
 C594 C 0.51982 0.09340 0.82423
 C595 C 0.49968 0.13626 0.86912
 C596 C 0.49993 0.15095 0.88414
 C597 C 0.50016 0.16788 0.90199
 C598 C 0.50031 0.18208 0.91747
 C599 C 0.50044 0.19873 0.93624
 C600 C 0.48231 0.21492 0.93852
 C601 C 0.48206 0.23057 0.95720
 C602 C 0.50004 0.23022 0.97368
 C603 C 0.51815 0.21397 0.97134
 C604 C 0.51840 0.19834 0.95267
 H605 H 0.53652 0.11941 0.84540
 H606 H 0.46205 0.11307 0.85360
 H607 H 0.46144 0.08159 0.82471
 H608 H 0.53610 0.08823 0.81612
 H609 H 0.46823 0.21525 0.92601
 H610 H 0.46765 0.24260 0.95886
 H611 H 0.53200 0.21326 0.98407
 H612 H 0.53244 0.18580 0.95117
 C613 C 0.99318 0.67011 0.37745
 C614 C 0.99922 0.64687 0.38218
 C615 C 1.00522 0.64024 0.40488
 C616 C 1.00520 0.65675 0.42277
 C617 C 0.99917 0.68017 0.41822
 C618 C 0.99313 0.68667 0.39534
 C619 C 0.99919 0.62971 0.36388
 C620 C 0.99923 0.61505 0.34883
 C621 C 0.99932 0.59753 0.33155
 C622 C 0.99942 0.58228 0.31709
 C623 C 0.99954 0.56373 0.30020
 C624 C 0.98166 0.54697 0.30035
 C625 C 0.98218 0.52844 0.28455
 C626 C 1.00049 0.52656 0.26836
 C627 C 1.01839 0.54338 0.26824
 C628 C 1.01787 0.56193 0.28407
 H629 H 0.98854 0.67544 0.35993
 H630 H 1.00983 0.62227 0.40876
 H631 H 1.00958 0.65111 0.44025
 H632 H 0.98866 0.70461 0.39123
 H633 H 0.96747 0.54809 0.31285
 H634 H 0.96838 0.51544 0.28508
 H635 H 1.03294 0.54207 0.25625
 H636 H 1.03190 0.57469 0.28392
 C637 C 1.15582 0.52351 0.10524
 C638 C 1.14971 0.50270 0.11662
 C639 C 1.16035 0.48178 0.11007
 C640 C 1.17689 0.48157 0.09206
 C641 C 1.18315 0.50240 0.08003
 C642 C 1.17231 0.52343 0.08720
 C643 C 1.13210 0.50273 0.13461
 C644 C 1.11709 0.50275 0.14942
 C645 C 1.09924 0.50275 0.16647
 C646 C 1.08374 0.50273 0.18076
 C647 C 1.06494 0.50266 0.19750
 C648 C 1.06268 0.48428 0.21360
 C649 C 1.04391 0.48380 0.22929
 C650 C 1.02734 0.50179 0.22906
 C651 C 1.02967 0.52016 0.21291
 C652 C 1.04842 0.52064 0.19724
 H653 H 1.14781 0.53988 0.11031
 H654 H 1.15558 0.46549 0.11864
 H655 H 1.18377 0.46474 0.08705
 H656 H 1.17694 0.54014 0.07954
 H657 H 1.07525 0.47018 0.21383
 H658 H 1.04226 0.46920 0.24125
 H659 H 1.01686 0.53402 0.21229
 H660 H 1.04990 0.53487 0.18476
 C661 C 0.61963 0.00377 0.67075
 C662 C 0.61499 -0.00240 0.64764
 C663 C 0.59232 -0.00866 0.64120
 C664 C 0.57435 -0.00873 0.65776
 C665 C 0.57879 -0.00253 0.68103
 C666 C 0.60166 0.00372 0.68735
 C667 C 0.63335 -0.00216 0.63041
 C668 C 0.64844 -0.00198 0.61569
 C669 C 0.66577 -0.00181 0.59810
 C670 C 0.68026 -0.00169 0.58278
 C671 C 0.69719 -0.00157 0.56415
 C672 C 0.69694 -0.01939 0.54748
 C673 C 0.71277 -0.01887 0.52886
 C674 C 0.72908 -0.00062 0.52683
 C675 C 0.72931 0.01722 0.54356
 C676 C 0.71345 0.01670 0.56219
 H677 H 0.63713 0.00861 0.67593
 H678 H 0.58851 -0.01337 0.62334
 H679 H 0.55689 -0.01328 0.65225
 H680 H 0.60569 0.00832 0.70518
 H681 H 0.68434 -0.03354 0.54872
 H682 H 0.71216 -0.03262 0.51593
 H683 H 0.74139 0.03173 0.54213
 H684 H 0.71367 0.03068 0.57489
 C685 C -0.15975 0.52121 0.88634
 C686 C -0.14980 0.50011 0.87909
 C687 C -0.15642 0.47911 0.88995
 C688 C -0.17276 0.47920 0.90813
 C689 C -0.18268 0.50035 0.91573
 C690 C -0.17609 0.52135 0.90453
 C691 C -0.13223 0.50007 0.86108
 C692 C -0.11718 0.49993 0.84632
 C693 C -0.09917 0.49967 0.82946
 C694 C -0.08344 0.49935 0.81543
 C695 C -0.06423 0.49884 0.79918
 C696 C -0.04727 0.48143 0.80114
 C697 C -0.02809 0.48137 0.78601
 C698 C -0.02555 0.49881 0.76887
 C699 C -0.04295 0.51587 0.76658
 C700 C -0.06215 0.51595 0.78174
 H701 H -0.15474 0.53757 0.87805
 H702 H -0.14872 0.46270 0.88457
 H703 H -0.17721 0.46280 0.91660
 H704 H -0.18363 0.53786 0.90979
 H705 H -0.04877 0.46800 0.81447
 H706 H -0.01532 0.46767 0.78781
 H707 H -0.04186 0.52916 0.75316
 H708 H -0.07527 0.52941 0.77995
 C709 C 0.38678 -0.02227 0.34089
 C710 C 0.37931 -0.00114 0.35060
 C711 C 0.38994 0.01990 0.34373
 C712 C 0.40811 0.01981 0.32738
 C713 C 0.41592 -0.00136 0.31769
 C714 C 0.40496 -0.02240 0.32454
 C715 C 0.36127 -0.00107 0.36815
 C716 C 0.34648 -0.00089 0.38317
 C717 C 0.32956 -0.00055 0.40113
 C718 C 0.31549 -0.00014 0.41681
 C719 C 0.29917 0.00050 0.43595
 C720 C 0.30118 0.01791 0.45291
 C721 C 0.28595 0.01813 0.47201
 C722 C 0.26865 0.00085 0.47448
 C723 C 0.26631 -0.01622 0.45709
 C724 C 0.28157 -0.01645 0.43798
 H725 H 0.37867 -0.03865 0.34609
 H726 H 0.38438 0.03634 0.35124
 H727 H 0.41639 0.03626 0.32273
 H728 H 0.41039 -0.03894 0.31719
 H729 H 0.31463 0.03122 0.45145
 H730 H 0.28780 0.03183 0.48477
 H731 H 0.25278 -0.02939 0.45814
 H732 H 0.27974 -0.02991 0.42486
 C733 C 0.15749 0.52050 0.88781
 C734 C 0.15116 0.49935 0.87733
 C735 C 0.16135 0.47843 0.88479
 C736 C 0.17766 0.47861 0.90282
 C737 C 0.18398 0.49975 0.91363
 C738 C 0.17380 0.52072 0.90582
 C739 C 0.13368 0.49907 0.85943
 C740 C 0.11873 0.49886 0.84475
 C741 C 0.10086 0.49866 0.82795
 C742 C 0.08527 0.49851 0.81395
 C743 C 0.06624 0.49836 0.79772
 C744 C 0.05247 0.47826 0.79529
 C745 C 0.03324 0.47846 0.78045
 C746 C 0.02739 0.49884 0.76808
 C747 C 0.04175 0.51870 0.76996
 C748 C 0.06099 0.51850 0.78482
 H749 H 0.14961 0.53678 0.88225
 H750 H 0.15658 0.46196 0.87680
 H751 H 0.18539 0.46222 0.90824
 H752 H 0.17805 0.53723 0.91399
 H753 H 0.05650 0.46248 0.80499
 H754 H 0.02303 0.46263 0.77861
 H755 H 0.03816 0.53446 0.76023
 H756 H 0.07163 0.53411 0.78643
 C757 C 0.60727 -0.01914 0.34722
 C758 C 0.61804 0.00200 0.35321
 C759 C 0.61119 0.02282 0.34232
 C760 C 0.59353 0.02253 0.32562
 C761 C 0.58248 0.00138 0.31958
 C762 C 0.58963 -0.01947 0.33052
 C763 C 0.63574 0.00234 0.37090
 C764 C 0.65035 0.00249 0.38592
 C765 C 0.66718 0.00253 0.40377
 C766 C 0.68133 0.00246 0.41923
 C767 C 0.69792 0.00229 0.43796
 C768 C 0.69757 0.02006 0.45468
 C769 C 0.71315 0.01950 0.47331
 C770 C 0.72931 0.00126 0.47531
 C771 C 0.72960 -0.01654 0.45854
 C772 C 0.71400 -0.01599 0.43990
 H773 H 0.61236 -0.03534 0.35563
 H774 H 0.61942 0.03928 0.34682
 H775 H 0.58861 0.03882 0.31731
 H776 H 0.58125 -0.03597 0.32652
 H777 H 0.68511 0.03421 0.45344
 H778 H 0.71249 0.03323 0.48626
 H779 H 0.74156 -0.03105 0.45994
 H780 H 0.71430 -0.02993 0.42717
 C781 C 0.84727 0.52041 0.10692
 C782 C 0.85357 0.49939 0.11775
 C783 C 0.84294 0.47841 0.11102
 C784 C 0.82619 0.47841 0.09340
 C785 C 0.81986 0.49943 0.08227
 C786 C 0.83052 0.52045 0.08931
 C787 C 0.87132 0.49932 0.13539
 C788 C 0.88639 0.49931 0.14995
 C789 C 0.90428 0.49936 0.16673
 C790 C 0.91977 0.49943 0.18084
 C791 C 0.93852 0.49953 0.19740
 C792 C 0.95522 0.48174 0.19696
 C793 C 0.97382 0.48214 0.21259
 C794 C 0.97579 0.50026 0.22889
 C795 C 0.95907 0.51810 0.22925
 C796 C 0.94046 0.51770 0.21360
 H797 H 0.85547 0.53673 0.11192
 H798 H 0.84768 0.46204 0.11930
 H799 H 0.81810 0.46199 0.08857
 H800 H 0.82628 0.53687 0.08088
 H801 H 0.95398 0.46767 0.18442
 H802 H 0.98674 0.46839 0.21188
 H803 H 0.96045 0.53251 0.24132
 H804 H 0.92774 0.53165 0.21397
 C805 C 0.38369 0.02125 0.66179
 C806 C 0.37625 0.00029 0.65166
 C807 C 0.38675 -0.02083 0.65807
 C808 C 0.40478 -0.02098 0.67436
 C809 C 0.41259 0.00002 0.68445
 C810 C 0.40173 0.02114 0.67808
 C811 C 0.35839 0.00053 0.63415
 C812 C 0.34375 0.00071 0.61915
 C813 C 0.32702 0.00091 0.60121
 C814 C 0.31311 0.00108 0.58555
 C815 C 0.29698 0.00129 0.56642
 C816 C 0.28400 -0.01877 0.56114
 C817 C 0.26925 -0.01891 0.54181
 C818 C 0.26756 0.00095 0.52741
 C819 C 0.28001 0.02125 0.53329
 C820 C 0.29474 0.02139 0.55261
 H821 H 0.37568 0.03770 0.65696
 H822 H 0.38122 -0.03714 0.65024
 H823 H 0.41299 -0.03748 0.67864
 H824 H 0.40715 0.03755 0.68575
 H825 H 0.28546 -0.03439 0.57182
 H826 H 0.25945 -0.03462 0.53818
 H827 H 0.27833 0.03709 0.52304
 H828 H 0.30451 0.03711 0.55666
   
