data_POSCAR
  _audit_creation_date              2014-09-24
  _audit_creation_method            'ToBaCCo'
  _symmetry_space_group_name_H-M    'P1'
  _symmetry_Int_Tables_number       1
  _symmetry_cell_setting            triclinic
  loop_
  _symmetry_equiv_pos_as_xyz
 x,y,z
_cell_length_a 30.8512
_cell_length_b 34.8344
_cell_length_c 34.1336
_cell_angle_alpha 89.460400
_cell_angle_beta 89.798300
_cell_angle_gamma 88.905700
loop_
  _atom_site_label
  _atom_site_type_symbol
  _atom_site_fract_x
  _atom_site_fract_y
  _atom_site_fract_z
N1 N 0.12296 1.24654 0.13380
 N2 N 0.08937 1.23510 0.15426
 C3 C 0.05506 1.25812 0.14630
 C4 C 0.06777 1.28569 0.11957
 C5 C 0.11134 1.27772 0.11230
 H6 H 0.02287 1.25440 0.15828
 H7 H 0.13235 1.29201 0.09161
 Cu8 Cu 0.09134 1.18940 0.18722
 Cu9 Cu 0.17649 1.21626 0.13399
 Cu10 Cu 0.19347 1.15011 0.20485
 N11 N 0.10417 1.15385 0.23094
 N12 N 0.14332 1.14018 0.23924
 C13 C 0.14094 1.11757 0.27151
 C14 C 0.09795 1.11708 0.28364
 C15 C 0.07585 1.14041 0.25738
 H16 H 0.16806 1.10171 0.28409
 H17 H 0.04143 1.14695 0.25748
 N18 N 0.22772 1.15022 0.15638
 N19 N 0.21987 1.17547 0.12825
 C20 C 0.24396 1.16640 0.09665
 C21 C 0.26853 1.13396 0.10545
 C22 C 0.25769 1.12448 0.14374
 H23 H 0.24247 1.18144 0.06879
 H24 H 0.26852 1.09946 0.16025
 H25 H 0.14569 1.16026 0.16642
 H26 H 0.15394 1.20056 0.20098
 N27 N 0.85770 0.76370 0.14590
 N28 N 0.89167 0.76245 0.16907
 C29 C 0.91761 0.73275 0.15900
 C30 C 0.89920 0.71433 0.12787
 C31 C 0.86100 0.73456 0.12018
 H32 H 0.94882 0.72610 0.17198
 H33 H 0.83905 0.73018 0.09607
 Cu34 Cu 0.90237 0.80154 0.20757
 Cu35 Cu 0.81606 0.80669 0.14717
 Cu36 Cu 0.83185 0.87431 0.21953
 N37 N 0.90246 0.83254 0.25445
 N38 N 0.87407 0.86060 0.25986
 C39 C 0.88429 0.87953 0.29274
 C40 C 0.92162 0.86256 0.30823
 C41 C 0.93189 0.83271 0.28338
 H42 H 0.86795 0.90544 0.30260
 H43 H 0.96019 0.81395 0.28503
 N44 N 0.78516 0.87901 0.18049
 N45 N 0.77846 0.85295 0.15340
 C46 C 0.74723 0.86619 0.12894
 C47 C 0.73405 0.90236 0.14117
 C48 C 0.75865 0.90948 0.17384
 H49 H 0.73724 0.85193 0.10256
 H50 H 0.75880 0.93591 0.19019
 H51 H 0.85646 0.84646 0.17007
 H52 H 0.82535 0.81720 0.20616
 N53 N 0.82041 1.25439 -0.15685
 N54 N 0.84546 1.25933 -0.18766
 C55 C 0.87108 1.28947 -0.18182
 C56 C 0.86149 1.30457 -0.14558
 C57 C 0.82898 1.28177 -0.13042
 H58 H 0.89725 1.29784 -0.20108
 H59 H 0.81569 1.28275 -0.10108
 Cu60 Cu 0.84864 1.22200 -0.22905
 Cu61 Cu 0.78488 1.20862 -0.15082
 Cu62 Cu 0.79169 1.14198 -0.22660
 N63 N 0.86543 1.17838 -0.26069
 N64 N 0.84208 1.14723 -0.26087
 C65 C 0.86081 1.12132 -0.28497
 C66 C 0.89862 1.13699 -0.29978
 C67 C 0.90042 1.17317 -0.28375
 H68 H 0.84903 1.09266 -0.28943
 H69 H 0.92577 1.19389 -0.28791
 N70 N 0.75484 1.13526 -0.17978
 N71 N 0.75180 1.16041 -0.15108
 C72 C 0.72687 1.14568 -0.12230
 C73 C 0.71424 1.10944 -0.13335
 C74 C 0.73255 1.10381 -0.16978
 H75 H 0.72058 1.15922 -0.09443
 H76 H 0.73135 1.07792 -0.18696
 H77 H 0.82337 1.17255 -0.18494
 H78 H 0.77711 1.19818 -0.20904
 N79 N 0.15835 0.73771 -0.14078
 N80 N 0.13979 0.73671 -0.17534
 C81 C 0.10895 0.70996 -0.17497
 C82 C 0.10852 0.69283 -0.13838
 C83 C 0.14040 0.71098 -0.11734
 H84 H 0.08655 0.70512 -0.19864
 H85 H 0.14731 0.70736 -0.08647
 Cu86 Cu 0.15268 0.77445 -0.21528
 Cu87 Cu 0.19890 0.77798 -0.12730
 Cu88 Cu 0.22233 0.84495 -0.20083
 N89 N 0.15111 0.82043 -0.24740
 N90 N 0.17914 0.84795 -0.24271
 C91 C 0.16963 0.87688 -0.26801
 C92 C 0.13289 0.86700 -0.28877
 C93 C 0.12225 0.83104 -0.27498
 H94 H 0.18647 0.90382 -0.26928
 H95 H 0.09465 0.81432 -0.28345
 N96 N 0.24921 0.84534 -0.14830
 N97 N 0.23921 0.82076 -0.12009
 C98 C 0.25892 0.83122 -0.08684
 C99 C 0.28258 0.86365 -0.09444
 C100 C 0.27586 0.87186 -0.13373
 H101 H 0.25535 0.81707 -0.05871
 H102 H 0.28736 0.89650 -0.14991
 H103 H 0.17646 0.81947 -0.16682
 H104 H 0.22201 0.78750 -0.18272
 C105 C 0.45621 0.98088 -0.02006
 C106 C 0.47753 1.00102 0.00927
 C107 C 0.45344 1.02022 0.03820
 C108 C 0.40802 1.02010 0.03749
 C109 C 0.38685 0.99922 0.00838
 C110 C 0.41085 0.97920 -0.02028
 C111 C 0.52511 1.00234 0.00939
 C112 C 0.54619 1.03288 -0.00910
 C113 C 0.59156 1.03360 -0.01045
 C114 C 0.61577 1.00446 0.00868
 C115 C 0.59482 0.97426 0.02822
 C116 C 0.54945 0.97288 0.02758
 H117 H 0.47501 0.96601 -0.04234
 H118 H 0.47008 1.03596 0.06071
 H119 H 0.52724 1.05542 -0.02345
 H120 H 0.53300 0.94939 0.04200
 H121 H 0.35177 0.99867 0.00798
 H122 H 0.65086 1.00523 0.00825
 C123 C -0.06819 0.46128 0.97584
 C124 C -0.03303 0.47967 0.99318
 C125 C -0.00031 0.45770 1.01180
 C126 C -0.00306 0.41766 1.01404
 C127 C -0.03741 0.39953 0.99526
 C128 C -0.06964 0.42110 0.97562
 C129 C -0.02953 0.52178 0.99073
 C130 C -0.06142 0.54571 1.00779
 C131 C -0.05652 0.58565 1.00751
 C132 C -0.02135 0.60159 0.98727
 C133 C 0.01022 0.57799 0.96954
 C134 C 0.00666 0.53807 0.97234
 H135 H -0.09300 0.47811 0.96076
 H136 H 0.02669 0.47188 1.02537
 H137 H -0.08862 0.53316 1.02310
 H138 H 0.03144 0.51966 0.95939
 H139 H -0.03881 0.36847 0.99534
 H140 H -0.01785 0.63249 0.98631
 C141 C 0.99813 -0.02470 0.47224
 C142 C 1.03130 -0.00349 0.48939
 C143 C 1.06295 0.01356 0.46551
 C144 C 1.06080 0.01029 0.42465
 C145 C 1.02897 -0.01283 0.40816
 C146 C 0.99757 -0.03033 0.43171
 C147 C 1.03181 0.00180 0.53220
 C148 C 1.06726 -0.01164 0.55448
 C149 C 1.06600 -0.00952 0.59546
 C150 C 1.03058 0.00875 0.61386
 C151 C 0.99559 0.02327 0.59177
 C152 C 0.99578 0.01869 0.55106
 H153 H 0.97340 -0.03751 0.49052
 H154 H 1.08762 0.03107 0.47857
 H155 H 1.09446 -0.02585 0.54012
 H156 H 0.96832 0.02898 0.53395
 H157 H 1.02768 -0.01615 0.37664
 H158 H 1.02971 0.01063 0.64554
 C159 C 0.04002 0.31288 1.10218
 C160 C 0.05275 0.33957 1.07640
 C161 C 0.01994 0.36413 1.05678
 C162 C 0.03044 0.39485 1.03526
 H163 H 0.08667 0.34277 1.06900
 H164 H -0.01389 0.35674 1.06000
 H165 H 0.00591 0.31161 1.10986
 H166 H 0.06378 0.40408 1.03418
 C167 C -0.07853 0.68460 1.10464
 C168 C -0.09740 0.66403 1.07687
 C169 C -0.07017 0.63804 1.05306
 C170 C -0.08621 0.61054 1.03056
 H171 H -0.13189 0.66682 1.07137
 H172 H -0.03529 0.64118 1.05459
 H173 H -0.04429 0.67991 1.11052
 H174 H -0.12060 0.60479 1.03102
 C175 C -0.11126 0.33191 0.87507
 C176 C -0.12412 0.35122 0.90678
 C177 C -0.09221 0.37353 0.92839
 C178 C -0.10341 0.40136 0.95334
 H179 H -0.15725 0.34967 0.91725
 H180 H -0.05808 0.36690 0.92366
 H181 H -0.07862 0.33564 0.86393
 H182 H -0.13699 0.41061 0.95623
 C183 C 0.07449 0.66764 0.87667
 C184 C 0.07995 0.64507 0.90813
 C185 C 0.04277 0.62488 0.92503
 C186 C 0.04785 0.59512 0.94965
 H187 H 0.11137 0.64242 0.92211
 H188 H 0.01034 0.63508 0.91766
 H189 H 0.04358 0.66830 0.86164
 H190 H 0.07988 0.58288 0.95495
 C191 C 1.07816 0.09651 0.31375
 C192 C 1.09900 0.07416 0.33994
 C193 C 1.07299 0.05134 0.36755
 C194 C 1.08947 0.03311 0.39895
 H195 H 1.13407 0.07203 0.34054
 H196 H 1.03845 0.04977 0.36207
 H197 H 1.04305 0.09873 0.31539
 H198 H 1.12311 0.03667 0.40689
 C199 C 1.10785 -0.11124 0.68499
 C200 C 1.11926 -0.07720 0.67018
 C201 C 1.08779 -0.05524 0.64622
 C202 C 1.09953 -0.02945 0.61919
 H203 H 1.15094 -0.06553 0.67571
 H204 H 1.05364 -0.06136 0.64997
 H205 H 1.07697 -0.12293 0.67640
 H206 H 1.13348 -0.02532 0.61245
 C207 C 0.94832 -0.12460 0.33811
 C208 C 0.93823 -0.09494 0.36124
 C209 C 0.97207 -0.07801 0.38552
 C210 C 0.96286 -0.05247 0.41341
 H211 H 0.90630 -0.08146 0.36043
 H212 H 1.00572 -0.08499 0.37887
 H213 H 0.97984 -0.13861 0.34133
 H214 H 0.92953 -0.04695 0.42216
 C215 C 0.93077 0.12001 0.67691
 C216 C 0.92656 0.08601 0.65959
 C217 C 0.96355 0.06844 0.63868
 C218 C 0.95809 0.04190 0.61125
 H219 H 0.89619 0.07092 0.66082
 H220 H 0.99599 0.07764 0.64568
 H221 H 0.96066 0.13547 0.67280
 H222 H 0.92571 0.03482 0.60185
 C223 C 0.29527 1.11206 0.07734
 C224 C 0.32369 1.08461 0.08818
 C225 C 0.34778 1.06251 0.05836
 C226 C 0.38329 1.04177 0.06745
 H227 H 0.32942 1.07856 0.11895
 H228 H 0.33690 1.06408 0.02820
 H229 H 0.29144 1.11902 0.04650
 H230 H 0.39605 1.04264 0.09697
 C231 C 0.69164 1.08019 -0.11002
 C232 C 0.66717 1.08867 -0.07880
 C233 C 0.64675 1.05779 -0.05596
 C234 C 0.61312 1.06484 -0.03214
 H235 H 0.66166 1.11829 -0.07042
 H236 H 0.65849 1.02851 -0.05977
 H237 H 0.69488 1.05059 -0.11930
 H238 H 0.59911 1.09358 -0.03078
 C239 C 0.30540 0.88627 -0.06497
 C240 C 0.33365 0.91346 -0.07440
 C241 C 0.35430 0.93599 -0.04355
 C242 C 0.38925 0.95697 -0.05105
 H243 H 0.34194 0.91890 -0.10480
 H244 H 0.34137 0.93453 -0.01401
 H245 H 0.29895 0.87993 -0.03437
 H246 H 0.40396 0.95601 -0.07992
 C247 C 0.70597 0.93074 0.12084
 C248 C 0.67875 0.92156 0.09221
 C249 C 0.65399 0.95187 0.07125
 C250 C 0.61981 0.94380 0.04905
 H251 H 0.67475 0.89183 0.08415
 H252 H 0.66341 0.98148 0.07470
 H253 H 0.70809 0.96045 0.12973
 H254 H 0.60835 0.91460 0.04800
   
