data_POSCAR
  _audit_creation_date              2014-09-24
  _audit_creation_method            'ToBaCCo'
  _symmetry_space_group_name_H-M    'P1'
  _symmetry_Int_Tables_number       1
  _symmetry_cell_setting            triclinic
  loop_
  _symmetry_equiv_pos_as_xyz
 x,y,z
_cell_length_a 27.2816
_cell_length_b 28.7994
_cell_length_c 30.9016
_cell_angle_alpha 90.183500
_cell_angle_beta 90.138000
_cell_angle_gamma 89.556100
loop_
  _atom_site_label
  _atom_site_type_symbol
  _atom_site_fract_x
  _atom_site_fract_y
  _atom_site_fract_z
B1 B 0.28461 0.23847 0.20702
 B2 B 0.30499 0.29037 0.22358
 B3 B 0.24730 0.28541 0.20519
 B4 B 0.22528 0.23365 0.22118
 B5 B 0.27046 0.20687 0.25071
 B6 B 0.32036 0.24235 0.25153
 B7 B 0.24507 0.28740 0.29217
 B8 B 0.22459 0.23563 0.27560
 B9 B 0.28215 0.24111 0.29389
 B10 B 0.30429 0.29242 0.27778
 B11 B 0.25919 0.31927 0.24879
 B12 B 0.20915 0.28365 0.24772
 B13 B 0.72483 0.77089 0.21860
 B14 B 0.70978 0.71612 0.23069
 B15 B 0.76866 0.72933 0.22149
 B16 B 0.77952 0.78296 0.24178
 B17 B 0.72599 0.80225 0.26470
 B18 B 0.68248 0.76053 0.25710
 B19 B 0.75518 0.72390 0.30738
 B20 B 0.77054 0.77844 0.29561
 B21 B 0.71190 0.76480 0.30464
 B22 B 0.70089 0.71187 0.28420
 B23 B 0.75425 0.69240 0.26183
 B24 B 0.79784 0.73409 0.26909
 B25 B 0.72283 0.22562 -0.30257
 B26 B 0.78092 0.21479 -0.28741
 B27 B 0.76321 0.26872 -0.30110
 B28 B 0.70561 0.27825 -0.28347
 B29 B 0.68733 0.22864 -0.25838
 B30 B 0.73444 0.18905 -0.26092
 B31 B 0.76598 0.26361 -0.21422
 B32 B 0.70813 0.27425 -0.22950
 B33 B 0.72534 0.22047 -0.21582
 B34 B 0.78316 0.21114 -0.23301
 B35 B 0.80148 0.26057 -0.25863
 B36 B 0.75452 0.30010 -0.25576
 B37 B 0.26802 0.76495 -0.20715
 B38 B 0.28868 0.71292 -0.22356
 B39 B 0.23115 0.71831 -0.20496
 B40 B 0.20845 0.77004 -0.22106
 B41 B 0.25297 0.79662 -0.25072
 B42 B 0.30315 0.76074 -0.25201
 B43 B 0.22810 0.71611 -0.29197
 B44 B 0.20692 0.76815 -0.27542
 B45 B 0.26438 0.76218 -0.29399
 B46 B 0.28727 0.71076 -0.27763
 B47 B 0.24277 0.68421 -0.24833
 B48 B 0.19247 0.71999 -0.24758
 B49 B 1.23417 1.28289 0.71163
 B50 B 1.21421 1.23120 0.72909
 B51 B 1.27127 1.23684 0.70973
 B52 B 1.29362 1.28854 0.72508
 B53 B 1.24912 1.31563 0.75443
 B54 B 1.19936 1.27980 0.75671
 B55 B 1.27654 1.23595 0.79653
 B56 B 1.29589 1.28769 0.77917
 B57 B 1.23881 1.28245 0.79853
 B58 B 1.21680 1.23034 0.78350
 B59 B 1.26128 1.20329 0.75340
 B60 B 1.31087 1.23917 0.75136
 B61 B 0.77854 0.73484 0.78264
 B62 B 0.71979 0.72763 0.76794
 B63 B 0.73875 0.77994 0.78441
 B64 B 0.79638 0.78803 0.76661
 B65 B 0.81284 0.73946 0.73792
 B66 B 0.76487 0.70157 0.73923
 B67 B 0.73436 0.77975 0.69745
 B68 B 0.79290 0.78755 0.71217
 B69 B 0.77350 0.73527 0.69584
 B70 B 0.71615 0.72708 0.71389
 B71 B 0.69979 0.77563 0.74211
 B72 B 0.74777 0.81348 0.74066
 B73 B 1.23705 0.71026 0.29141
 B74 B 1.22165 0.76513 0.27933
 B75 B 1.27971 0.75158 0.29243
 B76 B 1.29337 0.69866 0.27155
 B77 B 1.24208 0.67999 0.24504
 B78 B 1.19751 0.72144 0.25050
 B79 B 1.27364 0.75949 0.20599
 B80 B 1.28839 0.70456 0.21766
 B81 B 1.23064 0.71832 0.20487
 B82 B 1.21720 0.77080 0.22540
 B83 B 1.26817 0.78971 0.25209
 B84 B 1.31300 0.74812 0.24705
 B85 B 0.75834 1.26531 0.22143
 B86 B 0.69921 1.27604 0.23230
 B87 B 0.71810 1.22152 0.22334
 B88 B 0.77448 1.21441 0.24479
 B89 B 0.79012 1.26618 0.26813
 B90 B 0.74299 1.30480 0.25982
 B91 B 0.70831 1.23392 0.30894
 B92 B 0.76728 1.22271 0.29841
 B93 B 0.74847 1.27720 0.30737
 B94 B 0.69236 1.28450 0.28571
 B95 B 0.67665 1.23282 0.26268
 B96 B 0.72361 1.19419 0.27078
 N97 N 0.42723 0.92934 -0.04514
 N98 N 0.39531 0.91059 -0.07215
 N99 N 0.46920 0.90532 0.04516
 N100 N 0.46719 0.87020 0.07239
 N101 N 0.42751 0.92865 0.04514
 N102 N 0.39586 0.90928 0.07181
 N103 N 0.46892 0.90602 -0.04582
 N104 N 0.46652 0.87134 -0.07378
 C105 C 0.42062 0.87482 -0.09012
 C106 C 0.42147 0.87324 0.08891
 N107 N 0.59734 0.96662 0.04627
 N108 N 0.63271 0.96445 0.07555
 N109 N 0.57275 0.92841 -0.04520
 N110 N 0.59122 0.89919 -0.07405
 N111 N 0.59723 0.96753 -0.04512
 N112 N 0.63227 0.96633 -0.07454
 N113 N 0.57272 0.92758 0.04537
 N114 N 0.59121 0.89764 0.07350
 Mn115 Mn 0.52090 0.91653 -0.00017
 C116 C 0.62836 0.92128 0.09236
 C117 C 0.62804 0.92355 -0.09231
 N118 N 0.40253 1.02765 0.04638
 N119 N 0.36510 1.03201 0.07337
 N120 N 0.42792 1.06639 -0.04434
 N121 N 0.40812 1.09781 -0.07012
 N122 N 0.40222 1.02797 -0.04486
 N123 N 0.36442 1.03235 -0.07153
 N124 N 0.42821 1.06608 0.04597
 N125 N 0.40895 1.09737 0.07223
 Mn126 Mn 0.41448 0.97831 0.00042
 C127 C 0.37001 1.07561 0.08954
 C128 C 0.36896 1.07598 -0.08732
 N129 N 0.57252 1.06544 -0.04403
 N130 N 0.60359 1.08372 -0.07187
 N131 N 0.53066 1.08797 0.04652
 N132 N 0.53141 1.12124 0.07588
 N133 N 0.57223 1.06467 0.04651
 N134 N 0.60273 1.08198 0.07554
 N135 N 0.53077 1.08845 -0.04442
 N136 N 0.53206 1.12252 -0.07281
 Mn137 Mn 0.58525 1.01609 0.00094
 Mn138 Mn 0.47946 1.07733 0.00089
 Cl139 Cl 0.49996 0.99697 0.00051
 C140 C 0.57749 1.11899 -0.08984
 C141 C 0.57637 1.11694 0.09380
 N142 N 1.08288 0.54663 0.54737
 N143 N 1.11094 0.58360 0.55272
 N144 N 1.04782 0.44910 0.57659
 N145 N 1.05162 0.41377 0.60315
 N146 N 1.08290 0.44827 0.54758
 N147 N 1.11237 0.41215 0.55438
 N148 N 1.04818 0.54623 0.57672
 N149 N 1.05096 0.58267 0.60220
 C150 C 1.09004 0.60555 0.58716
 C151 C 1.09177 0.39107 0.58919
 N152 N 0.90783 0.44997 0.55060
 N153 N 0.87971 0.41324 0.55676
 N154 N 0.94442 0.54738 0.57874
 N155 N 0.94434 0.58503 0.60284
 N156 N 0.90859 0.54852 0.55038
 N157 N 0.88272 0.58737 0.55476
 N158 N 0.94400 0.45010 0.57865
 N159 N 0.94203 0.41379 0.60420
 Mn160 Mn 0.99612 0.49817 0.57790
 C161 C 0.90191 0.39120 0.59048
 C162 C 0.90578 0.60948 0.58786
 N163 N 1.08093 0.44831 0.45314
 N164 N 1.11295 0.41516 0.44313
 N165 N 1.04467 0.54603 0.42511
 N166 N 1.04928 0.57982 0.39692
 N167 N 1.08105 0.54611 0.45303
 N168 N 1.11208 0.57992 0.44389
 N169 N 1.04442 0.44851 0.42533
 N170 N 1.04997 0.41538 0.39634
 Mn171 Mn 1.08296 0.49732 0.50033
 C172 C 1.09252 0.39476 0.40777
 C173 C 1.09122 0.60070 0.40885
 N174 N 0.90565 0.54792 0.45691
 N175 N 0.87670 0.58460 0.45162
 N176 N 0.93973 0.44955 0.42758
 N177 N 0.93461 0.41388 0.40132
 N178 N 0.90506 0.45018 0.45697
 N179 N 0.87477 0.41506 0.45103
 N180 N 0.94015 0.54721 0.42737
 N181 N 0.93626 0.58340 0.40170
 Mn182 Mn 0.90585 0.49916 0.50377
 Mn183 Mn 0.99219 0.49778 0.42603
 Cl184 Cl 0.99436 0.49807 0.50190
 C185 C 0.89660 0.60624 0.41695
 C186 C 0.89405 0.39284 0.41615
 N187 N 1.06406 0.56094 0.04997
 N188 N 1.09301 0.59583 0.06070
 N189 N 1.04616 0.46144 0.08042
 N190 N 1.06098 0.43594 0.11328
 N191 N 1.08068 0.46413 0.05094
 N192 N 1.12011 0.44034 0.06347
 N193 N 1.02778 0.55759 0.07763
 N194 N 1.03097 0.58999 0.10769
 C195 C 1.07131 0.61395 0.09648
 C196 C 1.10655 0.42208 0.10212
 N197 N 0.90941 0.43541 0.05028
 N198 N 0.87837 0.40386 0.06528
 N199 N 0.92329 0.54026 0.07658
 N200 N 0.90726 0.57091 0.10530
 N201 N 0.88891 0.53108 0.04804
 N202 N 0.84855 0.55486 0.05682
 N203 N 0.94338 0.44387 0.07954
 N204 N 0.93706 0.41788 0.11396
 Mn205 Mn 0.98510 0.50112 0.07861
 C206 C 0.89722 0.39245 0.10474
 C207 C 0.86083 0.58027 0.09205
 N208 N 1.08167 0.46411 -0.04405
 N209 N 1.12188 0.44149 -0.05630
 N210 N 1.02992 0.55775 -0.07197
 N211 N 1.03547 0.58888 -0.10279
 N212 N 1.06571 0.56075 -0.04354
 N213 N 1.09664 0.59389 -0.05461
 N214 N 1.04794 0.46155 -0.07442
 N215 N 1.06418 0.43732 -0.10767
 Mn216 Mn 1.07358 0.51221 0.00338
 C217 C 1.10965 0.42394 -0.09568
 C218 C 1.07678 0.61156 -0.09135
 N219 N 0.88977 0.53074 -0.04494
 N220 N 0.84923 0.55384 -0.05474
 N221 N 0.94525 0.44371 -0.07504
 N222 N 0.94358 0.41335 -0.10687
 N223 N 0.91115 0.43519 -0.04616
 N224 N 0.88431 0.39926 -0.05875
 N225 N 0.92466 0.54009 -0.07278
 N226 N 0.90870 0.57017 -0.10200
 Mn227 Mn 0.89944 0.48252 0.00175
 Mn228 Mn 0.98678 0.50115 -0.07370
 Cl229 Cl 0.98625 0.49904 0.00248
 C230 C 0.86180 0.57901 -0.08984
 C231 C 0.90593 0.38563 -0.09642
 N232 N 0.53511 0.91760 0.55662
 N233 N 0.57522 0.89233 0.56338
 N234 N 0.42951 0.94904 0.58239
 N235 N 0.39121 0.94530 0.60781
 N236 N 0.43123 0.91493 0.55414
 N237 N 0.39392 0.88647 0.56011
 N238 N 0.53209 0.95117 0.58536
 N239 N 0.56963 0.95003 0.61205
 C240 C 0.59613 0.91335 0.59823
 C241 C 0.36935 0.90635 0.59373
 N242 N 0.42645 1.08081 0.55252
 N243 N 0.38834 1.10881 0.55850
 N244 N 0.52926 1.04982 0.58441
 N245 N 0.56708 1.05309 0.61065
 N246 N 0.53014 1.08259 0.55500
 N247 N 0.56887 1.10946 0.56082
 N248 N 0.42645 1.04749 0.58137
 N249 N 0.38843 1.05124 0.60722
 Mn250 Mn 0.47926 0.99937 0.58366
 C251 C 0.36494 1.08937 0.59265
 C252 C 0.59132 1.09033 0.59588
 N253 N 0.43439 0.91296 0.46006
 N254 N 0.40145 0.88107 0.45000
 N255 N 0.53669 0.94908 0.43371
 N256 N 0.57344 0.94446 0.40658
 N257 N 0.53723 0.91575 0.46260
 N258 N 0.57419 0.88675 0.45523
 N259 N 0.43378 0.94648 0.43134
 N260 N 0.40012 0.93899 0.40164
 Mn261 Mn 0.48455 0.91441 0.50846
 C262 C 0.38016 0.89835 0.41360
 C263 C 0.59649 0.90570 0.42030
 N264 N 0.53222 1.08178 0.46120
 N265 N 0.56795 1.11164 0.45404
 N266 N 0.43064 1.04562 0.43062
 N267 N 0.39594 1.05051 0.40133
 N268 N 0.42924 1.07979 0.45883
 N269 N 0.39372 1.10947 0.44893
 N270 N 0.53367 1.04793 0.43268
 N271 N 0.57059 1.05322 0.40589
 Mn272 Mn 0.47952 1.08209 0.50694
 Mn273 Mn 0.48365 0.99728 0.43179
 Cl274 Cl 0.48175 0.99825 0.50763
 C275 C 0.59160 1.09291 0.41946
 C276 C 0.37308 1.09017 0.41318
 N277 N 1.09821 1.05410 0.54658
 N278 N 1.12735 1.08936 0.55396
 N279 N 1.06244 0.95571 0.57388
 N280 N 1.06558 0.91877 0.59939
 N281 N 1.10047 0.95697 0.54793
 N282 N 1.12980 0.92127 0.55434
 N283 N 1.06077 1.05445 0.57323
 N284 N 1.06421 1.09019 0.60030
 C285 C 1.10609 1.11155 0.58741
 C286 C 1.10809 0.89787 0.58648
 N287 N 0.92881 0.95468 0.52420
 N288 N 0.89396 0.92342 0.52743
 N289 N 0.95448 1.05283 0.55856
 N290 N 0.93650 1.08320 0.58675
 N291 N 0.92736 1.05230 0.52325
 N292 N 0.89083 1.08243 0.52643
 N293 N 0.95620 0.95522 0.55932
 N294 N 0.94008 0.92445 0.58755
 Mn295 Mn 1.00840 1.00453 0.56705
 C296 C 0.90157 0.90455 0.56683
 C297 C 0.89713 1.10182 0.56590
 N298 N 1.11686 0.95507 0.45744
 N299 N 1.14800 0.91980 0.45780
 N300 N 1.08679 1.05125 0.42116
 N301 N 1.09676 1.08622 0.39526
 N302 N 1.11456 1.05260 0.45577
 N303 N 1.14432 1.08844 0.45453
 N304 N 1.08855 0.95347 0.42318
 N305 N 1.09952 0.91699 0.39915
 Mn306 Mn 1.10781 1.00478 0.50208
 C307 C 1.13664 0.89635 0.42130
 C308 C 1.13268 1.10908 0.41665
 N309 N 0.94462 1.05066 0.43070
 N310 N 0.91277 1.08190 0.41661
 N311 N 0.98480 0.95250 0.40738
 N312 N 0.98029 0.92213 0.37558
 N313 N 0.94547 0.95292 0.43181
 N314 N 0.91312 0.92273 0.41712
 N315 N 0.98356 1.04974 0.40584
 N316 N 0.97944 1.08026 0.37431
 Mn317 Mn 0.93614 1.00269 0.47749
 Mn318 Mn 1.03609 1.00166 0.41402
 Cl319 Cl 1.02182 1.00342 0.49030
 C320 C 0.93542 1.10040 0.38172
 C321 C 0.93575 0.90334 0.38237
 N322 N 0.62040 0.52947 0.03807
 N323 N 0.65467 0.56135 0.04251
 N324 N 0.57074 0.43587 0.06188
 N325 N 0.57761 0.40087 0.08847
 N326 N 0.60190 0.43377 0.02965
 N327 N 0.63080 0.39701 0.03340
 N328 N 0.59015 0.53074 0.07098
 N329 N 0.60272 0.56344 0.09859
 C330 C 0.64314 0.58204 0.08060
 C331 C 0.61467 0.37657 0.06998
 N332 N 0.43209 0.46456 0.04468
 N333 N 0.39499 0.43616 0.04950
 N334 N 0.48837 0.54945 0.08073
 N335 N 0.48925 0.57858 0.11374
 N336 N 0.45209 0.55935 0.05436
 N337 N 0.42668 0.59516 0.06907
 N338 N 0.46767 0.45444 0.07170
 N339 N 0.45547 0.41896 0.09630
 Mn340 Mn 0.52931 0.49238 0.07175
 C341 C 0.41009 0.40797 0.08164
 C342 C 0.45082 0.60711 0.10580
 N343 N 0.59250 0.44423 -0.06199
 N344 N 0.61691 0.40659 -0.07345
 N345 N 0.57506 0.54858 -0.08129
 N346 N 0.58590 0.58468 -0.10557
 N347 N 0.61091 0.53960 -0.05403
 N348 N 0.64692 0.56934 -0.05878
 N349 N 0.55672 0.45293 -0.08937
 N350 N 0.55634 0.42149 -0.12072
 Mn351 Mn 0.60703 0.48675 -0.01219
 C352 C 0.59395 0.39263 -0.10989
 C353 C 0.63082 0.59715 -0.09094
 N354 N 0.44291 0.57024 -0.03757
 N355 N 0.41244 0.60572 -0.04083
 N356 N 0.45272 0.47120 -0.07927
 N357 N 0.43789 0.43822 -0.10599
 N358 N 0.42268 0.47517 -0.04631
 N359 N 0.38679 0.44501 -0.04952
 N360 N 0.47081 0.56679 -0.07206
 N361 N 0.45910 0.59962 -0.10013
 Mn362 Mn 0.43708 0.51758 0.00380
 Mn363 Mn 0.51379 0.50990 -0.08120
 Cl364 Cl 0.52182 0.50169 -0.00456
 C365 C 0.42336 0.62412 -0.07958
 C366 C 0.39655 0.42244 -0.08687
 C367 C 0.30672 1.21312 0.16557
 C368 C 0.30503 1.16695 0.15958
 C369 C 0.33562 1.14415 0.12625
 C370 C 0.33561 1.09801 0.12011
 H371 H 0.28374 1.14544 0.18111
 H372 H 0.36017 1.16553 0.10744
 H373 H 0.32859 1.23359 0.14377
 H374 H 0.31031 1.07643 0.13784
 C375 C 0.78736 0.71117 0.65172
 C376 C 0.83352 0.70656 0.63866
 C377 C 0.84674 0.67082 0.60666
 C378 C 0.89228 0.65423 0.60693
 H379 H 0.86251 0.72410 0.65620
 H380 H 0.81840 0.65334 0.58828
 H381 H 0.75864 0.69242 0.63500
 H382 H 0.91948 0.67034 0.62765
 C383 C 0.70618 0.79381 0.17457
 C384 C 0.69581 0.83924 0.17048
 C385 C 0.66711 0.85705 0.13323
 C386 C 0.66051 0.90270 0.12689
 H387 H 0.70559 0.86326 0.19609
 H388 H 0.64987 0.83244 0.11148
 H389 H 0.69628 0.77073 0.14841
 H390 H 0.67952 0.92733 0.14738
 C391 C 1.21775 0.30819 0.66868
 C392 C 1.17131 0.31163 0.65589
 C393 C 1.15720 0.34255 0.61999
 C394 C 1.10991 0.35002 0.61213
 H395 H 1.14292 0.29446 0.67424
 H396 H 1.18468 0.36347 0.60411
 H397 H 1.24586 0.32608 0.65061
 H398 H 1.08293 0.33063 0.63022
 C399 C 0.70715 1.19469 -0.17373
 C400 C 0.65963 1.18776 -0.16561
 C401 C 0.64357 1.15634 -0.13098
 C402 C 0.59588 1.15120 -0.12274
 H403 H 0.63193 1.20361 -0.18613
 H404 H 0.67066 1.13672 -0.11277
 H405 H 0.73472 1.17881 -0.15314
 H406 H 0.56913 1.17210 -0.14007
 C407 C 1.22086 0.68426 0.33411
 C408 C 1.17413 0.68183 0.34655
 C409 C 1.15825 0.64933 0.38052
 C410 C 1.11065 0.63997 0.38421
 H411 H 1.14632 0.70103 0.32877
 H412 H 1.18515 0.62970 0.39891
 H413 H 1.24859 0.66444 0.35131
 H414 H 1.08467 0.65817 0.36361
 C415 C 0.28784 0.79233 -0.16608
 C416 C 0.33517 0.80379 -0.16192
 C417 C 0.35268 0.83554 -0.12783
 C418 C 0.40078 0.84208 -0.12217
 H419 H 0.36179 0.79064 -0.18498
 H420 H 0.32636 0.85403 -0.10784
 H421 H 0.26128 0.80514 -0.14284
 H422 H 0.42682 0.82186 -0.14099
 C423 C 0.76317 0.30583 0.34908
 C424 C 0.80938 0.30657 0.36333
 C425 C 0.82653 0.34190 0.39409
 C426 C 0.87421 0.35153 0.39510
 H427 H 0.83666 0.28427 0.34827
 H428 H 0.80042 0.36336 0.41163
 H429 H 0.73608 0.32911 0.36303
 H430 H 0.89930 0.33173 0.37490
 C431 C 1.22693 0.30852 0.16163
 C432 C 1.20194 0.34889 0.16285
 C433 C 1.17537 0.36940 0.12557
 C434 C 1.13912 0.39971 0.13405
 H435 H 1.19771 0.36654 0.19367
 H436 H 1.18339 0.35863 0.09271
 H437 H 1.23038 0.28952 0.13148
 H438 H 1.12999 0.40681 0.16759
 C439 C 0.71003 0.79858 0.65453
 C440 C 0.69852 0.84317 0.64922
 C441 C 0.66193 0.85756 0.61675
 C442 C 0.64114 0.89925 0.62070
 H443 H 0.71128 0.86859 0.67257
 H444 H 0.64786 0.83266 0.59354
 H445 H 0.69638 0.77311 0.63168
 H446 H 0.65443 0.92289 0.64540
 C447 C 1.21308 0.69424 -0.16138
 C448 C 1.16519 0.69086 -0.15189
 C449 C 1.14615 0.65921 -0.11829
 C450 C 1.09854 0.64788 -0.11872
 H451 H 1.13855 0.70879 -0.17201
 H452 H 1.17121 0.64256 -0.09582
 H453 H 1.23972 0.67547 -0.14205
 H454 H 1.07473 0.66307 -0.14308
 C455 C 0.68133 1.21889 0.35202
 C456 C 0.67948 1.17446 0.36415
 C457 C 0.64379 1.15782 0.39611
 C458 C 0.63384 1.11256 0.39702
 H459 H 0.70102 1.14869 0.34679
 H460 H 0.62215 1.18232 0.41486
 H461 H 0.65904 1.24466 0.36856
 H462 H 0.65399 1.08906 0.37597
 C463 C 0.80055 0.71040 0.18200
 C464 C 0.80102 0.66538 0.17069
 C465 C 0.83631 0.64544 0.13960
 C466 C 0.82486 0.60698 0.11755
 H467 H 0.77558 0.64165 0.18567
 H468 H 0.87219 0.66089 0.13619
 H469 H 0.82575 0.73409 0.16669
 H470 H 0.78776 0.59383 0.11887
 C471 C 0.28959 1.21739 0.66493
 C472 C 0.28484 1.17316 0.65327
 C473 C 0.31421 1.15430 0.61745
 C474 C 0.32278 1.10887 0.61569
 H475 H 0.26421 1.14960 0.67347
 H476 H 0.33500 1.17767 0.59718
 H477 H 0.31138 1.24042 0.64519
 H478 H 0.30408 1.08609 0.63802
 C479 C 0.78572 0.28366 -0.16932
 C480 C 0.83029 0.30220 -0.16520
 C481 C 0.84522 0.32962 -0.12677
 C482 C 0.88942 0.34927 -0.12667
 H483 H 0.85550 0.30015 -0.19221
 H484 H 0.81925 0.33699 -0.10113
 H485 H 0.76058 0.28530 -0.14228
 H486 H 0.91401 0.34196 -0.15342
 C487 C 0.30580 0.76802 0.33577
 C488 C 0.30552 0.81259 0.34807
 C489 C 0.33697 0.83038 0.38319
 C490 C 0.34187 0.87625 0.38747
 H491 H 0.28411 0.83757 0.32968
 H492 H 0.35940 0.80676 0.40215
 H493 H 0.32763 0.74288 0.35349
 H494 H 0.32109 0.89907 0.36631
 C495 C 1.18393 1.20648 0.29896
 C496 C 1.18167 1.20121 0.34172
 C497 C 1.14992 1.16570 0.36028
 C498 C 1.15826 1.14980 0.40007
 H499 H 1.20624 1.22002 0.36288
 H500 H 1.12243 1.14952 0.33992
 H501 H 1.15953 1.18666 0.27837
 H502 H 1.18686 1.16496 0.41989
 C503 C 0.68095 0.69739 -0.20747
 C504 C 0.68328 0.68788 -0.16540
 C505 C 0.64925 0.65482 -0.14611
 C506 C 0.66029 0.63476 -0.10858
 H507 H 0.71227 0.70182 -0.14549
 H508 H 0.61698 0.64429 -0.16410
 H509 H 0.65204 0.68215 -0.22687
 H510 H 0.69381 0.64384 -0.09172
 C511 C 0.82014 1.18375 0.68772
 C512 C 0.82305 1.17786 0.64488
 C513 C 0.86142 1.14695 0.62645
 C514 C 0.86196 1.13571 0.58447
 H515 H 0.79705 1.19503 0.62363
 H516 H 0.88859 1.13176 0.64793
 H517 H 0.84660 1.16587 0.70808
 H518 H 0.83395 1.14983 0.56322
 C519 C 0.31759 0.67333 0.18491
 C520 C 0.36449 0.67909 0.17463
 C521 C 0.38523 0.65061 0.13974
 C522 C 0.43297 0.64150 0.13713
 H523 H 0.38704 0.70414 0.19150
 H524 H 0.36017 0.63385 0.11739
 H525 H 0.29682 0.64646 0.16862
 H526 H 0.45806 0.65523 0.16112
 C527 C 1.16465 0.79821 0.70311
 C528 C 1.15984 0.80513 0.66076
 C529 C 1.12573 0.84093 0.64412
 C530 C 1.13025 0.85502 0.60340
 H531 H 1.18406 0.78723 0.63843
 H532 H 1.10121 0.85918 0.66600
 H533 H 1.14062 0.81699 0.72504
 H534 H 1.15714 0.83805 0.58280
 C535 C 0.66354 0.30350 0.20165
 C536 C 0.66373 0.29980 0.15865
 C537 C 0.63146 0.32977 0.13317
 C538 C 0.64054 0.33849 0.09166
 H539 H 0.68899 0.27677 0.14216
 H540 H 0.60254 0.34860 0.14990
 H541 H 0.63832 0.32761 0.21712
 H542 H 0.67066 0.32129 0.07516
 C543 C 0.79906 0.80889 0.33006
 C544 C 0.84441 0.82475 0.32418
 C545 C 0.86759 0.85458 0.35719
 C546 C 0.91318 0.87012 0.35211
 H547 H 0.86412 0.81650 0.29467
 H548 H 0.84657 0.86503 0.38537
 H549 H 0.78058 0.81667 0.36020
 H550 H 0.93416 0.85958 0.32395
 C551 C 0.33791 0.31725 -0.19912
 C552 C 0.33780 0.33032 -0.15773
 C553 C 0.37301 0.36464 -0.14156
 C554 C 0.36556 0.38498 -0.10334
 H555 H 0.30996 0.31795 -0.13591
 H556 H 0.40330 0.37520 -0.16184
 H557 H 0.36614 0.33030 -0.22039
 H558 H 0.33441 0.37502 -0.08381
 C559 C 1.21960 0.30529 -0.15759
 C560 C 1.20196 0.34885 -0.15673
 C561 C 1.17488 0.36878 -0.11964
 C562 C 1.14399 0.40408 -0.12732
 H563 H 1.20355 0.36966 -0.18585
 H564 H 1.17708 0.35303 -0.08790
 H565 H 1.21706 0.28364 -0.12910
 H566 H 1.13964 0.41641 -0.16025
 C567 C 0.68257 0.78063 0.34625
 C568 C 0.68027 0.82498 0.35860
 C569 C 0.64637 0.84101 0.39247
 C570 C 0.63844 0.88644 0.39687
 H571 H 0.70095 0.85081 0.34105
 H572 H 0.62423 0.81629 0.40999
 H573 H 0.66119 0.75483 0.36311
 H574 H 0.65889 0.91050 0.37705
 C575 C 0.80551 0.71252 -0.17658
 C576 C 0.80274 0.66734 -0.16653
 C577 C 0.83747 0.64523 -0.13596
 C578 C 0.82603 0.60575 -0.11580
 H579 H 0.77634 0.64543 -0.18286
 H580 H 0.87323 0.66055 -0.13100
 H581 H 0.83178 0.73405 -0.15968
 H582 H 0.78909 0.59241 -0.11833
 C583 C 0.30175 1.22112 0.33820
 C584 C 0.29922 1.17616 0.34799
 C585 C 0.32725 1.15680 0.38445
 C586 C 0.33465 1.11112 0.38634
 H587 H 0.28000 1.15257 0.32655
 H588 H 0.34672 1.17982 0.40625
 H589 H 0.32173 1.24448 0.35926
 H590 H 0.31713 1.08874 0.36273
 C591 C 1.20673 0.70040 0.16103
 C592 C 1.15854 0.69306 0.15730
 C593 C 1.13797 0.66501 0.12173
 C594 C 1.09168 0.65049 0.12436
 H595 H 1.13416 0.70384 0.18317
 H596 H 1.16172 0.65235 0.09614
 H597 H 1.23094 0.68954 0.13514
 H598 H 1.06900 0.66218 0.15108
 C599 C 0.69853 1.20888 0.65364
 C600 C 0.69149 1.16405 0.64501
 C601 C 0.65397 1.14906 0.61366
 C602 C 0.63643 1.10618 0.61694
 H603 H 0.70858 1.13798 0.66546
 H604 H 0.63664 1.17405 0.59225
 H605 H 0.68056 1.23498 0.63387
 H606 H 0.65267 1.08259 0.64031
 C607 C 0.78272 0.28204 0.17712
 C608 C 0.81406 0.31765 0.17605
 C609 C 0.83508 0.33705 0.13570
 C610 C 0.87367 0.36522 0.13933
 H611 H 0.82462 0.33388 0.20635
 H612 H 0.81888 0.32960 0.10442
 H613 H 0.77300 0.26452 0.14732
 H614 H 0.88962 0.37002 0.17122
 C615 C 0.28381 0.78072 0.66130
 C616 C 0.28356 0.82556 0.65109
 C617 C 0.31570 0.84292 0.61664
 C618 C 0.32635 0.88787 0.61590
 H619 H 0.26464 0.85031 0.67180
 H620 H 0.33600 0.81864 0.59649
 H621 H 0.30366 0.75625 0.64102
 H622 H 0.30759 0.91133 0.63798
 C623 C 0.30026 1.21213 -0.16205
 C624 C 0.30081 1.16596 -0.15617
 C625 C 0.33268 1.14421 -0.12320
 C626 C 0.33389 1.09808 -0.11744
 H627 H 0.28022 1.14357 -0.17770
 H628 H 0.35693 1.16619 -0.10446
 H629 H 0.32118 1.23391 -0.14033
 H630 H 0.30877 1.07607 -0.13516
 C631 C 0.76913 0.69876 0.35116
 C632 C 0.81521 0.69734 0.36568
 C633 C 0.83147 0.66175 0.39671
 C634 C 0.87850 0.64892 0.39663
 H635 H 0.84293 0.71817 0.35002
 H636 H 0.80477 0.64209 0.41484
 H637 H 0.74171 0.67685 0.36583
 H638 H 0.90402 0.66694 0.37584
 C639 C 0.70299 1.19192 0.18235
 C640 C 0.65600 1.18415 0.17264
 C641 C 0.64138 1.15234 0.13779
 C642 C 0.59403 1.14824 0.12774
 H643 H 0.62726 1.20086 0.19136
 H644 H 0.66897 1.13227 0.12063
 H645 H 0.73178 1.17550 0.16352
 H646 H 0.56698 1.16968 0.14416
 C647 C 1.21293 0.69009 0.66521
 C648 C 1.16714 0.68860 0.65060
 C649 C 1.15375 0.65636 0.61559
 C650 C 1.10668 0.64806 0.60826
 H651 H 1.13850 0.70777 0.66732
 H652 H 1.18168 0.63479 0.60048
 H653 H 1.24113 0.66991 0.64895
 H654 H 1.07918 0.66789 0.62583
 C655 C 0.71858 0.80199 -0.17181
 C656 C 0.69927 0.84491 -0.16993
 C657 C 0.67118 0.86132 -0.13204
 C658 C 0.65969 0.90630 -0.12745
 H659 H 0.70155 0.86771 -0.19767
 H660 H 0.65874 0.83635 -0.10836
 H661 H 0.71699 0.78020 -0.14346
 H662 H 0.67466 0.93152 -0.14966
 C663 C 1.22688 0.31305 0.33468
 C664 C 1.17938 0.31726 0.34427
 C665 C 1.16163 0.34810 0.37910
 C666 C 1.11371 0.35706 0.38170
 H667 H 1.15246 0.30028 0.32389
 H668 H 1.18742 0.36662 0.39942
 H669 H 1.25394 0.33054 0.35445
 H670 H 1.08889 0.33976 0.35955
 C671 C 0.29199 0.78613 0.16418
 C672 C 0.33872 0.79935 0.15980
 C673 C 0.35473 0.83151 0.12572
 C674 C 0.40251 0.84000 0.12062
 H675 H 0.36595 0.78812 0.18317
 H676 H 0.32773 0.84877 0.10549
 H677 H 0.26475 0.79739 0.14083
 H678 H 0.42922 0.82083 0.13965
 C679 C 0.77882 0.29458 0.65621
 C680 C 0.82549 0.29955 0.64477
 C681 C 0.83967 0.33449 0.61254
 C682 C 0.88600 0.34849 0.61166
 H683 H 0.85400 0.28174 0.66294
 H684 H 0.81184 0.35273 0.59395
 H685 H 0.75046 0.31326 0.63869
 H686 H 0.91274 0.33150 0.63241
 C687 C 1.17220 1.20068 0.70812
 C688 C 1.16426 1.19654 0.66573
 C689 C 1.12917 1.16220 0.64859
 C690 C 1.12865 1.15306 0.60634
 H691 H 1.18634 1.21611 0.64324
 H692 H 1.10794 1.14115 0.67060
 H693 H 1.15046 1.18015 0.73016
 H694 H 1.15251 1.17263 0.58524
 C695 C 0.67703 0.68367 0.20148
 C696 C 0.68453 0.67521 0.15951
 C697 C 0.65605 0.63914 0.13758
 C698 C 0.67025 0.62082 0.09985
 H699 H 0.71318 0.69256 0.14189
 H700 H 0.62412 0.62552 0.15394
 H701 H 0.64815 0.66521 0.21805
 H702 H 0.70264 0.63352 0.08361
 C703 C 1.18546 0.79655 0.30591
 C704 C 1.18553 0.80103 0.34874
 C705 C 1.15336 0.83619 0.36817
 C706 C 1.16358 0.85515 0.40638
 H707 H 1.21102 0.78162 0.36873
 H708 H 1.12341 0.85008 0.34886
 H709 H 1.15998 0.81731 0.28696
 H710 H 1.19432 0.84253 0.42540
 C711 C 0.67481 0.30552 -0.19950
 C712 C 0.62636 0.31178 -0.20433
 C713 C 0.59884 0.34494 -0.17660
 C714 C 0.61243 0.35347 -0.13571
 H715 H 0.60726 0.29528 -0.23095
 H716 H 0.56825 0.36373 -0.19074
 H717 H 0.69418 0.32545 -0.17530
 H718 H 0.64144 0.33302 -0.12100
 C719 C 0.79851 1.19592 0.33331
 C720 C 0.84389 1.18042 0.32626
 C721 C 0.86847 1.15159 0.35898
 C722 C 0.91310 1.13418 0.35208
 H723 H 0.86202 1.18727 0.29577
 H724 H 0.84881 1.14264 0.38823
 H725 H 0.78133 1.18914 0.36419
 H726 H 0.93290 1.14310 0.32294
 C727 C 0.33107 0.68416 -0.20132
 C728 C 0.34337 0.68800 -0.15977
 C729 C 0.38359 0.65982 -0.14191
 C730 C 0.39207 0.65957 -0.09951
 H731 H 0.32281 0.71062 -0.13838
 H732 H 0.40371 0.63634 -0.16300
 H733 H 0.35153 0.66041 -0.22187
 H734 H 0.37010 0.68132 -0.07828
 C735 C 0.83169 0.81867 0.68800
 C736 C 0.83278 0.82627 0.64544
 C737 C 0.86973 0.85778 0.62706
 C738 C 0.86839 0.86976 0.58541
 H739 H 0.80604 0.81020 0.62434
 H740 H 0.89714 0.87283 0.64823
 H741 H 0.85880 0.83535 0.70838
 H742 H 0.84023 0.85554 0.56453
 C743 C 0.34697 0.31803 0.20060
 C744 C 0.34756 0.32627 0.15831
 C745 C 0.38517 0.35577 0.13931
 C746 C 0.37854 0.37232 0.09964
 H747 H 0.31884 0.31325 0.13754
 H748 H 0.41609 0.36690 0.15878
 H749 H 0.37576 0.33201 0.22096
 H750 H 0.34618 0.36287 0.08127
   
