data_POSCAR
  _audit_creation_date              2014-09-24
  _audit_creation_method            'ToBaCCo'
  _symmetry_space_group_name_H-M    'P1'
  _symmetry_Int_Tables_number       1
  _symmetry_cell_setting            triclinic
  loop_
  _symmetry_equiv_pos_as_xyz
 x,y,z
_cell_length_a 48.8653
_cell_length_b 48.8632
_cell_length_c 48.8834
_cell_angle_alpha 90.017200
_cell_angle_beta 90.018700
_cell_angle_gamma 90.018700
loop_
  _atom_site_label
  _atom_site_type_symbol
  _atom_site_fract_x
  _atom_site_fract_y
  _atom_site_fract_z
O1 O 0.35906 0.32220 -0.02718
 O2 O 0.32144 0.35966 0.02615
 O3 O 0.35929 0.32207 0.02592
 O4 O 0.32132 0.35994 -0.02695
 O5 O 0.28931 0.32794 -0.02704
 O6 O 0.32739 0.28995 0.02593
 O7 O 0.28944 0.32763 0.02616
 O8 O 0.32714 0.29010 -0.02727
 Cu9 Cu 0.34349 0.34419 -0.00052
 Cu10 Cu 0.30509 0.30566 -0.00057
 C11 C 0.34957 0.29974 -0.03609
 C12 C 0.29902 0.35008 0.03504
 C13 C 0.34986 0.29955 0.03474
 C14 C 0.29882 0.35047 -0.03579
 O15 O 0.67859 0.64040 0.02609
 O16 O 0.64101 0.67794 -0.02722
 O17 O 0.67864 0.64009 -0.02701
 O18 O 0.64084 0.67810 0.02588
 O19 O 0.67283 0.71013 0.02588
 O20 O 0.71073 0.67201 -0.02712
 O21 O 0.67301 0.70995 -0.02733
 O22 O 0.71067 0.67234 0.02609
 Cu23 Cu 0.65655 0.65591 -0.00056
 Cu24 Cu 0.69505 0.69434 -0.00063
 C25 C 0.70105 0.64993 0.03497
 C26 C 0.65054 0.70037 -0.03613
 C27 C 0.70115 0.64950 -0.03587
 C28 C 0.65034 0.70060 0.03470
 O29 O 0.64095 0.32214 1.02717
 O30 O 0.67860 0.35969 0.97392
 O31 O 0.64078 0.32205 0.97407
 O32 O 0.67864 0.35994 1.02702
 O33 O 0.71068 0.32799 1.02712
 O34 O 0.67271 0.28998 0.97405
 O35 O 0.71062 0.32771 0.97391
 O36 O 0.67290 0.29009 1.02727
 Cu37 Cu 0.65652 0.34418 1.00055
 Cu38 Cu 0.69496 0.30571 1.00060
 C39 C 0.65045 0.29969 1.03608
 C40 C 0.70103 0.35014 0.96504
 C41 C 0.65024 0.29955 0.96524
 C42 C 0.70113 0.35050 1.03589
 O43 O 0.32166 0.64007 0.97411
 O44 O 0.35939 0.67767 1.02733
 O45 O 0.32168 0.63986 1.02721
 O46 O 0.35949 0.67773 0.97423
 O47 O 0.32756 0.70979 0.97423
 O48 O 0.28965 0.67181 1.02732
 O49 O 0.32744 0.70972 1.02744
 O50 O 0.28964 0.67205 0.97411
 Cu51 Cu 0.34377 0.65561 1.00072
 Cu52 Cu 0.30534 0.69408 1.00079
 C53 C 0.29921 0.64960 0.96525
 C54 C 0.34991 0.70013 1.03623
 C55 C 0.29920 0.64930 1.03608
 C56 C 0.35002 0.70022 0.96540
 O57 O 0.02632 0.32164 0.35944
 O58 O -0.02705 0.35905 0.32182
 O59 O -0.02680 0.32136 0.35957
 O60 O 0.02607 0.35944 0.32178
 O61 O 0.02625 0.32749 0.28973
 O62 O -0.02672 0.28931 0.32762
 O63 O -0.02698 0.32708 0.28977
 O64 O 0.02650 0.28960 0.32747
 Cu65 Cu -0.00038 0.34359 0.34387
 Cu66 Cu -0.00022 0.30514 0.30541
 C67 C 0.03529 0.29922 0.34992
 C68 C -0.03590 0.34950 0.29937
 C69 C -0.03557 0.29883 0.35010
 C70 C 0.03496 0.35002 0.29930
 O71 O 0.02645 0.67800 0.64041
 O72 O -0.02699 0.64071 0.67806
 O73 O -0.02667 0.67828 0.64019
 O74 O 0.02613 0.64030 0.67817
 O75 O 0.02632 0.67234 0.71013
 O76 O -0.02660 0.71042 0.67205
 O77 O -0.02691 0.67276 0.71001
 O78 O 0.02663 0.71013 0.67229
 Cu79 Cu -0.00028 0.65609 0.65600
 Cu80 Cu -0.00013 0.69466 0.69435
 C81 C 0.03542 0.70045 0.64987
 C82 C -0.03584 0.65033 0.70047
 C83 C -0.03543 0.70084 0.64958
 C84 C 0.03502 0.64979 0.70064
 O85 O 1.02697 0.64087 0.32178
 O86 O 0.97368 0.67833 0.35946
 O87 O 0.97385 0.64057 0.32175
 O88 O 1.02679 0.67848 0.35961
 O89 O 1.02677 0.71058 0.32773
 O90 O 0.97371 0.67256 0.28975
 O91 O 0.97355 0.71041 0.32755
 O92 O 1.02694 0.67288 0.28980
 Cu93 Cu 1.00033 0.65634 0.34386
 Cu94 Cu 1.00023 0.69485 0.30548
 C95 C 1.03583 0.65044 0.29935
 C96 C 0.96475 0.70078 0.34999
 C97 C 0.96496 0.65004 0.29928
 C98 C 1.03561 0.70100 0.35019
 O99 O 0.97334 0.32186 0.64004
 O100 O 1.02665 0.35927 0.67785
 O101 O 1.02646 0.32166 0.63997
 O102 O 0.97353 0.35960 0.67780
 O103 O 0.97332 0.32759 0.70977
 O104 O 1.02636 0.28955 0.67183
 O105 O 1.02655 0.32723 0.70980
 O106 O 0.97313 0.28976 0.67192
 Cu107 Cu 1.00001 0.34383 0.65571
 Cu108 Cu 0.99982 0.30529 0.69406
 C109 C 0.96437 0.29941 0.64948
 C110 C 1.03547 0.34968 0.70029
 C111 C 1.03522 0.29912 0.64939
 C112 C 0.96462 0.35013 0.70025
 O113 O 0.32171 -0.02651 0.35940
 O114 O 0.35925 0.02692 0.32195
 O115 O 0.32158 0.02662 0.35974
 O116 O 0.35955 -0.02620 0.32180
 O117 O 0.32762 -0.02626 0.28973
 O118 O 0.28953 0.02667 0.32778
 O119 O 0.32729 0.02697 0.28990
 O120 O 0.28969 -0.02656 0.32741
 Cu121 Cu 0.34374 0.00021 0.34394
 Cu122 Cu 0.30530 0.00021 0.30546
 C123 C 0.29928 -0.03543 0.34983
 C124 C 0.34972 0.03583 0.29952
 C125 C 0.29907 0.03543 0.35029
 C126 C 0.35012 -0.03503 0.29929
 O127 O 0.67839 -0.02658 0.64067
 O128 O 0.64075 0.02683 0.67804
 O129 O 0.67842 0.02654 0.64025
 O130 O 0.64053 -0.02629 0.67825
 O131 O 0.67245 -0.02622 0.71033
 O132 O 0.71046 0.02673 0.67222
 O133 O 0.67270 0.02701 0.71010
 O134 O 0.71040 -0.02650 0.67267
 Cu135 Cu 0.65631 0.00011 0.65608
 Cu136 Cu 0.69474 0.00027 0.69456
 C137 C 0.70083 -0.03543 0.65025
 C138 C 0.65026 0.03580 0.70046
 C139 C 0.70092 0.03543 0.64969
 C140 C 0.64997 -0.03506 0.70077
 O141 O 0.32129 1.02645 0.64086
 O142 O 0.35897 0.97320 0.67841
 O143 O 0.32130 0.97333 0.64061
 O144 O 0.35915 1.02632 0.67846
 O145 O 0.32723 1.02634 0.71052
 O146 O 0.28927 0.97323 0.67255
 O147 O 0.32702 0.97311 0.71045
 O148 O 0.28928 1.02646 0.67284
 Cu149 Cu 0.34340 0.99982 0.65636
 Cu150 Cu 0.30497 0.99977 0.69483
 C151 C 0.29885 1.03533 0.65041
 C152 C 0.34947 0.96429 0.70085
 C153 C 0.29882 0.96446 0.65006
 C154 C 0.34970 1.03516 0.70094
 O155 O 0.64105 0.97368 0.32213
 O156 O 0.67872 1.02695 0.35976
 O157 O 0.64085 1.02680 0.32214
 O158 O 0.67872 0.97382 0.35994
 O159 O 0.71076 0.97378 0.32800
 O160 O 0.67277 1.02687 0.29008
 O161 O 0.71072 1.02701 0.32779
 O162 O 0.67300 0.97364 0.29010
 Cu163 Cu 0.65662 1.00031 0.34421
 Cu164 Cu 0.69505 1.00033 0.30576
 C165 C 0.65055 0.96480 0.29967
 C166 C 0.70116 1.03585 0.35024
 C167 C 0.65029 1.03566 0.29966
 C168 C 0.70121 0.96498 0.35048
 O169 O 0.82229 0.85915 0.52732
 O170 O 0.85985 0.82163 0.47398
 O171 O 0.82222 0.85945 0.47423
 O172 O 0.86010 0.82148 0.52708
 O173 O 0.82814 0.78942 0.52708
 O174 O 0.79015 0.82750 0.47411
 O175 O 0.82786 0.78960 0.47387
 O176 O 0.79024 0.82719 0.52731
 Cu177 Cu 0.84434 0.84364 0.50067
 Cu178 Cu 0.80586 0.80519 0.50060
 C179 C 0.79983 0.84963 0.53618
 C180 C 0.85030 0.79921 0.46504
 C181 C 0.79972 0.85000 0.46536
 C182 C 0.85065 0.79896 0.53588
 O183 O 0.14018 0.17840 0.47389
 O184 O 0.17764 0.14081 0.52725
 O185 O 0.13985 0.17851 0.52699
 O186 O 0.17781 0.14059 0.47415
 O187 O 0.20989 0.17253 0.47416
 O188 O 0.17182 0.21055 0.52712
 O189 O 0.20970 0.17277 0.52737
 O190 O 0.17217 0.21043 0.47391
 Cu191 Cu 0.15565 0.15636 0.50057
 Cu192 Cu 0.19413 0.19481 0.50065
 C193 C 0.14974 0.20083 0.46501
 C194 C 0.20009 0.15032 0.53617
 C195 C 0.14930 0.20101 0.53584
 C196 C 0.20033 0.15004 0.46535
 O197 O 0.14045 0.82126 0.52601
 O198 O 0.17805 0.85895 0.47282
 O199 O 0.14025 0.82126 0.47291
 O200 O 0.17808 0.85909 0.52592
 O201 O 0.21015 0.82716 0.52595
 O202 O 0.17220 0.78922 0.47282
 O203 O 0.21010 0.82700 0.47275
 O204 O 0.17243 0.78924 0.52603
 Cu205 Cu 0.15598 0.84336 0.49941
 Cu206 Cu 0.19446 0.80492 0.49938
 C207 C 0.14999 0.79882 0.53488
 C208 C 0.20051 0.84946 0.46394
 C209 C 0.14971 0.79878 0.46404
 C210 C 0.20056 0.84963 0.53477
 O211 O 0.82195 0.14045 0.47232
 O212 O 0.85955 0.17821 0.52553
 O213 O 0.82191 0.14038 0.52543
 O214 O 0.85978 0.17816 0.47243
 O215 O 0.82782 0.21019 0.47229
 O216 O 0.78985 0.17231 0.52541
 O217 O 0.82757 0.21023 0.52550
 O218 O 0.78991 0.17240 0.47220
 Cu219 Cu 0.84402 0.15608 0.49892
 Cu220 Cu 0.80555 0.19452 0.49883
 C221 C 0.79949 0.14992 0.46342
 C222 C 0.85002 0.20067 0.53438
 C223 C 0.79942 0.14985 0.53425
 C224 C 0.85033 0.20064 0.46355
 O225 O 0.47311 0.85915 0.82195
 O226 O 0.52652 0.82155 0.85936
 O227 O 0.52623 0.85942 0.82180
 O228 O 0.47340 0.82144 0.85971
 O229 O 0.47328 0.78942 0.82773
 O230 O 0.52623 0.82752 0.78970
 O231 O 0.52651 0.78956 0.82735
 O232 O 0.47300 0.82722 0.78988
 Cu233 Cu 0.49982 0.84361 0.84393
 Cu234 Cu 0.49975 0.80520 0.80542
 C235 C 0.46418 0.84965 0.79951
 C236 C 0.53541 0.79913 0.84977
 C237 C 0.53503 0.85000 0.79928
 C238 C 0.46455 0.79895 0.85025
 O239 O 0.52659 0.17859 0.14091
 O240 O 0.47324 0.14102 0.17844
 O241 O 0.47347 0.17862 0.14057
 O242 O 0.52636 0.14084 0.17859
 O243 O 0.52636 0.17284 0.21060
 O244 O 0.47335 0.21073 0.17246
 O245 O 0.47313 0.17305 0.21042
 O246 O 0.52658 0.21068 0.17283
 Cu247 Cu 0.49992 0.15654 0.15641
 Cu248 Cu 0.49984 0.19507 0.19480
 C249 C 0.53547 0.20106 0.15042
 C250 C 0.46431 0.15058 0.20084
 C251 C 0.46461 0.20113 0.14997
 C252 C 0.53517 0.15034 0.20108
 O253 O 0.52678 0.14102 0.82160
 O254 O 0.47352 0.17865 0.85917
 O255 O 0.47366 0.14082 0.82157
 O256 O 0.52664 0.17868 0.85942
 O257 O 0.52671 0.21073 0.82748
 O258 O 0.47361 0.17275 0.78951
 O259 O 0.47348 0.21067 0.82721
 O260 O 0.52684 0.17298 0.78957
 Cu261 Cu 0.50015 0.15657 0.84366
 Cu262 Cu 0.50017 0.19502 0.80521
 C263 C 0.53567 0.15053 0.79916
 C264 C 0.46462 0.20109 0.84964
 C265 C 0.46481 0.15027 0.79909
 C266 C 0.53549 0.20117 0.84997
 O267 O 0.47383 0.82175 0.14070
 O268 O 0.52713 0.85951 0.17821
 O269 O 0.52696 0.82180 0.14041
 O270 O 0.47400 0.85963 0.17829
 O271 O 0.47404 0.82772 0.21037
 O272 O 0.52711 0.78978 0.17237
 O273 O 0.52726 0.82757 0.21026
 O274 O 0.47388 0.78975 0.17269
 Cu275 Cu 0.50048 0.84389 0.15618
 Cu276 Cu 0.50059 0.80547 0.19466
 C277 C 0.46498 0.79930 0.15025
 C278 C 0.53605 0.85003 0.20065
 C279 C 0.53584 0.79932 0.14986
 C280 C 0.46520 0.85018 0.20079
 O281 O 0.85913 0.52701 0.82175
 O282 O 0.82179 0.47361 0.85941
 O283 O 0.85946 0.47389 0.82163
 O284 O 0.82157 0.52673 0.85964
 O285 O 0.78942 0.52671 0.82779
 O286 O 0.82741 0.47375 0.78969
 O287 O 0.78965 0.47348 0.82756
 O288 O 0.82706 0.52698 0.78981
 Cu289 Cu 0.84372 0.50032 0.84382
 Cu290 Cu 0.80514 0.50022 0.80549
 C291 C 0.84951 0.53588 0.79934
 C292 C 0.79934 0.46466 0.84996
 C293 C 0.84995 0.46502 0.79917
 C294 C 0.79902 0.53552 0.85026
 O295 O 0.17821 0.47355 0.14055
 O296 O 0.14084 0.52697 0.17815
 O297 O 0.17850 0.52667 0.14036
 O298 O 0.14043 0.47385 0.17822
 O299 O 0.17240 0.47369 0.21025
 O300 O 0.21057 0.52662 0.17229
 O301 O 0.17282 0.52692 0.21017
 O302 O 0.21027 0.47340 0.17249
 Cu303 Cu 0.15627 0.50027 0.15610
 Cu304 Cu 0.19475 0.50014 0.19453
 C305 C 0.20063 0.46459 0.15005
 C306 C 0.15041 0.53583 0.20058
 C307 C 0.20103 0.53544 0.14981
 C308 C 0.14987 0.46497 0.20071
 O309 O 0.82178 0.52638 0.14051
 O310 O 0.85918 0.47304 0.17820
 O311 O 0.82157 0.47326 0.14035
 O312 O 0.85952 0.52617 0.17824
 O313 O 0.82752 0.52633 0.21022
 O314 O 0.78947 0.47331 0.17223
 O315 O 0.82716 0.47310 0.21017
 O316 O 0.78969 0.52654 0.17241
 Cu317 Cu 0.84374 0.49970 0.15611
 Cu318 Cu 0.80522 0.49983 0.19449
 C319 C 0.79935 0.53534 0.14998
 C320 C 0.84959 0.46419 0.20062
 C321 C 0.79904 0.46448 0.14977
 C322 C 0.85005 0.53506 0.20070
 O323 O 0.17798 0.52621 0.85974
 O324 O 0.14051 0.47290 0.82200
 O325 O 0.17813 0.47308 0.85986
 O326 O 0.14023 0.52602 0.82200
 O327 O 0.17223 0.52617 0.79002
 O328 O 0.21023 0.47312 0.82799
 O329 O 0.17252 0.47294 0.79003
 O330 O 0.21007 0.52634 0.82785
 Cu331 Cu 0.15599 0.49954 0.84411
 Cu332 Cu 0.19450 0.49965 0.80574
 C333 C 0.20044 0.53514 0.85028
 C334 C 0.15007 0.46405 0.79956
 C335 C 0.20066 0.46429 0.85044
 C336 C 0.14971 0.53491 0.79954
 C337 C 0.28390 0.36536 0.05500
 C338 C 0.27114 0.37889 0.07118
 C339 C 0.25616 0.39551 0.08941
 C340 C 0.24337 0.41037 0.10434
 C341 C 0.22841 0.42852 0.12107
 C342 C 0.21568 0.44465 0.13468
 C343 C 0.71614 0.63462 0.05492
 C344 C 0.72889 0.62106 0.07109
 C345 C 0.74385 0.60442 0.08931
 C346 C 0.75663 0.58955 0.10424
 C347 C 0.77158 0.57139 0.12097
 C348 C 0.78430 0.55526 0.13459
 C349 C 0.71614 0.36545 0.94510
 C350 C 0.72890 0.37899 0.92893
 C351 C 0.74386 0.39561 0.91069
 C352 C 0.75665 0.41046 0.89575
 C353 C 0.77159 0.42861 0.87900
 C354 C 0.78430 0.44474 0.86536
 C355 C 0.28405 0.63427 0.94534
 C356 C 0.27124 0.62072 0.92920
 C357 C 0.25620 0.60409 0.91100
 C358 C 0.24334 0.58924 0.89608
 C359 C 0.22832 0.57112 0.87935
 C360 C 0.21554 0.55503 0.86571
 C361 C 0.05521 0.28416 0.36531
 C362 C 0.07133 0.27142 0.37893
 C363 C 0.08947 0.25646 0.39567
 C364 C 0.10432 0.24366 0.41061
 C365 C 0.12093 0.22869 0.42885
 C366 C 0.13446 0.21593 0.44504
 C367 C 0.05536 0.71548 0.63447
 C368 C 0.07149 0.72820 0.62084
 C369 C 0.08963 0.74315 0.60411
 C370 C 0.10449 0.75594 0.58917
 C371 C 0.12112 0.77093 0.57096
 C372 C 0.13467 0.78370 0.55480
 C373 C 0.94486 0.71586 0.36538
 C374 C 0.92876 0.72861 0.37901
 C375 C 0.91063 0.74359 0.39575
 C376 C 0.89579 0.75640 0.41068
 C377 C 0.87916 0.77138 0.42891
 C378 C 0.86562 0.78413 0.44509
 C379 C 0.94450 0.28433 0.63402
 C380 C 0.92842 0.27156 0.62035
 C381 C 0.91032 0.25654 0.60360
 C382 C 0.89549 0.24369 0.58865
 C383 C 0.87888 0.22865 0.57044
 C384 C 0.86534 0.21583 0.55429
 C385 C 0.36506 0.05578 0.28443
 C386 C 0.37862 0.07192 0.27166
 C387 C 0.39527 0.09010 0.25664
 C388 C 0.41013 0.10498 0.24379
 C389 C 0.42828 0.12165 0.22875
 C390 C 0.44440 0.13523 0.21596
 C391 C 0.63489 0.05574 0.71553
 C392 C 0.62131 0.07187 0.72830
 C393 C 0.60465 0.09004 0.74332
 C394 C 0.58979 0.10491 0.75618
 C395 C 0.57165 0.12158 0.77122
 C396 C 0.55555 0.13517 0.78402
 C397 C 0.36484 0.94440 0.71597
 C398 C 0.37843 0.92829 0.72876
 C399 C 0.39509 0.91014 0.74379
 C400 C 0.40996 0.89526 0.75664
 C401 C 0.42812 0.87860 0.77166
 C402 C 0.44425 0.86501 0.78443
 C403 C 0.63517 0.94492 0.28451
 C404 C 0.62160 0.92881 0.27168
 C405 C 0.60496 0.91066 0.25659
 C406 C 0.59011 0.89577 0.24368
 C407 C 0.57200 0.87908 0.22860
 C408 C 0.55592 0.86546 0.21578
 C409 C 0.36497 0.28464 0.94403
 C410 C 0.37860 0.27186 0.92795
 C411 C 0.39534 0.25685 0.90986
 C412 C 0.41028 0.24401 0.89505
 C413 C 0.42851 0.22899 0.87846
 C414 C 0.44468 0.21621 0.86494
 C415 C 0.63516 0.71550 0.94400
 C416 C 0.62153 0.72830 0.92793
 C417 C 0.60479 0.74334 0.90986
 C418 C 0.58984 0.75619 0.89507
 C419 C 0.57159 0.77122 0.87851
 C420 C 0.55539 0.78401 0.86503
 C421 C 0.36534 0.71530 0.05605
 C422 C 0.37900 0.72815 0.07208
 C423 C 0.39575 0.74325 0.09013
 C424 C 0.41068 0.75616 0.10490
 C425 C 0.42890 0.77127 0.12146
 C426 C 0.44505 0.78412 0.13496
 C427 C 0.63507 0.28458 0.05595
 C428 C 0.62145 0.27179 0.07203
 C429 C 0.60473 0.25678 0.09014
 C430 C 0.58980 0.24394 0.10497
 C431 C 0.57158 0.22893 0.12158
 C432 C 0.55542 0.21616 0.13512
 C433 C 0.28372 0.05526 0.63512
 C434 C 0.27092 0.07142 0.62160
 C435 C 0.25588 0.08964 0.60502
 C436 C 0.24302 0.10458 0.59022
 C437 C 0.22799 0.12131 0.57213
 C438 C 0.21520 0.13494 0.55605
 C439 C 0.71552 0.05468 0.36476
 C440 C 0.72836 0.07086 0.37825
 C441 C 0.74345 0.08910 0.39480
 C442 C 0.75637 0.10405 0.40956
 C443 C 0.77147 0.12081 0.42759
 C444 C 0.78432 0.13447 0.44361
 C445 C 0.71598 0.94461 0.63500
 C446 C 0.72880 0.92843 0.62152
 C447 C 0.74388 0.91022 0.60497
 C448 C 0.75677 0.89530 0.59018
 C449 C 0.77185 0.87859 0.57211
 C450 C 0.78468 0.86499 0.55605
 C451 C 0.28418 0.94460 0.36511
 C452 C 0.27140 0.92841 0.37861
 C453 C 0.25636 0.91018 0.39518
 C454 C 0.24351 0.89524 0.40998
 C455 C 0.22846 0.87850 0.42805
 C456 C 0.21565 0.86486 0.44410
 C457 C 0.05538 0.36496 0.71550
 C458 C 0.07150 0.37849 0.72836
 C459 C 0.08966 0.39510 0.74348
 C460 C 0.10453 0.40994 0.75640
 C461 C 0.12118 0.42806 0.77151
 C462 C 0.13475 0.44416 0.78437
 C463 C 0.05575 0.63515 0.28420
 C464 C 0.07189 0.62160 0.27141
 C465 C 0.09006 0.60496 0.25638
 C466 C 0.10493 0.59009 0.24353
 C467 C 0.12158 0.57192 0.22851
 C468 C 0.13512 0.55578 0.21572
 C469 C 0.94417 0.36479 0.28423
 C470 C 0.92803 0.37835 0.27144
 C471 C 0.90988 0.39501 0.25642
 C472 C 0.89502 0.40991 0.24358
 C473 C 0.87839 0.42810 0.22856
 C474 C 0.86487 0.44425 0.21576
 C475 C 0.94419 0.63508 0.71562
 C476 C 0.92803 0.62157 0.72842
 C477 C 0.90984 0.60496 0.74347
 C478 C 0.89496 0.59011 0.75633
 C479 C 0.87831 0.57195 0.77137
 C480 C 0.86478 0.55582 0.78418
 C481 C 0.71552 0.63480 0.94543
 C482 C 0.72829 0.62114 0.92935
 C483 C 0.74328 0.60439 0.91118
 C484 C 0.75607 0.58948 0.89625
 C485 C 0.77105 0.57134 0.87947
 C486 C 0.78383 0.55529 0.86577
 C487 C 0.28440 0.36511 0.94551
 C488 C 0.27157 0.37874 0.92943
 C489 C 0.25653 0.39545 0.91127
 C490 C 0.24370 0.41033 0.89636
 C491 C 0.22867 0.42845 0.87960
 C492 C 0.21587 0.44450 0.86592
 C493 C 0.28482 0.63464 0.05479
 C494 C 0.27201 0.62100 0.07088
 C495 C 0.25699 0.60427 0.08903
 C496 C 0.24416 0.58938 0.10394
 C497 C 0.22912 0.57126 0.12068
 C498 C 0.21629 0.55521 0.13434
 C499 C 0.71551 0.36515 0.05462
 C500 C 0.72830 0.37879 0.07073
 C501 C 0.74327 0.39553 0.08892
 C502 C 0.75607 0.41044 0.10385
 C503 C 0.77105 0.42859 0.12062
 C504 C 0.78383 0.44467 0.13430
 C505 C 0.94587 0.71524 0.63493
 C506 C 0.92977 0.72805 0.62130
 C507 C 0.91158 0.74307 0.60460
 C508 C 0.89664 0.75589 0.58974
 C509 C 0.87984 0.77091 0.57165
 C510 C 0.86614 0.78372 0.55563
 C511 C 0.94570 0.28439 0.36469
 C512 C 0.92958 0.27155 0.37826
 C513 C 0.91136 0.25650 0.39489
 C514 C 0.89639 0.24366 0.40971
 C515 C 0.87956 0.22864 0.42777
 C516 C 0.86584 0.21584 0.44378
 C517 C 0.05396 0.28472 0.63478
 C518 C 0.07007 0.27191 0.62118
 C519 C 0.08829 0.25689 0.60451
 C520 C 0.10324 0.24406 0.58967
 C521 C 0.12006 0.22904 0.57160
 C522 C 0.13378 0.21623 0.55559
 C523 C 0.05437 0.71538 0.36481
 C524 C 0.07051 0.72815 0.37843
 C525 C 0.08875 0.74311 0.39513
 C526 C 0.10372 0.75588 0.41001
 C527 C 0.12053 0.77084 0.42815
 C528 C 0.13423 0.78360 0.44422
 C529 C 0.63450 0.94515 0.71597
 C530 C 0.62081 0.92908 0.72874
 C531 C 0.60403 0.91091 0.74368
 C532 C 0.58909 0.89598 0.75643
 C533 C 0.57091 0.87920 0.77136
 C534 C 0.55483 0.86550 0.78411
 C535 C 0.36562 0.94519 0.28410
 C536 C 0.37932 0.92913 0.27134
 C537 C 0.39612 0.91097 0.25640
 C538 C 0.41107 0.89606 0.24365
 C539 C 0.42927 0.87930 0.22872
 C540 C 0.44537 0.86563 0.21597
 C541 C 0.63480 0.05547 0.28449
 C542 C 0.62109 0.07153 0.27174
 C543 C 0.60428 0.08967 0.25680
 C544 C 0.58932 0.10456 0.24403
 C545 C 0.57111 0.12128 0.22907
 C546 C 0.55500 0.13492 0.21629
 C547 C 0.36515 0.05502 0.71609
 C548 C 0.37884 0.07115 0.72880
 C549 C 0.39564 0.08937 0.74367
 C550 C 0.41060 0.10433 0.75637
 C551 C 0.42882 0.12112 0.77124
 C552 C 0.44495 0.13481 0.78395
 C553 C 0.63492 0.71581 0.05453
 C554 C 0.62130 0.72860 0.07063
 C555 C 0.60461 0.74359 0.08885
 C556 C 0.58975 0.75638 0.10382
 C557 C 0.57165 0.77136 0.12064
 C558 C 0.55562 0.78413 0.13436
 C559 C 0.36534 0.28439 0.05456
 C560 C 0.37901 0.27164 0.07066
 C561 C 0.39576 0.25671 0.08888
 C562 C 0.41065 0.24396 0.10385
 C563 C 0.42878 0.22903 0.12068
 C564 C 0.44483 0.21629 0.13442
 C565 C 0.63481 0.28440 0.94537
 C566 C 0.62116 0.27166 0.92923
 C567 C 0.60443 0.25675 0.91098
 C568 C 0.58953 0.24401 0.89600
 C569 C 0.57138 0.22909 0.87917
 C570 C 0.55531 0.21634 0.86545
 C571 C 0.36545 0.71540 0.94556
 C572 C 0.37909 0.72817 0.92945
 C573 C 0.39580 0.74314 0.91123
 C574 C 0.41067 0.75593 0.89627
 C575 C 0.42877 0.77092 0.87946
 C576 C 0.44479 0.78372 0.86575
 C577 C 0.71639 0.94516 0.36593
 C578 C 0.72915 0.92907 0.37961
 C579 C 0.74410 0.91090 0.39638
 C580 C 0.75686 0.89597 0.41131
 C581 C 0.77180 0.87919 0.42948
 C582 C 0.78455 0.86550 0.44556
 C583 C 0.28366 0.94463 0.63459
 C584 C 0.27093 0.92854 0.62087
 C585 C 0.25603 0.91037 0.60405
 C586 C 0.24331 0.89546 0.58906
 C587 C 0.22842 0.87871 0.57081
 C588 C 0.21570 0.86506 0.55466
 C589 C 0.28385 0.05519 0.36579
 C590 C 0.27105 0.07122 0.37950
 C591 C 0.25607 0.08933 0.39631
 C592 C 0.24328 0.10421 0.41126
 C593 C 0.22830 0.12093 0.42945
 C594 C 0.21552 0.13458 0.44554
 C595 C 0.71611 0.05518 0.63415
 C596 C 0.72888 0.07119 0.62040
 C597 C 0.74383 0.08928 0.60354
 C598 C 0.75658 0.10414 0.58853
 C599 C 0.77152 0.12082 0.57028
 C600 C 0.78426 0.13444 0.55413
 C601 C 0.94515 0.63456 0.28410
 C602 C 0.92907 0.62087 0.27133
 C603 C 0.91090 0.60408 0.25637
 C604 C 0.89598 0.58915 0.24360
 C605 C 0.87921 0.57097 0.22864
 C606 C 0.86553 0.55488 0.21588
 C607 C 0.94484 0.36563 0.71544
 C608 C 0.92880 0.37933 0.72824
 C609 C 0.91068 0.39611 0.74326
 C610 C 0.89580 0.41103 0.75608
 C611 C 0.87907 0.42918 0.77111
 C612 C 0.86542 0.44524 0.78393
 C613 C 0.05477 0.63429 0.71587
 C614 C 0.07080 0.62060 0.72869
 C615 C 0.08893 0.60383 0.74371
 C616 C 0.10382 0.58892 0.75653
 C617 C 0.12056 0.57077 0.77155
 C618 C 0.13423 0.55470 0.78434
 C619 C 0.05474 0.36556 0.28414
 C620 C 0.07079 0.37928 0.27138
 C621 C 0.08894 0.39607 0.25641
 C622 C 0.10386 0.41099 0.24363
 C623 C 0.12064 0.42915 0.22866
 C624 C 0.13434 0.44520 0.21589
   
