data_POSCAR
  _audit_creation_date              2014-09-24
  _audit_creation_method            'ToBaCCo'
  _symmetry_space_group_name_H-M    'P1'
  _symmetry_Int_Tables_number       1
  _symmetry_cell_setting            triclinic
  loop_
  _symmetry_equiv_pos_as_xyz
 x,y,z
_cell_length_a 16.5350
_cell_length_b 12.6485
_cell_length_c 12.6381
_cell_angle_alpha 89.712400
_cell_angle_beta 90.259800
_cell_angle_gamma 89.754100
loop_
  _atom_site_label
  _atom_site_type_symbol
  _atom_site_fract_x
  _atom_site_fract_y
  _atom_site_fract_z
O1 O 0.11373 0.18016 0.19555
 O2 O 0.20312 0.08686 0.09314
 C3 C 0.18648 0.15383 0.16727
 O4 O -0.11155 -0.19628 0.18226
 O5 O -0.20077 -0.09311 0.08764
 C6 C -0.18433 -0.16753 0.15507
 O7 O 0.11527 -0.18700 0.19300
 O8 O 0.20369 -0.09100 0.09204
 C9 C 0.18812 -0.15996 0.16540
 O10 O -0.11208 0.19127 0.18533
 O11 O -0.20117 0.09174 0.08865
 C12 C -0.18482 0.16431 0.15745
 Zr13 Zr 0.00091 0.13111 0.13402
 O14 O -0.00621 0.12809 0.30119
 O15 O 0.00959 0.29810 0.13426
 Zr16 Zr 0.00160 -0.13523 0.13291
 O17 O -0.00185 -0.12581 0.29975
 O18 O 0.00990 -0.30227 0.13665
 O19 O 0.07379 -0.00249 0.15388
 O20 O -0.06947 -0.00218 0.15249
 O21 O -0.11367 0.19405 -0.18247
 O22 O -0.20270 0.09180 -0.08817
 C23 C -0.18632 0.16596 -0.15571
 O24 O 0.11365 -0.18257 -0.19494
 O25 O 0.20311 -0.08880 -0.09310
 C26 C 0.18639 -0.15590 -0.16704
 O27 O -0.11209 -0.19189 -0.18649
 O28 O -0.20119 -0.09171 -0.09060
 C29 C -0.18482 -0.16432 -0.15934
 O30 O 0.11290 0.18544 -0.19315
 O31 O 0.20275 0.08895 -0.09250
 C32 C 0.18582 0.15790 -0.16568
 Zr33 Zr 0.00031 0.13418 -0.13282
 O34 O -0.00932 0.13651 -0.29995
 O35 O 0.00901 0.30116 -0.13073
 Zr36 Zr 0.00084 -0.13272 -0.13422
 O37 O -0.00850 -0.13170 -0.30137
 O38 O 0.01034 -0.29977 -0.13283
 Zr39 Zr 0.12198 -0.00085 -0.00019
 Zr40 Zr -0.11998 -0.00029 -0.00064
 O41 O -0.06975 0.00112 -0.15332
 O42 O 0.07277 0.00080 -0.15443
 O43 O -0.07172 0.15376 0.00052
 O44 O 0.07174 -0.15346 -0.00068
 O45 O 0.07110 0.15193 0.00084
 O46 O -0.07106 -0.15457 -0.00096
 H47 H -0.10585 -0.00263 0.21458
 H48 H 0.10823 -0.21579 -0.00084
 H49 H -0.10625 0.00186 -0.21572
 H50 H 0.10744 0.21402 0.00127
 H51 H -0.03134 -0.32964 0.08710
 H52 H -0.03636 -0.32772 -0.09301
 H53 H 0.03564 -0.08697 -0.32894
 H54 H 0.03540 0.09294 -0.32810
 H55 H -0.03719 0.32853 -0.08950
 H56 H -0.03581 0.32631 0.09128
 H57 H 0.03227 0.07341 0.32672
 H58 H -0.00156 -0.19973 0.32611
 O59 O 0.61292 0.68622 0.68935
 O60 O 0.70195 0.59159 0.58779
 C61 C 0.68566 0.65950 0.66122
 O62 O 0.38653 0.30860 0.68239
 O63 O 0.29682 0.41033 0.58653
 C64 C 0.31361 0.33675 0.65516
 O65 O 0.61266 0.31833 0.69401
 O66 O 0.70138 0.41301 0.59211
 C67 C 0.68517 0.34533 0.66618
 O68 O 0.38675 0.69574 0.68035
 O69 O 0.29752 0.59436 0.58588
 C70 C 0.31407 0.66787 0.65351
 Zr71 Zr 0.49948 0.63506 0.63023
 O72 O 0.49098 0.63371 0.79740
 O73 O 0.50788 0.80204 0.62958
 Zr74 Zr 0.49972 0.36801 0.63198
 O75 O 0.49191 0.36328 0.79906
 O76 O 0.50405 0.20132 0.62212
 O77 O 0.57189 0.50152 0.65219
 O78 O 0.42935 0.50171 0.65050
 O79 O 0.38385 0.69386 0.31191
 O80 O 0.29579 0.59319 0.40909
 C81 C 0.31119 0.66624 0.33981
 O82 O 0.61256 0.31562 0.30601
 O83 O 0.70133 0.41157 0.40660
 C84 C 0.68520 0.34294 0.33379
 O85 O 0.38709 0.30564 0.31641
 O86 O 0.29770 0.40827 0.40943
 C87 C 0.31435 0.33381 0.34284
 O88 O 0.61254 0.68351 0.30362
 O89 O 0.70207 0.58806 0.40622
 C90 C 0.68547 0.65595 0.33217
 Zr91 Zr 0.49833 0.63468 0.36281
 O92 O 0.48897 0.63402 0.19568
 O93 O 0.50675 0.80167 0.36150
 Zr94 Zr 0.49962 0.36792 0.36503
 O95 O 0.49010 0.37060 0.19785
 O96 O 0.50763 0.20088 0.36541
 Zr97 Zr 0.62001 0.50142 0.49800
 Zr98 Zr 0.37865 0.50158 0.49755
 O99 O 0.42839 0.50109 0.34455
 O100 O 0.57128 0.50126 0.34340
 O101 O 0.42666 0.65578 0.49639
 O102 O 0.57036 0.34861 0.49905
 O103 O 0.56905 0.65428 0.49638
 O104 O 0.42750 0.34753 0.49856
 H105 H 0.39314 0.50174 0.71276
 H106 H 0.60703 0.28643 0.49974
 H107 H 0.39149 0.50070 0.28256
 H108 H 0.60524 0.71651 0.49582
 H109 H 0.50365 0.17473 0.69601
 H110 H 0.47217 0.17495 0.42272
 H111 H 0.53695 0.41030 0.17020
 H112 H 0.53458 0.59146 0.16841
 H113 H 0.46099 0.82955 0.40322
 H114 H 0.46377 0.82963 0.58396
 H115 H 0.53818 0.59410 0.82547
 H116 H 0.53175 0.41425 0.82690
 C117 C 0.25532 0.20410 0.22070
 C118 C 0.24552 0.27947 0.29358
 H119 H 0.31559 0.18012 0.19716
 H120 H 0.18525 0.30405 0.31649
 C121 C 0.74619 0.77954 0.20436
 C122 C 0.75492 0.70517 0.27912
 H123 H 0.68618 0.80451 0.17975
 H124 H 0.81494 0.68074 0.30422
 C125 C 0.74467 0.22003 0.79403
 C126 C 0.75422 0.29511 0.72022
 H127 H 0.68450 0.19557 0.81709
 H128 H 0.81438 0.31909 0.69663
 C129 C 0.25514 0.79438 0.77894
 C130 C 0.24525 0.72116 0.70390
 H131 H 0.31543 0.81747 0.80330
 H132 H 0.18496 0.69757 0.68001
 C133 C 0.25459 0.20865 0.78068
 C134 C 0.24477 0.28338 0.70602
 H135 H 0.31494 0.18464 0.80475
 H136 H 0.18442 0.30773 0.68226
 C137 C 0.74591 0.78308 0.78970
 C138 C 0.75498 0.70988 0.71432
 H139 H 0.68578 0.80668 0.81418
 H140 H 0.81510 0.68662 0.68950
 C141 C 0.25190 0.79414 0.21367
 C142 C 0.24457 0.71630 0.29244
 H143 H 0.31196 0.81785 0.18907
 H144 H 0.18484 0.69165 0.31744
 C145 C 0.74580 0.21764 0.20739
 C146 C 0.75467 0.29225 0.28139
 H147 H 0.68572 0.19346 0.18322
 H148 H 0.81474 0.31620 0.30583
   
