data_POSCAR
  _audit_creation_date              2014-09-24
  _audit_creation_method            'ToBaCCo'
  _symmetry_space_group_name_H-M    'P1'
  _symmetry_Int_Tables_number       1
  _symmetry_cell_setting            triclinic
  loop_
  _symmetry_equiv_pos_as_xyz
 x,y,z
_cell_length_a 37.7703
_cell_length_b 38.5452
_cell_length_c 22.2564
_cell_angle_alpha 89.894100
_cell_angle_beta 89.969000
_cell_angle_gamma 117.286400
loop_
  _atom_site_label
  _atom_site_type_symbol
  _atom_site_fract_x
  _atom_site_fract_y
  _atom_site_fract_z
C1 C 0.44754 0.91707 0.55400
 C2 C 0.43655 0.89851 0.49798
 C3 C 0.44789 0.91931 0.44414
 C4 C 0.47111 0.96027 0.44518
 C5 C 0.48291 0.98000 0.50098
 C6 C 0.47149 0.95838 0.55564
 C7 C 0.48759 0.97819 0.60968
 C8 C 0.51195 1.01824 0.61065
 C9 C 0.52164 1.04067 0.55764
 C10 C 0.50781 1.02121 0.50194
 C11 C 0.48366 0.98181 0.39170
 C12 C 0.50844 1.02174 0.39262
 C13 C 0.52030 1.04246 0.44709
 C14 C 0.54702 1.08315 0.44820
 C15 C 0.56158 1.10123 0.50378
 C16 C 0.54800 1.08138 0.55850
 H17 H 0.48312 0.96289 0.65191
 H18 H 0.52455 1.03108 0.65353
 H19 H 0.47528 0.96787 0.34825
 H20 H 0.51924 1.03571 0.34969
 H21 H 0.41831 0.86709 0.49596
 H22 H 0.58092 1.13248 0.50467
 C23 C -0.08385 0.44470 0.44517
 C24 C -0.10403 0.43097 0.49946
 C25 C -0.08490 0.44371 0.55512
 C26 C -0.04314 0.46930 0.55580
 C27 C -0.02217 0.48272 0.50062
 C28 C -0.04269 0.47061 0.44523
 C29 C -0.02137 0.48393 0.39117
 C30 C 0.01941 0.50860 0.39135
 C31 C 0.04048 0.52096 0.44560
 C32 C 0.01960 0.50778 0.50074
 C33 C -0.02118 0.47977 0.60971
 C34 C 0.01951 0.50479 0.60986
 C35 C 0.04055 0.51903 0.55593
 C36 C 0.08209 0.54395 0.55565
 C37 C 0.10216 0.55681 0.50099
 C38 C 0.08209 0.54542 0.44621
 H39 H -0.03595 0.47493 0.34805
 H40 H 0.03432 0.51758 0.34839
 H41 H -0.03487 0.46808 0.65262
 H42 H 0.03437 0.51239 0.65291
 H43 H -0.13591 0.41203 0.49799
 H44 H 0.13411 0.57545 0.50105
 C45 C 0.54293 0.45766 0.44453
 C46 C 0.55395 0.44685 0.49846
 C47 C 0.54529 0.45796 0.55446
 C48 C 0.52577 0.48204 0.55587
 C49 C 0.51416 0.49303 0.50115
 C50 C 0.52268 0.48065 0.44539
 C51 C 0.51107 0.49184 0.39181
 C52 C 0.49282 0.51598 0.39264
 C53 C 0.48472 0.52931 0.44714
 C54 C 0.49517 0.51755 0.50199
 C55 C 0.52070 0.49833 0.60974
 C56 C 0.50208 0.52216 0.61055
 C57 C 0.48778 0.53120 0.55749
 C58 C 0.46951 0.55635 0.55792
 C59 C 0.46119 0.56891 0.50289
 C60 C 0.46762 0.55514 0.44806
 H61 H 0.51644 0.48246 0.34847
 H62 H 0.48579 0.52461 0.34981
 H63 H 0.53240 0.49415 0.65191
 H64 H 0.50048 0.53468 0.65328
 H65 H 0.56868 0.42842 0.49652
 H66 H 0.44699 0.58783 0.50249
 O67 O 0.39440 0.66735 -0.05056
 O68 O 0.38628 0.72933 -0.07038
 C69 C 0.36508 0.74599 -0.08276
 O70 O 0.33518 0.74164 -0.05121
 O71 O 0.27282 0.67465 -0.06872
 C72 C 0.25737 0.63853 -0.08060
 O73 O 0.26472 0.61456 -0.05014
 O74 O 0.33435 0.61783 -0.06820
 C75 C 0.37099 0.63754 -0.08039
 O76 O 0.39177 0.67873 0.06905
 O77 O 0.38786 0.74344 0.04891
 C78 C 0.36168 0.74743 0.07999
 O79 O 0.32478 0.72880 0.06882
 O80 O 0.26035 0.66377 0.05109
 C81 C 0.25799 0.63486 0.08171
 O82 O 0.27831 0.61724 0.06959
 O83 O 0.34628 0.61742 0.05145
 C84 C 0.37518 0.64264 0.08174
 Cr85 Cr 0.38799 0.70365 -0.00065
 Cr86 Cr 0.29948 0.70121 -0.00001
 Cr87 Cr 0.30680 0.61885 0.00064
 O88 O 0.33141 0.67452 -0.00006
 O89 O 0.60609 0.33511 -0.05179
 O90 O 0.60920 0.26945 -0.06776
 C91 C 0.62944 0.25166 -0.07932
 O92 O 0.65980 0.25618 -0.04907
 O93 O 0.72355 0.32068 -0.06870
 C94 C 0.74083 0.35672 -0.08122
 O95 O 0.73595 0.38194 -0.05035
 O96 O 0.66793 0.38121 -0.07087
 C97 C 0.63115 0.36339 -0.08323
 O98 O 0.60827 0.32485 0.06847
 O99 O 0.60812 0.25805 0.05226
 C100 C 0.63385 0.25323 0.08329
 O101 O 0.67065 0.26975 0.07061
 O102 O 0.73673 0.33251 0.05111
 C103 C 0.74070 0.36214 0.08119
 O104 O 0.72194 0.38132 0.06879
 O105 O 0.65573 0.38483 0.04828
 C106 C 0.62628 0.36106 0.07944
 Cr107 Cr 0.61004 0.29790 0.00027
 Cr108 Cr 0.69659 0.29582 0.00100
 Cr109 Cr 0.69431 0.38025 -0.00098
 O110 O 0.66695 0.32460 0.00011
 C111 C 0.41062 0.84443 -0.29248
 C112 C 0.42916 0.83537 -0.34028
 C113 C 0.44082 0.85943 -0.39114
 C114 C 0.43534 0.89325 -0.39401
 C115 C 0.41619 0.90161 -0.34570
 C116 C 0.40370 0.87721 -0.29489
 C117 C 0.39831 0.81909 -0.23883
 C118 C 0.37905 0.82758 -0.19129
 C119 C 0.36746 0.80327 -0.14028
 C120 C 0.37598 0.77138 -0.13643
 C121 C 0.39532 0.76342 -0.18461
 C122 C 0.40623 0.78692 -0.23605
 C123 C 0.38438 0.88483 -0.24646
 C124 C 0.37212 0.86035 -0.19566
 C125 C 0.43605 0.80260 -0.33614
 C126 C 0.42495 0.77888 -0.28473
 H127 H 0.37870 0.90994 -0.24781
 H128 H 0.35735 0.86730 -0.15935
 H129 H 0.45039 0.79538 -0.37276
 H130 H 0.43105 0.75402 -0.28311
 H131 H 0.45556 0.85261 -0.42773
 H132 H 0.41029 0.92659 -0.34828
 H133 H 0.35264 0.80957 -0.10328
 H134 H 0.40147 0.73861 -0.18232
 C135 C 0.15376 0.58314 -0.28626
 C136 C 0.14690 0.60989 -0.32110
 C137 C 0.12294 0.59668 -0.37242
 C138 C 0.10587 0.55709 -0.38863
 C139 C 0.11301 0.53058 -0.35347
 C140 C 0.13695 0.54348 -0.30199
 C141 C 0.17948 0.59702 -0.23276
 C142 C 0.18681 0.57044 -0.19832
 C143 C 0.21186 0.58396 -0.14803
 C144 C 0.22959 0.62380 -0.13222
 C145 C 0.22153 0.64992 -0.16721
 C146 C 0.19661 0.63672 -0.21752
 C147 C 0.14475 0.51770 -0.26622
 C148 C 0.16925 0.53094 -0.21526
 C149 C 0.16439 0.64935 -0.30418
 C150 C 0.18882 0.66254 -0.25323
 H151 H 0.13195 0.48705 -0.27785
 H152 H 0.17465 0.51012 -0.18908
 H153 H 0.15929 0.67024 -0.33068
 H154 H 0.20189 0.69324 -0.24189
 H155 H 0.11762 0.61703 -0.40000
 H156 H 0.10016 0.50016 -0.36662
 H157 H 0.21783 0.56355 -0.12166
 H158 H 0.23498 0.68065 -0.15579
 C159 C 0.43054 0.59095 -0.28608
 C160 C 0.45386 0.61923 -0.32848
 C161 C 0.46664 0.60755 -0.38028
 C162 C 0.45772 0.56809 -0.38876
 C163 C 0.43444 0.54018 -0.34528
 C164 C 0.42041 0.55140 -0.29429
 C165 C 0.41594 0.60292 -0.23249
 C166 C 0.39093 0.57438 -0.19156
 C167 C 0.37610 0.58582 -0.14167
 C168 C 0.38725 0.62553 -0.13180
 C169 C 0.41304 0.65385 -0.17243
 C170 C 0.42687 0.64262 -0.22358
 C171 C 0.39591 0.52378 -0.25182
 C172 C 0.38116 0.53504 -0.20157
 C173 C 0.46388 0.65863 -0.31829
 C174 C 0.45090 0.67017 -0.26645
 H175 H 0.38773 0.49314 -0.25778
 H176 H 0.36203 0.51277 -0.17023
 H177 H 0.48200 0.68075 -0.35058
 H178 H 0.45937 0.70086 -0.26021
 H179 H 0.48450 0.62933 -0.41326
 H180 H 0.42594 0.50954 -0.35237
 H181 H 0.35631 0.56404 -0.11021
 H182 H 0.42128 0.68440 -0.16510
 C183 C 0.58276 0.15075 -0.28498
 C184 C 0.54235 0.12486 -0.29405
 C185 C 0.53108 0.10103 -0.34520
 C186 C 0.55981 0.10348 -0.38794
 C187 C 0.60015 0.13044 -0.37855
 C188 C 0.61186 0.15354 -0.32665
 C189 C 0.59476 0.17590 -0.23130
 C190 C 0.63528 0.20125 -0.22163
 C191 C 0.64652 0.22508 -0.17050
 C192 C 0.61742 0.22463 -0.13058
 C193 C 0.57691 0.19944 -0.14118
 C194 C 0.56543 0.17451 -0.19110
 C195 C 0.65208 0.17946 -0.31566
 C196 C 0.66363 0.20270 -0.26379
 C197 C 0.51395 0.12381 -0.25229
 C198 C 0.52526 0.14841 -0.20192
 H199 H 0.67483 0.18178 -0.34738
 H200 H 0.69495 0.22228 -0.25699
 H201 H 0.48265 0.10406 -0.25892
 H202 H 0.50237 0.14696 -0.17116
 H203 H 0.49979 0.08167 -0.35300
 H204 H 0.62257 0.13268 -0.41096
 H205 H 0.67770 0.24488 -0.16271
 H206 H 0.55452 0.19907 -0.11031
 C207 C 0.84229 0.40712 -0.28993
 C208 C 0.83881 0.37960 -0.33374
 C209 C 0.86299 0.39198 -0.38506
 C210 C 0.89139 0.43149 -0.39226
 C211 C 0.89383 0.45876 -0.34804
 C212 C 0.86947 0.44671 -0.29681
 C213 C 0.81670 0.39426 -0.23605
 C214 C 0.81955 0.42189 -0.19277
 C215 C 0.79482 0.40954 -0.14191
 C216 C 0.76773 0.36979 -0.13396
 C217 C 0.76553 0.34249 -0.17775
 C218 C 0.78973 0.35460 -0.22904
 C219 C 0.87156 0.47351 -0.25249
 C220 C 0.84697 0.46132 -0.20140
 C221 C 0.81130 0.34019 -0.32528
 C222 C 0.78725 0.32787 -0.27371
 H223 H 0.89234 0.50418 -0.25735
 H224 H 0.84948 0.48294 -0.16838
 H225 H 0.80838 0.31866 -0.35875
 H226 H 0.76643 0.29720 -0.26889
 H227 H 0.86057 0.37063 -0.41859
 H228 H 0.91396 0.48952 -0.35428
 H229 H 0.79675 0.43078 -0.10854
 H230 H 0.74450 0.31191 -0.17249
 C231 C 0.58040 0.41696 -0.29192
 C232 C 0.60759 0.43454 -0.33897
 C233 C 0.59555 0.44782 -0.38975
 C234 C 0.55690 0.44479 -0.39332
 C235 C 0.52986 0.42667 -0.34566
 C236 C 0.54146 0.41264 -0.29495
 C237 C 0.59297 0.40275 -0.23851
 C238 C 0.56561 0.38439 -0.19181
 C239 C 0.57783 0.37087 -0.14111
 C240 C 0.61733 0.37649 -0.13669
 C241 C 0.64426 0.39501 -0.18403
 C242 C 0.63218 0.40789 -0.23517
 C243 C 0.51492 0.39420 -0.24732
 C244 C 0.52674 0.38019 -0.19674
 C245 C 0.64644 0.43874 -0.33423
 C246 C 0.65859 0.42581 -0.28305
 H247 H 0.48473 0.39053 -0.24915
 H248 H 0.50532 0.36614 -0.16107
 H249 H 0.66770 0.45234 -0.37026
 H250 H 0.68889 0.42980 -0.28100
 H251 H 0.61676 0.46174 -0.42580
 H252 H 0.49954 0.42258 -0.34880
 H253 H 0.55699 0.35673 -0.10478
 H254 H 0.67457 0.39901 -0.18134
 C255 C 0.84463 0.41044 0.28665
 C256 C 0.85867 0.44865 0.30854
 C257 C 0.88279 0.45987 0.35986
 C258 C 0.89248 0.43307 0.38927
 C259 C 0.87821 0.39490 0.36709
 C260 C 0.85436 0.38344 0.31538
 C261 C 0.81880 0.39832 0.23313
 C262 C 0.80472 0.36014 0.21122
 C263 C 0.77983 0.34866 0.16063
 C264 C 0.76851 0.37491 0.13269
 C265 C 0.78296 0.41310 0.15536
 C266 C 0.80827 0.42502 0.20537
 C267 C 0.83974 0.34551 0.29209
 C268 C 0.81543 0.33409 0.24079
 C269 C 0.84788 0.47466 0.27911
 C270 C 0.82301 0.46301 0.22848
 H271 H 0.84705 0.32444 0.31380
 H272 H 0.80468 0.30452 0.22441
 H273 H 0.85850 0.50418 0.29561
 H274 H 0.81515 0.48389 0.20737
 H275 H 0.89361 0.48916 0.37760
 H276 H 0.88562 0.37432 0.39024
 H277 H 0.76855 0.31910 0.14389
 H278 H 0.77454 0.43355 0.13407
 C279 C 0.58322 0.15504 0.29364
 C280 C 0.61181 0.15728 0.33580
 C281 C 0.59951 0.13357 0.38715
 C282 C 0.55899 0.10684 0.39596
 C283 C 0.53065 0.10578 0.35359
 C284 C 0.54263 0.12964 0.30230
 C285 C 0.59605 0.17992 0.23950
 C286 C 0.56743 0.17817 0.19770
 C287 C 0.57982 0.20209 0.14642
 C288 C 0.62056 0.22732 0.13664
 C289 C 0.64880 0.22850 0.17909
 C290 C 0.63670 0.20505 0.23069
 C291 C 0.51484 0.12869 0.25952
 C292 C 0.52702 0.15258 0.20816
 C293 C 0.65219 0.18300 0.32559
 C294 C 0.66445 0.20641 0.27382
 H295 H 0.48340 0.10929 0.26576
 H296 H 0.50462 0.15094 0.17631
 H297 H 0.67454 0.18495 0.35777
 H298 H 0.69590 0.22579 0.26758
 H299 H 0.62169 0.13495 0.41930
 H300 H 0.49920 0.08689 0.36116
 H301 H 0.55783 0.20094 0.11415
 H302 H 0.68019 0.24808 0.17248
 C303 C 0.57551 0.41756 0.28500
 C304 C 0.59461 0.45760 0.29851
 C305 C 0.58333 0.47079 0.35030
 C306 C 0.55327 0.44414 0.38811
 C307 C 0.53439 0.40419 0.37400
 C308 C 0.54533 0.39070 0.32232
 C309 C 0.58778 0.40338 0.23133
 C310 C 0.56900 0.36332 0.21832
 C311 C 0.58126 0.34985 0.16796
 C312 C 0.61231 0.37606 0.13079
 C313 C 0.63062 0.41627 0.14431
 C314 C 0.61846 0.43007 0.19459
 C315 C 0.52705 0.35087 0.30755
 C316 C 0.53866 0.33741 0.25638
 C317 C 0.62491 0.48348 0.26037
 C318 C 0.63664 0.46995 0.20931
 H319 H 0.50372 0.32989 0.33595
 H320 H 0.52395 0.30641 0.24677
 H321 H 0.63986 0.51443 0.27027
 H322 H 0.66032 0.49086 0.18132
 H323 H 0.59810 0.50153 0.36180
 H324 H 0.51145 0.38376 0.40358
 H325 H 0.56696 0.31885 0.15834
 H326 H 0.65455 0.43675 0.11622
 C327 C 0.15444 0.58208 0.28827
 C328 C 0.12980 0.59938 0.30211
 C329 C 0.10559 0.58699 0.35358
 C330 C 0.10623 0.55771 0.39068
 C331 C 0.13103 0.54072 0.37628
 C332 C 0.15517 0.55272 0.32497
 C333 C 0.18031 0.59523 0.23471
 C334 C 0.20503 0.57804 0.22124
 C335 C 0.22987 0.59085 0.17074
 C336 C 0.23041 0.62086 0.13378
 C337 C 0.20527 0.63774 0.14792
 C338 C 0.18011 0.62497 0.19837
 C339 C 0.18023 0.53614 0.30986
 C340 C 0.20472 0.54857 0.25881
 C341 C 0.13018 0.62886 0.26447
 C342 C 0.15493 0.64147 0.21352
 H343 H 0.18100 0.51346 0.33782
 H344 H 0.22371 0.53512 0.24882
 H345 H 0.11134 0.64245 0.27461
 H346 H 0.15445 0.66441 0.18587
 H347 H 0.08659 0.60018 0.36522
 H348 H 0.13149 0.51827 0.40525
 H349 H 0.24912 0.57768 0.16071
 H350 H 0.20540 0.66086 0.11997
 C351 C 0.41182 0.84986 0.28494
 C352 C 0.38301 0.85348 0.32066
 C353 C 0.39514 0.87692 0.37216
 C354 C 0.43567 0.89664 0.38767
 C355 C 0.46423 0.89281 0.35152
 C356 C 0.45244 0.86944 0.29989
 C357 C 0.39914 0.82453 0.23148
 C358 C 0.42784 0.82039 0.19633
 C359 C 0.41553 0.79564 0.14622
 C360 C 0.37480 0.77498 0.13129
 C361 C 0.34649 0.77984 0.16691
 C362 C 0.35849 0.80449 0.21708
 C363 C 0.48033 0.86483 0.26334
 C364 C 0.46823 0.84072 0.21242
 C365 C 0.34265 0.83321 0.30452
 C366 C 0.33059 0.80914 0.25358
 H367 H 0.51173 0.87979 0.27439
 H368 H 0.49067 0.83778 0.18565
 H369 H 0.32016 0.83578 0.33169
 H370 H 0.29914 0.79383 0.24292
 H371 H 0.37321 0.87965 0.40054
 H372 H 0.49539 0.90764 0.36419
 H373 H 0.43763 0.79212 0.11939
 H374 H 0.31507 0.76411 0.15612
 C375 C 0.42976 0.59194 0.28992
 C376 C 0.41056 0.55237 0.30660
 C377 C 0.42324 0.54041 0.35829
 C378 C 0.45498 0.56772 0.39269
 C379 C 0.47376 0.60727 0.37571
 C380 C 0.46131 0.61957 0.32414
 C381 C 0.41634 0.60476 0.23590
 C382 C 0.43528 0.64435 0.21955
 C383 C 0.42208 0.65648 0.16859
 C384 C 0.39007 0.62934 0.13409
 C385 C 0.37160 0.58964 0.15108
 C386 C 0.38458 0.57722 0.20199
 C387 C 0.47962 0.65891 0.30620
 C388 C 0.46683 0.67110 0.25478
 C389 C 0.37899 0.52565 0.27142
 C390 C 0.36622 0.53787 0.21999
 H391 H 0.50398 0.68048 0.33222
 H392 H 0.48167 0.70174 0.24263
 H393 H 0.36396 0.49506 0.28383
 H394 H 0.34168 0.51634 0.19422
 H395 H 0.40850 0.51003 0.37203
 H396 H 0.49798 0.62826 0.40268
 H397 H 0.43651 0.68711 0.15623
 H398 H 0.34687 0.56846 0.12517
   
