data_POSCAR
  _audit_creation_date              2014-09-24
  _audit_creation_method            'ToBaCCo'
  _symmetry_space_group_name_H-M    'P1'
  _symmetry_Int_Tables_number       1
  _symmetry_cell_setting            triclinic
  loop_
  _symmetry_equiv_pos_as_xyz
 x,y,z
_cell_length_a 59.0307
_cell_length_b 59.0462
_cell_length_c 59.0810
_cell_angle_alpha 90.002700
_cell_angle_beta 90.008500
_cell_angle_gamma 90.013200
loop_
  _atom_site_label
  _atom_site_type_symbol
  _atom_site_fract_x
  _atom_site_fract_y
  _atom_site_fract_z
C1 C 0.19054 0.21225 0.22358
 C2 C 0.19432 0.22684 0.20516
 C3 C 0.21260 0.22336 0.19033
 C4 C 0.22723 0.20497 0.19414
 C5 C 0.22378 0.19016 0.21245
 C6 C 0.20538 0.19397 0.22706
 H7 H 0.18297 0.24096 0.20236
 H8 H 0.24135 0.20216 0.18279
 H9 H 0.20260 0.18264 0.24121
 C10 C 0.69025 0.71281 0.72365
 C11 C 0.70506 0.69448 0.72706
 C12 C 0.72345 0.69069 0.71244
 C13 C 0.72693 0.70555 0.69418
 C14 C 0.71234 0.72399 0.69044
 C15 C 0.69406 0.72745 0.70528
 H16 H 0.70225 0.68311 0.74116
 H17 H 0.74105 0.70276 0.68283
 H18 H 0.68274 0.74161 0.70252
 C19 C 0.30878 0.78782 0.72399
 C20 C 0.30504 0.77322 0.70559
 C21 C 0.28680 0.77667 0.69072
 C22 C 0.27216 0.79507 0.69445
 C23 C 0.27549 0.80998 0.71278
 C24 C 0.29392 0.80610 0.72744
 H25 H 0.31640 0.75910 0.70283
 H26 H 0.25811 0.79775 0.68297
 H27 H 0.29679 0.81734 0.74164
 C28 C 0.81007 0.28721 0.22402
 C29 C 0.80618 0.27256 0.20558
 C30 C 0.78788 0.27602 0.19075
 C31 C 0.77327 0.29442 0.19451
 C32 C 0.77673 0.30927 0.21275
 C33 C 0.79515 0.30554 0.22737
 H34 H 0.81743 0.25836 0.20270
 H35 H 0.75914 0.29719 0.18316
 H36 H 0.79783 0.31701 0.24141
 C37 C 0.80976 0.71267 0.27642
 C38 C 0.79494 0.69435 0.27301
 C39 C 0.77655 0.69057 0.28764
 C40 C 0.77309 0.70544 0.30590
 C41 C 0.78769 0.72387 0.30964
 C42 C 0.80597 0.72732 0.29479
 H43 H 0.79774 0.68298 0.25891
 H44 H 0.75897 0.70265 0.31726
 H45 H 0.81731 0.74148 0.29755
 C46 C 0.31009 0.21242 -0.22423
 C47 C 0.29518 0.19407 -0.22760
 C48 C 0.27675 0.19033 -0.21300
 C49 C 0.27327 0.20519 -0.19477
 C50 C 0.28786 0.22361 -0.19100
 C51 C 0.30617 0.22707 -0.20581
 H52 H 0.29789 0.18259 -0.24163
 H53 H 0.25912 0.20242 -0.18344
 H54 H 0.31741 0.24128 -0.20292
 C55 C 0.68997 0.28706 -0.22401
 C56 C 0.70487 0.30541 -0.22738
 C57 C 0.72329 0.30919 -0.21278
 C58 C 0.72678 0.29435 -0.19453
 C59 C 0.71219 0.27593 -0.19075
 C60 C 0.69389 0.27243 -0.20557
 H61 H 0.70216 0.31687 -0.24143
 H62 H 0.74092 0.29715 -0.18320
 H63 H 0.68266 0.25822 -0.20266
 C64 C 0.19102 0.78776 0.27629
 C65 C 0.20590 0.80603 0.27284
 C66 C 0.22432 0.80992 0.28752
 C67 C 0.22761 0.79503 0.30588
 C68 C 0.21294 0.77665 0.30961
 C69 C 0.19471 0.77319 0.29472
 H70 H 0.20306 0.81725 0.25862
 H71 H 0.24164 0.79771 0.31738
 H72 H 0.18333 0.75908 0.29749
 C73 C 0.46246 0.44038 0.47410
 C74 C 0.44417 0.45522 0.47754
 C75 C 0.44038 0.47361 0.46291
 C76 C 0.45522 0.47705 0.44462
 C77 C 0.47362 0.46242 0.44085
 C78 C 0.47708 0.44414 0.45570
 H79 H 0.43282 0.45245 0.49167
 H80 H 0.45242 0.49116 0.43327
 H81 H 0.49120 0.43279 0.45292
 C82 C -0.03765 -0.05895 0.97371
 C83 C -0.02309 -0.05522 0.95527
 C84 C -0.02659 -0.03700 0.94039
 C85 C -0.04499 -0.02237 0.94415
 C86 C -0.05987 -0.02569 0.96252
 C87 C -0.05594 -0.04411 0.97718
 H88 H -0.00896 -0.06657 0.95248
 H89 H -0.04771 -0.00834 0.93266
 H90 H -0.06714 -0.04697 0.99141
 C91 C 1.03744 0.55962 0.97351
 C92 C 1.02279 0.55584 0.95513
 C93 C 1.02621 0.53753 0.94031
 C94 C 1.04460 0.52289 0.94409
 C95 C 1.05946 0.52634 0.96235
 C96 C 1.05572 0.54476 0.97696
 H97 H 1.00867 0.56720 0.95234
 H98 H 1.04736 0.50875 0.93275
 H99 H 1.06709 0.54754 0.99107
 C100 C 0.53785 0.05918 0.47400
 C101 C 0.55616 0.04437 0.47746
 C102 C 0.56009 0.02595 0.46281
 C103 C 0.54520 0.02259 0.44446
 C104 C 0.52677 0.03719 0.44072
 C105 C 0.52326 0.05542 0.45559
 H106 H 0.56739 0.04725 0.49167
 H107 H 0.54791 0.00856 0.43298
 H108 H 0.50912 0.06675 0.45281
 C109 C -0.03786 0.05947 0.52603
 C110 C -0.02326 0.05571 0.54442
 C111 C -0.02673 0.03745 0.55927
 C112 C -0.04515 0.02283 0.55552
 C113 C -0.06006 0.02619 0.53719
 C114 C -0.05617 0.04464 0.52255
 H115 H -0.00912 0.06705 0.54720
 H116 H -0.04784 0.00877 0.56698
 H117 H -0.06741 0.04753 0.50836
 C118 C 0.46259 0.55969 0.02646
 C119 C 0.44432 0.54482 0.02298
 C120 C 0.44057 0.52639 0.03756
 C121 C 0.45541 0.52293 0.05584
 C122 C 0.47380 0.53758 0.05965
 C123 C 0.47723 0.55590 0.04485
 H124 H 0.43296 0.54761 0.00886
 H125 H 0.45265 0.50878 0.06716
 H126 H 0.49134 0.56727 0.04765
 C127 C 0.53745 -0.06006 0.02602
 C128 C 0.55583 -0.04518 0.02269
 C129 C 0.55963 -0.02682 0.03735
 C130 C 0.54480 -0.02338 0.05562
 C131 C 0.52635 -0.03795 0.05935
 C132 C 0.52283 -0.05619 0.04447
 H133 H 0.56728 -0.04785 0.00863
 H134 H 0.54762 -0.00928 0.06700
 H135 H 0.50860 -0.06740 0.04734
 C136 C 1.03761 0.44100 0.52594
 C137 C 1.02303 0.44471 0.54436
 C138 C 1.02650 0.46294 0.55924
 C139 C 1.04490 0.47759 0.55550
 C140 C 1.05979 0.47428 0.53715
 C141 C 1.05589 0.45586 0.52248
 H142 H 1.00891 0.43335 0.54714
 H143 H 1.04759 0.49162 0.56699
 H144 H 1.06711 0.45300 0.50827
 C145 C 0.41026 0.00995 0.22004
 H146 H 0.41156 0.02504 0.23035
 C147 C 0.42502 0.00679 0.20184
 H148 H 0.43759 0.01964 0.19823
 C149 C 0.39239 -0.02520 0.21258
 H150 H 0.37988 -0.03779 0.21700
 C151 C 0.40676 -0.02903 0.19420
 H152 H 0.40495 -0.04454 0.18459
 N153 N 0.39421 -0.00583 0.22491
 C154 C 0.34020 0.02970 0.26059
 H155 H 0.33893 0.01941 0.27569
 C156 C 0.32541 0.04788 0.25741
 H157 H 0.31286 0.05150 0.27027
 C158 C 0.35800 0.03711 0.22543
 H159 H 0.37047 0.03267 0.21283
 C160 C 0.34359 0.05547 0.22157
 H161 H 0.34536 0.06505 0.20605
 Zn162 Zn 0.37523 -0.00046 0.25018
 N163 N 0.35623 0.02481 0.24481
 C164 C 0.39247 0.02432 0.28773
 N165 N 0.39425 0.00494 0.27543
 C166 C 0.41031 -0.01083 0.28029
 C167 C 0.42511 -0.00765 0.29845
 C168 C 0.40689 0.02818 0.30607
 C169 C 0.34012 -0.03054 0.23984
 C170 C 0.32531 -0.04871 0.24301
 C171 C 0.34369 -0.05650 0.27871
 C172 C 0.35809 -0.03813 0.27488
 N173 N 0.35624 -0.02574 0.25557
 H174 H 0.37998 0.03691 0.28331
 H175 H 0.41159 -0.02594 0.27000
 H176 H 0.43768 -0.02050 0.30206
 H177 H 0.40512 0.04371 0.31566
 H178 H 0.33879 -0.02018 0.22479
 H179 H 0.31269 -0.05226 0.23020
 H180 H 0.34552 -0.06616 0.29418
 H181 H 0.37065 -0.03377 0.28743
 C182 C 0.32703 0.06110 0.23770
 C183 C 0.42334 -0.01290 0.18858
 C184 C 0.32703 -0.06203 0.26264
 C185 C 0.42348 0.01206 0.31168
 C186 C 0.08981 -0.01053 0.71962
 H187 H 0.08851 -0.02561 0.72994
 C188 C 0.07501 -0.00735 0.70146
 H189 H 0.06241 -0.02019 0.69789
 C190 C 0.10771 0.02459 0.71211
 H191 H 0.12024 0.03717 0.71650
 C192 C 0.09330 0.02844 0.69376
 H193 H 0.09510 0.04394 0.68415
 N194 N 0.10590 0.00523 0.72445
 C195 C 0.15993 -0.03025 0.76016
 H196 H 0.16127 -0.01986 0.77519
 C197 C 0.17470 -0.04845 0.75705
 H198 H 0.18731 -0.05199 0.76987
 C199 C 0.14197 -0.03790 0.72513
 H200 H 0.12943 -0.03354 0.71255
 C201 C 0.15634 -0.05630 0.72135
 H202 H 0.15450 -0.06599 0.70590
 Zn203 Zn 0.12489 -0.00013 0.74972
 N204 N 0.14384 -0.02546 0.74441
 C205 C 0.10764 -0.02476 0.78735
 N206 N 0.10589 -0.00541 0.77499
 C207 C 0.08987 0.01042 0.77981
 C208 C 0.07507 0.00732 0.79799
 C209 C 0.09322 -0.02853 0.80571
 C210 C 0.16000 0.02992 0.73925
 C211 C 0.17484 0.04808 0.74239
 C212 C 0.15667 0.05580 0.77820
 C213 C 0.14221 0.03746 0.77439
 N214 N 0.14396 0.02511 0.75504
 H215 H 0.12011 -0.03738 0.78297
 H216 H 0.08862 0.02549 0.76948
 H217 H 0.06253 0.02020 0.80155
 H218 H 0.09497 -0.04403 0.81535
 H219 H 0.16125 0.01960 0.72417
 H220 H 0.18741 0.05164 0.72953
 H221 H 0.15493 0.06542 0.79370
 H222 H 0.12972 0.03308 0.78699
 C223 C 0.17298 -0.06181 0.73744
 C224 C 0.07668 0.01233 0.68819
 C225 C 0.17325 0.06135 0.76206
 C226 C 0.07667 -0.01236 0.81127
 C227 C 0.59011 0.48942 0.22010
 H228 H 0.58883 0.47429 0.23037
 C229 C 0.57534 0.49261 0.20192
 H230 H 0.56279 0.47974 0.19827
 C231 C 0.60792 0.52461 0.21275
 H232 H 0.62040 0.53722 0.21721
 C233 C 0.59353 0.52848 0.19439
 H234 H 0.59531 0.54402 0.18483
 N235 N 0.60614 0.50520 0.22502
 C236 C 0.66011 0.46962 0.26072
 H237 H 0.66135 0.47989 0.27584
 C238 C 0.67490 0.45144 0.25756
 H239 H 0.68744 0.44782 0.27043
 C240 C 0.64235 0.46223 0.22552
 H241 H 0.62989 0.46668 0.21291
 C242 C 0.65677 0.44387 0.22168
 H243 H 0.65503 0.43430 0.20615
 Zn244 Zn 0.62512 0.49980 0.25029
 N245 N 0.64410 0.47451 0.24492
 C246 C 0.60782 0.47504 0.28783
 N247 N 0.60609 0.49443 0.27553
 C248 C 0.59008 0.51025 0.28041
 C249 C 0.57529 0.50710 0.29858
 C250 C 0.59341 0.47121 0.30618
 C251 C 0.66018 0.52992 0.23990
 C252 C 0.67498 0.54810 0.24306
 C253 C 0.65680 0.55573 0.27889
 C254 C 0.64238 0.53737 0.27506
 N255 N 0.64414 0.52505 0.25568
 H256 H 0.62029 0.46242 0.28340
 H257 H 0.58885 0.52536 0.27013
 H258 H 0.56276 0.51999 0.30219
 H259 H 0.59514 0.45568 0.31576
 H260 H 0.66143 0.51962 0.22480
 H261 H 0.68753 0.55170 0.23019
 H262 H 0.65505 0.56533 0.29440
 H263 H 0.62990 0.53295 0.28765
 C264 C 0.67331 0.43824 0.23783
 C265 C 0.57698 0.51234 0.18872
 C266 C 0.67336 0.56134 0.26275
 C267 C 0.57687 0.48738 0.31180
 C268 C 0.90983 0.51040 0.71964
 H269 H 0.91105 0.52550 0.72994
 C270 C 0.92465 0.50729 0.70149
 H271 H 0.93719 0.52019 0.69791
 C272 C 0.89211 0.47519 0.71214
 H273 H 0.87965 0.46255 0.71654
 C274 C 0.90656 0.47140 0.69381
 H275 H 0.90484 0.45588 0.68421
 N276 N 0.89382 0.49457 0.72447
 C277 C 0.83972 0.52999 0.76012
 H278 H 0.83845 0.51968 0.77521
 C279 C 0.82492 0.54817 0.75697
 H280 H 0.81237 0.55176 0.76984
 C281 C 0.85752 0.53746 0.72497
 H282 H 0.87000 0.53305 0.71237
 C283 C 0.84311 0.55582 0.72115
 H284 H 0.84487 0.56543 0.70565
 Zn285 Zn 0.87478 0.49989 0.74971
 N286 N 0.85575 0.52514 0.74434
 C287 C 0.89197 0.52466 0.78729
 N288 N 0.89375 0.50527 0.77499
 C289 C 0.90979 0.48949 0.77988
 C290 C 0.92456 0.49266 0.79806
 C291 C 0.90636 0.52851 0.80566
 C292 C 0.83981 0.46967 0.73923
 C293 C 0.82503 0.45148 0.74239
 C294 C 0.84314 0.44393 0.77827
 C295 C 0.85755 0.46229 0.77444
 N296 N 0.85581 0.47458 0.75504
 H297 H 0.87949 0.53726 0.78285
 H298 H 0.91106 0.47438 0.76959
 H299 H 0.93711 0.47980 0.80169
 H300 H 0.90459 0.54404 0.81524
 H301 H 0.83856 0.47995 0.72412
 H302 H 0.81250 0.44784 0.72951
 H303 H 0.84488 0.43436 0.79380
 H304 H 0.87000 0.46676 0.78706
 C305 C 0.82655 0.56142 0.73729
 C306 C 0.92309 0.48759 0.68824
 C307 C 0.82661 0.43827 0.76211
 C308 C 0.92292 0.51237 0.81129
 C309 C 0.21989 0.40974 0.01020
 H310 H 0.23018 0.41097 0.02531
 C311 C 0.20171 0.42453 0.00706
 H312 H 0.19809 0.43706 0.01995
 C313 C 0.21245 0.39202 -0.02500
 H314 H 0.21689 0.37957 -0.03762
 C315 C 0.19409 0.40643 -0.02881
 H316 H 0.18450 0.40470 -0.04434
 N317 N 0.22476 0.39374 -0.00561
 C318 C 0.26049 0.33969 0.02982
 H319 H 0.27560 0.33846 0.01954
 C320 C 0.25733 0.32490 0.04798
 H321 H 0.27021 0.31236 0.05160
 C322 C 0.22527 0.35744 0.03724
 H323 H 0.21265 0.36991 0.03282
 C324 C 0.22144 0.34302 0.05558
 H325 H 0.20590 0.34476 0.06517
 Zn326 Zn 0.25004 0.37475 -0.00027
 N327 N 0.24467 0.35571 0.02495
 C328 C 0.28762 0.39198 0.02452
 N329 N 0.27531 0.39375 0.00514
 C330 C 0.28018 0.40981 -0.01062
 C331 C 0.29835 0.42461 -0.00743
 C332 C 0.30597 0.40640 0.02839
 C333 C 0.23964 0.33979 -0.03049
 C334 C 0.24281 0.32505 -0.04869
 C335 C 0.27869 0.34324 -0.05622
 C336 C 0.27484 0.35760 -0.03784
 N337 N 0.25544 0.35580 -0.02556
 H338 H 0.28319 0.37948 0.03710
 H339 H 0.26989 0.41108 -0.02572
 H340 H 0.30196 0.43718 -0.02027
 H341 H 0.31556 0.40463 0.04390
 H342 H 0.22452 0.33850 -0.02022
 H343 H 0.22994 0.31250 -0.05235
 H344 H 0.29423 0.34502 -0.06579
 H345 H 0.28745 0.37006 -0.03337
 C346 C 0.23761 0.32649 0.06120
 C347 C 0.18847 0.42296 -0.01265
 C348 C 0.26254 0.32670 -0.06190
 C349 C 0.31158 0.42298 0.01227
 C350 C 0.72016 0.08972 -0.01043
 H351 H 0.73046 0.08848 -0.02553
 C352 C 0.70200 0.07491 -0.00726
 H353 H 0.69840 0.06235 -0.02012
 C354 C 0.71271 0.10750 0.02474
 H355 H 0.71713 0.11999 0.03734
 C356 C 0.69437 0.09306 0.02858
 H357 H 0.68478 0.09480 0.04410
 N358 N 0.72502 0.10576 0.00536
 C359 C 0.76057 0.15989 -0.03016
 H360 H 0.77568 0.16121 -0.01988
 C361 C 0.75735 0.17465 -0.04835
 H362 H 0.77019 0.18723 -0.05198
 C363 C 0.72542 0.14199 -0.03756
 H364 H 0.71285 0.12947 -0.03312
 C365 C 0.72153 0.15636 -0.05592
 H366 H 0.70600 0.15454 -0.06550
 Zn367 Zn 0.75026 0.12482 -0.00002
 N368 N 0.74482 0.14382 -0.02527
 C369 C 0.78796 0.10775 -0.02474
 N370 N 0.77557 0.10587 -0.00542
 C371 C 0.78040 0.08977 0.01030
 C372 C 0.79860 0.07500 0.00712
 C373 C 0.80635 0.09338 -0.02858
 C374 C 0.73983 0.15981 0.03016
 C375 C 0.74300 0.17456 0.04836
 C376 C 0.77887 0.15639 0.05593
 C377 C 0.77503 0.14202 0.03755
 N378 N 0.75563 0.14380 0.02525
 H379 H 0.78357 0.12029 -0.03729
 H380 H 0.77006 0.08842 0.02536
 H381 H 0.80217 0.06238 0.01993
 H382 H 0.81600 0.09523 -0.04405
 H383 H 0.72471 0.16108 0.01988
 H384 H 0.73012 0.18710 0.05200
 H385 H 0.79440 0.15462 0.06552
 H386 H 0.78764 0.12955 0.03311
 C387 C 0.73764 0.17295 -0.06157
 C388 C 0.68877 0.07650 0.01244
 C389 C 0.76272 0.17293 0.06158
 C390 C 0.81191 0.07674 -0.01251
 C391 C 0.21954 0.58997 0.48973
 H392 H 0.22992 0.58866 0.47470
 C393 C 0.20134 0.57519 0.49284
 H394 H 0.19780 0.56258 0.48001
 C395 C 0.21189 0.60790 0.52478
 H396 H 0.21624 0.62043 0.53736
 C397 C 0.19349 0.59351 0.52855
 H398 H 0.18380 0.59533 0.54400
 N399 N 0.22432 0.60606 0.50549
 C400 C 0.26018 0.66009 0.47015
 H401 H 0.27524 0.66136 0.48051
 C402 C 0.25708 0.67490 0.45199
 H403 H 0.26997 0.68746 0.44845
 C404 C 0.22503 0.64228 0.46254
 H405 H 0.21241 0.62978 0.46689
 C406 C 0.22126 0.65671 0.44419
 H407 H 0.20578 0.65494 0.43452
 Zn408 Zn 0.24964 0.62504 0.50020
 N409 N 0.24436 0.64405 0.47494
 C410 C 0.28728 0.60781 0.47555
 N411 N 0.27492 0.60604 0.49490
 C412 C 0.27977 0.59000 0.51069
 C413 C 0.29796 0.57522 0.50756
 C414 C 0.30565 0.59341 0.47174
 C415 C 0.23917 0.66010 0.53028
 C416 C 0.24230 0.67490 0.54845
 C417 C 0.27811 0.65668 0.55620
 C418 C 0.27430 0.64226 0.53785
 N419 N 0.25496 0.64404 0.52548
 H420 H 0.28287 0.62029 0.46295
 H421 H 0.26945 0.58873 0.52577
 H422 H 0.30155 0.56267 0.52042
 H423 H 0.31527 0.59518 0.45625
 H424 H 0.22410 0.66137 0.51994
 H425 H 0.22944 0.68747 0.55200
 H426 H 0.29361 0.65491 0.56584
 H427 H 0.28691 0.62976 0.53348
 C428 C 0.23743 0.67328 0.43867
 C429 C 0.18798 0.57688 0.51245
 C430 C 0.26197 0.67327 0.56175
 C431 C 0.31124 0.57685 0.48788
 C432 C 0.72000 0.91062 0.51036
 H433 H 0.73039 0.91197 0.52540
 C434 C 0.70181 0.92539 0.50721
 H435 H 0.69827 0.93803 0.52001
 C436 C 0.71235 0.89260 0.47536
 H437 H 0.71669 0.88004 0.46281
 C438 C 0.69396 0.90698 0.47154
 H439 H 0.68426 0.90512 0.45610
 N440 N 0.72478 0.89449 0.49465
 C441 C 0.76047 0.84045 0.53010
 H442 H 0.77555 0.83914 0.51978
 C443 C 0.75730 0.82567 0.54827
 H444 H 0.77013 0.81307 0.55185
 C445 C 0.72537 0.85836 0.53763
 H446 H 0.71279 0.87089 0.53324
 C447 C 0.72152 0.84396 0.55598
 H448 H 0.70602 0.84578 0.56560
 Zn449 Zn 0.75007 0.87551 0.50000
 N450 N 0.74472 0.85653 0.52527
 C451 C 0.78780 0.89265 0.52463
 N452 N 0.77536 0.89451 0.50534
 C453 C 0.78014 0.91063 0.48961
 C454 C 0.79832 0.92542 0.49276
 C455 C 0.80618 0.90704 0.52844
 C456 C 0.73967 0.84041 0.46994
 C457 C 0.74284 0.82562 0.45178
 C458 C 0.77861 0.84392 0.44404
 C459 C 0.77477 0.85834 0.46239
 N460 N 0.75542 0.85651 0.47475
 H461 H 0.78345 0.88009 0.53718
 H462 H 0.76975 0.91196 0.47458
 H463 H 0.80186 0.93805 0.47995
 H464 H 0.81587 0.90520 0.54389
 H465 H 0.72460 0.83910 0.48027
 H466 H 0.73000 0.81301 0.44822
 H467 H 0.79411 0.84573 0.43441
 H468 H 0.78735 0.87088 0.46676
 C469 C 0.73762 0.82735 0.56155
 C470 C 0.68844 0.92364 0.48760
 C471 C 0.76251 0.82729 0.43850
 C472 C 0.81169 0.92370 0.51237
 C473 C 0.01019 0.22010 0.40984
 H474 H 0.02529 0.23041 0.41114
 C475 C 0.00701 0.20191 0.42462
 H476 H 0.01986 0.19832 0.43719
 C477 C -0.02495 0.21261 0.39197
 H478 H -0.03753 0.21701 0.37946
 C479 C -0.02880 0.19424 0.40637
 H480 H -0.04431 0.18463 0.40457
 N481 N -0.00558 0.22495 0.39379
 C482 C 0.02999 0.26054 0.33976
 H483 H 0.01970 0.27564 0.33846
 C484 C 0.04819 0.25733 0.32501
 H485 H 0.05181 0.27017 0.31244
 C486 C 0.03741 0.22540 0.35764
 H487 H 0.03297 0.21282 0.37014
 C488 C 0.05578 0.22152 0.34326
 H489 H 0.06537 0.20600 0.34507
 Zn490 Zn -0.00018 0.25020 0.37478
 N491 N 0.02510 0.24478 0.35582
 C492 C 0.02459 0.28782 0.39192
 N493 N 0.00520 0.27550 0.39372
 C494 C -0.01059 0.28040 0.40975
 C495 C -0.00741 0.29861 0.42449
 C496 C 0.02844 0.30620 0.40628
 C497 C -0.03023 0.23976 0.33968
 C498 C -0.04840 0.24290 0.32487
 C499 C -0.05624 0.27864 0.34317
 C500 C -0.03787 0.27484 0.35758
 N501 N -0.02546 0.25553 0.35576
 H502 H 0.03719 0.28337 0.37945
 H503 H -0.02570 0.27011 0.41105
 H504 H -0.02027 0.30225 0.43704
 H505 H 0.04397 0.31580 0.40449
 H506 H -0.01986 0.22471 0.33839
 H507 H -0.05194 0.23005 0.31228
 H508 H -0.06592 0.29410 0.34497
 H509 H -0.03352 0.28743 0.37010
 C510 C 0.06142 0.23763 0.32668
 C511 C -0.01268 0.18865 0.42295
 C512 C -0.06175 0.26253 0.32655
 C513 C 0.01231 0.31185 0.42283
 C514 C -0.01021 0.72021 0.08987
 H515 H -0.02532 0.73051 0.08864
 C516 C -0.00708 0.70204 0.07508
 H517 H -0.01998 0.69843 0.06256
 C518 C 0.02502 0.71277 0.10758
 H519 H 0.03766 0.71719 0.12003
 C520 C 0.02882 0.69441 0.09317
 H521 H 0.04435 0.68482 0.09490
 N522 N 0.00562 0.72508 0.10586
 C523 C -0.02982 0.76072 0.15994
 H524 H -0.01952 0.77583 0.16120
 C525 C -0.04799 0.75754 0.17473
 H526 H -0.05158 0.77040 0.18729
 C527 C -0.03728 0.72554 0.14214
 H528 H -0.03286 0.71294 0.12966
 C529 C -0.05562 0.72169 0.15656
 H530 H -0.06522 0.70616 0.15480
 Zn531 Zn 0.00029 0.75033 0.12489
 N532 N -0.02496 0.74493 0.14390
 C533 C -0.02451 0.78792 0.10775
 N534 N -0.00511 0.77563 0.10595
 C535 C 0.01067 0.78055 0.08992
 C536 C 0.00748 0.79875 0.07518
 C537 C -0.02838 0.80631 0.09338
 C538 C 0.03049 0.73985 0.15984
 C539 C 0.04869 0.74299 0.17460
 C540 C 0.05630 0.77888 0.15649
 C541 C 0.03791 0.77506 0.14211
 N542 N 0.02559 0.75567 0.14385
 H543 H -0.03711 0.78346 0.12021
 H544 H 0.02578 0.77027 0.08863
 H545 H 0.02034 0.80240 0.06264
 H546 H -0.04391 0.81588 0.09517
 H547 H 0.02019 0.72474 0.16108
 H548 H 0.05231 0.73010 0.18712
 H549 H 0.06589 0.79441 0.15475
 H550 H 0.03347 0.78769 0.12966
 C551 C -0.06123 0.73783 0.17312
 C552 C 0.01263 0.68880 0.07666
 C553 C 0.06193 0.76270 0.17300
 C554 C -0.01224 0.81197 0.07684
 C555 C 0.48970 0.21965 0.59036
 H556 H 0.47462 0.22998 0.58905
 C557 C 0.49287 0.20147 0.57558
 H558 H 0.48004 0.19790 0.56299
 C559 C 0.52480 0.21210 0.60828
 H560 H 0.53737 0.21649 0.62082
 C561 C 0.52864 0.19374 0.59389
 H562 H 0.54414 0.18411 0.59570
 N563 N 0.50545 0.22447 0.60645
 C564 C 0.47000 0.26009 0.66053
 H565 H 0.48038 0.27513 0.66188
 C566 C 0.45180 0.25692 0.67529
 H567 H 0.44826 0.26973 0.68791
 C568 C 0.46237 0.22506 0.64251
 H569 H 0.46672 0.21251 0.62996
 C570 C 0.44397 0.22123 0.65687
 H571 H 0.43429 0.20577 0.65501
 Zn572 Zn 0.50009 0.24974 0.62544
 N573 N 0.47479 0.24437 0.64441
 C574 C 0.47538 0.28738 0.60831
 N575 N 0.49473 0.27502 0.60648
 C576 C 0.51049 0.27987 0.59041
 C577 C 0.50732 0.29805 0.57564
 C578 C 0.47153 0.30575 0.59392
 C579 C 0.53016 0.23935 0.66055
 C580 C 0.54834 0.24251 0.67533
 C581 C 0.55619 0.27821 0.65696
 C582 C 0.53780 0.27439 0.64258
 N583 N 0.52538 0.25508 0.64444
 H584 H 0.46280 0.28298 0.62082
 H585 H 0.52557 0.26954 0.58909
 H586 H 0.52016 0.30164 0.56305
 H587 H 0.45604 0.31538 0.59573
 H588 H 0.51978 0.22430 0.66188
 H589 H 0.55188 0.22969 0.68795
 H590 H 0.56587 0.29367 0.65512
 H591 H 0.53346 0.28695 0.63003
 C592 C 0.43845 0.23730 0.67353
 C593 C 0.51254 0.18818 0.57727
 C594 C 0.56170 0.26213 0.67361
 C595 C 0.48764 0.31133 0.57732
 C596 C 0.51022 0.72036 0.91017
 H597 H 0.52532 0.73068 0.91141
 C598 C 0.50710 0.70218 0.92496
 H599 H 0.51999 0.69859 0.93749
 C600 C 0.47502 0.71286 0.89243
 H601 H 0.46239 0.71726 0.87997
 C602 C 0.47122 0.69450 0.90683
 H603 H 0.45570 0.68488 0.90509
 N604 N 0.49439 0.72520 0.89416
 C605 C 0.52980 0.76087 0.84007
 H606 H 0.51949 0.77596 0.83879
 C607 C 0.54797 0.75769 0.82527
 H608 H 0.55155 0.77054 0.81270
 C609 C 0.53728 0.72572 0.85790
 H610 H 0.53288 0.71313 0.87040
 C611 C 0.55563 0.72187 0.84349
 H612 H 0.56524 0.70636 0.84526
 Zn613 Zn 0.49971 0.75047 0.87515
 N614 N 0.52496 0.74510 0.85612
 C615 C 0.52442 0.78817 0.89223
 N616 N 0.50510 0.77576 0.89411
 C617 C 0.48938 0.78055 0.91023
 C618 C 0.49257 0.79872 0.92502
 C619 C 0.52827 0.80653 0.90662
 C620 C 0.46950 0.74000 0.84019
 C621 C 0.45128 0.74314 0.82545
 C622 C 0.44362 0.77896 0.84366
 C623 C 0.46203 0.77515 0.85802
 N624 N 0.47438 0.75580 0.85621
 H625 H 0.53697 0.78381 0.87968
 H626 H 0.47432 0.77019 0.91157
 H627 H 0.47977 0.80226 0.93765
 H628 H 0.54375 0.81620 0.90478
 H629 H 0.47983 0.72492 0.83890
 H630 H 0.44767 0.73027 0.81290
 H631 H 0.43400 0.79446 0.84546
 H632 H 0.46645 0.78775 0.87050
 C633 C 0.56122 0.73799 0.82691
 C634 C 0.48740 0.68891 0.92336
 C635 C 0.43801 0.76282 0.82711
 C636 C 0.51222 0.81205 0.92329
 C637 C 0.13562 0.22311 0.26753
 N638 N 0.14004 0.23786 0.25048
 N639 N 0.15744 0.23441 0.23656
 C640 C 0.17115 0.21609 0.23912
 N641 N 0.16667 0.20137 0.25623
 N642 N 0.14925 0.20479 0.27015
 C643 C 0.11641 0.22688 0.28287
 N644 N 0.11166 0.21184 0.29957
 N645 N 0.09422 0.21525 0.31346
 C646 C 0.08083 0.23384 0.31122
 N647 N 0.08565 0.24888 0.29448
 N648 N 0.10308 0.24546 0.28057
 C649 C 0.63535 0.72359 0.76764
 N650 N 0.64898 0.70526 0.77021
 N651 N 0.66639 0.70186 0.75627
 C652 C 0.67087 0.71662 0.73920
 N653 N 0.65717 0.73496 0.73669
 N654 N 0.63977 0.73838 0.75063
 C655 C 0.61615 0.72734 0.78300
 N656 N 0.60282 0.74592 0.78075
 N657 N 0.58541 0.74931 0.79469
 C658 C 0.58061 0.73424 0.81141
 N659 N 0.59400 0.71565 0.81360
 N660 N 0.61143 0.71226 0.79968
 C661 C 0.36372 0.77708 0.76798
 N662 N 0.35930 0.76228 0.75097
 N663 N 0.34189 0.76569 0.73703
 C664 C 0.32817 0.78400 0.73956
 N665 N 0.33265 0.79877 0.75664
 N666 N 0.35007 0.79539 0.77056
 C667 C 0.38294 0.77336 0.78332
 N668 N 0.38768 0.78845 0.79999
 N669 N 0.40514 0.78510 0.81387
 C670 C 0.41856 0.76653 0.81166
 N671 N 0.41375 0.75145 0.79495
 N672 N 0.39630 0.75480 0.78105
 C673 C -0.13592 0.27672 0.26726
 N674 N -0.15006 0.29456 0.27032
 N675 N -0.16749 0.29792 0.25639
 C676 C -0.17150 0.28362 0.23878
 N677 N -0.15723 0.26577 0.23581
 N678 N -0.13982 0.26238 0.24976
 C679 C -0.11671 0.27303 0.28262
 N680 N -0.10299 0.25477 0.28003
 N681 N -0.08557 0.25143 0.29398
 C682 C -0.08115 0.26622 0.31104
 N683 N -0.09492 0.28449 0.31357
 N684 N -0.11236 0.28782 0.29965
 C685 C -0.13534 0.72343 0.23241
 N686 N -0.13975 0.73824 0.24942
 N687 N -0.15715 0.73482 0.26336
 C688 C -0.17085 0.71648 0.26087
 N689 N -0.16638 0.70171 0.24380
 N690 N -0.14897 0.70510 0.22986
 C691 C -0.11615 0.72718 0.21704
 N692 N -0.11143 0.71209 0.20037
 N693 N -0.09400 0.71547 0.18645
 C694 C -0.08062 0.73407 0.18862
 N695 N -0.08541 0.74915 0.20533
 N696 N -0.10282 0.74577 0.21927
 C697 C 0.36416 0.22296 0.73263
 N698 N 0.35003 0.20511 0.72953
 N699 N 0.33259 0.20173 0.74343
 C700 C 0.32854 0.21603 0.76103
 N701 N 0.34279 0.23389 0.76403
 N702 N 0.36022 0.23730 0.75012
 C703 C 0.38340 0.22669 0.71731
 N704 N 0.39710 0.24496 0.71995
 N705 N 0.41455 0.24833 0.70605
 C706 C 0.41901 0.23356 0.68898
 N707 N 0.40526 0.21528 0.68640
 N708 N 0.38779 0.21192 0.70027
 C709 C 0.63593 0.27647 0.73280
 N710 N 0.63986 0.26214 0.75032
 N711 N 0.65728 0.26557 0.76424
 C712 C 0.67153 0.28343 0.76124
 N713 N 0.66749 0.29772 0.74363
 N714 N 0.65005 0.29432 0.72972
 C715 C 0.61670 0.27273 0.71746
 N716 N 0.61233 0.28750 0.70042
 N717 N 0.59488 0.28414 0.68652
 C718 C 0.58112 0.26586 0.68909
 N719 N 0.58556 0.25109 0.70617
 N720 N 0.60300 0.25446 0.72009
 C721 C 0.13614 0.77700 0.23224
 N722 N 0.14054 0.76220 0.24925
 N723 N 0.15793 0.76561 0.26321
 C724 C 0.17164 0.78394 0.26071
 N725 N 0.16718 0.79871 0.24363
 N726 N 0.14978 0.79532 0.22968
 C727 C 0.11693 0.77327 0.21688
 N728 N 0.11220 0.78837 0.20022
 N729 N 0.09476 0.78501 0.18631
 C730 C 0.08135 0.76642 0.18849
 N731 N 0.08615 0.75133 0.20518
 N732 N 0.10358 0.75469 0.21910
 C733 C 0.26778 0.13525 0.22327
 N734 N 0.27035 0.14886 0.20494
 N735 N 0.25642 0.16627 0.20153
 C736 C 0.23933 0.17077 0.21628
 N737 N 0.23681 0.15709 0.23461
 N738 N 0.25075 0.13969 0.23805
 C739 C 0.28314 0.11605 0.22703
 N740 N 0.28089 0.10274 0.24561
 N741 N 0.29482 0.08532 0.24901
 C742 C 0.31154 0.08050 0.23394
 N743 N 0.31373 0.09387 0.21535
 N744 N 0.29982 0.11130 0.21196
 C745 C 0.76735 0.63567 0.72306
 N746 N 0.76995 0.64933 0.70478
 N747 N 0.75604 0.66678 0.70143
 C748 C 0.73897 0.67125 0.71620
 N749 N 0.73642 0.65752 0.73449
 N750 N 0.75034 0.64008 0.73786
 C751 C 0.78269 0.61643 0.72676
 N752 N 0.78043 0.60307 0.74531
 N753 N 0.79435 0.58563 0.74865
 C754 C 0.81106 0.58084 0.73358
 N755 N 0.81326 0.59426 0.71502
 N756 N 0.79937 0.61171 0.71168
 C757 C 0.76730 0.36413 0.77648
 N758 N 0.76986 0.35051 0.79481
 N759 N 0.75591 0.33310 0.79819
 C760 C 0.73884 0.32860 0.78342
 N761 N 0.73634 0.34229 0.76509
 N762 N 0.75029 0.35969 0.76168
 C763 C 0.78268 0.38333 0.77274
 N764 N 0.78046 0.39663 0.75414
 N765 N 0.79440 0.41405 0.75077
 C766 C 0.81111 0.41887 0.76585
 N767 N 0.81327 0.40551 0.78445
 N768 N 0.79934 0.38808 0.78783
 C769 C 0.26768 -0.13615 0.27699
 N770 N 0.25017 -0.14007 0.26263
 N771 N 0.23620 -0.15745 0.26604
 C772 C 0.23913 -0.17168 0.28392
 N773 N 0.25673 -0.16765 0.29823
 N774 N 0.27070 -0.15025 0.29486
 C775 C 0.28307 -0.11696 0.27326
 N776 N 0.30011 -0.11258 0.28804
 N777 N 0.31404 -0.09515 0.28467
 C778 C 0.31151 -0.08143 0.26638
 N779 N 0.29444 -0.08588 0.25160
 N780 N 0.28048 -0.10329 0.25498
 C781 C 0.23221 -0.13603 0.72326
 N782 N 0.24972 -0.13994 0.73761
 N783 N 0.26367 -0.15734 0.73422
 C784 C 0.26071 -0.17160 0.71637
 N785 N 0.24310 -0.16758 0.70206
 N786 N 0.22916 -0.15016 0.70541
 C787 C 0.21685 -0.11682 0.72695
 N788 N 0.19981 -0.11245 0.71216
 N789 N 0.18591 -0.09500 0.71549
 C790 C 0.18846 -0.08124 0.73375
 N791 N 0.20553 -0.08567 0.74854
 N792 N 0.21946 -0.10310 0.74520
 C793 C 0.73266 0.36415 0.22345
 N794 N 0.73013 0.35053 0.20513
 N795 N 0.74409 0.33313 0.20175
 C796 C 0.76116 0.32866 0.21653
 N797 N 0.76364 0.34236 0.23486
 N798 N 0.74968 0.35975 0.23826
 C799 C 0.71728 0.38334 0.22719
 N800 N 0.71949 0.39665 0.24578
 N801 N 0.70553 0.41405 0.24916
 C802 C 0.68882 0.41885 0.23408
 N803 N 0.68667 0.40548 0.21548
 N804 N 0.70060 0.38807 0.21210
 C805 C 0.73260 0.63557 0.27701
 N806 N 0.73002 0.64923 0.29530
 N807 N 0.74394 0.66667 0.29865
 C808 C 0.76102 0.67114 0.28388
 N809 N 0.76355 0.65741 0.26559
 N810 N 0.74962 0.63998 0.26221
 C811 C 0.71725 0.61634 0.27331
 N812 N 0.71950 0.60298 0.25475
 N813 N 0.70557 0.58555 0.25140
 C814 C 0.68886 0.58075 0.26648
 N815 N 0.68667 0.59416 0.28504
 N816 N 0.70058 0.61161 0.28839
 C817 C 0.23269 0.13541 0.77633
 N818 N 0.23014 0.14907 0.79462
 N819 N 0.24410 0.16648 0.79799
 C820 C 0.26119 0.17092 0.78322
 N821 N 0.26369 0.15718 0.76493
 N822 N 0.24972 0.13979 0.76154
 C823 C 0.21729 0.11623 0.77262
 N824 N 0.21951 0.10286 0.75406
 N825 N 0.20553 0.08547 0.75071
 C826 C 0.18880 0.08072 0.76578
 N827 N 0.18664 0.09414 0.78435
 N828 N 0.20060 0.11155 0.78770
 C829 C 0.22331 0.26727 0.13537
 N830 N 0.20499 0.26985 0.14900
 N831 N 0.20162 0.25594 0.16642
 C832 C 0.21640 0.23887 0.17092
 N833 N 0.23472 0.23634 0.15721
 N834 N 0.23812 0.25026 0.13980
 C835 C 0.22703 0.28261 0.11615
 N836 N 0.24561 0.28037 0.10282
 N837 N 0.24897 0.29429 0.08540
 C838 C 0.23388 0.31099 0.08060
 N839 N 0.21528 0.31317 0.09398
 N840 N 0.21192 0.29927 0.11142
 C841 C 0.72317 0.76805 0.63562
 N842 N 0.70487 0.77065 0.64926
 N843 N 0.70146 0.75670 0.66665
 C844 C 0.71618 0.73956 0.67108
 N845 N 0.73448 0.73701 0.65736
 N846 N 0.73792 0.75097 0.63998
 C847 C 0.72693 0.78342 0.61644
 N848 N 0.74550 0.78113 0.60309
 N849 N 0.74889 0.79508 0.58569
 C850 C 0.73386 0.81185 0.58093
 N851 N 0.71529 0.81408 0.59434
 N852 N 0.71189 0.80016 0.61176
 C853 C 0.77691 0.76795 0.36445
 N854 N 0.79520 0.77054 0.35080
 N855 N 0.79861 0.75658 0.33342
 C856 C 0.78387 0.73945 0.32900
 N857 N 0.76557 0.73690 0.34273
 N858 N 0.76215 0.75087 0.36010
 C859 C 0.77316 0.78333 0.38362
 N860 N 0.75460 0.78105 0.39699
 N861 N 0.75122 0.79500 0.41438
 C862 C 0.76626 0.81178 0.41912
 N863 N 0.78483 0.81401 0.40570
 N864 N 0.78821 0.80007 0.38829
 C865 C 0.27699 0.26758 -0.13612
 N866 N 0.29534 0.27017 -0.14970
 N867 N 0.29877 0.25625 -0.16711
 C868 C 0.28400 0.23917 -0.17163
 N869 N 0.26565 0.23663 -0.15797
 N870 N 0.26220 0.25056 -0.14057
 C871 C 0.27322 0.28291 -0.11690
 N872 N 0.25462 0.28064 -0.10361
 N873 N 0.25122 0.29454 -0.08618
 C874 C 0.26630 0.31124 -0.08132
 N875 N 0.28492 0.31346 -0.09467
 N876 N 0.28831 0.29958 -0.11212
 C877 C 0.72310 0.23203 -0.13581
 N878 N 0.73786 0.24907 -0.14026
 N879 N 0.73440 0.26297 -0.15768
 C880 C 0.71606 0.26040 -0.17135
 N881 N 0.70132 0.24330 -0.16683
 N882 N 0.70476 0.22940 -0.14941
 C883 C 0.72688 0.21672 -0.11658
 N884 N 0.71182 0.20001 -0.11181
 N885 N 0.71524 0.18615 -0.09435
 C886 C 0.73384 0.18841 -0.08099
 N887 N 0.74889 0.20514 -0.08583
 N888 N 0.74547 0.21903 -0.10327
 C889 C 0.22340 0.73264 0.36456
 N890 N 0.20512 0.73009 0.35086
 N891 N 0.20182 0.74404 0.33344
 C892 C 0.21664 0.76110 0.32903
 N893 N 0.23492 0.76359 0.34280
 N894 N 0.23824 0.74964 0.36021
 C895 C 0.22704 0.71726 0.38375
 N896 N 0.24558 0.71948 0.39716
 N897 N 0.24888 0.70552 0.41456
 C898 C 0.23377 0.68881 0.41928
 N899 N 0.21522 0.68664 0.40582
 N900 N 0.21192 0.70058 0.38840
 C901 C 0.27619 0.73262 0.63583
 N902 N 0.26138 0.74964 0.64019
 N903 N 0.26475 0.76360 0.65758
 C904 C 0.28305 0.76111 0.67133
 N905 N 0.29783 0.74403 0.66690
 N906 N 0.29449 0.73007 0.64950
 C907 C 0.27250 0.71724 0.61664
 N908 N 0.28759 0.70055 0.61198
 N909 N 0.28425 0.68661 0.59456
 C910 C 0.26568 0.68879 0.58113
 N911 N 0.25060 0.70551 0.58587
 N912 N 0.25394 0.71947 0.60327
 C913 C 0.77708 0.23206 0.13582
 N914 N 0.76228 0.24906 0.14027
 N915 N 0.76571 0.26299 0.15768
 C916 C 0.78405 0.26046 0.17136
 N917 N 0.79882 0.24339 0.16685
 N918 N 0.79542 0.22948 0.14943
 C919 C 0.77334 0.21673 0.11660
 N920 N 0.78844 0.20006 0.11184
 N921 N 0.78506 0.18618 0.09438
 C922 C 0.76646 0.18839 0.08101
 N923 N 0.75137 0.20508 0.08584
 N924 N 0.75475 0.21899 0.10328
 C925 C 0.47324 0.38549 0.51810
 N926 N 0.48801 0.38988 0.50105
 N927 N 0.48458 0.40727 0.48711
 C928 C 0.46627 0.42100 0.48965
 N929 N 0.45153 0.41655 0.50676
 N930 N 0.45493 0.39914 0.52069
 C931 C 0.47699 0.36629 0.53345
 N932 N 0.46193 0.36159 0.55016
 N933 N 0.46532 0.34415 0.56407
 C934 C 0.48389 0.33074 0.56184
 N935 N 0.49893 0.33551 0.54509
 N936 N 0.49555 0.35293 0.53117
 C937 C -0.02674 0.88618 0.01770
 N938 N -0.01197 0.89061 0.00067
 N939 N -0.01543 0.90801 -0.01327
 C940 C -0.03378 0.92168 -0.01073
 N941 N -0.04851 0.91719 0.00637
 N942 N -0.04508 0.89979 0.02030
 C943 C -0.02296 0.86697 0.03304
 N944 N -0.03803 0.86221 0.04972
 N945 N -0.03462 0.84476 0.06361
 C946 C -0.01602 0.83139 0.06138
 N947 N -0.00096 0.83623 0.04467
 N948 N -0.00436 0.85366 0.03076
 C949 C 0.02682 0.61459 0.01744
 N950 N 0.04513 0.60094 0.02000
 N951 N 0.04848 0.58351 0.00609
 C952 C 0.03368 0.57903 -0.01096
 N953 N 0.01537 0.59276 -0.01347
 N954 N 0.01199 0.61018 0.00045
 C955 C 0.02313 0.63381 0.03278
 N956 N 0.00455 0.64716 0.03056
 N957 N 0.00122 0.66459 0.04448
 C958 C 0.01634 0.66939 0.06117
 N959 N 0.03492 0.65598 0.06333
 N960 N 0.03825 0.63854 0.04943
 C961 C 0.52697 0.11404 0.51803
 N962 N 0.51220 0.10964 0.50097
 N963 N 0.51566 0.09225 0.48703
 C964 C 0.53398 0.07855 0.48957
 N965 N 0.54871 0.08302 0.50668
 N966 N 0.54529 0.10041 0.52062
 C967 C 0.52320 0.13324 0.53338
 N968 N 0.53826 0.13794 0.55010
 N969 N 0.53487 0.15537 0.56401
 C970 C 0.51629 0.16878 0.56178
 N971 N 0.50125 0.16400 0.54503
 N972 N 0.50464 0.14659 0.53110
 C973 C -0.02706 0.11442 0.48209
 N974 N -0.01227 0.10999 0.49911
 N975 N -0.01570 0.09258 0.51303
 C976 C -0.03403 0.07887 0.51049
 N977 N -0.04879 0.08336 0.49340
 N978 N -0.04538 0.10079 0.47949
 C979 C -0.02331 0.13364 0.46676
 N980 N -0.03839 0.13837 0.45008
 N981 N -0.03501 0.15583 0.43620
 C982 C -0.01643 0.16923 0.43842
 N983 N -0.00136 0.16443 0.45514
 N984 N -0.00474 0.14699 0.46904
 C985 C 0.47323 0.61469 0.98256
 N986 N 0.45492 0.60102 0.97998
 N987 N 0.45157 0.58358 0.99389
 C988 C 0.46636 0.57912 1.01095
 N989 N 0.48467 0.59286 1.01348
 N990 N 0.48804 0.61029 0.99956
 C991 C 0.47691 0.63392 0.96723
 N992 N 0.49548 0.64729 0.96946
 N993 N 0.49881 0.66472 0.95554
 C994 C 0.48371 0.66950 0.93885
 N995 N 0.46513 0.65607 0.93667
 N996 N 0.46180 0.63862 0.95057
 C997 C 0.52673 0.88608 0.98265
 N998 N 0.51242 0.88998 1.00018
 N999 N 0.51589 0.90734 1.01417
 C1000 C 0.53378 0.92156 1.01121
 N1001 N 0.54805 0.91756 0.99357
 N1002 N 0.54462 0.90018 0.97960
 C1003 C 0.52295 0.86692 0.96726
 N1004 N 0.53770 0.86257 0.95019
 N1005 N 0.53429 0.84516 0.93625
 C1006 C 0.51599 0.83143 0.93880
 N1007 N 0.50124 0.83585 0.95590
 N1008 N 0.50466 0.85324 0.96986
 C1009 C 0.02675 0.38610 0.48195
 N1010 N 0.01197 0.39052 0.49897
 N1011 N 0.01542 0.40792 0.51291
 C1012 C 0.03376 0.42162 0.51038
 N1013 N 0.04850 0.41714 0.49329
 N1014 N 0.04508 0.39972 0.47936
 C1015 C 0.02299 0.36688 0.46662
 N1016 N 0.03806 0.36213 0.44994
 N1017 N 0.03467 0.34467 0.43606
 C1018 C 0.01607 0.33128 0.43828
 N1019 N 0.00100 0.33611 0.45500
 N1020 N 0.00440 0.35355 0.46890
 C1021 C 0.38544 0.51760 0.47362
 N1022 N 0.39909 0.52018 0.45532
 N1023 N 0.41651 0.50624 0.45194
 C1024 C 0.42098 0.48916 0.46671
 N1025 N 0.40726 0.48664 0.48501
 N1026 N 0.38985 0.50058 0.48841
 C1027 C 0.36623 0.53296 0.47734
 N1028 N 0.35287 0.53071 0.49589
 N1029 N 0.33544 0.54464 0.49925
 C1030 C 0.33065 0.56136 0.48417
 N1031 N 0.34407 0.56355 0.46560
 N1032 N 0.36151 0.54964 0.46225
 C1033 C 0.88613 0.01755 -0.02690
 N1034 N 0.90022 0.02060 -0.04478
 N1035 N 0.91764 0.00667 -0.04817
 C1036 C 0.92171 -0.01092 -0.03386
 N1037 N 0.90749 -0.01389 -0.01598
 N1038 N 0.89009 0.00005 -0.01256
 C1039 C 0.86692 0.03289 -0.02316
 N1040 N 0.85325 0.03028 -0.00488
 N1041 N 0.83582 0.04420 -0.00149
 C1042 C 0.83133 0.06126 -0.01626
 N1043 N 0.84505 0.06382 -0.03456
 N1044 N 0.86250 0.04993 -0.03794
 C1045 C 0.61463 0.01716 0.02674
 N1046 N 0.61020 0.00017 0.01191
 N1047 N 0.59277 -0.01377 0.01529
 C1048 C 0.57907 -0.01129 0.03361
 N1049 N 0.58356 0.00576 0.04841
 N1050 N 0.60099 0.01969 0.04506
 C1051 C 0.63384 0.03253 0.02303
 N1052 N 0.63857 0.04919 0.03813
 N1053 N 0.65600 0.06312 0.03477
 C1054 C 0.66938 0.06097 0.01618
 N1055 N 0.66458 0.04427 0.00109
 N1056 N 0.64716 0.03032 0.00445
 C1057 C 0.11378 0.51758 0.52665
 N1058 N 0.09966 0.52062 0.54451
 N1059 N 0.08225 0.50667 0.54787
 C1060 C 0.07822 0.48907 0.53356
 N1061 N 0.09246 0.48612 0.51569
 N1062 N 0.10986 0.50009 0.51229
 C1063 C 0.13299 0.53296 0.52295
 N1064 N 0.14669 0.53037 0.50469
 N1065 N 0.16412 0.54432 0.50135
 C1066 C 0.16856 0.56138 0.51614
 N1067 N 0.15480 0.56391 0.53441
 N1068 N 0.13736 0.54999 0.53775
 C1069 C 0.11434 0.48229 -0.02693
 N1070 N 0.10996 0.49931 -0.01213
 N1071 N 0.09256 0.51327 -0.01554
 C1072 C 0.07884 0.51077 -0.03385
 N1073 N 0.08329 0.49369 -0.04861
 N1074 N 0.10070 0.47973 -0.04524
 C1075 C 0.13354 0.46691 -0.02321
 N1076 N 0.13825 0.45024 -0.03830
 N1077 N 0.15568 0.43631 -0.03495
 C1078 C 0.16908 0.43847 -0.01637
 N1079 N 0.16429 0.45517 -0.00128
 N1080 N 0.14688 0.46912 -0.00464
 C1081 C 0.61417 0.98278 0.47332
 N1082 N 0.60004 0.97970 0.45547
 N1083 N 0.58260 0.99361 0.45210
 C1084 C 0.57854 1.01121 0.46641
 N1085 N 0.59279 1.01420 0.48427
 N1086 N 0.61022 1.00028 0.48767
 C1087 C 0.63340 0.96746 0.47704
 N1088 N 0.64711 0.97009 0.49530
 N1089 N 0.66455 0.95618 0.49865
 C1090 C 0.66901 0.93911 0.48388
 N1091 N 0.65525 0.93653 0.46562
 N1092 N 0.63779 0.95042 0.46227
 C1093 C 0.88591 0.98295 0.52665
 N1094 N 0.90004 0.97987 0.54449
 N1095 N 0.91747 0.99380 0.54786
 C1096 C 0.92150 1.01142 0.53358
 N1097 N 0.90724 1.01441 0.51573
 N1098 N 0.88982 1.00047 0.51232
 C1099 C 0.86669 0.96759 0.52293
 N1100 N 0.85297 0.97021 0.50468
 N1101 N 0.83554 0.95628 0.50132
 C1102 C 0.83110 0.93919 0.51609
 N1103 N 0.84487 0.93663 0.53435
 N1104 N 0.86232 0.95054 0.53770
 C1105 C 0.38569 0.48232 0.02674
 N1106 N 0.39933 0.47974 0.04505
 N1107 N 0.41673 0.49370 0.04846
 C1108 C 0.42119 0.51081 0.03373
 N1109 N 0.40748 0.51334 0.01542
 N1110 N 0.39009 0.49937 0.01198
 C1111 C 0.36651 0.46694 0.02298
 N1112 N 0.35317 0.46919 0.00440
 N1113 N 0.33576 0.45524 0.00100
 C1114 C 0.33098 0.43849 0.01604
 N1115 N 0.34437 0.43630 0.03463
 N1116 N 0.36179 0.45023 0.03802
 C1117 C 0.51760 0.47311 0.38593
 N1118 N 0.50059 0.48792 0.39034
 N1119 N 0.48665 0.48452 0.40774
 C1120 C 0.48916 0.46621 0.42145
 N1121 N 0.50623 0.45142 0.41698
 N1122 N 0.52017 0.45479 0.39957
 C1123 C 0.53296 0.47682 0.36673
 N1124 N 0.54963 0.46172 0.36201
 N1125 N 0.56354 0.46507 0.34458
 C1126 C 0.56137 0.48366 0.33119
 N1127 N 0.54467 0.49875 0.33598
 N1128 N 0.53073 0.49540 0.35340
 C1129 C 0.01737 -0.02646 0.88542
 N1130 N 0.00036 -0.01163 0.88980
 N1131 N -0.01357 -0.01498 0.90721
 C1132 C -0.01106 -0.03327 0.92096
 N1133 N 0.00600 -0.04806 0.91652
 N1134 N 0.01993 -0.04474 0.89909
 C1135 C 0.03273 -0.02279 0.86621
 N1136 N 0.04940 -0.03790 0.86153
 N1137 N 0.06332 -0.03459 0.84410
 C1138 C 0.06116 -0.01603 0.83067
 N1139 N 0.04445 -0.00093 0.83542
 N1140 N 0.03050 -0.00424 0.85283
 C1141 C 0.01732 0.02673 0.61414
 N1142 N 0.00028 0.01194 0.60975
 N1143 N -0.01368 0.01535 0.59237
 C1144 C -0.01116 0.03366 0.57865
 N1145 N 0.00594 0.04842 0.58310
 N1146 N 0.01990 0.04503 0.60049
 C1147 C 0.03271 0.02299 0.63331
 N1148 N 0.04943 0.03805 0.63801
 N1149 N 0.06337 0.03466 0.65542
 C1150 C 0.06116 0.01608 0.66882
 N1151 N 0.04440 0.00103 0.66405
 N1152 N 0.03045 0.00441 0.64666
 C1153 C 0.51778 0.52679 0.11455
 N1154 N 0.50077 0.51199 0.11010
 N1155 N 0.48683 0.51542 0.09270
 C1156 C 0.48935 0.53376 0.07903
 N1157 N 0.50643 0.54854 0.08354
 N1158 N 0.52036 0.54513 0.10095
 C1159 C 0.53313 0.52303 0.13375
 N1160 N 0.54981 0.53812 0.13853
 N1161 N 0.56371 0.53472 0.15597
 C1162 C 0.56150 0.51611 0.16931
 N1163 N 0.54479 0.50103 0.16447
 N1164 N 0.53087 0.50443 0.14704
 C1165 C 0.48244 -0.02721 0.11432
 N1166 N 0.47981 -0.04550 0.10067
 N1167 N 0.49371 -0.04888 0.08324
 C1168 C 0.51082 -0.03414 0.07876
 N1169 N 0.51340 -0.01584 0.09249
 N1170 N 0.49949 -0.01243 0.10991
 C1171 C 0.46712 -0.02349 0.13355
 N1172 N 0.46943 -0.00493 0.14691
 N1173 N 0.45553 -0.00157 0.16436
 C1174 C 0.43880 -0.01663 0.16916
 N1175 N 0.43655 -0.03520 0.15574
 N1176 N 0.45042 -0.03856 0.13828
 C1177 C 0.98248 0.47347 0.61417
 N1178 N 0.97995 0.45517 0.60051
 N1179 N 0.99390 0.45185 0.58310
 C1180 C 1.01095 0.46667 0.57866
 N1181 N 1.01344 0.48497 0.59239
 N1182 N 0.99948 0.48831 0.60979
 C1183 C 0.96710 0.47713 0.63336
 N1184 N 0.96929 0.49570 0.64672
 N1185 N 0.95533 0.49902 0.66411
 C1186 C 0.93863 0.48390 0.66887
 N1187 N 0.93649 0.46532 0.65546
 N1188 N 0.95044 0.46200 0.63804
 C1189 C 0.98217 0.52677 0.88544
 N1190 N 0.97961 0.54510 0.89905
 N1191 N 0.99356 0.54849 0.91646
 C1192 C 1.01064 0.53372 0.92093
 N1193 N 1.01314 0.51539 0.90724
 N1194 N 0.99919 0.51197 0.88985
 C1195 C 0.96681 0.52303 0.86624
 N1196 N 0.96906 0.50444 0.85292
 N1197 N 0.95513 0.50105 0.83551
 C1198 C 0.93841 0.51613 0.83069
 N1199 N 0.93622 0.53473 0.84407
 N1200 N 0.95013 0.53811 0.86150
 C1201 C 0.48277 0.02648 0.38579
 N1202 N 0.49981 0.01169 0.39019
 N1203 N 0.51375 0.01510 0.40759
 C1204 C 0.51122 0.03341 0.42131
 N1205 N 0.49413 0.04817 0.41685
 N1206 N 0.48019 0.04478 0.39943
 C1207 C 0.46741 0.02274 0.36660
 N1208 N 0.45070 0.03780 0.36188
 N1209 N 0.43678 0.03441 0.34445
 C1210 C 0.43899 0.01583 0.33107
 N1211 N 0.45572 0.00077 0.33586
 N1212 N 0.46967 0.00416 0.35326
   
