data_POSCAR
  _audit_creation_date              2014-09-24
  _audit_creation_method            'ToBaCCo'
  _symmetry_space_group_name_H-M    'P1'
  _symmetry_Int_Tables_number       1
  _symmetry_cell_setting            triclinic
  loop_
  _symmetry_equiv_pos_as_xyz
 x,y,z
_cell_length_a 30.3763
_cell_length_b 29.4460
_cell_length_c 29.0920
_cell_angle_alpha 87.911100
_cell_angle_beta 91.215700
_cell_angle_gamma 91.282200
loop_
  _atom_site_label
  _atom_site_type_symbol
  _atom_site_fract_x
  _atom_site_fract_y
  _atom_site_fract_z
C1 C 0.24022 0.17659 0.25955
 C2 C 0.22923 0.17342 0.30599
 C3 C 0.18915 0.18997 0.32101
 C4 C 0.16178 0.21337 0.28880
 C5 C 0.17440 0.21988 0.24257
 C6 C 0.21340 0.20043 0.22758
 C7 C 0.27617 0.15315 0.24459
 C8 C 0.28538 0.15082 0.19759
 C9 C 0.26129 0.17868 0.16575
 C10 C 0.22486 0.20340 0.18057
 C11 C 0.19806 0.22882 0.14927
 C12 C 0.15960 0.24923 0.16438
 C13 C 0.14781 0.24397 0.21075
 H14 H 0.25022 0.15376 0.32930
 H15 H 0.13097 0.22692 0.29969
 H16 H 0.29641 0.13541 0.27021
 H17 H 0.26852 0.17854 0.12945
 H18 H 0.20601 0.23126 0.11313
 H19 H 0.11756 0.25859 0.22198
 C20 C -0.22046 0.84079 0.18288
 C21 C -0.20473 0.87488 0.21158
 C22 C -0.16208 0.87311 0.23153
 C23 C -0.13533 0.83623 0.22227
 C24 C -0.14991 0.80322 0.19138
 C25 C -0.19276 0.80534 0.17204
 C26 C -0.26357 0.84181 0.16487
 C27 C -0.27969 0.80787 0.13552
 C28 C -0.25105 0.77324 0.12397
 C29 C -0.20793 0.77203 0.14175
 C30 C -0.17983 0.73781 0.12947
 C31 C -0.13680 0.73559 0.14778
 C32 C -0.12219 0.76840 0.17912
 H33 H -0.22672 0.90176 0.21974
 H34 H -0.10244 0.83424 0.23729
 H35 H -0.28430 0.86914 0.17440
 H36 H -0.26134 0.74718 0.10060
 H37 H -0.19203 0.71272 0.10587
 H38 H -0.08922 0.76762 0.19374
 C39 C -0.20914 0.14898 -0.18014
 C40 C -0.20644 0.12700 -0.22211
 C41 C -0.17404 0.14040 -0.25399
 C42 C -0.14390 0.17530 -0.24315
 C43 C -0.14612 0.19720 -0.20169
 C44 C -0.17884 0.18432 -0.16997
 C45 C -0.24236 0.13706 -0.14890
 C46 C -0.24636 0.16031 -0.10753
 C47 C -0.21511 0.19521 -0.09772
 C48 C -0.18186 0.20765 -0.12878
 C49 C -0.15237 0.24411 -0.12011
 C50 C -0.12000 0.25714 -0.15226
 C51 C -0.11699 0.23314 -0.19263
 H52 H -0.22971 0.09985 -0.22998
 H53 H -0.11933 0.18682 -0.26760
 H54 H -0.26514 0.10979 -0.15761
 H55 H -0.21675 0.21403 -0.06665
 H56 H -0.15495 0.26261 -0.08879
 H57 H -0.09323 0.24364 -0.21838
 C58 C 0.20280 0.84839 -0.23707
 C59 C 0.18277 0.84741 -0.28075
 C60 C 0.14068 0.82742 -0.28695
 C61 C 0.11951 0.80623 -0.24892
 C62 C 0.14131 0.80297 -0.20567
 C63 C 0.18253 0.82534 -0.19957
 C64 C 0.24270 0.87241 -0.23034
 C65 C 0.26271 0.87390 -0.18643
 C66 C 0.24345 0.84889 -0.14966
 C67 C 0.20381 0.82435 -0.15607
 C68 C 0.18586 0.79793 -0.11986
 C69 C 0.14684 0.77224 -0.12635
 C70 C 0.12357 0.77668 -0.16881
 H71 H 0.19884 0.86505 -0.30942
 H72 H 0.08735 0.79015 -0.25371
 H73 H 0.25798 0.89001 -0.25941
 H74 H 0.25879 0.84899 -0.11574
 H75 H 0.20403 0.79545 -0.08752
 H76 H 0.09263 0.75832 -0.17379
 C77 C 0.15878 1.22396 0.79543
 C78 C 0.12924 1.19703 0.76912
 C79 C 0.13462 1.14945 0.76724
 C80 C 0.17063 1.12958 0.79140
 C81 C 0.20138 1.15600 0.81566
 C82 C 0.19582 1.20338 0.81696
 C83 C 0.15146 1.27062 0.80224
 C84 C 0.18258 1.29716 0.82723
 C85 C 0.22098 1.27643 0.84450
 C86 C 0.22675 1.22997 0.84135
 C87 C 0.26167 1.20944 0.86539
 C88 C 0.26619 1.16241 0.86606
 C89 C 0.23681 1.13561 0.84021
 H90 H 0.10129 1.21278 0.75173
 H91 H 0.17636 1.09353 0.78979
 H92 H 0.12190 1.28615 0.78809
 H93 H 0.24476 1.29516 0.86504
 H94 H 0.28422 1.22986 0.88592
 H95 H 0.24014 1.09900 0.84132
 C96 C 0.82060 0.79636 0.75869
 C97 C 0.82388 0.81483 0.71365
 C98 C 0.79399 0.84744 0.69654
 C99 C 0.76032 0.86076 0.72549
 C100 C 0.75794 0.84387 0.77099
 C101 C 0.78777 0.81102 0.78771
 C102 C 0.85094 0.76470 0.77548
 C103 C 0.84951 0.74698 0.82113
 C104 C 0.81587 0.76109 0.84986
 C105 C 0.78589 0.79432 0.83389
 C106 C 0.75597 0.81348 0.86376
 C107 C 0.72803 0.84822 0.84738
 C108 C 0.72807 0.86190 0.80085
 H109 H 0.84977 0.80353 0.69204
 H110 H 0.73747 0.88671 0.71429
 H111 H 0.87512 0.75321 0.75198
 H112 H 0.81454 0.74843 0.88524
 H113 H 0.75621 0.80341 0.89996
 H114 H 0.70670 0.88904 0.78867
 C115 C 0.13900 0.79641 1.22809
 C116 C 0.12891 0.82483 1.26414
 C117 C 0.15136 0.86677 1.26940
 C118 C 0.18392 0.88024 1.23750
 C119 C 0.19443 0.85231 1.20137
 C120 C 0.17172 0.81034 1.19662
 C121 C 0.11720 0.75404 1.22336
 C122 C 0.12746 0.72513 1.18740
 C123 C 0.15996 0.74016 1.15608
 C124 C 0.18202 0.78209 1.16053
 C125 C 0.21475 0.79578 1.12946
 C126 C 0.23763 0.83736 1.13382
 C127 C 0.22750 0.86548 1.17005
 H128 H 0.10418 0.81379 1.28861
 H129 H 0.20109 0.91265 1.24034
 H130 H 0.09208 0.74434 1.24778
 H131 H 0.16906 0.71924 1.12820
 H132 H 0.22321 0.77329 1.10249
 H133 H 0.24513 0.89760 1.17366
 C134 C 0.86931 1.17848 1.16491
 C135 C 0.89951 1.16827 1.20064
 C136 C 0.89911 1.12509 1.22257
 C137 C 0.86702 1.09248 1.20955
 C138 C 0.83380 1.10404 1.17717
 C139 C 0.83556 1.14687 1.15394
 C140 C 0.87221 1.22005 1.14034
 C141 C 0.84168 1.23103 1.10486
 C142 C 0.80657 1.20032 1.09580
 C143 C 0.80305 1.15853 1.12055
 C144 C 0.76698 1.12875 1.11339
 C145 C 0.76309 1.08737 1.13908
 C146 C 0.79770 1.07450 1.16947
 H147 H 0.92435 1.19339 1.21040
 H148 H 0.86555 1.05955 1.22745
 H149 H 0.89911 1.24323 1.14852
 H150 H 0.78172 1.20877 1.06988
 H151 H 0.74148 1.13840 1.08857
 H152 H 0.79562 1.04276 1.18931
 N153 N 0.54770 0.96666 0.92273
 N154 N 0.58730 0.96859 0.90481
 N155 N 0.44873 0.93690 0.93362
 N156 N 0.41438 0.91501 0.91605
 N157 N 0.45566 0.97583 0.91133
 N158 N 0.42605 0.98156 0.87782
 N159 N 0.54026 0.92658 0.94288
 N160 N 0.57433 0.90006 0.93851
 C161 C 0.60310 0.92657 0.91427
 C162 C 0.40056 0.94333 0.88140
 N163 N 0.43935 0.92675 1.06849
 N164 N 0.40213 0.91824 1.09021
 N165 N 0.52918 0.89601 1.03665
 N166 N 0.55649 0.86195 1.03706
 N167 N 0.53153 0.91692 1.07568
 N168 N 0.56131 0.89805 1.10365
 N169 N 0.43840 0.90762 1.02835
 N170 N 0.40068 0.88559 1.02169
 Mn171 Mn 0.48892 0.91637 0.98519
 C172 C 0.37853 0.89234 1.06061
 C173 C 0.57629 0.86373 1.07886
 N174 N 0.46266 1.06809 0.93989
 N175 N 0.42669 1.07723 0.91513
 N176 N 0.55314 1.08062 0.98915
 N177 N 0.58855 1.10621 0.99617
 N178 N 0.55524 1.06015 0.94999
 N179 N 0.59246 1.07142 0.92916
 N180 N 0.46136 1.08748 0.97988
 N181 N 0.42464 1.11002 0.98324
 Mn182 Mn 0.50559 1.01791 0.93030
 C183 C 0.40373 1.10392 0.94246
 C184 C 0.61276 1.10017 0.95868
 N185 N 0.54139 1.00977 1.10336
 N186 N 0.57859 0.99879 1.12501
 N187 N 0.45267 1.05807 1.07482
 N188 N 0.42246 1.08630 1.08816
 N189 N 0.44886 1.01863 1.09693
 N190 N 0.41609 1.01880 1.12579
 N191 N 0.54530 1.05018 1.08287
 N192 N 0.58510 1.06762 1.09047
 Mn193 Mn 0.49043 0.96791 1.08676
 Mn194 Mn 0.50295 1.06961 1.03176
 Cl195 Cl 0.49702 0.99292 1.00846
 C196 C 0.60524 1.03559 1.11727
 C197 C 0.39961 1.06093 1.11970
 N198 N 0.03795 0.43127 0.07186
 N199 N 0.03805 0.39039 0.09190
 N200 N 0.07342 0.53337 0.06999
 N201 N 0.09600 0.56809 0.08713
 N202 N 0.03902 0.52315 0.09517
 N203 N 0.03756 0.55004 0.13033
 N204 N 0.07492 0.43982 0.05027
 N205 N 0.10154 0.40480 0.05557
 C206 C 0.07787 0.37427 0.08162
 C207 C 0.07320 0.57774 0.12507
 N208 N 0.06578 0.56276 -0.06372
 N209 N 0.07104 0.60422 -0.08148
 N210 N 0.09138 0.46391 -0.04515
 N211 N 0.12357 0.43657 -0.05461
 N212 N 0.06489 0.46943 -0.08107
 N213 N 0.07807 0.44571 -0.11576
 N214 N 0.08969 0.55719 -0.02589
 N215 N 0.11192 0.59515 -0.01689
 Mn216 Mn 0.08310 0.49885 0.01249
 C217 C 0.10002 0.62388 -0.05230
 C218 C 0.11431 0.42490 -0.09842
 N219 N -0.05330 0.52773 0.07590
 N220 N -0.05358 0.55918 0.10673
 N221 N -0.08230 0.44729 0.01859
 N222 N -0.11269 0.41539 0.01175
 N223 N -0.05634 0.43582 0.05352
 N224 N -0.06874 0.39600 0.07184
 N225 N -0.07721 0.54003 0.03945
 N226 N -0.09441 0.58036 0.04504
 Mn227 Mn -0.00831 0.47892 0.07444
 C228 C -0.07959 0.59128 0.08762
 C229 C -0.10383 0.38370 0.04518
 N230 N -0.02869 0.47309 -0.09916
 N231 N -0.02440 0.43801 -0.12539
 N232 N -0.06143 0.56288 -0.05750
 N233 N -0.08764 0.59748 -0.06791
 N234 N -0.02574 0.56621 -0.08206
 N235 N -0.02608 0.60297 -0.10894
 N236 N -0.06502 0.46896 -0.07542
 N237 N -0.08605 0.43056 -0.08486
 Mn238 Mn 0.01904 0.51760 -0.08190
 Mn239 Mn -0.07216 0.50529 -0.01875
 Cl240 Cl 0.00548 0.50015 -0.00334
 C241 C -0.06068 0.41223 -0.11662
 C242 C -0.06440 0.62246 -0.09971
 N243 N 0.91210 -0.00999 0.42348
 N244 N 0.89033 -0.00714 0.38407
 N245 N 0.91579 -0.06293 0.51831
 N246 N 0.89910 -0.09539 0.54595
 N247 N 0.88891 -0.02857 0.51441
 N248 N 0.85313 -0.03692 0.53816
 N249 N 0.93800 -0.04513 0.42519
 N250 N 0.93401 -0.06752 0.38651
 C251 C 0.90446 -0.04267 0.36113
 C252 C 0.85980 -0.07845 0.55769
 N253 N 1.03903 -0.04504 0.55616
 N254 N 1.06505 -0.06447 0.58747
 N255 N 1.03067 -0.05498 0.44982
 N256 N 1.04297 -0.07615 0.41298
 N257 N 1.06202 -0.02683 0.46371
 N258 N 1.09628 -0.02799 0.43668
 N259 N 1.00860 -0.07412 0.54210
 N260 N 1.01405 -0.11428 0.56327
 Mn261 Mn 0.97317 -0.05997 0.48376
 C262 C 1.04846 -0.10714 0.59274
 C263 C 1.08406 -0.05892 0.40528
 N264 N 0.89578 0.06648 0.53133
 N265 N 0.86251 0.06501 0.55958
 N266 N 0.95201 0.11121 0.45163
 N267 N 0.96856 0.13122 0.41403
 N268 N 0.91823 0.08488 0.44035
 N269 N 0.91017 0.08831 0.39584
 N270 N 0.92724 0.09417 0.54551
 N271 N 0.91634 0.11187 0.58468
 Mn272 Mn 0.90358 0.02829 0.47750
 C273 C 0.87565 0.09358 0.59248
 C274 C 0.94102 0.11775 0.37972
 N275 N 1.06951 0.06882 0.48214
 N276 N 1.10731 0.08003 0.46301
 N277 N 1.01965 0.08558 0.57119
 N278 N 1.02250 0.10801 0.60994
 N279 N 1.04552 0.05035 0.57360
 N280 N 1.06587 0.04728 0.61395
 N281 N 1.04245 0.10295 0.47877
 N282 N 1.06082 0.13809 0.45629
 Mn283 Mn 1.05425 0.01176 0.51897
 Mn284 Mn 0.98504 0.09920 0.51192
 Cl285 Cl 0.97917 0.01970 0.49823
 C286 C 1.10115 0.12295 0.44645
 C287 C 1.05136 0.08328 0.63632
 N288 N 1.17842 0.14675 0.43636
 N289 N 1.20354 0.16546 0.40074
 C290 C 1.17577 0.17922 0.36633
 C291 C 1.13246 0.17160 0.38040
 C292 C 1.13586 0.14999 0.42359
 H293 H 1.10275 0.17452 0.35939
 H294 H 1.19110 0.12898 0.46524
 H295 H 1.23791 0.16646 0.40129
 N296 N 0.85642 -0.02606 0.29405
 N297 N 0.83621 -0.05002 0.25886
 C298 C 0.85302 -0.09210 0.26008
 C299 C 0.88476 -0.09551 0.29548
 C300 C 0.88483 -0.05389 0.31642
 H301 H 0.90217 -0.12551 0.30743
 H302 H 0.84811 0.00667 0.30296
 H303 H 0.81298 -0.03629 0.23567
 N304 N 0.80799 0.08549 0.63866
 N305 N 0.79487 0.09692 0.67959
 C306 C 0.82824 0.11949 0.70074
 C307 C 0.86397 0.12247 0.67181
 C308 C 0.84973 0.10065 0.63314
 H309 H 0.89600 0.13816 0.67774
 H310 H 0.78837 0.06831 0.61472
 H311 H 0.76320 0.09036 0.69176
 N312 N 1.11420 -0.15316 0.59468
 N313 N 1.14231 -0.16906 0.62977
 C314 C 1.12015 -0.16946 0.66943
 C315 C 1.07753 -0.15452 0.66040
 C316 C 1.07560 -0.14328 0.61347
 H317 H 1.05422 -0.14493 0.68576
 H318 H 1.12456 -0.14268 0.56187
 H319 H 1.17560 -0.17580 0.62563
 N320 N 0.35558 1.05559 1.18925
 N321 N 0.32517 1.08101 1.21144
 C322 C 0.31594 1.11823 1.18462
 C323 C 0.34042 1.11691 1.14435
 C324 C 0.36532 1.07752 1.14944
 H325 H 0.34116 1.14165 1.11593
 H326 H 0.36893 1.02536 1.20256
 H327 H 0.31045 1.07005 1.24210
 N328 N 0.35158 0.95715 0.81275
 N329 N 0.31587 0.93816 0.79429
 C330 C 0.30312 0.90212 0.82125
 C331 C 0.33251 0.89792 0.85820
 C332 C 0.36253 0.93330 0.85143
 H333 H 0.33222 0.87300 0.88643
 H334 H 0.36791 0.98600 0.79909
 H335 H 0.30027 0.95058 0.76425
 N336 N 0.61735 0.79283 1.07506
 N337 N 0.65823 0.77727 1.09028
 C338 C 0.67699 0.80927 1.11711
 C339 C 0.64766 0.84478 1.12055
 C340 C 0.61161 0.83340 1.09334
 H341 H 0.65276 0.87675 1.13721
 H342 H 0.59639 0.77643 1.05174
 H343 H 0.67080 0.74639 1.08086
 N344 N 0.67333 1.15253 0.98156
 N345 N 0.71267 1.16947 0.96337
 C346 C 0.71837 1.14996 0.92253
 C347 C 0.68279 1.11999 0.91459
 C348 C 0.65557 1.12311 0.95184
 H349 H 0.67627 1.09924 0.88524
 H350 H 0.66017 1.16211 1.01256
 H351 H 0.73281 1.19315 0.97996
 N352 N 0.06384 0.29467 0.10862
 N353 N 0.08559 0.26115 0.12928
 C354 C 0.12866 0.27286 0.13211
 C355 C 0.13460 0.31606 0.11162
 C356 C 0.09239 0.32870 0.09746
 H357 H 0.16409 0.33735 0.11220
 H358 H 0.02958 0.29520 0.10478
 H359 H 0.07066 0.23195 0.14396
 N360 N -0.03813 0.34660 -0.16027
 N361 N -0.05269 0.30509 -0.16826
 C362 C -0.09108 0.29761 -0.14637
 C363 C -0.10094 0.33604 -0.12289
 C364 C -0.06687 0.36636 -0.13326
 H365 H -0.12925 0.34152 -0.10218
 H366 H -0.00886 0.36088 -0.17301
 H367 H -0.03612 0.28264 -0.18834
 N368 N 0.13854 0.69493 -0.02783
 N369 N 0.14957 0.73493 -0.04693
 C370 C 0.13374 0.73721 -0.09076
 C371 C 0.11086 0.69707 -0.09920
 C372 C 0.11541 0.67111 -0.05889
 H373 H 0.09575 0.68663 -0.13116
 H374 H 0.14737 0.68401 0.00557
 H375 H 0.16814 0.75967 -0.03001
 N376 N -0.05499 0.65018 0.14078
 N377 N -0.06963 0.68805 0.15700
 C378 C -0.10809 0.69808 0.13534
 C379 C -0.11779 0.66503 0.10327
 C380 C -0.08356 0.63525 0.10852
 H381 H -0.14661 0.66130 0.08116
 H382 H -0.02632 0.63424 0.15256
 H383 H -0.05395 0.70515 0.18372
 N384 N 1.07640 0.05794 0.71367
 N385 N 1.10099 0.07601 0.74975
 C386 C 1.10546 0.12134 0.74167
 C387 C 1.08220 0.13315 0.70095
 C388 C 1.06583 0.09216 0.68394
 H389 H 1.08255 0.16591 0.68284
 H390 H 1.07128 0.02321 0.70884
 H391 H 1.11387 0.05647 0.77731
 N392 N 0.78645 -0.08572 0.59177
 N393 N 0.76803 -0.10563 0.63113
 C394 C 0.79890 -0.13161 0.65251
 C395 C 0.83712 -0.12967 0.62634
 C396 C 0.82805 -0.09994 0.58941
 H397 H 0.86894 -0.14366 0.63536
 H398 H 0.77112 -0.06141 0.57027
 H399 H 0.73593 -0.09996 0.64120
 N400 N 1.15254 -0.05260 0.36000
 N401 N 1.17010 -0.07171 0.32455
 C402 C 1.14195 -0.10392 0.30868
 C403 C 1.10454 -0.10513 0.33580
 C404 C 1.11270 -0.07188 0.36776
 H405 H 1.07558 -0.12696 0.33298
 H406 H 1.16800 -0.02696 0.37875
 H407 H 1.20141 -0.06318 0.31245
 N408 N 0.96179 0.07509 0.31421
 N409 N 0.94494 0.07464 0.26937
 C410 C 0.92811 0.11576 0.25943
 C411 C 0.93399 0.14312 0.29719
 C412 C 0.95324 0.11578 0.33154
 H413 H 0.91759 0.17480 0.30222
 H414 H 0.96992 0.04572 0.33352
 H415 H 0.94227 0.04580 0.24953
 N416 N 0.18814 0.40651 -0.12428
 N417 N 0.20740 0.37119 -0.14644
 C418 C 0.17499 0.34222 -0.16043
 C419 C 0.13437 0.35992 -0.14956
 C420 C 0.14440 0.39919 -0.12576
 H421 H 0.10236 0.34325 -0.15241
 H422 H 0.20537 0.43199 -0.10689
 H423 H 0.24138 0.36802 -0.14942
 N424 N -0.16024 0.32542 0.02213
 N425 N -0.17462 0.28514 0.03773
 C426 C -0.15295 0.27440 0.07756
 C427 C -0.12344 0.30964 0.08734
 C428 C -0.12898 0.34092 0.05146
 H429 H -0.10075 0.31261 0.11626
 H430 H -0.17127 0.34151 -0.00845
 H431 H -0.19810 0.26530 0.02045
 N432 N -0.05375 0.68167 -0.15996
 N433 N -0.07776 0.71526 -0.18297
 C434 C -0.11733 0.71718 -0.16291
 C435 C -0.11904 0.68493 -0.12623
 C436 C -0.07885 0.66297 -0.12649
 H437 H -0.14657 0.67659 -0.10420
 H438 H -0.02216 0.67226 -0.16883
 H439 H -0.06516 0.73599 -0.20967
 N440 N 0.06235 0.62155 0.19507
 N441 N 0.07675 0.66305 0.21228
 C442 C 0.10600 0.68219 0.18248
 C443 C 0.11068 0.65277 0.14617
 C444 C 0.08291 0.61582 0.15531
 H445 H 0.13002 0.65785 0.11560
 H446 H 0.03886 0.59973 0.21034
 H447 H 0.06590 0.67551 0.24307
 N448 N 0.33391 1.13765 0.96455
 N449 N 0.29707 1.15172 0.94459
 C450 C 0.29767 1.14246 0.89962
 C451 C 0.33682 1.12152 0.89027
 C452 C 0.35897 1.11967 0.93256
 H453 H 0.34882 1.11225 0.85717
 H454 H 0.34207 1.14145 0.99930
 H455 H 0.27277 1.16919 0.96116
 N456 N 0.31044 0.84994 1.03820
 N457 N 0.27320 0.83595 1.05712
 C458 C 0.27248 0.85030 1.10064
 C459 C 0.31101 0.87503 1.10958
 C460 C 0.33415 0.87365 1.06910
 H461 H 0.32175 0.88976 1.14159
 H462 H 0.31969 0.84256 1.00493
 H463 H 0.24897 0.81664 1.04029
 N464 N 0.67548 1.00268 1.14794
 N465 N 0.71725 1.01576 1.15240
 C466 C 0.72175 1.05935 1.13663
 C467 C 0.68073 1.07435 1.12137
 C468 C 0.65246 1.03757 1.12943
 H469 H 0.67214 1.10758 1.10722
 H470 H 0.66323 0.97022 1.15702
 H471 H 0.74198 0.99473 1.16575
 N472 N 0.68203 0.94246 0.89922
 N473 N 0.71606 0.92048 0.88445
 C474 C 0.70417 0.87666 0.87859
 C475 C 0.66045 0.87036 0.89073
 C476 C 0.64774 0.91307 0.90331
 H477 H 0.63956 0.84057 0.88603
 H478 H 0.68192 0.97740 0.90432
 H479 H 0.74593 0.93608 0.87511
   
