data_POSCAR
  _audit_creation_date              2014-09-24
  _audit_creation_method            'ToBaCCo'
  _symmetry_space_group_name_H-M    'P1'
  _symmetry_Int_Tables_number       1
  _symmetry_cell_setting            triclinic
  loop_
  _symmetry_equiv_pos_as_xyz
 x,y,z
_cell_length_a 52.9761
_cell_length_b 52.8474
_cell_length_c 53.0216
_cell_angle_alpha 89.761900
_cell_angle_beta 90.093000
_cell_angle_gamma 89.064100
loop_
  _atom_site_label
  _atom_site_type_symbol
  _atom_site_fract_x
  _atom_site_fract_y
  _atom_site_fract_z
N1 N 0.15240 0.16251 0.22102
 N2 N 0.17104 0.14586 0.22243
 C3 C 0.16753 0.13084 0.24263
 C4 C 0.14538 0.13834 0.25472
 C5 C 0.13635 0.15863 0.24029
 H6 H 0.18024 0.11557 0.24799
 H7 H 0.11934 0.16975 0.24331
 Cu8 Cu 0.19807 0.14536 0.19757
 Cu9 Cu 0.15003 0.18739 0.19370
 Cu10 Cu 0.20101 0.19012 0.15282
 N11 N 0.22476 0.14482 0.17234
 N12 N 0.22592 0.16274 0.15518
 C13 C 0.24594 0.15834 0.14019
 C14 C 0.25825 0.13635 0.14827
 C15 C 0.24411 0.12834 0.16885
 H16 H 0.25088 0.17033 0.12448
 H17 H 0.24752 0.11178 0.18044
 N18 N 0.17371 0.21580 0.15326
 N19 N 0.15408 0.21474 0.16849
 C20 C 0.13861 0.23470 0.16361
 C21 C 0.14895 0.24892 0.14424
 C22 C 0.17123 0.23629 0.13829
 H23 H 0.12100 0.23843 0.17327
 H24 H 0.18473 0.24158 0.12406
 H25 H 0.17227 0.16891 0.16704
 H26 H 0.18844 0.18983 0.19008
 N27 N -0.14882 0.83919 0.21731
 N28 N -0.16643 0.85682 0.21505
 C29 C -0.16567 0.87217 0.23518
 C30 C -0.14638 0.86384 0.25099
 C31 C -0.13607 0.84281 0.23892
 H32 H -0.17802 0.88842 0.23779
 H33 H -0.12045 0.83098 0.24525
 Cu34 Cu -0.18817 0.85858 0.18573
 Cu35 Cu -0.14346 0.81362 0.19139
 Cu36 Cu -0.19347 0.80699 0.14946
 N37 N -0.21643 0.85453 0.16313
 N38 N -0.21875 0.83430 0.14910
 C39 C -0.24021 0.83646 0.13555
 C40 C -0.25212 0.85934 0.14153
 C41 C -0.23627 0.87019 0.15920
 H42 H -0.24654 0.82232 0.12242
 H43 H -0.23878 0.88808 0.16871
 N44 N -0.16562 0.78184 0.15276
 N45 N -0.14652 0.78457 0.16847
 C46 C -0.13037 0.76484 0.16585
 C47 C -0.13960 0.74888 0.14746
 C48 C -0.16203 0.76032 0.13963
 H49 H -0.11298 0.76254 0.17634
 H50 H -0.17476 0.75359 0.12531
 H51 H -0.16349 0.82818 0.16045
 H52 H -0.18172 0.81303 0.18628
 N53 N -0.15281 0.17467 -0.21818
 N54 N -0.16896 0.15607 -0.21787
 C55 C -0.16339 0.14007 -0.23688
 C56 C -0.14264 0.14918 -0.24990
 C57 C -0.13654 0.17124 -0.23735
 H58 H -0.17379 0.12315 -0.24096
 H59 H -0.12157 0.18412 -0.24187
 Cu60 Cu -0.19625 0.15494 -0.19316
 Cu61 Cu -0.15458 0.20257 -0.19445
 Cu62 Cu -0.19381 0.19417 -0.14314
 N63 N -0.21962 0.15208 -0.16486
 N64 N -0.21809 0.16710 -0.14528
 C65 C -0.23632 0.16139 -0.12871
 C66 C -0.25033 0.14158 -0.13825
 C67 C -0.23897 0.13616 -0.16134
 H68 H -0.23927 0.17139 -0.11122
 H69 H -0.24441 0.12190 -0.17474
 N70 N -0.16826 0.22074 -0.14463
 N71 N -0.15370 0.22433 -0.16441
 C72 C -0.13892 0.24436 -0.16008
 C73 C -0.14454 0.25402 -0.13642
 C74 C -0.16325 0.23846 -0.12724
 H75 H -0.12524 0.25149 -0.17332
 H76 H -0.17264 0.23995 -0.10923
 H77 H -0.16683 0.17816 -0.16705
 H78 H -0.19154 0.19951 -0.18119
 N79 N 0.15060 0.83438 -0.22137
 N80 N 0.16816 0.85150 -0.21935
 C81 C 0.16580 0.86812 -0.23856
 C82 C 0.14562 0.86112 -0.25351
 C83 C 0.13644 0.83954 -0.24192
 H84 H 0.17786 0.88416 -0.24136
 H85 H 0.12070 0.82830 -0.24794
 Cu86 Cu 0.19256 0.85047 -0.19195
 Cu87 Cu 0.14741 0.80676 -0.19711
 Cu88 Cu 0.19123 0.80408 -0.14841
 N89 N 0.21733 0.84835 -0.16492
 N90 N 0.21675 0.83024 -0.14792
 C91 C 0.23598 0.83319 -0.13163
 C92 C 0.24953 0.85437 -0.13877
 C93 C 0.23696 0.86342 -0.16008
 H94 H 0.23975 0.82066 -0.11587
 H95 H 0.24169 0.87971 -0.17138
 N96 N 0.16398 0.77937 -0.15217
 N97 N 0.14734 0.78032 -0.17070
 C98 C 0.13129 0.76097 -0.16801
 C99 C 0.13809 0.74709 -0.14673
 C100 C 0.15895 0.75941 -0.13724
 H101 H 0.11571 0.75736 -0.18059
 H102 H 0.16979 0.75422 -0.12069
 H103 H 0.16365 0.82511 -0.16695
 H104 H 0.18513 0.80531 -0.18692
 N105 N 0.16293 1.14955 0.77910
 N106 N 0.14315 1.16404 0.78385
 C107 C 0.12596 1.16138 0.76542
 C108 C 0.13534 1.14413 0.74805
 C109 C 0.15892 1.13701 0.75743
 H110 H 0.10793 1.17123 0.76487
 H111 H 0.17223 1.12376 0.74918
 Cu112 Cu 0.14181 1.18542 0.81329
 Cu113 Cu 0.19192 1.14761 0.80190
 Cu114 Cu 0.18982 1.18713 0.85422
 N115 N 0.14579 1.21360 0.83604
 N116 N 0.16460 1.21441 0.85214
 C117 C 0.16242 1.23574 0.86584
 C118 C 0.14113 1.24913 0.85769
 C119 C 0.13111 1.23438 0.83872
 H120 H 0.17544 1.24103 0.88055
 H121 H 0.11421 1.23817 0.82782
 N122 N 0.21799 1.16319 0.84762
 N123 N 0.21900 1.14849 0.82757
 C124 C 0.24025 1.13421 0.82869
 C125 C 0.25336 1.14015 0.85048
 C126 C 0.23861 1.15872 0.86194
 H127 H 0.24561 1.12029 0.81475
 H128 H 0.24234 1.16805 0.87962
 H129 H 0.17329 1.15776 0.83414
 H130 H 0.18755 1.18407 0.81586
 N131 N 0.83906 0.85698 0.78771
 N132 N 0.85387 0.83726 0.78368
 C133 C 0.86640 0.84065 0.76192
 C134 C 0.85910 0.86389 0.75179
 C135 C 0.84174 0.87373 0.76880
 H136 H 0.87980 0.82718 0.75415
 H137 H 0.83185 0.89176 0.76776
 Cu138 Cu 0.85617 0.80983 0.80804
 Cu139 Cu 0.81780 0.85938 0.81741
 Cu140 Cu 0.80593 0.80121 0.84536
 N141 N 0.85465 0.78143 0.83110
 N142 N 0.83506 0.77796 0.84582
 C143 C 0.83892 0.75669 0.85946
 C144 C 0.86230 0.74634 0.85299
 C145 C 0.87165 0.76266 0.83491
 H146 H 0.82559 0.74933 0.87294
 H147 H 0.88958 0.76119 0.82531
 N148 N 0.78370 0.83135 0.84962
 N149 N 0.78898 0.85355 0.83965
 C150 C 0.77053 0.87025 0.84534
 C151 C 0.75253 0.85811 0.85961
 C152 C 0.76162 0.83342 0.86212
 H153 H 0.77009 0.88969 0.83896
 H154 H 0.75256 0.81797 0.87175
 H155 H 0.83043 0.82948 0.84105
 H156 H 0.81182 0.82183 0.81225
 N157 N 0.16945 0.85520 1.21839
 N158 N 0.15114 0.83878 1.21942
 C159 C 0.13643 0.84411 1.23944
 C160 C 0.14597 0.86507 1.25165
 C161 C 0.16700 0.87154 1.23765
 H162 H 0.12000 0.83346 1.24467
 H163 H 0.17964 0.88699 1.24110
 Cu164 Cu 0.14824 0.81200 1.19456
 Cu165 Cu 0.19502 0.85429 1.19212
 Cu166 Cu 0.19136 0.80606 1.14829
 N167 N 0.14699 0.78458 1.17025
 N168 N 0.16389 0.78236 1.15226
 C169 C 0.15869 0.76194 1.13823
 C170 C 0.13731 0.75062 1.14789
 C171 C 0.13046 0.76559 1.16827
 H172 H 0.16981 0.75579 1.12226
 H173 H 0.11458 0.76295 1.18070
 N174 N 0.21774 0.83190 1.14745
 N175 N 0.21911 0.85023 1.16416
 C176 C 0.23895 0.86480 1.15856
 C177 C 0.25075 0.85524 1.13724
 C178 C 0.23670 0.83433 1.13076
 H179 H 0.24433 0.88120 1.16927
 H180 H 0.23995 0.82179 1.11503
 H181 H 0.17342 0.83659 1.16511
 H182 H 0.19322 0.81570 1.18599
 N183 N 0.82972 1.15218 1.21755
 N184 N 0.84683 1.16987 1.21657
 C185 C 0.86248 1.16724 1.23644
 C186 C 0.85489 1.14679 1.25082
 C187 C 0.83395 1.13768 1.23814
 H188 H 0.87831 1.17931 1.24008
 H189 H 0.82254 1.12177 1.24348
 Cu190 Cu 0.84711 1.19483 1.18959
 Cu191 Cu 0.80329 1.14942 1.19191
 Cu192 Cu 0.80384 1.19390 1.14355
 N193 N 0.84713 1.21967 1.16245
 N194 N 0.83009 1.21913 1.14447
 C195 C 0.83405 1.23829 1.12827
 C196 C 0.85475 1.25170 1.13647
 C197 C 0.86255 1.23925 1.15829
 H198 H 0.82252 1.24218 1.11185
 H199 H 0.87821 1.24409 1.17030
 N200 N 0.77874 1.16701 1.14574
 N201 N 0.77830 1.15005 1.16406
 C202 C 0.75872 1.13453 1.16009
 C203 C 0.74623 1.14216 1.13824
 C204 C 0.75959 1.16278 1.12973
 H205 H 0.75380 1.11898 1.17233
 H206 H 0.75578 1.17388 1.11298
 H207 H 0.82351 1.16581 1.16327
 H208 H 0.80249 1.18714 1.18215
 N209 N 0.47009 0.95389 0.96858
 N210 N 0.44986 0.94004 0.96533
 N211 N 0.52452 0.96621 0.95118
 N212 N 0.54417 0.96171 0.93647
 N213 N 0.52292 0.94867 0.96868
 N214 N 0.54135 0.93178 0.96635
 N215 N 0.47149 0.97137 0.95100
 N216 N 0.45219 0.96989 0.93530
 C217 C 0.43885 0.95024 0.94450
 C218 C 0.55441 0.94007 0.94612
 N219 N 0.53032 1.03797 0.96852
 N220 N 0.55046 1.05196 0.96506
 N221 N 0.47589 1.02568 0.95093
 N222 N 0.45662 1.03045 0.93573
 N223 N 0.47731 1.04308 0.96846
 N224 N 0.45904 1.06015 0.96565
 N225 N 0.52889 1.02055 0.95100
 N226 N 0.54799 1.02226 0.93514
 Mn227 Mn 0.50020 0.99595 0.95069
 C228 C 0.56134 1.04193 0.94416
 C229 C 0.44631 1.05208 0.94509
 N230 N 0.52303 0.94847 1.02288
 N231 N 0.54138 0.93148 1.02564
 N232 N 0.47160 0.97110 1.04032
 N233 N 0.45248 0.96953 1.05614
 N234 N 0.47010 0.95368 1.02284
 N235 N 0.44994 0.93975 1.02629
 N236 N 0.52452 0.96596 1.04030
 N237 N 0.54391 0.96138 1.05536
 Mn238 Mn 0.49649 0.95089 0.99574
 C239 C 0.55421 0.93975 1.04604
 C240 C 0.43909 0.94989 1.04714
 N241 N 0.47723 1.04283 1.02285
 N242 N 0.45875 1.05967 1.02568
 N243 N 0.52889 1.02011 1.04036
 N244 N 0.54787 1.02169 1.05639
 N245 N 0.53029 1.03777 1.02296
 N246 N 0.55027 1.05190 1.02673
 N247 N 0.47599 1.02521 1.04031
 N248 N 0.45671 1.02955 1.05546
 Mn249 Mn 0.50382 1.04074 0.99569
 Mn250 Mn 0.50026 0.99560 1.04060
 Cl251 Cl 0.50020 0.99582 0.99566
 C252 C 0.44615 1.05115 1.04619
 C253 C 0.56110 1.04159 1.04764
 N254 N 0.03042 0.47463 0.05036
 N255 N 0.03295 0.45555 0.06630
 N256 N 0.04722 0.52714 0.03162
 N257 N 0.06223 0.54660 0.03424
 N258 N 0.02916 0.52785 0.04853
 N259 N 0.03148 0.54782 0.06323
 N260 N 0.04829 0.47384 0.03324
 N261 N 0.06352 0.45414 0.03715
 C262 C 0.05371 0.44295 0.05793
 C263 C 0.05225 0.55934 0.05405
 N264 N 0.03158 0.52596 -0.04034
 N265 N 0.03460 0.54528 -0.05588
 N266 N 0.04984 0.47283 -0.02121
 N267 N 0.06576 0.45351 -0.02336
 N268 N 0.03305 0.47267 -0.03944
 N269 N 0.03706 0.45317 -0.05446
 N270 N 0.04872 0.52608 -0.02244
 N271 N 0.06379 0.54552 -0.02524
 Mn272 Mn 0.04883 0.49990 0.00532
 C273 C 0.05481 0.55733 -0.04621
 C274 C 0.05757 0.44140 -0.04422
 N275 N -0.02534 0.52701 0.04696
 N276 N -0.02970 0.54660 0.06177
 N277 N -0.04042 0.47271 0.03059
 N278 N -0.05503 0.45295 0.03372
 N279 N -0.02362 0.47384 0.04875
 N280 N -0.02628 0.45485 0.06470
 N281 N -0.04250 0.52592 0.02913
 N282 N -0.05896 0.54481 0.03127
 Mn283 Mn 0.00265 0.50092 0.04895
 C284 C -0.05075 0.55755 0.05174
 C285 C -0.04598 0.44200 0.05511
 N286 N -0.02115 0.47191 -0.04103
 N287 N -0.02334 0.45270 -0.05665
 N288 N -0.04101 0.52469 -0.02490
 N289 N -0.05698 0.54379 -0.02816
 N290 N -0.02299 0.52523 -0.04185
 N291 N -0.02631 0.54478 -0.05721
 N292 N -0.03897 0.47149 -0.02387
 N293 N -0.05384 0.45200 -0.02742
 Mn294 Mn 0.00513 0.49901 -0.04100
 Mn295 Mn -0.04103 0.49862 0.00273
 Cl296 Cl 0.00390 0.49961 0.00399
 C297 C -0.04382 0.44040 -0.04795
 C298 C -0.04767 0.55614 -0.04841
 N299 N 0.95041 0.02744 0.52804
 N300 N 0.93518 0.02970 0.54759
 N301 N 0.96580 0.04658 0.47484
 N302 N 0.96188 0.06189 0.45539
 N303 N 0.94907 0.02851 0.47505
 N304 N 0.93337 0.03102 0.45586
 N305 N 0.96723 0.04542 0.52810
 N306 N 0.96385 0.06041 0.54774
 C307 C 0.94374 0.05036 0.55975
 C308 C 0.94149 0.05196 0.44377
 N309 N 1.03839 0.03053 0.47278
 N310 N 1.05323 0.03438 0.45321
 N311 N 1.02179 0.04656 0.52672
 N312 N 1.02510 0.06160 0.54627
 N313 N 1.03990 0.02931 0.52573
 N314 N 1.05595 0.03213 0.54447
 N315 N 1.02026 0.04777 0.47357
 N316 N 1.02229 0.06378 0.45451
 Mn317 Mn 0.99376 0.04695 0.50083
 C318 C 1.04297 0.05521 0.44197
 C319 C 1.04655 0.05234 0.55714
 N320 N 0.95117 -0.02596 0.47392
 N321 N 0.93556 -0.02921 0.45476
 N322 N 0.97080 -0.04405 0.52629
 N323 N 0.96922 -0.05982 0.54552
 N324 N 0.95256 -0.02699 0.52706
 N325 N 0.93804 -0.03067 0.54691
 N326 N 0.96948 -0.04297 0.47342
 N327 N 0.96691 -0.05819 0.45402
 Mn328 Mn 0.95048 0.00076 0.50102
 C329 C 0.94568 -0.04946 0.44253
 C330 C 0.94867 -0.05129 0.55820
 N331 N 1.04189 -0.02519 0.52504
 N332 N 1.05754 -0.02840 0.54429
 N333 N 1.02348 -0.04184 0.47210
 N334 N 1.02653 -0.05716 0.45276
 N335 N 1.04045 -0.02404 0.47180
 N336 N 1.05558 -0.02680 0.45218
 N337 N 1.02485 -0.04293 0.52498
 N338 N 1.02839 -0.05864 0.54405
 Mn339 Mn 1.04049 0.00268 0.49881
 Mn340 Mn 0.99716 -0.04318 0.49920
 Cl341 Cl 0.99548 0.00185 0.49997
 C342 C 1.04886 -0.04945 0.55594
 C343 C 1.04662 -0.04759 0.44047
 C344 C 1.14614 0.10658 0.28870
 C345 C 1.13543 0.09580 0.31017
 C346 C 1.11296 0.10558 0.32015
 C347 C 1.10114 0.12645 0.30835
 C348 C 1.11179 0.13732 0.28678
 C349 C 1.13452 0.12756 0.27654
 N350 N 1.10272 0.09390 0.34224
 N351 N 1.08252 0.10175 0.35282
 C352 C 1.07277 0.08970 0.37497
 C353 C 1.05082 0.09950 0.38619
 C354 C 1.04104 0.08830 0.40798
 C355 C 1.05311 0.06702 0.41886
 C356 C 1.07505 0.05711 0.40748
 C357 C 1.08482 0.06835 0.38575
 H358 H 1.16354 0.09821 0.28184
 H359 H 1.14472 0.07971 0.31912
 H360 H 1.08370 0.13436 0.31574
 H361 H 1.10205 0.15336 0.27832
 H362 H 1.04133 0.11592 0.37808
 H363 H 1.02406 0.09630 0.41630
 H364 H 1.08473 0.04071 0.41541
 H365 H 1.10180 0.06035 0.37744
 C366 C 0.84736 -0.10521 0.28642
 C367 C 0.85555 -0.09380 0.30866
 C368 C 0.87833 -0.10141 0.31989
 C369 C 0.89281 -0.12088 0.30875
 C370 C 0.88467 -0.13231 0.28654
 C371 C 0.86191 -0.12452 0.27499
 N372 N 0.88655 -0.08901 0.34236
 N373 N 0.90721 -0.09527 0.35312
 C374 C 0.91619 -0.08325 0.37544
 C375 C 0.93885 -0.09204 0.38605
 C376 C 0.94836 -0.08096 0.40782
 C377 C 0.93533 -0.06076 0.41938
 C378 C 0.91260 -0.05178 0.40867
 C379 C 0.90303 -0.06298 0.38682
 H380 H 0.82962 -0.09884 0.27830
 H381 H 0.84417 -0.07889 0.31710
 H382 H 0.91051 -0.12715 0.31708
 H383 H 0.89646 -0.14699 0.27833
 H384 H 0.94915 -0.10759 0.37739
 H385 H 0.96597 -0.08823 0.41557
 H386 H 0.90223 -0.03620 0.41719
 H387 H 0.88548 -0.05583 0.37886
 C388 C 0.89172 0.14936 0.71733
 C389 C 0.90334 0.13939 0.69580
 C390 C 0.89356 0.11814 0.68387
 C391 C 0.87192 0.10680 0.69385
 C392 C 0.86024 0.11675 0.71540
 C393 C 0.86993 0.13824 0.72741
 N394 N 0.90582 0.10866 0.66164
 N395 N 0.89804 0.08929 0.64994
 C396 C 0.91009 0.07985 0.62759
 C397 C 0.90041 0.05833 0.61602
 C398 C 0.91143 0.04872 0.59404
 C399 C 0.93240 0.06053 0.58319
 C400 C 0.94222 0.08208 0.59489
 C401 C 0.93117 0.09169 0.61692
 H402 H 0.89994 0.16580 0.72595
 H403 H 0.92001 0.14832 0.68834
 H404 H 0.86395 0.09033 0.68496
 H405 H 0.84353 0.10763 0.72244
 H406 H 0.88421 0.04903 0.62403
 H407 H 0.90346 0.03206 0.58551
 H408 H 0.95839 0.09154 0.58698
 H409 H 0.93902 0.10835 0.62553
 C410 C 1.14863 -0.10516 0.71296
 C411 C 1.13951 -0.09307 0.69118
 C412 C 1.11768 -0.10155 0.67927
 C413 C 1.10498 -0.12239 0.68943
 C414 C 1.11405 -0.13449 0.71119
 C415 C 1.13601 -0.12604 0.72328
 N416 N 1.10877 -0.08878 0.65698
 N417 N 1.08911 -0.09597 0.64540
 C418 C 1.07964 -0.08372 0.62310
 C419 C 1.05810 -0.09340 0.61167
 C420 C 1.04819 -0.08220 0.58987
 C421 C 1.05970 -0.06097 0.57906
 C422 C 1.08133 -0.05113 0.59058
 C423 C 1.09128 -0.06245 0.61247
 H424 H 1.16562 -0.09807 0.72153
 H425 H 1.14950 -0.07706 0.68355
 H426 H 1.08803 -0.12933 0.68059
 H427 H 1.10370 -0.15038 0.71848
 H428 H 1.04896 -0.10975 0.61970
 H429 H 1.03147 -0.09018 0.58149
 H430 H 1.09053 -0.03478 0.58266
 H431 H 1.10798 -0.05463 0.62104
 C432 C 0.29045 1.10229 1.14816
 C433 C 0.31204 1.09097 1.13771
 C434 C 0.32378 1.10174 1.11676
 C435 C 0.31365 1.12410 1.10625
 C436 C 0.29209 1.13549 1.11663
 C437 C 0.28006 1.12480 1.13781
 N438 N 0.34591 1.08967 1.10659
 N439 N 0.35748 1.09847 1.08753
 C440 C 0.37964 1.08637 1.07745
 C441 C 0.39137 1.09698 1.05636
 C442 C 0.41306 1.08561 1.04611
 C443 C 0.42332 1.06339 1.05690
 C444 C 0.41150 1.05277 1.07806
 C445 C 0.38985 1.06414 1.08827
 H446 H 0.28210 1.09322 1.16436
 H447 H 0.31968 1.07370 1.14599
 H448 H 0.32239 1.13281 1.09002
 H449 H 0.28507 1.15269 1.10783
 H450 H 0.38368 1.11410 1.04784
 H451 H 0.42175 1.09417 1.02976
 H452 H 0.41896 1.03563 1.08675
 H453 H 0.38114 1.05555 1.10458
 C454 C 0.28187 0.85296 0.89454
 C455 C 0.30342 0.86286 0.90583
 C456 C 0.31487 0.88427 0.89578
 C457 C 0.30447 0.89587 0.87422
 C458 C 0.28292 0.88607 0.86288
 C459 C 0.27122 0.86438 0.87280
 N460 N 0.33707 0.89373 0.90769
 N461 N 0.34856 0.91300 0.89935
 C462 C 0.37088 0.92228 0.91120
 C463 C 0.38287 0.94325 0.90071
 C464 C 0.40494 0.95249 0.91157
 C465 C 0.41533 0.94084 0.93317
 C466 C 0.40314 0.91994 0.94380
 C467 C 0.38111 0.91070 0.93291
 H468 H 0.27376 0.83635 0.90304
 H469 H 0.31128 0.85374 0.92248
 H470 H 0.31300 0.91248 0.86607
 H471 H 0.27569 0.89568 0.84629
 H472 H 0.37515 0.95234 0.88399
 H473 H 0.41391 0.96867 0.90302
 H474 H 0.41069 0.91062 0.96048
 H475 H 0.37217 0.89449 0.94140
 C476 C 0.71534 0.89290 1.14061
 C477 C 0.69284 0.90309 1.13099
 C478 C 0.67943 0.89033 1.11244
 C479 C 0.68863 0.86693 1.10365
 C480 C 0.71113 0.85657 1.11331
 C481 C 0.72498 0.86946 1.13190
 N482 N 0.65669 0.90175 1.10283
 N483 N 0.64385 0.89199 1.08518
 C484 C 0.62124 0.90398 1.07586
 C485 C 0.60839 0.89307 1.05566
 C486 C 0.58650 0.90461 1.04594
 C487 C 0.57711 0.92726 1.05640
 C488 C 0.58995 0.93811 1.07676
 C489 C 0.61184 0.92661 1.08640
 H490 H 0.72495 0.90365 1.15488
 H491 H 0.68588 0.92114 1.13793
 H492 H 0.67848 0.85668 1.08931
 H493 H 0.71757 0.83855 1.10595
 H494 H 0.61546 0.87566 1.04737
 H495 H 0.57698 0.89587 1.03021
 H496 H 0.58317 0.95558 1.08516
 H497 H 0.62142 0.93544 1.10203
 C498 C 0.71911 1.13859 0.89640
 C499 C 0.69785 1.12776 0.90726
 C500 C 0.68528 1.10824 0.89515
 C501 C 0.69433 1.09945 0.87184
 C502 C 0.71565 1.11030 0.86082
 C503 C 0.72839 1.13018 0.87287
 N504 N 0.66330 1.09805 0.90691
 N505 N 0.65083 1.07995 0.89755
 C506 C 0.62872 1.07042 0.90971
 C507 C 0.61602 1.05012 0.89891
 C508 C 0.59420 1.04068 0.91017
 C509 C 0.58467 1.05152 0.93246
 C510 C 0.59752 1.07180 0.94336
 C511 C 0.61935 1.08117 0.93212
 H512 H 0.72799 1.15367 0.90665
 H513 H 0.69105 1.13470 0.92525
 H514 H 0.68488 1.08433 0.86209
 H515 H 0.72191 1.10303 0.84282
 H516 H 0.62302 1.04164 0.88167
 H517 H 0.58472 1.02501 0.90136
 H518 H 0.59066 1.08050 0.96054
 H519 H 0.62878 1.09689 0.94089
 C520 C 0.14953 0.28184 0.10992
 C521 C 0.14001 0.30387 0.09853
 C522 C 0.11937 0.31684 0.10895
 C523 C 0.10818 0.30743 0.13103
 C524 C 0.11770 0.28534 0.14250
 C525 C 0.13857 0.27228 0.13212
 N526 N 0.11028 0.33946 0.09675
 N527 N 0.09142 0.35212 0.10497
 C528 C 0.08244 0.37478 0.09277
 C529 C 0.06132 0.38741 0.10270
 C530 C 0.05203 0.40957 0.09135
 C531 C 0.06379 0.41954 0.06982
 C532 C 0.08501 0.40686 0.05983
 C533 C 0.09428 0.38463 0.07120
 H534 H 0.16541 0.27231 0.10111
 H535 H 0.14875 0.31089 0.08149
 H536 H 0.09218 0.31715 0.13946
 H537 H 0.10881 0.27869 0.15957
 H538 H 0.05204 0.38002 0.11929
 H539 H 0.03561 0.41890 0.09946
 H540 H 0.09440 0.41409 0.04322
 H541 H 0.11066 0.37519 0.06317
 C542 C -0.14437 0.28635 -0.10175
 C543 C -0.13408 0.30743 -0.08996
 C544 C -0.11270 0.31897 -0.09988
 C545 C -0.10159 0.30911 -0.12188
 C546 C -0.11188 0.28801 -0.13373
 C547 C -0.13343 0.27635 -0.12382
 N548 N -0.10284 0.34068 -0.08736
 N549 N -0.08335 0.35205 -0.09521
 C550 C -0.07364 0.37389 -0.08277
 C551 C -0.05214 0.38538 -0.09255
 C552 C -0.04237 0.40691 -0.08114
 C553 C -0.05401 0.41737 -0.05969
 C554 C -0.07550 0.40572 -0.04975
 C555 C -0.08527 0.38415 -0.06119
 H556 H -0.16106 0.27814 -0.09359
 H557 H -0.14286 0.31487 -0.07306
 H558 H -0.08501 0.31770 -0.12993
 H559 H -0.10280 0.28085 -0.15056
 H560 H -0.04300 0.37765 -0.10914
 H561 H -0.02575 0.41544 -0.08919
 H562 H -0.08483 0.41334 -0.03321
 H563 H -0.10191 0.37560 -0.05325
 C564 C 0.10582 0.71264 -0.14928
 C565 C 0.09447 0.69098 -0.13950
 C566 C 0.10283 0.68034 -0.11671
 C567 C 0.12272 0.69174 -0.10366
 C568 C 0.13407 0.71338 -0.11337
 C569 C 0.12583 0.72413 -0.13636
 N570 N 0.09099 0.65800 -0.10728
 N571 N 0.09823 0.64730 -0.08690
 C572 C 0.08680 0.62492 -0.07713
 C573 C 0.09643 0.61422 -0.05487
 C574 C 0.08600 0.59226 -0.04482
 C575 C 0.06565 0.58062 -0.05691
 C576 C 0.05587 0.59145 -0.07922
 C577 C 0.06638 0.61343 -0.08929
 H578 H 0.09892 0.72019 -0.16702
 H579 H 0.07916 0.68239 -0.14977
 H580 H 0.12952 0.68394 -0.08596
 H581 H 0.14925 0.72161 -0.10270
 H582 H 0.11214 0.62290 -0.04532
 H583 H 0.09389 0.58441 -0.02757
 H584 H 0.04017 0.58290 -0.08890
 H585 H 0.05859 0.62138 -0.10653
 C586 C -0.10682 0.71405 0.15027
 C587 C -0.09533 0.69203 0.14092
 C588 C -0.10441 0.68071 0.11899
 C589 C -0.12530 0.69163 0.10647
 C590 C -0.13682 0.71366 0.11579
 C591 C -0.12768 0.72521 0.13778
 N592 N -0.09202 0.65828 0.10983
 N593 N -0.09936 0.64697 0.09005
 C594 C -0.08689 0.62460 0.08086
 C595 C -0.09622 0.61300 0.05916
 C596 C -0.08449 0.59116 0.04966
 C597 C -0.06316 0.58061 0.06178
 C598 C -0.05378 0.59230 0.08354
 C599 C -0.06555 0.61412 0.09303
 H600 H -0.09932 0.72218 0.16735
 H601 H -0.07927 0.68375 0.15077
 H602 H -0.13266 0.68324 0.08943
 H603 H -0.15269 0.72170 0.10552
 H604 H -0.11263 0.62091 0.04960
 H605 H -0.09210 0.58257 0.03283
 H606 H -0.03736 0.58458 0.09324
 H607 H -0.05797 0.62276 0.10983
 C608 C 1.10040 0.14704 0.71593
 C609 C 1.08839 0.13841 0.69418
 C610 C 1.09837 0.11780 0.68085
 C611 C 1.12067 0.10587 0.68952
 C612 C 1.13272 0.11448 0.71125
 C613 C 1.12272 0.13515 0.72478
 N614 N 1.08557 0.10929 0.65870
 N615 N 1.09386 0.09057 0.64598
 C616 C 1.08149 0.08159 0.62382
 C617 C 1.09213 0.06088 0.61119
 C618 C 1.08072 0.05143 0.58953
 C619 C 1.05837 0.06261 0.58009
 C620 C 1.04763 0.08345 0.59277
 C621 C 1.05911 0.09290 0.61452
 H622 H 1.09217 0.16310 0.72564
 H623 H 1.07124 0.14779 0.68770
 H624 H 1.12878 0.08986 0.67956
 H625 H 1.14972 0.10471 0.71748
 H626 H 1.10936 0.05202 0.61819
 H627 H 1.08943 0.03535 0.58018
 H628 H 1.03040 0.09239 0.58591
 H629 H 1.05053 0.10895 0.62402
 C630 C 0.85578 -0.10265 0.71817
 C631 C 0.86447 -0.09133 0.69605
 C632 C 0.88561 -0.10125 0.68360
 C633 C 0.89805 -0.12279 0.69346
 C634 C 0.88938 -0.13416 0.71555
 C635 C 0.86816 -0.12419 0.72821
 N636 N 0.89406 -0.08916 0.66103
 N637 N 0.91335 -0.09715 0.64904
 C638 C 0.92186 -0.08521 0.62643
 C639 C 0.94325 -0.09509 0.61433
 C640 C 0.95200 -0.08403 0.59213
 C641 C 0.93939 -0.06285 0.58168
 C642 C 0.91796 -0.05287 0.59389
 C643 C 0.90923 -0.06397 0.61612
 H644 H 0.83926 -0.09454 0.72721
 H645 H 0.85471 -0.07476 0.68858
 H646 H 0.91448 -0.13082 0.68415
 H647 H 0.89953 -0.15058 0.72274
 H648 H 0.95314 -0.11143 0.62214
 H649 H 0.96862 -0.09206 0.58314
 H650 H 0.90794 -0.03653 0.58626
 H651 H 0.89264 -0.05599 0.62518
 C652 C 1.14788 -0.10103 0.28481
 C653 C 1.13823 -0.08908 0.30630
 C654 C 1.11643 -0.09799 0.31794
 C655 C 1.10430 -0.11911 0.30782
 C656 C 1.11390 -0.13107 0.28637
 C657 C 1.13583 -0.12220 0.27453
 N658 N 1.10700 -0.08543 0.33997
 N659 N 1.08726 -0.09291 0.35122
 C660 C 1.07744 -0.08086 0.37332
 C661 C 1.05587 -0.09076 0.38454
 C662 C 1.04583 -0.07984 0.40631
 C663 C 1.05725 -0.05870 0.41723
 C664 C 1.07882 -0.04859 0.40585
 C665 C 1.08889 -0.05961 0.38403
 H666 H 1.16478 -0.09357 0.27637
 H667 H 1.14777 -0.07283 0.31393
 H668 H 1.08740 -0.12641 0.31648
 H669 H 1.10400 -0.14724 0.27917
 H670 H 1.04689 -0.10710 0.37643
 H671 H 1.02915 -0.08800 0.41462
 H672 H 1.08795 -0.03230 0.41387
 H673 H 1.10559 -0.05161 0.37562
 C674 C 0.88684 0.14996 0.28577
 C675 C 0.89816 0.14078 0.30787
 C676 C 0.88971 0.11858 0.31921
 C677 C 0.86961 0.10555 0.30816
 C678 C 0.85825 0.11469 0.28600
 C679 C 0.86674 0.13702 0.27447
 N680 N 0.90186 0.10974 0.34183
 N681 N 0.89496 0.08980 0.35326
 C682 C 0.90704 0.08084 0.37586
 C683 C 0.89798 0.05901 0.38747
 C684 C 0.90919 0.04969 0.40955
 C685 C 0.92977 0.06209 0.42043
 C686 C 0.93896 0.08400 0.40874
 C687 C 0.92767 0.09335 0.38661
 H688 H 0.89392 0.16725 0.27770
 H689 H 0.91360 0.15102 0.31622
 H690 H 0.86272 0.08830 0.31658
 H691 H 0.84292 0.10413 0.27795
 H692 H 0.88214 0.04920 0.37935
 H693 H 0.90174 0.03272 0.41808
 H694 H 0.95483 0.09389 0.41669
 H695 H 0.93505 0.11027 0.37795
 C696 C 0.11101 0.28618 -0.14554
 C697 C 0.10059 0.30863 -0.13608
 C698 C 0.10961 0.31890 -0.11363
 C699 C 0.12958 0.30662 -0.10081
 C700 C 0.14007 0.28412 -0.11026
 C701 C 0.13075 0.27349 -0.13263
 N702 N 0.09784 0.34149 -0.10413
 N703 N 0.10476 0.35175 -0.08364
 C704 C 0.09263 0.37416 -0.07413
 C705 C 0.10164 0.38488 -0.05186
 C706 C 0.09022 0.40674 -0.04207
 C707 C 0.06951 0.41819 -0.05446
 C708 C 0.06035 0.40732 -0.07673
 C709 C 0.07183 0.38549 -0.08653
 H710 H 0.10348 0.27888 -0.16296
 H711 H 0.08528 0.31799 -0.14619
 H712 H 0.13693 0.31426 -0.08342
 H713 H 0.15518 0.27493 -0.09978
 H714 H 0.11759 0.37627 -0.04209
 H715 H 0.09760 0.41466 -0.02481
 H716 H 0.04437 0.41571 -0.08662
 H717 H 0.06444 0.37750 -0.10374
 C718 C -0.14406 0.28444 0.10198
 C719 C -0.13380 0.30602 0.09101
 C720 C -0.11351 0.31811 0.10239
 C721 C -0.10342 0.30832 0.12498
 C722 C -0.11366 0.28673 0.13601
 C723 C -0.13416 0.27452 0.12468
 N724 N -0.10367 0.34032 0.09071
 N725 N -0.08517 0.35223 0.09999
 C726 C -0.07555 0.37453 0.08830
 C727 C -0.05509 0.38664 0.09942
 C728 C -0.04540 0.40859 0.08861
 C729 C -0.05612 0.41876 0.06645
 C730 C -0.07660 0.40653 0.05524
 C731 C -0.08626 0.38458 0.06607
 H732 H -0.15974 0.27568 0.09255
 H733 H -0.14172 0.31341 0.07357
 H734 H -0.08770 0.31737 0.13415
 H735 H -0.10548 0.27979 0.15345
 H736 H -0.04668 0.37907 0.11654
 H737 H -0.02955 0.41760 0.09761
 H738 H -0.08519 0.41393 0.03813
 H739 H -0.10210 0.37554 0.05711
 C740 C -0.10331 0.71309 -0.14854
 C741 C -0.09121 0.69148 -0.13885
 C742 C -0.10059 0.67942 -0.11743
 C743 C -0.12244 0.68920 -0.10573
 C744 C -0.13460 0.71083 -0.11540
 C745 C -0.12514 0.72311 -0.13689
 N746 N -0.08768 0.65731 -0.10800
 N747 N -0.09529 0.64559 -0.08851
 C748 C -0.08270 0.62342 -0.07887
 C749 C -0.09262 0.61165 -0.05752
 C750 C -0.08113 0.58982 -0.04765
 C751 C -0.05943 0.57937 -0.05902
 C752 C -0.04932 0.59128 -0.08040
 C753 C -0.06089 0.61317 -0.09030
 H754 H -0.09553 0.72177 -0.16525
 H755 H -0.07443 0.68409 -0.14808
 H756 H -0.13008 0.68019 -0.08910
 H757 H -0.15123 0.71801 -0.10583
 H758 H -0.10937 0.61940 -0.04855
 H759 H -0.08930 0.58113 -0.03110
 H760 H -0.03257 0.58364 -0.08948
 H761 H -0.05287 0.62201 -0.10683
 C762 C 0.10462 0.71677 0.15197
 C763 C 0.09283 0.69506 0.14304
 C764 C 0.10076 0.68376 0.12055
 C765 C 0.12066 0.69452 0.10693
 C766 C 0.13244 0.71620 0.11579
 C767 C 0.12463 0.72762 0.13846
 N768 N 0.08854 0.66137 0.11197
 N769 N 0.09562 0.65011 0.09196
 C770 C 0.08402 0.62764 0.08286
 C771 C 0.09387 0.61623 0.06120
 C772 C 0.08345 0.59408 0.05185
 C773 C 0.06284 0.58296 0.06403
 C774 C 0.05275 0.59454 0.08568
 C775 C 0.06330 0.61673 0.09510
 H776 H 0.09809 0.72485 0.16953
 H777 H 0.07754 0.68695 0.15374
 H778 H 0.12714 0.68619 0.08943
 H779 H 0.14759 0.72396 0.10470
 H780 H 0.10980 0.62449 0.05161
 H781 H 0.09158 0.58565 0.03507
 H782 H 0.03684 0.58637 0.09540
 H783 H 0.05534 0.62528 0.11188
 C784 C 0.28796 1.10707 0.84802
 C785 C 0.31026 1.09585 0.85713
 C786 C 0.32244 1.10571 0.87824
 C787 C 0.31208 1.12716 0.89018
 C788 C 0.28976 1.13843 0.88109
 C789 C 0.27734 1.12849 0.85992
 N790 N 0.34507 1.09345 0.88723
 N791 N 0.35713 1.10136 0.90635
 C792 C 0.37963 1.08892 0.91543
 C793 C 0.39181 1.09863 0.93663
 C794 C 0.41359 1.08675 0.94621
 C795 C 0.42354 1.06488 0.93468
 C796 C 0.41136 1.05520 0.91331
 C797 C 0.38959 1.06711 0.90373
 H798 H 0.27903 1.09870 0.83179
 H799 H 0.31803 1.07929 0.84779
 H800 H 0.32116 1.13516 0.90655
 H801 H 0.28235 1.15494 0.89072
 H802 H 0.38433 1.11540 0.94582
 H803 H 0.42255 1.09462 0.96273
 H804 H 0.41861 1.03838 0.90403
 H805 H 0.38052 1.05923 0.88729
 C806 C 0.28328 0.85322 1.10270
 C807 C 0.30458 0.86268 1.09058
 C808 C 0.31639 0.88428 1.09966
 C809 C 0.30663 0.89644 1.12112
 C810 C 0.28535 0.88703 1.13327
 C811 C 0.27337 0.86527 1.12425
 N812 N 0.33828 0.89340 1.08692
 N813 N 0.34988 0.91288 1.09441
 C814 C 0.37188 0.92204 1.08193
 C815 C 0.38389 0.94326 1.09169
 C816 C 0.40568 0.95244 1.08029
 C817 C 0.41578 0.94049 1.05885
 C818 C 0.40357 0.91934 1.04890
 C819 C 0.38178 0.91014 1.06036
 H820 H 0.27472 0.83646 1.09511
 H821 H 0.31194 0.85313 1.07406
 H822 H 0.31544 0.91319 1.12854
 H823 H 0.27844 0.89693 1.14973
 H824 H 0.37640 0.95260 1.10828
 H825 H 0.41466 0.96882 1.08831
 H826 H 0.41092 0.90979 1.03237
 H827 H 0.37279 0.89373 1.05243
 C828 C 0.71107 1.14387 1.10644
 C829 C 0.68998 1.13347 1.09488
 C830 C 0.68078 1.11017 1.10288
 C831 C 0.69295 1.09725 1.12282
 C832 C 0.71416 1.10763 1.13444
 C833 C 0.72354 1.13107 1.12632
 N834 N 0.65914 1.10024 1.09037
 N835 N 0.64909 1.07948 1.09676
 C836 C 0.62739 1.07005 1.08388
 C837 C 0.61626 1.04783 1.09258
 C838 C 0.59478 1.03846 1.08072
 C839 C 0.58414 1.05117 1.05981
 C840 C 0.59550 1.07329 1.05088
 C841 C 0.61691 1.08270 1.06283
 H842 H 0.71738 1.16204 1.09974
 H843 H 0.68070 1.14364 1.07960
 H844 H 0.68615 1.07916 1.12933
 H845 H 0.72326 1.09716 1.14958
 H846 H 0.62417 1.03788 1.10873
 H847 H 0.58646 1.02132 1.08795
 H848 H 0.58772 1.08345 1.03480
 H849 H 0.62520 1.09988 1.05567
 C850 C 0.71912 0.89223 0.85894
 C851 C 0.69638 0.90273 0.86746
 C852 C 0.68236 0.89044 0.88596
 C853 C 0.69132 0.86730 0.89594
 C854 C 0.71410 0.85668 0.88738
 C855 C 0.72831 0.86909 0.86881
 N856 N 0.65922 0.90199 0.89421
 N857 N 0.64559 0.89240 0.91139
 C858 C 0.62255 0.90438 0.91941
 C859 C 0.60897 0.89358 0.93920
 C860 C 0.58669 0.90510 0.94779
 C861 C 0.57760 0.92762 0.93659
 C862 C 0.59111 0.93833 0.91656
 C863 C 0.61344 0.92683 0.90803
 H864 H 0.72925 0.90225 0.84442
 H865 H 0.68963 0.92054 0.85960
 H866 H 0.68076 0.85746 0.91032
 H867 H 0.72065 0.83894 0.89548
 H868 H 0.61580 0.87630 0.94809
 H869 H 0.57666 0.89643 0.96327
 H870 H 0.58455 0.95569 0.90761
 H871 H 0.62358 0.93555 0.89266
   
