data_POSCAR
  _audit_creation_date              2014-09-24
  _audit_creation_method            'ToBaCCo'
  _symmetry_space_group_name_H-M    'P1'
  _symmetry_Int_Tables_number       1
  _symmetry_cell_setting            triclinic
  loop_
  _symmetry_equiv_pos_as_xyz
 x,y,z
_cell_length_a 51.7961
_cell_length_b 51.6839
_cell_length_c 51.0298
_cell_angle_alpha 89.599900
_cell_angle_beta 89.704700
_cell_angle_gamma 89.917000
loop_
  _atom_site_label
  _atom_site_type_symbol
  _atom_site_fract_x
  _atom_site_fract_y
  _atom_site_fract_z
C1 C 0.19070 1.22211 0.18819
 C2 C 0.17965 1.21040 0.21071
 C3 C 0.19028 1.18789 0.22231
 C4 C 0.21271 1.17726 0.21083
 C5 C 0.22410 1.18845 0.18852
 C6 C 0.21314 1.21078 0.17749
 H7 H 0.16127 1.21742 0.21777
 H8 H 0.22186 1.16040 0.21935
 H9 H 0.22304 1.21980 0.16111
 C10 C 0.80868 0.77163 0.19325
 C11 C 0.81902 0.78316 0.21593
 C12 C 0.80785 0.80539 0.22695
 C13 C 0.78584 0.81623 0.21532
 C14 C 0.77505 0.80526 0.19287
 C15 C 0.78641 0.78301 0.18213
 H16 H 0.83685 0.77608 0.22427
 H17 H 0.77728 0.83350 0.22359
 H18 H 0.77697 0.77412 0.16563
 C19 C 0.80673 1.23181 -0.19373
 C20 C 0.78454 1.22020 -0.18271
 C21 C 0.77371 1.19784 -0.19345
 C22 C 0.78501 1.18691 -0.21580
 C23 C 0.80722 1.19777 -0.22757
 C24 C 0.81765 1.22039 -0.21633
 H25 H 0.77474 1.22901 -0.16625
 H26 H 0.77726 1.16881 -0.22277
 H27 H 0.83459 1.22898 -0.22508
 C28 C 0.19408 0.77738 -0.18895
 C29 C 0.21623 0.78838 -0.17800
 C30 C 0.22737 0.81066 -0.18899
 C31 C 0.21620 0.82192 -0.21136
 C32 C 0.19383 0.81137 -0.22291
 C33 C 0.18314 0.78885 -0.21134
 H34 H 0.22505 0.77935 -0.16104
 H35 H 0.22545 0.83876 -0.21984
 H36 H 0.16521 0.78095 -0.21850
 C37 C 0.54235 1.03575 -0.00783
 H38 H 0.54276 1.03541 0.01336
 C39 C 0.56005 1.05087 -0.02178
 H40 H 0.57379 1.06248 -0.01113
 C41 C 0.52392 1.02081 -0.04734
 H42 H 0.51019 1.00861 -0.05722
 C43 C 0.54128 1.03568 -0.06209
 H44 H 0.54070 1.03475 -0.08327
 N45 N 0.52470 1.02119 -0.02070
 C46 C 0.46334 1.00762 0.03653
 H47 H 0.46278 0.98670 0.03652
 C48 C 0.44564 1.02150 0.05164
 H49 H 0.43137 1.01107 0.06312
 C50 C 0.48190 1.04654 0.02047
 H51 H 0.49574 1.05624 0.00794
 C52 C 0.46453 1.06119 0.03526
 H53 H 0.46558 1.08210 0.03433
 Zn54 Zn 0.50293 0.99991 0.00005
 N55 N 0.48106 1.02025 0.02143
 C56 C 0.52381 0.97915 0.04735
 N57 N 0.52475 0.97874 0.02071
 C58 C 0.54259 0.96428 0.00777
 C59 C 0.56035 0.94929 0.02165
 C60 C 0.54123 0.96441 0.06204
 C61 C 0.46365 0.99201 -0.03628
 C62 C 0.44617 0.97806 -0.05136
 C63 C 0.46527 0.93845 -0.03509
 C64 C 0.48241 0.95317 -0.02033
 N65 N 0.48136 0.97946 -0.02126
 H66 H 0.50992 0.99127 0.05729
 H67 H 0.54312 0.96460 -0.01343
 H68 H 0.57427 0.93776 0.01095
 H69 H 0.54053 0.96536 0.08322
 H70 H 0.46291 1.01293 -0.03624
 H71 H 0.43190 0.98843 -0.06279
 H72 H 0.46648 0.91755 -0.03420
 H73 H 0.49624 0.94353 -0.00786
 C74 C 0.44599 1.04867 0.05102
 C75 C 0.55977 1.05086 -0.04930
 C76 C 0.44674 0.95089 -0.05078
 C77 C 0.55993 0.94934 0.04918
 C78 C -0.00766 0.53835 1.03694
 H79 H 0.01322 0.53878 1.03694
 C80 C -0.02158 0.55558 1.05254
 H81 H -0.01121 0.56935 1.06442
 C82 C -0.04642 0.52064 1.02039
 H83 H -0.05604 0.50733 1.00749
 C84 C -0.06110 0.53754 1.03567
 H85 H -0.08196 0.53665 1.03473
 N86 N -0.02019 0.52128 1.02136
 C87 C 0.03533 0.45964 1.00619
 H88 H 0.03533 0.45987 0.98499
 C89 C 0.05000 0.44128 1.01969
 H90 H 0.06158 0.42765 1.00869
 C91 C 0.02004 0.47716 1.04616
 H92 H 0.00789 0.49080 1.05640
 C93 C 0.03443 0.45911 1.06046
 H94 H 0.03318 0.45909 1.08165
 Zn95 Zn 0.00021 0.50002 0.99941
 N96 N 0.02083 0.47717 1.01951
 C97 C 0.04731 0.52084 0.97947
 N98 N 0.02110 0.52228 0.97875
 C99 C 0.00890 0.54076 0.96429
 C100 C 0.02314 0.55859 0.94952
 C101 C 0.06231 0.53832 0.96500
 C102 C -0.03591 0.46124 0.99016
 C103 C -0.05117 0.44447 0.97556
 C104 C -0.03509 0.46486 0.93599
 C105 C -0.02016 0.48128 0.95136
 N106 N -0.02094 0.47928 0.97795
 H107 H 0.05667 0.50638 0.99150
 H108 H -0.01196 0.54177 0.96449
 H109 H 0.01305 0.57340 0.93849
 H110 H 0.08315 0.53676 0.96567
 H111 H -0.03577 0.45975 1.01132
 H112 H -0.06262 0.42998 0.98567
 H113 H -0.03436 0.46684 0.91486
 H114 H -0.00773 0.49536 0.94199
 C115 C 0.04957 0.44076 1.04721
 C116 C -0.04868 0.55541 1.05194
 C117 C -0.05083 0.44610 0.94808
 C118 C 0.05024 0.55756 0.94981
 C119 C 1.03344 -0.00801 0.54083
 H120 H 1.03312 0.01293 0.54067
 C121 C 1.04873 -0.02126 0.55892
 H122 H 1.06049 -0.01035 0.57239
 C123 C 1.01828 -0.04754 0.52345
 H124 H 1.00593 -0.05770 0.51000
 C125 C 1.03330 -0.06160 0.54122
 H126 H 1.03234 -0.08252 0.54123
 N127 N 1.01869 -0.02123 0.52351
 C128 C 1.00414 0.03367 0.46004
 H129 H 0.98325 0.03343 0.45988
 C130 C 1.01763 0.04847 0.44156
 H131 H 1.00694 0.05992 0.42745
 C132 C 1.04333 0.01884 0.47864
 H133 H 1.05329 0.00680 0.49273
 C134 C 1.05761 0.03337 0.46050
 H135 H 1.07848 0.03234 0.46088
 Zn136 Zn 0.99715 -0.00147 0.50120
 N137 N 1.01708 0.01934 0.47816
 C138 C 0.97658 0.04555 0.52140
 N139 N 0.97614 0.01928 0.52306
 C140 C 0.96179 0.00689 0.54165
 C141 C 0.94691 0.02098 0.55942
 C142 C 0.96196 0.06042 0.53879
 C143 C 0.98914 -0.03832 0.46238
 C144 C 0.97518 -0.05376 0.44517
 C145 C 0.93571 -0.03772 0.46461
 C146 C 0.95044 -0.02260 0.48148
 N147 N 0.97667 -0.02323 0.48013
 H148 H 0.98863 0.05507 0.50696
 H149 H 0.96209 -0.01402 0.54276
 H150 H 0.93545 0.01072 0.57392
 H151 H 0.96294 0.08131 0.53749
 H152 H 1.01001 -0.03806 0.46139
 H153 H 0.98549 -0.06524 0.43086
 H154 H 0.91486 -0.03704 0.46605
 H155 H 0.94085 -0.01008 0.49532
 C156 C 1.04474 0.04836 0.44155
 C157 C 1.04869 -0.04844 0.55939
 C158 C 0.94808 -0.05348 0.44606
 C159 C 0.94697 0.04814 0.55822
 C160 C 0.17030 0.27074 1.13734
 C161 C 0.15488 0.28736 1.15216
 C162 C 0.15170 0.28281 1.17899
 C163 C 0.16365 0.26155 1.19095
 C164 C 0.17912 0.24424 1.17626
 C165 C 0.18233 0.24948 1.14916
 C166 C 0.14180 0.30865 1.13962
 C167 C 0.13066 0.32615 1.12876
 C168 C 0.11739 0.34624 1.11563
 C169 C 0.10588 0.36305 1.10408
 C170 C 0.09192 0.38269 1.08987
 C171 C 0.09103 0.40813 1.09906
 C172 C 0.07730 0.42707 1.08520
 C173 C 0.06432 0.42078 1.06193
 C174 C 0.06537 0.39514 1.05289
 C175 C 0.07907 0.37626 1.06677
 H176 H 0.17270 0.27395 1.11646
 H177 H 0.13993 0.29570 1.19071
 H178 H 0.16125 0.25937 1.21191
 H179 H 0.19303 0.23659 1.13652
 H180 H 0.10095 0.41333 1.11690
 H181 H 0.07708 0.44669 1.09251
 H182 H 0.05526 0.38958 1.03529
 H183 H 0.07955 0.35660 1.05953
 C184 C -0.15172 0.71126 1.18486
 C185 C -0.15441 0.70684 1.15805
 C186 C -0.16962 0.72348 1.14296
 C187 C -0.18197 0.74460 1.15452
 C188 C -0.17933 0.74968 1.18161
 C189 C -0.16400 0.73239 1.19655
 C190 C -0.14113 0.68560 1.14579
 C191 C -0.12992 0.66813 1.13508
 C192 C -0.11670 0.64804 1.12206
 C193 C -0.10532 0.63120 1.11054
 C194 C -0.09165 0.61147 1.09631
 C195 C -0.09950 0.60489 1.07102
 C196 C -0.08573 0.58644 1.05672
 C197 C -0.06385 0.57432 1.06753
 C198 C -0.05626 0.58088 1.09308
 C199 C -0.07008 0.59934 1.10736
 H200 H -0.14011 0.69835 1.19679
 H201 H -0.17164 0.72038 1.12209
 H202 H -0.19250 0.75750 1.14166
 H203 H -0.16198 0.73444 1.21751
 H204 H -0.11609 0.61426 1.06223
 H205 H -0.09185 0.58211 1.03698
 H206 H -0.03969 0.57167 1.10205
 H207 H -0.06384 0.60428 1.12692
 C208 C -0.15532 0.29308 0.81479
 C209 C -0.15794 0.29704 0.84171
 C210 C -0.17273 0.27992 0.85679
 C211 C -0.18464 0.25871 0.84512
 C212 C -0.18195 0.25401 0.81793
 C213 C -0.16716 0.27187 0.80298
 C214 C -0.14487 0.31822 0.85409
 C215 C -0.13370 0.33560 0.86483
 C216 C -0.12038 0.35553 0.87780
 C217 C -0.10881 0.37219 0.88923
 C218 C -0.09475 0.39164 0.90327
 C219 C -0.10545 0.40269 0.92582
 C220 C -0.09133 0.42068 0.94019
 C221 C -0.06628 0.42785 0.93220
 C222 C -0.05585 0.41690 0.90929
 C223 C -0.07000 0.39889 0.89496
 H224 H -0.14406 0.30638 0.80287
 H225 H -0.17470 0.28268 0.87774
 H226 H -0.19481 0.24540 0.85793
 H227 H -0.16524 0.27020 0.78196
 H228 H -0.12460 0.39721 0.93243
 H229 H -0.10002 0.42901 0.95754
 H230 H -0.03651 0.42175 0.90282
 H231 H -0.06148 0.39035 0.87761
 C232 C 0.16724 0.73153 0.86279
 C233 C 0.15729 0.71166 0.84735
 C234 C 0.15969 0.71303 0.82004
 C235 C 0.17185 0.73428 0.80820
 C236 C 0.18177 0.75444 0.82356
 C237 C 0.17940 0.75277 0.85100
 C238 C 0.14418 0.69019 0.85959
 C239 C 0.13301 0.67248 0.87013
 C240 C 0.11971 0.65208 0.88281
 C241 C 0.10818 0.63494 0.89390
 C242 C 0.09420 0.61483 0.90747
 C243 C 0.07219 0.60398 0.89619
 C244 C 0.05804 0.58514 0.90980
 C245 C 0.06575 0.57689 0.93492
 C246 C 0.08808 0.58772 0.94596
 C247 C 0.10217 0.60657 0.93232
 H248 H 0.16538 0.73072 0.88394
 H249 H 0.15207 0.69775 0.80790
 H250 H 0.17362 0.73490 0.78705
 H251 H 0.18650 0.76814 0.86334
 H252 H 0.06585 0.61023 0.87695
 H253 H 0.04114 0.57695 0.90064
 H254 H 0.09431 0.58206 0.96539
 H255 H 0.11911 0.61493 0.94129
 C256 C 1.15049 0.17841 0.28336
 C257 C 1.15310 0.15181 0.28755
 C258 C 1.16838 0.13719 0.27056
 C259 C 1.18086 0.14901 0.24930
 C260 C 1.17824 0.17590 0.24442
 C261 C 1.16289 0.19036 0.26211
 C262 C 1.13957 0.13933 0.30884
 C263 C 1.12802 0.12861 0.32637
 C264 C 1.11425 0.11575 0.34651
 C265 C 1.10228 0.10451 0.36340
 C266 C 1.08774 0.09079 0.38318
 C267 C 1.06510 0.07780 0.37633
 C268 C 1.05107 0.06413 0.39533
 C269 C 1.05950 0.06325 0.42149
 C270 C 1.08225 0.07644 0.42821
 C271 C 1.09627 0.09013 0.40915
 H272 H 1.13884 0.18997 0.29654
 H273 H 1.17034 0.11649 0.27349
 H274 H 1.19142 0.13656 0.23610
 H275 H 1.16093 0.21112 0.26023
 H276 H 1.05839 0.07809 0.35626
 H277 H 1.03386 0.05386 0.38944
 H278 H 1.08908 0.07637 0.44823
 H279 H 1.11375 0.10015 0.41467
 C280 C 1.17257 -0.13790 0.72876
 C281 C 1.15730 -0.15242 0.71188
 C282 C 1.15450 -0.17899 0.71615
 C283 C 1.16669 -0.19099 0.73739
 C284 C 1.18203 -0.17662 0.75497
 C285 C 1.18484 -0.14977 0.75001
 C286 C 1.14394 -0.13986 0.69064
 C287 C 1.13252 -0.12903 0.67319
 C288 C 1.11890 -0.11598 0.65318
 C289 C 1.10706 -0.10452 0.63646
 C290 C 1.09266 -0.09046 0.61695
 C291 C 1.09137 -0.09948 0.59119
 C292 C 1.07714 -0.08581 0.57240
 C293 C 1.06404 -0.06291 0.57916
 C294 C 1.06550 -0.05402 0.60512
 C295 C 1.07971 -0.06771 0.62385
 H296 H 1.17466 -0.11722 0.72578
 H297 H 1.14285 -0.19047 0.70306
 H298 H 1.16459 -0.21173 0.73932
 H299 H 1.19538 -0.13736 0.76312
 H300 H 1.10136 -0.11705 0.58563
 H301 H 1.07661 -0.09300 0.55253
 H302 H 1.05531 -0.03671 0.61106
 H303 H 1.08048 -0.06061 0.64376
 C304 C 0.84132 -0.18521 0.29225
 C305 C 0.84381 -0.15826 0.29291
 C306 C 0.83425 -0.14319 0.27224
 C307 C 0.82238 -0.15498 0.25090
 C308 C 0.81990 -0.18207 0.24995
 C309 C 0.82945 -0.19706 0.27090
 C310 C 0.85659 -0.14599 0.31449
 C311 C 0.86746 -0.13535 0.33224
 C312 C 0.88038 -0.12248 0.35264
 C313 C 0.89156 -0.11114 0.36973
 C314 C 0.90511 -0.09719 0.38972
 C315 C 0.92703 -0.10798 0.40146
 C316 C 0.94082 -0.09394 0.42006
 C317 C 0.93286 -0.06888 0.42714
 C318 C 0.91061 -0.05835 0.41545
 C319 C 0.89687 -0.07242 0.39686
 H320 H 0.84865 -0.19706 0.30816
 H321 H 0.83619 -0.12232 0.27249
 H322 H 0.81559 -0.14294 0.23491
 H323 H 0.82760 -0.21793 0.27083
 H324 H 0.93358 -0.12715 0.39608
 H325 H 0.95767 -0.10270 0.42894
 H326 H 0.90419 -0.03899 0.42019
 H327 H 0.88001 -0.06383 0.38779
 C328 C 0.81667 0.15786 0.71191
 C329 C 0.84323 0.16032 0.70779
 C330 C 0.85782 0.17562 0.72458
 C331 C 0.84602 0.18823 0.74562
 C332 C 0.81918 0.18574 0.75045
 C333 C 0.80475 0.17039 0.73294
 C334 C 0.85572 0.14649 0.68686
 C335 C 0.86646 0.13463 0.66970
 C336 C 0.87936 0.12044 0.65006
 C337 C 0.89064 0.10805 0.63366
 C338 C 0.90443 0.09295 0.61456
 C339 C 0.90513 0.10073 0.58823
 C340 C 0.91886 0.08614 0.56984
 C341 C 0.93206 0.06354 0.57757
 C342 C 0.93116 0.05587 0.60408
 C343 C 0.91745 0.07049 0.62241
 H344 H 0.80514 0.14617 0.69888
 H345 H 0.87848 0.17743 0.72173
 H346 H 0.85847 0.19871 0.75873
 H347 H 0.78402 0.16851 0.73480
 H348 H 0.89509 0.11808 0.58194
 H349 H 0.91896 0.09238 0.54954
 H350 H 0.94144 0.03881 0.61074
 H351 H 0.91713 0.06435 0.64276
 C352 C 0.28920 1.15537 0.18043
 C353 C 0.29063 1.15278 0.15317
 C354 C 0.27058 1.16221 0.13750
 C355 C 0.24909 1.17402 0.14899
 C356 C 0.24735 1.17654 0.17638
 C357 C 0.26770 1.16718 0.19198
 C358 C 0.31237 1.14001 0.14122
 C359 C 0.33028 1.12913 0.13086
 C360 C 0.35088 1.11620 0.11833
 C361 C 0.36818 1.10501 0.10728
 C362 C 0.38845 1.09146 0.09367
 C363 C 0.39608 1.09961 0.06860
 C364 C 0.41503 1.08590 0.05487
 C365 C 0.42660 1.06381 0.06604
 C366 C 0.41899 1.05594 0.09139
 C367 C 0.40003 1.06969 0.10509
 H368 H 0.30464 1.14817 0.19274
 H369 H 0.27144 1.16021 0.11639
 H370 H 0.23359 1.18074 0.13650
 H371 H 0.26705 1.16914 0.21309
 H372 H 0.38714 1.11635 0.05951
 H373 H 0.42017 1.09224 0.03526
 H374 H 0.42774 1.03920 0.10064
 H375 H 0.39427 1.06322 0.12449
 C376 C 0.72892 1.17044 -0.14117
 C377 C 0.70906 1.16015 -0.15635
 C378 C 0.71003 1.16257 -0.18368
 C379 C 0.73090 1.17506 -0.19579
 C380 C 0.75108 1.18529 -0.18068
 C381 C 0.74978 1.18293 -0.15322
 C382 C 0.68809 1.14657 -0.14380
 C383 C 0.67091 1.13499 -0.13287
 C384 C 0.65128 1.12119 -0.11957
 C385 C 0.63492 1.10920 -0.10780
 C386 C 0.61592 1.09467 -0.09325
 C387 C 0.59030 1.09363 -0.10178
 C388 C 0.57198 1.07940 -0.08752
 C389 C 0.57908 1.06607 -0.06451
 C390 C 0.60489 1.06724 -0.05615
 C391 C 0.62315 1.08144 -0.07042
 H392 H 0.72843 1.16857 -0.12001
 H393 H 0.69475 1.15467 -0.19562
 H394 H 0.73124 1.17681 -0.21695
 H395 H 0.76518 1.19027 -0.14108
 H396 H 0.58449 1.10384 -0.11941
 H397 H 0.55221 1.07909 -0.09431
 H398 H 0.61107 1.05687 -0.03877
 H399 H 0.64295 1.08203 -0.06370
 C400 C 0.29218 0.84382 -0.18051
 C401 C 0.29322 0.84633 -0.15324
 C402 C 0.27300 0.83681 -0.13767
 C403 C 0.25173 0.82499 -0.14929
 C404 C 0.25038 0.82256 -0.17670
 C405 C 0.27090 0.83201 -0.19219
 C406 C 0.31472 0.85912 -0.14117
 C407 C 0.33243 0.87003 -0.13074
 C408 C 0.35281 0.88300 -0.11814
 C409 C 0.36990 0.89425 -0.10706
 C410 C 0.38994 0.90787 -0.09344
 C411 C 0.39741 0.89972 -0.06839
 C412 C 0.41613 0.91350 -0.05466
 C413 C 0.42761 0.93568 -0.06581
 C414 C 0.42016 0.94355 -0.09113
 C415 C 0.40144 0.92973 -0.10483
 H416 H 0.30775 0.85110 -0.19274
 H417 H 0.27355 0.83875 -0.11655
 H418 H 0.23608 0.81822 -0.13688
 H419 H 0.27056 0.83013 -0.21330
 H420 H 0.38853 0.88291 -0.05933
 H421 H 0.42115 0.90715 -0.03508
 H422 H 0.42886 0.96036 -0.10036
 H423 H 0.39580 0.93620 -0.12422
 C424 C 0.71078 0.83947 0.18318
 C425 C 0.71005 0.84194 0.15586
 C426 C 0.73027 0.83201 0.14066
 C427 C 0.75124 0.81984 0.15269
 C428 C 0.75229 0.81745 0.18015
 C429 C 0.73176 0.82730 0.19527
 C430 C 0.68895 0.85520 0.14334
 C431 C 0.67167 0.86654 0.13243
 C432 C 0.65192 0.88007 0.11918
 C433 C 0.63547 0.89183 0.10744
 C434 C 0.61636 0.90612 0.09292
 C435 C 0.62356 0.91934 0.07002
 C436 C 0.60520 0.93334 0.05580
 C437 C 0.57933 0.93431 0.06430
 C438 C 0.57227 0.92098 0.08739
 C439 C 0.59069 0.90696 0.10159
 H440 H 0.69521 0.84708 0.19514
 H441 H 0.72996 0.83393 0.11951
 H442 H 0.76691 0.81280 0.14054
 H443 H 0.73189 0.82549 0.21642
 H444 H 0.64339 0.91891 0.06319
 H445 H 0.61135 0.94372 0.03836
 H446 H 0.55247 0.92115 0.09429
 H447 H 0.58491 0.89675 0.11928
   
