data_POSCAR
  _audit_creation_date              2014-09-24
  _audit_creation_method            'ToBaCCo'
  _symmetry_space_group_name_H-M    'P1'
  _symmetry_Int_Tables_number       1
  _symmetry_cell_setting            triclinic
  loop_
  _symmetry_equiv_pos_as_xyz
 x,y,z
_cell_length_a 48.1351
_cell_length_b 47.6868
_cell_length_c 47.1845
_cell_angle_alpha 89.882600
_cell_angle_beta 90.399300
_cell_angle_gamma 91.300400
loop_
  _atom_site_label
  _atom_site_type_symbol
  _atom_site_fract_x
  _atom_site_fract_y
  _atom_site_fract_z
C1 C 0.26076 0.51485 1.00235
 C2 C 0.75113 0.51365 -0.00187
 C3 C 0.00260 0.24095 0.50112
 C4 C 0.98236 0.73785 0.49712
 C5 C 0.50590 0.02036 0.25710
 C6 C 0.48187 0.00485 0.74512
 C7 C 0.28398 0.00677 0.45856
 H8 H 0.28482 0.01984 0.47724
 C9 C 0.30485 0.00955 0.43831
 H10 H 0.32138 0.02499 0.44161
 C11 C 0.26293 -0.03093 0.43317
 H12 H 0.24706 -0.04719 0.43152
 C13 C 0.28335 -0.02878 0.41229
 H14 H 0.28243 -0.04305 0.39447
 N15 N 0.26352 -0.01318 0.45573
 C16 C 0.18572 0.00733 0.48940
 H17 H 0.17844 -0.01403 0.49237
 C18 C 0.16638 0.02862 0.48796
 H19 H 0.14445 0.02334 0.48963
 C20 C 0.22287 0.04036 0.48462
 H21 H 0.24488 0.04491 0.48323
 C22 C 0.20419 0.06241 0.48349
 H23 H 0.21202 0.08374 0.48104
 Zn24 Zn 0.23851 -0.01710 0.48658
 N25 N 0.21341 0.01334 0.48711
 C26 C 0.25898 0.00255 0.54024
 N27 N 0.26090 -0.01720 0.51963
 C28 C 0.28075 -0.03697 0.52066
 C29 C 0.29989 -0.03734 0.54290
 C30 C 0.27808 0.00323 0.56277
 C31 C 0.19993 -0.05520 0.46155
 C32 C 0.18188 -0.07851 0.46043
 C33 C 0.20112 -0.09443 0.50489
 C34 C 0.21857 -0.07062 0.50535
 N35 N 0.21754 -0.05142 0.48399
 H36 H 0.24319 0.01826 0.53881
 H37 H 0.28189 -0.05229 0.50384
 H38 H 0.31530 -0.05352 0.54328
 H39 H 0.27689 0.01974 0.57839
 H40 H 0.19909 -0.03943 0.44506
 H41 H 0.16750 -0.08079 0.44280
 H42 H 0.20156 -0.10900 0.52252
 H43 H 0.23214 -0.06707 0.52335
 C44 C 0.17552 0.05654 0.48469
 C45 C 0.30487 -0.00849 0.41484
 C46 C 0.18209 -0.09826 0.48252
 C47 C 0.29918 -0.01669 0.56408
 C48 C 0.71112 0.01572 0.55317
 H49 H 0.71303 0.03226 0.53767
 C50 C 0.69239 0.01848 0.57533
 H51 H 0.68084 0.03762 0.57704
 C52 C 0.72265 -0.02975 0.56890
 H53 H 0.73367 -0.04895 0.56581
 C54 C 0.70400 -0.02790 0.59141
 H55 H 0.70108 -0.04570 0.60544
 N56 N 0.72584 -0.00809 0.55026
 C57 C 0.80349 0.01044 0.51819
 H58 H 0.80895 -0.01134 0.51856
 C59 C 0.82469 0.03086 0.51929
 H60 H 0.84610 0.02443 0.52053
 C61 C 0.76946 0.04538 0.51515
 H62 H 0.74799 0.05107 0.51298
 C63 C 0.79007 0.06652 0.51589
 H64 H 0.78413 0.08827 0.51496
 Zn65 Zn 0.74798 -0.01097 0.51714
 N66 N 0.77636 0.01786 0.51671
 C67 C 0.72855 0.01041 0.46379
 N68 N 0.72352 -0.00737 0.48585
 C69 C 0.70022 -0.02399 0.48658
 C70 C 0.68084 -0.02327 0.46453
 C71 C 0.70960 0.01185 0.44122
 C72 C 0.78132 -0.05585 0.53655
 C73 C 0.79659 -0.08022 0.53343
 C74 C 0.77690 -0.08598 0.48654
 C75 C 0.76203 -0.06154 0.49053
 N76 N 0.76485 -0.04669 0.51502
 H77 H 0.74736 0.02321 0.46350
 H78 H 0.69675 -0.03790 0.50442
 H79 H 0.66229 -0.03647 0.46575
 H80 H 0.71403 0.02582 0.42363
 H81 H 0.78362 -0.04349 0.55565
 H82 H 0.81056 -0.08642 0.55028
 H83 H 0.77481 -0.09713 0.46664
 H84 H 0.74911 -0.05390 0.47352
 C85 C 0.81810 0.05933 0.51836
 C86 C 0.68827 -0.00367 0.59457
 C87 C 0.79498 -0.09525 0.50787
 C88 C 0.68541 -0.00525 0.44138
 C89 C 0.47741 0.21900 1.02860
 H90 H 0.46095 0.21866 1.01287
 C91 C 0.47593 0.20092 1.05184
 H92 H 0.45833 0.18651 1.05370
 C93 C 0.52083 0.23757 1.04453
 H94 H 0.53854 0.25150 1.04134
 C95 C 0.52022 0.21980 1.06812
 H96 H 0.53726 0.22073 1.08321
 N97 N 0.49943 0.23708 1.02553
 C98 C 0.46276 0.29925 0.96967
 H99 H 0.47610 0.29787 0.95139
 C100 C 0.44094 0.31805 0.96961
 H101 H 0.43728 0.33057 0.95086
 C102 C 0.45169 0.28465 1.01634
 H103 H 0.45646 0.27223 1.03483
 C104 C 0.42988 0.30341 1.01734
 H105 H 0.41815 0.30508 1.03672
 Zn106 Zn 0.49918 0.26006 0.99274
 N107 N 0.46759 0.28290 0.99273
 C108 C 0.47752 0.23331 0.94264
 N109 N 0.49911 0.23552 0.96133
 C110 C 0.52134 0.21858 0.95951
 C111 C 0.52254 0.19841 0.93827
 C112 C 0.47783 0.21328 0.92102
 C113 C 0.53520 0.30186 1.01413
 C114 C 0.55749 0.32108 1.01406
 C115 C 0.56932 0.30518 0.96719
 C116 C 0.54707 0.28590 0.96839
 N117 N 0.53066 0.28448 0.99171
 H118 H 0.45970 0.24646 0.94491
 H119 H 0.53805 0.22060 0.97487
 H120 H 0.54051 0.18522 0.93719
 H121 H 0.46015 0.21124 0.90680
 H122 H 0.52145 0.30072 1.03217
 H123 H 0.56105 0.33411 1.03253
 H124 H 0.58157 0.30643 0.94807
 H125 H 0.54253 0.27262 0.95035
 C126 C 0.42429 0.32057 0.99381
 C127 C 0.49749 0.20120 1.07205
 C128 C 0.57486 0.32312 0.99026
 C129 C 0.50043 0.19528 0.91887
 C130 C 0.48644 0.80331 -0.03186
 H131 H 0.47098 0.80328 -0.01532
 C132 C 0.48262 0.81933 -0.05626
 H133 H 0.46383 0.83121 -0.05844
 C134 C 0.52943 0.78729 -0.04894
 H135 H 0.54783 0.77506 -0.04575
 C136 C 0.52663 0.80336 -0.07358
 H137 H 0.54314 0.80345 -0.08904
 N138 N 0.50942 0.78755 -0.02874
 C139 C 0.48106 0.72641 0.03407
 H140 H 0.49638 0.72982 0.05066
 C141 C 0.46011 0.70598 0.03748
 H142 H 0.45913 0.69425 0.05712
 C143 C 0.46407 0.73758 -0.01171
 H144 H 0.46617 0.74928 -0.03122
 C145 C 0.44302 0.71711 -0.00937
 H146 H 0.42919 0.71347 -0.02723
 Zn147 Zn 0.51289 0.76742 0.00558
 N148 N 0.48248 0.74193 0.00990
 C149 C 0.49452 0.79437 0.05572
 N150 N 0.51435 0.79405 0.03533
 C151 C 0.53533 0.81363 0.03486
 C152 C 0.53744 0.83409 0.05593
 C153 C 0.49576 0.81453 0.07714
 C154 C 0.54540 0.72429 -0.01365
 C155 C 0.56706 0.70538 -0.01358
 C156 C 0.58814 0.73086 0.02551
 C157 C 0.56589 0.74917 0.02486
 N158 N 0.54510 0.74555 0.00546
 H159 H 0.47753 0.77920 0.05532
 H160 H 0.55046 0.81330 0.01802
 H161 H 0.55421 0.84958 0.05510
 H162 H 0.47999 0.81422 0.09340
 H163 H 0.52831 0.72162 -0.02849
 H164 H 0.56628 0.68805 -0.02837
 H165 H 0.60453 0.73417 0.04105
 H166 H 0.56501 0.76581 0.04028
 C167 C 0.44081 0.70091 0.01547
 C168 C 0.50299 0.81979 -0.07747
 C169 C 0.58876 0.70836 0.00634
 C170 C 0.51749 0.83470 0.07748
 C171 C 1.03993 0.46841 0.20585
 H172 H 1.02576 0.45064 0.20825
 C173 C 1.06157 0.46724 0.18643
 H174 H 1.06418 0.44815 0.17446
 C175 C 1.05350 0.51470 0.21887
 H176 H 1.04984 0.53338 0.23107
 C177 C 1.07521 0.51460 0.19934
 H178 H 1.08799 0.53338 0.19678
 N179 N 1.03644 0.49177 0.22176
 C180 C 0.98411 0.45643 0.28870
 H181 H 0.96631 0.46983 0.28732
 C182 C 0.98420 0.43425 0.30809
 H183 H 0.96602 0.43043 0.32101
 C184 C 1.02923 0.44528 0.27329
 H185 H 1.04705 0.45004 0.26021
 C186 C 1.03038 0.42315 0.29265
 H187 H 1.04920 0.41122 0.29412
 Zn188 Zn 1.00509 0.49176 0.24569
 N189 N 1.00617 0.46116 0.27137
 C190 C 0.95359 0.46904 0.22327
 N191 N 0.97363 0.48953 0.22145
 C192 C 0.97255 0.50970 0.20112
 C193 C 0.95043 0.51022 0.18193
 C194 C 0.93087 0.46892 0.20464
 C195 C 1.02583 0.53139 0.28489
 C196 C 1.02521 0.55499 0.30236
 C197 C 0.97951 0.56484 0.28387
 C198 C 0.98112 0.54123 0.26657
 N199 N 1.00405 0.52507 0.26736
 H200 H 0.95510 0.45276 0.23910
 H201 H 0.98903 0.52546 0.19985
 H202 H 0.95035 0.52628 0.16568
 H203 H 0.91481 0.45282 0.20687
 H204 H 1.04359 0.51789 0.28548
 H205 H 1.04255 0.55949 0.31649
 H206 H 0.96106 0.57740 0.28306
 H207 H 0.96374 0.53553 0.25300
 C208 C 1.00758 0.41718 0.31029
 C209 C 1.07943 0.49065 0.18267
 C210 C 1.00170 0.57190 0.30215
 C211 C 0.92902 0.48979 0.18364
 C212 C -0.02791 0.46900 0.79628
 H213 H -0.01396 0.45163 0.79451
 C214 C -0.04908 0.46810 0.81629
 H215 H -0.05160 0.44954 0.82932
 C216 C -0.04143 0.51403 0.78090
 H217 H -0.03794 0.53211 0.76742
 C218 C -0.06255 0.51428 0.80105
 H219 H -0.07502 0.53277 0.80286
 N220 N -0.02465 0.49159 0.77892
 C221 C 0.02730 0.45409 0.71476
 H222 H 0.04520 0.46820 0.71566
 C223 C 0.02711 0.43122 0.69634
 H224 H 0.04534 0.42758 0.68369
 C225 C -0.01812 0.44202 0.73026
 H226 H -0.03604 0.44680 0.74286
 C227 C -0.01937 0.41914 0.71182
 H228 H -0.03835 0.40660 0.71060
 Zn229 Zn 0.00586 0.49168 0.75405
 N230 N 0.00504 0.45887 0.73149
 C231 C 0.05553 0.47178 0.77948
 N232 N 0.03814 0.49374 0.77709
 C233 C 0.04211 0.51733 0.79286
 C234 C 0.06478 0.51988 0.81132
 C235 C 0.07829 0.47328 0.79800
 C236 C -0.01797 0.52262 0.71092
 C237 C -0.01986 0.54298 0.68979
 C238 C 0.02405 0.56297 0.70586
 C239 C 0.02525 0.54199 0.72655
 N240 N 0.00438 0.52236 0.72867
 H241 H 0.05140 0.45275 0.76767
 H242 H 0.02756 0.53422 0.79107
 H243 H 0.06782 0.53916 0.82312
 H244 H 0.09143 0.45526 0.80008
 H245 H -0.03409 0.50657 0.71287
 H246 H -0.03768 0.54269 0.67565
 H247 H 0.04107 0.57808 0.70398
 H248 H 0.04324 0.54098 0.74028
 C249 C 0.00343 0.41348 0.69443
 C250 C -0.06662 0.49109 0.81920
 C251 C 0.00146 0.56332 0.68691
 C252 C 0.08321 0.49760 0.81425
 C253 C 0.04743 0.21875 0.52179
 C254 C 0.06882 0.19955 0.52030
 C255 C 0.07070 0.18141 0.49729
 C256 C 0.05092 0.18280 0.47536
 C257 C 0.02968 0.20231 0.47656
 C258 C 0.02773 0.22116 0.49953
 N259 N 0.09233 0.16127 0.49731
 N260 N 0.09309 0.14133 0.47948
 C261 C 0.11466 0.12109 0.48014
 C262 C 0.11172 0.09695 0.46350
 C263 C 0.13162 0.07609 0.46480
 C264 C 0.15508 0.07924 0.48254
 C265 C 0.15842 0.10384 0.49865
 C266 C 0.13828 0.12453 0.49763
 H267 H 0.04626 0.23096 0.54095
 H268 H 0.08362 0.19825 0.53763
 H269 H 0.05177 0.16874 0.45742
 H270 H 0.01449 0.20266 0.45953
 H271 H 0.09368 0.09407 0.44989
 H272 H 0.12872 0.05745 0.45194
 H273 H 0.17623 0.10671 0.51258
 H274 H 0.14107 0.14308 0.51063
 C275 C 0.71565 0.54409 -0.02716
 C276 C 0.69764 0.56657 -0.02865
 C277 C 0.69487 0.58453 -0.00558
 C278 C 0.71021 0.57963 0.01926
 C279 C 0.72849 0.55730 0.02072
 C280 C 0.73238 0.53962 -0.00289
 N281 N 0.67587 0.60711 -0.00773
 N282 N 0.67008 0.62247 0.01334
 C283 C 0.65089 0.64488 0.01098
 C284 C 0.64183 0.65794 0.03565
 C285 C 0.62201 0.67887 0.03417
 C286 C 0.61112 0.68736 0.00783
 C287 C 0.62096 0.67474 -0.01699
 C288 C 0.64054 0.65360 -0.01543
 H289 H 0.71680 0.53016 -0.04518
 H290 H 0.68548 0.56978 -0.04773
 H291 H 0.70790 0.59288 0.03766
 H292 H 0.73886 0.55369 0.04073
 H293 H 0.64965 0.65137 0.05613
 H294 H 0.61465 0.68777 0.05374
 H295 H 0.61347 0.68113 -0.03764
 H296 H 0.64747 0.64402 -0.03484
 C297 C 0.93455 -0.25281 0.52109
 C298 C 0.91033 -0.23727 0.52299
 C299 C 0.90420 -0.21705 0.50256
 C300 C 0.92178 -0.21363 0.47915
 C301 C 0.94602 -0.22901 0.47727
 C302 C 0.95385 -0.24766 0.49910
 N303 N 0.88103 -0.19921 0.50681
 N304 N 0.87446 -0.18063 0.48872
 C305 C 0.85269 -0.16123 0.49333
 C306 C 0.84639 -0.14218 0.47181
 C307 C 0.82707 -0.12129 0.47630
 C308 C 0.81370 -0.11899 0.50258
 C309 C 0.81959 -0.13857 0.52402
 C310 C 0.83889 -0.15959 0.51942
 H311 H 0.93785 -0.26857 0.53711
 H312 H 0.89652 -0.24066 0.54075
 H313 H 0.91728 -0.19848 0.46273
 H314 H 0.95956 -0.22536 0.45933
 H315 H 0.85705 -0.14310 0.45170
 H316 H 0.82336 -0.10628 0.45952
 H317 H 0.80946 -0.13745 0.54439
 H318 H 0.84350 -0.17406 0.53643
 C319 C 0.29902 0.48990 0.97568
 C320 C 0.31828 0.46875 0.97230
 C321 C 0.32006 0.44715 0.99217
 C322 C 0.30272 0.44724 1.01594
 C323 C 0.28371 0.46863 1.01965
 C324 C 0.28084 0.49006 0.99911
 N325 N 0.34023 0.42593 0.98821
 N326 N 0.34008 0.40342 1.00274
 C327 C 0.36084 0.38267 0.99933
 C328 C 0.35717 0.35657 1.01251
 C329 C 0.37742 0.33616 1.01023
 C330 C 0.40201 0.34169 0.99502
 C331 C 0.40552 0.36797 0.98170
 C332 C 0.38508 0.38820 0.98370
 H333 H 0.29816 0.50633 0.95983
 H334 H 0.33183 0.46916 0.95408
 H335 H 0.30429 0.43110 1.03201
 H336 H 0.27189 0.46832 1.03899
 H337 H 0.33853 0.35204 1.02456
 H338 H 0.37376 0.31604 1.02035
 H339 H 0.42437 0.37323 0.97030
 H340 H 0.38850 0.40834 0.97353
 C341 C 0.95706 0.21878 0.47989
 C342 C 0.93486 0.19949 0.48103
 C343 C 0.93204 0.18106 0.50387
 C344 C 0.95183 0.18209 0.52585
 C345 C 0.97397 0.20160 0.52493
 C346 C 0.97674 0.22090 0.50227
 N347 N 0.90930 0.16116 0.50371
 N348 N 0.90672 0.14178 0.52215
 C349 C 0.88391 0.12193 0.52141
 C350 C 0.88397 0.09912 0.54009
 C351 C 0.86253 0.07885 0.53921
 C352 C 0.84044 0.08126 0.51976
 C353 C 0.84013 0.10447 0.50137
 C354 C 0.86174 0.12458 0.50208
 H355 H 0.95882 0.23134 0.46091
 H356 H 0.92005 0.19846 0.46365
 H357 H 0.95029 0.16777 0.54363
 H358 H 0.98913 0.20168 0.54199
 H359 H 0.90087 0.09687 0.55514
 H360 H 0.86313 0.06136 0.55385
 H361 H 0.82349 0.10673 0.48602
 H362 H 0.86117 0.14207 0.48744
 C363 C 0.27983 0.56255 -0.01774
 C364 C 0.29860 0.58530 -0.01661
 C365 C 0.31878 0.58707 0.00473
 C366 C 0.31995 0.56586 0.02529
 C367 C 0.30097 0.54329 0.02449
 C368 C 0.28011 0.54132 0.00326
 N369 N 0.33821 0.61024 0.00460
 N370 N 0.35973 0.61093 0.02042
 C371 C 0.37915 0.63411 0.02002
 C372 C 0.40497 0.63130 0.03335
 C373 C 0.42491 0.65303 0.03214
 C374 C 0.41917 0.67823 0.01788
 C375 C 0.39284 0.68122 0.00519
 C376 C 0.37309 0.65932 0.00608
 H377 H 0.26577 0.56165 -0.03563
 H378 H 0.29787 0.60131 -0.03289
 H379 H 0.33554 0.56666 0.04194
 H380 H 0.30251 0.52712 0.04053
 H381 H 0.40989 0.61194 0.04410
 H382 H 0.44506 0.64973 0.04175
 H383 H 0.38745 0.70051 -0.00543
 H384 H 0.35312 0.66209 -0.00411
 C385 C 0.00300 -0.21136 0.50201
 C386 C 0.02526 -0.19221 0.50079
 C387 C 0.05211 -0.20123 0.49578
 C388 C 0.05679 -0.23001 0.49296
 C389 C 0.03443 -0.24930 0.49392
 C390 C 0.00679 -0.24027 0.49693
 N391 N 0.07389 -0.18048 0.49320
 N392 N 0.09950 -0.18628 0.49150
 C393 C 0.12017 -0.16441 0.48819
 C394 C 0.14823 -0.17025 0.49275
 C395 C 0.16855 -0.14887 0.49066
 C396 C 0.16107 -0.12142 0.48340
 C397 C 0.13299 -0.11580 0.47818
 C398 C 0.11271 -0.13702 0.48068
 H399 H -0.01699 -0.20305 0.50721
 H400 H 0.02156 -0.17010 0.50385
 H401 H 0.07755 -0.23753 0.48958
 H402 H 0.03856 -0.27139 0.49150
 H403 H 0.15428 -0.19127 0.49843
 H404 H 0.19009 -0.15373 0.49468
 H405 H 0.12662 -0.09478 0.47288
 H406 H 0.09119 -0.13197 0.47686
 C407 C 0.71232 0.48579 1.02256
 C408 C 0.69168 0.46482 1.02358
 C409 C 0.68806 0.44611 1.00110
 C410 C 0.70507 0.44886 0.97719
 C411 C 0.72546 0.47019 0.97586
 C412 C 0.73003 0.48867 0.99892
 N413 N 0.66626 0.42527 1.00267
 N414 N 0.66471 0.40442 0.98591
 C415 C 0.64220 0.38432 0.98734
 C416 C 0.64456 0.35853 0.97363
 C417 C 0.62291 0.33851 0.97480
 C418 C 0.59818 0.34420 0.98929
 C419 C 0.59583 0.37039 1.00270
 C420 C 0.61768 0.39014 1.00193
 H421 H 0.71444 0.50006 1.04031
 H422 H 0.67839 0.46318 1.04197
 H423 H 0.70208 0.43503 0.95920
 H424 H 0.73694 0.47239 0.95637
 H425 H 0.66338 0.35379 0.96232
 H426 H 0.62572 0.31847 0.96461
 H427 H 0.57694 0.37589 1.01345
 H428 H 0.61523 0.41012 1.01237
 C429 C 0.53271 0.05355 1.22395
 C430 C 0.53421 0.07488 1.20370
 C431 C 0.51035 0.08891 1.19540
 C432 C 0.48476 0.08133 1.20765
 C433 C 0.48320 0.05998 1.22797
 C434 C 0.50734 0.04619 1.23723
 N435 N 0.51251 0.10975 1.17358
 N436 N 0.49161 0.12312 1.16461
 C437 C 0.49384 0.14338 1.14223
 C438 C 0.46999 0.15719 1.13331
 C439 C 0.47121 0.17624 1.11078
 C440 C 0.49643 0.18180 1.09672
 C441 C 0.52046 0.16818 1.10601
 C442 C 0.51920 0.14912 1.12855
 H443 H 0.55147 0.04243 1.22901
 H444 H 0.55397 0.08010 1.19395
 H445 H 0.46586 0.09142 1.20104
 H446 H 0.46287 0.05379 1.23568
 H447 H 0.45035 0.15299 1.14371
 H448 H 0.45242 0.18669 1.10440
 H449 H 0.54011 0.17173 1.09541
 H450 H 0.53793 0.13864 1.13499
 C451 C -0.01056 0.73044 0.55063
 C452 C -0.00637 0.71356 0.57453
 C453 C -0.00261 0.68475 0.57153
 C454 C -0.00138 0.67329 0.54424
 C455 C -0.00529 0.69008 0.52041
 C456 C -0.01171 0.71876 0.52309
 N457 N -0.00067 0.66730 0.59622
 N458 N -0.00233 0.64071 0.59407
 C459 C -0.00089 0.62206 0.61779
 C460 C -0.00665 0.59355 0.61326
 C461 C -0.00601 0.57457 0.63576
 C462 C 0.00075 0.58378 0.66327
 C463 C 0.00695 0.61239 0.66779
 C464 C 0.00595 0.63149 0.64522
 H465 H -0.01386 0.75262 0.55364
 H466 H -0.00674 0.72285 0.59544
 H467 H 0.00260 0.65123 0.54127
 H468 H -0.00309 0.68015 0.50004
 H469 H -0.01184 0.58607 0.59218
 H470 H -0.01048 0.55259 0.63162
 H471 H 0.01215 0.61999 0.68883
 H472 H 0.01055 0.65347 0.64916
 C473 C 0.46109 0.97858 -0.21270
 C474 C 0.46024 0.95664 -0.19319
 C475 C 0.47721 0.93358 -0.19654
 C476 C 0.49375 0.93173 -0.22083
 C477 C 0.49460 0.95379 -0.24051
 C478 C 0.47983 0.97858 -0.23560
 N479 N 0.47832 0.91350 -0.17403
 N480 N 0.49279 0.89152 -0.17485
 C481 C 0.49445 0.87331 -0.15070
 C482 C 0.50708 0.84730 -0.15325
 C483 C 0.50966 0.82968 -0.12962
 C484 C 0.49993 0.83802 -0.10291
 C485 C 0.48743 0.86428 -0.10052
 C486 C 0.48457 0.88163 -0.12414
 H487 H 0.44800 0.99637 -0.20910
 H488 H 0.44692 0.95801 -0.17487
 H489 H 0.50643 0.91360 -0.22428
 H490 H 0.50718 0.95144 -0.25920
 H491 H 0.51488 0.84065 -0.17357
 H492 H 0.51910 0.80948 -0.13233
 H493 H 0.48031 0.87178 -0.08025
 H494 H 0.47510 0.90182 -0.12145
 C495 C 0.97896 0.28053 0.47449
 C496 C 0.97757 0.30099 0.45342
 C497 C 0.99810 0.30316 0.43278
 C498 C 1.02033 0.28462 0.43350
 C499 C 1.02202 0.26428 0.45485
 C500 C 1.00102 0.26143 0.47556
 N501 N 0.99640 0.32513 0.41216
 N502 N 1.01191 0.32641 0.39045
 C503 C 1.01032 0.34911 0.37060
 C504 C 1.02363 0.34696 0.34448
 C505 C 1.02250 0.36885 0.32476
 C506 C 1.00838 0.39361 0.33106
 C507 C 0.99523 0.39572 0.35750
 C508 C 0.99603 0.37365 0.37699
 H509 H 0.96282 0.27969 0.49036
 H510 H 0.96050 0.31540 0.45331
 H511 H 1.03681 0.28637 0.41805
 H512 H 1.04031 0.25161 0.45532
 H513 H 1.03468 0.32814 0.33928
 H514 H 1.03246 0.36621 0.30448
 H515 H 0.98468 0.41462 0.36340
 H516 H 0.98584 0.37595 0.39720
 C517 C 0.48111 0.98893 0.22058
 C518 C 0.48053 0.96795 0.20003
 C519 C 0.50462 0.95368 0.19342
 C520 C 0.52959 0.96088 0.20743
 C521 C 0.53020 0.98185 0.22814
 C522 C 0.50568 0.99558 0.23595
 N523 N 0.50311 0.93245 0.17201
 N524 N 0.52425 0.91919 0.16385
 C525 C 0.52212 0.89804 0.14235
 C526 C 0.54621 0.88489 0.13338
 C527 C 0.54478 0.86432 0.11229
 C528 C 0.51910 0.85647 0.09991
 C529 C 0.49493 0.86965 0.10906
 C530 C 0.49641 0.89027 0.13004
 H531 H 0.46219 1.00009 0.22449
 H532 H 0.46127 0.96301 0.18894
 H533 H 0.54867 0.95057 0.20215
 H534 H 0.55006 0.98761 0.23754
 H535 H 0.56613 0.89064 0.14273
 H536 H 0.56370 0.85432 0.10591
 H537 H 0.47491 0.86432 0.09967
 H538 H 0.47747 0.90015 0.13656
 C539 C 0.02764 0.28006 0.52863
 C540 C 0.02980 0.29993 0.55020
 C541 C 0.00937 0.30133 0.57091
 C542 C -0.01355 0.28264 0.56976
 C543 C -0.01601 0.26291 0.54791
 C544 C 0.00490 0.26079 0.52713
 N545 N 0.01183 0.32280 0.59198
 N546 N -0.00354 0.32339 0.61379
 C547 C -0.00115 0.34579 0.63392
 C548 C -0.01438 0.34309 0.66010
 C549 C -0.01260 0.36481 0.67997
 C550 C 0.00214 0.38991 0.67375
 C551 C 0.01525 0.39253 0.64727
 C552 C 0.01379 0.37066 0.62765
 H553 H 0.04375 0.27980 0.51273
 H554 H 0.04739 0.31449 0.55063
 H555 H -0.02997 0.28385 0.58524
 H556 H -0.03480 0.25014 0.54713
 H557 H -0.02595 0.32402 0.66520
 H558 H -0.02261 0.36183 0.70025
 H559 H 0.02622 0.41171 0.64139
 H560 H 0.02393 0.37340 0.60740
 C561 C 0.47767 0.05834 0.75182
 C562 C 0.47997 0.08264 0.76841
 C563 C 0.49050 0.08133 0.79608
 C564 C 0.50000 0.05566 0.80647
 C565 C 0.49764 0.03150 0.79004
 C566 C 0.48470 0.03192 0.76307
 N567 N 0.49105 0.10594 0.81354
 N568 N 0.49965 0.10477 0.83907
 C569 C 0.50012 0.12813 0.85803
 C570 C 0.51000 0.12398 0.88560
 C571 C 0.51016 0.14580 0.90521
 C572 C 0.50045 0.17237 0.89758
 C573 C 0.49052 0.17657 0.86979
 C574 C 0.49038 0.15459 0.85010
 H575 H 0.46982 0.06011 0.73036
 H576 H 0.47332 0.10246 0.75976
 H577 H 0.50915 0.05415 0.82742
 H578 H 0.50590 0.01239 0.79875
 H579 H 0.51735 0.10360 0.89197
 H580 H 0.51743 0.14169 0.92656
 H581 H 0.48310 0.19685 0.86324
 H582 H 0.48259 0.15822 0.82886
 C583 C 0.95911 0.69956 0.46683
 C584 C 0.95767 0.68176 0.44341
 C585 C 0.97705 0.68450 0.42167
 C586 C 0.99676 0.70661 0.42259
 C587 C 0.99797 0.72479 0.44582
 C588 C 0.98029 0.72048 0.46933
 N589 N 0.97694 0.66387 0.39965
 N590 N 0.99680 0.66190 0.38215
 C591 C 0.99700 0.64039 0.36099
 C592 C 1.02115 0.63662 0.34522
 C593 C 1.02267 0.61454 0.32586
 C594 C 0.99984 0.59606 0.32173
 C595 C 0.97537 0.60032 0.33708
 C596 C 0.97398 0.62221 0.35663
 H597 H 0.94437 0.69620 0.48380
 H598 H 0.94203 0.66508 0.44271
 H599 H 1.01137 0.70971 0.40547
 H600 H 1.01299 0.74190 0.44505
 H601 H 1.03903 0.65047 0.34840
 H602 H 1.04168 0.61189 0.31412
 H603 H 0.95756 0.58624 0.33453
 H604 H 0.95507 0.62466 0.36857
 C605 C 1.24181 0.53306 0.05052
 C606 C 1.22332 0.53077 0.07314
 C607 C 1.20440 0.50823 0.07480
 C608 C 1.20459 0.48739 0.05389
 C609 C 1.22337 0.48933 0.03151
 C610 C 1.24259 0.51210 0.02934
 N611 N 1.18450 0.50764 0.09722
 N612 N 1.16341 0.49106 0.09680
 C613 C 1.14319 0.49064 0.11892
 C614 C 1.11811 0.47592 0.11455
 C615 C 1.09745 0.47593 0.13517
 C616 C 1.10169 0.49036 0.16091
 C617 C 1.12720 0.50476 0.16541
 C618 C 1.14771 0.50504 0.14455
 H619 H 1.25461 0.55189 0.04954
 H620 H 1.22304 0.54721 0.08893
 H621 H 1.19004 0.46976 0.05465
 H622 H 1.22266 0.47316 0.01542
 H623 H 1.11435 0.46487 0.09481
 H624 H 1.07793 0.46509 0.13063
 H625 H 1.13143 0.51567 0.18512
 H626 H 1.16706 0.51642 0.14848
 C627 C 0.50661 0.01797 0.69851
 C628 C 0.52996 0.01925 0.68123
 C629 C 0.55548 0.00982 0.69108
 C630 C 0.55784 0.00037 0.71916
 C631 C 0.53443 -0.00069 0.73665
 C632 C 0.50790 0.00620 0.72601
 N633 N 0.57832 0.00989 0.67182
 N634 N 0.60201 0.00010 0.67790
 C635 C 0.62379 0.00005 0.65729
 C636 C 0.64937 -0.01170 0.66420
 C637 C 0.67051 -0.01284 0.64398
 C638 C 0.66635 -0.00209 0.61652
 C639 C 0.64067 0.00980 0.60978
 C640 C 0.61965 0.01090 0.62990
 H641 H 0.48749 0.02621 0.69011
 H642 H 0.52810 0.02745 0.65989
 H643 H 0.57766 -0.00618 0.72754
 H644 H 0.53699 -0.00744 0.75840
 H645 H 0.65284 -0.02018 0.68520
 H646 H 0.69013 -0.02196 0.64986
 H647 H 0.63657 0.01776 0.58869
 H648 H 0.60005 0.01996 0.62389
 C649 C -0.22386 0.53567 0.95435
 C650 C -0.20462 0.53422 0.93242
 C651 C -0.18882 0.51033 0.92888
 C652 C -0.19261 0.48757 0.94741
 C653 C -0.21227 0.48870 0.96899
 C654 C -0.22889 0.51250 0.97255
 N655 N -0.16867 0.50999 0.90673
 N656 N -0.14925 0.49234 0.90642
 C657 C -0.12921 0.49192 0.88417
 C658 C -0.10454 0.47761 0.88853
 C659 C -0.08419 0.47746 0.86758
 C660 C -0.08844 0.49114 0.84146
 C661 C -0.11360 0.50507 0.83701
 C662 C -0.13369 0.50566 0.85824
 H663 H -0.23405 0.55539 0.95720
 H664 H -0.20138 0.55217 0.91864
 H665 H -0.18040 0.46891 0.94523
 H666 H -0.21452 0.47090 0.98313
 H667 H -0.10082 0.46704 0.90849
 H668 H -0.06493 0.46704 0.87215
 H669 H -0.11794 0.51533 0.81703
 H670 H -0.15280 0.51661 0.85430
 C671 C 0.47172 0.04414 0.29052
 C672 C 0.44885 0.04355 0.30867
 C673 C 0.43439 0.01838 0.31409
 C674 C 0.44355 -0.00645 0.30170
 C675 C 0.46632 -0.00590 0.28353
 C676 C 0.48004 0.01965 0.27640
 N677 N 0.41081 0.01843 0.33248
 N678 N 0.39732 -0.00403 0.33859
 C679 C 0.37371 -0.00444 0.35691
 C680 C 0.36140 -0.03029 0.36417
 C681 C 0.33881 -0.03162 0.38261
 C682 C 0.32796 -0.00696 0.39404
 C683 C 0.34009 0.01905 0.38625
 C684 C 0.36280 0.02032 0.36792
 H685 H 0.48281 0.06387 0.28730
 H686 H 0.44245 0.06276 0.31865
 H687 H 0.43324 -0.02637 0.30618
 H688 H 0.47322 -0.02568 0.27528
 H689 H 0.36965 -0.04952 0.35585
 H690 H 0.33032 -0.05201 0.38847
 H691 H 0.33201 0.03845 0.39432
 H692 H 0.37184 0.04059 0.36243
 C693 C 0.21935 0.53715 0.97738
 C694 C 0.19847 0.53782 0.95670
 C695 C 0.19688 0.51731 0.93566
 C696 C 0.21627 0.49582 0.93566
 C697 C 0.23693 0.49484 0.95653
 C698 C 0.23941 0.51591 0.97754
 N699 N 0.17472 0.51801 0.91528
 N700 N 0.17423 0.50230 0.89351
 C701 C 0.15158 0.50211 0.87369
 C702 C 0.15431 0.48789 0.84801
 C703 C 0.13231 0.48671 0.82851
 C704 C 0.10694 0.49945 0.83460
 C705 C 0.10432 0.51368 0.86054
 C706 C 0.12646 0.51514 0.87982
 H707 H 0.21983 0.55323 0.99357
 H708 H 0.18337 0.55430 0.95719
 H709 H 0.21499 0.47928 0.91999
 H710 H 0.25022 0.47692 0.95629
 H711 H 0.17358 0.47776 0.84306
 H712 H 0.13528 0.47598 0.80861
 H713 H 0.08497 0.52322 0.86626
 H714 H 0.12376 0.52599 0.89971
 C715 C 0.54379 0.04490 0.28789
 C716 C 0.56490 0.04430 0.30835
 C717 C 0.57269 0.01895 0.32058
 C718 C 0.55865 -0.00593 0.31254
 C719 C 0.53748 -0.00537 0.29212
 C720 C 0.53045 0.01988 0.27841
 N721 N 0.59436 0.01917 0.34158
 N722 N 0.60275 -0.00324 0.35320
 C723 C 0.62416 -0.00316 0.37445
 C724 C 0.63189 -0.02869 0.38642
 C725 C 0.65206 -0.02940 0.40782
 C726 C 0.66492 -0.00446 0.41769
 C727 C 0.65748 0.02116 0.40528
 C728 C 0.63722 0.02184 0.38387
 H729 H 0.53774 0.06513 0.27986
 H730 H 0.57503 0.06374 0.31493
 H731 H 0.56379 -0.02577 0.32222
 H732 H 0.52655 -0.02481 0.28697
 H733 H 0.62208 -0.04810 0.37926
 H734 H 0.65765 -0.04951 0.41662
 H735 H 0.66681 0.04073 0.41261
 H736 H 0.63159 0.04186 0.37494
 C737 C 0.78886 0.53711 0.02896
 C738 C 0.80862 0.53702 0.05078
 C739 C 0.81186 0.51320 0.06765
 C740 C 0.79484 0.48944 0.06267
 C741 C 0.77481 0.48958 0.04112
 C742 C 0.77094 0.51370 0.02414
 N743 N 0.83316 0.51334 0.08899
 N744 N 0.84006 0.49113 0.10201
 C745 C 0.86151 0.49126 0.12320
 C746 C 0.87137 0.46568 0.13320
 C747 C 0.89311 0.46510 0.15299
 C748 C 0.90518 0.49023 0.16339
 C749 C 0.89467 0.51590 0.15377
 C750 C 0.87317 0.51642 0.13376
 H751 H 0.78760 0.55552 0.01559
 H752 H 0.82194 0.55534 0.05411
 H753 H 0.79729 0.47058 0.07517
 H754 H 0.76318 0.47030 0.03735
 H755 H 0.86256 0.44614 0.12518
 H756 H 0.90088 0.44497 0.15960
 H757 H 0.90299 0.53564 0.16177
 H758 H 0.86568 0.53647 0.12656
 C759 C 0.43056 0.01739 0.73376
 C760 C 0.40695 0.01525 0.71630
 C761 C 0.40680 -0.00210 0.69242
 C762 C 0.42986 -0.01878 0.68728
 C763 C 0.45322 -0.01692 0.70483
 C764 C 0.45484 0.00263 0.72724
 N765 N 0.38355 -0.00211 0.67326
 N766 N 0.38549 -0.01276 0.64867
 C767 C 0.36335 -0.01336 0.62829
 C768 C 0.36930 -0.02173 0.60070
 C769 C 0.34857 -0.02252 0.57994
 C770 C 0.32113 -0.01539 0.58648
 C771 C 0.31516 -0.00695 0.61434
 C772 C 0.33615 -0.00583 0.63510
 H773 H 0.42966 0.03068 0.75225
 H774 H 0.38894 0.02755 0.72106
 H775 H 0.42995 -0.03313 0.66953
 H776 H 0.47059 -0.03019 0.70030
 H777 H 0.39025 -0.02739 0.59519
 H778 H 0.35420 -0.02839 0.55862
 H779 H 0.29425 -0.00159 0.62021
 H780 H 0.33110 0.00062 0.65640
   
