data_POSCAR
  _audit_creation_date              2014-09-24
  _audit_creation_method            'ToBaCCo'
  _symmetry_space_group_name_H-M    'P1'
  _symmetry_Int_Tables_number       1
  _symmetry_cell_setting            triclinic
  loop_
  _symmetry_equiv_pos_as_xyz
 x,y,z
_cell_length_a 55.2231
_cell_length_b 56.7712
_cell_length_c 54.5187
_cell_angle_alpha 92.976400
_cell_angle_beta 95.171300
_cell_angle_gamma 87.861800
loop_
  _atom_site_label
  _atom_site_type_symbol
  _atom_site_fract_x
  _atom_site_fract_y
  _atom_site_fract_z
C1 C 0.22740 0.54097 1.07253
 H2 H 0.22763 0.55438 1.05915
 C3 C 0.21107 0.54329 1.09066
 H4 H 0.19982 0.55925 1.09139
 C5 C 0.24247 0.50434 1.08731
 H6 H 0.25410 0.48875 1.08534
 C7 C 0.22639 0.50587 1.10574
 H8 H 0.22612 0.49097 1.11725
 N9 N 0.24238 0.52156 1.07092
 C10 C 0.29708 0.53917 1.02265
 H11 H 0.29447 0.52482 1.00892
 C12 C 0.31596 0.55458 1.02149
 H13 H 0.32759 0.55223 1.00653
 C14 C 0.28535 0.55919 1.05917
 H15 H 0.27381 0.56047 1.07420
 C16 C 0.30403 0.57510 1.05868
 H17 H 0.30665 0.58860 1.07336
 Zn18 Zn 0.25990 0.51748 1.04273
 N19 N 0.28235 0.54159 1.04135
 C20 C 0.23665 0.53351 0.99742
 N21 N 0.23657 0.51751 1.01514
 C22 C 0.21863 0.50171 1.01469
 C23 C 0.19981 0.50148 0.99583
 C24 C 0.21812 0.53391 0.97817
 C25 C 0.29707 0.48699 1.06098
 C26 C 0.31324 0.46752 1.06086
 C27 C 0.29016 0.45157 1.02439
 C28 C 0.27450 0.47145 1.02511
 N29 N 0.27831 0.48872 1.04316
 H30 H 0.25075 0.54630 0.99843
 H31 H 0.21886 0.48938 1.02920
 H32 H 0.18581 0.48862 0.99575
 H33 H 0.21818 0.54708 0.96450
 H34 H 0.29984 0.50114 1.07492
 H35 H 0.32830 0.46661 1.07498
 H36 H 0.28735 0.43836 1.00945
 H37 H 0.25987 0.47340 1.01076
 C38 C 0.31986 0.57263 1.03986
 C39 C 0.20962 0.52522 1.10732
 C40 C 0.31008 0.44966 1.04217
 C41 C 0.19927 0.51786 0.97733
 C42 C 0.78551 0.50083 -0.05423
 H43 H 0.78503 0.51293 -0.03827
 C44 C 0.80291 0.50314 -0.07090
 H45 H 0.81552 0.51737 -0.06788
 C46 C 0.77001 0.46717 -0.07707
 H47 H 0.75766 0.45275 -0.07897
 C48 C 0.78712 0.46886 -0.09426
 H49 H 0.78768 0.45570 -0.10932
 N50 N 0.76965 0.48296 -0.05744
 C51 C 0.71159 0.50368 -0.01099
 H52 H 0.71242 0.48832 0.00003
 C53 C 0.69363 0.52121 -0.00795
 H54 H 0.68096 0.51938 0.00582
 C55 C 0.72715 0.52445 -0.04243
 H56 H 0.73994 0.52534 -0.05620
 C57 C 0.70940 0.54248 -0.03999
 H58 H 0.70872 0.55717 -0.05196
 Zn59 Zn 0.74950 0.47925 -0.03173
 N60 N 0.72788 0.50555 -0.02798
 C61 C 0.76909 0.49112 0.01726
 N62 N 0.77035 0.47568 -0.00255
 C63 C 0.78783 0.45818 -0.00284
 C64 C 0.80514 0.45583 0.01727
 C65 C 0.78593 0.48931 0.03784
 C66 C 0.71307 0.45358 -0.05823
 C67 C 0.69500 0.43692 -0.06194
 C68 C 0.71178 0.41857 -0.02487
 C69 C 0.72964 0.43555 -0.02193
 N70 N 0.72967 0.45284 -0.03829
 H71 H 0.75547 0.50528 0.01693
 H72 H 0.78858 0.44632 -0.01896
 H73 H 0.81905 0.44192 0.01663
 H74 H 0.78504 0.50212 0.05318
 H75 H 0.71327 0.46777 -0.07071
 H76 H 0.68167 0.43812 -0.07769
 H77 H 0.71129 0.40570 -0.01096
 H78 H 0.74262 0.43564 -0.00586
 C79 C 0.69217 0.54083 -0.02274
 C80 C 0.80414 0.48679 -0.09103
 C81 C 0.69375 0.41951 -0.04474
 C82 C 0.80444 0.47167 0.03787
 C83 C -0.03424 0.28585 0.46359
 H84 H -0.04602 0.28532 0.47836
 C85 C -0.03795 0.30340 0.44655
 H86 H -0.05339 0.31549 0.44813
 C87 C -0.00028 0.27006 0.44405
 H88 H 0.01493 0.25755 0.44367
 C89 C -0.00337 0.28724 0.42647
 H90 H 0.01001 0.28748 0.41319
 N91 N -0.01549 0.26983 0.46227
 C92 C -0.03276 0.21291 0.50761
 H93 H -0.01663 0.21293 0.52044
 C94 C -0.05004 0.19580 0.50867
 H95 H -0.04727 0.18288 0.52267
 C96 C -0.05562 0.22957 0.47349
 H97 H -0.05738 0.24241 0.45943
 C98 C -0.07346 0.21278 0.47395
 H99 H -0.08888 0.21288 0.46019
 Zn100 Zn -0.00965 0.24960 0.48880
 N101 N -0.03575 0.22926 0.49016
 C102 C -0.02114 0.26889 0.53589
 N103 N -0.00575 0.26938 0.51779
 C104 C 0.01176 0.28567 0.51869
 C105 C 0.01415 0.30256 0.53819
 C106 C -0.01937 0.28549 0.55578
 C107 C 0.01777 0.21439 0.46544
 C108 C 0.03668 0.19769 0.46293
 C109 C 0.05668 0.21338 0.50122
 C110 C 0.03741 0.22989 0.50294
 N111 N 0.01840 0.22999 0.48524
 H112 H -0.03531 0.25615 0.53454
 H113 H 0.02354 0.28584 0.50388
 H114 H 0.02815 0.31546 0.53847
 H115 H -0.03224 0.28530 0.56962
 H116 H 0.00225 0.21463 0.45185
 H117 H 0.03576 0.18542 0.44702
 H118 H 0.07119 0.21304 0.51595
 H119 H 0.03726 0.24201 0.51888
 C120 C -0.07059 0.19540 0.49151
 C121 C -0.02205 0.30486 0.42781
 C122 C 0.05631 0.19675 0.48117
 C123 C -0.00178 0.30286 0.55689
 C124 C 0.99245 0.73010 0.56136
 H125 H 0.97595 0.74088 0.55899
 C126 C 0.99560 0.71479 0.58073
 H127 H 0.98137 0.71401 0.59306
 C128 C 1.02998 0.71659 0.54694
 H129 H 1.04300 0.71702 0.53329
 C130 C 1.03393 0.70112 0.56609
 H131 H 1.05033 0.69004 0.56731
 N132 N 1.00943 0.73052 0.54482
 C133 C 0.95537 0.76231 0.49827
 H134 H 0.95678 0.74831 0.48423
 C135 C 0.93518 0.77790 0.49693
 H136 H 0.92095 0.77537 0.48212
 C137 C 0.97263 0.78330 0.53391
 H138 H 0.98771 0.78566 0.54782
 C139 C 0.95284 0.79934 0.53322
 H140 H 0.95295 0.81405 0.54667
 Zn141 Zn 1.00342 0.74786 0.51611
 N142 N 0.97370 0.76544 0.51642
 C143 C 0.98635 0.70825 0.48859
 N144 N 1.00243 0.72583 0.48886
 C145 C 1.01786 0.72680 0.47087
 C146 C 1.01724 0.70973 0.45143
 C147 C 0.98512 0.69084 0.46954
 C148 C 1.04668 0.77321 0.53107
 C149 C 1.06243 0.79175 0.52962
 C150 C 1.03850 0.80347 0.49266
 C151 C 1.02336 0.78473 0.49475
 N152 N 1.02755 0.77016 0.51378
 H153 H 0.97449 0.70777 0.50329
 H154 H 1.03092 0.74058 0.47172
 H155 H 1.02991 0.71056 0.43747
 H156 H 0.97198 0.67716 0.46955
 H157 H 1.04935 0.76176 0.54637
 H158 H 1.07722 0.79437 0.54382
 H159 H 1.03474 0.81494 0.47743
 H160 H 1.00781 0.78207 0.48147
 C161 C 0.93398 0.79704 0.51424
 C162 C 1.01636 0.69970 0.58304
 C163 C 1.05813 0.80739 0.51043
 C164 C 1.00076 0.69138 0.45066
 C165 C 0.46009 -0.00044 0.27526
 H166 H 0.47608 -0.01192 0.27414
 C167 C 0.44371 -0.00423 0.29252
 H168 H 0.44697 -0.01901 0.30430
 C169 C 0.43695 0.03317 0.26164
 H170 H 0.43484 0.04814 0.25010
 C171 C 0.42004 0.03002 0.27873
 H172 H 0.40495 0.04261 0.28011
 N173 N 0.45658 0.01808 0.26038
 C174 C 0.50391 0.00002 0.20200
 H175 H 0.51479 0.01558 0.20347
 C176 C 0.50771 -0.01763 0.18386
 H177 H 0.52224 -0.01543 0.17224
 C178 C 0.47261 -0.02138 0.21650
 H179 H 0.45851 -0.02249 0.22885
 C180 C 0.47590 -0.03961 0.19877
 H181 H 0.46373 -0.05417 0.19782
 Zn182 Zn 0.48235 0.02337 0.24098
 N183 N 0.48668 -0.00215 0.21791
 C184 C 0.52967 0.01101 0.26284
 N185 N 0.51029 0.02647 0.26344
 C186 C 0.50894 0.04330 0.28197
 C187 C 0.52726 0.04470 0.30128
 C188 C 0.54846 0.01179 0.28182
 C189 C 0.45681 0.05145 0.20604
 C190 C 0.45306 0.07017 0.19036
 C191 C 0.48970 0.08741 0.20990
 C192 C 0.49268 0.06842 0.22529
 N193 N 0.47643 0.05085 0.22298
 H194 H 0.53011 -0.00259 0.24826
 H195 H 0.49314 0.05515 0.28214
 H196 H 0.52565 0.05797 0.31609
 H197 H 0.56326 -0.00126 0.28160
 H198 H 0.44439 0.03705 0.20434
 H199 H 0.43739 0.07024 0.17692
 H200 H 0.50339 0.10069 0.21139
 H201 H 0.50850 0.06730 0.23840
 C202 C 0.49362 -0.03803 0.18181
 C203 C 0.42361 0.01137 0.29477
 C204 C 0.46987 0.08829 0.19187
 C205 C 0.54711 0.02848 0.30164
 C206 C 0.53865 -0.03204 0.71085
 H207 H 0.52562 -0.04587 0.70762
 C208 C 0.55655 -0.03002 0.69464
 H209 H 0.55703 -0.04234 0.67885
 C210 C 0.55262 0.00176 0.73452
 H211 H 0.55072 0.01439 0.74979
 C212 C 0.57089 0.00437 0.71885
 H213 H 0.58318 0.01879 0.72257
 N214 N 0.53688 -0.01615 0.73018
 C215 C 0.49620 -0.04769 0.78412
 H216 H 0.48136 -0.03479 0.78515
 C217 C 0.49857 -0.06607 0.80027
 H218 H 0.48547 -0.06711 0.81376
 C219 C 0.53219 -0.06088 0.76631
 H220 H 0.54552 -0.05848 0.75340
 C221 C 0.53528 -0.07956 0.78214
 H222 H 0.55080 -0.09166 0.78093
 Zn223 Zn 0.51002 -0.01809 0.74905
 N224 N 0.51293 -0.04537 0.76767
 C225 C 0.46535 -0.03595 0.72631
 N226 N 0.48175 -0.01860 0.72671
 C227 C 0.47923 -0.00146 0.71007
 C228 C 0.45959 -0.00128 0.69210
 C229 C 0.44530 -0.03635 0.70870
 C230 C 0.52588 0.00893 0.79117
 C231 C 0.52514 0.02699 0.80947
 C232 C 0.48916 0.04348 0.78722
 C233 C 0.49043 0.02494 0.76946
 N234 N 0.50864 0.00818 0.77172
 H235 H 0.46793 -0.04969 0.73936
 H236 H 0.49270 0.01196 0.71064
 H237 H 0.45787 0.01256 0.67906
 H238 H 0.43260 -0.05046 0.70837
 H239 H 0.54001 -0.00477 0.79262
 H240 H 0.53891 0.02725 0.82493
 H241 H 0.47433 0.05648 0.78540
 H242 H 0.47663 0.02380 0.75415
 C243 C 0.51848 -0.08217 0.79961
 C244 C 0.57278 -0.01142 0.69834
 C245 C 0.50653 0.04450 0.80765
 C246 C 0.44238 -0.01896 0.69118
 C247 C 0.21628 -0.02453 0.49241
 C248 C 0.22841 -0.00443 0.48699
 C249 C 0.21503 0.01641 0.48142
 C250 C 0.18957 0.01731 0.48141
 C251 C 0.17766 -0.00307 0.48657
 C252 C 0.19082 -0.02412 0.49184
 C253 C 0.25506 -0.00558 0.48636
 C254 C 0.26538 -0.00216 0.46426
 C255 C 0.29062 -0.00485 0.46308
 C256 C 0.30549 -0.01012 0.48448
 C257 C 0.29548 -0.01324 0.50682
 C258 C 0.27013 -0.01114 0.50755
 H259 H 0.22666 -0.04074 0.49612
 H260 H 0.22448 0.03183 0.47703
 H261 H 0.25367 0.00162 0.44781
 H262 H 0.26207 -0.01393 0.52453
 H263 H 0.15806 -0.00246 0.48695
 H264 H 0.32505 -0.01131 0.48382
 C265 C 0.77706 -0.01991 0.50813
 C266 C 0.76527 0.00219 0.50529
 C267 C 0.77895 0.02231 0.50390
 C268 C 0.80447 0.02051 0.50583
 C269 C 0.81608 -0.00180 0.50835
 C270 C 0.80253 -0.02214 0.50934
 C271 C 0.73859 0.00421 0.50438
 C272 C 0.72696 0.00111 0.52572
 C273 C 0.70148 0.00242 0.52508
 C274 C 0.68780 0.00642 0.50259
 C275 C 0.69924 0.00921 0.48095
 C276 C 0.72477 0.00843 0.48210
 H277 H 0.76630 -0.03540 0.50886
 H278 H 0.76971 0.03940 0.50214
 H279 H 0.73784 -0.00193 0.54289
 H280 H 0.73393 0.01023 0.46557
 H281 H 0.83576 -0.00332 0.50964
 H282 H 0.66813 0.00713 0.50187
 C283 C 0.51381 0.27563 0.98243
 C284 C 0.49190 0.26753 0.98955
 C285 C 0.47342 0.28386 0.99567
 C286 C 0.47657 0.30821 0.99456
 C287 C 0.49872 0.31601 0.98766
 C288 C 0.51738 0.29990 0.98151
 C289 C 0.48808 0.24195 0.99014
 C290 C 0.48080 0.23242 1.01146
 C291 C 0.47698 0.20816 1.01206
 C292 C 0.48035 0.19356 0.99097
 C293 C 0.48723 0.20285 0.96934
 C294 C 0.49132 0.22711 0.96919
 H295 H 0.52804 0.26303 0.97759
 H296 H 0.45632 0.27748 1.00054
 H297 H 0.47816 0.24391 1.02757
 H298 H 0.49630 0.23465 0.95257
 H299 H 0.50174 0.33475 0.98760
 H300 H 0.47816 0.17473 0.99162
 C301 C 0.53224 0.72055 0.00130
 C302 C 0.51210 0.73523 0.00631
 C303 C 0.49120 0.72540 0.01382
 C304 C 0.49018 0.70094 0.01610
 C305 C 0.51059 0.68649 0.01127
 C306 C 0.53178 0.69612 0.00408
 C307 C 0.51292 0.76092 0.00377
 C308 C 0.51666 0.76984 -0.01907
 C309 C 0.51724 0.79428 -0.02173
 C310 C 0.51472 0.80967 -0.00102
 C311 C 0.51122 0.80097 0.02200
 C312 C 0.50997 0.77653 0.02416
 H313 H 0.54848 0.72831 -0.00406
 H314 H 0.47571 0.73683 0.01773
 H315 H 0.51887 0.75770 -0.03478
 H316 H 0.50737 0.76957 0.04185
 H317 H 0.50974 0.66756 0.01244
 H318 H 0.51466 0.82857 -0.00296
 C319 C 0.99078 0.51894 0.27851
 C320 C 0.99151 0.49838 0.26315
 C321 C 0.98904 0.47629 0.27292
 C322 C 0.98609 0.47462 0.29810
 C323 C 0.98471 0.49546 0.31309
 C324 C 0.98706 0.51765 0.30351
 C325 C 0.99521 0.50006 0.23690
 C326 C 1.01757 0.50726 0.23009
 C327 C 1.02106 0.50962 0.20517
 C328 C 1.00183 0.50484 0.18716
 C329 C 0.97915 0.49801 0.19372
 C330 C 0.97612 0.49536 0.21875
 H331 H 0.99260 0.53595 0.27082
 H332 H 0.99027 0.46046 0.26105
 H333 H 1.03213 0.51122 0.24423
 H334 H 0.95871 0.49046 0.22428
 H335 H 0.98208 0.49440 0.33245
 H336 H 1.00470 0.50609 0.16789
 C337 C 0.02004 0.52132 0.72986
 C338 C 0.01570 0.49992 0.74020
 C339 C 0.01388 0.47913 0.72515
 C340 C 0.01690 0.47955 0.69986
 C341 C 0.02086 0.50118 0.68971
 C342 C 0.02249 0.52215 0.70451
 C343 C 0.01453 0.49912 0.76703
 C344 C -0.00719 0.49371 0.77672
 C345 C -0.00826 0.49325 0.80235
 C346 C 0.01275 0.49803 0.81809
 C347 C 0.03462 0.50330 0.80861
 C348 C 0.03530 0.50393 0.78299
 H349 H 0.02179 0.53725 0.74165
 H350 H 0.01115 0.46255 0.73333
 H351 H -0.02319 0.48996 0.76432
 H352 H 0.05199 0.50821 0.77540
 H353 H 0.02233 0.50172 0.67007
 H354 H 0.01208 0.49768 0.83787
 C355 C 0.09993 0.18213 0.48794
 C356 C 0.11763 0.16383 0.48786
 C357 C 0.11139 0.14084 0.47961
 C358 C 0.08696 0.13644 0.47164
 C359 C 0.06928 0.15467 0.47180
 C360 C 0.07550 0.17773 0.48000
 C361 C 0.13032 0.12160 0.48116
 C362 C 0.12902 0.10177 0.46662
 C363 C 0.14598 0.08097 0.46955
 C364 C 0.13863 0.05931 0.45825
 C365 C 0.15302 0.03880 0.46163
 C366 C 0.17525 0.03946 0.47632
 C367 C 0.18316 0.06127 0.48685
 C368 C 0.16872 0.08184 0.48350
 H369 H 0.10537 0.19971 0.49421
 H370 H 0.13628 0.16764 0.49432
 H371 H 0.08118 0.11881 0.46610
 H372 H 0.05055 0.15051 0.46622
 H373 H 0.14535 0.12395 0.49509
 H374 H 0.11408 0.10008 0.45243
 H375 H 0.12137 0.05811 0.44718
 H376 H 0.14666 0.02233 0.45288
 H377 H 0.20021 0.06233 0.49827
 H378 H 0.17551 0.09820 0.49197
 C379 C 0.64878 0.55229 -0.01673
 C380 C 0.63027 0.56924 -0.01342
 C381 C 0.63472 0.59336 -0.01391
 C382 C 0.65825 0.60022 -0.01791
 C383 C 0.67684 0.58319 -0.02122
 C384 C 0.67236 0.55904 -0.02040
 C385 C 0.61465 0.61052 -0.00885
 C386 C 0.61377 0.63318 -0.01485
 C387 C 0.59318 0.64955 -0.00933
 C388 C 0.58696 0.66839 -0.02463
 C389 C 0.56717 0.68369 -0.02024
 C390 C 0.55335 0.68054 -0.00029
 C391 C 0.56012 0.66215 0.01548
 C392 C 0.57983 0.64690 0.01109
 H393 H 0.64460 0.53383 -0.01643
 H394 H 0.61236 0.56345 -0.01035
 H395 H 0.66261 0.61864 -0.01779
 H396 H 0.69491 0.58894 -0.02368
 H397 H 0.59939 0.60373 -0.00058
 H398 H 0.62768 0.63971 -0.02526
 H399 H 0.59713 0.67098 -0.04031
 H400 H 0.56237 0.69765 -0.03275
 H401 H 0.55026 0.65968 0.03140
 H402 H 0.58470 0.63322 0.02391
 C403 C 0.90643 -0.17656 0.48791
 C404 C 0.88993 -0.15743 0.48528
 C405 C 0.88092 -0.14564 0.50601
 C406 C 0.88836 -0.15387 0.52954
 C407 C 0.90484 -0.17308 0.53215
 C408 C 0.91439 -0.18438 0.51141
 C409 C 0.86560 -0.12387 0.50226
 C410 C 0.85256 -0.11308 0.51945
 C411 C 0.83943 -0.09008 0.51585
 C412 C 0.81965 -0.08400 0.52965
 C413 C 0.80748 -0.06207 0.52739
 C414 C 0.81504 -0.04564 0.51148
 C415 C 0.83490 -0.05168 0.49776
 C416 C 0.84703 -0.07358 0.49998
 H417 H 0.91372 -0.18456 0.47156
 H418 H 0.88469 -0.15140 0.46697
 H419 H 0.88234 -0.14512 0.54609
 H420 H 0.91048 -0.17880 0.55049
 H421 H 0.86515 -0.11645 0.48432
 H422 H 0.85095 -0.12133 0.53664
 H423 H 0.81365 -0.09625 0.54225
 H424 H 0.79244 -0.05777 0.53846
 H425 H 0.84106 -0.03945 0.48523
 H426 H 0.86269 -0.07720 0.48965
 C427 C 0.32120 0.40679 1.03418
 C428 C 0.33864 0.38864 1.03091
 C429 C 0.36349 0.39347 1.03309
 C430 C 0.37069 0.41659 1.03981
 C431 C 0.35332 0.43466 1.04330
 C432 C 0.32838 0.43003 1.04018
 C433 C 0.38152 0.37425 1.02818
 C434 C 0.40203 0.37818 1.01784
 C435 C 0.42015 0.35941 1.01178
 C436 C 0.43478 0.36278 0.99263
 C437 C 0.45273 0.34599 0.98680
 C438 C 0.45680 0.32558 1.00033
 C439 C 0.44210 0.32217 1.01955
 C440 C 0.42393 0.33890 1.02522
 H441 H 0.30211 0.40270 1.03194
 H442 H 0.33269 0.37090 1.02603
 H443 H 0.38974 0.42077 1.04235
 H444 H 0.35939 0.45241 1.04782
 H445 H 0.37695 0.35638 1.03153
 H446 H 0.40514 0.39576 1.01221
 H447 H 0.43223 0.37845 0.98203
 H448 H 0.46337 0.34899 0.97159
 H449 H 0.44504 0.30686 1.03062
 H450 H 0.41341 0.33605 1.04055
 C451 C 0.88654 0.18122 0.48773
 C452 C 0.87006 0.16311 0.48801
 C453 C 0.87838 0.13984 0.49209
 C454 C 0.90362 0.13492 0.49509
 C455 C 0.92003 0.15299 0.49490
 C456 C 0.91171 0.17636 0.49143
 C457 C 0.86045 0.12104 0.49241
 C458 C 0.86538 0.10121 0.50456
 C459 C 0.84845 0.08155 0.50495
 C460 C 0.85418 0.06423 0.52219
 C461 C 0.83974 0.04464 0.52264
 C462 C 0.81917 0.04185 0.50578
 C463 C 0.81312 0.05928 0.48869
 C464 C 0.82767 0.07890 0.48816
 H465 H 0.87961 0.19907 0.48502
 H466 H 0.85074 0.16733 0.48536
 H467 H 0.91085 0.11710 0.49715
 H468 H 0.93934 0.14859 0.49708
 H469 H 0.84255 0.12426 0.48321
 H470 H 0.88264 0.09932 0.51548
 H471 H 0.87005 0.06575 0.53532
 H472 H 0.84465 0.03166 0.53624
 H473 H 0.79751 0.05740 0.47531
 H474 H 0.82283 0.09146 0.47416
 C475 C 0.36380 0.57804 0.03453
 C476 C 0.38389 0.59220 0.03446
 C477 C 0.38177 0.61663 0.03954
 C478 C 0.35912 0.62659 0.04534
 C479 C 0.33898 0.61234 0.04554
 C480 C 0.34108 0.58794 0.03993
 C481 C 0.40372 0.63077 0.03898
 C482 C 0.40308 0.65390 0.03494
 C483 C 0.42537 0.66689 0.03201
 C484 C 0.42378 0.68621 0.01683
 C485 C 0.44473 0.69772 0.01215
 C486 C 0.46769 0.69022 0.02276
 C487 C 0.46911 0.67163 0.03893
 C488 C 0.44820 0.66014 0.04359
 H489 H 0.36612 0.55923 0.03064
 H490 H 0.40116 0.58404 0.03020
 H491 H 0.35692 0.64524 0.05001
 H492 H 0.32169 0.62043 0.04981
 H493 H 0.42107 0.62116 0.04003
 H494 H 0.38574 0.66319 0.03144
 H495 H 0.40639 0.69190 0.00789
 H496 H 0.44305 0.71193 -0.00046
 H497 H 0.48648 0.66588 0.04787
 H498 H 0.45002 0.64597 0.05622
 C499 C 0.06224 -0.14982 0.50353
 C500 C 0.07630 -0.13020 0.50162
 C501 C 0.10176 -0.13193 0.50548
 C502 C 0.11291 -0.15387 0.51152
 C503 C 0.09875 -0.17354 0.51356
 C504 C 0.07330 -0.17174 0.50931
 C505 C 0.11561 -0.11064 0.50185
 C506 C 0.13945 -0.10823 0.50838
 C507 C 0.15243 -0.08668 0.50376
 C508 C 0.17368 -0.08101 0.51868
 C509 C 0.18624 -0.06073 0.51488
 C510 C 0.17781 -0.04577 0.49598
 C511 C 0.15687 -0.05173 0.48070
 C512 C 0.14441 -0.07200 0.48441
 H513 H 0.04263 -0.14780 0.50054
 H514 H 0.06718 -0.11359 0.49695
 H515 H 0.13245 -0.15623 0.51414
 H516 H 0.10775 -0.19030 0.51780
 H517 H 0.10524 -0.09595 0.49385
 H518 H 0.14975 -0.12184 0.51831
 H519 H 0.18042 -0.09214 0.53352
 H520 H 0.20233 -0.05655 0.52695
 H521 H 0.15034 -0.04089 0.46556
 H522 H 0.12878 -0.07626 0.47177
 C523 C 0.64907 0.41322 0.94710
 C524 C 0.62877 0.39938 0.94741
 C525 C 0.63128 0.37590 0.95440
 C526 C 0.65486 0.36638 0.96061
 C527 C 0.67523 0.38031 0.96030
 C528 C 0.67254 0.40396 0.95377
 C529 C 0.60866 0.36285 0.95593
 C530 C 0.60773 0.34002 0.96105
 C531 C 0.58450 0.32869 0.96434
 C532 C 0.58479 0.30955 0.97969
 C533 C 0.56304 0.29965 0.98474
 C534 C 0.54059 0.30871 0.97445
 C535 C 0.54037 0.32706 0.95813
 C536 C 0.56205 0.33683 0.95295
 H537 H 0.64624 0.43149 0.94243
 H538 H 0.61092 0.40728 0.94261
 H539 H 0.65784 0.34848 0.96623
 H540 H 0.69311 0.37262 0.96536
 H541 H 0.59182 0.37316 0.95360
 H542 H 0.62427 0.32951 0.96447
 H543 H 0.60182 0.30274 0.98845
 H544 H 0.56372 0.28550 0.99739
 H545 H 0.52333 0.33395 0.94945
 H546 H 0.56106 0.35076 0.94007
 C547 C 0.47450 0.13026 1.18061
 C548 C 0.47434 0.14731 1.16296
 C549 C 0.46717 0.14164 1.13807
 C550 C 0.46008 0.11850 1.13117
 C551 C 0.46034 0.10146 1.14877
 C552 C 0.46776 0.10705 1.17366
 C553 C 0.46933 0.15946 1.11951
 C554 C 0.45594 0.15915 1.09768
 C555 C 0.46011 0.17403 1.07690
 C556 C 0.44763 0.16858 1.05383
 C557 C 0.45254 0.18020 1.03298
 C558 C 0.47001 0.19769 1.03469
 C559 C 0.48167 0.20406 1.05792
 C560 C 0.47681 0.19238 1.07884
 H561 H 0.48011 0.13521 1.19966
 H562 H 0.48008 0.16494 1.16872
 H563 H 0.45536 0.11312 1.11207
 H564 H 0.45566 0.08362 1.14265
 H565 H 0.48286 0.17261 1.12405
 H566 H 0.44180 0.14638 1.09421
 H567 H 0.43452 0.15473 1.05173
 H568 H 0.44291 0.17523 1.01539
 H569 H 0.49524 0.21748 1.05977
 H570 H 0.48657 0.19763 1.09619
 C571 C 0.01074 0.68617 0.62540
 C572 C 0.01155 0.66840 0.64234
 C573 C 0.02071 0.64566 0.63623
 C574 C 0.02899 0.64102 0.61274
 C575 C 0.02808 0.65872 0.59581
 C576 C 0.01881 0.68149 0.60184
 C577 C 0.01963 0.62676 0.65386
 C578 C 0.03474 0.60767 0.65412
 C579 C 0.03232 0.58680 0.66899
 C580 C 0.04607 0.56624 0.66335
 C581 C 0.04329 0.54548 0.67528
 C582 C 0.02673 0.54475 0.69329
 C583 C 0.01366 0.56551 0.69975
 C584 C 0.01640 0.58634 0.68777
 H585 H 0.00366 0.70355 0.63071
 H586 H 0.00486 0.67237 0.66022
 H587 H 0.03526 0.62352 0.60691
 H588 H 0.03380 0.65429 0.57761
 H589 H 0.00556 0.62873 0.66642
 H590 H 0.04920 0.60667 0.64192
 H591 H 0.05865 0.56606 0.64919
 H592 H 0.05400 0.52989 0.67025
 H593 H 0.00076 0.56546 0.71358
 H594 H 0.00580 0.60178 0.69323
 C595 C 0.54569 0.89444 -0.17057
 C596 C 0.54903 0.87869 -0.15159
 C597 C 0.52916 0.86737 -0.14366
 C598 C 0.50582 0.87188 -0.15547
 C599 C 0.50251 0.88762 -0.17446
 C600 C 0.52233 0.89937 -0.18196
 C601 C 0.53323 0.85282 -0.12172
 C602 C 0.51740 0.83720 -0.11564
 C603 C 0.51985 0.82511 -0.09200
 C604 C 0.50621 0.80503 -0.08997
 C605 C 0.50604 0.79449 -0.06738
 C606 C 0.51939 0.80394 -0.04622
 C607 C 0.53355 0.82366 -0.04834
 C608 C 0.53372 0.83421 -0.07091
 H609 H 0.56130 0.90347 -0.17564
 H610 H 0.56715 0.87577 -0.14267
 H611 H 0.48988 0.86409 -0.14959
 H612 H 0.48431 0.89091 -0.18300
 H613 H 0.54999 0.85534 -0.11014
 H614 H 0.50179 0.83301 -0.12834
 H615 H 0.49518 0.79778 -0.10582
 H616 H 0.49468 0.77950 -0.06627
 H617 H 0.54417 0.83124 -0.03239
 H618 H 0.54399 0.84999 -0.07137
 C619 C 0.96569 0.34609 0.41937
 C620 C 0.96566 0.36553 0.40473
 C621 C 0.97553 0.36364 0.38194
 C622 C 0.98521 0.34170 0.37378
 C623 C 0.98551 0.32219 0.38852
 C624 C 0.97606 0.32403 0.41185
 C625 C 0.97721 0.38538 0.36839
 C626 C 0.97892 0.38574 0.34404
 C627 C 0.98160 0.40813 0.33191
 C628 C 0.97071 0.41118 0.30797
 C629 C 0.97230 0.43266 0.29674
 C630 C 0.98513 0.45133 0.30918
 C631 C 0.99691 0.44776 0.33271
 C632 C 0.99515 0.42647 0.34395
 H633 H 0.95893 0.34911 0.43730
 H634 H 0.95834 0.38234 0.41157
 H635 H 0.99330 0.33965 0.35641
 H636 H 0.99290 0.30565 0.38123
 H637 H 0.97643 0.40198 0.37908
 H638 H 0.97724 0.36963 0.33258
 H639 H 0.96042 0.39717 0.29823
 H640 H 0.96302 0.43484 0.27861
 H641 H 1.00764 0.46146 0.34246
 H642 H 1.00460 0.42433 0.36201
 C643 C 0.50665 0.94883 0.14101
 C644 C 0.50980 0.93114 0.12272
 C645 C 0.50352 0.90786 0.12584
 C646 C 0.49412 0.90261 0.14800
 C647 C 0.49075 0.92035 0.16629
 C648 C 0.49697 0.94388 0.16324
 C649 C 0.50755 0.88990 0.10564
 C650 C 0.49948 0.86780 0.10441
 C651 C 0.50339 0.85055 0.08357
 C652 C 0.48794 0.83138 0.07932
 C653 C 0.49063 0.81505 0.05955
 C654 C 0.50887 0.81758 0.04362
 C655 C 0.52476 0.83635 0.04823
 C656 C 0.52221 0.85255 0.06807
 H657 H 0.51096 0.96656 0.13698
 H658 H 0.51702 0.93580 0.10584
 H659 H 0.48967 0.88485 0.15170
 H660 H 0.48422 0.91512 0.18324
 H661 H 0.51692 0.89574 0.09058
 H662 H 0.48854 0.86220 0.11836
 H663 H 0.47347 0.82924 0.09110
 H664 H 0.47810 0.80075 0.05639
 H665 H 0.53935 0.83837 0.03656
 H666 H 0.53523 0.86637 0.07123
 C667 C -0.00405 0.31711 0.60120
 C668 C -0.00316 0.33526 0.61962
 C669 C 0.00117 0.35850 0.61398
 C670 C 0.00391 0.36334 0.58934
 C671 C 0.00306 0.34524 0.57098
 C672 C -0.00076 0.32189 0.57669
 C673 C 0.00197 0.37741 0.63387
 C674 C 0.01463 0.39701 0.63281
 C675 C 0.01541 0.41693 0.65158
 C676 C 0.03330 0.43370 0.65068
 C677 C 0.03399 0.45369 0.66667
 C678 C 0.01671 0.45751 0.68396
 C679 C -0.00094 0.44055 0.68534
 C680 C -0.00170 0.42048 0.66922
 H681 H -0.00700 0.29929 0.60617
 H682 H -0.00560 0.33111 0.63840
 H683 H 0.00621 0.38114 0.58399
 H684 H 0.00492 0.34963 0.55216
 H685 H -0.00735 0.37453 0.65001
 H686 H 0.02562 0.39851 0.61753
 H687 H 0.04670 0.43147 0.63734
 H688 H 0.04806 0.46627 0.66544
 H689 H -0.01462 0.44318 0.69834
 H690 H -0.01613 0.40832 0.67023
 C691 C 0.50707 0.05715 0.85230
 C692 C 0.50428 0.07444 0.87108
 C693 C 0.49946 0.09810 0.86552
 C694 C 0.49722 0.10416 0.84070
 C695 C 0.49971 0.08678 0.82187
 C696 C 0.50465 0.06312 0.82751
 C697 C 0.49552 0.11560 0.88594
 C698 C 0.50010 0.13857 0.88525
 C699 C 0.49609 0.15543 0.90621
 C700 C 0.51167 0.17434 0.91149
 C701 C 0.50876 0.18993 0.93183
 C702 C 0.48992 0.18707 0.94706
 C703 C 0.47374 0.16867 0.94108
 C704 C 0.47681 0.15301 0.92094
 H705 H 0.51053 0.03899 0.85713
 H706 H 0.50584 0.06931 0.89004
 H707 H 0.49292 0.12214 0.83575
 H708 H 0.49776 0.09181 0.80288
 H709 H 0.48969 0.10900 0.90268
 H710 H 0.50835 0.14495 0.86968
 H711 H 0.52652 0.17667 0.90023
 H712 H 0.52159 0.20384 0.93597
 H713 H 0.45859 0.16641 0.95195
 H714 H 0.46392 0.13914 0.91681
 C715 C 1.00257 0.67809 0.40610
 C716 C 1.00182 0.66032 0.38731
 C717 C 0.99845 0.63678 0.39256
 C718 C 0.99656 0.63126 0.41717
 C719 C 0.99731 0.64899 0.43592
 C720 C 1.00017 0.67262 0.43060
 C721 C 0.99785 0.61835 0.37223
 C722 C 0.98619 0.59813 0.37305
 C723 C 0.98592 0.57881 0.35364
 C724 C 0.96860 0.56136 0.35386
 C725 C 0.96860 0.54186 0.33718
 C726 C 0.98601 0.53928 0.31991
 C727 C 1.00307 0.55694 0.31926
 C728 C 1.00313 0.57647 0.33602
 H729 H 1.00468 0.69615 0.40140
 H730 H 1.00358 0.66500 0.36855
 H731 H 0.99498 0.61322 0.42216
 H732 H 0.99608 0.64412 0.45470
 H733 H 1.00648 0.62213 0.35590
 H734 H 0.97574 0.59562 0.38853
 H735 H 0.95517 0.56266 0.36721
 H736 H 0.95505 0.52867 0.33791
 H737 H 1.01692 0.55522 0.30636
 H738 H 1.01720 0.58913 0.33557
 C739 C 1.19339 0.51240 0.14524
 C740 C 1.17416 0.51128 0.16013
 C741 C 1.15207 0.52359 0.15446
 C742 C 1.14976 0.53746 0.13371
 C743 C 1.16892 0.53865 0.11882
 C744 C 1.19106 0.52576 0.12391
 C745 C 1.13127 0.51984 0.16913
 C746 C 1.11177 0.53465 0.16963
 C747 C 1.08921 0.52904 0.18063
 C748 C 1.06722 0.53974 0.17130
 C749 C 1.04519 0.53376 0.17962
 C750 C 1.04467 0.51710 0.19771
 C751 C 1.06674 0.50715 0.20793
 C752 C 1.08883 0.51303 0.19948
 H753 H 1.21013 0.50293 0.15090
 H754 H 1.17647 0.50049 0.17604
 H755 H 1.13279 0.54654 0.12801
 H756 H 1.16536 0.54847 0.10236
 H757 H 1.13178 0.50367 0.17884
 H758 H 1.11140 0.55090 0.16007
 H759 H 1.06700 0.55230 0.15698
 H760 H 1.02848 0.54204 0.17175
 H761 H 1.06685 0.49432 0.22197
 H762 H 1.10545 0.50495 0.20771
 C763 C 0.59510 0.01516 0.67341
 C764 C 0.61054 0.01864 0.65511
 C765 C 0.62189 -0.00060 0.64301
 C766 C 0.61765 -0.02356 0.64993
 C767 C 0.60227 -0.02704 0.66835
 C768 C 0.59059 -0.00774 0.68011
 C769 C 0.63656 0.00415 0.62238
 C770 C 0.65151 -0.01180 0.61191
 C771 C 0.66456 -0.00707 0.59012
 C772 C 0.68514 -0.02117 0.58518
 C773 C 0.69734 -0.01793 0.56427
 C774 C 0.68907 -0.00059 0.54773
 C775 C 0.66849 0.01354 0.55267
 C776 C 0.65628 0.01028 0.57351
 H777 H 0.58607 0.03041 0.68174
 H778 H 0.61326 0.03650 0.65004
 H779 H 0.62551 -0.03900 0.64084
 H780 H 0.59933 -0.04489 0.67323
 H781 H 0.63500 0.02184 0.61579
 H782 H 0.65490 -0.02887 0.61967
 H783 H 0.69174 -0.03486 0.59747
 H784 H 0.71292 -0.02936 0.56078
 H785 H 0.66177 0.02716 0.54038
 H786 H 0.64005 0.02104 0.57609
 C787 C -0.18053 0.48336 0.86676
 C788 C -0.16154 0.48366 0.85141
 C789 C -0.13766 0.48780 0.86138
 C790 C -0.13327 0.49245 0.88697
 C791 C -0.15221 0.49228 0.90226
 C792 C -0.17603 0.48763 0.89238
 C793 C -0.11782 0.48795 0.84478
 C794 C -0.09473 0.48179 0.85226
 C795 C -0.07382 0.48308 0.83714
 C796 C -0.05195 0.47126 0.84502
 C797 C -0.03094 0.47383 0.83311
 C798 C -0.03125 0.48841 0.81304
 C799 C -0.05330 0.49961 0.80450
 C800 C -0.07439 0.49708 0.81648
 H801 H -0.19875 0.48000 0.85860
 H802 H -0.16545 0.48037 0.83172
 H803 H -0.11527 0.49651 0.89525
 H804 H -0.14811 0.49547 0.92192
 H805 H -0.12264 0.49247 0.82589
 H806 H -0.09078 0.47516 0.87051
 H807 H -0.05095 0.46037 0.86085
 H808 H -0.01428 0.46472 0.83989
 H809 H -0.05398 0.51119 0.78926
 H810 H -0.09068 0.50692 0.81011
 C811 C 0.41744 0.00302 0.33830
 C812 C 0.40251 0.00025 0.35716
 C813 C 0.37717 0.00336 0.35306
 C814 C 0.36702 0.00929 0.32945
 C815 C 0.38205 0.01210 0.31050
 C816 C 0.40741 0.00883 0.31471
 C817 C 0.36238 -0.00064 0.37376
 C818 C 0.33906 0.00657 0.37491
 C819 C 0.32564 0.00256 0.39664
 C820 C 0.30688 0.01854 0.40286
 C821 C 0.29501 0.01595 0.42416
 C822 C 0.30170 -0.00275 0.43955
 C823 C 0.31965 -0.01933 0.43268
 C824 C 0.33137 -0.01683 0.41140
 H825 H 0.43694 0.00080 0.34228
 H826 H 0.41085 -0.00433 0.37512
 H827 H 0.34756 0.01129 0.32531
 H828 H 0.37381 0.01634 0.29241
 H829 H 0.37176 -0.00908 0.38943
 H830 H 0.32997 0.01697 0.36054
 H831 H 0.30188 0.03343 0.39160
 H832 H 0.28114 0.02892 0.42900
 H833 H 0.32465 -0.03429 0.44384
 H834 H 0.34488 -0.03016 0.40661
 C835 C 0.15487 0.51534 0.96353
 C836 C 0.13553 0.51569 0.94521
 C837 C 0.13955 0.51910 0.92061
 C838 C 0.16343 0.52272 0.91480
 C839 C 0.18283 0.52238 0.93320
 C840 C 0.17877 0.51852 0.95774
 C841 C 0.11826 0.51912 0.90194
 C842 C 0.11975 0.51529 0.87761
 C843 C 0.09798 0.51368 0.85961
 C844 C 0.09977 0.50044 0.83733
 C845 C 0.07933 0.49747 0.82049
 C846 C 0.05669 0.50779 0.82556
 C847 C 0.05511 0.52183 0.84738
 C848 C 0.07553 0.52487 0.86417
 H849 H 0.15105 0.51282 0.98234
 H850 H 0.11731 0.51314 0.95028
 H851 H 0.16728 0.52607 0.89623
 H852 H 0.20105 0.52488 0.92816
 H853 H 0.10051 0.52083 0.90892
 H854 H 0.13727 0.51140 0.87067
 H855 H 0.11688 0.49185 0.83324
 H856 H 0.08107 0.48650 0.80385
 H857 H 0.03803 0.53050 0.85146
 H858 H 0.07361 0.53606 0.88059
 C859 C 0.55730 0.03026 0.34731
 C860 C 0.57386 0.02823 0.36803
 C861 C 0.59869 0.02387 0.36551
 C862 C 0.60671 0.02162 0.34168
 C863 C 0.59006 0.02354 0.32087
 C864 C 0.56516 0.02779 0.32349
 C865 C 0.61513 0.02031 0.38811
 C866 C 0.63929 0.02275 0.38970
 C867 C 0.65486 0.01867 0.41278
 C868 C 0.67615 0.03138 0.41819
 C869 C 0.69073 0.02828 0.44024
 C870 C 0.68437 0.01220 0.45716
 C871 C 0.66351 -0.00111 0.45126
 C872 C 0.64895 0.00204 0.42934
 H873 H 0.53819 0.03307 0.34996
 H874 H 0.56716 0.02979 0.38615
 H875 H 0.62562 0.01768 0.33895
 H876 H 0.59663 0.02156 0.30273
 H877 H 0.60664 0.01629 0.40449
 H878 H 0.64782 0.02906 0.37428
 H879 H 0.68123 0.04410 0.40559
 H880 H 0.70669 0.03880 0.44427
 H881 H 0.65853 -0.01417 0.46354
 H882 H 0.63324 -0.00880 0.42530
 C883 C 0.81784 0.47399 0.08319
 C884 C 0.83622 0.47444 0.10262
 C885 C 0.86076 0.47207 0.09788
 C886 C 0.86657 0.46806 0.07338
 C887 C 0.84823 0.46740 0.05399
 C888 C 0.82369 0.47071 0.05865
 C889 C 0.87989 0.47404 0.11868
 C890 C 0.90139 0.48350 0.11627
 C891 C 0.92046 0.48709 0.13688
 C892 C 0.93681 0.50519 0.13561
 C893 C 0.95553 0.50891 0.15421
 C894 C 0.95866 0.49429 0.17438
 C895 C 0.94226 0.47610 0.17568
 C896 C 0.92333 0.47253 0.15712
 H897 H 0.79906 0.47627 0.08733
 H898 H 0.83129 0.47726 0.12136
 H899 H 0.88529 0.46546 0.06913
 H900 H 0.85329 0.46492 0.03528
 H901 H 0.87540 0.46934 0.13669
 H902 H 0.90467 0.49039 0.09875
 H903 H 0.93499 0.51665 0.12022
 H904 H 0.96748 0.52338 0.15282
 H905 H 0.94439 0.46429 0.19074
 H906 H 0.91142 0.45801 0.15836
 C907 C 0.39825 -0.02434 0.67701
 C908 C 0.37904 -0.02456 0.65841
 C909 C 0.38320 -0.02045 0.63400
 C910 C 0.40690 -0.01557 0.62862
 C911 C 0.42602 -0.01518 0.64719
 C912 C 0.42193 -0.01956 0.67157
 C913 C 0.36247 -0.02027 0.61474
 C914 C 0.36523 -0.02611 0.59098
 C915 C 0.34553 -0.02437 0.57073
 C916 C 0.34876 -0.03667 0.54821
 C917 C 0.33203 -0.03374 0.52776
 C918 C 0.31173 -0.01824 0.52928
 C919 C 0.30801 -0.00646 0.55201
 C920 C 0.32478 -0.00941 0.57254
 H921 H 0.39454 -0.02750 0.69570
 H922 H 0.36089 -0.02806 0.66307
 H923 H 0.41069 -0.01157 0.61019
 H924 H 0.44409 -0.01157 0.64244
 H925 H 0.34457 -0.01581 0.62053
 H926 H 0.38283 -0.03275 0.58593
 H927 H 0.36457 -0.04828 0.54629
 H928 H 0.33519 -0.04334 0.51059
 H929 H 0.29271 0.00584 0.55363
 H930 H 0.32191 0.00086 0.58936
   
