data_POSCAR
  _audit_creation_date              2014-09-24
  _audit_creation_method            'ToBaCCo'
  _symmetry_space_group_name_H-M    'P1'
  _symmetry_Int_Tables_number       1
  _symmetry_cell_setting            triclinic
  loop_
  _symmetry_equiv_pos_as_xyz
 x,y,z
_cell_length_a 22.9844
_cell_length_b 22.9054
_cell_length_c 25.7331
_cell_angle_alpha 88.579200
_cell_angle_beta 90.460600
_cell_angle_gamma 82.052800
loop_
  _atom_site_label
  _atom_site_type_symbol
  _atom_site_fract_x
  _atom_site_fract_y
  _atom_site_fract_z
C1 C 1.19358 0.22590 0.19436
 C2 C 1.23457 0.26138 0.16477
 C3 C 1.26663 0.29269 0.19570
 C4 C 1.25408 0.28580 0.25433
 C5 C 1.23316 0.18751 0.23351
 C6 C 1.26425 0.21870 0.26548
 C7 C 1.15546 0.27061 0.22697
 C8 C 1.18677 0.30172 0.25893
 H9 H 1.23911 0.26053 0.12279
 H10 H 1.27982 0.31159 0.27963
 H11 H 1.23441 0.14001 0.23712
 H12 H 1.10819 0.27183 0.22914
 C13 C 0.70066 -0.26559 0.19413
 C14 C 0.73441 -0.22574 0.16146
 C15 C 0.76915 -0.19450 0.18985
 C16 C 0.76672 -0.20613 0.24907
 C17 C 0.74728 -0.30416 0.22674
 C18 C 0.78155 -0.27348 0.25585
 C19 C 0.66636 -0.22499 0.23280
 C20 C 0.70095 -0.19404 0.26220
 H21 H 0.73436 -0.22567 0.11923
 H22 H 0.79498 -0.18058 0.27214
 H23 H 0.74800 -0.35153 0.23170
 H24 H 0.61972 -0.22479 0.23872
 C25 C 0.69578 0.22442 -0.30686
 C26 C 0.72075 0.27058 -0.33513
 C27 C 0.75538 0.30360 -0.30341
 C28 C 0.75726 0.28455 -0.24845
 C29 C 0.74570 0.18841 -0.28101
 C30 C 0.77961 0.22132 -0.24824
 C31 C 0.66205 0.25419 -0.26521
 C32 C 0.69558 0.28772 -0.23289
 H33 H 0.72029 0.27451 -0.37734
 H34 H 0.78308 0.31100 -0.22380
 H35 H 0.75188 0.14048 -0.28036
 H36 H 0.61658 0.24901 -0.25795
 C37 C 1.20396 -0.29683 -0.30398
 C38 C 1.23862 -0.25906 -0.33856
 C39 C 1.27263 -0.22566 -0.31149
 C40 C 1.26733 -0.23185 -0.25196
 C41 C 1.24985 -0.33245 -0.26803
 C42 C 1.28317 -0.29850 -0.24083
 C43 C 1.16823 -0.25338 -0.26884
 C44 C 1.20089 -0.21952 -0.24109
 H45 H 1.23823 -0.26049 -0.38072
 H46 H 1.29396 -0.20376 -0.22993
 H47 H 1.25249 -0.37977 -0.26143
 H48 H 1.12158 -0.25370 -0.26336
 C49 C 0.23539 0.20985 0.80338
 C50 C 0.26570 0.24662 0.83574
 C51 C 0.29989 0.28394 0.80749
 C52 C 0.29640 0.27840 0.75094
 C53 C 0.19850 0.25210 0.76508
 C54 C 0.23013 0.28812 0.73734
 C55 C 0.28300 0.17629 0.77014
 C56 C 0.31424 0.21213 0.74125
 H57 H 0.26316 0.24582 0.87792
 H58 H 0.32234 0.30767 0.72864
 H59 H 0.15280 0.24869 0.75640
 H60 H 0.28684 0.12892 0.76581
 C61 C 0.72683 0.69980 0.80669
 C62 C 0.76284 0.73529 0.83580
 C63 C 0.79353 0.77271 0.80370
 C64 C 0.78188 0.76766 0.74785
 C65 C 0.68787 0.74174 0.77448
 C66 C 0.71782 0.77915 0.74187
 C67 C 0.76684 0.66738 0.77052
 C68 C 0.79670 0.70480 0.73711
 H69 H 0.76474 0.73544 0.87804
 H70 H 0.80575 0.79681 0.72322
 H71 H 0.64116 0.73948 0.76987
 H72 H 0.76982 0.62002 0.76607
 C73 C 0.73354 0.18985 0.30756
 C74 C 0.77293 0.22411 0.33892
 C75 C 0.80347 0.25953 0.30980
 C76 C 0.79199 0.25673 0.25052
 C77 C 0.69432 0.23648 0.27450
 C78 C 0.72466 0.27148 0.24434
 C79 C 0.77405 0.15572 0.26892
 C80 C 0.80417 0.19036 0.23811
 H81 H 0.77322 0.22383 0.38117
 H82 H 0.81759 0.28495 0.22669
 H83 H 0.64697 0.23795 0.27146
 H84 H 0.77309 0.10924 0.26269
 C85 C 0.22083 0.70906 0.30981
 C86 C 0.25525 0.75035 0.33835
 C87 C 0.28480 0.78435 0.30698
 C88 C 0.27824 0.77258 0.24843
 C89 C 0.18116 0.74870 0.27100
 C90 C 0.21118 0.78223 0.23883
 C91 C 0.26574 0.67250 0.27643
 C92 C 0.29523 0.70509 0.24320
 H93 H 0.25509 0.75354 0.38043
 H94 H 0.30354 0.79938 0.22291
 H95 H 0.13417 0.74790 0.26739
 H96 H 0.26860 0.62493 0.27549
 O97 O 1.10417 0.06187 0.02891
 O98 O 0.89169 -0.05831 0.02339
 O99 O 0.92132 0.11819 0.01769
 O100 O 1.07393 -0.11503 0.03432
 O101 O 0.89434 0.03967 0.04793
 O102 O 1.09850 -0.03534 0.06147
 O103 O 0.97268 -0.09474 0.05897
 O104 O 1.01949 0.10274 0.05127
 C105 C 1.07295 0.09406 0.05902
 C106 C 0.91864 -0.08471 0.06110
 C107 C 0.89920 0.09195 0.05377
 C108 C 1.09652 -0.08831 0.06905
 O109 O 1.11760 -0.07559 -0.03732
 O110 O 0.88483 0.07483 -0.05434
 O111 O 1.06037 0.10764 -0.04683
 O112 O 0.94204 -0.10846 -0.04275
 O113 O 0.90557 -0.02678 -0.07841
 O114 O 1.10209 0.02361 -0.06990
 O115 O 1.03998 -0.10340 -0.06739
 O116 O 0.96450 0.10180 -0.08052
 Co117 Co 1.09519 -0.00582 -0.00472
 Co118 Co 0.90437 0.00681 -0.01497
 Co119 Co 0.99208 0.09715 -0.01420
 Co120 Co 1.00638 -0.09482 -0.00464
 O121 O 0.99955 0.00089 -0.00977
 C122 C 1.09250 -0.09929 -0.07244
 C123 C 0.91195 0.09948 -0.08830
 C124 C 1.09417 0.07755 -0.07654
 C125 C 0.91398 -0.08121 -0.07963
 O126 O 1.07239 0.51772 0.57408
 O127 O 0.87820 0.44511 0.53675
 O128 O 0.92982 0.62127 0.52781
 O129 O 1.06142 0.41101 0.56551
 O130 O 0.87802 0.55242 0.55451
 O131 O 1.13948 0.43987 0.53054
 O132 O 0.95820 0.41289 0.57677
 O133 O 1.03586 0.60305 0.54120
 C134 C 1.06363 0.57252 0.57714
 C135 C 0.90391 0.41950 0.57530
 C136 C 0.89440 0.60194 0.55954
 C137 C 1.11704 0.40412 0.56204
 O138 O 1.08672 0.46434 0.44294
 O139 O 0.87091 0.57644 0.45738
 O140 O 1.04773 0.57418 0.43794
 O141 O 0.94345 0.38856 0.47308
 O142 O 0.88783 0.46643 0.43841
 O143 O 1.11806 0.54856 0.48874
 O144 O 1.04966 0.38657 0.46256
 O145 O 0.95134 0.59061 0.42439
 Co146 Co 1.07544 0.48915 0.50850
 Co147 Co 0.88922 0.50933 0.49694
 Co148 Co 0.99068 0.59037 0.48450
 Co149 Co 1.00194 0.40846 0.51767
 O150 O 0.98607 0.50207 0.50066
 C151 C 1.07944 0.41369 0.43243
 C152 C 0.89796 0.59700 0.42170
 C153 C 1.09923 0.57757 0.44941
 C154 C 0.90720 0.41229 0.43831
 O155 O 0.56491 0.04373 0.57739
 O156 O 0.38762 -0.05183 0.54349
 O157 O 0.44650 0.12055 0.52851
 O158 O 0.57513 -0.12714 0.53599
 O159 O 0.39858 0.05397 0.56545
 O160 O 0.57178 -0.05486 0.58185
 O161 O 0.46863 -0.11094 0.56024
 O162 O 0.55092 0.11285 0.52147
 C163 C 0.56679 0.09574 0.56627
 C164 C 0.41524 -0.09521 0.56791
 C165 C 0.41753 0.10259 0.56645
 C166 C 0.58788 -0.10710 0.57780
 O167 O 0.61730 -0.06251 0.47759
 O168 O 0.37771 0.08572 0.47130
 O169 O 0.54720 0.06265 0.42628
 O170 O 0.44053 -0.10525 0.46031
 O171 O 0.38667 -0.02033 0.44416
 O172 O 0.61637 0.04112 0.48085
 O173 O 0.54722 -0.10284 0.44014
 O174 O 0.44846 0.07811 0.42299
 Co175 Co 0.58500 -0.00833 0.52721
 Co176 Co 0.39883 0.01467 0.50574
 Co177 Co 0.49732 0.08593 0.47724
 Co178 Co 0.50659 -0.10044 0.49948
 O179 O 0.49657 -0.00251 0.50238
 C180 C 0.59776 -0.08903 0.43954
 C181 C 0.39690 0.09667 0.42846
 C182 C 0.59980 0.05882 0.43632
 C183 C 0.40092 -0.07366 0.43457
 O184 O 0.61009 0.55670 0.04193
 O185 O 0.39306 0.44090 0.04016
 O186 O 0.42835 0.61631 0.03481
 O187 O 0.57520 0.38066 0.04950
 O188 O 0.40023 0.53857 0.06603
 O189 O 0.60409 0.45969 0.07468
 O190 O 0.47368 0.40166 0.07474
 O191 O 0.52614 0.59717 0.06608
 C192 C 0.57969 0.58964 0.07212
 C193 C 0.41954 0.41181 0.07680
 C194 C 0.40488 0.59116 0.07080
 C195 C 0.60113 0.40694 0.08257
 O196 O 0.61927 0.41853 -0.02364
 O197 O 0.38894 0.57474 -0.03573
 O198 O 0.56540 0.60243 -0.03296
 O199 O 0.44209 0.39084 -0.02723
 O200 O 0.40628 0.47385 -0.06108
 O201 O 0.60441 0.51797 -0.05695
 O202 O 0.54065 0.39152 -0.05222
 O203 O 0.46897 0.59756 -0.06455
 Co204 Co 0.59901 0.48908 0.00868
 Co205 Co 0.40756 0.50614 0.00266
 Co206 Co 0.49763 0.59290 0.00124
 Co207 Co 0.50744 0.40154 0.01086
 O208 O 0.50299 0.49735 0.00589
 C209 C 0.59307 0.39532 -0.05847
 C210 C 0.41614 0.59641 -0.07125
 C211 C 0.59734 0.57187 -0.06371
 C212 C 0.41527 0.41962 -0.06400
 C213 C 1.14262 0.17215 0.07912
 C214 C 1.11366 0.21736 0.11794
 C215 C 1.15860 0.19059 0.15953
 C216 C 1.18773 0.14568 0.12101
 C217 C 1.11702 0.14723 0.17795
 C218 C 1.07168 0.17351 0.13569
 C219 C 1.10121 0.12868 0.09732
 C220 C 1.14597 0.10193 0.13891
 H221 H 1.15261 0.18262 0.03816
 H222 H 1.10098 0.26524 0.10968
 H223 H 1.23577 0.13469 0.11523
 H224 H 1.10702 0.13753 0.21914
 H225 H 1.02361 0.18436 0.14114
 H226 H 1.15905 0.05417 0.14704
 C227 C 1.13430 0.64874 0.59018
 C228 C 1.11243 0.69212 0.63284
 C229 C 1.16546 0.66573 0.66672
 C230 C 1.18745 0.62262 0.62422
 C231 C 1.12939 0.62042 0.69123
 C232 C 1.07583 0.64649 0.65668
 C233 C 1.09801 0.60326 0.61429
 C234 C 1.15113 0.57681 0.64803
 H235 H 1.13560 0.66064 0.54825
 H236 H 1.09725 0.73991 0.62639
 H237 H 1.23351 0.61342 0.61082
 H238 H 1.12809 0.60922 0.73338
 H239 H 1.02970 0.65571 0.66991
 H240 H 1.16799 0.52950 0.65414
 C241 C 0.65688 0.10630 0.62914
 C242 C 0.68397 0.16174 0.61259
 C243 C 0.66084 0.19099 0.65995
 C244 C 0.63523 0.13895 0.67862
 C245 C 0.60575 0.21731 0.63380
 C246 C 0.62668 0.18659 0.58310
 C247 C 0.59889 0.13195 0.60099
 C248 C 0.57660 0.16301 0.65091
 H249 H 0.67961 0.06032 0.62867
 H250 H 0.72942 0.16236 0.59845
 H251 H 0.64026 0.12090 0.71912
 H252 H 0.58642 0.26424 0.63712
 H253 H 0.62391 0.20775 0.54371
 H254 H 0.53303 0.16379 0.66892
 C255 C 0.65742 0.60595 0.14600
 C256 C 0.69327 0.65278 0.12353
 C257 C 0.66423 0.69726 0.16261
 C258 C 0.62853 0.65075 0.18545
 C259 C 0.61462 0.71920 0.12363
 C260 C 0.64346 0.67441 0.08429
 C261 C 0.60800 0.62783 0.10702
 C262 C 0.57843 0.67216 0.14585
 H263 H 0.67454 0.55901 0.15481
 H264 H 0.74082 0.64542 0.11446
 H265 H 0.62279 0.64181 0.22755
 H266 H 0.59764 0.76618 0.11482
 H267 H 0.64905 0.68382 0.04228
 H268 H 0.53080 0.67924 0.15461
 C269 C 0.84406 -0.15571 0.08386
 C270 C 0.86346 -0.19576 0.13164
 C271 C 0.81296 -0.16230 0.16254
 C272 C 0.79365 -0.12218 0.11491
 C273 C 0.85339 -0.11868 0.18128
 C274 C 0.90458 -0.15179 0.14954
 C275 C 0.88466 -0.11200 0.10185
 C276 C 0.83445 -0.07828 0.13293
 H277 H 0.84037 -0.17118 0.04359
 H278 H 0.87497 -0.24445 0.13134
 H279 H 0.74773 -0.10997 0.10071
 H280 H 0.85665 -0.10369 0.22175
 H281 H 0.95044 -0.16369 0.16374
 H282 H 0.82304 -0.02957 0.13309
 C283 C 0.82941 0.34627 0.59404
 C284 C 0.84851 0.30450 0.64088
 C285 C 0.79690 0.33583 0.67194
 C286 C 0.77785 0.37763 0.62526
 C287 C 0.83610 0.37948 0.69296
 C288 C 0.88840 0.34857 0.66106
 C289 C 0.86880 0.39005 0.61426
 C290 C 0.81746 0.42158 0.64555
 H291 H 0.82663 0.33245 0.55318
 H292 H 0.86099 0.25600 0.63912
 H293 H 0.73216 0.38975 0.61045
 H294 H 0.83844 0.39298 0.73397
 H295 H 0.93430 0.33689 0.67545
 H296 H 0.80513 0.47011 0.64719
 C297 C 0.33000 -0.15855 0.58302
 C298 C 0.35192 -0.21492 0.61550
 C299 C 0.31381 -0.18994 0.66094
 C300 C 0.29186 -0.13378 0.62866
 C301 C 0.36538 -0.16126 0.68273
 C302 C 0.40388 -0.18578 0.63664
 C303 C 0.38157 -0.12967 0.60429
 C304 C 0.34376 -0.10449 0.64981
 H305 H 0.31504 -0.15724 0.54193
 H306 H 0.35510 -0.26065 0.60138
 H307 H 0.24548 -0.11258 0.62553
 H308 H 0.37967 -0.16259 0.72409
 H309 H 0.45026 -0.20696 0.63967
 H310 H 0.34086 -0.05867 0.66366
 C311 C 0.34351 0.34018 0.09387
 C312 C 0.36213 0.29580 0.13894
 C313 C 0.31167 0.32672 0.17164
 C314 C 0.29320 0.37116 0.12667
 C315 C 0.35271 0.36790 0.19399
 C316 C 0.40382 0.33735 0.16052
 C317 C 0.38469 0.38153 0.11549
 C318 C 0.33453 0.41269 0.14835
 H319 H 0.33975 0.32852 0.05248
 H320 H 0.37324 0.24737 0.13514
 H321 H 0.24745 0.38510 0.11267
 H322 H 0.35605 0.37911 0.23552
 H323 H 0.44966 0.32362 0.17424
 H324 H 0.32355 0.46116 0.15199
 C325 C 0.83209 0.18561 -0.12469
 C326 C 0.85721 0.21893 -0.17063
 C327 C 0.81635 0.19182 -0.20799
 C328 C 0.79092 0.15893 -0.16253
 C329 C 0.86390 0.13870 -0.21639
 C330 C 0.90524 0.16530 -0.17830
 C331 C 0.87952 0.13248 -0.13294
 C332 C 0.83879 0.10553 -0.17039
 H333 H 0.81948 0.20445 -0.08639
 H334 H 0.86506 0.26565 -0.17055
 H335 H 0.74354 0.15657 -0.15632
 H336 H 0.87677 0.11972 -0.25458
 H337 H 0.95263 0.16741 -0.18453
 H338 H 0.83153 0.05865 -0.16991
 C339 C 0.82631 0.69059 0.38450
 C340 C 0.85755 0.71844 0.33883
 C341 C 0.81472 0.69568 0.30075
 C342 C 0.78297 0.66839 0.34578
 C343 C 0.85622 0.63760 0.29486
 C344 C 0.89949 0.65989 0.33348
 C345 C 0.86754 0.63256 0.37835
 C346 C 0.82477 0.60999 0.34026
 H347 H 0.81444 0.71140 0.42217
 H348 H 0.87070 0.76328 0.33774
 H349 H 0.73457 0.67275 0.35025
 H350 H 0.86843 0.61642 0.25741
 H351 H 0.94785 0.65571 0.32885
 H352 H 0.81167 0.56511 0.34145
 C353 C 0.34474 0.10339 0.33577
 C354 C 0.28152 0.13588 0.34061
 C355 C 0.29991 0.18903 0.31012
 C356 C 0.36272 0.15683 0.30497
 C357 C 0.31640 0.21682 0.36102
 C358 C 0.29849 0.16323 0.39195
 C359 C 0.36126 0.13100 0.38663
 C360 C 0.37979 0.18413 0.35643
 H361 H 0.35667 0.05639 0.32587
 H362 H 0.24068 0.11612 0.33414
 H363 H 0.38882 0.15469 0.26879
 H364 H 0.30474 0.26380 0.37107
 H365 H 0.27234 0.16548 0.42811
 H366 H 0.42069 0.20362 0.36338
 C367 C 0.41035 0.64801 -0.16749
 C368 C 0.36522 0.61869 -0.19929
 C369 C 0.32156 0.67581 -0.19653
 C370 C 0.36616 0.70560 -0.16542
 C371 C 0.29560 0.65359 -0.14613
 C372 C 0.33950 0.59631 -0.14841
 C373 C 0.38405 0.62582 -0.11722
 C374 C 0.34051 0.68292 -0.11441
 H375 H 0.45793 0.64519 -0.17583
 H376 H 0.37497 0.59253 -0.23468
 H377 H 0.37700 0.75079 -0.17271
 H378 H 0.24802 0.65582 -0.13790
 H379 H 0.32831 0.55159 -0.14007
 H380 H 0.33071 0.70898 -0.07896
 C381 C 1.10894 -0.11220 -0.17365
 C382 C 1.17516 -0.11819 -0.18705
 C383 C 1.17463 -0.18417 -0.19655
 C384 C 1.10867 -0.17830 -0.18354
 C385 C 1.19117 -0.19951 -0.13930
 C386 C 1.19112 -0.13311 -0.12901
 C387 C 1.12527 -0.12792 -0.11658
 C388 C 1.12512 -0.19368 -0.12618
 H389 H 1.07475 -0.07586 -0.18724
 H390 H 1.19601 -0.08747 -0.21259
 H391 H 1.07265 -0.19547 -0.20471
 H392 H 1.22539 -0.23536 -0.12517
 H393 H 1.22457 -0.11410 -0.10592
 H394 H 1.10436 -0.22461 -0.10077
 C395 C 1.09990 0.41076 0.32986
 C396 C 1.16715 0.39559 0.32216
 C397 C 1.15782 0.33415 0.30389
 C398 C 1.09087 0.34897 0.31101
 C399 C 1.16506 0.30901 0.35991
 C400 C 1.17402 0.37077 0.37878
 C401 C 1.10720 0.38534 0.38569
 C402 C 1.09803 0.32398 0.36742
 H403 H 1.07266 0.45295 0.31812
 H404 H 1.19589 0.42472 0.30313
 H405 H 1.05575 0.34084 0.28337
 H406 H 1.19179 0.26671 0.37199
 H407 H 1.20785 0.37998 0.40732
 H408 H 1.06972 0.29447 0.38651
 C409 C 0.61142 -0.09507 0.33901
 C410 C 0.67546 -0.09573 0.32043
 C411 C 0.67823 -0.16187 0.30974
 C412 C 0.61461 -0.16124 0.32806
 C413 C 0.70171 -0.17762 0.36525
 C414 C 0.69806 -0.11105 0.37703
 C415 C 0.63423 -0.11101 0.39466
 C416 C 0.63791 -0.17711 0.38355
 H417 H 0.57416 -0.06050 0.32840
 H418 H 0.69094 -0.06263 0.29357
 H419 H 0.57836 -0.18096 0.30970
 H420 H 0.73910 -0.21167 0.37599
 H421 H 0.73218 -0.09040 0.39775
 H422 H 0.62274 -0.21099 0.40982
 C423 C 0.60612 0.38700 -0.16067
 C424 C 0.67186 0.38213 -0.17550
 C425 C 0.67127 0.31681 -0.18788
 C426 C 0.60575 0.32155 -0.17357
 C427 C 0.68955 0.29817 -0.13161
 C428 C 0.68963 0.36388 -0.11840
 C429 C 0.62421 0.36814 -0.10446
 C430 C 0.62386 0.30303 -0.11700
 H431 H 0.57151 0.42390 -0.17218
 H432 H 0.69181 0.41449 -0.20000
 H433 H 0.56950 0.30525 -0.19514
 H434 H 0.72382 0.26155 -0.11934
 H435 H 0.72382 0.38161 -0.09519
 H436 H 0.60395 0.27057 -0.09258
 C437 C 1.17283 0.14824 -0.08860
 C438 C 1.22180 0.12259 -0.12566
 C439 C 1.19846 0.17056 -0.16636
 C440 C 1.14970 0.19631 -0.12953
 C441 C 1.15769 0.12984 -0.18989
 C442 C 1.18048 0.08139 -0.14852
 C443 C 1.13188 0.10770 -0.11182
 C444 C 1.10857 0.15544 -0.15259
 H445 H 1.17918 0.15526 -0.04661
 H446 H 1.26874 0.10974 -0.11481
 H447 H 1.13747 0.24387 -0.12178
 H448 H 1.15211 0.12282 -0.23206
 H449 H 1.19237 0.03372 -0.15601
 H450 H 1.06165 0.16844 -0.16340
 C451 C 1.10440 0.65124 0.37083
 C452 C 1.14253 0.69884 0.38553
 C453 C 1.18914 0.67211 0.34723
 C454 C 1.15135 0.62471 0.33228
 C455 C 1.21995 0.63133 0.39068
 C456 C 1.17279 0.65783 0.42940
 C457 C 1.13504 0.61049 0.41446
 C458 C 1.18153 0.58350 0.37619
 H459 H 1.05639 0.65952 0.36281
 H460 H 1.12649 0.74659 0.38873
 H461 H 1.14264 0.61175 0.29198
 H462 H 1.26806 0.62360 0.39820
 H463 H 1.18245 0.67126 0.46927
 H464 H 1.19733 0.53568 0.37305
 C465 C 0.61186 0.13216 0.35785
 C466 C 0.65023 0.17744 0.37749
 C467 C 0.69945 0.15131 0.34133
 C468 C 0.66142 0.10616 0.32143
 C469 C 0.72577 0.10772 0.38460
 C470 C 0.67605 0.13367 0.42103
 C471 C 0.63800 0.08856 0.40119
 C472 C 0.68713 0.06208 0.36527
 H473 H 0.56463 0.14201 0.34689
 H474 H 0.63535 0.22519 0.38225
 H475 H 0.65569 0.09543 0.28003
 H476 H 0.77311 0.09827 0.39516
 H477 H 0.68180 0.14448 0.46242
 H478 H 0.70233 0.01448 0.36088
 C479 C 0.67712 0.64147 -0.08182
 C480 C 0.72136 0.61680 -0.12337
 C481 C 0.69428 0.66274 -0.16048
 C482 C 0.65182 0.68915 -0.12220
 C483 C 0.65309 0.62469 -0.18096
 C484 C 0.67816 0.57500 -0.14169
 C485 C 0.63325 0.60129 -0.10133
 C486 C 0.60707 0.64966 -0.14084
 H487 H 0.68856 0.64925 -0.04085
 H488 H 0.76957 0.60527 -0.11776
 H489 H 0.64253 0.73724 -0.11542
 H490 H 0.64499 0.61947 -0.22310
 H491 H 0.68983 0.52773 -0.15080
 H492 H 0.55982 0.66449 -0.14916
 C493 C 0.83851 -0.09415 -0.16171
 C494 C 0.86783 -0.14491 -0.19605
 C495 C 0.82622 -0.18582 -0.17300
 C496 C 0.79648 -0.13576 -0.13947
 C497 C 0.87075 -0.20628 -0.12901
 C498 C 0.91270 -0.16499 -0.15136
 C499 C 0.88282 -0.11512 -0.11764
 C500 C 0.84103 -0.15622 -0.09534
 H501 H 0.82535 -0.04777 -0.17508
 H502 H 0.87879 -0.14049 -0.23776
 H503 H 0.74837 -0.12395 -0.13461
 H504 H 0.88413 -0.25262 -0.11543
 H505 H 0.96085 -0.17669 -0.15602
 H506 H 0.82975 -0.16089 -0.05373
 C507 C 0.83762 0.39517 0.35609
 C508 C 0.87162 0.35105 0.31832
 C509 C 0.83511 0.30337 0.33727
 C510 C 0.80090 0.34706 0.37442
 C511 C 0.88083 0.28293 0.38040
 C512 C 0.91771 0.33110 0.36211
 C513 C 0.88306 0.37425 0.39932
 C514 C 0.84655 0.32655 0.41766
 H515 H 0.81992 0.44178 0.34643
 H516 H 0.88171 0.36079 0.27717
 H517 H 0.75250 0.35361 0.37927
 H518 H 0.89867 0.23639 0.39021
 H519 H 0.96605 0.32496 0.35734
 H520 H 0.83619 0.31635 0.45864
 C521 C 0.40114 -0.14261 0.35176
 C522 C 0.36758 -0.19305 0.37027
 C523 C 0.31737 -0.17083 0.33180
 C524 C 0.35050 -0.12051 0.31257
 C525 C 0.28644 -0.13070 0.37352
 C526 C 0.33655 -0.15344 0.41200
 C527 C 0.36989 -0.10323 0.39371
 C528 C 0.32002 -0.08002 0.35516
 H529 H 0.44880 -0.14710 0.34320
 H530 H 0.38732 -0.23978 0.37646
 H531 H 0.35607 -0.10748 0.27127
 H532 H 0.23886 -0.12582 0.38246
 H533 H 0.33062 -0.16752 0.45289
 H534 H 0.30055 -0.03316 0.34944
 C535 C 0.34623 0.41106 -0.15148
 C536 C 0.37550 0.35930 -0.18444
 C537 C 0.33249 0.32237 -0.16491
 C538 C 0.30158 0.37000 -0.13414
 C539 C 0.37060 0.29855 -0.12092
 C540 C 0.41703 0.33751 -0.13795
 C541 C 0.38628 0.38780 -0.10475
 C542 C 0.34081 0.34804 -0.08687
 H543 H 0.33497 0.45695 -0.16650
 H544 H 0.38864 0.36233 -0.22573
 H545 H 0.25303 0.38171 -0.13401
 H546 H 0.37963 0.25097 -0.10974
 H547 H 0.46500 0.32282 -0.14047
 H548 H 0.32490 0.34201 -0.04673
 C549 C 1.09913 -0.16433 0.15048
 C550 C 1.15567 -0.20925 0.14652
 C551 C 1.18152 -0.18177 0.19393
 C552 C 1.12527 -0.13722 0.19843
 C553 C 1.20928 -0.13846 0.15836
 C554 C 1.18306 -0.16561 0.11044
 C555 C 1.12686 -0.12107 0.11494
 C556 C 1.15266 -0.09349 0.16230
 H557 H 1.05370 -0.17493 0.14665
 H558 H 1.15721 -0.25724 0.14039
 H559 H 1.10171 -0.12578 0.23507
 H560 H 1.25470 -0.12751 0.16142
 H561 H 1.20662 -0.17711 0.07381
 H562 H 1.15095 -0.04567 0.16889
 C563 C 1.21854 0.35053 0.61012
 C564 C 1.21944 0.37789 0.66477
 C565 C 1.20417 0.32014 0.68927
 C566 C 1.20366 0.29222 0.63549
 C567 C 1.13805 0.34257 0.68415
 C568 C 1.15291 0.40044 0.65926
 C569 C 1.15245 0.37268 0.60544
 C570 C 1.13731 0.31502 0.63012
 H571 H 1.25124 0.35387 0.57908
 H572 H 1.25327 0.40364 0.67966
 H573 H 1.22374 0.24692 0.62623
 H574 H 1.10456 0.34008 0.71466
 H575 H 1.13014 0.44449 0.66923
 H576 H 1.10344 0.28916 0.61551
 C577 C 0.60595 -0.18964 0.65449
 C578 C 0.66861 -0.22417 0.65030
 C579 C 0.68782 -0.19189 0.69794
 C580 C 0.62560 -0.15783 0.70259
 C581 C 0.70673 -0.14279 0.66297
 C582 C 0.68688 -0.17437 0.61453
 C583 C 0.62464 -0.14056 0.61946
 C584 C 0.64416 -0.10848 0.66722
 H585 H 0.56434 -0.20870 0.65057
 H586 H 0.67948 -0.27219 0.64393
 H587 H 0.60062 -0.15064 0.73916
 H588 H 0.74819 -0.12342 0.66676
 H589 H 0.71139 -0.18110 0.57768
 H590 H 0.63379 -0.06051 0.67412
 C591 C 0.68578 0.32424 0.11799
 C592 C 0.72118 0.34923 0.16171
 C593 C 0.69391 0.31027 0.20165
 C594 C 0.65889 0.28495 0.15837
 C595 C 0.64254 0.35967 0.21026
 C596 C 0.66938 0.39916 0.16970
 C597 C 0.63442 0.37354 0.12658
 C598 C 0.60725 0.33465 0.16653
 H599 H 0.70320 0.30987 0.07956
 H600 H 0.76822 0.35519 0.15967
 H601 H 0.65491 0.23756 0.15396
 H602 H 0.62514 0.37400 0.24869
 H603 H 0.67323 0.44655 0.17410
 H604 H 0.56013 0.32892 0.16815
 C605 C 0.81432 0.11672 0.12148
 C606 C 0.84093 0.10068 0.17605
 C607 C 0.83250 0.16676 0.18889
 C608 C 0.80592 0.18290 0.13447
 C609 C 0.89435 0.17276 0.16891
 C610 C 0.90286 0.10643 0.15562
 C611 C 0.87598 0.12239 0.10137
 C612 C 0.86811 0.18841 0.11367
 H613 H 0.78139 0.09356 0.10166
 H614 H 0.83111 0.06290 0.20068
 H615 H 0.76583 0.21447 0.12582
 H616 H 0.92689 0.19602 0.18912
 H617 H 0.94315 0.07471 0.16376
 H618 H 0.87948 0.22420 0.08739
 C619 C 0.89007 0.69073 0.63121
 C620 C 0.82422 0.71622 0.63730
 C621 C 0.82365 0.68327 0.69023
 C622 C 0.88893 0.65857 0.68501
 C623 C 0.80521 0.62911 0.66355
 C624 C 0.80604 0.66156 0.61038
 C625 C 0.87117 0.63654 0.60506
 C626 C 0.87060 0.60416 0.65820
 H627 H 0.92520 0.71578 0.61728
 H628 H 0.80536 0.76271 0.62882
 H629 H 0.92281 0.65734 0.71616
 H630 H 0.77012 0.60304 0.67566
 H631 H 0.77206 0.66289 0.57932
 H632 H 0.88988 0.55768 0.66666
 C633 C 0.41514 0.19575 0.63615
 C634 C 0.34896 0.22064 0.64039
 C635 C 0.34689 0.18930 0.69390
 C636 C 0.41253 0.16534 0.69075
 C637 C 0.33029 0.13395 0.66791
 C638 C 0.33245 0.16490 0.61443
 C639 C 0.39787 0.14021 0.61101
 C640 C 0.39591 0.10968 0.66483
 H641 H 0.44983 0.22128 0.62209
 H642 H 0.33016 0.26688 0.63070
 H643 H 0.44482 0.16566 0.72301
 H644 H 0.29520 0.10746 0.67905
 H645 H 0.29950 0.16480 0.58265
 H646 H 0.41555 0.06371 0.67498
 C647 C 0.31319 0.62569 0.12940
 C648 C 0.33122 0.61020 0.18648
 C649 C 0.32735 0.67666 0.19739
 C650 C 0.30926 0.69222 0.14045
 C651 C 0.39258 0.67557 0.18388
 C652 C 0.39661 0.60887 0.17262
 C653 C 0.37823 0.62429 0.11590
 C654 C 0.37487 0.69060 0.12624
 H655 H 0.28061 0.60498 0.10668
 H656 H 0.31431 0.57499 0.20987
 H657 H 0.27330 0.72686 0.12726
 H658 H 0.42504 0.69632 0.20668
 H659 H 0.43288 0.57423 0.18541
 H660 H 0.39315 0.72333 0.10086
   
