data_POSCAR
  _audit_creation_date              2014-09-24
  _audit_creation_method            'ToBaCCo'
  _symmetry_space_group_name_H-M    'P1'
  _symmetry_Int_Tables_number       1
  _symmetry_cell_setting            triclinic
  loop_
  _symmetry_equiv_pos_as_xyz
 x,y,z
_cell_length_a 40.3684
_cell_length_b 40.3515
_cell_length_c 45.6426
_cell_angle_alpha 90.076300
_cell_angle_beta 89.961000
_cell_angle_gamma 120.038800
loop_
  _atom_site_label
  _atom_site_type_symbol
  _atom_site_fract_x
  _atom_site_fract_y
  _atom_site_fract_z
O1 O 0.03646 0.54558 1.27835
 O2 O -0.03787 0.50883 1.22110
 O3 O -0.03799 0.50826 1.27818
 O4 O 0.03659 0.54613 1.22127
 O5 O 0.03661 0.49133 1.22083
 O6 O -0.03797 0.45346 1.27773
 O7 O -0.03785 0.45404 1.22065
 O8 O 0.03649 0.49079 1.27791
 Cu9 Cu -0.00071 0.53273 1.24977
 Cu10 Cu -0.00068 0.46687 1.24924
 C11 C 0.04898 0.52436 1.28782
 C12 C -0.05037 0.47525 1.21117
 C13 C -0.05051 0.47450 1.28759
 C14 C 0.04914 0.52510 1.21142
 O15 O 0.45364 0.49175 1.27940
 O16 O 0.49051 0.45414 1.22215
 O17 O 0.49093 0.45455 1.27924
 O18 O 0.45318 0.49128 1.22229
 O19 O 0.50796 0.54616 1.22199
 O20 O 0.54571 0.50943 1.27894
 O21 O 0.54528 0.50902 1.22185
 O22 O 0.50841 0.54661 1.27910
 Cu23 Cu 0.46654 0.46740 1.25081
 Cu24 Cu 0.53236 0.53334 1.25045
 C25 C 0.47482 0.52552 1.28895
 C26 C 0.52410 0.47525 1.21231
 C27 C 0.52467 0.47581 1.28872
 C28 C 0.47423 0.52488 1.21249
 O29 O 0.50801 0.96253 1.27982
 O30 O 0.54595 1.03696 1.22264
 O31 O 0.54542 1.03706 1.27974
 O32 O 0.50852 0.96245 1.22272
 O33 O 0.45379 0.96257 1.22233
 O34 O 0.49071 1.03719 1.27934
 O35 O 0.49123 1.03708 1.22225
 O36 O 0.45329 0.96266 1.27944
 Cu37 Cu 0.53249 0.99973 1.25127
 Cu38 Cu 0.46674 0.99989 1.25080
 C39 C 0.47426 0.95006 1.28932
 C40 C 0.52497 1.04953 1.21275
 C41 C 0.52428 1.04969 1.28919
 C42 C 0.47496 0.94998 1.21286
 O43 O 0.96325 0.50913 0.72110
 O44 O 1.03788 0.54600 0.77803
 O45 O 1.03776 0.54647 0.72092
 O46 O 0.96339 0.50868 0.77821
 O47 O 0.96341 0.45389 0.77775
 O48 O 1.03778 0.49169 0.72046
 O49 O 1.03790 0.49121 0.77757
 O50 O 0.96327 0.45433 0.72065
 Cu51 Cu 1.00057 0.53310 0.74961
 Cu52 Cu 1.00060 0.46725 0.74906
 C53 C 0.95071 0.47553 0.71124
 C54 C 1.05043 0.52480 0.78745
 C55 C 1.05030 0.52544 0.71099
 C56 C 0.95089 0.47493 0.78769
 O57 O 0.49088 0.45357 0.72169
 O58 O 0.45435 0.49158 0.77868
 O59 O 0.45383 0.49096 0.72159
 O60 O 0.49142 0.45422 0.77877
 O61 O 0.54631 0.50898 0.77836
 O62 O 0.50872 0.54573 0.72118
 O63 O 0.50924 0.54635 0.77827
 O64 O 0.54578 0.50834 0.72128
 Cu65 Cu 0.46708 0.46706 0.75022
 Cu66 Cu 0.53305 0.53288 0.74973
 C67 C 0.52447 0.47456 0.71184
 C68 C 0.47566 0.52536 0.78813
 C69 C 0.47495 0.52452 0.71170
 C70 C 0.52519 0.47542 0.78825
 O71 O 0.54608 0.03660 0.72122
 O72 O 0.50852 -0.03789 0.77817
 O73 O 0.50890 -0.03790 0.72108
 O74 O 0.54568 0.03660 0.77831
 O75 O 0.49085 0.03650 0.77804
 O76 O 0.45407 -0.03799 0.72081
 O77 O 0.45368 -0.03799 0.77791
 O78 O 0.49125 0.03651 0.72096
 Cu79 Cu 0.53283 -0.00064 0.74972
 Cu80 Cu 0.46692 -0.00076 0.74940
 C81 C 0.52498 0.04908 0.71145
 C82 C 0.47479 -0.05044 0.78769
 C83 C 0.47530 -0.05048 0.71124
 C84 C 0.52445 0.04908 0.78788
 O85 O 0.38966 0.66871 0.96669
 O86 O 0.39126 0.73330 0.97564
 C87 C 0.36735 0.73844 0.96118
 O88 O 0.33184 0.72113 0.96647
 O89 O 0.26717 0.65815 0.97520
 C90 C 0.26206 0.62899 0.96082
 O91 O 0.27933 0.61081 0.96628
 O92 O 0.34223 0.60919 0.97544
 C93 C 0.37148 0.63323 0.96120
 O94 O 0.39094 0.65812 1.02498
 O95 O 0.38926 0.72107 1.03392
 C96 C 0.37107 0.73838 1.03926
 O97 O 0.34201 0.73323 1.02479
 O98 O 0.27900 0.66858 1.03352
 C99 C 0.26166 0.63307 1.03886
 O100 O 0.26689 0.60909 1.02452
 O101 O 0.33140 0.61071 1.03369
 C102 C 0.36686 0.62891 1.03923
 Cr103 Cr 0.38816 0.69424 1.00030
 Cr104 Cr 0.30607 0.69421 1.00000
 Cr105 Cr 0.30602 0.61207 0.99999
 O106 O 0.33342 0.66684 1.00010
 O107 O 0.60918 0.34176 0.97553
 O108 O 0.61069 0.27863 0.96688
 C109 C 0.62899 0.26149 0.96129
 O110 O 0.65840 0.26696 0.97543
 O111 O 0.72148 0.33163 0.96669
 C112 C 0.73864 0.36710 0.96112
 O113 O 0.73325 0.39107 0.97533
 O114 O 0.66858 0.38944 0.96677
 C115 C 0.63310 0.37109 0.96129
 O116 O 0.61091 0.33179 1.03392
 O117 O 0.60926 0.26707 1.02527
 C118 C 0.63323 0.26167 1.03942
 O119 O 0.66867 0.27881 1.03381
 O120 O 0.73332 0.34192 1.02506
 C121 C 0.73878 0.37133 1.03925
 O122 O 0.72165 0.38964 1.03373
 O123 O 0.65857 0.39119 1.02516
 C124 C 0.62922 0.36729 1.03941
 Cr125 Cr 0.61218 0.30590 1.00040
 Cr126 Cr 0.69439 0.30591 1.00025
 Cr127 Cr 0.69443 0.38817 1.00025
 O128 O 0.66700 0.33333 1.00030
 O129 O 0.65756 0.39039 0.52451
 O130 O 0.72051 0.38878 0.53341
 C131 C 0.73783 0.37062 0.53875
 O132 O 0.73263 0.34145 0.52436
 O133 O 0.66799 0.27847 0.53326
 C134 C 0.63250 0.26112 0.53863
 O135 O 0.60852 0.26627 0.52427
 O136 O 0.61015 0.33086 0.53332
 C137 C 0.62835 0.36635 0.53880
 O138 O 0.66807 0.38885 0.46622
 O139 O 0.73263 0.39046 0.47512
 C140 C 0.73778 0.36647 0.46071
 O141 O 0.72047 0.33097 0.46608
 O142 O 0.65751 0.26632 0.47497
 C143 C 0.62836 0.26113 0.46061
 O144 O 0.61022 0.27847 0.46600
 O145 O 0.60858 0.34143 0.47507
 C146 C 0.63258 0.37067 0.46079
 Cr147 Cr 0.69363 0.38750 0.49981
 Cr148 Cr 0.69359 0.30536 0.49967
 Cr149 Cr 0.61149 0.30532 0.49967
 O150 O 0.66624 0.33273 0.49971
 O151 O 0.33157 0.61076 0.53336
 O152 O 0.26688 0.60913 0.52486
 C153 C 0.26148 0.63307 0.53911
 O154 O 0.27865 0.66855 0.53360
 O155 O 0.34174 0.73323 0.52491
 C156 C 0.37117 0.73869 0.53900
 O157 O 0.38947 0.72156 0.53334
 O158 O 0.39096 0.65844 0.52459
 C159 C 0.36705 0.62909 0.53882
 O160 O 0.34154 0.60910 0.47496
 O161 O 0.27846 0.61068 0.46646
 C162 C 0.26133 0.62900 0.46098
 O163 O 0.26680 0.65839 0.47521
 O164 O 0.33144 0.72153 0.46652
 C165 C 0.36688 0.73868 0.46089
 O166 O 0.39085 0.73322 0.47498
 O167 O 0.38919 0.66851 0.46622
 C168 C 0.37087 0.63302 0.46071
 Cr169 Cr 0.30570 0.61209 0.49991
 Cr170 Cr 0.30574 0.69434 0.50005
 Cr171 Cr 0.38795 0.69435 0.49979
 O172 O 0.33313 0.66693 0.49992
 C173 C 0.40922 0.60082 0.36168
 C174 C 0.45085 0.60881 0.35891
 C175 C 0.43525 0.56613 0.35247
 C176 C 0.39384 0.55791 0.35488
 C177 C 0.40985 0.59241 0.39444
 C178 C 0.39426 0.54974 0.38800
 C179 C 0.45126 0.60063 0.39202
 C180 C 0.43588 0.55774 0.38523
 C181 C 0.44952 0.55142 0.32921
 C182 C 0.46137 0.53927 0.31022
 C183 C 0.39581 0.60699 0.41795
 C184 C 0.38437 0.61891 0.43741
 H185 H 0.39810 0.61869 0.35224
 H186 H 0.47428 0.63294 0.34669
 H187 H 0.37038 0.54019 0.33935
 H188 H 0.37083 0.52560 0.40021
 H189 H 0.47473 0.61835 0.40755
 H190 H 0.44699 0.53987 0.39468
 C191 C 0.44558 0.83230 0.37888
 C192 C 0.42530 0.82863 0.34924
 C193 C 0.43347 0.86993 0.35279
 C194 C 0.45397 0.87404 0.38207
 C195 C 0.40724 0.81827 0.39472
 C196 C 0.41541 0.85958 0.39826
 C197 C 0.38673 0.81415 0.36544
 C198 C 0.39513 0.85590 0.36863
 C199 C 0.44820 0.89889 0.32955
 C200 C 0.46041 0.92288 0.31057
 C201 C 0.39271 0.78966 0.41820
 C202 C 0.38087 0.76630 0.43763
 H203 H 0.46617 0.82230 0.38334
 H204 H 0.42952 0.81621 0.32883
 H205 H 0.48179 0.89898 0.38866
 H206 H 0.41120 0.87201 0.41866
 H207 H 0.35891 0.78920 0.35886
 H208 H 0.37454 0.86591 0.36417
 C209 C 0.19108 0.59928 0.36207
 C210 C 0.16373 0.55653 0.35464
 C211 C 0.13042 0.56459 0.35266
 C212 C 0.15731 0.60711 0.35972
 C213 C 0.18190 0.58997 0.39472
 C214 C 0.14857 0.59802 0.39273
 C215 C 0.15500 0.54744 0.38765
 C216 C 0.12125 0.55528 0.38531
 C217 C 0.10156 0.55035 0.32936
 C218 C 0.07765 0.53854 0.31032
 C219 C 0.21042 0.60401 0.41826
 C220 C 0.23373 0.61546 0.43772
 H221 H 0.22012 0.61754 0.35277
 H222 H 0.16966 0.53932 0.33872
 H223 H 0.15795 0.63150 0.34797
 H224 H 0.14265 0.61523 0.40865
 H225 H 0.15436 0.52306 0.39940
 H226 H 0.09222 0.53703 0.39462
 C227 C 0.57180 0.43282 0.40012
 C228 C 0.59643 0.46099 0.37564
 C229 C 0.56608 0.43544 0.35306
 C230 C 0.54123 0.40749 0.37719
 C231 C 0.59226 0.40990 0.39484
 C232 C 0.56192 0.38434 0.37226
 C233 C 0.61712 0.43785 0.37072
 C234 C 0.58655 0.41252 0.34777
 C235 C 0.55141 0.44975 0.32994
 C236 C 0.53925 0.46161 0.31105
 C237 C 0.60675 0.39578 0.41823
 C238 C 0.61858 0.38427 0.43760
 H239 H 0.56590 0.44100 0.42191
 H240 H 0.61045 0.49267 0.37677
 H241 H 0.50986 0.39517 0.37958
 H242 H 0.54790 0.35266 0.37114
 H243 H 0.64849 0.45017 0.36833
 H244 H 0.59244 0.40434 0.32597
 C245 C 0.57102 0.18477 0.36584
 C246 C 0.59562 0.17180 0.34854
 C247 C 0.56389 0.12995 0.35251
 C248 C 0.53908 0.14247 0.36943
 C249 C 0.58934 0.18164 0.39442
 C250 C 0.55761 0.13979 0.39837
 C251 C 0.61416 0.16913 0.37750
 C252 C 0.58221 0.12684 0.38109
 C253 C 0.54961 0.10098 0.32931
 C254 C 0.53774 0.07694 0.31037
 C255 C 0.60339 0.21022 0.41790
 C256 C 0.61484 0.23356 0.43734
 H257 H 0.56659 0.20893 0.35984
 H258 H 0.61109 0.18463 0.32778
 H259 H 0.50804 0.13117 0.36585
 H260 H 0.54214 0.12695 0.41913
 H261 H 0.64519 0.18043 0.38109
 H262 H 0.58664 0.10269 0.38710
 C263 C 0.81794 0.43296 0.36943
 C264 C 0.86168 0.45840 0.37400
 C265 C 0.86809 0.43306 0.35225
 C266 C 0.82481 0.40785 0.34730
 C267 C 0.81679 0.40686 0.39435
 C268 C 0.82319 0.38152 0.37261
 C269 C 0.86007 0.43207 0.39928
 C270 C 0.86693 0.40696 0.37718
 C271 C 0.89687 0.44774 0.32898
 C272 C 0.92078 0.45991 0.30999
 C273 C 0.78841 0.39236 0.41791
 C274 C 0.76522 0.38050 0.43741
 H275 H 0.79747 0.44348 0.36652
 H276 H 0.87784 0.49017 0.37430
 H277 H 0.81065 0.39807 0.32566
 H278 H 0.80703 0.34974 0.37232
 H279 H 0.87424 0.44185 0.42093
 H280 H 0.88740 0.39644 0.38009
 C281 C 0.58536 0.39494 1.13776
 C282 C 0.60420 0.43738 1.14747
 C283 C 0.56455 0.43397 1.14758
 C284 C 0.54549 0.39176 1.13824
 C285 C 0.59009 0.40782 1.10562
 C286 C 0.55044 0.40443 1.10574
 C287 C 0.60915 0.45003 1.11496
 C288 C 0.56929 0.44685 1.11543
 C289 C 0.55021 0.44862 1.17083
 C290 C 0.53834 0.46073 1.18983
 C291 C 0.60421 0.39330 1.08212
 C292 C 0.61569 0.38141 1.06268
 H293 H 0.59213 0.37343 1.14669
 H294 H 0.62616 0.45109 1.16488
 H295 H 0.51915 0.36795 1.14806
 H296 H 0.52848 0.39072 1.08833
 H297 H 0.63549 0.47384 1.10514
 H298 H 0.56253 0.46835 1.10649
 C299 C 0.86165 0.43363 1.10047
 C300 C 0.86488 0.46146 1.12517
 C301 C 0.86971 0.43580 1.14757
 C302 C 0.86692 0.40818 1.12322
 C303 C 0.81821 0.41043 1.10552
 C304 C 0.82304 0.38476 1.12792
 C305 C 0.82100 0.43805 1.12986
 C306 C 0.82627 0.41260 1.15263
 C307 C 0.89858 0.45004 1.17086
 C308 C 0.92250 0.46185 1.18989
 C309 C 0.78969 0.39638 1.08198
 C310 C 0.76638 0.38491 1.06252
 H311 H 0.87590 0.44212 1.07876
 H312 H 0.88240 0.49316 1.12429
 H313 H 0.88611 0.39605 1.12074
 H314 H 0.80552 0.35306 1.12879
 H315 H 0.80180 0.45018 1.13234
 H316 H 0.81204 0.40411 1.17434
 C317 C 0.58475 0.14111 1.10246
 C318 C 0.60495 0.14500 1.13216
 C319 C 0.56655 0.13097 1.14790
 C320 C 0.54613 0.12665 1.11855
 C321 C 0.59282 0.18240 1.10581
 C322 C 0.55442 0.16837 1.12155
 C323 C 0.61325 0.18673 1.13516
 C324 C 0.57461 0.17226 1.15126
 C325 C 0.55181 0.10213 1.17122
 C326 C 0.53960 0.07822 1.19025
 C327 C 0.60737 0.21088 1.08224
 C328 C 0.61923 0.23415 1.06274
 H329 H 0.58907 0.12859 1.08214
 H330 H 0.62559 0.13508 1.13677
 H331 H 0.51837 0.10164 1.11196
 H332 H 0.53379 0.17829 1.11693
 H333 H 0.64102 0.21175 1.14173
 H334 H 0.57029 0.18476 1.17158
 C335 C 0.40449 0.59723 1.13847
 C336 C 0.39096 0.55455 1.14459
 C337 C 0.43295 0.56489 1.14779
 C338 C 0.44671 0.60734 1.14204
 C339 C 0.40688 0.59007 1.10567
 C340 C 0.44886 0.60040 1.10888
 C341 C 0.39312 0.54762 1.11142
 C342 C 0.43533 0.55774 1.11499
 C343 C 0.44756 0.55076 1.17108
 C344 C 0.45969 0.53901 1.19008
 C345 C 0.39248 0.60400 1.08209
 C346 C 0.38073 0.61540 1.06257
 H347 H 0.39165 0.61363 1.14784
 H348 H 0.36733 0.53554 1.15954
 H349 H 0.46891 0.63173 1.15490
 H350 H 0.47250 0.61941 1.09393
 H351 H 0.37093 0.52323 1.09856
 H352 H 0.44817 0.54135 1.10560
 C353 C 0.14041 0.56105 1.10086
 C354 C 0.14315 0.54197 1.12948
 C355 C 0.13073 0.56652 1.14691
 C356 C 0.12755 0.58538 1.11865
 C357 C 0.18226 0.59269 1.10496
 C358 C 0.16985 0.61724 1.12238
 C359 C 0.18546 0.57383 1.13321
 C360 C 0.17259 0.59816 1.15101
 C361 C 0.10185 0.55186 1.17011
 C362 C 0.07789 0.53970 1.18905
 C363 C 0.21077 0.60717 1.08149
 C364 C 0.23407 0.61903 1.06207
 H365 H 0.12751 0.54597 1.07997
 H366 H 0.13183 0.51086 1.13267
 H367 H 0.10341 0.58996 1.11293
 H368 H 0.18117 0.64835 1.11919
 H369 H 0.20960 0.56926 1.13892
 H370 H 0.18547 0.61323 1.17191
 C371 C 0.42402 0.81216 1.13562
 C372 C 0.45864 0.85332 1.13314
 C373 C 0.43481 0.86863 1.14801
 C374 C 0.40041 0.82793 1.15085
 C375 C 0.40962 0.81737 1.10579
 C376 C 0.38579 0.83268 1.12065
 C377 C 0.44402 0.85808 1.10295
 C378 C 0.42041 0.87383 1.11817
 C379 C 0.44898 0.89739 1.17135
 C380 C 0.46077 0.92128 1.19040
 C381 C 0.39572 0.78901 1.08216
 C382 C 0.38441 0.76582 1.06261
 H383 H 0.42534 0.78647 1.14251
 H384 H 0.48875 0.86213 1.13855
 H385 H 0.38265 0.81587 1.17082
 H386 H 0.35568 0.82386 1.11523
 H387 H 0.46178 0.87015 1.08299
 H388 H 0.41908 0.89951 1.11127
 C389 C 0.56714 0.38342 0.63206
 C390 C 0.59261 0.41837 0.65177
 C391 C 0.56438 0.43295 0.64720
 C392 C 0.53870 0.39824 0.62787
 C393 C 0.58955 0.40669 0.60515
 C394 C 0.56132 0.42127 0.60059
 C395 C 0.61524 0.44140 0.62448
 C396 C 0.58679 0.45621 0.62028
 C397 C 0.55027 0.44768 0.67045
 C398 C 0.53854 0.45991 0.68943
 C399 C 0.60347 0.39217 0.58160
 C400 C 0.61486 0.38033 0.56211
 H401 H 0.55924 0.35333 0.63662
 H402 H 0.60530 0.41736 0.67308
 H403 H 0.50707 0.38066 0.62953
 H404 H 0.54862 0.42229 0.57929
 H405 H 0.64686 0.45898 0.62281
 H406 H 0.59470 0.48630 0.61571
 C407 C 0.59027 0.19093 0.63731
 C408 C 0.54920 0.15599 0.63889
 C409 C 0.56614 0.13053 0.64686
 C410 C 0.60697 0.16501 0.64565
 C411 C 0.59219 0.18194 0.60484
 C412 C 0.60912 0.15647 0.61282
 C413 C 0.55136 0.14746 0.60606
 C414 C 0.56807 0.12156 0.61439
 C415 C 0.55155 0.10171 0.67009
 C416 C 0.53947 0.07778 0.68906
 C417 C 0.60663 0.21037 0.58133
 C418 C 0.61847 0.23362 0.56188
 H419 H 0.59956 0.21979 0.64645
 H420 H 0.52440 0.15546 0.64988
 H421 H 0.62965 0.17188 0.66220
 H422 H 0.63392 0.15700 0.60183
 H423 H 0.52867 0.14057 0.58951
 H424 H 0.55878 0.09270 0.60524
 C425 C 0.80801 0.40328 0.63774
 C426 C 0.83976 0.39270 0.64144
 C427 C 0.86894 0.43516 0.64677
 C428 C 0.83765 0.44596 0.64344
 C429 C 0.81730 0.40969 0.60488
 C430 C 0.84648 0.45214 0.61021
 C431 C 0.84859 0.39890 0.60822
 C432 C 0.87820 0.44156 0.61391
 C433 C 0.89790 0.44944 0.66995
 C434 C 0.92191 0.46130 0.68888
 C435 C 0.78873 0.39563 0.58142
 C436 C 0.76540 0.38416 0.56200
 H437 H 0.77882 0.38737 0.64727
 H438 H 0.83733 0.36843 0.65455
 H439 H 0.83349 0.46547 0.65819
 H440 H 0.84891 0.47642 0.59711
 H441 H 0.85276 0.37939 0.59347
 H442 H 0.90738 0.45746 0.60437
 C443 C 0.43319 0.57255 0.59999
 C444 C 0.45904 0.59703 0.62562
 C445 C 0.43369 0.56475 0.64698
 C446 C 0.40806 0.54007 0.62169
 C447 C 0.40754 0.59012 0.60500
 C448 C 0.38219 0.55784 0.62635
 C449 C 0.43317 0.61481 0.63028
 C450 C 0.40804 0.58231 0.65200
 C451 C 0.44833 0.55051 0.67024
 C452 C 0.46044 0.53870 0.68924
 C453 C 0.39303 0.60415 0.58149
 C454 C 0.38115 0.61559 0.56206
 H455 H 0.44339 0.56869 0.57835
 H456 H 0.49081 0.61299 0.62558
 H457 H 0.39789 0.50917 0.61841
 H458 H 0.35042 0.54188 0.62639
 H459 H 0.44333 0.64571 0.63355
 H460 H 0.39785 0.58617 0.67364
 C461 C 0.39626 0.80993 0.63729
 C462 C 0.43835 0.83281 0.64787
 C463 C 0.43580 0.86955 0.64755
 C464 C 0.39394 0.84712 0.63734
 C465 C 0.41037 0.81807 0.60542
 C466 C 0.40784 0.85482 0.60512
 C467 C 0.45224 0.84051 0.61563
 C468 C 0.44991 0.87769 0.61568
 C469 C 0.45006 0.89842 0.67088
 C470 C 0.46189 0.92237 0.68993
 C471 C 0.39629 0.78956 0.58183
 C472 C 0.38479 0.76626 0.56233
 H473 H 0.37404 0.78174 0.64592
 H474 H 0.45105 0.82408 0.66570
 H475 H 0.37011 0.85014 0.64652
 H476 H 0.39514 0.86356 0.58728
 H477 H 0.47606 0.83749 0.60645
 H478 H 0.47213 0.90586 0.60704
 C479 C 0.14011 0.56085 0.60132
 C480 C 0.14285 0.54173 0.62993
 C481 C 0.13037 0.56620 0.64741
 C482 C 0.12720 0.58510 0.61916
 C483 C 0.18197 0.59252 0.60541
 C484 C 0.16950 0.61700 0.62290
 C485 C 0.18516 0.57362 0.63366
 C486 C 0.17223 0.59787 0.65151
 C487 C 0.10143 0.55146 0.67069
 C488 C 0.07746 0.53926 0.68970
 C489 C 0.21056 0.60710 0.58188
 C490 C 0.23389 0.61900 0.56242
 H491 H 0.12719 0.54578 0.58044
 H492 H 0.13158 0.51062 0.63306
 H493 H 0.10306 0.58968 0.61343
 H494 H 0.18076 0.64811 0.61976
 H495 H 0.20930 0.56905 0.63938
 H496 H 0.18513 0.61294 0.67240
 C497 C 0.41015 0.60188 0.86222
 C498 C 0.45166 0.60950 0.85954
 C499 C 0.43571 0.56686 0.85282
 C500 C 0.39443 0.55899 0.85512
 C501 C 0.41047 0.59301 0.89490
 C502 C 0.39453 0.55036 0.88818
 C503 C 0.45175 0.60086 0.89259
 C504 C 0.43603 0.55799 0.88551
 C505 C 0.44986 0.55218 0.82954
 C506 C 0.46159 0.54000 0.81054
 C507 C 0.39649 0.60746 0.91845
 C508 C 0.38505 0.61927 0.93793
 H509 H 0.39934 0.62009 0.85293
 H510 H 0.47530 0.63364 0.84749
 H511 H 0.37103 0.54161 0.83945
 H512 H 0.37089 0.52622 0.90023
 H513 H 0.47515 0.61824 0.90826
 H514 H 0.44683 0.53978 0.89481
 C515 C 0.14608 0.59210 0.89493
 C516 C 0.15372 0.60664 0.86288
 C517 C 0.13185 0.56495 0.85217
 C518 C 0.12378 0.55019 0.88386
 C519 C 0.18314 0.59019 0.89431
 C520 C 0.16127 0.54849 0.88361
 C521 C 0.19123 0.60496 0.86263
 C522 C 0.16890 0.56303 0.85155
 C523 C 0.10306 0.55077 0.82887
 C524 C 0.07915 0.53898 0.80987
 C525 C 0.21151 0.60414 0.91792
 C526 C 0.23467 0.61553 0.93745
 H527 H 0.13702 0.60420 0.91303
 H528 H 0.15029 0.63039 0.85408
 H529 H 0.09572 0.52752 0.89233
 H530 H 0.16470 0.52475 0.89240
 H531 H 0.21930 0.62764 0.85417
 H532 H 0.17795 0.55092 0.83345
 C533 C 0.44599 0.83109 0.87881
 C534 C 0.42552 0.82709 0.84921
 C535 C 0.43376 0.86842 0.85252
 C536 C 0.45445 0.87287 0.88174
 C537 C 0.40777 0.81731 0.89474
 C538 C 0.41601 0.85865 0.89804
 C539 C 0.38706 0.81285 0.86552
 C540 C 0.39553 0.85464 0.86846
 C541 C 0.44830 0.89710 0.82918
 C542 C 0.46035 0.92093 0.81014
 C543 C 0.39333 0.78902 0.91835
 C544 C 0.38147 0.76587 0.93788
 H545 H 0.46656 0.82107 0.88334
 H546 H 0.42960 0.81445 0.82886
 H547 H 0.48232 0.89787 0.88814
 H548 H 0.41193 0.87129 0.91838
 H549 H 0.35919 0.78784 0.85914
 H550 H 0.37496 0.86465 0.86393
 C551 C 0.57479 0.43539 0.89998
 C552 C 0.59886 0.46105 0.87416
 C553 C 0.56646 0.43526 0.85301
 C554 C 0.54217 0.40981 0.87849
 C555 C 0.59262 0.40996 0.89503
 C556 C 0.56022 0.38416 0.87390
 C557 C 0.61691 0.43540 0.86957
 C558 C 0.58429 0.40982 0.84806
 C559 C 0.55182 0.44947 0.82973
 C560 C 0.53970 0.46126 0.81072
 C561 C 0.60713 0.39597 0.91856
 C562 C 0.61901 0.38456 0.93802
 H563 H 0.57104 0.44576 0.92158
 H564 H 0.61459 0.49283 0.87401
 H565 H 0.51128 0.39944 0.88191
 H566 H 0.54449 0.35238 0.87405
 H567 H 0.64781 0.44578 0.86615
 H568 H 0.58804 0.39946 0.82645
 C569 C 0.81927 0.43354 0.86974
 C570 C 0.86302 0.45892 0.87433
 C571 C 0.86945 0.43355 0.85260
 C572 C 0.82614 0.40839 0.84764
 C573 C 0.81799 0.40742 0.89471
 C574 C 0.82441 0.38204 0.87298
 C575 C 0.86130 0.43258 0.89966
 C576 C 0.86815 0.40743 0.87758
 C577 C 0.89830 0.44821 0.82927
 C578 C 0.92221 0.46036 0.81022
 C579 C 0.78948 0.39293 0.91829
 C580 C 0.76620 0.38110 0.93779
 H581 H 0.79886 0.44412 0.86676
 H582 H 0.87921 0.49069 0.87465
 H583 H 0.81198 0.39860 0.82600
 H584 H 0.80822 0.35027 0.87268
 H585 H 0.87547 0.44237 0.92130
 H586 H 0.88856 0.39684 0.88056
 C587 C 0.55301 0.16966 0.87745
 C588 C 0.57490 0.17248 0.84880
 C589 C 0.56462 0.13058 0.85278
 C590 C 0.54251 0.12733 0.88106
 C591 C 0.58994 0.18206 0.89490
 C592 C 0.57965 0.14017 0.89886
 C593 C 0.61205 0.18533 0.86663
 C594 C 0.60154 0.14299 0.87023
 C595 C 0.55041 0.10172 0.82944
 C596 C 0.53861 0.07779 0.81039
 C597 C 0.60396 0.21058 0.91849
 C598 C 0.61542 0.23389 0.93798
 H599 H 0.53320 0.18095 0.88067
 H600 H 0.57280 0.18545 0.82796
 H601 H 0.51376 0.10317 0.88674
 H602 H 0.58175 0.12718 0.91970
 H603 H 0.64081 0.20949 0.86095
 H604 H 0.62135 0.13171 0.86701
   
