data_POSCAR
  _audit_creation_date              2014-09-24
  _audit_creation_method            'ToBaCCo'
  _symmetry_space_group_name_H-M    'P1'
  _symmetry_Int_Tables_number       1
  _symmetry_cell_setting            triclinic
  loop_
  _symmetry_equiv_pos_as_xyz
 x,y,z
_cell_length_a 21.9585
_cell_length_b 22.0578
_cell_length_c 22.0145
_cell_angle_alpha 117.584500
_cell_angle_beta 62.209900
_cell_angle_gamma 65.658500
loop_
  _atom_site_label
  _atom_site_type_symbol
  _atom_site_fract_x
  _atom_site_fract_y
  _atom_site_fract_z
C1 C 0.50736 0.49121 0.02213
 C2 C 0.49081 0.50759 -0.02422
 C3 C 0.43219 0.49655 -0.03388
 C4 C 0.52030 0.54520 -0.05844
 C5 C 0.54587 0.51994 0.05533
 C6 C 0.49503 0.43417 0.03350
 C7 C 0.48215 0.42550 -0.14120
 C8 C 0.42542 0.41691 -0.14848
 C9 C 0.31799 0.47996 -0.04814
 C10 C 0.26808 0.55099 0.05881
 C11 C 0.32452 0.55943 0.06590
 C12 C 0.62298 0.50078 -0.11876
 C13 C 0.64160 0.54683 -0.13841
 C14 C 0.55980 0.63464 -0.10184
 C15 C 0.46265 0.67219 -0.05097
 C16 C 0.44364 0.62723 -0.03053
 C17 C 0.50048 0.62242 0.11645
 C18 C 0.54663 0.64098 0.13618
 C19 C 0.63573 0.55912 0.09856
 C20 C 0.67464 0.46176 0.04630
 C21 C 0.62951 0.44288 0.02590
 C22 C 0.42460 0.48397 0.14102
 C23 C 0.41522 0.42849 0.14976
 C24 C 0.47665 0.32275 0.05090
 C25 C 0.54689 0.27302 -0.05610
 C26 C 0.55634 0.32801 -0.06488
 H27 H 0.56510 0.37644 -0.21908
 H28 H 0.46512 0.36175 -0.23187
 H29 H 0.18488 0.60079 0.13747
 H30 H 0.28416 0.61530 0.14950
 H31 H 0.68689 0.43324 -0.14728
 H32 H 0.71794 0.51615 -0.17912
 H33 H 0.36697 0.65913 0.01004
 H34 H 0.43201 0.68628 0.14567
 H35 H 0.51497 0.71740 0.17786
 H36 H 0.74272 0.39831 0.01780
 H37 H 0.66232 0.36619 -0.01558
 H38 H 0.37675 0.56572 0.21787
 H39 H 0.36089 0.46750 0.23291
 H40 H 0.59525 0.19101 -0.13331
 H41 H 0.61190 0.28759 -0.14874
 H42 H 0.39931 0.73919 -0.02340
 C43 C 0.03316 0.50305 0.50508
 C44 C -0.00980 0.48084 0.48550
 C45 C -0.02495 0.42691 0.50065
 C46 C -0.04050 0.50510 0.44528
 C47 C 0.06555 0.54205 0.47604
 C48 C 0.03857 0.49983 0.56863
 C49 C 0.06621 0.32657 0.44558
 C50 C 0.05229 0.27612 0.45978
 C51 C -0.05237 0.32425 0.52805
 C52 C -0.14340 0.42338 0.58213
 C53 C -0.12980 0.47460 0.56857
 C54 C -0.00240 0.42088 0.35137
 C55 C -0.02285 0.43813 0.30648
 C56 C -0.08319 0.54047 0.35581
 C57 C -0.12731 0.62772 0.45375
 C58 C -0.10737 0.61070 0.49931
 C59 C 0.03499 0.62967 0.55676
 C60 C 0.04855 0.67944 0.54103
 C61 C 0.09546 0.64089 0.44297
 C62 C 0.13674 0.54639 0.35588
 C63 C 0.12381 0.49573 0.37127
 C64 C -0.06031 0.56403 0.67877
 C65 C -0.05576 0.56068 0.73831
 C66 C 0.04713 0.49441 0.68952
 C67 C 0.14553 0.43223 0.58113
 C68 C 0.14129 0.43498 0.52083
 H69 H 0.14837 0.28713 0.39127
 H70 H 0.12373 0.19874 0.41648
 H71 H -0.22428 0.46050 0.63399
 H72 H -0.20106 0.55168 0.61146
 H73 H 0.04608 0.34025 0.31041
 H74 H 0.01166 0.37003 0.23075
 H75 H -0.14073 0.67832 0.57401
 H76 H -0.00466 0.66385 0.63545
 H77 H 0.01774 0.75148 0.60822
 H78 H 0.17508 0.51452 0.27842
 H79 H 0.15481 0.42375 0.30384
 H80 H -0.14085 0.61617 0.71819
 H81 H -0.13260 0.60967 0.82246
 H82 H 0.22514 0.38178 0.54333
 H83 H 0.21807 0.38583 0.43658
 H84 H -0.17406 0.70734 0.49267
 C85 C 0.50494 0.03142 0.49422
 C86 C 0.48160 -0.00993 0.51584
 C87 C 0.50438 -0.03828 0.55819
 C88 C 0.42729 -0.02518 0.50130
 C89 C 0.50164 0.03599 0.43019
 C90 C 0.54446 0.06370 0.52227
 C91 C 0.61018 -0.10440 0.50494
 C92 C 0.62600 -0.12279 0.55195
 C93 C 0.53723 -0.07773 0.65081
 C94 C 0.43448 -0.01775 0.69963
 C95 C 0.41855 0.00106 0.65320
 C96 C 0.47598 -0.12973 0.43290
 C97 C 0.42510 -0.14379 0.41870
 C98 C 0.32521 -0.05337 0.47292
 C99 C 0.27598 0.05104 0.54189
 C100 C 0.32620 0.06532 0.55650
 C101 C 0.43718 0.13742 0.47669
 C102 C 0.43393 0.14109 0.41631
 C103 C 0.49527 0.04339 0.30906
 C104 C 0.56110 -0.05822 0.26156
 C105 C 0.56489 -0.06217 0.32121
 C106 C 0.49721 0.12313 0.62754
 C107 C 0.54831 0.13613 0.64231
 C108 C 0.64436 0.09359 0.55391
 C109 C 0.68380 0.04545 0.45516
 C110 C 0.63347 0.03191 0.44018
 H111 H 0.67908 -0.13873 0.42941
 H112 H 0.70613 -0.16947 0.51299
 H113 H 0.36504 0.01750 0.77592
 H114 H 0.33767 0.04907 0.69370
 H115 H 0.55376 -0.20050 0.38979
 H116 H 0.46320 -0.22457 0.36609
 H117 H 0.28629 0.14706 0.61079
 H118 H 0.38860 0.21372 0.56008
 H119 H 0.38373 0.21976 0.45321
 H120 H 0.60945 -0.13453 0.17832
 H121 H 0.61655 -0.14172 0.28278
 H122 H 0.42411 0.15507 0.69595
 H123 H 0.51545 0.17554 0.72042
 H124 H 0.75693 0.01364 0.38679
 H125 H 0.66825 -0.00856 0.36109
 H126 H 0.19809 0.12192 0.58515
 O127 O 0.44003 0.01199 -0.05606
 O128 O 0.41086 0.07861 0.15064
 O129 O 0.40221 0.15372 0.08738
 O130 O 0.44903 -0.06379 0.00731
 O131 O 0.63672 -0.19631 -0.13680
 O132 O 0.58997 0.02103 -0.05638
 O133 O 0.59867 -0.05418 0.00646
 O134 O 0.62760 -0.12016 -0.19978
 Cu135 Cu 0.40694 0.05784 0.06124
 Cu136 Cu 0.63125 -0.10005 -0.11040
 C137 C 0.53794 -0.06321 -0.16180
 C138 C 0.50064 0.02201 0.11257
 C139 C 0.48925 0.12307 0.02731
 C140 C 0.54986 -0.16572 -0.07612
 O141 O -0.19611 0.63693 1.13564
 O142 O 0.02100 0.59182 1.05803
 O143 O -0.05196 0.59872 0.99268
 O144 O -0.12245 0.62962 1.20120
 O145 O 0.01080 0.44322 1.05810
 O146 O 0.08186 0.41208 0.84915
 O147 O 0.15476 0.40527 0.91492
 O148 O -0.06256 0.45044 0.99220
 Cu149 Cu -0.10005 0.63214 1.11057
 Cu150 Cu 0.05912 0.40923 0.93970
 C151 C -0.16497 0.55042 1.07487
 C152 C 0.12352 0.49199 0.97510
 C153 C 0.02532 0.50099 0.88658
 C154 C -0.06585 0.54089 1.16396
 O155 O 0.10492 -0.17892 0.37602
 O156 O 0.03169 0.03449 0.42347
 O157 O 0.17005 -0.10257 0.38409
 O158 O -0.04489 -0.03001 0.43051
 O159 O -0.17928 0.10361 0.62185
 O160 O 0.03479 0.02995 0.57551
 O161 O -0.10228 0.16832 0.61491
 O162 O -0.03013 -0.04601 0.56732
 Cu163 Cu 0.07815 -0.08221 0.38493
 Cu164 Cu -0.08236 0.07656 0.61350
 C165 C 0.04949 -0.14842 0.46390
 C166 C -0.04503 0.13605 0.52561
 C167 C 0.13718 -0.04618 0.47357
 C168 C -0.14811 0.04887 0.53372
 C169 C -0.30382 0.56712 1.10200
 C170 C -0.24437 0.56388 1.09480
 C171 C 0.26155 0.47609 0.94877
 C172 C 0.20255 0.47921 0.95506
 C173 C 0.08900 -0.29300 0.44026
 C174 C 0.07459 -0.22984 0.44744
 C175 C -0.06238 0.26768 0.53741
 C176 C -0.06061 0.21220 0.53711
 C177 C 0.54523 -0.08239 -0.29332
 C178 C 0.54537 -0.07838 -0.23685
 C179 C 0.49156 0.04525 0.24636
 C180 C 0.49309 0.03896 0.18819
 C181 C 0.56743 -0.30473 -0.10469
 C182 C 0.56386 -0.24520 -0.09692
 C183 C 0.47193 0.26159 0.05531
 C184 C 0.47577 0.20228 0.04826
 C185 C -0.29261 0.08749 0.55619
 C186 C -0.22957 0.07364 0.54958
 C187 C 0.26904 -0.06379 0.46273
 C188 C 0.21356 -0.06200 0.46254
 C189 C -0.08823 0.54944 1.29719
 C190 C -0.08297 0.54913 1.24004
 C191 C 0.04951 0.49093 0.75203
 C192 C 0.04311 0.49282 0.81040
   
