data_POSCAR
  _audit_creation_date              2014-09-24
  _audit_creation_method            'ToBaCCo'
  _symmetry_space_group_name_H-M    'P1'
  _symmetry_Int_Tables_number       1
  _symmetry_cell_setting            triclinic
  loop_
  _symmetry_equiv_pos_as_xyz
 x,y,z
_cell_length_a 23.0688
_cell_length_b 23.0750
_cell_length_c 23.0866
_cell_angle_alpha 90.001000
_cell_angle_beta 89.998600
_cell_angle_gamma 90.054300
loop_
  _atom_site_label
  _atom_site_type_symbol
  _atom_site_fract_x
  _atom_site_fract_y
  _atom_site_fract_z
Si1 Si 0.00006 0.50001 0.24970
 Si2 Si 0.00005 0.50000 0.75019
 Si3 Si 0.24943 -0.00014 0.49994
 Si4 Si 0.75053 0.00031 0.49995
 Si5 Si 0.50029 0.25080 0.99994
 Si6 Si 0.49981 0.74935 0.99995
 B7 B 1.00021 1.05912 0.03642
 B8 B 1.03657 1.00000 0.05899
 B9 B 0.96356 1.00010 0.05900
 B10 B 0.94106 1.03662 -0.00005
 B11 B 1.00021 1.05912 -0.03653
 B12 B 1.05924 1.03645 -0.00005
 B13 B 0.99993 0.94097 -0.03653
 B14 B 0.96356 1.00010 -0.05911
 B15 B 1.03657 1.00000 -0.05910
 B16 B 1.05907 0.96348 -0.00006
 B17 B 0.99993 0.94097 0.03642
 B18 B 0.94088 0.96364 -0.00005
 B19 B 0.55901 0.50006 0.46347
 B20 B 0.55901 0.50006 0.53642
 B21 B 0.53650 0.55915 0.49995
 B22 B 0.49997 0.53658 0.44090
 B23 B 0.49987 0.46359 0.44090
 B24 B 0.53633 0.44098 0.49994
 B25 B 0.44082 0.50011 0.53642
 B26 B 0.44083 0.50011 0.46347
 B27 B 0.46333 0.44102 0.49994
 B28 B 0.49987 0.46359 0.55899
 B29 B 0.49997 0.53658 0.55899
 B30 B 0.46350 0.55918 0.49995
 C31 C 1.00028 1.33136 0.15687
 N32 N 1.05085 1.30528 0.14217
 N33 N 1.05093 1.25144 0.12128
 C34 C 1.00049 1.22187 0.11496
 N35 N 0.94991 1.24795 0.12960
 N36 N 0.94984 1.30179 0.15048
 C37 C 1.00041 1.38797 0.18254
 C38 C 1.00038 1.43421 0.20677
 C39 C 1.00044 1.16452 0.09110
 C40 C 1.00035 1.11722 0.06909
 C41 C 1.00051 0.66887 0.15720
 N42 N 1.05017 0.70033 0.15519
 N43 N 1.04990 0.75414 0.13422
 C44 C 0.99987 0.77828 0.11510
 N45 N 0.95021 0.74681 0.11705
 N46 N 0.95048 0.69300 0.13803
 C47 C 1.00031 0.61223 0.18283
 C48 C 1.00018 0.56595 0.20699
 C49 C 0.99981 0.83560 0.09117
 C50 C 0.99983 0.88288 0.06911
 C51 C 1.00027 1.33135 -0.15698
 N52 N 1.05084 1.30529 -0.14227
 N53 N 1.05092 1.25145 -0.12137
 C54 C 1.00048 1.22187 -0.11506
 N55 N 0.94991 1.24794 -0.12970
 N56 N 0.94983 1.30178 -0.15059
 C57 C 1.00040 1.38797 -0.18264
 C58 C 1.00037 1.43421 -0.20688
 C59 C 1.00044 1.16453 -0.09120
 C60 C 1.00035 1.11722 -0.06919
 C61 C 1.00051 0.66886 -0.15732
 N62 N 1.05016 0.70033 -0.15532
 N63 N 1.04989 0.75414 -0.13435
 C64 C 0.99986 0.77828 -0.11522
 N65 N 0.95021 0.74680 -0.11714
 N66 N 0.95048 0.69299 -0.13812
 C67 C 1.00030 0.61223 -0.18295
 C68 C 1.00017 0.56595 -0.20710
 C69 C 0.99981 0.83560 -0.09128
 C70 C 0.99983 0.88288 -0.06923
 C71 C 1.15678 0.99987 0.33123
 N72 N 1.14719 1.05055 0.30308
 N73 N 1.12638 1.05056 0.24923
 C74 C 1.11503 0.99987 0.22172
 N75 N 1.12454 0.94919 0.24989
 N76 N 1.14536 0.94918 0.30374
 C77 C 1.18239 0.99982 0.38786
 C78 C 1.20656 0.99981 0.43411
 C79 C 1.09123 0.99990 0.16437
 C80 C 1.06925 0.99994 0.11707
 C81 C 1.15679 0.99986 -0.33135
 N82 N 1.14720 1.05054 -0.30319
 N83 N 1.12639 1.05055 -0.24934
 C84 C 1.11504 0.99987 -0.22184
 N85 N 1.12455 0.94918 -0.25000
 N86 N 1.14536 0.94918 -0.30386
 C87 C 1.18239 0.99981 -0.38797
 C88 C 1.20657 0.99981 -0.43423
 C89 C 1.09123 0.99990 -0.16449
 C90 C 1.06925 0.99994 -0.11719
 C91 C 0.84322 1.00050 0.33123
 N92 N 0.85605 0.94981 0.30442
 N93 N 0.87690 0.94971 0.25058
 C94 C 0.88505 1.00026 0.22174
 N95 N 0.87229 1.05096 0.24856
 N96 N 0.85144 1.05106 0.30240
 C97 C 0.81759 1.00047 0.38785
 C98 C 0.79340 1.00042 0.43411
 C99 C 0.90888 1.00021 0.16439
 C100 C 0.93087 1.00016 0.11709
 C101 C 0.84321 1.00051 -0.33133
 N102 N 0.85607 0.94981 -0.30453
 N103 N 0.87692 0.94971 -0.25070
 C104 C 0.88504 1.00027 -0.22184
 N105 N 0.87226 1.05096 -0.24865
 N106 N 0.85141 1.05106 -0.30248
 C107 C 0.81759 1.00047 -0.38795
 C108 C 0.79340 1.00042 -0.43420
 C109 C 0.90888 1.00021 -0.16450
 C110 C 0.93087 1.00016 -0.11720
 C111 C 1.33045 1.16003 -0.00007
 N112 N 1.32248 1.10181 0.00015
 N113 N 1.26907 1.07968 0.00015
 C114 C 1.22211 1.11507 -0.00006
 N115 N 1.23010 1.17326 -0.00028
 N116 N 1.28348 1.19537 -0.00029
 C117 C 1.38765 1.18450 -0.00007
 C118 C 1.43426 1.20810 -0.00006
 C119 C 1.16479 1.09105 -0.00006
 C120 C 1.11745 1.06904 -0.00006
 C121 C 0.67021 1.16044 -0.00004
 N122 N 0.71725 1.19578 0.00012
 N123 N 0.77058 1.17367 0.00012
 C124 C 0.77846 1.11548 -0.00005
 N125 N 0.73144 1.08009 -0.00022
 N126 N 0.67808 1.10222 -0.00021
 C127 C 0.61304 1.18488 -0.00005
 C128 C 0.56642 1.20837 -0.00005
 C129 C 0.83573 1.09144 -0.00005
 C130 C 0.88300 1.06936 -0.00005
 C131 C 1.32998 0.83981 -0.00005
 N132 N 1.28296 0.80444 -0.00006
 N133 N 1.22961 0.82652 -0.00007
 C134 C 1.22169 0.88470 -0.00006
 N135 N 1.26870 0.92012 -0.00005
 N136 N 1.32207 0.89803 -0.00005
 C137 C 1.38714 0.81540 -0.00005
 C138 C 1.43375 0.79188 -0.00005
 C139 C 1.16441 0.90870 -0.00006
 C140 C 1.11713 0.93075 -0.00006
 C141 C 0.66971 0.84000 -0.00001
 N142 N 0.67767 0.89822 -0.00057
 N143 N 0.73107 0.92036 -0.00058
 C144 C 0.77804 0.88499 -0.00005
 N145 N 0.77006 0.82680 0.00051
 N146 N 0.71669 0.80467 0.00053
 C147 C 0.61252 0.81553 -0.00003
 C148 C 0.56590 0.79196 -0.00004
 C149 C 0.83535 0.90902 -0.00005
 C150 C 0.88269 0.93104 -0.00005
 C151 C 0.83027 0.49850 0.34046
 N152 N 0.78571 0.47376 0.31110
 N153 N 0.73226 0.47430 0.33296
 C154 C 0.72172 0.49984 0.38476
 N155 N 0.76628 0.52454 0.41418
 N156 N 0.81975 0.52401 0.39231
 C157 C 0.88729 0.49916 0.31567
 C158 C 0.93385 0.49960 0.29202
 C159 C 0.66442 0.49995 0.40876
 C160 C 0.61713 0.50001 0.43081
 C161 C 0.16854 0.50044 0.34293
 N162 N 0.19433 0.44993 0.35828
 N163 N 0.24817 0.44981 0.37921
 C164 C 0.27803 0.50015 0.38491
 N165 N 0.25223 0.55067 0.36964
 N166 N 0.19839 0.55078 0.34871
 C167 C 0.11195 0.50026 0.31718
 C168 C 0.06574 0.50014 0.29285
 C169 C 0.33539 0.50014 0.40879
 C170 C 0.38270 0.50013 0.43080
 C171 C 0.83026 0.49849 0.65943
 N172 N 0.78570 0.47376 0.68879
 N173 N 0.73224 0.47430 0.66694
 C174 C 0.72171 0.49983 0.61513
 N175 N 0.76627 0.52452 0.58571
 N176 N 0.81975 0.52399 0.60758
 C177 C 0.88728 0.49915 0.68423
 C178 C 0.93384 0.49959 0.70787
 C179 C 0.66442 0.49995 0.59113
 C180 C 0.61713 0.50001 0.56908
 C181 C 0.16853 0.50043 0.65695
 N182 N 0.19431 0.44992 0.64158
 N183 N 0.24816 0.44981 0.62066
 C184 C 0.27802 0.50014 0.61497
 N185 N 0.25223 0.55066 0.63027
 N186 N 0.19838 0.55077 0.65119
 C187 C 0.11194 0.50025 0.68271
 C188 C 0.06573 0.50013 0.70704
 C189 C 0.33538 0.50014 0.59110
 C190 C 0.38270 0.50013 0.56909
 C191 C 0.49956 0.65674 0.16866
 N192 N 0.44928 0.65134 0.19865
 N193 N 0.44946 0.63053 0.25249
 C194 C 0.49998 0.61499 0.27816
 N195 N 0.55025 0.62031 0.24816
 N196 N 0.55008 0.64113 0.19431
 C197 C 0.49968 0.68233 0.11203
 C198 C 0.49976 0.70650 0.06578
 C199 C 0.50002 0.59121 0.33551
 C200 C 0.50002 0.56925 0.38282
 C201 C 0.49957 0.65675 0.83124
 N202 N 0.44929 0.65134 0.80126
 N203 N 0.44946 0.63052 0.74741
 C204 C 0.49998 0.61499 0.72173
 N205 N 0.55026 0.62033 0.75172
 N206 N 0.55009 0.64114 0.80557
 C207 C 0.49969 0.68233 0.88786
 C208 C 0.49976 0.70650 0.93412
 C209 C 0.50001 0.59121 0.66438
 C210 C 0.50001 0.56924 0.61708
 C211 C 0.49989 0.34345 0.16863
 N212 N 0.55051 0.35711 0.19523
 N213 N 0.55052 0.37793 0.24908
 C214 C 0.49995 0.38520 0.27814
 N215 N 0.44933 0.37161 0.25153
 N216 N 0.44932 0.35080 0.19768
 C217 C 0.50006 0.31784 0.11202
 C218 C 0.50018 0.29366 0.06577
 C219 C 0.49989 0.40898 0.33550
 C220 C 0.49985 0.43093 0.38281
 C221 C 0.49989 0.34344 0.83125
 N222 N 0.55051 0.35710 0.80464
 N223 N 0.55052 0.37792 0.75079
 C224 C 0.49995 0.38519 0.72174
 N225 N 0.44933 0.37161 0.74836
 N226 N 0.44932 0.35080 0.80221
 C227 C 0.50007 0.31784 0.88786
 C228 C 0.50019 0.29366 0.93411
 C229 C 0.49988 0.40897 0.66439
 C230 C 0.49985 0.43093 0.61708
 C231 C 0.66014 0.83027 0.49995
 N232 N 0.69553 0.78334 0.49986
 N233 N 0.67346 0.72996 0.49987
 C234 C 0.61527 0.72191 0.49995
 N235 N 0.57983 0.76883 0.50003
 N236 N 0.60191 0.82224 0.50003
 C237 C 0.68455 0.88748 0.49995
 C238 C 0.70805 0.93414 0.49995
 C239 C 0.59128 0.66459 0.49995
 C240 C 0.56923 0.61727 0.49995
 C241 C 0.65982 0.17000 0.49996
 N242 N 0.60158 0.17789 0.49979
 N243 N 0.57947 0.23125 0.49979
 C244 C 0.61489 0.27825 0.49995
 N245 N 0.67309 0.27034 0.50011
 N246 N 0.69518 0.21701 0.50012
 C247 C 0.68427 0.11285 0.49996
 C248 C 0.70786 0.06628 0.49995
 C249 C 0.59089 0.33553 0.49994
 C250 C 0.56891 0.38284 0.49994
 C251 C 0.34004 0.83015 0.49990
 N252 N 0.39828 0.82224 0.50039
 N253 N 0.42037 0.76888 0.50040
 C254 C 0.38494 0.72189 0.49994
 N255 N 0.32675 0.72981 0.49945
 N256 N 0.30466 0.78314 0.49944
 C257 C 0.31562 0.88730 0.49992
 C258 C 0.29206 0.93388 0.49993
 C259 C 0.40893 0.66461 0.49994
 C260 C 0.43092 0.61731 0.49995
 C261 C 0.33978 0.16989 0.49995
 N262 N 0.30437 0.21680 0.50009
 N263 N 0.32641 0.27019 0.50009
 C264 C 0.38460 0.27827 0.49994
 N265 N 0.42007 0.23137 0.49979
 N266 N 0.39801 0.17795 0.49980
 C267 C 0.31541 0.11267 0.49994
 C268 C 0.29193 0.06601 0.49994
 C269 C 0.40856 0.33560 0.49994
 C270 C 0.43060 0.38291 0.49994
   
