data_POSCAR
  _audit_creation_date              2014-09-24
  _audit_creation_method            'ToBaCCo'
  _symmetry_space_group_name_H-M    'P1'
  _symmetry_Int_Tables_number       1
  _symmetry_cell_setting            triclinic
  loop_
  _symmetry_equiv_pos_as_xyz
 x,y,z
_cell_length_a 49.2647
_cell_length_b 49.7861
_cell_length_c 49.9654
_cell_angle_alpha 90.289300
_cell_angle_beta 89.995900
_cell_angle_gamma 89.999300
loop_
  _atom_site_label
  _atom_site_type_symbol
  _atom_site_fract_x
  _atom_site_fract_y
  _atom_site_fract_z
N1 N 0.29799 0.24387 0.22223
 N2 N 0.28646 0.26577 0.21309
 C3 C 0.29961 0.27369 0.19088
 C4 C 0.32060 0.25583 0.18575
 C5 C 0.31889 0.23715 0.20618
 H6 H 0.29387 0.29083 0.17899
 H7 H 0.33172 0.21981 0.20912
 Cu8 Cu 0.25480 0.28144 0.23043
 Cu9 Cu 0.28441 0.22525 0.25367
 Cu10 Cu 0.22710 0.25161 0.28428
 N11 N 0.22210 0.29535 0.24737
 N12 N 0.21146 0.28370 0.26844
 C13 C 0.18890 0.29707 0.27577
 C14 C 0.18505 0.31828 0.25832
 C15 C 0.20659 0.31651 0.24054
 H16 H 0.17595 0.29134 0.29224
 H17 H 0.21065 0.32960 0.22384
 N18 N 0.24585 0.21927 0.29732
 N19 N 0.26767 0.20928 0.28567
 C20 C 0.27539 0.18703 0.29883
 C21 C 0.25758 0.18271 0.31984
 C22 C 0.23912 0.20363 0.31821
 H23 H 0.29243 0.17460 0.29316
 H24 H 0.22198 0.20721 0.33124
 H25 H 0.24449 0.23751 0.24923
 H26 H 0.26647 0.25822 0.27176
 N27 N 0.70438 -0.24398 0.21834
 N28 N 0.71683 -0.26513 0.20847
 C29 C 0.70367 -0.27344 0.18633
 C30 C 0.68174 -0.25647 0.18181
 C31 C 0.68298 -0.23797 0.20272
 H32 H 0.71000 -0.29036 0.17427
 H33 H 0.66938 -0.22138 0.20656
 Cu34 Cu 0.74928 -0.27980 0.22510
 Cu35 Cu 0.71680 -0.22597 0.25076
 Cu36 Cu 0.77280 -0.25315 0.28264
 N37 N 0.78035 -0.29500 0.24369
 N38 N 0.78913 -0.28481 0.26636
 C39 C 0.81063 -0.29908 0.27482
 C40 C 0.81590 -0.31943 0.25636
 C41 C 0.79606 -0.31608 0.23686
 H42 H 0.82182 -0.29445 0.29284
 H43 H 0.79319 -0.32795 0.21894
 N44 N 0.75361 -0.22109 0.29602
 N45 N 0.73237 -0.21067 0.28382
 C46 C 0.72451 -0.18842 0.29716
 C47 C 0.74169 -0.18453 0.31880
 C48 C 0.75985 -0.20573 0.31742
 H49 H 0.70796 -0.17559 0.29110
 H50 H 0.77656 -0.20959 0.33085
 H51 H 0.75703 -0.23707 0.24796
 H52 H 0.73427 -0.25985 0.26731
 N53 N 0.70489 0.24286 0.78068
 N54 N 0.71698 0.26429 0.79043
 C55 C 0.70402 0.27216 0.81288
 C56 C 0.68259 0.25471 0.81750
 C57 C 0.68384 0.23636 0.79655
 H58 H 0.71010 0.28897 0.82525
 H59 H 0.67050 0.21949 0.79304
 Cu60 Cu 0.74897 0.27915 0.77309
 Cu61 Cu 0.71776 0.22447 0.74853
 Cu62 Cu 0.77465 0.25124 0.71741
 N63 N 0.78103 0.29399 0.75585
 N64 N 0.79067 0.28315 0.73381
 C65 C 0.81277 0.29688 0.72600
 C66 C 0.81756 0.31756 0.74422
 C67 C 0.79683 0.31495 0.76296
 H68 H 0.82467 0.29164 0.70859
 H69 H 0.79341 0.32727 0.78048
 N70 N 0.75554 0.21905 0.70397
 N71 N 0.73394 0.20889 0.71582
 C72 C 0.72593 0.18685 0.70224
 C73 C 0.74329 0.18284 0.68076
 C74 C 0.76182 0.20371 0.68256
 H75 H 0.70900 0.17433 0.70793
 H76 H 0.77870 0.20745 0.66929
 H77 H 0.75799 0.23577 0.75208
 H78 H 0.73569 0.25752 0.73122
 N79 N 0.29367 -0.24090 0.78065
 N80 N 0.28033 -0.26082 0.79168
 C81 C 0.29375 -0.26887 0.81369
 C82 C 0.31675 -0.25309 0.81673
 C83 C 0.31597 -0.23552 0.79531
 H84 H 0.28694 -0.28471 0.82677
 H85 H 0.33049 -0.21995 0.79068
 Cu86 Cu 0.24631 -0.27420 0.77700
 Cu87 Cu 0.28078 -0.22316 0.74853
 Cu88 Cu 0.22407 -0.25025 0.71785
 N89 N 0.21630 -0.29079 0.75774
 N90 N 0.20798 -0.28167 0.73454
 C91 C 0.18687 -0.29656 0.72603
 C92 C 0.18137 -0.31619 0.74499
 C93 C 0.20070 -0.31179 0.76484
 H94 H 0.17604 -0.29276 0.70765
 H95 H 0.20330 -0.32285 0.78320
 N96 N 0.24312 -0.21839 0.70408
 N97 N 0.26468 -0.20804 0.71588
 C98 C 0.27265 -0.18615 0.70230
 C99 C 0.25529 -0.18242 0.68083
 C100 C 0.23679 -0.20331 0.68265
 H101 H 0.28953 -0.17352 0.70803
 H102 H 0.21988 -0.20722 0.66944
 H103 H 0.23998 -0.23265 0.75198
 H104 H 0.26202 -0.25753 0.73402
 N105 N 0.70569 -0.24093 0.78035
 N106 N 0.71944 -0.26061 0.79132
 C107 C 0.70635 -0.26888 0.81343
 C108 C 0.68313 -0.25348 0.81665
 C109 C 0.68342 -0.23591 0.79520
 H110 H 0.71359 -0.28454 0.82653
 H111 H 0.66863 -0.22056 0.79071
 Cu112 Cu 0.75376 -0.27300 0.77662
 Cu113 Cu 0.71819 -0.22289 0.74813
 Cu114 Cu 0.77495 -0.24962 0.71701
 N115 N 0.78316 -0.29006 0.75695
 N116 N 0.79124 -0.28108 0.73362
 C117 C 0.81219 -0.29612 0.72495
 C118 C 0.81780 -0.31569 0.74397
 C119 C 0.79870 -0.31110 0.76398
 H120 H 0.82283 -0.29249 0.70642
 H121 H 0.79625 -0.32200 0.78246
 N122 N 0.75564 -0.21776 0.70346
 N123 N 0.73405 -0.20756 0.71536
 C124 C 0.72604 -0.18555 0.70196
 C125 C 0.74343 -0.18158 0.68053
 C126 C 0.76195 -0.20248 0.68217
 H127 H 0.70917 -0.17296 0.70780
 H128 H 0.77890 -0.20621 0.66895
 H129 H 0.73726 -0.25709 0.73367
 H130 H 0.75916 -0.23170 0.75102
 N131 N 0.29716 0.24463 0.77813
 N132 N 0.28567 0.26658 0.78741
 C133 C 0.29882 0.27454 0.80969
 C134 C 0.31976 0.25663 0.81472
 C135 C 0.31802 0.23790 0.79416
 H136 H 0.29315 0.29177 0.82168
 H137 H 0.33082 0.22054 0.79108
 Cu138 Cu 0.25407 0.28228 0.77007
 Cu139 Cu 0.28373 0.22595 0.74650
 Cu140 Cu 0.22647 0.25208 0.71600
 N141 N 0.22129 0.29596 0.75318
 N142 N 0.21068 0.28415 0.73207
 C143 C 0.18812 0.29744 0.72475
 C144 C 0.18423 0.31880 0.74224
 C145 C 0.20574 0.31716 0.76005
 H146 H 0.17523 0.29161 0.70822
 H147 H 0.20980 0.33038 0.77679
 N148 N 0.24535 0.21978 0.70270
 N149 N 0.26717 0.20986 0.71432
 C150 C 0.27498 0.18759 0.70101
 C151 C 0.25723 0.18316 0.67994
 C152 C 0.23871 0.20406 0.68167
 H153 H 0.29201 0.17519 0.70664
 H154 H 0.22159 0.20755 0.66864
 H155 H 0.26579 0.25885 0.72862
 H156 H 0.24379 0.23824 0.75104
 N157 N 0.29842 -0.24629 0.22077
 N158 N 0.28626 -0.26764 0.21093
 C159 C 0.29939 -0.27561 0.18863
 C160 C 0.32098 -0.25832 0.18421
 C161 C 0.31969 -0.23997 0.20512
 H162 H 0.29321 -0.29227 0.17612
 H163 H 0.33298 -0.22304 0.20859
 Cu164 Cu 0.25370 -0.28212 0.22756
 Cu165 Cu 0.28502 -0.22742 0.25232
 Cu166 Cu 0.22685 -0.25280 0.28215
 N167 N 0.22116 -0.29628 0.24451
 N168 N 0.21083 -0.28468 0.26588
 C169 C 0.18833 -0.29799 0.27332
 C170 C 0.18416 -0.31913 0.25563
 C171 C 0.20547 -0.31736 0.23759
 H172 H 0.17566 -0.29228 0.29006
 H173 H 0.20928 -0.33045 0.22069
 N174 N 0.24607 -0.22074 0.29563
 N175 N 0.26824 -0.21118 0.28435
 C176 C 0.27612 -0.18897 0.29772
 C177 C 0.25804 -0.18421 0.31845
 C178 C 0.23927 -0.20485 0.31647
 H179 H 0.29341 -0.17681 0.29233
 H180 H 0.22184 -0.20802 0.32917
 H181 H 0.26612 -0.26006 0.26951
 H182 H 0.24483 -0.23823 0.24769
 N183 N 0.70211 0.24419 0.22180
 N184 N 0.71330 0.26636 0.21291
 C185 C 0.70021 0.27416 0.19062
 C186 C 0.67962 0.25593 0.18520
 C187 C 0.68151 0.23716 0.20552
 H188 H 0.70565 0.29156 0.17896
 H189 H 0.66893 0.21962 0.20831
 Cu190 Cu 0.74433 0.28271 0.23075
 Cu191 Cu 0.71538 0.22583 0.25345
 Cu192 Cu 0.77171 0.25300 0.28490
 N193 N 0.77682 0.29672 0.24801
 N194 N 0.78729 0.28512 0.26918
 C195 C 0.80987 0.29840 0.27656
 C196 C 0.81393 0.31952 0.25904
 C197 C 0.79247 0.31777 0.24116
 H198 H 0.82276 0.29259 0.29305
 H199 H 0.78862 0.33070 0.22428
 N200 N 0.75313 0.22055 0.29780
 N201 N 0.73172 0.21016 0.28575
 C202 C 0.72416 0.18778 0.29879
 C203 C 0.74167 0.18379 0.32009
 C204 C 0.75976 0.20504 0.31881
 H205 H 0.70750 0.17499 0.29280
 H206 H 0.77661 0.20888 0.33211
 H207 H 0.73241 0.25908 0.27179
 H208 H 0.75512 0.23886 0.24947
 C209 C 0.25594 0.02364 0.55625
 C210 C 0.25630 -0.00088 0.56971
 C211 C 0.25587 -0.02534 0.55587
 C212 C 0.25531 -0.02548 0.52755
 C213 C 0.25502 -0.00073 0.51356
 C214 C 0.25538 0.02393 0.52795
 C215 C 0.25611 0.04817 0.51366
 C216 C 0.25621 0.04826 0.48581
 C217 C 0.25559 0.02411 0.47113
 C218 C 0.25514 -0.00064 0.48512
 C219 C 0.25598 -0.04963 0.51287
 C220 C 0.25610 -0.04954 0.48502
 C221 C 0.25556 -0.02530 0.47073
 C222 C 0.25637 -0.02500 0.44242
 C223 C 0.25686 -0.00047 0.42898
 C224 C 0.25636 0.02398 0.44282
 H225 H 0.25705 0.06736 0.52387
 H226 H 0.25723 0.06752 0.47593
 H227 H 0.25686 -0.06889 0.52277
 H228 H 0.25705 -0.06874 0.47482
 H229 H 0.25676 -0.00093 0.59142
 H230 H 0.25748 -0.00041 0.40727
 C231 C 0.74443 0.02431 0.44209
 C232 C 0.74405 -0.00021 0.42837
 C233 C 0.74426 -0.02467 0.44196
 C234 C 0.74471 -0.02482 0.47028
 C235 C 0.74501 -0.00008 0.48453
 C236 C 0.74484 0.02459 0.47040
 C237 C 0.74410 0.04883 0.48493
 C238 C 0.74373 0.04890 0.51277
 C239 C 0.74413 0.02475 0.52722
 C240 C 0.74465 -0.00000 0.51298
 C241 C 0.74390 -0.04897 0.48471
 C242 C 0.74361 -0.04890 0.51256
 C243 C 0.74408 -0.02467 0.52712
 C244 C 0.74305 -0.02439 0.55542
 C245 C 0.74242 0.00016 0.56911
 C246 C 0.74309 0.02462 0.55551
 H247 H 0.74335 0.06803 0.47492
 H248 H 0.74267 0.06816 0.52284
 H249 H 0.74305 -0.06822 0.47461
 H250 H 0.74255 -0.06810 0.52256
 H251 H 0.74362 -0.00026 0.40665
 H252 H 0.74163 0.00023 0.59081
 C253 C 0.55729 0.25478 -0.02399
 C254 C 0.57098 0.25512 0.00050
 C255 C 0.55698 0.25464 0.02481
 C256 C 0.52827 0.25403 0.02485
 C257 C 0.51402 0.25383 0.00016
 C258 C 0.52857 0.25424 -0.02437
 C259 C 0.51401 0.25501 -0.04855
 C260 C 0.48575 0.25514 -0.04870
 C261 C 0.47091 0.25448 -0.02467
 C262 C 0.48517 0.25393 0.00001
 C263 C 0.51346 0.25455 0.04888
 C264 C 0.48522 0.25463 0.04874
 C265 C 0.47065 0.25418 0.02455
 C266 C 0.44193 0.25490 0.02422
 C267 C 0.42820 0.25562 -0.00025
 C268 C 0.44219 0.25525 -0.02461
 H269 H 0.52432 0.25597 -0.06764
 H270 H 0.47568 0.25620 -0.06790
 H271 H 0.52353 0.25533 0.06811
 H272 H 0.47496 0.25550 0.06786
 H273 H 0.59301 0.25559 0.00065
 H274 H 0.40618 0.25624 -0.00035
 C275 C 0.44289 0.74428 -0.02570
 C276 C 0.42888 0.74398 -0.00136
 C277 C 0.44258 0.74371 0.02310
 C278 C 0.47128 0.74351 0.02350
 C279 C 0.48585 0.74400 -0.00099
 C280 C 0.47162 0.74428 -0.02570
 C281 C 0.48649 0.74355 -0.04970
 C282 C 0.51472 0.74309 -0.04950
 C283 C 0.52926 0.74335 -0.02528
 C284 C 0.51471 0.74349 -0.00076
 C285 C 0.48574 0.74185 0.04768
 C286 C 0.51396 0.74118 0.04789
 C287 C 0.52891 0.74243 0.02396
 C288 C 0.55766 0.74173 0.02397
 C289 C 0.57164 0.74171 -0.00040
 C290 C 0.55797 0.74255 -0.02490
 H291 H 0.47645 0.74294 -0.06894
 H292 H 0.52499 0.74210 -0.06861
 H293 H 0.47536 0.74059 0.06672
 H294 H 0.52387 0.73922 0.06708
 H295 H 0.40685 0.74400 -0.00146
 H296 H 0.59366 0.74132 -0.00031
 C297 C 0.02493 0.44269 0.25427
 C298 C 0.00030 0.42878 0.25493
 C299 C -0.02457 0.44226 0.25457
 C300 C -0.02504 0.47066 0.25382
 C301 C -0.00022 0.48511 0.25305
 C302 C 0.02488 0.47109 0.25324
 C303 C 0.04921 0.48584 0.25335
 C304 C 0.04895 0.51379 0.25314
 C305 C 0.02435 0.52810 0.25290
 C306 C -0.00049 0.51365 0.25293
 C307 C -0.04961 0.48499 0.25481
 C308 C -0.04987 0.51293 0.25480
 C309 C -0.02558 0.52768 0.25370
 C310 C -0.02561 0.55611 0.25433
 C311 C -0.00096 0.57000 0.25434
 C312 C 0.02389 0.55650 0.25358
 H313 H 0.06874 0.47594 0.25401
 H314 H 0.06829 0.52405 0.25362
 H315 H -0.06893 0.47476 0.25613
 H316 H -0.06937 0.52282 0.25614
 H317 H 0.00050 0.40701 0.25572
 H318 H -0.00111 0.59179 0.25491
 C319 C 0.02453 0.44389 0.74582
 C320 C -0.00015 0.43009 0.74535
 C321 C -0.02500 0.44363 0.74579
 C322 C -0.02535 0.47207 0.74655
 C323 C -0.00043 0.48643 0.74717
 C324 C 0.02461 0.47230 0.74678
 C325 C 0.04900 0.48693 0.74638
 C326 C 0.04889 0.51488 0.74660
 C327 C 0.02438 0.52933 0.74720
 C328 C -0.00055 0.51499 0.74734
 C329 C -0.04984 0.48654 0.74569
 C330 C -0.04995 0.51450 0.74583
 C331 C -0.02557 0.52914 0.74679
 C332 C -0.02547 0.55756 0.74620
 C333 C -0.00075 0.57133 0.74613
 C334 C 0.02406 0.55774 0.74666
 H335 H 0.06847 0.47693 0.74547
 H336 H 0.06828 0.52503 0.74583
 H337 H -0.06922 0.47640 0.74442
 H338 H -0.06940 0.52451 0.74472
 H339 H 0.00000 0.40829 0.74469
 H340 H -0.00083 0.59312 0.74564
 C341 C 0.37460 0.25620 0.11827
 C342 C 0.35860 0.27890 0.12373
 C343 C 0.34134 0.27879 0.14603
 C344 C 0.33980 0.25613 0.16279
 C345 C 0.35630 0.23364 0.15712
 C346 C 0.37369 0.23356 0.13486
 C347 C 0.39238 0.25603 0.09452
 C348 C 0.40818 0.23320 0.08885
 C349 C 0.42468 0.23299 0.06595
 C350 C 0.42541 0.25544 0.04898
 C351 C 0.40951 0.27814 0.05492
 C352 C 0.39297 0.27858 0.07774
 C353 C 0.38998 0.21118 0.12868
 C354 C 0.40693 0.21101 0.10606
 C355 C 0.35997 0.30118 0.10663
 C356 C 0.37684 0.30101 0.08400
 H357 H 0.38951 0.19359 0.14134
 H358 H 0.41904 0.19330 0.10195
 H359 H 0.34774 0.31883 0.11066
 H360 H 0.37717 0.31854 0.07124
 H361 H 0.32913 0.29639 0.15018
 H362 H 0.35536 0.21599 0.16965
 H363 H 0.43676 0.21542 0.06113
 H364 H 0.41002 0.29534 0.04169
 C365 C 0.62660 0.74114 0.11695
 C366 C 0.62501 0.76224 0.13558
 C367 C 0.64299 0.76271 0.15738
 C368 C 0.66289 0.74246 0.16049
 C369 C 0.66378 0.72127 0.14154
 C370 C 0.64575 0.72052 0.11985
 C371 C 0.60813 0.74082 0.09371
 C372 C 0.60988 0.71975 0.07500
 C373 C 0.59273 0.71985 0.05264
 C374 C 0.57410 0.74092 0.04883
 C375 C 0.57263 0.76196 0.06771
 C376 C 0.58947 0.76188 0.09036
 C377 C 0.64672 0.69966 0.10082
 C378 C 0.62907 0.69926 0.07879
 C379 C 0.60574 0.78271 0.13181
 C380 C 0.58835 0.78259 0.10953
 H381 H 0.66139 0.68358 0.10287
 H382 H 0.63063 0.68292 0.06446
 H383 H 0.60426 0.79912 0.14606
 H384 H 0.57401 0.79891 0.10723
 H385 H 0.64164 0.77925 0.17143
 H386 H 0.67843 0.70522 0.14337
 H387 H 0.59403 0.70379 0.03795
 H388 H 0.55864 0.77844 0.06451
 C389 C 0.62716 0.25557 -0.11616
 C390 C 0.62830 0.23292 -0.13294
 C391 C 0.64629 0.23281 -0.15472
 C392 C 0.66313 0.25514 -0.15976
 C393 C 0.66155 0.27774 -0.14269
 C394 C 0.64367 0.27804 -0.12085
 C395 C 0.60853 0.25566 -0.09304
 C396 C 0.60769 0.27820 -0.07604
 C397 C 0.59037 0.27797 -0.05379
 C398 C 0.57397 0.25547 -0.04862
 C399 C 0.57494 0.23305 -0.06583
 C400 C 0.59223 0.23304 -0.08815
 C401 C 0.64207 0.30031 -0.10352
 C402 C 0.62441 0.30037 -0.08147
 C403 C 0.61158 0.21073 -0.12749
 C404 C 0.59386 0.21079 -0.10547
 H405 H 0.65470 0.31778 -0.10694
 H406 H 0.62395 0.31787 -0.06849
 H407 H 0.61229 0.19311 -0.14028
 H408 H 0.58144 0.19321 -0.10190
 H409 H 0.64735 0.21516 -0.16740
 H410 H 0.67413 0.29518 -0.14633
 H411 H 0.58977 0.29509 -0.04030
 H412 H 0.56257 0.21558 -0.06153
 C413 C 0.37368 0.74443 -0.11835
 C414 C 0.37342 0.76679 -0.13533
 C415 C 0.35511 0.76735 -0.15686
 C416 C 0.33702 0.74581 -0.16132
 C417 C 0.33794 0.72339 -0.14423
 C418 C 0.35614 0.72263 -0.12271
 C419 C 0.39232 0.74402 -0.09526
 C420 C 0.39219 0.72181 -0.07804
 C421 C 0.40936 0.72183 -0.05570
 C422 C 0.42650 0.74383 -0.05055
 C423 C 0.42656 0.76591 -0.06802
 C424 C 0.40950 0.76607 -0.09052
 C425 C 0.35687 0.70062 -0.10524
 C426 C 0.37460 0.70022 -0.08327
 C427 C 0.39117 0.78832 -0.13018
 C428 C 0.40889 0.78797 -0.10815
 H429 H 0.34345 0.68366 -0.10843
 H430 H 0.37436 0.68296 -0.07015
 H431 H 0.39121 0.80569 -0.14316
 H432 H 0.42208 0.80507 -0.10478
 H433 H 0.35461 0.78481 -0.16968
 H434 H 0.32449 0.70651 -0.14754
 H435 H 0.40920 0.70495 -0.04207
 H436 H 0.43952 0.78301 -0.06377
 C437 C 0.11865 0.37407 0.25760
 C438 C 0.13555 0.37199 0.23508
 C439 C 0.15743 0.35395 0.23550
 C440 C 0.16238 0.33794 0.25821
 C441 C 0.14528 0.34053 0.28069
 C442 C 0.12337 0.35850 0.28048
 C443 C 0.09530 0.39259 0.25707
 C444 C 0.07815 0.39431 0.27947
 C445 C 0.05555 0.41136 0.27859
 C446 C 0.05013 0.42658 0.25558
 C447 C 0.06756 0.42485 0.23334
 C448 C 0.09026 0.40784 0.23399
 C449 C 0.10594 0.36103 0.30261
 C450 C 0.08369 0.37862 0.30210
 C451 C 0.13004 0.38776 0.21246
 C452 C 0.10777 0.40537 0.21193
 H453 H 0.10941 0.34916 0.32040
 H454 H 0.07061 0.37980 0.31950
 H455 H 0.14294 0.38635 0.19495
 H456 H 0.10413 0.41701 0.19402
 H457 H 0.17019 0.35209 0.21795
 H458 H 0.14892 0.32864 0.29841
 H459 H 0.04191 0.41259 0.29559
 H460 H 0.06309 0.43635 0.21550
 C461 C 0.11706 0.62749 0.74445
 C462 C 0.13437 0.62888 0.76669
 C463 C 0.15600 0.64724 0.76662
 C464 C 0.16031 0.66451 0.74459
 C465 C 0.14272 0.66237 0.72231
 C466 C 0.12115 0.64401 0.72217
 C467 C 0.09392 0.60868 0.74467
 C468 C 0.07639 0.60762 0.72252
 C469 C 0.05400 0.59032 0.72311
 C470 C 0.04908 0.57421 0.74562
 C471 C 0.06687 0.57529 0.76763
 C472 C 0.08943 0.59253 0.76723
 C473 C 0.10338 0.64210 0.70024
 C474 C 0.08137 0.62421 0.70041
 C475 C 0.12946 0.61214 0.78876
 C476 C 0.10735 0.59431 0.78904
 H477 H 0.10636 0.65470 0.68287
 H478 H 0.06801 0.62353 0.68320
 H479 H 0.14267 0.61300 0.80607
 H480 H 0.10417 0.58195 0.80655
 H481 H 0.16900 0.64822 0.78404
 H482 H 0.14548 0.67496 0.70494
 H483 H 0.04011 0.58957 0.70628
 H484 H 0.06281 0.56311 0.78510
 C485 C -0.11938 0.62477 0.25713
 C486 C -0.13721 0.62517 0.23525
 C487 C -0.15899 0.64333 0.23531
 C488 C -0.16291 0.66144 0.25690
 C489 C -0.14484 0.66028 0.27887
 C490 C -0.12313 0.64208 0.27905
 C491 C -0.09606 0.60619 0.25687
 C492 C -0.07802 0.60611 0.27863
 C493 C -0.05541 0.58906 0.27792
 C494 C -0.05080 0.57228 0.25566
 C495 C -0.06911 0.57241 0.23406
 C496 C -0.09190 0.58932 0.23461
 C497 C -0.10485 0.64112 0.30062
 C498 C -0.08267 0.62343 0.30042
 C499 C -0.13264 0.60767 0.21353
 C500 C -0.11034 0.59010 0.21319
 H501 H -0.10757 0.65431 0.31772
 H502 H -0.06891 0.62351 0.31733
 H503 H -0.14627 0.60775 0.19652
 H504 H -0.10738 0.57718 0.19592
 H505 H -0.17238 0.64352 0.21816
 H506 H -0.14733 0.67350 0.29592
 H507 H -0.04110 0.58907 0.29442
 H508 H -0.06528 0.55974 0.21676
 C509 C -0.11763 0.37331 0.74382
 C510 C -0.13567 0.37307 0.76553
 C511 C -0.15740 0.35481 0.76545
 C512 C -0.16105 0.33649 0.74398
 C513 C -0.14257 0.33731 0.72232
 C514 C -0.12097 0.35561 0.72215
 C515 C -0.09456 0.39221 0.74394
 C516 C -0.07641 0.39223 0.72227
 C517 C -0.05417 0.40975 0.72273
 C518 C -0.04997 0.42706 0.74468
 C519 C -0.06835 0.42690 0.76625
 C520 C -0.09082 0.40954 0.76592
 C521 C -0.10250 0.35642 0.70073
 C522 C -0.08061 0.37443 0.70078
 C523 C -0.13146 0.39093 0.78703
 C524 C -0.10938 0.40880 0.78725
 H525 H -0.10491 0.34290 0.68383
 H526 H -0.06673 0.37427 0.68395
 H527 H -0.14523 0.39096 0.80394
 H528 H -0.10675 0.42205 0.80432
 H529 H -0.17101 0.35474 0.78244
 H530 H -0.14479 0.32387 0.70539
 H531 H -0.03983 0.40971 0.70626
 H532 H -0.06483 0.43993 0.78335
 C533 C 0.25803 0.11671 0.37482
 C534 C 0.28079 0.12134 0.35859
 C535 C 0.28063 0.14310 0.34093
 C536 C 0.25785 0.16017 0.33923
 C537 C 0.23525 0.15528 0.35586
 C538 C 0.23523 0.13357 0.37366
 C539 C 0.25792 0.09355 0.39309
 C540 C 0.23498 0.08865 0.40905
 C541 C 0.23476 0.06617 0.42589
 C542 C 0.25728 0.04884 0.42674
 C543 C 0.28014 0.05409 0.41076
 C544 C 0.28059 0.07645 0.39388
 C545 C 0.21275 0.12817 0.39012
 C546 C 0.21262 0.10609 0.40750
 C547 C 0.30319 0.10395 0.36017
 C548 C 0.30308 0.08186 0.37749
 H549 H 0.19503 0.14104 0.38944
 H550 H 0.19480 0.10253 0.41969
 H551 H 0.32089 0.10733 0.34776
 H552 H 0.32067 0.06880 0.37793
 H553 H 0.29829 0.14663 0.32856
 H554 H 0.21748 0.16800 0.35474
 H555 H 0.21702 0.06184 0.43798
 H556 H 0.29735 0.04053 0.41131
 C557 C 0.74195 0.11741 0.62444
 C558 C 0.76488 0.13409 0.62579
 C559 C 0.76511 0.15567 0.64398
 C560 C 0.74265 0.16057 0.66084
 C561 C 0.71970 0.14374 0.65889
 C562 C 0.71928 0.12212 0.64081
 C563 C 0.74187 0.09429 0.60587
 C564 C 0.71909 0.07733 0.60492
 C565 C 0.71942 0.05493 0.58784
 C566 C 0.74226 0.04951 0.57183
 C567 C 0.76487 0.06675 0.57281
 C568 C 0.76476 0.08926 0.58984
 C569 C 0.69672 0.10493 0.63899
 C570 C 0.69664 0.08289 0.62136
 C571 C 0.78727 0.12863 0.60918
 C572 C 0.78721 0.10659 0.59152
 H573 H 0.67907 0.10839 0.65148
 H574 H 0.67895 0.06998 0.62075
 H575 H 0.80507 0.14138 0.60998
 H576 H 0.80497 0.10297 0.57922
 H577 H 0.78299 0.16824 0.64526
 H578 H 0.70212 0.14734 0.67140
 H579 H 0.70213 0.04147 0.58716
 H580 H 0.78257 0.06231 0.56069
 C581 C 0.25674 -0.11752 0.62460
 C582 C 0.23387 -0.13428 0.62576
 C583 C 0.23359 -0.15570 0.64392
 C584 C 0.25594 -0.16035 0.66093
 C585 C 0.27882 -0.14342 0.65919
 C586 C 0.27929 -0.12196 0.64117
 C587 C 0.25692 -0.09461 0.60602
 C588 C 0.27963 -0.07757 0.60527
 C589 C 0.27938 -0.05536 0.58819
 C590 C 0.25668 -0.05019 0.57198
 C591 C 0.23414 -0.06751 0.57273
 C592 C 0.23416 -0.08984 0.58977
 C593 C 0.30176 -0.10467 0.63959
 C594 C 0.30192 -0.08283 0.62196
 C595 C 0.21160 -0.12905 0.60898
 C596 C 0.21174 -0.10721 0.59129
 H597 H 0.31929 -0.10789 0.65228
 H598 H 0.31955 -0.06982 0.62154
 H599 H 0.19381 -0.14184 0.60967
 H600 H 0.19407 -0.10377 0.57887
 H601 H 0.21576 -0.16835 0.64505
 H602 H 0.29632 -0.14681 0.67182
 H603 H 0.29661 -0.04182 0.58771
 H604 H 0.21652 -0.06324 0.56046
 C605 C 0.74179 -0.11795 0.37372
 C606 C 0.71896 -0.12258 0.35755
 C607 C 0.71890 -0.14457 0.33991
 C608 C 0.74152 -0.16185 0.33824
 C609 C 0.76417 -0.15698 0.35486
 C610 C 0.76442 -0.13504 0.37259
 C611 C 0.74215 -0.09455 0.39194
 C612 C 0.76516 -0.08969 0.40787
 C613 C 0.76560 -0.06705 0.42472
 C614 C 0.74322 -0.04953 0.42563
 C615 C 0.72031 -0.05473 0.40965
 C616 C 0.71963 -0.07726 0.39277
 C617 C 0.78698 -0.12965 0.38900
 C618 C 0.78734 -0.10736 0.40634
 C619 C 0.69671 -0.10497 0.35915
 C620 C 0.69705 -0.08269 0.37645
 H621 H 0.80457 -0.14269 0.38832
 H622 H 0.80518 -0.10386 0.41854
 H623 H 0.67895 -0.10835 0.34679
 H624 H 0.67956 -0.06951 0.37696
 H625 H 0.70122 -0.14812 0.32753
 H626 H 0.78184 -0.16985 0.35373
 H627 H 0.78337 -0.06277 0.43681
 H628 H 0.70319 -0.04104 0.41026
 C629 C 0.62717 0.74360 -0.11761
 C630 C 0.62725 0.76609 -0.13443
 C631 C 0.64524 0.76677 -0.15621
 C632 C 0.66321 0.74524 -0.16109
 C633 C 0.66253 0.72270 -0.14412
 C634 C 0.64462 0.72180 -0.12235
 C635 C 0.60876 0.74303 -0.09434
 C636 C 0.60895 0.72065 -0.07734
 C637 C 0.59183 0.72044 -0.05494
 C638 C 0.57466 0.74238 -0.04957
 C639 C 0.57468 0.76468 -0.06674
 C640 C 0.59166 0.76506 -0.08929
 C641 C 0.64403 0.69965 -0.10503
 C642 C 0.62650 0.69909 -0.08290
 C643 C 0.60963 0.78762 -0.12891
 C644 C 0.59216 0.78713 -0.10669
 H645 H 0.65737 0.68268 -0.10850
 H646 H 0.62681 0.68171 -0.06993
 H647 H 0.60947 0.80509 -0.14174
 H648 H 0.57904 0.80423 -0.10304
 H649 H 0.64560 0.78433 -0.16890
 H650 H 0.67592 0.70583 -0.14775
 H651 H 0.59196 0.70340 -0.04152
 H652 H 0.56173 0.78174 -0.06231
 C653 C 0.37434 0.25697 -0.11824
 C654 C 0.37316 0.23429 -0.13499
 C655 C 0.35552 0.23438 -0.15705
 C656 C 0.33905 0.25691 -0.16239
 C657 C 0.34081 0.27960 -0.14545
 C658 C 0.35833 0.27970 -0.12333
 C659 C 0.39243 0.25680 -0.09471
 C660 C 0.39327 0.27936 -0.07774
 C661 C 0.41002 0.27885 -0.05507
 C662 C 0.42587 0.25608 -0.04947
 C663 C 0.42494 0.23366 -0.06669
 C664 C 0.40821 0.23392 -0.08942
 C665 C 0.35997 0.30200 -0.10604
 C666 C 0.37712 0.30182 -0.08361
 C667 C 0.38941 0.21186 -0.12916
 C668 C 0.40664 0.21168 -0.10677
 H669 H 0.34774 0.31967 -0.10978
 H670 H 0.37763 0.31935 -0.07069
 H671 H 0.38870 0.19422 -0.14194
 H672 H 0.41871 0.19392 -0.10292
 H673 H 0.35440 0.21670 -0.16968
 H674 H 0.32859 0.29721 -0.14933
 H675 H 0.41065 0.29601 -0.04162
 H676 H 0.43694 0.21601 -0.06212
 C677 C 0.37506 0.74172 0.11686
 C678 C 0.37388 0.76436 0.13366
 C679 C 0.35646 0.76412 0.15587
 C680 C 0.34020 0.74146 0.16130
 C681 C 0.34195 0.71881 0.14433
 C682 C 0.35926 0.71886 0.12206
 C683 C 0.39290 0.74207 0.09317
 C684 C 0.39374 0.71954 0.07615
 C685 C 0.41032 0.72016 0.05338
 C686 C 0.42604 0.74300 0.04778
 C687 C 0.42512 0.76541 0.06500
 C688 C 0.40850 0.76506 0.08780
 C689 C 0.36090 0.69660 0.10472
 C690 C 0.37781 0.69696 0.08213
 C691 C 0.38990 0.78692 0.12773
 C692 C 0.40693 0.78726 0.10519
 H693 H 0.34885 0.67882 0.10854
 H694 H 0.37834 0.67945 0.06916
 H695 H 0.38917 0.80452 0.14055
 H696 H 0.41883 0.80511 0.10127
 H697 H 0.35528 0.78178 0.16852
 H698 H 0.32988 0.70111 0.14834
 H699 H 0.41101 0.70301 0.03993
 H700 H 0.43709 0.78307 0.06041
 C701 C 0.62499 0.25618 0.11825
 C702 C 0.64102 0.27890 0.12352
 C703 C 0.65858 0.27880 0.14559
 C704 C 0.66036 0.25613 0.16231
 C705 C 0.64391 0.23357 0.15677
 C706 C 0.62622 0.23349 0.13475
 C707 C 0.60683 0.25603 0.09479
 C708 C 0.59103 0.23316 0.08929
 C709 C 0.57424 0.23293 0.06660
 C710 C 0.57329 0.25539 0.04966
 C711 C 0.58914 0.27815 0.05547
 C712 C 0.60595 0.27861 0.07808
 C713 C 0.60994 0.21107 0.12874
 C714 C 0.59264 0.21090 0.10639
 C715 C 0.63936 0.30121 0.10649
 C716 C 0.62213 0.30106 0.08413
 H717 H 0.61068 0.19343 0.14133
 H718 H 0.58056 0.19315 0.10238
 H719 H 0.65162 0.31887 0.11037
 H720 H 0.62160 0.31859 0.07138
 H721 H 0.67079 0.29643 0.14961
 H722 H 0.64505 0.21590 0.16923
 H723 H 0.56223 0.21530 0.06184
 H724 H 0.58847 0.29533 0.04223
 C725 C -0.11823 0.62758 0.74344
 C726 C -0.12214 0.64417 0.72117
 C727 C -0.14360 0.66269 0.72128
 C728 C -0.16123 0.66490 0.74354
 C729 C -0.15706 0.64759 0.76555
 C730 C -0.13557 0.62908 0.76565
 C731 C -0.09522 0.60860 0.74370
 C732 C -0.09093 0.59239 0.76626
 C733 C -0.06848 0.57502 0.76674
 C734 C -0.05057 0.57388 0.74485
 C735 C -0.05529 0.59003 0.72231
 C736 C -0.07761 0.60746 0.72162
 C737 C -0.13084 0.61229 0.78771
 C738 C -0.10888 0.59429 0.78803
 C739 C -0.10428 0.64217 0.69930
 C740 C -0.08239 0.62413 0.69953
 H741 H -0.14407 0.61325 0.80501
 H742 H -0.10582 0.58192 0.80555
 H743 H -0.10711 0.65483 0.68195
 H744 H -0.06896 0.62341 0.68237
 H745 H -0.14622 0.67536 0.70396
 H746 H -0.17007 0.64860 0.78295
 H747 H -0.06455 0.56284 0.78425
 H748 H -0.04129 0.58928 0.70558
 C749 C -0.11866 0.37412 0.25798
 C750 C -0.13606 0.37278 0.23577
 C751 C -0.15828 0.35516 0.23632
 C752 C -0.16311 0.33886 0.25884
 C753 C -0.14552 0.34076 0.28103
 C754 C -0.12325 0.35826 0.28068
 C755 C -0.09499 0.39222 0.25733
 C756 C -0.07739 0.39324 0.27943
 C757 C -0.05462 0.41006 0.27851
 C758 C -0.04952 0.42578 0.25577
 C759 C -0.06731 0.42463 0.23378
 C760 C -0.09017 0.40785 0.23447
 C761 C -0.10533 0.36005 0.30250
 C762 C -0.08277 0.37723 0.30187
 C763 C -0.13071 0.38887 0.21334
 C764 C -0.10814 0.40611 0.21270
 H765 H -0.10868 0.34792 0.32014
 H766 H -0.06934 0.37787 0.31903
 H767 H -0.14398 0.38804 0.19607
 H768 H -0.10466 0.41805 0.19497
 H769 H -0.17142 0.35388 0.21900
 H770 H -0.14903 0.32866 0.29864
 H771 H -0.04072 0.41087 0.29532
 H772 H -0.06309 0.43654 0.21615
 C773 C 0.11803 0.37489 0.74269
 C774 C 0.12260 0.35885 0.71995
 C775 C 0.14443 0.34078 0.71982
 C776 C 0.16163 0.33856 0.74226
 C777 C 0.15683 0.35505 0.76482
 C778 C 0.13503 0.37320 0.76516
 C779 C 0.09475 0.39351 0.74314
 C780 C 0.08987 0.40923 0.76608
 C781 C 0.06722 0.42633 0.76667
 C782 C 0.04967 0.42766 0.74452
 C783 C 0.05494 0.41195 0.72163
 C784 C 0.07749 0.39483 0.72081
 C785 C 0.12970 0.38947 0.78762
 C786 C 0.10749 0.40717 0.78808
 C787 C 0.10508 0.36101 0.69787
 C788 C 0.08289 0.37868 0.69830
 H789 H 0.14268 0.38838 0.80508
 H790 H 0.10398 0.41919 0.80589
 H791 H 0.10843 0.34877 0.68018
 H792 H 0.06974 0.37956 0.68095
 H793 H 0.14794 0.32853 0.70220
 H794 H 0.16967 0.35351 0.78233
 H795 H 0.06288 0.43820 0.78441
 H796 H 0.04122 0.41288 0.70468
 C797 C 0.11743 0.62544 0.25547
 C798 C 0.13407 0.62724 0.23275
 C799 C 0.15608 0.64515 0.23296
 C800 C 0.16142 0.66128 0.25567
 C801 C 0.14458 0.65892 0.27835
 C802 C 0.12255 0.64112 0.27833
 C803 C 0.09397 0.60703 0.25521
 C804 C 0.07713 0.60556 0.27784
 C805 C 0.05453 0.58852 0.27729
 C806 C 0.04883 0.57301 0.25439
 C807 C 0.06590 0.57454 0.23189
 C808 C 0.08859 0.59158 0.23220
 C809 C 0.10540 0.63888 0.30068
 C810 C 0.08305 0.62141 0.30043
 C811 C 0.12817 0.61131 0.21017
 C812 C 0.10581 0.59378 0.20990
 H813 H 0.10917 0.65086 0.31845
 H814 H 0.07022 0.62042 0.31801
 H815 H 0.14085 0.61250 0.19249
 H816 H 0.10190 0.58198 0.19204
 H817 H 0.16866 0.64680 0.21529
 H818 H 0.14852 0.67086 0.29609
 H819 H 0.04117 0.58742 0.29450
 H820 H 0.06121 0.56279 0.21416
 C821 C 0.74220 -0.11634 0.62460
 C822 C 0.71947 -0.12103 0.64085
 C823 C 0.71988 -0.14254 0.65886
 C824 C 0.74288 -0.15929 0.66084
 C825 C 0.76545 -0.15432 0.64419
 C826 C 0.76523 -0.13286 0.62608
 C827 C 0.74204 -0.09345 0.60596
 C828 C 0.76496 -0.08849 0.58999
 C829 C 0.76495 -0.06625 0.57282
 C830 C 0.74224 -0.04917 0.57169
 C831 C 0.71938 -0.05451 0.58766
 C832 C 0.71915 -0.07667 0.60485
 C833 C 0.78769 -0.12740 0.60962
 C834 C 0.78755 -0.10560 0.59188
 C835 C 0.69683 -0.10397 0.63893
 C836 C 0.69669 -0.08215 0.62125
 H837 H 0.80559 -0.13999 0.61057
 H838 H 0.80536 -0.10200 0.57968
 H839 H 0.67915 -0.10739 0.65134
 H840 H 0.67891 -0.06935 0.62055
 H841 H 0.70225 -0.14614 0.67125
 H842 H 0.78339 -0.16679 0.64555
 H843 H 0.78268 -0.06185 0.56076
 H844 H 0.70202 -0.04115 0.58690
 C845 C 0.25817 -0.11772 0.37346
 C846 C 0.23528 -0.13442 0.37192
 C847 C 0.23541 -0.15627 0.35410
 C848 C 0.25822 -0.16146 0.33780
 C849 C 0.28108 -0.14452 0.33982
 C850 C 0.28113 -0.12261 0.35753
 C851 C 0.25799 -0.09447 0.39186
 C852 C 0.28078 -0.07755 0.39307
 C853 C 0.28028 -0.05516 0.41015
 C854 C 0.25727 -0.04976 0.42594
 C855 C 0.23462 -0.06690 0.42463
 C856 C 0.23487 -0.08937 0.40757
 C857 C 0.30363 -0.10536 0.35949
 C858 C 0.30344 -0.08319 0.37694
 C859 C 0.21260 -0.12878 0.38807
 C860 C 0.21240 -0.10664 0.40560
 H861 H 0.32147 -0.10894 0.34730
 H862 H 0.32114 -0.07028 0.37770
 H863 H 0.19479 -0.14152 0.38706
 H864 H 0.19445 -0.10293 0.41759
 H865 H 0.21757 -0.16887 0.35272
 H866 H 0.29889 -0.14827 0.32769
 H867 H 0.29759 -0.04173 0.41105
 H868 H 0.21677 -0.06243 0.43654
 C869 C 0.74199 0.11735 0.37449
 C870 C 0.76478 0.13421 0.37314
 C871 C 0.76447 0.15611 0.35556
 C872 C 0.74163 0.16114 0.33932
 C873 C 0.71887 0.14408 0.34119
 C874 C 0.71897 0.12214 0.35866
 C875 C 0.74237 0.09402 0.39254
 C876 C 0.71970 0.07695 0.39356
 C877 C 0.72038 0.05447 0.41027
 C878 C 0.74346 0.04910 0.42590
 C879 C 0.76600 0.06640 0.42482
 C880 C 0.76556 0.08898 0.40812
 C881 C 0.69658 0.10476 0.36044
 C882 C 0.69695 0.08253 0.37758
 C883 C 0.78752 0.12866 0.38918
 C884 C 0.78790 0.10642 0.40637
 H885 H 0.67869 0.10827 0.34834
 H886 H 0.67934 0.06951 0.37821
 H887 H 0.80524 0.14152 0.38832
 H888 H 0.80590 0.10277 0.41826
 H889 H 0.78223 0.16883 0.35426
 H890 H 0.70102 0.14777 0.32912
 H891 H 0.70315 0.04095 0.41103
 H892 H 0.78388 0.06199 0.43666
 C893 C 0.25756 0.11664 0.62489
 C894 C 0.28044 0.12152 0.64094
 C895 C 0.28033 0.14348 0.65861
 C896 C 0.25749 0.16047 0.66049
 C897 C 0.23479 0.15533 0.64402
 C898 C 0.23471 0.13342 0.62623
 C899 C 0.25742 0.09330 0.60659
 C900 C 0.23438 0.08820 0.59077
 C901 C 0.23416 0.06564 0.57382
 C902 C 0.25677 0.04842 0.57271
 C903 C 0.27969 0.05382 0.58861
 C904 C 0.28015 0.07630 0.60559
 C905 C 0.21212 0.12777 0.60996
 C906 C 0.21196 0.10555 0.59253
 C907 C 0.30290 0.10420 0.63917
 C908 C 0.30274 0.08195 0.62181
 H909 H 0.19434 0.14056 0.61081
 H910 H 0.19408 0.10183 0.58044
 H911 H 0.32068 0.10776 0.65144
 H912 H 0.32040 0.06898 0.62119
 H913 H 0.29808 0.14722 0.67082
 H914 H 0.21698 0.16800 0.64527
 H915 H 0.21639 0.06118 0.56179
 H916 H 0.29697 0.04035 0.58786
   
