data_POSCAR
  _audit_creation_date              2014-09-24
  _audit_creation_method            'ToBaCCo'
  _symmetry_space_group_name_H-M    'P1'
  _symmetry_Int_Tables_number       1
  _symmetry_cell_setting            triclinic
  loop_
  _symmetry_equiv_pos_as_xyz
 x,y,z
_cell_length_a 24.1940
_cell_length_b 23.4995
_cell_length_c 24.1786
_cell_angle_alpha 88.815000
_cell_angle_beta 89.500700
_cell_angle_gamma 91.057100
loop_
  _atom_site_label
  _atom_site_type_symbol
  _atom_site_fract_x
  _atom_site_fract_y
  _atom_site_fract_z
N1 N 0.25133 0.27012 0.25045
 N2 N 0.79746 -0.19005 0.19744
 N3 N 0.74909 0.24587 0.74652
 N4 N 0.22257 -0.20719 0.79038
 N5 N 0.71625 -0.28450 0.73418
 N6 N 0.22531 0.22817 0.77365
 N7 N 0.27454 -0.28037 0.28700
 N8 N 0.73447 0.25557 0.25609
 O9 O 0.17692 0.05561 0.45779
 O10 O 0.20981 -0.04787 0.56794
 O11 O 0.20716 0.06091 0.56102
 O12 O 0.18197 -0.05606 0.46458
 O13 O 0.27004 -0.05275 0.43990
 O14 O 0.29520 0.06421 0.53585
 O15 O 0.29795 -0.04447 0.54321
 O16 O 0.26493 0.05998 0.43290
 Cu17 Cu 0.18495 0.00280 0.51471
 Cu18 Cu 0.29071 0.00710 0.48452
 C19 C 0.21547 0.07645 0.42737
 C20 C 0.25948 -0.06270 0.57534
 C21 C 0.25590 0.08123 0.56600
 C22 C 0.22206 -0.07527 0.43685
 O23 O 0.84125 0.03467 0.55396
 O24 O 0.81497 -0.05801 0.43485
 O25 O 0.83633 0.04837 0.44834
 O26 O 0.83013 -0.07579 0.54158
 O27 O 0.74046 -0.06564 0.55472
 O28 O 0.74597 0.05829 0.45665
 O29 O 0.72511 -0.04968 0.44847
 O30 O 0.75127 0.04530 0.56392
 Cu31 Cu 0.83956 -0.01442 0.49409
 Cu32 Cu 0.73173 -0.00206 0.50740
 C33 C 0.80043 0.05715 0.57810
 C34 C 0.76525 -0.06841 0.42075
 C35 C 0.79254 0.07414 0.43593
 C36 C 0.78505 -0.09191 0.56437
 O37 O 0.43671 0.16009 0.05125
 O38 O 0.53777 0.15350 -0.05991
 O39 O 0.54287 0.15050 0.04881
 O40 O 0.43368 0.18351 -0.05393
 O41 O 0.45457 0.27489 -0.04631
 O42 O 0.55979 0.24268 0.05538
 O43 O 0.55801 0.24506 -0.05297
 O44 O 0.45247 0.25243 0.05971
 Cu45 Cu 0.48635 0.15301 -0.00464
 Cu46 Cu 0.50811 0.26266 0.00462
 C47 C 0.42699 0.20648 0.07457
 C48 C 0.56538 0.19713 -0.07554
 C49 C 0.56907 0.19188 0.07047
 C50 C 0.42536 0.23562 -0.06671
 O51 O 0.56442 0.80467 0.04881
 O52 O 0.43275 0.80061 -0.03062
 O53 O 0.46041 0.81814 0.07418
 O54 O 0.53813 0.81778 -0.05442
 O55 O 0.53878 0.72378 -0.05300
 O56 O 0.45717 0.72418 0.07858
 O57 O 0.43371 0.70674 -0.02423
 O58 O 0.56086 0.71066 0.05271
 Cu59 Cu 0.49821 0.81878 0.00909
 Cu60 Cu 0.49784 0.70796 0.01334
 C61 C 0.58498 0.75708 0.06373
 C62 C 0.41126 0.75190 -0.04095
 C63 C 0.44515 0.77239 0.09855
 C64 C 0.55236 0.77167 -0.07577
 O65 O 0.04009 0.45904 0.14841
 O66 O -0.05499 0.57739 0.17433
 O67 O 0.05037 0.56687 0.16147
 O68 O -0.06801 0.46798 0.15394
 O69 O -0.06318 0.44957 0.24364
 O70 O 0.05583 0.55075 0.25164
 O71 O -0.05061 0.55841 0.26400
 O72 O 0.04469 0.44250 0.23846
 Cu73 Cu -0.00939 0.51917 0.15052
 Cu74 Cu -0.00331 0.49841 0.25844
 C75 C 0.06003 0.43197 0.18948
 C76 C -0.06779 0.58871 0.22402
 C77 C 0.07364 0.57539 0.20739
 C78 C -0.08558 0.44149 0.19694
 O79 O 0.05987 0.56539 0.79668
 O80 O -0.03777 0.44638 0.82478
 O81 O 0.06499 0.45280 0.79371
 O82 O -0.04549 0.55552 0.82222
 O83 O -0.06782 0.55512 0.73387
 O84 O 0.04274 0.45528 0.70531
 O85 O -0.06000 0.44605 0.73634
 O86 O 0.03674 0.56620 0.70855
 Cu87 Cu 0.01339 0.50535 0.81811
 Cu88 Cu -0.01393 0.50584 0.71211
 C89 C 0.06433 0.58669 0.74813
 C90 C -0.06593 0.42636 0.78548
 C91 C 0.07161 0.43568 0.74452
 C92 C -0.07642 0.57152 0.78282
 C93 C 0.29063 0.28167 0.20622
 C94 C 0.32180 0.24029 0.18647
 C95 C 0.36250 0.24967 0.14144
 C96 C 0.38622 0.20437 0.11978
 H97 H 0.31629 0.19746 0.20340
 H98 H 0.37237 0.29228 0.12592
 H99 H 0.29356 0.32398 0.18757
 H100 H 0.37396 0.16222 0.13508
 C101 C 0.74860 0.82464 0.16682
 C102 C 0.71983 0.78513 0.13977
 C103 C 0.66740 0.79700 0.11150
 C104 C 0.63763 0.75304 0.09314
 H105 H 0.73420 0.74171 0.14040
 H106 H 0.65318 0.84023 0.10637
 H107 H 0.73288 0.86743 0.16913
 H108 H 0.65272 0.71030 0.10013
 C109 C 0.70959 0.25878 -0.21061
 C110 C 0.67735 0.21855 -0.18657
 C111 C 0.63778 0.23161 -0.14206
 C112 C 0.60603 0.18980 -0.12022
 H113 H 0.68068 0.17481 -0.19934
 H114 H 0.63463 0.27470 -0.12736
 H115 H 0.70732 0.30209 -0.19620
 H116 H 0.60987 0.14712 -0.13594
 C117 C 0.26729 0.80870 -0.17349
 C118 C 0.28954 0.77147 -0.13801
 C119 C 0.33756 0.78615 -0.10357
 C120 C 0.36013 0.74525 -0.07261
 H121 H 0.27364 0.72809 -0.13586
 H122 H 0.35555 0.82874 -0.10527
 H123 H 0.28502 0.85136 -0.17705
 H124 H 0.34194 0.70270 -0.07297
 C125 C 0.20369 0.30528 0.25696
 C126 C 0.17741 0.32831 0.21370
 C127 C 0.12973 0.36516 0.22250
 C128 C 0.10310 0.38957 0.18019
 H129 H 0.19141 0.32043 0.17191
 H130 H 0.11767 0.37428 0.26465
 H131 H 0.18770 0.31176 0.29836
 H132 H 0.11548 0.38099 0.13803
 C133 C 0.18622 0.74492 0.80350
 C134 C 0.16195 0.71474 0.76379
 C135 C 0.12641 0.66469 0.77707
 C136 C 0.10137 0.63603 0.73684
 H137 H 0.16913 0.72658 0.72073
 H138 H 0.12026 0.65161 0.81998
 H139 H 0.18002 0.73180 0.84639
 H140 H 0.10703 0.65009 0.69414
 C141 C -0.16826 0.76409 0.17981
 C142 C -0.14809 0.72677 0.21647
 C143 C -0.11694 0.67679 0.19920
 C144 C -0.10186 0.63794 0.23697
 H145 H -0.15635 0.73229 0.26017
 H146 H -0.10593 0.67211 0.15600
 H147 H -0.16299 0.75695 0.13594
 H148 H -0.11310 0.64357 0.28001
 C149 C -0.20702 0.28615 0.73344
 C150 C -0.17988 0.31373 0.77287
 C151 C -0.13639 0.35604 0.75854
 C152 C -0.10668 0.38071 0.79795
 H153 H -0.19006 0.30511 0.81601
 H154 H -0.12944 0.36794 0.71543
 H155 H -0.19465 0.29277 0.69052
 H156 H -0.11337 0.36806 0.84091
 C157 C 0.26446 0.22881 0.29309
 C158 C 0.22545 0.19729 0.31934
 C159 C 0.24061 0.15214 0.35932
 C160 C 0.20183 0.12067 0.38591
 H161 H 0.18224 0.20372 0.31008
 H162 H 0.28396 0.14491 0.36739
 H163 H 0.30758 0.22034 0.30131
 H164 H 0.15854 0.12894 0.37858
 C165 C 0.73905 0.19933 0.70978
 C166 C 0.78053 0.17198 0.68555
 C167 C 0.76943 0.12619 0.64628
 C168 C 0.81068 0.09870 0.62183
 H169 H 0.82298 0.18404 0.69423
 H170 H 0.72689 0.11627 0.63582
 H171 H 0.69677 0.18556 0.70240
 H172 H 0.85316 0.10887 0.63227
 C173 C 0.21009 -0.17107 0.74364
 C174 C 0.24961 -0.15087 0.70929
 C175 C 0.23509 -0.11665 0.66016
 C176 C 0.27322 -0.10010 0.62259
 H177 H 0.29250 -0.16073 0.71693
 H178 H 0.19245 -0.10427 0.65506
 H179 H 0.16708 -0.16382 0.73388
 H180 H 0.31585 -0.11246 0.62774
 C181 C 0.81284 -0.15874 0.24564
 C182 C 0.77501 -0.14220 0.28217
 C183 C 0.79111 -0.11392 0.33353
 C184 C 0.75274 -0.10099 0.37100
 H185 H 0.73161 -0.15102 0.27472
 H186 H 0.83416 -0.10264 0.34014
 H187 H 0.85637 -0.15299 0.25478
 H188 H 0.70975 -0.11189 0.36344
 C189 C 0.67817 0.70356 -0.22057
 C190 C 0.64691 0.74388 -0.19892
 C191 C 0.61123 0.73270 -0.14996
 C192 C 0.58518 0.77601 -0.12714
 H193 H 0.64947 0.78687 -0.21591
 H194 H 0.60797 0.69028 -0.13163
 H195 H 0.67723 0.66134 -0.20155
 H196 H 0.59022 0.81825 -0.14569
 C197 C 0.26762 0.20551 -0.19107
 C198 C 0.30069 0.23949 -0.16207
 C199 C 0.34548 0.21679 -0.12760
 C200 C 0.38110 0.25286 -0.10440
 H201 H 0.29539 0.28517 -0.16486
 H202 H 0.34899 0.17126 -0.12086
 H203 H 0.27492 0.16011 -0.19081
 H204 H 0.37686 0.29820 -0.11218
 C205 C 0.31546 0.70627 0.24556
 C206 C 0.34890 0.74625 0.22266
 C207 C 0.38546 0.73435 0.17526
 C208 C 0.41273 0.77745 0.14987
 H209 H 0.34677 0.78965 0.23669
 H210 H 0.38778 0.69158 0.15955
 H211 H 0.31603 0.66357 0.22941
 H212 H 0.40858 0.82004 0.16572
 C213 C 0.69721 0.26121 0.21016
 C214 C 0.67308 0.21619 0.18639
 C215 C 0.63513 0.22470 0.13976
 C216 C 0.60975 0.18130 0.11452
 H217 H 0.68135 0.17339 0.20121
 H218 H 0.62691 0.26808 0.12657
 H219 H 0.68978 0.30349 0.19329
 H220 H 0.61750 0.13781 0.12761
 C221 C -0.23901 0.67721 0.72497
 C222 C -0.20706 0.65894 0.76630
 C223 C -0.15906 0.62336 0.75478
 C224 C -0.12341 0.60863 0.79436
 H225 H -0.21546 0.67176 0.80830
 H226 H -0.15287 0.60895 0.71290
 H227 H -0.22836 0.66679 0.68274
 H228 H -0.12955 0.62297 0.83625
 C229 C -0.22372 0.29910 0.26520
 C230 C -0.19969 0.32898 0.22351
 C231 C -0.15483 0.37094 0.23334
 C232 C -0.13208 0.40071 0.19100
 H233 H -0.21207 0.32131 0.18132
 H234 H -0.13995 0.37690 0.27502
 H235 H -0.20965 0.30620 0.30700
 H236 H -0.14771 0.39447 0.14962
 C237 C 0.19383 0.27651 0.79042
 C238 C 0.16997 0.31092 0.75331
 C239 C 0.13622 0.35936 0.77005
 C240 C 0.11169 0.39145 0.73153
 H241 H 0.17488 0.30274 0.70960
 H242 H 0.12933 0.36704 0.81360
 H243 H 0.19082 0.28603 0.83403
 H244 H 0.11816 0.38227 0.68820
 C245 C 0.22553 0.68414 0.29286
 C246 C 0.19986 0.66373 0.24856
 C247 C 0.14948 0.62779 0.25326
 C248 C 0.12242 0.61355 0.20753
 H249 H 0.21605 0.67452 0.20765
 H250 H 0.13502 0.61262 0.29358
 H251 H 0.20772 0.67641 0.33369
 H252 H 0.13722 0.62996 0.16772
 C253 C 0.70744 -0.23818 0.69508
 C254 C 0.74967 -0.21302 0.66734
 C255 C 0.74237 -0.16412 0.62897
 C256 C 0.78653 -0.14150 0.60248
 H257 H 0.79122 -0.22801 0.67405
 H258 H 0.70172 -0.14658 0.62282
 H259 H 0.66614 -0.22201 0.68959
 H260 H 0.82666 -0.16014 0.60925
 C261 C 0.28408 -0.23417 0.32438
 C262 C 0.24258 -0.20416 0.34532
 C263 C 0.25364 -0.15411 0.37962
 C264 C 0.21225 -0.12467 0.40141
 H265 H 0.20017 -0.21547 0.33573
 H266 H 0.29615 -0.14146 0.38739
 H267 H 0.32631 -0.22111 0.33295
 H268 H 0.16984 -0.13835 0.39467
 C269 C 0.72412 0.21169 0.29774
 C270 C 0.76462 0.19148 0.32934
 C271 C 0.75469 0.14551 0.37075
 C272 C 0.79755 0.12253 0.39672
 H273 H 0.80646 0.20786 0.32336
 H274 H 0.71302 0.12946 0.37872
 H275 H 0.68291 0.19311 0.30199
 H276 H 0.83903 0.13809 0.38682
 C277 C 0.20898 0.19664 0.72593
 C278 C 0.24664 0.17514 0.69194
 C279 C 0.23034 0.14063 0.64452
 C280 C 0.26844 0.12301 0.60874
 H281 H 0.29020 0.18250 0.69987
 H282 H 0.18742 0.12743 0.64038
 H283 H 0.16539 0.19219 0.71651
 H284 H 0.31117 0.13678 0.61319
   
