data_POSCAR
  _audit_creation_date              2014-09-24
  _audit_creation_method            'ToBaCCo'
  _symmetry_space_group_name_H-M    'P1'
  _symmetry_Int_Tables_number       1
  _symmetry_cell_setting            triclinic
  loop_
  _symmetry_equiv_pos_as_xyz
 x,y,z
_cell_length_a 24.7355
_cell_length_b 26.8678
_cell_length_c 23.2893
_cell_angle_alpha 89.580600
_cell_angle_beta 90.470200
_cell_angle_gamma 90.383100
loop_
  _atom_site_label
  _atom_site_type_symbol
  _atom_site_fract_x
  _atom_site_fract_y
  _atom_site_fract_z
Si1 Si 0.26084 0.25129 0.26488
 Si2 Si 0.74446 0.75971 0.23373
 Si3 Si 0.74870 0.24944 0.72688
 Si4 Si 0.23103 0.74141 0.76945
 C5 C 0.10369 0.05728 0.03524
 H6 H 0.11985 0.03812 -0.00135
 C7 C 0.13865 0.08431 0.07086
 H8 H 0.18163 0.08453 0.06238
 C9 C 0.02823 0.08309 0.08897
 H10 H -0.01487 0.08289 0.09592
 C11 C 0.06155 0.11126 0.12498
 H12 H 0.04377 0.13297 0.15888
 N13 N 0.04976 0.05513 0.04641
 C14 C 0.01899 -0.05896 -0.08431
 H15 H -0.02010 -0.04759 -0.10029
 C16 C 0.04669 -0.09600 -0.11319
 H17 H 0.03026 -0.10993 -0.15325
 C18 C 0.08603 -0.05698 -0.01153
 H19 H 0.10016 -0.04317 0.02939
 C20 C 0.11418 -0.09549 -0.03791
 H21 H 0.15052 -0.10996 -0.01786
 Zn22 Zn 0.00242 0.01499 0.00040
 N23 N 0.04070 -0.03761 -0.03652
 C24 C -0.03063 0.05377 -0.11044
 N25 N -0.03416 0.05838 -0.05244
 C26 C -0.06561 0.09428 -0.02925
 C27 C -0.09494 0.12687 -0.06443
 C28 C -0.06311 0.08243 -0.14684
 C29 C -0.04652 -0.01963 0.10422
 C30 C -0.08408 -0.04713 0.13580
 C31 C -0.12674 -0.07245 0.04697
 C32 C -0.08961 -0.04292 0.01717
 N33 N -0.05018 -0.01760 0.04594
 H34 H -0.00304 0.02787 -0.12920
 H35 H -0.06821 0.09766 0.01677
 H36 H -0.11836 0.15592 -0.04469
 H37 H -0.06317 0.07442 -0.19229
 H38 H -0.01346 -0.00160 0.12645
 H39 H -0.08043 -0.04842 0.18216
 H40 H -0.15607 -0.09440 0.02322
 H41 H -0.09115 -0.04143 -0.02920
 C42 C 0.09481 -0.11509 -0.08986
 C43 C 0.11767 0.11066 0.11731
 C44 C -0.12450 -0.07450 0.10715
 C45 C -0.09458 0.12095 -0.12437
 C46 C 0.09115 0.56174 0.51828
 H47 H 0.10316 0.55427 0.47465
 C48 C 0.12700 0.58605 0.55540
 H49 H 0.16678 0.59635 0.54013
 C50 C 0.02511 0.55647 0.59107
 H51 H -0.01443 0.54484 0.60512
 C52 C 0.05837 0.58334 0.62840
 H53 H 0.04306 0.59332 0.67015
 N54 N 0.04208 0.54571 0.53724
 C55 C 0.02438 0.44335 0.39375
 H56 H -0.01620 0.45008 0.37819
 C57 C 0.05864 0.41288 0.36231
 H58 H 0.04505 0.39833 0.32139
 C59 C 0.08978 0.45041 0.46792
 H60 H 0.10096 0.46328 0.51022
 C61 C 0.12438 0.41868 0.43907
 H62 H 0.16221 0.40792 0.45921
 Zn63 Zn -0.00255 0.50868 0.48610
 N64 N 0.04187 0.46427 0.44372
 C65 C -0.03777 0.55419 0.37973
 N66 N -0.03987 0.55516 0.43813
 C67 C -0.07045 0.58957 0.46533
 C68 C -0.10498 0.62064 0.43413
 C69 C -0.07210 0.58417 0.34685
 C70 C -0.04782 0.41859 0.52476
 C71 C -0.08289 0.38700 0.55435
 C72 C -0.13012 0.45894 0.58909
 C73 C -0.09441 0.48926 0.55833
 N74 N -0.05369 0.46888 0.52733
 H75 H -0.00989 0.53033 0.35813
 H76 H -0.06820 0.59295 0.51140
 H77 H -0.12996 0.64712 0.45640
 H78 H -0.07151 0.58169 0.30045
 H79 H -0.01544 0.40259 0.50040
 H80 H -0.07726 0.34710 0.55243
 H81 H -0.16137 0.47560 0.61482
 H82 H -0.09904 0.52898 0.56042
 C83 C 0.11013 0.40152 0.38426
 C84 C 0.11105 0.59670 0.61171
 C85 C -0.12452 0.40721 0.58694
 C86 C -0.10763 0.61649 0.37432
 C87 C 0.58899 0.01501 0.55942
 H88 H 0.60721 -0.01550 0.53710
 C89 C 0.62240 0.04975 0.58675
 H90 H 0.66587 0.04523 0.58590
 C91 C 0.51121 0.06071 0.58462
 H92 H 0.46809 0.06623 0.58128
 C93 C 0.54321 0.09640 0.61240
 H94 H 0.52448 0.12861 0.63137
 N95 N 0.53435 0.02107 0.55846
 C96 C 0.53055 -0.05884 0.40806
 H97 H 0.50362 -0.03253 0.38766
 C98 C 0.56378 -0.08815 0.37411
 H99 H 0.56261 -0.08395 0.32782
 C100 C 0.56507 -0.09697 0.49271
 H101 H 0.56524 -0.10022 0.53904
 C102 C 0.59891 -0.12708 0.46034
 H103 H 0.62519 -0.15356 0.48175
 Zn104 Zn 0.48920 -0.02035 0.51192
 N105 N 0.53245 -0.06299 0.46635
 C106 C 0.39526 0.02119 0.45913
 N107 N 0.45012 0.02329 0.46306
 C108 C 0.47906 0.05880 0.43451
 C109 C 0.45276 0.09490 0.40136
 C110 C 0.36732 0.05671 0.42657
 C111 C 0.43863 -0.10968 0.55005
 C112 C 0.40415 -0.13948 0.58306
 C113 C 0.37344 -0.06574 0.63118
 C114 C 0.40875 -0.03728 0.59740
 N115 N 0.44084 -0.05950 0.55793
 H116 H 0.37312 -0.00730 0.48223
 H117 H 0.52265 0.05973 0.43875
 H118 H 0.47600 0.12391 0.38024
 H119 H 0.32355 0.05581 0.42500
 H120 H 0.46318 -0.12684 0.51773
 H121 H 0.40291 -0.17932 0.57639
 H122 H 0.34820 -0.04771 0.66248
 H123 H 0.41013 0.00256 0.60259
 C124 C 0.59914 -0.12198 0.40041
 C125 C 0.59949 0.09151 0.61244
 C126 C 0.37101 -0.11744 0.62398
 C127 C 0.39627 0.09446 0.39812
 C128 C 0.60211 0.54683 0.00985
 H129 H 0.61316 0.53169 -0.03129
 C130 C 0.63512 0.58286 0.03565
 H131 H 0.67116 0.59543 0.01368
 C132 C 0.53779 0.55439 0.08391
 H133 H 0.49786 0.54644 0.10022
 C134 C 0.57097 0.58832 0.11278
 H135 H 0.55721 0.60407 0.15272
 N136 N 0.55456 0.53299 0.03440
 C137 C 0.54744 0.45532 -0.11546
 H138 H 0.52440 0.48446 -0.13625
 C139 C 0.57834 0.42290 -0.14844
 H140 H 0.57929 0.42731 -0.19468
 C141 C 0.57556 0.41431 -0.02987
 H142 H 0.57416 0.41129 0.01644
 C143 C 0.60649 0.38099 -0.06111
 H144 H 0.62923 0.35236 -0.03879
 Zn145 Zn 0.50635 0.49228 -0.00919
 N146 N 0.54702 0.45061 -0.05723
 C147 C 0.42303 0.51917 -0.09074
 N148 N 0.46099 0.53639 -0.05294
 C149 C 0.46751 0.58623 -0.04438
 C150 C 0.43375 0.62045 -0.07187
 C151 C 0.38784 0.55221 -0.11863
 C152 C 0.47517 0.44420 0.09654
 C153 C 0.44329 0.41314 0.13100
 C154 C 0.39404 0.38770 0.04629
 C155 C 0.42614 0.41992 0.01365
 N156 N 0.46459 0.44892 0.03920
 H157 H 0.41968 0.47989 -0.09932
 H158 H 0.49838 0.59990 -0.01549
 H159 H 0.43882 0.65985 -0.06366
 H160 H 0.35676 0.53796 -0.14724
 H161 H 0.50882 0.46368 0.11586
 H162 H 0.45120 0.41095 0.17676
 H163 H 0.36334 0.36520 0.02528
 H164 H 0.42062 0.42120 -0.03225
 C165 C 0.60880 0.38569 -0.12099
 C166 C 0.62048 0.60313 0.08876
 C167 C 0.40117 0.38548 0.10602
 C168 C 0.39223 0.60337 -0.10795
 C169 C 0.18049 -0.14567 -0.13104
 C170 C 0.20987 -0.17771 -0.16532
 C171 C 0.18511 -0.21828 -0.19336
 C172 C 0.12787 -0.22478 -0.18725
 C173 C 0.09978 -0.19563 -0.14654
 C174 C 0.12547 -0.15389 -0.12106
 C175 C 0.04626 -0.20900 -0.13288
 N176 N 0.02010 -0.24434 -0.16371
 N177 N 0.04392 -0.26683 -0.20730
 C178 C 0.09630 -0.25762 -0.22064
 H179 H 0.20105 -0.11385 -0.11241
 H180 H 0.25288 -0.17065 -0.16928
 H181 H 0.02490 -0.19151 -0.09817
 H182 H 0.11076 -0.27371 -0.25924
 C183 C 0.12771 0.32423 0.33019
 C184 C 0.16192 0.29037 0.30440
 C185 C 0.21778 0.29897 0.30189
 C186 C 0.23903 0.34456 0.32360
 C187 C 0.20344 0.38068 0.34597
 C188 C 0.14767 0.36921 0.35205
 C189 C 0.22499 0.42749 0.36105
 N190 N 0.27900 0.43579 0.35865
 N191 N 0.31288 0.40057 0.34199
 C192 C 0.29485 0.35528 0.32483
 H193 H 0.08523 0.31477 0.33381
 H194 H 0.14399 0.25709 0.28674
 H195 H 0.19945 0.45775 0.37418
 H196 H 0.32458 0.32802 0.31347
 C197 C 0.61356 -0.18704 0.32791
 C198 C 0.64612 -0.21539 0.29253
 C199 C 0.70250 -0.20906 0.29176
 C200 C 0.72633 -0.17694 0.33355
 C201 C 0.69300 -0.14685 0.36843
 C202 C 0.63611 -0.15187 0.36502
 C203 C 0.71790 -0.11229 0.40547
 N204 N 0.77248 -0.11048 0.41018
 N205 N 0.80370 -0.14089 0.38042
 C206 C 0.78251 -0.17411 0.34278
 H207 H 0.57015 -0.19273 0.32644
 H208 H 0.62621 -0.24319 0.26718
 H209 H 0.69462 -0.08678 0.43086
 H210 H 0.80981 -0.19902 0.32223
 C211 C 0.62055 0.31992 -0.19390
 C212 C 0.65209 0.28777 -0.22604
 C213 C 0.70855 0.28686 -0.21972
 C214 C 0.73336 0.31892 -0.17850
 C215 C 0.70116 0.35250 -0.14683
 C216 C 0.64430 0.35256 -0.15441
 C217 C 0.72723 0.38610 -0.10940
 N218 N 0.78156 0.38461 -0.10226
 N219 N 0.81162 0.35203 -0.13021
 C220 C 0.78950 0.31932 -0.16783
 H221 H 0.57711 0.31961 -0.20024
 H222 H 0.63183 0.26473 -0.25747
 H223 H 0.70515 0.41389 -0.08607
 H224 H 0.81630 0.29380 -0.18809
 C225 C -0.18158 0.16476 -0.14365
 C226 C -0.21675 0.19259 -0.17781
 C227 C -0.20273 0.20695 -0.23362
 C228 C -0.15247 0.19101 -0.25577
 C229 C -0.11382 0.16859 -0.21848
 C230 C -0.12942 0.15278 -0.16250
 C231 C -0.06055 0.16398 -0.23861
 N232 N -0.04924 0.17382 -0.29441
 N233 N -0.08732 0.18899 -0.33108
 C234 C -0.13855 0.19754 -0.31369
 H235 H -0.19564 0.15253 -0.10194
 H236 H -0.25557 0.20262 -0.16033
 H237 H -0.02758 0.15330 -0.21056
 H238 H -0.16746 0.21022 -0.34501
 C239 C -0.12421 0.67813 0.29763
 C240 C -0.15734 0.70874 0.26485
 C241 C -0.21323 0.71151 0.27444
 C242 C -0.23648 0.67643 0.31343
 C243 C -0.20247 0.64503 0.34720
 C244 C -0.14566 0.64734 0.34023
 C245 C -0.22672 0.61071 0.38518
 N246 N -0.28127 0.60772 0.38866
 N247 N -0.31318 0.63619 0.35621
 C248 C -0.29273 0.66993 0.31854
 H249 H -0.08112 0.67851 0.28953
 H250 H -0.13807 0.72851 0.23046
 H251 H -0.20304 0.58539 0.41121
 H252 H -0.32081 0.68969 0.29157
 C253 C 0.36468 0.13783 0.30996
 C254 C 0.33452 0.17430 0.28180
 C255 C 0.30575 0.21040 0.31219
 C256 C 0.30885 0.20961 0.37365
 C257 C 0.34054 0.17266 0.40200
 C258 C 0.36720 0.13597 0.36980
 C259 C 0.34451 0.17317 0.46237
 N260 N 0.31720 0.20743 0.49268
 N261 N 0.28620 0.24106 0.46666
 C262 C 0.28098 0.24311 0.40872
 H263 H 0.38517 0.11002 0.28484
 H264 H 0.33258 0.17335 0.23532
 H265 H 0.36916 0.14675 0.48585
 H266 H 0.25465 0.27060 0.39199
 C267 C 0.35002 0.64380 -0.19256
 C268 C 0.31336 0.67595 -0.21854
 C269 C 0.27729 0.70493 -0.18646
 C270 C 0.27815 0.69908 -0.12498
 C271 C 0.31654 0.66631 -0.09875
 C272 C 0.35259 0.63880 -0.13304
 C273 C 0.31623 0.66017 -0.03859
 N274 N 0.28016 0.68497 -0.00648
 N275 N 0.24364 0.71471 -0.03050
 C276 C 0.24105 0.72209 -0.08805
 H277 H 0.37692 0.62258 -0.21936
 H278 H 0.31348 0.67798 -0.26506
 H279 H 0.34356 0.63520 -0.01656
 H280 H 0.20813 0.74377 -0.10309
 C281 C -0.13503 -0.14109 0.17975
 C282 C -0.16454 -0.17685 0.20930
 C283 C -0.21957 -0.18524 0.19783
 C284 C -0.24673 -0.15002 0.16189
 C285 C -0.21669 -0.11236 0.13247
 C286 C -0.15979 -0.10952 0.13973
 C287 C -0.24504 -0.07734 0.09881
 N288 N -0.29961 -0.08001 0.09454
 N289 N -0.32779 -0.11475 0.12244
 C290 C -0.30330 -0.14934 0.15617
 H291 H -0.09199 -0.13838 0.18827
 H292 H -0.14318 -0.19627 0.24258
 H293 H -0.22468 -0.04699 0.07711
 H294 H -0.32860 -0.17426 0.18008
 C295 C -0.13341 0.34497 0.66390
 C296 C -0.16214 0.31007 0.69558
 C297 C -0.21742 0.30182 0.68576
 C298 C -0.24521 0.33361 0.64637
 C299 C -0.21558 0.36910 0.61349
 C300 C -0.15901 0.37390 0.62189
 C301 C -0.24343 0.39754 0.57197
 N302 N -0.29756 0.39182 0.56515
 N303 N -0.32556 0.35925 0.59653
 C304 C -0.30133 0.32996 0.63665
 H305 H -0.09037 0.34906 0.67181
 H306 H -0.14002 0.28911 0.72753
 H307 H -0.22279 0.42404 0.54463
 H308 H -0.32625 0.30374 0.65965
 C309 C 0.35710 -0.17936 0.70139
 C310 C 0.32511 -0.21103 0.73450
 C311 C 0.26889 -0.21493 0.72550
 C312 C 0.24451 -0.18216 0.68406
 C313 C 0.27755 -0.14948 0.65074
 C314 C 0.33425 -0.14880 0.65915
 C315 C 0.25278 -0.11884 0.60909
 N316 N 0.19842 -0.12005 0.60186
 N317 N 0.16724 -0.15009 0.63312
 C318 C 0.18823 -0.18101 0.67365
 H319 H 0.40036 -0.17846 0.70908
 H320 H 0.34549 -0.23212 0.76769
 H321 H 0.27606 -0.09394 0.58210
 H322 H 0.16050 -0.20488 0.69629
 C323 C 0.38868 0.31748 0.17748
 C324 C 0.35692 0.28654 0.21187
 C325 C 0.30042 0.29018 0.21133
 C326 C 0.27557 0.32622 0.17461
 C327 C 0.30821 0.35919 0.14157
 C328 C 0.36522 0.35390 0.14210
 C329 C 0.28258 0.39744 0.11010
 N330 N 0.22796 0.40044 0.10896
 N331 N 0.19719 0.36802 0.13742
 C332 C 0.21897 0.33114 0.16994
 H333 H 0.43219 0.31312 0.17876
 H334 H 0.37718 0.26035 0.23994
 H335 H 0.30527 0.42544 0.08689
 H336 H 0.19150 0.30584 0.19099
 C337 C 0.18893 0.17457 0.13038
 C338 C 0.22082 0.20586 0.16386
 C339 C 0.21758 0.20512 0.22397
 C340 C 0.18414 0.16858 0.25075
 C341 C 0.15298 0.13536 0.21637
 C342 C 0.15386 0.13995 0.15563
 C343 C 0.12277 0.09779 0.24404
 N344 N 0.12211 0.09503 0.30214
 N345 N 0.14978 0.12711 0.33444
 C346 C 0.18065 0.16364 0.31085
 H347 H 0.19100 0.17810 0.08407
 H348 H 0.24759 0.23125 0.14173
 H349 H 0.10034 0.07007 0.22016
 H350 H 0.20154 0.18857 0.33956
 C351 C 0.17615 0.66591 0.62963
 C352 C 0.20389 0.69819 0.66587
 C353 C 0.20015 0.69381 0.72584
 C354 C 0.17367 0.65063 0.74896
 C355 C 0.15041 0.61488 0.71125
 C356 C 0.14736 0.62503 0.65145
 C357 C 0.13090 0.56988 0.73478
 N358 N 0.12949 0.56336 0.79244
 N359 N 0.14647 0.59873 0.82807
 C360 C 0.16793 0.64207 0.80838
 H361 H 0.17606 0.67412 0.58405
 H362 H 0.22664 0.72772 0.64568
 H363 H 0.11717 0.53966 0.70785
 H364 H 0.17904 0.66958 0.83951
 C365 C 0.63668 0.13840 0.69499
 C366 C 0.67120 0.17379 0.71908
 C367 C 0.70466 0.20412 0.68493
 C368 C 0.70414 0.19678 0.62424
 C369 C 0.66776 0.16135 0.59977
 C370 C 0.63467 0.13153 0.63569
 C371 C 0.66555 0.15671 0.53961
 N372 N 0.69940 0.18386 0.50626
 N373 N 0.73530 0.21518 0.52904
 C374 C 0.73902 0.22224 0.58651
 H375 H 0.61181 0.11564 0.72301
 H376 H 0.67155 0.17747 0.76536
 H377 H 0.63720 0.13184 0.51868
 H378 H 0.76992 0.24697 0.60123
 C379 C 0.62685 0.68557 0.13589
 C380 C 0.65445 0.72321 0.16490
 C381 C 0.71028 0.72052 0.17513
 C382 C 0.73897 0.68225 0.14694
 C383 C 0.71070 0.64112 0.12281
 C384 C 0.65358 0.64291 0.11692
 C385 C 0.74113 0.59964 0.10613
 N386 N 0.79588 0.60245 0.10568
 N387 N 0.82206 0.64372 0.12116
 C388 C 0.79530 0.68383 0.14111
 H389 H 0.58372 0.68959 0.12903
 H390 H 0.63101 0.75440 0.17830
 H391 H 0.72222 0.56503 0.09356
 H392 H 0.81783 0.71733 0.15016
   
