data_POSCAR
  _audit_creation_date              2014-09-24
  _audit_creation_method            'ToBaCCo'
  _symmetry_space_group_name_H-M    'P1'
  _symmetry_Int_Tables_number       1
  _symmetry_cell_setting            triclinic
  loop_
  _symmetry_equiv_pos_as_xyz
 x,y,z
_cell_length_a 19.1899
_cell_length_b 19.0186
_cell_length_c 39.6886
_cell_angle_alpha 80.908700
_cell_angle_beta 94.311900
_cell_angle_gamma 120.003700
loop_
  _atom_site_label
  _atom_site_type_symbol
  _atom_site_fract_x
  _atom_site_fract_y
  _atom_site_fract_z
C1 C 0.02082 0.15514 0.53754
 H2 H 0.07865 0.15919 0.53552
 C3 C 0.01262 0.20410 0.55770
 H4 H 0.06435 0.24609 0.57122
 C5 C -0.11718 0.09494 0.52244
 H6 H -0.16728 0.05228 0.50854
 C7 C -0.12827 0.14249 0.54280
 H8 H -0.18718 0.13618 0.54455
 N9 N -0.04354 0.10160 0.52061
 C10 C 0.00568 -0.09456 0.51261
 H11 H 0.01534 -0.08733 0.48548
 C12 C 0.00185 -0.16243 0.53389
 H13 H 0.00992 -0.20689 0.52321
 C14 C -0.02157 -0.04838 0.55944
 H15 H -0.03323 -0.00538 0.56922
 C16 C -0.02632 -0.11541 0.58151
 H17 H -0.03982 -0.12194 0.60816
 Zn18 Zn -0.02048 0.03971 0.49524
 N19 N -0.00695 -0.03977 0.52560
 C20 C 0.14188 0.10935 0.47168
 N21 N 0.07393 0.11540 0.46987
 C22 C 0.07098 0.17940 0.45036
 C23 C 0.13741 0.23970 0.43098
 C24 C 0.21008 0.16876 0.45264
 C25 C -0.17388 -0.08443 0.47897
 C26 C -0.22943 -0.14038 0.45823
 C27 C -0.14316 -0.05823 0.40969
 C28 C -0.08927 -0.00435 0.43133
 N29 N -0.10450 -0.01906 0.46538
 H30 H 0.14333 0.05876 0.48786
 H31 H 0.01650 0.18319 0.44981
 H32 H 0.13399 0.28993 0.41528
 H33 H 0.26363 0.16312 0.45405
 H34 H -0.18370 -0.09588 0.50625
 H35 H -0.28254 -0.19426 0.46969
 H36 H -0.12707 -0.04607 0.38307
 H37 H -0.03307 0.04649 0.42102
 C38 C -0.01630 -0.17423 0.56859
 C39 C -0.06264 0.19741 0.56077
 C40 C -0.21328 -0.12892 0.42321
 C41 C 0.20777 0.23458 0.43196
 C42 C 1.20780 0.10751 0.12015
 H43 H 1.21119 0.16610 0.11990
 C44 C 1.26317 0.10222 0.10146
 H45 H 1.30865 0.15701 0.08659
 C46 C 1.14302 -0.03531 0.13967
 H47 H 1.09621 -0.08845 0.15475
 C48 C 1.19690 -0.04351 0.12095
 H49 H 1.19112 -0.10328 0.12140
 N50 N 1.14921 0.03943 0.13864
 C51 C 0.95381 0.08957 0.14494
 H52 H 0.95459 0.09476 0.17174
 C53 C 0.88981 0.08577 0.12451
 H54 H 0.84228 0.08995 0.13552
 C55 C 1.01117 0.07085 0.09861
 H56 H 1.05668 0.06159 0.08894
 C57 C 0.94796 0.06606 0.07740
 H58 H 0.94656 0.05515 0.05135
 Zn59 Zn 1.08015 0.05748 0.16286
 N60 N 1.01177 0.08015 0.13195
 C61 C 1.14180 0.21425 0.18566
 N62 N 1.14674 0.14476 0.18773
 C63 C 1.20257 0.13445 0.20771
 C64 C 1.25506 0.19437 0.22738
 C65 C 1.19349 0.27607 0.20502
 C66 C 0.95045 -0.10113 0.17938
 C67 C 0.88704 -0.16363 0.19990
 C68 C 0.95112 -0.09351 0.24854
 C69 C 1.01287 -0.03209 0.22712
 N70 N 1.01074 -0.03611 0.19310
 H71 H 1.09786 0.22171 0.16915
 H72 H 1.20568 0.07896 0.20852
 H73 H 1.29866 0.18497 0.24348
 H74 H 1.18866 0.33078 0.20347
 H75 H 0.94912 -0.10185 0.15213
 H76 H 0.83732 -0.21310 0.18848
 H77 H 0.95243 -0.08720 0.27520
 H78 H 1.05982 0.02091 0.23748
 C79 C 0.88501 0.07063 0.09073
 C80 C 1.25795 0.02602 0.10175
 C81 C 0.88615 -0.15890 0.23472
 C82 C 1.25052 0.26584 0.22627
 C83 C 0.04002 0.85761 0.88704
 H84 H -0.01476 0.79984 0.88565
 C85 C 0.10434 0.85944 0.90643
 H86 H 0.09821 0.80290 0.92030
 C87 C 0.11424 1.00137 0.87014
 H88 H 0.11809 1.05616 0.85548
 C89 C 0.17996 1.00608 0.88959
 H90 H 0.23412 1.06482 0.89024
 N91 N 0.04595 0.92777 0.86939
 C92 C -0.19383 0.89462 0.85355
 H93 H -0.19688 0.90216 0.82598
 C94 C -0.24994 0.89856 0.87251
 H95 H -0.29724 0.90660 0.85916
 C96 C -0.12513 0.87994 0.90396
 H97 H -0.07459 0.87620 0.91609
 C98 C -0.18068 0.88213 0.92393
 H99 H -0.17314 0.87798 0.95137
 Zn100 Zn -0.04343 0.91388 0.84182
 N101 N -0.13142 0.88837 0.86937
 C102 C -0.13811 0.76438 0.81220
 N103 N -0.06441 0.83067 0.81573
 C104 C 0.00201 0.84175 0.80039
 C105 C -0.00392 0.78554 0.78023
 C106 C -0.14689 0.70662 0.79179
 C107 C -0.01204 1.07676 0.82525
 C108 C -0.01258 1.14251 0.80396
 C109 C -0.03318 1.07127 0.75569
 C110 C -0.03192 1.00720 0.77778
 N111 N -0.02285 1.01030 0.81194
 H112 H -0.18989 0.75679 0.82486
 H113 H 0.05982 0.89494 0.80376
 H114 H 0.04950 0.79548 0.76802
 H115 H -0.20574 0.65452 0.78870
 H116 H -0.00697 1.07685 0.85258
 H117 H -0.00641 1.19406 0.81487
 H118 H -0.04259 1.06642 0.72876
 H119 H -0.04228 0.95329 0.76768
 C120 C -0.24167 0.89587 0.90813
 C121 C 0.17540 0.93428 0.90768
 C122 C -0.02548 1.13891 0.76889
 C123 C -0.07898 0.71757 0.77552
 C124 C 0.44432 -0.03903 -0.01281
 C125 C 0.46423 -0.01200 0.01987
 C126 C 0.53843 0.00168 0.03429
 C127 C 0.59453 -0.00834 0.01781
 C128 C 0.57213 -0.04095 -0.01359
 C129 C 0.49893 -0.05280 -0.02851
 H130 H 0.48565 -0.07063 -0.05362
 H131 H 0.55241 0.01893 0.05946
 C132 C -0.06930 0.40008 0.64957
 C133 C -0.06463 0.38896 0.68582
 C134 C -0.07070 0.44406 0.70357
 C135 C -0.07280 0.51405 0.68707
 C136 C -0.06323 0.53237 0.65097
 C137 C -0.06590 0.47285 0.63314
 H138 H -0.06396 0.48402 0.60568
 H139 H -0.07248 0.43296 0.73103
 C140 C 0.60254 0.61876 0.31218
 C141 C 0.59091 0.61868 0.34727
 C142 C 0.52215 0.55234 0.36403
 C143 C 0.46359 0.48719 0.34759
 C144 C 0.47052 0.49247 0.31176
 C145 C 0.54147 0.55596 0.29543
 H146 H 0.54992 0.55496 0.26908
 H147 H 0.51283 0.55200 0.39045
 C148 C -0.10115 0.34163 0.58894
 C149 C -0.02502 0.34238 0.57821
 C150 C -0.07082 0.24819 0.58388
 C151 C -0.14705 0.24687 0.59419
 C152 C -0.04331 0.24725 0.62121
 C153 C 0.00289 0.34225 0.61573
 C154 C -0.07301 0.34111 0.62665
 C155 C -0.11972 0.24660 0.63189
 H156 H -0.12696 0.37837 0.57472
 H157 H 0.01367 0.38165 0.55584
 H158 H -0.20917 0.20796 0.58526
 H159 H -0.01911 0.20789 0.63422
 H160 H 0.06541 0.38266 0.62382
 H161 H -0.16234 0.20400 0.65243
 C162 C 0.76038 0.68360 0.29847
 C163 C 0.77155 0.68762 0.25986
 C164 C 0.81266 0.78151 0.25592
 C165 C 0.80250 0.77855 0.29422
 C166 C 0.73125 0.77777 0.24855
 C167 C 0.68932 0.68336 0.25281
 C168 C 0.67863 0.68014 0.29156
 C169 C 0.72006 0.77438 0.28703
 H170 H 0.77248 0.64330 0.31849
 H171 H 0.79308 0.65208 0.24855
 H172 H 0.84928 0.81664 0.31174
 H173 H 0.71945 0.81676 0.22768
 H174 H 0.64562 0.64761 0.23383
 H175 H 0.69987 0.81353 0.29590
 C176 C 0.35993 0.02311 -0.05063
 C177 C 0.33311 -0.01594 -0.08394
 C178 C 0.24547 -0.06185 -0.07139
 C179 C 0.27114 -0.02323 -0.03833
 C180 C 0.25487 -0.13514 -0.05451
 C181 C 0.34325 -0.08899 -0.06672
 C182 C 0.36961 -0.04996 -0.03320
 C183 C 0.28131 -0.09671 -0.02108
 H184 H 0.40394 0.08888 -0.04981
 H185 H 0.35419 0.01711 -0.11001
 H186 H 0.24055 0.00412 -0.02710
 H187 H 0.21270 -0.20102 -0.05603
 H188 H 0.36867 -0.11885 -0.07964
 H189 H 0.25558 -0.13470 0.00363
 C190 C -0.11636 0.63384 0.61947
 C191 C -0.05978 0.72194 0.62805
 C192 C -0.02825 0.74915 0.59112
 C193 C -0.08448 0.66214 0.58234
 C194 C 0.03877 0.72822 0.60094
 C195 C 0.00754 0.70021 0.63818
 C196 C -0.04941 0.61266 0.62987
 C197 C -0.01751 0.64046 0.59255
 H198 H -0.18108 0.59435 0.62618
 H199 H -0.07821 0.75447 0.64305
 H200 H -0.12221 0.64676 0.55912
 H201 H 0.10283 0.76745 0.59308
 H202 H 0.04941 0.71976 0.65982
 H203 H 0.00232 0.61036 0.57679
 C204 C 0.40537 0.45241 0.25002
 C205 C 0.39834 0.36940 0.24646
 C206 C 0.30627 0.32898 0.24824
 C207 C 0.31275 0.41149 0.25141
 C208 C 0.30789 0.30913 0.28722
 C209 C 0.40084 0.35003 0.28569
 C210 C 0.40753 0.43253 0.28944
 C211 C 0.31516 0.39265 0.29072
 H212 H 0.44322 0.51112 0.23354
 H213 H 0.43245 0.35996 0.22795
 H214 H 0.27704 0.43776 0.23725
 H215 H 0.26702 0.24929 0.30232
 H216 H 0.43793 0.32474 0.29928
 H217 H 0.27795 0.40278 0.30715
 C218 C 0.67420 -0.10222 -0.02052
 C219 C 0.64320 -0.15407 -0.05017
 C220 C 0.70931 -0.08867 -0.07194
 C221 C 0.74360 -0.03669 -0.04464
 C222 C 0.66152 -0.04965 -0.08569
 C223 C 0.59034 -0.11516 -0.06269
 C224 C 0.62356 -0.06074 -0.03350
 C225 C 0.69331 0.00537 -0.05716
 H226 H 0.68002 -0.13029 0.00534
 H227 H 0.62450 -0.22005 -0.04842
 H228 H 0.80856 -0.00423 -0.03815
 H229 H 0.65717 -0.02743 -0.11293
 H230 H 0.52750 -0.15153 -0.07143
 H231 H 0.71599 0.07241 -0.06133
 C232 C 0.43560 0.03963 0.07484
 C233 C 0.39235 0.08929 0.06332
 C234 C 0.31471 0.01822 0.08056
 C235 C 0.35758 -0.03122 0.09243
 C236 C 0.28859 -0.02017 0.04745
 C237 C 0.36701 0.05109 0.02984
 C238 C 0.40957 0.00085 0.04124
 C239 C 0.33211 -0.07006 0.05902
 H240 H 0.49512 0.06712 0.08751
 H241 H 0.41899 0.15553 0.06505
 H242 H 0.35377 -0.06485 0.11838
 H243 H 0.22704 -0.04499 0.03665
 H244 H 0.37178 0.08963 0.00523
 H245 H 0.30774 -0.13631 0.05804
 C246 C 0.65485 0.77395 0.36122
 C247 C 0.64894 0.77332 0.39989
 C248 C 0.73646 0.80783 0.40285
 C249 C 0.74694 0.81235 0.36611
 C250 C 0.72949 0.72643 0.41063
 C251 C 0.63739 0.68595 0.40682
 C252 C 0.64617 0.68754 0.36792
 C253 C 0.73818 0.72587 0.37235
 H254 H 0.62334 0.79630 0.34166
 H255 H 0.61465 0.79564 0.41196
 H256 H 0.79152 0.86579 0.34895
 H257 H 0.76200 0.70951 0.43179
 H258 H 0.59538 0.63669 0.42622
 H259 H 0.78009 0.70800 0.36400
 C260 C 0.00609 0.29278 0.69992
 C261 C 0.03251 0.29385 0.73772
 C262 C -0.03503 0.20479 0.74621
 C263 C -0.06179 0.20261 0.70872
 C264 C -0.09311 0.23391 0.75392
 C265 C -0.02558 0.32370 0.74503
 C266 C -0.05265 0.32173 0.70716
 C267 C -0.12018 0.23246 0.71622
 H268 H 0.05069 0.31706 0.67909
 H269 H 0.09554 0.31895 0.74680
 H270 H -0.07768 0.15279 0.69333
 H271 H -0.13382 0.20954 0.77639
 H272 H -0.00843 0.37255 0.76115
 H273 H -0.18402 0.20689 0.70828
 C274 C 0.69493 -0.04803 0.05637
 C275 C 0.78079 0.00045 0.04069
 C276 C 0.80985 0.05169 0.07033
 C277 C 0.72494 0.00349 0.08612
 C278 C 0.79038 0.11530 0.05003
 C279 C 0.76025 0.06411 0.02004
 C280 C 0.67493 0.01513 0.03566
 C281 C 0.70482 0.06700 0.06556
 H282 H 0.65515 -0.11559 0.05973
 H283 H 0.81198 -0.02753 0.03042
 H284 H 0.71002 -0.02163 0.11344
 H285 H 0.83004 0.18282 0.04763
 H286 H 0.77779 0.09270 -0.00669
 H287 H 0.67732 0.09760 0.07659
 C288 C 0.40120 0.39993 0.40921
 C289 C 0.31746 0.39132 0.41241
 C290 C 0.27835 0.29915 0.41039
 C291 C 0.36144 0.30706 0.40759
 C292 C 0.27302 0.31488 0.37140
 C293 C 0.31272 0.40803 0.37314
 C294 C 0.39597 0.41627 0.36978
 C295 C 0.35719 0.32364 0.36828
 H296 H 0.45320 0.43227 0.42596
 H297 H 0.30109 0.41892 0.43087
 H298 H 0.38250 0.26608 0.42182
 H299 H 0.21931 0.27898 0.35607
 H300 H 0.29254 0.45029 0.35950
 H301 H 0.37346 0.29229 0.35181
 C302 C -0.00611 0.64203 0.72214
 C303 C -0.05209 0.69053 0.71569
 C304 C -0.08424 0.65971 0.75247
 C305 C -0.03869 0.61159 0.75909
 C306 C -0.15879 0.58491 0.74080
 C307 C -0.12675 0.61491 0.70365
 C308 C -0.08022 0.56743 0.70986
 C309 C -0.11307 0.53633 0.74699
 H310 H 0.05744 0.66516 0.71525
 H311 H -0.02664 0.75489 0.70311
 H312 H -0.00278 0.61006 0.78217
 H313 H -0.22200 0.56071 0.74856
 H314 H -0.16688 0.61565 0.68232
 H315 H -0.14024 0.47288 0.76074
   
