data_POSCAR
  _audit_creation_date              2014-09-24
  _audit_creation_method            'ToBaCCo'
  _symmetry_space_group_name_H-M    'P1'
  _symmetry_Int_Tables_number       1
  _symmetry_cell_setting            triclinic
  loop_
  _symmetry_equiv_pos_as_xyz
 x,y,z
_cell_length_a 37.6398
_cell_length_b 36.5112
_cell_length_c 36.2528
_cell_angle_alpha 92.653800
_cell_angle_beta 92.179900
_cell_angle_gamma 92.374800
loop_
  _atom_site_label
  _atom_site_type_symbol
  _atom_site_fract_x
  _atom_site_fract_y
  _atom_site_fract_z
N1 N 0.22080 1.29237 0.19346
 N2 N 0.19935 1.29407 0.22125
 C3 C 0.17490 1.31917 0.21481
 C4 C 0.18175 1.33396 0.18137
 C5 C 0.21084 1.31641 0.16838
 H6 H 0.15290 1.32491 0.23225
 H7 H 0.22272 1.31955 0.14194
 Cu8 Cu 0.20324 1.26086 0.26130
 Cu9 Cu 0.25749 1.25637 0.18988
 Cu10 Cu 0.25654 1.18949 0.25461
 N11 N 0.19825 1.21979 0.29305
 N12 N 0.21936 1.19202 0.29051
 C13 C 0.20874 1.16630 0.31365
 C14 C 0.17959 1.17883 0.33148
 C15 C 0.17338 1.21270 0.31782
 H16 H 0.22028 1.13981 0.31599
 H17 H 0.15160 1.23008 0.32411
 N18 N 0.29184 1.19191 0.21590
 N19 N 0.29219 1.21740 0.19118
 C20 C 0.31733 1.21000 0.16675
 C21 C 0.33342 1.17855 0.17675
 C22 C 0.31674 1.16764 0.20783
 H23 H 0.32236 1.22521 0.14245
 H24 H 0.32122 1.14289 0.22227
 H25 H 0.22754 1.21800 0.21680
 H26 H 0.26315 1.24477 0.24508
 N27 N 0.80073 0.72957 0.14740
 N28 N 0.82056 0.72718 0.17780
 C29 C 0.84424 0.70101 0.17245
 C30 C 0.83876 0.68629 0.13691
 C31 C 0.81108 0.70489 0.12163
 H32 H 0.86442 0.69382 0.19258
 H33 H 0.79988 0.70129 0.09372
 Cu34 Cu 0.81492 0.75960 0.22088
 Cu35 Cu 0.76410 0.76561 0.14321
 Cu36 Cu 0.76192 0.83103 0.21534
 N37 N 0.81854 0.80018 0.25750
 N38 N 0.79759 0.82803 0.25534
 C39 C 0.80715 0.85331 0.28251
 C40 C 0.83543 0.84040 0.30261
 C41 C 0.84225 0.80678 0.28606
 H42 H 0.79555 0.87979 0.28624
 H43 H 0.86376 0.78929 0.29311
 N44 N 0.72825 0.82922 0.17227
 N45 N 0.72914 0.80444 0.14460
 C46 C 0.70370 0.81125 0.11892
 C47 C 0.68621 0.84162 0.13125
 C48 C 0.70227 0.85240 0.16496
 H49 H 0.69863 0.79574 0.09299
 H50 H 0.69589 0.87581 0.18247
 H51 H 0.79267 0.80322 0.17810
 H52 H 0.75593 0.77589 0.19870
 N53 N 0.80854 1.24695 -0.16612
 N54 N 0.82572 1.25330 -0.19625
 C55 C 0.84637 1.28421 -0.19051
 C56 C 0.84163 1.29778 -0.15497
 C57 C 0.81768 1.27353 -0.14013
 H58 H 0.86478 1.29491 -0.20996
 H59 H 0.80881 1.27422 -0.11208
 Cu60 Cu 0.82268 1.21839 -0.23840
 Cu61 Cu 0.77859 1.20278 -0.16166
 Cu62 Cu 0.76013 1.15009 -0.24274
 N63 N 0.82523 1.17627 -0.27284
 N64 N 0.80051 1.14961 -0.27489
 C65 C 0.80875 1.12423 -0.30101
 C66 C 0.84037 1.13579 -0.31569
 C67 C 0.85020 1.16877 -0.29736
 H68 H 0.79322 1.09915 -0.30826
 H69 H 0.87382 1.18585 -0.30126
 N70 N 0.73223 1.14518 -0.19830
 N71 N 0.73995 1.16457 -0.16714
 C72 C 0.71680 1.15459 -0.14166
 C73 C 0.69369 1.12765 -0.15759
 C74 C 0.70402 1.12219 -0.19345
 H75 H 0.71656 1.16626 -0.11370
 H76 H 0.69212 1.10285 -0.21431
 H77 H 0.79692 1.16871 -0.20396
 H78 H 0.76349 1.20295 -0.21617
 N79 N 0.17177 0.73111 -0.17186
 N80 N 0.14433 0.73296 -0.19519
 C81 C 0.11917 0.70746 -0.18724
 C82 C 0.13178 0.68886 -0.15754
 C83 C 0.16507 0.70443 -0.14836
 H84 H 0.09339 0.70323 -0.20136
 H85 H 0.18269 0.69747 -0.12572
 Cu86 Cu 0.14376 0.76971 -0.23245
 Cu87 Cu 0.21321 0.76480 -0.17197
 Cu88 Cu 0.21279 0.83044 -0.23801
 N89 N 0.14386 0.80671 -0.26945
 N90 N 0.17114 0.83017 -0.27156
 C91 C 0.16416 0.85343 -0.29838
 C92 C 0.13085 0.84393 -0.31374
 C93 C 0.11849 0.81432 -0.29492
 H94 H 0.18160 0.87609 -0.30553
 H95 H 0.09279 0.80002 -0.29893
 N96 N 0.25250 0.82634 -0.20162
 N97 N 0.25266 0.80131 -0.17646
 C98 C 0.28180 0.80743 -0.15389
 C99 C 0.30072 0.83753 -0.16560
 C100 C 0.28152 0.84903 -0.19570
 H101 H 0.28785 0.79243 -0.12956
 H102 H 0.28732 0.87327 -0.21082
 H103 H 0.18711 0.80779 -0.19448
 H104 H 0.20855 0.77544 -0.22733
 C105 C 0.47159 1.03103 0.02818
 C106 C 0.49525 1.00462 0.04846
 C107 C 0.51213 0.98121 0.02523
 C108 C 0.50384 0.98619 -0.01606
 C109 C 0.49628 1.05056 0.00195
 C110 C 0.51315 1.02701 -0.02114
 C111 C 0.44613 1.00642 0.00306
 C112 C 0.46300 0.98300 -0.02003
 H113 H 0.49948 1.00541 0.07831
 H114 H 0.51749 0.96703 -0.03496
 H115 H 0.50118 1.08013 0.00270
 H116 H 0.41732 1.00735 0.00355
 C117 C 0.03401 0.47116 1.03813
 C118 C 0.05314 0.49600 1.01154
 C119 C 0.03047 0.51315 0.98842
 C120 C -0.00917 0.50396 0.99383
 C121 C 0.00850 0.49605 1.05837
 C122 C -0.01405 0.51319 1.03510
 C123 C 0.01002 0.44465 1.01335
 C124 C -0.01252 0.46183 0.99022
 H125 H 0.08186 0.50053 1.01176
 H126 H -0.02760 0.51788 0.97491
 H127 H 0.00884 0.50046 1.08823
 H128 H 0.01070 0.41496 1.01412
 C129 C 1.03110 0.03440 0.46797
 C130 C 1.00567 0.05460 0.49307
 C131 C 0.98333 0.03158 0.51084
 C132 C 0.98832 -0.00944 0.50199
 C133 C 1.05049 0.00844 0.49314
 C134 C 1.02804 -0.01444 0.51092
 C135 C 1.00704 0.00934 0.44177
 C136 C 0.98470 -0.01355 0.45960
 H137 H 1.00593 0.08428 0.49716
 H138 H 0.97006 -0.02817 0.51642
 H139 H 1.07924 0.00887 0.49738
 H140 H 1.00746 0.00981 0.41183
 C141 C 0.16092 0.35676 1.16239
 C142 C 0.14219 0.37624 1.14494
 C143 C 0.11994 0.39811 1.12378
 C144 C 0.10070 0.41599 1.10511
 C145 C 0.07790 0.43600 1.08258
 C146 C 0.05821 0.45230 1.06281
 C147 C -0.14065 0.65891 1.11898
 C148 C -0.12274 0.63616 1.10452
 C149 C -0.10106 0.60974 1.08827
 C150 C -0.08196 0.58737 1.07502
 C151 C -0.05895 0.56137 1.06030
 C152 C -0.03878 0.53933 1.04843
 C153 C -0.13811 0.32721 0.86467
 C154 C -0.12050 0.35096 0.88192
 C155 C -0.09917 0.37755 0.90302
 C156 C -0.08032 0.39907 0.92181
 C157 C -0.05749 0.42272 0.94473
 C158 C -0.03735 0.44143 0.96505
 C159 C 0.11333 0.66093 0.86189
 C160 C 0.09856 0.63776 0.87916
 C161 C 0.08216 0.61091 0.90042
 C162 C 0.06895 0.58820 0.91941
 C163 C 0.05449 0.56186 0.94257
 C164 C 0.04304 0.53957 0.96307
 C165 C 1.15838 0.15942 0.35376
 C166 C 1.13937 0.14163 0.37283
 C167 C 1.11690 0.12014 0.39435
 C168 C 1.09756 0.10127 0.41206
 C169 C 1.07474 0.07864 0.43206
 C170 C 1.05512 0.05889 0.44857
 C171 C 1.11306 -0.13802 0.65980
 C172 C 1.09794 -0.12117 0.63655
 C173 C 1.08110 -0.10043 0.60958
 C174 C 1.06754 -0.08190 0.58673
 C175 C 1.05267 -0.05928 0.56017
 C176 C 1.04091 -0.03924 0.53765
 C177 C 0.85585 -0.14049 0.32927
 C178 C 0.87434 -0.12289 0.35212
 C179 C 0.89651 -0.10144 0.37774
 C180 C 0.91592 -0.08240 0.39853
 C181 C 0.93925 -0.05926 0.42144
 C182 C 0.95967 -0.03881 0.43964
 C183 C 0.85898 0.11795 0.65812
 C184 C 0.87624 0.10277 0.63511
 C185 C 0.89735 0.08585 0.60841
 C186 C 0.91607 0.07217 0.58581
 C187 C 0.93877 0.05706 0.55955
 C188 C 0.95875 0.04500 0.53728
 C189 C 0.35785 1.15791 0.15555
 C190 C 0.37743 1.13994 0.13721
 C191 C 0.39930 1.11822 0.11518
 C192 C 0.41710 1.09911 0.09593
 C193 C 0.43693 1.07615 0.07293
 C194 C 0.45303 1.05605 0.05292
 C195 C 0.66484 1.10938 -0.13998
 C196 C 0.64091 1.09478 -0.12415
 C197 C 0.61322 1.07855 -0.10444
 C198 C 0.58986 1.06547 -0.08668
 C199 C 0.56282 1.05109 -0.06485
 C200 C 0.54003 1.03966 -0.04538
 C201 C 0.33018 0.85707 -0.14615
 C202 C 0.35390 0.87426 -0.12901
 C203 C 0.38040 0.89532 -0.10796
 C204 C 0.40175 0.91412 -0.08913
 C205 C 0.42507 0.93712 -0.06607
 C206 C 0.44334 0.95759 -0.04555
 C207 C 0.65844 0.85994 0.11218
 C208 C 0.63540 0.87628 0.09687
 C209 C 0.60872 0.89649 0.07979
 C210 C 0.58619 0.91461 0.06598
 C211 C 0.56011 0.93683 0.05077
 C212 C 0.53809 0.95661 0.03865
   
