data_POSCAR
  _audit_creation_date              2014-09-24
  _audit_creation_method            'ToBaCCo'
  _symmetry_space_group_name_H-M    'P1'
  _symmetry_Int_Tables_number       1
  _symmetry_cell_setting            triclinic
  loop_
  _symmetry_equiv_pos_as_xyz
 x,y,z
_cell_length_a 49.6489
_cell_length_b 49.4760
_cell_length_c 49.2518
_cell_angle_alpha 89.953200
_cell_angle_beta 89.986100
_cell_angle_gamma 89.970600
loop_
  _atom_site_label
  _atom_site_type_symbol
  _atom_site_fract_x
  _atom_site_fract_y
  _atom_site_fract_z
N1 N 0.16180 1.21810 0.14286
 N2 N 0.14287 1.21749 0.16156
 C3 C 0.12636 1.23885 0.15806
 C4 C 0.13559 1.25339 0.13607
 C5 C 0.15801 1.23983 0.12681
 H6 H 0.10910 1.24358 0.17059
 H7 H 0.17072 1.24544 0.10987
 Cu8 Cu 0.14179 1.18922 0.18904
 Cu9 Cu 0.19028 1.19114 0.14114
 Cu10 Cu 0.19027 1.14151 0.19075
 N11 N 0.14286 1.16171 0.21728
 N12 N 0.16179 1.14309 0.21779
 C13 C 0.15803 1.12699 0.23952
 C14 C 0.13560 1.13612 0.25318
 C15 C 0.12635 1.15809 0.23871
 H16 H 0.17075 1.11012 0.24508
 H17 H 0.10909 1.17053 0.24354
 N18 N 0.21748 1.14325 0.16169
 N19 N 0.21748 1.16218 0.14276
 C20 C 0.23886 1.15837 0.12633
 C21 C 0.25279 1.13608 0.13544
 C22 C 0.23886 1.12690 0.15779
 H23 H 0.24416 1.17102 0.10922
 H24 H 0.24416 1.10980 0.17041
 H25 H 0.16919 1.16031 0.15985
 H26 H 0.19003 1.18248 0.18224
 N27 N 0.83832 0.78262 0.14275
 N28 N 0.85700 0.78297 0.16169
 C29 C 0.87346 0.76157 0.15822
 C30 C 0.86452 0.74730 0.13596
 C31 C 0.84224 0.76104 0.12658
 H32 H 0.89039 0.75651 0.17106
 H33 H 0.82966 0.75555 0.10955
 Cu34 Cu 0.85716 0.81090 0.18944
 Cu35 Cu 0.80966 0.80953 0.14110
 Cu36 Cu 0.81003 0.85953 0.19053
 N37 N 0.85732 0.83882 0.21719
 N38 N 0.83886 0.85792 0.21736
 C39 C 0.84309 0.87431 0.23875
 C40 C 0.86531 0.86486 0.25256
 C41 C 0.87393 0.84236 0.23853
 H42 H 0.83072 0.89151 0.24406
 H43 H 0.89073 0.82941 0.24370
 N44 N 0.78259 0.85757 0.16163
 N45 N 0.78242 0.83850 0.14285
 C46 C 0.76088 0.84221 0.12660
 C47 C 0.74703 0.86456 0.13568
 C48 C 0.76117 0.87389 0.15781
 H49 H 0.75543 0.82948 0.10963
 H50 H 0.75601 0.89107 0.17033
 H51 H 0.83086 0.84038 0.15981
 H52 H 0.80931 0.81880 0.18204
 N53 N 0.83835 1.21701 -0.14274
 N54 N 0.85678 1.21699 -0.16194
 C55 C 0.87321 1.23839 -0.15835
 C56 C 0.86446 1.25236 -0.13580
 C57 C 0.84237 1.23839 -0.12633
 H58 H 0.89001 1.24368 -0.17128
 H59 H 0.82994 1.24365 -0.10909
 Cu60 Cu 0.85680 1.18945 -0.19010
 Cu61 Cu 0.80980 1.19003 -0.14109
 Cu62 Cu 0.80982 1.14064 -0.19113
 N63 N 0.85687 1.16162 -0.21797
 N64 N 0.83842 1.14251 -0.21818
 C65 C 0.84257 1.12626 -0.23969
 C66 C 0.86475 1.13574 -0.25353
 C67 C 0.87345 1.15813 -0.23939
 H68 H 0.83020 1.10907 -0.24505
 H69 H 0.89031 1.17098 -0.24450
 N70 N 0.78264 1.14224 -0.16199
 N71 N 0.78265 1.16101 -0.14292
 C72 C 0.76125 1.15710 -0.12653
 C73 C 0.74729 1.13492 -0.13582
 C74 C 0.76123 1.12591 -0.15823
 H75 H 0.75594 1.16963 -0.10936
 H76 H 0.75590 1.10896 -0.17098
 H77 H 0.83094 1.15965 -0.16051
 H78 H 0.80899 1.18143 -0.18219
 N79 N 0.16138 0.78276 -0.14255
 N80 N 0.14286 0.78296 -0.16166
 C81 C 0.12638 0.76159 -0.15813
 C82 C 0.13518 0.74746 -0.13569
 C83 C 0.15732 0.76130 -0.12622
 H84 H 0.10951 0.75647 -0.17101
 H85 H 0.16970 0.75599 -0.10896
 Cu86 Cu 0.14271 0.81086 -0.18949
 Cu87 Cu 0.18999 0.80968 -0.14076
 Cu88 Cu 0.18978 0.85948 -0.19056
 N89 N 0.14259 0.83874 -0.21731
 N90 N 0.16106 0.85782 -0.21751
 C91 C 0.15690 0.87416 -0.23898
 C92 C 0.13471 0.86472 -0.25280
 C93 C 0.12599 0.84231 -0.23868
 H94 H 0.16926 0.89136 -0.24431
 H95 H 0.10914 0.82945 -0.24381
 N96 N 0.21708 0.85764 -0.16154
 N97 N 0.21713 0.83872 -0.14258
 C98 C 0.23861 0.84247 -0.12629
 C99 C 0.25255 0.86471 -0.13552
 C100 C 0.23853 0.87390 -0.15781
 H101 H 0.24399 0.82979 -0.10924
 H102 H 0.24384 0.89090 -0.17054
 H103 H 0.16880 0.84032 -0.15968
 H104 H 0.19053 0.81864 -0.18164
 C105 C 0.54030 1.03816 -0.00604
 H106 H 0.53894 1.03863 0.01588
 C107 C 0.56062 1.05254 -0.01922
 H108 H 0.57485 1.06430 -0.00746
 C109 C 0.52442 1.02098 -0.04805
 H110 H 0.51084 1.00793 -0.05908
 C111 C 0.54456 1.03500 -0.06206
 H112 H 0.54627 1.03298 -0.08389
 N113 N 0.52288 1.02261 -0.02050
 C114 C 0.45936 1.00614 0.03828
 H115 H 0.46060 0.98432 0.03881
 C116 C 0.43903 1.01940 0.05261
 H117 H 0.42467 1.00779 0.06437
 C118 C 0.47552 1.04785 0.02093
 H119 H 0.48919 1.05873 0.00782
 C120 C 0.45540 1.06192 0.03492
 H121 H 0.45382 1.08366 0.03278
 Zn122 Zn 0.49982 1.00001 -0.00010
 N123 N 0.47690 1.02041 0.02264
 C124 C 0.52419 0.97891 0.04787
 N125 N 0.52270 0.97726 0.02032
 C126 C 0.54011 0.96161 0.00590
 C127 C 0.56041 0.94722 0.01913
 C128 C 0.54429 0.96486 0.06192
 C129 C 0.45941 0.99413 -0.03858
 C130 C 0.43912 0.98096 -0.05300
 C131 C 0.45524 0.93836 -0.03523
 C132 C 0.47532 0.95235 -0.02114
 N133 N 0.47683 0.97977 -0.02287
 H134 H 0.51061 0.99201 0.05885
 H135 H 0.53876 0.96111 -0.01602
 H136 H 0.57466 0.93545 0.00739
 H137 H 0.54597 0.96695 0.08374
 H138 H 0.46073 1.01595 -0.03910
 H139 H 0.42485 0.99264 -0.06483
 H140 H 0.45356 0.91664 -0.03309
 H141 H 0.48887 0.94140 -0.00794
 C142 C 0.43678 1.04749 0.05057
 C143 C 0.56303 1.05061 -0.04743
 C144 C 0.43676 0.95288 -0.05099
 C145 C 0.56278 0.94920 0.04733
 C146 C -0.00574 0.54019 1.03866
 H147 H 0.01601 0.53891 1.03909
 C148 C -0.01889 0.56058 1.05304
 H149 H -0.00726 0.57495 1.06477
 C150 C -0.04737 0.52400 1.02152
 H151 H -0.05826 0.51027 1.00847
 C152 C -0.06134 0.54418 1.03556
 H153 H -0.08301 0.54575 1.03355
 N154 N -0.02003 0.52260 1.02311
 C155 C 0.03842 0.45908 1.00656
 H156 H 0.03890 0.46036 0.98464
 C157 C 0.05274 0.43874 1.01986
 H158 H 0.06448 0.42440 1.00817
 C159 C 0.02122 0.47522 1.04848
 H160 H 0.00819 0.48890 1.05942
 C161 C 0.03519 0.45507 1.06260
 H162 H 0.03312 0.45348 1.08444
 Zn163 Zn 0.00025 0.49955 1.00044
 N164 N 0.02287 0.47662 1.02092
 C165 C 0.04778 0.52401 0.97924
 N166 N 0.02045 0.52256 0.97761
 C167 C 0.00614 0.54008 0.96193
 C168 C 0.01927 0.56044 0.94747
 C169 C 0.06173 0.54416 0.96512
 C170 C -0.03781 0.45894 0.99455
 C171 C -0.05218 0.43861 0.98132
 C172 C -0.03458 0.45482 0.93853
 C173 C -0.02058 0.47494 0.95258
 N174 N -0.02226 0.47643 0.98012
 H175 H 0.05868 0.51035 0.99239
 H176 H -0.01560 0.53878 0.96147
 H177 H 0.00764 0.57476 0.93565
 H178 H 0.08339 0.54577 0.96717
 H179 H -0.03828 0.46025 1.01647
 H180 H -0.06395 0.42434 0.99306
 H181 H -0.03252 0.45318 0.91670
 H182 H -0.00750 0.48856 0.94159
 C183 C 0.05076 0.43644 1.04808
 C184 C -0.04689 0.56287 1.05112
 C185 C -0.05022 0.43629 0.95311
 C186 C 0.04726 0.56276 0.94942
 C187 C 1.03816 -0.00594 0.54052
 H188 H 1.03866 0.01588 0.53918
 C189 C 1.05243 -0.01914 0.56101
 H190 H 1.06418 -0.00749 0.57536
 C191 C 1.02097 -0.04770 0.52441
 H192 H 1.00795 -0.05860 0.51068
 C193 C 1.03489 -0.06171 0.54470
 H194 H 1.03284 -0.08345 0.54633
 N195 N 1.02265 -0.02027 0.52291
 C196 C 1.00608 0.03826 0.45906
 H197 H 0.98434 0.03869 0.46036
 C198 C 1.01921 0.05264 0.43860
 H199 H 1.00756 0.06434 0.42417
 C200 C 1.04774 0.02121 0.47535
 H201 H 1.05866 0.00823 0.48916
 C202 C 1.06169 0.03526 0.45510
 H203 H 1.08336 0.03330 0.45353
 Zn204 Zn 1.00011 0.00003 0.49974
 N205 N 1.02039 0.02273 0.47671
 C206 C 0.97914 0.04772 0.52427
 N207 N 0.97748 0.02030 0.52281
 C208 C 0.96190 0.00595 0.54037
 C209 C 0.94755 0.01914 0.56079
 C210 C 0.96514 0.06172 0.54450
 C211 C 0.99431 -0.03816 0.45897
 C212 C 0.98124 -0.05255 0.43850
 C213 C 0.93873 -0.03508 0.45476
 C214 C 0.95260 -0.02102 0.47503
 N215 N 0.97994 -0.02261 0.47654
 H216 H 0.99223 0.05864 0.51059
 H217 H 0.96143 -0.01587 0.53906
 H218 H 0.93578 0.00747 0.57515
 H219 H 0.96720 0.08346 0.54613
 H220 H 1.01605 -0.03862 0.46035
 H221 H 0.99293 -0.06430 0.42416
 H222 H 0.91706 -0.03310 0.45311
 H223 H 0.94165 -0.00799 0.48874
 C224 C 1.04721 0.05080 0.43634
 C225 C 1.05044 -0.04722 0.56338
 C226 C 0.95325 -0.05068 0.43612
 C227 C 0.94955 0.04721 0.56316
 C228 C 0.12507 0.27670 1.12597
 C229 C 0.11578 0.29738 1.11701
 C230 C 0.10465 0.32199 1.10617
 C231 C 0.11854 0.34648 1.10913
 C232 C 0.10789 0.37030 1.09816
 C233 C 0.08329 0.36971 1.08422
 C234 C 0.06937 0.34525 1.08140
 C235 C 0.08001 0.32145 1.09235
 C236 C 0.07247 0.39395 1.07226
 C237 C 0.06291 0.41371 1.06163
 H238 H 0.13763 0.34711 1.11976
 H239 H 0.11887 0.38908 1.10039
 H240 H 0.05038 0.34454 1.07058
 H241 H 0.06912 0.30264 1.08992
 C242 C -0.12446 0.72269 1.12523
 C243 C -0.11533 0.70201 1.11614
 C244 C -0.10449 0.67733 1.10522
 C245 C -0.09745 0.65605 1.12263
 C246 C -0.08664 0.63217 1.11204
 C247 C -0.08285 0.62946 1.08398
 C248 C -0.09002 0.65069 1.06656
 C249 C -0.10084 0.67456 1.07716
 C250 C -0.07085 0.60533 1.07302
 C251 C -0.06028 0.58561 1.06336
 H252 H -0.10023 0.65799 1.14437
 H253 H -0.08109 0.61593 1.12570
 H254 H -0.08710 0.64885 1.04484
 H255 H -0.10623 0.69087 1.06350
 C256 C -0.12458 0.27697 0.87496
 C257 C -0.11547 0.29765 0.88401
 C258 C -0.10460 0.32234 0.89489
 C259 C -0.07672 0.32674 0.89474
 C260 C -0.06613 0.35058 0.90561
 C261 C -0.08336 0.37013 0.91667
 C262 C -0.11124 0.36577 0.91677
 C263 C -0.12184 0.34192 0.90589
 C264 C -0.07228 0.39410 0.92885
 C265 C -0.06254 0.41368 0.93958
 H266 H -0.06321 0.31169 0.88641
 H267 H -0.04452 0.35365 0.90561
 H268 H -0.12473 0.38065 0.92544
 H269 H -0.14341 0.33866 0.90622
 C270 C 0.12418 0.72285 0.87509
 C271 C 0.11516 0.70211 0.88417
 C272 C 0.10447 0.67734 0.89506
 C273 C 0.09676 0.65638 0.87758
 C274 C 0.08601 0.63245 0.88818
 C275 C 0.08301 0.62937 0.91630
 C276 C 0.09090 0.65025 0.93377
 C277 C 0.10164 0.67417 0.92317
 C278 C 0.07112 0.60520 0.92732
 C279 C 0.06062 0.58547 0.93707
 H280 H 0.09896 0.65859 0.85581
 H281 H 0.07994 0.61646 0.87447
 H282 H 0.08862 0.64811 0.95554
 H283 H 0.10762 0.69019 0.93688
 C284 C 1.12512 0.12589 0.27652
 C285 C 1.11590 0.11675 0.29721
 C286 C 1.10489 0.10566 0.32184
 C287 C 1.10492 0.12090 0.34581
 C288 C 1.09402 0.11009 0.36967
 C289 C 1.08308 0.08399 0.36962
 C290 C 1.08318 0.06873 0.34566
 C291 C 1.09405 0.07953 0.32184
 C292 C 1.07117 0.07293 0.39384
 C293 C 1.06062 0.06315 0.41359
 H294 H 1.11327 0.14113 0.34602
 H295 H 1.09403 0.12207 0.38807
 H296 H 1.07475 0.04853 0.34538
 H297 H 1.09394 0.06757 0.30342
 C298 C 1.12427 -0.12513 0.72380
 C299 C 1.11527 -0.11603 0.70298
 C300 C 1.10477 -0.10495 0.67812
 C301 C 1.11227 -0.07889 0.66993
 C302 C 1.10191 -0.06794 0.64593
 C303 C 1.08400 -0.08298 0.62999
 C304 C 1.07660 -0.10910 0.63809
 C305 C 1.08698 -0.12007 0.66211
 C306 C 1.07260 -0.07119 0.60587
 C307 C 1.06274 -0.06067 0.58614
 H308 H 1.12602 -0.06702 0.68215
 H309 H 1.10770 -0.04769 0.63991
 H310 H 1.06270 -0.12088 0.62597
 H311 H 1.08106 -0.14024 0.66825
 C312 C 0.87579 -0.12505 0.27594
 C313 C 0.88494 -0.11613 0.29676
 C314 C 0.89580 -0.10551 0.32165
 C315 C 0.88611 -0.08105 0.33215
 C316 C 0.89688 -0.07061 0.35620
 C317 C 0.91736 -0.08458 0.36984
 C318 C 0.92691 -0.10914 0.35944
 C319 C 0.91615 -0.11958 0.33539
 C320 C 0.92935 -0.07317 0.39383
 C321 C 0.93990 -0.06318 0.41345
 H322 H 0.87037 -0.07000 0.32170
 H323 H 0.88940 -0.05157 0.36403
 H324 H 0.94280 -0.12008 0.36979
 H325 H 0.92378 -0.13851 0.32745
 C326 C 0.87540 0.12551 0.72323
 C327 C 0.88473 0.11629 0.70262
 C328 C 0.89577 0.10502 0.67809
 C329 C 0.89502 0.11978 0.65379
 C330 C 0.90551 0.10862 0.62992
 C331 C 0.91678 0.08265 0.63028
 C332 C 0.91755 0.06792 0.65458
 C333 C 0.90708 0.07907 0.67842
 C334 C 0.92777 0.07102 0.60590
 C335 C 0.93740 0.06059 0.58602
 H336 H 0.88629 0.13984 0.65331
 H337 H 0.90482 0.12018 0.61126
 H338 H 0.92623 0.04783 0.65509
 H339 H 0.90773 0.06747 0.69708
 C340 C 0.27729 1.12520 0.12444
 C341 C 0.29788 1.11610 0.11522
 C342 C 0.32242 1.10518 0.10420
 C343 C 0.34701 1.10962 0.11744
 C344 C 0.37081 1.09871 0.10686
 C345 C 0.37009 1.08334 0.08299
 C346 C 0.34551 1.07901 0.06972
 C347 C 0.32173 1.08990 0.08029
 C348 C 0.39433 1.07152 0.07223
 C349 C 0.41408 1.06097 0.06270
 H350 H 0.34774 1.12141 0.13596
 H351 H 0.38969 1.10214 0.11733
 H352 H 0.34470 1.06711 0.05128
 H353 H 0.30284 1.08633 0.06989
 C354 C 0.72268 1.12413 -0.12502
 C355 C 0.70199 1.11521 -0.11587
 C356 C 0.67734 1.10469 -0.10470
 C357 C 0.65686 1.09538 -0.12191
 C358 C 0.63298 1.08506 -0.11092
 C359 C 0.62950 1.08406 -0.08271
 C360 C 0.64995 1.09345 -0.06554
 C361 C 0.67380 1.10375 -0.07651
 C362 C 0.60536 1.07276 -0.07119
 C363 C 0.58568 1.06293 -0.06081
 H364 H 0.65940 1.09601 -0.14375
 H365 H 0.61734 1.07776 -0.12437
 H366 H 0.64751 1.09268 -0.04369
 H367 H 0.68950 1.11088 -0.06302
 C368 C 0.27714 0.87553 -0.12466
 C369 C 0.29778 0.88459 -0.11555
 C370 C 0.32236 0.89548 -0.10461
 C371 C 0.34678 0.89182 -0.11842
 C372 C 0.37061 0.90269 -0.10789
 C373 C 0.37009 0.91724 -0.08351
 C374 C 0.34568 0.92080 -0.06967
 C375 C 0.32188 0.90995 -0.08018
 C376 C 0.39434 0.92900 -0.07277
 C377 C 0.41408 0.93949 -0.06320
 H378 H 0.34736 0.88067 -0.13734
 H379 H 0.38935 0.89986 -0.11880
 H380 H 0.34505 0.93208 -0.05083
 H381 H 0.30313 0.91294 -0.06933
 C382 C 0.72245 0.87541 0.12482
 C383 C 0.70182 0.88449 0.11567
 C384 C 0.67726 0.89535 0.10460
 C385 C 0.65239 0.88901 0.11648
 C386 C 0.62855 0.89951 0.10555
 C387 C 0.62953 0.91640 0.08272
 C388 C 0.65441 0.92275 0.07090
 C389 C 0.67821 0.91226 0.08181
 C390 C 0.60521 0.92731 0.07120
 C391 C 0.58545 0.93696 0.06077
 H392 H 0.65144 0.87594 0.13411
 H393 H 0.60942 0.89446 0.11486
 H394 H 0.65541 0.93579 0.05324
 H395 H 0.69732 0.91729 0.07245
   
