data_POSCAR
  _audit_creation_date              2014-09-24
  _audit_creation_method            'ToBaCCo'
  _symmetry_space_group_name_H-M    'P1'
  _symmetry_Int_Tables_number       1
  _symmetry_cell_setting            triclinic
  loop_
  _symmetry_equiv_pos_as_xyz
 x,y,z
_cell_length_a 36.7990
_cell_length_b 36.8627
_cell_length_c 20.5771
_cell_angle_alpha 90.008700
_cell_angle_beta 89.999700
_cell_angle_gamma 119.824100
loop_
  _atom_site_label
  _atom_site_type_symbol
  _atom_site_fract_x
  _atom_site_fract_y
  _atom_site_fract_z
C1 C 0.54100 1.12546 0.53359
 C2 C 0.54080 1.12582 0.46695
 C3 C 0.53745 1.08833 0.44676
 N4 N 0.53472 1.06478 0.49891
 C5 C 0.53699 1.08751 0.55186
 C6 C 0.53816 1.07653 0.38137
 C7 C 0.52502 1.03436 0.36497
 C8 C 0.53568 1.02136 0.30830
 C9 C 0.51434 0.97841 0.30897
 C10 C 0.49175 0.96631 0.36640
 N11 N 0.49868 1.00051 0.40063
 C12 C 0.46284 0.92464 0.38344
 C13 C 0.44943 0.91255 0.44792
 C14 C 0.41550 0.87468 0.46619
 C15 C 0.41495 0.87433 0.53283
 C16 C 0.44908 0.91173 0.55302
 N17 N 0.46988 0.93522 0.50087
 C18 C 0.46158 0.92348 0.61841
 C19 C 0.49062 0.96561 0.63481
 C20 C 0.51425 0.97851 0.69148
 C21 C 0.53590 1.02146 0.69081
 C22 C 0.52546 1.03365 0.63338
 N23 N 0.49819 0.99952 0.59915
 C24 C 0.53830 1.07538 0.61634
 H25 H 0.54352 1.15016 0.56501
 H26 H 0.54266 1.15079 0.43696
 H27 H 0.48202 0.99957 0.55762
 H28 H 0.55653 1.04079 0.27016
 H29 H 0.51517 0.95834 0.27129
 H30 H 0.39332 0.85004 0.43478
 H31 H 0.39185 0.84942 0.56283
 H32 H 0.55678 1.04146 0.72849
 H33 H 0.48250 1.00055 0.44216
 H34 H 0.51562 0.95902 0.72962
 C35 C -0.12539 0.45918 0.53279
 C36 C -0.12537 0.45895 0.46623
 C37 C -0.08855 0.46037 0.44711
 N38 N -0.06581 0.46196 0.49987
 C39 C -0.08861 0.46069 0.55237
 C40 C -0.07663 0.45946 0.38186
 C41 C -0.03418 0.47370 0.36550
 C42 C -0.02052 0.46368 0.30890
 C43 C 0.02246 0.48683 0.30895
 C44 C 0.03394 0.50974 0.36608
 N45 N -0.00068 0.50130 0.40066
 C46 C 0.07543 0.53961 0.38298
 C47 C 0.08743 0.55285 0.44755
 C48 C 0.12613 0.58528 0.46680
 C49 C 0.12613 0.58507 0.53354
 C50 C 0.08740 0.55255 0.55249
 N51 N 0.06383 0.53293 0.49993
 C52 C 0.07536 0.53900 0.61692
 C53 C 0.03375 0.50941 0.63375
 C54 C 0.02202 0.48653 0.69090
 C55 C -0.02099 0.46383 0.69096
 C56 C -0.03440 0.47400 0.63426
 N57 N -0.00076 0.50131 0.59911
 C58 C -0.07675 0.46012 0.61778
 H59 H -0.14942 0.45908 0.56323
 H60 H -0.14937 0.45863 0.43545
 H61 H -0.00152 0.51716 0.55767
 H62 H -0.03955 0.44221 0.27108
 H63 H 0.04294 0.48684 0.27119
 H64 H 0.15185 0.60647 0.43605
 H65 H 0.15183 0.60607 0.56449
 H66 H -0.04020 0.44252 0.72881
 H67 H -0.00163 0.51709 0.44206
 H68 H 0.04235 0.48632 0.72874
 C69 C 0.58452 0.45850 0.46674
 C70 C 0.58528 0.45920 0.53338
 C71 C 0.55110 0.46266 0.55342
 N72 N 0.53003 0.46494 0.50123
 C73 C 0.55038 0.46229 0.44832
 C74 C 0.53849 0.46198 0.61867
 C75 C 0.50963 0.47552 0.63491
 C76 C 0.48466 0.46340 0.69010
 C77 C 0.46335 0.48515 0.69008
 C78 C 0.47576 0.51002 0.63483
 N79 N 0.50340 0.50337 0.60068
 C80 C 0.46264 0.53915 0.61847
 C81 C 0.46306 0.55138 0.55307
 C82 C 0.45964 0.58546 0.53264
 C83 C 0.45854 0.58424 0.46602
 C84 C 0.46216 0.55000 0.44799
 N85 N 0.46502 0.52998 0.50112
 C86 C 0.46051 0.53627 0.38355
 C87 C 0.47335 0.50728 0.36650
 C88 C 0.46492 0.48625 0.30767
 C89 C 0.48671 0.46486 0.30768
 C90 C 0.50774 0.47345 0.36655
 N91 N 0.49922 0.49908 0.40227
 C92 C 0.53699 0.46092 0.38372
 H93 H 0.60671 0.45583 0.43544
 H94 H 0.60851 0.45754 0.56351
 H95 H 0.51445 0.51435 0.44481
 H96 H 0.48190 0.44101 0.72656
 H97 H 0.44104 0.48274 0.72651
 H98 H 0.45824 0.60890 0.56248
 H99 H 0.45578 0.60624 0.43446
 H100 H 0.48762 0.44585 0.26833
 H101 H 0.52034 0.52017 0.56006
 H102 H 0.44578 0.48693 0.26828
 O103 O 0.39490 0.66887 -0.07430
 O104 O 0.39663 0.73962 -0.05485
 C105 C 0.37043 0.74556 -0.08653
 O106 O 0.33158 0.72683 -0.07448
 O107 O 0.26081 0.65807 -0.05505
 C108 C 0.25499 0.62604 -0.08670
 O109 O 0.27387 0.60601 -0.07461
 O110 O 0.34285 0.60399 -0.05487
 C111 C 0.37496 0.63010 -0.08641
 O112 O 0.39653 0.65758 0.05510
 O113 O 0.39478 0.72659 0.07455
 C114 C 0.37480 0.74552 0.08662
 O115 O 0.34277 0.73981 0.05490
 O116 O 0.27378 0.66929 0.07433
 C117 C 0.25487 0.63051 0.08637
 O118 O 0.26071 0.60428 0.05473
 O119 O 0.33144 0.60578 0.07446
 C120 C 0.37026 0.62562 0.08670
 Cr121 Cr 0.39336 0.69700 0.00012
 Cr122 Cr 0.30341 0.69732 -0.00007
 Cr123 Cr 0.30340 0.60736 -0.00007
 O124 O 0.33339 0.66723 -0.00002
 O125 O 0.60538 0.33133 -0.07451
 O126 O 0.60353 0.26051 -0.05529
 C127 C 0.62973 0.25455 -0.08694
 O128 O 0.66856 0.27321 -0.07478
 O129 O 0.73935 0.34190 -0.05517
 C130 C 0.74517 0.37395 -0.08675
 O131 O 0.72637 0.39404 -0.07447
 O132 O 0.65745 0.39615 -0.05474
 C133 C 0.62538 0.37012 -0.08644
 O134 O 0.60364 0.34245 0.05494
 O135 O 0.60527 0.27337 0.07414
 C136 C 0.62521 0.25439 0.08621
 O137 O 0.65727 0.26011 0.05458
 O138 O 0.72630 0.33055 0.07426
 C139 C 0.74517 0.36930 0.08652
 O140 O 0.73943 0.39560 0.05491
 O141 O 0.66873 0.39416 0.07459
 C142 C 0.62989 0.37434 0.08669
 Cr143 Cr 0.60681 0.30308 -0.00018
 Cr144 Cr 0.69670 0.30263 -0.00027
 Cr145 Cr 0.69682 0.39264 0.00006
 O146 O 0.66677 0.33278 -0.00013
 C147 C 0.41452 0.83207 -0.23211
 C148 C 0.42773 0.82356 -0.29101
 C149 C 0.44316 0.85355 -0.34042
 C150 C 0.44563 0.89271 -0.33178
 C151 C 0.43220 0.90077 -0.27198
 C152 C 0.41677 0.87070 -0.22273
 C153 C 0.39888 0.80132 -0.18108
 C154 C 0.38584 0.77575 -0.13804
 H155 H 0.42639 0.79383 -0.29860
 H156 H 0.45427 0.84650 -0.38477
 H157 H 0.43277 0.93008 -0.26378
 H158 H 0.40649 0.87757 -0.17736
 C159 C 0.16833 0.58422 -0.23229
 C160 C 0.13447 0.59149 -0.22886
 C161 C 0.10432 0.57691 -0.27811
 C162 C 0.10779 0.55495 -0.33131
 C163 C 0.14179 0.54771 -0.33449
 C164 C 0.17195 0.56233 -0.28522
 C165 C 0.19914 0.59898 -0.18127
 C166 C 0.22476 0.61134 -0.13824
 H167 H 0.13135 0.60834 -0.18809
 H168 H 0.07826 0.58271 -0.27486
 H169 H 0.14477 0.53056 -0.37494
 H170 H 0.19796 0.55645 -0.28826
 C171 C 0.41775 0.58591 -0.23180
 C172 C 0.39648 0.57342 -0.29109
 C173 C 0.41117 0.55805 -0.34056
 C174 C 0.44760 0.55498 -0.33164
 C175 C 0.46853 0.56754 -0.27132
 C176 C 0.45375 0.58291 -0.22201
 C177 C 0.40253 0.60159 -0.18079
 C178 C 0.38989 0.61466 -0.13783
 H179 H 0.36833 0.57527 -0.29897
 H180 H 0.39328 0.54743 -0.38517
 H181 H 0.49698 0.56636 -0.26275
 H182 H 0.47052 0.59258 -0.17629
 C183 C 0.58531 0.16822 -0.23281
 C184 C 0.54454 0.13414 -0.22904
 C185 C 0.52919 0.10404 -0.27829
 C186 C 0.55450 0.10774 -0.33181
 C187 C 0.59536 0.14204 -0.33541
 C188 C 0.61067 0.17215 -0.28612
 C189 C 0.60117 0.19892 -0.18169
 C190 C 0.61430 0.22444 -0.13857
 H191 H 0.52467 0.13080 -0.18799
 H192 H 0.49759 0.07783 -0.27477
 H193 H 0.61540 0.14528 -0.37615
 H194 H 0.64229 0.19836 -0.28946
 C195 C 0.83158 0.41614 -0.23275
 C196 C 0.87037 0.45215 -0.22316
 C197 C 0.90050 0.46670 -0.27238
 C198 C 0.89240 0.44545 -0.33237
 C199 C 0.85299 0.40922 -0.34132
 C200 C 0.82293 0.39475 -0.29192
 C201 C 0.80081 0.40109 -0.18163
 C202 C 0.77529 0.38864 -0.13845
 H203 H 0.87731 0.46909 -0.17763
 H204 H 0.92988 0.49522 -0.26398
 H205 H 0.84580 0.39134 -0.38593
 H206 H 0.79304 0.36668 -0.29972
 C207 C 0.58324 0.41498 -0.23177
 C208 C 0.57091 0.39424 -0.29148
 C209 C 0.55626 0.40967 -0.34090
 C210 C 0.55372 0.44630 -0.33151
 C211 C 0.56618 0.46674 -0.27082
 C212 C 0.58084 0.45122 -0.22156
 C213 C 0.59814 0.39898 -0.18079
 C214 C 0.61059 0.38571 -0.13784
 H215 H 0.57233 0.36594 -0.29971
 H216 H 0.54575 0.39219 -0.38587
 H217 H 0.56546 0.49534 -0.26190
 H218 H 0.59042 0.46760 -0.17553
 C219 C 0.83158 0.41334 0.23253
 C220 C 0.87010 0.44959 0.22249
 C221 C 0.90026 0.46488 0.27168
 C222 C 0.89247 0.44413 0.33207
 C223 C 0.85329 0.40770 0.34151
 C224 C 0.82320 0.39248 0.29214
 C225 C 0.80080 0.39753 0.18143
 C226 C 0.77528 0.38452 0.13825
 H227 H 0.87682 0.46615 0.17663
 H228 H 0.92942 0.49357 0.26291
 H229 H 0.84633 0.39022 0.38650
 H230 H 0.79351 0.36425 0.30031
 C231 C 0.58259 0.16791 0.23184
 C232 C 0.54622 0.12939 0.22248
 C233 C 0.53154 0.09933 0.27175
 C234 C 0.55299 0.10730 0.33155
 C235 C 0.58967 0.14636 0.34017
 C236 C 0.60427 0.17633 0.29073
 C237 C 0.59776 0.19864 0.18077
 C238 C 0.61035 0.22420 0.13772
 H239 H 0.52910 0.12259 0.17711
 H240 H 0.50282 0.07011 0.26357
 H241 H 0.60780 0.15333 0.38452
 H242 H 0.63266 0.20598 0.29830
 C243 C 0.58573 0.41662 0.23282
 C244 C 0.59219 0.45737 0.23037
 C245 C 0.57649 0.47185 0.27964
 C246 C 0.55412 0.44565 0.33183
 C247 C 0.54784 0.40485 0.33418
 C248 C 0.56359 0.39041 0.28487
 C249 C 0.60147 0.40162 0.18161
 C250 C 0.61452 0.38914 0.13840
 H251 H 0.60926 0.47790 0.19031
 H252 H 0.58170 0.50344 0.27717
 H253 H 0.53054 0.38419 0.37396
 H254 H 0.55837 0.35881 0.28719
 C255 C 0.16820 0.58680 0.23194
 C256 C 0.17223 0.56477 0.28428
 C257 C 0.14213 0.54947 0.33362
 C258 C 0.10778 0.55619 0.33110
 C259 C 0.10387 0.57825 0.27845
 C260 C 0.13397 0.59351 0.22914
 C261 C 0.19899 0.60230 0.18088
 C262 C 0.22460 0.61522 0.13785
 H263 H 0.19854 0.55931 0.28682
 H264 H 0.14544 0.53223 0.37362
 H265 H 0.07753 0.58363 0.27571
 H266 H 0.13053 0.61045 0.18882
 C267 C 0.41688 0.83186 0.23250
 C268 C 0.43824 0.82776 0.28579
 C269 C 0.45307 0.85784 0.33510
 C270 C 0.44662 0.89229 0.33157
 C271 C 0.42508 0.89616 0.27807
 C272 C 0.41030 0.86608 0.22879
 C273 C 0.40198 0.80117 0.18136
 C274 C 0.38955 0.77565 0.13823
 H275 H 0.44355 0.80143 0.28907
 H276 H 0.46981 0.85447 0.37583
 H277 H 0.41978 0.92249 0.27460
 H278 H 0.39382 0.86956 0.18776
 C279 C 0.41426 0.58314 0.23275
 C280 C 0.45525 0.59006 0.22976
 C281 C 0.47038 0.57500 0.27902
 C282 C 0.44461 0.55280 0.33171
 C283 C 0.40358 0.54610 0.33461
 C284 C 0.38849 0.56121 0.28533
 C285 C 0.39860 0.59822 0.18155
 C286 C 0.38559 0.61077 0.13837
 H287 H 0.47545 0.60699 0.18930
 H288 H 0.50213 0.58055 0.27612
 H289 H 0.38325 0.52894 0.37481
 H290 H 0.35672 0.55566 0.28807
   
