data_POSCAR
  _audit_creation_date              2014-09-24
  _audit_creation_method            'ToBaCCo'
  _symmetry_space_group_name_H-M    'P1'
  _symmetry_Int_Tables_number       1
  _symmetry_cell_setting            triclinic
  loop_
  _symmetry_equiv_pos_as_xyz
 x,y,z
_cell_length_a 37.0971
_cell_length_b 34.5050
_cell_length_c 51.0500
_cell_angle_alpha 89.833900
_cell_angle_beta 90.195800
_cell_angle_gamma 117.684900
loop_
  _atom_site_label
  _atom_site_type_symbol
  _atom_site_fract_x
  _atom_site_fract_y
  _atom_site_fract_z
C1 C 0.01978 0.51421 1.27699
 C2 C -0.02362 0.49150 1.27784
 C3 C -0.04549 0.48087 1.25407
 C4 C -0.02618 0.49189 1.22951
 C5 C 0.01697 0.51405 1.22886
 C6 C 0.03900 0.52545 1.25240
 H7 H 0.07198 0.54190 1.25134
 H8 H -0.07848 0.46405 1.25471
 C9 C 0.49515 0.51420 1.27232
 C10 C 0.52212 0.49541 1.27236
 C11 C 0.53529 0.48632 1.24852
 C12 C 0.52177 0.49452 1.22447
 C13 C 0.49384 0.51165 1.22424
 C14 C 0.48083 0.52111 1.24804
 H15 H 0.46035 0.53551 1.24744
 H16 H 0.55580 0.47194 1.24870
 C17 C 0.48401 0.97964 1.27322
 C18 C 0.51785 1.02281 1.27307
 C19 C 0.53367 1.04289 1.24865
 C20 C 0.51690 1.02225 1.22482
 C21 C 0.48481 0.97912 1.22499
 C22 C 0.46814 0.95903 1.24895
 H23 H 0.44440 0.92534 1.24856
 H24 H 0.55742 1.07655 1.24800
 C25 C 0.98452 0.50015 0.72291
 C26 C 1.02748 0.52297 0.72399
 C27 C 1.04710 0.53166 0.74845
 C28 C 1.02506 0.51967 0.77211
 C29 C 0.98180 0.49731 0.77081
 C30 C 0.96234 0.48782 0.74633
 H31 H 0.92937 0.47005 0.74551
 H32 H 1.08008 0.54953 0.74896
 C33 C 0.51355 0.49002 0.72886
 C34 C 0.48815 0.51044 0.72840
 C35 C 0.47561 0.52075 0.75213
 C36 C 0.48827 0.51172 0.77631
 C37 C 0.51335 0.49094 0.77676
 C38 C 0.52601 0.48080 0.75303
 H39 H 0.54472 0.46425 0.75338
 H40 H 0.45689 0.53728 0.75176
 C41 C 0.49691 0.01631 0.72640
 C42 C 0.46483 -0.02727 0.72716
 C43 C 0.45010 -0.04672 0.75178
 C44 C 0.46822 -0.02537 0.77539
 C45 C 0.50025 0.01823 0.77417
 C46 C 0.51421 0.03814 0.74981
 H47 H 0.53738 0.07210 0.74909
 H48 H 0.42714 -0.08072 0.75250
 O49 O 0.37673 0.65049 0.97778
 O50 O 0.36677 0.71941 0.96968
 C51 C 0.34433 0.73721 0.96498
 O52 O 0.31330 0.73005 0.97870
 O53 O 0.25046 0.65378 0.97239
 C54 C 0.23576 0.61329 0.96750
 O55 O 0.24446 0.58751 0.98089
 O56 O 0.31550 0.59333 0.97230
 C57 C 0.35236 0.61583 0.96572
 O58 O 0.37676 0.66461 1.02994
 O59 O 0.37029 0.73535 1.02170
 C60 C 0.34369 0.73929 1.03556
 O61 O 0.30582 0.71757 1.03115
 O62 O 0.24051 0.64329 1.02464
 C63 C 0.23906 0.61169 1.03824
 O64 O 0.26040 0.59280 1.03311
 O65 O 0.33043 0.59503 1.02438
 C66 C 0.36098 0.62462 1.03632
 Cr67 Cr 0.37041 0.69112 0.99983
 Cr68 Cr 0.27883 0.68511 1.00171
 Cr69 Cr 0.28860 0.59454 1.00265
 O70 O 0.31263 0.65689 1.00136
 O71 O 0.62433 0.34989 0.97801
 O72 O 0.62948 0.27896 0.96743
 C73 C 0.64959 0.25906 0.96145
 O74 O 0.68091 0.26376 0.97416
 O75 O 0.74560 0.33858 0.96706
 C76 C 0.76245 0.37958 0.96329
 O77 O 0.75655 0.40571 0.97814
 O78 O 0.68672 0.40456 0.97152
 C79 C 0.64925 0.38413 0.96580
 O80 O 0.62679 0.33287 1.02970
 O81 O 0.62868 0.26042 1.01903
 C82 C 0.65530 0.25468 1.03193
 O83 O 0.69294 0.27464 1.02652
 O84 O 0.76002 0.34707 1.01905
 C85 C 0.76353 0.37819 1.03388
 O86 O 0.74297 0.39859 1.03054
 O87 O 0.67465 0.40164 1.02386
 C88 C 0.64434 0.37275 1.03629
 Cr89 Cr 0.62950 0.30673 0.99854
 Cr90 Cr 0.71867 0.30713 0.99677
 Cr91 Cr 0.71425 0.40031 1.00096
 O92 O 0.68742 0.33807 0.99870
 O93 O 0.68406 0.40315 0.53240
 O94 O 0.74976 0.39610 0.52344
 C95 C 0.75348 0.36626 0.53600
 O96 O 0.73280 0.32596 0.53059
 O97 O 0.66286 0.25735 0.52317
 C98 C 0.63349 0.25538 0.53687
 O99 O 0.61609 0.27879 0.53229
 O100 O 0.61941 0.35515 0.52472
 C101 C 0.64655 0.38625 0.53794
 O102 O 0.67231 0.40735 0.48021
 O103 O 0.73631 0.39685 0.47153
 C104 C 0.75166 0.37200 0.46571
 O105 O 0.74388 0.33714 0.47826
 O106 O 0.67257 0.27076 0.47085
 C107 C 0.63471 0.25478 0.46643
 O108 O 0.61144 0.26432 0.48019
 O109 O 0.61883 0.34240 0.47254
 C110 C 0.64063 0.38255 0.46716
 Cr111 Cr 0.70930 0.39847 0.50189
 Cr112 Cr 0.70206 0.29923 0.50076
 Cr113 Cr 0.61869 0.31118 0.50240
 O114 O 0.67674 0.33631 0.50166
 O115 O 0.31963 0.59149 0.52750
 O116 O 0.25341 0.59772 0.51866
 C117 C 0.24875 0.62594 0.53216
 O118 O 0.26902 0.66674 0.52803
 O119 O 0.33848 0.73679 0.52250
 C120 C 0.36853 0.73896 0.53564
 O121 O 0.38660 0.71659 0.53022
 O122 O 0.38419 0.64115 0.52117
 C123 C 0.35701 0.60891 0.53365
 O124 O 0.33252 0.59135 0.47527
 O125 O 0.26820 0.60150 0.46687
 C126 C 0.25241 0.62629 0.46179
 O127 O 0.25931 0.65991 0.47534
 O128 O 0.33016 0.72792 0.46983
 C129 C 0.36802 0.74432 0.46536
 O130 O 0.39147 0.73396 0.47848
 O131 O 0.38566 0.65709 0.46924
 C132 C 0.36447 0.61730 0.46296
 Cr133 Cr 0.29475 0.59794 0.49714
 Cr134 Cr 0.30025 0.69644 0.49892
 Cr135 Cr 0.38468 0.68613 0.49973
 O136 O 0.32655 0.66021 0.49856
 C137 C 0.51164 0.54881 0.31581
 C138 C 0.49993 0.56208 0.33865
 C139 C 0.45965 0.55381 0.34209
 C140 C 0.43111 0.53277 0.32211
 C141 C 0.44289 0.52018 0.29901
 C142 C 0.48324 0.52724 0.29566
 N143 N 0.44875 0.56802 0.36571
 N144 N 0.41183 0.55457 0.37240
 C145 C 0.40102 0.56992 0.39561
 C146 C 0.36087 0.54810 0.40459
 C147 C 0.34916 0.56286 0.42687
 C148 C 0.37741 0.60032 0.44026
 C149 C 0.41774 0.62221 0.43118
 C150 C 0.42955 0.60696 0.40916
 H151 H 0.54340 0.55706 0.31356
 H152 H 0.52236 0.57895 0.35374
 H153 H 0.39981 0.52638 0.32426
 H154 H 0.41995 0.50344 0.28417
 H155 H 0.33859 0.51962 0.39425
 H156 H 0.31779 0.54554 0.43327
 H157 H 0.44017 0.65113 0.44110
 H158 H 0.46074 0.62451 0.40249
 C159 C 0.42562 0.92714 0.29875
 C160 C 0.40946 0.90081 0.32084
 C161 C 0.43497 0.90031 0.34087
 C162 C 0.47719 0.92713 0.33875
 C163 C 0.49349 0.95386 0.31672
 C164 C 0.46793 0.95441 0.29631
 N165 N 0.41716 0.87152 0.36272
 N166 N 0.43841 0.86643 0.38073
 C167 C 0.42013 0.83693 0.40223
 C168 C 0.44523 0.82997 0.42008
 C169 C 0.42837 0.80020 0.44071
 C170 C 0.38588 0.77699 0.44399
 C171 C 0.36072 0.78461 0.42625
 C172 C 0.37766 0.81419 0.40552
 H173 H 0.40473 0.92685 0.28378
 H174 H 0.37687 0.88033 0.32226
 H175 H 0.49760 0.92703 0.35392
 H176 H 0.52625 0.97280 0.31526
 H177 H 0.47798 0.84726 0.41779
 H178 H 0.44867 0.79526 0.45401
 H179 H 0.32791 0.76724 0.42815
 H180 H 0.35756 0.81903 0.39200
 C181 C 0.03586 0.49077 0.31913
 C182 C 0.06103 0.49946 0.34110
 C183 C 0.09517 0.54028 0.34410
 C184 C 0.10455 0.57219 0.32455
 C185 C 0.07993 0.56335 0.30235
 C186 C 0.04470 0.52279 0.29951
 N187 N 0.12015 0.54850 0.36693
 N188 N 0.14601 0.58714 0.37340
 C189 C 0.17197 0.59591 0.39575
 C190 C 0.19292 0.63886 0.40501
 C191 C 0.21867 0.64865 0.42672
 C192 C 0.22451 0.61562 0.43918
 C193 C 0.20381 0.57254 0.42966
 C194 C 0.17743 0.56266 0.40824
 H195 H 0.01012 0.45853 0.31718
 H196 H 0.05381 0.47438 0.35589
 H197 H 0.13105 0.60390 0.32635
 H198 H 0.08773 0.58894 0.28783
 H199 H 0.18908 0.66476 0.39544
 H200 H 0.23452 0.68219 0.43350
 H201 H 0.20773 0.54646 0.43892
 H202 H 0.16174 0.52925 0.40126
 C203 C 0.50251 0.44908 0.31280
 C204 C 0.51272 0.43441 0.33581
 C205 C 0.55351 0.45041 0.34318
 C206 C 0.58427 0.48100 0.32702
 C207 C 0.57410 0.49530 0.30382
 C208 C 0.53313 0.47981 0.29671
 N209 N 0.56282 0.43449 0.36684
 N210 N 0.59849 0.45161 0.37661
 C211 C 0.60776 0.43469 0.39990
 C212 C 0.64626 0.45788 0.41135
 C213 C 0.65666 0.44153 0.43362
 C214 C 0.62875 0.40128 0.44462
 C215 C 0.58997 0.37823 0.43316
 C216 C 0.57948 0.39487 0.41108
 H217 H 0.47075 0.43642 0.30748
 H218 H 0.48879 0.41065 0.34801
 H219 H 0.61604 0.49355 0.33223
 H220 H 0.59809 0.51890 0.29157
 H221 H 0.66834 0.48855 0.40288
 H222 H 0.68687 0.45993 0.44186
 H223 H 0.56777 0.34718 0.44117
 H224 H 0.54954 0.37627 0.40253
 C225 C 0.57630 0.07583 0.29844
 C226 C 0.59251 0.10226 0.32047
 C227 C 0.56706 0.10280 0.34040
 C228 C 0.52483 0.07606 0.33820
 C229 C 0.50848 0.04924 0.31624
 C230 C 0.53398 0.04849 0.29599
 N231 N 0.58495 0.13132 0.36232
 N232 N 0.56378 0.13626 0.38032
 C233 C 0.58218 0.16526 0.40200
 C234 C 0.55719 0.17190 0.41996
 C235 C 0.57418 0.20079 0.44094
 C236 C 0.61667 0.22344 0.44446
 C237 C 0.64170 0.21630 0.42652
 C238 C 0.62464 0.18759 0.40545
 H239 H 0.59716 0.07600 0.28359
 H240 H 0.62512 0.12269 0.32195
 H241 H 0.50446 0.07619 0.35329
 H242 H 0.47571 0.03030 0.31473
 H243 H 0.52444 0.15491 0.41754
 H244 H 0.55399 0.20541 0.45439
 H245 H 0.67451 0.23326 0.42859
 H246 H 0.64465 0.18299 0.39185
 C247 C 0.96434 0.51352 0.32149
 C248 C 0.94097 0.50416 0.34429
 C249 C 0.90709 0.46321 0.34766
 C250 C 0.89634 0.43177 0.32777
 C251 C 0.91912 0.44127 0.30480
 C252 C 0.95383 0.48209 0.30140
 N253 N 0.88342 0.45443 0.37107
 N254 N 0.85779 0.41559 0.37734
 C255 C 0.83253 0.40590 0.40001
 C256 C 0.81148 0.36248 0.40851
 C257 C 0.78570 0.35158 0.43016
 C258 C 0.77996 0.38398 0.44335
 C259 C 0.80097 0.42760 0.43468
 C260 C 0.82736 0.43857 0.41329
 H261 H 0.98984 0.54587 0.31924
 H262 H 0.94926 0.52886 0.35938
 H263 H 0.87006 0.39996 0.32985
 H264 H 0.91021 0.41604 0.28999
 H265 H 0.81508 0.33704 0.39830
 H266 H 0.76964 0.31765 0.43627
 H267 H 0.79714 0.45321 0.44452
 H268 H 0.84313 0.47233 0.40688
 C269 C 0.55861 0.51783 1.18157
 C270 C 0.57441 0.50855 1.15898
 C271 C 0.56920 0.46622 1.15452
 C272 C 0.54780 0.43310 1.17297
 C273 C 0.53223 0.44241 1.19559
 C274 C 0.53744 0.48479 1.20005
 N275 N 0.58617 0.45761 1.13143
 N276 N 0.57982 0.41903 1.12586
 C277 C 0.59653 0.40889 1.10325
 C278 C 0.58455 0.36496 1.09774
 C279 C 0.60005 0.35339 1.07598
 C280 C 0.62828 0.38574 1.05933
 C281 C 0.64062 0.43004 1.06501
 C282 C 0.62472 0.44156 1.08677
 H283 H 0.56331 0.55086 1.18483
 H284 H 0.59090 0.53438 1.14497
 H285 H 0.54340 0.40012 1.17005
 H286 H 0.51601 0.41651 1.20962
 H287 H 0.56298 0.33955 1.11037
 H288 H 0.59005 0.31898 1.07233
 H289 H 0.66230 0.45570 1.05257
 H290 H 0.63455 0.47581 1.09075
 C291 C 0.91447 0.48733 1.20590
 C292 C 0.88978 0.47647 1.18368
 C293 C 0.89862 0.45807 1.16190
 C294 C 0.93286 0.45081 1.16242
 C295 C 0.95797 0.46212 1.18459
 C296 C 0.94930 0.48083 1.20667
 N297 N 0.87202 0.44684 1.13974
 N298 N 0.87511 0.42586 1.12016
 C299 C 0.84776 0.41515 1.09836
 C300 C 0.84866 0.38718 1.07889
 C301 C 0.82139 0.37516 1.05783
 C302 C 0.79302 0.39142 1.05581
 C303 C 0.79266 0.42004 1.07522
 C304 C 0.81964 0.43167 1.09634
 H305 H 0.90693 0.50224 1.22221
 H306 H 0.86348 0.48227 1.18344
 H307 H 0.94004 0.43620 1.14583
 H308 H 0.98318 0.45453 1.18474
 H309 H 0.87021 0.37427 1.08021
 H310 H 0.82253 0.35315 1.04316
 H311 H 0.77115 0.43306 1.07430
 H312 H 0.81841 0.45349 1.11110
 C313 C 0.50254 0.05079 1.18304
 C314 C 0.51536 0.07511 1.15993
 C315 C 0.55668 0.09696 1.15346
 C316 C 0.58531 0.09418 1.17049
 C317 C 0.57248 0.06984 1.19370
 C318 C 0.53093 0.04775 1.20010
 N319 N 0.56860 0.12238 1.12986
 N320 N 0.60544 0.14263 1.12228
 C321 C 0.61690 0.16872 1.09890
 C322 C 0.65794 0.19025 1.09170
 C323 C 0.67036 0.21742 1.06963
 C324 C 0.64180 0.22359 1.05431
 C325 C 0.60045 0.20128 1.06137
 C326 C 0.58810 0.17410 1.08344
 H327 H 0.47041 0.03464 1.18777
 H328 H 0.49305 0.07721 1.14708
 H329 H 0.61747 0.11094 1.16595
 H330 H 0.59489 0.06801 1.20658
 H331 H 0.68045 0.18641 1.10344
 H332 H 0.70245 0.23413 1.06483
 H333 H 0.57764 0.20532 1.05009
 H334 H 0.55615 0.15781 1.08858
 C335 C 0.45555 0.48600 1.18185
 C336 C 0.43892 0.49407 1.15910
 C337 C 0.44418 0.53620 1.15370
 C338 C 0.46653 0.57037 1.17133
 C339 C 0.48289 0.56227 1.19409
 C340 C 0.47755 0.52007 1.19954
 N341 N 0.42606 0.54356 1.13061
 N342 N 0.43243 0.58190 1.12426
 C343 C 0.41447 0.59105 1.10180
 C344 C 0.42624 0.63475 1.09564
 C345 C 0.40907 0.64546 1.07428
 C346 C 0.37936 0.61246 1.05865
 C347 C 0.36746 0.56839 1.06487
 C348 C 0.38500 0.55773 1.08626
 H349 H 0.45077 0.45312 1.18587
 H350 H 0.42171 0.46745 1.14574
 H351 H 0.47100 0.60322 1.16769
 H352 H 0.49976 0.58894 1.20751
 H353 H 0.44880 0.66066 1.10754
 H354 H 0.41886 0.67972 1.07021
 H355 H 0.34467 0.54224 1.05324
 H356 H 0.37533 0.52365 1.09077
 C357 C 0.03629 0.55704 1.18688
 C358 C 0.05938 0.57011 1.16390
 C359 C 0.08707 0.55432 1.15809
 C360 C 0.09149 0.52525 1.17557
 C361 C 0.06859 0.51232 1.19851
 C362 C 0.04067 0.52789 1.20427
 N363 N 0.11080 0.56865 1.13464
 N364 N 0.13519 0.55388 1.12814
 C365 C 0.15990 0.56812 1.10514
 C366 C 0.18500 0.54918 1.09924
 C367 C 0.21038 0.56295 1.07736
 C368 C 0.21117 0.59618 1.06097
 C369 C 0.18564 0.61497 1.06687
 C370 C 0.16016 0.60103 1.08877
 H371 H 0.01515 0.56969 1.19117
 H372 H 0.05582 0.59265 1.15064
 H373 H 0.11277 0.51269 1.17159
 H374 H 0.07240 0.48990 1.21175
 H375 H 0.18507 0.52383 1.11177
 H376 H 0.22967 0.54782 1.07345
 H377 H 0.18550 0.64064 1.05468
 H378 H 0.14102 0.61620 1.09299
 C379 C 0.49884 0.94970 1.18360
 C380 C 0.48576 0.92449 1.16086
 C381 C 0.44431 0.90191 1.15468
 C382 C 0.41585 0.90501 1.17154
 C383 C 0.42894 0.93030 1.19435
 C384 C 0.47059 0.95300 1.20052
 N385 N 0.43209 0.87543 1.13153
 N386 N 0.39500 0.85384 1.12458
 C387 C 0.38309 0.82677 1.10166
 C388 C 0.34175 0.80356 1.09530
 C389 C 0.32896 0.77568 1.07362
 C390 C 0.35746 0.77049 1.05781
 C391 C 0.39907 0.79435 1.06407
 C392 C 0.41179 0.82222 1.08578
 H393 H 0.53105 0.96627 1.18817
 H394 H 0.50795 0.92217 1.14812
 H395 H 0.38360 0.88774 1.16721
 H396 H 0.40663 0.93231 1.20713
 H397 H 0.31933 0.80675 1.10738
 H398 H 0.29668 0.75781 1.06943
 H399 H 0.42183 0.79110 1.05239
 H400 H 0.44397 0.83981 1.09028
 C401 C 0.49693 0.44838 0.68659
 C402 C 0.50895 0.43539 0.66373
 C403 C 0.55026 0.45002 0.65845
 C404 C 0.57964 0.47791 0.67642
 C405 C 0.56763 0.49081 0.69933
 C406 C 0.52620 0.47636 0.70452
 N407 N 0.56147 0.43555 0.63502
 N408 N 0.59845 0.44879 0.62854
 C409 C 0.60963 0.43370 0.60534
 C410 C 0.65089 0.45047 0.59916
 C411 C 0.66294 0.43560 0.57707
 C412 C 0.63376 0.40341 0.56075
 C413 C 0.59226 0.38692 0.56691
 C414 C 0.58029 0.40194 0.58897
 H415 H 0.46479 0.43638 0.69040
 H416 H 0.48603 0.41374 0.65012
 H417 H 0.61176 0.48954 0.67283
 H418 H 0.59064 0.51235 0.71294
 H419 H 0.67380 0.47492 0.61163
 H420 H 0.69514 0.44895 0.57297
 H421 H 0.56898 0.36212 0.55481
 H422 H 0.54817 0.38842 0.59335
 C423 C 0.48039 0.04728 0.68645
 C424 C 0.49238 0.07325 0.66392
 C425 C 0.53331 0.09431 0.65644
 C426 C 0.56236 0.08915 0.67177
 C427 C 0.55046 0.06356 0.69446
 C428 C 0.50937 0.04231 0.70189
 N429 N 0.54479 0.12167 0.63367
 N430 N 0.58053 0.13776 0.62422
 C431 C 0.59255 0.16627 0.60197
 C432 C 0.63041 0.17799 0.59053
 C433 C 0.64349 0.20648 0.56913
 C434 C 0.61899 0.22422 0.55903
 C435 C 0.58096 0.21245 0.57061
 C436 C 0.56772 0.18351 0.59182
 H437 H 0.44862 0.03156 0.69208
 H438 H 0.46979 0.07718 0.65233
 H439 H 0.59424 0.10534 0.66645
 H440 H 0.57323 0.06020 0.70620
 H441 H 0.64986 0.16504 0.59827
 H442 H 0.67307 0.21515 0.56076
 H443 H 0.56140 0.22554 0.56324
 H444 H 0.53839 0.17507 0.60046
 C445 C 0.96512 0.52069 0.67980
 C446 C 0.94160 0.50913 0.65689
 C447 C 0.91435 0.46523 0.65172
 C448 C 0.91127 0.43280 0.66962
 C449 C 0.93463 0.44434 0.69252
 C450 C 0.96164 0.48835 0.69784
 N451 N 0.88921 0.45451 0.62874
 N452 N 0.86450 0.41510 0.62287
 C453 C 0.83820 0.40381 0.60046
 C454 C 0.81297 0.35958 0.59497
 C455 C 0.78583 0.34729 0.57385
 C456 C 0.78330 0.37922 0.55784
 C457 C 0.80899 0.42370 0.56331
 C458 C 0.83624 0.43591 0.58439
 H459 H 0.98542 0.55488 0.68369
 H460 H 0.94416 0.53445 0.64331
 H461 H 0.89042 0.39865 0.66614
 H462 H 0.93150 0.41892 0.70621
 H463 H 0.81412 0.33454 0.60726
 H464 H 0.76647 0.31278 0.57028
 H465 H 0.80789 0.44915 0.55140
 H466 H 0.85537 0.47034 0.58829
 C467 C 0.50509 0.55051 0.68553
 C468 C 0.49327 0.56247 0.66212
 C469 C 0.45199 0.54730 0.65633
 C470 C 0.42245 0.51994 0.67435
 C471 C 0.43427 0.50811 0.69782
 C472 C 0.47567 0.52308 0.70352
 N473 N 0.44101 0.56086 0.63236
 N474 N 0.40411 0.54679 0.62528
 C475 C 0.39322 0.56126 0.60161
 C476 C 0.35209 0.54373 0.59475
 C477 C 0.34029 0.55845 0.57236
 C478 C 0.36960 0.59124 0.55644
 C479 C 0.41099 0.60831 0.56319
 C480 C 0.42271 0.59343 0.58553
 H481 H 0.53720 0.56286 0.68971
 H482 H 0.51630 0.58374 0.64848
 H483 H 0.39035 0.50795 0.67037
 H484 H 0.41115 0.48697 0.71148
 H485 H 0.32907 0.51894 0.60699
 H486 H 0.30816 0.54467 0.56781
 H487 H 0.43436 0.63358 0.55140
 H488 H 0.45473 0.60753 0.59042
 C489 C 0.40752 0.91758 0.70182
 C490 C 0.39263 0.89091 0.67972
 C491 C 0.41919 0.89215 0.66000
 C492 C 0.46085 0.92135 0.66220
 C493 C 0.47571 0.94861 0.68400
 C494 C 0.44933 0.94714 0.70426
 N495 N 0.40341 0.86288 0.63826
 N496 N 0.42671 0.85567 0.62302
 C497 C 0.41150 0.82670 0.60112
 C498 C 0.43736 0.81343 0.58856
 C499 C 0.42335 0.78461 0.56738
 C500 C 0.38333 0.76930 0.55810
 C501 C 0.35755 0.78316 0.57053
 C502 C 0.37141 0.81139 0.59202
 H503 H 0.38606 0.91572 0.71672
 H504 H 0.36040 0.86860 0.67819
 H505 H 0.48201 0.92276 0.64722
 H506 H 0.50826 0.96913 0.68554
 H507 H 0.46834 0.82512 0.59540
 H508 H 0.44395 0.77467 0.55809
 H509 H 0.32651 0.77172 0.56386
 H510 H 0.35095 0.82140 0.60138
 C511 C 0.07988 0.58364 0.69735
 C512 C 0.10501 0.59903 0.67539
 C513 C 0.10393 0.57000 0.65597
 C514 C 0.07678 0.52510 0.65856
 C515 C 0.05145 0.50967 0.68051
 C516 C 0.05293 0.53886 0.70012
 N517 N 0.13132 0.58689 0.63425
 N518 N 0.13381 0.56224 0.61663
 C519 C 0.16181 0.57919 0.59521
 C520 C 0.16453 0.54984 0.57750
 C521 C 0.19247 0.56503 0.55691
 C522 C 0.21821 0.61014 0.55355
 C523 C 0.21499 0.63967 0.57117
 C524 C 0.18712 0.62435 0.59186
 H525 H 0.08144 0.60667 0.71224
 H526 H 0.12577 0.63364 0.67364
 H527 H 0.07541 0.50199 0.64381
 H528 H 0.03114 0.47496 0.68241
 H529 H 0.14523 0.51499 0.57985
 H530 H 0.19402 0.54135 0.54371
 H531 H 0.23438 0.67457 0.56920
 H532 H 0.18558 0.64774 0.60530
 C533 C 0.50603 0.55434 0.81826
 C534 C 0.49464 0.56858 0.84091
 C535 C 0.45351 0.55482 0.84632
 C536 C 0.42370 0.52653 0.82869
 C537 C 0.43507 0.51250 0.80598
 C538 C 0.47630 0.52612 0.80064
 N539 N 0.44272 0.57033 0.86953
 N540 N 0.40572 0.55651 0.87614
 C541 C 0.39376 0.57172 0.89894
 C542 C 0.35251 0.55214 0.90546
 C543 C 0.33928 0.56625 0.92726
 C544 C 0.36718 0.60064 0.94298
 C545 C 0.40874 0.62038 0.93639
 C546 C 0.42199 0.60593 0.91457
 H547 H 0.53804 0.56569 0.81432
 H548 H 0.51791 0.59048 0.85426
 H549 H 0.39169 0.51552 0.83235
 H550 H 0.41171 0.49080 0.79261
 H551 H 0.33048 0.52585 0.89352
 H552 H 0.30702 0.55042 0.93161
 H553 H 0.43098 0.64693 0.94806
 H554 H 0.45408 0.62166 0.90982
 C555 C 0.03406 0.54884 0.81698
 C556 C 0.05547 0.56005 0.84065
 C557 C 0.08952 0.55337 0.84428
 C558 C 0.10271 0.53629 0.82365
 C559 C 0.08187 0.52593 0.79973
 C560 C 0.04661 0.53110 0.79619
 N561 N 0.11097 0.56562 0.86871
 N562 N 0.13619 0.55212 0.87568
 C563 C 0.15883 0.56615 0.89963
 C564 C 0.17992 0.54413 0.90889
 C565 C 0.20378 0.55840 0.93157
 C566 C 0.20754 0.59557 0.94504
 C567 C 0.18602 0.61736 0.93583
 C568 C 0.16161 0.60259 0.91346
 H569 H 0.00859 0.55573 0.81468
 H570 H 0.04550 0.57403 0.85624
 H571 H 0.12934 0.53139 0.82593
 H572 H 0.09254 0.51230 0.78433
 H573 H 0.17815 0.51611 0.89835
 H574 H 0.22036 0.54126 0.93807
 H575 H 0.18835 0.64610 0.94582
 H576 H 0.14577 0.62030 0.90661
 C577 C 0.48505 0.95441 0.81820
 C578 C 0.47325 0.92963 0.84114
 C579 C 0.43229 0.90106 0.84583
 C580 C 0.40290 0.89731 0.82723
 C581 C 0.41466 0.92166 0.80404
 C582 C 0.45596 0.95099 0.79924
 N583 N 0.42175 0.87480 0.86902
 N584 N 0.38513 0.85193 0.87647
 C585 C 0.37564 0.82449 0.89916
 C586 C 0.33609 0.80553 0.90927
 C587 C 0.32591 0.77774 0.93104
 C588 C 0.35513 0.76795 0.94270
 C589 C 0.39480 0.78707 0.93247
 C590 C 0.40505 0.81528 0.91102
 H591 H 0.51727 0.97456 0.81480
 H592 H 0.49622 0.93217 0.85516
 H593 H 0.37100 0.87511 0.83041
 H594 H 0.39122 0.91825 0.79017
 H595 H 0.31313 0.81225 0.90023
 H596 H 0.29504 0.76324 0.93842
 H597 H 0.41800 0.78027 0.94109
 H598 H 0.43578 0.82933 0.90347
 C599 C 0.49552 0.44982 0.81931
 C600 C 0.50687 0.43606 0.84228
 C601 C 0.54800 0.44986 0.84788
 C602 C 0.57783 0.47788 0.83022
 C603 C 0.56650 0.49142 0.80721
 C604 C 0.52527 0.47758 0.80159
 N605 N 0.55874 0.43426 0.87118
 N606 N 0.59573 0.44800 0.87791
 C607 C 0.60767 0.43231 0.90063
 C608 C 0.64896 0.45143 0.90713
 C609 C 0.66224 0.43621 0.92853
 C610 C 0.63435 0.40118 0.94386
 C611 C 0.59270 0.38217 0.93742
 C612 C 0.57942 0.39769 0.91599
 H613 H 0.46351 0.43833 0.81517
 H614 H 0.48359 0.41435 0.85564
 H615 H 0.60984 0.48891 0.83404
 H616 H 0.58987 0.51277 0.79376
 H617 H 0.67099 0.47803 0.89539
 H618 H 0.69454 0.45156 0.93279
 H619 H 0.57045 0.35514 0.94878
 H620 H 0.54729 0.38231 0.91125
 C621 C 0.96004 0.44846 0.81026
 C622 C 0.93621 0.43237 0.83275
 C623 C 0.90841 0.44736 0.83980
 C624 C 0.90398 0.47806 0.82373
 C625 C 0.92733 0.49364 0.80101
 C626 C 0.95596 0.47945 0.79435
 N627 N 0.88484 0.43068 0.86315
 N628 N 0.86462 0.44827 0.87317
 C629 C 0.84027 0.43104 0.89617
 C630 C 0.82406 0.45565 0.90849
 C631 C 0.79950 0.43940 0.93067
 C632 C 0.79022 0.39779 0.94067
 C633 C 0.80657 0.37314 0.92825
 C634 C 0.83160 0.38972 0.90630
 H635 H 0.98173 0.43687 0.80527
 H636 H 0.93973 0.40855 0.84488
 H637 H 0.88240 0.48981 0.82865
 H638 H 0.92372 0.51743 0.78889
 H639 H 0.83041 0.48748 0.90082
 H640 H 0.78707 0.45900 0.93965
 H641 H 0.79999 0.34099 0.93549
 H642 H 0.84364 0.36999 0.89704
 C643 C 0.48879 0.05181 0.81454
 C644 C 0.50336 0.07841 0.83663
 C645 C 0.54502 0.09948 0.84236
 C646 C 0.57226 0.09396 0.82558
 C647 C 0.55774 0.06766 0.80331
 C648 C 0.51585 0.04610 0.79777
 N649 N 0.55876 0.12696 0.86497
 N650 N 0.59536 0.14373 0.87312
 C651 C 0.60834 0.17200 0.89547
 C652 C 0.64737 0.18544 0.90574
 C653 C 0.66082 0.21337 0.92742
 C654 C 0.63545 0.22869 0.93893
 C655 C 0.59631 0.21515 0.92848
 C656 C 0.58281 0.18695 0.90705
 H657 H 0.45644 0.03588 0.81041
 H658 H 0.48217 0.08268 0.84935
 H659 H 0.60464 0.11021 0.82956
 H660 H 0.57904 0.06373 0.79051
 H661 H 0.66737 0.17421 0.89693
 H662 H 0.69120 0.22340 0.93494
 H663 H 0.57597 0.22625 0.93693
 H664 H 0.55254 0.17718 0.89942
   
