data_POSCAR
  _audit_creation_date              2014-09-24
  _audit_creation_method            'ToBaCCo'
  _symmetry_space_group_name_H-M    'P1'
  _symmetry_Int_Tables_number       1
  _symmetry_cell_setting            triclinic
  loop_
  _symmetry_equiv_pos_as_xyz
 x,y,z
_cell_length_a 32.6071
_cell_length_b 34.8648
_cell_length_c 40.2705
_cell_angle_alpha 90.786800
_cell_angle_beta 92.263900
_cell_angle_gamma 91.087800
loop_
  _atom_site_label
  _atom_site_type_symbol
  _atom_site_fract_x
  _atom_site_fract_y
  _atom_site_fract_z
C1 C 1.26023 0.26626 0.25511
 C2 C 0.74401 -0.23331 0.24886
 C3 C 0.77206 0.25872 -0.25144
 C4 C 1.25854 -0.24633 -0.24063
 C5 C 0.22981 0.24595 0.74212
 C6 C 0.74467 0.74046 0.74998
 C7 C 0.74393 0.23433 0.25165
 C8 C 0.25737 0.73815 0.24130
 O9 O 1.08466 0.04986 0.02196
 O10 O 0.92965 -0.04934 0.02187
 O11 O 0.95999 0.06904 0.03427
 O12 O 1.05511 -0.06904 0.02359
 O13 O 0.93747 0.01329 0.04665
 O14 O 1.08032 -0.01538 0.04148
 O15 O 0.98730 -0.06632 0.04089
 O16 O 1.03154 0.06570 0.04640
 C17 C 1.06931 0.06443 0.04676
 C18 C 0.95011 -0.06455 0.04461
 C19 C 0.94191 0.04764 0.05406
 C20 C 1.07567 -0.05034 0.04541
 O21 O 1.08363 -0.03986 -0.02187
 O22 O 0.92280 0.04441 -0.01273
 O23 O 1.04549 0.07617 -0.02062
 O24 O 0.95961 -0.07079 -0.02525
 O25 O 0.93224 -0.01800 -0.03920
 O26 O 1.07084 0.02503 -0.04067
 O27 O 1.02667 -0.06026 -0.04176
 O28 O 0.97563 0.06787 -0.03324
 Co29 Co 1.07240 0.00450 0.00049
 Co30 Co 0.93798 -0.00206 0.00388
 Co31 Co 1.00328 0.06336 0.00641
 Co32 Co 1.00700 -0.06030 -0.00030
 O33 O 1.00519 0.00141 0.00273
 C34 C 1.06375 -0.05603 -0.04514
 C35 C 0.93827 0.06284 -0.03536
 C36 C 1.06171 0.05918 -0.04425
 C37 C 0.93877 -0.05204 -0.04591
 O38 O 1.08037 0.55621 0.51578
 O39 O 0.92302 0.46258 0.51410
 O40 O 0.95602 0.58057 0.52334
 O41 O 1.04782 0.43890 0.51633
 O42 O 0.93210 0.52566 0.53670
 O43 O 1.07283 0.49130 0.53589
 O44 O 0.97954 0.44408 0.53436
 O45 O 1.02683 0.57564 0.53768
 C46 C 1.06431 0.57159 0.53988
 C47 C 0.94227 0.44734 0.53748
 C48 C 0.93714 0.56015 0.54334
 C49 C 1.06537 0.45679 0.53998
 O50 O 1.07763 0.46651 0.47148
 O51 O 0.92036 0.55438 0.47643
 O52 O 1.04442 0.58376 0.47136
 O53 O 0.95267 0.43804 0.46844
 O54 O 0.92846 0.49089 0.45175
 O55 O 1.06912 0.53138 0.45311
 O56 O 1.01999 0.44692 0.45179
 O57 O 0.97396 0.57727 0.45645
 Co58 Co 1.06772 0.51104 0.49425
 Co59 Co 0.93341 0.50847 0.49452
 Co60 Co 1.00028 0.57276 0.49697
 Co61 Co 1.00002 0.44831 0.49301
 O62 O 1.00040 0.51023 0.49464
 C63 C 1.05713 0.45080 0.44818
 C64 C 0.93644 0.57271 0.45406
 C65 C 1.06238 0.56597 0.44908
 C66 C 0.93325 0.45620 0.44665
 O67 O 0.57527 0.04392 0.52763
 O68 O 0.41304 -0.04711 0.52112
 O69 O 0.45135 0.07024 0.53087
 O70 O 0.53641 -0.07268 0.53338
 O71 O 0.42406 0.01656 0.54460
 O72 O 0.56364 -0.01963 0.55061
 O73 O 0.46700 -0.06500 0.54555
 O74 O 0.52042 0.06441 0.54620
 C75 C 0.55773 0.06128 0.55002
 C76 C 0.42949 -0.06224 0.54573
 C77 C 0.43012 0.05117 0.55049
 C78 C 0.55553 -0.05377 0.55588
 O79 O 0.57253 -0.04962 0.48869
 O80 O 0.41611 0.04474 0.48407
 O81 O 0.54153 0.06818 0.47966
 O82 O 0.44674 -0.07290 0.47721
 O83 O 0.42363 -0.01920 0.46048
 O84 O 0.56617 0.01368 0.46650
 O85 O 0.51558 -0.06756 0.46668
 O86 O 0.47120 0.06317 0.46381
 Co87 Co 0.56173 -0.00290 0.50820
 Co88 Co 0.42689 -0.00137 0.50278
 Co89 Co 0.49596 0.06022 0.50508
 Co90 Co 0.49158 -0.06332 0.50583
 O91 O 0.49413 -0.00181 0.50539
 C92 C 0.55311 -0.06678 0.46553
 C93 C 0.43350 0.06146 0.46148
 C94 C 0.56117 0.04787 0.45993
 C95 C 0.42801 -0.05394 0.45532
 O96 O 0.58330 0.53751 0.02028
 O97 O 0.43714 0.43957 0.02384
 O98 O 0.45561 0.55855 0.02012
 O99 O 0.56334 0.41957 0.01525
 O100 O 0.43952 0.50465 0.03963
 O101 O 0.58218 0.47270 0.03612
 O102 O 0.49679 0.42201 0.03947
 O103 O 0.52659 0.55640 0.03886
 C104 C 0.56422 0.55342 0.04289
 C105 C 0.46035 0.42605 0.04596
 C106 C 0.43985 0.53984 0.04260
 C107 C 0.57978 0.43768 0.03907
 O108 O 0.58474 0.45128 -0.03089
 O109 O 0.42545 0.52454 -0.02524
 O110 O 0.54829 0.56526 -0.02439
 O111 O 0.46253 0.41025 -0.02216
 O112 O 0.43644 0.46018 -0.04217
 O113 O 0.57216 0.51510 -0.04541
 O114 O 0.52767 0.42415 -0.04590
 O115 O 0.47851 0.55229 -0.04353
 Co116 Co 0.57382 0.49352 -0.00471
 Co117 Co 0.44147 0.48276 -0.00125
 Co118 Co 0.50275 0.55117 -0.00233
 Co119 Co 0.51205 0.42581 -0.00325
 O120 O 0.50750 0.48839 -0.00290
 C121 C 0.56373 0.43199 -0.05213
 C122 C 0.44163 0.54384 -0.04729
 C123 C 0.56399 0.54926 -0.04839
 C124 C 0.44090 0.42525 -0.04432
 C125 C 1.17046 0.19769 0.22569
 C126 C 1.18209 0.18656 0.19351
 C127 C 1.22136 0.19867 0.18359
 C128 C 1.24564 0.22397 0.20355
 C129 C 1.23205 0.23836 0.23395
 C130 C 1.19564 0.22219 0.24583
 C131 C 1.23630 0.18585 0.15359
 C132 C 1.21293 0.16135 0.13282
 C133 C 1.17293 0.14951 0.14085
 C134 C 1.15662 0.16342 0.17108
 C135 C 1.11499 0.15524 0.17707
 C136 C 1.09003 0.13448 0.15409
 C137 C 1.10595 0.11969 0.12499
 C138 C 1.14809 0.12565 0.11875
 C139 C 1.16376 0.10749 0.09049
 C140 C 1.13806 0.08697 0.06806
 C141 C 1.09585 0.08363 0.07282
 C142 C 1.07999 0.09934 0.10179
 H143 H 1.14265 0.18707 0.23625
 H144 H 1.27554 0.23264 0.19513
 H145 H 1.18619 0.22884 0.27067
 H146 H 1.26642 0.19501 0.14594
 H147 H 1.22649 0.15369 0.10975
 H148 H 1.10031 0.16615 0.19869
 H149 H 1.05792 0.12993 0.15919
 H150 H 1.19589 0.10813 0.08517
 H151 H 1.15143 0.07422 0.04642
 H152 H 1.04752 0.09603 0.10613
 C153 C 1.16145 0.69858 0.72339
 C154 C 1.17580 0.68309 0.69340
 C155 C 1.21809 0.68790 0.68756
 C156 C 1.24360 0.71015 0.70921
 C157 C 1.22836 0.72861 0.73730
 C158 C 1.18751 0.72022 0.74520
 C159 C 1.23489 0.67099 0.65985
 C160 C 1.21056 0.64946 0.63738
 C161 C 1.16793 0.64471 0.64132
 C162 C 1.15000 0.66274 0.66923
 C163 C 1.10684 0.66121 0.67123
 C164 C 1.08202 0.64301 0.64662
 C165 C 1.09919 0.62452 0.61968
 C166 C 1.14248 0.62391 0.61738
 C167 C 1.15862 0.60255 0.59100
 C168 C 1.13292 0.58514 0.56667
 C169 C 1.09023 0.58803 0.56767
 C170 C 1.07340 0.60703 0.59472
 H171 H 1.13049 0.69366 0.73104
 H172 H 1.27574 0.71388 0.70382
 H173 H 1.17537 0.73003 0.76835
 H174 H 1.26730 0.67461 0.65534
 H175 H 1.22600 0.63828 0.61629
 H176 H 1.09117 0.67531 0.69090
 H177 H 1.04898 0.64350 0.64868
 H178 H 1.19099 0.59832 0.58854
 H179 H 1.14681 0.56968 0.54662
 H180 H 1.04033 0.60862 0.59614
 C181 C 0.74595 0.19969 0.66849
 C182 C 0.70777 0.18200 0.67439
 C183 C 0.68984 0.19003 0.70516
 C184 C 0.71056 0.21384 0.72934
 C185 C 0.74742 0.23343 0.72233
 C186 C 0.76528 0.22424 0.69192
 C187 C 0.65122 0.17439 0.71146
 C188 C 0.62928 0.15243 0.68735
 C189 C 0.64591 0.14382 0.65629
 C190 C 0.68676 0.15702 0.65057
 C191 C 0.70550 0.14443 0.62142
 C192 C 0.68441 0.12149 0.59779
 C193 C 0.64350 0.11092 0.60169
 C194 C 0.62340 0.12214 0.63082
 C195 C 0.58124 0.11216 0.63263
 C196 C 0.56025 0.09219 0.60658
 C197 C 0.58058 0.08082 0.57814
 C198 C 0.62241 0.08977 0.57616
 H199 H 0.76159 0.19586 0.64565
 H200 H 0.69771 0.21725 0.75357
 H201 H 0.79512 0.23570 0.68595
 H202 H 0.63730 0.18001 0.73500
 H203 H 0.59957 0.14173 0.69410
 H204 H 0.73700 0.15109 0.61637
 H205 H 0.70013 0.11261 0.57582
 H206 H 0.56327 0.12054 0.65332
 H207 H 0.52781 0.08577 0.60862
 H208 H 0.63829 0.08151 0.55408
 C209 C 0.64831 0.72517 0.19845
 C210 C 0.66259 0.69038 0.18528
 C211 C 0.70372 0.68075 0.19327
 C212 C 0.72878 0.70458 0.21426
 C213 C 0.71423 0.73882 0.22827
 C214 C 0.67366 0.74888 0.21890
 C215 C 0.72019 0.64773 0.17965
 C216 C 0.69729 0.62478 0.15713
 C217 C 0.65646 0.63366 0.14760
 C218 C 0.63816 0.66588 0.16319
 C219 C 0.59614 0.67253 0.15614
 C220 C 0.57343 0.65009 0.13305
 C221 C 0.59168 0.62047 0.11572
 C222 C 0.63340 0.61162 0.12282
 C223 C 0.65068 0.58191 0.10388
 C224 C 0.62777 0.56268 0.07863
 C225 C 0.58683 0.57193 0.07150
 C226 C 0.56864 0.60027 0.09069
 H227 H 0.61826 0.73590 0.19220
 H228 H 0.76028 0.69653 0.21870
 H229 H 0.66163 0.77632 0.22614
 H230 H 0.75153 0.63987 0.18598
 H231 H 0.71250 0.59991 0.14785
 H232 H 0.57966 0.69478 0.16841
 H233 H 0.54138 0.65658 0.12817
 H234 H 0.68221 0.57364 0.10707
 H235 H 0.64246 0.54073 0.06425
 H236 H 0.53695 0.60771 0.08526
 C237 C 0.76278 -0.17061 0.17193
 C238 C 0.80468 -0.16006 0.17537
 C239 C 0.82665 -0.17189 0.20432
 C240 C 0.80685 -0.19319 0.22867
 C241 C 0.76600 -0.20705 0.22354
 C242 C 0.74408 -0.19311 0.19546
 C243 C 0.86846 -0.16296 0.20857
 C244 C 0.88948 -0.14450 0.18377
 C245 C 0.86903 -0.13293 0.15411
 C246 C 0.82551 -0.13877 0.15082
 C247 C 0.80421 -0.12310 0.12314
 C248 C 0.82484 -0.10434 0.09853
 C249 C 0.86749 -0.10114 0.10002
 C250 C 0.89043 -0.11545 0.12767
 C251 C 0.93383 -0.11262 0.12708
 C252 C 0.95325 -0.09620 0.10019
 C253 C 0.93013 -0.08182 0.07325
 C254 C 0.88727 -0.08407 0.07358
 H255 H 0.74354 -0.16296 0.15080
 H256 H 0.82375 -0.19904 0.25164
 H257 H 0.71193 -0.19931 0.19093
 H258 H 0.88545 -0.17144 0.23088
 H259 H 0.92178 -0.13908 0.18881
 H260 H 0.77128 -0.12423 0.11993
 H261 H 0.80717 -0.09290 0.07767
 H262 H 0.95365 -0.12376 0.14655
 H263 H 0.98648 -0.09485 0.10045
 H264 H 0.86908 -0.07314 0.05278
 C265 C 0.86626 0.31603 0.71688
 C266 C 0.84832 0.33548 0.68947
 C267 C 0.80498 0.33404 0.68559
 C268 C 0.78151 0.31073 0.70590
 C269 C 0.79999 0.28755 0.73035
 C270 C 0.84238 0.29311 0.73728
 C271 C 0.78509 0.35492 0.66078
 C272 C 0.80728 0.37649 0.63886
 C273 C 0.85065 0.37736 0.64035
 C274 C 0.87159 0.35611 0.66579
 C275 C 0.91487 0.35463 0.66561
 C276 C 0.93689 0.37258 0.64106
 C277 C 0.91690 0.39358 0.61620
 C278 C 0.87363 0.39737 0.61625
 C279 C 0.85498 0.42071 0.59176
 C280 C 0.87777 0.43709 0.56700
 C281 C 0.92006 0.43137 0.56569
 C282 C 0.93976 0.41033 0.59091
 H283 H 0.89862 0.31829 0.72338
 H284 H 0.74846 0.30906 0.70166
 H285 H 0.85755 0.27979 0.75834
 H286 H 0.75187 0.35412 0.65792
 H287 H 0.78924 0.39081 0.62001
 H288 H 0.93255 0.33833 0.68344
 H289 H 0.96995 0.36970 0.64138
 H290 H 0.82281 0.42716 0.59099
 H291 H 0.86185 0.45416 0.54848
 H292 H 0.97266 0.40643 0.59056
 C293 C 0.34291 -0.17747 0.72893
 C294 C 0.32764 -0.16786 0.69682
 C295 C 0.28686 -0.17946 0.68774
 C296 C 0.26462 -0.20355 0.70826
 C297 C 0.28231 -0.21756 0.73804
 C298 C 0.32011 -0.20106 0.74941
 C299 C 0.26862 -0.16772 0.65784
 C300 C 0.29040 -0.14552 0.63608
 C301 C 0.33195 -0.13506 0.64300
 C302 C 0.35118 -0.14715 0.67353
 C303 C 0.39372 -0.14001 0.67894
 C304 C 0.41685 -0.12213 0.65513
 C305 C 0.39837 -0.10953 0.62552
 C306 C 0.35538 -0.11447 0.61963
 C307 C 0.33764 -0.09884 0.59034
 C308 C 0.36189 -0.08147 0.56699
 C309 C 0.40458 -0.07894 0.57187
 C310 C 0.42267 -0.09238 0.60151
 H311 H 0.37212 -0.16681 0.73904
 H312 H 0.23350 -0.21195 0.70054
 H313 H 0.33286 -0.20756 0.77387
 H314 H 0.23725 -0.17624 0.65091
 H315 H 0.27420 -0.13865 0.61318
 H316 H 0.41044 -0.14963 0.70080
 H317 H 0.44964 -0.11830 0.65989
 H318 H 0.30505 -0.09913 0.58481
 H319 H 0.34702 -0.07042 0.54466
 H320 H 0.45565 -0.08962 0.60583
 C321 C 0.27967 0.33617 0.18468
 C322 C 0.32259 0.34232 0.18614
 C323 C 0.34576 0.32442 0.21187
 C324 C 0.32607 0.30201 0.23556
 C325 C 0.28372 0.29335 0.23205
 C326 C 0.26089 0.31235 0.20711
 C327 C 0.38852 0.32809 0.21317
 C328 C 0.40891 0.34679 0.18811
 C329 C 0.38704 0.36416 0.16154
 C330 C 0.34323 0.36435 0.16208
 C331 C 0.32141 0.38637 0.13845
 C332 C 0.34125 0.40460 0.11317
 C333 C 0.38338 0.40106 0.11010
 C334 C 0.40720 0.38121 0.13429
 C335 C 0.44982 0.37796 0.12927
 C336 C 0.46746 0.39301 0.10096
 C337 C 0.44327 0.41192 0.07703
 C338 C 0.40151 0.41661 0.08231
 H339 H 0.25977 0.34780 0.16551
 H340 H 0.34418 0.29095 0.25622
 H341 H 0.22796 0.30788 0.20440
 H342 H 0.40653 0.31496 0.23300
 H343 H 0.44196 0.34764 0.19043
 H344 H 0.28879 0.39053 0.13905
 H345 H 0.32314 0.42070 0.09522
 H346 H 0.47000 0.36273 0.14609
 H347 H 0.49992 0.38919 0.09749
 H348 H 0.38253 0.43151 0.06410
 C349 C 0.85202 0.18580 -0.21905
 C350 C 0.83793 0.17697 -0.18719
 C351 C 0.79915 0.19089 -0.17887
 C352 C 0.77815 0.21624 -0.19987
 C353 C 0.79505 0.22914 -0.22952
 C354 C 0.83027 0.21052 -0.24010
 C355 C 0.78164 0.18003 -0.14934
 C356 C 0.80228 0.15627 -0.12728
 C357 C 0.84207 0.14332 -0.13343
 C358 C 0.86063 0.15464 -0.16350
 C359 C 0.90191 0.14502 -0.16808
 C360 C 0.92448 0.12539 -0.14397
 C361 C 0.90650 0.11339 -0.11490
 C362 C 0.86461 0.12090 -0.10976
 C363 C 0.84713 0.10583 -0.08093
 C364 C 0.87092 0.08629 -0.05737
 C365 C 0.91285 0.08123 -0.06156
 C366 C 0.93034 0.09428 -0.09068
 H367 H 0.87932 0.17346 -0.22860
 H368 H 0.74850 0.22629 -0.19268
 H369 H 0.84179 0.21586 -0.26448
 H370 H 0.75174 0.19034 -0.14300
 H371 H 0.78686 0.15007 -0.10476
 H372 H 0.91826 0.15395 -0.18950
 H373 H 0.95646 0.11964 -0.14810
 H374 H 0.81506 0.10825 -0.07597
 H375 H 0.85652 0.07575 -0.03539
 H376 H 0.96261 0.08956 -0.09450
 C377 C 0.83829 0.70749 0.28036
 C378 C 0.82559 0.69420 0.31137
 C379 C 0.78486 0.70175 0.31987
 C380 C 0.75970 0.72457 0.29968
 C381 C 0.77360 0.74128 0.27038
 C382 C 0.81239 0.72952 0.26000
 C383 C 0.76908 0.68655 0.34862
 C384 C 0.79287 0.66376 0.36926
 C385 C 0.83401 0.65598 0.36237
 C386 C 0.85122 0.67273 0.33372
 C387 C 0.89366 0.66867 0.32913
 C388 C 0.91841 0.64883 0.35178
 C389 C 0.90162 0.63098 0.37910
 C390 C 0.85888 0.63316 0.38399
 C391 C 0.84257 0.61216 0.41034
 C392 C 0.86797 0.59216 0.43220
 C393 C 0.91053 0.59218 0.42877
 C394 C 0.92724 0.61113 0.40177
 H395 H 0.86747 0.70003 0.27060
 H396 H 0.72873 0.72858 0.30709
 H397 H 0.82274 0.73631 0.23557
 H398 H 0.73788 0.69232 0.35531
 H399 H 0.77848 0.65399 0.39131
 H400 H 0.90894 0.68202 0.30889
 H401 H 0.95102 0.64728 0.34776
 H402 H 0.81017 0.61001 0.41447
 H403 H 0.85403 0.57699 0.45231
 H404 H 0.96006 0.61050 0.39844
 C405 C 0.34511 0.19671 0.28498
 C406 C 0.33291 0.18749 0.31729
 C407 C 0.29482 0.20151 0.32734
 C408 C 0.27242 0.22669 0.30728
 C409 C 0.28679 0.23909 0.27665
 C410 C 0.32170 0.22104 0.26473
 C411 C 0.27911 0.19056 0.35749
 C412 C 0.30038 0.16579 0.37811
 C413 C 0.33906 0.15183 0.36979
 C414 C 0.35646 0.16419 0.33962
 C415 C 0.39732 0.15422 0.33357
 C416 C 0.42038 0.13289 0.35631
 C417 C 0.40306 0.11918 0.38512
 C418 C 0.36157 0.12717 0.39146
 C419 C 0.34406 0.10996 0.41923
 C420 C 0.36754 0.08809 0.44106
 C421 C 0.40930 0.08256 0.43620
 C422 C 0.42689 0.09767 0.40784
 H423 H 0.37185 0.18450 0.27435
 H424 H 0.24326 0.23660 0.31572
 H425 H 0.33126 0.22587 0.23969
 H426 H 0.24995 0.20127 0.36529
 H427 H 0.28646 0.15957 0.40130
 H428 H 0.41291 0.16411 0.31207
 H429 H 0.45201 0.12686 0.35116
 H430 H 0.31205 0.11220 0.42450
 H431 H 0.35286 0.07599 0.46231
 H432 H 0.45897 0.09267 0.40346
 C433 C 0.34984 0.68890 -0.21541
 C434 C 0.33461 0.66960 -0.18767
 C435 C 0.29281 0.67447 -0.18070
 C436 C 0.26908 0.70097 -0.19835
 C437 C 0.28587 0.72346 -0.22335
 C438 C 0.32558 0.71468 -0.23328
 C439 C 0.27497 0.65348 -0.15570
 C440 C 0.29802 0.62824 -0.13675
 C441 C 0.34041 0.62396 -0.14137
 C442 C 0.35924 0.64568 -0.16673
 C443 C 0.40230 0.64447 -0.16906
 C444 C 0.42631 0.62346 -0.14687
 C445 C 0.40830 0.60179 -0.12230
 C446 C 0.36498 0.60034 -0.12019
 C447 C 0.34806 0.57573 -0.09646
 C448 C 0.37320 0.55635 -0.07387
 C449 C 0.41596 0.56057 -0.07417
 C450 C 0.43341 0.58234 -0.09918
 H451 H 0.38007 0.68402 -0.22432
 H452 H 0.23742 0.70499 -0.19201
 H453 H 0.33831 0.72753 -0.25497
 H454 H 0.24287 0.65688 -0.15047
 H455 H 0.28199 0.61395 -0.11743
 H456 H 0.41865 0.66119 -0.18676
 H457 H 0.45939 0.62452 -0.14877
 H458 H 0.31552 0.57078 -0.09467
 H459 H 0.35890 0.53876 -0.05543
 H460 H 0.46654 0.58491 -0.10017
 C461 C 1.24162 -0.18769 -0.16065
 C462 C 1.20416 -0.16927 -0.16769
 C463 C 1.18442 -0.17631 -0.19921
 C464 C 1.20258 -0.19990 -0.22287
 C465 C 1.23829 -0.22044 -0.21473
 C466 C 1.25831 -0.21237 -0.18372
 C467 C 1.14637 -0.16023 -0.20675
 C468 C 1.12636 -0.13906 -0.18298
 C469 C 1.14461 -0.13173 -0.15109
 C470 C 1.18530 -0.14485 -0.14423
 C471 C 1.20593 -0.13288 -0.11428
 C472 C 1.18659 -0.11090 -0.09086
 C473 C 1.14565 -0.10100 -0.09581
 C474 C 1.12380 -0.11146 -0.12583
 C475 C 1.08161 -0.10250 -0.12868
 C476 C 1.06220 -0.08419 -0.10266
 C477 C 1.08433 -0.07357 -0.07337
 C478 C 1.12620 -0.08143 -0.07041
 H479 H 1.25836 -0.18457 -0.13714
 H480 H 1.18818 -0.20305 -0.24748
 H481 H 1.28750 -0.22498 -0.17702
 H482 H 1.13126 -0.16507 -0.23095
 H483 H 1.09688 -0.12794 -0.19058
 H484 H 1.23756 -0.13934 -0.10847
 H485 H 1.20361 -0.10247 -0.06816
 H486 H 1.06241 -0.11063 -0.15012
 H487 H 1.02968 -0.07856 -0.10536
 H488 H 1.14340 -0.07373 -0.04761
 C489 C 1.24301 0.34002 0.32453
 C490 C 1.20075 0.34801 0.32121
 C491 C 1.17782 0.33019 0.29441
 C492 C 1.19678 0.30530 0.27219
 C493 C 1.23800 0.29492 0.27758
 C494 C 1.26107 0.31439 0.30304
 C495 C 1.13589 0.33675 0.29024
 C496 C 1.11557 0.35865 0.31327
 C497 C 1.13676 0.37578 0.34110
 C498 C 1.18039 0.37225 0.34399
 C499 C 1.20217 0.39283 0.36971
 C500 C 1.18193 0.41396 0.39317
 C501 C 1.13923 0.41495 0.39237
 C502 C 1.11587 0.39614 0.36630
 C503 C 1.07251 0.39731 0.36735
 C504 C 1.05354 0.41568 0.39353
 C505 C 1.07700 0.43371 0.41932
 C506 C 1.11983 0.43395 0.41815
 H507 H 1.26293 0.35212 0.34406
 H508 H 1.17900 0.29392 0.25094
 H509 H 1.29354 0.30905 0.30679
 H510 H 1.11826 0.32380 0.26947
 H511 H 1.08312 0.36192 0.30839
 H512 H 1.23516 0.39350 0.37236
 H513 H 1.19994 0.42888 0.41271
 H514 H 1.05234 0.38319 0.34900
 H515 H 1.02032 0.41515 0.39385
 H516 H 1.13826 0.44788 0.43800
 C517 C 0.72313 -0.15026 0.31088
 C518 C 0.68584 -0.16156 0.32494
 C519 C 0.66648 -0.19572 0.31242
 C520 C 0.68458 -0.21794 0.28794
 C521 C 0.72163 -0.20661 0.27357
 C522 C 0.74063 -0.17242 0.28614
 C523 C 0.62944 -0.20835 0.32490
 C524 C 0.61061 -0.18750 0.34930
 C525 C 0.62851 -0.15324 0.36278
 C526 C 0.66739 -0.14065 0.35121
 C527 C 0.68686 -0.10826 0.36688
 C528 C 0.66897 -0.08878 0.39282
 C529 C 0.63045 -0.09994 0.40356
 C530 C 0.60920 -0.13173 0.38808
 C531 C 0.56913 -0.14043 0.39830
 C532 C 0.55162 -0.11925 0.42338
 C533 C 0.57321 -0.08879 0.43941
 C534 C 0.61276 -0.07925 0.42949
 H535 H 0.73978 -0.12443 0.31848
 H536 H 0.67035 -0.24543 0.28140
 H537 H 0.76984 -0.16261 0.27753
 H538 H 0.61468 -0.23472 0.31562
 H539 H 0.58245 -0.19984 0.35780
 H540 H 0.71661 -0.09766 0.36019
 H541 H 0.68534 -0.06441 0.40437
 H542 H 0.54993 -0.16282 0.38696
 H543 H 0.52089 -0.12702 0.43042
 H544 H 0.62932 -0.05521 0.44141
 C545 C 0.75014 0.32857 -0.18025
 C546 C 0.70755 0.33479 -0.18313
 C547 C 0.68508 0.31632 -0.20986
 C548 C 0.70521 0.29345 -0.23326
 C549 C 0.74736 0.28563 -0.22887
 C550 C 0.76930 0.30474 -0.20253
 C551 C 0.64251 0.32022 -0.21265
 C552 C 0.62159 0.34030 -0.18858
 C553 C 0.64270 0.35875 -0.16131
 C554 C 0.68656 0.35784 -0.15977
 C555 C 0.70810 0.38011 -0.13499
 C556 C 0.68764 0.40044 -0.11113
 C557 C 0.64497 0.39896 -0.11049
 C558 C 0.62167 0.37823 -0.13551
 C559 C 0.57843 0.37690 -0.13287
 C560 C 0.55959 0.39484 -0.10625
 C561 C 0.58302 0.41508 -0.08161
 C562 C 0.62566 0.41759 -0.08439
 H563 H 0.76951 0.34043 -0.16025
 H564 H 0.68767 0.28188 -0.25453
 H565 H 0.80195 0.30042 -0.19868
 H566 H 0.62497 0.30656 -0.23311
 H567 H 0.58873 0.34144 -0.19232
 H568 H 0.74106 0.38306 -0.13366
 H569 H 0.70558 0.41685 -0.09245
 H570 H 0.55844 0.36114 -0.15035
 H571 H 0.52655 0.39238 -0.10471
 H572 H 0.64420 0.43305 -0.06548
 C573 C 1.20865 0.15576 -0.20551
 C574 C 1.16972 0.16257 -0.19284
 C575 C 1.15028 0.19717 -0.20171
 C576 C 1.16859 0.22284 -0.22370
 C577 C 1.20707 0.21541 -0.23700
 C578 C 1.22706 0.18185 -0.22640
 C579 C 1.11323 0.20657 -0.18774
 C580 C 1.09607 0.18332 -0.16394
 C581 C 1.11482 0.14897 -0.15380
 C582 C 1.15076 0.13728 -0.17010
 C583 C 1.16661 0.10071 -0.16311
 C584 C 1.15000 0.07763 -0.13905
 C585 C 1.11747 0.09024 -0.12060
 C586 C 1.09916 0.12599 -0.12777
 C587 C 1.06709 0.13794 -0.10757
 C588 C 1.05471 0.11580 -0.08101
 C589 C 1.07321 0.08075 -0.07393
 C590 C 1.10387 0.06766 -0.09439
 H591 H 1.22688 0.13161 -0.19818
 H592 H 1.15337 0.24943 -0.22937
 H593 H 1.25828 0.17641 -0.23301
 H594 H 1.09784 0.23276 -0.19460
 H595 H 1.06762 0.19283 -0.15422
 H596 H 1.19164 0.08881 -0.17630
 H597 H 1.16355 0.05000 -0.13422
 H598 H 1.05202 0.16494 -0.11075
 H599 H 1.03076 0.12646 -0.06563
 H600 H 1.11846 0.04062 -0.08900
 C601 C 1.23260 0.65524 0.29830
 C602 C 1.19330 0.66411 0.30936
 C603 C 1.17600 0.69896 0.29862
 C604 C 1.19633 0.72248 0.27610
 C605 C 1.23428 0.71209 0.26294
 C606 C 1.25279 0.67903 0.27638
 C607 C 1.13868 0.71058 0.31080
 C608 C 1.11849 0.68876 0.33397
 C609 C 1.13443 0.65375 0.34548
 C610 C 1.17151 0.64041 0.33181
 C611 C 1.18530 0.60365 0.34073
 C612 C 1.16494 0.58152 0.36356
 C613 C 1.13041 0.59523 0.37889
 C614 C 1.11459 0.63155 0.37014
 C615 C 1.08025 0.64459 0.38724
 C616 C 1.06309 0.62280 0.41220
 C617 C 1.07898 0.58709 0.42077
 C618 C 1.11215 0.57308 0.40349
 H619 H 1.24937 0.63081 0.30711
 H620 H 1.18264 0.74948 0.26930
 H621 H 1.28350 0.67129 0.26995
 H622 H 1.12510 0.73715 0.30262
 H623 H 1.08985 0.69989 0.34194
 H624 H 1.21152 0.59077 0.32991
 H625 H 1.17685 0.55357 0.36974
 H626 H 1.06668 0.67205 0.38278
 H627 H 1.03741 0.63425 0.42516
 H628 H 1.12487 0.54558 0.41013
 C629 C 0.65028 0.20703 0.30335
 C630 C 0.66098 0.17158 0.31749
 C631 C 0.69767 0.15478 0.30726
 C632 C 0.72337 0.17394 0.28543
 C633 C 0.71305 0.20972 0.27165
 C634 C 0.67584 0.22563 0.28143
 C635 C 0.70949 0.11942 0.31978
 C636 C 0.68591 0.10037 0.34252
 C637 C 0.64972 0.11638 0.35439
 C638 C 0.63735 0.15288 0.34208
 C639 C 0.60274 0.17008 0.35569
 C640 C 0.58154 0.15275 0.38093
 C641 C 0.59306 0.11711 0.39304
 C642 C 0.62641 0.09778 0.37916
 C643 C 0.63518 0.06064 0.39090
 C644 C 0.61334 0.04454 0.41647
 C645 C 0.58204 0.06471 0.43143
 C646 C 0.57158 0.10081 0.41921
 H647 H 0.62252 0.22159 0.30898
 H648 H 0.75303 0.16182 0.28121
 H649 H 0.66640 0.25345 0.27309
 H650 H 0.73756 0.10636 0.31207
 H651 H 0.69790 0.07361 0.35126
 H652 H 0.59188 0.19771 0.34816
 H653 H 0.55582 0.16753 0.39114
 H654 H 0.65851 0.04301 0.38074
 H655 H 0.62163 0.01628 0.42499
 H656 H 0.54674 0.11625 0.43010
 C657 C 0.71713 0.64721 -0.20372
 C658 C 0.67789 0.65465 -0.19192
 C659 C 0.66040 0.69052 -0.19945
 C660 C 0.68089 0.71695 -0.21933
 C661 C 0.71967 0.70901 -0.23184
 C662 C 0.73774 0.67405 -0.22247
 C663 C 0.62315 0.70044 -0.18609
 C664 C 0.60412 0.67650 -0.16382
 C665 C 0.62115 0.64100 -0.15479
 C666 C 0.65692 0.62875 -0.17098
 C667 C 0.67073 0.59115 -0.16552
 C668 C 0.65260 0.56755 -0.14260
 C669 C 0.62060 0.58073 -0.12384
 C670 C 0.60407 0.61750 -0.12981
 C671 C 0.57254 0.62997 -0.10929
 C672 C 0.55916 0.60736 -0.08341
 C673 C 0.57610 0.57140 -0.07744
 C674 C 0.60594 0.55774 -0.09837
 H675 H 0.73393 0.62193 -0.19708
 H676 H 0.66717 0.74453 -0.22381
 H677 H 0.76914 0.66807 -0.22823
 H678 H 0.60920 0.72760 -0.19207
 H679 H 0.57570 0.68644 -0.15435
 H680 H 0.69536 0.57893 -0.17900
 H681 H 0.66468 0.53912 -0.13876
 H682 H 0.55884 0.65773 -0.11160
 H683 H 0.53579 0.61837 -0.06764
 H684 H 0.61923 0.52991 -0.09383
 C685 C 0.80165 -0.22971 -0.16653
 C686 C 0.81921 -0.19367 -0.17311
 C687 C 0.80983 -0.17722 -0.20427
 C688 C 0.78692 -0.19836 -0.22899
 C689 C 0.76964 -0.23507 -0.22266
 C690 C 0.77751 -0.24953 -0.19039
 C691 C 0.82310 -0.13966 -0.21032
 C692 C 0.84423 -0.11787 -0.18556
 C693 C 0.85508 -0.13377 -0.15441
 C694 C 0.84466 -0.17313 -0.14915
 C695 C 0.86083 -0.19117 -0.12051
 C696 C 0.88408 -0.17083 -0.09656
 C697 C 0.89119 -0.13159 -0.09973
 C698 C 0.87658 -0.11216 -0.12844
 C699 C 0.88311 -0.07185 -0.12928
 C700 C 0.90323 -0.05204 -0.10259
 C701 C 0.91819 -0.07191 -0.07478
 C702 C 0.91247 -0.11170 -0.07386
 H703 H 0.80469 -0.24287 -0.14250
 H704 H 0.78238 -0.18582 -0.25328
 H705 H 0.76544 -0.27659 -0.18234
 H706 H 0.81611 -0.12661 -0.23410
 H707 H 0.85298 -0.08897 -0.19186
 H708 H 0.85717 -0.22152 -0.11643
 H709 H 0.89590 -0.18589 -0.07494
 H710 H 0.87178 -0.05481 -0.14969
 H711 H 0.90713 -0.02116 -0.10370
 H712 H 0.92344 -0.12728 -0.05223
 C713 C 0.80664 0.26668 0.33103
 C714 C 0.81811 0.30503 0.32497
 C715 C 0.80440 0.32112 0.29460
 C716 C 0.78187 0.29859 0.27075
 C717 C 0.76848 0.26070 0.27753
 C718 C 0.78301 0.24519 0.30784
 C719 C 0.81333 0.35960 0.28816
 C720 C 0.83425 0.38284 0.31188
 C721 C 0.84887 0.36788 0.34242
 C722 C 0.84261 0.32780 0.34813
 C723 C 0.86181 0.31151 0.37645
 C724 C 0.88451 0.33383 0.39935
 C725 C 0.88820 0.37332 0.39550
 C726 C 0.87023 0.39127 0.36728
 C727 C 0.87369 0.43187 0.36574
 C728 C 0.89419 0.45334 0.39128
 C729 C 0.91232 0.43493 0.41866
 C730 C 0.90951 0.39491 0.42024
 H731 H 0.81466 0.25239 0.35385
 H732 H 0.77607 0.31066 0.24647
 H733 H 0.77694 0.21582 0.31415
 H734 H 0.80315 0.37217 0.26486
 H735 H 0.83962 0.41230 0.30520
 H736 H 0.86091 0.28121 0.38125
 H737 H 0.89877 0.32001 0.42071
 H738 H 0.85984 0.44787 0.34566
 H739 H 0.89575 0.48431 0.38965
 H740 H 0.92302 0.38029 0.44149
 C741 C 0.34490 -0.23042 0.30180
 C742 C 0.33016 -0.19643 0.31618
 C743 C 0.29079 -0.18425 0.30526
 C744 C 0.26703 -0.20603 0.28174
 C745 C 0.28289 -0.23855 0.26559
 C746 C 0.32173 -0.25103 0.27750
 C747 C 0.27516 -0.15027 0.31781
 C748 C 0.29821 -0.12743 0.34038
 C749 C 0.33749 -0.13840 0.35230
 C750 C 0.35297 -0.17428 0.34109
 C751 C 0.39016 -0.18725 0.35579
 C752 C 0.41142 -0.16604 0.38056
 C753 C 0.39746 -0.13044 0.39085
 C754 C 0.36114 -0.11539 0.37605
 C755 C 0.35012 -0.07784 0.38567
 C756 C 0.37285 -0.05734 0.41039
 C757 C 0.40696 -0.07363 0.42654
 C758 C 0.41945 -0.10997 0.41625
 H759 H 0.37459 -0.24172 0.30834
 H760 H 0.23607 -0.19704 0.27553
 H761 H 0.33460 -0.27723 0.26811
 H762 H 0.24492 -0.14088 0.30971
 H763 H 0.28370 -0.10183 0.34898
 H764 H 0.40305 -0.21449 0.34955
 H765 H 0.43929 -0.17761 0.39168
 H766 H 0.32435 -0.06335 0.37434
 H767 H 0.36290 -0.02905 0.41759
 H768 H 0.44621 -0.12252 0.42828
 C769 C 0.29312 0.33428 -0.22191
 C770 C 0.30345 0.32347 -0.18903
 C771 C 0.29018 0.28673 -0.17899
 C772 C 0.26590 0.26297 -0.20043
 C773 C 0.25492 0.27369 -0.23325
 C774 C 0.27004 0.30977 -0.24346
 C775 C 0.30144 0.27340 -0.14752
 C776 C 0.32686 0.29524 -0.12608
 C777 C 0.34114 0.33199 -0.13492
 C778 C 0.32735 0.34728 -0.16607
 C779 C 0.33708 0.38600 -0.17276
 C780 C 0.36009 0.40876 -0.14996
 C781 C 0.37582 0.39342 -0.12038
 C782 C 0.36772 0.35440 -0.11306
 C783 C 0.38717 0.33908 -0.08434
 C784 C 0.41153 0.36215 -0.06282
 C785 C 0.41721 0.40126 -0.06893
 C786 C 0.39963 0.41678 -0.09796
 H787 H 0.30375 0.36091 -0.23215
 H788 H 0.25654 0.23565 -0.19083
 H789 H 0.26445 0.31907 -0.26875
 H790 H 0.29097 0.24544 -0.13950
 H791 H 0.33360 0.28301 -0.10209
 H792 H 0.32598 0.39995 -0.19499
 H793 H 0.36609 0.43856 -0.15578
 H794 H 0.38495 0.30915 -0.07817
 H795 H 0.42543 0.34930 -0.04088
 H796 H 0.40474 0.44688 -0.10320
 C797 C 1.17031 -0.23402 0.18102
 C798 C 1.18062 -0.19577 0.17285
 C799 C 1.21723 -0.17972 0.18764
 C800 C 1.24207 -0.20118 0.20949
 C801 C 1.23030 -0.23845 0.21952
 C802 C 1.19481 -0.25484 0.20330
 C803 C 1.22933 -0.14228 0.18038
 C804 C 1.20569 -0.12002 0.15901
 C805 C 1.16891 -0.13450 0.14349
 C806 C 1.15647 -0.17323 0.15011
 C807 C 1.12066 -0.18825 0.13340
 C808 C 1.09831 -0.16670 0.11056
 C809 C 1.10997 -0.12901 0.10389
 C810 C 1.14474 -0.11188 0.12086
 C811 C 1.15383 -0.07283 0.11424
 C812 C 1.13066 -0.05259 0.09060
 C813 C 1.09778 -0.07045 0.07268
 C814 C 1.08717 -0.10848 0.07997
 H815 H 1.14356 -0.24898 0.17056
 H816 H 1.27097 -0.18846 0.21863
 H817 H 1.18580 -0.28431 0.20778
 H818 H 1.25747 -0.12989 0.19149
 H819 H 1.21769 -0.09164 0.15463
 H820 H 1.10926 -0.21701 0.13694
 H821 H 1.07150 -0.17980 0.09790
 H822 H 1.17859 -0.05697 0.12687
 H823 H 1.13919 -0.02306 0.08578
 H824 H 1.06123 -0.12235 0.06670
 C825 C 1.15214 0.26847 0.67012
 C826 C 1.14558 0.30813 0.67406
 C827 C 1.16214 0.32636 0.70330
 C828 C 1.18494 0.30542 0.72702
 C829 C 1.19709 0.26745 0.72025
 C830 C 1.17713 0.24879 0.69269
 C831 C 1.15731 0.36575 0.70812
 C832 C 1.13945 0.38800 0.68322
 C833 C 1.12409 0.37130 0.65299
 C834 C 1.12443 0.33040 0.64950
 C835 C 1.10414 0.31317 0.62135
 C836 C 1.08684 0.33514 0.59626
 C837 C 1.08995 0.37503 0.59773
 C838 C 1.10849 0.39392 0.62603
 C839 C 1.11206 0.43455 0.62542
 C840 C 1.09809 0.45515 0.59767
 C841 C 1.07979 0.43602 0.56993
 C842 C 1.07525 0.39600 0.57053
 H843 H 1.14009 0.25196 0.64902
 H844 H 1.19423 0.31961 0.75019
 H845 H 1.18091 0.21876 0.68772
 H846 H 1.16924 0.37987 0.73073
 H847 H 1.13772 0.41831 0.68845
 H848 H 1.10066 0.28256 0.61806
 H849 H 1.07193 0.32062 0.57493
 H850 H 1.12672 0.45108 0.64551
 H851 H 1.10188 0.48610 0.59784
 H852 H 1.06110 0.38080 0.54923
 C853 C 0.66443 -0.23590 0.68056
 C854 C 0.65730 -0.19648 0.68491
 C855 C 0.67730 -0.17742 0.71243
 C856 C 0.70279 -0.19775 0.73486
 C857 C 0.71330 -0.23626 0.72836
 C858 C 0.69147 -0.25504 0.70173
 C859 C 0.67241 -0.13799 0.71697
 C860 C 0.65048 -0.11670 0.69348
 C861 C 0.63084 -0.13447 0.66525
 C862 C 0.63186 -0.17534 0.66233
 C863 C 0.60751 -0.19379 0.63689
 C864 C 0.58565 -0.17296 0.61339
 C865 C 0.58787 -0.13304 0.61379
 C866 C 0.61024 -0.11299 0.63972
 C867 C 0.61242 -0.07240 0.63806
 C868 C 0.59402 -0.05299 0.61130
 C869 C 0.57242 -0.07328 0.58569
 C870 C 0.56863 -0.11323 0.58769
 H871 H 0.65082 -0.25273 0.66023
 H872 H 0.71395 -0.18303 0.75725
 H873 H 0.69460 -0.28520 0.69692
 H874 H 0.68711 -0.12313 0.73820
 H875 H 0.64886 -0.08630 0.69837
 H876 H 0.60416 -0.22452 0.63469
 H877 H 0.56780 -0.18839 0.59403
 H878 H 0.62954 -0.05501 0.65631
 H879 H 0.59736 -0.02205 0.61035
 H880 H 0.55197 -0.12930 0.56805
 C881 C 0.68383 0.25599 0.16943
 C882 C 0.67269 0.29466 0.17303
 C883 C 0.68266 0.31324 0.20381
 C884 C 0.70299 0.29346 0.22963
 C885 C 0.71817 0.25619 0.22462
 C886 C 0.70554 0.23734 0.19464
 C887 C 0.67287 0.35168 0.20855
 C888 C 0.65551 0.37275 0.18269
 C889 C 0.64589 0.35570 0.15127
 C890 C 0.65247 0.31549 0.14703
 C891 C 0.63858 0.29740 0.11698
 C892 C 0.62072 0.31807 0.09132
 C893 C 0.61681 0.35765 0.09415
 C894 C 0.62954 0.37729 0.12397
 C895 C 0.62625 0.41781 0.12474
 C896 C 0.61056 0.43756 0.09715
 C897 C 0.59739 0.41760 0.06815
 C898 C 0.60045 0.37765 0.06698
 H899 H 0.67730 0.23932 0.14709
 H900 H 0.70693 0.30752 0.25368
 H901 H 0.71227 0.20770 0.19002
 H902 H 0.67989 0.36601 0.23221
 H903 H 0.64929 0.40234 0.18827
 H904 H 0.64037 0.26698 0.11255
 H905 H 0.61053 0.30291 0.06869
 H906 H 0.63640 0.43513 0.14597
 H907 H 0.60854 0.46852 0.09857
 H908 H 0.59055 0.36196 0.04455
 C909 C 0.84018 0.21061 0.20237
 C910 C 0.83234 0.17294 0.19020
 C911 C 0.79632 0.15400 0.20046
 C912 C 0.76860 0.17300 0.22061
 C913 C 0.77640 0.21077 0.23278
 C914 C 0.81275 0.22900 0.22263
 C915 C 0.78732 0.11648 0.18975
 C916 C 0.81309 0.09732 0.16878
 C917 C 0.84870 0.11533 0.15690
 C918 C 0.85821 0.15397 0.16744
 C919 C 0.89232 0.17284 0.15385
 C920 C 0.91549 0.15515 0.13007
 C921 C 0.90655 0.11762 0.11949
 C922 C 0.87408 0.09659 0.13366
 C923 C 0.86809 0.05777 0.12351
 C924 C 0.89132 0.04168 0.09871
 C925 C 0.92126 0.06357 0.08310
 C926 C 0.92946 0.10124 0.09425
 H927 H 0.86709 0.22711 0.19648
 H928 H 0.73963 0.15873 0.22504
 H929 H 0.82018 0.25836 0.22943
 H930 H 0.75981 0.10174 0.19752
 H931 H 0.80328 0.06872 0.16133
 H932 H 0.90126 0.20198 0.16017
 H933 H 0.94057 0.17123 0.11964
 H934 H 0.84570 0.03900 0.13417
 H935 H 0.88486 0.01220 0.09103
 H936 H 0.95325 0.11811 0.08285
 C937 C 0.83754 0.72316 0.69331
 C938 C 0.82786 0.68706 0.67836
 C939 C 0.79124 0.66848 0.68750
 C940 C 0.76502 0.68612 0.70942
 C941 C 0.77489 0.72173 0.72531
 C942 C 0.81173 0.73994 0.71614
 C943 C 0.78055 0.63214 0.67477
 C944 C 0.80595 0.61328 0.65352
 C945 C 0.84274 0.63058 0.64333
 C946 C 0.85304 0.66872 0.65475
 C947 C 0.88730 0.68752 0.64139
 C948 C 0.91037 0.66980 0.61744
 C949 C 0.90135 0.63218 0.60691
 C950 C 0.86852 0.61150 0.62084
 C951 C 0.86276 0.57243 0.61163
 C952 C 0.88625 0.55572 0.58748
 C953 C 0.91629 0.57720 0.57167
 C954 C 0.92451 0.61518 0.58213
 H955 H 0.86533 0.73893 0.68842
 H956 H 0.73669 0.67104 0.71438
 H957 H 0.82164 0.76739 0.72614
 H958 H 0.75229 0.61789 0.68154
 H959 H 0.79495 0.58562 0.64440
 H960 H 0.89612 0.71666 0.64797
 H961 H 0.93562 0.68572 0.60710
 H962 H 0.84061 0.55386 0.62284
 H963 H 0.87998 0.52599 0.58052
 H964 H 0.94855 0.63166 0.57067
 C965 C 0.32390 0.22430 0.68782
 C966 C 0.31393 0.18776 0.67399
 C967 C 0.27652 0.17036 0.68285
 C968 C 0.24982 0.18965 0.70344
 C969 C 0.25988 0.22597 0.71798
 C970 C 0.29772 0.24271 0.70927
 C971 C 0.26585 0.13346 0.67142
 C972 C 0.29209 0.11293 0.65195
 C973 C 0.32972 0.12904 0.64225
 C974 C 0.33994 0.16771 0.65212
 C975 C 0.37513 0.18528 0.63911
 C976 C 0.39953 0.16570 0.61725
 C977 C 0.39080 0.12751 0.60848
 C978 C 0.35667 0.10820 0.62188
 C979 C 0.35095 0.06869 0.61434
 C980 C 0.37604 0.05009 0.59234
 C981 C 0.40766 0.07009 0.57706
 C982 C 0.41560 0.10860 0.58591
 H983 H 0.35242 0.23910 0.68336
 H984 H 0.22126 0.17523 0.70899
 H985 H 0.30851 0.27009 0.71879
 H986 H 0.23706 0.12004 0.67794
 H987 H 0.28122 0.08483 0.64385
 H988 H 0.38381 0.21478 0.64431
 H989 H 0.42562 0.18064 0.60719
 H990 H 0.32756 0.05122 0.62524
 H991 H 0.36979 0.02005 0.58655
 H992 H 0.44066 0.12404 0.57481
 C993 C 0.34008 0.71721 0.17975
 C994 C 0.33059 0.67922 0.16891
 C995 C 0.29537 0.66125 0.18167
 C996 C 0.27092 0.68077 0.20411
 C997 C 0.28249 0.71745 0.21721
 C998 C 0.31639 0.73585 0.20291
 C999 C 0.28461 0.62368 0.17214
 C1000 C 0.30878 0.60293 0.15099
 C1001 C 0.34441 0.61932 0.13775
 C1002 C 0.35463 0.65857 0.14583
 C1003 C 0.38812 0.67595 0.13019
 C1004 C 0.41073 0.65587 0.10744
 C1005 C 0.40189 0.61735 0.10007
 C1006 C 0.36946 0.59811 0.11586
 C1007 C 0.36366 0.55832 0.10914
 C1008 C 0.38749 0.53925 0.08628
 C1009 C 0.41766 0.55911 0.06922
 C1010 C 0.42517 0.59803 0.07668
 H1011 H 0.36604 0.73334 0.17128
 H1012 H 0.24295 0.66677 0.21172
 H1013 H 0.32517 0.76501 0.21002
 H1014 H 0.25744 0.60986 0.18154
 H1015 H 0.29802 0.57423 0.14476
 H1016 H 0.39715 0.70555 0.13430
 H1017 H 0.43564 0.67068 0.09558
 H1018 H 0.34124 0.54098 0.12133
 H1019 H 0.38151 0.50900 0.08133
 H1020 H 0.44911 0.61341 0.06410
   
