data_POSCAR
  _audit_creation_date              2014-09-24
  _audit_creation_method            'ToBaCCo'
  _symmetry_space_group_name_H-M    'P1'
  _symmetry_Int_Tables_number       1
  _symmetry_cell_setting            triclinic
  loop_
  _symmetry_equiv_pos_as_xyz
 x,y,z
_cell_length_a 30.8648
_cell_length_b 30.8532
_cell_length_c 30.7889
_cell_angle_alpha 89.986300
_cell_angle_beta 89.968900
_cell_angle_gamma 89.787900
loop_
  _atom_site_label
  _atom_site_type_symbol
  _atom_site_fract_x
  _atom_site_fract_y
  _atom_site_fract_z
C1 C 0.20255 0.14692 0.20173
 C2 C 0.18430 0.12977 0.23975
 C3 C 0.14834 0.14985 0.26004
 C4 C 0.12956 0.18631 0.23948
 C5 C 0.14785 0.20409 0.20179
 C6 C 0.18450 0.18440 0.18291
 C7 C 0.23818 0.12660 0.18189
 C8 C 0.25544 0.14226 0.14236
 C9 C 0.23822 0.18116 0.12524
 C10 C 0.20256 0.20170 0.14468
 C11 C 0.18428 0.23895 0.12594
 C12 C 0.14824 0.25965 0.14504
 C13 C 0.12951 0.24094 0.18233
 H14 H 0.19758 0.09992 0.25272
 H15 H 0.10013 0.20072 0.25216
 H16 H 0.25250 0.09868 0.19771
 H17 H 0.25255 0.19588 0.09674
 H18 H 0.19756 0.25094 0.09571
 H19 H 0.10026 0.25470 0.19612
 C20 C -0.19998 0.85576 0.20356
 C21 C -0.17932 0.87580 0.23877
 C22 C -0.13966 0.85971 0.25527
 C23 C -0.12318 0.82066 0.23774
 C24 C -0.14351 0.80031 0.20254
 C25 C -0.18187 0.81807 0.18521
 C26 C -0.23815 0.87338 0.18607
 C27 C -0.25925 0.85357 0.15054
 C28 C -0.23942 0.81688 0.13140
 C29 C -0.20164 0.79861 0.14899
 C30 C -0.18300 0.76147 0.13038
 C31 C -0.14564 0.74223 0.14846
 C32 C -0.12560 0.76275 0.18402
 H33 H -0.19463 0.90385 0.25341
 H34 H -0.09458 0.80563 0.25154
 H35 H -0.25047 0.90340 0.19955
 H36 H -0.25289 0.80263 0.10227
 H37 H -0.19749 0.74797 0.10140
 H38 H -0.09535 0.75025 0.19676
 C39 C -0.20472 0.14450 -0.20100
 C40 C -0.18413 0.12493 -0.23664
 C41 C -0.14574 0.14237 -0.25416
 C42 C -0.13000 0.18163 -0.23701
 C43 C -0.15017 0.20146 -0.20132
 C44 C -0.18757 0.18277 -0.18314
 C45 C -0.24185 0.12590 -0.18260
 C46 C -0.26294 0.14530 -0.14673
 C47 C -0.24397 0.18254 -0.12806
 C48 C -0.20720 0.20178 -0.14649
 C49 C -0.18936 0.23941 -0.12829
 C50 C -0.15283 0.25936 -0.14704
 C51 C -0.13296 0.23931 -0.18309
 H52 H -0.19837 0.09623 -0.25082
 H53 H -0.10203 0.19705 -0.25146
 H54 H -0.25352 0.09557 -0.19577
 H55 H -0.25724 0.19649 -0.09864
 H56 H -0.20367 0.25256 -0.09901
 H57 H -0.10332 0.25246 -0.19642
 C58 C 0.20113 0.85567 -0.20076
 C59 C 0.18245 0.87572 -0.23713
 C60 C 0.14409 0.85945 -0.25600
 C61 C 0.12757 0.81982 -0.24011
 C62 C 0.14619 0.79923 -0.20403
 C63 C 0.18277 0.81750 -0.18394
 C64 C 0.23756 0.87370 -0.18058
 C65 C 0.25479 0.85545 -0.14229
 C66 C 0.23705 0.81637 -0.12675
 C67 C 0.20106 0.79754 -0.14708
 C68 C 0.18270 0.75939 -0.13066
 C69 C 0.14673 0.74008 -0.15107
 C70 C 0.12824 0.76100 -0.18734
 H71 H 0.19798 0.90419 -0.25044
 H72 H 0.10017 0.80462 -0.25583
 H73 H 0.25221 0.90223 -0.19473
 H74 H 0.25133 0.80026 -0.09896
 H75 H 0.19593 0.74537 -0.10125
 H76 H 0.09901 0.74842 -0.20199
 C77 C 0.14617 1.20117 0.79847
 C78 C 0.12896 1.18281 0.76056
 C79 C 0.14900 1.14681 0.74033
 C80 C 0.18545 1.12803 0.76090
 C81 C 0.20329 1.14643 0.79849
 C82 C 0.18366 1.18317 0.81727
 C83 C 0.12594 1.23694 0.81816
 C84 C 0.14168 1.25439 0.85754
 C85 C 0.18057 1.23717 0.87467
 C86 C 0.20105 1.20139 0.85535
 C87 C 0.23836 1.18319 0.87405
 C88 C 0.25903 1.14707 0.85503
 C89 C 0.24020 1.12817 0.81791
 H90 H 0.09914 1.19611 0.74756
 H91 H 0.19983 1.09855 0.74830
 H92 H 0.09804 1.25123 0.80230
 H93 H 0.19533 1.25162 0.90307
 H94 H 0.25047 1.19661 0.90414
 H95 H 0.25391 1.09886 0.80420
 C96 C 0.85533 0.79975 0.79512
 C97 C 0.87337 0.81863 0.75782
 C98 C 0.85376 0.85493 0.73769
 C99 C 0.81699 0.87353 0.75784
 C100 C 0.79830 0.85462 0.79473
 C101 C 0.81743 0.81754 0.81336
 C102 C 0.87512 0.76371 0.81478
 C103 C 0.85845 0.74572 0.85356
 C104 C 0.81912 0.76269 0.86999
 C105 C 0.79915 0.79880 0.85077
 C106 C 0.76151 0.81689 0.86895
 C107 C 0.74140 0.85341 0.85008
 C108 C 0.76105 0.87275 0.81362
 H109 H 0.90345 0.80547 0.74526
 H110 H 0.80296 0.90323 0.74535
 H111 H 0.90343 0.74966 0.79941
 H112 H 0.80368 0.74786 0.89784
 H113 H 0.74864 0.80308 0.89858
 H114 H 0.74785 0.90235 0.80008
 C115 C 0.14617 0.79324 1.20287
 C116 C 0.12744 0.81286 1.23948
 C117 C 0.14685 0.84911 1.25927
 C118 C 0.18401 0.86711 1.23981
 C119 C 0.20307 0.84785 1.20320
 C120 C 0.18427 0.81060 1.18484
 C121 C 0.12683 0.75694 1.18363
 C122 C 0.14569 0.73647 1.14714
 C123 C 0.18278 0.75563 1.12836
 C124 C 0.20247 0.79191 1.14729
 C125 C 0.23966 0.81022 1.12867
 C126 C 0.25977 0.84655 1.14761
 C127 C 0.24020 0.86583 1.18423
 H128 H 0.09728 0.80013 1.25196
 H129 H 0.19793 0.89658 1.25274
 H130 H 0.09656 0.74526 1.19693
 H131 H 0.19623 0.74289 1.09847
 H132 H 0.25228 0.79650 1.09888
 H133 H 0.25343 0.89536 1.19774
 C134 C 0.85237 1.20468 1.20298
 C135 C 0.87176 1.18670 1.24007
 C136 C 0.85418 1.14968 1.26048
 C137 C 0.81846 1.12919 1.24052
 C138 C 0.79906 1.14660 1.20319
 C139 C 0.81578 1.18472 1.18461
 C140 C 0.86956 1.24200 1.18359
 C141 C 0.84975 1.26090 1.14689
 C142 C 0.81366 1.24004 1.12838
 C143 C 0.79654 1.20231 1.14704
 C144 C 0.76094 1.18148 1.12812
 C145 C 0.74500 1.14226 1.14524
 C146 C 0.76354 1.12598 1.18379
 H147 H 0.90106 1.20143 1.25239
 H148 H 0.80614 1.09894 1.25333
 H149 H 0.89885 1.25589 1.19688
 H150 H 0.79952 1.25225 1.09861
 H151 H 0.74566 1.19608 1.10004
 H152 H 0.75028 1.09733 1.19905
 O153 O 0.43861 1.07606 1.07831
 O154 O 0.39166 1.03464 1.03828
 C155 C 0.39985 1.06446 1.06668
 O156 O 0.56051 1.07371 0.92351
 O157 O 0.60808 1.03398 0.96480
 C158 C 0.59945 1.06239 0.93502
 O159 O 0.43849 1.07685 0.92725
 O160 O 0.39156 1.03423 0.96601
 C161 C 0.39973 1.06464 0.93821
 O162 O 0.56076 1.07299 1.08161
 O163 O 0.60816 1.03415 1.03922
 C164 C 0.59964 1.06209 1.06944
 Zr165 Zr 0.49980 1.05185 1.05784
 O166 O 0.50381 1.12030 1.05934
 O167 O 0.49523 1.05005 1.12644
 Zr168 Zr 0.49969 1.05283 0.94774
 O169 O 0.50383 1.12131 0.94852
 O170 O 0.49501 1.05335 0.87914
 O171 O 0.46114 1.06077 1.00288
 O172 O 0.53713 1.06045 1.00277
 O173 O 0.56174 0.92185 1.08094
 O174 O 0.60862 0.96108 1.03866
 C175 C 0.60051 0.93308 1.06891
 O176 O 0.43953 0.91908 0.92598
 O177 O 0.39213 0.95988 0.96651
 C178 C 0.40065 0.93046 0.93772
 O179 O 0.56162 0.92301 0.92247
 O180 O 0.60860 0.96170 0.96508
 C181 C 0.60040 0.93408 0.93452
 O182 O 0.43951 0.91777 1.07723
 O183 O 0.39208 0.96039 1.03876
 C184 C 0.40059 0.92985 1.06635
 Zr185 Zr 0.50049 0.94219 1.05677
 O186 O 0.50566 0.87375 1.05582
 O187 O 0.49582 0.94142 1.12536
 Zr188 Zr 0.50043 0.94324 0.94679
 O189 O 0.50547 0.87479 0.94618
 O190 O 0.49582 0.94414 0.87819
 Zr191 Zr 0.43593 0.99738 1.00235
 Zr192 Zr 0.56432 0.99781 1.00225
 O193 O 0.53799 0.93494 1.00169
 O194 O 0.46191 0.93410 1.00176
 O195 O 0.53884 0.99708 1.06579
 O196 O 0.46251 0.99797 0.93939
 O197 O 0.46259 0.99689 1.06525
 O198 O 0.53872 0.99823 0.93877
 H199 H 0.55646 1.08602 1.00279
 H200 H 0.44294 0.99803 0.91389
 H201 H 0.55765 0.90948 1.00149
 H202 H 0.44296 0.99674 1.09073
 H203 H 0.51928 1.03571 0.86769
 H204 H 0.52033 0.96147 0.86706
 H205 H 0.48142 0.86333 0.96400
 H206 H 0.48111 0.86259 1.03853
 H207 H 0.51946 0.95972 1.13678
 H208 H 0.52092 1.03424 1.13744
 H209 H 0.48082 1.13171 1.04007
 H210 H 0.47910 1.13235 0.96577
 O211 O -0.08087 0.43996 0.07332
 O212 O -0.03961 0.39229 0.03365
 C213 C -0.06936 0.40098 0.06205
 O214 O -0.07735 0.56178 -0.08165
 O215 O -0.03777 0.60869 -0.03975
 C216 C -0.06590 0.60055 -0.06982
 O217 O -0.08155 0.43950 -0.07757
 O218 O -0.03986 0.39207 -0.03805
 C219 C -0.06996 0.40057 -0.06610
 O220 O -0.07634 0.56204 0.07678
 O221 O -0.03677 0.60881 0.03470
 C222 C -0.06479 0.60076 0.06495
 Zr223 Zr -0.05646 0.50075 0.05241
 O224 O -0.12487 0.50610 0.05222
 O225 O -0.05641 0.49623 0.12102
 Zr226 Zr -0.05693 0.50050 -0.05741
 O227 O -0.12534 0.50576 -0.05690
 O228 O -0.05715 0.49566 -0.12599
 O229 O -0.06525 0.46204 -0.00235
 O230 O -0.06436 0.53829 -0.00255
 O231 O 0.07401 0.56059 0.07609
 O232 O 0.03474 0.60819 0.03438
 C233 C 0.06288 0.59953 0.06438
 O234 O 0.07659 0.43812 -0.07855
 O235 O 0.03429 0.39139 -0.03916
 C236 C 0.06447 0.39941 -0.06723
 O237 O 0.07390 0.56033 -0.08223
 O238 O 0.03526 0.60795 -0.03996
 C239 C 0.06313 0.59931 -0.07021
 O240 O 0.07718 0.43864 0.07271
 O241 O 0.03464 0.39159 0.03410
 C242 C 0.06501 0.39985 0.06188
 Zr243 Zr 0.05312 0.49974 0.05207
 O244 O 0.12157 0.50385 0.05196
 O245 O 0.05293 0.49519 0.12069
 Zr246 Zr 0.05282 0.49948 -0.05798
 O247 O 0.12128 0.50343 -0.05845
 O248 O 0.05206 0.49474 -0.12658
 Zr249 Zr -0.00202 0.43587 -0.00253
 Zr250 Zr -0.00143 0.56436 -0.00300
 O251 O 0.06114 0.53701 -0.00307
 O252 O 0.06139 0.46092 -0.00287
 O253 O -0.00142 0.53889 0.06056
 O254 O -0.00228 0.46244 -0.06551
 O255 O -0.00183 0.46272 0.06030
 O256 O -0.00187 0.53863 -0.06640
 H257 H -0.08968 0.55813 -0.00239
 H258 H -0.00257 0.44278 -0.09095
 H259 H 0.08673 0.55631 -0.00309
 H260 H -0.00189 0.44322 0.08588
 H261 H -0.03940 0.51974 -0.13741
 H262 H 0.03508 0.51959 -0.13777
 H263 H 0.13247 0.47929 -0.04048
 H264 H 0.13270 0.47971 0.03394
 H265 H 0.03588 0.51995 0.13198
 H266 H -0.03822 0.52006 0.13222
 H267 H -0.13631 0.48148 0.03521
 H268 H -0.13662 0.48154 -0.03919
 O269 O 1.08075 -0.07349 0.56079
 O270 O 1.03922 -0.03357 0.60809
 C271 C 1.06901 -0.06204 0.59970
 O272 O 1.07776 0.08125 0.43866
 O273 O 1.03893 0.03927 0.39119
 C274 C 1.06683 0.06936 0.39966
 O275 O 1.08072 0.07749 0.56125
 O276 O 1.03824 0.03863 0.60831
 C277 C 1.06854 0.06641 0.60013
 O278 O 1.07729 -0.07690 0.43844
 O279 O 1.03889 -0.03416 0.39104
 C280 C 1.06644 -0.06479 0.39949
 Zr281 Zr 1.05691 -0.05251 0.49959
 O282 O 1.12535 -0.05216 0.49504
 O283 O 1.05732 -0.12098 0.50408
 Zr284 Zr 1.05686 0.05718 0.49982
 O285 O 1.12531 0.05692 0.49549
 O286 O 1.05657 0.12564 0.50454
 O287 O 1.06520 0.00220 0.53847
 O288 O 1.06490 0.00237 0.46214
 O289 O 0.92657 -0.07587 0.43804
 O290 O 0.96575 -0.03379 0.39087
 C291 C 0.93774 -0.06382 0.39917
 O292 O 0.92277 0.07797 0.56075
 O293 O 0.96493 0.03880 0.60809
 C294 C 0.93461 0.06669 0.59968
 O295 O 0.92654 0.08163 0.43834
 O296 O 0.96572 0.03951 0.39099
 C297 C 0.93763 0.06965 0.39939
 O298 O 0.92316 -0.07316 0.56037
 O299 O 0.96501 -0.03436 0.60793
 C300 C 0.93498 -0.06228 0.59937
 Zr301 Zr 0.94723 -0.05218 0.49932
 O302 O 0.87878 -0.05179 0.49474
 O303 O 0.94742 -0.12067 0.50361
 Zr304 Zr 0.94736 0.05770 0.49957
 O305 O 0.87895 0.05883 0.49492
 O306 O 0.94843 0.12616 0.50432
 Zr307 Zr 1.00177 0.00226 0.56393
 Zr308 Zr 1.00222 0.00265 0.43518
 O309 O 0.93944 0.00288 0.46195
 O310 O 0.93856 0.00267 0.53812
 O311 O 1.00216 -0.06077 0.46068
 O312 O 1.00197 0.06516 0.53736
 O313 O 1.00197 -0.06042 0.53701
 O314 O 1.00221 0.06599 0.46087
 H315 H 1.09047 0.00225 0.44267
 H316 H 1.00187 0.09062 0.55696
 H317 H 0.91388 0.00301 0.44249
 H318 H 1.00202 -0.08598 0.55651
 H319 H 1.03921 0.13695 0.48000
 H320 H 0.96467 0.13728 0.47898
 H321 H 0.86757 0.03972 0.51802
 H322 H 0.86752 -0.03454 0.51939
 H323 H 0.96466 -0.13186 0.47892
 H324 H 1.03882 -0.13216 0.48041
 H325 H 1.13648 -0.03529 0.51994
 H326 H 1.13644 0.03910 0.51978
 C327 C 1.12783 0.13001 0.29737
 C328 C 1.09455 0.09583 0.28334
 C329 C 1.07417 0.07571 0.31680
 C330 C 1.08870 0.09137 0.36195
 C331 C 1.13809 0.08542 0.36213
 C332 C 1.15864 0.10587 0.32883
 C333 C 1.10247 0.16097 0.32781
 C334 C 1.08177 0.14063 0.36113
 H335 H 1.08748 0.08811 0.24967
 H336 H 1.04985 0.05099 0.31131
 H337 H 1.15561 0.06815 0.38739
 H338 H 1.19373 0.10667 0.32680
 H339 H 1.10284 0.19605 0.32540
 H340 H 1.06381 0.15826 0.38582
 C341 C 0.88116 -0.11978 0.29201
 C342 C 0.86442 -0.13799 0.33538
 C343 C 0.88282 -0.11994 0.37116
 C344 C 0.91660 -0.08499 0.36070
 C345 C 0.94924 -0.10730 0.33037
 C346 C 0.93100 -0.12505 0.29431
 C347 C 0.87468 -0.07016 0.29558
 C348 C 0.89274 -0.05228 0.33162
 H349 H 0.84001 -0.16315 0.33775
 H350 H 0.87399 -0.12983 0.40381
 H351 H 0.98400 -0.10741 0.33578
 H352 H 0.95084 -0.13904 0.26876
 H353 H 0.85977 -0.05009 0.27076
 H354 H 0.89193 -0.01762 0.33776
 C355 C 0.87640 0.12121 0.70689
 C356 C 0.92591 0.12773 0.70441
 C357 C 0.94462 0.11036 0.66836
 C358 C 0.91262 0.08721 0.63813
 C359 C 0.88981 0.05400 0.66732
 C360 C 0.87122 0.07155 0.70338
 C361 C 0.85894 0.13903 0.66365
 C362 C 0.87774 0.12137 0.62776
 H363 H 0.94520 0.14263 0.72975
 H364 H 0.97935 0.11152 0.66274
 H365 H 0.88969 0.01939 0.66101
 H366 H 0.85641 0.05135 0.72806
 H367 H 0.83375 0.16359 0.66150
 H368 H 0.86849 0.13098 0.59514
 C369 C 1.12426 -0.11932 0.70703
 C370 C 1.14220 -0.13673 0.66376
 C371 C 1.12444 -0.11809 0.62786
 C372 C 1.09004 -0.08344 0.63815
 C373 C 1.05699 -0.10640 0.66738
 C374 C 1.07457 -0.12465 0.70352
 C375 C 1.13031 -0.06959 0.70442
 C376 C 1.11285 -0.05113 0.66826
 H377 H 1.16698 -0.16172 0.66155
 H378 H 1.13418 -0.12728 0.59526
 H379 H 1.02234 -0.10657 0.66121
 H380 H 1.05432 -0.13915 0.72837
 H381 H 1.14443 -0.04987 0.72988
 H382 H 1.11342 -0.01639 0.66267
 C383 C 0.29240 1.12139 1.12212
 C384 C 0.33549 1.13968 1.13914
 C385 C 0.37140 1.12132 1.12116
 C386 C 0.36134 1.08601 1.08749
 C387 C 0.33213 1.05365 1.11140
 C388 C 0.29597 1.07184 1.12906
 C389 C 0.29520 1.12604 1.07214
 C390 C 0.33138 1.10804 1.05433
 H391 H 0.33756 1.16511 1.16343
 H392 H 0.40388 1.13121 1.13020
 H393 H 0.33829 1.01899 1.11255
 H394 H 0.27111 1.05200 1.14398
 H395 H 0.26989 1.13984 1.05190
 H396 H 0.33714 1.10779 1.01955
 C397 C 0.29375 0.87597 0.88005
 C398 C 0.29690 0.92569 0.87540
 C399 C 0.33288 0.94304 0.89383
 C400 C 0.36236 0.90962 0.91617
 C401 C 0.33260 0.88599 0.94829
 C402 C 0.29661 0.86870 0.92962
 C403 C 0.33686 0.85849 0.86203
 C404 C 0.37269 0.87596 0.88081
 H405 H 0.27199 0.94608 0.86114
 H406 H 0.33888 0.97770 0.89403
 H407 H 0.33850 0.88436 0.98301
 H408 H 0.27161 0.85335 0.94897
 H409 H 0.33897 0.83424 0.83656
 H410 H 0.40523 0.86651 0.87126
 C411 C 0.70327 0.87362 1.13047
 C412 C 0.71684 0.90558 1.09470
 C413 C 0.68322 0.92539 1.07423
 C414 C 0.63838 0.91169 1.09117
 C415 C 0.63802 0.86212 1.08716
 C416 C 0.67147 0.84213 1.10799
 C417 C 0.67341 0.90025 1.16091
 C418 C 0.63991 0.92036 1.14021
 H419 H 0.75033 0.91218 1.08618
 H420 H 0.68839 0.94875 1.04838
 H421 H 0.61255 0.84413 1.07095
 H422 H 0.67341 0.80708 1.11020
 H423 H 0.67637 0.90119 1.19601
 H424 H 0.61559 0.93912 1.15751
 C425 C 0.70035 1.12442 0.87367
 C426 C 0.66866 1.15484 0.89804
 C427 C 0.63592 1.13388 0.91879
 C428 C 0.63677 1.08450 0.91284
 C429 C 0.63738 1.07773 0.86348
 C430 C 0.67018 1.09884 0.84288
 C431 C 0.71504 1.09117 0.90788
 C432 C 0.68207 1.07036 0.92828
 H433 H 0.66988 1.18997 0.89700
 H434 H 0.61053 1.15110 0.93617
 H435 H 0.61300 1.05941 0.84600
 H436 H 0.67260 1.09913 0.80772
 H437 H 0.74878 1.08449 0.91546
 H438 H 0.68799 1.04607 0.95311
 C439 C 0.12674 0.29841 0.12304
 C440 C 0.09127 0.28399 0.09124
 C441 C 0.07063 0.31715 0.07074
 C442 C 0.08722 0.36230 0.08376
 C443 C 0.08307 0.36361 0.13343
 C444 C 0.10398 0.33058 0.15402
 C445 C 0.15696 0.32763 0.09587
 C446 C 0.13618 0.36069 0.07515
 H447 H 0.08312 0.25031 0.08529
 H448 H 0.04494 0.31148 0.04738
 H449 H 0.06640 0.38922 0.15101
 H450 H 0.10575 0.32894 0.18917
 H451 H 0.19194 0.32436 0.09474
 H452 H 0.15330 0.38450 0.05572
 C453 C -0.13171 0.29853 -0.12566
 C454 C -0.09657 0.28449 -0.09324
 C455 C -0.07606 0.31788 -0.07329
 C456 C -0.09238 0.36294 -0.08746
 C457 C -0.08779 0.36311 -0.13710
 C458 C -0.10858 0.32981 -0.15713
 C459 C -0.16210 0.32862 -0.09940
 C460 C -0.14142 0.36199 -0.07926
 H461 H -0.08851 0.25087 -0.08648
 H462 H -0.05057 0.31240 -0.04961
 H463 H -0.07085 0.38813 -0.15510
 H464 H -0.10996 0.32732 -0.19225
 H465 H -0.19709 0.32571 -0.09853
 H466 H -0.15865 0.38641 -0.06057
 C467 C 0.12476 0.70097 -0.13051
 C468 C 0.15544 0.66888 -0.10726
 C469 C 0.13472 0.63566 -0.08696
 C470 C 0.08526 0.63678 -0.09213
 C471 C 0.07156 0.68187 -0.07552
 C472 C 0.09216 0.71514 -0.09556
 C473 C 0.09856 0.67172 -0.16156
 C474 C 0.07772 0.63847 -0.14136
 H475 H 0.19052 0.67076 -0.10824
 H476 H 0.15210 0.61008 -0.07004
 H477 H 0.04762 0.68745 -0.05028
 H478 H 0.08573 0.74877 -0.08732
 H479 H 0.09820 0.67508 -0.19662
 H480 H 0.05896 0.61460 -0.15906
 C481 C -0.12443 0.70310 0.12680
 C482 C -0.15568 0.67203 0.10320
 C483 C -0.13555 0.63869 0.08233
 C484 C -0.08608 0.63859 0.08732
 C485 C -0.07172 0.68357 0.07130
 C486 C -0.09175 0.71704 0.09190
 C487 C -0.09858 0.67280 0.15729
 C488 C -0.07833 0.63940 0.13655
 H489 H -0.19072 0.67441 0.10456
 H490 H -0.15340 0.61370 0.06523
 H491 H -0.04786 0.68892 0.04596
 H492 H -0.08492 0.75064 0.08406
 H493 H -0.09783 0.67587 0.19238
 H494 H -0.05973 0.61494 0.15382
 C495 C 1.12921 0.12647 0.70290
 C496 C 1.15999 0.10059 0.67272
 C497 C 1.13961 0.08023 0.63926
 C498 C 1.09049 0.08795 0.63804
 C499 C 1.07421 0.07369 0.68308
 C500 C 1.09437 0.09374 0.71669
 C501 C 1.10583 0.15766 0.67122
 C502 C 1.08533 0.13744 0.63778
 H503 H 1.19504 0.10040 0.67535
 H504 H 1.15715 0.06197 0.61472
 H505 H 1.04904 0.04979 0.68838
 H506 H 1.08625 0.08681 0.75030
 H507 H 1.10709 0.19274 0.67330
 H508 H 1.06848 0.15523 0.61244
 C509 C 0.87401 -0.12423 0.70079
 C510 C 0.90763 -0.09059 0.71537
 C511 C 0.92792 -0.06986 0.68222
 C512 C 0.91296 -0.08442 0.63686
 C513 C 0.91950 -0.13375 0.63657
 C514 C 0.89889 -0.15466 0.66953
 C515 C 0.84316 -0.09912 0.67006
 C516 C 0.86365 -0.07805 0.63711
 H517 H 0.91486 -0.08358 0.74916
 H518 H 0.95231 -0.04528 0.68805
 H519 H 0.93731 -0.15098 0.61148
 H520 H 0.89848 -0.18978 0.67138
 H521 H 0.80807 -0.09987 0.67206
 H522 H 0.84612 -0.06013 0.61232
 C523 C 1.12556 -0.12858 0.29800
 C524 C 1.09430 -0.09257 0.28342
 C525 C 1.07453 -0.07121 0.31660
 C526 C 1.08767 -0.08768 0.36193
 C527 C 1.07827 -0.13648 0.36101
 C528 C 1.09825 -0.15798 0.32794
 C529 C 1.15714 -0.10617 0.32965
 C530 C 1.13729 -0.08456 0.36271
 H531 H 1.08818 -0.08458 0.24962
 H532 H 1.05163 -0.04505 0.31082
 H533 H 1.05887 -0.15301 0.38529
 H534 H 1.09654 -0.19297 0.32518
 H535 H 1.19216 -0.10862 0.32761
 H536 H 1.15534 -0.06800 0.38796
 C537 C 0.87538 0.12996 0.29753
 C538 C 0.84509 0.10573 0.32928
 C539 C 0.86612 0.08536 0.36237
 C540 C 0.91543 0.09150 0.36176
 C541 C 0.92980 0.07585 0.31651
 C542 C 0.90892 0.09587 0.28321
 C543 C 0.90065 0.16103 0.32773
 C544 C 0.92182 0.14077 0.36086
 H545 H 0.80998 0.10634 0.32753
 H546 H 0.84899 0.06795 0.38773
 H547 H 0.95432 0.05118 0.31086
 H548 H 0.91578 0.08815 0.24948
 H549 H 0.89985 0.19610 0.32537
 H550 H 0.93977 0.15848 0.38539
 C551 C 0.12092 0.29152 -0.12238
 C552 C 0.07144 0.29541 -0.12951
 C553 C 0.05341 0.33171 -0.11197
 C554 C 0.08584 0.36074 -0.08796
 C555 C 0.10751 0.33062 -0.05469
 C556 C 0.12537 0.29431 -0.07239
 C557 C 0.13956 0.33450 -0.13938
 C558 C 0.12135 0.37056 -0.12151
 H559 H 0.05149 0.27064 -0.14439
 H560 H 0.01880 0.33807 -0.11322
 H561 H 0.10716 0.33640 -0.01992
 H562 H 0.13898 0.26894 -0.05209
 H563 H 0.16510 0.33641 -0.16358
 H564 H 0.13147 0.40298 -0.13056
 C565 C -0.12956 0.29974 0.12450
 C566 C -0.09498 0.28526 0.09163
 C567 C -0.07499 0.31838 0.07067
 C568 C -0.09124 0.36359 0.08436
 C569 C -0.14042 0.36232 0.07716
 C570 C -0.16057 0.32924 0.09833
 C571 C -0.10600 0.33165 0.15494
 C572 C -0.08573 0.36465 0.13389
 H573 H -0.08694 0.25156 0.08530
 H574 H -0.04998 0.31261 0.04653
 H575 H -0.15809 0.38631 0.05832
 H576 H -0.19555 0.32606 0.09814
 H577 H -0.10687 0.32995 0.19012
 H578 H -0.06869 0.39013 0.15111
 C579 C -0.12111 0.70850 -0.12617
 C580 C -0.13913 0.66553 -0.14385
 C581 C -0.12123 0.62943 -0.12571
 C582 C -0.08666 0.63921 -0.09122
 C583 C -0.05372 0.66846 -0.11425
 C584 C -0.07143 0.70480 -0.13210
 C585 C -0.12682 0.70543 -0.07634
 C586 C -0.10933 0.66910 -0.05839
 H587 H -0.16399 0.66367 -0.16872
 H588 H -0.13093 0.59702 -0.13521
 H589 H -0.01909 0.66216 -0.11473
 H590 H -0.05120 0.72967 -0.14646
 H591 H -0.14094 0.73069 -0.05624
 H592 H -0.10981 0.66321 -0.02360
 C593 C 0.12469 0.70001 0.12647
 C594 C 0.15519 0.66829 0.10225
 C595 C 0.13429 0.63572 0.08121
 C596 C 0.08489 0.63675 0.08674
 C597 C 0.07766 0.63718 0.13604
 C598 C 0.09871 0.66979 0.15694
 C599 C 0.09181 0.71500 0.09204
 C600 C 0.07107 0.68218 0.07134
 H601 H 0.19030 0.66948 0.10350
 H602 H 0.15156 0.61036 0.06385
 H603 H 0.05915 0.61276 0.15329
 H604 H 0.09881 0.67190 0.19212
 H605 H 0.08532 0.74882 0.08457
 H606 H 0.04700 0.68829 0.04636
 C607 C 0.29793 1.12576 0.87698
 C608 C 0.28371 1.09079 0.90947
 C609 C 0.31699 1.07040 0.93001
 C610 C 0.36206 1.08670 0.91633
 C611 C 0.36296 1.08180 0.86673
 C612 C 0.32980 1.10245 0.84610
 C613 C 0.32741 1.15633 0.90341
 C614 C 0.36061 1.13580 0.92417
 H615 H 0.25008 1.08278 0.91583
 H616 H 0.31146 1.04508 0.95383
 H617 H 0.38839 1.06481 0.84919
 H618 H 0.32792 1.10370 0.81094
 H619 H 0.32414 1.19134 0.90407
 H620 H 0.38456 1.15317 0.94315
 C621 C 0.29877 0.86788 1.12610
 C622 C 0.33041 0.89045 1.15757
 C623 C 0.36363 0.91136 1.13750
 C624 C 0.36301 0.90743 1.08782
 C625 C 0.36175 0.85849 1.07902
 C626 C 0.32848 0.83770 1.09920
 C627 C 0.28462 0.90352 1.09426
 C628 C 0.31793 0.92416 1.07428
 H629 H 0.32821 0.88864 1.19270
 H630 H 0.38888 0.92795 1.15547
 H631 H 0.38592 0.84139 1.05988
 H632 H 0.32541 0.80272 1.09790
 H633 H 0.25099 0.91180 1.08790
 H634 H 0.31239 0.94997 1.05095
 C635 C 0.70627 1.11985 1.12439
 C636 C 0.70439 1.07018 1.13040
 C637 C 0.66852 1.05147 1.11295
 C638 C 0.63787 1.08366 1.09038
 C639 C 0.62736 1.11792 1.12511
 C640 C 0.66306 1.13673 1.14276
 C641 C 0.70239 1.12574 1.07474
 C642 C 0.66653 1.10724 1.05720
 H643 H 0.72995 1.05084 1.14497
 H644 H 0.66328 1.01669 1.11370
 H645 H 0.59478 1.12673 1.13513
 H646 H 0.66080 1.16148 1.16772
 H647 H 0.72677 1.14095 1.05450
 H648 H 0.66009 1.10781 1.02253
 C649 C 0.70237 0.87461 0.87191
 C650 C 0.67153 0.84325 0.89568
 C651 C 0.63827 0.86328 0.91680
 C652 C 0.63809 0.91279 0.91192
 C653 C 0.68313 0.92718 0.92765
 C654 C 0.71648 0.90724 0.90677
 C655 C 0.67184 0.90050 0.84168
 C656 C 0.63858 0.92068 0.86270
 H657 H 0.67416 0.80820 0.89440
 H658 H 0.61347 0.84535 0.93413
 H659 H 0.68861 0.95103 0.95294
 H660 H 0.75011 0.91414 0.91435
 H661 H 0.67446 0.90115 0.80656
 H662 H 0.61392 0.93917 0.84561
   
