data_POSCAR
  _audit_creation_date              2014-09-24
  _audit_creation_method            'ToBaCCo'
  _symmetry_space_group_name_H-M    'P1'
  _symmetry_Int_Tables_number       1
  _symmetry_cell_setting            triclinic
  loop_
  _symmetry_equiv_pos_as_xyz
 x,y,z
_cell_length_a 11.5794
_cell_length_b 11.5789
_cell_length_c 11.6101
_cell_angle_alpha 90.260700
_cell_angle_beta 90.260000
_cell_angle_gamma 90.000100
loop_
  _atom_site_label
  _atom_site_type_symbol
  _atom_site_fract_x
  _atom_site_fract_y
  _atom_site_fract_z
O1 O 0.39008 0.90066 -0.61140
 O2 O 0.61502 0.90031 -0.38705
 O3 O 0.38994 0.90755 -0.38768
 O4 O 0.61391 0.90806 -0.61179
 O5 O 0.61394 1.09914 -0.61010
 O6 O 0.39023 1.09863 -0.38658
 O7 O 0.61509 1.09135 -0.38548
 O8 O 0.38992 1.09178 -0.61043
 Cu9 Cu 0.50245 0.88486 -0.49938
 Cu10 Cu 0.50244 1.11452 -0.49788
 C11 C 0.35219 0.99607 -0.64895
 C12 C 0.65301 0.99554 -0.34813
 C13 C 0.35197 1.00325 -0.34967
 C14 C 0.65113 1.00390 -0.64931
 O15 O -0.61627 1.38596 -0.09887
 O16 O -0.39204 1.61106 -0.10007
 O17 O -0.39132 1.38718 -0.09222
 O18 O -0.61687 1.61182 -0.09228
 O19 O -0.61489 1.61340 0.09821
 O20 O -0.39065 1.38830 0.09835
 O21 O -0.39002 1.61207 0.09049
 O22 O -0.61548 1.38735 0.09162
 Cu23 Cu -0.50459 1.49883 -0.11503
 Cu24 Cu -0.50299 1.50048 0.11385
 C25 C -0.65345 1.34810 -0.00368
 C26 C -0.35263 1.64905 -0.00518
 C27 C -0.35260 1.35025 0.00330
 C28 C -0.65348 1.65114 0.00318
 O29 O 0.09235 0.38911 0.38967
 O30 O 0.09192 0.61451 0.61440
 O31 O 0.09927 0.38962 0.61349
 O32 O 0.09975 0.61313 0.38977
 O33 O -0.09132 0.61315 0.38817
 O34 O -0.09180 0.38922 0.61231
 O35 O -0.09911 0.61428 0.61296
 O36 O -0.09876 0.38934 0.38863
 Cu37 Cu 0.11511 0.50174 0.50210
 Cu38 Cu -0.11454 0.50172 0.50062
 C39 C -0.00335 0.35139 0.35115
 C40 C -0.00390 0.65236 0.65180
 C41 C 0.00389 0.35130 0.65036
 C42 C 0.00451 0.65031 0.35057
 O43 O -0.15622 0.99623 -0.29774
 O44 O -0.15436 1.00335 0.29587
 O45 O -0.29753 0.84395 -0.00457
 O46 O -0.29756 1.15533 0.00204
 O47 O -0.15668 1.29665 0.00294
 O48 O -0.15669 0.70258 -0.00466
 O49 O -0.29615 1.00304 0.15522
 O50 O -0.29711 0.99640 -0.15752
 Zr51 Zr -0.20304 0.99967 -0.00108
 O52 O -0.10460 1.10493 0.10417
 O53 O -0.10493 0.89451 -0.10591
 C54 C -0.26275 0.99517 -0.26374
 C55 C -0.26094 1.00428 0.26150
 C56 C -0.26318 0.73744 -0.00572
 C57 C -0.26318 1.26182 0.00354
 H58 H -0.15274 0.84668 0.15163
 O59 O -0.10359 0.89579 0.10264
 H60 H -0.15340 1.15278 -0.15354
 O61 O -0.10404 1.10360 -0.10439
 O62 O 0.15707 0.99721 0.29612
 O63 O 0.15642 1.00234 -0.29639
 O64 O 0.00347 0.70301 0.15508
 O65 O -0.00278 1.29723 0.15610
 O66 O 0.00287 1.29701 -0.15521
 O67 O -0.00328 0.70216 -0.15758
 O68 O 0.29727 0.84258 0.00306
 O69 O 0.29735 1.15664 -0.00269
 O70 O 0.15596 0.70169 0.00162
 O71 O 0.15602 1.29749 -0.00240
 O72 O 0.00411 0.84481 0.29575
 O73 O -0.00302 0.84312 -0.29774
 O74 O 0.00302 1.15574 -0.29642
 O75 O -0.00200 1.15625 0.29624
 O76 O 0.29805 0.99690 0.15598
 O77 O 0.29775 1.00229 -0.15522
 Zr78 Zr 0.00091 1.00017 0.20185
 Zr79 Zr 0.00005 0.99940 -0.20331
 Zr80 Zr 0.00007 0.79621 -0.00116
 Zr81 Zr 0.00008 1.20305 0.00003
 Zr82 Zr 0.20377 0.99964 -0.00002
 O83 O 0.10508 1.10451 -0.10458
 O84 O 0.10553 0.89476 0.10396
 C85 C 0.26346 0.99597 0.26201
 C86 C 0.26300 1.00336 -0.26149
 C87 C 0.00487 0.73823 0.26135
 C88 C -0.00346 1.26264 0.26214
 C89 C 0.00401 1.26230 -0.26149
 C90 C -0.00427 0.73658 -0.26378
 C91 C 0.26260 0.73591 0.00343
 C92 C 0.26267 1.26330 -0.00362
 H93 H 0.15332 0.84603 -0.15346
 O94 O 0.10415 0.89539 -0.10430
 H95 H 0.15411 1.15353 0.15309
 O96 O 0.10476 1.10414 0.10367
   
