data_POSCAR
  _audit_creation_date              2014-09-24
  _audit_creation_method            'ToBaCCo'
  _symmetry_space_group_name_H-M    'P1'
  _symmetry_Int_Tables_number       1
  _symmetry_cell_setting            triclinic
  loop_
  _symmetry_equiv_pos_as_xyz
 x,y,z
_cell_length_a 42.0890
_cell_length_b 57.7531
_cell_length_c 44.8469
_cell_angle_alpha 90.040200
_cell_angle_beta 89.917900
_cell_angle_gamma 89.995100
loop_
  _atom_site_label
  _atom_site_type_symbol
  _atom_site_fract_x
  _atom_site_fract_y
  _atom_site_fract_z
O1 O 0.28615 0.22683 0.25576
 O2 O 0.24585 0.27336 0.21428
 O3 O 0.28709 0.27208 0.25722
 O4 O 0.24494 0.22851 0.21226
 O5 O 0.20643 0.22746 0.24572
 O6 O 0.24781 0.27199 0.28995
 O7 O 0.20644 0.27276 0.24687
 O8 O 0.24741 0.22696 0.28904
 Cu9 Cu 0.26998 0.25017 0.23162
 Cu10 Cu 0.22307 0.24975 0.27117
 C11 C 0.27367 0.21904 0.27953
 C12 C 0.21928 0.28095 0.22350
 C13 C 0.27450 0.27962 0.28107
 C14 C 0.21854 0.22049 0.22134
 O15 O 0.78830 0.27040 0.23962
 O16 O 0.74868 0.22750 0.28771
 O17 O 0.78675 0.22558 0.24239
 O18 O 0.75008 0.27280 0.28555
 O19 O 0.70821 0.27189 0.25591
 O20 O 0.74587 0.22570 0.21153
 O21 O 0.70743 0.22722 0.25733
 O22 O 0.74638 0.27091 0.21004
 Cu23 Cu 0.77257 0.24917 0.26691
 Cu24 Cu 0.72288 0.24891 0.23058
 C25 C 0.77408 0.27793 0.21664
 C26 C 0.72132 0.21998 0.28066
 C27 C 0.77264 0.21768 0.21956
 C28 C 0.72272 0.28016 0.27830
 O29 O 0.79583 0.72756 0.75052
 O30 O 0.75667 0.77352 0.70704
 O31 O 0.79621 0.77278 0.75153
 O32 O 0.75625 0.72826 0.70618
 O33 O 0.71584 0.72828 0.73769
 O34 O 0.75585 0.77268 0.78304
 O35 O 0.71611 0.77299 0.73838
 O36 O 0.75568 0.72761 0.78231
 Cu37 Cu 0.78031 0.75056 0.72566
 Cu38 Cu 0.73188 0.75037 0.76359
 C39 C 0.78240 0.71978 0.77382
 C40 C 0.72961 0.78093 0.71521
 C41 C 0.78283 0.78035 0.77501
 C42 C 0.72918 0.72079 0.71418
 O43 O 0.29288 0.77248 0.74912
 O44 O 0.25194 0.72663 0.79154
 O45 O 0.29217 0.72722 0.74776
 O46 O 0.25251 0.77164 0.79351
 O47 O 0.21395 0.77396 0.76030
 O48 O 0.25168 0.72749 0.71648
 O49 O 0.21110 0.72901 0.76078
 O50 O 0.25382 0.77255 0.71627
 Cu51 Cu 0.27643 0.74943 0.77366
 Cu52 Cu 0.22866 0.75079 0.73522
 C53 C 0.28039 0.78018 0.72533
 C54 C 0.22435 0.72028 0.78358
 C55 C 0.27848 0.71958 0.72455
 C56 C 0.22658 0.78052 0.78459
 C57 C 0.98444 -0.00163 0.00125
 C58 C 1.01675 -0.00095 0.00199
 C59 C 1.03402 0.01719 0.01868
 C60 C 1.03632 -0.01831 -0.01385
 C61 C 0.96713 -0.01859 -0.01765
 C62 C 0.96496 0.01455 0.01942
 C63 C 1.03326 0.04030 0.00912
 C64 C 1.04905 0.05744 0.02540
 C65 C 1.06522 0.05176 0.05180
 C66 C 1.06597 0.02857 0.06122
 C67 C 1.05089 0.01137 0.04452
 C68 C 1.05445 -0.01164 -0.03863
 C69 C 1.07153 -0.02815 -0.05482
 C70 C 1.07149 -0.05147 -0.04589
 C71 C 1.05416 -0.05796 -0.02043
 C72 C 1.03642 -0.04151 -0.00469
 C73 C 0.94413 -0.03309 -0.00485
 C74 C 0.92801 -0.04933 -0.02232
 C75 C 0.93458 -0.05135 -0.05297
 C76 C 0.95720 -0.03646 -0.06584
 C77 C 0.97306 -0.02009 -0.04840
 C78 C 0.96886 0.01583 0.05044
 C79 C 0.95120 0.03161 0.06725
 C80 C 0.92884 0.04616 0.05344
 C81 C 0.92424 0.04429 0.02246
 C82 C 0.94214 0.02861 0.00563
 H83 H 1.02039 0.04500 -0.01088
 H84 H 1.04805 0.07520 0.01772
 H85 H 1.07847 0.02372 0.08137
 H86 H 1.05169 -0.00643 0.05211
 H87 H 1.05462 0.00624 -0.04590
 H88 H 1.08487 -0.02269 -0.07425
 H89 H 1.02261 -0.04686 0.01451
 H90 H 0.93899 -0.03205 0.01879
 H91 H 0.91069 -0.06048 -0.01171
 H92 H 0.96254 -0.03733 -0.08943
 H93 H 0.98997 -0.00857 -0.05893
 H94 H 0.98565 0.00462 0.06164
 H95 H 0.95506 0.03237 0.09110
 H96 H 0.90716 0.05518 0.01112
 H97 H 0.93857 0.02771 -0.01826
 H98 H 1.05367 -0.07583 -0.01317
 C99 C 0.48335 0.50072 0.49912
 C100 C 0.51585 0.50091 0.49858
 C101 C 0.53452 0.51941 0.51380
 C102 C 0.53436 0.48260 0.48279
 C103 C 0.46460 0.48441 0.48041
 C104 C 0.46487 0.51675 0.51852
 C105 C 0.52709 0.54294 0.50986
 C106 C 0.54401 0.56003 0.52515
 C107 C 0.56946 0.55398 0.54381
 C108 C 0.57779 0.53055 0.54674
 C109 C 0.56036 0.51342 0.53203
 C110 C 0.55930 0.48882 0.46355
 C111 C 0.57648 0.47184 0.44825
 C112 C 0.56878 0.44832 0.45161
 C113 C 0.54429 0.44205 0.47132
 C114 C 0.52765 0.45899 0.48717
 C115 C 0.44100 0.47063 0.49358
 C116 C 0.42399 0.45465 0.47650
 C117 C 0.43021 0.45214 0.44585
 C118 C 0.45329 0.46642 0.43254
 C119 C 0.47010 0.48254 0.44960
 C120 C 0.47139 0.51860 0.54914
 C121 C 0.45466 0.53436 0.56687
 C122 C 0.43068 0.54829 0.55444
 C123 C 0.42350 0.54581 0.52398
 C124 C 0.44041 0.53019 0.50624
 H125 H 0.50799 0.54809 0.49513
 H126 H 0.53739 0.57800 0.52216
 H127 H 0.59731 0.52541 0.56099
 H128 H 0.56676 0.49543 0.53520
 H129 H 0.56515 0.50687 0.46004
 H130 H 0.59526 0.47714 0.43320
 H131 H 0.50929 0.45368 0.50266
 H132 H 0.43620 0.47191 0.51726
 H133 H 0.40633 0.44399 0.48746
 H134 H 0.45845 0.46513 0.40894
 H135 H 0.48770 0.49339 0.43884
 H136 H 0.48966 0.50799 0.55923
 H137 H 0.46058 0.53563 0.59030
 H138 H 0.40514 0.55621 0.51369
 H139 H 0.43482 0.52891 0.48273
 H140 H 0.53820 0.42402 0.47467
 C141 C 0.01389 0.49875 -0.00147
 C142 C -0.01817 0.49673 -0.00462
 C143 C -0.03682 0.47766 0.00937
 C144 C -0.03582 0.51382 -0.02278
 C145 C 0.03147 0.51684 -0.01808
 C146 C 0.03255 0.48367 0.01892
 C147 C -0.02674 0.45450 0.00721
 C148 C -0.04332 0.43692 0.02194
 C149 C -0.07098 0.44203 0.03822
 C150 C -0.08198 0.46497 0.03910
 C151 C -0.06499 0.48261 0.02496
 C152 C -0.03927 0.51051 -0.05355
 C153 C -0.05465 0.52721 -0.07089
 C154 C -0.06714 0.54733 -0.05759
 C155 C -0.06369 0.55046 -0.02667
 C156 C -0.04790 0.53394 -0.00948
 C157 C 0.03289 0.53953 -0.00704
 C158 C 0.04843 0.55682 -0.02331
 C159 C 0.06346 0.55146 -0.05043
 C160 C 0.06210 0.52868 -0.06134
 C161 C 0.04574 0.51160 -0.04554
 C162 C 0.02374 0.48110 0.04898
 C163 C 0.04032 0.46589 0.06758
 C164 C 0.06642 0.45326 0.05661
 C165 C 0.07586 0.45653 0.02684
 C166 C 0.05914 0.47155 0.00823
 H167 H -0.00576 0.45004 -0.00556
 H168 H -0.03459 0.41932 0.02049
 H169 H -0.10323 0.46942 0.05149
 H170 H -0.07359 0.50019 0.02688
 H171 H -0.02971 0.49515 -0.06413
 H172 H -0.05694 0.52432 -0.09465
 H173 H -0.04488 0.53689 0.01421
 H174 H 0.02165 0.54387 0.01398
 H175 H 0.04917 0.57427 -0.01448
 H176 H 0.07314 0.52423 -0.08241
 H177 H 0.04406 0.49432 -0.05479
 H178 H 0.00369 0.49062 0.05791
 H179 H 0.03259 0.46395 0.09048
 H180 H 0.09585 0.44713 0.01762
 H181 H 0.06659 0.47314 -0.01474
 H182 H -0.07275 0.56586 -0.01580
 C183 C 0.51557 1.00139 0.50154
 C184 C 0.48307 1.00102 0.50159
 C185 C 0.46486 0.98484 0.52100
 C186 C 0.46411 1.01671 0.48221
 C187 C 0.53379 1.01999 0.48602
 C188 C 0.53450 0.98312 0.51691
 C189 C 0.44106 0.97083 0.50864
 C190 C 0.42468 0.95491 0.52636
 C191 C 0.43175 0.95269 0.55687
 C192 C 0.45501 0.96722 0.56939
 C193 C 0.47118 0.98328 0.55169
 C194 C 0.47030 1.01835 0.45149
 C195 C 0.45331 1.03393 0.43379
 C196 C 0.42937 1.04788 0.44634
 C197 C 0.42247 1.04557 0.47690
 C198 C 0.43964 1.03013 0.49461
 C199 C 0.52586 1.04347 0.48978
 C200 C 0.54225 1.06063 0.47412
 C201 C 0.56772 1.05475 0.45536
 C202 C 0.57665 1.03142 0.45267
 C203 C 0.55968 1.01419 0.46767
 C204 C 0.55983 0.98938 0.53561
 C205 C 0.57744 0.97242 0.55044
 C206 C 0.56976 0.94889 0.54714
 C207 C 0.54484 0.94259 0.52800
 C208 C 0.52777 0.95951 0.51260
 H209 H 0.43563 0.97186 0.48507
 H210 H 0.40686 0.94406 0.51599
 H211 H 0.46080 0.96617 0.59286
 H212 H 0.48895 0.99431 0.56184
 H213 H 0.48858 1.00776 0.44131
 H214 H 0.45901 1.03508 0.41029
 H215 H 0.43430 1.02900 0.51820
 H216 H 0.50676 1.04851 0.50462
 H217 H 0.53522 1.07855 0.47692
 H218 H 0.59622 1.02644 0.43832
 H219 H 0.56649 0.99625 0.46462
 H220 H 0.56569 1.00745 0.53906
 H221 H 0.59654 0.97774 0.56506
 H222 H 0.53875 0.92455 0.52470
 H223 H 0.50908 0.95418 0.49751
 H224 H 0.40414 1.05597 0.48729
 C225 C 1.17221 0.17153 0.17117
 N226 N 1.19883 0.18199 0.16067
 N227 N 1.21394 0.19779 0.17702
 C228 C 1.20278 0.20391 0.20435
 N229 N 1.17600 0.19353 0.21476
 N230 N 1.16111 0.17753 0.19854
 C231 C 1.15583 0.15392 0.15328
 N232 N 1.13537 0.13880 0.16629
 N233 N 1.12087 0.12260 0.15011
 C234 C 1.12599 0.12111 0.12027
 N235 N 1.14627 0.13633 0.10722
 N236 N 1.16107 0.15235 0.12346
 C237 C 1.11009 0.10321 0.10248
 N238 N 1.10786 0.10528 0.07240
 N239 N 1.09341 0.08901 0.05629
 C240 C 1.08101 0.06991 0.06961
 N241 N 1.08341 0.06782 0.09969
 N242 N 1.09752 0.08422 0.11584
 C243 C 0.68249 0.67143 0.66201
 N244 N 0.71414 0.67516 0.65859
 N245 N 0.72904 0.69095 0.67514
 C246 C 0.71290 0.70337 0.69594
 N247 N 0.68130 0.69953 0.69948
 N248 N 0.66633 0.68394 0.68271
 C249 C 0.66593 0.65419 0.64369
 N250 N 0.63376 0.65443 0.64162
 N251 N 0.61864 0.63877 0.62505
 C252 C 0.63513 0.62216 0.61021
 N253 N 0.66730 0.62186 0.61236
 N254 N 0.68244 0.63768 0.62868
 C255 C 0.61835 0.60467 0.59244
 N256 N 0.63314 0.58479 0.58416
 N257 N 0.61764 0.56869 0.56864
 C258 C 0.58688 0.57198 0.56054
 N259 N 0.57221 0.59197 0.56864
 N260 N 0.58760 0.60796 0.58443
 C261 C -0.18030 0.32565 0.16117
 N262 N -0.21204 0.32192 0.15872
 N263 N -0.22660 0.30669 0.17637
 C264 C -0.20999 0.29482 0.19732
 N265 N -0.17828 0.29864 0.19987
 N266 N -0.16368 0.31371 0.18203
 C267 C -0.16422 0.34238 0.14169
 N268 N -0.13204 0.34265 0.13960
 N269 N -0.11741 0.35793 0.12209
 C270 C -0.13441 0.37363 0.10623
 N271 N -0.16659 0.37340 0.10836
 N272 N -0.18124 0.35797 0.12566
 C273 C -0.11823 0.39094 0.08768
 N274 N -0.13410 0.40986 0.07771
 N275 N -0.11915 0.42599 0.06176
 C276 C -0.08786 0.42370 0.05490
 N277 N -0.07210 0.40462 0.06464
 N278 N -0.08697 0.38859 0.08083
 C279 C 0.32597 0.83192 0.67609
 N280 N 0.29875 0.82205 0.66601
 N281 N 0.28433 0.80554 0.68172
 C282 C 0.29664 0.79822 0.70803
 N283 N 0.32391 0.80804 0.71811
 N284 N 0.33830 0.82461 0.70242
 C285 C 0.34166 0.85019 0.65870
 N286 N 0.36773 0.86125 0.66942
 N287 N 0.38183 0.87785 0.65355
 C288 C 0.37040 0.88394 0.62635
 N289 N 0.34436 0.87286 0.61564
 N290 N 0.33022 0.85633 0.63154
 C291 C 0.38605 0.90203 0.60861
 N292 N 0.37592 0.90681 0.58057
 N293 N 0.39031 0.92297 0.56425
 C294 C 0.41533 0.93507 0.57534
 N295 N 0.42534 0.93032 0.60349
 N296 N 0.41101 0.91410 0.61980
 C297 C -0.17338 0.66766 -0.17668
 N298 N -0.16202 0.67374 -0.20392
 N299 N -0.17604 0.69040 -0.21967
 C300 C -0.20205 0.70150 -0.20881
 N301 N -0.21348 0.69536 -0.18162
 N302 N -0.19933 0.67880 -0.16580
 C303 C -0.15780 0.64943 -0.15919
 N304 N -0.16600 0.64587 -0.13027
 N305 N -0.15172 0.62948 -0.11427
 C306 C -0.12888 0.61594 -0.12666
 N307 N -0.12077 0.61942 -0.15563
 N308 N -0.13490 0.63593 -0.17157
 C309 C -0.11305 0.59799 -0.10889
 N310 N -0.09365 0.58220 -0.12203
 N311 N -0.07923 0.56601 -0.10579
 C312 C -0.08348 0.56507 -0.07578
 N313 N -0.10288 0.58092 -0.06270
 N314 N -0.11746 0.59701 -0.07895
 C315 C 0.31923 1.16672 0.32767
 N316 N 0.33139 1.17420 0.30131
 N317 N 0.31692 1.19088 0.28593
 C318 C 0.28973 1.20066 0.29635
 N319 N 0.27756 1.19315 0.32267
 N320 N 0.29207 1.17652 0.33806
 C321 C 0.33525 1.14849 0.34483
 N322 N 0.32410 1.14220 0.37207
 N323 N 0.33872 1.12584 0.38786
 C324 C 0.36498 1.11511 0.37695
 N325 N 0.37609 1.12134 0.34966
 N326 N 0.36150 1.13775 0.33390
 C327 C 0.38131 1.09732 0.39463
 N328 N 0.40667 1.08574 0.38333
 N329 N 0.42173 1.06988 0.39962
 C330 C 0.41209 1.06503 0.42787
 N331 N 0.38664 1.07664 0.43908
 N332 N 0.37153 1.09244 0.42277
 C333 C 1.18254 -0.16943 -0.16513
 N334 N 1.17133 -0.17508 -0.19255
 N335 N 1.18556 -0.19138 -0.20879
 C336 C 1.21178 -0.20245 -0.19839
 N337 N 1.22312 -0.19666 -0.17103
 N338 N 1.20865 -0.18054 -0.15463
 C339 C 1.16658 -0.15164 -0.14718
 N340 N 1.17126 -0.15043 -0.11727
 N341 N 1.15636 -0.13446 -0.10097
 C342 C 1.13655 -0.11896 -0.11406
 N343 N 1.13205 -0.12008 -0.14399
 N344 N 1.14665 -0.13621 -0.16023
 C345 C 1.12008 -0.10135 -0.09622
 N346 N 1.10763 -0.08230 -0.10949
 N347 N 1.09248 -0.06634 -0.09341
 C348 C 1.08888 -0.06896 -0.06350
 N349 N 1.10123 -0.08810 -0.05025
 N350 N 1.11672 -0.10393 -0.06630
 C351 C 0.67832 0.33089 0.33016
 N352 N 0.71010 0.32727 0.33243
 N353 N 0.72434 0.31112 0.31589
 C354 C 0.70735 0.29822 0.29624
 N355 N 0.67562 0.30197 0.29383
 N356 N 0.66134 0.31793 0.31059
 C357 C 0.66239 0.34833 0.34872
 N358 N 0.63035 0.34789 0.35214
 N359 N 0.61576 0.36360 0.36906
 C360 C 0.63265 0.38047 0.38293
 N361 N 0.66469 0.38099 0.37941
 N362 N 0.67932 0.36512 0.36273
 C363 C 0.61640 0.39793 0.40123
 N364 N 0.63116 0.41800 0.40871
 N365 N 0.61607 0.43402 0.42477
 C366 C 0.58579 0.43045 0.43424
 N367 N 0.57116 0.41027 0.42693
 N368 N 0.58612 0.39437 0.41061
 C369 C 0.82712 -0.16985 -0.17454
 N370 N 0.79875 -0.17881 -0.16587
 N371 N 0.78436 -0.19494 -0.18226
 C372 C 0.79785 -0.20279 -0.20788
 N373 N 0.82627 -0.19385 -0.21650
 N374 N 0.84060 -0.17765 -0.20017
 C375 C 0.84296 -0.15204 -0.15650
 N376 N 0.86991 -0.14166 -0.16642
 N377 N 0.88428 -0.12550 -0.15006
 C378 C 0.87230 -0.11920 -0.12312
 N379 N 0.84538 -0.12962 -0.11318
 N380 N 0.83093 -0.14571 -0.12959
 C381 C 0.88827 -0.10150 -0.10501
 N382 N 0.87804 -0.09670 -0.07697
 N383 N 0.89270 -0.08077 -0.06047
 C384 C 0.91809 -0.06894 -0.07140
 N385 N 0.92821 -0.07376 -0.09951
 N386 N 0.91363 -0.08975 -0.11598
 C387 C 0.32071 0.33114 0.33013
 N388 N 0.33281 0.32372 0.30372
 N389 N 0.31819 0.30719 0.28819
 C390 C 0.29089 0.29753 0.29846
 N391 N 0.27878 0.30494 0.32487
 N392 N 0.29346 0.32142 0.34045
 C393 C 0.33676 0.34942 0.34719
 N394 N 0.32584 0.35580 0.37449
 N395 N 0.34042 0.37236 0.38998
 C396 C 0.36640 0.38322 0.37869
 N397 N 0.37728 0.37688 0.35137
 N398 N 0.36275 0.36027 0.33591
 C399 C 0.38261 0.40136 0.39588
 N400 N 0.40743 0.41317 0.38396
 N401 N 0.42236 0.42943 0.39971
 C402 C 0.41310 0.43448 0.42803
 N403 N 0.38820 0.42264 0.43987
 N404 N 0.37321 0.40643 0.42410
 C405 C 0.17636 0.67029 -0.16635
 N406 N 0.20851 0.67190 -0.16521
 N407 N 0.22380 0.68792 -0.18106
 C408 C 0.20751 0.70267 -0.19896
 N409 N 0.17537 0.70096 -0.20026
 N410 N 0.16005 0.68515 -0.18409
 C411 C 0.15954 0.65274 -0.14874
 N412 N 0.12835 0.65545 -0.14180
 N413 N 0.11314 0.63952 -0.12571
 C414 C 0.12848 0.62018 -0.11633
 N415 N 0.15961 0.61741 -0.12342
 N416 N 0.17493 0.63348 -0.13916
 C417 C 0.11166 0.60244 -0.09904
 N418 N 0.12268 0.58037 -0.09824
 N419 N 0.10726 0.56415 -0.08287
 C420 C 0.08048 0.56947 -0.06738
 N421 N 0.06961 0.59161 -0.06799
 N422 N 0.08480 0.60777 -0.08370
 C423 C 0.67683 1.17205 0.33383
 N424 N 0.70727 1.17847 0.33941
 N425 N 0.72169 1.19412 0.32226
 C426 C 0.70632 1.20370 0.29867
 N427 N 0.67593 1.19713 0.29302
 N428 N 0.66139 1.18171 0.31038
 C429 C 0.66080 1.15493 0.35275
 N430 N 0.62862 1.15338 0.35293
 N431 N 0.61400 1.13780 0.37000
 C432 C 0.63104 1.12302 0.38722
 N433 N 0.66323 1.12449 0.38694
 N434 N 0.67785 1.14027 0.37015
 C435 C 0.61486 1.10555 0.40549
 N436 N 0.63071 1.08658 0.41534
 N437 N 0.61576 1.07043 0.43126
 C438 C 0.58451 1.07281 0.43823
 N439 N 0.56877 1.09191 0.42858
 N440 N 0.58362 1.10791 0.41236
 C441 C 0.17428 0.33391 0.17610
 N442 N 0.16128 0.32559 0.20167
 N443 N 0.17556 0.30868 0.21679
 C444 C 0.20336 0.29950 0.20689
 N445 N 0.21635 0.30785 0.18135
 N446 N 0.20205 0.32472 0.16622
 C447 C 0.15857 0.35241 0.15918
 N448 N 0.17107 0.35983 0.13296
 N449 N 0.15675 0.37639 0.11731
 C450 C 0.12945 0.38622 0.12732
 N451 N 0.11698 0.37887 0.15361
 N452 N 0.13128 0.36226 0.16926
 C453 C 0.11347 0.40411 0.10956
 N454 N 0.08657 0.41454 0.11958
 N455 N 0.07182 0.43036 0.10297
 C456 C 0.08334 0.43633 0.07571
 N457 N 0.11034 0.42592 0.06586
 N458 N 0.12512 0.41016 0.08246
 C459 C 0.68320 0.83125 0.66448
 N460 N 0.66696 0.81839 0.68472
 N461 N 0.68186 0.80251 0.70106
 C462 C 0.71347 0.79875 0.69754
 N463 N 0.72972 0.81154 0.67721
 N464 N 0.71487 0.82761 0.66109
 C465 C 0.66664 0.84869 0.64650
 N466 N 0.68310 0.86549 0.63200
 N467 N 0.66791 0.88140 0.61590
 C468 C 0.63576 0.88093 0.61348
 N469 N 0.61934 0.86405 0.62784
 N470 N 0.63449 0.84829 0.64418
 C471 C 0.61892 0.89843 0.59583
 N472 N 0.58836 0.89489 0.58738
 N473 N 0.57289 0.91082 0.57161
 C474 C 0.58728 0.93102 0.56396
 N475 N 0.61784 0.93457 0.57252
 N476 N 0.63344 0.91852 0.58802
 C477 C 0.81618 0.16495 0.17040
 N478 N 0.82884 0.17231 0.19654
 N479 N 0.81489 0.18909 0.21217
 C480 C 0.78768 0.19907 0.20230
 N481 N 0.77490 0.19166 0.17619
 N482 N 0.78895 0.17492 0.16048
 C483 C 0.83198 0.14667 0.15310
 N484 N 0.82139 0.14070 0.12556
 N485 N 0.83622 0.12437 0.10978
 C486 C 0.86207 0.11337 0.12104
 N487 N 0.87254 0.11928 0.14862
 N488 N 0.85781 0.13565 0.16433
 C489 C 0.87882 0.09562 0.10361
 N490 N 0.90333 0.08369 0.11581
 N491 N 0.91898 0.06787 0.09995
 C492 C 0.91084 0.06339 0.07121
 N493 N 0.88625 0.07535 0.05905
 N494 N 0.87051 0.09114 0.07495
 C495 C 0.32240 0.66750 0.67448
 N496 N 0.29485 0.67726 0.66502
 N497 N 0.28080 0.69384 0.68097
 C498 C 0.29388 0.70133 0.70690
 N499 N 0.32145 0.69160 0.71633
 N500 N 0.33543 0.67497 0.70043
 C501 C 0.33798 0.64927 0.65690
 N502 N 0.36446 0.63857 0.66730
 N503 N 0.37875 0.62214 0.65129
 C504 C 0.36712 0.61584 0.62426
 N505 N 0.34063 0.62653 0.61385
 N506 N 0.32628 0.64291 0.62990
 C507 C 0.38319 0.59800 0.60640
 N508 N 0.37308 0.59299 0.57841
 N509 N 0.38803 0.57712 0.56201
 C510 C 0.41361 0.56556 0.57297
 N511 N 0.42357 0.57054 0.60106
 N512 N 0.40868 0.58646 0.61744
   
