data_POSCAR
  _audit_creation_date              2014-09-24
  _audit_creation_method            'ToBaCCo'
  _symmetry_space_group_name_H-M    'P1'
  _symmetry_Int_Tables_number       1
  _symmetry_cell_setting            triclinic
  loop_
  _symmetry_equiv_pos_as_xyz
 x,y,z
_cell_length_a 52.3538
_cell_length_b 52.2439
_cell_length_c 46.8399
_cell_angle_alpha 90.031200
_cell_angle_beta 89.979600
_cell_angle_gamma 120.201600
loop_
  _atom_site_label
  _atom_site_type_symbol
  _atom_site_fract_x
  _atom_site_fract_y
  _atom_site_fract_z
O1 O -0.01042 0.52590 0.04749
 O2 O -0.05035 0.45508 0.00867
 O3 O -0.01301 0.47546 0.05161
 O4 O -0.04820 0.50594 0.00571
 O5 O -0.01230 0.51970 -0.02573
 O6 O 0.02432 0.49141 0.02144
 O7 O -0.01278 0.47016 -0.02103
 O8 O 0.02582 0.54193 0.01603
 Cu9 Cu -0.03426 0.48892 0.03138
 Cu10 Cu 0.01001 0.50737 -0.00534
 C11 C 0.01453 0.54602 0.03834
 C12 C -0.03844 0.45058 -0.01296
 C13 C 0.01194 0.47877 0.04473
 C14 C -0.03657 0.51769 -0.01810
 O15 O 0.53497 0.50918 -0.01899
 O16 O 0.46765 0.48068 0.02528
 O17 O 0.48306 0.46144 -0.01904
 O18 O 0.51991 0.52785 0.02633
 O19 O 0.50321 0.55032 -0.00139
 O20 O 0.46776 0.48440 -0.04774
 O21 O 0.45143 0.50321 -0.00301
 O22 O 0.51846 0.53189 -0.04670
 Cu23 Cu 0.50306 0.49256 0.00622
 Cu24 Cu 0.48350 0.51969 -0.02744
 C25 C 0.53788 0.52499 -0.04075
 C26 C 0.44820 0.48743 0.01880
 C27 C 0.46973 0.46174 -0.04160
 C28 C 0.51748 0.55027 0.02054
 O29 O 0.49606 1.03409 -0.01013
 O30 O 0.52648 0.99679 0.03333
 O31 O 0.54660 1.03647 -0.00754
 O32 O 0.47591 0.99489 0.03076
 O33 O 0.46090 0.95866 -0.00068
 O34 O 0.53110 1.00094 -0.03969
 O35 O 0.51143 0.96138 0.00103
 O36 O 0.47992 0.99783 -0.04163
 Cu37 Cu 0.51286 1.01914 0.01483
 Cu38 Cu 0.49436 0.97619 -0.02350
 C39 C 0.48284 1.02234 -0.03339
 C40 C 0.52377 0.97245 0.02478
 C41 C 0.55083 1.02614 -0.03049
 C42 C 0.45651 0.96945 0.02185
 O43 O 0.97303 0.51438 0.50381
 O44 O 1.01278 0.48321 0.46575
 O45 O 0.97244 0.46443 0.50559
 O46 O 1.01437 0.53363 0.46492
 O47 O 1.04755 0.55219 0.49929
 O48 O 1.00795 0.48120 0.53782
 O49 O 1.04849 0.50293 0.49778
 O50 O 1.00637 0.52991 0.53817
 Cu51 Cu 0.98971 0.49715 0.48167
 Cu52 Cu 1.03108 0.51828 0.52158
 C53 C 0.98251 0.52679 0.52788
 C54 C 1.03780 0.48843 0.47484
 C55 C 0.98299 0.46100 0.52876
 C56 C 1.03811 0.55488 0.47513
 O57 O 0.52596 0.52266 0.46493
 O58 O 0.49676 0.45103 0.50185
 O59 O 0.48076 0.47044 0.45761
 O60 O 0.54246 0.50370 0.50879
 O61 O 0.51582 0.51463 0.53742
 O62 O 0.45413 0.48152 0.48613
 O63 O 0.47012 0.46245 0.52993
 O64 O 0.49950 0.53407 0.49327
 Cu65 Cu 0.51414 0.48576 0.48051
 Cu66 Cu 0.48235 0.49942 0.51455
 C67 C 0.51727 0.54040 0.47246
 C68 C 0.47857 0.44455 0.52232
 C69 C 0.45707 0.47066 0.46293
 C70 C 0.53955 0.51450 0.53204
 O71 O 0.48057 0.00508 0.53757
 O72 O 0.50977 -0.03429 0.49536
 O73 O 0.52890 0.00249 0.53847
 O74 O 0.46081 -0.03284 0.49567
 O75 O 0.48158 0.00320 0.46410
 O76 O 0.54846 0.04052 0.50894
 O77 O 0.53130 0.00388 0.46609
 O78 O 0.49952 0.04156 0.50628
 Cu79 Cu 0.49302 -0.01862 0.51982
 Cu80 Cu 0.51714 0.02603 0.48332
 C81 C 0.48517 0.03017 0.52911
 C82 C 0.52561 -0.02183 0.47349
 C83 C 0.55013 0.02776 0.53137
 C84 C 0.45970 -0.02131 0.47217
 C85 C 0.12511 0.40556 0.26707
 C86 C 0.12411 0.40558 0.23782
 C87 C 0.15203 0.41289 0.22827
 N88 N 0.16991 0.41692 0.25072
 C89 C 0.15347 0.41234 0.27447
 C90 C 0.16141 0.41852 0.19948
 C91 C 0.18906 0.42278 0.19030
 C92 C 0.20197 0.43459 0.16411
 C93 C 0.22778 0.43380 0.16286
 C94 C 0.23024 0.42191 0.18849
 N95 N 0.20635 0.41492 0.20496
 C96 C 0.25336 0.41638 0.19537
 C97 C 0.25848 0.40978 0.22328
 C98 C 0.27879 0.40121 0.23041
 C99 C 0.27923 0.40011 0.25964
 C100 C 0.25955 0.40853 0.26945
 N101 N 0.24684 0.41433 0.24719
 C102 C 0.25576 0.41354 0.29841
 C103 C 0.23332 0.41918 0.30775
 C104 C 0.23259 0.43050 0.33433
 C105 C 0.20683 0.43137 0.33561
 C106 C 0.19264 0.42097 0.30961
 N107 N 0.20878 0.41326 0.29286
 C108 C 0.16469 0.41730 0.30260
 H109 H 0.10710 0.40154 0.28117
 H110 H 0.10513 0.40137 0.22509
 H111 H 0.20200 0.40183 0.27363
 H112 H 0.19370 0.44291 0.14751
 H113 H 0.24287 0.44109 0.14495
 H114 H 0.29235 0.39674 0.21616
 H115 H 0.29302 0.39445 0.27222
 H116 H 0.19947 0.43874 0.35377
 H117 H 0.20071 0.40279 0.22381
 H118 H 0.24886 0.43739 0.35119
 C119 C 0.55629 0.85339 0.27175
 C120 C 0.55750 0.85575 0.24253
 C121 C 0.56901 0.83857 0.23277
 N122 N 0.57501 0.82596 0.25500
 C123 C 0.56717 0.83490 0.27884
 C124 C 0.57488 0.83555 0.20391
 C125 C 0.58098 0.81339 0.19469
 C126 C 0.59254 0.81276 0.16821
 C127 C 0.59145 0.78595 0.16620
 C128 C 0.57944 0.77105 0.19157
 N129 N 0.57334 0.78800 0.20890
 C130 C 0.57161 0.74140 0.19707
 C131 C 0.56681 0.72968 0.22502
 C132 C 0.55520 0.70004 0.23180
 C133 C 0.55552 0.69842 0.26104
 C134 C 0.56714 0.72709 0.27113
 N135 N 0.57417 0.74617 0.24909
 C136 C 0.57212 0.73552 0.30017
 C137 C 0.57826 0.76375 0.30970
 C138 C 0.58887 0.77533 0.33660
 C139 C 0.58839 0.80136 0.33858
 C140 C 0.57765 0.80501 0.31278
 N141 N 0.57170 0.78210 0.29524
 C142 C 0.57099 0.82753 0.30691
 H143 H 0.54818 0.86396 0.28607
 H144 H 0.55044 0.86844 0.22995
 H145 H 0.56001 0.77726 0.27617
 H146 H 0.60021 0.82953 0.15173
 H147 H 0.59814 0.77805 0.14792
 H148 H 0.54718 0.68146 0.21728
 H149 H 0.54779 0.67838 0.27344
 H150 H 0.59470 0.81569 0.35708
 H151 H 0.56078 0.78085 0.22747
 H152 H 0.59559 0.76567 0.35333
 C153 C 0.13250 0.72827 0.27049
 C154 C 0.12941 0.72781 0.24138
 C155 C 0.15753 0.74547 0.23031
 N156 N 0.17761 0.75683 0.25158
 C157 C 0.16239 0.74616 0.27613
 C158 C 0.16497 0.74746 0.20114
 C159 C 0.19248 0.77003 0.19057
 C160 C 0.20381 0.77035 0.16373
 C161 C 0.23026 0.79652 0.16158
 C162 C 0.23466 0.81122 0.18739
 N163 N 0.21132 0.79514 0.20475
 C164 C 0.25902 0.83942 0.19392
 C165 C 0.26625 0.85042 0.22208
 C166 C 0.28761 0.87905 0.22936
 C167 C 0.29037 0.87961 0.25850
 C168 C 0.27105 0.85115 0.26806
 N169 N 0.25618 0.83340 0.24578
 C170 C 0.26973 0.84108 0.29635
 C171 C 0.24721 0.81288 0.30559
 C172 C 0.24865 0.79826 0.32972
 C173 C 0.22208 0.77214 0.33158
 C174 C 0.20513 0.77159 0.30861
 N175 N 0.22057 0.79655 0.29293
 C176 C 0.17581 0.74895 0.30294
 H177 H 0.11492 0.71603 0.28571
 H178 H 0.10900 0.71516 0.22963
 H179 H 0.21241 0.80332 0.27605
 H180 H 0.19415 0.75357 0.14730
 H181 H 0.24456 0.80371 0.14308
 H182 H 0.30040 0.89752 0.21520
 H183 H 0.30553 0.89862 0.27110
 H184 H 0.21609 0.75543 0.34792
 H185 H 0.20729 0.80215 0.22417
 H186 H 0.26703 0.80548 0.34432
 C187 C 0.72065 0.59250 0.73460
 C188 C 0.72070 0.59221 0.76392
 C189 C 0.73816 0.58047 0.77205
 N190 N 0.74895 0.57381 0.74876
 C191 C 0.73812 0.58098 0.72585
 C192 C 0.74143 0.57301 0.80028
 C193 C 0.76337 0.56598 0.80762
 C194 C 0.76330 0.55093 0.83204
 C195 C 0.78921 0.55020 0.83184
 C196 C 0.80438 0.56486 0.80734
 N197 N 0.78844 0.57436 0.79268
 C198 C 0.83278 0.57037 0.79950
 C199 C 0.84335 0.57806 0.77130
 C200 C 0.87232 0.58869 0.76275
 C201 C 0.87221 0.58883 0.73346
 C202 C 0.84320 0.57839 0.72518
 N203 N 0.82565 0.57202 0.74832
 C204 C 0.83249 0.57097 0.69700
 C205 C 0.80435 0.56617 0.68914
 C206 C 0.78939 0.55242 0.66425
 C207 C 0.76353 0.55329 0.66439
 C208 C 0.76344 0.56753 0.68936
 N209 N 0.78842 0.57535 0.70428
 C210 C 0.74136 0.57418 0.69736
 H211 H 0.70869 0.59983 0.72126
 H212 H 0.70879 0.59928 0.77766
 H213 H 0.79546 0.58867 0.72245
 H214 H 0.74633 0.54136 0.84827
 H215 H 0.79599 0.53992 0.84788
 H216 H 0.89136 0.59486 0.77621
 H217 H 0.89112 0.59509 0.71979
 H218 H 0.74667 0.54427 0.64802
 H219 H 0.79561 0.58835 0.77499
 H220 H 0.79626 0.54265 0.64776
 C221 C 0.44397 0.14608 0.73998
 C222 C 0.44607 0.14860 0.76914
 C223 C 0.43359 0.16550 0.77706
 N224 N 0.42387 0.17328 0.75374
 C225 C 0.43030 0.16153 0.73105
 C226 C 0.43014 0.17230 0.80550
 C227 C 0.42207 0.19361 0.81264
 C228 C 0.41374 0.19742 0.83968
 C229 C 0.41064 0.22200 0.83847
 C230 C 0.41673 0.23240 0.81059
 N231 N 0.42381 0.21498 0.79506
 C232 C 0.41838 0.25889 0.80086
 C233 C 0.41983 0.26636 0.77160
 C234 C 0.42482 0.29339 0.76131
 C235 C 0.42395 0.29142 0.73212
 C236 C 0.41779 0.26303 0.72542
 N237 N 0.41507 0.24769 0.74959
 C238 C 0.41368 0.25138 0.69744
 C239 C 0.40990 0.22319 0.69137
 C240 C 0.39893 0.20803 0.66590
 C241 C 0.40135 0.18304 0.66738
 C242 C 0.41392 0.18375 0.69365
 N243 N 0.41891 0.20822 0.70819
 C244 C 0.42286 0.16358 0.70248
 H245 H 0.45182 0.13438 0.72688
 H246 H 0.45583 0.13920 0.78289
 H247 H 0.43145 0.21634 0.72665
 H248 H 0.41087 0.18428 0.85854
 H249 H 0.40515 0.23135 0.85642
 H250 H 0.42868 0.31265 0.77341
 H251 H 0.42733 0.30894 0.71759
 H252 H 0.39515 0.16657 0.65075
 H253 H 0.43305 0.21966 0.77479
 H254 H 0.39048 0.21456 0.64794
 C255 C 0.70769 0.14928 0.76206
 C256 C 0.70855 0.15144 0.73285
 C257 C 0.73799 0.16937 0.72541
 N258 N 0.75511 0.17821 0.74906
 C259 C 0.73662 0.16605 0.77149
 C260 C 0.74892 0.17619 0.69719
 C261 C 0.77828 0.19828 0.69094
 C262 C 0.79232 0.20143 0.66500
 C263 C 0.81924 0.22716 0.66665
 C264 C 0.82082 0.23906 0.69352
 N265 N 0.79585 0.22119 0.70825
 C266 C 0.84356 0.26711 0.70281
 C267 C 0.84759 0.27561 0.73185
 C268 C 0.86561 0.30419 0.74185
 C269 C 0.86421 0.30262 0.77110
 C270 C 0.84542 0.27312 0.77799
 N271 N 0.83537 0.25665 0.75397
 C272 C 0.83886 0.26152 0.80600
 C273 C 0.81606 0.23235 0.81196
 C274 C 0.81288 0.21750 0.83741
 C275 C 0.78654 0.19115 0.83573
 C276 C 0.77431 0.19072 0.80935
 N277 N 0.79254 0.21584 0.79493
 C278 C 0.74579 0.16888 0.80025
 H279 H 0.68798 0.13696 0.77488
 H280 H 0.68963 0.14108 0.71875
 H281 H 0.78738 0.22308 0.77630
 H282 H 0.78381 0.18697 0.64662
 H283 H 0.83550 0.23641 0.64975
 H284 H 0.87828 0.32414 0.72940
 H285 H 0.87562 0.32113 0.78559
 H286 H 0.77716 0.17449 0.85230
 H287 H 0.78946 0.22640 0.72740
 H288 H 0.82777 0.22510 0.85550
 C289 C 0.02055 0.46627 0.09386
 C290 C 0.03619 0.45889 0.11309
 C291 C 0.05803 0.45309 0.10335
 C292 C 0.06413 0.45472 0.07397
 C293 C 0.04894 0.46279 0.05473
 C294 C 0.02705 0.46871 0.06454
 N295 N 0.07462 0.44713 0.12386
 N296 N 0.08975 0.43510 0.11722
 C297 C 0.10727 0.43083 0.13808
 C298 C 0.11577 0.40973 0.13318
 C299 C 0.13289 0.40527 0.15332
 C300 C 0.14240 0.42247 0.17832
 C301 C 0.13431 0.44403 0.18289
 C302 C 0.11659 0.44793 0.16314
 H303 H 0.00398 0.47096 0.10206
 H304 H 0.03144 0.45787 0.13570
 H305 H 0.08114 0.45057 0.06603
 H306 H 0.05438 0.46453 0.03224
 H307 H 0.10884 0.39652 0.11389
 H308 H 0.13895 0.38858 0.14935
 H309 H 0.14176 0.45785 0.20179
 H310 H 0.11063 0.46467 0.16719
 C311 C 0.54924 0.57799 0.06244
 C312 C 0.55937 0.60101 0.08236
 C313 C 0.55066 0.62226 0.08050
 C314 C 0.53255 0.62092 0.05773
 C315 C 0.52264 0.59810 0.03763
 C316 C 0.53042 0.57605 0.04008
 N317 N 0.55926 0.64399 0.10265
 N318 N 0.54883 0.66132 0.10411
 C319 C 0.55632 0.68243 0.12666
 C320 C 0.54107 0.69797 0.12858
 C321 C 0.54634 0.71734 0.15128
 C322 C 0.56723 0.72170 0.17235
 C323 C 0.58320 0.70677 0.17001
 C324 C 0.57766 0.68711 0.14741
 H325 H 0.55571 0.56141 0.06486
 H326 H 0.57334 0.60181 0.09979
 H327 H 0.52560 0.63717 0.05575
 H328 H 0.50814 0.59722 0.02069
 H329 H 0.52456 0.69453 0.11275
 H330 H 0.53377 0.72861 0.15271
 H331 H 0.59958 0.71003 0.18592
 H332 H 0.58981 0.67541 0.14630
 C333 C 0.41303 0.92081 0.03565
 C334 C 0.38873 0.90376 0.05324
 C335 C 0.37965 0.91734 0.07336
 C336 C 0.39494 0.94838 0.07551
 C337 C 0.41964 0.96546 0.05831
 C338 C 0.42908 0.95180 0.03840
 N339 N 0.35626 0.89909 0.09261
 N340 N 0.34305 0.90908 0.10779
 C341 C 0.32118 0.89078 0.12835
 C342 C 0.30164 0.89940 0.13902
 C343 C 0.28080 0.88232 0.15984
 C344 C 0.27984 0.85683 0.17071
 C345 C 0.29956 0.84833 0.16018
 C346 C 0.31986 0.86497 0.13893
 H347 H 0.41992 0.90967 0.02065
 H348 H 0.37721 0.87985 0.05153
 H349 H 0.38843 0.95932 0.09110
 H350 H 0.43160 0.98931 0.06084
 H351 H 0.30258 0.91935 0.13117
 H352 H 0.26581 0.88923 0.16790
 H353 H 0.29925 0.82885 0.16855
 H354 H 0.33500 0.85809 0.13128
 C355 C 0.94398 0.54179 0.53136
 C356 C 0.92631 0.54929 0.54772
 C357 C 0.92900 0.55107 0.57749
 C358 C 0.95053 0.54657 0.59068
 C359 C 0.96860 0.53973 0.57436
 C360 C 0.96514 0.53671 0.54459
 N361 N 0.90923 0.55650 0.59410
 N362 N 0.90472 0.54915 0.62030
 C363 C 0.88567 0.55432 0.63824
 C364 C 0.87712 0.53960 0.66443
 C365 C 0.85925 0.54450 0.68304
 C366 C 0.85019 0.56488 0.67606
 C367 C 0.85855 0.57954 0.64961
 C368 C 0.87605 0.57415 0.63067
 H369 H 0.94096 0.53973 0.50843
 H370 H 0.90987 0.55281 0.53728
 H371 H 0.95323 0.54812 0.61365
 H372 H 0.98465 0.53586 0.58514
 H373 H 0.88436 0.52424 0.67042
 H374 H 0.85278 0.53268 0.70315
 H375 H 0.85183 0.59536 0.64384
 H376 H 0.88256 0.58586 0.61052
 C377 C 0.48077 0.39881 0.53377
 C378 C 0.47242 0.37372 0.55060
 C379 C 0.45087 0.36564 0.57179
 C380 C 0.43707 0.38255 0.57552
 C381 C 0.44552 0.40775 0.55886
 C382 C 0.46779 0.41642 0.53810
 N383 N 0.44494 0.34158 0.59049
 N384 N 0.42486 0.33234 0.60951
 C385 C 0.42052 0.30975 0.62950
 C386 C 0.39726 0.29968 0.64916
 C387 C 0.39420 0.27980 0.67070
 C388 C 0.41470 0.27005 0.67304
 C389 C 0.43739 0.27935 0.65275
 C390 C 0.44028 0.29900 0.63110
 H391 H 0.49801 0.40492 0.51799
 H392 H 0.48329 0.36093 0.54759
 H393 H 0.42040 0.37681 0.59184
 H394 H 0.43503 0.42077 0.56267
 H395 H 0.38192 0.30783 0.64817
 H396 H 0.37645 0.27270 0.68607
 H397 H 0.45338 0.27203 0.65421
 H398 H 0.45848 0.30649 0.61622
 C399 C 0.58071 0.02726 0.57227
 C400 C 0.60476 0.04184 0.59079
 C401 C 0.62494 0.07206 0.58742
 C402 C 0.62136 0.08747 0.56463
 C403 C 0.59748 0.07286 0.54590
 C404 C 0.57664 0.04269 0.54979
 N405 N 0.64801 0.08676 0.60807
 N406 N 0.66495 0.11474 0.60819
 C407 C 0.68734 0.12958 0.62944
 C408 C 0.70244 0.16054 0.63047
 C409 C 0.72285 0.17569 0.65219
 C410 C 0.72864 0.16001 0.67309
 C411 C 0.71425 0.12898 0.67150
 C412 C 0.69360 0.11382 0.64992
 H413 H 0.56512 0.00399 0.57577
 H414 H 0.60728 0.02972 0.60826
 H415 H 0.63673 0.11085 0.56153
 H416 H 0.59494 0.08537 0.52882
 H417 H 0.69780 0.17291 0.61482
 H418 H 0.73369 0.19963 0.65308
 H419 H 0.71860 0.11653 0.68730
 H420 H 0.68230 0.08987 0.64948
 C421 C 0.45225 0.02271 0.92569
 C422 C 0.44286 0.03763 0.90762
 C423 C 0.45271 0.06769 0.91183
 C424 C 0.47141 0.08258 0.93500
 C425 C 0.48055 0.06759 0.95332
 C426 C 0.47142 0.03761 0.94859
 N427 N 0.44425 0.08273 0.89174
 N428 N 0.45550 0.11073 0.89197
 C429 C 0.44755 0.12572 0.87131
 C430 C 0.46386 0.15669 0.87006
 C431 C 0.45794 0.17189 0.84894
 C432 C 0.43532 0.15627 0.82897
 C433 C 0.41836 0.12527 0.83077
 C434 C 0.42452 0.11006 0.85167
 H435 H 0.44473 -0.00041 0.92157
 H436 H 0.42842 0.02593 0.88986
 H437 H 0.47923 0.10582 0.93874
 H438 H 0.49536 0.07968 0.97074
 H439 H 0.48166 0.16899 0.88506
 H440 H 0.47130 0.19580 0.84784
 H441 H 0.40073 0.11287 0.81562
 H442 H 0.41151 0.08612 0.85229
 C443 C 0.56099 0.54130 0.91126
 C444 C 0.58372 0.54781 0.89192
 C445 C 0.60943 0.54828 0.90080
 C446 C 0.61233 0.54228 0.92949
 C447 C 0.58924 0.53508 0.94881
 C448 C 0.56330 0.53442 0.93980
 N449 N 0.63134 0.55323 0.87986
 N450 N 0.65779 0.56067 0.88626
 C451 C 0.67850 0.56391 0.86457
 C452 C 0.70884 0.58113 0.86997
 C453 C 0.72935 0.58462 0.84894
 C454 C 0.71973 0.57024 0.82244
 C455 C 0.68926 0.55250 0.81733
 C456 C 0.66882 0.54965 0.83805
 H457 H 0.54117 0.54069 0.90362
 H458 H 0.58120 0.55224 0.86982
 H459 H 0.63197 0.54228 0.93671
 H460 H 0.59155 0.52981 0.97068
 H461 H 0.71658 0.59213 0.89037
 H462 H 0.75273 0.59838 0.85337
 H463 H 0.68130 0.54075 0.79730
 H464 H 0.64547 0.53587 0.83355
 C465 C 0.91482 0.40348 0.97513
 C466 C 0.89876 0.37895 0.95736
 C467 C 0.91270 0.37322 0.93479
 C468 C 0.94322 0.39187 0.93065
 C469 C 0.95926 0.41649 0.94826
 C470 C 0.94515 0.42285 0.97040
 N471 N 0.89516 0.34964 0.91534
 N472 N 0.90664 0.34286 0.89486
 C473 C 0.88911 0.32062 0.87424
 C474 C 0.90334 0.31345 0.85305
 C475 C 0.88702 0.29361 0.83126
 C476 C 0.85618 0.28090 0.83023
 C477 C 0.84183 0.28752 0.85187
 C478 C 0.85814 0.30719 0.87376
 H479 H 0.90329 0.40781 0.99195
 H480 H 0.87523 0.36478 0.96073
 H481 H 0.95452 0.38795 0.91333
 H482 H 0.98261 0.43091 0.94410
 H483 H 0.92718 0.32369 0.85316
 H484 H 0.89845 0.28863 0.81484
 H485 H 0.81806 0.27796 0.85140
 H486 H 0.84663 0.31247 0.88983
 C487 C 0.55815 0.97776 0.43458
 C488 C 0.56716 0.96263 0.41637
 C489 C 0.55497 0.93200 0.41887
 C490 C 0.53431 0.91667 0.44061
 C491 C 0.52546 0.93184 0.45907
 C492 C 0.53689 0.96246 0.45589
 N493 N 0.56284 0.91695 0.39821
 N494 N 0.55032 0.88885 0.39723
 C495 C 0.55740 0.87393 0.37570
 C496 C 0.54058 0.84303 0.37399
 C497 C 0.54537 0.82793 0.35191
 C498 C 0.56727 0.84360 0.33130
 C499 C 0.58480 0.87452 0.33352
 C500 C 0.57984 0.88963 0.35549
 H501 H 0.56748 1.00137 0.43167
 H502 H 0.58310 0.97467 0.39971
 H503 H 0.52462 0.89297 0.44300
 H504 H 0.50903 0.91945 0.47525
 H505 H 0.52322 0.83070 0.38940
 H506 H 0.53162 0.80407 0.35053
 H507 H 0.60193 0.88694 0.31793
 H508 H 0.59321 0.91353 0.35642
 C509 C 0.43956 0.45815 0.41251
 C510 C 0.41765 0.45021 0.39178
 C511 C 0.38889 0.44256 0.39965
 C512 C 0.38208 0.44256 0.42867
 C513 C 0.40413 0.45109 0.44940
 C514 C 0.43315 0.45922 0.44148
 N515 N 0.36765 0.43691 0.37773
 N516 N 0.34006 0.42440 0.38278
 C517 C 0.31942 0.42087 0.36090
 C518 C 0.28937 0.40035 0.36473
 C519 C 0.26870 0.39733 0.34410
 C520 C 0.27780 0.41541 0.31968
 C521 C 0.30795 0.43613 0.31601
 C522 C 0.32864 0.43861 0.33627
 H523 H 0.46177 0.46452 0.40576
 H524 H 0.42318 0.45045 0.36946
 H525 H 0.36003 0.43696 0.43520
 H526 H 0.39860 0.45172 0.47157
 H527 H 0.28198 0.38668 0.38370
 H528 H 0.24556 0.38127 0.34736
 H529 H 0.31540 0.45057 0.29755
 H530 H 0.35170 0.45492 0.33305
 C531 C 0.07952 0.60580 0.47092
 C532 C 0.09646 0.63119 0.45443
 C533 C 0.08903 0.63211 0.42593
 C534 C 0.06358 0.60790 0.41441
 C535 C 0.04619 0.58284 0.43099
 C536 C 0.05429 0.58110 0.45931
 N537 N 0.10798 0.65724 0.40867
 N538 N 0.10851 0.65466 0.38170
 C539 C 0.12653 0.67890 0.36318
 C540 C 0.13174 0.67256 0.33555
 C541 C 0.14847 0.69539 0.31643
 C542 C 0.15957 0.72508 0.32437
 C543 C 0.15454 0.73153 0.35224
 C544 C 0.13829 0.70856 0.37167
 H545 H 0.08639 0.60550 0.49267
 H546 H 0.11597 0.64979 0.46359
 H547 H 0.05723 0.60831 0.39249
 H548 H 0.02692 0.56447 0.42123
 H549 H 0.12283 0.64979 0.32884
 H550 H 0.15238 0.68988 0.29519
 H551 H 0.16286 0.75426 0.35878
 H552 H 0.13433 0.71387 0.39296
 C553 C 0.92369 0.52841 0.97293
 C554 C 0.90863 0.53719 0.95437
 C555 C 0.91803 0.54477 0.92613
 C556 C 0.94360 0.54487 0.91690
 C557 C 0.95922 0.53692 0.93562
 C558 C 0.94910 0.52790 0.96375
 N559 N 0.90082 0.55133 0.90694
 N560 N 0.90169 0.54798 0.88012
 C561 C 0.88471 0.55428 0.86043
 C562 C 0.87895 0.54122 0.83339
 C563 C 0.86180 0.54616 0.81384
 C564 C 0.85092 0.56514 0.82067
 C565 C 0.85713 0.57865 0.84771
 C566 C 0.87365 0.57301 0.86761
 H567 H 0.91529 0.52190 0.99444
 H568 H 0.88899 0.53715 0.96173
 H569 H 0.95141 0.55097 0.89519
 H570 H 0.97868 0.53696 0.92770
 H571 H 0.88729 0.52668 0.82769
 H572 H 0.85699 0.53515 0.79330
 H573 H 0.84909 0.59345 0.85341
 H574 H 0.87805 0.58348 0.88838
 C575 C 0.44939 0.43979 0.91183
 C576 C 0.44177 0.41709 0.89195
 C577 C 0.44148 0.39113 0.89980
 C578 C 0.44858 0.38784 0.92790
 C579 C 0.45731 0.41093 0.94754
 C580 C 0.45825 0.43744 0.93966
 N581 N 0.43671 0.36963 0.87841
 N582 N 0.42432 0.34212 0.88405
 C583 C 0.42259 0.32158 0.86291
 C584 C 0.39651 0.29431 0.85964
 C585 C 0.39479 0.27408 0.83903
 C586 C 0.41965 0.28039 0.82244
 C587 C 0.44598 0.30744 0.82632
 C588 C 0.44728 0.32812 0.84603
 H589 H 0.44984 0.45977 0.90485
 H590 H 0.43648 0.41991 0.87025
 H591 H 0.44878 0.36801 0.93423
 H592 H 0.46377 0.40813 0.96876
 H593 H 0.37738 0.28901 0.87267
 H594 H 0.37427 0.25337 0.83625
 H595 H 0.46541 0.31262 0.81382
 H596 H 0.46772 0.34894 0.84864
 C597 C 0.59810 0.07188 0.96269
 C598 C 0.62287 0.08961 0.94587
 C599 C 0.62736 0.07889 0.92014
 C600 C 0.60708 0.04979 0.91163
 C601 C 0.58212 0.03206 0.92827
 C602 C 0.57701 0.04302 0.95385
 N603 N 0.65168 0.09849 0.90237
 N604 N 0.65834 0.08977 0.87966
 C605 C 0.68160 0.10987 0.86114
 C606 C 0.68987 0.09852 0.83812
 C607 C 0.71127 0.11764 0.81870
 C608 C 0.72441 0.14846 0.82185
 C609 C 0.71640 0.15984 0.84517
 C610 C 0.69525 0.14072 0.86475
 H611 H 0.59513 0.08120 0.98223
 H612 H 0.63835 0.11201 0.95263
 H613 H 0.61007 0.04103 0.89176
 H614 H 0.56658 0.00997 0.92073
 H615 H 0.67946 0.07481 0.83506
 H616 H 0.71724 0.10844 0.80091
 H617 H 0.72617 0.18354 0.84789
 H618 H 0.68910 0.15004 0.88228
 C619 C 0.08600 0.49314 0.46062
 C620 C 0.10269 0.48572 0.44277
 C621 C 0.08880 0.46313 0.42253
 C622 C 0.05781 0.44768 0.42048
 C623 C 0.04111 0.45549 0.43792
 C624 C 0.05508 0.47847 0.45800
 N625 N 0.10666 0.45763 0.40316
 N626 N 0.09627 0.43422 0.38809
 C627 C 0.11413 0.43012 0.36750
 C628 C 0.10513 0.40159 0.35735
 C629 C 0.12187 0.39722 0.33668
 C630 C 0.14743 0.42149 0.32541
 C631 C 0.15626 0.45010 0.33536
 C632 C 0.13995 0.45438 0.35648
 H633 H 0.09737 0.51108 0.47575
 H634 H 0.12656 0.49788 0.44442
 H635 H 0.04663 0.43028 0.40481
 H636 H 0.01731 0.44381 0.43548
 H637 H 0.08518 0.38276 0.36554
 H638 H 0.11471 0.37502 0.32911
 H639 H 0.17580 0.46907 0.32670
 H640 H 0.14712 0.47666 0.36374
 C641 C 0.51497 0.58626 0.46212
 C642 C 0.52168 0.61064 0.44481
 C643 C 0.54050 0.61734 0.42133
 C644 C 0.55336 0.59985 0.41577
 C645 C 0.54660 0.57540 0.43301
 C646 C 0.52693 0.56804 0.45610
 N647 N 0.54486 0.64093 0.40267
 N648 N 0.56196 0.64856 0.38112
 C649 C 0.56503 0.67121 0.36182
 C650 C 0.58572 0.68003 0.33966
 C651 C 0.58837 0.70121 0.31979
 C652 C 0.57008 0.71365 0.32170
 C653 C 0.54944 0.70491 0.34402
 C654 C 0.54698 0.68393 0.36399
 H655 H 0.49972 0.58121 0.47970
 H656 H 0.51162 0.62394 0.44929
 H657 H 0.56800 0.60459 0.39772
 H658 H 0.55621 0.56184 0.42781
 H659 H 0.59968 0.67033 0.33770
 H660 H 0.60448 0.70775 0.30278
 H661 H 0.53505 0.71415 0.34576
 H662 H 0.53069 0.67736 0.38081
 C663 C 0.40900 0.93825 0.46471
 C664 C 0.38461 0.92243 0.44683
 C665 C 0.38549 0.93118 0.41849
 C666 C 0.41051 0.95693 0.40851
 C667 C 0.43460 0.97336 0.42660
 C668 C 0.43450 0.96382 0.45477
 N669 N 0.36115 0.91318 0.40005
 N670 N 0.36455 0.91301 0.37316
 C671 C 0.34048 0.89516 0.35439
 C672 C 0.34666 0.88809 0.32743
 C673 C 0.32372 0.87017 0.30880
 C674 C 0.29416 0.85986 0.31648
 C675 C 0.28798 0.86726 0.34346
 C676 C 0.31096 0.88454 0.36242
 H677 H 0.40786 0.93027 0.48628
 H678 H 0.36536 0.90268 0.45478
 H679 H 0.41145 0.96425 0.38672
 H680 H 0.45369 0.99292 0.41811
 H681 H 0.36933 0.89605 0.32107
 H682 H 0.32902 0.86440 0.28830
 H683 H 0.26537 0.85958 0.34982
 H684 H 0.30573 0.88990 0.38314
 C685 C 0.52707 0.92730 0.03551
 C686 C 0.53396 0.91062 0.05391
 C687 C 0.54802 0.92243 0.07995
 C688 C 0.55584 0.95159 0.08721
 C689 C 0.54875 0.96828 0.06889
 C690 C 0.53391 0.95614 0.04301
 N691 N 0.55245 0.90373 0.09919
 N692 N 0.56694 0.91316 0.12235
 C693 C 0.56962 0.89353 0.14188
 C694 C 0.58910 0.90535 0.16500
 C695 C 0.59130 0.88660 0.18493
 C696 C 0.57362 0.85570 0.18222
 C697 C 0.55416 0.84390 0.15898
 C698 C 0.55227 0.86261 0.13889
 H699 H 0.51559 0.91723 0.01579
 H700 H 0.52777 0.88816 0.04813
 H701 H 0.56665 0.96116 0.10731
 H702 H 0.55431 0.99042 0.07528
 H703 H 0.60252 0.92911 0.16760
 H704 H 0.60653 0.89614 0.20265
 H705 H 0.54019 0.82015 0.15660
 H706 H 0.53686 0.85291 0.12134
 C707 C 0.40681 0.49358 0.03700
 C708 C 0.38359 0.48628 0.05599
 C709 C 0.37474 0.46279 0.07513
 C710 C 0.38933 0.44639 0.07503
 C711 C 0.41303 0.45407 0.05640
 C712 C 0.42208 0.47786 0.03731
 N713 N 0.35207 0.45721 0.09540
 N714 N 0.33846 0.43323 0.10955
 C715 C 0.31697 0.42918 0.13071
 C716 C 0.29624 0.40050 0.13966
 C717 C 0.27512 0.39616 0.16035
 C718 C 0.27505 0.42056 0.17281
 C719 C 0.29615 0.44928 0.16421
 C720 C 0.31675 0.45358 0.14309
 H721 H 0.41343 0.51216 0.02270
 H722 H 0.37260 0.49916 0.05600
 H723 H 0.38296 0.42827 0.08984
 H724 H 0.42442 0.44159 0.05708
 H725 H 0.29629 0.38154 0.13039
 H726 H 0.25905 0.37386 0.16690
 H727 H 0.29652 0.46834 0.17381
 H728 H 0.33279 0.47595 0.13678
 C729 C 0.05276 0.59995 0.04095
 C730 C 0.06947 0.62592 0.05678
 C731 C 0.06520 0.62609 0.08626
 C732 C 0.04301 0.60038 0.09960
 C733 C 0.02585 0.57468 0.08373
 C734 C 0.03096 0.57404 0.05438
 N735 N 0.08439 0.65197 0.10254
 N736 N 0.08818 0.64998 0.12910
 C737 C 0.10713 0.67493 0.14646
 C738 C 0.11695 0.66979 0.17238
 C739 C 0.13594 0.69340 0.18979
 C740 C 0.14473 0.72267 0.18201
 C741 C 0.13446 0.72785 0.15615
 C742 C 0.11601 0.70412 0.13827
 H743 H 0.05701 0.60006 0.01831
 H744 H 0.08648 0.64560 0.04625
 H745 H 0.03916 0.60009 0.12234
 H746 H 0.00925 0.55502 0.09462
 H747 H 0.11027 0.64738 0.17884
 H748 H 0.14381 0.68883 0.20945
 H749 H 0.14085 0.75022 0.14979
 H750 H 0.10845 0.70850 0.11835
 C751 C 0.48284 0.07603 0.53911
 C752 C 0.47488 0.09259 0.55655
 C753 C 0.45839 0.08022 0.58138
 C754 C 0.44934 0.05069 0.58838
 C755 C 0.45744 0.03413 0.57103
 C756 C 0.47459 0.04675 0.54638
 N757 N 0.45251 0.09857 0.59975
 N758 N 0.43645 0.08862 0.62196
 C759 C 0.43203 0.10761 0.64088
 C760 C 0.41232 0.09509 0.66374
 C761 C 0.40875 0.11318 0.68343
 C762 C 0.42518 0.14414 0.68066
 C763 C 0.44464 0.15668 0.65753
 C764 C 0.44798 0.13858 0.63771
 H765 H 0.49609 0.08645 0.52032
 H766 H 0.48203 0.11533 0.55098
 H767 H 0.43662 0.04067 0.60753
 H768 H 0.45071 0.01163 0.57719
 H769 H 0.39995 0.07128 0.66645
 H770 H 0.39357 0.10311 0.70110
 H771 H 0.45758 0.18051 0.65512
 H772 H 0.46347 0.14882 0.62031
 C773 C 0.55760 0.52842 0.58224
 C774 C 0.57962 0.53666 0.60292
 C775 C 0.60811 0.54329 0.59513
 C776 C 0.61452 0.54194 0.56622
 C777 C 0.59237 0.53317 0.54556
 C778 C 0.56360 0.52607 0.55341
 N779 N 0.62949 0.54949 0.61708
 N780 N 0.65688 0.56045 0.61177
 C781 C 0.67765 0.56475 0.63381
 C782 C 0.70792 0.58301 0.62861
 C783 C 0.72866 0.58669 0.64945
 C784 C 0.71938 0.57157 0.67561
 C785 C 0.68897 0.55313 0.68069
 C786 C 0.66827 0.54997 0.66012
 H787 H 0.53561 0.52289 0.58896
 H788 H 0.57438 0.53748 0.62514
 H789 H 0.63635 0.54676 0.55973
 H790 H 0.59763 0.53159 0.52351
 H791 H 0.71543 0.59439 0.60837
 H792 H 0.75197 0.60104 0.64506
 H793 H 0.68129 0.54092 0.70052
 H794 H 0.64501 0.53543 0.66450
 C795 C 0.93596 0.41362 0.53866
 C796 C 0.91857 0.38936 0.55623
 C797 C 0.93040 0.38458 0.58107
 C798 C 0.96020 0.40406 0.58790
 C799 C 0.97759 0.42850 0.57045
 C800 C 0.96553 0.43376 0.54583
 N801 N 0.91128 0.36085 0.59967
 N802 N 0.92071 0.35394 0.62172
 C803 C 0.90106 0.33117 0.64094
 C804 C 0.91288 0.32225 0.66301
 C805 C 0.89426 0.30103 0.68285
 C806 C 0.86348 0.28872 0.68107
 C807 C 0.85164 0.29752 0.65880
 C808 C 0.87024 0.31846 0.63880
 H809 H 0.92596 0.41706 0.51991
 H810 H 0.89561 0.37454 0.55078
 H811 H 0.96982 0.40087 0.60705
 H812 H 1.00029 0.44358 0.57655
 H813 H 0.93659 0.33192 0.66494
 H814 H 0.90381 0.29444 0.69980
 H815 H 0.82798 0.28841 0.65714
 H816 H 0.86056 0.32513 0.62205
   
