data_POSCAR
  _audit_creation_date              2014-09-24
  _audit_creation_method            'ToBaCCo'
  _symmetry_space_group_name_H-M    'P1'
  _symmetry_Int_Tables_number       1
  _symmetry_cell_setting            triclinic
  loop_
  _symmetry_equiv_pos_as_xyz
 x,y,z
_cell_length_a 35.6575
_cell_length_b 38.3107
_cell_length_c 36.5276
_cell_angle_alpha 88.024700
_cell_angle_beta 92.643600
_cell_angle_gamma 85.313200
loop_
  _atom_site_label
  _atom_site_type_symbol
  _atom_site_fract_x
  _atom_site_fract_y
  _atom_site_fract_z
N1 N 0.15061 1.24586 0.14040
 N2 N 0.12645 1.23803 0.16490
 C3 C 0.09782 1.26329 0.16383
 C4 C 0.10439 1.28828 0.13722
 C5 C 0.13827 1.27643 0.12291
 H6 H 0.07375 1.26333 0.18081
 H7 H 0.15240 1.28837 0.10076
 Cu8 Cu 0.13419 1.19537 0.19541
 Cu9 Cu 0.19455 1.21445 0.13089
 Cu10 Cu 0.20855 1.13778 0.18494
 N11 N 0.15085 1.15983 0.23319
 N12 N 0.17968 1.13698 0.22880
 C13 C 0.18354 1.11403 0.25774
 C14 C 0.15577 1.12315 0.28167
 C15 C 0.13554 1.15250 0.26528
 H16 H 0.20460 1.09201 0.26087
 H17 H 0.11093 1.16689 0.27516
 N18 N 0.24205 1.14966 0.14584
 N19 N 0.23696 1.17893 0.12542
 C20 C 0.26361 1.17869 0.10043
 C21 C 0.28668 1.14804 0.10563
 C22 C 0.27228 1.13023 0.13468
 H23 H 0.26571 1.19890 0.07940
 H24 H 0.28235 1.10464 0.14622
 H25 H 0.17307 1.16924 0.14795
 H26 H 0.20083 1.19140 0.18344
 N27 N 0.85712 0.75987 0.16246
 N28 N 0.88594 0.75926 0.18630
 C29 C 0.90800 0.72939 0.18322
 C30 C 0.89228 0.71037 0.15590
 C31 C 0.85994 0.73048 0.14323
 H32 H 0.93416 0.72241 0.19893
 H33 H 0.84046 0.72482 0.12108
 Cu34 Cu 0.89365 0.79862 0.21715
 Cu35 Cu 0.81996 0.80003 0.15644
 Cu36 Cu 0.82046 0.85816 0.22721
 N37 N 0.89377 0.83154 0.25635
 N38 N 0.86484 0.85430 0.26066
 C39 C 0.87283 0.87449 0.28898
 C40 C 0.90884 0.86371 0.30309
 C41 C 0.92118 0.83635 0.28181
 H42 H 0.85423 0.89597 0.29772
 H43 H 0.94838 0.82152 0.28428
 N44 N 0.77856 0.85805 0.19008
 N45 N 0.77877 0.83652 0.16261
 C46 C 0.74779 0.84473 0.14048
 C47 C 0.72727 0.87289 0.15471
 C48 C 0.74750 0.88056 0.18609
 H49 H 0.74128 0.83178 0.11542
 H50 H 0.74068 0.90191 0.20388
 H51 H 0.84693 0.83936 0.18263
 H52 H 0.82529 0.80630 0.21180
 N53 N 0.82169 1.25010 -0.15817
 N54 N 0.84375 1.24673 -0.18591
 C55 C 0.86648 1.27313 -0.18621
 C56 C 0.85829 1.29406 -0.15716
 C57 C 0.82966 1.27872 -0.13986
 H58 H 0.88796 1.27666 -0.20564
 H59 H 0.81593 1.28735 -0.11561
 Cu60 Cu 0.84183 1.20731 -0.21788
 Cu61 Cu 0.78474 1.21676 -0.14752
 Cu62 Cu 0.78067 1.14656 -0.20484
 N63 N 0.83957 1.16773 -0.24962
 N64 N 0.81572 1.14387 -0.24421
 C65 C 0.82078 1.11887 -0.26894
 C66 C 0.84933 1.12749 -0.29104
 C67 C 0.86063 1.15876 -0.27805
 H68 H 0.80518 1.09587 -0.27050
 H69 H 0.88289 1.17354 -0.28796
 N70 N 0.74757 1.15378 -0.16358
 N71 N 0.74926 1.18025 -0.14151
 C72 C 0.72347 1.17748 -0.11594
 C73 C 0.70464 1.14802 -0.12233
 C74 C 0.72065 1.13360 -0.15272
 H75 H 0.71863 1.19550 -0.09417
 H76 H 0.71354 1.11001 -0.16583
 H77 H 0.81347 1.17420 -0.16969
 H78 H 0.77764 1.20048 -0.20038
 N79 N 0.15682 0.74833 -0.12673
 N80 N 0.13994 0.74156 -0.15813
 C81 C 0.12111 0.71274 -0.15356
 C82 C 0.12659 0.70102 -0.11724
 C83 C 0.14932 0.72422 -0.10110
 H84 H 0.10440 0.70152 -0.17488
 H85 H 0.15937 0.72379 -0.07267
 Cu86 Cu 0.14283 0.77229 -0.20122
 Cu87 Cu 0.18575 0.78878 -0.12093
 Cu88 Cu 0.20893 0.82980 -0.20189
 N89 N 0.14183 0.80958 -0.23884
 N90 N 0.16792 0.83192 -0.23935
 C91 C 0.16051 0.85474 -0.26816
 C92 C 0.12771 0.84629 -0.28647
 C93 C 0.11675 0.81749 -0.26715
 H94 H 0.17741 0.87611 -0.27460
 H95 H 0.09204 0.80362 -0.27301
 N96 N 0.23591 0.83543 -0.15451
 N97 N 0.22620 0.82061 -0.12359
 C98 C 0.24937 0.82950 -0.09597
 C99 C 0.27473 0.85105 -0.11009
 C100 C 0.26542 0.85439 -0.14736
 H101 H 0.24826 0.82054 -0.06767
 H102 H 0.27894 0.86938 -0.16780
 H103 H 0.16824 0.81988 -0.16779
 H104 H 0.20414 0.78219 -0.17232
 C105 C 0.50072 0.99194 -0.01558
 C106 C -0.03196 0.50238 0.98529
 C107 C 1.01704 0.02409 0.50317
 C108 C 0.08038 0.31790 1.12665
 C109 C 0.08905 0.34229 1.09966
 C110 C 0.06265 0.37216 1.08579
 C111 C 0.07723 0.40084 1.06817
 C112 C 0.05321 0.42863 1.05270
 C113 C 0.01389 0.42799 1.05396
 C114 C -0.00068 0.39972 1.07233
 C115 C 0.02337 0.37195 1.08794
 C116 C -0.01261 0.45591 1.03606
 C117 C -0.00298 0.47747 1.00692
 H118 H 0.11665 0.33997 1.08837
 H119 H 0.10738 0.40170 1.06628
 H120 H 0.06568 0.45047 1.03992
 H121 H -0.03085 0.39863 1.07375
 H122 H 0.01094 0.34999 1.10054
 H123 H -0.04157 0.45794 1.04408
 H124 H 0.05414 0.32177 1.14027
 H125 H 0.02468 0.47314 0.99609
 C126 C -0.09085 0.67736 1.14195
 C127 C -0.10791 0.65993 1.11356
 C128 C -0.08968 0.62868 1.09666
 C129 C -0.11219 0.60697 1.07661
 C130 C -0.09588 0.57819 1.05879
 C131 C -0.05650 0.57088 1.06025
 C132 C -0.03407 0.59227 1.08077
 C133 C -0.05036 0.62099 1.09859
 C134 C -0.03767 0.54175 1.04049
 C135 C -0.05409 0.52689 1.00986
 H136 H -0.13601 0.66936 1.10329
 H137 H -0.14254 0.61230 1.07470
 H138 H -0.11428 0.56179 1.04417
 H139 H -0.00368 0.58724 1.08229
 H140 H -0.03186 0.63754 1.11286
 H141 H -0.00857 0.53368 1.04856
 H142 H -0.06401 0.66692 1.15446
 H143 H -0.08189 0.53729 0.99966
 C144 C -0.12211 0.32494 0.85309
 C145 C -0.13031 0.34371 0.88422
 C146 C -0.10921 0.37327 0.89682
 C147 C -0.12433 0.39439 0.92406
 C148 C -0.10471 0.42151 0.93811
 C149 C -0.06934 0.42819 0.92507
 C150 C -0.05428 0.40713 0.89777
 C151 C -0.07383 0.37993 0.88383
 C152 C -0.04612 0.45500 0.94068
 C153 C -0.05895 0.48029 0.96494
 H154 H -0.15339 0.33647 0.90034
 H155 H -0.15129 0.38960 0.93491
 H156 H -0.11713 0.43631 0.95976
 H157 H -0.02689 0.41133 0.88757
 H158 H -0.06043 0.36381 0.86369
 H159 H -0.01676 0.45400 0.93396
 H160 H -0.10052 0.33256 0.83537
 H161 H -0.08841 0.48303 0.97102
 C162 C 0.11149 0.67114 0.90176
 C163 C 0.08586 0.65024 0.88509
 C164 C 0.06957 0.62136 0.90532
 C165 C 0.03403 0.61137 0.89383
 C166 C 0.01703 0.58550 0.91361
 C167 C 0.03563 0.56883 0.94510
 C168 C 0.07164 0.57811 0.95585
 C169 C 0.08860 0.60385 0.93609
 C170 C 0.01804 0.54323 0.96871
 C171 C -0.01294 0.52510 0.95803
 H172 H 0.07542 0.65671 0.85718
 H173 H 0.01890 0.62434 0.87008
 H174 H -0.01100 0.57957 0.90472
 H175 H 0.08671 0.56551 0.97983
 H176 H 0.11661 0.60981 0.94506
 H177 H 0.03045 0.53815 0.99619
 H178 H 0.11985 0.66665 0.93048
 H179 H -0.02545 0.52914 0.93051
 C180 C 1.14914 0.10484 0.31414
 C181 C 1.12075 0.11596 0.33725
 C182 C 1.11059 0.09515 0.36967
 C183 C 1.09127 0.11243 0.39729
 C184 C 1.07863 0.09354 0.42703
 C185 C 1.08444 0.05674 0.42937
 C186 C 1.10473 0.03952 0.40231
 C187 C 1.11755 0.05845 0.37262
 C188 C 1.06905 0.03559 0.45899
 C189 C 1.03748 0.04746 0.47784
 H190 H 1.10533 0.14127 0.33183
 H191 H 1.08572 0.14068 0.39575
 H192 H 1.06434 0.10794 0.44797
 H193 H 1.10966 0.01121 0.40353
 H194 H 1.13163 0.04410 0.35150
 H195 H 1.08095 0.00885 0.46400
 H196 H 1.16696 0.08113 0.32133
 H197 H 1.02329 0.07284 0.46986
 C198 C 1.10813 -0.13692 0.68303
 C199 C 1.12011 -0.10748 0.66470
 C200 C 1.09782 -0.08832 0.63393
 C201 C 1.11609 -0.06707 0.60952
 C202 C 1.09577 -0.04792 0.58072
 C203 C 1.05653 -0.04934 0.57610
 C204 C 1.03836 -0.07069 0.60041
 C205 C 1.05862 -0.08977 0.62915
 C206 C 1.03337 -0.02909 0.54670
 C207 C 1.04458 0.00038 0.52778
 H208 H 1.14714 -0.09831 0.67255
 H209 H 1.14624 -0.06543 0.61263
 H210 H 1.11101 -0.03244 0.56212
 H211 H 1.00815 -0.07214 0.59757
 H212 H 1.04318 -0.10486 0.64794
 H213 H 1.00497 -0.03636 0.54135
 H214 H 1.08248 -0.14768 0.67349
 H215 H 1.07165 0.00982 0.53488
 C216 C 0.92995 -0.12223 0.33127
 C217 C 0.91619 -0.09395 0.35138
 C218 C 0.93933 -0.07727 0.37949
 C219 C 0.92113 -0.05733 0.40599
 C220 C 0.94192 -0.04037 0.43236
 C221 C 0.98150 -0.04263 0.43239
 C222 C 0.99970 -0.06271 0.40602
 C223 C 0.97893 -0.07966 0.37968
 C224 C 1.00479 -0.02485 0.45943
 C225 C 0.99126 0.00391 0.47898
 H226 H 0.88702 -0.08383 0.34705
 H227 H 0.89067 -0.05504 0.40643
 H228 H 0.92683 -0.02597 0.45281
 H229 H 1.03015 -0.06482 0.40540
 H230 H 0.99407 -0.09384 0.35912
 H231 H 1.03441 -0.03370 0.46283
 H232 H 0.95821 -0.13411 0.33740
 H233 H 0.96266 0.01513 0.47322
 C234 C 0.86369 0.10763 0.68064
 C235 C 0.89242 0.11827 0.65911
 C236 C 0.90926 0.09696 0.63002
 C237 C 0.92830 0.11381 0.60264
 C238 C 0.94585 0.09465 0.57542
 C239 C 0.94523 0.05798 0.57538
 C240 C 0.92579 0.04115 0.60248
 C241 C 0.90814 0.06034 0.62968
 C242 C 0.96440 0.03654 0.54769
 C243 C 0.99436 0.04765 0.52811
 H244 H 0.90256 0.14384 0.66279
 H245 H 0.92949 0.14199 0.60221
 H246 H 0.95949 0.10878 0.55440
 H247 H 0.92490 0.01293 0.60306
 H248 H 0.89458 0.04623 0.65078
 H249 H 0.95601 0.01031 0.54404
 H250 H 0.85150 0.08326 0.67530
 H251 H 1.00526 0.07238 0.53462
 C252 C 0.31790 1.13634 0.08276
 C253 C 0.34237 1.10686 0.09244
 C254 C 0.37200 1.09268 0.06865
 C255 C 0.40284 1.07165 0.08471
 C256 C 0.43032 1.05607 0.06302
 C257 C 0.42704 1.06062 0.02456
 C258 C 0.39657 1.08227 0.00857
 C259 C 0.36923 1.09807 0.03031
 C260 C 0.45416 1.04284 0.00027
 C261 C 0.47817 1.01333 0.01138
 H262 H 0.34034 1.09388 0.11899
 H263 H 0.40566 1.06722 0.11420
 H264 H 0.45393 1.04062 0.07667
 H265 H 0.39338 1.08628 -0.02095
 H266 H 0.34543 1.11347 0.01685
 H267 H 0.45334 1.05161 -0.02830
 H268 H 0.32173 1.15166 0.05798
 H269 H 0.47662 1.00205 0.03876
 C270 C 0.67456 1.13502 -0.10046
 C271 C 0.65601 1.10574 -0.11027
 C272 C 0.62686 1.09026 -0.08864
 C273 C 0.61670 1.05682 -0.09739
 C274 C 0.58975 1.04069 -0.07780
 C275 C 0.57182 1.05792 -0.04919
 C276 C 0.58192 1.09136 -0.04033
 C277 C 0.60895 1.10756 -0.05998
 C278 C 0.54412 1.04099 -0.02703
 C279 C 0.52292 1.01452 -0.04019
 H280 H 0.66411 1.09245 -0.13471
 H281 H 0.63012 1.04279 -0.11918
 H282 H 0.58388 1.01439 -0.08464
 H283 H 0.56868 1.10508 -0.01825
 H284 H 0.61531 1.13358 -0.05266
 H285 H 0.54030 1.04966 0.00055
 H286 H 0.66779 1.14865 -0.07591
 H287 H 0.52568 1.00703 -0.06830
 C288 C 0.30507 0.86611 -0.08875
 C289 C 0.32987 0.88797 -0.10444
 C290 C 0.36076 0.90309 -0.08330
 C291 C 0.39009 0.91642 -0.10238
 C292 C 0.41969 0.93105 -0.08358
 C293 C 0.42031 0.93300 -0.04517
 C294 C 0.39112 0.91956 -0.02607
 C295 C 0.36148 0.90504 -0.04485
 C296 C 0.45080 0.94858 -0.02411
 C297 C 0.47296 0.97337 -0.03912
 H298 H 0.32742 0.89341 -0.13377
 H299 H 0.39029 0.91523 -0.13196
 H300 H 0.44217 0.94027 -0.09924
 H301 H 0.39093 0.92080 0.00351
 H302 H 0.33906 0.89606 -0.02901
 H303 H 0.45436 0.94219 0.00505
 H304 H 0.30803 0.85882 -0.05987
 H305 H 0.46720 0.98246 -0.06736
 C306 C 0.69319 0.89329 0.13904
 C307 C 0.67495 0.88526 0.10614
 C308 C 0.64298 0.90782 0.08849
 C309 C 0.61809 0.89324 0.06357
 C310 C 0.58811 0.91402 0.04579
 C311 C 0.58281 0.95007 0.05226
 C312 C 0.60783 0.96457 0.07711
 C313 C 0.63765 0.94382 0.09490
 C314 C 0.55192 0.97367 0.03411
 C315 C 0.52877 0.96498 0.00437
 H316 H 0.68401 0.86135 0.09297
 H317 H 0.62172 0.86560 0.05802
 H318 H 0.56926 0.90153 0.02738
 H319 H 0.60458 0.99226 0.08249
 H320 H 0.65687 0.95636 0.11294
 H321 H 0.54799 0.99999 0.04396
 H322 H 0.68262 0.91562 0.15397
 H323 H 0.53372 0.93975 -0.00772
   
