data_POSCAR
  _audit_creation_date              2014-09-24
  _audit_creation_method            'ToBaCCo'
  _symmetry_space_group_name_H-M    'P1'
  _symmetry_Int_Tables_number       1
  _symmetry_cell_setting            triclinic
  loop_
  _symmetry_equiv_pos_as_xyz
 x,y,z
_cell_length_a 30.2097
_cell_length_b 30.1250
_cell_length_c 30.1254
_cell_angle_alpha 89.999600
_cell_angle_beta 90.000000
_cell_angle_gamma 90.000000
loop_
  _atom_site_label
  _atom_site_type_symbol
  _atom_site_fract_x
  _atom_site_fract_y
  _atom_site_fract_z
Si1 Si 0.24999 0.50000 1.00000
 Si2 Si 0.74999 0.50000 -0.00000
 Si3 Si 0.00002 0.24991 0.49997
 Si4 Si 1.00002 0.75009 0.50003
 Si5 Si 0.50002 -0.00003 0.25009
 Si6 Si 0.50002 0.00003 0.74991
 C7 C 0.31631 0.03582 0.44706
 H8 H 0.31560 0.06157 0.47208
 C9 C 0.34741 0.03766 0.41291
 H10 H 0.37037 0.06524 0.41192
 C11 C 0.28803 -0.03212 0.41936
 H12 H 0.26552 -0.05979 0.42265
 C13 C 0.31878 -0.03169 0.38466
 H14 H 0.31919 -0.05897 0.36127
 N15 N 0.28742 0.00136 0.44969
 C16 C 0.18373 0.05294 0.53582
 H17 H 0.18444 0.02792 0.56156
 C18 C 0.15263 0.08709 0.53766
 H19 H 0.12967 0.08808 0.56524
 C20 C 0.21201 0.08064 0.46789
 H21 H 0.23451 0.07736 0.44021
 C22 C 0.18126 0.11534 0.46831
 H23 H 0.18085 0.13874 0.44104
 Zn24 Zn 0.25002 -0.00000 0.50000
 N25 N 0.21261 0.05031 0.50136
 C26 C 0.28803 0.03212 0.58064
 N27 N 0.28742 -0.00136 0.55031
 C28 C 0.31631 -0.03582 0.55294
 C29 C 0.34741 -0.03766 0.58709
 C30 C 0.31878 0.03169 0.61534
 C31 C 0.18373 -0.05294 0.46418
 C32 C 0.15263 -0.08709 0.46233
 C33 C 0.18126 -0.11534 0.53169
 C34 C 0.21201 -0.08064 0.53211
 N35 N 0.21261 -0.05032 0.49864
 H36 H 0.26552 0.05979 0.57735
 H37 H 0.31560 -0.06157 0.52792
 H38 H 0.37037 -0.06524 0.58808
 H39 H 0.31919 0.05897 0.63873
 H40 H 0.18444 -0.02792 0.43843
 H41 H 0.12967 -0.08808 0.43476
 H42 H 0.18085 -0.13874 0.55896
 H43 H 0.23451 -0.07736 0.55978
 C44 C 0.15074 0.11865 0.50336
 C45 C 0.34930 0.00336 0.38135
 C46 C 0.15074 -0.11865 0.49664
 C47 C 0.34930 -0.00336 0.61864
 C48 C 0.68372 0.03583 0.55293
 H49 H 0.68443 0.06157 0.52789
 C50 C 0.65263 0.03769 0.58708
 H51 H 0.62967 0.06527 0.58806
 C52 C 0.71202 -0.03208 0.58065
 H53 H 0.73452 -0.05975 0.57738
 C54 C 0.68127 -0.03165 0.61535
 H55 H 0.68086 -0.05891 0.63876
 N56 N 0.71262 0.00138 0.55032
 C57 C 0.81631 0.05293 0.46417
 H58 H 0.81560 0.02789 0.43843
 C59 C 0.84741 0.08708 0.46231
 H60 H 0.87037 0.08806 0.43474
 C61 C 0.78802 0.08065 0.53209
 H62 H 0.76552 0.07738 0.55975
 C63 C 0.81877 0.11535 0.53165
 H64 H 0.81918 0.13876 0.55892
 Zn65 Zn 0.75002 0.00000 0.50000
 N66 N 0.78742 0.05032 0.49863
 C67 C 0.71202 0.03209 0.41935
 N68 N 0.71261 -0.00137 0.44969
 C69 C 0.68372 -0.03583 0.44707
 C70 C 0.65263 -0.03769 0.41292
 C71 C 0.68127 0.03165 0.38465
 C72 C 0.81631 -0.05293 0.53583
 C73 C 0.84741 -0.08708 0.53769
 C74 C 0.81877 -0.11535 0.46835
 C75 C 0.78802 -0.08065 0.46792
 N76 N 0.78742 -0.05031 0.50138
 H77 H 0.73452 0.05976 0.42262
 H78 H 0.68443 -0.06157 0.47211
 H79 H 0.62967 -0.06527 0.41194
 H80 H 0.68086 0.05892 0.36124
 H81 H 0.81560 -0.02789 0.56157
 H82 H 0.87037 -0.08805 0.56526
 H83 H 0.81918 -0.13876 0.44108
 H84 H 0.76552 -0.07738 0.44025
 C85 C 0.84930 0.11865 0.49660
 C86 C 0.65074 0.00340 0.61865
 C87 C 0.84930 -0.11865 0.50340
 C88 C 0.65074 -0.00340 0.38135
 C89 C 0.46404 0.18362 1.05262
 H90 H 0.43868 0.18398 1.02726
 C91 C 0.46214 0.15247 1.08680
 H92 H 0.43492 0.12911 1.08749
 C93 C 0.53110 0.21281 1.08110
 H94 H 0.55848 0.23567 1.07813
 C95 C 0.53062 0.18203 1.11584
 H96 H 0.55754 0.18198 1.13956
 N97 N 0.49810 0.21298 1.05036
 C98 C 0.44791 0.31737 0.96377
 H99 H 0.47358 0.31720 0.93872
 C100 C 0.41364 0.34830 0.96137
 H101 H 0.41322 0.37173 0.93412
 C102 C 0.41859 0.28777 1.03045
 H103 H 0.42123 0.26480 1.05785
 C104 C 0.38371 0.31825 1.02940
 H105 H 0.35960 0.31802 1.05599
 Zn106 Zn 0.49998 0.25047 1.00003
 N107 N 0.44980 0.28793 0.99789
 C108 C 0.46888 0.21282 0.91895
 N109 N 0.50187 0.21299 0.94970
 C110 C 0.53593 0.18363 0.94745
 C111 C 0.53784 0.15248 0.91326
 C112 C 0.46937 0.18205 0.88421
 C113 C 0.55206 0.31737 1.03629
 C114 C 0.58633 0.34830 1.03869
 C115 C 0.61625 0.31824 0.97065
 C116 C 0.58138 0.28776 0.96961
 N117 N 0.55017 0.28793 1.00217
 H118 H 0.44150 0.23568 0.92192
 H119 H 0.56129 0.18398 0.97281
 H120 H 0.56506 0.12912 0.91257
 H121 H 0.44245 0.18200 0.86048
 H122 H 0.52640 0.31720 1.06134
 H123 H 0.58675 0.37173 1.06593
 H124 H 0.64037 0.31801 0.94406
 H125 H 0.57874 0.26480 0.94221
 C126 C 0.38115 0.34936 0.99472
 C127 C 0.49600 0.15102 1.11877
 C128 C 0.61882 0.34936 1.00532
 C129 C 0.50399 0.15104 0.88128
 C130 C 0.46404 0.81638 -0.05261
 H131 H 0.43868 0.81602 -0.02725
 C132 C 0.46214 0.84753 -0.08680
 H133 H 0.43492 0.87089 -0.08749
 C134 C 0.53110 0.78719 -0.08110
 H135 H 0.55848 0.76433 -0.07813
 C136 C 0.53062 0.81797 -0.11583
 H137 H 0.55754 0.81802 -0.13956
 N138 N 0.49810 0.78702 -0.05036
 C139 C 0.44791 0.68263 0.03623
 H140 H 0.47358 0.68280 0.06128
 C141 C 0.41364 0.65170 0.03863
 H142 H 0.41323 0.62827 0.06588
 C143 C 0.41859 0.71223 -0.03044
 H144 H 0.42123 0.73520 -0.05785
 C145 C 0.38371 0.68175 -0.02940
 H146 H 0.35960 0.68198 -0.05598
 Zn147 Zn 0.49999 0.74953 -0.00003
 N148 N 0.44980 0.71207 0.00211
 C149 C 0.46888 0.78718 0.08105
 N150 N 0.50187 0.78701 0.05030
 C151 C 0.53593 0.81637 0.05255
 C152 C 0.53784 0.84752 0.08674
 C153 C 0.46937 0.81795 0.11579
 C154 C 0.55206 0.68263 -0.03629
 C155 C 0.58633 0.65170 -0.03869
 C156 C 0.61626 0.68176 0.02935
 C157 C 0.58138 0.71224 0.03039
 N158 N 0.55017 0.71207 -0.00217
 H159 H 0.44150 0.76432 0.07808
 H160 H 0.56129 0.81602 0.02719
 H161 H 0.56506 0.87088 0.08743
 H162 H 0.44246 0.81800 0.13952
 H163 H 0.52640 0.68280 -0.06134
 H164 H 0.58675 0.62827 -0.06593
 H165 H 0.64037 0.68199 0.05593
 H166 H 0.57874 0.73520 0.05779
 C167 C 0.38115 0.65064 0.00528
 C168 C 0.49600 0.84898 -0.11876
 C169 C 0.61882 0.65064 -0.00533
 C170 C 0.50399 0.84896 0.11872
 C171 C 1.05205 0.46377 0.18262
 H172 H 1.02638 0.43873 0.18279
 C173 C 1.08632 0.46137 0.15169
 H174 H 1.08674 0.43412 0.12826
 C175 C 1.08137 0.53044 0.21223
 H176 H 1.07874 0.55785 0.23519
 C177 C 1.11625 0.52940 0.18175
 H178 H 1.14037 0.55598 0.18198
 N179 N 1.05017 0.49789 0.21207
 C180 C 0.96405 0.44744 0.31637
 H181 H 0.93869 0.47280 0.31602
 C182 C 0.96215 0.41325 0.34752
 H183 H 0.93493 0.41255 0.37088
 C184 C 1.03110 0.41895 0.28717
 H185 H 1.05848 0.42193 0.26431
 C186 C 1.03062 0.38421 0.31794
 H187 H 1.05754 0.36049 0.31799
 Zn188 Zn 0.99998 0.50003 0.24953
 N189 N 0.99810 0.44970 0.28701
 C190 C 0.91859 0.46961 0.21224
 N191 N 0.94979 0.50217 0.21208
 C192 C 0.94790 0.53629 0.18264
 C193 C 0.91363 0.53869 0.15170
 C194 C 0.88371 0.47065 0.18176
 C195 C 1.03594 0.55260 0.31637
 C196 C 1.03785 0.58678 0.34753
 C197 C 0.96937 0.61583 0.31797
 C198 C 0.96888 0.58110 0.28719
 N199 N 1.00187 0.55035 0.28702
 H200 H 0.92123 0.44221 0.23520
 H201 H 0.97356 0.56134 0.18280
 H202 H 0.91321 0.56594 0.12827
 H203 H 0.85960 0.44406 0.18199
 H204 H 1.06130 0.52724 0.31601
 H205 H 1.06507 0.58747 0.37089
 H206 H 0.94245 0.63956 0.31803
 H207 H 0.94150 0.57813 0.26433
 C208 C 0.99600 0.38128 0.34896
 C209 C 1.11881 0.49472 0.15063
 C210 C 1.00400 0.61876 0.34898
 C211 C 0.88115 0.50533 0.15064
 C212 C -0.05210 0.46371 0.81736
 H213 H -0.02643 0.43866 0.81720
 C214 C -0.08637 0.46131 0.84829
 H215 H -0.08679 0.43406 0.87172
 C216 C -0.08141 0.53039 0.78776
 H217 H -0.07877 0.55779 0.76480
 C218 C -0.11629 0.52935 0.81824
 H219 H -0.14040 0.55594 0.81801
 N220 N -0.05021 0.49783 0.78792
 C221 C 0.03594 0.44740 0.68363
 H222 H 0.06130 0.47276 0.68399
 C223 C 0.03785 0.41322 0.65247
 H224 H 0.06507 0.41253 0.62911
 C225 C -0.03112 0.41890 0.71280
 H226 H -0.05850 0.42187 0.73567
 C227 C -0.03063 0.38417 0.68203
 H228 H -0.05754 0.36044 0.68197
 Zn229 Zn -0.00001 0.49997 0.75047
 N230 N 0.00188 0.44965 0.71298
 C231 C 0.08138 0.46956 0.78777
 N232 N 0.05017 0.50211 0.78793
 C233 C 0.05205 0.53623 0.81738
 C234 C 0.08632 0.53863 0.84831
 C235 C 0.11625 0.47060 0.81825
 C236 C -0.03595 0.55256 0.68363
 C237 C -0.03785 0.58675 0.65248
 C238 C 0.03062 0.61579 0.68205
 C239 C 0.03110 0.58105 0.71283
 N240 N -0.00189 0.55030 0.71299
 H241 H 0.07874 0.44215 0.76481
 H242 H 0.02638 0.56128 0.81721
 H243 H 0.08674 0.56588 0.87174
 H244 H 0.14037 0.44402 0.81802
 H245 H -0.06131 0.52720 0.68397
 H246 H -0.06507 0.58745 0.62911
 H247 H 0.05754 0.63952 0.68201
 H248 H 0.05848 0.57808 0.73569
 C249 C 0.00400 0.38124 0.65102
 C250 C -0.11885 0.49467 0.84935
 C251 C -0.00400 0.61872 0.65104
 C252 C 0.11881 0.50528 0.84937
 N253 N 0.05340 0.18495 0.53653
 C254 C 0.04855 0.21296 0.50171
 N255 N 0.07799 0.21104 0.46779
 N256 N 0.11106 0.18171 0.46863
 C257 C 0.11580 0.15322 0.50335
 N258 N 0.08638 0.15569 0.53736
 N259 N 0.68401 0.55194 -0.03739
 C260 C 0.71341 0.54871 -0.00359
 N261 N 0.71282 0.57972 0.02902
 N262 N 0.68346 0.61274 0.02798
 C263 C 0.65356 0.61586 -0.00562
 N264 N 0.65470 0.58492 -0.03842
 N265 N 0.94664 -0.18493 0.53657
 C266 C 0.95149 -0.21296 0.50176
 N267 N 0.92204 -0.21104 0.46784
 N268 N 0.88897 -0.18171 0.46868
 C269 C 0.88424 -0.15322 0.50340
 N270 N 0.91366 -0.15568 0.53740
 N271 N 0.28715 0.42029 1.02905
 C272 C 0.28656 0.45129 0.99643
 N273 N 0.31596 0.44805 0.96263
 N274 N 0.34527 0.41507 0.96161
 C275 C 0.34641 0.38414 0.99442
 N276 N 0.31651 0.38727 1.02802
 N277 N 0.92204 0.21104 0.53216
 C278 C 0.95149 0.21296 0.49824
 N279 N 0.94664 0.18493 0.46343
 N280 N 0.91366 0.15568 0.46260
 C281 C 0.88424 0.15322 0.49660
 N282 N 0.88897 0.18172 0.53132
 N283 N 0.28715 0.57971 -0.02904
 C284 C 0.28656 0.54872 0.00358
 N285 N 0.31596 0.55195 0.03737
 N286 N 0.34527 0.58493 0.03839
 C287 C 0.34641 0.61587 0.00558
 N288 N 0.31651 0.61273 -0.02802
 N289 N 0.05340 -0.18495 0.46347
 C290 C 0.04855 -0.21296 0.49829
 N291 N 0.07799 -0.21104 0.53221
 N292 N 0.11106 -0.18171 0.53137
 C293 C 0.11579 -0.15322 0.49665
 N294 N 0.08638 -0.15569 0.46264
 N295 N 0.71282 0.42028 0.97098
 C296 C 0.71341 0.45129 1.00359
 N297 N 0.68401 0.44806 1.03738
 N298 N 0.65470 0.41508 1.03842
 C299 C 0.65356 0.38414 1.00561
 N300 N 0.68346 0.38726 0.97202
 N301 N 0.46337 0.05318 1.18496
 C302 C 0.49800 0.04862 1.21314
 N303 N 0.53158 0.07843 1.21137
 N304 N 0.53060 0.11157 1.18203
 C305 C 0.49608 0.11601 1.15337
 N306 N 0.46240 0.08623 1.15568
 N307 N -0.03663 0.68495 0.55322
 C308 C -0.00200 0.71313 0.54867
 N309 N 0.03158 0.71135 0.57847
 N310 N 0.03061 0.68200 0.61161
 C311 C -0.00392 0.65334 0.61604
 N312 N -0.03760 0.65566 0.58627
 N313 N 0.53158 0.92157 -0.21137
 C314 C 0.49800 0.95138 -0.21314
 N315 N 0.46337 0.94682 -0.18496
 N316 N 0.46240 0.91377 -0.15568
 C317 C 0.49608 0.88399 -0.15337
 N318 N 0.53060 0.88843 -0.18203
 N319 N 0.96337 0.31506 0.44678
 C320 C 0.99800 0.28687 0.45133
 N321 N 1.03159 0.28865 0.42152
 N322 N 1.03061 0.31800 0.38839
 C323 C 0.99608 0.34666 0.38396
 N324 N 0.96240 0.34434 0.41373
 N325 N 0.46844 0.92152 0.21135
 C326 C 0.50202 0.95133 0.21313
 N327 N 0.53665 0.94677 0.18494
 N328 N 0.53761 0.91373 0.15565
 C329 C 0.50392 0.88396 0.15333
 N330 N 0.46941 0.88839 0.18201
 N331 N -0.03156 0.28863 0.57843
 C332 C 0.00202 0.28686 0.54862
 N333 N 0.03665 0.31505 0.55318
 N334 N 0.03761 0.34433 0.58624
 C335 C 0.00393 0.34664 0.61601
 N336 N -0.03059 0.31797 0.61157
 N337 N 0.46844 0.07848 0.78865
 C338 C 0.50202 0.04867 0.78687
 N339 N 0.53665 0.05323 0.81506
 N340 N 0.53761 0.08627 0.84435
 C341 C 0.50392 0.11604 0.84667
 N342 N 0.46940 0.11161 0.81799
 N343 N 0.96844 0.71137 0.42157
 C344 C 1.00202 0.71314 0.45138
 N345 N 1.03665 0.68495 0.44682
 N346 N 1.03761 0.65567 0.41376
 C347 C 1.00393 0.65336 0.38399
 N348 N 0.96941 0.68203 0.38843
 N349 N 1.18401 0.46263 0.05195
 C350 C 1.21341 0.49643 0.04871
 N351 N 1.21282 0.52905 0.07971
 N352 N 1.18346 0.52802 0.11273
 C353 C 1.15355 0.49443 0.11586
 N354 N 1.15469 0.46161 0.08493
 N355 N 0.55340 0.03658 0.68494
 C356 C 0.54855 0.00177 0.71296
 N357 N 0.57800 -0.03215 0.71104
 N358 N 0.61107 -0.03132 0.68172
 C359 C 0.61580 0.00340 0.65322
 N360 N 0.58639 0.03741 0.65568
 N361 N -0.18404 0.46261 0.94806
 C362 C -0.21344 0.49641 0.95128
 N363 N -0.21285 0.52902 0.92028
 N364 N -0.18350 0.52798 0.88726
 C365 C -0.15359 0.49438 0.88413
 N366 N -0.15473 0.46158 0.91507
 N367 N 0.44664 0.03652 0.31506
 C368 C 0.45149 0.00170 0.28705
 N369 N 0.42204 -0.03222 0.28897
 N370 N 0.38897 -0.03138 0.31830
 C371 C 0.38425 0.00335 0.34678
 N372 N 0.41366 0.03736 0.34432
 N373 N 0.21282 0.47096 0.92029
 C374 C 0.21341 0.50358 0.95129
 N375 N 0.18401 0.53737 0.94805
 N376 N 0.15470 0.53839 0.91507
 C377 C 0.15355 0.50558 0.88414
 N378 N 0.18346 0.47198 0.88727
 N379 N 0.55340 -0.03658 0.31506
 C380 C 0.54855 -0.00177 0.28704
 N381 N 0.57800 0.03215 0.28896
 N382 N 0.61107 0.03132 0.31828
 C383 C 0.61580 -0.00340 0.34678
 N384 N 0.58639 -0.03741 0.34432
 N385 N 0.78715 0.47098 0.07972
 C386 C 0.78656 0.50359 0.04871
 N387 N 0.81596 0.53739 0.05194
 N388 N 0.84527 0.53842 0.08492
 C389 C 0.84641 0.50562 0.11587
 N390 N 0.81650 0.47202 0.11274
 N391 N 0.44664 -0.03652 0.68494
 C392 C 0.45149 -0.00171 0.71295
 N393 N 0.42204 0.03221 0.71103
 N394 N 0.38897 0.03137 0.68170
 C395 C 0.38425 -0.00335 0.65322
 N396 N 0.41366 -0.03736 0.65568
   
