data_POSCAR
  _audit_creation_date              2014-09-24
  _audit_creation_method            'ToBaCCo'
  _symmetry_space_group_name_H-M    'P1'
  _symmetry_Int_Tables_number       1
  _symmetry_cell_setting            triclinic
  loop_
  _symmetry_equiv_pos_as_xyz
 x,y,z
_cell_length_a 20.7321
_cell_length_b 20.8272
_cell_length_c 20.7456
_cell_angle_alpha 90.112100
_cell_angle_beta 90.102500
_cell_angle_gamma 89.882300
loop_
  _atom_site_label
  _atom_site_type_symbol
  _atom_site_fract_x
  _atom_site_fract_y
  _atom_site_fract_z
O1 O 0.44914 1.06064 -0.56266
 O2 O 0.57204 1.03976 -0.43663
 O3 O 0.57211 1.03917 -0.56116
 O4 O 0.44966 1.06099 -0.43508
 O5 O 0.43087 0.95668 -0.43664
 O6 O 0.55657 0.93430 -0.55934
 O7 O 0.55396 0.93549 -0.43526
 O8 O 0.43221 0.95603 -0.56272
 Cu9 Cu 0.51199 1.06079 -0.49907
 Cu10 Cu 0.49109 0.93517 -0.49872
 C11 C 0.42043 1.01161 -0.58501
 C12 C 0.58425 0.98425 -0.41426
 C13 C 0.58612 0.98308 -0.58084
 C14 C 0.42024 1.01218 -0.41346
 O15 O -0.56326 1.43268 0.04262
 O16 O -0.43819 1.56102 0.04843
 O17 O -0.56141 1.56043 0.06090
 O18 O -0.43392 1.44091 0.05343
 O19 O -0.43986 1.43808 -0.05291
 O20 O -0.56401 1.56723 -0.04502
 O21 O -0.43825 1.56148 -0.05806
 O22 O -0.56693 1.44283 -0.06283
 Cu23 Cu -0.50113 1.49676 0.06111
 Cu24 Cu -0.50297 1.50257 -0.06505
 C25 C -0.58712 1.41646 -0.01180
 C26 C -0.41512 1.58077 -0.00494
 C27 C -0.58411 1.58570 0.01019
 C28 C -0.41355 1.42029 -0.00023
 O29 O -0.04524 0.43283 0.43689
 O30 O -0.06490 0.55384 0.56525
 O31 O -0.06592 0.55716 0.44088
 O32 O -0.04449 0.43085 0.56316
 O33 O 0.06033 0.44922 0.56490
 O34 O 0.03949 0.57195 0.43897
 O35 O 0.03988 0.57148 0.56372
 O36 O 0.05992 0.44902 0.43708
 Cu37 Cu -0.06559 0.49149 0.50129
 Cu38 Cu 0.06054 0.51157 0.50098
 C39 C 0.01053 0.42071 0.41459
 C40 C -0.01579 0.58383 0.58628
 C41 C -0.01678 0.58647 0.41943
 C42 C 0.01120 0.41992 0.58636
 O43 O -0.16566 1.00088 -0.08893
 O44 O 0.16636 0.99988 -0.08610
 O45 O -0.00292 1.08615 -0.16523
 O46 O 0.00414 0.91332 -0.16624
 O47 O 0.00213 0.83422 -0.08845
 O48 O -0.00096 1.16551 -0.08729
 O49 O 0.08729 0.99652 -0.16457
 O50 O -0.08610 1.00342 -0.16654
 Zr51 Zr 0.00040 0.99984 -0.11304
 O52 O 0.05853 0.94209 -0.05784
 O53 O -0.05796 1.05802 -0.05853
 C54 C -0.14571 1.00425 -0.14790
 C55 C 0.14681 0.99621 -0.14559
 C56 C -0.00383 1.14560 -0.14673
 C57 C 0.00518 0.85394 -0.14753
 H58 H 0.08628 1.08605 -0.08426
 O59 O 0.05842 1.05844 -0.05740
 H60 H -0.08618 0.91360 -0.08740
 O61 O -0.05861 0.94105 -0.05985
 O62 O 0.16417 1.00013 0.08995
 O63 O -0.16772 1.00178 0.08370
 O64 O 0.08661 1.16564 0.00605
 O65 O 0.08758 0.83495 -0.00637
 O66 O -0.08815 0.83425 0.00246
 O67 O -0.08850 1.16500 -0.00493
 O68 O -0.00341 1.08443 0.16636
 O69 O -0.00454 0.91072 0.16438
 O70 O -0.00070 1.16439 0.08926
 O71 O 0.00109 0.83315 0.08486
 O72 O 0.16534 1.08705 0.00805
 O73 O -0.16595 1.08559 -0.00943
 O74 O -0.16613 0.91346 0.00460
 O75 O 0.16599 0.91375 -0.00433
 O76 O 0.08362 0.99778 0.16677
 O77 O -0.09055 0.99590 0.16379
 Zr78 Zr 0.11317 1.00033 0.00125
 Zr79 Zr -0.11354 0.99943 -0.00181
 Zr80 Zr -0.00047 1.11332 0.00061
 Zr81 Zr -0.00041 0.88627 -0.00133
 Zr82 Zr -0.00238 0.99836 0.11283
 O83 O -0.05981 0.94041 0.05699
 O84 O 0.05693 1.05764 0.05975
 C85 C 0.14354 0.99823 0.14906
 C86 C -0.14964 0.99932 0.14341
 C87 C 0.14600 1.14627 0.01004
 C88 C 0.14694 0.85458 -0.00824
 C89 C -0.14748 0.85410 0.00678
 C90 C -0.14760 1.14500 -0.01079
 C91 C -0.00280 1.14408 0.14848
 C92 C -0.00115 0.85166 0.14448
 H93 H -0.08782 1.08516 0.08349
 O94 O -0.05944 1.05747 0.05711
 H95 H 0.08496 0.91346 0.08429
 O96 O 0.05716 0.94135 0.05754
 C97 C 0.37957 1.06947 0.31749
 C98 C 0.37357 1.01896 0.36190
 C99 C 0.32341 0.97443 0.35438
 C100 C 0.27947 0.98029 0.30330
 C101 C 0.28674 1.03030 0.25777
 C102 C 0.33692 1.07473 0.26544
 C103 C 0.24327 1.03527 0.20593
 C104 C 0.19143 0.99237 0.20089
 C105 C 0.18395 0.94371 0.24695
 C106 C 0.22806 0.93716 0.29731
 H107 H 0.31809 0.93568 0.38881
 H108 H 0.34303 1.11360 0.23136
 H109 H 0.24862 1.07324 0.17067
 H110 H 0.22160 0.89879 0.33189
 H111 H 0.41816 1.10414 0.32230
 H112 H 0.14415 0.91020 0.24343
 C113 C -0.32535 0.91845 0.36907
 C114 C -0.36251 0.97490 0.37097
 C115 C -0.34960 1.02448 0.32726
 C116 C -0.30013 1.01794 0.28192
 C117 C -0.26164 0.96170 0.28129
 C118 C -0.27480 0.91214 0.32496
 C119 C -0.21115 0.95600 0.23664
 C120 C -0.20059 1.00491 0.19161
 C121 C -0.23978 1.05980 0.19162
 C122 C -0.28878 1.06669 0.23697
 H123 H -0.37863 1.06785 0.32802
 H124 H -0.24613 0.86857 0.32492
 H125 H -0.18110 0.91332 0.23589
 H126 H -0.31805 1.10986 0.23660
 H127 H -0.33456 0.87978 0.40263
 H128 H -0.23182 1.09774 0.15686
 C129 C -0.35294 0.91582 -0.34173
 C130 C -0.36867 0.97702 -0.36616
 C131 C -0.33627 1.03113 -0.34142
 C132 C -0.28928 1.02441 -0.29340
 C133 C -0.27373 0.96269 -0.26960
 C134 C -0.30583 0.90877 -0.29405
 C135 C -0.22637 0.95610 -0.22173
 C136 C -0.19485 1.01053 -0.19775
 C137 C -0.21089 1.07160 -0.22084
 C138 C -0.25771 1.07859 -0.26862
 H139 H -0.34758 1.07878 -0.35921
 H140 H -0.29454 0.86115 -0.27628
 H141 H -0.21390 0.90901 -0.20319
 H142 H -0.26936 1.12627 -0.28599
 H143 H -0.37682 0.87310 -0.35956
 H144 H -0.18748 1.11389 -0.20144
 C145 C 0.38308 1.06723 -0.31284
 C146 C 0.37431 1.01930 -0.35981
 C147 C 0.32299 0.97604 -0.35368
 C148 C 0.28063 0.98051 -0.30139
 C149 C 0.29067 1.02765 -0.25315
 C150 C 0.34199 1.07095 -0.25950
 C151 C 0.24850 1.03120 -0.20021
 C152 C 0.19512 0.99002 -0.19692
 C153 C 0.18492 0.94456 -0.24588
 C154 C 0.22788 0.93899 -0.29707
 H155 H 0.31564 0.93930 -0.39007
 H156 H 0.35023 1.10771 -0.22340
 H157 H 0.25564 1.06727 -0.16312
 H158 H 0.21912 0.90307 -0.33391
 H159 H 0.42276 1.10076 -0.31654
 H160 H 0.14328 0.91339 -0.24458
 C161 C 0.33572 1.35629 -0.07714
 C162 C 0.36391 1.36976 -0.01658
 C163 C 0.34179 1.33574 0.03781
 C164 C 0.29303 1.28907 0.03148
 C165 C 0.26512 1.27699 -0.02967
 C166 C 0.28679 1.31089 -0.08346
 C167 C 0.21628 1.23081 -0.03620
 C168 C 0.19585 1.19565 0.01739
 C169 C 0.22384 1.20716 0.07791
 C170 C 0.27183 1.25385 0.08505
 H171 H 0.36276 1.34492 0.08484
 H172 H 0.26607 1.30210 -0.13066
 H173 H 0.19474 1.22151 -0.08298
 H174 H 0.29260 1.26213 0.13230
 H175 H 0.35104 1.38126 -0.12022
 H176 H 0.20821 1.18020 0.11964
 C177 C 0.34510 0.65104 0.07770
 C178 C 0.36823 0.63366 0.01608
 C179 C 0.34207 0.66469 -0.03841
 C180 C 0.29385 0.71185 -0.03130
 C181 C 0.27094 0.72791 0.03094
 C182 C 0.29697 0.69732 0.08495
 C183 C 0.22245 0.77446 0.03821
 C184 C 0.19708 0.80557 -0.01590
 C185 C 0.22022 0.79025 -0.07750
 C186 C 0.26808 0.74344 -0.08527
 H187 H 0.35909 0.65242 -0.08628
 H188 H 0.28011 0.70916 0.13295
 H189 H 0.20466 0.78682 0.08580
 H190 H 0.28506 0.73213 -0.13334
 H191 H 0.36377 0.62849 0.12091
 H192 H 0.20117 0.81458 -0.11953
 C193 C -0.31138 0.61423 -0.05371
 C194 C -0.35905 0.62413 -0.00660
 C195 C -0.35304 0.67575 0.03652
 C196 C -0.30091 0.71855 0.03094
 C197 C -0.25293 0.70782 -0.01648
 C198 C -0.25838 0.65513 -0.05809
 C199 C -0.20126 0.75088 -0.02268
 C200 C -0.19849 0.80599 0.01605
 C201 C -0.24644 0.81666 0.06267
 C202 C -0.29674 0.77285 0.07071
 H203 H -0.39000 0.68387 0.07256
 H204 H -0.22233 0.64625 -0.09483
 H205 H -0.16469 0.74299 -0.05919
 H206 H -0.33303 0.78214 0.10710
 H207 H -0.31502 0.57432 -0.08709
 H208 H -0.24474 0.85896 0.09313
 C209 C -0.30607 1.39038 0.04276
 C210 C -0.35694 1.37759 -0.00020
 C211 C -0.35393 1.32331 -0.04016
 C212 C -0.30156 1.28059 -0.03515
 C213 C -0.25044 1.29401 0.00825
 C214 C -0.25286 1.34948 0.04635
 C215 C -0.19873 1.25081 0.01429
 C216 C -0.19885 1.19305 -0.02045
 C217 C -0.24982 1.17990 -0.06324
 C218 C -0.30029 1.22368 -0.07124
 H219 H -0.39342 1.31303 -0.07290
 H220 H -0.21435 1.36047 0.07997
 H221 H -0.15985 1.26076 0.04787
 H222 H -0.33899 1.21236 -0.10451
 H223 H -0.30754 1.43238 0.07363
 H224 H -0.25049 1.13557 -0.09063
 C225 C 0.06913 1.37911 0.31754
 C226 C 0.01777 1.37389 0.36137
 C227 C -0.02745 1.32440 0.35329
 C228 C -0.02134 1.28036 0.30235
 C229 C 0.02959 1.28686 0.25748
 C230 C 0.07463 1.33640 0.26565
 C231 C 0.03488 1.24325 0.20581
 C232 C -0.00875 1.19206 0.20024
 C233 C -0.05831 1.18538 0.24572
 C234 C -0.06510 1.22958 0.29588
 H235 H -0.06687 1.31961 0.38722
 H236 H 0.11421 1.34195 0.23209
 H237 H 0.07365 1.24797 0.17113
 H238 H -0.10418 1.22366 0.32996
 H239 H 0.10438 1.41709 0.32270
 H240 H -0.09235 1.14611 0.24190
 C241 C 0.06582 1.38284 -0.31259
 C242 C 0.01829 1.37378 -0.36014
 C243 C -0.02434 1.32185 -0.35481
 C244 C -0.01957 1.27921 -0.30279
 C245 C 0.02709 1.28964 -0.25398
 C246 C 0.06972 1.34156 -0.25953
 C247 C 0.03078 1.24738 -0.20119
 C248 C -0.00974 1.19350 -0.19851
 C249 C -0.05458 1.18284 -0.24816
 C250 C -0.06031 1.22584 -0.29923
 H251 H -0.06076 1.31423 -0.39162
 H252 H 0.10614 1.35013 -0.22301
 H253 H 0.06639 1.25500 -0.16361
 H254 H -0.09584 1.21674 -0.33650
 H255 H 0.09889 1.42291 -0.31564
 H256 H -0.08536 1.14096 -0.24735
 C257 C -0.08420 0.64624 -0.34052
 C258 C -0.02286 0.63076 -0.36545
 C259 C 0.03152 0.66334 -0.34108
 C260 C 0.02488 0.71029 -0.29308
 C261 C -0.03700 0.72555 -0.26879
 C262 C -0.09115 0.69320 -0.29279
 C263 C -0.04347 0.77288 -0.22092
 C264 C 0.01122 0.80476 -0.19746
 C265 C 0.07242 0.78890 -0.22110
 C266 C 0.07929 0.74214 -0.26882
 H267 H 0.07930 0.65228 -0.35924
 H268 H -0.13891 0.70422 -0.27467
 H269 H -0.09069 0.78504 -0.20201
 H270 H 0.12711 0.73076 -0.28654
 H271 H -0.12714 0.62225 -0.35798
 H272 H 0.11491 0.81243 -0.20219
 C273 C -0.08185 0.67476 0.36944
 C274 C -0.02482 0.63823 0.37160
 C275 C 0.02530 0.65218 0.32849
 C276 C 0.01861 0.70180 0.28344
 C277 C -0.03832 0.73947 0.28252
 C278 C -0.08830 0.72544 0.32570
 C279 C -0.04435 0.78990 0.23796
 C280 C 0.00491 0.80120 0.19318
 C281 C 0.06059 0.76289 0.19365
 C282 C 0.06780 0.71403 0.23894
 H283 H 0.06919 0.62377 0.32941
 H284 H -0.13240 0.75346 0.32549
 H285 H -0.08763 0.81921 0.23697
 H286 H 0.11154 0.68545 0.23876
 H287 H -0.12097 0.66491 0.40249
 H288 H 0.09883 0.77133 0.15916
   
