data_POSCAR
  _audit_creation_date              2014-09-24
  _audit_creation_method            'ToBaCCo'
  _symmetry_space_group_name_H-M    'P1'
  _symmetry_Int_Tables_number       1
  _symmetry_cell_setting            triclinic
  loop_
  _symmetry_equiv_pos_as_xyz
 x,y,z
_cell_length_a 48.6476
_cell_length_b 48.8175
_cell_length_c 49.4183
_cell_angle_alpha 89.927200
_cell_angle_beta 89.998500
_cell_angle_gamma 89.957400
loop_
  _atom_site_label
  _atom_site_type_symbol
  _atom_site_fract_x
  _atom_site_fract_y
  _atom_site_fract_z
C1 C 0.17108 0.17210 0.20583
 C2 C 0.15926 0.19558 0.19384
 C3 C 0.16981 0.20684 0.16987
 C4 C 0.19277 0.19463 0.15767
 C5 C 0.20561 0.17140 0.16902
 C6 C 0.19445 0.16052 0.19317
 H7 H 0.14110 0.20485 0.20247
 H8 H 0.20089 0.20396 0.13953
 H9 H 0.20393 0.14275 0.20211
 C10 C -0.16613 0.82970 0.21044
 C11 C -0.15501 0.80625 0.19774
 C12 C -0.16626 0.79568 0.17375
 C13 C -0.18935 0.80850 0.16239
 C14 C -0.20144 0.83134 0.17481
 C15 C -0.18977 0.84173 0.19872
 H16 H -0.13822 0.79519 0.20703
 H17 H -0.19753 0.80110 0.14338
 H18 H -0.19885 0.85984 0.20749
 C19 C -0.17110 0.16809 -0.20771
 C20 C -0.19430 0.15622 -0.19511
 C21 C -0.20500 0.16658 -0.17079
 C22 C -0.19266 0.18961 -0.15903
 C23 C -0.17017 0.20254 -0.17139
 C24 C -0.15962 0.19172 -0.19564
 H25 H -0.20506 0.13948 -0.20470
 H26 H -0.20015 0.19709 -0.13977
 H27 H -0.14178 0.20143 -0.20439
 C28 C 0.17133 0.83077 -0.20863
 C29 C 0.15849 0.80772 -0.19668
 C30 C 0.16819 0.79629 -0.17235
 C31 C 0.19100 0.80814 -0.15959
 C32 C 0.20457 0.83065 -0.17107
 C33 C 0.19481 0.84157 -0.19558
 H34 H 0.14033 0.79886 -0.20563
 H35 H 0.19781 0.80019 -0.14025
 H36 H 0.20653 0.85782 -0.20492
 C37 C 0.17323 1.17005 0.79385
 C38 C 0.16151 1.19408 0.80492
 C39 C 0.17181 1.20593 0.82877
 C40 C 0.19452 1.19385 0.84158
 C41 C 0.20686 1.17021 0.83104
 C42 C 0.19610 1.15849 0.80734
 H43 H 0.14364 1.20332 0.79570
 H44 H 0.20257 1.20282 0.85997
 H45 H 0.20622 1.14058 0.79928
 C46 C 0.83147 0.83358 0.79136
 C47 C 0.84295 0.80933 0.80226
 C48 C 0.83182 0.79631 0.82537
 C49 C 0.80832 0.80810 0.83737
 C50 C 0.79654 0.83222 0.82718
 C51 C 0.80817 0.84473 0.80434
 H52 H 0.86081 0.80056 0.79275
 H53 H 0.79945 0.79922 0.85540
 H54 H 0.79837 0.86292 0.79646
 C55 C 0.16729 0.82890 1.20736
 C56 C 0.15594 0.80486 1.19604
 C57 C 0.16687 0.79296 1.17252
 C58 C 0.19011 0.80477 1.16047
 C59 C 0.20219 0.82842 1.17131
 C60 C 0.19058 0.84038 1.19452
 H61 H 0.13919 0.79440 1.20601
 H62 H 0.19873 0.79560 1.14244
 H63 H 0.19900 0.85961 1.20146
 C64 C 0.83112 1.17021 1.20762
 C65 C 0.84204 1.19415 1.19559
 C66 C 0.83071 1.20535 1.17185
 C67 C 0.80778 1.19268 1.16010
 C68 C 0.79623 1.16907 1.17158
 C69 C 0.80798 1.15804 1.19518
 H70 H 0.86007 1.20384 1.20396
 H71 H 0.79896 1.20113 1.14179
 H72 H 0.79844 1.14017 1.20399
 O73 O 0.53926 0.94888 0.95406
 O74 O 0.56929 0.97418 0.97964
 C75 C 0.56394 0.95632 0.96099
 O76 O 0.46186 1.04686 0.95572
 O77 O 0.43178 1.02048 0.98020
 C78 C 0.43717 1.03956 0.96272
 O79 O 0.53922 1.04364 0.95268
 O80 O 0.56922 1.01931 0.97924
 C81 C 0.56390 1.03666 0.96006
 O82 O 0.46186 0.94677 0.95605
 O83 O 0.43181 0.97341 0.98026
 C84 C 0.43717 0.95421 0.96294
 Zr85 Zr 0.50053 0.96196 0.96904
 O86 O 0.49765 0.96142 0.92630
 O87 O 0.50347 0.91870 0.96987
 Zr88 Zr 0.50052 1.03122 0.96826
 O89 O 0.49720 1.03068 0.92555
 O90 O 0.50387 1.07446 0.96765
 O91 O 0.52500 0.99651 0.96339
 O92 O 0.47668 0.99659 0.96372
 O93 O 0.46177 0.94719 1.05027
 O94 O 0.43181 0.97350 1.02558
 C95 C 0.43710 0.95455 1.04320
 O96 O 0.53915 1.04543 1.05144
 O97 O 0.56918 1.02031 1.02568
 C98 C 0.56382 1.03819 1.04432
 O99 O 0.46180 1.04778 1.04900
 O100 O 0.43177 1.02090 1.02510
 C101 C 0.43711 1.04032 1.04218
 O102 O 0.53917 0.95028 1.05331
 O103 O 0.56917 0.97449 1.02668
 C104 C 0.56386 0.95724 1.04593
 Zr105 Zr 0.50048 0.96264 1.03754
 O106 O 0.49718 0.96292 1.08024
 O107 O 0.50380 0.91940 1.03781
 Zr108 Zr 0.50049 1.03203 1.03666
 O109 O 0.49742 1.03207 1.07940
 O110 O 0.50351 1.07529 1.03638
 Zr111 Zr 0.54127 0.99690 1.00294
 Zr112 Zr 0.45971 0.99695 1.00291
 O113 O 0.47664 0.99740 1.04207
 O114 O 0.52496 0.99739 1.04245
 O115 O 0.47599 0.95693 1.00332
 O116 O 0.52434 1.03658 1.00239
 O117 O 0.52437 0.95725 1.00337
 O118 O 0.47601 1.03697 1.00240
 H119 H 0.46426 0.99657 0.94783
 H120 H 0.53677 1.05266 1.00208
 H121 H 0.46411 0.99758 1.05788
 H122 H 0.53696 0.94128 1.00360
 H123 H 0.48871 1.08187 0.97879
 H124 H 0.48845 1.08237 1.02489
 H125 H 0.51341 1.02184 1.08658
 H126 H 0.51193 0.97492 1.08724
 H127 H 0.48850 0.91210 1.02680
 H128 H 0.48764 0.91173 0.98037
 H129 H 0.51294 0.97263 0.91913
 H130 H 0.51252 1.01942 0.91853
 O131 O 0.04777 0.46203 -0.04997
 O132 O 0.02170 0.43195 -0.02521
 C133 C 0.04065 0.43739 -0.04288
 O134 O 0.04465 0.53896 0.04703
 O135 O 0.02057 0.56891 0.02021
 C136 C 0.03783 0.56356 0.03952
 O137 O 0.04743 0.46200 0.04471
 O138 O 0.02165 0.43192 0.01972
 C139 C 0.04041 0.43736 0.03758
 O140 O 0.04502 0.53911 -0.05243
 O141 O 0.02063 0.56894 -0.02584
 C142 C 0.03808 0.56369 -0.04497
 Zr143 Zr 0.03248 0.50051 -0.03691
 O144 O 0.07588 0.50368 -0.03605
 O145 O 0.03323 0.49753 -0.07963
 Zr146 Zr 0.03225 0.50048 0.03145
 O147 O 0.07565 0.50367 0.03076
 O148 O 0.03284 0.49746 0.07418
 O149 O 0.03783 0.47604 -0.00269
 O150 O 0.03725 0.52430 -0.00273
 O151 O -0.04979 0.53880 -0.05275
 O152 O -0.02538 0.56885 -0.02644
 C153 C -0.04284 0.56345 -0.04552
 O154 O -0.05222 0.46182 0.04465
 O155 O -0.02570 0.43190 0.02019
 C156 C -0.04476 0.43723 0.03778
 O157 O -0.05005 0.53884 0.04678
 O158 O -0.02556 0.56885 0.02043
 C159 C -0.04309 0.56347 0.03946
 O160 O -0.05213 0.46164 -0.05019
 O161 O -0.02602 0.43180 -0.02514
 C162 C -0.04491 0.43705 -0.04292
 Zr163 Zr -0.03707 0.50027 -0.03719
 O164 O -0.08049 0.50319 -0.03686
 O165 O -0.03729 0.49719 -0.07992
 Zr166 Zr -0.03728 0.50033 0.03131
 O167 O -0.08070 0.50322 0.03039
 O168 O -0.03801 0.49736 0.07404
 Zr169 Zr -0.00228 0.45972 -0.00279
 Zr170 Zr -0.00263 0.54107 -0.00289
 O171 O -0.04235 0.52407 -0.00300
 O172 O -0.04249 0.47583 -0.00290
 O173 O -0.00238 0.52479 -0.04239
 O174 O -0.00243 0.47669 0.03635
 O175 O -0.00219 0.47664 -0.04197
 O176 O -0.00262 0.52481 0.03666
 H177 H 0.05333 0.53676 -0.00270
 H178 H -0.00236 0.46443 0.05234
 H179 H -0.05842 0.53656 -0.00306
 H180 H -0.00213 0.46427 -0.05785
 H181 H 0.02062 0.51194 0.08133
 H182 H -0.02605 0.51202 0.08122
 H183 H -0.08768 0.48711 0.02041
 H184 H -0.08756 0.48752 -0.02624
 H185 H -0.02560 0.51211 -0.08705
 H186 H 0.02118 0.51213 -0.08684
 H187 H 0.08299 0.48773 -0.02586
 H188 H 0.08283 0.48762 0.02081
 O189 O 1.05438 -0.04409 0.53798
 O190 O 1.02740 -0.02005 0.56770
 C191 C 1.04681 -0.03743 0.56232
 O192 O 1.05128 0.05349 0.46207
 O193 O 1.02650 0.02699 0.43259
 C194 C 1.04415 0.04616 0.43778
 O195 O 1.05397 0.05077 0.53825
 O196 O 1.02758 0.02587 0.56781
 C197 C 1.04669 0.04358 0.56256
 O198 O 1.05128 -0.04652 0.46181
 O199 O 1.02619 -0.02008 0.43243
 C200 C 1.04399 -0.03917 0.43754
 Zr201 Zr 1.03860 -0.03118 0.50001
 O202 O 1.08199 -0.03088 0.49670
 O203 O 1.03882 -0.07444 0.50305
 Zr204 Zr 1.03823 0.03813 0.50017
 O205 O 1.08162 0.03865 0.49703
 O206 O 1.03751 0.08138 0.50328
 O207 O 1.04390 0.00341 0.52420
 O208 O 1.04332 0.00356 0.47662
 O209 O 0.95627 -0.04704 0.46225
 O210 O 0.98063 -0.02026 0.43260
 C211 C 0.96318 -0.03960 0.43792
 O212 O 0.95311 0.05033 0.53851
 O213 O 0.97999 0.02579 0.56797
 C214 C 0.96061 0.04328 0.56279
 O215 O 0.95533 0.05315 0.46237
 O216 O 0.98060 0.02730 0.43269
 C217 C 0.96261 0.04613 0.43803
 O218 O 0.95356 -0.04427 0.53841
 O219 O 0.98014 -0.01960 0.56794
 C220 C 0.96091 -0.03720 0.56271
 Zr221 Zr 0.96911 -0.03155 0.50029
 O222 O 0.92571 -0.03197 0.49723
 O223 O 0.96960 -0.07480 0.50345
 Zr224 Zr 0.96864 0.03776 0.50037
 O225 O 0.92522 0.03764 0.49748
 O226 O 0.96864 0.08101 0.50349
 Zr227 Zr 1.00380 0.00319 0.54037
 Zr228 Zr 1.00345 0.00348 0.46007
 O229 O 0.96373 0.00315 0.47687
 O230 O 0.96359 0.00302 0.52444
 O231 O 1.00379 -0.03661 0.47602
 O232 O 1.00349 0.04290 0.52377
 O233 O 1.00395 -0.03643 0.52363
 O234 O 1.00333 0.04343 0.47617
 H235 H 1.05941 0.00358 0.46432
 H236 H 1.00346 0.05886 0.53613
 H237 H 0.94761 0.00309 0.46462
 H238 H 1.00399 -0.05252 0.53588
 H239 H 1.02687 0.08848 0.48773
 H240 H 0.97962 0.08824 0.48822
 H241 H 0.91812 0.02624 0.51248
 H242 H 0.91841 -0.02049 0.51205
 H243 H 0.98058 -0.08192 0.48815
 H244 H 1.02756 -0.08165 0.48800
 H245 H 1.08923 -0.01989 0.51191
 H246 H 1.08896 0.02690 0.51166
 C247 C 1.13523 0.13603 0.27641
 C248 C 1.13194 0.16406 0.27097
 C249 C 1.14390 0.17596 0.24808
 C250 C 1.15950 0.16018 0.22962
 C251 C 1.16282 0.13199 0.23549
 C252 C 1.15101 0.12023 0.25849
 C253 C 1.12194 0.12319 0.30041
 C254 C 1.11085 0.09666 0.29872
 C255 C 1.09831 0.08453 0.32115
 C256 C 1.09625 0.09871 0.34582
 C257 C 1.10730 0.12526 0.34753
 C258 C 1.12006 0.13732 0.32513
 C259 C 1.08260 0.08579 0.36957
 C260 C 1.09271 0.08988 0.39593
 C261 C 1.08008 0.07731 0.41814
 C262 C 1.05718 0.06017 0.41447
 C263 C 1.04699 0.05619 0.38815
 C264 C 1.05943 0.06896 0.36602
 H265 H 1.11979 0.17687 0.28426
 H266 H 1.14141 0.19782 0.24561
 H267 H 1.17344 0.11830 0.22187
 H268 H 1.15422 0.09860 0.26217
 H269 H 1.11155 0.08530 0.27993
 H270 H 1.09042 0.06390 0.31918
 H271 H 1.10582 0.13690 0.36610
 H272 H 1.12866 0.15765 0.32726
 H273 H 1.11074 0.10238 0.39939
 H274 H 1.08855 0.08068 0.43812
 H275 H 1.02931 0.04324 0.38458
 H276 H 1.05073 0.06577 0.34611
 C277 C 0.87208 -0.13452 0.27978
 C278 C 0.84393 -0.13070 0.27487
 C279 C 0.83127 -0.14270 0.25244
 C280 C 0.84639 -0.15891 0.23397
 C281 C 0.87467 -0.16290 0.23939
 C282 C 0.88722 -0.15095 0.26189
 C283 C 0.88571 -0.12110 0.30321
 C284 C 0.91230 -0.11013 0.30062
 C285 C 0.92504 -0.09724 0.32251
 C286 C 0.91146 -0.09487 0.34751
 C287 C 0.88488 -0.10588 0.35012
 C288 C 0.87219 -0.11888 0.32825
 C289 C 0.92489 -0.08083 0.37069
 C290 C 0.92167 -0.09078 0.39721
 C291 C 0.93408 -0.07743 0.41902
 C292 C 0.95014 -0.05388 0.41481
 C293 C 0.95352 -0.04401 0.38827
 C294 C 0.94097 -0.05728 0.36650
 H295 H 0.83164 -0.11807 0.28821
 H296 H 0.80936 -0.13969 0.25033
 H297 H 0.88781 -0.17419 0.22573
 H298 H 0.90892 -0.15456 0.26522
 H299 H 0.92317 -0.11115 0.28153
 H300 H 0.94564 -0.08931 0.31988
 H301 H 0.87371 -0.10414 0.36898
 H302 H 0.85183 -0.12738 0.33104
 H303 H 0.90979 -0.10912 0.40111
 H304 H 0.93121 -0.08569 0.43917
 H305 H 0.96562 -0.02583 0.38431
 H306 H 0.94353 -0.04881 0.34640
 C307 C 0.86547 0.13187 0.72229
 C308 C 0.84933 0.11621 0.73999
 C309 C 0.83716 0.12810 0.76271
 C310 C 0.84057 0.15627 0.76854
 C311 C 0.85650 0.17194 0.75025
 C312 C 0.86875 0.15992 0.72759
 C313 C 0.87917 0.11887 0.69866
 C314 C 0.88108 0.13269 0.67375
 C315 C 0.89417 0.12045 0.65165
 C316 C 0.90557 0.09406 0.65391
 C317 C 0.90354 0.08022 0.67879
 C318 C 0.89060 0.09250 0.70089
 C319 C 0.91963 0.08105 0.63049
 C320 C 0.94341 0.06514 0.63439
 C321 C 0.95659 0.05278 0.61246
 C322 C 0.94642 0.05619 0.58603
 C323 C 0.92270 0.07216 0.58209
 C324 C 0.90942 0.08438 0.60407
 H325 H 0.84613 0.09457 0.73637
 H326 H 0.82618 0.11455 0.77622
 H327 H 0.85908 0.19378 0.75268
 H328 H 0.88114 0.17260 0.71438
 H329 H 0.87225 0.15289 0.67124
 H330 H 0.89564 0.13182 0.63289
 H331 H 0.91178 0.05975 0.68114
 H332 H 0.88984 0.08141 0.71987
 H333 H 0.95211 0.06253 0.65440
 H334 H 0.97493 0.04078 0.61622
 H335 H 0.91423 0.07507 0.56203
 H336 H 0.89091 0.09614 0.60040
 C337 C 1.13780 -0.13185 0.72044
 C338 C 1.13266 -0.15949 0.72614
 C339 C 1.14405 -0.17195 0.74903
 C340 C 1.16071 -0.15701 0.76727
 C341 C 1.16594 -0.12918 0.76099
 C342 C 1.15477 -0.11691 0.73792
 C343 C 1.12493 -0.11841 0.69670
 C344 C 1.14048 -0.10141 0.67959
 C345 C 1.12814 -0.08836 0.65750
 C346 C 1.09995 -0.09176 0.65235
 C347 C 1.08443 -0.10877 0.66945
 C348 C 1.09683 -0.12210 0.69131
 C349 C 1.08666 -0.07747 0.62934
 C350 C 1.06158 -0.06371 0.63301
 C351 C 1.04887 -0.05039 0.61133
 C352 C 1.06079 -0.05087 0.58541
 C353 C 1.08592 -0.06462 0.58176
 C354 C 1.09882 -0.07763 0.60357
 H355 H 1.12005 -0.17162 0.71264
 H356 H 1.14024 -0.19359 0.75162
 H357 H 1.17749 -0.11608 0.77444
 H358 H 1.15868 -0.09540 0.73420
 H359 H 1.16221 -0.09836 0.68324
 H360 H 1.14051 -0.07523 0.64470
 H361 H 1.06270 -0.11189 0.66578
 H362 H 1.08435 -0.13493 0.70431
 H363 H 1.05192 -0.06307 0.65275
 H364 H 1.02951 -0.04002 0.61482
 H365 H 1.09566 -0.06528 0.56207
 H366 H 1.11808 -0.08823 0.60020
 C367 C 0.27532 1.13446 1.13099
 C368 C 0.27115 1.13184 1.15897
 C369 C 0.24849 1.14405 1.17149
 C370 C 0.22899 1.15922 1.15640
 C371 C 0.23351 1.16175 1.12822
 C372 C 0.25629 1.14966 1.11582
 C373 C 0.29929 1.12120 1.11765
 C374 C 0.29660 1.10928 1.09190
 C375 C 0.31904 1.09664 1.07943
 C376 C 0.34470 1.09541 1.09246
 C377 C 0.34742 1.10738 1.11819
 C378 C 0.32502 1.12018 1.13059
 C379 C 0.36843 1.08147 1.07938
 C380 C 0.39522 1.09195 1.08205
 C381 C 0.41752 1.07862 1.07000
 C382 C 0.41353 1.05462 1.05484
 C383 C 0.38674 1.04426 1.05200
 C384 C 0.36449 1.05744 1.06422
 H385 H 0.28533 1.12013 1.17129
 H386 H 0.24714 1.14220 1.19324
 H387 H 0.21900 1.17207 1.11516
 H388 H 0.25897 1.15229 1.09423
 H389 H 0.27703 1.10937 1.08148
 H390 H 0.31629 1.08798 1.05945
 H391 H 0.36678 1.10653 1.12895
 H392 H 0.32793 1.12946 1.15026
 H393 H 0.39894 1.11065 1.09320
 H394 H 0.43787 1.08726 1.07243
 H395 H 0.38293 1.02573 1.04057
 H396 H 0.34423 1.04853 1.06212
 C397 C 0.27469 0.86638 0.86931
 C398 C 0.27071 0.83785 0.86931
 C399 C 0.24817 0.82626 0.85605
 C400 C 0.22888 0.84292 0.84265
 C401 C 0.23285 0.87144 0.84266
 C402 C 0.25552 0.88301 0.85570
 C403 C 0.29864 0.87877 0.88351
 C404 C 0.29600 0.90394 0.89708
 C405 C 0.31851 0.91571 0.91020
 C406 C 0.34421 0.90250 0.91035
 C407 C 0.34681 0.87723 0.89696
 C408 C 0.32435 0.86558 0.88361
 C409 C 0.36821 0.91517 0.92422
 C410 C 0.39479 0.91297 0.91319
 C411 C 0.41724 0.92527 0.92597
 C412 C 0.41361 0.94031 0.94991
 C413 C 0.38711 0.94242 0.96105
 C414 C 0.36472 0.92987 0.94844
 H415 H 0.28483 0.82442 0.87986
 H416 H 0.24596 0.80419 0.85616
 H417 H 0.21824 0.88493 0.83285
 H418 H 0.25812 0.90502 0.85492
 H419 H 0.27644 0.91450 0.89779
 H420 H 0.31581 0.93537 0.91996
 H421 H 0.36617 0.86629 0.89694
 H422 H 0.32726 0.84635 0.87310
 H423 H 0.39820 0.90222 0.89434
 H424 H 0.43737 0.92344 0.91677
 H425 H 0.38368 0.95364 0.97964
 H426 H 0.34468 0.93154 0.95783
 C427 C 0.72734 0.86980 1.13879
 C428 C 0.74808 0.88571 1.15084
 C429 C 0.77117 0.87330 1.16240
 C430 C 0.77398 0.84463 1.16251
 C431 C 0.75315 0.82871 1.15066
 C432 C 0.73019 0.84113 1.13885
 C433 C 0.70302 0.88305 1.12595
 C434 C 0.67689 0.87083 1.12740
 C435 C 0.65421 0.88299 1.11482
 C436 C 0.65701 0.90784 1.10065
 C437 C 0.68307 0.92025 1.09953
 C438 C 0.70579 0.90795 1.11187
 C439 C 0.63301 0.92057 1.08677
 C440 C 0.63640 0.93410 1.06185
 C441 C 0.61399 0.94610 1.04876
 C442 C 0.58752 0.94460 1.06007
 C443 C 0.58401 0.93097 1.08488
 C444 C 0.60653 0.91921 1.09815
 H445 H 0.74644 0.90781 1.15152
 H446 H 0.78699 0.88625 1.17096
 H447 H 0.75448 0.80657 1.15065
 H448 H 0.71486 0.82822 1.12942
 H449 H 0.67387 0.85187 1.13839
 H450 H 0.63455 0.87267 1.11585
 H451 H 0.68596 0.93959 1.08919
 H452 H 0.72562 0.91780 1.11000
 H453 H 0.65634 0.93509 1.05219
 H454 H 0.61738 0.95624 1.02954
 H455 H 0.56392 0.92966 1.09422
 H456 H 0.60321 0.90936 1.11751
 C457 C 0.72549 1.12738 0.86745
 C458 C 0.72822 1.15607 0.86781
 C459 C 0.75064 1.16878 0.85534
 C460 C 0.77102 1.15312 0.84239
 C461 C 0.76835 1.12444 0.84214
 C462 C 0.74582 1.11176 0.85438
 C463 C 0.70163 1.11381 0.88072
 C464 C 0.70491 1.08864 0.89422
 C465 C 0.68253 1.07585 0.90663
 C466 C 0.65633 1.08801 0.90612
 C467 C 0.65305 1.11320 0.89266
 C468 C 0.67538 1.12587 0.88002
 C469 C 0.63260 1.07458 0.91975
 C470 C 0.60608 1.07590 0.90846
 C471 C 0.58376 1.06363 0.92151
 C472 C 0.58749 1.04950 0.94603
 C473 C 0.61401 1.04793 0.95720
 C474 C 0.63625 1.06044 0.94431
 H475 H 0.71318 1.16874 0.87800
 H476 H 0.75186 1.19092 0.85565
 H477 H 0.78384 1.11171 0.83269
 H478 H 0.74422 1.08967 0.85336
 H479 H 0.72487 1.07892 0.89549
 H480 H 0.68577 1.05628 0.91647
 H481 H 0.63326 1.12335 0.89215
 H482 H 0.67200 1.14505 0.86950
 H483 H 0.60259 1.08619 0.88934
 H484 H 0.56362 1.06501 0.91227
 H485 H 0.61755 1.03739 0.97619
 H486 H 0.65625 1.05942 0.95386
 C487 C 0.13133 0.27685 0.13186
 C488 C 0.11533 0.25638 0.14426
 C489 C 0.12777 0.23377 0.15659
 C490 C 0.15655 0.23121 0.15720
 C491 C 0.17256 0.25189 0.14521
 C492 C 0.16012 0.27430 0.13254
 C493 C 0.11806 0.30058 0.11806
 C494 C 0.13033 0.32666 0.11853
 C495 C 0.11809 0.34880 0.10521
 C496 C 0.09303 0.34558 0.09138
 C497 C 0.08064 0.31956 0.09113
 C498 C 0.09307 0.29734 0.10411
 C499 C 0.07985 0.36922 0.07736
 C500 C 0.06513 0.36540 0.05314
 C501 C 0.05231 0.38748 0.04029
 C502 C 0.05429 0.41403 0.05103
 C503 C 0.06925 0.41798 0.07502
 C504 C 0.08170 0.39583 0.08813
 H505 H 0.09313 0.25782 0.14457
 H506 H 0.11476 0.21808 0.16529
 H507 H 0.19479 0.25083 0.14565
 H508 H 0.17315 0.28941 0.12292
 H509 H 0.14934 0.33010 0.12937
 H510 H 0.12847 0.36840 0.10556
 H511 H 0.06114 0.31633 0.08108
 H512 H 0.08319 0.27752 0.10292
 H513 H 0.06367 0.34535 0.04392
 H514 H 0.04095 0.38374 0.02184
 H515 H 0.07092 0.43814 0.08399
 H516 H 0.09237 0.39954 0.10699
 C517 C -0.13329 0.27362 -0.13402
 C518 C -0.11688 0.25386 -0.14700
 C519 C -0.12877 0.23082 -0.15899
 C520 C -0.15743 0.22709 -0.15866
 C521 C -0.17386 0.24697 -0.14590
 C522 C -0.16194 0.26984 -0.13361
 C523 C -0.12055 0.29789 -0.12075
 C524 C -0.13384 0.32350 -0.12094
 C525 C -0.12202 0.34615 -0.10817
 C526 C -0.09642 0.34389 -0.09512
 C527 C -0.08301 0.31835 -0.09517
 C528 C -0.09500 0.29564 -0.10763
 C529 C -0.08374 0.36798 -0.08148
 C530 C -0.06832 0.36458 -0.05763
 C531 C -0.05579 0.38698 -0.04518
 C532 C -0.05871 0.41347 -0.05596
 C533 C -0.07445 0.41703 -0.07954
 C534 C -0.08668 0.39453 -0.09225
 H535 H -0.09479 0.25624 -0.14810
 H536 H -0.11540 0.21576 -0.16821
 H537 H -0.19602 0.24496 -0.14554
 H538 H -0.17523 0.28436 -0.12348
 H539 H -0.15334 0.32616 -0.13117
 H540 H -0.13313 0.36537 -0.10829
 H541 H -0.06308 0.31588 -0.08574
 H542 H -0.08430 0.27621 -0.10668
 H543 H -0.06606 0.34459 -0.04839
 H544 H -0.04385 0.38351 -0.02702
 H545 H -0.07692 0.43713 -0.08850
 H546 H -0.09799 0.39791 -0.11081
 C547 C 0.12823 0.72603 -0.13650
 C548 C 0.15701 0.72861 -0.13595
 C549 C 0.16990 0.75127 -0.14769
 C550 C 0.15434 0.77210 -0.16005
 C551 C 0.12555 0.76959 -0.16051
 C552 C 0.11267 0.74678 -0.14901
 C553 C 0.11451 0.70193 -0.12384
 C554 C 0.08926 0.70490 -0.11030
 C555 C 0.07656 0.68237 -0.09812
 C556 C 0.08891 0.65632 -0.09888
 C557 C 0.11411 0.65333 -0.11251
 C558 C 0.12667 0.67581 -0.12494
 C559 C 0.07574 0.63250 -0.08522
 C560 C 0.07727 0.60608 -0.09650
 C561 C 0.06518 0.58371 -0.08342
 C562 C 0.05102 0.58726 -0.05890
 C563 C 0.04929 0.61367 -0.04771
 C564 C 0.06164 0.63595 -0.06061
 H565 H 0.16965 0.71327 -0.12615
 H566 H 0.19212 0.75237 -0.14724
 H567 H 0.11288 0.78541 -0.16949
 H568 H 0.09050 0.74535 -0.15013
 H569 H 0.07944 0.72473 -0.10873
 H570 H 0.05697 0.68540 -0.08818
 H571 H 0.12440 0.63368 -0.11325
 H572 H 0.14589 0.67264 -0.13553
 H573 H 0.08754 0.60271 -0.11565
 H574 H 0.06668 0.56367 -0.09268
 H575 H 0.03867 0.61711 -0.02877
 H576 H 0.06047 0.65585 -0.05103
 C577 C -0.12965 0.72538 0.13474
 C578 C -0.11314 0.74520 0.14743
 C579 C -0.12499 0.76795 0.15998
 C580 C -0.15369 0.77136 0.16043
 C581 C -0.17023 0.75142 0.14795
 C582 C -0.15836 0.72879 0.13517
 C583 C -0.11696 0.70139 0.12096
 C584 C -0.12961 0.67550 0.12181
 C585 C -0.11779 0.65307 0.10864
 C586 C -0.09288 0.65589 0.09446
 C587 C -0.08014 0.68172 0.09379
 C588 C -0.09208 0.70419 0.10674
 C589 C -0.08029 0.63206 0.08032
 C590 C -0.06669 0.63562 0.05546
 C591 C -0.05458 0.61338 0.04229
 C592 C -0.05602 0.58695 0.05350
 C593 C -0.06982 0.58327 0.07822
 C594 C -0.08169 0.60559 0.09154
 H595 H -0.09099 0.74307 0.14786
 H596 H -0.11159 0.78306 0.16908
 H597 H -0.19241 0.75320 0.14820
 H598 H -0.17171 0.71414 0.12531
 H599 H -0.14858 0.67248 0.13287
 H600 H -0.12836 0.63358 0.10933
 H601 H -0.06075 0.68459 0.08342
 H602 H -0.08193 0.72387 0.10532
 H603 H -0.06567 0.65558 0.04593
 H604 H -0.04432 0.61688 0.02315
 H605 H -0.07111 0.56320 0.08748
 H606 H -0.09161 0.60215 0.11086
 C607 C 1.13896 0.13261 0.72335
 C608 C 1.15418 0.11713 0.74201
 C609 C 1.16549 0.12935 0.76499
 C610 C 1.16212 0.15767 0.77011
 C611 C 1.14704 0.17311 0.75093
 C612 C 1.13564 0.16076 0.72804
 C613 C 1.12620 0.11933 0.69936
 C614 C 1.12529 0.13284 0.67423
 C615 C 1.11280 0.12050 0.65187
 C616 C 1.10103 0.09429 0.65408
 C617 C 1.10221 0.08068 0.67914
 C618 C 1.11454 0.09308 0.70151
 C619 C 1.08722 0.08131 0.63050
 C620 C 1.06315 0.06582 0.63415
 C621 C 1.05015 0.05351 0.61212
 C622 C 1.06075 0.05655 0.58582
 C623 C 1.08473 0.07215 0.58209
 C624 C 1.09787 0.08432 0.60420
 H625 H 1.15735 0.09540 0.73892
 H626 H 1.17580 0.11597 0.77916
 H627 H 1.14458 0.19502 0.75282
 H628 H 1.12390 0.17331 0.71413
 H629 H 1.13436 0.15294 0.67177
 H630 H 1.11200 0.13168 0.63296
 H631 H 1.09371 0.06033 0.68148
 H632 H 1.11456 0.08221 0.72062
 H633 H 1.05409 0.06351 0.65402
 H634 H 1.03158 0.04183 0.61572
 H635 H 1.09351 0.07476 0.56212
 H636 H 1.11658 0.09578 0.60072
 C637 C 0.86718 -0.12751 0.72224
 C638 C 0.87021 -0.15579 0.72639
 C639 C 0.85836 -0.16859 0.74883
 C640 C 0.84315 -0.15350 0.76814
 C641 C 0.84012 -0.12503 0.76361
 C642 C 0.85187 -0.11234 0.74105
 C643 C 0.88020 -0.11386 0.69856
 C644 C 0.89194 -0.08768 0.70112
 C645 C 0.90451 -0.07499 0.67899
 C646 C 0.90586 -0.08824 0.65378
 C647 C 0.89403 -0.11438 0.65118
 C648 C 0.88129 -0.12699 0.67327
 C649 C 0.91981 -0.07498 0.63039
 C650 C 0.90937 -0.07786 0.60400
 C651 C 0.92271 -0.06567 0.58202
 C652 C 0.94668 -0.05012 0.58593
 C653 C 0.95701 -0.04707 0.61233
 C654 C 0.94382 -0.05945 0.63425
 H655 H 0.88201 -0.16812 0.71237
 H656 H 0.86053 -0.19058 0.75019
 H657 H 0.82968 -0.11195 0.77794
 H658 H 0.84891 -0.09052 0.73838
 H659 H 0.89179 -0.07710 0.72036
 H660 H 0.91306 -0.05470 0.68163
 H661 H 0.89497 -0.12532 0.63217
 H662 H 0.87215 -0.14700 0.67047
 H663 H 0.89068 -0.08930 0.60034
 H664 H 0.91409 -0.06824 0.56198
 H665 H 0.97552 -0.03535 0.61606
 H666 H 0.95271 -0.05719 0.65421
 C667 C 1.13134 -0.13330 0.27684
 C668 C 1.11564 -0.15022 0.25993
 C669 C 1.12738 -0.16263 0.23725
 C670 C 1.15540 -0.15867 0.23069
 C671 C 1.17106 -0.14173 0.24804
 C672 C 1.15920 -0.12928 0.27067
 C673 C 1.11858 -0.11971 0.30066
 C674 C 1.13310 -0.11714 0.32513
 C675 C 1.12108 -0.10422 0.34743
 C676 C 1.09424 -0.09364 0.34582
 C677 C 1.07970 -0.09633 0.32138
 C678 C 1.09175 -0.10913 0.29907
 C679 C 1.08146 -0.07970 0.36942
 C680 C 1.06486 -0.05642 0.36566
 C681 C 1.05267 -0.04338 0.38775
 C682 C 1.05691 -0.05317 0.41419
 C683 C 1.07361 -0.07637 0.41800
 C684 C 1.08570 -0.08952 0.39586
 H685 H 1.09413 -0.15395 0.26421
 H686 H 1.11382 -0.17439 0.22442
 H687 H 1.19283 -0.13860 0.24493
 H688 H 1.17187 -0.11623 0.28322
 H689 H 1.15368 -0.12533 0.32714
 H690 H 1.13296 -0.10223 0.36585
 H691 H 1.05887 -0.08874 0.31954
 H692 H 1.08011 -0.11045 0.28044
 H693 H 1.06155 -0.04803 0.34563
 H694 H 1.04009 -0.02544 0.38406
 H695 H 1.07719 -0.08454 0.43808
 H696 H 1.09805 -0.10762 0.39943
 C697 C 0.86867 0.13478 0.27764
 C698 C 0.87143 0.16284 0.27213
 C699 C 0.85892 0.17454 0.24942
 C700 C 0.84330 0.15851 0.23122
 C701 C 0.84050 0.13029 0.23717
 C702 C 0.85287 0.11872 0.25999
 C703 C 0.88250 0.12218 0.30146
 C704 C 0.89410 0.09587 0.29963
 C705 C 0.90714 0.08398 0.32191
 C706 C 0.90915 0.09818 0.34657
 C707 C 0.89760 0.12452 0.34841
 C708 C 0.88437 0.13635 0.32615
 C709 C 0.92323 0.08548 0.37019
 C710 C 0.91315 0.08927 0.39660
 C711 C 0.92612 0.07683 0.41869
 C712 C 0.94934 0.06013 0.41485
 C713 C 0.95952 0.05650 0.38848
 C714 C 0.94673 0.06913 0.36646
 H715 H 0.88355 0.17584 0.28525
 H716 H 0.86101 0.19643 0.24693
 H717 H 0.82981 0.11646 0.22375
 H718 H 0.85006 0.09705 0.26375
 H719 H 0.89340 0.08451 0.28084
 H720 H 0.91542 0.06350 0.31986
 H721 H 0.89904 0.13617 0.36698
 H722 H 0.87539 0.15652 0.32839
 H723 H 0.89488 0.10140 0.40018
 H724 H 0.91764 0.07993 0.43872
 H725 H 0.97744 0.04389 0.38479
 H726 H 0.95539 0.06619 0.34649
 C727 C 0.13291 0.27655 -0.13493
 C728 C 0.16169 0.27374 -0.13479
 C729 C 0.17429 0.25115 -0.14694
 C730 C 0.15844 0.23056 -0.15924
 C731 C 0.12967 0.23340 -0.15947
 C732 C 0.11710 0.25618 -0.14767
 C733 C 0.11943 0.30038 -0.12157
 C734 C 0.09406 0.29729 -0.10825
 C735 C 0.08143 0.31957 -0.09564
 C736 C 0.09399 0.34551 -0.09561
 C737 C 0.11942 0.34859 -0.10882
 C738 C 0.13187 0.32638 -0.12177
 C739 C 0.08062 0.36919 -0.08188
 C740 C 0.08286 0.39582 -0.09260
 C741 C 0.07020 0.41799 -0.07976
 C742 C 0.05468 0.41404 -0.05610
 C743 C 0.05232 0.38746 -0.04543
 C744 C 0.06533 0.36536 -0.05801
 H745 H 0.17456 0.28877 -0.12489
 H746 H 0.19650 0.24986 -0.14670
 H747 H 0.11675 0.21778 -0.16838
 H748 H 0.09493 0.25781 -0.14860
 H749 H 0.08403 0.27753 -0.10727
 H750 H 0.06166 0.31646 -0.08608
 H751 H 0.12993 0.36813 -0.10893
 H752 H 0.15120 0.32969 -0.13212
 H753 H 0.09399 0.39953 -0.11120
 H754 H 0.07220 0.43818 -0.08866
 H755 H 0.04053 0.38371 -0.02724
 H756 H 0.06356 0.34530 -0.04883
 C757 C -0.13281 0.27584 0.13291
 C758 C -0.16153 0.27261 0.13374
 C759 C -0.17334 0.25004 0.14670
 C760 C -0.15674 0.22990 0.15887
 C761 C -0.12804 0.23314 0.15807
 C762 C -0.11624 0.25590 0.14546
 C763 C -0.12017 0.29971 0.11881
 C764 C -0.09517 0.29684 0.10480
 C765 C -0.08323 0.31921 0.09165
 C766 C -0.09615 0.34499 0.09177
 C767 C -0.12126 0.34782 0.10561
 C768 C -0.13301 0.32553 0.11910
 C769 C -0.08342 0.36878 0.07763
 C770 C -0.08571 0.39540 0.08831
 C771 C -0.07352 0.41766 0.07517
 C772 C -0.05841 0.41381 0.05124
 C773 C -0.05606 0.38726 0.04057
 C774 C -0.06861 0.36506 0.05345
 H775 H -0.17497 0.28730 0.12401
 H776 H -0.19552 0.24843 0.14722
 H777 H -0.11457 0.21785 0.16683
 H778 H -0.09409 0.25787 0.14565
 H779 H -0.08486 0.27722 0.10373
 H780 H -0.06368 0.31628 0.08161
 H781 H -0.13204 0.36722 0.10585
 H782 H -0.15207 0.32867 0.12997
 H783 H -0.09647 0.39902 0.10713
 H784 H -0.07549 0.43783 0.08407
 H785 H -0.04462 0.38360 0.02215
 H786 H -0.06685 0.34501 0.04430
 C787 C -0.13087 0.72522 -0.13983
 C788 C -0.15907 0.73025 -0.13655
 C789 C -0.17136 0.75331 -0.14818
 C790 C -0.15582 0.77233 -0.16344
 C791 C -0.12747 0.76684 -0.16682
 C792 C -0.11529 0.74369 -0.15526
 C793 C -0.11766 0.70110 -0.12678
 C794 C -0.09130 0.70328 -0.11533
 C795 C -0.07904 0.68080 -0.10264
 C796 C -0.09290 0.65560 -0.10089
 C797 C -0.11920 0.65335 -0.11247
 C798 C -0.13141 0.67581 -0.12530
 C799 C -0.08007 0.63189 -0.08678
 C800 C -0.08330 0.60511 -0.09674
 C801 C -0.07132 0.58286 -0.08333
 C802 C -0.05569 0.58691 -0.05975
 C803 C -0.05242 0.61369 -0.04983
 C804 C -0.06454 0.63588 -0.06312
 H805 H -0.17170 0.71651 -0.12467
 H806 H -0.19333 0.75548 -0.14570
 H807 H -0.11400 0.78091 -0.17727
 H808 H -0.09352 0.74032 -0.15839
 H809 H -0.08026 0.72252 -0.11579
 H810 H -0.05861 0.68316 -0.09428
 H811 H -0.13058 0.63434 -0.11124
 H812 H -0.15159 0.67331 -0.13420
 H813 H -0.09478 0.60136 -0.11512
 H814 H -0.07410 0.56252 -0.09160
 H815 H -0.04067 0.61755 -0.03162
 H816 H -0.06204 0.65615 -0.05461
 C817 C 0.12804 0.72303 0.13515
 C818 C 0.11219 0.74360 0.14752
 C819 C 0.12480 0.76610 0.15976
 C820 C 0.15360 0.76849 0.16022
 C821 C 0.16947 0.74768 0.14827
 C822 C 0.15685 0.72531 0.13577
 C823 C 0.11456 0.69950 0.12138
 C824 C 0.12628 0.67318 0.12235
 C825 C 0.11378 0.65120 0.10911
 C826 C 0.08907 0.65489 0.09477
 C827 C 0.07726 0.68117 0.09396
 C828 C 0.08990 0.70321 0.10696
 C829 C 0.07575 0.63148 0.08066
 C830 C 0.06232 0.63535 0.05573
 C831 C 0.04981 0.61337 0.04251
 C832 C 0.05072 0.58692 0.05371
 C833 C 0.06417 0.58299 0.07858
 C834 C 0.07639 0.60503 0.09197
 H835 H 0.08998 0.74232 0.14784
 H836 H 0.11190 0.78189 0.16846
 H837 H 0.19170 0.74864 0.14858
 H838 H 0.16972 0.71005 0.12619
 H839 H 0.14504 0.66947 0.13354
 H840 H 0.12368 0.63135 0.10987
 H841 H 0.05806 0.68473 0.08344
 H842 H 0.08048 0.72324 0.10542
 H843 H 0.06182 0.65531 0.04618
 H844 H 0.03974 0.61705 0.02330
 H845 H 0.06500 0.56291 0.08788
 H846 H 0.08607 0.60137 0.11136
 C847 C 0.27637 1.13305 0.87130
 C848 C 0.25459 1.14433 0.88633
 C849 C 0.23209 1.15630 0.87330
 C850 C 0.23091 1.15758 0.84490
 C851 C 0.25282 1.14658 0.82986
 C852 C 0.27518 1.13434 0.84288
 C853 C 0.30011 1.11984 0.88516
 C854 C 0.32683 1.12214 0.87455
 C855 C 0.34903 1.10933 0.88730
 C856 C 0.34515 1.09412 0.91119
 C857 C 0.31847 1.09207 0.92196
 C858 C 0.29623 1.10462 0.90904
 C859 C 0.36876 1.08027 0.92466
 C860 C 0.36533 1.05463 0.93725
 C861 C 0.38748 1.04157 0.94982
 C862 C 0.41368 1.05365 0.94978
 C863 C 0.41721 1.07920 0.93715
 C864 C 0.39497 1.09244 0.92489
 H865 H 0.25496 1.14411 0.90823
 H866 H 0.21543 1.16426 0.88552
 H867 H 0.25282 1.14758 0.80798
 H868 H 0.29136 1.12556 0.83061
 H869 H 0.33070 1.13401 0.85643
 H870 H 0.36919 1.11106 0.87820
 H871 H 0.31473 1.08089 0.94053
 H872 H 0.27592 1.10207 0.91762
 H873 H 0.34561 1.04438 0.93703
 H874 H 0.38416 1.02176 0.95916
 H875 H 0.43711 1.08912 0.93702
 H876 H 0.39829 1.11237 0.91586
 C877 C 0.27321 0.86463 1.13279
 C878 C 0.25210 0.85285 1.11724
 C879 C 0.22904 0.84136 1.12968
 C880 C 0.22662 0.84099 1.15803
 C881 C 0.24779 0.85262 1.17361
 C882 C 0.27072 0.86441 1.16115
 C883 C 0.29756 0.87728 1.11945
 C884 C 0.32383 0.87536 1.13121
 C885 C 0.34659 0.88757 1.11882
 C886 C 0.34372 0.90178 1.09420
 C887 C 0.31750 0.90339 1.08230
 C888 C 0.29473 0.89148 1.09484
 C889 C 0.36781 0.91517 1.08114
 C890 C 0.36470 0.94024 1.06742
 C891 C 0.38715 0.95281 1.05498
 C892 C 0.41340 0.94086 1.05624
 C893 C 0.41667 0.91593 1.07010
 C894 C 0.39410 0.90314 1.08228
 H895 H 0.25344 0.85227 1.09538
 H896 H 0.21297 0.83300 1.11700
 H897 H 0.24678 0.85241 1.19549
 H898 H 0.28634 0.87363 1.17378
 H899 H 0.32690 0.86426 1.14994
 H900 H 0.36636 0.88617 1.12876
 H901 H 0.31454 0.91377 1.06315
 H902 H 0.27480 0.89373 1.08534
 H903 H 0.34495 0.95043 1.06660
 H904 H 0.38396 0.97214 1.04468
 H905 H 0.43661 0.90612 1.07126
 H906 H 0.39720 0.88364 1.09227
 C907 C 0.72619 1.12998 1.13426
 C908 C 0.72827 1.13177 1.16259
 C909 C 0.75080 1.14462 1.17467
 C910 C 0.77200 1.15574 1.15875
 C911 C 0.76995 1.15391 1.13043
 C912 C 0.74728 1.14135 1.11835
 C913 C 0.70222 1.11627 1.12135
 C914 C 0.70554 1.10090 1.09752
 C915 C 0.68303 1.08823 1.08526
 C916 C 0.65663 1.09028 1.09667
 C917 C 0.65333 1.10548 1.12061
 C918 C 0.67579 1.11843 1.13270
 C919 C 0.63267 1.07672 1.08358
 C920 C 0.60656 1.08917 1.08381
 C921 C 0.58413 1.07651 1.07136
 C922 C 0.58735 1.05132 1.05806
 C923 C 0.61337 1.03883 1.05778
 C924 C 0.63572 1.05129 1.07055
 H925 H 0.71264 1.12295 1.17552
 H926 H 0.75148 1.14601 1.19652
 H927 H 0.78605 1.16193 1.11754
 H928 H 0.74621 1.14076 1.09648
 H929 H 0.72562 1.09842 1.08840
 H930 H 0.68633 1.07705 1.06663
 H931 H 0.63340 1.10721 1.13019
 H932 H 0.67235 1.13039 1.15081
 H933 H 0.60351 1.10896 1.09320
 H934 H 0.56436 1.08672 1.07171
 H935 H 0.61642 1.01924 1.04795
 H936 H 0.65533 1.04080 1.07043
 C937 C 0.72632 0.86883 0.86666
 C938 C 0.72810 0.86813 0.83825
 C939 C 0.75069 0.85608 0.82547
 C940 C 0.77223 0.84466 0.84075
 C941 C 0.77048 0.84539 0.86913
 C942 C 0.74775 0.85717 0.88191
 C943 C 0.70232 0.88176 0.88032
 C944 C 0.70576 0.89638 0.90459
 C945 C 0.68325 0.90836 0.91755
 C946 C 0.65672 0.90636 0.90642
 C947 C 0.65330 0.89189 0.88207
 C948 C 0.67577 0.87963 0.86926
 C949 C 0.63278 0.91929 0.92019
 C950 C 0.60682 0.90658 0.91998
 C951 C 0.58440 0.91871 0.93300
 C952 C 0.58749 0.94362 0.94683
 C953 C 0.61339 0.95634 0.94711
 C954 C 0.63571 0.94441 0.93380
 H955 H 0.71218 0.87722 0.82583
 H956 H 0.75120 0.85557 0.80357
 H957 H 0.78685 0.83714 0.88155
 H958 H 0.74693 0.85693 0.90380
 H959 H 0.72593 0.89881 0.91352
 H960 H 0.68666 0.91899 0.93646
 H961 H 0.63326 0.89022 0.87270
 H962 H 0.67226 0.86825 0.85080
 H963 H 0.60389 0.88702 0.91013
 H964 H 0.56473 0.90833 0.93261
 H965 H 0.61634 0.97573 0.95734
 H966 H 0.65520 0.95509 0.93393
   
