data_POSCAR
  _audit_creation_date              2014-09-24
  _audit_creation_method            'ToBaCCo'
  _symmetry_space_group_name_H-M    'P1'
  _symmetry_Int_Tables_number       1
  _symmetry_cell_setting            triclinic
  loop_
  _symmetry_equiv_pos_as_xyz
 x,y,z
_cell_length_a 34.7792
_cell_length_b 35.1694
_cell_length_c 35.1284
_cell_angle_alpha 91.492600
_cell_angle_beta 76.770800
_cell_angle_gamma 100.094700
loop_
  _atom_site_label
  _atom_site_type_symbol
  _atom_site_fract_x
  _atom_site_fract_y
  _atom_site_fract_z
O1 O 0.54228 0.50489 0.03490
 O2 O 0.43647 0.49293 0.02893
 O3 O 0.48641 0.44625 0.03130
 O4 O 0.49237 0.55188 0.03253
 O5 O 0.51115 0.55389 -0.03186
 O6 O 0.50496 0.44825 -0.03310
 O7 O 0.45515 0.49539 -0.03539
 O8 O 0.56097 0.50707 -0.02950
 Cu9 Cu 0.48752 0.49881 0.03835
 Cu10 Cu 0.50991 0.50132 -0.03890
 C11 C 0.56974 0.50779 0.00372
 C12 C 0.42758 0.49237 -0.00425
 C13 C 0.49487 0.42917 -0.00108
 C14 C 0.50258 0.57097 0.00051
 O15 O -0.03989 0.54195 0.51109
 O16 O -0.02590 0.44049 0.50292
 O17 O -0.03162 0.49030 0.55910
 O18 O -0.03417 0.49207 0.45480
 O19 O 0.03141 0.51113 0.43913
 O20 O 0.03395 0.50941 0.54343
 O21 O 0.03968 0.45950 0.48719
 O22 O 0.02563 0.56095 0.49530
 Cu23 Cu -0.03945 0.48932 0.50853
 Cu24 Cu 0.03922 0.51214 0.48971
 C25 C -0.00956 0.56895 0.50453
 C26 C 0.00930 0.43260 0.49374
 C27 C 0.00162 0.49948 0.56914
 C28 C -0.00183 0.50197 0.42909
 O29 O 0.49892 0.02624 0.55615
 O30 O 0.51518 0.03707 0.44956
 O31 O 0.45377 0.03444 0.50809
 O32 O 0.56041 0.02890 0.49733
 O33 O 0.54640 -0.03442 0.49237
 O34 O 0.43975 -0.02889 0.50318
 O35 O 0.50121 -0.02622 0.44433
 O36 O 0.48502 -0.03699 0.55093
 Cu37 Cu 0.50847 0.03801 0.50334
 Cu38 Cu 0.49170 -0.03798 0.49715
 C39 C 0.48934 -0.00724 0.57190
 C40 C 0.51080 0.00728 0.42869
 C41 C 0.42852 0.00375 0.50734
 C42 C 0.57165 -0.00374 0.49315
 C43 C 0.49739 -0.03124 -0.08287
 C44 C 0.50286 -0.06849 -0.07522
 C45 C 0.50694 -0.07912 -0.03846
 C46 C 0.50600 -0.05153 -0.00833
 C47 C 0.49988 -0.01374 -0.01549
 C48 C 0.49526 -0.00363 -0.05280
 C49 C 0.48793 0.03357 -0.05885
 C50 C 0.48645 0.06073 -0.02927
 C51 C 0.49225 0.05179 0.00754
 C52 C 0.49841 0.01401 0.01470
 C53 C 0.51182 -0.06047 0.02848
 C54 C 0.51039 -0.03330 0.05804
 C55 C 0.50307 0.00390 0.05199
 C56 C 0.50099 0.03153 0.08204
 C57 C 0.49545 0.06876 0.07442
 C58 C 0.49129 0.07937 0.03768
 H59 H 0.48289 0.04201 -0.08646
 H60 H 0.48035 0.08875 -0.03552
 H61 H 0.51791 -0.08849 0.03473
 H62 H 0.51545 -0.04173 0.08564
 H63 H 0.50403 -0.08960 -0.09836
 H64 H 0.49431 0.08987 0.09755
 C65 C 0.04243 0.50626 0.91139
 C66 C 0.08107 0.50685 0.91701
 C67 C 0.08820 0.50415 0.95438
 C68 C 0.05577 0.50179 0.98758
 C69 C 0.01639 0.50146 0.98246
 C70 C 0.00964 0.50349 0.94425
 C71 C -0.02960 0.50328 0.93997
 C72 C -0.06165 0.50049 0.97238
 C73 C -0.05569 0.49897 1.01054
 C74 C -0.01631 0.49934 1.01566
 C75 C 0.06174 0.50043 1.02575
 C76 C 0.02969 0.49766 1.05817
 C77 C -0.00956 0.49734 1.05388
 C78 C -0.04237 0.49449 1.08674
 C79 C -0.08103 0.49373 1.08110
 C80 C -0.08814 0.49642 1.04373
 H81 H -0.03603 0.50528 0.91146
 H82 H -0.09123 0.49940 0.96705
 H83 H 0.09132 0.50163 1.03111
 H84 H 0.03613 0.49574 1.08668
 H85 H 0.10598 0.50857 0.89168
 H86 H -0.10598 0.49187 1.10640
 C87 C -0.03555 -0.08693 0.50033
 C88 C -0.07482 -0.08192 0.50165
 C89 C -0.08484 -0.04513 0.50140
 C90 C -0.05488 -0.01205 0.50086
 C91 C -0.01495 -0.01663 0.49998
 C92 C -0.00518 -0.05418 0.49953
 C93 C 0.03453 -0.05799 0.49887
 C94 C 0.06420 -0.02566 0.49796
 C95 C 0.05519 0.01184 0.49890
 C96 C 0.01526 0.01642 0.49976
 C97 C -0.06390 0.02545 0.50183
 C98 C -0.03422 0.05778 0.50090
 C99 C 0.00550 0.05397 0.50018
 C100 C 0.03587 0.08671 0.49932
 C101 C 0.07514 0.08172 0.49802
 C102 C 0.08514 0.04493 0.49835
 H103 H 0.04318 -0.08603 0.49908
 H104 H 0.09437 -0.03053 0.49638
 H105 H -0.09407 0.03033 0.50346
 H106 H -0.04288 0.08583 0.50072
 H107 H -0.09785 -0.10717 0.50192
 H108 H 0.09817 0.10697 0.49773
 C109 C -0.35672 0.51887 0.97233
 C110 C -0.31673 0.52116 0.97449
 C111 C -0.30698 0.51547 1.01029
 C112 C -0.33799 0.50882 1.04427
 C113 C -0.37795 0.50683 1.04218
 C114 C -0.38780 0.51144 1.00613
 C115 C -0.26432 0.51731 1.01127
 C116 C -0.25273 0.49736 1.03741
 C117 C -0.21014 0.49779 1.03783
 C118 C -0.19997 0.46590 1.05401
 C119 C -0.16026 0.46529 1.05540
 C120 C -0.12997 0.49671 1.04084
 C121 C -0.14012 0.52908 1.02550
 C122 C -0.17982 0.52960 1.02382
 H123 H -0.36327 0.52281 0.94415
 H124 H -0.29335 0.52674 0.94798
 H125 H -0.33151 0.50554 1.07258
 H126 H -0.40117 0.50134 1.06880
 H127 H -0.24191 0.53356 0.98815
 H128 H -0.27512 0.47805 1.05799
 H129 H -0.22282 0.44126 1.06541
 H130 H -0.15308 0.44030 1.06786
 H131 H -0.11728 0.55401 1.01508
 H132 H -0.18673 0.55523 1.01241
 C133 C 0.35619 0.48445 1.02762
 C134 C 0.31623 0.48213 1.02537
 C135 C 0.30633 0.48487 0.98915
 C136 C 0.33706 0.48851 0.95493
 C137 C 0.37700 0.49043 0.95705
 C138 C 0.38725 0.48891 0.99348
 C139 C 0.26375 0.48322 0.98801
 C140 C 0.25255 0.50187 0.96066
 C141 C 0.21007 0.50184 0.96018
 C142 C 0.20032 0.53349 0.94318
 C143 C 0.16065 0.53443 0.94186
 C144 C 0.13001 0.50355 0.95722
 C145 C 0.13977 0.47136 0.97329
 C146 C 0.17941 0.47056 0.97500
 H147 H 0.36264 0.48287 1.05622
 H148 H 0.29301 0.47889 1.05211
 H149 H 0.33032 0.48948 0.92641
 H150 H 0.39985 0.49348 0.93004
 H151 H 0.24113 0.46845 1.01195
 H152 H 0.27522 0.51990 0.93912
 H153 H 0.22345 0.55770 0.93116
 H154 H 0.15380 0.55926 0.92881
 H155 H 0.11668 0.44679 0.98430
 H156 H 0.18604 0.44513 0.98708
 C157 C -0.05369 -0.38288 0.51787
 C158 C -0.05900 -0.34435 0.52030
 C159 C -0.02589 -0.31427 0.51187
 C160 C 0.01290 -0.32347 0.50191
 C161 C 0.01829 -0.36199 0.49959
 C162 C -0.01494 -0.39230 0.50733
 C163 C -0.03297 -0.27385 0.51486
 C164 C -0.00724 -0.24428 0.49487
 C165 C -0.01491 -0.20406 0.49715
 C166 C 0.00352 -0.17868 0.46544
 C167 C -0.00306 -0.14056 0.46643
 C168 C -0.02758 -0.12696 0.49951
 C169 C -0.04579 -0.15206 0.53138
 C170 C -0.03936 -0.19022 0.53038
 H171 H -0.08010 -0.40523 0.52427
 H172 H -0.08917 -0.33802 0.52844
 H173 H 0.03923 -0.30108 0.49649
 H174 H 0.04864 -0.36789 0.49175
 H175 H -0.06151 -0.26889 0.53246
 H176 H 0.01943 -0.24984 0.47426
 H177 H 0.02264 -0.18855 0.43962
 H178 H 0.01089 -0.12162 0.44141
 H179 H -0.06481 -0.14196 0.55714
 H180 H -0.05309 -0.20851 0.55587
 C181 C 0.05361 0.38251 0.47943
 C182 C 0.05894 0.34399 0.47711
 C183 C 0.02588 0.31391 0.48656
 C184 C -0.01289 0.32314 0.49743
 C185 C -0.01825 0.36167 0.49964
 C186 C 0.01495 0.39179 0.49086
 C187 C 0.03297 0.27349 0.48370
 C188 C 0.00756 0.24405 0.50423
 C189 C 0.01524 0.20382 0.50207
 C190 C -0.00291 0.17864 0.53400
 C191 C 0.00366 0.14051 0.53315
 C192 C 0.02792 0.12674 0.50001
 C193 C 0.04585 0.15163 0.46792
 C194 C 0.03941 0.18978 0.46877
 H195 H 0.07981 0.40502 0.47227
 H196 H 0.08908 0.33766 0.46827
 H197 H -0.03923 0.30078 0.50365
 H198 H -0.04845 0.36784 0.50820
 H199 H 0.06129 0.26845 0.46569
 H200 H -0.01884 0.24971 0.52518
 H201 H -0.02182 0.18865 0.55988
 H202 H -0.01009 0.12172 0.55832
 H203 H 0.06466 0.14138 0.44211
 H204 H 0.05290 0.20789 0.44311
 C205 C 0.47410 -0.04838 -0.36966
 C206 C 0.47028 -0.05261 -0.32950
 C207 C 0.47648 -0.02020 -0.30613
 C208 C 0.48511 0.01682 -0.32353
 C209 C 0.48895 0.02112 -0.36372
 C210 C 0.48398 -0.01144 -0.38747
 C211 C 0.47352 -0.02629 -0.26392
 C212 C 0.49213 -0.00078 -0.24210
 C213 C 0.49181 -0.00827 -0.20071
 C214 C 0.52329 0.01147 -0.18506
 C215 C 0.52489 0.00436 -0.14658
 C216 C 0.49470 -0.02224 -0.12294
 C217 C 0.46280 -0.04151 -0.13812
 C218 C 0.46113 -0.03441 -0.17659
 H219 H 0.46970 -0.07421 -0.38674
 H220 H 0.46317 -0.08142 -0.31674
 H221 H 0.48863 0.04258 -0.30629
 H222 H 0.49603 0.05008 -0.37612
 H223 H 0.45796 -0.05410 -0.25142
 H224 H 0.51090 0.02544 -0.25559
 H225 H 0.54713 0.03190 -0.20291
 H226 H 0.54987 0.01927 -0.13530
 H227 H 0.43919 -0.06204 -0.12011
 H228 H 0.43566 -0.04923 -0.18708
 C229 C 0.52579 0.04867 0.36839
 C230 C 0.52938 0.05296 0.32827
 C231 C 0.52329 0.02054 0.30486
 C232 C 0.51501 -0.01652 0.32217
 C233 C 0.51142 -0.02082 0.36233
 C234 C 0.51633 0.01173 0.38594
 C235 C 0.52596 0.02666 0.26271
 C236 C 0.50725 0.00111 0.24099
 C237 C 0.50727 0.00862 0.19969
 C238 C 0.47565 -0.01112 0.18424
 C239 C 0.47379 -0.00400 0.14583
 C240 C 0.50388 0.02259 0.12206
 C241 C 0.53592 0.04186 0.13705
 C242 C 0.53784 0.03476 0.17544
 H243 H 0.52999 0.07434 0.38572
 H244 H 0.53620 0.08180 0.31559
 H245 H 0.51156 -0.04227 0.30490
 H246 H 0.50458 -0.04969 0.37490
 H247 H 0.54136 0.05451 0.25018
 H248 H 0.48863 -0.02515 0.25454
 H249 H 0.45189 -0.03155 0.20219
 H250 H 0.44872 -0.01892 0.13471
 H251 H 0.55945 0.06238 0.11893
 H252 H 0.56340 0.04958 0.18578
 C253 C 0.49398 -0.36721 0.03618
 C254 C 0.49388 -0.32746 0.03622
 C255 C 0.50401 -0.30621 0.00099
 C256 C 0.51394 -0.32573 -0.03446
 C257 C 0.51405 -0.36544 -0.03450
 C258 C 0.50393 -0.38668 0.00079
 C259 C 0.50180 -0.26441 0.00225
 C260 C 0.52178 -0.23933 -0.02668
 C261 C 0.51825 -0.19788 -0.02685
 C262 C 0.54801 -0.17247 -0.05251
 C263 C 0.54480 -0.13368 -0.05553
 C264 C 0.51174 -0.11950 -0.03289
 C265 C 0.48189 -0.14466 -0.00718
 C266 C 0.48504 -0.18352 -0.00414
 H267 H 0.48587 -0.38274 0.06388
 H268 H 0.48573 -0.31326 0.06390
 H269 H 0.52057 -0.31079 -0.06234
 H270 H 0.52147 -0.37961 -0.06230
 H271 H 0.48390 -0.25407 0.02852
 H272 H 0.54257 -0.24914 -0.05121
 H273 H 0.57366 -0.18278 -0.07063
 H274 H 0.56788 -0.11475 -0.07588
 H275 H 0.45572 -0.13434 0.00986
 H276 H 0.46075 -0.20226 0.01501
 C277 C 0.50344 0.36736 -0.03677
 C278 C 0.50362 0.32762 -0.03683
 C279 C 0.49362 0.30637 -0.00161
 C280 C 0.48374 0.32588 0.03386
 C281 C 0.48356 0.36558 0.03391
 C282 C 0.49356 0.38682 -0.00137
 C283 C 0.49592 0.26459 -0.00289
 C284 C 0.47605 0.23949 0.02605
 C285 C 0.47969 0.19807 0.02618
 C286 C 0.44999 0.17260 0.05184
 C287 C 0.45330 0.13382 0.05481
 C288 C 0.48640 0.11973 0.03214
 C289 C 0.51618 0.14495 0.00644
 C290 C 0.51294 0.18379 0.00344
 H291 H 0.51146 0.38288 -0.06447
 H292 H 0.51172 0.31342 -0.06453
 H293 H 0.47721 0.31095 0.06173
 H294 H 0.47619 0.37975 0.06172
 H295 H 0.51379 0.25428 -0.02920
 H296 H 0.45528 0.24926 0.05062
 H297 H 0.42432 0.18284 0.06998
 H298 H 0.43026 0.11485 0.07516
 H299 H 0.54238 0.13470 -0.01063
 H300 H 0.53718 0.20258 -0.01571
 C301 C -0.35645 0.02765 0.48545
 C302 C -0.31623 0.02542 0.48296
 C303 C -0.30440 -0.01044 0.48518
 C304 C -0.33341 -0.04427 0.48858
 C305 C -0.37358 -0.04207 0.49074
 C306 C -0.38561 -0.00608 0.48957
 C307 C -0.26165 -0.01162 0.48318
 C308 C -0.24976 -0.03926 0.50098
 C309 C -0.20719 -0.03986 0.50042
 C310 C -0.19800 -0.05790 0.53158
 C311 C -0.15820 -0.05919 0.53207
 C312 C -0.12690 -0.04269 0.50124
 C313 C -0.13600 -0.02560 0.46948
 C314 C -0.17579 -0.02400 0.46911
 H315 H -0.36471 0.05580 0.48419
 H316 H -0.29435 0.05184 0.47993
 H317 H -0.32515 -0.07248 0.48912
 H318 H -0.39527 -0.06860 0.49362
 H319 H -0.23967 0.01242 0.46882
 H320 H -0.27207 -0.06105 0.51872
 H321 H -0.22168 -0.07074 0.55577
 H322 H -0.15175 -0.07302 0.55653
 H323 H -0.11225 -0.01365 0.44494
 H324 H -0.18186 -0.01109 0.44397
 C325 C 0.35663 -0.02765 0.51504
 C326 C 0.31641 -0.02544 0.51747
 C327 C 0.30459 0.01041 0.51516
 C328 C 0.33359 0.04424 0.51175
 C329 C 0.37375 0.04206 0.50965
 C330 C 0.38578 0.00608 0.51089
 C331 C 0.26185 0.01156 0.51707
 C332 C 0.24999 0.03915 0.49917
 C333 C 0.20744 0.03971 0.49962
 C334 C 0.19831 0.05771 0.46840
 C335 C 0.15853 0.05897 0.46781
 C336 C 0.12718 0.04248 0.49860
 C337 C 0.13621 0.02543 0.53042
 C338 C 0.17598 0.02386 0.53089
 H339 H 0.36489 -0.05580 0.51636
 H340 H 0.29454 -0.05186 0.52052
 H341 H 0.32532 0.07244 0.51114
 H342 H 0.39544 0.06859 0.50675
 H343 H 0.23986 -0.01247 0.53144
 H344 H 0.27233 0.06092 0.48142
 H345 H 0.22203 0.07054 0.44423
 H346 H 0.15214 0.07277 0.44330
 H347 H 0.11242 0.01350 0.55493
 H348 H 0.18199 0.01099 0.55608
 C349 C 0.03230 0.51537 1.35847
 C350 C 0.03118 0.51675 1.31899
 C351 C -0.00502 0.50542 1.30717
 C352 C -0.04037 0.49332 1.33592
 C353 C -0.03926 0.49204 1.37542
 C354 C -0.00292 0.50299 1.38716
 C355 C -0.00493 0.50801 1.26501
 C356 C -0.03274 0.48677 1.24866
 C357 C -0.03306 0.48923 1.20659
 C358 C -0.05435 0.45805 1.18994
 C359 C -0.05669 0.45955 1.15083
 C360 C -0.03781 0.49232 1.12756
 C361 C -0.01688 0.52378 1.14409
 C362 C -0.01443 0.52229 1.18323
 H363 H 0.06078 0.52420 1.36651
 H364 H 0.05877 0.52654 1.29754
 H365 H -0.06910 0.48558 1.32824
 H366 H -0.06700 0.48269 1.39680
 H367 H 0.02006 0.52684 1.24673
 H368 H -0.05552 0.46532 1.26631
 H369 H -0.06935 0.43245 1.20731
 H370 H -0.07345 0.43521 1.13871
 H371 H -0.00295 0.54968 1.12679
 H372 H 0.00108 0.54746 1.19521
 C373 C -0.03249 0.48606 0.63976
 C374 C -0.03134 0.48462 0.67924
 C375 C 0.00488 0.49587 0.69103
 C376 C 0.04022 0.50797 0.66227
 C377 C 0.03909 0.50932 0.62279
 C378 C 0.00272 0.49843 0.61106
 C379 C 0.00482 0.49319 0.73318
 C380 C 0.03270 0.51433 0.74953
 C381 C 0.03305 0.51178 0.79158
 C382 C 0.05445 0.54287 0.80825
 C383 C 0.05682 0.54128 0.84734
 C384 C 0.03787 0.50851 0.87058
 C385 C 0.01685 0.47713 0.85402
 C386 C 0.01437 0.47870 0.81490
 H387 H -0.06098 0.47728 0.63174
 H388 H -0.05892 0.47483 0.70069
 H389 H 0.06897 0.51565 0.66993
 H390 H 0.06682 0.51865 0.60140
 H391 H -0.02019 0.47439 0.75145
 H392 H 0.05550 0.53577 0.73189
 H393 H 0.06949 0.56848 0.79091
 H394 H 0.07364 0.56556 0.85948
 H395 H 0.00287 0.45122 0.87130
 H396 H -0.00122 0.45359 0.80290
   
