data_POSCAR
  _audit_creation_date              2014-09-24
  _audit_creation_method            'ToBaCCo'
  _symmetry_space_group_name_H-M    'P1'
  _symmetry_Int_Tables_number       1
  _symmetry_cell_setting            triclinic
  loop_
  _symmetry_equiv_pos_as_xyz
 x,y,z
_cell_length_a 23.7793
_cell_length_b 23.7260
_cell_length_c 23.6913
_cell_angle_alpha 90.031400
_cell_angle_beta 90.081600
_cell_angle_gamma 90.090200
loop_
  _atom_site_label
  _atom_site_type_symbol
  _atom_site_fract_x
  _atom_site_fract_y
  _atom_site_fract_z
N1 N 0.61014 0.60106 0.60241
 N2 N 0.86103 0.35514 0.14370
 N3 N 0.36127 0.14210 -0.14568
 N4 N 0.11039 0.89519 0.39658
 N5 N 0.06144 0.21069 0.09752
 N6 N 0.03835 0.18874 0.14318
 C7 C -0.00988 0.21629 0.15432
 C8 C -0.01771 0.25685 0.11319
 C9 C 0.02789 0.25185 0.07768
 H10 H -0.03777 0.20699 0.18910
 H11 H 0.03605 0.27666 0.04029
 Cu12 Cu 0.07192 0.12523 0.18489
 Cu13 Cu 0.13333 0.18446 0.06591
 Cu14 Cu 0.18827 0.06950 0.12692
 N15 N 0.11258 0.06318 0.22009
 N16 N 0.15973 0.04329 0.19912
 C17 C 0.17979 0.00304 0.23374
 C18 C 0.14278 -0.00321 0.27809
 C19 C 0.10052 0.03557 0.26824
 H20 H 0.21785 -0.02085 0.22682
 H21 H 0.06435 0.04378 0.29460
 N22 N 0.21566 0.09687 0.05464
 N23 N 0.19516 0.14301 0.03190
 C24 C 0.22282 0.15408 -0.01638
 C25 C 0.26223 0.11207 -0.02460
 C26 C 0.25632 0.07628 0.02092
 H27 H 0.21414 0.18936 -0.04391
 H28 H 0.28046 0.03856 0.02907
 H29 H 0.09934 0.11313 0.10234
 H30 H 0.14262 0.15873 0.14995
 N31 N 0.44511 0.77931 0.60431
 N32 N 0.46375 0.79910 0.65270
 C33 C 0.50297 0.76377 0.67334
 C34 C 0.50997 0.72029 0.63525
 C35 C 0.47270 0.73144 0.59178
 H36 H 0.52572 0.76979 0.71245
 H37 H 0.46553 0.70634 0.55431
 Cu38 Cu 0.43770 0.87119 0.68151
 Cu39 Cu 0.38632 0.81729 0.56162
 Cu40 Cu 0.31309 0.91929 0.63707
 N41 N 0.40855 0.94317 0.70740
 N42 N 0.35864 0.96089 0.69143
 C43 C 0.34653 1.00913 0.71872
 C44 C 0.39178 1.02266 0.75298
 C45 C 0.43049 0.98019 0.74450
 H46 H 0.30791 1.03263 0.71365
 H47 H 0.47088 0.97589 0.76508
 N48 N 0.28485 0.88567 0.56642
 N49 N 0.31249 0.84660 0.53811
 C50 C 0.28155 0.83069 0.49320
 C51 C 0.23286 0.86219 0.49256
 C52 C 0.23622 0.89677 0.53944
 H53 H 0.29349 0.79852 0.46318
 H54 H 0.20509 0.92683 0.55347
 H55 H 0.38522 0.89854 0.59724
 H56 H 0.35109 0.83936 0.63622
 N57 N 0.94304 0.71850 0.39239
 N58 N 0.96017 0.70012 0.34297
 C59 C 0.99968 0.73542 0.32279
 C60 C 1.00841 0.77746 0.36216
 C61 C 0.97187 0.76546 0.40597
 H62 H 1.02140 0.73039 0.28303
 H63 H 0.96601 0.78940 0.44437
 Cu64 Cu 0.93169 0.62991 0.31180
 Cu65 Cu 0.88457 0.68001 0.43505
 Cu66 Cu 0.81086 0.57699 0.36104
 N67 N 0.90515 0.55587 0.28876
 N68 N 0.85651 0.53625 0.30638
 C69 C 0.84560 0.48705 0.28021
 C70 C 0.89037 0.47496 0.24495
 C71 C 0.92752 0.51923 0.25171
 H72 H 0.80805 0.46207 0.28652
 H73 H 0.96696 0.52513 0.22978
 N74 N 0.78377 0.61012 0.43216
 N75 N 0.81152 0.64964 0.45993
 C76 C 0.78108 0.66546 0.50509
 C77 C 0.73265 0.63344 0.50647
 C78 C 0.73561 0.59864 0.45975
 H79 H 0.79305 0.69811 0.53465
 H80 H 0.70439 0.56837 0.44607
 H81 H 0.88398 0.59974 0.39771
 H82 H 0.84631 0.65840 0.36138
 N83 N 0.56067 0.28826 -0.09874
 N84 N 0.53614 0.31171 -0.14261
 C85 C 0.48807 0.28381 -0.15406
 C86 C 0.48218 0.24103 -0.11481
 C87 C 0.52878 0.24519 -0.08028
 H88 H 0.45904 0.29442 -0.18757
 H89 H 0.53901 0.21853 -0.04469
 Cu90 Cu 0.56906 0.37722 -0.17934
 Cu91 Cu 0.63350 0.31346 -0.07066
 Cu92 Cu 0.67249 0.44735 -0.11393
 N93 N 0.60915 0.43827 -0.21670
 N94 N 0.65103 0.46435 -0.19139
 C95 C 0.67130 0.50470 -0.22569
 C96 C 0.63997 0.50437 -0.27474
 C97 C 0.60080 0.46174 -0.26779
 H98 H 0.70516 0.53330 -0.21500
 H99 H 0.56879 0.44886 -0.29762
 N100 N 0.70588 0.40968 -0.04811
 N101 N 0.69323 0.35753 -0.03343
 C102 C 0.72458 0.34293 0.01162
 C103 C 0.75830 0.38835 0.02595
 C104 C 0.74519 0.42993 -0.01255
 H105 H 0.72179 0.30296 0.03335
 H106 H 0.76340 0.47167 -0.01478
 H107 H 0.60818 0.39358 -0.08523
 H108 H 0.66150 0.36604 -0.13594
 C109 C -0.09526 0.31399 0.15071
 C110 C -0.06468 0.29657 0.10676
 H111 H -0.08428 0.30048 0.19300
 H112 H -0.07238 0.31437 0.06537
 C113 C 0.56933 0.64517 0.59606
 C114 C 0.54924 0.67280 0.64089
 H115 H 0.55824 0.65897 0.55390
 H116 H 0.56453 0.66238 0.68269
 C117 C 1.06924 0.85118 0.40235
 C118 C 1.04836 0.82458 0.35717
 H119 H 1.05837 0.83670 0.44433
 H120 H 1.06329 0.83568 0.31545
 C121 C 0.40476 0.18356 -0.15274
 C122 C 0.43586 0.20041 -0.10883
 H123 H 0.41492 0.19798 -0.19491
 H124 H 0.42893 0.18160 -0.06775
 C125 C 0.10398 -0.06253 0.35367
 C126 C 0.14846 -0.04315 0.32518
 H127 H 0.06196 -0.05004 0.34116
 H128 H 0.18985 -0.05987 0.33429
 C129 C 0.60323 0.55912 -0.35451
 C130 C 0.64676 0.54304 -0.32270
 H131 H 0.56119 0.54466 -0.34434
 H132 H 0.68760 0.56219 -0.32936
 C133 C 0.35405 1.09799 0.81332
 C134 C 0.39825 1.07079 0.79164
 H135 H 0.31183 1.08369 0.80357
 H136 H 0.44030 1.08183 0.80542
 C137 C 0.85345 0.39834 0.18556
 C138 C 0.89733 0.42697 0.20628
 H139 H 0.81108 0.41109 0.19639
 H140 H 0.93930 0.41750 0.19131
 C141 C 0.32038 0.14931 -0.10171
 C142 C 0.30189 0.10537 -0.07167
 H143 H 0.30785 0.19166 -0.09011
 H144 H 0.31868 0.06376 -0.07991
 C145 C 0.65381 0.59493 0.56114
 C146 C 0.68667 0.63854 0.54751
 H147 H 0.66245 0.55346 0.54404
 H148 H 0.68125 0.67844 0.56907
 C149 C 0.82069 0.34872 0.09885
 C150 C 0.79834 0.39356 0.07305
 H151 H 0.81123 0.30671 0.08354
 H152 H 0.81155 0.43553 0.08533
 C153 C 0.15374 0.90090 0.43841
 C154 C 0.18669 0.85729 0.45155
 H155 H 0.16227 0.94216 0.45612
 H156 H 0.18139 0.81767 0.42939
   
