data_POSCAR
  _audit_creation_date              2014-09-24
  _audit_creation_method            'ToBaCCo'
  _symmetry_space_group_name_H-M    'P1'
  _symmetry_Int_Tables_number       1
  _symmetry_cell_setting            triclinic
  loop_
  _symmetry_equiv_pos_as_xyz
 x,y,z
_cell_length_a 24.6996
_cell_length_b 24.4907
_cell_length_c 48.6005
_cell_angle_alpha 87.045700
_cell_angle_beta 94.407800
_cell_angle_gamma 81.611100
loop_
  _atom_site_label
  _atom_site_type_symbol
  _atom_site_fract_x
  _atom_site_fract_y
  _atom_site_fract_z
C1 C 0.03202 0.63951 1.00423
 C2 C 0.01339 0.61268 1.02723
 C3 C 0.00129 0.55865 1.02474
 C4 C 0.01243 0.52985 1.00097
 C5 C 0.03330 0.55727 0.97883
 C6 C 0.04121 0.61307 0.97953
 C7 C 0.00338 0.47085 0.99940
 C8 C -0.00884 0.44923 0.97366
 C9 C -0.01532 0.39351 0.97194
 C10 C -0.01202 0.35955 0.99628
 C11 C -0.00052 0.38001 1.02215
 C12 C 0.00793 0.43528 1.02353
 H13 H 0.03446 0.68309 1.00498
 H14 H -0.01461 0.53798 1.04184
 H15 H 0.04547 0.53426 0.96139
 H16 H -0.01376 0.47547 0.95476
 H17 H -0.01756 0.31664 0.99502
 H18 H 0.01966 0.44965 1.04348
 C19 C 0.34999 0.00542 0.50184
 C20 C 0.38112 0.01839 0.52526
 C21 C 0.43744 0.01987 0.52399
 C22 C 0.46357 0.00647 0.49985
 C23 C 0.43129 -0.00718 0.47668
 C24 C 0.37457 -0.00682 0.47742
 C25 C 0.52412 0.00648 0.49892
 C26 C 0.54667 0.01597 0.47362
 C27 C 0.60349 0.01551 0.47237
 C28 C 0.63770 0.00594 0.49721
 C29 C 0.61666 -0.00326 0.52288
 C30 C 0.55976 -0.00320 0.52333
 H31 H 0.30634 0.00483 0.50260
 H32 H 0.46029 0.03248 0.54184
 H33 H 0.44993 -0.01930 0.45807
 H34 H 0.51966 0.02670 0.45496
 H35 H 0.68137 0.00565 0.49657
 H36 H 0.54373 -0.01379 0.54266
 C37 C 0.06554 -0.02652 0.26951
 H38 H 0.07250 -0.02281 0.24783
 C39 C 0.10959 -0.02928 0.28968
 H40 H 0.15051 -0.02840 0.28331
 C41 C 0.00370 -0.03263 0.30408
 H42 H -0.03762 -0.03384 0.30966
 C43 C 0.04632 -0.03516 0.32485
 H44 H 0.03688 -0.03728 0.34623
 N45 N 0.01389 -0.02853 0.27701
 C46 C -0.08857 -0.10033 0.21565
 H47 H -0.12650 -0.07182 0.21518
 C48 C -0.08422 -0.14299 0.19755
 H49 H -0.11904 -0.14723 0.18329
 C50 C 0.00462 -0.12608 0.23280
 H51 H 0.03960 -0.11864 0.24600
 C52 C 0.01089 -0.16881 0.21488
 H53 H 0.05067 -0.19402 0.21454
 Zn54 Zn -0.04596 -0.02375 0.24970
 N55 N -0.04388 -0.09144 0.23206
 C56 C -0.04496 0.02285 0.19545
 N57 N -0.03953 0.03341 0.22265
 C58 C -0.02602 0.08257 0.23059
 C59 C -0.01813 0.12358 0.21078
 C60 C -0.03719 0.06238 0.17507
 C61 C -0.13867 -0.04974 0.27556
 C62 C -0.18036 -0.04047 0.29341
 C63 C -0.16754 0.05544 0.29327
 C64 C -0.12637 0.04444 0.27536
 N65 N -0.11186 -0.00772 0.26736
 H66 H -0.05476 -0.01646 0.18933
 H67 H -0.01998 0.08949 0.25233
 H68 H -0.00672 0.16218 0.21742
 H69 H -0.04213 0.05312 0.15355
 H70 H -0.12544 -0.09123 0.26968
 H71 H -0.19913 -0.07498 0.30096
 H72 H -0.17704 0.09675 0.30027
 H73 H -0.10416 0.07707 0.26902
 C74 C -0.03331 -0.17623 0.19625
 C75 C 0.10023 -0.03371 0.31783
 C76 C -0.19390 0.01231 0.30319
 C77 C -0.02326 0.11338 0.18261
 C78 C -0.03389 0.10678 0.77386
 H79 H -0.06786 0.09503 0.76142
 C80 C -0.04379 0.14930 0.79178
 H81 H -0.08539 0.16977 0.79301
 C82 C 0.06139 0.09476 0.78768
 H83 H 0.10236 0.07345 0.78596
 C84 C 0.05345 0.13740 0.80557
 H85 H 0.08843 0.14774 0.81797
 N86 N 0.01794 0.07957 0.77262
 C87 C 0.12882 -0.01947 0.72523
 H88 H 0.12400 -0.05977 0.73402
 C89 C 0.16826 -0.01484 0.70647
 H90 H 0.19367 -0.05188 0.70100
 C91 C 0.09806 0.07711 0.71977
 H92 H 0.06931 0.11245 0.72443
 C93 C 0.13679 0.08359 0.70088
 H94 H 0.13829 0.12431 0.69145
 Zn95 Zn 0.03267 0.01760 0.75093
 N96 N 0.09409 0.02603 0.73106
 C97 C -0.01862 0.01601 0.69753
 N98 N -0.02803 0.01272 0.72474
 C99 C -0.07827 0.00481 0.73259
 C100 C -0.12071 -0.00168 0.71275
 C101 C -0.05979 0.01036 0.67715
 C102 C 0.09433 -0.05262 0.79339
 C103 C 0.10505 -0.09648 0.81354
 C104 C 0.02369 -0.13041 0.79508
 C105 C 0.01512 -0.08648 0.77498
 N106 N 0.04912 -0.04749 0.77507
 H107 H 0.02110 0.02256 0.69141
 H108 H -0.08509 0.00222 0.75430
 H109 H -0.15983 -0.00951 0.71943
 H110 H -0.05111 0.01386 0.65568
 H111 H 0.12182 -0.02221 0.79265
 H112 H 0.14112 -0.09931 0.82797
 H113 H -0.00598 -0.15881 0.79547
 H114 H -0.01977 -0.08293 0.75992
 C115 C 0.17152 0.03701 0.69345
 C116 C 0.00020 0.16458 0.80815
 C117 C 0.06851 -0.13527 0.81517
 C118 C -0.11143 0.00038 0.68457
 C119 C -0.00362 -0.30389 0.10105
 C120 C 0.03815 -0.29455 0.08422
 C121 C 0.04322 -0.32222 0.05988
 C122 C 0.00743 -0.36005 0.05215
 C123 C -0.03357 -0.36980 0.06989
 C124 C -0.03973 -0.34118 0.09407
 C125 C -0.01009 -0.27334 0.12626
 C126 C -0.05333 -0.28075 0.14258
 C127 C -0.06055 -0.24974 0.16593
 C128 C -0.02416 -0.21251 0.17311
 C129 C 0.01960 -0.20664 0.15683
 C130 C 0.02649 -0.23645 0.13324
 C131 C -0.08188 -0.34835 0.11120
 C132 C -0.08876 -0.31842 0.13493
 C133 C 0.07415 -0.25755 0.09201
 C134 C 0.06854 -0.22914 0.11617
 H135 H -0.11018 -0.37689 0.10605
 H136 H -0.12219 -0.32472 0.14735
 H137 H 0.10678 -0.25027 0.07923
 H138 H 0.09696 -0.20072 0.12136
 H139 H 0.07661 -0.31554 0.04750
 H140 H -0.06267 -0.39727 0.06432
 H141 H -0.09436 -0.25423 0.17841
 H142 H 0.04705 -0.17724 0.16197
 C143 C 0.00107 0.27028 0.09384
 C144 C -0.02488 0.32523 0.09401
 C145 C -0.02367 0.36167 0.07087
 C146 C 0.00276 0.34318 0.04763
 C147 C 0.02986 0.28833 0.04820
 C148 C 0.02888 0.25164 0.07116
 C149 C -0.00238 0.23103 0.11747
 C150 C 0.02215 0.17573 0.11683
 C151 C 0.01656 0.13797 0.13867
 C152 C -0.01367 0.15496 0.16096
 C153 C -0.03673 0.21095 0.16169
 C154 C -0.03150 0.24915 0.13984
 C155 C 0.05405 0.19630 0.07161
 C156 C 0.05073 0.15896 0.09407
 C157 C -0.05273 0.34213 0.11700
 C158 C -0.05597 0.30475 0.13953
 H159 H 0.07578 0.18151 0.05427
 H160 H 0.06999 0.11642 0.09342
 H161 H -0.07284 0.38443 0.11743
 H162 H -0.07847 0.31931 0.15667
 H163 H -0.04496 0.40370 0.07050
 H164 H 0.05102 0.27404 0.03058
 H165 H 0.03515 0.09514 0.13819
 H166 H -0.06034 0.22422 0.17869
 C167 C 0.29905 0.03891 0.59928
 C168 C 0.27520 0.06768 0.57453
 C169 C 0.30325 0.06252 0.55059
 C170 C 0.35465 0.02870 0.55125
 C171 C 0.37882 0.00157 0.57644
 C172 C 0.35092 0.00614 0.60050
 C173 C 0.26820 0.04149 0.62410
 C174 C 0.29091 0.01078 0.64854
 C175 C 0.26002 0.01092 0.67161
 C176 C 0.20678 0.04142 0.67029
 C177 C 0.18535 0.07313 0.64581
 C178 C 0.21570 0.07303 0.62262
 C179 C 0.37297 -0.02280 0.62553
 C180 C 0.34344 -0.02059 0.64913
 C181 C 0.22310 0.09977 0.57404
 C182 C 0.19386 0.10245 0.59769
 H183 H 0.41298 -0.04815 0.62676
 H184 H 0.36154 -0.04430 0.66787
 H185 H 0.20437 0.12230 0.55509
 H186 H 0.15342 0.12699 0.59631
 H187 H 0.28472 0.08392 0.53131
 H188 H 0.41813 -0.02496 0.57700
 H189 H 0.27691 -0.01331 0.69042
 H190 H 0.14408 0.09592 0.64440
 C191 C -0.27316 -0.01662 0.59477
 C192 C -0.32776 0.00816 0.59599
 C193 C -0.36521 0.00970 0.57257
 C194 C -0.34778 -0.01129 0.54757
 C195 C -0.29294 -0.03778 0.54735
 C196 C -0.25572 -0.04056 0.57076
 C197 C -0.23291 -0.01580 0.61875
 C198 C -0.17820 -0.03998 0.61725
 C199 C -0.13949 -0.03671 0.63943
 C200 C -0.15455 -0.00802 0.66276
 C201 C -0.21005 0.01463 0.66431
 C202 C -0.24945 0.01080 0.64230
 C203 C -0.20092 -0.06565 0.57033
 C204 C -0.16284 -0.06556 0.59324
 C205 C -0.34324 0.03284 0.62027
 C206 C -0.30471 0.03437 0.64296
 H207 H -0.18711 -0.08467 0.55196
 H208 H -0.12074 -0.08456 0.59191
 H209 H -0.38525 0.05217 0.62152
 H210 H -0.31816 0.05482 0.66103
 H211 H -0.40665 0.03102 0.57336
 H212 H -0.27901 -0.05701 0.52906
 H213 H -0.09729 -0.05560 0.63828
 H214 H -0.22216 0.03696 0.68206
 C215 C 0.07081 -0.29016 0.90884
 C216 C 0.04864 -0.33911 0.90531
 C217 C 0.04121 -0.37246 0.92869
 C218 C 0.05541 -0.35716 0.95578
 C219 C 0.08082 -0.30914 0.95845
 C220 C 0.08751 -0.27519 0.93524
 C221 C 0.07462 -0.25274 0.88450
 C222 C 0.09422 -0.20244 0.88825
 C223 C 0.09395 -0.16514 0.86536
 C224 C 0.07460 -0.17787 0.83871
 C225 C 0.05733 -0.22975 0.83524
 C226 C 0.05651 -0.26694 0.85812
 C227 C 0.10902 -0.22551 0.93805
 C228 C 0.11200 -0.18958 0.91497
 C229 C 0.03221 -0.35263 0.87848
 C230 C 0.03629 -0.31728 0.85528
 H231 H 0.12231 -0.21358 0.95835
 H232 H 0.12753 -0.15103 0.91812
 H233 H 0.01518 -0.39042 0.87541
 H234 H 0.02232 -0.32887 0.83502
 H235 H 0.02066 -0.40800 0.92546
 H236 H 0.09572 -0.29761 0.97852
 H237 H 0.10649 -0.12523 0.86860
 H238 H 0.04339 -0.24077 0.81487
 C239 C -0.02222 0.31071 0.89675
 C240 C 0.01522 0.34818 0.90074
 C241 C 0.01493 0.37784 0.92467
 C242 C -0.02160 0.36923 0.94478
 C243 C -0.06007 0.33287 0.94002
 C244 C -0.06049 0.30338 0.91604
 C245 C -0.01953 0.27655 0.87263
 C246 C -0.05572 0.23774 0.86915
 C247 C -0.05080 0.20302 0.84713
 C248 C -0.00931 0.20618 0.82904
 C249 C 0.02571 0.24633 0.83240
 C250 C 0.02080 0.28162 0.85419
 C251 C -0.09699 0.26519 0.91146
 C252 C -0.09474 0.23301 0.88838
 C253 C 0.05371 0.35346 0.88131
 C254 C 0.05654 0.32066 0.85845
 H255 H -0.12686 0.25934 0.92613
 H256 H -0.12296 0.20330 0.88589
 H257 H 0.08274 0.38229 0.88412
 H258 H 0.08764 0.32516 0.84429
 H259 H 0.04508 0.40524 0.92840
 H260 H -0.08850 0.32639 0.95537
 H261 H -0.07743 0.17176 0.84487
 H262 H 0.05743 0.24922 0.81839
 C263 C -0.32067 0.02852 0.39765
 C264 C -0.36888 0.00454 0.39789
 C265 C -0.39584 0.00306 0.42230
 C266 C -0.37363 0.02338 0.44681
 C267 C -0.32603 0.04905 0.44557
 C268 C -0.29955 0.05165 0.42121
 C269 C -0.29059 0.02771 0.37256
 C270 C -0.24196 0.05107 0.37259
 C271 C -0.21205 0.04788 0.34926
 C272 C -0.22977 0.02065 0.32617
 C273 C -0.27912 -0.00186 0.32625
 C274 C -0.30989 0.00181 0.34943
 C275 C -0.25145 0.07578 0.42021
 C276 C -0.22320 0.07561 0.39627
 C277 C -0.38793 -0.01942 0.37402
 C278 C -0.35881 -0.02100 0.35026
 H279 H -0.23497 0.09411 0.43824
 H280 H -0.18577 0.09386 0.39650
 H281 H -0.42507 -0.03814 0.37390
 H282 H -0.37436 -0.04085 0.33252
 H283 H -0.43168 -0.01767 0.42259
 H284 H -0.30962 0.06781 0.46347
 H285 H -0.17361 0.06439 0.34957
 H286 H -0.29300 -0.02275 0.30850
 C287 C 0.26724 -0.02942 0.40695
 C288 C 0.30674 0.00593 0.40425
 C289 C 0.34359 0.01119 0.42707
 C290 C 0.34024 -0.01773 0.45255
 C291 C 0.30122 -0.05395 0.45469
 C292 C 0.26461 -0.05998 0.43194
 C293 C 0.22664 -0.03304 0.38347
 C294 C 0.18644 -0.06746 0.38641
 C295 C 0.14652 -0.06900 0.36448
 C296 C 0.14580 -0.03560 0.33989
 C297 C 0.18724 -0.00219 0.33710
 C298 C 0.22774 -0.00075 0.35885
 C299 C 0.22447 -0.09483 0.43389
 C300 C 0.18615 -0.09864 0.41148
 C301 C 0.30741 0.03658 0.37905
 C302 C 0.26850 0.03340 0.35676
 H303 H 0.22219 -0.11879 0.45303
 H304 H 0.15541 -0.12546 0.41396
 H305 H 0.33769 0.06396 0.37669
 H306 H 0.26993 0.05841 0.33786
 H307 H 0.37323 0.03953 0.42543
 H308 H 0.29882 -0.07661 0.47421
 H309 H 0.11558 -0.09569 0.36671
 H310 H 0.18685 0.02414 0.31845
   
