data_POSCAR
  _audit_creation_date              2014-09-24
  _audit_creation_method            'ToBaCCo'
  _symmetry_space_group_name_H-M    'P1'
  _symmetry_Int_Tables_number       1
  _symmetry_cell_setting            triclinic
  loop_
  _symmetry_equiv_pos_as_xyz
 x,y,z
_cell_length_a 52.1243
_cell_length_b 52.0941
_cell_length_c 51.9132
_cell_angle_alpha 89.942100
_cell_angle_beta 89.976100
_cell_angle_gamma 89.926600
loop_
  _atom_site_label
  _atom_site_type_symbol
  _atom_site_fract_x
  _atom_site_fract_y
  _atom_site_fract_z
C1 C 0.19463 0.16210 0.19162
 C2 C 0.18389 0.15108 0.21381
 C3 C 0.16167 0.16153 0.22540
 C4 C 0.15060 0.18365 0.21416
 C5 C 0.16093 0.19459 0.19173
 C6 C 0.18300 0.18376 0.18040
 C7 C 0.21672 0.15151 0.18039
 C8 C 0.22726 0.16184 0.15753
 C9 C 0.21515 0.18347 0.14643
 C10 C 0.19334 0.19450 0.15775
 C11 C 0.18163 0.21609 0.14664
 C12 C 0.15950 0.22687 0.15769
 C13 C 0.14925 0.21601 0.18024
 H14 H 0.19358 0.13482 0.22245
 H15 H 0.13310 0.19177 0.22191
 H16 H 0.22481 0.13434 0.18893
 H17 H 0.22314 0.19255 0.12946
 H18 H 0.18941 0.22423 0.12907
 H19 H 0.13228 0.22440 0.18892
 C20 C -0.19102 0.84168 0.19377
 C21 C -0.17898 0.85321 0.21497
 C22 C -0.15568 0.84347 0.22496
 C23 C -0.14476 0.82170 0.21294
 C24 C -0.15687 0.80975 0.19203
 C25 C -0.18019 0.81965 0.18251
 C26 C -0.21365 0.85212 0.18353
 C27 C -0.22608 0.84073 0.16222
 C28 C -0.21544 0.81800 0.15183
 C29 C -0.19256 0.80762 0.16162
 C30 C -0.18155 0.78568 0.15045
 C31 C -0.15815 0.77588 0.15966
 C32 C -0.14597 0.78799 0.18049
 H33 H -0.18735 0.87055 0.22284
 H34 H -0.12736 0.81313 0.22044
 H35 H -0.22189 0.86878 0.19287
 H36 H -0.22395 0.80902 0.13509
 H37 H -0.19084 0.77655 0.13418
 H38 H -0.12805 0.78032 0.18781
 C39 C -0.19282 0.15764 -0.19202
 C40 C -0.18085 0.14617 -0.21333
 C41 C -0.15938 0.15768 -0.22494
 C42 C -0.14976 0.18077 -0.21487
 C43 C -0.16141 0.19234 -0.19347
 C44 C -0.18322 0.18090 -0.18217
 C45 C -0.21421 0.14611 -0.18045
 C46 C -0.22662 0.15753 -0.15910
 C47 C -0.21691 0.18109 -0.14973
 C48 C -0.19527 0.19262 -0.16091
 C49 C -0.18512 0.21541 -0.15072
 C50 C -0.16294 0.22647 -0.16140
 C51 C -0.15137 0.21497 -0.18295
 H52 H -0.18839 0.12841 -0.22110
 H53 H -0.13292 0.18949 -0.22347
 H54 H -0.22165 0.12864 -0.18889
 H55 H -0.22524 0.19000 -0.13285
 H56 H -0.19399 0.22414 -0.13398
 H57 H -0.13446 0.22363 -0.19147
 C58 C 0.19344 0.84003 -0.19200
 C59 C 0.18233 0.85142 -0.21379
 C60 C 0.16117 0.84003 -0.22639
 C61 C 0.15150 0.81666 -0.21649
 C62 C 0.16217 0.80532 -0.19441
 C63 C 0.18327 0.81697 -0.18217
 C64 C 0.21457 0.85144 -0.17984
 C65 C 0.22570 0.84008 -0.15796
 C66 C 0.21533 0.81721 -0.14811
 C67 C 0.19407 0.80570 -0.15993
 C68 C 0.18319 0.78333 -0.14966
 C69 C 0.16176 0.77193 -0.16140
 C70 C 0.15161 0.78280 -0.18401
 H71 H 0.19098 0.86874 -0.22137
 H72 H 0.13475 0.80781 -0.22499
 H73 H 0.22258 0.86904 -0.18755
 H74 H 0.22357 0.80862 -0.13096
 H75 H 0.19132 0.77480 -0.13244
 H76 H 0.13497 0.77416 -0.19302
 C77 C 0.16076 1.19272 0.80811
 C78 C 0.15049 1.18112 0.78600
 C79 C 0.16147 1.15859 0.77552
 C80 C 0.18343 1.14822 0.78768
 C81 C 0.19415 1.15992 0.80948
 C82 C 0.18274 1.18221 0.81978
 C83 C 0.14916 1.21459 0.81879
 C84 C 0.15936 1.22659 0.84096
 C85 C 0.18173 1.21597 0.85211
 C86 C 0.19326 1.19388 0.84186
 C87 C 0.21500 1.18310 0.85359
 C88 C 0.22655 1.16096 0.84335
 C89 C 0.21611 1.14957 0.82120
 H90 H 0.13310 1.18911 0.77785
 H91 H 0.19299 1.13156 0.77972
 H92 H 0.13266 1.22271 0.80907
 H93 H 0.18966 1.22398 0.86962
 H94 H 0.22312 1.19202 0.87059
 H95 H 0.22482 1.13232 0.81342
 C96 C 0.83990 0.80824 0.80448
 C97 C 0.85061 0.81912 0.78222
 C98 C 0.83949 0.84090 0.77036
 C99 C 0.81678 0.85112 0.78121
 C100 C 0.80612 0.84065 0.80370
 C101 C 0.81786 0.81928 0.81551
 C102 C 0.85121 0.78663 0.81603
 C103 C 0.84124 0.77606 0.83904
 C104 C 0.81938 0.78778 0.85010
 C105 C 0.80766 0.80909 0.83848
 C106 C 0.78589 0.82042 0.84958
 C107 C 0.77410 0.84176 0.83797
 C108 C 0.78421 0.85165 0.81492
 H109 H 0.86727 0.80995 0.77379
 H110 H 0.80803 0.86822 0.77320
 H111 H 0.86858 0.77894 0.80757
 H112 H 0.81061 0.77981 0.86724
 H113 H 0.77799 0.81257 0.86723
 H114 H 0.77536 0.86832 0.80608
 C115 C 0.15880 0.80542 1.19166
 C116 C 0.14829 0.81694 1.21370
 C117 C 0.15949 0.83904 1.22435
 C118 C 0.18157 0.84948 1.21288
 C119 C 0.19247 0.83800 1.19103
 C120 C 0.18104 0.81587 1.18036
 C121 C 0.14728 0.78370 1.18073
 C122 C 0.15774 0.77179 1.15863
 C123 C 0.18028 0.78235 1.14779
 C124 C 0.19175 0.80432 1.15831
 C125 C 0.21361 0.81513 1.14685
 C126 C 0.22504 0.83720 1.15731
 C127 C 0.21447 0.84842 1.17952
 H128 H 0.13105 0.80905 1.22229
 H129 H 0.19035 0.86644 1.22113
 H130 H 0.13063 0.77563 1.19022
 H131 H 0.18838 0.77439 1.13032
 H132 H 0.22187 0.80629 1.12986
 H133 H 0.22307 0.86559 1.18751
 C134 C 0.83957 1.19411 1.19310
 C135 C 0.85129 1.18354 1.21503
 C136 C 0.84242 1.16030 1.22594
 C137 C 0.82100 1.14822 1.21447
 C138 C 0.80890 1.15879 1.19280
 C139 C 0.81825 1.18175 1.18199
 C140 C 0.84924 1.21658 1.18174
 C141 C 0.83798 1.22671 1.15932
 C142 C 0.81639 1.21457 1.14868
 C143 C 0.80638 1.19224 1.15992
 C144 C 0.78490 1.18006 1.14924
 C145 C 0.77537 1.15726 1.16006
 C146 C 0.78755 1.14666 1.18175
 H147 H 0.86818 1.19293 1.22263
 H148 H 0.81292 1.13099 1.22284
 H149 H 0.86600 1.22580 1.18991
 H150 H 0.80741 1.22253 1.13161
 H151 H 0.77582 1.18807 1.13224
 H152 H 0.78018 1.12911 1.19019
 O153 O 0.46448 1.04504 1.04707
 O154 O 0.43630 1.02117 1.02310
 C155 C 0.44141 1.03868 1.04008
 O156 O 0.53678 1.04400 0.95539
 O157 O 0.56468 1.01971 0.97941
 C158 C 0.55977 1.03680 0.96191
 O159 O 0.46457 1.04660 0.95741
 O160 O 0.43636 1.02193 0.98056
 C161 C 0.44147 1.03993 0.96407
 O162 O 0.53660 1.04237 1.04925
 O163 O 0.56453 1.01921 1.02425
 C164 C 0.55962 1.03562 1.04237
 Zr165 Zr 0.50048 1.03059 1.03466
 O166 O 0.50347 1.07111 1.03542
 O167 O 0.49764 1.02959 1.07533
 Zr168 Zr 0.50058 1.03182 0.96948
 O169 O 0.50359 1.07233 0.97034
 O170 O 0.49790 1.03253 0.92880
 O171 O 0.47771 1.03640 1.00213
 O172 O 0.52282 1.03574 1.00216
 O173 O 0.53609 0.95286 1.04764
 O174 O 0.56432 0.97674 1.02365
 C175 C 0.55919 0.95969 1.04113
 O176 O 0.46397 0.95279 0.95609
 O177 O 0.43612 0.97789 0.97923
 C178 C 0.44097 0.95998 0.96261
 O179 O 0.53624 0.95490 0.95356
 O180 O 0.56431 0.97692 0.97933
 C181 C 0.55930 0.96101 0.96084
 O182 O 0.46384 0.95132 1.04535
 O183 O 0.43597 0.97640 1.02214
 C184 C 0.44085 0.95824 1.03853
 Zr185 Zr 0.50007 0.96569 1.03354
 O186 O 0.50259 0.92513 1.03297
 O187 O 0.49722 0.96528 1.07422
 Zr188 Zr 0.50017 0.96685 0.96836
 O189 O 0.50291 0.92631 0.96773
 O190 O 0.49725 0.96763 0.92769
 Zr191 Zr 0.46228 0.99903 1.00147
 Zr192 Zr 0.53838 0.99847 1.00153
 O193 O 0.52233 0.96143 1.00089
 O194 O 0.47723 0.96141 1.00083
 O195 O 0.52314 0.99788 1.03915
 O196 O 0.47816 0.99959 0.96420
 O197 O 0.47797 0.99822 1.03878
 O198 O 0.52324 0.99926 0.96389
 H199 H 0.53457 1.05067 1.00241
 H200 H 0.46657 0.99996 0.94907
 H201 H 0.53384 0.94628 1.00065
 H202 H 0.46623 0.99801 1.05380
 H203 H 0.51226 1.02215 0.92194
 H204 H 0.51155 0.97824 0.92112
 H205 H 0.48853 0.91948 0.97809
 H206 H 0.48838 0.91873 1.02212
 H207 H 0.51190 0.97513 1.08108
 H208 H 0.51213 1.01917 1.08183
 H209 H 0.48934 1.07808 1.02480
 H210 H 0.48909 1.07892 0.98071
 O211 O 0.04373 0.46375 -0.04717
 O212 O 0.01874 0.43582 -0.02400
 C213 C 0.03666 0.44073 -0.04062
 O214 O 0.04314 0.53550 0.04439
 O215 O 0.01949 0.56399 0.02044
 C216 C 0.03641 0.55867 0.03796
 O217 O 0.04461 0.46332 0.04176
 O218 O 0.01884 0.43565 0.01925
 C219 C 0.03720 0.44038 0.03540
 O220 O 0.04166 0.53599 -0.04965
 O221 O 0.01919 0.56417 -0.02429
 C222 C 0.03544 0.55908 -0.04251
 Zr223 Zr 0.02940 0.49994 -0.03512
 O224 O 0.06991 0.50251 -0.03608
 O225 O 0.02836 0.49708 -0.07579
 Zr226 Zr 0.03022 0.49961 0.03013
 O227 O 0.07076 0.50197 0.02997
 O228 O 0.03018 0.49654 0.07080
 O229 O 0.03464 0.47687 -0.00265
 O230 O 0.03479 0.52196 -0.00246
 O231 O -0.04717 0.53706 -0.04853
 O232 O -0.02389 0.56467 -0.02333
 C233 C -0.04048 0.55998 -0.04131
 O234 O -0.04916 0.46429 0.04314
 O235 O -0.02535 0.43605 0.01907
 C236 C -0.04284 0.44119 0.03608
 O237 O -0.04653 0.53652 0.04548
 O238 O -0.02333 0.56441 0.02048
 C239 C -0.03982 0.55954 0.03854
 O240 O -0.05059 0.46477 -0.04616
 O241 O -0.02568 0.43637 -0.02345
 C242 C -0.04380 0.44160 -0.03972
 Zr243 Zr -0.03544 0.50069 -0.03424
 O244 O -0.07591 0.50414 -0.03377
 O245 O -0.03582 0.49790 -0.07492
 Zr246 Zr -0.03462 0.50034 0.03095
 O247 O -0.07511 0.50348 0.03162
 O248 O -0.03381 0.49738 0.07162
 Zr249 Zr -0.00298 0.46205 -0.00226
 Zr250 Zr -0.00215 0.53824 -0.00186
 O251 O -0.03946 0.52278 -0.00149
 O252 O -0.04029 0.47772 -0.00168
 O253 O -0.00284 0.52327 -0.03958
 O254 O -0.00237 0.47766 0.03512
 O255 O -0.00330 0.47803 -0.03949
 O256 O -0.00190 0.52286 0.03571
 H257 H 0.04994 0.53342 -0.00261
 H258 H -0.00234 0.46594 0.05016
 H259 H -0.05446 0.53448 -0.00130
 H260 H -0.00358 0.46639 -0.05457
 H261 H 0.02055 0.51141 0.07766
 H262 H -0.02356 0.51193 0.07820
 H263 H -0.08206 0.48937 0.02099
 H264 H -0.08268 0.49001 -0.02302
 H265 H -0.02536 0.51220 -0.08175
 H266 H 0.01857 0.51198 -0.08236
 H267 H 0.07674 0.48866 -0.02498
 H268 H 0.07725 0.48798 0.01886
 O269 O 1.04615 -0.04689 0.46340
 O270 O 1.02446 -0.02070 0.43533
 C271 C 1.04011 -0.03943 0.44027
 O272 O 0.95452 -0.04106 0.53558
 O273 O 0.98057 -0.01964 0.56389
 C274 C 0.96186 -0.03518 0.55875
 O275 O 0.95714 -0.04322 0.46307
 O276 O 0.98187 -0.01978 0.43508
 C277 C 0.96449 -0.03688 0.44000
 O278 O 1.04823 -0.04504 0.53590
 O279 O 1.02472 -0.02061 0.56409
 C280 C 1.04178 -0.03805 0.55905
 Zr281 Zr 1.03457 -0.03204 0.49966
 O282 O 1.03328 -0.07257 0.50232
 O283 O 1.07508 -0.03321 0.49696
 Zr284 Zr 0.96966 -0.02951 0.49945
 O285 O 0.96829 -0.07004 0.50222
 O286 O 0.92918 -0.02800 0.49642
 O287 O 1.00201 -0.03573 0.47662
 O288 O 1.00187 -0.03559 0.52185
 O289 O 1.05128 0.04485 0.53615
 O290 O 1.02581 0.02230 0.56418
 C291 C 1.04414 0.03840 0.55925
 O292 O 0.96064 0.05041 0.46346
 O293 O 0.98258 0.02448 0.43536
 C294 C 0.96679 0.04307 0.44034
 O295 O 0.95798 0.04765 0.53607
 O296 O 0.98146 0.02305 0.56418
 C297 C 0.96422 0.04032 0.55919
 O298 O 1.04912 0.04749 0.46371
 O299 O 1.02550 0.02337 0.43541
 C300 C 1.04242 0.04085 0.44054
 Zr301 Zr 1.03696 0.03285 0.49987
 O302 O 1.03926 0.07330 0.50281
 O303 O 1.07742 0.03039 0.49708
 Zr304 Zr 0.97211 0.03538 0.49973
 O305 O 0.97381 0.07587 0.50284
 O306 O 0.93164 0.03705 0.49672
 Zr307 Zr 1.00345 0.00180 0.46148
 Zr308 Zr 1.00323 0.00146 0.53791
 O309 O 1.00461 0.03868 0.52216
 O310 O 1.00477 0.03922 0.47685
 O311 O 1.04074 0.00012 0.52278
 O312 O 0.96627 0.00319 0.47724
 O313 O 1.04053 0.00035 0.47742
 O314 O 0.96581 0.00300 0.52253
 H315 H 1.00129 -0.05070 0.53344
 H316 H 0.95128 0.00373 0.46553
 H317 H 1.00497 0.05369 0.53386
 H318 H 1.05555 -0.00008 0.46573
 H319 H 0.92280 -0.01712 0.51065
 H320 H 0.92447 0.02667 0.51096
 H321 H 0.98392 0.08232 0.48807
 H322 H 1.02756 0.08060 0.48971
 H323 H 1.08365 0.02097 0.51241
 H324 H 1.08203 -0.02327 0.51160
 H325 H 1.02211 -0.07879 0.48825
 H326 H 0.97825 -0.07708 0.48762
 C327 C 1.12748 0.12625 0.29107
 C328 C 1.12545 0.15283 0.28724
 C329 C 1.13658 0.16446 0.26569
 C330 C 1.15054 0.14987 0.24750
 C331 C 1.15281 0.12318 0.25183
 C332 C 1.14127 0.11157 0.27313
 C333 C 1.11505 0.11377 0.31344
 N334 N 1.11021 0.08817 0.31328
 N335 N 1.09879 0.07691 0.33325
 C336 C 1.09188 0.09075 0.35429
 N337 N 1.09682 0.11634 0.35453
 N338 N 1.10809 0.12765 0.33447
 C339 C 1.07914 0.07815 0.37641
 C340 C 1.07893 0.08979 0.40082
 C341 C 1.06716 0.07763 0.42174
 C342 C 1.05499 0.05379 0.41855
 C343 C 1.05497 0.04230 0.39407
 C344 C 1.06709 0.05425 0.37329
 H345 H 1.11501 0.16468 0.30080
 H346 H 1.13492 0.18509 0.26398
 H347 H 1.16244 0.11078 0.23819
 H348 H 1.14314 0.09100 0.27553
 H349 H 1.08813 0.10817 0.40384
 H350 H 1.06739 0.08699 0.44036
 H351 H 1.04582 0.02391 0.39102
 H352 H 1.06681 0.04484 0.35470
 C353 C 0.88052 -0.12129 0.28949
 C354 C 0.85378 -0.12031 0.28659
 C355 C 0.84191 -0.13165 0.26533
 C356 C 0.85641 -0.14475 0.24644
 C357 C 0.88331 -0.14578 0.24970
 C358 C 0.89515 -0.13404 0.27077
 C359 C 0.89306 -0.10904 0.31191
 N360 N 0.91858 -0.10380 0.31160
 N361 N 0.92984 -0.09264 0.33171
 C362 C 0.91608 -0.08641 0.35304
 N363 N 0.89058 -0.09175 0.35339
 N364 N 0.87929 -0.10276 0.33322
 C365 C 0.92857 -0.07396 0.37537
 C366 C 0.91657 -0.07379 0.39962
 C367 C 0.92835 -0.06201 0.42070
 C368 C 0.95220 -0.04980 0.41787
 C369 C 0.96418 -0.04989 0.39360
 C370 C 0.95257 -0.06200 0.37263
 H371 H 0.84194 -0.11067 0.30075
 H372 H 0.82119 -0.13095 0.26449
 H373 H 0.89560 -0.15469 0.23549
 H374 H 0.91584 -0.13506 0.27241
 H375 H 0.89812 -0.08293 0.40238
 H376 H 0.91863 -0.06218 0.43914
 H377 H 0.98264 -0.04075 0.39084
 H378 H 0.96228 -0.06173 0.35418
 C379 C 0.87699 0.12222 0.70960
 C380 C 0.87015 0.10752 0.73127
 C381 C 0.85822 0.11901 0.75244
 C382 C 0.85311 0.14548 0.75252
 C383 C 0.86001 0.16022 0.73095
 C384 C 0.87171 0.14870 0.70965
 C385 C 0.88963 0.11001 0.68715
 N386 N 0.89222 0.12289 0.66453
 N387 N 0.90364 0.11191 0.64438
 C388 C 0.91304 0.08763 0.64603
 N389 N 0.91046 0.07477 0.66866
 N390 N 0.89895 0.08571 0.68877
 C391 C 0.92596 0.07547 0.62372
 C392 C 0.93990 0.05257 0.62685
 C393 C 0.95235 0.04124 0.60592
 C394 C 0.95095 0.05240 0.58129
 C395 C 0.93682 0.07516 0.57808
 C396 C 0.92457 0.08665 0.59909
 H397 H 0.87390 0.08708 0.73186
 H398 H 0.85330 0.10725 0.76894
 H399 H 0.85607 0.18063 0.73044
 H400 H 0.87676 0.16059 0.69331
 H401 H 0.94140 0.04347 0.64555
 H402 H 0.96296 0.02360 0.60903
 H403 H 0.93541 0.08426 0.55937
 H404 H 0.91391 0.10424 0.59599
 C405 C 1.12640 -0.12403 0.70860
 C406 C 1.12614 -0.15084 0.71117
 C407 C 1.13739 -0.16268 0.73255
 C408 C 1.14974 -0.14805 0.75181
 C409 C 1.15016 -0.12109 0.74879
 C410 C 1.13847 -0.10931 0.72765
 C411 C 1.11398 -0.11141 0.68630
 N412 N 1.10705 -0.08630 0.68746
 N413 N 1.09572 -0.07492 0.66749
 C414 C 1.09102 -0.08812 0.64546
 N415 N 1.09805 -0.11321 0.64424
 N416 N 1.10921 -0.12466 0.66429
 C417 C 1.07844 -0.07540 0.62331
 C418 C 1.08070 -0.08559 0.59836
 C419 C 1.06900 -0.07336 0.57744
 C420 C 1.05445 -0.05091 0.58110
 C421 C 1.05195 -0.04094 0.60613
 C422 C 1.06401 -0.05291 0.62695
 H423 H 1.11702 -0.16272 0.69673
 H424 H 1.13717 -0.18343 0.73328
 H425 H 1.15847 -0.10873 0.76328
 H426 H 1.13894 -0.08857 0.72624
 H427 H 1.09176 -0.10287 0.59495
 H428 H 1.07119 -0.08163 0.55843
 H429 H 1.04074 -0.02381 0.60967
 H430 H 1.06175 -0.04470 0.64598
 C431 C 0.29264 1.12725 1.12246
 C432 C 0.27429 1.14008 1.10745
 C433 C 0.25305 1.15178 1.11895
 C434 C 0.24923 1.15058 1.14588
 C435 C 0.26785 1.13758 1.16079
 C436 C 0.28931 1.12632 1.14926
 C437 C 0.31496 1.11464 1.11019
 N438 N 0.33623 1.10875 1.12412
 N439 N 0.35621 1.09719 1.11309
 C440 C 0.35567 1.09087 1.08772
 N441 N 0.33439 1.09672 1.07380
 N442 N 0.31449 1.10845 1.08479
 C443 C 0.37768 1.07765 1.07552
 C444 C 0.37438 1.06401 1.05243
 C445 C 0.39503 1.05120 1.04108
 C446 C 0.41955 1.05212 1.05229
 C447 C 0.42290 1.06595 1.07527
 C448 C 0.40213 1.07841 1.08688
 H449 H 0.27631 1.14109 1.08671
 H450 H 0.23909 1.16067 1.10636
 H451 H 0.26655 1.13681 1.18157
 H452 H 0.30320 1.11664 1.16137
 H453 H 0.35575 1.06294 1.04329
 H454 H 0.39181 1.04069 1.02341
 H455 H 0.44153 1.06694 1.08445
 H456 H 0.40528 1.08884 1.10464
 C457 C 0.29068 0.87560 0.87868
 C458 C 0.26919 0.89031 0.87153
 C459 C 0.24816 0.87878 0.85956
 C460 C 0.24804 0.85227 0.85472
 C461 C 0.26940 0.83750 0.86201
 C462 C 0.29057 0.84907 0.87374
 C463 C 0.31304 0.88791 0.89121
 N464 N 0.33569 0.87520 0.89364
 N465 N 0.35580 0.88636 0.90480
 C466 C 0.35406 0.91066 0.91413
 N467 N 0.33139 0.92333 0.91176
 N468 N 0.31133 0.91222 0.90049
 C469 C 0.37636 0.92313 0.92659
 C470 C 0.37313 0.94594 0.94066
 C471 C 0.39409 0.95777 0.95243
 C472 C 0.41883 0.94723 0.95020
 C473 C 0.42210 0.92446 0.93606
 C474 C 0.40107 0.91247 0.92450
 H475 H 0.26866 0.91079 0.87502
 H476 H 0.23182 0.89055 0.85434
 H477 H 0.26986 0.81705 0.85831
 H478 H 0.30679 0.83718 0.87905
 H479 H 0.35436 0.95462 0.94274
 H480 H 0.39089 0.97533 0.96312
 H481 H 0.44089 0.91580 0.93406
 H482 H 0.40422 0.89495 0.91374
 C483 C 0.70809 0.87552 1.12808
 C484 C 0.72653 0.89047 1.14075
 C485 C 0.74785 0.87902 1.15232
 C486 C 0.75170 0.85219 1.15122
 C487 C 0.73298 0.83730 1.13842
 C488 C 0.71140 0.84880 1.12725
 C489 C 0.68577 0.88787 1.11551
 N490 N 0.66434 0.87418 1.10981
 N491 N 0.64434 0.88539 1.09840
 C492 C 0.64504 0.91069 1.09204
 N493 N 0.66648 0.92433 1.09769
 N494 N 0.68639 0.91318 1.10926
 C495 C 0.62300 0.92315 1.07908
 C496 C 0.62641 0.94618 1.06541
 C497 C 0.60573 0.95790 1.05296
 C498 C 0.58106 0.94712 1.05428
 C499 C 0.57760 0.92417 1.06812
 C500 C 0.59840 0.91220 1.08021
 H501 H 0.72454 0.91114 1.14169
 H502 H 0.76187 0.89162 1.16099
 H503 H 0.73434 0.81660 1.13767
 H504 H 0.69744 0.83674 1.11770
 H505 H 0.64515 0.95503 1.06405
 H506 H 0.60906 0.97551 1.04241
 H507 H 0.55886 0.91530 1.06938
 H508 H 0.59516 0.89450 1.09067
 C509 C 0.70915 1.12137 0.87654
 C510 C 0.72810 1.10671 0.86421
 C511 C 0.74902 1.11855 0.85233
 C512 C 0.75191 1.14552 0.85273
 C513 C 0.73281 1.16008 0.86538
 C514 C 0.71168 1.14818 0.87689
 C515 C 0.68693 1.10874 0.88899
 N516 N 0.66549 1.12234 0.89498
 N517 N 0.64549 1.11094 0.90612
 C518 C 0.64614 1.08551 0.91188
 N519 N 0.66761 1.07193 0.90596
 N520 N 0.68755 1.08329 0.89468
 C521 C 0.62397 1.07288 0.92443
 C522 C 0.62687 1.04898 0.93668
 C523 C 0.60603 1.03728 0.94889
 C524 C 0.58176 1.04906 0.94879
 C525 C 0.57878 1.07280 0.93626
 C526 C 0.59970 1.08467 0.92438
 H527 H 0.72676 1.08597 0.86368
 H528 H 0.76342 1.10622 0.84383
 H529 H 0.73341 1.18083 0.86562
 H530 H 0.69734 1.16005 0.88619
 H531 H 0.64533 1.03943 0.93710
 H532 H 0.60890 1.01891 0.95827
 H533 H 0.56034 1.08239 0.93595
 H534 H 0.59682 1.10303 0.91501
 C535 C 0.12288 0.29153 0.12125
 C536 C 0.10832 0.27044 0.12972
 C537 C 0.12019 0.24959 0.14180
 C538 C 0.14688 0.24926 0.14542
 C539 C 0.16146 0.27029 0.13696
 C540 C 0.14958 0.29128 0.12513
 C541 C 0.11031 0.31358 0.10834
 N542 N 0.12316 0.33594 0.10455
 N543 N 0.11185 0.35576 0.09295
 C544 C 0.08725 0.35402 0.08451
 N545 N 0.07442 0.33164 0.08824
 N546 N 0.08570 0.31186 0.09995
 C547 C 0.07463 0.37607 0.07165
 C548 C 0.05130 0.37279 0.05848
 C549 C 0.03931 0.39361 0.04649
 C550 C 0.05023 0.41824 0.04762
 C551 C 0.07355 0.42153 0.06077
 C552 C 0.08569 0.40065 0.07253
 H553 H 0.08772 0.27005 0.12709
 H554 H 0.10854 0.23351 0.14794
 H555 H 0.18206 0.27058 0.13972
 H556 H 0.16136 0.30719 0.11881
 H557 H 0.04231 0.35410 0.05735
 H558 H 0.02130 0.39044 0.03659
 H559 H 0.08251 0.44024 0.06191
 H560 H 0.10361 0.40384 0.08255
 C561 C -0.12850 0.29249 -0.12552
 C562 C -0.11346 0.27130 -0.13284
 C563 C -0.12466 0.25007 -0.14475
 C564 C -0.15118 0.24943 -0.14941
 C565 C -0.16628 0.27056 -0.14212
 C566 C -0.15503 0.29197 -0.13044
 C567 C -0.11648 0.31479 -0.11261
 N568 N -0.12919 0.33747 -0.11024
 N569 N -0.11821 0.35745 -0.09863
 C570 C -0.09413 0.35553 -0.08878
 N571 N -0.08149 0.33284 -0.09111
 N572 N -0.09240 0.31293 -0.10281
 C573 C -0.08175 0.37762 -0.07585
 C574 C -0.05952 0.37391 -0.06101
 C575 C -0.04747 0.39463 -0.04907
 C576 C -0.05718 0.41967 -0.05191
 C577 C -0.07949 0.42342 -0.06666
 C578 C -0.09173 0.40258 -0.07839
 H579 H -0.09298 0.27108 -0.12940
 H580 H -0.11262 0.23392 -0.14992
 H581 H -0.18676 0.27057 -0.14563
 H582 H -0.16715 0.30797 -0.12499
 H583 H -0.05139 0.35493 -0.05852
 H584 H -0.03035 0.39101 -0.03783
 H585 H -0.08752 0.44244 -0.06914
 H586 H -0.10881 0.40609 -0.08974
 C587 C 0.12444 0.70686 -0.12655
 C588 C 0.13202 0.72798 -0.11156
 C589 C 0.14443 0.74888 -0.12286
 C590 C 0.14936 0.74926 -0.14945
 C591 C 0.14185 0.72817 -0.16450
 C592 C 0.12964 0.70711 -0.15314
 C593 C 0.11098 0.68487 -0.11448
 N594 N 0.10774 0.66245 -0.12742
 N595 N 0.09564 0.64274 -0.11646
 C596 C 0.08617 0.64468 -0.09215
 N597 N 0.08936 0.66712 -0.07926
 N598 N 0.10154 0.68677 -0.09017
 C599 C 0.07277 0.62280 -0.07982
 C600 C 0.05889 0.62639 -0.05688
 C601 C 0.04653 0.60577 -0.04499
 C602 C 0.04796 0.58100 -0.05562
 C603 C 0.06176 0.57740 -0.07860
 C604 C 0.07392 0.59810 -0.09065
 H605 H 0.12837 0.72840 -0.09103
 H606 H 0.14976 0.76502 -0.11087
 H607 H 0.14557 0.72793 -0.18502
 H608 H 0.12403 0.69116 -0.16524
 H609 H 0.05753 0.64517 -0.04807
 H610 H 0.03613 0.60921 -0.02726
 H611 H 0.06314 0.55857 -0.08733
 H612 H 0.08448 0.59467 -0.10828
 C613 C -0.12286 0.71022 0.12376
 C614 C -0.10844 0.73235 0.12920
 C615 C -0.11991 0.75357 0.14095
 C616 C -0.14610 0.75326 0.14726
 C617 C -0.16061 0.73127 0.14167
 C618 C -0.14908 0.70989 0.13019
 C619 C -0.11058 0.68772 0.11139
 N620 N -0.12239 0.66449 0.11112
 N621 N -0.11124 0.64429 0.10002
 C622 C -0.08788 0.64651 0.08862
 N623 N -0.07611 0.66976 0.08885
 N624 N -0.08719 0.68991 0.10006
 C625 C -0.07552 0.62417 0.07605
 C626 C -0.05469 0.62773 0.05923
 C627 C -0.04318 0.60677 0.04707
 C628 C -0.05198 0.58168 0.05169
 C629 C -0.07269 0.57808 0.06867
 C630 C -0.08442 0.59911 0.08060
 H631 H -0.08821 0.73324 0.12454
 H632 H -0.10835 0.77039 0.14484
 H633 H -0.18081 0.73051 0.14650
 H634 H -0.16074 0.69317 0.12618
 H635 H -0.04743 0.64678 0.05519
 H636 H -0.02737 0.61029 0.03401
 H637 H -0.08002 0.55903 0.07259
 H638 H -0.10038 0.59571 0.09351
 C639 C 1.12838 0.12245 0.70983
 C640 C 1.14142 0.10791 0.72844
 C641 C 1.15259 0.11978 0.74980
 C642 C 1.15060 0.14658 0.75351
 C643 C 1.13729 0.16099 0.73468
 C644 C 1.12660 0.14912 0.71307
 C645 C 1.11649 0.10981 0.68727
 N646 N 1.11114 0.12335 0.66555
 N647 N 1.10032 0.11198 0.64532
 C648 C 1.09421 0.08664 0.64605
 N649 N 1.09951 0.07312 0.66779
 N650 N 1.11052 0.08444 0.68795
 C651 C 1.08177 0.07410 0.62375
 C652 C 1.06762 0.05140 0.62708
 C653 C 1.05534 0.03988 0.60616
 C654 C 1.05737 0.05050 0.58134
 C655 C 1.07182 0.07302 0.57795
 C656 C 1.08370 0.08482 0.59898
 H657 H 1.14306 0.08728 0.72650
 H658 H 1.16174 0.10754 0.76392
 H659 H 1.13588 0.18167 0.73591
 H660 H 1.11671 0.16086 0.69899
 H661 H 1.06567 0.04276 0.64596
 H662 H 1.04430 0.02262 0.60943
 H663 H 1.07364 0.08176 0.55911
 H664 H 1.09456 0.10225 0.59580
 C665 C 0.87494 -0.12277 0.70592
 C666 C 0.88966 -0.13637 0.72397
 C667 C 0.87800 -0.14868 0.74481
 C668 C 0.85117 -0.14743 0.74855
 C669 C 0.83652 -0.13374 0.73019
 C670 C 0.84823 -0.12180 0.70911
 C671 C 0.88749 -0.10944 0.68410
 N672 N 0.87378 -0.10204 0.66311
 N673 N 0.88516 -0.09006 0.64351
 C674 C 0.91068 -0.08481 0.64418
 N675 N 0.92435 -0.09214 0.66521
 N676 N 0.91301 -0.10426 0.68472
 C677 C 0.92343 -0.07159 0.62242
 C678 C 0.94760 -0.06015 0.62576
 C679 C 0.95987 -0.04799 0.60518
 C680 C 0.94840 -0.04732 0.58069
 C681 C 0.92420 -0.05868 0.57734
 C682 C 0.91175 -0.07053 0.59804
 H683 H 0.91033 -0.13747 0.72207
 H684 H 0.89044 -0.15805 0.75860
 H685 H 0.81582 -0.13285 0.73141
 H686 H 0.83632 -0.11156 0.69543
 H687 H 0.95705 -0.06052 0.64434
 H688 H 0.97855 -0.03948 0.60837
 H689 H 0.91482 -0.05837 0.55873
 H690 H 0.89316 -0.07921 0.59484
 C691 C 1.12452 -0.12492 0.29023
 C692 C 1.13227 -0.11020 0.26889
 C693 C 1.14392 -0.12187 0.24766
 C694 C 1.14780 -0.14854 0.24719
 C695 C 1.14010 -0.16329 0.26849
 C696 C 1.12872 -0.15158 0.28987
 C697 C 1.11192 -0.11253 0.31259
 N698 N 1.10910 -0.12528 0.33527
 N699 N 1.09770 -0.11410 0.35532
 C700 C 1.08850 -0.08975 0.35348
 N701 N 1.09128 -0.07704 0.33080
 N702 N 1.10278 -0.08817 0.31080
 C703 C 1.07577 -0.07724 0.37570
 C704 C 1.06152 -0.05459 0.37220
 C705 C 1.04971 -0.04257 0.39310
 C706 C 1.05210 -0.05272 0.41810
 C707 C 1.06627 -0.07543 0.42161
 C708 C 1.07787 -0.08763 0.40062
 H709 H 1.12939 -0.08961 0.26857
 H710 H 1.14948 -0.11011 0.23138
 H711 H 1.14307 -0.18387 0.26867
 H712 H 1.12295 -0.16348 0.30597
 H713 H 1.05938 -0.04616 0.35325
 H714 H 1.03889 -0.02514 0.38966
 H715 H 1.06841 -0.08381 0.44059
 H716 H 1.08874 -0.10504 0.40397
 C717 C 0.88002 0.12667 0.29067
 C718 C 0.86732 0.11129 0.27256
 C719 C 0.85479 0.12232 0.25151
 C720 C 0.85486 0.14917 0.24762
 C721 C 0.86785 0.16447 0.26591
 C722 C 0.88003 0.15338 0.28720
 C723 C 0.89329 0.11478 0.31291
 N724 N 0.89984 0.12892 0.33388
 N725 N 0.91164 0.11805 0.35389
 C726 C 0.91752 0.09263 0.35367
 N727 N 0.91105 0.07855 0.33267
 N728 N 0.89913 0.08937 0.31275
 C729 C 0.93060 0.08039 0.37584
 C730 C 0.94245 0.05633 0.37295
 C731 C 0.95449 0.04446 0.39382
 C732 C 0.95466 0.05621 0.41818
 C733 C 0.94284 0.08030 0.42111
 C734 C 0.93109 0.09236 0.40009
 H735 H 0.86702 0.09061 0.27463
 H736 H 0.84607 0.10942 0.23776
 H737 H 0.86788 0.18519 0.26453
 H738 H 0.88960 0.16578 0.30089
 H739 H 0.94252 0.04664 0.35450
 H740 H 0.96331 0.02584 0.39094
 H741 H 0.94275 0.08986 0.43963
 H742 H 0.92206 0.11087 0.40294
 C743 C 0.12300 0.29172 -0.12519
 C744 C 0.10861 0.27353 -0.13885
 C745 C 0.12056 0.25239 -0.15031
 C746 C 0.14730 0.24850 -0.14806
 C747 C 0.16158 0.26699 -0.13426
 C748 C 0.14963 0.28834 -0.12322
 C749 C 0.11026 0.31397 -0.11284
 N750 N 0.12394 0.33501 -0.10585
 N751 N 0.11247 0.35495 -0.09462
 C752 C 0.08686 0.35459 -0.08975
 N753 N 0.07319 0.33352 -0.09669
 N754 N 0.08463 0.31366 -0.10807
 C755 C 0.07411 0.37664 -0.07709
 C756 C 0.05002 0.37363 -0.06530
 C757 C 0.03801 0.39438 -0.05324
 C758 C 0.04963 0.41871 -0.05305
 C759 C 0.07365 0.42178 -0.06495
 C760 C 0.08586 0.40091 -0.07666
 H761 H 0.08802 0.27558 -0.14068
 H762 H 0.10839 0.23855 -0.15986
 H763 H 0.18223 0.26567 -0.13266
 H764 H 0.16129 0.30211 -0.11290
 H765 H 0.04052 0.35515 -0.06520
 H766 H 0.01947 0.39142 -0.04431
 H767 H 0.08313 0.44026 -0.06503
 H768 H 0.10438 0.40386 -0.08564
 C769 C -0.12827 0.29233 0.12191
 C770 C -0.13243 0.29237 0.14868
 C771 C -0.14341 0.27109 0.16087
 C772 C -0.15074 0.24949 0.14649
 C773 C -0.14684 0.24955 0.11972
 C774 C -0.13562 0.27068 0.10758
 C775 C -0.11612 0.31460 0.10900
 N776 N -0.10734 0.31266 0.08444
 N777 N -0.09617 0.33256 0.07287
 C778 C -0.09340 0.35529 0.08534
 N779 N -0.10226 0.35727 0.10988
 N780 N -0.11333 0.33733 0.12148
 C781 C -0.08080 0.37736 0.07253
 C782 C -0.08240 0.40211 0.08318
 C783 C -0.07034 0.42288 0.07119
 C784 C -0.05616 0.41932 0.04843
 C785 C -0.05458 0.39459 0.03775
 C786 C -0.06687 0.37387 0.04959
 H787 H -0.12694 0.30872 0.16029
 H788 H -0.14637 0.27158 0.18151
 H789 H -0.15207 0.23303 0.10823
 H790 H -0.13275 0.27003 0.08693
 H791 H -0.09304 0.40547 0.10077
 H792 H -0.07186 0.44168 0.07995
 H793 H -0.04391 0.39122 0.02017
 H794 H -0.06522 0.35506 0.04089
 C795 C -0.12359 0.71101 -0.12563
 C796 C -0.12240 0.71447 -0.15240
 C797 C -0.13373 0.73588 -0.16400
 C798 C -0.14705 0.75435 -0.14919
 C799 C -0.14831 0.75052 -0.12227
 C800 C -0.13659 0.72931 -0.11070
 C801 C -0.11128 0.68852 -0.11328
 N802 N -0.10624 0.68847 -0.08762
 N803 N -0.09507 0.66831 -0.07648
 C804 C -0.08863 0.64728 -0.09051
 N805 N -0.09375 0.64727 -0.11617
 N806 N -0.10477 0.66751 -0.12734
 C807 C -0.07624 0.62489 -0.07805
 C808 C -0.07600 0.60078 -0.09021
 C809 C -0.06455 0.57961 -0.07823
 C810 C -0.05275 0.58223 -0.05404
 C811 C -0.05281 0.60638 -0.04201
 C812 C -0.06458 0.62743 -0.05379
 H813 H -0.11257 0.70064 -0.16446
 H814 H -0.13284 0.73720 -0.18478
 H815 H -0.15738 0.76439 -0.10972
 H816 H -0.13778 0.72725 -0.08997
 H817 H -0.08491 0.59820 -0.10886
 H818 H -0.06472 0.56126 -0.08800
 H819 H -0.04399 0.60898 -0.02330
 H820 H -0.06436 0.64575 -0.04397
 C821 C 0.12162 0.70686 0.12443
 C822 C 0.14828 0.71008 0.12274
 C823 C 0.16016 0.73142 0.13384
 C824 C 0.14576 0.74999 0.14743
 C825 C 0.11897 0.74630 0.14934
 C826 C 0.10711 0.72520 0.13781
 C827 C 0.10894 0.68465 0.11208
 N828 N 0.08346 0.68527 0.10665
 N829 N 0.07208 0.66544 0.09524
 C830 C 0.08566 0.64408 0.08895
 N831 N 0.11111 0.64339 0.09450
 N832 N 0.12254 0.66330 0.10575
 C833 C 0.07300 0.62213 0.07612
 C834 C 0.08423 0.59760 0.07658
 C835 C 0.07221 0.57689 0.06446
 C836 C 0.04894 0.58040 0.05124
 C837 C 0.03782 0.60499 0.05065
 C838 C 0.04959 0.62557 0.06315
 H839 H 0.16001 0.69620 0.11260
 H840 H 0.18083 0.73263 0.13247
 H841 H 0.10673 0.76025 0.15869
 H842 H 0.08648 0.72328 0.13940
 H843 H 0.10221 0.59433 0.08651
 H844 H 0.08132 0.55821 0.06515
 H845 H 0.01990 0.60831 0.04065
 H846 H 0.04052 0.64427 0.06234
 C847 C 0.29227 1.12687 0.88020
 C848 C 0.27065 1.13406 0.89472
 C849 C 0.24945 1.14541 0.88277
 C850 C 0.24929 1.14949 0.85604
 C851 C 0.27084 1.14230 0.84149
 C852 C 0.29220 1.13127 0.85348
 C853 C 0.31461 1.11459 0.89285
 N854 N 0.33768 1.11324 0.88073
 N855 N 0.35769 1.10199 0.89206
 C856 C 0.35542 1.09149 0.91592
 N857 N 0.33235 1.09283 0.92802
 N858 N 0.31239 1.10421 0.91676
 C859 C 0.37752 1.07858 0.92837
 C860 C 0.37365 1.06184 0.94925
 C861 C 0.39439 1.04926 0.96073
 C862 C 0.41955 1.05343 0.95190
 C863 C 0.42344 1.07035 0.93114
 C864 C 0.40263 1.08266 0.91940
 H865 H 0.27012 1.13100 0.91534
 H866 H 0.23297 1.15062 0.89437
 H867 H 0.27123 1.14541 0.82086
 H868 H 0.30853 1.12589 0.84175
 H869 H 0.35453 1.05815 0.95651
 H870 H 0.39064 1.03622 0.97652
 H871 H 0.44254 1.07392 0.92377
 H872 H 0.40625 1.09550 0.90339
 C873 C 0.29085 0.87162 1.12092
 C874 C 0.26955 0.86398 1.10620
 C875 C 0.24833 0.85256 1.11800
 C876 C 0.24781 0.84880 1.14478
 C877 C 0.26905 0.85644 1.15953
 C878 C 0.29041 0.86760 1.14771
 C879 C 0.31327 0.88390 1.10843
 N880 N 0.33576 0.88668 1.12134
 N881 N 0.35585 0.89789 1.11016
 C882 C 0.35428 0.90690 1.08565
 N883 N 0.33179 0.90414 1.07275
 N884 N 0.31173 0.89282 1.08388
 C885 C 0.37652 0.91969 1.07335
 C886 C 0.37338 0.93399 1.05059
 C887 C 0.39426 0.94650 1.03929
 C888 C 0.41881 0.94475 1.05035
 C889 C 0.42203 0.93018 1.07291
 C890 C 0.40109 0.91792 1.08437
 H891 H 0.26929 0.86674 1.08553
 H892 H 0.23210 0.84704 1.10622
 H893 H 0.26920 0.85358 1.18019
 H894 H 0.30647 0.87331 1.15961
 H895 H 0.35471 0.93578 1.04162
 H896 H 0.39117 0.95746 1.02182
 H897 H 0.44069 0.92851 1.08193
 H898 H 0.40420 0.90697 1.10184
 C899 C 0.70977 1.11991 1.12655
 C900 C 0.73187 1.10576 1.13289
 C901 C 0.75309 1.11786 1.14394
 C902 C 0.75277 1.14440 1.14859
 C903 C 0.73076 1.15859 1.14219
 C904 C 0.70941 1.14645 1.13144
 C905 C 0.68732 1.10709 1.11476
 N906 N 0.66411 1.11897 1.11389
 N907 N 0.64398 1.10750 1.10311
 C908 C 0.64623 1.08372 1.09262
 N909 N 0.66944 1.07186 1.09349
 N910 N 0.68953 1.08327 1.10439
 C911 C 0.62399 1.07115 1.08020
 C912 C 0.62762 1.05000 1.06381
 C913 C 0.60674 1.03851 1.05156
 C914 C 0.58167 1.04764 1.05569
 C915 C 0.57801 1.06860 1.07233
 C916 C 0.59895 1.08032 1.08433
 H917 H 0.73275 1.08528 1.12943
 H918 H 0.76992 1.10653 1.14854
 H919 H 0.72998 1.17906 1.14578
 H920 H 0.69271 1.15791 1.12672
 H921 H 0.64666 1.04254 1.06011
 H922 H 0.61029 1.02250 1.03877
 H923 H 0.55898 1.07618 1.07588
 H924 H 0.59550 1.09653 1.09691
 C925 C 0.70888 0.87776 0.87398
 C926 C 0.70877 0.87255 0.84740
 C927 C 0.72997 0.86095 0.83566
 C928 C 0.75157 0.85406 0.85030
 C929 C 0.75163 0.85912 0.87686
 C930 C 0.73058 0.87094 0.88855
 C931 C 0.68660 0.89028 0.88651
 N932 N 0.68853 0.89963 0.91084
 N933 N 0.66857 0.91089 0.92218
 C934 C 0.64577 0.91321 0.90974
 N935 N 0.64380 0.90383 0.88541
 N936 N 0.66382 0.89265 0.87400
 C937 C 0.62359 0.92564 0.92254
 C938 C 0.59877 0.92368 0.91211
 C939 C 0.57785 0.93509 0.92453
 C940 C 0.58133 0.94891 0.94751
 C941 C 0.60620 0.95106 0.95777
 C942 C 0.62704 0.93947 0.94550
 H943 H 0.69239 0.87760 0.83562
 H944 H 0.72939 0.85709 0.81517
 H945 H 0.76815 0.85424 0.88853
 H946 H 0.73130 0.87463 0.90906
 H947 H 0.59545 0.91312 0.89447
 H948 H 0.55896 0.93316 0.91607
 H949 H 0.60959 0.96153 0.97546
 H950 H 0.64589 0.94145 0.95401
   
