data_POSCAR
  _audit_creation_date              2014-09-24
  _audit_creation_method            'ToBaCCo'
  _symmetry_space_group_name_H-M    'P1'
  _symmetry_Int_Tables_number       1
  _symmetry_cell_setting            triclinic
  loop_
  _symmetry_equiv_pos_as_xyz
 x,y,z
_cell_length_a 55.1576
_cell_length_b 54.8056
_cell_length_c 54.7335
_cell_angle_alpha 90.357800
_cell_angle_beta 89.614600
_cell_angle_gamma 90.407600
loop_
  _atom_site_label
  _atom_site_type_symbol
  _atom_site_fract_x
  _atom_site_fract_y
  _atom_site_fract_z
C1 C 0.18029 1.21630 0.21217
 C2 C 0.17043 1.23715 0.20140
 C3 C 0.18102 1.24771 0.18032
 C4 C 0.20222 1.23684 0.17061
 C5 C 0.21227 1.21604 0.18125
 C6 C 0.20128 1.20574 0.20211
 C7 C 0.16915 1.20569 0.23269
 C8 C 0.17857 1.18441 0.24353
 C9 C 0.19989 1.17430 0.23327
 C10 C 0.21117 1.18472 0.21275
 C11 C 0.23191 1.17406 0.20237
 C12 C 0.24294 1.18414 0.18148
 C13 C 0.23308 1.20526 0.17115
 H14 H 0.15367 1.24419 0.20892
 H15 H 0.21160 1.24484 0.15515
 H16 H 0.15351 1.21471 0.24053
 H17 H 0.20727 1.15752 0.24028
 H18 H 0.23917 1.15757 0.21024
 H19 H 0.24162 1.21332 0.15520
 C20 C 0.81234 0.78276 0.21403
 C21 C 0.82320 0.76227 0.20314
 C22 C 0.81357 0.75143 0.18173
 C23 C 0.79230 0.76160 0.17184
 C24 C 0.78136 0.78211 0.18251
 C25 C 0.79144 0.79278 0.20364
 C26 C 0.82263 0.79377 0.23478
 C27 C 0.81243 0.81494 0.24550
 C28 C 0.79121 0.82449 0.23492
 C29 C 0.78079 0.81366 0.21418
 C30 C 0.76003 0.82368 0.20358
 C31 C 0.74990 0.81323 0.18243
 C32 C 0.76059 0.79231 0.17214
 H33 H 0.83993 0.75574 0.21085
 H34 H 0.78363 0.75331 0.15614
 H35 H 0.83937 0.78635 0.24161
 H36 H 0.78214 0.84000 0.24308
 H37 H 0.75216 0.84004 0.21141
 H38 H 0.75276 0.78398 0.15597
 C39 C 0.82104 1.21018 -0.21014
 C40 C 0.83201 1.23093 -0.19973
 C41 C 0.82233 1.24177 -0.17848
 C42 C 0.80126 1.23175 -0.16783
 C43 C 0.79015 1.21099 -0.17798
 C44 C 0.80010 1.20012 -0.19918
 C45 C 0.83108 1.19906 -0.23099
 C46 C 0.82065 1.17771 -0.24128
 C47 C 0.79946 1.16808 -0.23010
 C48 C 0.78926 1.17904 -0.20925
 C49 C 0.76851 1.16899 -0.19813
 C50 C 0.75855 1.17961 -0.17690
 C51 C 0.76943 1.20073 -0.16704
 H52 H 0.84845 1.23833 -0.20784
 H53 H 0.79349 1.24015 -0.15162
 H54 H 0.84780 1.20657 -0.23828
 H55 H 0.79022 1.15242 -0.23791
 H56 H 0.76047 1.15249 -0.20562
 H57 H 0.76174 1.20920 -0.15083
 C58 C 0.18367 0.78971 -0.21783
 C59 C 0.17313 0.76889 -0.20729
 C60 C 0.18282 0.75837 -0.18595
 C61 C 0.20380 0.76927 -0.17573
 C62 C 0.21450 0.79010 -0.18612
 C63 C 0.20438 0.80041 -0.20720
 C64 C 0.17355 0.80020 -0.23872
 C65 C 0.18373 0.82142 -0.24900
 C66 C 0.20448 0.83190 -0.23832
 C67 C 0.21481 0.82160 -0.21748
 C68 C 0.23519 0.83238 -0.20654
 C69 C 0.24524 0.82239 -0.18533
 C70 C 0.23485 0.80115 -0.17532
 H71 H 0.15775 0.76060 -0.21638
 H72 H 0.21132 0.76251 -0.15890
 H73 H 0.15733 0.79223 -0.24660
 H74 H 0.21261 0.84811 -0.24626
 H75 H 0.24324 0.84860 -0.21455
 H76 H 0.24226 0.79353 -0.15876
 C77 C 0.53764 1.03255 -0.00271
 H78 H 0.53796 1.03220 0.01704
 C79 C 0.55478 1.04640 -0.01550
 H80 H 0.56802 1.05699 -0.00540
 C81 C 0.51997 1.01897 -0.03977
 H82 H 0.50673 1.00781 -0.04917
 C83 C 0.53678 1.03257 -0.05330
 H84 H 0.53626 1.03174 -0.07306
 N85 N 0.52063 1.01929 -0.01493
 C86 C 0.46237 1.00794 0.03810
 H87 H 0.46112 0.98823 0.03773
 C88 C 0.44615 1.02143 0.05236
 H89 H 0.43236 1.01193 0.06284
 C90 C 0.48118 1.04420 0.02383
 H91 H 0.49456 1.05303 0.01234
 C92 C 0.46531 1.05841 0.03780
 H93 H 0.46700 1.07809 0.03728
 Zn94 Zn 0.49936 0.99975 0.00403
 N95 N 0.47949 1.01944 0.02428
 C96 C 0.51812 0.97952 0.04782
 N97 N 0.51899 0.97908 0.02297
 C98 C 0.53520 0.96491 0.01072
 C99 C 0.55134 0.95031 0.02346
 C100 C 0.53396 0.96518 0.06131
 C101 C 0.46240 0.99378 -0.03004
 C102 C 0.44561 0.98133 -0.04454
 C103 C 0.46195 0.94324 -0.03026
 C104 C 0.47844 0.95644 -0.01601
 N105 N 0.47844 0.98126 -0.01625
 H106 H 0.50554 0.99136 0.05724
 H107 H 0.53570 0.96518 -0.00904
 H108 H 0.56400 0.93905 0.01333
 H109 H 0.53337 0.96615 0.08107
 H110 H 0.46259 1.01352 -0.02963
 H111 H 0.43315 0.99166 -0.05556
 H112 H 0.46192 0.92351 -0.02950
 H113 H 0.49089 0.94681 -0.00445
 C114 C 0.44741 1.04704 0.05222
 C115 C 0.55457 1.04644 -0.04116
 C116 C 0.44516 0.95570 -0.04470
 C117 C 0.55099 0.95044 0.04913
 C118 C -0.01578 0.52215 1.04315
 H119 H -0.00424 0.50933 1.05231
 C120 C -0.02992 0.53824 1.05699
 H121 H -0.02909 0.53759 1.07673
 C122 C -0.02994 0.53952 1.00641
 H123 H -0.02964 0.53998 0.98665
 C124 C -0.04433 0.55593 1.01951
 H125 H -0.05536 0.56876 1.00964
 N126 N -0.01616 0.52299 1.01832
 C127 C 0.04771 0.48369 1.01806
 H128 H 0.05672 0.49682 1.00643
 C129 C 0.06154 0.46776 1.03200
 H130 H 0.08112 0.46917 1.03130
 C131 C 0.01136 0.46559 1.03281
 H132 H -0.00824 0.46466 1.03268
 C133 C 0.02447 0.44935 1.04705
 H134 H 0.01478 0.43583 1.05774
 Zn135 Zn 0.00382 0.50257 0.99893
 N136 N 0.02308 0.48241 1.01880
 C137 C 0.03713 0.54033 0.99144
 N138 N 0.02352 0.52329 0.97954
 C139 C 0.02297 0.52227 0.95471
 C140 C 0.03667 0.53874 0.94085
 C141 C 0.05109 0.55713 0.97832
 C142 C -0.03987 0.48233 0.97996
 C143 C -0.05360 0.46585 0.96614
 C144 C -0.01642 0.44818 0.95089
 C145 C -0.00341 0.46497 0.96501
 N146 N -0.01523 0.48167 0.97907
 H147 H 0.03697 0.54094 1.01120
 H148 H 0.01156 0.50902 0.94558
 H149 H 0.03563 0.53795 0.92112
 H150 H 0.06194 0.57042 0.98816
 H151 H -0.04896 0.49537 0.99164
 H152 H -0.07319 0.46675 0.96698
 H153 H -0.00665 0.43475 0.94016
 H154 H 0.01620 0.46455 0.96502
 C155 C 0.04992 0.45024 1.04670
 C156 C -0.04438 0.55549 1.04516
 C157 C -0.04188 0.44840 0.95142
 C158 C 0.05087 0.55657 0.95266
 C159 C 1.03297 -0.00967 0.53375
 H160 H 1.03268 0.01005 0.53478
 C161 C 1.04756 -0.02281 0.54963
 H162 H 1.05836 -0.01303 0.56297
 C163 C 1.01827 -0.04628 0.51578
 H164 H 1.00652 -0.05538 0.50285
 C165 C 1.03256 -0.06016 0.53135
 H166 H 1.03200 -0.07987 0.52988
 N167 N 1.01882 -0.02150 0.51717
 C168 C 1.00475 0.03239 0.46086
 H169 H 0.98513 0.03208 0.46096
 C170 C 1.01728 0.04698 0.44414
 H171 H 1.00714 0.05817 0.43165
 C172 C 1.04169 0.01796 0.47702
 H173 H 1.05113 0.00620 0.48948
 C174 C 1.05496 0.03229 0.46061
 H175 H 1.07456 0.03139 0.46064
 Zn176 Zn 0.99845 -0.00215 0.49761
 N177 N 1.01703 0.01835 0.47692
 C178 C 0.97951 0.04135 0.51888
 N179 N 0.97899 0.01654 0.51919
 C180 C 0.96558 0.00418 0.53603
 C181 C 0.95177 0.01679 0.55336
 C182 C 0.96595 0.05471 0.53589
 C183 C 0.99054 -0.03550 0.45976
 C184 C 0.97730 -0.04962 0.44319
 C185 C 0.94038 -0.03560 0.46251
 C186 C 0.95434 -0.02172 0.47872
 N187 N 0.97896 -0.02201 0.47714
 H188 H 0.99078 0.05086 0.50578
 H189 H 0.96577 -0.01556 0.53607
 H190 H 0.94104 0.00659 0.56647
 H191 H 0.96695 0.07445 0.53565
 H192 H 1.01013 -0.03512 0.45871
 H193 H 0.98688 -0.06039 0.42964
 H194 H 0.92080 -0.03479 0.46375
 H195 H 0.94545 -0.01040 0.49223
 C196 C 1.04275 0.04696 0.44378
 C197 C 1.04741 -0.04842 0.54862
 C198 C 0.95185 -0.04970 0.44435
 C199 C 0.95192 0.04242 0.55351
 C200 C 0.14484 0.30467 1.17095
 C201 C 0.14814 0.30846 1.14594
 C202 C 0.16267 0.29253 1.13238
 C203 C 0.17371 0.27274 1.14367
 C204 C 0.17040 0.26831 1.16894
 C205 C 0.15581 0.28488 1.18236
 C206 C 0.13615 0.32831 1.13401
 C207 C 0.12593 0.34466 1.12376
 C208 C 0.11376 0.36347 1.11145
 C209 C 0.10319 0.37926 1.10070
 C210 C 0.09036 0.39776 1.08757
 C211 C 0.09814 0.40458 1.06419
 C212 C 0.08518 0.42187 1.05102
 C213 C 0.06420 0.43256 1.06106
 C214 C 0.05668 0.42577 1.08470
 C215 C 0.06968 0.40848 1.09785
 H216 H 0.13376 0.31704 1.18168
 H217 H 0.16516 0.29517 1.11291
 H218 H 0.18381 0.26037 1.13206
 H219 H 0.15333 0.28326 1.20189
 H220 H 0.11405 0.39631 1.05601
 H221 H 0.09125 0.42645 1.03275
 H222 H 0.04079 0.43388 1.09305
 H223 H 0.06351 0.40334 1.11594
 C224 C -0.16496 0.70770 1.13329
 C225 C -0.15018 0.69229 1.14677
 C226 C -0.14780 0.69598 1.17191
 C227 C -0.15991 0.71520 1.18352
 C228 C -0.17474 0.73129 1.17017
 C229 C -0.17714 0.72692 1.14477
 C230 C -0.13694 0.67316 1.13461
 C231 C -0.12566 0.65749 1.12409
 C232 C -0.11226 0.63954 1.11138
 C233 C -0.10066 0.62457 1.10021
 C234 C -0.08663 0.60712 1.08648
 C235 C -0.08520 0.58287 1.09418
 C236 C -0.07147 0.56603 1.08077
 C237 C -0.05903 0.57326 1.05945
 C238 C -0.06059 0.59769 1.05190
 C239 C -0.07429 0.61448 1.06533
 H240 H -0.16675 0.70514 1.11373
 H241 H -0.13652 0.68401 1.18258
 H242 H -0.15806 0.71678 1.20312
 H243 H -0.18737 0.73896 1.13323
 H244 H -0.09472 0.57697 1.11051
 H245 H -0.07084 0.54730 1.08690
 H246 H -0.05093 0.60392 1.03579
 H247 H -0.07519 0.63323 1.05925
 C248 C -0.14401 0.30200 0.82939
 C249 C -0.14152 0.30316 0.85480
 C250 C -0.15104 0.28443 0.86932
 C251 C -0.16291 0.26456 0.85851
 C252 C -0.16544 0.26315 0.83297
 C253 C -0.15588 0.28212 0.81852
 C254 C -0.12894 0.32334 0.86607
 C255 C -0.11834 0.33999 0.87588
 C256 C -0.10583 0.35918 0.88776
 C257 C -0.09509 0.37531 0.89825
 C258 C -0.08219 0.39425 0.91118
 C259 C -0.08980 0.40128 0.93461
 C260 C -0.07686 0.41908 0.94758
 C261 C -0.05607 0.43008 0.93729
 C262 C -0.04870 0.42304 0.91362
 C263 C -0.06168 0.40523 0.90067
 H264 H -0.13673 0.31642 0.81798
 H265 H -0.14912 0.28509 0.88900
 H266 H -0.16974 0.25009 0.87010
 H267 H -0.15777 0.28167 0.79884
 H268 H -0.10557 0.39281 0.94297
 H269 H -0.08280 0.42383 0.96588
 H270 H -0.03295 0.43137 0.90509
 H271 H -0.05564 0.39993 0.88254
 C272 C 0.17350 0.70182 0.85151
 C273 C 0.14865 0.69777 0.84872
 C274 C 0.13518 0.71332 0.83405
 C275 C 0.14641 0.73304 0.82238
 C276 C 0.17152 0.73777 0.82521
 C277 C 0.18484 0.72153 0.83992
 C278 C 0.13677 0.67810 0.86149
 C279 C 0.12659 0.66195 0.87244
 C280 C 0.11440 0.64343 0.88556
 C281 C 0.10376 0.62794 0.89703
 C282 C 0.09078 0.60988 0.91103
 C283 C 0.08999 0.58553 0.90317
 C284 C 0.07710 0.56813 0.91672
 C285 C 0.06485 0.57488 0.93834
 C286 C 0.06581 0.59940 0.94608
 C287 C 0.07869 0.61675 0.93251
 H288 H 0.18415 0.68975 0.86271
 H289 H 0.11584 0.71048 0.83195
 H290 H 0.13489 0.74514 0.81222
 H291 H 0.20424 0.72338 0.84205
 H292 H 0.09932 0.58001 0.88657
 H293 H 0.07691 0.54936 0.91043
 H294 H 0.05627 0.60527 0.96242
 H295 H 0.07909 0.63556 0.93871
 C296 C 1.12973 0.16443 0.28730
 C297 C 1.14278 0.14990 0.30334
 C298 C 1.16773 0.14715 0.29999
 C299 C 1.17960 0.15866 0.28052
 C300 C 1.16671 0.17326 0.26383
 C301 C 1.14147 0.17602 0.26782
 C302 C 1.13041 0.13731 0.32282
 C303 C 1.11982 0.12655 0.33884
 C304 C 1.10715 0.11369 0.35725
 C305 C 1.09610 0.10250 0.37266
 C306 C 1.08264 0.08888 0.39067
 C307 C 1.09096 0.08749 0.41472
 C308 C 1.07796 0.07395 0.43207
 C309 C 1.05645 0.06165 0.42555
 C310 C 1.04823 0.06324 0.40132
 C311 C 1.06125 0.07676 0.38403
 H312 H 1.11032 0.16650 0.28959
 H313 H 1.17807 0.13607 0.31245
 H314 H 1.19904 0.15659 0.27924
 H315 H 1.13028 0.18608 0.25532
 H316 H 1.10748 0.09684 0.42006
 H317 H 1.08461 0.07330 0.45062
 H318 H 1.03196 0.05369 0.39562
 H319 H 1.05471 0.07763 0.36544
 C320 C 1.15174 -0.17024 0.69040
 C321 C 1.14926 -0.14485 0.68973
 C322 C 1.15840 -0.13049 0.70883
 C323 C 1.16982 -0.14144 0.72862
 C324 C 1.17224 -0.16696 0.72958
 C325 C 1.16316 -0.18124 0.71019
 C326 C 1.13686 -0.13349 0.66979
 C327 C 1.12627 -0.12368 0.65340
 C328 C 1.11362 -0.11187 0.63458
 C329 C 1.10261 -0.10151 0.61882
 C330 C 1.08922 -0.08883 0.60040
 C331 C 1.09907 -0.06795 0.58945
 C332 C 1.08563 -0.05499 0.57235
 C333 C 1.06211 -0.06275 0.56599
 C334 C 1.05250 -0.08395 0.57686
 C335 C 1.06597 -0.09687 0.59397
 H336 H 1.14474 -0.18152 0.67570
 H337 H 1.15647 -0.11083 0.70856
 H338 H 1.17630 -0.12998 0.74342
 H339 H 1.16499 -0.20090 0.71029
 H340 H 1.11705 -0.06157 0.59429
 H341 H 1.09364 -0.03893 0.56408
 H342 H 1.03434 -0.09020 0.57261
 H343 H 1.05811 -0.11293 0.60243
 C344 C 0.83235 -0.13653 0.28989
 C345 C 0.84706 -0.14983 0.30554
 C346 C 0.84985 -0.17489 0.30180
 C347 C 0.83825 -0.18658 0.28230
 C348 C 0.82354 -0.17342 0.26595
 C349 C 0.82068 -0.14811 0.27038
 C350 C 0.85990 -0.13760 0.32493
 C351 C 0.87092 -0.12712 0.34083
 C352 C 0.88415 -0.11459 0.35904
 C353 C 0.89571 -0.10367 0.37425
 C354 C 0.90982 -0.09038 0.39199
 C355 C 0.90258 -0.08970 0.41654
 C356 C 0.91625 -0.07655 0.43363
 C357 C 0.93739 -0.06392 0.42635
 C358 C 0.94451 -0.06478 0.40163
 C359 C 0.93081 -0.07791 0.38459
 H360 H 0.83025 -0.11704 0.29249
 H361 H 0.86107 -0.18542 0.31395
 H362 H 0.84040 -0.20612 0.28070
 H363 H 0.81049 -0.13670 0.25818
 H364 H 0.88637 -0.09933 0.42247
 H365 H 0.91045 -0.07646 0.45257
 H366 H 0.96045 -0.05495 0.39537
 H367 H 0.93653 -0.07824 0.36561
 C368 C 0.83941 0.12907 0.71397
 C369 C 0.85388 0.14240 0.69775
 C370 C 0.85702 0.16747 0.70133
 C371 C 0.84595 0.17918 0.72120
 C372 C 0.83140 0.16601 0.73806
 C373 C 0.82826 0.14066 0.73385
 C374 C 0.86597 0.13017 0.67782
 C375 C 0.87628 0.11966 0.66141
 C376 C 0.88857 0.10704 0.64255
 C377 C 0.89924 0.09601 0.62673
 C378 C 0.91222 0.08254 0.60823
 C379 C 0.92442 0.06120 0.61447
 C380 C 0.93724 0.04812 0.59667
 C381 C 0.93804 0.05622 0.57232
 C382 C 0.92567 0.07769 0.56621
 C383 C 0.91283 0.09075 0.58406
 H384 H 0.83704 0.10957 0.71150
 H385 H 0.86807 0.17802 0.68874
 H386 H 0.84831 0.19873 0.72266
 H387 H 0.81822 0.12925 0.74643
 H388 H 0.92415 0.05473 0.63313
 H389 H 0.94687 0.03189 0.60204
 H390 H 0.92572 0.08425 0.54759
 H391 H 0.90341 0.10723 0.57903
 C392 C 0.30281 1.15104 0.17374
 C393 C 0.30427 1.14866 0.14829
 C394 C 0.28590 1.15815 0.13371
 C395 C 0.26607 1.16986 0.14449
 C396 C 0.26434 1.17223 0.17006
 C397 C 0.28297 1.16275 0.18457
 C398 C 0.32433 1.13610 0.13707
 C399 C 0.34085 1.12543 0.12734
 C400 C 0.35987 1.11279 0.11557
 C401 C 0.37583 1.10186 0.10519
 C402 C 0.39452 1.08865 0.09239
 C403 C 0.40212 1.09623 0.06919
 C404 C 0.41956 1.08290 0.05627
 C405 C 0.42962 1.06174 0.06639
 C406 C 0.42206 1.05443 0.08986
 C407 C 0.40462 1.06780 0.10275
 H408 H 0.31694 1.14378 0.18519
 H409 H 0.28679 1.15631 0.11401
 H410 H 0.25186 1.17664 0.13285
 H411 H 0.28227 1.16453 0.20428
 H412 H 0.39432 1.11227 0.06095
 H413 H 0.42472 1.08882 0.03812
 H414 H 0.42967 1.03840 0.09825
 H415 H 0.39887 1.06178 0.12071
 C416 C 0.69811 1.14747 -0.16670
 C417 C 0.69757 1.14549 -0.14122
 C418 C 0.71673 1.15500 -0.12741
 C419 C 0.73643 1.16630 -0.13899
 C420 C 0.73725 1.16823 -0.16461
 C421 C 0.71782 1.15876 -0.17834
 C422 C 0.67770 1.13325 -0.12919
 C423 C 0.66137 1.12280 -0.11879
 C424 C 0.64263 1.11035 -0.10624
 C425 C 0.62696 1.09953 -0.09522
 C426 C 0.60867 1.08639 -0.08169
 C427 C 0.61503 1.07380 -0.06055
 C428 C 0.59744 1.06088 -0.04735
 C429 C 0.57318 1.06036 -0.05513
 C430 C 0.56694 1.07308 -0.07643
 C431 C 0.58459 1.08602 -0.08960
 H432 H 0.68337 1.14018 -0.17757
 H433 H 0.71656 1.15346 -0.10768
 H434 H 0.75126 1.17307 -0.12794
 H435 H 0.71782 1.16021 -0.19807
 H436 H 0.63364 1.07388 -0.05431
 H437 H 0.60291 1.05097 -0.03127
 H438 H 0.54838 1.07325 -0.08273
 H439 H 0.57946 1.09575 -0.10592
 C440 C 0.30449 0.83222 -0.15154
 C441 C 0.30501 0.85766 -0.14908
 C442 C 0.28625 0.87156 -0.15879
 C443 C 0.26695 0.86011 -0.17078
 C444 C 0.26614 0.83454 -0.17320
 C445 C 0.28518 0.82072 -0.16352
 C446 C 0.32447 0.86954 -0.13614
 C447 C 0.34045 0.87979 -0.12511
 C448 C 0.35880 0.89213 -0.11199
 C449 C 0.37416 0.90294 -0.10060
 C450 C 0.39211 0.91618 -0.08678
 C451 C 0.38565 0.93757 -0.07435
 C452 C 0.40291 0.95045 -0.06075
 C453 C 0.42692 0.94210 -0.05938
 C454 C 0.43326 0.92056 -0.07196
 C455 C 0.41595 0.90771 -0.08559
 H456 H 0.31893 0.82129 -0.14410
 H457 H 0.28642 0.89125 -0.15689
 H458 H 0.25241 0.87123 -0.17771
 H459 H 0.28519 0.80103 -0.16534
 H460 H 0.36723 0.94425 -0.07508
 H461 H 0.39736 0.96674 -0.05098
 H462 H 0.45165 0.91381 -0.07149
 H463 H 0.42116 0.89119 -0.09518
 C464 C 0.70839 0.83839 0.13382
 C465 C 0.68940 0.84779 0.14801
 C466 C 0.68989 0.84548 0.17345
 C467 C 0.70942 0.83401 0.18469
 C468 C 0.72871 0.82468 0.17058
 C469 C 0.72791 0.82691 0.14500
 C470 C 0.66981 0.86034 0.13638
 C471 C 0.65380 0.87109 0.12624
 C472 C 0.63554 0.88394 0.11391
 C473 C 0.62036 0.89514 0.10299
 C474 C 0.60277 0.90878 0.08951
 C475 C 0.57871 0.91016 0.09766
 C476 C 0.56179 0.92364 0.08453
 C477 C 0.56876 0.93588 0.06304
 C478 C 0.59300 0.93434 0.05502
 C479 C 0.60985 0.92089 0.06817
 H480 H 0.70826 0.84019 0.11412
 H481 H 0.67528 0.85270 0.18461
 H482 H 0.70940 0.83234 0.20439
 H483 H 0.74264 0.82027 0.13366
 H484 H 0.57303 0.90082 0.11414
 H485 H 0.54322 0.92427 0.09103
 H486 H 0.59904 0.94387 0.03879
 H487 H 0.62846 0.92003 0.06175
   
