data_POSCAR
  _audit_creation_date              2014-09-24
  _audit_creation_method            'ToBaCCo'
  _symmetry_space_group_name_H-M    'P1'
  _symmetry_Int_Tables_number       1
  _symmetry_cell_setting            triclinic
  loop_
  _symmetry_equiv_pos_as_xyz
 x,y,z
_cell_length_a 39.0441
_cell_length_b 32.8027
_cell_length_c 27.8774
_cell_angle_alpha 88.720800
_cell_angle_beta 90.733300
_cell_angle_gamma 90.229900
loop_
  _atom_site_label
  _atom_site_type_symbol
  _atom_site_fract_x
  _atom_site_fract_y
  _atom_site_fract_z
Si1 Si 1.24898 0.25123 0.25023
 Si2 Si 0.74456 -0.25217 0.25542
 Si3 Si 0.74181 0.25302 -0.24904
 Si4 Si 1.25236 -0.24316 -0.25040
 Si5 Si 0.25672 0.24853 0.75139
 Si6 Si 0.74775 0.74842 0.74075
 Si7 Si 0.74810 0.24305 0.25517
 Si8 Si 0.25444 0.74668 0.24770
 O9 O 1.04705 0.06300 0.09342
 O10 O 1.08514 0.03132 0.04461
 C11 C 1.07796 0.05484 0.08006
 O12 O 0.95198 -0.08058 0.07984
 O13 O 0.91296 -0.04011 0.03912
 C14 C 0.92087 -0.06967 0.06904
 O15 O 1.04723 -0.07843 0.08210
 O16 O 1.08525 -0.03896 0.03924
 C17 C 1.07815 -0.06799 0.07014
 O18 O 0.95188 0.06701 0.08883
 O19 O 0.91291 0.03223 0.04276
 C20 C 0.92069 0.05810 0.07601
 Zr21 Zr 0.99928 0.04508 0.06443
 O22 O 0.99834 0.03486 0.13955
 O23 O 1.00267 0.10905 0.07191
 Zr24 Zr 0.99931 -0.05661 0.05673
 O25 O 0.99755 -0.06178 0.13249
 O26 O 1.00233 -0.12080 0.05118
 O27 O 1.03035 -0.00623 0.06985
 O28 O 0.96920 -0.00643 0.06929
 O29 O 0.95043 0.07823 -0.07819
 O30 O 0.91222 0.03651 -0.03872
 C31 C 0.91949 0.06689 -0.06767
 O32 O 1.04563 -0.06663 -0.09137
 O33 O 1.08460 -0.03289 -0.04427
 C34 C 1.07681 -0.05786 -0.07842
 O35 O 0.95066 -0.06990 -0.08881
 O36 O 0.91225 -0.03604 -0.04257
 C37 C 0.91967 -0.06145 -0.07616
 O38 O 1.04559 0.07657 -0.08110
 O39 O 1.08448 0.03720 -0.03885
 C40 C 1.07673 0.06624 -0.06953
 Zr41 Zr 0.99820 0.05396 -0.05621
 O42 O 0.99410 0.05851 -0.13197
 O43 O 1.00156 0.11821 -0.05167
 Zr44 Zr 0.99824 -0.04786 -0.06384
 O45 O 0.99418 -0.04047 -0.13938
 O46 O 1.00144 -0.11192 -0.07001
 Zr47 Zr 1.05047 -0.00103 0.00017
 Zr48 Zr 0.94695 -0.00165 0.00022
 O49 O 0.96804 0.00345 -0.06879
 O50 O 1.02909 0.00392 -0.06958
 O51 O 0.96803 0.05750 0.00466
 O52 O 1.02859 -0.05964 -0.00408
 O53 O 1.02858 0.05729 0.00472
 O54 O 0.96799 -0.06059 -0.00411
 H55 H 0.95419 -0.00812 0.09767
 H56 H 1.04360 -0.08383 -0.00577
 H57 H 0.95245 0.00520 -0.09709
 H58 H 1.04363 0.08160 0.00675
 H59 H 0.98183 -0.13006 0.03322
 H60 H 0.98423 -0.12424 -0.04833
 H61 H 1.01482 -0.02565 -0.15054
 H62 H 1.01392 0.04418 -0.14541
 H63 H 0.98241 0.12731 -0.03168
 H64 H 0.98579 0.12152 0.04935
 H65 H 0.99842 0.06217 0.15405
 H66 H 1.01431 -0.04206 0.14550
 O67 O 1.04832 0.57231 0.58716
 O68 O 1.08729 0.53698 0.54315
 C69 C 1.07935 0.56417 0.57432
 O70 O 0.95612 0.42083 0.58396
 O71 O 0.91644 0.45880 0.54151
 C72 C 0.92484 0.42956 0.57158
 O73 O 1.05095 0.42835 0.58942
 O74 O 1.08839 0.46640 0.54386
 C75 C 1.08163 0.43904 0.57684
 O76 O 0.95337 0.57310 0.58221
 O77 O 0.91500 0.53287 0.54184
 C78 C 0.92239 0.56247 0.57054
 Zr79 Zr 1.00093 0.54877 0.56304
 O80 O 1.00056 0.53906 0.63818
 O81 O 1.00064 0.61253 0.57263
 Zr82 Zr 1.00281 0.44727 0.56243
 O83 O 0.99962 0.44737 0.63822
 O84 O 1.00755 0.38298 0.56402
 O85 O 1.03308 0.49892 0.57218
 O86 O 0.97141 0.49695 0.57150
 O87 O 0.95172 0.57550 0.42131
 O88 O 0.91434 0.53430 0.46292
 C89 C 0.92108 0.56467 0.43385
 O90 O 1.04939 0.42926 0.41722
 O91 O 1.08769 0.46793 0.46008
 C92 C 1.08025 0.43974 0.42954
 O93 O 0.95477 0.42453 0.41918
 O94 O 0.91568 0.46066 0.46182
 C95 C 0.92364 0.43323 0.43088
 O96 O 1.04664 0.57550 0.41664
 O97 O 1.08630 0.53842 0.46056
 C98 C 1.07790 0.56688 0.42945
 Zr99 Zr 0.99987 0.55154 0.44167
 O100 O 0.99802 0.54686 0.36622
 O101 O 1.00096 0.61601 0.43676
 Zr102 Zr 1.00178 0.45020 0.44095
 O103 O 0.99863 0.45789 0.36534
 O104 O 1.00319 0.38630 0.43285
 Zr105 Zr 1.05301 0.50115 0.50216
 Zr106 Zr 0.94968 0.49768 0.50208
 O107 O 0.97019 0.50016 0.43265
 O108 O 1.03200 0.50211 0.43206
 O109 O 0.97002 0.55737 0.50236
 O110 O 1.03208 0.44189 0.50189
 O111 O 1.02976 0.55893 0.50236
 O112 O 0.97214 0.43933 0.50159
 H113 H 0.95572 0.49603 0.59918
 H114 H 1.04751 0.41799 0.50257
 H115 H 0.95409 0.50048 0.40485
 H116 H 1.04382 0.58413 0.50217
 H117 H 0.99055 0.37213 0.54091
 H118 H 1.00984 0.37420 0.46434
 H119 H 1.02051 0.46996 0.35428
 H120 H 0.99661 0.57519 0.35330
 H121 H 0.98707 0.62613 0.46340
 H122 H 1.00451 0.62542 0.54080
 H123 H 0.99922 0.56648 0.65219
 H124 H 1.01874 0.46429 0.65042
 O125 O 0.56267 -0.06340 0.57374
 O126 O 0.53176 -0.10640 0.52540
 C127 C 0.55601 -0.09893 0.55647
 O128 O 0.43500 0.04417 0.58312
 O129 O 0.46574 0.09565 0.54659
 C130 C 0.44209 0.08230 0.57559
 O131 O 0.44018 -0.06713 0.57735
 O132 O 0.46997 -0.10810 0.52671
 C133 C 0.44778 -0.10230 0.56037
 O134 O 0.56470 0.04886 0.57818
 O135 O 0.52941 0.09797 0.54499
 C136 C 0.55613 0.08651 0.57009
 Zr137 Zr 0.54177 -0.00580 0.55641
 O138 O 0.53743 -0.00845 0.63208
 O139 O 0.59559 -0.00810 0.56516
 Zr140 Zr 0.45725 -0.00853 0.55711
 O141 O 0.46511 -0.01363 0.63212
 O142 O 0.40362 -0.01245 0.56580
 O143 O 0.50031 -0.04535 0.56222
 O144 O 0.49908 0.02867 0.56923
 O145 O 0.56263 0.06294 0.42420
 O146 O 0.52858 0.10498 0.46784
 C147 C 0.55428 0.09836 0.43979
 O148 O 0.43810 -0.05088 0.40384
 O149 O 0.46976 -0.10018 0.44371
 C150 C 0.44653 -0.08852 0.41246
 O151 O 0.43363 0.06051 0.41957
 O152 O 0.46511 0.10328 0.46746
 C153 C 0.44107 0.09611 0.43603
 O154 O 0.56038 -0.04792 0.40675
 O155 O 0.53067 -0.09901 0.44585
 C156 C 0.55448 -0.08596 0.41715
 Zr157 Zr 0.53973 0.00549 0.43487
 O158 O 0.53175 0.01673 0.36045
 O159 O 0.59294 0.00589 0.42206
 Zr160 Zr 0.45505 0.00303 0.43606
 O161 O 0.45589 0.01457 0.36101
 O162 O 0.40097 -0.00208 0.43446
 Zr163 Zr 0.49954 -0.06293 0.48985
 Zr164 Zr 0.49756 0.05999 0.50254
 O165 O 0.49686 0.04155 0.43072
 O166 O 0.49796 -0.03217 0.42237
 O167 O 0.54726 0.03528 0.49920
 O168 O 0.45007 -0.03799 0.49295
 O169 O 0.54806 -0.03437 0.49210
 O170 O 0.44850 0.03287 0.50043
 H171 H 0.49949 0.04533 0.59847
 H172 H 0.42974 -0.05608 0.49109
 H173 H 0.49660 0.06325 0.40539
 H174 H 0.56976 -0.04977 0.49057
 H175 H 0.39333 -0.01269 0.53327
 H176 H 0.39197 0.01640 0.45885
 H177 H 0.46816 -0.00818 0.34616
 H178 H 0.53018 -0.01001 0.34480
 H179 H 0.60439 0.00528 0.45389
 H180 H 0.60539 0.00177 0.53449
 H181 H 0.53105 -0.03676 0.64134
 H182 H 0.44201 -0.01443 0.64640
 O183 O 0.55018 0.56260 0.09580
 O184 O 0.58738 0.52981 0.04666
 C185 C 0.58062 0.55470 0.08054
 O186 O 0.45343 0.41515 0.06895
 O187 O 0.41512 0.46057 0.03532
 C188 C 0.42247 0.42740 0.05953
 O189 O 0.54870 0.41702 0.07348
 O190 O 0.58670 0.46057 0.03612
 C191 C 0.57949 0.42898 0.06294
 O192 O 0.45509 0.56646 0.09386
 O193 O 0.41601 0.53329 0.04658
 C194 C 0.42396 0.55845 0.08020
 Zr195 Zr 0.50192 0.54292 0.07021
 O196 O 0.50001 0.52590 0.14388
 O197 O 0.50384 0.60464 0.09024
 Zr198 Zr 0.50090 0.44264 0.05314
 O199 O 0.50067 0.43971 0.12891
 O200 O 0.50145 0.37828 0.05066
 O201 O 0.53269 0.49126 0.07075
 O202 O 0.47096 0.49184 0.07045
 O203 O 0.45335 0.58765 -0.06681
 O204 O 0.41504 0.54352 -0.03165
 C205 C 0.42243 0.57634 -0.05632
 O206 O 0.54662 0.44222 -0.09697
 O207 O 0.58545 0.47106 -0.04514
 C208 C 0.57764 0.44893 -0.08166
 O209 O 0.45054 0.44079 -0.09267
 O210 O 0.41341 0.47247 -0.04230
 C211 C 0.41996 0.44904 -0.07781
 O212 O 0.54847 0.58396 -0.07199
 O213 O 0.58664 0.54015 -0.03469
 C214 C 0.57933 0.57195 -0.06128
 Zr215 Zr 0.50076 0.55985 -0.05044
 O216 O 0.49856 0.56430 -0.12613
 O217 O 0.50408 0.62400 -0.04500
 Zr218 Zr 0.49936 0.45937 -0.06728
 O219 O 0.49556 0.47144 -0.14210
 O220 O 0.50127 0.39599 -0.07961
 Zr221 Zr 0.55206 0.50078 0.00106
 Zr222 Zr 0.44941 0.50180 0.00169
 O223 O 0.46971 0.51125 -0.06726
 O224 O 0.53100 0.51062 -0.06821
 O225 O 0.47132 0.55992 0.01137
 O226 O 0.52953 0.44309 -0.00859
 O227 O 0.53073 0.55887 0.01082
 O228 O 0.46975 0.44313 -0.00826
 H229 H 0.45517 0.48828 0.09780
 H230 H 0.54409 0.41881 -0.01284
 H231 H 0.45374 0.51551 -0.09482
 H232 H 0.54541 0.58338 0.01393
 H233 H 0.50267 0.37129 0.01646
 H234 H 0.48314 0.38284 -0.06013
 H235 H 0.51434 0.49047 -0.15076
 H236 H 0.49836 0.59385 -0.13427
 H237 H 0.49019 0.63159 -0.01717
 H238 H 0.50573 0.62101 0.06022
 H239 H 0.52296 0.51568 0.15357
 H240 H 0.49974 0.41033 0.13782
 C241 C 1.18096 0.15202 0.17598
 C242 C 1.18676 0.15074 0.22594
 C243 C 1.20752 0.18004 0.24781
 C244 C 1.22278 0.21120 0.22023
 C245 C 1.21756 0.21223 0.17034
 C246 C 1.19697 0.18284 0.14839
 C247 C 1.15637 0.12331 0.15316
 C248 C 1.16292 0.10652 0.10813
 C249 C 1.13815 0.08249 0.08510
 C250 C 1.10621 0.07526 0.10641
 C251 C 1.10023 0.09090 0.15211
 C252 C 1.12499 0.11447 0.17521
 H253 H 1.21131 0.17869 0.28636
 H254 H 1.22869 0.23622 0.14826
 H255 H 1.14347 0.07099 0.04985
 H256 H 1.07594 0.08576 0.16964
 H257 H 1.19257 0.18512 0.11000
 H258 H 1.18701 0.11250 0.09043
 H259 H 1.17502 0.12721 0.24816
 H260 H 1.11895 0.12724 0.20957
 C261 C 1.17868 0.67088 0.66293
 C262 C 1.16574 0.70360 0.68904
 C263 C 1.18773 0.72989 0.71340
 C264 C 1.22318 0.72364 0.71335
 C265 C 1.23631 0.69119 0.68727
 C266 C 1.21435 0.66517 0.66214
 C267 C 1.15479 0.64308 0.63706
 C268 C 1.16158 0.60103 0.63338
 C269 C 1.13769 0.57499 0.61152
 C270 C 1.10642 0.59052 0.59407
 C271 C 1.10012 0.63246 0.59645
 C272 C 1.12412 0.65846 0.61705
 H273 H 1.17671 0.75472 0.73272
 H274 H 1.26363 0.68566 0.68680
 H275 H 1.14303 0.54267 0.60988
 H276 H 1.07645 0.64523 0.58217
 H277 H 1.22536 0.64078 0.64195
 H278 H 1.18480 0.58798 0.64863
 H279 H 1.13845 0.70864 0.69149
 H280 H 1.11842 0.69071 0.61748
 C281 C 0.65590 0.18826 0.66235
 C282 C 0.65922 0.23088 0.65996
 C283 C 0.68533 0.25024 0.68596
 C284 C 0.70825 0.22724 0.71471
 C285 C 0.70430 0.18488 0.71810
 C286 C 0.67849 0.16558 0.69206
 C287 C 0.62996 0.16652 0.63318
 C288 C 0.63996 0.13177 0.60874
 C289 C 0.61567 0.10729 0.58664
 C290 C 0.58070 0.11693 0.58810
 C291 C 0.57060 0.15329 0.60935
 C292 C 0.59521 0.17801 0.63200
 H293 H 0.68766 0.28313 0.68366
 H294 H 0.72088 0.16648 0.74105
 H295 H 0.62423 0.07996 0.56931
 H296 H 0.54378 0.16140 0.61056
 H297 H 0.67606 0.13273 0.69533
 H298 H 0.66662 0.12282 0.60798
 H299 H 0.64211 0.24901 0.63734
 H300 H 0.58696 0.20487 0.65048
 C301 C 0.67963 0.66514 0.15629
 C302 C 0.66436 0.69716 0.18079
 C303 C 0.68416 0.72336 0.20802
 C304 C 0.71951 0.71751 0.21228
 C305 C 0.73531 0.68732 0.18557
 C306 C 0.71540 0.66083 0.15808
 C307 C 0.65748 0.63584 0.13105
 C308 C 0.66288 0.59349 0.13584
 C309 C 0.63831 0.56612 0.11843
 C310 C 0.60806 0.58115 0.09728
 C311 C 0.60365 0.62317 0.09019
 C312 C 0.62831 0.65025 0.10631
 H313 H 0.67141 0.74749 0.22650
 H314 H 0.76280 0.68315 0.18764
 H315 H 0.64220 0.53360 0.12312
 H316 H 0.58086 0.63507 0.07230
 H317 H 0.72780 0.63679 0.13883
 H318 H 0.68519 0.58166 0.15486
 H319 H 0.63685 0.70118 0.18037
 H320 H 0.62400 0.68263 0.10083
 C321 C 0.81938 -0.16859 0.16706
 C322 C 0.78380 -0.16208 0.16428
 C323 C 0.76132 -0.18757 0.18992
 C324 C 0.77408 -0.21919 0.21967
 C325 C 0.80932 -0.22682 0.22087
 C326 C 0.83168 -0.20197 0.19473
 C327 C 0.84398 -0.14067 0.14230
 C328 C 0.87584 -0.13236 0.16404
 C329 C 0.90027 -0.10879 0.14024
 C330 C 0.89337 -0.09205 0.09438
 C331 C 0.86097 -0.09833 0.07335
 C332 C 0.83653 -0.12276 0.09694
 H333 H 0.73403 -0.18208 0.18727
 H334 H 0.81977 -0.25219 0.24162
 H335 H 0.92476 -0.10369 0.15786
 H336 H 0.85499 -0.08555 0.03815
 H337 H 0.85873 -0.20908 0.19617
 H338 H 0.88210 -0.14426 0.19960
 H339 H 0.77336 -0.13684 0.14322
 H340 H 0.81229 -0.12855 0.07906
 C341 C 0.82108 0.32982 0.66330
 C342 C 0.79387 0.31070 0.63893
 C343 C 0.77017 0.28665 0.66435
 C344 C 0.77330 0.28199 0.71433
 C345 C 0.80036 0.30104 0.73853
 C346 C 0.82398 0.32475 0.71334
 C347 C 0.84714 0.35430 0.63729
 C348 C 0.88184 0.34922 0.64936
 C349 C 0.90672 0.37366 0.62786
 C350 C 0.89764 0.40395 0.59356
 C351 C 0.86290 0.40863 0.58064
 C352 C 0.83783 0.38384 0.60223
 H353 H 0.74949 0.27205 0.64502
 H354 H 0.80299 0.29803 0.77718
 H355 H 0.93318 0.36882 0.63855
 H356 H 0.85509 0.43152 0.55418
 H357 H 0.84440 0.33956 0.73312
 H358 H 0.88978 0.32627 0.67571
 H359 H 0.79129 0.31387 0.60031
 H360 H 0.81117 0.38843 0.59249
 C361 C 0.34291 -0.19063 0.65682
 C362 C 0.31782 -0.21585 0.63606
 C363 C 0.28960 -0.22943 0.66262
 C364 C 0.28612 -0.21886 0.71085
 C365 C 0.31026 -0.19232 0.73099
 C366 C 0.33827 -0.17834 0.70439
 C367 C 0.37310 -0.17583 0.62880
 C368 C 0.40481 -0.16860 0.65185
 C369 C 0.43135 -0.14856 0.62751
 C370 C 0.42711 -0.13630 0.57935
 C371 C 0.39667 -0.14639 0.55508
 C372 C 0.36990 -0.16593 0.57951
 H373 H 0.27102 -0.24879 0.64530
 H374 H 0.30767 -0.18233 0.76741
 H375 H 0.45429 -0.14004 0.64721
 H376 H 0.39236 -0.13573 0.51845
 H377 H 0.35616 -0.15760 0.72115
 H378 H 0.40862 -0.17668 0.68939
 H379 H 0.32024 -0.22584 0.59953
 H380 H 0.34588 -0.17049 0.56054
 C381 C 0.31499 0.32858 0.14315
 C382 C 0.28986 0.34767 0.17028
 C383 C 0.26855 0.32453 0.20029
 C384 C 0.27237 0.28206 0.20413
 C385 C 0.29563 0.26281 0.17432
 C386 C 0.31669 0.28579 0.14405
 C387 C 0.34164 0.35301 0.11820
 C388 C 0.37594 0.34056 0.12165
 C389 C 0.40184 0.36447 0.10184
 C390 C 0.39423 0.40165 0.07813
 C391 C 0.35984 0.41391 0.07373
 C392 C 0.33374 0.38981 0.09373
 H393 H 0.24997 0.34024 0.22140
 H394 H 0.29812 0.23003 0.17498
 H395 H 0.42800 0.35398 0.10594
 H396 H 0.35314 0.44236 0.05558
 H397 H 0.33511 0.27013 0.12240
 H398 H 0.38297 0.31285 0.14113
 H399 H 0.28782 0.38058 0.17023
 H400 H 0.30747 0.40003 0.09034
 C401 C 0.81287 0.16169 -0.16364
 C402 C 0.79197 0.18846 -0.13844
 C403 C 0.76983 0.21533 -0.16333
 C404 C 0.76797 0.21532 -0.21363
 C405 C 0.78808 0.18786 -0.23862
 C406 C 0.81022 0.16126 -0.21395
 C407 C 0.83942 0.13663 -0.13843
 C408 C 0.87273 0.13597 -0.15664
 C409 C 0.89832 0.11316 -0.13357
 C410 C 0.89134 0.09005 -0.09172
 C411 C 0.85791 0.09027 -0.07350
 C412 C 0.83221 0.11372 -0.09644
 H413 H 0.75502 0.23674 -0.14329
 H414 H 0.78715 0.18753 -0.27747
 H415 H 0.92371 0.11361 -0.14879
 H416 H 0.85180 0.07285 -0.04127
 H417 H 0.82579 0.14074 -0.23430
 H418 H 0.87919 0.15370 -0.18852
 H419 H 0.79383 0.18978 -0.09971
 H420 H 0.80667 0.11366 -0.08173
 C421 C 0.81218 0.66483 0.35500
 C422 C 0.78699 0.64712 0.32567
 C423 C 0.76537 0.67176 0.29737
 C424 C 0.76888 0.71431 0.29786
 C425 C 0.79195 0.73204 0.33014
 C426 C 0.81364 0.70750 0.35830
 C427 C 0.83931 0.63938 0.37752
 C428 C 0.87358 0.65147 0.37266
 C429 C 0.89985 0.62694 0.39074
 C430 C 0.89256 0.58968 0.41438
 C431 C 0.85821 0.57763 0.41984
 C432 C 0.83175 0.60221 0.40120
 H433 H 0.74667 0.65734 0.27436
 H434 H 0.79433 0.76489 0.33185
 H435 H 0.92598 0.63739 0.38614
 H436 H 0.85182 0.54918 0.43811
 H437 H 0.83244 0.72184 0.38140
 H438 H 0.88015 0.67959 0.35377
 H439 H 0.78524 0.61432 0.32269
 H440 H 0.80544 0.59230 0.40535
 C441 C 0.33751 0.19131 0.34238
 C442 C 0.31688 0.22143 0.36230
 C443 C 0.28931 0.23815 0.33606
 C444 C 0.28211 0.22547 0.28921
 C445 C 0.30155 0.19398 0.27031
 C446 C 0.32897 0.17716 0.29646
 C447 C 0.36733 0.17374 0.36933
 C448 C 0.39719 0.16314 0.34485
 C449 C 0.42314 0.14097 0.36825
 C450 C 0.42007 0.12968 0.41674
 C451 C 0.39160 0.14268 0.44234
 C452 C 0.36541 0.16466 0.41884
 H453 H 0.27419 0.26131 0.35250
 H454 H 0.29564 0.18227 0.23520
 H455 H 0.44469 0.13051 0.34780
 H456 H 0.38840 0.13316 0.47948
 H457 H 0.34340 0.15282 0.28074
 H458 H 0.39985 0.17048 0.30702
 H459 H 0.32248 0.23270 0.39777
 H460 H 0.34271 0.17211 0.43871
 C461 C 0.31589 0.67753 -0.14030
 C462 C 0.29219 0.65875 -0.17109
 C463 C 0.27171 0.68231 -0.20232
 C464 C 0.27491 0.72495 -0.20373
 C465 C 0.29635 0.74377 -0.17011
 C466 C 0.31681 0.72031 -0.13883
 C467 C 0.34211 0.65287 -0.11412
 C468 C 0.37638 0.66586 -0.11455
 C469 C 0.40212 0.64125 -0.09488
 C470 C 0.39431 0.60292 -0.07417
 C471 C 0.35987 0.59038 -0.07208
 C472 C 0.33398 0.61510 -0.09214
 H473 H 0.25425 0.66677 -0.22605
 H474 H 0.29790 0.77659 -0.16849
 H475 H 0.42831 0.65209 -0.09682
 H476 H 0.35304 0.56114 -0.05606
 H477 H 0.33411 0.73564 -0.11443
 H478 H 0.38356 0.69446 -0.13186
 H479 H 0.29074 0.62585 -0.17287
 H480 H 0.30770 0.60450 -0.09101
 C481 C 1.18237 -0.15256 -0.16872
 C482 C 1.18221 -0.19460 -0.15798
 C483 C 1.20409 -0.22083 -0.18157
 C484 C 1.22630 -0.20577 -0.21690
 C485 C 1.22750 -0.16362 -0.22674
 C486 C 1.20578 -0.13709 -0.20255
 C487 C 1.15601 -0.12618 -0.14735
 C488 C 1.16458 -0.09021 -0.12326
 C489 C 1.13906 -0.06745 -0.10085
 C490 C 1.10452 -0.07990 -0.10314
 C491 C 1.09620 -0.11528 -0.12851
 C492 C 1.12154 -0.13814 -0.14998
 H493 H 1.20293 -0.25320 -0.17318
 H494 H 1.24446 -0.15133 -0.25388
 H495 H 1.14630 -0.04032 -0.08168
 H496 H 1.06999 -0.12606 -0.13098
 H497 H 1.20623 -0.10482 -0.21164
 H498 H 1.19104 -0.08040 -0.12073
 H499 H 1.16461 -0.20728 -0.13185
 H500 H 1.11419 -0.16550 -0.16866
 C501 C 1.17813 0.33808 0.33606
 C502 C 1.16419 0.30621 0.30885
 C503 C 1.18535 0.28010 0.28391
 C504 C 1.22092 0.28542 0.28515
 C505 C 1.23497 0.31778 0.31117
 C506 C 1.21383 0.34374 0.33665
 C507 C 1.15520 0.36472 0.36377
 C508 C 1.16137 0.40696 0.36778
 C509 C 1.13785 0.43185 0.39105
 C510 C 1.10773 0.41483 0.40981
 C511 C 1.10242 0.37260 0.40760
 C512 C 1.12595 0.34784 0.38534
 H513 H 1.17368 0.25611 0.26325
 H514 H 1.26234 0.32318 0.31152
 H515 H 1.14241 0.46439 0.39253
 H516 H 1.07968 0.35869 0.42284
 H517 H 1.22545 0.36787 0.35721
 H518 H 1.18366 0.42096 0.35153
 H519 H 1.13676 0.30163 0.30632
 H520 H 1.12093 0.31538 0.38456
 C521 C 0.66177 -0.18361 0.34076
 C522 C 0.66385 -0.22627 0.34334
 C523 C 0.69009 -0.24632 0.31990
 C524 C 0.71416 -0.22407 0.29290
 C525 C 0.71306 -0.18150 0.29194
 C526 C 0.68694 -0.16142 0.31542
 C527 C 0.63368 -0.16179 0.36428
 C528 C 0.64115 -0.12574 0.38827
 C529 C 0.61496 -0.10225 0.40603
 C530 C 0.58061 -0.11427 0.40067
 C531 C 0.57284 -0.15157 0.37949
 C532 C 0.59935 -0.17520 0.36103
 H533 H 0.69082 -0.27933 0.32130
 H534 H 0.73176 -0.16365 0.27234
 H535 H 0.62161 -0.07417 0.42374
 H536 H 0.54649 -0.16149 0.37556
 H537 H 0.68593 -0.12846 0.31269
 H538 H 0.66734 -0.11530 0.39265
 H539 H 0.64518 -0.24403 0.36328
 H540 H 0.59297 -0.20303 0.34272
 C541 C 0.67759 0.34637 -0.16572
 C542 C 0.67538 0.30469 -0.15372
 C543 C 0.69564 0.27665 -0.17740
 C544 C 0.71878 0.29022 -0.21234
 C545 C 0.72145 0.33209 -0.22332
 C546 C 0.70086 0.35995 -0.20029
 C547 C 0.65373 0.37533 -0.14508
 C548 C 0.62676 0.39112 -0.17337
 C549 C 0.60254 0.41655 -0.15326
 C550 C 0.60549 0.42714 -0.10489
 C551 C 0.63340 0.41260 -0.07719
 C552 C 0.65720 0.38643 -0.09708
 H553 H 0.69262 0.24439 -0.16937
 H554 H 0.73833 0.34344 -0.25103
 H555 H 0.58117 0.42730 -0.17518
 H556 H 0.63589 0.41984 -0.03957
 H557 H 0.70248 0.39202 -0.21020
 H558 H 0.62392 0.38271 -0.21058
 H559 H 0.65706 0.29383 -0.12748
 H560 H 0.67797 0.37438 -0.07495
 C561 C 1.18349 0.16451 -0.15766
 C562 C 1.20869 0.14713 -0.18621
 C563 C 1.23132 0.17203 -0.21232
 C564 C 1.22951 0.21469 -0.20970
 C565 C 1.20499 0.23194 -0.18010
 C566 C 1.18226 0.20716 -0.15431
 C567 C 1.15674 0.13874 -0.13460
 C568 C 1.12232 0.15054 -0.13841
 C569 C 1.09664 0.12671 -0.11764
 C570 C 1.10464 0.09042 -0.09214
 C571 C 1.13914 0.07840 -0.08827
 C572 C 1.16496 0.10224 -0.10965
 H573 H 1.24928 0.15772 -0.23575
 H574 H 1.20233 0.26459 -0.17823
 H575 H 1.07042 0.13705 -0.12138
 H576 H 1.14614 0.05061 -0.06894
 H577 H 1.16317 0.22142 -0.13244
 H578 H 1.11513 0.17809 -0.15811
 H579 H 1.20988 0.11439 -0.19007
 H580 H 1.19135 0.09248 -0.10617
 C581 C 1.17875 0.67365 0.34215
 C582 C 1.21375 0.67447 0.35432
 C583 C 1.23656 0.69874 0.32769
 C584 C 1.22504 0.72225 0.28781
 C585 C 1.18968 0.72312 0.27778
 C586 C 1.16700 0.69887 0.30409
 C587 C 1.15425 0.64658 0.36821
 C588 C 1.12082 0.66016 0.37632
 C589 C 1.09643 0.63397 0.39609
 C590 C 1.10486 0.59362 0.40920
 C591 C 1.13866 0.58030 0.40343
 C592 C 1.16314 0.60652 0.38272
 H593 H 1.26317 0.69887 0.33873
 H594 H 1.17896 0.74158 0.24897
 H595 H 1.07084 0.64554 0.40141
 H596 H 1.14584 0.54942 0.41364
 H597 H 1.14023 0.69905 0.29349
 H598 H 1.11333 0.69112 0.36705
 H599 H 1.22349 0.65639 0.38442
 H600 H 1.18866 0.59506 0.37675
 C601 C 0.66098 0.19184 0.35450
 C602 C 0.68779 0.16628 0.34056
 C603 C 0.71426 0.18138 0.31170
 C604 C 0.71480 0.22250 0.29707
 C605 C 0.68832 0.24819 0.31164
 C606 C 0.66152 0.23297 0.33975
 C607 C 0.63206 0.17484 0.38275
 C608 C 0.59786 0.18098 0.36758
 C609 C 0.57112 0.15902 0.38948
 C610 C 0.57832 0.13129 0.42723
 C611 C 0.61207 0.12764 0.44465
 C612 C 0.63869 0.14913 0.42263
 H613 H 0.73386 0.16066 0.30042
 H614 H 0.68765 0.27985 0.29997
 H615 H 0.54539 0.16136 0.37471
 H616 H 0.61816 0.10576 0.47317
 H617 H 0.64116 0.25327 0.34987
 H618 H 0.59214 0.20049 0.33669
 H619 H 0.68771 0.13424 0.35085
 H620 H 0.66471 0.14418 0.43531
 C621 C 0.68052 0.67502 -0.14999
 C622 C 0.71618 0.66910 -0.15029
 C623 C 0.73676 0.69238 -0.18139
 C624 C 0.72183 0.72112 -0.21315
 C625 C 0.68663 0.72860 -0.21080
 C626 C 0.66616 0.70555 -0.18004
 C627 C 0.65760 0.64864 -0.12066
 C628 C 0.62826 0.66537 -0.10024
 C629 C 0.60330 0.64017 -0.08015
 C630 C 0.60748 0.59775 -0.07893
 C631 C 0.63787 0.58091 -0.09583
 C632 C 0.66270 0.60620 -0.11700
 H633 H 0.76411 0.68703 -0.18179
 H634 H 0.67450 0.75179 -0.23323
 H635 H 0.58041 0.65384 -0.06606
 H636 H 0.64161 0.54819 -0.09482
 H637 H 0.63880 0.71081 -0.18110
 H638 H 0.62404 0.69799 -0.10114
 H639 H 0.72805 0.64629 -0.12691
 H640 H 0.68497 0.59239 -0.13261
 C641 C 0.81958 -0.16047 -0.17680
 C642 C 0.78379 -0.15523 -0.17704
 C643 C 0.76229 -0.18233 -0.20173
 C644 C 0.77616 -0.21481 -0.22698
 C645 C 0.81166 -0.22070 -0.22568
 C646 C 0.83307 -0.19394 -0.20096
 C647 C 0.84322 -0.13144 -0.15215
 C648 C 0.87492 -0.12165 -0.17278
 C649 C 0.89888 -0.09788 -0.14851
 C650 C 0.89187 -0.08260 -0.10294
 C651 C 0.85942 -0.09016 -0.08325
 C652 C 0.83535 -0.11455 -0.10753
 H653 H 0.73484 -0.17776 -0.20140
 H654 H 0.82307 -0.24631 -0.24315
 H655 H 0.92330 -0.09194 -0.16535
 H656 H 0.85317 -0.07856 -0.04843
 H657 H 0.86034 -0.19984 -0.20034
 H658 H 0.88151 -0.13286 -0.20771
 H659 H 0.77247 -0.12989 -0.15883
 H660 H 0.81115 -0.12139 -0.09058
 C661 C 0.82314 0.33034 0.33754
 C662 C 0.78752 0.33634 0.33875
 C663 C 0.76520 0.30991 0.31473
 C664 C 0.77797 0.27700 0.28913
 C665 C 0.81342 0.27080 0.28819
 C666 C 0.83570 0.29689 0.31242
 C667 C 0.84741 0.35923 0.36087
 C668 C 0.87859 0.36894 0.33870
 C669 C 0.90266 0.39371 0.36122
 C670 C 0.89617 0.41006 0.40635
 C671 C 0.86443 0.40208 0.42787
 C672 C 0.84029 0.37670 0.40540
 H673 H 0.73801 0.31583 0.31543
 H674 H 0.82424 0.24621 0.26829
 H675 H 0.92664 0.39988 0.34327
 H676 H 0.85879 0.41422 0.46268
 H677 H 0.86291 0.29081 0.31135
 H678 H 0.88455 0.35721 0.30379
 H679 H 0.77695 0.36203 0.35717
 H680 H 0.81655 0.36977 0.42356
 C681 C 0.34517 -0.18841 0.32022
 C682 C 0.31673 -0.20042 0.34774
 C683 C 0.28827 -0.21909 0.32609
 C684 C 0.28801 -0.22652 0.27667
 C685 C 0.31616 -0.21388 0.24918
 C686 C 0.34444 -0.19531 0.27069
 C687 C 0.37458 -0.16632 0.34215
 C688 C 0.38845 -0.13210 0.31817
 C689 C 0.41390 -0.10873 0.33989
 C690 C 0.42632 -0.11903 0.38605
 C691 C 0.41406 -0.15457 0.40913
 C692 C 0.38815 -0.17789 0.38748
 H693 H 0.26660 -0.22732 0.34810
 H694 H 0.31664 -0.21885 0.21090
 H695 H 0.42279 -0.08134 0.32142
 H696 H 0.42297 -0.16288 0.44496
 H697 H 0.36592 -0.18654 0.24849
 H698 H 0.37843 -0.12210 0.28349
 H699 H 0.31620 -0.19456 0.38579
 H700 H 0.37821 -0.20443 0.40655
 C701 C 0.32108 0.34730 -0.16896
 C702 C 0.28529 0.34663 -0.16468
 C703 C 0.26591 0.31629 -0.18711
 C704 C 0.28213 0.28595 -0.21327
 C705 C 0.31791 0.28672 -0.21688
 C706 C 0.33712 0.31665 -0.19459
 C707 C 0.34239 0.37963 -0.14760
 C708 C 0.36993 0.39601 -0.17370
 C709 C 0.39428 0.42037 -0.15138
 C710 C 0.39119 0.42952 -0.10280
 C711 C 0.36214 0.41618 -0.07761
 C712 C 0.33788 0.39116 -0.09989
 H713 H 0.23833 0.31767 -0.18548
 H714 H 0.33160 0.26527 -0.23805
 H715 H 0.41620 0.43091 -0.17169
 H716 H 0.35934 0.42287 -0.03999
 H717 H 0.36473 0.31603 -0.19790
 H718 H 0.37345 0.38846 -0.21095
 H719 H 0.27232 0.37022 -0.14540
 H720 H 0.31685 0.37887 -0.07907
 C721 C 1.18696 -0.16683 0.15537
 C722 C 1.21080 -0.15085 0.18819
 C723 C 1.23282 -0.17686 0.21456
 C724 C 1.23167 -0.21928 0.20814
 C725 C 1.20923 -0.23480 0.17313
 C726 C 1.18709 -0.20894 0.14723
 C727 C 1.15975 -0.14072 0.13317
 C728 C 1.12557 -0.15406 0.13440
 C729 C 1.09939 -0.13010 0.11446
 C730 C 1.10659 -0.09218 0.09222
 C731 C 1.14084 -0.07866 0.09084
 C732 C 1.16717 -0.10257 0.11159
 H733 H 1.24954 -0.16374 0.24141
 H734 H 1.20738 -0.26733 0.16762
 H735 H 1.07340 -0.14167 0.11608
 H736 H 1.14724 -0.04959 0.07401
 H737 H 1.16918 -0.22207 0.12187
 H738 H 1.11899 -0.18300 0.15142
 H739 H 1.21109 -0.11854 0.19537
 H740 H 1.19333 -0.09157 0.11019
 C741 C 1.18439 0.33352 0.66137
 C742 C 1.21955 0.34239 0.66466
 C743 C 1.24171 0.31545 0.68904
 C744 C 1.22896 0.27945 0.71040
 C745 C 1.19435 0.26935 0.70458
 C746 C 1.17225 0.29612 0.68020
 C747 C 1.15984 0.36383 0.64116
 C748 C 1.12877 0.37013 0.66458
 C749 C 1.10419 0.39619 0.64461
 C750 C 1.11008 0.41680 0.60078
 C751 C 1.14189 0.41235 0.57846
 C752 C 1.16664 0.38601 0.59855
 H753 H 1.26848 0.32359 0.69305
 H754 H 1.18407 0.24139 0.71998
 H755 H 1.08013 0.39942 0.66303
 H756 H 1.14701 0.42773 0.54450
 H757 H 1.14541 0.28802 0.67706
 H758 H 1.12325 0.35439 0.69818
 H759 H 1.22958 0.37095 0.65045
 H760 H 1.19047 0.38177 0.57989
 C761 C 0.66464 -0.19362 0.63875
 C762 C 0.68975 -0.16857 0.65988
 C763 C 0.71577 -0.18553 0.68889
 C764 C 0.71716 -0.22775 0.69677
 C765 C 0.69330 -0.25294 0.67352
 C766 C 0.66689 -0.23600 0.64535
 C767 C 0.63572 -0.17509 0.61126
 C768 C 0.60150 -0.18484 0.62249
 C769 C 0.57439 -0.16232 0.60171
 C770 C 0.58139 -0.13035 0.56909
 C771 C 0.61534 -0.12272 0.55544
 C772 C 0.64225 -0.14477 0.57637
 H773 H 0.73417 -0.16558 0.70586
 H774 H 0.69419 -0.28573 0.67896
 H775 H 0.54842 -0.16805 0.61332
 H776 H 0.62118 -0.09786 0.53056
 H777 H 0.64809 -0.25590 0.62903
 H778 H 0.59593 -0.20806 0.64954
 H779 H 0.68853 -0.13574 0.65527
 H780 H 0.66831 -0.13702 0.56676
 C781 C 0.68216 0.32494 0.15079
 C782 C 0.67161 0.28515 0.16391
 C783 C 0.69254 0.26003 0.19255
 C784 C 0.72401 0.27442 0.20989
 C785 C 0.73540 0.31334 0.19571
 C786 C 0.71479 0.33829 0.16606
 C787 C 0.65828 0.35283 0.12386
 C788 C 0.65815 0.39505 0.13247
 C789 C 0.63337 0.42041 0.11088
 C790 C 0.60783 0.40381 0.08144
 C791 C 0.60839 0.36220 0.07148
 C792 C 0.63368 0.33708 0.09178
 H793 H 0.68338 0.22995 0.20297
 H794 H 0.75992 0.32477 0.20811
 H795 H 0.63315 0.45255 0.11898
 H796 H 0.58904 0.34911 0.04818
 H797 H 0.72427 0.36822 0.15573
 H798 H 0.67621 0.40837 0.15742
 H799 H 0.64656 0.27377 0.15385
 H800 H 0.63349 0.30514 0.08289
 C801 C 0.81573 0.14767 0.17583
 C802 C 0.81481 0.14807 0.22631
 C803 C 0.79340 0.17508 0.24991
 C804 C 0.77248 0.20240 0.22368
 C805 C 0.77223 0.20093 0.17335
 C806 C 0.79354 0.17377 0.14966
 C807 C 0.84165 0.12264 0.15085
 C808 C 0.83366 0.10209 0.10824
 C809 C 0.85893 0.08025 0.08420
 C810 C 0.89284 0.07904 0.10187
 C811 C 0.90056 0.09932 0.14468
 C812 C 0.87539 0.12065 0.16880
 H813 H 0.79425 0.17578 0.28872
 H814 H 0.75648 0.22167 0.15205
 H815 H 0.85207 0.06497 0.05139
 H816 H 0.92630 0.09902 0.15963
 H817 H 0.79379 0.17456 0.11082
 H818 H 0.80785 0.10286 0.09357
 H819 H 0.83125 0.12806 0.24763
 H820 H 0.88266 0.13659 0.20099
 C821 C 0.81661 0.66178 0.65248
 C822 C 0.79282 0.64501 0.68484
 C823 C 0.77140 0.67047 0.71066
 C824 C 0.77358 0.71299 0.70456
 C825 C 0.79571 0.72955 0.67008
 C826 C 0.81720 0.70426 0.64451
 C827 C 0.84283 0.63585 0.63028
 C828 C 0.87712 0.64865 0.63092
 C829 C 0.90254 0.62460 0.61163
 C830 C 0.89446 0.58704 0.59078
 C831 C 0.86006 0.57416 0.58967
 C832 C 0.83445 0.59824 0.60968
 H833 H 0.75360 0.65679 0.73568
 H834 H 0.79715 0.76224 0.66400
 H835 H 0.92868 0.63574 0.61300
 H836 H 0.85302 0.54541 0.57384
 H837 H 0.83484 0.71797 0.61913
 H838 H 0.88445 0.67712 0.64720
 H839 H 0.79174 0.61239 0.69154
 H840 H 0.80814 0.58773 0.60872
 C841 C 0.34201 0.17891 0.67157
 C842 C 0.33788 0.17463 0.72150
 C843 C 0.31074 0.19318 0.74410
 C844 C 0.28781 0.21782 0.71779
 C845 C 0.29145 0.22229 0.66799
 C846 C 0.31832 0.20277 0.64493
 C847 C 0.36998 0.15664 0.64787
 C848 C 0.38725 0.17287 0.60753
 C849 C 0.41249 0.14999 0.58484
 C850 C 0.42064 0.11070 0.60230
 C851 C 0.40440 0.09560 0.64376
 C852 C 0.37922 0.11788 0.66571
 H853 H 0.30869 0.19002 0.78273
 H854 H 0.27405 0.24136 0.64706
 H855 H 0.42452 0.16223 0.55280
 H856 H 0.41019 0.06550 0.65843
 H857 H 0.32039 0.20614 0.60636
 H858 H 0.38102 0.20293 0.59327
 H859 H 0.35600 0.15745 0.74352
 H860 H 0.36615 0.10382 0.69587
 C861 C 0.31910 0.65273 0.16988
 C862 C 0.31509 0.65048 0.21970
 C863 C 0.29427 0.67810 0.24257
 C864 C 0.27626 0.70828 0.21627
 C865 C 0.27963 0.70995 0.16604
 C866 C 0.30063 0.68215 0.14302
 C867 C 0.34507 0.62707 0.14714
 C868 C 0.33808 0.60715 0.10401
 C869 C 0.36338 0.58374 0.08268
 C870 C 0.39617 0.58040 0.10392
 C871 C 0.40292 0.60022 0.14716
 C872 C 0.37767 0.62319 0.16854
 H873 H 0.29390 0.67652 0.28113
 H874 H 0.26770 0.73378 0.14442
 H875 H 0.35755 0.56905 0.04912
 H876 H 0.42791 0.59835 0.16439
 H877 H 0.30387 0.68503 0.10457
 H878 H 0.31307 0.60964 0.08696
 H879 H 0.32905 0.62808 0.24129
 H880 H 0.38392 0.63874 0.20140
   
