data_POSCAR
  _audit_creation_date              2014-09-24
  _audit_creation_method            'ToBaCCo'
  _symmetry_space_group_name_H-M    'P1'
  _symmetry_Int_Tables_number       1
  _symmetry_cell_setting            triclinic
  loop_
  _symmetry_equiv_pos_as_xyz
 x,y,z
_cell_length_a 31.4651
_cell_length_b 31.4391
_cell_length_c 31.4446
_cell_angle_alpha 90.430500
_cell_angle_beta 90.979900
_cell_angle_gamma 81.437600
loop_
  _atom_site_label
  _atom_site_type_symbol
  _atom_site_fract_x
  _atom_site_fract_y
  _atom_site_fract_z
O1 O 0.55918 0.49621 0.03335
 O2 O 0.44108 0.50575 0.03463
 O3 O 0.50463 0.44123 0.03513
 O4 O 0.49700 0.55920 0.03272
 O5 O 0.49271 0.55764 -0.03748
 O6 O 0.50276 0.43950 -0.03513
 O7 O 0.43932 0.50163 -0.03549
 O8 O 0.55730 0.49415 -0.03691
 Cu9 Cu 0.50051 0.50062 0.04104
 Cu10 Cu 0.49792 0.49818 -0.04333
 C11 C 0.57827 0.49401 -0.00201
 C12 C 0.42007 0.50494 -0.00018
 C13 C 0.50503 0.42031 0.00038
 C14 C 0.49366 0.57843 -0.00278
 O15 O -0.03278 0.56635 0.49842
 O16 O -0.03745 0.45013 0.50337
 O17 O -0.03325 0.51145 0.55864
 O18 O -0.03688 0.50598 0.44177
 O19 O 0.03399 0.49116 0.44081
 O20 O 0.03766 0.49745 0.55764
 O21 O 0.03345 0.43671 0.50140
 O22 O 0.03803 0.55294 0.49561
 Cu23 Cu -0.04225 0.50972 0.50050
 Cu24 Cu 0.04295 0.49334 0.49893
 C25 C 0.00338 0.57950 0.49625
 C26 C -0.00276 0.42366 0.50312
 C27 C 0.00284 0.50553 0.57799
 C28 C -0.00207 0.49746 0.42144
 O29 O 0.49587 0.03602 0.55964
 O30 O 0.49082 0.03449 0.44239
 O31 O 0.43594 0.03234 0.50189
 O32 O 0.55181 0.03820 0.49887
 O33 O 0.56586 -0.03273 0.50125
 O34 O 0.44996 -0.03864 0.50328
 O35 O 0.50657 -0.03638 0.44306
 O36 O 0.51018 -0.03491 0.56028
 Cu37 Cu 0.49233 0.04241 0.50079
 Cu38 Cu 0.50946 -0.04281 0.50189
 C39 C 0.50374 0.00083 0.57998
 C40 C 0.49791 -0.00125 0.42281
 C41 C 0.42326 -0.00411 0.50292
 C42 C 0.57853 0.00369 0.49968
 C43 C 0.53713 0.09798 -0.07067
 C44 C 0.53636 0.06774 -0.10219
 C45 C 0.51556 0.03576 -0.08578
 N46 N 0.50373 0.04538 -0.04528
 C47 C 0.51677 0.08351 -0.03604
 C48 C 0.50537 -0.00020 -0.10883
 C49 C 0.49230 -0.03613 -0.08862
 C50 C 0.47413 -0.06827 -0.10927
 C51 C 0.47000 -0.09900 -0.07946
 C52 C 0.48480 -0.08449 -0.04092
 N53 N 0.49844 -0.04614 -0.04691
 C54 C 0.48860 -0.10792 -0.00234
 C55 C 0.49305 -0.08856 0.03807
 C56 C 0.49613 -0.11033 0.07648
 C57 C 0.49696 -0.08012 0.10790
 C58 C 0.49434 -0.04060 0.08797
 N59 N 0.49120 -0.04581 0.04529
 C60 C 0.49133 -0.00047 0.10942
 C61 C 0.48817 0.03935 0.08781
 C62 C 0.47462 0.07946 0.10577
 C63 C 0.47854 0.10957 0.07526
 C64 C 0.49541 0.08736 0.03966
 N65 N 0.50098 0.04457 0.04751
 C66 C 0.50775 0.10675 0.00219
 H67 H 0.55130 0.12718 -0.07301
 H68 H 0.54983 0.06910 -0.13349
 H69 H 0.51735 0.02075 0.02829
 H70 H 0.46502 -0.06987 -0.14251
 H71 H 0.45749 -0.12855 -0.08613
 H72 H 0.49614 -0.14425 0.08184
 H73 H 0.49778 -0.08675 0.14161
 H74 H 0.47009 0.14397 0.07926
 H75 H 0.51584 -0.03039 -0.02503
 H76 H 0.46304 0.08695 0.13747
 C77 C -0.07694 0.49771 0.88709
 C78 C -0.10798 0.49602 0.91666
 C79 C -0.08806 0.49664 0.95631
 N80 N -0.04602 0.49999 0.95163
 C81 C -0.03915 0.50105 0.90934
 C82 C -0.10864 0.49347 0.99568
 C83 C -0.08681 0.49023 1.03570
 C84 C -0.10461 0.47748 1.07272
 C85 C -0.07417 0.47741 1.10432
 C86 C -0.03820 0.49000 1.08610
 N87 N -0.04618 0.49792 1.04416
 C88 C 0.00061 0.49274 1.10891
 C89 C 0.04057 0.49541 1.08970
 C90 C 0.07955 0.49326 1.11146
 C91 C 0.11039 0.49473 1.08165
 C92 C 0.08936 0.49957 1.04250
 N93 N 0.04672 0.49956 1.04755
 C94 C 0.10923 0.50586 1.00339
 C95 C 0.08628 0.51235 0.96419
 C96 C 0.10212 0.52995 0.92851
 C97 C 0.07165 0.53013 0.89691
 C98 C 0.03767 0.51279 0.91391
 N99 N 0.04672 0.50206 0.95511
 C100 C 0.00006 0.50710 0.89049
 H101 H -0.08228 0.49699 0.85307
 H102 H -0.14132 0.49440 0.90913
 H103 H 0.02892 0.48486 0.97439
 H104 H -0.13593 0.46785 1.07655
 H105 H -0.07784 0.46778 1.13686
 H106 H 0.08584 0.49052 1.14528
 H107 H 0.14435 0.49261 1.08870
 H108 H 0.07402 0.54247 0.86513
 H109 H -0.02635 0.51098 1.02348
 H110 H 0.13228 0.54225 0.92558
 C111 C 0.11737 -0.08884 0.50416
 C112 C 0.08847 -0.11733 0.50371
 C113 C 0.04792 -0.09323 0.50033
 N114 N 0.05130 -0.05083 0.50026
 C115 C 0.09371 -0.04795 0.50288
 C116 C 0.00893 -0.11033 0.49536
 C117 C -0.03153 -0.08437 0.48901
 C118 C -0.06727 -0.09957 0.47172
 C119 C -0.10042 -0.06608 0.47214
 C120 C -0.08431 -0.03097 0.48955
 N121 N -0.04203 -0.04220 0.49950
 C122 C -0.10963 0.00961 0.49642
 C123 C -0.09220 0.04840 0.50108
 C124 C -0.11603 0.08907 0.50412
 C125 C -0.08734 0.11779 0.50445
 C126 C -0.04661 0.09386 0.50338
 N127 N -0.04979 0.05148 0.50102
 C128 C -0.00755 0.11116 0.50565
 C129 C 0.03356 0.08572 0.50955
 C130 C 0.07020 0.10195 0.52301
 C131 C 0.10332 0.06845 0.52288
 C132 C 0.08642 0.03224 0.50935
 N133 N 0.04365 0.04297 0.50139
 C134 C 0.11134 -0.00906 0.50517
 H135 H 0.15184 -0.09787 0.50575
 H136 H 0.09706 -0.15184 0.50537
 H137 H 0.02353 0.02325 0.48756
 H138 H -0.06926 -0.13146 0.45939
 H139 H -0.13269 -0.06736 0.46026
 H140 H -0.15051 0.09780 0.50548
 H141 H -0.09613 0.15230 0.50571
 H142 H 0.13607 0.07049 0.53279
 H143 H -0.02290 -0.02361 0.51661
 H144 H 0.07281 0.13447 0.53306
 C145 C -0.28845 0.49052 0.99720
 N146 N -0.30920 0.47554 0.96329
 N147 N -0.35173 0.47660 0.96343
 C148 C -0.37487 0.49210 0.99773
 N149 N -0.35404 0.50667 1.03174
 N150 N -0.31165 0.50618 1.03136
 C151 C -0.24185 0.49077 0.99675
 N152 N -0.22377 0.51852 1.02208
 N153 N -0.18162 0.51945 1.02135
 C154 C -0.15582 0.49238 0.99560
 N155 N -0.17389 0.46410 0.97079
 N156 N -0.21618 0.46358 0.97105
 C157 C 0.28897 0.50949 1.00092
 N158 N 0.31095 0.51645 1.03722
 N159 N 0.35351 0.51501 1.03694
 C160 C 0.37555 0.50719 1.00022
 N161 N 0.35339 0.50077 0.96385
 N162 N 0.31096 0.50154 0.96427
 C163 C 0.24237 0.50934 1.00138
 N164 N 0.22336 0.48619 0.97203
 N165 N 0.18125 0.48501 0.97296
 C166 C 0.15640 0.50732 1.00297
 N167 N 0.17541 0.53115 1.03184
 N168 N 0.21766 0.53179 1.03134
 C169 C 0.00726 -0.29056 0.49390
 N170 N 0.04346 -0.31903 0.48724
 N171 N 0.04233 -0.36125 0.48809
 C172 C 0.00482 -0.37649 0.49495
 N173 N -0.03141 -0.34791 0.50111
 N174 N -0.03014 -0.30577 0.50094
 C175 C 0.00839 -0.24409 0.49431
 N176 N -0.02071 -0.21748 0.51713
 N177 N -0.01991 -0.17527 0.51781
 C178 C 0.00967 -0.15789 0.49529
 N179 N 0.03842 -0.18457 0.47196
 N180 N 0.03809 -0.22694 0.47182
 C181 C -0.00676 0.29143 0.50525
 N182 N -0.04028 0.31960 0.52003
 N183 N -0.03919 0.36183 0.51926
 C184 C -0.00428 0.37729 0.50425
 N185 N 0.02931 0.34908 0.48982
 N186 N 0.02797 0.30695 0.49005
 C187 C -0.00792 0.24495 0.50520
 N188 N 0.01745 0.21876 0.47846
 N189 N 0.01683 0.17652 0.47829
 C190 C -0.00886 0.15871 0.50515
 N191 N -0.03388 0.18493 0.53229
 N192 N -0.03373 0.22732 0.53205
 C193 C 0.50750 0.00151 -0.28930
 N194 N 0.49691 0.03878 -0.31117
 N195 N 0.49597 0.03868 -0.35358
 C196 C 0.50524 0.00124 -0.37570
 N197 N 0.51578 -0.03601 -0.35375
 N198 N 0.51702 -0.03585 -0.31138
 C199 C 0.50795 0.00142 -0.24254
 N200 N 0.52467 -0.03449 -0.22074
 N201 N 0.52435 -0.03488 -0.17838
 C202 C 0.50696 0.00052 -0.15615
 N203 N 0.49032 0.03645 -0.17804
 N204 N 0.49094 0.03695 -0.22039
 C205 C 0.49348 -0.00190 0.28984
 N206 N 0.47124 0.03102 0.31213
 N207 N 0.47278 0.03124 0.35451
 C208 C 0.49608 -0.00176 0.37614
 N209 N 0.51801 -0.03489 0.35386
 N210 N 0.51699 -0.03479 0.31146
 C211 C 0.49261 -0.00163 0.24313
 N212 N 0.52545 -0.02382 0.22101
 N213 N 0.52507 -0.02302 0.17865
 C214 C 0.49162 -0.00044 0.15675
 N215 N 0.45854 0.02135 0.17895
 N216 N 0.45921 0.02109 0.22135
 C217 C 0.48980 -0.28828 -0.00440
 N218 N 0.51050 -0.31225 0.02748
 N219 N 0.51117 -0.35468 0.02816
 C220 C 0.49179 -0.37476 -0.00341
 N221 N 0.47131 -0.35086 -0.03553
 N222 N 0.47001 -0.30827 -0.03582
 C223 C 0.48945 -0.24164 -0.00487
 N224 N 0.45603 -0.21497 -0.02256
 N225 N 0.45554 -0.17249 -0.02179
 C226 C 0.48879 -0.15522 -0.00404
 N227 N 0.52233 -0.18206 0.01326
 N228 N 0.52250 -0.22442 0.01316
 C229 C 0.51004 0.28676 0.00158
 N230 N 0.50023 0.30938 -0.03475
 N231 N 0.49915 0.35187 -0.03511
 C232 C 0.50748 0.37337 0.00094
 N233 N 0.51726 0.35079 0.03735
 N234 N 0.51870 0.30819 0.03762
 C235 C 0.51025 0.24005 0.00180
 N236 N 0.52746 0.21572 0.03509
 N237 N 0.52712 0.17337 0.03513
 C238 C 0.50918 0.15385 0.00209
 N239 N 0.49195 0.17834 -0.03110
 N240 N 0.49264 0.22056 -0.03133
 C241 C -0.28956 0.00847 0.49802
 N242 N -0.30466 -0.02717 0.51179
 N243 N -0.34671 -0.02866 0.51205
 C244 C -0.37523 0.00563 0.49905
 N245 N -0.36020 0.04142 0.48549
 N246 N -0.31805 0.04272 0.48475
 C247 C -0.24315 0.00967 0.49781
 N248 N -0.22642 0.03833 0.47340
 N249 N -0.18410 0.03860 0.47287
 C250 C -0.15705 0.01071 0.49727
 N251 N -0.17395 -0.01789 0.52163
 N252 N -0.21614 -0.01852 0.52176
 C253 C 0.29138 -0.00896 0.50388
 N254 N 0.30661 0.02601 0.48865
 N255 N 0.34866 0.02756 0.48866
 C256 C 0.37704 -0.00606 0.50334
 N257 N 0.36187 -0.04122 0.51834
 N258 N 0.31972 -0.04252 0.51888
 C259 C 0.24499 -0.01017 0.50388
 N260 N 0.22770 -0.03598 0.53108
 N261 N 0.18533 -0.03596 0.53155
 C262 C 0.15883 -0.01076 0.50429
 N263 N 0.17630 0.01491 0.47707
 N264 N 0.21852 0.01535 0.47701
 C265 C -0.00431 0.49105 1.28879
 N266 N -0.03865 0.51171 1.31002
 N267 N -0.03825 0.51330 1.35238
 C268 C -0.00326 0.49480 1.37494
 N269 N 0.03108 0.47424 1.35369
 N270 N 0.03048 0.47219 1.31138
 C271 C -0.00409 0.49030 1.24220
 N272 N 0.02433 0.46128 1.22105
 N273 N 0.02556 0.46157 1.17874
 C274 C -0.00102 0.49141 1.15607
 N275 N -0.02975 0.52012 1.17727
 N276 N -0.03135 0.51950 1.21955
 C277 C 0.00505 0.51137 0.71069
 N278 N -0.03065 0.52814 0.68823
 N279 N -0.03122 0.52633 0.64591
 C280 C 0.00401 0.50805 0.62452
 N281 N 0.03988 0.49162 0.64694
 N282 N 0.04031 0.49303 0.68931
 C283 C 0.00485 0.51174 0.75730
 N284 N 0.03504 0.48543 0.77984
 N285 N 0.03352 0.48420 0.82211
 C286 C 0.00188 0.50936 0.84339
 N287 N -0.02772 0.53640 0.82083
 N288 N -0.02647 0.53731 0.77854
   
