data_POSCAR
  _audit_creation_date              2014-09-24
  _audit_creation_method            'ToBaCCo'
  _symmetry_space_group_name_H-M    'P1'
  _symmetry_Int_Tables_number       1
  _symmetry_cell_setting            triclinic
  loop_
  _symmetry_equiv_pos_as_xyz
 x,y,z
_cell_length_a 23.2765
_cell_length_b 22.4750
_cell_length_c 7.1349
_cell_angle_alpha 93.262600
_cell_angle_beta 94.238600
_cell_angle_gamma 91.487600
loop_
  _atom_site_label
  _atom_site_type_symbol
  _atom_site_fract_x
  _atom_site_fract_y
  _atom_site_fract_z
C1 C 0.06419 0.23001 0.42850
 C2 C 0.09366 0.17708 0.43902
 C3 C 0.15406 0.17775 0.45944
 C4 C 0.18562 0.23233 0.47126
 C5 C 0.15478 0.28552 0.45887
 C6 C 0.09453 0.28404 0.43149
 C7 C 0.25008 0.23460 0.49098
 C8 C 0.28028 0.28276 0.42165
 C9 C 0.33907 0.29203 0.46712
 C10 C 0.37027 0.24940 0.56396
 C11 C 0.34230 0.19826 0.61938
 C12 C 0.28203 0.19151 0.58779
 H13 H 0.01761 0.22884 0.40404
 H14 H 0.17596 0.13584 0.46066
 H15 H 0.17689 0.32860 0.46832
 H16 H 0.25811 0.31544 0.33992
 H17 H 0.41622 0.25635 0.59762
 H18 H 0.26037 0.15409 0.64448
 C19 C 0.85347 0.24649 -0.20129
 C20 C 0.82522 0.29872 -0.15018
 C21 C 0.76868 0.29442 -0.09756
 C22 C 0.73950 0.23882 -0.09409
 C23 C 0.76836 0.18697 -0.14599
 C24 C 0.82563 0.19024 -0.19352
 C25 C 0.68321 0.23535 -0.00725
 C26 C 0.67244 0.19111 0.12004
 C27 C 0.62581 0.19544 0.23377
 C28 C 0.59030 0.24448 0.22204
 C29 C 0.60021 0.28839 0.09536
 C30 C 0.64471 0.28235 -0.02442
 H31 H 0.89860 0.24937 -0.22822
 H32 H 0.74938 0.33471 -0.04443
 H33 H 0.74785 0.14351 -0.13720
 H34 H 0.70289 0.15616 0.14325
 H35 H 0.55734 0.25079 0.32048
 H36 H 0.65236 0.31750 -0.11810
 C37 C 0.64536 0.76199 0.40829
 C38 C 0.67360 0.70757 0.39928
 C39 C 0.73358 0.70709 0.42737
 C40 C 0.76613 0.76029 0.46979
 C41 C 0.73700 0.81427 0.48901
 C42 C 0.67689 0.81543 0.45776
 C43 C 0.83005 0.75905 0.50006
 C44 C 0.86449 0.80555 0.44000
 C45 C 0.92451 0.80500 0.46859
 C46 C 0.95095 0.75681 0.55236
 C47 C 0.91749 0.71038 0.61567
 C48 C 0.85710 0.71187 0.59071
 H49 H 0.59870 0.76204 0.39587
 H50 H 0.75451 0.66466 0.41860
 H51 H 0.76068 0.85538 0.53352
 H52 H 0.84476 0.84305 0.37422
 H53 H 0.99746 0.75685 0.57734
 H54 H 0.83144 0.67641 0.64270
 C55 C 0.38351 0.75181 0.79292
 C56 C 0.36400 0.80425 0.87873
 C57 C 0.31783 0.80124 0.99329
 C58 C 0.28860 0.74631 1.01452
 C59 C 0.31120 0.69372 0.93611
 C60 C 0.35856 0.69646 0.82680
 C61 C 0.23220 0.74479 1.10224
 C62 C 0.21231 0.69423 1.19049
 C63 C 0.15637 0.69226 1.25187
 C64 C 0.12069 0.74058 1.23139
 C65 C 0.13947 0.79066 1.14594
 C66 C 0.19492 0.79270 1.08092
 H67 H 0.42044 0.75375 0.70928
 H68 H 0.30392 0.84218 1.06080
 H69 H 0.29097 0.65061 0.95205
 H70 H 0.23934 0.65620 1.20873
 H71 H 0.07720 0.73839 1.27628
 H72 H 0.20768 0.83054 1.00489
 O73 O 0.92452 0.04059 -0.12462
 O74 O 1.02298 -0.07740 0.02159
 O75 O 0.98365 0.01172 0.19021
 O76 O 0.95608 -0.06782 -0.26588
 O77 O 1.02679 -0.01787 -0.38271
 O78 O 1.05248 0.06573 0.07774
 O79 O 1.09454 -0.02645 -0.08765
 O80 O 0.99685 0.08841 -0.23915
 Cu81 Cu 0.96301 -0.02623 -0.03821
 Cu82 Cu 1.04923 0.03298 -0.16951
 C83 C 0.94467 0.08555 -0.20203
 C84 C 1.07596 -0.07130 -0.00940
 C85 C 1.02321 0.05156 0.21321
 C86 C 0.98827 -0.05944 -0.39822
 O87 O 0.52175 0.56943 0.21709
 O88 O 0.42383 0.44863 0.34429
 O89 O 0.42311 0.56658 0.35925
 O90 O 0.51953 0.45020 0.19440
 O91 O 0.56447 0.45266 0.47891
 O92 O 0.46621 0.56560 0.64548
 O93 O 0.46939 0.44966 0.62771
 O94 O 0.56598 0.56936 0.50184
 Cu95 Cu 0.46762 0.50897 0.24964
 Cu96 Cu 0.52122 0.51022 0.59175
 C97 C 0.55986 0.59071 0.34101
 C98 C 0.43200 0.42695 0.50468
 C99 C 0.42863 0.58609 0.53008
 C100 C 0.55624 0.42956 0.31257
 O101 O 0.07735 0.55304 0.08834
 O102 O -0.02056 0.43950 -0.17685
 O103 O -0.00822 0.55917 -0.17628
 O104 O 0.07166 0.43972 0.04158
 O105 O 0.01182 0.43776 0.26844
 O106 O -0.06359 0.56443 0.06143
 O107 O -0.07746 0.44406 0.05772
 O108 O 0.02410 0.54709 0.33086
 Cu109 Cu 0.03481 0.49888 -0.08158
 Cu110 Cu -0.03350 0.50159 0.19779
 C111 C 0.06903 0.56573 0.26042
 C112 C -0.06435 0.42039 -0.09838
 C113 C -0.04874 0.58313 -0.09340
 C114 C 0.05531 0.41788 0.18913
 O115 O 0.53910 1.07210 0.41762
 O116 O 0.43385 0.95259 0.51330
 O117 O 0.43621 1.07044 0.55674
 O118 O 0.53155 0.95468 0.37313
 O119 O 0.57473 0.94961 0.65781
 O120 O 0.47764 1.06209 0.84189
 O121 O 0.47581 0.94652 0.79935
 O122 O 0.57985 1.06518 0.70457
 Cu123 Cu 0.48081 1.01398 0.43708
 Cu124 Cu 0.53127 1.00606 0.77917
 C125 C 0.57828 1.08801 0.54590
 C126 C 0.43816 0.92807 0.66974
 C127 C 0.43996 1.08480 0.73225
 C128 C 0.56836 0.93157 0.48526
 N129 N 1.06415 0.12694 0.41671
 N130 N 1.03452 0.08075 0.39429
 N131 N 0.64178 0.65244 0.40034
 N132 N 0.59380 0.64204 0.30564
 N133 N -0.14366 0.35436 -0.10818
 N134 N -0.09645 0.36841 -0.17639
 N135 N 0.39316 0.86006 0.85734
 N136 N 0.40272 0.87663 0.69454
 N137 N -0.05423 0.66247 -0.29428
 N138 N -0.07791 0.63184 -0.17455
 N139 N 0.37216 1.16004 0.71527
 N140 N 0.40140 1.12633 0.81104
 N141 N 1.09981 -0.16311 0.11205
 N142 N 1.11538 -0.11616 0.03666
 N143 N 0.57299 0.34424 0.11604
 N144 N 0.58522 0.37627 0.26708
 N145 N 0.95486 -0.14656 -0.55444
 N146 N 0.98281 -0.09955 -0.56161
 N147 N 0.36582 0.34698 0.42478
 N148 N 0.40186 0.37390 0.54489
 N149 N 0.13489 0.64421 0.31722
 N150 N 0.11081 0.60079 0.37784
 N151 N 0.62253 1.16100 0.37506
 N152 N 0.62218 1.13145 0.51545
 N153 N 0.06423 0.33530 0.37645
 N154 N 0.08550 0.36890 0.26055
 N155 N 0.64792 0.86914 0.50488
 N156 N 0.60047 0.88229 0.41900
 N157 N 0.85765 0.13661 -0.19475
 N158 N 0.91020 0.13619 -0.23203
 N159 N 0.38417 0.64290 0.76135
 N160 N 0.39502 0.63473 0.58999
   
