data_POSCAR
  _audit_creation_date              2014-09-24
  _audit_creation_method            'ToBaCCo'
  _symmetry_space_group_name_H-M    'P1'
  _symmetry_Int_Tables_number       1
  _symmetry_cell_setting            triclinic
  loop_
  _symmetry_equiv_pos_as_xyz
 x,y,z
_cell_length_a 46.4193
_cell_length_b 45.9447
_cell_length_c 37.6169
_cell_angle_alpha 89.610900
_cell_angle_beta 90.099900
_cell_angle_gamma 120.162300
loop_
  _atom_site_label
  _atom_site_type_symbol
  _atom_site_fract_x
  _atom_site_fract_y
  _atom_site_fract_z
O1 O -0.01174 0.51193 -0.04071
 O2 O 0.03390 0.47836 0.00982
 O3 O -0.01213 0.45492 -0.03968
 O4 O 0.03713 0.53594 0.00511
 O5 O 0.00013 0.51888 0.04863
 O6 O -0.05080 0.43809 0.00195
 O7 O -0.00479 0.46041 0.05163
 O8 O -0.04863 0.49560 0.00284
 Cu9 Cu 0.01544 0.49685 -0.02076
 Cu10 Cu -0.02986 0.47643 0.03045
 C11 C -0.03806 0.50937 -0.02725
 C12 C 0.02252 0.46440 0.03987
 C13 C -0.04011 0.43297 -0.02713
 C14 C 0.02760 0.54098 0.03482
 O15 O 0.56338 0.52446 -0.02013
 O16 O 0.49336 0.48647 0.04359
 O17 O 0.51744 0.46362 -0.00459
 O18 O 0.53945 0.54763 0.02802
 O19 O 0.50664 0.55104 -0.01235
 O20 O 0.48454 0.46700 -0.04483
 O21 O 0.46063 0.49011 0.00332
 O22 O 0.53028 0.52751 -0.06040
 Cu23 Cu 0.53171 0.50528 0.01583
 Cu24 Cu 0.49219 0.50927 -0.03254
 C25 C 0.55847 0.53170 -0.05139
 C26 C 0.46519 0.48225 0.03442
 C27 C 0.49779 0.45130 -0.03083
 C28 C 0.52648 0.56345 0.01369
 O29 O 0.48817 0.98246 -0.05861
 O30 O 0.40995 0.94034 -0.00733
 O31 O 0.43570 0.98836 -0.05492
 O32 O 0.46353 0.93533 -0.00989
 O33 O 0.48820 0.97416 0.03132
 O34 O 0.45716 1.02544 -0.01163
 O35 O 0.43383 0.97739 0.03567
 O36 O 0.51078 1.02155 -0.01731
 Cu37 Cu 0.44696 0.95770 -0.03683
 Cu38 Cu 0.47485 1.00338 0.01382
 C39 C 0.51248 1.00965 -0.04713
 C40 C 0.40867 0.95151 0.02303
 C41 C 0.44179 1.01603 -0.04102
 C42 C 0.48082 0.94583 0.01825
 O43 O 0.96521 0.48783 0.51769
 O44 O 1.00227 0.45262 0.45733
 O45 O 0.95661 0.42820 0.50735
 O46 O 1.01094 0.51248 0.46853
 O47 O 1.04928 0.52198 0.50883
 O48 O 0.99517 0.43813 0.54756
 O49 O 1.04096 0.46255 0.49734
 O50 O 1.00359 0.49713 0.55793
 Cu51 Cu 0.97994 0.46924 0.48359
 Cu52 Cu 1.02620 0.48079 0.53180
 C53 C 0.97788 0.49808 0.54824
 C54 C 1.02828 0.45215 0.46683
 C55 C 0.96631 0.41933 0.53480
 C56 C 1.03941 0.53160 0.48213
 O57 O 0.46150 0.50987 0.49839
 O58 O 0.53691 0.54890 0.55431
 O59 O 0.51363 0.56912 0.50254
 O60 O 0.48343 0.48954 0.55149
 O61 O 0.50949 0.47398 0.51376
 O62 O 0.53847 0.55336 0.46339
 O63 O 0.56232 0.53371 0.51534
 O64 O 0.48671 0.49330 0.46065
 Cu65 Cu 0.49634 0.53088 0.53063
 Cu66 Cu 0.52687 0.51202 0.48451
 C67 C 0.46145 0.49523 0.46981
 C68 C 0.56250 0.54792 0.54423
 C69 C 0.53060 0.57459 0.47435
 C70 C 0.49140 0.46829 0.54120
 O71 O 0.49870 -0.06499 0.51414
 O72 O 0.46729 -0.01412 0.55674
 O73 O 0.44240 -0.06607 0.51423
 O74 O 0.52237 -0.01556 0.55962
 O75 O 0.54019 0.02143 0.51551
 O76 O 0.46086 -0.03148 0.46806
 O77 O 0.48370 0.02002 0.51011
 O78 O 0.51833 -0.02826 0.46985
 Cu79 Cu 0.48086 -0.04372 0.54074
 Cu80 Cu 0.50272 -0.00102 0.48632
 C81 C 0.51371 -0.05525 0.48448
 C82 C 0.47022 0.01164 0.54054
 C83 C 0.43810 -0.05791 0.48324
 C84 C 0.54456 0.01187 0.54586
 O85 O 0.26380 0.44959 0.28363
 O86 O 0.20305 0.43389 0.21253
 O87 O 0.26390 0.44501 0.21446
 O88 O 0.20341 0.43977 0.28192
 O89 O 0.22454 0.49478 0.27745
 O90 O 0.28238 0.49943 0.20834
 O91 O 0.22172 0.48850 0.20872
 O92 O 0.28427 0.50436 0.27743
 Cu93 Cu 0.23151 0.43652 0.24864
 Cu94 Cu 0.25522 0.50223 0.24234
 C95 C 0.28435 0.47965 0.29262
 C96 C 0.20192 0.45856 0.19872
 C97 C 0.28322 0.47324 0.19972
 C98 C 0.20421 0.46667 0.29153
 O99 O 0.61315 0.78858 0.19812
 O100 O 0.61144 0.84114 0.27048
 O101 O 0.61525 0.78638 0.26718
 O102 O 0.60694 0.84213 0.20148
 O103 O 0.55220 0.81016 0.20442
 O104 O 0.56041 0.75523 0.26983
 O105 O 0.55665 0.80950 0.27347
 O106 O 0.55835 0.75695 0.20091
 Cu107 Cu 0.61720 0.81776 0.23396
 Cu108 Cu 0.55142 0.77984 0.23736
 C109 C 0.58612 0.76368 0.18739
 C110 C 0.58383 0.83424 0.28438
 C111 C 0.58905 0.76129 0.27973
 C112 C 0.57802 0.83556 0.19187
 O113 O 0.16166 0.76028 0.29668
 O114 O 0.21923 0.81313 0.22505
 O115 O 0.16052 0.75835 0.22763
 O116 O 0.21941 0.81641 0.29403
 O117 O 0.24412 0.78604 0.29666
 O118 O 0.18603 0.72872 0.22923
 O119 O 0.24454 0.78333 0.22826
 O120 O 0.18703 0.73053 0.29820
 Cu121 Cu 0.18765 0.79006 0.26062
 Cu122 Cu 0.21785 0.75408 0.26324
 C123 C 0.16457 0.73619 0.30942
 C124 C 0.24209 0.80743 0.21506
 C125 C 0.16313 0.73356 0.21727
 C126 C 0.24192 0.81127 0.30645
 O127 O 0.83410 0.59496 0.70247
 O128 O 0.78367 0.60201 0.77407
 O129 O 0.83977 0.60138 0.77123
 O130 O 0.77776 0.59469 0.70503
 O131 O 0.75196 0.53927 0.70993
 O132 O 0.81074 0.54628 0.77905
 O133 O 0.75466 0.54657 0.77847
 O134 O 0.80809 0.53989 0.71085
 Cu135 Cu 0.81153 0.60387 0.73762
 Cu136 Cu 0.77854 0.53748 0.74534
 C137 C 0.83008 0.56624 0.69500
 C138 C 0.76015 0.57540 0.78796
 C139 C 0.83570 0.57476 0.78636
 C140 C 0.75460 0.56566 0.69590
 O141 O 0.44605 0.24913 0.70022
 O142 O 0.43069 0.18630 0.77070
 O143 O 0.43203 0.24375 0.76809
 O144 O 0.44246 0.19026 0.70318
 O145 O 0.49641 0.21612 0.71461
 O146 O 0.48587 0.26937 0.77993
 O147 O 0.48480 0.21211 0.78140
 O148 O 0.49989 0.27463 0.71197
 Cu149 Cu 0.43239 0.21495 0.73429
 Cu150 Cu 0.49717 0.24595 0.74809
 C151 C 0.47574 0.27260 0.69420
 C152 C 0.45545 0.18822 0.78738
 C153 C 0.45710 0.26547 0.78528
 C154 C 0.47100 0.19345 0.69858
 O155 O 0.78193 0.24312 0.79883
 O156 O 0.73130 0.19345 0.72239
 O157 O 0.79035 0.24601 0.72987
 O158 O 0.72325 0.18972 0.79129
 O159 O 0.70082 0.22210 0.78666
 O160 O 0.76904 0.27950 0.72722
 O161 O 0.70996 0.22679 0.71795
 O162 O 0.75879 0.27492 0.79525
 Cu163 Cu 0.75893 0.21477 0.76098
 Cu164 Cu 0.73239 0.25404 0.75620
 C165 C 0.77871 0.26737 0.81015
 C166 C 0.71208 0.20184 0.70711
 C167 C 0.79124 0.27251 0.71840
 C168 C 0.70066 0.19640 0.79947
 C169 C 0.04187 0.45486 0.06311
 C170 C 0.07352 0.46085 0.05432
 C171 C 0.09687 0.46312 0.08230
 C172 C 0.11835 0.45045 0.07650
 C173 C 0.14127 0.45372 0.10269
 C174 C 0.14360 0.47063 0.13454
 C175 C 0.12261 0.48390 0.13990
 C176 C 0.09920 0.47987 0.11424
 C177 C 0.16866 0.47629 0.16185
 C178 C 0.17742 0.45227 0.17068
 H179 H 0.08208 0.46601 0.02701
 H180 H 0.11728 0.43795 0.05181
 H181 H 0.15776 0.44393 0.09763
 H182 H 0.12431 0.49737 0.16407
 H183 H 0.08354 0.49071 0.11895
 H184 H 0.17871 0.49913 0.17736
 H185 H 0.03271 0.44684 0.08995
 H186 H 0.16498 0.42787 0.15801
 C187 C 0.53316 0.59588 0.02817
 C188 C 0.55398 0.61043 0.05737
 C189 C 0.55608 0.63911 0.07726
 C190 C 0.58389 0.65817 0.09891
 C191 C 0.58553 0.68366 0.12039
 C192 C 0.55914 0.69042 0.12080
 C193 C 0.53134 0.67138 0.09913
 C194 C 0.52981 0.64605 0.07746
 C195 C 0.55870 0.71523 0.14533
 C196 C 0.58748 0.74209 0.15958
 H197 H 0.56886 0.59981 0.06674
 H198 H 0.60418 0.65293 0.09969
 H199 H 0.60691 0.69704 0.13755
 H200 H 0.51048 0.67576 0.09939
 H201 H 0.50746 0.63120 0.06205
 H202 H 0.53471 0.71216 0.15247
 H203 H 0.52002 0.60753 0.01661
 H204 H 0.61177 0.74730 0.15067
 C205 C 0.37772 0.93376 0.04383
 C206 C 0.37685 0.94051 0.07975
 C207 C 0.34764 0.91968 0.10251
 C208 C 0.35296 0.91363 0.13779
 C209 C 0.32611 0.89245 0.15956
 C210 C 0.29335 0.87751 0.14661
 C211 C 0.28782 0.88490 0.11192
 C212 C 0.31482 0.90555 0.08979
 C213 C 0.26513 0.85384 0.16909
 C214 C 0.26733 0.82945 0.18911
 H215 H 0.39959 0.95914 0.09256
 H216 H 0.37803 0.92458 0.14824
 H217 H 0.33093 0.88771 0.18654
 H218 H 0.26269 0.87392 0.10165
 H219 H 0.31002 0.91052 0.06291
 H220 H 0.24221 0.85466 0.16875
 H221 H 0.35600 0.91328 0.03137
 H222 H 0.28908 0.82673 0.18613
 C223 C 0.96209 0.50999 0.57359
 C224 C 0.93593 0.51509 0.56402
 C225 C 0.91647 0.52157 0.59064
 C226 C 0.90218 0.54115 0.58127
 C227 C 0.88258 0.54643 0.60570
 C228 C 0.87643 0.53156 0.63970
 C229 C 0.89025 0.51152 0.64880
 C230 C 0.91030 0.50676 0.62465
 C231 C 0.85450 0.53504 0.66562
 C232 C 0.85138 0.56362 0.66784
 H233 H 0.92954 0.51444 0.53620
 H234 H 0.90618 0.55234 0.55499
 H235 H 0.87153 0.56130 0.59761
 H236 H 0.88547 0.49946 0.67468
 H237 H 0.92011 0.49066 0.63231
 H238 H 0.84195 0.51517 0.68523
 H239 H 0.97073 0.51388 0.60084
 H240 H 0.86623 0.58518 0.65084
 C241 C 0.47950 0.43703 0.56194
 C242 C 0.49029 0.41416 0.55540
 C243 C 0.48083 0.38428 0.57828
 C244 C 0.50245 0.37134 0.58063
 C245 C 0.49516 0.34421 0.60325
 C246 C 0.46586 0.32927 0.62385
 C247 C 0.44344 0.34115 0.62019
 C248 C 0.45086 0.36847 0.59777
 C249 C 0.45811 0.30152 0.64932
 C250 C 0.48295 0.29824 0.66662
 H251 H 0.50847 0.41982 0.53454
 H252 H 0.52539 0.38266 0.56540
 H253 H 0.51245 0.33493 0.60439
 H254 H 0.42042 0.32968 0.63528
 H255 H 0.43300 0.37695 0.59567
 H256 H 0.43234 0.28498 0.65690
 H257 H 0.46328 0.43310 0.58431
 H258 H 0.50888 0.31635 0.66147
 C259 C 0.57499 0.03278 0.56645
 C260 C 0.59651 0.06678 0.55885
 C261 C 0.62287 0.08942 0.58392
 C262 C 0.63236 0.12361 0.58458
 C263 C 0.65506 0.14512 0.60991
 C264 C 0.66886 0.13279 0.63505
 C265 C 0.66079 0.09903 0.63306
 C266 C 0.63800 0.07751 0.60784
 C267 C 0.69147 0.15413 0.66369
 C268 C 0.69158 0.18260 0.67663
 H269 H 0.59128 0.07794 0.53608
 H270 H 0.62151 0.13355 0.56604
 H271 H 0.66164 0.17128 0.60962
 H272 H 0.67158 0.08906 0.65162
 H273 H 0.63227 0.05160 0.60727
 H274 H 0.70681 0.14571 0.67685
 H275 H 0.57819 0.02191 0.59069
 H276 H 0.67510 0.19043 0.66529
 C277 C 0.43254 0.03699 0.94165
 C278 C 0.42005 0.03085 0.90703
 C279 C 0.41744 0.05669 0.88613
 C280 C 0.42864 0.06250 0.85083
 C281 C 0.42919 0.08863 0.83118
 C282 C 0.41757 0.10871 0.84619
 C283 C 0.40467 0.10185 0.88084
 C284 C 0.40504 0.07625 0.90095
 C285 C 0.42025 0.13752 0.82599
 C286 C 0.45104 0.16179 0.81257
 H287 H 0.41717 0.00901 0.89301
 H288 H 0.43814 0.04758 0.83889
 H289 H 0.43893 0.09339 0.80429
 H290 H 0.39546 0.11703 0.89270
 H291 H 0.39577 0.07182 0.92800
 H292 H 0.39840 0.13992 0.82227
 H293 H 0.43792 0.06025 0.95446
 H294 H 0.47301 0.16053 0.81985
 C295 C 0.58481 0.54317 0.92152
 C296 C 0.61664 0.54885 0.92912
 C297 C 0.63991 0.55141 0.90084
 C298 C 0.67441 0.57106 0.90620
 C299 C 0.69674 0.57200 0.88059
 C300 C 0.68481 0.55262 0.84957
 C301 C 0.65033 0.53272 0.84445
 C302 C 0.62807 0.53231 0.86963
 C303 C 0.70745 0.55102 0.82312
 C304 C 0.73896 0.57812 0.81523
 H305 H 0.62441 0.55045 0.95656
 H306 H 0.68406 0.58552 0.93032
 H307 H 0.72323 0.58696 0.88564
 H308 H 0.64059 0.51726 0.82096
 H309 H 0.60162 0.51609 0.86521
 H310 H 0.69809 0.52821 0.80766
 H311 H 0.57813 0.54472 0.89426
 H312 H 0.74743 0.60227 0.82767
 C313 C 0.94078 0.40369 0.95341
 C314 C 0.90790 0.37991 0.96213
 C315 C 0.88603 0.35298 0.93715
 C316 C 0.85201 0.34261 0.93605
 C317 C 0.83129 0.31973 0.91041
 C318 C 0.84421 0.30648 0.88557
 C319 C 0.87775 0.31519 0.88814
 C320 C 0.89856 0.33836 0.91355
 C321 C 0.82350 0.28415 0.85649
 C322 C 0.79795 0.28737 0.84086
 H323 H 0.89658 0.38378 0.98545
 H324 H 0.84165 0.35310 0.95432
 H325 H 0.80525 0.31259 0.91002
 H326 H 0.88812 0.30482 0.86973
 H327 H 0.92444 0.34493 0.91449
 H328 H 0.83041 0.26695 0.84502
 H329 H 0.95127 0.40105 0.92878
 H330 H 0.79278 0.30651 0.85024
 C331 C 0.52450 0.92363 0.46620
 C332 C 0.54135 0.93354 0.43374
 C333 C 0.54647 0.91079 0.41032
 C334 C 0.57097 0.92495 0.38375
 C335 C 0.57462 0.90451 0.35898
 C336 C 0.55358 0.86936 0.36018
 C337 C 0.52911 0.85517 0.38678
 C338 C 0.52562 0.87561 0.41174
 C339 C 0.55509 0.84714 0.33285
 C340 C 0.58370 0.85566 0.31312
 H341 H 0.55044 0.95907 0.42439
 H342 H 0.58695 0.95201 0.38173
 H343 H 0.59310 0.91647 0.33824
 H344 H 0.51231 0.82820 0.38795
 H345 H 0.50576 0.86382 0.43111
 H346 H 0.53296 0.82288 0.32856
 H347 H 0.51748 0.89928 0.47762
 H348 H 0.60688 0.87836 0.31911
 C349 C 0.43238 0.48103 0.44617
 C350 C 0.40715 0.48887 0.44976
 C351 C 0.38120 0.48020 0.42243
 C352 C 0.36769 0.50126 0.41787
 C353 C 0.34466 0.49512 0.39087
 C354 C 0.33448 0.46752 0.36807
 C355 C 0.34675 0.44552 0.37373
 C356 C 0.37004 0.45184 0.40054
 C357 C 0.31079 0.46082 0.33868
 C358 C 0.30839 0.48644 0.32130
 H359 H 0.40870 0.50522 0.47121
 H360 H 0.37551 0.52296 0.43477
 H361 H 0.33474 0.51188 0.38813
 H362 H 0.33875 0.42372 0.35694
 H363 H 0.37911 0.43445 0.40411
 H364 H 0.29603 0.43520 0.32929
 H365 H 0.43277 0.46703 0.42333
 H366 H 0.32480 0.51243 0.32860
 C367 C 0.06076 0.56322 0.46754
 C368 C 0.05236 0.57598 0.43796
 C369 C 0.07685 0.60700 0.41901
 C370 C 0.06546 0.62422 0.39747
 C371 C 0.08787 0.65213 0.37715
 C372 C 0.12214 0.66312 0.37784
 C373 C 0.13347 0.64604 0.39958
 C374 C 0.11117 0.61833 0.41995
 C375 C 0.14644 0.69001 0.35407
 C376 C 0.14115 0.71394 0.33687
 H377 H 0.02708 0.56259 0.42790
 H378 H 0.03909 0.61568 0.39590
 H379 H 0.07808 0.66409 0.36002
 H380 H 0.15968 0.65369 0.40017
 H381 H 0.12089 0.60513 0.43519
 H382 H 0.16976 0.69058 0.34941
 H383 H 0.08506 0.57801 0.47959
 H384 H 0.11951 0.71607 0.34292
 C385 C 0.94210 0.52101 0.95336
 C386 C 0.94990 0.53478 0.91922
 C387 C 0.92580 0.53962 0.89787
 C388 C 0.93728 0.56509 0.87187
 C389 C 0.91466 0.56904 0.85057
 C390 C 0.88015 0.54715 0.85469
 C391 C 0.86882 0.52153 0.88042
 C392 C 0.89130 0.51781 0.90183
 C393 C 0.85528 0.54837 0.83111
 C394 C 0.86060 0.57680 0.81203
 H395 H 0.97390 0.54171 0.90770
 H396 H 0.96376 0.58183 0.86795
 H397 H 0.92430 0.58846 0.83028
 H398 H 0.84240 0.50400 0.88368
 H399 H 0.88155 0.49711 0.92067
 H400 H 0.83125 0.52555 0.82898
 H401 H 0.91938 0.51686 0.96599
 H402 H 0.88329 0.60068 0.81552
 C403 C 0.49216 0.42097 0.95491
 C404 C 0.47314 0.40733 0.92423
 C405 C 0.47325 0.38025 0.90318
 C406 C 0.44869 0.36406 0.87712
 C407 C 0.44958 0.34059 0.85439
 C408 C 0.47520 0.33280 0.85728
 C409 C 0.49965 0.34886 0.88347
 C410 C 0.49876 0.37231 0.90621
 C411 C 0.47842 0.30978 0.83235
 C412 C 0.45235 0.28640 0.81132
 H413 H 0.45868 0.41811 0.91394
 H414 H 0.42910 0.37012 0.87381
 H415 H 0.43079 0.32963 0.83394
 H416 H 0.51989 0.34365 0.88597
 H417 H 0.51881 0.38492 0.92508
 H418 H 0.50236 0.31109 0.83076
 H419 H 0.50470 0.40898 0.96711
 H420 H 0.42760 0.28284 0.81399
 C421 C 0.54245 0.02782 0.93061
 C422 C 0.56679 0.06099 0.93780
 C423 C 0.59416 0.08197 0.91282
 C424 C 0.60751 0.11695 0.91300
 C425 C 0.63238 0.13758 0.88882
 C426 C 0.64462 0.12357 0.86413
 C427 C 0.63227 0.08874 0.86491
 C428 C 0.60711 0.06803 0.88888
 C429 C 0.67068 0.14477 0.83797
 C430 C 0.67406 0.17469 0.82447
 H431 H 0.56370 0.07320 0.96085
 H432 H 0.59829 0.12833 0.93154
 H433 H 0.64220 0.16447 0.88984
 H434 H 0.64178 0.07748 0.84658
 H435 H 0.59813 0.04128 0.88878
 H436 H 0.68665 0.13580 0.82787
 H437 H 0.54360 0.01592 0.90635
 H438 H 0.65648 0.18247 0.83211
 C439 C 0.04436 0.44049 0.44142
 C440 C 0.07678 0.44685 0.44670
 C441 C 0.09646 0.44238 0.41859
 C442 C 0.13113 0.46379 0.41830
 C443 C 0.15053 0.46190 0.39111
 C444 C 0.13567 0.43816 0.36382
 C445 C 0.10121 0.41557 0.36500
 C446 C 0.08165 0.41782 0.39199
 C447 C 0.15584 0.43689 0.33411
 C448 C 0.18231 0.46628 0.31991
 H449 H 0.08969 0.45953 0.47080
 H450 H 0.14317 0.48261 0.43875
 H451 H 0.17719 0.47898 0.39151
 H452 H 0.08933 0.39673 0.34454
 H453 H 0.05509 0.40030 0.39202
 H454 H 0.14866 0.41286 0.32199
 H455 H 0.03186 0.43019 0.41645
 H456 H 0.18715 0.49042 0.32979
 C457 C 0.53977 0.60545 0.45397
 C458 C 0.55678 0.61314 0.42161
 C459 C 0.55975 0.64048 0.39801
 C460 C 0.58634 0.65599 0.37380
 C461 C 0.58860 0.68071 0.35006
 C462 C 0.56394 0.68996 0.34987
 C463 C 0.53727 0.67420 0.37386
 C464 C 0.53519 0.64984 0.39772
 C465 C 0.56373 0.71413 0.32381
 C466 C 0.59187 0.73887 0.30593
 H467 H 0.56775 0.59839 0.41301
 H468 H 0.60526 0.64879 0.37312
 H469 H 0.60904 0.69167 0.33129
 H470 H 0.51770 0.68051 0.37390
 H471 H 0.51368 0.63763 0.41504
 H472 H 0.54011 0.71297 0.31928
 H473 H 0.53120 0.62180 0.46409
 H474 H 0.61629 0.74246 0.31169
 C475 C 0.40829 0.92092 0.46587
 C476 C 0.40105 0.92737 0.43166
 C477 C 0.37150 0.90234 0.41171
 C478 C 0.35730 0.91339 0.38583
 C479 C 0.33020 0.89016 0.36560
 C480 C 0.31713 0.85537 0.37062
 C481 C 0.33166 0.84438 0.39616
 C482 C 0.35843 0.86756 0.41665
 C483 C 0.29005 0.83007 0.34815
 C484 C 0.26622 0.83554 0.33169
 H485 H 0.41731 0.95149 0.41910
 H486 H 0.36730 0.94006 0.38114
 H487 H 0.32030 0.89955 0.34536
 H488 H 0.32240 0.81774 0.40008
 H489 H 0.36947 0.85814 0.43552
 H490 H 0.28858 0.80594 0.34486
 H491 H 0.39036 0.89810 0.47954
 H492 H 0.26552 0.85831 0.33695
 C493 C 0.49165 0.92429 0.03597
 C494 C 0.51283 0.93507 0.06539
 C495 C 0.52148 0.91279 0.08576
 C496 C 0.55060 0.92721 0.10639
 C497 C 0.55860 0.90699 0.12740
 C498 C 0.53734 0.87187 0.12842
 C499 C 0.50817 0.85751 0.10792
 C500 C 0.50031 0.87766 0.08674
 C501 C 0.54337 0.84963 0.15219
 C502 C 0.57445 0.85795 0.16625
 H503 H 0.52385 0.96105 0.07367
 H504 H 0.56706 0.95425 0.10650
 H505 H 0.58082 0.91910 0.14357
 H506 H 0.49112 0.83058 0.10863
 H507 H 0.47712 0.86565 0.07216
 H508 H 0.52217 0.82517 0.15857
 H509 H 0.48258 0.89933 0.02543
 H510 H 0.59658 0.88102 0.15835
 C511 C 0.43800 0.46919 0.06073
 C512 C 0.40867 0.46979 0.05424
 C513 C 0.38341 0.46310 0.08194
 C514 C 0.36358 0.47800 0.07816
 C515 C 0.34053 0.47380 0.10437
 C516 C 0.33659 0.45429 0.13488
 C517 C 0.35528 0.43808 0.13796
 C518 C 0.37869 0.44260 0.11186
 C519 C 0.31303 0.45045 0.16348
 C520 C 0.30673 0.47627 0.17185
 H521 H 0.40572 0.47905 0.02871
 H522 H 0.36637 0.49348 0.05511
 H523 H 0.32567 0.48569 0.10056
 H524 H 0.35223 0.42245 0.16095
 H525 H 0.39282 0.42988 0.11511
 H526 H 0.30198 0.42773 0.17958
 H527 H 0.44261 0.46212 0.08670
 H528 H 0.32020 0.50020 0.15803
 C529 C 0.04989 0.57228 0.05367
 C530 C 0.04289 0.57935 0.08749
 C531 C 0.06839 0.60722 0.10911
 C532 C 0.05849 0.62279 0.13436
 C533 C 0.08212 0.64829 0.15604
 C534 C 0.11608 0.65827 0.15316
 C535 C 0.12585 0.64225 0.12836
 C536 C 0.10234 0.61712 0.10640
 C537 C 0.14156 0.68382 0.17688
 C538 C 0.13865 0.70994 0.19174
 H539 H 0.01821 0.56385 0.09865
 H540 H 0.03242 0.61514 0.13737
 H541 H 0.07360 0.65940 0.17566
 H542 H 0.15178 0.64911 0.12608
 H543 H 0.11071 0.60483 0.08809
 H544 H 0.16389 0.68254 0.18198
 H545 H 0.07361 0.58933 0.04130
 H546 H 0.11789 0.71327 0.18459
 C547 C 0.45893 0.03295 0.55715
 C548 C 0.45719 0.03492 0.59392
 C549 C 0.45347 0.06174 0.61079
 C550 C 0.47118 0.07651 0.64202
 C551 C 0.46982 0.10336 0.65742
 C552 C 0.45020 0.11552 0.64213
 C553 C 0.43136 0.09981 0.61174
 C554 C 0.43322 0.07334 0.59592
 C555 C 0.44792 0.14340 0.65849
 C556 C 0.47481 0.16965 0.67602
 H557 H 0.46348 0.01959 0.61061
 H558 H 0.48666 0.06772 0.65409
 H559 H 0.48373 0.11423 0.68157
 H560 H 0.41559 0.10838 0.59996
 H561 H 0.41869 0.06184 0.57227
 H562 H 0.42450 0.14315 0.65677
 H563 H 0.45638 0.05075 0.54033
 H564 H 0.49901 0.17151 0.67517
 C565 C 0.59238 0.56278 0.56682
 C566 C 0.62008 0.55993 0.55815
 C567 C 0.64843 0.56933 0.58247
 C568 C 0.66681 0.55289 0.57892
 C569 C 0.69252 0.55937 0.60254
 C570 C 0.70058 0.58272 0.63007
 C571 C 0.68345 0.60056 0.63253
 C572 C 0.65739 0.59378 0.60908
 C573 C 0.72630 0.58826 0.65664
 C574 C 0.73035 0.56176 0.66859
 H575 H 0.61950 0.54712 0.53384
 H576 H 0.66075 0.53436 0.55829
 H577 H 0.70603 0.54603 0.59925
 H578 H 0.68966 0.61907 0.65320
 H579 H 0.64444 0.60772 0.61184
 H580 H 0.74025 0.61269 0.66907
 H581 H 0.59143 0.57389 0.59174
 H582 H 0.71392 0.53658 0.65882
 C583 C 0.94300 0.38778 0.55313
 C584 C 0.94658 0.38381 0.58936
 C585 C 0.91930 0.35792 0.61127
 C586 C 0.91447 0.36652 0.64555
 C587 C 0.88788 0.34336 0.66646
 C588 C 0.86610 0.31087 0.65374
 C589 C 0.87172 0.30172 0.62005
 C590 C 0.89789 0.32524 0.59869
 C591 C 0.83778 0.28635 0.67558
 C592 C 0.81857 0.29603 0.69520
 H593 H 0.96795 0.40352 0.60316
 H594 H 0.93085 0.39151 0.65584
 H595 H 0.88452 0.35075 0.69271
 H596 H 0.85540 0.27663 0.60999
 H597 H 0.90151 0.31783 0.57257
 H598 H 0.83078 0.26004 0.67464
 H599 H 0.92027 0.37013 0.53963
 H600 H 0.82314 0.32152 0.69273
   
