data_POSCAR
  _audit_creation_date              2014-09-24
  _audit_creation_method            'ToBaCCo'
  _symmetry_space_group_name_H-M    'P1'
  _symmetry_Int_Tables_number       1
  _symmetry_cell_setting            triclinic
  loop_
  _symmetry_equiv_pos_as_xyz
 x,y,z
_cell_length_a 40.2410
_cell_length_b 42.4708
_cell_length_c 39.2314
_cell_angle_alpha 91.300900
_cell_angle_beta 90.092100
_cell_angle_gamma 89.884900
loop_
  _atom_site_label
  _atom_site_type_symbol
  _atom_site_fract_x
  _atom_site_fract_y
  _atom_site_fract_z
C1 C 0.17063 0.19668 0.24009
 C2 C 0.16196 0.22506 0.22424
 C3 C 0.18173 0.23739 0.19836
 C4 C 0.21065 0.22140 0.18819
 C5 C 0.21985 0.19263 0.20265
 C6 C 0.19970 0.18080 0.22886
 H7 H 0.14010 0.23811 0.23219
 H8 H 0.22495 0.23090 0.16750
 H9 H 0.20649 0.15880 0.24023
 C10 C -0.20026 0.79314 0.23114
 C11 C -0.18886 0.76538 0.21434
 C12 C -0.20504 0.75316 0.18523
 C13 C -0.23289 0.76869 0.17233
 C14 C -0.24445 0.79657 0.18801
 C15 C -0.22833 0.80839 0.21738
 H16 H -0.16811 0.75220 0.22430
 H17 H -0.24513 0.75937 0.14964
 H18 H -0.23656 0.83085 0.22783
 C19 C -0.19406 0.20186 -0.22491
 C20 C -0.22272 0.18760 -0.21126
 C21 C -0.23673 0.19826 -0.18032
 C22 C -0.22220 0.22389 -0.16280
 C23 C -0.19382 0.23863 -0.17556
 C24 C -0.18004 0.22763 -0.20652
 H25 H -0.23309 0.16663 -0.22322
 H26 H -0.23320 0.23262 -0.13923
 H27 H -0.15852 0.23967 -0.21623
 C28 C 0.19376 0.78913 -0.25917
 C29 C 0.18359 0.76055 -0.24449
 C30 C 0.19867 0.74939 -0.21466
 C31 C 0.22446 0.76688 -0.19944
 C32 C 0.23489 0.79537 -0.21310
 C33 C 0.21975 0.80613 -0.24289
 H34 H 0.16414 0.74652 -0.25620
 H35 H 0.23663 0.75824 -0.17683
 H36 H 0.22690 0.82910 -0.25164
 C37 C 0.20737 1.20217 0.76314
 C38 C 0.23646 1.19281 0.78033
 C39 C 0.25078 1.21177 0.80627
 C40 C 0.23556 1.24051 0.81553
 C41 C 0.20644 1.25029 0.79907
 C42 C 0.19301 1.23137 0.77269
 H43 H 0.24856 1.17083 0.77339
 H44 H 0.24601 1.25498 0.83594
 H45 H 0.17014 1.23901 0.76093
 C46 C 0.78751 0.81388 0.77542
 C47 C 0.75667 0.81880 0.79154
 C48 C 0.74604 0.79956 0.81801
 C49 C 0.76688 0.77523 0.82908
 C50 C 0.79843 0.77007 0.81423
 C51 C 0.80767 0.78900 0.78668
 H52 H 0.74045 0.83752 0.78337
 H53 H 0.75891 0.76157 0.85050
 H54 H 0.83133 0.78488 0.77448
 C55 C 0.21329 0.80380 1.26000
 C56 C 0.19459 0.77952 1.24394
 C57 C 0.20533 0.76466 1.21359
 C58 C 0.23583 0.77329 1.19947
 C59 C 0.25517 0.79713 1.21478
 C60 C 0.24386 0.81208 1.24496
 H61 H 0.17184 0.77121 1.25523
 H62 H 0.24408 0.76202 1.17592
 H63 H 0.25796 0.83186 1.25496
 C64 C 0.82445 1.17795 1.20296
 C65 C 0.84135 1.20356 1.18857
 C66 C 0.82725 1.22075 1.16197
 C67 C 0.79544 1.21277 1.15006
 C68 C 0.77785 1.18777 1.16408
 C69 C 0.79244 1.17051 1.19032
 H70 H 0.86622 1.20958 1.19685
 H71 H 0.78448 1.22582 1.12946
 H72 H 0.77828 1.15157 1.20112
 O73 O 0.51036 0.96167 0.95223
 O74 O 0.46090 0.96961 1.06685
 O75 O 0.55977 0.99600 1.03382
 O76 O 0.45001 0.96161 0.95941
 O77 O 0.52329 0.97078 1.06422
 O78 O 0.46612 0.98707 0.91549
 O79 O 0.44843 0.94911 1.01799
 O80 O 0.55422 0.98554 0.97278
 C81 C 0.54090 0.96135 0.95899
 C82 C 0.45006 0.94687 1.04938
 C83 C 0.55248 0.97411 1.05393
 C84 C 0.44537 0.96726 0.92820
 O85 O 0.46969 1.03819 0.95020
 O86 O 0.52220 1.03138 1.07126
 O87 O 0.52876 1.04645 0.96715
 O88 O 0.42275 1.00652 1.03492
 O89 O 0.45967 1.03101 1.06685
 O90 O 0.52343 1.01442 0.92708
 O91 O 0.42630 1.02072 0.97489
 O92 O 0.53259 1.05453 1.02497
 Co93 Co 0.48904 0.99968 0.95317
 Co94 Co 0.49145 1.00097 1.06132
 Co95 Co 0.53993 1.01922 0.99981
 Co96 Co 0.44144 0.98617 0.99731
 O97 O 0.49166 1.00257 1.00520
 C98 C 0.44001 1.04176 0.95808
 C99 C 0.53328 1.05469 1.05637
 C100 C 0.53573 1.03956 0.93723
 C101 C 0.43012 1.02707 1.05763
 O102 O 0.03670 0.47501 0.06744
 O103 O 0.04101 0.53296 -0.06718
 O104 O 0.06322 0.47074 -0.03464
 O105 O 0.02378 0.57136 0.03202
 O106 O 0.02940 0.47597 -0.07433
 O107 O 0.03993 0.53348 0.06435
 O108 O 0.05520 0.55453 -0.01982
 O109 O 0.06587 0.46177 0.02384
 C110 C 0.06209 0.46230 0.05513
 C111 C 0.06159 0.54895 -0.05021
 C112 C 0.05768 0.46817 -0.06525
 C113 C 0.04081 0.56186 0.05659
 O114 O -0.02552 0.53572 0.05679
 O115 O -0.03156 0.48468 -0.05160
 O116 O 0.00245 0.43997 0.02483
 O117 O 0.00165 0.58465 -0.03205
 O118 O -0.02404 0.54276 -0.05336
 O119 O -0.02592 0.47504 0.05543
 O120 O -0.03190 0.55274 0.00581
 O121 O -0.00116 0.44495 -0.03631
 Co122 Co 0.00688 0.50512 0.05509
 Co123 Co 0.00496 0.50883 -0.05581
 Co124 Co 0.03131 0.45817 -0.00580
 Co125 Co 0.01190 0.55071 -0.00750
 O126 O 0.01479 0.50416 -0.00051
 C127 C -0.04159 0.55163 0.03585
 C128 C -0.02836 0.45567 -0.04748
 C129 C -0.02161 0.44718 0.04458
 C130 C -0.01877 0.57244 -0.05502
 O131 O 1.03835 0.04116 0.48847
 O132 O 0.93056 0.03501 0.53529
 O133 O 0.96489 0.00956 0.43289
 O134 O 1.01432 0.00867 0.59376
 O135 O 0.93345 0.03546 0.47005
 O136 O 1.03710 0.03172 0.55025
 O137 O 0.97962 0.04194 0.55668
 O138 O 1.02415 0.01433 0.44264
 C139 C 1.03496 0.03948 0.45672
 C140 C 0.95035 0.05106 0.55339
 C141 C 0.94496 0.03193 0.44038
 C142 C 1.03892 0.02547 0.58187
 O143 O 1.04992 -0.03001 0.53669
 O144 O 0.92276 -0.02441 0.46763
 O145 O 1.02266 -0.04790 0.46715
 O146 O 0.95229 -0.01027 0.57431
 O147 O 0.92408 -0.02748 0.53086
 O148 O 1.06056 -0.01587 0.47650
 O149 O 1.00290 -0.04102 0.55893
 O150 O 0.96649 -0.05071 0.45385
 Co151 Co 1.04099 0.00561 0.51240
 Co152 Co 0.93336 0.00413 0.50163
 Co153 Co 0.99467 -0.01747 0.45337
 Co154 Co 0.99184 0.00016 0.55483
 O155 O 0.98743 -0.00280 0.50360
 C156 C 1.03206 -0.04879 0.55277
 C157 C 0.93584 -0.04828 0.45406
 C158 C 1.05249 -0.04260 0.46670
 C159 C 0.92964 -0.02736 0.56216
 C160 C 1.11556 0.18894 0.26647
 C161 C 1.09544 0.17461 0.29066
 C162 C 1.10936 0.15553 0.31561
 C163 C 1.14392 0.15095 0.31591
 C164 C 1.16405 0.16485 0.29153
 C165 C 1.15031 0.18388 0.26597
 C166 C 1.08722 0.13870 0.33920
 C167 C 1.09684 0.13033 0.37046
 C168 C 1.07704 0.10971 0.39263
 C169 C 1.08348 0.11024 0.42781
 C170 C 1.06848 0.08842 0.44902
 C171 C 1.04715 0.06523 0.43532
 C172 C 1.03974 0.06537 0.40031
 C173 C 1.05451 0.08737 0.37915
 H174 H 1.10332 0.20242 0.24702
 H175 H 1.06878 0.17811 0.28959
 H176 H 1.15551 0.13586 0.33437
 H177 H 1.19056 0.16107 0.29348
 H178 H 1.06234 0.13321 0.33041
 H179 H 1.12047 0.13864 0.38035
 H180 H 1.10088 0.12707 0.43879
 H181 H 1.07474 0.08886 0.47589
 H182 H 1.02333 0.04781 0.38905
 H183 H 1.04946 0.08570 0.35208
 C184 C 0.85071 -0.19960 0.26574
 C185 C 0.86750 -0.18531 0.29317
 C186 C 0.85083 -0.16522 0.31628
 C187 C 0.81664 -0.16003 0.31160
 C188 C 0.79978 -0.17424 0.28417
 C189 C 0.81651 -0.19396 0.26023
 C190 C 0.87058 -0.14855 0.34310
 C191 C 0.85749 -0.13379 0.37061
 C192 C 0.87760 -0.11415 0.39460
 C193 C 0.86219 -0.08889 0.41209
 C194 C 0.88086 -0.06805 0.43247
 C195 C 0.91533 -0.07224 0.43597
 C196 C 0.93042 -0.09857 0.42005
 C197 C 0.91177 -0.11939 0.39970
 H198 H 0.86539 -0.21355 0.24795
 H199 H 0.89394 -0.18947 0.29590
 H200 H 0.80273 -0.14440 0.32837
 H201 H 0.77334 -0.17000 0.28240
 H202 H 0.89714 -0.14760 0.33901
 H203 H 0.83097 -0.13422 0.37484
 H204 H 0.83583 -0.08458 0.40896
 H205 H 0.86847 -0.04812 0.44461
 H206 H 0.95686 -0.10273 0.42266
 H207 H 0.92431 -0.13934 0.38787
 C208 C 0.80176 0.17305 0.71979
 C209 C 0.81661 0.15938 0.69090
 C210 C 0.85091 0.16186 0.68539
 C211 C 0.87000 0.17926 0.70923
 C212 C 0.85516 0.19309 0.73817
 C213 C 0.82076 0.18976 0.74450
 C214 C 0.86544 0.14427 0.65571
 C215 C 0.89726 0.14600 0.64557
 C216 C 0.91133 0.12473 0.61867
 C217 C 0.94507 0.11642 0.62040
 C218 C 0.95835 0.09363 0.59796
 C219 C 0.93813 0.07886 0.57312
 C220 C 0.90496 0.08879 0.56985
 C221 C 0.89172 0.11157 0.59226
 H222 H 0.77508 0.17091 0.72207
 H223 H 0.80111 0.14644 0.67286
 H224 H 0.89658 0.18154 0.70659
 H225 H 0.87144 0.20467 0.75643
 H226 H 0.84907 0.12778 0.64266
 H227 H 0.91443 0.16153 0.65878
 H228 H 0.96085 0.12652 0.64018
 H229 H 0.98405 0.08660 0.60107
 H230 H 0.88887 0.07818 0.55067
 H231 H 0.86600 0.11836 0.58912
 C232 C 1.19403 -0.17741 0.69008
 C233 C 1.17744 -0.16319 0.66319
 C234 C 1.14388 -0.16958 0.65647
 C235 C 1.12771 -0.19205 0.67636
 C236 C 1.14426 -0.20632 0.70342
 C237 C 1.17759 -0.19864 0.71154
 C238 C 1.12696 -0.15115 0.62961
 C239 C 1.09393 -0.15038 0.62447
 C240 C 1.07739 -0.12732 0.60200
 C241 C 1.04408 -0.11936 0.60850
 C242 C 1.02866 -0.09496 0.59109
 C243 C 1.04626 -0.07799 0.56668
 C244 C 1.07880 -0.08738 0.55835
 C245 C 1.09417 -0.11193 0.57564
 H246 H 1.22007 -0.17189 0.69340
 H247 H 1.19090 -0.14655 0.64790
 H248 H 1.10210 -0.19845 0.67184
 H249 H 1.12986 -0.22192 0.71895
 H250 H 1.14256 -0.13533 0.61556
 H251 H 1.07780 -0.16466 0.63971
 H252 H 1.03036 -0.13109 0.62826
 H253 H 1.00347 -0.08840 0.59794
 H254 H 1.09277 -0.07510 0.53919
 H255 H 1.11933 -0.11823 0.56864
 C256 C 0.27510 1.19115 1.17542
 C257 C 0.30148 1.17428 1.16083
 C258 C 0.30123 1.14133 1.15972
 C259 C 0.27484 1.12543 1.17509
 C260 C 0.24855 1.14222 1.19009
 C261 C 0.24775 1.17550 1.18991
 C262 C 0.32902 1.12437 1.14275
 C263 C 0.32532 1.09620 1.12708
 C264 C 0.35271 1.07955 1.10901
 C265 C 0.34490 1.05759 1.08297
 C266 C 0.37002 1.04089 1.06583
 C267 C 0.40351 1.04559 1.07470
 C268 C 0.41134 1.06755 1.10083
 C269 C 0.38625 1.08427 1.11789
 H270 H 0.27681 1.21658 1.17600
 H271 H 0.32196 1.18708 1.14984
 H272 H 0.27434 1.09996 1.17554
 H273 H 0.22812 1.12873 1.20001
 H274 H 0.35252 1.13660 1.14114
 H275 H 0.30090 1.08557 1.12576
 H276 H 0.31925 1.05338 1.07580
 H277 H 0.36316 1.02410 1.04587
 H278 H 0.43689 1.07153 1.10847
 H279 H 0.39324 1.10026 1.13851
 C280 C 0.25888 0.81920 0.84045
 C281 C 0.28216 0.83812 0.85750
 C282 C 0.30751 0.85324 0.83956
 C283 C 0.30916 0.84869 0.80389
 C284 C 0.28566 0.82984 0.78679
 C285 C 0.26031 0.81489 0.80491
 C286 C 0.33158 0.87282 0.85951
 C287 C 0.35529 0.89103 0.84613
 C288 C 0.37875 0.91003 0.86744
 C289 C 0.39445 0.93624 0.85330
 C290 C 0.41638 0.95485 0.87283
 C291 C 0.42305 0.94750 0.90686
 C292 C 0.40794 0.92096 0.92079
 C293 C 0.38633 0.90227 0.90128
 H294 H 0.23936 0.80834 0.85506
 H295 H 0.28022 0.84105 0.88493
 H296 H 0.32847 0.85927 0.78891
 H297 H 0.28753 0.82664 0.75939
 H298 H 0.32870 0.87269 0.88691
 H299 H 0.35711 0.89335 0.81884
 H300 H 0.38941 0.94255 0.82719
 H301 H 0.42780 0.97514 0.86145
 H302 H 0.41300 0.91444 0.94683
 H303 H 0.37608 0.88157 0.91284
 C304 C 0.70305 0.82807 1.19365
 C305 C 0.67811 0.84668 1.17963
 C306 C 0.67761 0.85253 1.14457
 C307 C 0.70191 0.83833 1.12350
 C308 C 0.72679 0.81957 1.13752
 C309 C 0.72784 0.81458 1.17280
 C310 C 0.65107 0.87300 1.13105
 C311 C 0.65398 0.88926 1.10226
 C312 C 0.62758 0.91056 1.08985
 C313 C 0.63625 0.93554 1.06878
 C314 C 0.61199 0.95636 1.05711
 C315 C 0.57850 0.95240 1.06610
 C316 C 0.56976 0.92696 1.08653
 C317 C 0.59394 0.90619 1.09812
 H318 H 0.70302 0.82427 1.22086
 H319 H 0.65942 0.85698 1.19634
 H320 H 0.70174 0.84145 1.09621
 H321 H 0.74567 0.80955 1.12087
 H322 H 0.62919 0.87622 1.14676
 H323 H 0.67714 0.88855 1.08828
 H324 H 0.66194 0.93918 1.06168
 H325 H 0.61946 0.97558 1.04116
 H326 H 0.54410 0.92289 1.09343
 H327 H 0.58600 0.88653 1.11313
 C328 C 0.73325 1.17591 0.86964
 C329 C 0.70650 1.15984 0.88365
 C330 C 0.68031 1.14879 0.86298
 C331 C 0.68119 1.15470 0.82782
 C332 C 0.70802 1.17086 0.81377
 C333 C 0.73439 1.18160 0.83452
 C334 C 0.65246 1.13209 0.87948
 C335 C 0.63082 1.11309 0.86297
 C336 C 0.60442 1.09565 0.88101
 C337 C 0.59281 1.06693 0.86710
 C338 C 0.56955 1.04896 0.88472
 C339 C 0.55738 1.05958 0.91648
 C340 C 0.56777 1.08899 0.92958
 C341 C 0.59083 1.10694 0.91199
 H342 H 0.75335 1.18345 0.88627
 H343 H 0.70645 1.15574 0.91081
 H344 H 0.66108 1.14745 0.81113
 H345 H 0.70792 1.17533 0.78671
 H346 H 0.65108 1.13429 0.90699
 H347 H 0.63377 1.10829 0.83595
 H348 H 0.60252 1.05790 0.84306
 H349 H 0.56186 1.02639 0.87403
 H350 H 0.55846 1.09796 0.95383
 H351 H 0.59799 1.12956 0.92286
 C352 C 0.17320 0.26726 0.14485
 C353 C 0.16382 0.29430 0.12776
 C354 C 0.15261 0.32114 0.14584
 C355 C 0.15076 0.32022 0.18169
 C356 C 0.16018 0.29305 0.19883
 C357 C 0.17157 0.26633 0.18056
 C358 C 0.14156 0.34851 0.12587
 C359 C 0.13513 0.37734 0.13896
 C360 C 0.12063 0.40244 0.11794
 C361 C 0.09758 0.42335 0.13282
 C362 C 0.07982 0.44427 0.11266
 C363 C 0.08513 0.44487 0.07726
 C364 C 0.11022 0.42578 0.06286
 C365 C 0.12785 0.40478 0.08300
 H366 H 0.18129 0.24684 0.13002
 H367 H 0.16514 0.29414 0.10017
 H368 H 0.14158 0.34000 0.19671
 H369 H 0.15876 0.29296 0.22639
 H370 H 0.13760 0.34417 0.09886
 H371 H 0.13789 0.38224 0.16596
 H372 H 0.09197 0.42231 0.15977
 H373 H 0.06086 0.45892 0.12455
 H374 H 0.11519 0.42598 0.03574
 H375 H 0.14649 0.38987 0.07099
 C376 C -0.17360 0.26279 -0.12041
 C377 C -0.15744 0.28675 -0.10190
 C378 C -0.14551 0.31351 -0.11824
 C379 C -0.15006 0.31577 -0.15371
 C380 C -0.16612 0.29170 -0.17227
 C381 C -0.17791 0.26487 -0.15585
 C382 C -0.12636 0.33717 -0.09790
 C383 C -0.12176 0.36705 -0.10729
 C384 C -0.09972 0.38957 -0.08860
 C385 C -0.10380 0.42202 -0.09347
 C386 C -0.08152 0.44377 -0.07891
 C387 C -0.05441 0.43343 -0.05948
 C388 C -0.05084 0.40103 -0.05383
 C389 C -0.07312 0.37935 -0.06825
 H390 H -0.18196 0.24220 -0.10710
 H391 H -0.15392 0.28419 -0.07472
 H392 H -0.14043 0.33555 -0.16746
 H393 H -0.16922 0.29403 -0.19952
 H394 H -0.11606 0.32949 -0.07398
 H395 H -0.13466 0.37565 -0.12946
 H396 H -0.12391 0.43054 -0.10919
 H397 H -0.08487 0.46856 -0.08385
 H398 H -0.03013 0.39227 -0.03914
 H399 H -0.06841 0.35459 -0.06456
 C400 C 0.17755 0.69350 -0.21832
 C401 C 0.16559 0.66640 -0.20282
 C402 C 0.16298 0.66508 -0.16719
 C403 C 0.17226 0.69164 -0.14734
 C404 C 0.18400 0.71874 -0.16281
 C405 C 0.18678 0.72007 -0.19849
 C406 C 0.14785 0.63691 -0.15178
 C407 C 0.15353 0.62844 -0.11948
 C408 C 0.13407 0.60392 -0.10195
 C409 C 0.13142 0.60590 -0.06628
 C410 C 0.10953 0.58637 -0.04898
 C411 C 0.09001 0.56424 -0.06703
 C412 C 0.09477 0.56036 -0.10237
 C413 C 0.11662 0.57995 -0.11969
 H414 H 0.17967 0.69359 -0.24583
 H415 H 0.15825 0.64641 -0.21872
 H416 H 0.16936 0.69212 -0.11993
 H417 H 0.19005 0.73903 -0.14680
 H418 H 0.13045 0.62370 -0.16749
 H419 H 0.17125 0.64169 -0.10414
 H420 H 0.14493 0.62380 -0.05190
 H421 H 0.10655 0.58985 -0.02171
 H422 H 0.08038 0.54322 -0.11693
 H423 H 0.11902 0.57669 -0.14699
 C424 C -0.21230 0.69845 0.16116
 C425 C -0.19953 0.67160 0.14443
 C426 C -0.16658 0.67111 0.13281
 C427 C -0.14626 0.69751 0.13910
 C428 C -0.15877 0.72399 0.15649
 C429 C -0.19192 0.72475 0.16746
 C430 C -0.15311 0.64254 0.11560
 C431 C -0.13224 0.64442 0.08917
 C432 C -0.11435 0.61706 0.07405
 C433 C -0.10298 0.61877 0.04037
 C434 C -0.08125 0.59600 0.02701
 C435 C -0.06990 0.57137 0.04738
 C436 C -0.08263 0.56871 0.08052
 C437 C -0.10476 0.59128 0.09373
 H438 H -0.23791 0.69857 0.16963
 H439 H -0.21546 0.65135 0.14016
 H440 H -0.12050 0.69746 0.13115
 H441 H -0.14268 0.74406 0.16111
 H442 H -0.16078 0.61979 0.12465
 H443 H -0.12747 0.66725 0.07838
 H444 H -0.10989 0.63849 0.02479
 H445 H -0.07178 0.59881 0.00143
 H446 H -0.07423 0.55004 0.09683
 H447 H -0.11254 0.58957 0.12001
 C448 C 1.17256 0.19526 0.71167
 C449 C 1.15592 0.17585 0.68813
 C450 C 1.15784 0.14304 0.69016
 C451 C 1.17814 0.12989 0.71530
 C452 C 1.19511 0.14926 0.73875
 C453 C 1.19212 0.18242 0.73791
 C454 C 1.13855 0.12350 0.66548
 C455 C 1.12739 0.09456 0.67226
 C456 C 1.10578 0.07633 0.64845
 C457 C 1.08382 0.05403 0.66161
 C458 C 1.06219 0.03725 0.64001
 C459 C 1.06236 0.04229 0.60478
 C460 C 1.08503 0.06388 0.59146
 C461 C 1.10661 0.08064 0.61301
 H462 H 1.17063 0.22043 0.70845
 H463 H 1.14103 0.18658 0.66848
 H464 H 1.18097 0.10464 0.71702
 H465 H 1.20907 0.13782 0.75854
 H466 H 1.13108 0.13454 0.64207
 H467 H 1.13200 0.08478 0.69707
 H468 H 1.08296 0.05002 0.68877
 H469 H 1.04518 0.02053 0.65093
 H470 H 1.08598 0.06801 0.56434
 H471 H 1.12400 0.09674 0.60174
 C472 C 0.78988 -0.13351 0.75010
 C473 C 0.80369 -0.11283 0.72683
 C474 C 0.82617 -0.12372 0.70203
 C475 C 0.83446 -0.15585 0.70067
 C476 C 0.82102 -0.17650 0.72409
 C477 C 0.79891 -0.16570 0.74975
 C478 C 0.84236 -0.10082 0.67959
 C479 C 0.85363 -0.10860 0.64841
 C480 C 0.87202 -0.08642 0.62696
 C481 C 0.87043 -0.09025 0.59142
 C482 C 0.88871 -0.07068 0.57038
 C483 C 0.90948 -0.04723 0.58455
 C484 C 0.91128 -0.04350 0.62016
 C485 C 0.89266 -0.06285 0.64120
 H486 H 0.77387 -0.12353 0.76967
 H487 H 0.79721 -0.08808 0.72860
 H488 H 0.85214 -0.16505 0.68222
 H489 H 0.82776 -0.20111 0.72147
 H490 H 0.84445 -0.07670 0.68893
 H491 H 0.84851 -0.13179 0.63764
 H492 H 0.85500 -0.10847 0.57990
 H493 H 0.88699 -0.07426 0.54301
 H494 H 0.92722 -0.02575 0.63178
 H495 H 0.89521 -0.05989 0.66855
 C496 C 1.22253 -0.16350 0.31235
 C497 C 1.21005 -0.14603 0.34019
 C498 C 1.17582 -0.14449 0.34634
 C499 C 1.15419 -0.16051 0.32386
 C500 C 1.16650 -0.17781 0.29599
 C501 C 1.20099 -0.17963 0.28937
 C502 C 1.16301 -0.12418 0.37463
 C503 C 1.13414 -0.13017 0.39024
 C504 C 1.11662 -0.10822 0.41418
 C505 C 1.08569 -0.11774 0.42678
 C506 C 1.06558 -0.09675 0.44522
 C507 C 1.07603 -0.06570 0.45175
 C508 C 1.10779 -0.05653 0.44113
 C509 C 1.12791 -0.07752 0.42235
 H510 H 1.24923 -0.16478 0.30965
 H511 H 1.22723 -0.13376 0.35709
 H512 H 1.12752 -0.15868 0.32682
 H513 H 1.14838 -0.18807 0.27870
 H514 H 1.17765 -0.10383 0.38194
 H515 H 1.12150 -0.15203 0.38388
 H516 H 1.07634 -0.14119 0.42112
 H517 H 1.04130 -0.10454 0.45338
 H518 H 1.11641 -0.03270 0.44593
 H519 H 1.15153 -0.06901 0.41340
 C520 C 0.83167 0.12760 0.23236
 C521 C 0.84711 0.10956 0.25717
 C522 C 0.87033 0.12308 0.27967
 C523 C 0.87843 0.15502 0.27649
 C524 C 0.86334 0.17307 0.25142
 C525 C 0.83953 0.15978 0.22881
 C526 C 0.88622 0.10301 0.30543
 C527 C 0.89685 0.11414 0.33577
 C528 C 0.91064 0.09342 0.36211
 C529 C 0.90502 0.10103 0.39658
 C530 C 0.91641 0.08121 0.42205
 C531 C 0.93422 0.05364 0.41353
 C532 C 0.94102 0.04669 0.37904
 C533 C 0.92927 0.06632 0.35355
 H534 H 0.81475 0.11560 0.21504
 H535 H 0.84082 0.08484 0.25881
 H536 H 0.89674 0.16608 0.29303
 H537 H 0.86973 0.19777 0.25082
 H538 H 0.88702 0.07789 0.30006
 H539 H 0.89289 0.13869 0.34270
 H540 H 0.89106 0.12198 0.40378
 H541 H 0.91107 0.08739 0.44841
 H542 H 0.95497 0.02579 0.37168
 H543 H 0.93490 0.06033 0.32722
 C544 C 0.15396 0.27898 -0.18589
 C545 C 0.13674 0.30624 -0.17617
 C546 C 0.15369 0.33456 -0.16962
 C547 C 0.18852 0.33509 -0.17345
 C548 C 0.20582 0.30767 -0.18322
 C549 C 0.18867 0.27938 -0.18967
 C550 C 0.13384 0.36247 -0.15860
 C551 C 0.14639 0.38766 -0.14189
 C552 C 0.12484 0.41208 -0.12570
 C553 C 0.13558 0.42664 -0.09523
 C554 C 0.11422 0.44629 -0.07648
 C555 C 0.08179 0.45215 -0.08811
 C556 C 0.07188 0.43966 -0.11995
 C557 C 0.09322 0.41976 -0.13863
 H558 H 0.14008 0.25743 -0.19015
 H559 H 0.11000 0.30505 -0.17334
 H560 H 0.20251 0.35656 -0.16947
 H561 H 0.23253 0.30871 -0.18637
 H562 H 0.10715 0.36066 -0.16159
 H563 H 0.17264 0.38858 -0.13602
 H564 H 0.15995 0.42147 -0.08495
 H565 H 0.12264 0.45589 -0.05216
 H566 H 0.04711 0.44404 -0.12963
 H567 H 0.08461 0.40985 -0.16270
 C568 C -0.11981 0.24252 0.13851
 C569 C -0.10206 0.26633 0.12270
 C570 C -0.11776 0.29452 0.11381
 C571 C -0.15193 0.29818 0.12060
 C572 C -0.16965 0.27440 0.13656
 C573 C -0.15378 0.24633 0.14574
 C574 C -0.09769 0.31902 0.09708
 C575 C -0.10663 0.34943 0.09581
 C576 C -0.08534 0.37403 0.08099
 C577 C -0.08984 0.40540 0.09203
 C578 C -0.06950 0.42922 0.07983
 C579 C -0.04426 0.42220 0.05611
 C580 C -0.04045 0.39097 0.04415
 C581 C -0.06087 0.36714 0.05629
 H582 H -0.10702 0.22089 0.14456
 H583 H -0.07590 0.26270 0.11744
 H584 H -0.16534 0.31905 0.11330
 H585 H -0.19579 0.27804 0.14184
 H586 H -0.07365 0.31182 0.08732
 H587 H -0.12923 0.35732 0.10822
 H588 H -0.10874 0.41142 0.11071
 H589 H -0.07326 0.45308 0.08940
 H590 H -0.02151 0.38485 0.02556
 H591 H -0.05744 0.34348 0.04610
 C592 C -0.14423 0.75210 -0.17524
 C593 C -0.12181 0.73063 -0.16181
 C594 C -0.13298 0.70381 -0.14533
 C595 C -0.16740 0.69899 -0.14217
 C596 C -0.19004 0.72058 -0.15553
 C597 C -0.17894 0.74759 -0.17254
 C598 C -0.10779 0.68272 -0.13030
 C599 C -0.11344 0.65271 -0.12218
 C600 C -0.08775 0.63262 -0.10635
 C601 C -0.09026 0.59975 -0.10989
 C602 C -0.06720 0.58011 -0.09415
 C603 C -0.04130 0.59302 -0.07429
 C604 C -0.03857 0.62589 -0.07099
 C605 C -0.06163 0.64548 -0.08661
 H606 H -0.13385 0.77307 -0.18610
 H607 H -0.09544 0.73529 -0.16399
 H608 H -0.17706 0.67894 -0.12891
 H609 H -0.21622 0.71535 -0.15323
 H610 H -0.08305 0.69228 -0.12705
 H611 H -0.13712 0.64196 -0.12832
 H612 H -0.11027 0.58923 -0.12471
 H613 H -0.07004 0.55483 -0.09697
 H614 H -0.01910 0.63654 -0.05557
 H615 H -0.05938 0.67061 -0.08220
 C616 C 0.14951 0.74739 0.19205
 C617 C 0.12920 0.72640 0.17376
 C618 C 0.14246 0.69879 0.15891
 C619 C 0.17670 0.69272 0.16243
 C620 C 0.19706 0.71382 0.18062
 C621 C 0.18368 0.74139 0.19559
 C622 C 0.12012 0.67774 0.13884
 C623 C 0.12599 0.64692 0.13369
 C624 C 0.10337 0.62592 0.11392
 C625 C 0.10326 0.59368 0.12087
 C626 C 0.08266 0.57298 0.10253
 C627 C 0.06197 0.58405 0.07648
 C628 C 0.06232 0.61628 0.06920
 C629 C 0.08283 0.63703 0.08769
 H630 H 0.13860 0.76874 0.20276
 H631 H 0.10301 0.73180 0.17113
 H632 H 0.18805 0.67215 0.15054
 H633 H 0.22332 0.70862 0.18293
 H634 H 0.09723 0.68786 0.12949
 H635 H 0.14716 0.63611 0.14585
 H636 H 0.11906 0.58449 0.14071
 H637 H 0.08316 0.54823 0.10861
 H638 H 0.04692 0.62547 0.04905
 H639 H 0.08302 0.66156 0.08084
 C640 C 0.30679 1.18568 0.80639
 C641 C 0.33320 1.17175 0.82366
 C642 C 0.33417 1.17205 0.85942
 C643 C 0.30915 1.18849 0.87759
 C644 C 0.28269 1.20245 0.86027
 C645 C 0.28077 1.20046 0.82452
 C646 C 0.36074 1.15380 0.87646
 C647 C 0.35745 1.14206 0.90777
 C648 C 0.38069 1.11868 0.92231
 C649 C 0.36863 1.09870 0.94745
 C650 C 0.38832 1.07437 0.95976
 C651 C 0.42075 1.06960 0.94746
 C652 C 0.43360 1.09059 0.92367
 C653 C 0.41379 1.11495 0.91120
 H654 H 0.30638 1.18436 0.77879
 H655 H 0.35234 1.15969 0.80898
 H656 H 0.30957 1.19032 0.90512
 H657 H 0.26307 1.21376 0.87495
 H658 H 0.38190 1.14689 0.86103
 H659 H 0.33492 1.14682 0.92201
 H660 H 0.34342 1.10123 0.95678
 H661 H 0.37782 1.05882 0.97841
 H662 H 0.45865 1.08767 0.91402
 H663 H 0.42444 1.13052 0.89275
 C664 C 0.31378 0.81752 1.21707
 C665 C 0.34135 0.83081 1.20127
 C666 C 0.34175 0.83487 1.16588
 C667 C 0.31409 0.82500 1.14646
 C668 C 0.28647 0.81190 1.16227
 C669 C 0.28579 0.80839 1.19780
 C670 C 0.36948 0.85259 1.15066
 C671 C 0.37799 0.84986 1.11765
 C672 C 0.40075 0.87196 1.10051
 C673 C 0.39881 0.87412 1.06489
 C674 C 0.41621 0.89748 1.04792
 C675 C 0.43598 0.91918 1.06629
 C676 C 0.43979 0.91569 1.10160
 C677 C 0.42256 0.89222 1.11855
 H678 H 0.31414 0.81484 1.24445
 H679 H 0.36222 0.83848 1.21682
 H680 H 0.31286 0.82878 1.11932
 H681 H 0.26504 0.80585 1.14676
 H682 H 0.38179 0.86955 1.16725
 H683 H 0.36573 0.83232 1.10164
 H684 H 0.38256 0.85862 1.05027
 H685 H 0.41294 0.89944 1.02064
 H686 H 0.45538 0.93172 1.11632
 H687 H 0.42603 0.89062 1.14576
 C688 C 0.73895 1.17764 1.11519
 C689 C 0.70820 1.16804 1.10221
 C690 C 0.68230 1.15955 1.12410
 C691 C 0.68774 1.16157 1.15960
 C692 C 0.71859 1.17117 1.17257
 C693 C 0.74461 1.17899 1.15050
 C694 C 0.65124 1.14702 1.10840
 C695 C 0.62422 1.13797 1.12565
 C696 C 0.59659 1.12064 1.10876
 C697 C 0.57969 1.09760 1.12701
 C698 C 0.55727 1.07731 1.11046
 C699 C 0.55119 1.07990 1.07535
 C700 C 0.56589 1.10473 1.05777
 C701 C 0.58827 1.12500 1.07433
 H702 H 0.75862 1.18317 1.09751
 H703 H 0.70490 1.16664 1.07480
 H704 H 0.66879 1.15532 1.17764
 H705 H 0.72214 1.17241 1.19994
 H706 H 0.65177 1.14319 1.08103
 H707 H 0.62338 1.14021 1.15310
 H708 H 0.58528 1.09409 1.15368
 H709 H 0.54611 1.05855 1.12475
 H710 H 0.56130 1.10764 1.03081
 H711 H 0.59971 1.14344 1.05984
 C712 C 0.68600 0.81571 0.81677
 C713 C 0.65755 0.82706 0.83333
 C714 C 0.65655 0.82986 0.86902
 C715 C 0.68371 0.81859 0.88793
 C716 C 0.71226 0.80739 0.87135
 C717 C 0.71412 0.80679 0.83557
 C718 C 0.62796 0.84660 0.88512
 C719 C 0.63026 0.86192 0.91534
 C720 C 0.60528 0.88501 0.92819
 C721 C 0.61593 0.90820 0.95174
 C722 C 0.59468 0.93247 0.96221
 C723 C 0.56201 0.93397 0.94970
 C724 C 0.55058 0.90988 0.92755
 C725 C 0.57203 0.88557 0.91682
 H726 H 0.68638 0.81481 0.78916
 H727 H 0.63682 0.83505 0.81811
 H728 H 0.68347 0.81906 0.91550
 H729 H 0.73344 0.80061 0.88660
 H730 H 0.60606 0.84977 0.86952
 H731 H 0.65326 0.86074 0.92956
 H732 H 0.64124 0.90821 0.96123
 H733 H 0.60411 0.95045 0.97966
 H734 H 0.52538 0.91026 0.91783
 H735 H 0.56252 0.86756 0.89952
   
