data_POSCAR
  _audit_creation_date              2014-09-24
  _audit_creation_method            'ToBaCCo'
  _symmetry_space_group_name_H-M    'P1'
  _symmetry_Int_Tables_number       1
  _symmetry_cell_setting            triclinic
  loop_
  _symmetry_equiv_pos_as_xyz
 x,y,z
_cell_length_a 34.0264
_cell_length_b 20.8094
_cell_length_c 10.8678
_cell_angle_alpha 90.218800
_cell_angle_beta 89.894200
_cell_angle_gamma 90.486200
loop_
  _atom_site_label
  _atom_site_type_symbol
  _atom_site_fract_x
  _atom_site_fract_y
  _atom_site_fract_z
C1 C 0.72168 0.28659 0.56253
 C2 C 0.71915 0.28046 0.43271
 C3 C 0.74788 0.24643 0.36812
 C4 C 0.77877 0.21554 0.42862
 C5 C 0.78255 0.22362 0.55930
 C6 C 0.75296 0.25657 0.62377
 H7 H 0.75491 0.26069 0.72310
 H8 H 0.74494 0.24178 0.26909
 C9 C 0.22210 0.78625 0.57138
 C10 C 0.22109 0.78696 0.44140
 C11 C 0.24995 0.75409 0.37460
 C12 C 0.27965 0.72024 0.43492
 C13 C 0.28048 0.71883 0.56586
 C14 C 0.25159 0.75236 0.63209
 H15 H 0.25239 0.75291 0.73188
 H16 H 0.24906 0.75442 0.27488
 C17 C 0.28314 0.27302 -0.56780
 C18 C 0.28663 0.27228 -0.43861
 C19 C 0.25515 0.25072 -0.36690
 C20 C 0.21920 0.23251 -0.42043
 C21 C 0.21535 0.23328 -0.55150
 C22 C 0.24793 0.25295 -0.62267
 H23 H 0.24642 0.25108 -0.72230
 H24 H 0.25794 0.25233 -0.26746
 C25 C -0.21851 0.78197 -0.56944
 C26 C -0.21480 0.77646 -0.44082
 C27 C -0.24563 0.74967 -0.37207
 C28 C -0.28109 0.73095 -0.42857
 C29 C -0.28489 0.73611 -0.55902
 C30 C -0.25312 0.76132 -0.62723
 H31 H -0.25466 0.76299 -0.72684
 H32 H -0.24284 0.74719 -0.27277
 O33 O -0.05323 0.88896 0.21036
 O34 O -0.09652 0.94400 0.08905
 C35 C -0.08857 0.90146 0.17204
 O36 O 0.04999 1.12908 0.22501
 O37 O 0.09645 1.07264 0.11647
 C38 C 0.08609 1.11541 0.19667
 O39 O -0.06042 1.11386 0.21944
 O40 O -0.09999 1.05212 0.09413
 C41 C -0.09452 1.09385 0.18125
 O42 O 0.05813 0.89863 0.22094
 O43 O 0.10032 0.96157 0.10932
 C44 C 0.09344 0.91846 0.19216
 Zr45 Zr 0.00208 0.92671 0.15220
 O46 O 0.00245 0.92533 0.34693
 O47 O 0.00354 0.82506 0.14745
 Zr48 Zr -0.00342 1.08848 0.15797
 O49 O -0.00209 1.08557 0.35267
 O50 O -0.01091 1.18941 0.16266
 O51 O -0.03621 1.00378 0.17409
 O52 O 0.03309 1.01086 0.18165
 O53 O 0.06227 0.89651 -0.20850
 O54 O 0.10242 0.96302 -0.09463
 C55 C 0.09663 0.91751 -0.17512
 O56 O -0.05300 1.11929 -0.22582
 O57 O -0.09654 1.05458 -0.12312
 C58 C -0.08829 1.09893 -0.20381
 O59 O 0.05498 1.13662 -0.19689
 O60 O 0.09848 1.07936 -0.08228
 C61 C 0.09020 1.12551 -0.15788
 O62 O -0.04762 0.88977 -0.22833
 O63 O -0.09387 0.94641 -0.11997
 C64 C -0.08380 0.90310 -0.19960
 Zr65 Zr 0.00597 0.92974 -0.15973
 O66 O 0.01192 0.94011 -0.35271
 O67 O 0.00819 0.82894 -0.18121
 Zr68 Zr 0.00117 1.09090 -0.15291
 O69 O 0.00934 1.08907 -0.34591
 O70 O -0.00688 1.19140 -0.15883
 Zr71 Zr -0.05709 1.00328 -0.00871
 Zr72 Zr 0.05980 1.01470 0.00680
 O73 O 0.03841 1.01401 -0.17432
 O74 O -0.03145 1.00713 -0.18534
 O75 O 0.03926 0.91888 0.00029
 O76 O -0.03553 1.09824 -0.00185
 O77 O -0.02937 0.91299 -0.00819
 O78 O 0.03318 1.10586 0.00789
 H79 H 0.04969 1.01220 0.25644
 H80 H -0.05431 1.13437 -0.00301
 H81 H 0.05777 1.01719 -0.24233
 H82 H -0.04525 0.87289 -0.01067
 H83 H 0.01224 1.20937 0.12246
 H84 H 0.00513 1.20927 -0.08332
 H85 H -0.01078 1.05959 -0.38025
 H86 H -0.01453 0.94784 -0.38705
 H87 H 0.00972 0.81081 -0.09754
 H88 H 0.02805 0.81225 0.10507
 H89 H -0.02096 0.94898 0.37557
 H90 H -0.02464 1.05894 0.38019
 O91 O 0.44874 0.38267 0.21446
 O92 O 0.40448 0.43742 0.09718
 C93 C 0.41311 0.39365 0.17710
 O94 O 0.55145 0.62850 0.21816
 O95 O 0.59714 0.56992 0.11136
 C96 C 0.58732 0.61427 0.18889
 O97 O 0.44208 0.61333 0.22220
 O98 O 0.40139 0.54774 0.10799
 C99 C 0.40765 0.59212 0.19025
 O100 O 0.55906 0.38957 0.20967
 O101 O 0.60098 0.45770 0.10677
 C102 C 0.59393 0.40976 0.17954
 Zr103 Zr 0.50339 0.42432 0.15823
 O104 O 0.50541 0.43463 0.35211
 O105 O 0.50697 0.32387 0.18044
 Zr106 Zr 0.49810 0.58552 0.15798
 O107 O 0.50125 0.58247 0.35243
 O108 O 0.49051 0.68640 0.16242
 O109 O 0.46521 0.50102 0.18101
 O110 O 0.53516 0.50835 0.18156
 O111 O 0.56227 0.39120 -0.20238
 O112 O 0.60245 0.46026 -0.09742
 C113 C 0.59700 0.41222 -0.17147
 O114 O 0.44252 0.60817 -0.22470
 O115 O 0.40178 0.54724 -0.10531
 C116 C 0.40756 0.58837 -0.19201
 O117 O 0.55313 0.62897 -0.20734
 O118 O 0.59776 0.57366 -0.09259
 C119 C 0.58886 0.61793 -0.17125
 O120 O 0.45222 0.38457 -0.22306
 O121 O 0.40638 0.43974 -0.10996
 C122 C 0.41630 0.39784 -0.19260
 Zr123 Zr 0.50544 0.42381 -0.15386
 O124 O 0.51099 0.42883 -0.34771
 O125 O 0.50564 0.32222 -0.16346
 Zr126 Zr 0.49915 0.58489 -0.15426
 O127 O 0.50495 0.58176 -0.34818
 O128 O 0.49048 0.68520 -0.16245
 Zr129 Zr 0.44314 0.49805 0.00002
 Zr130 Zr 0.56011 0.51103 0.00424
 O131 O 0.53691 0.50825 -0.17502
 O132 O 0.46716 0.50024 -0.17907
 O133 O 0.53946 0.41515 0.00367
 O134 O 0.46431 0.59338 0.00060
 O135 O 0.47124 0.40826 0.00019
 O136 O 0.53297 0.60185 0.00316
 H137 H 0.55297 0.50965 0.25364
 H138 H 0.44540 0.62930 -0.00071
 H139 H 0.55552 0.51026 -0.24519
 H140 H 0.45576 0.36780 -0.00246
 H141 H 0.51170 0.70600 0.11236
 H142 H 0.50502 0.70418 -0.09248
 H143 H 0.48248 0.55655 -0.38080
 H144 H 0.48598 0.44553 -0.38045
 H145 H 0.52411 0.30693 -0.09997
 H146 H 0.50393 0.30476 0.09766
 H147 H 0.47826 0.44207 0.38139
 H148 H 0.47845 0.55701 0.38198
 C149 C 0.34203 0.38113 0.22465
 C150 C 0.31073 0.35283 0.28731
 C151 C 0.31587 0.29601 0.35300
 C152 C 0.35207 0.26344 0.34420
 C153 C 0.38405 0.29195 0.27944
 C154 C 0.37982 0.35437 0.22763
 C155 C 0.41822 0.25516 0.26413
 N156 N 0.42083 0.19615 0.31588
 N157 N 0.39127 0.17059 0.37992
 C158 C 0.35687 0.20197 0.39485
 H159 H 0.33684 0.42627 0.17847
 H160 H 0.28267 0.37709 0.28920
 H161 H 0.44208 0.27074 0.20659
 H162 H 0.33326 0.17789 0.44330
 C163 C -0.15722 0.89936 0.24866
 C164 C -0.18833 0.87127 0.31289
 C165 C -0.18590 0.80798 0.35453
 C166 C -0.15259 0.77094 0.32394
 C167 C -0.12073 0.79958 0.25908
 C168 C -0.12227 0.86570 0.22698
 C169 C -0.08932 0.75994 0.22394
 N170 N -0.08928 0.69703 0.25607
 N171 N -0.11879 0.67069 0.31925
 C172 C -0.15054 0.70536 0.35350
 H173 H -0.16007 0.94871 0.21911
 H174 H -0.21415 0.89962 0.33286
 H175 H -0.06550 0.77738 0.16755
 H176 H -0.17423 0.68107 0.40127
 C177 C 0.63995 0.61655 0.34202
 C178 C 0.67095 0.64614 0.40348
 C179 C 0.68231 0.70985 0.37724
 C180 C 0.66124 0.74393 0.28496
 C181 C 0.62999 0.71287 0.22090
 C182 C 0.61934 0.64907 0.25103
 C183 C 0.61027 0.74686 0.12843
 N184 N 0.62010 0.80891 0.10545
 N185 N 0.64813 0.83916 0.16903
 C186 C 0.66874 0.80915 0.25840
 H187 H 0.63207 0.56754 0.36531
 H188 H 0.68704 0.61790 0.46967
 H189 H 0.58704 0.72478 0.07466
 H190 H 0.69028 0.83703 0.30884
 C191 C 0.13550 1.11918 0.36066
 C192 C 0.16697 1.14778 0.42182
 C193 C 0.18158 1.20859 0.38713
 C194 C 0.16293 1.24113 0.28773
 C195 C 0.13140 1.21086 0.22379
 C196 C 0.11776 1.14975 0.26143
 C197 C 0.11426 1.24307 0.12407
 N198 N 0.12677 1.30297 0.09393
 N199 N 0.15501 1.33282 0.15724
 C200 C 0.17318 1.30441 0.25350
 H201 H 0.12546 1.07197 0.38936
 H202 H 0.18103 1.12068 0.49391
 H203 H 0.09082 1.22142 0.07056
 H204 H 0.19493 1.33215 0.30335
 C205 C 0.62367 0.33286 -0.31926
 C206 C 0.65331 0.30305 -0.38514
 C207 C 0.69286 0.31979 -0.36795
 C208 C 0.70237 0.36702 -0.27726
 C209 C 0.67220 0.39421 -0.20233
 C210 C 0.63182 0.37945 -0.22847
 C211 C 0.68426 0.43479 -0.10462
 N212 N 0.72248 0.45250 -0.09285
 N213 N 0.74985 0.43216 -0.17083
 C214 C 0.74110 0.39050 -0.26282
 H215 H 0.59377 0.31863 -0.34071
 H216 H 0.64501 0.26538 -0.44928
 H217 H 0.66470 0.45159 -0.03437
 H218 H 0.76454 0.37669 -0.32440
 C219 C 0.13146 0.81951 -0.24095
 C220 C 0.16183 0.78754 -0.30094
 C221 C 0.19287 0.82194 -0.35452
 C222 C 0.19396 0.88968 -0.34435
 C223 C 0.16218 0.92248 -0.28856
 C224 C 0.13099 0.88686 -0.23406
 C225 C 0.16214 0.98989 -0.29415
 N226 N 0.19323 1.02186 -0.34357
 N227 N 0.22423 0.99103 -0.38862
 C228 C 0.22571 0.92600 -0.39021
 H229 H 0.10775 0.79139 -0.20099
 H230 H 0.16071 0.73560 -0.30801
 H231 H 0.13751 1.01749 -0.26195
 H232 H 0.25156 0.90321 -0.42768
 C233 C 0.37961 0.66866 -0.33465
 C234 C 0.34928 0.70139 -0.39137
 C235 C 0.30990 0.68521 -0.36935
 C236 C 0.30110 0.63291 -0.28955
 C237 C 0.33221 0.59700 -0.23531
 C238 C 0.37237 0.61686 -0.25479
 C239 C 0.32131 0.54146 -0.16788
 N240 N 0.28301 0.52525 -0.15239
 N241 N 0.25430 0.55954 -0.20113
 C242 C 0.26197 0.61217 -0.26979
 H243 H 0.40930 0.68506 -0.35342
 H244 H 0.35674 0.74111 -0.45152
 H245 H 0.34187 0.50823 -0.13068
 H246 H 0.23721 0.63583 -0.31104
 C247 C -0.15871 1.12970 -0.21778
 C248 C -0.18981 1.16360 -0.26930
 C249 C -0.18414 1.20196 -0.37422
 C250 C -0.14528 1.21109 -0.41840
 C251 C -0.11466 1.17117 -0.37612
 C252 C -0.12095 1.13156 -0.27040
 C253 C -0.07929 1.17218 -0.44420
 N254 N -0.07317 1.21715 -0.53231
 N255 N -0.10031 1.26045 -0.55941
 C256 C -0.13608 1.25923 -0.50475
 H257 H -0.16451 1.10112 -0.13655
 H258 H -0.21894 1.15646 -0.23105
 H259 H -0.05689 1.13679 -0.43240
 H260 H -0.15749 1.29471 -0.53141
 C261 C 0.65997 0.62869 -0.21982
 C262 C 0.69197 0.65668 -0.27952
 C263 C 0.68722 0.71119 -0.35294
 C264 C 0.65036 0.74285 -0.35228
 C265 C 0.61807 0.71622 -0.28568
 C266 C 0.62223 0.65577 -0.22568
 C267 C 0.58347 0.75277 -0.27801
 N268 N 0.58088 0.80975 -0.33730
 N269 N 0.61078 0.83376 -0.40181
 C270 C 0.64548 0.80272 -0.41019
 H271 H 0.66477 0.58380 -0.17223
 H272 H 0.72003 0.63245 -0.27628
 H273 H 0.55899 0.73883 -0.22141
 H274 H 0.66924 0.82609 -0.45916
 C275 C 0.16182 1.14410 -0.18630
 C276 C 0.19341 1.16961 -0.25150
 C277 C 0.18766 1.21704 -0.34080
 C278 C 0.15041 1.24705 -0.34772
 C279 C 0.11833 1.22253 -0.27770
 C280 C 0.12339 1.16585 -0.20601
 C281 C 0.08310 1.25767 -0.27824
 N282 N 0.07983 1.31119 -0.34804
 N283 N 0.10965 1.33321 -0.41543
 C284 C 0.14490 1.30357 -0.41635
 H285 H 0.16748 1.10408 -0.12564
 H286 H 0.22200 1.14790 -0.23967
 H287 H 0.05881 1.24602 -0.21901
 H288 H 0.16861 1.32564 -0.46771
 C289 C 0.35771 0.39788 -0.32431
 C290 C 0.32646 0.36739 -0.38323
 C291 C 0.32121 0.30080 -0.37556
 C292 C 0.34750 0.26412 -0.30407
 C293 C 0.37937 0.29513 -0.24362
 C294 C 0.38445 0.36254 -0.25495
 C295 C 0.40447 0.25761 -0.17111
 N296 N 0.39824 0.19336 -0.16191
 N297 N 0.36855 0.16417 -0.21977
 C298 C 0.34296 0.19730 -0.29034
 H299 H 0.36111 0.44947 -0.33307
 H300 H 0.30565 0.39588 -0.43402
 H301 H 0.42875 0.27863 -0.12093
 H302 H 0.31933 0.17111 -0.33476
 C303 C -0.14820 0.90193 -0.30213
 C304 C -0.17968 0.87163 -0.36041
 C305 C -0.18058 0.80493 -0.37554
 C306 C -0.14967 0.76768 -0.32726
 C307 C -0.11723 0.79859 -0.26887
 C308 C -0.11613 0.86674 -0.25955
 C309 C -0.08799 0.75971 -0.21720
 N310 N -0.09059 0.69483 -0.22713
 N311 N -0.12064 0.66607 -0.28387
 C312 C -0.15033 0.70024 -0.33376
 H313 H -0.14869 0.95365 -0.29078
 H314 H -0.20376 0.90042 -0.39387
 H315 H -0.06358 0.77986 -0.16667
 H316 H -0.17437 0.67436 -0.37669
 C317 C 0.36744 0.68797 0.23286
 C318 C 0.33565 0.71873 0.28816
 C319 C 0.30857 0.68400 0.35958
 C320 C 0.31275 0.61667 0.37069
 C321 C 0.34645 0.58638 0.32184
 C322 C 0.37336 0.62201 0.24960
 C323 C 0.35284 0.52184 0.35155
 N324 N 0.32549 0.48880 0.41709
 N325 N 0.29224 0.51592 0.45455
 C326 C 0.28476 0.57864 0.43242
 H327 H 0.38796 0.71602 0.17833
 H328 H 0.33290 0.77030 0.27874
 H329 H 0.37940 0.49751 0.32416
 H330 H 0.25736 0.59855 0.46484
 C331 C -0.14590 1.17632 0.19326
 C332 C -0.17816 1.20472 0.25028
 C333 C -0.19509 1.17761 0.35690
 C334 C -0.18195 1.11612 0.39493
 C335 C -0.14766 1.08960 0.34188
 C336 C -0.12953 1.12037 0.24103
 C337 C -0.13264 1.03279 0.39193
 N338 N -0.15290 1.00169 0.48134
 N339 N -0.18688 1.02382 0.52437
 C340 C -0.20231 1.07954 0.48328
 H341 H -0.13264 1.19957 0.11418
 H342 H -0.18768 1.25094 0.21648
 H343 H -0.10555 1.01200 0.35886
 H344 H -0.23015 1.09516 0.52062
 C345 C 0.65654 0.41016 0.29427
 C346 C 0.68624 0.37882 0.35776
 C347 C 0.68772 0.31155 0.36001
 C348 C 0.65952 0.27514 0.29303
 C349 C 0.62987 0.30710 0.22626
 C350 C 0.62758 0.37504 0.23133
 C351 C 0.60365 0.26975 0.15520
 N352 N 0.60589 0.20474 0.15684
 N353 N 0.63263 0.17461 0.22417
 C354 C 0.65940 0.20747 0.29253
 H355 H 0.65544 0.46211 0.29751
 H356 H 0.70788 0.40717 0.40751
 H357 H 0.58182 0.29148 0.09692
 H358 H 0.68020 0.18030 0.34591
 C359 C 0.12153 0.82949 0.31519
 C360 C 0.15195 0.79725 0.37346
 C361 C 0.19015 0.82235 0.37380
 C362 C 0.19784 0.88181 0.31563
 C363 C 0.16651 0.91702 0.26216
 C364 C 0.12777 0.88918 0.25756
 C365 C 0.17548 0.97945 0.21942
 N366 N 0.21290 1.00223 0.22185
 N367 N 0.24231 0.96753 0.26561
 C368 C 0.23607 0.90823 0.31262
 H369 H 0.09275 0.80687 0.31477
 H370 H 0.14569 0.75180 0.41802
 H371 H 0.15360 1.01198 0.18801
 H372 H 0.26103 0.88286 0.34909
   
