data_POSCAR
  _audit_creation_date              2014-09-24
  _audit_creation_method            'ToBaCCo'
  _symmetry_space_group_name_H-M    'P1'
  _symmetry_Int_Tables_number       1
  _symmetry_cell_setting            triclinic
  loop_
  _symmetry_equiv_pos_as_xyz
 x,y,z
_cell_length_a 30.4546
_cell_length_b 30.4545
_cell_length_c 30.4546
_cell_angle_alpha 89.997600
_cell_angle_beta 89.999400
_cell_angle_gamma 89.999400
loop_
  _atom_site_label
  _atom_site_type_symbol
  _atom_site_fract_x
  _atom_site_fract_y
  _atom_site_fract_z
Zn1 Zn 0.78478 0.71533 0.78471
 Zn2 Zn 0.78478 0.78479 0.71527
 Zn3 Zn 0.71534 0.71534 0.71526
 Zn4 Zn 0.71533 0.78478 0.78471
 O5 O 0.75006 0.75006 0.74999
 O6 O 0.84221 0.72433 0.77574
 O7 O 0.77580 0.77580 0.65783
 O8 O 0.72433 0.65791 0.72425
 O9 O 0.84221 0.77580 0.72427
 O10 O 0.77580 0.65790 0.77571
 O11 O 0.72434 0.72433 0.65783
 O12 O 0.65789 0.77579 0.77571
 O13 O 0.77579 0.84222 0.72426
 O14 O 0.65791 0.72433 0.72424
 O15 O 0.72432 0.84221 0.77573
 O16 O 0.72430 0.77577 0.84215
 O17 O 0.77577 0.72430 0.84215
 C18 C 0.86239 0.75006 0.75000
 C19 C 0.75007 0.75007 0.63765
 C20 C 0.75006 0.63772 0.74998
 C21 C 0.63772 0.75006 0.74997
 C22 C 0.75006 0.86240 0.75000
 C23 C 0.75002 0.75002 0.86233
 Zn24 Zn 0.21532 0.71537 0.71532
 Zn25 Zn 0.21532 0.78476 0.78468
 Zn26 Zn 0.28480 0.71539 0.78468
 Zn27 Zn 0.28478 0.78475 0.71529
 O28 O 0.25006 0.75007 0.74999
 O29 O 0.15791 0.72439 0.72435
 O30 O 0.22428 0.77577 0.84213
 O31 O 0.27585 0.65794 0.77570
 O32 O 0.15791 0.77573 0.77566
 O33 O 0.22430 0.65793 0.72431
 O34 O 0.27582 0.72437 0.84213
 O35 O 0.34220 0.77574 0.72432
 O36 O 0.22429 0.84220 0.77568
 O37 O 0.34221 0.72443 0.77566
 O38 O 0.27580 0.84220 0.72427
 O39 O 0.27581 0.77576 0.65785
 O40 O 0.22428 0.72435 0.65787
 C41 C 0.13740 0.75006 0.75000
 C42 C 0.25004 0.75006 0.86231
 C43 C 0.25008 0.63775 0.75001
 C44 C 0.36271 0.75009 0.74999
 C45 C 0.25004 0.86239 0.74997
 C46 C 0.25004 0.75005 0.63768
 Zn47 Zn 0.71537 0.21532 0.78469
 Zn48 Zn 0.78475 0.21532 0.71532
 Zn49 Zn 0.71538 0.28480 0.71532
 Zn50 Zn 0.78475 0.28479 0.78470
 O51 O 0.75006 0.25006 0.75001
 O52 O 0.72440 0.15791 0.77567
 O53 O 0.77576 0.22428 0.65788
 O54 O 0.65793 0.27583 0.72430
 O55 O 0.77574 0.15791 0.72435
 O56 O 0.65793 0.22429 0.77570
 O57 O 0.72436 0.27582 0.65787
 O58 O 0.77573 0.34220 0.77567
 O59 O 0.84220 0.22430 0.72430
 O60 O 0.72441 0.34220 0.72433
 O61 O 0.84219 0.27582 0.77572
 O62 O 0.77575 0.27582 0.84215
 O63 O 0.72435 0.22429 0.84213
 C64 C 0.75007 0.13740 0.75002
 C65 C 0.75005 0.25004 0.63769
 C66 C 0.63774 0.25006 0.75000
 C67 C 0.75007 0.36272 0.75000
 C68 C 0.86238 0.25006 0.75001
 C69 C 0.75004 0.25005 0.86232
 Zn70 Zn 0.28476 0.21537 0.71536
 Zn71 Zn 0.21536 0.21536 0.78465
 Zn72 Zn 0.28476 0.28476 0.78467
 Zn73 Zn 0.21537 0.28477 0.71537
 O74 O 0.25006 0.25007 0.75001
 O75 O 0.27577 0.15795 0.72438
 O76 O 0.22432 0.22432 0.84211
 O77 O 0.34218 0.27576 0.77565
 O78 O 0.22436 0.15794 0.77563
 O79 O 0.34218 0.22438 0.72438
 O80 O 0.27579 0.27578 0.84213
 O81 O 0.22438 0.34219 0.72438
 O82 O 0.15794 0.22437 0.77564
 O83 O 0.27576 0.34218 0.77566
 O84 O 0.15794 0.27578 0.72439
 O85 O 0.22432 0.27580 0.65791
 O86 O 0.27579 0.22433 0.65791
 C87 C 0.25007 0.13743 0.75000
 C88 C 0.25005 0.25004 0.86231
 C89 C 0.36270 0.25007 0.75001
 C90 C 0.25007 0.36270 0.75002
 C91 C 0.13743 0.25008 0.75001
 C92 C 0.25005 0.25006 0.63771
 Zn93 Zn 0.71525 0.71526 0.21525
 Zn94 Zn 0.78462 0.78464 0.21526
 Zn95 Zn 0.71524 0.78463 0.28473
 Zn96 Zn 0.78462 0.71525 0.28472
 O97 O 0.74994 0.74995 0.24999
 O98 O 0.72428 0.72429 0.15784
 O99 O 0.77563 0.84208 0.22423
 O100 O 0.65780 0.77563 0.27576
 O101 O 0.77560 0.77562 0.15785
 O102 O 0.65781 0.72424 0.22422
 O103 O 0.72422 0.84208 0.27575
 O104 O 0.77561 0.72429 0.34213
 O105 O 0.84207 0.77565 0.22422
 O106 O 0.72428 0.77561 0.34213
 O107 O 0.84207 0.72423 0.27574
 O108 O 0.77563 0.65781 0.27576
 O109 O 0.72424 0.65782 0.22421
 C110 C 0.74994 0.74996 0.13733
 C111 C 0.74992 0.86226 0.24999
 C112 C 0.63762 0.74993 0.24999
 C113 C 0.74995 0.74996 0.36265
 C114 C 0.86225 0.74993 0.24998
 C115 C 0.74993 0.63763 0.24999
 Zn116 Zn 0.28464 0.78461 0.21531
 Zn117 Zn 0.21524 0.71532 0.21528
 Zn118 Zn 0.28463 0.71530 0.28469
 Zn119 Zn 0.21523 0.78460 0.28469
 O120 O 0.24994 0.74996 0.24999
 O121 O 0.27565 0.77560 0.15789
 O122 O 0.22420 0.65786 0.22424
 O123 O 0.34205 0.72431 0.27569
 O124 O 0.22425 0.72435 0.15786
 O125 O 0.34206 0.77559 0.22432
 O126 O 0.27565 0.65784 0.27572
 O127 O 0.22424 0.77558 0.34212
 O128 O 0.15782 0.72433 0.22428
 O129 O 0.27563 0.72432 0.34211
 O130 O 0.15781 0.77557 0.27569
 O131 O 0.22418 0.84206 0.27573
 O132 O 0.27567 0.84207 0.22427
 C133 C 0.24996 0.74998 0.13736
 C134 C 0.24992 0.63766 0.24998
 C135 C 0.36257 0.74995 0.25001
 C136 C 0.24994 0.74996 0.36263
 C137 C 0.13730 0.74995 0.24999
 C138 C 0.24992 0.86226 0.25000
 Zn139 Zn 0.71530 0.28464 0.21531
 Zn140 Zn 0.78459 0.21524 0.21530
 Zn141 Zn 0.78461 0.28465 0.28469
 Zn142 Zn 0.71531 0.21526 0.28472
 O143 O 0.74995 0.24995 0.25001
 O144 O 0.72432 0.27565 0.15789
 O145 O 0.84205 0.22420 0.22426
 O146 O 0.77559 0.34207 0.27568
 O147 O 0.77557 0.22425 0.15788
 O148 O 0.72431 0.34206 0.22432
 O149 O 0.84207 0.27568 0.27571
 O150 O 0.72434 0.22427 0.34214
 O151 O 0.77556 0.15782 0.22431
 O152 O 0.77560 0.27566 0.34211
 O153 O 0.72432 0.15783 0.27572
 O154 O 0.65785 0.22422 0.27576
 O155 O 0.65784 0.27567 0.22428
 C156 C 0.74995 0.24996 0.13737
 C157 C 0.86225 0.24993 0.24998
 C158 C 0.74994 0.36258 0.25000
 C159 C 0.74998 0.24997 0.36264
 C160 C 0.74994 0.13731 0.25002
 C161 C 0.63765 0.24994 0.25002
 Zn162 Zn 0.21529 0.28461 0.21535
 Zn163 Zn 0.28461 0.21529 0.21536
 Zn164 Zn 0.28462 0.28462 0.28466
 Zn165 Zn 0.21530 0.21530 0.28468
 O166 O 0.24995 0.24996 0.25001
 O167 O 0.22430 0.27562 0.15792
 O168 O 0.34204 0.22428 0.22436
 O169 O 0.27562 0.34206 0.27566
 O170 O 0.27562 0.22430 0.15792
 O171 O 0.22428 0.34205 0.22435
 O172 O 0.34205 0.27562 0.27567
 O173 O 0.22430 0.22431 0.34212
 O174 O 0.27560 0.15786 0.22436
 O175 O 0.27562 0.27564 0.34210
 O176 O 0.22429 0.15787 0.27569
 O177 O 0.15786 0.22430 0.27569
 O178 O 0.15786 0.27561 0.22435
 C179 C 0.24997 0.24997 0.13740
 C180 C 0.36256 0.24995 0.25002
 C181 C 0.24995 0.36257 0.25000
 C182 C 0.24997 0.24998 0.36262
 C183 C 0.24995 0.13735 0.25002
 C184 C 0.13734 0.24995 0.25002
 C185 C -0.00369 0.75005 0.75000
 C186 C 0.01933 0.77819 0.77808
 C187 C 0.06524 0.77823 0.77812
 C188 C -0.09052 0.75006 0.75000
 C189 C 0.06525 0.72188 0.72188
 C190 C 0.01934 0.72192 0.72192
 C191 C -0.05094 0.75005 0.74999
 C192 C 0.08875 0.75006 0.75000
 H193 H 0.00181 0.80011 0.79995
 H194 H 0.08229 0.80032 0.80016
 H195 H 0.08230 0.69980 0.69984
 H196 H 0.00182 0.70000 0.70004
 C197 C 0.75007 -0.00369 0.75002
 C198 C 0.72194 0.01934 0.77811
 C199 C 0.72191 0.06525 0.77815
 C200 C 0.75006 -0.09052 0.75000
 C201 C 0.77824 0.06525 0.72190
 C202 C 0.77820 0.01934 0.72193
 C203 C 0.75005 -0.05094 0.75000
 C204 C 0.75008 0.08875 0.75002
 H205 H 0.70003 0.00182 0.79999
 H206 H 0.69983 0.08230 0.80020
 H207 H 0.80033 0.08230 0.69985
 H208 H 0.80011 0.00182 0.70005
 C209 C 0.74997 0.74998 -0.00376
 C210 C 0.72187 0.72186 0.01926
 C211 C 0.72182 0.72182 0.06517
 C212 C 0.74999 0.74999 -0.09059
 C213 C 0.77809 0.77813 0.06519
 C214 C 0.77806 0.77810 0.01928
 C215 C 0.74999 0.74997 -0.05101
 C216 C 0.74995 0.74997 0.08868
 H217 H 0.69999 0.69995 0.00174
 H218 H 0.69976 0.69974 0.08221
 H219 H 0.80014 0.80020 0.08224
 H220 H 0.79995 0.80000 0.00176
 C221 C 0.50381 0.75009 0.74998
 C222 C 0.48077 0.77819 0.72186
 C223 C 0.43486 0.77823 0.72183
 C224 C 0.59063 0.75005 0.74997
 C225 C 0.43487 0.72197 0.77816
 C226 C 0.48078 0.72200 0.77811
 C227 C 0.55105 0.75007 0.74996
 C228 C 0.41136 0.75010 0.74999
 H229 H 0.49829 0.80007 0.69994
 H230 H 0.41781 0.80028 0.69975
 H231 H 0.41782 0.69992 0.80024
 H232 H 0.49830 0.70012 0.80002
 C233 C 0.25005 -0.00368 0.74998
 C234 C 0.22183 0.01936 0.77798
 C235 C 0.22180 0.06527 0.77803
 C236 C 0.25003 -0.09052 0.74995
 C237 C 0.27832 0.06527 0.72196
 C238 C 0.27828 0.01936 0.72199
 C239 C 0.25003 -0.05093 0.74996
 C240 C 0.25007 0.08878 0.75000
 H241 H 0.19984 0.00183 0.79978
 H242 H 0.19965 0.08231 0.80000
 H243 H 0.30048 0.08232 0.69999
 H244 H 0.30026 0.00184 0.70018
 C245 C 0.24999 0.75003 -0.00375
 C246 C 0.22180 0.72199 0.01927
 C247 C 0.22175 0.72194 0.06518
 C248 C 0.25002 0.75004 -0.09059
 C249 C 0.27820 0.77807 0.06521
 C250 C 0.27818 0.77805 0.01930
 C251 C 0.25000 0.75004 -0.05101
 C252 C 0.24997 0.75000 0.08870
 H253 H 0.19984 0.70017 0.00174
 H254 H 0.19962 0.69994 0.08222
 H255 H 0.30033 0.80006 0.08227
 H256 H 0.30014 0.79988 0.00179
 C257 C -0.00368 0.25008 0.75001
 C258 C 0.01935 0.27830 0.72202
 C259 C 0.06527 0.27834 0.72199
 C260 C -0.09052 0.25006 0.75001
 C261 C 0.06526 0.22182 0.77804
 C262 C 0.01935 0.22185 0.77801
 C263 C -0.05094 0.25006 0.75000
 C264 C 0.08877 0.25008 0.75002
 H265 H 0.00183 0.30029 0.70021
 H266 H 0.08232 0.30050 0.70002
 H267 H 0.08231 0.19966 0.80001
 H268 H 0.00183 0.19986 0.79981
 C269 C 0.75009 0.50381 0.74996
 C270 C 0.72199 0.48077 0.72184
 C271 C 0.72195 0.43487 0.72182
 C272 C 0.75006 0.59063 0.74997
 C273 C 0.77822 0.43487 0.77814
 C274 C 0.77818 0.48078 0.77809
 C275 C 0.75008 0.55106 0.74996
 C276 C 0.75008 0.41137 0.74998
 H277 H 0.70011 0.49829 0.69993
 H278 H 0.69990 0.41782 0.69975
 H279 H 0.80027 0.41782 0.80022
 H280 H 0.80007 0.49830 0.79999
 C281 C 0.74999 0.25002 -0.00374
 C282 C 0.77799 0.22181 0.01929
 C283 C 0.77801 0.22175 0.06521
 C284 C 0.75003 0.25004 -0.09058
 C285 C 0.72192 0.27823 0.06521
 C286 C 0.72197 0.27822 0.01930
 C287 C 0.75001 0.25004 -0.05100
 C288 C 0.74996 0.24998 0.08871
 H289 H 0.79982 0.19984 0.00177
 H290 H 0.79999 0.19960 0.08225
 H291 H 0.69992 0.30036 0.08226
 H292 H 0.70016 0.30020 0.00178
 C293 C 0.50381 0.25007 0.74999
 C294 C 0.48078 0.27826 0.77802
 C295 C 0.43486 0.27830 0.77807
 C296 C 0.59065 0.25005 0.74999
 C297 C 0.43486 0.22186 0.72193
 C298 C 0.48077 0.22189 0.72196
 C299 C 0.55107 0.25007 0.74998
 C300 C 0.41135 0.25008 0.75000
 H301 H 0.49830 0.30021 0.79986
 H302 H 0.41782 0.30042 0.80008
 H303 H 0.41780 0.19973 0.69993
 H304 H 0.49828 0.19994 0.70012
 C305 C 0.25007 0.50381 0.75002
 C306 C 0.22189 0.48078 0.72199
 C307 C 0.22185 0.43487 0.72195
 C308 C 0.25008 0.59065 0.75000
 C309 C 0.27829 0.43486 0.77809
 C310 C 0.27826 0.48078 0.77805
 C311 C 0.25007 0.55107 0.75001
 C312 C 0.25007 0.41136 0.75002
 H313 H 0.19993 0.49830 0.70015
 H314 H 0.19972 0.41782 0.69995
 H315 H 0.30042 0.41781 0.80009
 H316 H 0.30021 0.49830 0.79989
 C317 C 0.25001 0.25002 -0.00373
 C318 C 0.27811 0.22191 0.01931
 C319 C 0.27813 0.22185 0.06523
 C320 C 0.25004 0.25003 -0.09058
 C321 C 0.22185 0.27814 0.06523
 C322 C 0.22190 0.27813 0.01932
 C323 C 0.25002 0.25004 -0.05099
 C324 C 0.24998 0.24998 0.08874
 H325 H 0.30001 0.20001 0.00179
 H326 H 0.30019 0.19978 0.08228
 H327 H 0.19978 0.30020 0.08228
 H328 H 0.20001 0.30003 0.00180
 C329 C -0.00381 0.74991 0.24998
 C330 C 0.01922 0.77796 0.27816
 C331 C 0.06513 0.77801 0.27820
 C332 C -0.09065 0.74992 0.24997
 C333 C 0.06515 0.72185 0.22178
 C334 C 0.01924 0.72187 0.22181
 C335 C -0.05107 0.74990 0.24998
 C336 C 0.08864 0.74994 0.24999
 H337 H 0.00169 0.79980 0.30010
 H338 H 0.08217 0.80002 0.30032
 H339 H 0.08220 0.69984 0.19966
 H340 H 0.00172 0.70003 0.19987
 C341 C 0.74991 -0.00380 0.25000
 C342 C 0.72188 0.01924 0.27818
 C343 C 0.72185 0.06515 0.27823
 C344 C 0.74991 -0.09064 0.24998
 C345 C 0.77800 0.06515 0.22180
 C346 C 0.77796 0.01924 0.22183
 C347 C 0.74990 -0.05106 0.24999
 C348 C 0.74993 0.08865 0.25001
 H349 H 0.70003 0.00172 0.30013
 H350 H 0.69985 0.08220 0.30035
 H351 H 0.80001 0.08219 0.19968
 H352 H 0.79979 0.00171 0.19987
 C353 C 0.75003 0.75004 0.50374
 C354 C 0.72190 0.77813 0.48070
 C355 C 0.72184 0.77814 0.43480
 C356 C 0.75007 0.75007 0.59056
 C357 C 0.77814 0.72185 0.43480
 C358 C 0.77813 0.72192 0.48071
 C359 C 0.75004 0.75006 0.55099
 C360 C 0.74998 0.74998 0.41130
 H361 H 0.70001 0.80003 0.49822
 H362 H 0.69976 0.80019 0.41775
 H363 H 0.80020 0.69978 0.41775
 H364 H 0.80004 0.70003 0.49823
 C365 C 0.50368 0.74993 0.25001
 C366 C 0.48065 0.77802 0.22188
 C367 C 0.43474 0.77806 0.22184
 C368 C 0.59052 0.74993 0.24998
 C369 C 0.43473 0.72182 0.27818
 C370 C 0.48064 0.72185 0.27814
 C371 C 0.55094 0.74992 0.24999
 C372 C 0.41123 0.74994 0.25001
 H373 H 0.49817 0.79990 0.19996
 H374 H 0.41769 0.80011 0.19976
 H375 H 0.41768 0.69977 0.30026
 H376 H 0.49816 0.69996 0.30005
 C377 C 0.24992 -0.00379 0.25001
 C378 C 0.22179 0.01926 0.27810
 C379 C 0.22176 0.06517 0.27814
 C380 C 0.24991 -0.09064 0.24998
 C381 C 0.27811 0.06517 0.22190
 C382 C 0.27806 0.01925 0.22193
 C383 C 0.24990 -0.05105 0.25000
 C384 C 0.24994 0.08868 0.25002
 H385 H 0.19987 0.00174 0.29997
 H386 H 0.19968 0.08222 0.30018
 H387 H 0.30019 0.08222 0.19986
 H388 H 0.29997 0.00173 0.20006
 C389 C 0.25001 0.75000 0.50374
 C390 C 0.22179 0.77800 0.48071
 C391 C 0.22173 0.77803 0.43480
 C392 C 0.25003 0.75004 0.59058
 C393 C 0.27821 0.72192 0.43479
 C394 C 0.27820 0.72198 0.48070
 C395 C 0.25003 0.75001 0.55100
 C396 C 0.24996 0.74997 0.41129
 H397 H 0.19983 0.79983 0.49823
 H398 H 0.19958 0.80001 0.41775
 H399 H 0.30034 0.69993 0.41774
 H400 H 0.30018 0.70016 0.49822
 C401 C -0.00379 0.24993 0.25000
 C402 C 0.01925 0.27807 0.22192
 C403 C 0.06517 0.27812 0.22190
 C404 C -0.09064 0.24992 0.24997
 C405 C 0.06517 0.22177 0.27813
 C406 C 0.01925 0.22180 0.27809
 C407 C -0.05106 0.24991 0.24998
 C408 C 0.08868 0.24995 0.25002
 H409 H 0.00173 0.29999 0.20004
 H410 H 0.08222 0.30020 0.19985
 H411 H 0.08222 0.19969 0.30018
 H412 H 0.00173 0.19988 0.29996
 C413 C 0.74991 0.50369 0.24999
 C414 C 0.72183 0.48065 0.22187
 C415 C 0.72180 0.43474 0.22183
 C416 C 0.74992 0.59053 0.24998
 C417 C 0.77805 0.43475 0.27817
 C418 C 0.77800 0.48066 0.27813
 C419 C 0.74991 0.55095 0.24998
 C420 C 0.74993 0.41124 0.25000
 H421 H 0.69995 0.49817 0.19995
 H422 H 0.69976 0.41769 0.19975
 H423 H 0.80010 0.41771 0.30025
 H424 H 0.79988 0.49819 0.30004
 C425 C 0.75002 0.24999 0.50375
 C426 C 0.77799 0.27823 0.48070
 C427 C 0.77802 0.27825 0.43479
 C428 C 0.75003 0.25002 0.59059
 C429 C 0.72198 0.22171 0.43482
 C430 C 0.72203 0.22176 0.48073
 C431 C 0.75003 0.25000 0.55101
 C432 C 0.74999 0.24998 0.41130
 H433 H 0.79979 0.30022 0.49821
 H434 H 0.79997 0.30042 0.41773
 H435 H 0.70001 0.19954 0.41778
 H436 H 0.70024 0.19976 0.49826
 C437 C 0.50370 0.24992 0.25002
 C438 C 0.48066 0.27810 0.27806
 C439 C 0.43474 0.27814 0.27810
 C440 C 0.59055 0.24992 0.25000
 C441 C 0.43473 0.22172 0.22194
 C442 C 0.48065 0.22175 0.22198
 C443 C 0.55096 0.24991 0.25001
 C444 C 0.41123 0.24994 0.25002
 H445 H 0.49818 0.30005 0.29990
 H446 H 0.41770 0.30027 0.30010
 H447 H 0.41768 0.19961 0.19993
 H448 H 0.49816 0.19980 0.20014
 C449 C 0.24993 0.50370 0.24998
 C450 C 0.22176 0.48065 0.22194
 C451 C 0.22173 0.43474 0.22191
 C452 C 0.24991 0.59055 0.24997
 C453 C 0.27815 0.43475 0.27807
 C454 C 0.27811 0.48066 0.27803
 C455 C 0.24992 0.55097 0.24997
 C456 C 0.24994 0.41123 0.24999
 H457 H 0.19981 0.49817 0.20010
 H458 H 0.19961 0.41768 0.19991
 H459 H 0.30027 0.41770 0.30008
 H460 H 0.30006 0.49819 0.29987
 C461 C 0.24999 0.25002 0.50376
 C462 C 0.27806 0.27816 0.48070
 C463 C 0.27809 0.27818 0.43478
 C464 C 0.25002 0.25003 0.59061
 C465 C 0.22187 0.22182 0.43481
 C466 C 0.22192 0.22187 0.48073
 C467 C 0.25000 0.25004 0.55102
 C468 C 0.24998 0.24999 0.41129
 H469 H 0.29993 0.30009 0.49820
 H470 H 0.30012 0.30026 0.41772
 H471 H 0.19983 0.19972 0.41778
 H472 H 0.20005 0.19995 0.49826
   
