data_POSCAR
  _audit_creation_date              2014-09-24
  _audit_creation_method            'ToBaCCo'
  _symmetry_space_group_name_H-M    'P1'
  _symmetry_Int_Tables_number       1
  _symmetry_cell_setting            triclinic
  loop_
  _symmetry_equiv_pos_as_xyz
 x,y,z
_cell_length_a 48.6735
_cell_length_b 43.2720
_cell_length_c 23.8919
_cell_angle_alpha 90.748900
_cell_angle_beta 90.092100
_cell_angle_gamma 90.073300
loop_
  _atom_site_label
  _atom_site_type_symbol
  _atom_site_fract_x
  _atom_site_fract_y
  _atom_site_fract_z
O1 O 0.24026 0.27425 0.15762
 O2 O 0.29275 0.21981 0.20683
 O3 O 0.24331 0.21438 0.16776
 O4 O 0.29027 0.27951 0.19765
 O5 O 0.27402 0.28277 0.28362
 O6 O 0.22561 0.21958 0.25220
 O7 O 0.27567 0.22296 0.29216
 O8 O 0.22419 0.27902 0.24355
 Cu9 Cu 0.26829 0.24672 0.17385
 Cu10 Cu 0.24825 0.25148 0.27648
 C11 C 0.22311 0.28582 0.19202
 C12 C 0.29315 0.21195 0.25784
 C13 C 0.22611 0.20607 0.20464
 C14 C 0.29051 0.29193 0.24616
 O15 O 0.78121 0.28531 0.29790
 O16 O 0.73565 0.22420 0.34983
 O17 O 0.78633 0.22655 0.31252
 O18 O 0.73077 0.28325 0.33381
 O19 O 0.71579 0.27367 0.24803
 O20 O 0.77088 0.21665 0.22719
 O21 O 0.72080 0.21512 0.26398
 O22 O 0.76689 0.27589 0.21171
 Cu23 Cu 0.75994 0.25569 0.33217
 Cu24 Cu 0.74215 0.24456 0.22901
 C25 C 0.78224 0.29071 0.24584
 C26 C 0.72007 0.20945 0.31604
 C27 C 0.78820 0.21214 0.26601
 C28 C 0.71353 0.28772 0.29479
 O29 O 0.73847 0.77634 0.67728
 O30 O 0.78826 0.71857 0.72694
 O31 O 0.73922 0.71664 0.68336
 O32 O 0.78813 0.77856 0.71874
 O33 O 0.77112 0.78167 0.80402
 O34 O 0.72124 0.72024 0.76787
 O35 O 0.77035 0.72188 0.81154
 O36 O 0.72134 0.78016 0.76249
 Cu37 Cu 0.76534 0.74723 0.69314
 Cu38 Cu 0.74426 0.75139 0.79498
 C39 C 0.72117 0.78790 0.71140
 C40 C 0.78779 0.71033 0.77782
 C41 C 0.72165 0.70804 0.71917
 C42 C 0.78833 0.79055 0.76757
 O43 O 0.27146 0.78462 0.74484
 O44 O 0.22248 0.72479 0.78899
 O45 O 0.27288 0.72516 0.75057
 O46 O 0.22142 0.78509 0.78259
 O47 O 0.20474 0.78021 0.69713
 O48 O 0.25659 0.72082 0.66447
 O49 O 0.20696 0.72063 0.70242
 O50 O 0.25553 0.78089 0.65854
 Cu51 Cu 0.24855 0.75528 0.77549
 Cu52 Cu 0.22938 0.75047 0.67191
 C53 C 0.27216 0.79267 0.69395
 C54 C 0.20638 0.71240 0.75323
 C55 C 0.27364 0.71295 0.70195
 C56 C 0.20395 0.79264 0.74562
 C57 C 1.02597 0.05572 0.08494
 C58 C 1.00119 0.06664 0.10720
 C59 C 0.97577 0.05469 0.09024
 C60 C 0.97495 0.03055 0.04960
 C61 C 0.99992 0.01791 0.02872
 C62 C 1.02553 0.03055 0.04629
 C63 C 1.04981 0.01805 0.02378
 C64 C 1.04914 -0.00705 -0.01315
 C65 C 1.02409 -0.01948 -0.03237
 C66 C 0.99921 -0.00689 -0.01107
 C67 C 0.94994 0.01949 0.02770
 C68 C 0.94926 -0.00494 -0.01059
 C69 C 0.97359 -0.01911 -0.02922
 C70 C 0.97294 -0.04468 -0.06669
 C71 C 0.99758 -0.05650 -0.08789
 C72 C 1.02313 -0.04437 -0.07171
 H73 H 1.06977 0.02728 0.03451
 H74 H 1.06865 -0.01646 -0.02629
 H75 H 0.93052 0.02981 0.03923
 H76 H 0.92938 -0.01229 -0.02611
 H77 H 1.00173 0.08531 0.13795
 H78 H 0.99686 -0.07595 -0.11698
 C79 C 0.52344 0.55225 0.59190
 C80 C 0.49911 0.56836 0.60264
 C81 C 0.47428 0.56014 0.57673
 C82 C 0.47372 0.53481 0.53842
 C83 C 0.49809 0.51755 0.52850
 C84 C 0.52290 0.52605 0.55590
 C85 C 0.54642 0.50782 0.54736
 C86 C 0.54609 0.48290 0.51004
 C87 C 0.52227 0.47526 0.47946
 C88 C 0.49776 0.49200 0.49045
 C89 C 0.44980 0.52678 0.50848
 C90 C 0.44932 0.50128 0.47238
 C91 C 0.47290 0.48316 0.46369
 C92 C 0.47242 0.45678 0.42800
 C93 C 0.49708 0.44171 0.41504
 C94 C 0.52208 0.45086 0.43924
 H95 H 0.56530 0.51246 0.56991
 H96 H 0.56470 0.46943 0.50615
 H97 H 0.43119 0.54025 0.51207
 H98 H 0.43034 0.49628 0.45036
 H99 H 0.49967 0.58824 0.63076
 H100 H 0.49672 0.42218 0.38613
 C101 C -0.02735 0.43726 0.05461
 C102 C -0.00274 0.42492 0.07469
 C103 C 0.02273 0.43757 0.06039
 C104 C 0.02373 0.46408 0.02629
 C105 C -0.00107 0.47704 0.00596
 C106 C -0.02669 0.46347 0.01980
 C107 C -0.05098 0.47675 -0.00081
 C108 C -0.05015 0.50252 -0.03500
 C109 C -0.02506 0.51661 -0.04868
 C110 C -0.00026 0.50376 -0.02806
 C111 C 0.04882 0.47826 0.01274
 C112 C 0.04964 0.50422 -0.02095
 C113 C 0.02536 0.51752 -0.04143
 C114 C 0.02599 0.54399 -0.07559
 C115 C 0.00140 0.55599 -0.09636
 C116 C -0.02402 0.54298 -0.08306
 H117 H -0.07095 0.46737 0.00926
 H118 H -0.06947 0.51123 -0.05062
 H119 H 0.06817 0.46957 0.02829
 H120 H 0.06960 0.51368 -0.03089
 H121 H -0.00340 0.40461 0.10081
 H122 H 0.00202 0.57648 -0.12206
 C123 C 0.52667 1.05174 0.44900
 C124 C 0.50195 1.06530 0.43243
 C125 C 0.47657 1.05384 0.45007
 C126 C 0.47568 1.02734 0.48414
 C127 C 0.50057 1.01310 0.50092
 C128 C 0.52617 1.02548 0.48369
 C129 C 0.55054 1.01102 0.50093
 C130 C 0.54986 0.98525 0.53510
 C131 C 0.52476 0.97225 0.55198
 C132 C 0.49986 0.98632 0.53478
 C133 C 0.45058 1.01441 0.50113
 C134 C 0.44990 0.98840 0.53467
 C135 C 0.47426 0.97376 0.55153
 C136 C 0.47373 0.94716 0.58540
 C137 C 0.49845 0.93394 0.60286
 C138 C 0.52387 0.94584 0.58632
 H139 H 0.57047 1.01946 0.48820
 H140 H 0.56932 0.97568 0.54813
 H141 H 0.43113 1.02417 0.48847
 H142 H 0.42996 0.98000 0.54741
 H143 H 0.50251 1.08565 0.40641
 H144 H 0.49791 0.91349 0.62864
 C145 C 1.20945 0.16435 0.14309
 C146 C 1.18958 0.14206 0.12962
 C147 C 1.16661 0.13825 0.16390
 C148 C 1.16441 0.15560 0.21364
 C149 C 1.18474 0.17703 0.22838
 C150 C 1.20715 0.18241 0.19245
 N151 N 1.14479 0.11829 0.14605
 N152 N 1.12002 0.12737 0.15002
 C153 C 1.09729 0.10854 0.13311
 C154 C 1.07439 0.12285 0.10959
 C155 C 1.05177 0.10534 0.09251
 C156 C 1.05126 0.07321 0.10039
 C157 C 1.07391 0.05896 0.12599
 C158 C 1.09711 0.07644 0.14106
 H159 H 1.22649 0.16751 0.11463
 H160 H 1.19143 0.12876 0.09110
 H161 H 1.14680 0.15273 0.24072
 H162 H 1.18220 0.19030 0.26678
 H163 H 1.07428 0.14762 0.10374
 H164 H 1.03444 0.11693 0.07356
 H165 H 1.07359 0.03443 0.13440
 H166 H 1.11450 0.06516 0.16030
 C167 C 0.70104 0.67147 0.64878
 C168 C 0.68053 0.65072 0.63210
 C169 C 0.65982 0.64223 0.66934
 C170 C 0.66018 0.65416 0.72433
 C171 C 0.68069 0.67500 0.74113
 C172 C 0.70113 0.68422 0.70324
 N173 N 0.63795 0.62295 0.64911
 N174 N 0.61840 0.61391 0.68019
 C175 C 0.59595 0.59610 0.65806
 C176 C 0.57517 0.58632 0.69423
 C177 C 0.55196 0.57103 0.67309
 C178 C 0.54929 0.56526 0.61534
 C179 C 0.57031 0.57472 0.57920
 C180 C 0.59354 0.58983 0.60035
 H181 H 0.71647 0.67803 0.61857
 H182 H 0.68042 0.64172 0.58959
 H183 H 0.64431 0.64795 0.75384
 H184 H 0.68020 0.68438 0.78336
 H185 H 0.57670 0.59117 0.73870
 H186 H 0.53582 0.56422 0.70156
 H187 H 0.56837 0.57111 0.53442
 H188 H 0.60919 0.59736 0.57142
 C189 C -0.18250 0.33191 0.26304
 C190 C -0.16171 0.35142 0.24409
 C191 C -0.15563 0.35297 0.18703
 C192 C -0.17130 0.33549 0.14855
 C193 C -0.19225 0.31604 0.16743
 C194 C -0.19773 0.31363 0.22501
 N195 N -0.13267 0.37128 0.16991
 N196 N -0.12476 0.37260 0.11924
 C197 C -0.10105 0.39012 0.10345
 C198 C -0.09305 0.39031 0.04717
 C199 C -0.06927 0.40600 0.03096
 C200 C -0.05327 0.42188 0.07095
 C201 C -0.06131 0.42181 0.12729
 C202 C -0.08506 0.40614 0.14348
 H203 H -0.18623 0.33068 0.30763
 H204 H -0.14980 0.36479 0.27412
 H205 H -0.16699 0.33636 0.10416
 H206 H -0.20357 0.30222 0.13711
 H207 H -0.10507 0.37790 0.01599
 H208 H -0.06314 0.40551 -0.01261
 H209 H -0.04906 0.43375 0.15871
 H210 H -0.09071 0.40624 0.18728
 C211 C 0.29666 0.82179 0.61869
 C212 C 0.31809 0.84099 0.60136
 C213 C 0.33630 0.85396 0.64056
 C214 C 0.33241 0.84814 0.69773
 C215 C 0.31107 0.82893 0.71510
 C216 C 0.29317 0.81518 0.67572
 N217 N 0.35917 0.87175 0.62126
 N218 N 0.37646 0.88390 0.65502
 C219 C 0.40000 0.90072 0.63631
 C220 C 0.41761 0.91404 0.67627
 C221 C 0.44139 0.92954 0.65968
 C222 C 0.44782 0.93202 0.60269
 C223 C 0.43022 0.91862 0.56253
 C224 C 0.40638 0.90320 0.57915
 H225 H 0.28327 0.81154 0.58731
 H226 H 0.32088 0.84528 0.55718
 H227 H 0.34618 0.85791 0.72890
 H228 H 0.30893 0.82436 0.75934
 H229 H 0.41301 0.91210 0.72042
 H230 H 0.45487 0.93948 0.69123
 H231 H 0.43512 0.91988 0.51841
 H232 H 0.39320 0.89288 0.54750
 C233 C -0.19112 0.68001 -0.14453
 C234 C -0.17147 0.65936 -0.12460
 C235 C -0.15254 0.64567 -0.16118
 C236 C -0.15364 0.65261 -0.21846
 C237 C -0.17323 0.67337 -0.23848
 C238 C -0.19208 0.68746 -0.20165
 N239 N -0.13189 0.62575 -0.13879
 N240 N -0.11445 0.61189 -0.16973
 C241 C -0.09316 0.59294 -0.14700
 C242 C -0.07480 0.57826 -0.18365
 C243 C -0.05278 0.56119 -0.16282
 C244 C -0.04891 0.55845 -0.10487
 C245 C -0.06748 0.57286 -0.06803
 C246 C -0.08955 0.58988 -0.08890
 H247 H -0.20531 0.69046 -0.11502
 H248 H -0.17078 0.65426 -0.08037
 H249 H -0.13916 0.64236 -0.24758
 H250 H -0.17345 0.67857 -0.28269
 H251 H -0.07728 0.58057 -0.22845
 H252 H -0.03845 0.55052 -0.19182
 H253 H -0.06450 0.57146 -0.02320
 H254 H -0.10338 0.60117 -0.05970
 C255 C 0.33225 1.17582 0.23863
 C256 C 0.35289 1.15593 0.25687
 C257 C 0.35621 1.15003 0.31386
 C258 C 0.33826 1.16390 0.35275
 C259 C 0.31747 1.18371 0.33455
 C260 C 0.31439 1.19008 0.27729
 N261 N 0.37831 1.13046 0.33094
 N262 N 0.38364 1.12526 0.38212
 C263 C 0.40622 1.10613 0.39838
 C264 C 0.41217 1.10290 0.45536
 C265 C 0.43479 1.08547 0.47239
 C266 C 0.45158 1.07071 0.43251
 C267 C 0.44551 1.07375 0.37542
 C268 C 0.42298 1.09127 0.35841
 H269 H 0.33039 1.18014 0.19425
 H270 H 0.36659 1.14537 0.22653
 H271 H 0.34042 1.15964 0.39708
 H272 H 0.30406 1.19435 0.36535
 H273 H 0.39951 1.11435 0.48654
 H274 H 0.43945 1.08379 0.51660
 H275 H 0.45840 1.06276 0.34407
 H276 H 0.41885 1.09345 0.31410
 C277 C 1.16050 -0.18201 -0.27686
 C278 C 1.13859 -0.16301 -0.26088
 C279 C 1.13956 -0.14635 -0.21039
 C280 C 1.16270 -0.14883 -0.17572
 C281 C 1.18416 -0.16876 -0.19044
 C282 C 1.18328 -0.18585 -0.24109
 N283 N 1.11597 -0.12927 -0.19253
 N284 N 1.11806 -0.10403 -0.16493
 C285 C 1.09417 -0.08911 -0.14284
 C286 C 1.09153 -0.05696 -0.14580
 C287 C 1.06823 -0.04228 -0.12377
 C288 C 1.04808 -0.05942 -0.09558
 C289 C 1.05099 -0.09168 -0.09255
 C290 C 1.07366 -0.10642 -0.11655
 H291 H 1.15894 -0.19475 -0.31607
 H292 H 1.12071 -0.16142 -0.28771
 H293 H 1.16358 -0.13639 -0.13614
 H294 H 1.20135 -0.17090 -0.16188
 H295 H 1.10721 -0.04341 -0.16621
 H296 H 1.06603 -0.01753 -0.12830
 H297 H 1.03567 -0.10547 -0.07147
 H298 H 1.07557 -0.13127 -0.11350
 C299 C 0.66470 0.30232 0.27818
 C300 C 0.64152 0.31993 0.29143
 C301 C 0.64337 0.34446 0.32996
 C302 C 0.66877 0.35131 0.35527
 C303 C 0.69183 0.33315 0.34323
 C304 C 0.68995 0.30843 0.30470
 N305 N 0.61893 0.36090 0.34499
 N306 N 0.61961 0.38808 0.36590
 C307 C 0.59503 0.40344 0.38359
 C308 C 0.59420 0.43575 0.38467
 C309 C 0.57040 0.45120 0.40194
 C310 C 0.54748 0.43452 0.42089
 C311 C 0.54844 0.40205 0.41989
 C312 C 0.57193 0.38662 0.40098
 H313 H 0.66265 0.28318 0.24879
 H314 H 0.62200 0.31434 0.27194
 H315 H 0.67055 0.37001 0.38562
 H316 H 0.71107 0.33824 0.36429
 H317 H 0.61185 0.44894 0.37117
 H318 H 0.56991 0.47621 0.40084
 H319 H 0.53103 0.38865 0.43400
 H320 H 0.57226 0.36161 0.40090
 C321 C 0.82681 -0.17635 -0.25906
 C322 C 0.84732 -0.15508 -0.24468
 C323 C 0.84974 -0.14396 -0.18973
 C324 C 0.83078 -0.15364 -0.14927
 C325 C 0.81003 -0.17470 -0.16361
 C326 C 0.80802 -0.18678 -0.21858
 N327 N 0.87216 -0.12380 -0.17586
 N328 N 0.87753 -0.11560 -0.12567
 C329 C 0.90049 -0.09619 -0.11194
 C330 C 0.90722 -0.09123 -0.05557
 C331 C 0.93049 -0.07400 -0.04078
 C332 C 0.94713 -0.06099 -0.08231
 C333 C 0.94017 -0.06560 -0.13886
 C334 C 0.91702 -0.08307 -0.15364
 H335 H 0.82595 -0.18486 -0.30188
 H336 H 0.86179 -0.14773 -0.27623
 H337 H 0.83218 -0.14523 -0.10649
 H338 H 0.79597 -0.18199 -0.13123
 H339 H 0.89476 -0.10138 -0.02309
 H340 H 0.93581 -0.07125 0.00304
 H341 H 0.95287 -0.05598 -0.17151
 H342 H 0.91226 -0.08661 -0.19753
 C343 C 0.32969 0.32663 0.21973
 C344 C 0.34992 0.34833 0.23418
 C345 C 0.35147 0.36036 0.28875
 C346 C 0.33198 0.35111 0.32853
 C347 C 0.31174 0.32950 0.31416
 C348 C 0.31060 0.31665 0.25983
 N349 N 0.37375 0.38058 0.30357
 N350 N 0.37703 0.39063 0.35345
 C351 C 0.39984 0.40962 0.36991
 C352 C 0.40295 0.41741 0.42657
 C353 C 0.42614 0.43361 0.44513
 C354 C 0.44646 0.44270 0.40702
 C355 C 0.44303 0.43551 0.34990
 C356 C 0.41987 0.41909 0.33140
 H357 H 0.32935 0.31721 0.17752
 H358 H 0.36482 0.35524 0.20315
 H359 H 0.33270 0.36009 0.37101
 H360 H 0.29735 0.32238 0.34602
 H361 H 0.38776 0.41005 0.45667
 H362 H 0.42863 0.43830 0.48949
 H363 H 0.45856 0.44207 0.31988
 H364 H 0.41793 0.41327 0.28737
 C365 C 0.17053 0.67272 -0.26975
 C366 C 0.15096 0.65098 -0.25359
 C367 C 0.14686 0.64465 -0.19701
 C368 C 0.16300 0.65992 -0.15638
 C369 C 0.18273 0.68161 -0.17250
 C370 C 0.18650 0.68847 -0.22938
 N371 N 0.12553 0.62347 -0.18220
 N372 N 0.11941 0.61760 -0.13167
 C373 C 0.09730 0.59714 -0.11811
 C374 C 0.08999 0.59342 -0.06193
 C375 C 0.06724 0.57537 -0.04775
 C376 C 0.05169 0.56051 -0.08973
 C377 C 0.05932 0.56375 -0.14595
 C378 C 0.08198 0.58186 -0.16010
 H379 H 0.17297 0.67736 -0.31390
 H380 H 0.13863 0.63937 -0.28524
 H381 H 0.16017 0.65538 -0.11232
 H382 H 0.19470 0.69335 -0.14043
 H383 H 0.10152 0.60519 -0.02922
 H384 H 0.06135 0.57356 -0.00422
 H385 H 0.04740 0.55268 -0.17889
 H386 H 0.08716 0.58437 -0.20384
 C387 C 0.69917 1.18191 0.39418
 C388 C 0.67904 1.16188 0.41449
 C389 C 0.66090 1.14689 0.37769
 C390 C 0.66358 1.15143 0.31985
 C391 C 0.68361 1.17146 0.29939
 C392 C 0.70141 1.18745 0.33633
 N393 N 0.63914 1.12847 0.40006
 N394 N 0.62193 1.11450 0.36852
 C395 C 0.59929 1.09723 0.39018
 C396 C 0.58144 1.08243 0.35246
 C397 C 0.55815 1.06700 0.37177
 C398 C 0.55248 1.06607 0.42927
 C399 C 0.57047 1.08068 0.46726
 C400 C 0.59382 1.09606 0.44790
 H401 H 0.71248 1.19359 0.42406
 H402 H 0.67719 1.15855 0.45917
 H403 H 0.64983 1.14005 0.29048
 H404 H 0.68468 1.17487 0.25461
 H405 H 0.58536 1.08333 0.30790
 H406 H 0.54433 1.05611 0.34188
 H407 H 0.56614 1.08057 0.51171
 H408 H 0.60721 1.10753 0.47784
 C409 C 0.19860 0.31292 0.11434
 C410 C 0.17702 0.33123 0.09493
 C411 C 0.15783 0.34376 0.13234
 C412 C 0.16071 0.33822 0.18988
 C413 C 0.18225 0.31988 0.20937
 C414 C 0.20130 0.30678 0.17176
 N415 N 0.13524 0.36119 0.11074
 N416 N 0.11714 0.37333 0.14248
 C417 C 0.09414 0.39005 0.12086
 C418 C 0.07551 0.40353 0.15847
 C419 C 0.05246 0.41931 0.13882
 C420 C 0.04779 0.42192 0.08110
 C421 C 0.06636 0.40825 0.04331
 C422 C 0.08947 0.39257 0.06299
 H423 H 0.21289 0.30318 0.08425
 H424 H 0.17502 0.33532 0.05049
 H425 H 0.14614 0.34766 0.21968
 H426 H 0.18373 0.31562 0.25383
 H427 H 0.07880 0.40160 0.20313
 H428 H 0.03820 0.42944 0.16857
 H429 H 0.06283 0.40960 -0.00136
 H430 H 0.10346 0.38215 0.03307
 C431 C 0.69750 0.81614 0.63395
 C432 C 0.67640 0.83524 0.61481
 C433 C 0.65772 0.84851 0.65251
 C434 C 0.66067 0.84293 0.71002
 C435 C 0.68168 0.82378 0.72920
 C436 C 0.70016 0.80989 0.69134
 N437 N 0.63545 0.86659 0.63133
 N438 N 0.61805 0.87955 0.66366
 C439 C 0.59519 0.89685 0.64299
 C440 C 0.57766 0.91143 0.68143
 C441 C 0.55466 0.92770 0.66291
 C442 C 0.54894 0.92967 0.60549
 C443 C 0.56641 0.91491 0.56685
 C444 C 0.58950 0.89875 0.58540
 H445 H 0.71135 0.80578 0.60369
 H446 H 0.67433 0.83935 0.57039
 H447 H 0.64650 0.85292 0.74005
 H448 H 0.68317 0.81948 0.77366
 H449 H 0.58173 0.90997 0.72589
 H450 H 0.54125 0.93868 0.69332
 H451 H 0.56203 0.91577 0.52244
 H452 H 0.60263 0.88744 0.55490
 C453 C 0.83716 0.19715 0.27961
 C454 C 0.85995 0.17930 0.26453
 C455 C 0.85709 0.15439 0.22705
 C456 C 0.83103 0.14716 0.20514
 C457 C 0.80836 0.16554 0.21892
 C458 C 0.81132 0.19086 0.25586
 N459 N 0.88117 0.13857 0.20802
 N460 N 0.88035 0.11128 0.18756
 C461 C 0.90442 0.09723 0.16431
 C462 C 0.90729 0.06505 0.16481
 C463 C 0.93061 0.05105 0.14151
 C464 C 0.95073 0.06903 0.11499
 C465 C 0.94763 0.10130 0.11435
 C466 C 0.92483 0.11530 0.13922
 H467 H 0.83999 0.21673 0.30774
 H468 H 0.87999 0.18522 0.28129
 H469 H 0.82847 0.12821 0.17555
 H470 H 0.78862 0.16030 0.20006
 H471 H 0.89168 0.05088 0.18409
 H472 H 0.93289 0.02620 0.14383
 H473 H 0.96289 0.11568 0.09442
 H474 H 0.92282 0.14019 0.13783
 C475 C 0.28954 0.66562 0.65049
 C476 C 0.31025 0.64463 0.63597
 C477 C 0.33682 0.64837 0.65750
 C478 C 0.34224 0.67255 0.69576
 C479 C 0.32135 0.69294 0.71167
 C480 C 0.29497 0.68997 0.68838
 N481 N 0.35818 0.62792 0.63926
 N482 N 0.38306 0.63693 0.63790
 C483 C 0.40507 0.61704 0.62114
 C484 C 0.42934 0.63031 0.60149
 C485 C 0.45141 0.61168 0.58543
 C486 C 0.44980 0.57939 0.59004
 C487 C 0.42559 0.56610 0.61100
 C488 C 0.40317 0.58476 0.62553
 H489 H 0.26928 0.66283 0.63224
 H490 H 0.30584 0.62601 0.60658
 H491 H 0.36260 0.67564 0.71327
 H492 H 0.32602 0.71162 0.74079
 H493 H 0.43106 0.65518 0.59826
 H494 H 0.46992 0.62250 0.56988
 H495 H 0.42416 0.54134 0.61647
 H496 H 0.38469 0.57412 0.64154
   
