data_POSCAR
  _audit_creation_date              2014-09-24
  _audit_creation_method            'ToBaCCo'
  _symmetry_space_group_name_H-M    'P1'
  _symmetry_Int_Tables_number       1
  _symmetry_cell_setting            triclinic
  loop_
  _symmetry_equiv_pos_as_xyz
 x,y,z
_cell_length_a 51.8846
_cell_length_b 51.9973
_cell_length_c 49.6728
_cell_angle_alpha 90.645400
_cell_angle_beta 89.479300
_cell_angle_gamma 89.852300
loop_
  _atom_site_label
  _atom_site_type_symbol
  _atom_site_fract_x
  _atom_site_fract_y
  _atom_site_fract_z
C1 C 0.26733 0.25593 0.23961
 N2 N 0.24864 0.27425 0.23996
 C3 C 0.22904 0.27350 0.25824
 N4 N 0.22824 0.25411 0.27634
 C5 C 0.24680 0.23561 0.27626
 N6 N 0.26626 0.23667 0.25782
 C7 C 0.73468 -0.25352 0.22368
 N8 N 0.75327 -0.27202 0.22370
 C9 C 0.77272 -0.27130 0.24186
 N10 N 0.77338 -0.25170 0.26017
 C11 C 0.75505 -0.23303 0.26047
 N12 N 0.73578 -0.23408 0.24218
 C13 C 0.73450 0.25411 0.76888
 N14 N 0.75300 0.27255 0.76866
 C15 C 0.77246 0.27188 0.75013
 N16 N 0.77319 0.25235 0.73169
 C17 C 0.75487 0.23373 0.73165
 N18 N 0.73559 0.23477 0.75030
 C19 C 0.26581 -0.25602 0.76772
 N20 N 0.24724 -0.27442 0.76739
 C21 C 0.22781 -0.27366 0.74926
 N22 N 0.22703 -0.25421 0.73127
 C23 C 0.24539 -0.23564 0.73128
 N24 N 0.26467 -0.23669 0.74955
 C25 C 0.73208 -0.25675 0.76237
 N26 N 0.75058 -0.27534 0.76166
 C27 C 0.77148 -0.27345 0.74506
 N28 N 0.77356 -0.25269 0.72874
 C29 C 0.75499 -0.23421 0.72870
 N30 N 0.73444 -0.23634 0.74566
 C31 C 0.26590 0.25526 0.77185
 N32 N 0.24742 0.27384 0.77170
 C33 C 0.22695 0.27186 0.75493
 N34 N 0.22514 0.25122 0.73803
 C35 C 0.24369 0.23272 0.73761
 N36 N 0.26392 0.23486 0.75466
 C37 C 0.26440 -0.25615 0.22973
 N38 N 0.26347 -0.23703 0.24862
 C39 C 0.24438 -0.23612 0.26750
 N40 N 0.22599 -0.25466 0.26740
 C41 C 0.22646 -0.27399 0.24870
 N42 N 0.24578 -0.27453 0.22996
 C43 C 0.73311 0.25565 0.23472
 N44 N 0.75149 0.27423 0.23518
 C45 C 0.77227 0.27228 0.25156
 N46 N 0.77432 0.25148 0.26781
 C47 C 0.75584 0.23300 0.26800
 N48 N 0.73540 0.23520 0.25129
 O49 O 0.21882 0.02391 0.47669
 O50 O 0.21872 -0.02652 0.52820
 O51 O 0.21844 0.02364 0.52906
 O52 O 0.21881 -0.02635 0.47585
 O53 O 0.26132 -0.02629 0.47560
 O54 O 0.26095 0.02354 0.52890
 O55 O 0.26124 -0.02640 0.52799
 O56 O 0.26134 0.02375 0.47648
 Cu57 Cu 0.21443 -0.00133 0.50244
 Cu58 Cu 0.26546 -0.00134 0.50220
 C59 C 0.24014 0.03250 0.46781
 C60 C 0.24000 -0.03508 0.53692
 C61 C 0.23964 0.03213 0.53812
 C62 C 0.24013 -0.03494 0.46667
 O63 O 0.78218 0.02393 0.52383
 O64 O 0.78206 -0.02644 0.47104
 O65 O 0.78247 0.02372 0.47146
 O66 O 0.78232 -0.02628 0.52348
 O67 O 0.73981 -0.02599 0.52391
 O68 O 0.73995 0.02386 0.47180
 O69 O 0.73954 -0.02608 0.47145
 O70 O 0.73966 0.02398 0.52421
 Cu71 Cu 0.78652 -0.00130 0.49742
 Cu72 Cu 0.73549 -0.00105 0.49789
 C73 C 0.76089 0.03259 0.53304
 C74 C 0.76073 -0.03483 0.46217
 C75 C 0.76123 0.03235 0.46271
 C76 C 0.76104 -0.03468 0.53263
 O77 O 0.47472 0.23958 0.02921
 O78 O 0.52491 0.23942 -0.02342
 O79 O 0.52476 0.23978 0.02901
 O80 O 0.47483 0.23973 -0.02323
 O81 O 0.47469 0.28215 -0.02279
 O82 O 0.52477 0.28220 0.02937
 O83 O 0.52501 0.28184 -0.02302
 O84 O 0.47451 0.28201 0.02963
 Cu85 Cu 0.49981 0.23539 0.00284
 Cu86 Cu 0.49973 0.28631 0.00333
 C87 C 0.46602 0.26078 0.03847
 C88 C 0.53361 0.26056 -0.03222
 C89 C 0.53332 0.26099 0.03815
 C90 C 0.46618 0.26093 -0.03194
 O91 O 0.52421 0.76051 0.02282
 O92 O 0.47404 0.76024 -0.02890
 O93 O 0.47407 0.76039 0.02349
 O94 O 0.52406 0.76006 -0.02964
 O95 O 0.52424 0.71763 -0.02984
 O96 O 0.47407 0.71796 0.02319
 O97 O 0.47397 0.71782 -0.02913
 O98 O 0.52446 0.71809 0.02256
 Cu99 Cu 0.49910 0.76454 -0.00301
 Cu100 Cu 0.49921 0.71362 -0.00330
 C101 C 0.53300 0.73939 0.03150
 C102 C 0.46538 0.73902 -0.03787
 C103 C 0.46541 0.73924 0.03235
 C104 C 0.53270 0.73880 -0.03887
 O105 O 0.02450 0.47389 0.22954
 O106 O -0.02651 0.52300 0.22639
 O107 O 0.02383 0.52371 0.22769
 O108 O -0.02541 0.47274 0.22829
 O109 O -0.02815 0.47601 0.27259
 O110 O 0.02286 0.52518 0.27208
 O111 O -0.02710 0.52584 0.27073
 O112 O 0.02222 0.47503 0.27391
 Cu113 Cu -0.00081 0.49818 0.22351
 Cu114 Cu -0.00266 0.50067 0.27679
 C115 C 0.03198 0.46592 0.25225
 C116 C -0.03536 0.53301 0.24803
 C117 C 0.03195 0.53301 0.24980
 C118 C -0.03530 0.46583 0.25054
 O119 O 0.02400 0.52443 0.77138
 O120 O -0.02764 0.47610 0.77147
 O121 O 0.02241 0.47435 0.77235
 O122 O -0.02599 0.52629 0.77052
 O123 O -0.02677 0.52320 0.72615
 O124 O 0.02519 0.47479 0.72797
 O125 O -0.02504 0.47327 0.72718
 O126 O 0.02352 0.52470 0.72698
 Cu127 Cu -0.00193 0.50041 0.77590
 Cu128 Cu -0.00067 0.49887 0.72260
 C129 C 0.03237 0.53310 0.74915
 C130 C -0.03491 0.46612 0.74935
 C131 C 0.03239 0.46603 0.75047
 C132 C -0.03491 0.53331 0.74803
 C133 C 0.32850 0.25833 0.18044
 C134 C 0.32566 0.23694 0.19726
 C135 C 0.30595 0.23624 0.21659
 C136 C 0.28851 0.25684 0.21943
 C137 C 0.29139 0.27826 0.20265
 C138 C 0.31120 0.27903 0.18344
 C139 C 0.34921 0.25893 0.15973
 N140 N 0.35400 0.28065 0.14561
 N141 N 0.37248 0.28110 0.12683
 C142 C 0.38690 0.25982 0.12131
 N143 N 0.38212 0.23811 0.13544
 N144 N 0.36370 0.23768 0.15427
 C145 C 0.40726 0.26017 0.10022
 C146 C 0.41959 0.23727 0.09199
 C147 C 0.43860 0.23749 0.07192
 C148 C 0.44586 0.26065 0.05972
 C149 C 0.43366 0.28360 0.06802
 C150 C 0.41450 0.28335 0.08798
 H151 H 0.33869 0.22069 0.19554
 H152 H 0.30429 0.21943 0.22915
 H153 H 0.27834 0.29450 0.20434
 H154 H 0.31280 0.29578 0.17080
 H155 H 0.41446 0.21906 0.10093
 H156 H 0.44768 0.21949 0.06603
 H157 H 0.43881 0.30176 0.05898
 H158 H 0.40543 0.30135 0.09387
 C159 C 0.67393 0.74355 0.16714
 C160 C 0.67574 0.76411 0.18560
 C161 C 0.69568 0.76504 0.20427
 C162 C 0.71454 0.74550 0.20488
 C163 C 0.71269 0.72494 0.18624
 C164 C 0.69259 0.72395 0.16772
 C165 C 0.65274 0.74265 0.14734
 N166 N 0.64853 0.72120 0.13217
 N167 N 0.62952 0.72048 0.11433
 C168 C 0.61397 0.74121 0.11085
 N169 N 0.61820 0.76266 0.12602
 N170 N 0.63714 0.76335 0.14391
 C171 C 0.59301 0.74059 0.09080
 C172 C 0.57989 0.76328 0.08408
 C173 C 0.56040 0.76284 0.06487
 C174 C 0.55343 0.73968 0.05209
 C175 C 0.56635 0.71693 0.05897
 C176 C 0.58601 0.71740 0.07803
 H177 H 0.66164 0.77950 0.18576
 H178 H 0.69626 0.78124 0.21816
 H179 H 0.72669 0.70946 0.18593
 H180 H 0.69181 0.70787 0.15371
 H181 H 0.58482 0.78148 0.09347
 H182 H 0.55077 0.78069 0.06006
 H183 H 0.56144 0.69878 0.04943
 H184 H 0.59567 0.69956 0.08280
 C185 C 0.67316 0.25685 -0.17209
 C186 C 0.67624 0.23532 -0.18919
 C187 C 0.69607 0.23448 -0.20840
 C188 C 0.71338 0.25509 -0.21085
 C189 C 0.71032 0.27661 -0.19372
 C190 C 0.69038 0.27751 -0.17462
 C191 C 0.65218 0.25764 -0.15165
 N192 N 0.64712 0.27948 -0.13727
 N193 N 0.62833 0.28012 -0.11881
 C194 C 0.61387 0.25892 -0.11390
 N195 N 0.61893 0.23709 -0.12828
 N196 N 0.63766 0.23648 -0.14678
 C197 C 0.59315 0.25947 -0.09317
 C198 C 0.58071 0.23665 -0.08560
 C199 C 0.56140 0.23705 -0.06583
 C200 C 0.55394 0.26029 -0.05329
 C201 C 0.56622 0.28315 -0.06098
 C202 C 0.58568 0.28274 -0.08064
 H203 H 0.66329 0.21908 -0.18784
 H204 H 0.69787 0.21759 -0.22123
 H205 H 0.72327 0.29285 -0.19510
 H206 H 0.68860 0.29437 -0.16174
 H207 H 0.58600 0.21839 -0.09478
 H208 H 0.55228 0.21910 -0.06041
 H209 H 0.56093 0.30137 -0.05167
 H210 H 0.59481 0.30068 -0.08604
 C211 C 0.32614 0.74149 -0.17531
 C212 C 0.30759 0.72189 -0.17633
 C213 C 0.28766 0.72271 -0.19504
 C214 C 0.28587 0.74309 -0.21342
 C215 C 0.30466 0.76261 -0.21242
 C216 C 0.32443 0.76185 -0.19357
 C217 C 0.34707 0.74084 -0.15524
 N218 N 0.36248 0.76160 -0.15135
 N219 N 0.38116 0.76114 -0.13316
 C220 C 0.38530 0.73989 -0.11815
 N221 N 0.36994 0.71909 -0.12209
 N222 N 0.35119 0.71957 -0.14023
 C223 C 0.40596 0.73952 -0.09778
 C224 C 0.41294 0.71648 -0.08517
 C225 C 0.43237 0.71625 -0.06586
 C226 C 0.44508 0.73909 -0.05858
 C227 C 0.43810 0.76211 -0.07118
 C228 C 0.41884 0.76231 -0.09062
 H229 H 0.30830 0.70596 -0.16250
 H230 H 0.27371 0.70725 -0.19503
 H231 H 0.30413 0.77866 -0.22612
 H232 H 0.33847 0.77723 -0.19340
 H233 H 0.40346 0.69858 -0.09027
 H234 H 0.43729 0.69821 -0.05648
 H235 H 0.44758 0.78002 -0.06606
 H236 H 0.41392 0.78040 -0.09988
 C237 C 0.16973 0.33163 0.25772
 C238 C 0.17109 0.31403 0.27894
 C239 C 0.19029 0.29512 0.27913
 C240 C 0.20868 0.29353 0.25821
 C241 C 0.20740 0.31125 0.23710
 C242 C 0.18811 0.33000 0.23681
 C243 C 0.14925 0.35151 0.25722
 N244 N 0.14559 0.36583 0.23488
 N245 N 0.12717 0.38366 0.23427
 C246 C 0.11164 0.38801 0.25601
 N247 N 0.11531 0.37373 0.27840
 N248 N 0.13371 0.35582 0.27897
 C249 C 0.09116 0.40788 0.25520
 C250 C 0.07770 0.41533 0.27872
 C251 C 0.05853 0.43425 0.27784
 C252 C 0.05227 0.44594 0.25337
 C253 C 0.06563 0.43838 0.22985
 C254 C 0.08490 0.41965 0.23077
 H255 H 0.15720 0.31473 0.29534
 H256 H 0.19075 0.28181 0.29573
 H257 H 0.22121 0.31056 0.22063
 H258 H 0.18770 0.34329 0.22019
 H259 H 0.08209 0.40669 0.29788
 H260 H 0.04854 0.43963 0.29630
 H261 H 0.06129 0.44705 0.21068
 H262 H 0.09482 0.41432 0.21225
 C263 C 0.16909 0.66792 0.74904
 C264 C 0.17075 0.68573 0.72803
 C265 C 0.18974 0.70472 0.72814
 C266 C 0.20766 0.70622 0.74916
 C267 C 0.20608 0.68832 0.77010
 C268 C 0.18696 0.66945 0.77010
 C269 C 0.14884 0.64790 0.74903
 N270 N 0.14467 0.63318 0.77105
 N271 N 0.12640 0.61524 0.77107
 C272 C 0.11158 0.61120 0.74903
 N273 N 0.11577 0.62589 0.72699
 N274 N 0.13399 0.64389 0.72700
 C275 C 0.09128 0.59123 0.74905
 C276 C 0.07869 0.58433 0.72510
 C277 C 0.05962 0.56540 0.72511
 C278 C 0.05258 0.55310 0.74911
 C279 C 0.06507 0.56007 0.77308
 C280 C 0.08427 0.57885 0.77303
 H281 H 0.15726 0.68514 0.71153
 H282 H 0.19044 0.71816 0.71166
 H283 H 0.21953 0.68895 0.78664
 H284 H 0.18628 0.65599 0.78656
 H285 H 0.08366 0.59343 0.70626
 H286 H 0.05032 0.56049 0.70632
 H287 H 0.06011 0.55091 0.79189
 H288 H 0.09352 0.58374 0.79185
 C289 C -0.16988 0.67048 0.24231
 C290 C -0.16988 0.69036 0.26169
 C291 C -0.18866 0.70961 0.26142
 C292 C -0.20818 0.70941 0.24186
 C293 C -0.20812 0.68943 0.22244
 C294 C -0.18914 0.67029 0.22261
 C295 C -0.14997 0.65004 0.24285
 N296 N -0.14690 0.63333 0.22184
 N297 N -0.12896 0.61496 0.22245
 C298 C -0.11343 0.61248 0.24415
 N299 N -0.11655 0.62917 0.26515
 N300 N -0.13440 0.64758 0.26450
 C301 C -0.09354 0.59204 0.24501
 C302 C -0.08095 0.58660 0.26923
 C303 C -0.06219 0.56735 0.27019
 C304 C -0.05541 0.55323 0.24690
 C305 C -0.06790 0.55869 0.22263
 C306 C -0.08687 0.57781 0.22172
 H307 H -0.15525 0.69115 0.27709
 H308 H -0.18785 0.72455 0.27675
 H309 H -0.22269 0.68848 0.20699
 H310 H -0.18972 0.65520 0.20743
 H311 H -0.08568 0.59712 0.28756
 H312 H -0.05288 0.56364 0.28919
 H313 H -0.06312 0.54810 0.20436
 H314 H -0.09616 0.58157 0.20273
 C315 C -0.17014 0.32981 0.74988
 C316 C -0.18966 0.32989 0.76965
 C317 C -0.20864 0.31088 0.76969
 C318 C -0.20848 0.29110 0.75005
 C319 C -0.18877 0.29104 0.73032
 C320 C -0.16995 0.31020 0.73019
 C321 C -0.15011 0.35005 0.74979
 N322 N -0.13379 0.35258 0.72845
 N323 N -0.11582 0.37081 0.72835
 C324 C -0.11333 0.38723 0.74963
 N325 N -0.12961 0.38466 0.77099
 N326 N -0.14765 0.36649 0.77104
 C327 C -0.09329 0.40746 0.74955
 C328 C -0.08783 0.42152 0.77315
 C329 C -0.06882 0.44050 0.77311
 C330 C -0.05501 0.44600 0.74942
 C331 C -0.06054 0.43205 0.72579
 C332 C -0.07939 0.41292 0.72588
 H333 H -0.19043 0.34477 0.78507
 H334 H -0.22336 0.31175 0.78527
 H335 H -0.18783 0.27626 0.71480
 H336 H -0.15512 0.30952 0.71471
 H337 H -0.09813 0.41776 0.79175
 H338 H -0.06504 0.45095 0.79163
 H339 H -0.05019 0.43580 0.70722
 H340 H -0.08316 0.40250 0.70734
 C341 C 0.24395 0.17383 0.33332
 C342 C 0.26559 0.17705 0.31647
 C343 C 0.26647 0.19705 0.29796
 C344 C 0.24579 0.21442 0.29594
 C345 C 0.22417 0.21127 0.31284
 C346 C 0.22323 0.19115 0.33126
 C347 C 0.24310 0.15259 0.35293
 N348 N 0.22118 0.14738 0.36699
 N349 N 0.22051 0.12831 0.38467
 C350 C 0.24175 0.11368 0.38909
 N351 N 0.26366 0.11890 0.37503
 N352 N 0.26431 0.13791 0.35731
 C353 C 0.24118 0.09265 0.40896
 C354 C 0.26405 0.08001 0.41612
 C355 C 0.26366 0.06046 0.43516
 C356 C 0.24037 0.05295 0.44735
 C357 C 0.21745 0.06539 0.44003
 C358 C 0.21786 0.08509 0.42111
 H359 H 0.28188 0.16405 0.31748
 H360 H 0.28344 0.19892 0.28530
 H361 H 0.20788 0.22427 0.31179
 H362 H 0.20629 0.18927 0.34397
 H363 H 0.28236 0.08535 0.40720
 H364 H 0.28166 0.05122 0.44031
 H365 H 0.19920 0.06007 0.44910
 H366 H 0.19987 0.09437 0.41599
 C367 C 0.75763 0.17221 0.67281
 C368 C 0.73615 0.17526 0.69001
 C369 C 0.73532 0.19513 0.70916
 C370 C 0.75588 0.21255 0.71145
 C371 C 0.77736 0.20952 0.69424
 C372 C 0.77826 0.18953 0.67521
 C373 C 0.75840 0.15120 0.65242
 N374 N 0.78023 0.14616 0.63797
 N375 N 0.78081 0.12735 0.61954
 C376 C 0.75958 0.11283 0.61473
 N377 N 0.73777 0.11788 0.62920
 N378 N 0.73721 0.13663 0.64767
 C379 C 0.76007 0.09210 0.59402
 C380 C 0.73717 0.07967 0.58650
 C381 C 0.73748 0.06036 0.56673
 C382 C 0.76072 0.05290 0.55414
 C383 C 0.78367 0.06515 0.56179
 C384 C 0.78333 0.08461 0.58145
 H385 H 0.71995 0.16223 0.68877
 H386 H 0.71845 0.19690 0.72206
 H387 H 0.79356 0.22255 0.69550
 H388 H 0.79509 0.18778 0.66225
 H389 H 0.71890 0.08497 0.59572
 H390 H 0.71947 0.05126 0.56134
 H391 H 0.80188 0.05985 0.55243
 H392 H 0.80133 0.09374 0.58681
 C393 C 0.24285 -0.17430 0.67376
 C394 C 0.22218 -0.19157 0.67614
 C395 C 0.22301 -0.21149 0.69477
 C396 C 0.24445 -0.21450 0.71155
 C397 C 0.26505 -0.19713 0.70927
 C398 C 0.26429 -0.17732 0.69054
 C399 C 0.24217 -0.15336 0.65380
 N400 N 0.26339 -0.13882 0.64900
 N401 N 0.26289 -0.12013 0.63090
 C402 C 0.24113 -0.11512 0.61688
 N403 N 0.21987 -0.12961 0.62173
 N404 N 0.22039 -0.14835 0.63978
 C405 C 0.24070 -0.09446 0.59660
 C406 C 0.21747 -0.08704 0.58453
 C407 C 0.21718 -0.06763 0.56528
 C408 C 0.24014 -0.05536 0.55756
 C409 C 0.26335 -0.06276 0.56964
 C410 C 0.26362 -0.08202 0.58900
 H411 H 0.20539 -0.18983 0.66350
 H412 H 0.20678 -0.22449 0.69603
 H413 H 0.28189 -0.19889 0.72185
 H414 H 0.28052 -0.16433 0.68929
 H415 H 0.19946 -0.09618 0.58997
 H416 H 0.19899 -0.06238 0.55631
 H417 H 0.28136 -0.05364 0.56417
 H418 H 0.28186 -0.08727 0.59784
 C419 C 0.75760 -0.17197 0.31977
 C420 C 0.77833 -0.18922 0.31670
 C421 C 0.77751 -0.20899 0.29745
 C422 C 0.75600 -0.21188 0.28069
 C423 C 0.73535 -0.19448 0.28359
 C424 C 0.73611 -0.17481 0.30296
 C425 C 0.75828 -0.15129 0.34052
 N426 N 0.73701 -0.13682 0.34606
 N427 N 0.73753 -0.11845 0.36494
 C428 C 0.75934 -0.11371 0.37905
 N429 N 0.78064 -0.12812 0.37345
 N430 N 0.78010 -0.14654 0.35462
 C431 C 0.75980 -0.09341 0.40021
 C432 C 0.78308 -0.08625 0.41245
 C433 C 0.78344 -0.06715 0.43249
 C434 C 0.76050 -0.05493 0.44085
 C435 C 0.73723 -0.06210 0.42864
 C436 C 0.73690 -0.08105 0.40850
 H437 H 0.79517 -0.18762 0.32932
 H438 H 0.79379 -0.22200 0.29572
 H439 H 0.71847 -0.19616 0.27104
 H440 H 0.71982 -0.16181 0.30473
 H441 H 0.80109 -0.09533 0.40651
 H442 H 0.80167 -0.06207 0.44152
 H443 H 0.71923 -0.05301 0.43458
 H444 H 0.71862 -0.08612 0.39955
 C445 C 0.67008 0.73974 -0.18139
 C446 C 0.68812 0.71959 -0.18343
 C447 C 0.70840 0.72057 -0.20214
 C448 C 0.71111 0.74171 -0.21946
 C449 C 0.69262 0.76160 -0.21773
 C450 C 0.67249 0.76065 -0.19889
 C451 C 0.64918 0.73923 -0.16081
 N452 N 0.63430 0.76035 -0.15600
 N453 N 0.61588 0.76013 -0.13715
 C454 C 0.61148 0.73877 -0.12232
 N455 N 0.62628 0.71760 -0.12721
 N456 N 0.64477 0.71784 -0.14601
 C457 C 0.59117 0.73868 -0.10110
 C458 C 0.58413 0.71571 -0.08834
 C459 C 0.56507 0.71571 -0.06824
 C460 C 0.55275 0.73872 -0.06030
 C461 C 0.55981 0.76169 -0.07302
 C462 C 0.57872 0.76166 -0.09325
 H463 H 0.68684 0.70317 -0.17027
 H464 H 0.72204 0.70477 -0.20277
 H465 H 0.69380 0.77820 -0.23065
 H466 H 0.65885 0.77644 -0.19799
 H467 H 0.59328 0.69766 -0.09392
 H468 H 0.56010 0.69769 -0.05882
 H469 H 0.55066 0.77973 -0.06741
 H470 H 0.58369 0.77971 -0.10258
 C471 C 0.32829 0.25885 -0.17137
 C472 C 0.32494 0.23707 -0.18798
 C473 C 0.30495 0.23610 -0.20662
 C474 C 0.28769 0.25683 -0.20904
 C475 C 0.29118 0.27873 -0.19262
 C476 C 0.31129 0.27976 -0.17406
 C477 C 0.34915 0.25950 -0.15112
 N478 N 0.35428 0.28132 -0.13688
 N479 N 0.37281 0.28172 -0.11846
 C480 C 0.38694 0.26028 -0.11345
 N481 N 0.38181 0.23849 -0.12771
 N482 N 0.36334 0.23811 -0.14616
 C483 C 0.40736 0.26055 -0.09271
 C484 C 0.41950 0.23757 -0.08512
 C485 C 0.43853 0.23771 -0.06539
 C486 C 0.44603 0.26085 -0.05290
 C487 C 0.43402 0.28387 -0.06057
 C488 C 0.41485 0.28371 -0.08019
 H489 H 0.33771 0.22066 -0.18656
 H490 H 0.30287 0.21892 -0.21891
 H491 H 0.27830 0.29507 -0.19398
 H492 H 0.31330 0.29684 -0.16159
 H493 H 0.41419 0.21937 -0.09428
 H494 H 0.44743 0.21965 -0.05998
 H495 H 0.43934 0.30202 -0.05131
 H496 H 0.40595 0.30177 -0.08558
 C497 C 0.32466 0.74181 0.17128
 C498 C 0.30607 0.72222 0.17205
 C499 C 0.28614 0.72290 0.19121
 C500 C 0.28438 0.74313 0.21030
 C501 C 0.30317 0.76266 0.20949
 C502 C 0.32293 0.76204 0.19019
 C503 C 0.34572 0.74124 0.15086
 N504 N 0.36114 0.76202 0.14729
 N505 N 0.38000 0.76160 0.12892
 C506 C 0.38434 0.74035 0.11338
 N507 N 0.36896 0.71953 0.11698
 N508 N 0.35003 0.71998 0.13529
 C509 C 0.40529 0.73996 0.09285
 C510 C 0.41252 0.71688 0.07979
 C511 C 0.43220 0.71659 0.06036
 C512 C 0.44495 0.73941 0.05336
 C513 C 0.43774 0.76248 0.06641
 C514 C 0.41823 0.76274 0.08601
 H515 H 0.30679 0.70638 0.15772
 H516 H 0.27218 0.70745 0.19102
 H517 H 0.30267 0.77861 0.22369
 H518 H 0.33696 0.77742 0.19024
 H519 H 0.40302 0.69897 0.08463
 H520 H 0.43726 0.69851 0.05063
 H521 H 0.44722 0.78039 0.06152
 H522 H 0.41314 0.78086 0.09561
 C523 C 0.67052 0.25927 0.17827
 C524 C 0.68743 0.28017 0.18139
 C525 C 0.70757 0.27915 0.19989
 C526 C 0.71118 0.25726 0.21583
 C527 C 0.69398 0.23657 0.21302
 C528 C 0.67396 0.23753 0.19443
 C529 C 0.64971 0.25987 0.15798
 N530 N 0.63564 0.23848 0.15252
 N531 N 0.61727 0.23880 0.13398
 C532 C 0.61212 0.26055 0.12010
 N533 N 0.62612 0.28199 0.12562
 N534 N 0.64455 0.28165 0.14413
 C535 C 0.59183 0.26076 0.09924
 C536 C 0.58433 0.28388 0.08711
 C537 C 0.56527 0.28398 0.06737
 C538 C 0.55340 0.26096 0.05918
 C539 C 0.56091 0.23785 0.07127
 C540 C 0.57983 0.23776 0.09112
 H541 H 0.68534 0.29722 0.16928
 H542 H 0.72040 0.29546 0.20156
 H543 H 0.69616 0.21940 0.22493
 H544 H 0.66125 0.22113 0.19267
 H545 H 0.59312 0.30195 0.09290
 H546 H 0.55994 0.30211 0.05843
 H547 H 0.55211 0.21978 0.06546
 H548 H 0.58515 0.21959 0.09997
 C549 C -0.17066 0.66882 0.74472
 C550 C -0.16652 0.69207 0.73135
 C551 C -0.18577 0.71094 0.73099
 C552 C -0.20931 0.70734 0.74485
 C553 C -0.21313 0.68403 0.75858
 C554 C -0.19419 0.66486 0.75811
 C555 C -0.15048 0.64881 0.74484
 N556 N -0.15676 0.62356 0.74232
 N557 N -0.13853 0.60547 0.74244
 C558 C -0.11337 0.61192 0.74550
 N559 N -0.10711 0.63716 0.74820
 N560 N -0.12530 0.65527 0.74767
 C561 C -0.09325 0.59187 0.74605
 C562 C -0.07267 0.59390 0.76411
 C563 C -0.05389 0.57460 0.76506
 C564 C -0.05492 0.55343 0.74732
 C565 C -0.07523 0.55162 0.72892
 C566 C -0.09450 0.57048 0.72861
 H567 H -0.14850 0.69547 0.72079
 H568 H -0.18191 0.72854 0.72023
 H569 H -0.23093 0.68033 0.76942
 H570 H -0.19774 0.64708 0.76866
 H571 H -0.07141 0.61019 0.77782
 H572 H -0.03832 0.57639 0.77933
 H573 H -0.07642 0.53539 0.71513
 H574 H -0.11016 0.56859 0.71445
 C575 C -0.17025 0.33009 0.25177
 C576 C -0.19364 0.33406 0.23851
 C577 C -0.21244 0.31485 0.23805
 C578 C -0.20863 0.29150 0.25167
 C579 C -0.18522 0.28787 0.26536
 C580 C -0.16610 0.30678 0.26500
 C581 C -0.15024 0.35018 0.25174
 N582 N -0.12494 0.34380 0.24908
 N583 N -0.10688 0.36198 0.24874
 C584 C -0.11342 0.38719 0.25147
 N585 N -0.13871 0.39355 0.25435
 N586 N -0.15679 0.37540 0.25428
 C587 C -0.09343 0.40729 0.25125
 C588 C -0.09542 0.42867 0.26867
 C589 C -0.07625 0.44754 0.26875
 C590 C -0.05528 0.44575 0.25077
 C591 C -0.05352 0.42460 0.23303
 C592 C -0.07223 0.40529 0.23359
 H593 H -0.19718 0.35189 0.22808
 H594 H -0.23013 0.31858 0.22735
 H595 H -0.18136 0.27024 0.27602
 H596 H -0.14820 0.30337 0.27545
 H597 H -0.11157 0.43055 0.28253
 H598 H -0.07801 0.46375 0.28253
 H599 H -0.03743 0.42281 0.21907
 H600 H -0.07038 0.38901 0.21990
 C601 C 0.16842 0.33050 0.75466
 C602 C 0.16201 0.30467 0.74967
 C603 C 0.18111 0.28564 0.74945
 C604 C 0.20683 0.29200 0.75499
 C605 C 0.21317 0.31777 0.76044
 C606 C 0.19419 0.33691 0.75988
 C607 C 0.14833 0.35066 0.75428
 N608 N 0.15395 0.37471 0.74564
 N609 N 0.13574 0.39281 0.74498
 C610 C 0.11129 0.38765 0.75325
 N611 N 0.10572 0.36365 0.76207
 N612 N 0.12385 0.34546 0.76241
 C613 C 0.09113 0.40773 0.75258
 C614 C 0.07130 0.40828 0.77202
 C615 C 0.05239 0.42749 0.77156
 C616 C 0.05255 0.44600 0.75119
 C617 C 0.07216 0.44523 0.73153
 C618 C 0.09151 0.42648 0.73245
 H619 H 0.14229 0.29926 0.74548
 H620 H 0.17572 0.26589 0.74530
 H621 H 0.23288 0.32317 0.76466
 H622 H 0.19959 0.35668 0.76390
 H623 H 0.07066 0.39410 0.78780
 H624 H 0.03740 0.42765 0.78688
 H625 H 0.07275 0.45937 0.71569
 H626 H 0.10653 0.42638 0.71716
 C627 C 0.16853 0.66841 0.24886
 C628 C 0.16877 0.68776 0.26882
 C629 C 0.18776 0.70679 0.26872
 C630 C 0.20725 0.70687 0.24874
 C631 C 0.20699 0.68734 0.22882
 C632 C 0.18783 0.66847 0.22883
 C633 C 0.14828 0.64832 0.24895
 N634 N 0.14523 0.63228 0.22744
 N635 N 0.12699 0.61428 0.22751
 C636 C 0.11108 0.61147 0.24915
 N637 N 0.11417 0.62748 0.27068
 N638 N 0.13233 0.64554 0.27056
 C639 C 0.09081 0.59140 0.24929
 C640 C 0.07747 0.58549 0.27320
 C641 C 0.05846 0.56648 0.27337
 C642 C 0.05215 0.55310 0.24960
 C643 C 0.06538 0.55908 0.22567
 C644 C 0.08457 0.57792 0.22554
 H645 H 0.15415 0.68835 0.28451
 H646 H 0.18712 0.72136 0.28446
 H647 H 0.22152 0.68658 0.21303
 H648 H 0.18827 0.65380 0.21319
 H649 H 0.08183 0.59543 0.29187
 H650 H 0.04859 0.56237 0.29214
 H651 H 0.06102 0.54908 0.20702
 H652 H 0.09440 0.58202 0.20676
 C653 C 0.75884 -0.17172 0.67237
 C654 C 0.73701 -0.17502 0.68893
 C655 C 0.73598 -0.19501 0.70748
 C656 C 0.75669 -0.21231 0.70985
 C657 C 0.77866 -0.20884 0.69352
 C658 C 0.77975 -0.18873 0.67505
 C659 C 0.75951 -0.15094 0.65212
 N660 N 0.78137 -0.14592 0.63788
 N661 N 0.78178 -0.12751 0.61942
 C662 C 0.76032 -0.11340 0.61435
 N663 N 0.73848 -0.11841 0.62862
 N664 N 0.73810 -0.13676 0.64711
 C665 C 0.76060 -0.09313 0.59354
 C666 C 0.73758 -0.08100 0.58589
 C667 C 0.73774 -0.06210 0.56610
 C668 C 0.76093 -0.05473 0.55360
 C669 C 0.78398 -0.06673 0.56133
 C670 C 0.78380 -0.08577 0.58101
 H671 H 0.72059 -0.16223 0.68751
 H672 H 0.71874 -0.19707 0.71971
 H673 H 0.79499 -0.22175 0.69484
 H674 H 0.79687 -0.18676 0.66262
 H675 H 0.71935 -0.08621 0.59506
 H676 H 0.71965 -0.05320 0.56066
 H677 H 0.80217 -0.06151 0.55207
 H678 H 0.80189 -0.09466 0.58643
 C679 C 0.24254 -0.17500 0.32698
 C680 C 0.26389 -0.17813 0.30961
 C681 C 0.26443 -0.19788 0.29030
 C682 C 0.24370 -0.21511 0.28797
 C683 C 0.22238 -0.21204 0.30539
 C684 C 0.22176 -0.19216 0.32460
 C685 C 0.24203 -0.15400 0.34747
 N686 N 0.22028 -0.14878 0.36199
 N687 N 0.21987 -0.12994 0.38040
 C688 C 0.24121 -0.11555 0.38514
 N689 N 0.26295 -0.12079 0.37064
 N690 N 0.26334 -0.13958 0.35218
 C691 C 0.24085 -0.09471 0.40579
 C692 C 0.26379 -0.08232 0.41329
 C693 C 0.26354 -0.06291 0.43300
 C694 C 0.24032 -0.05529 0.44555
 C695 C 0.21734 -0.06751 0.43790
 C696 C 0.21762 -0.08705 0.41833
 H697 H 0.28021 -0.16525 0.31083
 H698 H 0.28119 -0.19969 0.27726
 H699 H 0.20606 -0.22492 0.30414
 H700 H 0.20504 -0.19035 0.33768
 H701 H 0.28204 -0.08773 0.40410
 H702 H 0.28158 -0.05386 0.43839
 H703 H 0.19913 -0.06212 0.44721
 H704 H 0.19958 -0.09612 0.41299
 C705 C 0.75959 0.17020 0.32391
 C706 C 0.78043 0.18724 0.32114
 C707 C 0.77937 0.20746 0.30282
 C708 C 0.75751 0.21102 0.28672
 C709 C 0.73688 0.19369 0.28919
 C710 C 0.73788 0.17360 0.30759
 C711 C 0.76021 0.14929 0.34399
 N712 N 0.73880 0.13512 0.34915
 N713 N 0.73913 0.11664 0.36750
 C714 C 0.76089 0.11148 0.38146
 N715 N 0.78234 0.12558 0.37624
 N716 N 0.78199 0.14412 0.35793
 C717 C 0.76108 0.09108 0.40211
 C718 C 0.78423 0.08351 0.41425
 C719 C 0.78432 0.06436 0.43381
 C720 C 0.76123 0.05246 0.44181
 C721 C 0.73809 0.06003 0.42969
 C722 C 0.73803 0.07904 0.41002
 H723 H 0.79745 0.18520 0.33338
 H724 H 0.79564 0.22040 0.30141
 H725 H 0.71973 0.19581 0.27715
 H726 H 0.72152 0.16079 0.30908
 H727 H 0.80235 0.09233 0.40861
 H728 H 0.80247 0.05899 0.44278
 H729 H 0.71998 0.05122 0.43536
 H730 H 0.71983 0.08441 0.40115
 C731 C 0.24059 0.16996 0.68017
 C732 C 0.21962 0.18694 0.68332
 C733 C 0.22049 0.20716 0.70211
 C734 C 0.24229 0.21077 0.71832
 C735 C 0.26308 0.19352 0.71547
 C736 C 0.26227 0.17342 0.69658
 C737 C 0.24012 0.14903 0.65962
 N738 N 0.26160 0.13485 0.65415
 N739 N 0.26137 0.11636 0.63538
 C740 C 0.23964 0.11119 0.62129
 N741 N 0.21812 0.12530 0.62682
 N742 N 0.21836 0.14385 0.64555
 C743 C 0.23955 0.09078 0.60017
 C744 C 0.21643 0.08330 0.58779
 C745 C 0.21643 0.06417 0.56777
 C746 C 0.23956 0.05221 0.55952
 C747 C 0.26266 0.05969 0.57188
 C748 C 0.26264 0.07868 0.59202
 H749 H 0.20261 0.18485 0.67102
 H750 H 0.20410 0.22003 0.70381
 H751 H 0.28019 0.19570 0.72759
 H752 H 0.27873 0.16066 0.69480
 H753 H 0.19829 0.09217 0.59360
 H754 H 0.19831 0.05887 0.55863
 H755 H 0.28080 0.05082 0.56604
 H756 H 0.28081 0.08399 0.60106
   
