data_POSCAR
  _audit_creation_date              2014-09-24
  _audit_creation_method            'ToBaCCo'
  _symmetry_space_group_name_H-M    'P1'
  _symmetry_Int_Tables_number       1
  _symmetry_cell_setting            triclinic
  loop_
  _symmetry_equiv_pos_as_xyz
 x,y,z
_cell_length_a 43.7218
_cell_length_b 43.4446
_cell_length_c 44.0781
_cell_angle_alpha 91.907200
_cell_angle_beta 89.676500
_cell_angle_gamma 88.575500
loop_
  _atom_site_label
  _atom_site_type_symbol
  _atom_site_fract_x
  _atom_site_fract_y
  _atom_site_fract_z
N1 N 0.57942 0.66266 0.60447
 N2 N 0.56548 0.65141 0.62799
 C3 C 0.53984 0.66836 0.63409
 C4 C 0.53746 0.69131 0.61312
 C5 C 0.56299 0.68691 0.59462
 H6 H 0.52398 0.66424 0.65232
 H7 H 0.56949 0.70076 0.57581
 Cu8 Cu 0.58205 0.61587 0.64870
 Cu9 Cu 0.61828 0.64570 0.58908
 Cu10 Cu 0.65051 0.58471 0.62731
 N11 N 0.60121 0.58221 0.67031
 N12 N 0.62826 0.57074 0.66241
 C13 C 0.63643 0.54865 0.68168
 C14 C 0.61309 0.54581 0.70287
 C15 C 0.59108 0.56760 0.69473
 H16 H 0.65763 0.53540 0.67990
 H17 H 0.56953 0.57299 0.70602
 N18 N 0.66955 0.60198 0.59125
 N19 N 0.65745 0.62548 0.57691
 C20 C 0.67586 0.63209 0.55354
 C21 C 0.70064 0.61164 0.55297
 C22 C 0.69583 0.59285 0.57719
 H23 H 0.67133 0.65012 0.53773
 H24 H 0.71058 0.57410 0.58421
 H25 H 0.61309 0.60149 0.60400
 H26 H 0.63255 0.62926 0.63034
 N27 N 0.91394 0.32115 0.12414
 N28 N 0.92259 0.33319 0.15032
 C29 C 0.94739 0.31742 0.15996
 C30 C 0.95497 0.29424 0.13851
 C31 C 0.93306 0.29751 0.11605
 H32 H 0.95932 0.32293 0.18075
 H33 H 0.93071 0.28357 0.09549
 Cu34 Cu 0.90140 0.36902 0.16896
 Cu35 Cu 0.87819 0.33652 0.10278
 Cu36 Cu 0.84083 0.40138 0.13393
 N37 N 0.88102 0.40651 0.18501
 N38 N 0.85720 0.41880 0.17147
 C39 C 0.84757 0.44420 0.18741
 C40 C 0.86651 0.44825 0.21221
 C41 C 0.88753 0.42390 0.20990
 H42 H 0.82852 0.45895 0.18112
 H43 H 0.90602 0.41908 0.22535
 N44 N 0.82766 0.38043 0.09610
 N45 N 0.84157 0.35539 0.08451
 C46 C 0.82671 0.34605 0.05929
 C47 C 0.80242 0.36631 0.05463
 C48 C 0.80377 0.38786 0.07838
 H49 H 0.83321 0.32612 0.04515
 H50 H 0.78810 0.40715 0.08273
 H51 H 0.88196 0.38151 0.11900
 H52 H 0.85561 0.35645 0.14011
 N53 N 0.41849 0.18499 -0.12324
 N54 N 0.43048 0.17072 -0.14740
 C55 C 0.45492 0.18627 -0.15667
 C56 C 0.45857 0.21154 -0.13715
 C57 C 0.43500 0.20994 -0.11618
 H58 H 0.46929 0.17947 -0.17589
 H59 H 0.43002 0.22589 -0.09736
 Cu60 Cu 0.41331 0.13297 -0.16414
 Cu61 Cu 0.38235 0.17024 -0.10280
 Cu62 Cu 0.35031 0.10386 -0.13304
 N63 N 0.39467 0.09610 -0.18117
 N64 N 0.36978 0.08512 -0.16918
 C65 C 0.36152 0.05995 -0.18546
 C66 C 0.38246 0.05472 -0.20885
 C67 C 0.40320 0.07813 -0.20538
 H68 H 0.34201 0.04618 -0.18034
 H69 H 0.42283 0.08196 -0.21967
 N70 N 0.33394 0.12613 -0.09658
 N71 N 0.34581 0.15169 -0.08535
 C72 C 0.32940 0.16150 -0.06078
 C73 C 0.30623 0.14101 -0.05616
 C74 C 0.30985 0.11887 -0.07928
 H75 H 0.33425 0.18173 -0.04689
 H76 H 0.29574 0.09909 -0.08335
 H77 H 0.38886 0.12429 -0.11538
 H78 H 0.36437 0.14807 -0.14064
 N79 N 0.08691 0.83061 0.37861
 N80 N 0.07914 0.83840 0.35113
 C81 C 0.05567 0.82117 0.34166
 C82 C 0.04802 0.80144 0.36456
 C83 C 0.06847 0.80833 0.38773
 H84 H 0.04485 0.82331 0.31983
 H85 H 0.07045 0.79756 0.40940
 Cu86 Cu 0.10012 0.87046 0.33025
 Cu87 Cu 0.12131 0.84893 0.39981
 Cu88 Cu 0.15366 0.91171 0.36688
 N89 N 0.11397 0.90928 0.31523
 N90 N 0.13540 0.92495 0.32912
 C91 C 0.14103 0.95030 0.31347
 C92 C 0.12187 0.95068 0.28856
 C93 C 0.10496 0.92429 0.29047
 H94 H 0.15743 0.96747 0.32002
 H95 H 0.08765 0.91639 0.27482
 N96 N 0.16864 0.89461 0.40506
 N97 N 0.15639 0.87057 0.41752
 C98 C 0.17196 0.86398 0.44286
 C99 C 0.19504 0.88497 0.44666
 C100 C 0.19217 0.90409 0.42228
 H101 H 0.16681 0.84534 0.45755
 H102 H 0.20658 0.92312 0.41713
 H103 H 0.11387 0.89103 0.38007
 H104 H 0.14469 0.86520 0.36288
 C105 C 0.11202 0.12287 0.14141
 C106 C 0.08791 0.14474 0.14076
 C107 C 0.08568 0.16543 0.11700
 C108 C 0.10797 0.16433 0.09388
 C109 C 0.13246 0.14290 0.09445
 C110 C 0.13449 0.12201 0.11825
 C111 C 0.11395 0.10173 0.16474
 C112 C 0.13825 0.08000 0.16543
 C113 C 0.16075 0.07948 0.14252
 C114 C 0.15891 0.10018 0.11882
 C115 C 0.18100 0.09930 0.09560
 C116 C 0.17916 0.12011 0.07190
 C117 C 0.15490 0.14192 0.07154
 H118 H 0.07055 0.14539 0.15846
 H119 H 0.10637 0.18043 0.07564
 H120 H 0.09670 0.10231 0.18253
 H121 H 0.17937 0.06253 0.14289
 H122 H 0.19983 0.08261 0.09607
 H123 H 0.15325 0.15780 0.05312
 C124 C 0.38096 0.86786 0.65083
 C125 C 0.40332 0.84425 0.65221
 C126 C 0.40417 0.81985 0.63045
 C127 C 0.38231 0.81914 0.60721
 C128 C 0.35958 0.84241 0.60574
 C129 C 0.35892 0.86692 0.62758
 C130 C 0.38028 0.89237 0.67235
 C131 C 0.35767 0.91586 0.67114
 C132 C 0.33564 0.91470 0.64806
 C133 C 0.33619 0.89047 0.62620
 C134 C 0.31438 0.88939 0.60300
 C135 C 0.31481 0.86493 0.58128
 C136 C 0.33748 0.84153 0.58282
 H137 H 0.42034 0.84501 0.66999
 H138 H 0.38275 0.80020 0.59055
 H139 H 0.39710 0.89301 0.69033
 H140 H 0.31832 0.93292 0.64691
 H141 H 0.29676 0.90733 0.60207
 H142 H 0.33809 0.82280 0.56592
 C143 C 0.90523 0.62543 0.36537
 C144 C 0.92735 0.64827 0.36602
 C145 C 0.92611 0.67217 0.38828
 C146 C 0.90235 0.67328 0.40991
 C147 C 0.87978 0.65089 0.40927
 C148 C 0.88126 0.62677 0.38700
 C149 C 0.90666 0.60130 0.34343
 C150 C 0.88430 0.57860 0.34262
 C151 C 0.86037 0.58017 0.36409
 C152 C 0.85877 0.60402 0.38633
 C153 C 0.83501 0.60552 0.40789
 C154 C 0.83325 0.62964 0.42993
 C155 C 0.85571 0.65224 0.43048
 H156 H 0.94583 0.64726 0.34947
 H157 H 0.90124 0.69187 0.42695
 H158 H 0.92497 0.60035 0.32670
 H159 H 0.84322 0.56257 0.36369
 H160 H 0.81757 0.58821 0.40724
 H161 H 0.85458 0.67070 0.44765
 C162 C 0.60837 0.38341 -0.14178
 C163 C 0.58516 0.36177 -0.14052
 C164 C 0.58398 0.34118 -0.11663
 C165 C 0.60634 0.34239 -0.09386
 C166 C 0.62980 0.36377 -0.09490
 C167 C 0.63085 0.38439 -0.11894
 C168 C 0.60950 0.40405 -0.16553
 C169 C 0.63306 0.42537 -0.16700
 C170 C 0.65546 0.42618 -0.14428
 C171 C 0.65438 0.40600 -0.12013
 C172 C 0.67642 0.40708 -0.09715
 C173 C 0.67550 0.38658 -0.07319
 C174 C 0.65223 0.36488 -0.07229
 H175 H 0.56778 0.36114 -0.15797
 H176 H 0.60570 0.32636 -0.07555
 H177 H 0.59234 0.40326 -0.18319
 H178 H 0.67349 0.44282 -0.14524
 H179 H 0.69453 0.42363 -0.09804
 H180 H 0.65135 0.34920 -0.05370
 C181 C -0.00243 0.26972 0.16553
 C182 C -0.02058 0.27241 0.13932
 C183 C -0.01362 0.25278 0.11391
 C184 C 0.01083 0.23127 0.11459
 C185 C 0.02842 0.22865 0.14120
 C186 C 0.02159 0.24797 0.16650
 C187 C 0.05266 0.20691 0.14198
 C188 C 0.05994 0.18815 0.11624
 C189 C 0.04261 0.19120 0.08975
 C190 C 0.01812 0.21243 0.08898
 H191 H -0.02669 0.25438 0.09323
 H192 H 0.03490 0.24634 0.18707
 H193 H 0.06620 0.20488 0.16239
 H194 H 0.00495 0.21416 0.06833
 H195 H -0.00687 0.28400 0.18569
 H196 H 0.04779 0.17682 0.06974
 C197 C 0.50751 0.73000 0.58371
 C198 C 0.51326 0.71561 0.61127
 C199 C 0.49589 0.72474 0.63711
 C200 C 0.47321 0.74805 0.63553
 C201 C 0.46744 0.76216 0.60762
 C202 C 0.48470 0.75295 0.58185
 C203 C 0.44467 0.78539 0.60602
 C204 C 0.42791 0.79505 0.63208
 C205 C 0.43401 0.78106 0.65975
 C206 C 0.45636 0.75765 0.66144
 H207 H 0.50034 0.71415 0.65860
 H208 H 0.48061 0.76354 0.56029
 H209 H 0.44033 0.79633 0.58466
 H210 H 0.46051 0.74712 0.68303
 H211 H 0.52040 0.72326 0.56342
 H212 H 0.42119 0.78803 0.68003
 C213 C 1.00874 0.77222 0.33738
 C214 C 1.02502 0.77917 0.36420
 C215 C 1.01782 0.76320 0.39059
 C216 C 0.99507 0.74095 0.39018
 C217 C 0.97947 0.73395 0.36294
 C218 C 0.98643 0.74975 0.33673
 C219 C 0.95710 0.71133 0.36241
 C220 C 0.94970 0.69601 0.38893
 C221 C 0.96493 0.70349 0.41605
 C222 C 0.98758 0.72563 0.41664
 H223 H 1.02943 0.76817 0.41173
 H224 H 0.97460 0.74475 0.31567
 H225 H 0.94514 0.70590 0.34149
 H226 H 0.99922 0.73077 0.43778
 H227 H 1.01341 0.78362 0.31649
 H228 H 0.95961 0.69182 0.43669
 C229 C 0.49856 0.23951 -0.16553
 C230 C 0.48260 0.23494 -0.13834
 C231 C 0.48990 0.25272 -0.11224
 C232 C 0.51294 0.27460 -0.11324
 C233 C 0.52870 0.27909 -0.14077
 C234 C 0.52131 0.26145 -0.16677
 C235 C 0.55170 0.30099 -0.14178
 C236 C 0.55944 0.31829 -0.11554
 C237 C 0.54376 0.31352 -0.08825
 C238 C 0.52063 0.29195 -0.08712
 H239 H 0.47808 0.24923 -0.09102
 H240 H 0.53316 0.26459 -0.18806
 H241 H 0.56395 0.30423 -0.16285
 H242 H 0.50881 0.28882 -0.06582
 H243 H 0.49325 0.22637 -0.18604
 H244 H 0.54917 0.32678 -0.06782
 C245 C 0.09270 -0.02154 0.24868
 C246 C 0.11989 -0.02587 0.26502
 C247 C 0.14523 -0.00783 0.25856
 C248 C 0.14355 0.01403 0.23585
 C249 C 0.11598 0.01838 0.21976
 C250 C 0.09069 0.00053 0.22639
 C251 C 0.11426 0.04029 0.19711
 C252 C 0.13994 0.05749 0.18989
 C253 C 0.16732 0.05281 0.20579
 C254 C 0.16907 0.03141 0.22873
 H255 H 0.16645 -0.01122 0.27073
 H256 H 0.06939 0.00352 0.21425
 H257 H 0.09318 0.04354 0.18465
 H258 H 0.19040 0.02832 0.24077
 H259 H 0.07279 -0.03496 0.25338
 H260 H 0.18730 0.06597 0.20062
 C261 C 0.58496 0.52281 -0.25553
 C262 C 0.61197 0.52544 -0.27284
 C263 C 0.63784 0.50724 -0.26524
 C264 C 0.63679 0.48715 -0.24098
 C265 C 0.60938 0.48454 -0.22426
 C266 C 0.58365 0.50247 -0.23171
 C267 C 0.60822 0.46416 -0.20026
 C268 C 0.63432 0.44676 -0.19238
 C269 C 0.66161 0.44985 -0.20882
 C270 C 0.66280 0.46971 -0.23306
 H271 H 0.65912 0.50888 -0.27766
 H272 H 0.56246 0.50081 -0.21907
 H273 H 0.58718 0.46213 -0.18741
 H274 H 0.68406 0.47148 -0.24556
 H275 H 0.56443 0.53602 -0.26049
 H276 H 0.68192 0.43650 -0.20316
 C277 C 0.41019 1.02041 0.75275
 C278 C 0.38279 1.02943 0.76775
 C279 C 0.35576 1.01409 0.76032
 C280 C 0.35606 0.99008 0.73821
 C281 C 0.38382 0.98097 0.72355
 C282 C 0.41073 0.99632 0.73095
 C283 C 0.38421 0.95671 0.70172
 C284 C 0.35712 0.94162 0.69406
 C285 C 0.32956 0.95110 0.70847
 C286 C 0.32905 0.97504 0.73046
 H287 H 0.33439 1.02105 0.77141
 H288 H 0.43221 0.98967 0.71990
 H289 H 0.40550 0.94980 0.69042
 H290 H 0.30755 0.98174 0.74142
 H291 H 0.43138 1.03164 0.75817
 H292 H 0.30848 0.93962 0.70305
 C293 C 0.83714 0.48974 0.24149
 C294 C 0.86479 0.47330 0.23583
 C295 C 0.89082 0.48105 0.25278
 C296 C 0.88930 0.50500 0.27495
 C297 C 0.86130 0.52119 0.28060
 C298 C 0.83536 0.51337 0.26377
 C299 C 0.85974 0.54504 0.30287
 C300 C 0.88594 0.55323 0.31931
 C301 C 0.91372 0.53717 0.31333
 C302 C 0.91537 0.51317 0.29144
 H303 H 0.91239 0.46885 0.24841
 H304 H 0.81372 0.52555 0.26778
 H305 H 0.83830 0.55758 0.30708
 H306 H 0.93704 0.50103 0.28739
 H307 H 0.81670 0.48411 0.22896
 H308 H 0.93411 0.54296 0.32591
 C309 C 0.27462 0.17050 -0.01695
 C310 C 0.28287 0.14229 -0.03167
 C311 C 0.26872 0.11527 -0.02279
 C312 C 0.24672 0.11637 0.00054
 C313 C 0.23835 0.14493 0.01495
 C314 C 0.25244 0.17184 0.00604
 C315 C 0.21615 0.14605 0.03811
 C316 C 0.20251 0.11892 0.04738
 C317 C 0.21124 0.09062 0.03313
 C318 C 0.23304 0.08936 0.00981
 H319 H 0.27516 0.09330 -0.03365
 H320 H 0.24635 0.19392 0.01687
 H321 H 0.20979 0.16792 0.04924
 H322 H 0.23922 0.06727 -0.00095
 H323 H 0.28499 0.19167 -0.02349
 H324 H 0.20083 0.06949 0.03980
 C325 C 0.74327 0.58234 0.52589
 C326 C 0.72646 0.61004 0.53105
 C327 C 0.73444 0.63619 0.51509
 C328 C 0.75887 0.63472 0.49427
 C329 C 0.77536 0.60663 0.48897
 C330 C 0.76740 0.58060 0.50493
 C331 C 0.79955 0.60507 0.46788
 C332 C 0.80778 0.63135 0.45228
 C333 C 0.79150 0.65925 0.45799
 C334 C 0.76717 0.66090 0.47870
 H335 H 0.72195 0.65780 0.51914
 H336 H 0.77981 0.55890 0.50120
 H337 H 0.81224 0.58355 0.46385
 H338 H 0.75483 0.68264 0.48252
 H339 H 0.73748 0.56180 0.53769
 H340 H 0.79734 0.67970 0.44604
 C341 C 0.77326 0.33680 0.01505
 C342 C 0.77966 0.36500 0.02992
 C343 C 0.76411 0.39194 0.02111
 C344 C 0.74246 0.39076 -0.00226
 C345 C 0.73587 0.36218 -0.01674
 C346 C 0.75144 0.33536 -0.00795
 C347 C 0.71390 0.36093 -0.03980
 C348 C 0.69875 0.38795 -0.04892
 C349 C 0.70579 0.41630 -0.03471
 C350 C 0.72734 0.41768 -0.01145
 H351 H 0.76913 0.41390 0.03211
 H352 H 0.74672 0.31327 -0.01885
 H353 H 0.70882 0.33903 -0.05093
 H354 H 0.73216 0.43979 -0.00067
 H355 H 0.78476 0.31569 0.02154
 H356 H 0.69422 0.43735 -0.04131
 C357 C 0.23332 0.91382 0.47792
 C358 C 0.21809 0.88633 0.47116
 C359 C 0.22513 0.86008 0.48786
 C360 C 0.24714 0.86121 0.51089
 C361 C 0.26214 0.88905 0.51763
 C362 C 0.25505 0.91521 0.50102
 C363 C 0.28407 0.89019 0.54075
 C364 C 0.29149 0.86376 0.55701
 C365 C 0.27659 0.83616 0.54997
 C366 C 0.25453 0.83491 0.52720
 H367 H 0.21390 0.83861 0.48268
 H368 H 0.26633 0.93673 0.50586
 H369 H 0.29571 0.91149 0.54578
 H370 H 0.24328 0.81338 0.52233
 H371 H 0.22819 0.93444 0.46561
 H372 H 0.28177 0.81560 0.56240
   
