data_POSCAR
  _audit_creation_date              2014-09-24
  _audit_creation_method            'ToBaCCo'
  _symmetry_space_group_name_H-M    'P1'
  _symmetry_Int_Tables_number       1
  _symmetry_cell_setting            triclinic
  loop_
  _symmetry_equiv_pos_as_xyz
 x,y,z
_cell_length_a 41.2011
_cell_length_b 41.2010
_cell_length_c 41.2010
_cell_angle_alpha 90.000900
_cell_angle_beta 89.997700
_cell_angle_gamma 89.999100
loop_
  _atom_site_label
  _atom_site_type_symbol
  _atom_site_fract_x
  _atom_site_fract_y
  _atom_site_fract_z
N1 N 0.18341 0.18340 0.18341
 N2 N 0.68341 0.68341 0.68341
 N3 N 0.31658 0.81657 0.68339
 N4 N 0.81658 0.31658 0.18340
 N5 N 0.81661 0.68340 0.31658
 N6 N 0.31662 0.18339 -0.18342
 N7 N 0.68340 0.31662 -0.18338
 N8 N 0.18340 0.81662 0.31662
 N9 N 0.43341 0.43341 0.43340
 N10 N -0.06659 -0.06659 0.93340
 N11 N 1.06663 0.56660 0.93340
 N12 N 0.56663 0.06661 0.43340
 N13 N -0.06659 0.06659 0.56660
 N14 N 0.43340 0.56659 0.06660
 N15 N 0.56657 -0.06661 0.06659
 N16 N 1.06657 0.43339 0.56659
 C17 C 0.42469 0.01205 0.20572
 H18 H 0.42507 0.03542 0.21768
 C19 C 0.44747 0.00499 0.18165
 H20 H 0.46540 0.02301 0.17491
 C21 C 0.40173 -0.04053 0.20080
 H22 H 0.38441 -0.05846 0.20889
 C23 C 0.42411 -0.04859 0.17661
 H24 H 0.42378 -0.07262 0.16594
 N25 N 0.40243 -0.01060 0.21479
 C26 C 0.32533 0.04433 0.26208
 H27 H 0.32495 0.03237 0.28545
 C28 C 0.30255 0.06840 0.25502
 H29 H 0.28462 0.07513 0.27304
 C30 C 0.34828 0.04925 0.20949
 H31 H 0.36560 0.04115 0.19155
 C32 C 0.32589 0.07343 0.20143
 H33 H 0.32622 0.08409 0.17740
 Zn34 Zn 0.37501 0.00001 0.25003
 N35 N 0.34758 0.03526 0.23942
 C36 C 0.40174 0.04056 0.29926
 N37 N 0.40244 0.01063 0.28527
 C38 C 0.42469 -0.01203 0.29433
 C39 C 0.44748 -0.00498 0.31839
 C40 C 0.42414 0.04861 0.32343
 C41 C 0.32532 -0.04429 0.23799
 C42 C 0.30253 -0.06835 0.24505
 C43 C 0.32588 -0.07339 0.29863
 C44 C 0.34827 -0.04921 0.29057
 N45 N 0.34757 -0.03522 0.26065
 H46 H 0.38443 0.05849 0.29116
 H47 H 0.42506 -0.03540 0.28237
 H48 H 0.46541 -0.02300 0.32512
 H49 H 0.42381 0.07264 0.33410
 H50 H 0.32494 -0.03232 0.21462
 H51 H 0.28460 -0.07507 0.22703
 H52 H 0.32622 -0.08406 0.32266
 H53 H 0.36560 -0.04112 0.30851
 C54 C 0.30271 0.08291 0.22435
 C55 C 0.44730 -0.02567 0.16712
 C56 C 0.30269 -0.08287 0.27571
 C57 C 0.44732 0.02569 0.33291
 C58 C 0.07532 -0.01204 0.70570
 H59 H 0.07494 -0.03541 0.71767
 C60 C 0.05253 -0.00499 0.68163
 H61 H 0.03460 -0.02300 0.67491
 C62 C 0.09828 0.04054 0.70076
 H63 H 0.11560 0.05847 0.70885
 C64 C 0.07589 0.04859 0.67658
 H65 H 0.07622 0.07262 0.66591
 N66 N 0.09757 0.01061 0.71476
 C67 C 0.17469 -0.04431 0.76204
 H68 H 0.17507 -0.03234 0.78541
 C69 C 0.19747 -0.06838 0.75499
 H70 H 0.21540 -0.07511 0.77300
 C71 C 0.15173 -0.04924 0.70946
 H72 H 0.13441 -0.04114 0.69153
 C73 C 0.17411 -0.07342 0.70141
 H74 H 0.17378 -0.08409 0.67738
 Zn75 Zn 0.12500 0.00000 0.75000
 N76 N 0.15243 -0.03524 0.73938
 C77 C 0.09828 -0.04053 0.79923
 N78 N 0.09758 -0.01060 0.78524
 C79 C 0.07532 0.01206 0.79431
 C80 C 0.05254 0.00500 0.81837
 C81 C 0.07589 -0.04858 0.82341
 C82 C 0.17469 0.04430 0.73795
 C83 C 0.19748 0.06837 0.74500
 C84 C 0.17413 0.07342 0.79858
 C85 C 0.15174 0.04924 0.79053
 N86 N 0.15244 0.03524 0.76061
 H87 H 0.11559 -0.05847 0.79114
 H88 H 0.07495 0.03543 0.78234
 H89 H 0.03461 0.02302 0.82510
 H90 H 0.07621 -0.07261 0.83408
 H91 H 0.17507 0.03233 0.71458
 H92 H 0.21541 0.07509 0.72698
 H93 H 0.17380 0.08409 0.82261
 H94 H 0.13442 0.04115 0.80847
 C95 C 0.19730 -0.08290 0.72432
 C96 C 0.05270 0.02567 0.66711
 C97 C 0.19732 0.08289 0.77566
 C98 C 0.05270 -0.02566 0.83290
 C99 C 0.57532 0.48796 0.20569
 H100 H 0.57494 0.46459 0.21767
 C101 C 0.55253 0.49501 0.18163
 H102 H 0.53460 0.47700 0.17491
 C103 C 0.59827 0.54054 0.20076
 H104 H 0.61560 0.55848 0.20885
 C105 C 0.57588 0.54859 0.17658
 H106 H 0.57622 0.57262 0.16591
 N107 N 0.59757 0.51062 0.21476
 C108 C 0.67469 0.45570 0.26204
 H109 H 0.67507 0.46767 0.28541
 C110 C 0.69747 0.43163 0.25499
 H111 H 0.71540 0.42490 0.27300
 C112 C 0.65173 0.45077 0.20946
 H113 H 0.63441 0.45886 0.19152
 C114 C 0.67411 0.42659 0.20140
 H115 H 0.67378 0.41592 0.17737
 Zn116 Zn 0.62500 0.50001 0.24999
 N117 N 0.65243 0.46477 0.23938
 C118 C 0.59828 0.45947 0.29923
 N119 N 0.59758 0.48940 0.28524
 C120 C 0.57532 0.51206 0.29431
 C121 C 0.55254 0.50501 0.31837
 C122 C 0.57589 0.45142 0.32341
 C123 C 0.67469 0.54431 0.23794
 C124 C 0.69747 0.56838 0.24499
 C125 C 0.67413 0.57342 0.29858
 C126 C 0.65174 0.54924 0.29053
 N127 N 0.65243 0.53525 0.26060
 H128 H 0.61559 0.44154 0.29114
 H129 H 0.57494 0.53543 0.28234
 H130 H 0.53461 0.52302 0.32510
 H131 H 0.57622 0.42739 0.33408
 H132 H 0.67507 0.53234 0.21457
 H133 H 0.71541 0.57510 0.22698
 H134 H 0.67380 0.58409 0.32261
 H135 H 0.63442 0.54115 0.30846
 C136 C 0.69730 0.41711 0.22432
 C137 C 0.55269 0.52568 0.16710
 C138 C 0.69732 0.58290 0.27566
 C139 C 0.55270 0.47434 0.33289
 C140 C 0.92468 0.51205 0.70572
 H141 H 0.92507 0.53542 0.71769
 C142 C 0.94746 0.50499 0.68165
 H143 H 0.96540 0.52301 0.67492
 C144 C 0.90172 0.45947 0.70080
 H145 H 0.88440 0.44154 0.70889
 C146 C 0.92411 0.45141 0.67661
 H147 H 0.92377 0.42738 0.66595
 N148 N 0.90243 0.48940 0.71479
 C149 C 0.82532 0.54433 0.76208
 H150 H 0.82495 0.53237 0.78545
 C151 C 0.80254 0.56840 0.75502
 H152 H 0.78461 0.57513 0.77304
 C153 C 0.84828 0.54924 0.70949
 H154 H 0.86559 0.54115 0.69156
 C155 C 0.82589 0.57342 0.70143
 H156 H 0.82622 0.58409 0.67740
 Zn157 Zn 0.87500 0.50001 0.75003
 N158 N 0.84758 0.53526 0.73942
 C159 C 0.90174 0.54055 0.79926
 N160 N 0.90243 0.51063 0.78527
 C161 C 0.92468 0.48797 0.79434
 C162 C 0.94747 0.49502 0.81840
 C163 C 0.92413 0.54861 0.82344
 C164 C 0.82531 0.45571 0.73799
 C165 C 0.80253 0.43165 0.74505
 C166 C 0.82588 0.42661 0.79863
 C167 C 0.84827 0.45079 0.79058
 N168 N 0.84757 0.46478 0.76065
 H169 H 0.88442 0.55849 0.79117
 H170 H 0.92506 0.46459 0.78237
 H171 H 0.96540 0.47700 0.82513
 H172 H 0.92380 0.57264 0.83410
 H173 H 0.82494 0.46768 0.71462
 H174 H 0.78459 0.42492 0.72703
 H175 H 0.82621 0.41594 0.82266
 H176 H 0.86559 0.45888 0.80851
 C177 C 0.80270 0.58291 0.72435
 C178 C 0.94730 0.47433 0.66713
 C179 C 0.80269 0.41713 0.77571
 C180 C 0.94732 0.52569 0.83292
 C181 C 0.20571 0.42467 0.01204
 H182 H 0.21767 0.42505 0.03541
 C183 C 0.18164 0.44746 0.00499
 H184 H 0.17492 0.46539 0.02300
 C185 C 0.20078 0.40172 -0.04055
 H186 H 0.20887 0.38440 -0.05848
 C187 C 0.17660 0.42411 -0.04860
 H188 H 0.16593 0.42379 -0.07263
 N189 N 0.21477 0.40242 -0.01062
 C190 C 0.26205 0.32530 0.04430
 H191 H 0.28542 0.32492 0.03233
 C192 C 0.25500 0.30252 0.06836
 H193 H 0.27301 0.28459 0.07509
 C194 C 0.20947 0.34826 0.04922
 H195 H 0.19154 0.36558 0.04113
 C196 C 0.20141 0.32587 0.07340
 H197 H 0.17738 0.32621 0.08407
 Zn198 Zn 0.25001 0.37499 -0.00001
 N199 N 0.23940 0.34756 0.03523
 C200 C 0.29924 0.40171 0.04053
 N201 N 0.28525 0.40241 0.01060
 C202 C 0.29432 0.42467 -0.01205
 C203 C 0.31839 0.44745 -0.00500
 C204 C 0.32342 0.42410 0.04859
 C205 C 0.23797 0.32531 -0.04432
 C206 C 0.24502 0.30252 -0.06839
 C207 C 0.29860 0.32587 -0.07342
 C208 C 0.29055 0.34826 -0.04924
 N209 N 0.26062 0.34756 -0.03525
 H210 H 0.29115 0.38439 0.05846
 H211 H 0.28235 0.42505 -0.03542
 H212 H 0.32511 0.46538 -0.02301
 H213 H 0.33409 0.42377 0.07262
 H214 H 0.21459 0.32493 -0.03235
 H215 H 0.22700 0.28459 -0.07512
 H216 H 0.32264 0.32620 -0.08409
 H217 H 0.30849 0.36558 -0.04115
 C218 C 0.22433 0.30268 0.08289
 C219 C 0.16712 0.44730 -0.02568
 C220 C 0.27569 0.30268 -0.08291
 C221 C 0.33291 0.44729 0.02567
 C222 C 0.70566 0.07531 -0.01206
 H223 H 0.71763 0.07493 -0.03543
 C224 C 0.68160 0.05252 -0.00501
 H225 H 0.67487 0.03459 -0.02303
 C226 C 0.70073 0.09826 0.04053
 H227 H 0.70883 0.11557 0.05846
 C228 C 0.67655 0.07587 0.04858
 H229 H 0.66589 0.07620 0.07261
 N230 N 0.71473 0.09756 0.01060
 C231 C 0.76202 0.17467 -0.04431
 H232 H 0.78539 0.17505 -0.03234
 C233 C 0.75497 0.19746 -0.06837
 H234 H 0.77299 0.21539 -0.07509
 C235 C 0.70944 0.15172 -0.04924
 H236 H 0.69150 0.13440 -0.04115
 C237 C 0.70139 0.17412 -0.07342
 H238 H 0.67736 0.17379 -0.08409
 Zn239 Zn 0.74997 0.12499 -0.00001
 N240 N 0.73936 0.15242 -0.03525
 C241 C 0.79921 0.09826 -0.04055
 N242 N 0.78521 0.09756 -0.01062
 C243 C 0.79427 0.07530 0.01204
 C244 C 0.81834 0.05252 0.00498
 C245 C 0.82339 0.07587 -0.04860
 C246 C 0.73792 0.17467 0.04430
 C247 C 0.74498 0.19745 0.06837
 C248 C 0.79856 0.17409 0.07341
 C249 C 0.79051 0.15171 0.04923
 N250 N 0.76058 0.15241 0.03524
 H251 H 0.79112 0.11558 -0.05848
 H252 H 0.78230 0.07492 0.03540
 H253 H 0.82507 0.03458 0.02300
 H254 H 0.83406 0.07620 -0.07263
 H255 H 0.71456 0.17505 0.03233
 H256 H 0.72696 0.21538 0.07510
 H257 H 0.82259 0.17376 0.08408
 H258 H 0.80844 0.13439 0.04114
 C259 C 0.72431 0.19731 -0.08289
 C260 C 0.66707 0.05268 0.02566
 C261 C 0.77564 0.19729 0.08289
 C262 C 0.83287 0.05268 -0.02568
 C263 C 0.20566 0.57530 0.48794
 H264 H 0.21763 0.57493 0.46457
 C265 C 0.18159 0.55252 0.49499
 H266 H 0.17486 0.53459 0.47697
 C267 C 0.20073 0.59826 0.54053
 H268 H 0.20883 0.61557 0.55846
 C269 C 0.17655 0.57587 0.54858
 H270 H 0.16589 0.57620 0.57261
 N271 N 0.21473 0.59756 0.51060
 C272 C 0.26202 0.67467 0.45569
 H273 H 0.28539 0.67504 0.46766
 C274 C 0.25497 0.69746 0.43163
 H275 H 0.27299 0.71539 0.42490
 C276 C 0.20944 0.65172 0.45076
 H277 H 0.19150 0.63440 0.45885
 C278 C 0.20139 0.67412 0.42658
 H279 H 0.17736 0.67379 0.41591
 Zn280 Zn 0.24997 0.62498 0.49999
 N281 N 0.23936 0.65242 0.46475
 C282 C 0.29921 0.59826 0.45945
 N283 N 0.28521 0.59755 0.48938
 C284 C 0.29427 0.57530 0.51203
 C285 C 0.31834 0.55251 0.50498
 C286 C 0.32339 0.57587 0.45140
 C287 C 0.23793 0.67466 0.54430
 C288 C 0.24498 0.69745 0.56837
 C289 C 0.29856 0.67409 0.57341
 C290 C 0.29051 0.65170 0.54923
 N291 N 0.26058 0.65241 0.53523
 H292 H 0.29112 0.61558 0.44152
 H293 H 0.28230 0.57492 0.53540
 H294 H 0.32507 0.53458 0.52299
 H295 H 0.33406 0.57620 0.42737
 H296 H 0.21456 0.67505 0.53233
 H297 H 0.22696 0.71538 0.57509
 H298 H 0.32259 0.67376 0.58408
 H299 H 0.30844 0.63438 0.54113
 C300 C 0.22431 0.69730 0.41710
 C301 C 0.16707 0.55268 0.52566
 C302 C 0.27564 0.69728 0.58289
 C303 C 0.33287 0.55268 0.47432
 C304 C 0.70571 0.92468 0.51204
 H305 H 0.71768 0.92506 0.53541
 C306 C 0.68165 0.94747 0.50499
 H307 H 0.67492 0.96540 0.52300
 C308 C 0.70079 0.90173 0.45946
 H309 H 0.70888 0.88441 0.44152
 C310 C 0.67661 0.92412 0.45140
 H311 H 0.66594 0.92379 0.42737
 N312 N 0.71478 0.90242 0.48938
 C313 C 0.76206 0.82531 0.54430
 H314 H 0.78543 0.82493 0.53233
 C315 C 0.75500 0.80253 0.56837
 H316 H 0.77302 0.78459 0.57509
 C317 C 0.70947 0.84827 0.54923
 H318 H 0.69154 0.86559 0.54114
 C319 C 0.70142 0.82588 0.57341
 H320 H 0.67739 0.82621 0.58408
 Zn321 Zn 0.75002 0.87499 0.49999
 N322 N 0.73940 0.84756 0.53523
 C323 C 0.79925 0.90172 0.54054
 N324 N 0.78526 0.90242 0.51061
 C325 C 0.79433 0.92467 0.48795
 C326 C 0.81839 0.94746 0.49501
 C327 C 0.82343 0.92411 0.54859
 C328 C 0.73797 0.82531 0.45569
 C329 C 0.74502 0.80253 0.43162
 C330 C 0.79861 0.82587 0.42658
 C331 C 0.79056 0.84826 0.45076
 N332 N 0.76063 0.84756 0.46475
 H333 H 0.79115 0.88440 0.55847
 H334 H 0.78236 0.92505 0.46458
 H335 H 0.82512 0.96539 0.47699
 H336 H 0.83409 0.92378 0.57262
 H337 H 0.71460 0.82493 0.46765
 H338 H 0.72701 0.78460 0.42489
 H339 H 0.82264 0.82620 0.41591
 H340 H 0.80849 0.86558 0.45886
 C341 C 0.72434 0.80269 0.58289
 C342 C 0.66713 0.94731 0.47432
 C343 C 0.77569 0.80269 0.41710
 C344 C 0.83291 0.94730 0.52567
 C345 C 0.01203 0.20569 0.42468
 H346 H 0.03540 0.21766 0.42505
 C347 C 0.00498 0.18162 0.44746
 H348 H 0.02300 0.17490 0.46539
 C349 C -0.04055 0.20075 0.40172
 H350 H -0.05849 0.20884 0.38440
 C351 C -0.04860 0.17657 0.42411
 H352 H -0.07263 0.16590 0.42378
 N353 N -0.01063 0.21475 0.40242
 C354 C 0.04428 0.26204 0.32531
 H355 H 0.03231 0.28541 0.32493
 C356 C 0.06835 0.25499 0.30252
 H357 H 0.07508 0.27301 0.28459
 C358 C 0.04922 0.20946 0.34826
 H359 H 0.04113 0.19152 0.36558
 C360 C 0.07340 0.20141 0.32588
 H361 H 0.08407 0.17738 0.32621
 Zn362 Zn -0.00002 0.24999 0.37499
 N363 N 0.03522 0.23938 0.34756
 C364 C 0.04051 0.29923 0.40172
 N365 N 0.01058 0.28523 0.40242
 C366 C -0.01207 0.29430 0.42468
 C367 C -0.00502 0.31836 0.44746
 C368 C 0.04856 0.32341 0.42411
 C369 C -0.04433 0.23794 0.32531
 C370 C -0.06839 0.24499 0.30253
 C371 C -0.07344 0.29857 0.32588
 C372 C -0.04926 0.29052 0.34827
 N373 N -0.03526 0.26060 0.34756
 H374 H 0.05844 0.29114 0.38440
 H375 H -0.03544 0.28232 0.42506
 H376 H -0.02304 0.32509 0.46539
 H377 H 0.07259 0.33408 0.42378
 H378 H -0.03235 0.21457 0.32493
 H379 H -0.07512 0.22697 0.28459
 H380 H -0.08411 0.32260 0.32621
 H381 H -0.04117 0.30846 0.36558
 C382 C 0.08288 0.22433 0.30269
 C383 C -0.02568 0.16710 0.44730
 C384 C -0.08292 0.27565 0.30269
 C385 C 0.02564 0.33289 0.44730
 C386 C -0.01201 0.70571 0.07531
 H387 H -0.03538 0.71768 0.07494
 C388 C -0.00495 0.68165 0.05253
 H389 H -0.02297 0.67492 0.03460
 C390 C 0.04057 0.70079 0.09827
 H391 H 0.05851 0.70888 0.11559
 C392 C 0.04863 0.67661 0.07588
 H393 H 0.07266 0.66594 0.07621
 N394 N 0.01065 0.71478 0.09757
 C395 C -0.04428 0.76206 0.17468
 H396 H -0.03232 0.78543 0.17506
 C397 C -0.06835 0.75500 0.19746
 H398 H -0.07508 0.77301 0.21540
 C399 C -0.04920 0.70947 0.15172
 H400 H -0.04110 0.69154 0.13440
 C401 C -0.07338 0.70142 0.17411
 H402 H -0.08405 0.67738 0.17378
 Zn403 Zn 0.00003 0.75002 0.12500
 N404 N -0.03521 0.73940 0.15243
 C405 C -0.04051 0.79925 0.09827
 N406 N -0.01059 0.78526 0.09757
 C407 C 0.01207 0.79433 0.07532
 C408 C 0.00502 0.81840 0.05254
 C409 C -0.04857 0.82343 0.07589
 C410 C 0.04434 0.73797 0.17468
 C411 C 0.06840 0.74503 0.19747
 C412 C 0.07343 0.79862 0.17412
 C413 C 0.04926 0.79056 0.15173
 N414 N 0.03527 0.76063 0.15243
 H415 H -0.05845 0.79115 0.11559
 H416 H 0.03544 0.78237 0.07494
 H417 H 0.02303 0.82513 0.03461
 H418 H -0.07260 0.83409 0.07622
 H419 H 0.03237 0.71460 0.17506
 H420 H 0.07513 0.72701 0.21540
 H421 H 0.08410 0.82265 0.17380
 H422 H 0.04116 0.80850 0.13441
 C423 C -0.08287 0.72433 0.19730
 C424 C 0.02571 0.66713 0.05269
 C425 C 0.08292 0.77570 0.19731
 C426 C -0.02565 0.83291 0.05270
 C427 C 0.48799 0.20571 0.57531
 H428 H 0.46462 0.21768 0.57493
 C429 C 0.49505 0.18165 0.55253
 H430 H 0.47703 0.17492 0.53459
 C431 C 0.54057 0.20079 0.59826
 H432 H 0.55851 0.20888 0.61558
 C433 C 0.54863 0.17661 0.57587
 H434 H 0.57266 0.16594 0.57621
 N435 N 0.51065 0.21478 0.59756
 C436 C 0.45572 0.26205 0.67468
 H437 H 0.46768 0.28543 0.67506
 C438 C 0.43165 0.25500 0.69746
 H439 H 0.42492 0.27301 0.71539
 C440 C 0.45080 0.20947 0.65172
 H441 H 0.45890 0.19154 0.63440
 C442 C 0.42662 0.20141 0.67411
 H443 H 0.41595 0.17738 0.67377
 Zn444 Zn 0.50003 0.25002 0.62500
 N445 N 0.46479 0.23940 0.65242
 C446 C 0.45948 0.29925 0.59827
 N447 N 0.48941 0.28526 0.59757
 C448 C 0.51207 0.29433 0.57532
 C449 C 0.50502 0.31840 0.55253
 C450 C 0.45143 0.32343 0.57588
 C451 C 0.54433 0.23797 0.67468
 C452 C 0.56840 0.24503 0.69747
 C453 C 0.57343 0.29862 0.67412
 C454 C 0.54925 0.29056 0.65173
 N455 N 0.53527 0.26063 0.65243
 H456 H 0.44155 0.29115 0.61559
 H457 H 0.53544 0.28237 0.57494
 H458 H 0.52303 0.32513 0.53460
 H459 H 0.42740 0.33409 0.57621
 H460 H 0.53237 0.21460 0.67505
 H461 H 0.57512 0.22701 0.71540
 H462 H 0.58409 0.32265 0.67380
 H463 H 0.54116 0.30850 0.63441
 C464 C 0.41713 0.22433 0.69730
 C465 C 0.52571 0.16713 0.55269
 C466 C 0.58291 0.27570 0.69731
 C467 C 0.47435 0.33291 0.55269
 C468 C 0.51203 0.70568 0.92468
 H469 H 0.53540 0.71766 0.92505
 C470 C 0.50498 0.68162 0.94746
 H471 H 0.52300 0.67489 0.96539
 C472 C 0.45945 0.70075 0.90172
 H473 H 0.44151 0.70884 0.88440
 C474 C 0.45140 0.67657 0.92411
 H475 H 0.42737 0.66590 0.92378
 N476 N 0.48937 0.71475 0.90242
 C477 C 0.54428 0.76204 0.82531
 H478 H 0.53231 0.78541 0.82493
 C479 C 0.56835 0.75499 0.80252
 H480 H 0.57507 0.77300 0.78459
 C481 C 0.54922 0.70945 0.84826
 H482 H 0.54113 0.69152 0.86558
 C483 C 0.57340 0.70140 0.82587
 H484 H 0.58407 0.67738 0.82621
 Zn485 Zn 0.49998 0.74999 0.87499
 N486 N 0.53522 0.73938 0.84756
 C487 C 0.54051 0.79923 0.90172
 N488 N 0.51058 0.78523 0.90242
 C489 C 0.48792 0.79429 0.92468
 C490 C 0.49497 0.81836 0.94746
 C491 C 0.54856 0.82341 0.92411
 C492 C 0.45567 0.73793 0.82531
 C493 C 0.43161 0.74498 0.80253
 C494 C 0.42656 0.79857 0.82588
 C495 C 0.45074 0.79052 0.84826
 N496 N 0.46473 0.76059 0.84756
 H497 H 0.55844 0.79114 0.88440
 H498 H 0.46456 0.78232 0.92505
 H499 H 0.47696 0.82508 0.96539
 H500 H 0.57259 0.83408 0.92378
 H501 H 0.46764 0.71457 0.82493
 H502 H 0.42488 0.72697 0.78459
 H503 H 0.41589 0.82260 0.82621
 H504 H 0.45883 0.80845 0.86558
 C505 C 0.58288 0.72432 0.80268
 C506 C 0.47432 0.66709 0.94730
 C507 C 0.41708 0.77565 0.80269
 C508 C 0.52564 0.83288 0.94730
 C509 C 0.16374 0.19245 0.20919
 C510 C 0.14618 0.20006 0.23134
 C511 C 0.12491 0.20868 0.25678
 C512 C 0.10612 0.21588 0.27801
 C513 C 0.66373 0.69245 0.70919
 C514 C 0.64617 0.70006 0.73134
 C515 C 0.62491 0.70868 0.75678
 C516 C 0.60611 0.71587 0.77801
 C517 C 0.33625 0.80753 0.70918
 C518 C 0.35380 0.79992 0.73134
 C519 C 0.37506 0.79129 0.75677
 C520 C 0.39385 0.78410 0.77801
 C521 C -0.16375 0.30753 0.20918
 C522 C -0.14620 0.29992 0.23134
 C523 C -0.12494 0.29130 0.25677
 C524 C -0.10615 0.28410 0.27801
 C525 C -0.16372 0.69244 0.29080
 C526 C -0.14616 0.70005 0.26864
 C527 C -0.12490 0.70868 0.24321
 C528 C -0.10610 0.71587 0.22198
 C529 C 0.33628 0.19243 0.79079
 C530 C 0.35384 0.20005 0.76864
 C531 C 0.37510 0.20868 0.74320
 C532 C 0.39390 0.21587 0.72197
 C533 C 0.66373 0.30758 0.79083
 C534 C 0.64618 0.29997 0.76867
 C535 C 0.62493 0.29134 0.74323
 C536 C 0.60614 0.28415 0.72199
 C537 C 0.16374 0.80758 0.29083
 C538 C 0.14619 0.79997 0.26867
 C539 C 0.12493 0.79135 0.24323
 C540 C 0.10614 0.78415 0.22199
 C541 C 0.20920 0.16374 0.19245
 C542 C 0.23135 0.14619 0.20007
 C543 C 0.25679 0.12493 0.20870
 C544 C 0.27803 0.10614 0.21590
 C545 C 0.70920 0.66374 0.69245
 C546 C 0.73135 0.64619 0.70007
 C547 C 0.75679 0.62493 0.70870
 C548 C 0.77803 0.60614 0.71590
 C549 C 0.70918 0.33629 0.80759
 C550 C 0.73134 0.35384 0.79998
 C551 C 0.75678 0.37510 0.79136
 C552 C 0.77801 0.39390 0.78417
 C553 C 0.20919 -0.16371 0.30758
 C554 C 0.23134 -0.14616 0.29997
 C555 C 0.25678 -0.12490 0.29136
 C556 C 0.27802 -0.10610 0.28416
 C557 C 0.29079 -0.16376 0.69243
 C558 C 0.26864 -0.14620 0.70005
 C559 C 0.24321 -0.12493 0.70867
 C560 C 0.22197 -0.10614 0.71587
 C561 C 0.79079 0.33625 0.19244
 C562 C 0.76864 0.35381 0.20005
 C563 C 0.74321 0.37507 0.20867
 C564 C 0.72198 0.39387 0.21587
 C565 C 0.79082 0.66373 0.30754
 C566 C 0.76867 0.64618 0.29993
 C567 C 0.74323 0.62492 0.29130
 C568 C 0.72199 0.60613 0.28411
 C569 C 0.29083 0.16373 0.80754
 C570 C 0.26867 0.14617 0.79992
 C571 C 0.24324 0.12491 0.79130
 C572 C 0.22200 0.10612 0.78411
 C573 C 0.19245 0.20919 0.16374
 C574 C 0.20006 0.23134 0.14618
 C575 C 0.20869 0.25678 0.12492
 C576 C 0.21588 0.27801 0.10612
 C577 C 0.69245 0.70919 0.66374
 C578 C 0.70006 0.73135 0.64618
 C579 C 0.70869 0.75678 0.62492
 C580 C 0.71588 0.77802 0.60612
 C581 C 0.80757 0.70918 0.33625
 C582 C 0.79996 0.73134 0.35381
 C583 C 0.79134 0.75677 0.37507
 C584 C 0.78414 0.77801 0.39386
 C585 C 0.30757 0.20918 -0.16375
 C586 C 0.29996 0.23133 -0.14619
 C587 C 0.29133 0.25677 -0.12493
 C588 C 0.28414 0.27801 -0.10614
 C589 C 0.69243 0.29082 -0.16372
 C590 C 0.70005 0.26867 -0.14616
 C591 C 0.70867 0.24323 -0.12491
 C592 C 0.71586 0.22199 -0.10612
 C593 C 0.19244 0.79082 0.33628
 C594 C 0.20005 0.76867 0.35384
 C595 C 0.20867 0.74323 0.37509
 C596 C 0.21586 0.72199 0.39388
 C597 C 0.30754 0.79078 0.66373
 C598 C 0.29992 0.76863 0.64617
 C599 C 0.29129 0.74319 0.62491
 C600 C 0.28410 0.72196 0.60612
 C601 C 0.80754 0.29079 0.16373
 C602 C 0.79992 0.26863 0.14617
 C603 C 0.79129 0.24320 0.12492
 C604 C 0.78410 0.22196 0.10613
 C605 C 0.44245 0.41374 0.45919
 C606 C 0.45007 0.39619 0.48134
 C607 C 0.45869 0.37493 0.50678
 C608 C 0.46589 0.35614 0.52802
 C609 C -0.05755 0.91374 -0.04081
 C610 C -0.04993 0.89619 -0.01865
 C611 C -0.04131 0.87493 0.00679
 C612 C -0.03411 0.85614 0.02802
 C613 C 0.05759 0.58628 -0.04081
 C614 C 0.04998 0.60384 -0.01866
 C615 C 0.04136 0.62510 0.00678
 C616 C 0.03417 0.64389 0.02801
 C617 C 0.55760 0.08628 0.45919
 C618 C 0.54998 0.10384 0.48134
 C619 C 0.54136 0.12510 0.50677
 C620 C 0.53417 0.14389 0.52801
 C621 C -0.05756 0.08626 0.54081
 C622 C -0.04994 0.10382 0.51866
 C623 C -0.04132 0.12507 0.49322
 C624 C -0.03413 0.14387 0.47198
 C625 C 0.44244 0.58625 1.04081
 C626 C 0.45005 0.60381 1.01865
 C627 C 0.45867 0.62507 0.99322
 C628 C 0.46586 0.64386 0.97198
 C629 C 0.55752 0.91372 1.04080
 C630 C 0.54991 0.89617 1.01865
 C631 C 0.54128 0.87491 0.99321
 C632 C 0.53409 0.85612 0.97198
 C633 C 0.05752 0.41372 0.54080
 C634 C 0.04991 0.39617 0.51865
 C635 C 0.04128 0.37491 0.49321
 C636 C 0.03409 0.35612 0.47198
 C637 C 0.41373 0.45919 0.44244
 C638 C 0.39617 0.48134 0.45005
 C639 C 0.37490 0.50677 0.45867
 C640 C 0.35611 0.52800 0.46586
 C641 C 0.91373 -0.04081 -0.05756
 C642 C 0.89617 -0.01866 -0.04994
 C643 C 0.87491 0.00678 -0.04132
 C644 C 0.85611 0.02801 -0.03413
 C645 C 0.58624 -0.04082 0.05755
 C646 C 0.60379 -0.01867 0.04993
 C647 C 0.62505 0.00677 0.04131
 C648 C 0.64384 0.02800 0.03411
 C649 C 0.08623 0.45918 0.55755
 C650 C 0.10379 0.48133 0.54993
 C651 C 0.12504 0.50677 0.54131
 C652 C 0.14384 0.52801 0.53411
 C653 C 0.08629 0.54081 -0.05756
 C654 C 0.10385 0.51866 -0.04995
 C655 C 0.12510 0.49322 -0.04132
 C656 C 0.14389 0.47198 -0.03413
 C657 C 0.58630 1.04082 0.44244
 C658 C 0.60385 1.01866 0.45005
 C659 C 0.62511 0.99322 0.45867
 C660 C 0.64390 0.97199 0.46587
 C661 C 0.91374 1.04080 0.55756
 C662 C 0.89619 1.01865 0.54995
 C663 C 0.87493 0.99321 0.54132
 C664 C 0.85614 0.97197 0.53413
 C665 C 0.41374 0.54080 0.05756
 C666 C 0.39618 0.51864 0.04994
 C667 C 0.37493 0.49320 0.04132
 C668 C 0.35614 0.47197 0.03412
 C669 C 0.45919 0.44245 0.41373
 C670 C 0.48135 0.45007 0.39618
 C671 C 0.50678 0.45869 0.37492
 C672 C 0.52802 0.46589 0.35613
 C673 C -0.04081 -0.05755 0.91374
 C674 C -0.01865 -0.04993 0.89618
 C675 C 0.00678 -0.04131 0.87492
 C676 C 0.02802 -0.03411 0.85613
 C677 C -0.04081 0.05755 0.58627
 C678 C -0.01865 0.04994 0.60382
 C679 C 0.00679 0.04132 0.62508
 C680 C 0.02802 0.03413 0.64387
 C681 C 0.45919 0.55755 0.08627
 C682 C 0.48134 0.54994 0.10382
 C683 C 0.50678 0.54132 0.12508
 C684 C 0.52802 0.53413 0.14387
 C685 C 0.54078 -0.05757 0.08626
 C686 C 0.51863 -0.04995 0.10382
 C687 C 0.49320 -0.04133 0.12509
 C688 C 0.47197 -0.03413 0.14389
 C689 C 1.04078 0.44243 0.58627
 C690 C 1.01863 0.45005 0.60383
 C691 C 0.99320 0.45867 0.62509
 C692 C 0.97197 0.46587 0.64389
 C693 C 1.04083 0.55757 0.91374
 C694 C 1.01868 0.54995 0.89619
 C695 C 0.99324 0.54133 0.87493
 C696 C 0.97200 0.53414 0.85615
 C697 C 0.54084 0.05757 0.41373
 C698 C 0.51868 0.04996 0.39618
 C699 C 0.49324 0.04133 0.37493
 C700 C 0.47200 0.03414 0.35614
   
