data_POSCAR
  _audit_creation_date              2014-09-24
  _audit_creation_method            'ToBaCCo'
  _symmetry_space_group_name_H-M    'P1'
  _symmetry_Int_Tables_number       1
  _symmetry_cell_setting            triclinic
  loop_
  _symmetry_equiv_pos_as_xyz
 x,y,z
_cell_length_a 56.8290
_cell_length_b 56.8427
_cell_length_c 56.7606
_cell_angle_alpha 89.998900
_cell_angle_beta 90.001700
_cell_angle_gamma 89.925300
loop_
  _atom_site_label
  _atom_site_type_symbol
  _atom_site_fract_x
  _atom_site_fract_y
  _atom_site_fract_z
C1 C 0.15961 0.17584 0.19446
 C2 C 0.15966 0.19332 0.17702
 C3 C 0.17696 0.19334 0.15981
 C4 C 0.19442 0.17589 0.15983
 C5 C 0.19438 0.15861 0.17707
 C6 C 0.17687 0.15858 0.19448
 C7 C 0.14510 0.17159 0.21342
 N8 N 0.15323 0.15225 0.22476
 C9 C 0.17260 0.14410 0.21346
 C10 C 0.21341 0.14416 0.17287
 N11 N 0.22479 0.15236 0.15358
 C12 C 0.21347 0.17169 0.14542
 C13 C 0.17276 0.21237 0.14538
 N14 N 0.15342 0.22371 0.15350
 C15 C 0.14522 0.21233 0.17278
 H16 H 0.12986 0.18180 0.21862
 H17 H 0.18280 0.12887 0.21871
 H18 H 0.21862 0.12893 0.18308
 H19 H 0.21874 0.18193 0.13022
 H20 H 0.18301 0.21765 0.13019
 H21 H 0.12997 0.21757 0.18295
 C22 C -0.15965 0.82392 0.19459
 C23 C -0.15964 0.80649 0.17711
 C24 C -0.17689 0.80650 0.15985
 C25 C -0.19436 0.82395 0.15986
 C26 C -0.19437 0.84119 0.17714
 C27 C -0.17692 0.84117 0.19461
 C28 C -0.14518 0.82814 0.21360
 N29 N -0.15335 0.84745 0.22495
 C30 C -0.17268 0.85562 0.21363
 C31 C -0.21337 0.85566 0.17290
 N32 N -0.22469 0.84752 0.15355
 C33 C -0.21334 0.82820 0.14538
 C34 C -0.17263 0.78754 0.14536
 N35 N -0.15330 0.77619 0.15350
 C36 C -0.14517 0.78751 0.17285
 H37 H -0.12995 0.81792 0.21882
 H38 H -0.18290 0.87085 0.21887
 H39 H -0.21861 0.87088 0.18313
 H40 H -0.21856 0.81800 0.13013
 H41 H -0.18282 0.78231 0.13012
 H42 H -0.12994 0.78226 0.18304
 C43 C -0.16019 0.17624 -0.19435
 C44 C -0.16021 0.19370 -0.17690
 C45 C -0.17745 0.19372 -0.15963
 C46 C -0.19488 0.17628 -0.15961
 C47 C -0.19487 0.15902 -0.17686
 C48 C -0.17742 0.15899 -0.19433
 C49 C -0.14572 0.17198 -0.21335
 N50 N -0.15385 0.15265 -0.22467
 C51 C -0.17316 0.14451 -0.21333
 C52 C -0.21384 0.14456 -0.17260
 N53 N -0.22517 0.15274 -0.15326
 C54 C -0.21386 0.17206 -0.14512
 C55 C -0.17322 0.21272 -0.14518
 N56 N -0.15392 0.22404 -0.15335
 C57 C -0.14577 0.21268 -0.17267
 H58 H -0.13050 0.18218 -0.21858
 H59 H -0.18335 0.12928 -0.21854
 H60 H -0.21905 0.12933 -0.18280
 H61 H -0.21910 0.18229 -0.12989
 H62 H -0.18341 0.21798 -0.12994
 H63 H -0.13056 0.21790 -0.18288
 C64 C 0.16012 0.82378 -0.19430
 C65 C 0.16013 0.80631 -0.17685
 C66 C 0.17739 0.80626 -0.15960
 C67 C 0.19485 0.82367 -0.15959
 C68 C 0.19483 0.84094 -0.17684
 C69 C 0.17737 0.84100 -0.19429
 C70 C 0.14564 0.82805 -0.21329
 N71 N 0.15378 0.84737 -0.22461
 C72 C 0.17312 0.85548 -0.21328
 C73 C 0.21383 0.85537 -0.17259
 N74 N 0.22517 0.84717 -0.15327
 C75 C 0.21385 0.82786 -0.14512
 C76 C 0.17315 0.78726 -0.14516
 N77 N 0.15383 0.77597 -0.15331
 C78 C 0.14568 0.78734 -0.17262
 H79 H 0.13041 0.81787 -0.21852
 H80 H 0.18332 0.87070 -0.21851
 H81 H 0.21905 0.87060 -0.18280
 H82 H 0.21908 0.81763 -0.12989
 H83 H 0.18335 0.78197 -0.12993
 H84 H 0.13044 0.78214 -0.18282
 C85 C 0.17483 1.15846 0.80680
 C86 C 0.19234 1.15854 0.82420
 C87 C 0.19237 1.17584 0.84140
 C88 C 0.17489 1.19327 0.84141
 C89 C 0.15757 1.19319 0.82422
 C90 C 0.15754 1.17569 0.80681
 C91 C 0.17060 1.14397 0.78783
 N92 N 0.15124 1.15209 0.77651
 C93 C 0.14305 1.17141 0.78783
 C94 C 0.14312 1.21221 0.82841
 N95 N 0.15137 1.22363 0.84765
 C96 C 0.17072 1.21233 0.85580
 C97 C 0.21147 1.17172 0.85577
 N98 N 0.22283 1.15241 0.84761
 C99 C 0.21141 1.14417 0.82838
 H100 H 0.18086 1.12878 0.78258
 H101 H 0.12782 1.18162 0.78259
 H102 H 0.12787 1.21742 0.81820
 H103 H 0.18102 1.21765 0.87095
 H104 H 0.21678 1.18199 0.87092
 H105 H 0.21668 1.12895 0.81818
 C106 C 0.82548 0.84164 0.80697
 C107 C 0.80804 0.84166 0.82445
 C108 C 0.80806 0.82443 0.84172
 C109 C 0.82552 0.80698 0.84172
 C110 C 0.84277 0.80696 0.82445
 C111 C 0.84274 0.82439 0.80697
 C112 C 0.82963 0.85605 0.78792
 N113 N 0.84893 0.84786 0.77655
 C114 C 0.85714 0.82857 0.78791
 C115 C 0.85720 0.78793 0.82864
 N116 N 0.84902 0.77660 0.84796
 C117 C 0.82973 0.78796 0.85616
 C118 C 0.78904 0.82863 0.85615
 N119 N 0.77766 0.84792 0.84796
 C120 C 0.78901 0.85607 0.82864
 H121 H 0.81937 0.87124 0.78265
 H122 H 0.87234 0.81832 0.78264
 H123 H 0.87238 0.78265 0.81838
 H124 H 0.81949 0.78271 0.87137
 H125 H 0.78378 0.81842 0.87136
 H126 H 0.78371 0.87125 0.81840
 C127 C 0.17467 0.84233 1.19297
 C128 C 0.19214 0.84230 1.17553
 C129 C 0.19217 0.82506 1.15826
 C130 C 0.17472 0.80764 1.15824
 C131 C 0.15745 0.80767 1.17547
 C132 C 0.15742 0.82511 1.19294
 C133 C 0.17047 0.85674 1.21202
 N134 N 0.15117 0.84858 1.22335
 C135 C 0.14299 0.82930 1.21198
 C136 C 0.14306 0.78865 1.17126
 N137 N 0.15127 0.77728 1.15197
 C138 C 0.17056 0.78862 1.14382
 C139 C 0.21123 0.82921 1.14388
 N140 N 0.22258 0.84847 1.15209
 C141 C 0.21119 0.85666 1.17137
 H142 H 0.18072 0.87190 1.21730
 H143 H 0.12780 0.81908 1.21723
 H144 H 0.12786 0.78338 1.18148
 H145 H 0.18082 0.78332 1.12863
 H146 H 0.21653 0.81898 1.12869
 H147 H 0.21646 0.87183 1.18162
 C148 C 0.82484 1.15804 1.19342
 C149 C 0.80741 1.15803 1.17595
 C150 C 0.80738 1.17527 1.15868
 C151 C 0.82478 1.19272 1.15869
 C152 C 0.84202 1.19274 1.17596
 C153 C 0.84205 1.17530 1.19343
 C154 C 0.82904 1.14364 1.21247
 N155 N 0.84831 1.15183 1.22385
 C156 C 0.85647 1.17113 1.21249
 C157 C 0.85638 1.21178 1.17176
 N158 N 0.84819 1.22313 1.15245
 C159 C 0.82893 1.21175 1.14427
 C160 C 0.78837 1.17106 1.14425
 N161 N 0.77705 1.15177 1.15242
 C162 C 0.78841 1.14361 1.17174
 H163 H 0.81883 1.12844 1.21774
 H164 H 0.87163 1.18138 1.21777
 H165 H 0.87155 1.21708 1.18201
 H166 H 0.81870 1.21701 1.12906
 H167 H 0.78308 1.18128 1.12904
 H168 H 0.78316 1.12842 1.18197
 N169 N 0.52474 1.04157 0.97463
 N170 N 0.54266 1.05604 0.97174
 N171 N 0.47524 1.02521 0.95824
 N172 N 0.45728 1.02807 0.94376
 N173 N 0.47521 1.04155 0.97460
 N174 N 0.45723 1.05599 0.97173
 N175 N 0.52477 1.02523 0.95826
 N176 N 0.54272 1.02812 0.94378
 C177 C 0.55361 1.04740 0.95244
 C178 C 0.44632 1.04733 0.95243
 N179 N 0.47534 0.95819 0.97459
 N180 N 0.45742 0.94371 0.97169
 N181 N 0.52485 0.97456 0.95826
 N182 N 0.54287 0.97175 0.94384
 N183 N 0.52487 0.95821 0.97462
 N184 N 0.54290 0.94382 0.97180
 N185 N 0.47532 0.97453 0.95823
 N186 N 0.45738 0.97164 0.94374
 Mn187 Mn 0.50005 0.99988 0.95796
 C188 C 0.44648 0.95236 0.95239
 C189 C 0.55385 0.95251 0.95254
 N190 N 0.47517 1.04154 1.02535
 N191 N 0.45721 1.05602 1.02825
 N192 N 0.52471 1.02521 1.04174
 N193 N 0.54271 1.02803 1.05617
 N194 N 0.52470 1.04155 1.02538
 N195 N 0.54269 1.05595 1.02821
 N196 N 0.47519 1.02519 1.04171
 N197 N 0.45724 1.02808 1.05621
 Mn198 Mn 0.49995 1.04184 0.99999
 C199 C 0.44629 1.04737 1.04756
 C200 C 0.55364 1.04727 1.04749
 N201 N 0.52486 0.95820 1.02537
 N202 N 0.54285 0.94376 1.02826
 N203 N 0.47528 0.97452 1.04170
 N204 N 0.45728 0.97169 1.05611
 N205 N 0.47532 0.95818 1.02534
 N206 N 0.45734 0.94377 1.02815
 N207 N 0.52481 0.97454 1.04174
 N208 N 0.54277 0.97168 1.05623
 Mn209 Mn 0.50010 0.95791 0.99998
 Mn210 Mn 0.50000 0.99987 1.04200
 Cl211 Cl 0.50002 0.99987 0.99998
 C212 C 0.55374 0.95242 1.04757
 C213 C 0.44637 0.95244 1.04742
 N214 N -0.02536 0.47526 -0.04210
 N215 N -0.02828 0.45731 -0.05658
 N216 N -0.04162 0.52483 -0.02574
 N217 N -0.05600 0.54287 -0.02856
 N218 N -0.02528 0.52478 -0.04210
 N219 N -0.02807 0.54279 -0.05653
 N220 N -0.04170 0.47531 -0.02574
 N221 N -0.05620 0.45740 -0.02861
 C222 C -0.04757 0.44645 -0.04791
 C223 C -0.04730 0.55380 -0.04783
 N224 N -0.02528 0.52478 0.04138
 N225 N -0.02813 0.54272 0.05587
 N226 N -0.04169 0.47531 0.02501
 N227 N -0.05614 0.45737 0.02786
 N228 N -0.02534 0.47526 0.04136
 N229 N -0.02820 0.45729 0.05581
 N230 N -0.04162 0.52483 0.02502
 N231 N -0.05606 0.54281 0.02791
 Mn232 Mn -0.04194 0.50007 -0.00036
 C233 C -0.04740 0.55371 0.04722
 C234 C -0.04748 0.44640 0.04713
 N235 N 0.02540 0.52465 -0.04211
 N236 N 0.02830 0.54260 -0.05659
 N237 N 0.04168 0.47509 -0.02575
 N238 N 0.05607 0.45707 -0.02859
 N239 N 0.02533 0.47513 -0.04211
 N240 N 0.02814 0.45714 -0.05654
 N241 N 0.04175 0.52461 -0.02575
 N242 N 0.05623 0.54253 -0.02862
 Mn243 Mn 0.00002 0.49995 -0.04239
 C244 C 0.04758 0.55348 -0.04792
 C245 C 0.04738 0.44614 -0.04786
 N246 N 0.02535 0.47511 0.04136
 N247 N 0.02823 0.45718 0.05587
 N248 N 0.04175 0.52460 0.02500
 N249 N 0.05616 0.54258 0.02782
 N250 N 0.02540 0.52463 0.04137
 N251 N 0.02823 0.54263 0.05579
 N252 N 0.04169 0.47508 0.02500
 N253 N 0.05616 0.45711 0.02791
 Mn254 Mn 0.00003 0.49994 0.04165
 Mn255 Mn 0.04200 0.49984 -0.00037
 Cl256 Cl 0.00003 0.49995 -0.00037
 C257 C 0.04750 0.44621 0.04721
 C258 C 0.04748 0.55354 0.04710
 N259 N 1.02528 0.04168 0.52500
 N260 N 1.02806 0.05607 0.54304
 N261 N 1.04165 0.02538 0.47540
 N262 N 1.05609 0.02825 0.45741
 N263 N 1.02527 0.04170 0.47541
 N264 N 1.02811 0.05615 0.45742
 N265 N 1.04166 0.02536 0.52499
 N266 N 1.05606 0.02818 0.54302
 C267 C 1.04733 0.04741 0.55400
 C268 C 1.04739 0.04751 0.44646
 N269 N 1.02546 -0.04165 0.47539
 N270 N 1.02829 -0.05604 0.45735
 N271 N 1.04179 -0.02531 0.52498
 N272 N 1.05628 -0.02819 0.54294
 N273 N 1.02548 -0.04167 0.52498
 N274 N 1.02842 -0.05614 0.54294
 N275 N 1.04176 -0.02529 0.47539
 N276 N 1.05616 -0.02809 0.45735
 Mn277 Mn 1.04200 0.00003 0.50019
 C278 C 1.04751 -0.04733 0.44638
 C279 C 1.04768 -0.04748 0.55387
 N280 N 0.97459 0.04165 0.47544
 N281 N 0.97171 0.05608 0.45744
 N282 N 0.95829 0.02527 0.52502
 N283 N 0.94379 0.02815 0.54297
 N284 N 0.97459 0.04163 0.52503
 N285 N 0.97165 0.05611 0.54298
 N286 N 0.95828 0.02529 0.47543
 N287 N 0.94384 0.02813 0.45743
 Mn288 Mn 0.99993 0.04195 0.50022
 C289 C 0.95246 0.04740 0.44649
 C290 C 0.95239 0.04744 0.55391
 N291 N 0.97479 -0.04172 0.52498
 N292 N 0.97199 -0.05616 0.54298
 N293 N 0.95839 -0.02538 0.47541
 N294 N 0.94391 -0.02829 0.45745
 N295 N 0.97477 -0.04171 0.47539
 N296 N 0.97189 -0.05619 0.45743
 N297 N 0.95841 -0.02540 0.52500
 N298 N 0.94399 -0.02827 0.54300
 Mn299 Mn 1.00013 -0.04197 0.50019
 Mn300 Mn 0.95806 -0.00005 0.50021
 Cl301 Cl 1.00003 -0.00001 0.50020
 C302 C 0.95271 -0.04752 0.55394
 C303 C 0.95258 -0.04756 0.44651
 C304 C 1.14386 0.14292 0.24399
 C305 C 1.13533 0.13447 0.26151
 C306 C 1.12517 0.12443 0.28244
 C307 C 1.10374 0.13297 0.29109
 C308 C 1.09392 0.12333 0.31150
 C309 C 1.10542 0.10498 0.32355
 C310 C 1.12694 0.09649 0.31468
 C311 C 1.13674 0.10617 0.29427
 C312 C 1.09505 0.09480 0.34530
 C313 C 1.09583 0.07039 0.34937
 C314 C 1.08612 0.06084 0.36988
 C315 C 1.07552 0.07553 0.38659
 C316 C 1.07464 0.09982 0.38271
 C317 C 1.08433 0.10941 0.36220
 C318 C 1.06559 0.06568 0.40773
 C319 C 1.05728 0.05741 0.42542
 H320 H 1.09461 0.14706 0.28203
 H321 H 1.07718 0.13004 0.31770
 H322 H 1.13637 0.08260 0.32371
 H323 H 1.15338 0.09947 0.28777
 H324 H 1.10368 0.05864 0.33656
 H325 H 1.08683 0.04199 0.37268
 H326 H 1.06654 0.11137 0.39556
 H327 H 1.08372 0.12829 0.35973
 C328 C 0.85599 -0.14324 0.24422
 C329 C 0.86449 -0.13480 0.26175
 C330 C 0.87461 -0.12476 0.28271
 C331 C 0.89531 -0.13419 0.29216
 C332 C 0.90512 -0.12452 0.31257
 C333 C 0.89431 -0.10527 0.32382
 C334 C 0.87350 -0.09591 0.31415
 C335 C 0.86374 -0.10560 0.29373
 C336 C 0.90466 -0.09504 0.34556
 C337 C 0.89010 -0.08794 0.36433
 C338 C 0.89986 -0.07836 0.38480
 C339 C 0.92425 -0.07572 0.38680
 C340 C 0.93888 -0.08270 0.36823
 C341 C 0.92917 -0.09231 0.34775
 C342 C 0.93426 -0.06582 0.40787
 C343 C 0.94263 -0.05751 0.42552
 H344 H 0.90384 -0.14908 0.28381
 H345 H 0.92097 -0.13232 0.31974
 H346 H 0.86493 -0.08091 0.32221
 H347 H 0.84773 -0.09812 0.28653
 H348 H 0.87120 -0.09010 0.36332
 H349 H 0.88837 -0.07306 0.39909
 H350 H 0.95779 -0.08067 0.36956
 H351 H 0.94082 -0.09732 0.33350
 C352 C 0.85551 0.14330 0.75608
 C353 C 0.86401 0.13483 0.73856
 C354 C 0.87414 0.12475 0.71761
 C355 C 0.86132 0.10853 0.70425
 C356 C 0.87110 0.09882 0.68384
 C357 C 0.89388 0.10520 0.67653
 C358 C 0.90664 0.12150 0.69012
 C359 C 0.89682 0.13121 0.71051
 C360 C 0.90426 0.09496 0.65480
 C361 C 0.92811 0.08828 0.65416
 C362 C 0.93786 0.07866 0.63369
 C363 C 0.92393 0.07560 0.61359
 C364 C 0.90020 0.08218 0.61404
 C365 C 0.89041 0.09179 0.63450
 C366 C 0.93398 0.06570 0.59253
 C367 C 0.94238 0.05739 0.57489
 H368 H 0.84378 0.10337 0.70962
 H369 H 0.86096 0.08609 0.67394
 H370 H 0.92408 0.12700 0.68480
 H371 H 0.90687 0.14380 0.72069
 H372 H 0.93915 0.09021 0.66959
 H373 H 0.95624 0.07356 0.63356
 H374 H 0.88927 0.07994 0.59856
 H375 H 0.87209 0.09703 0.63432
 C376 C 1.14443 -0.14328 0.75614
 C377 C 1.13592 -0.13482 0.73861
 C378 C 1.12576 -0.12478 0.71766
 C379 C 1.10754 -0.13649 0.70594
 C380 C 1.09772 -0.12682 0.68552
 C381 C 1.10600 -0.10528 0.67656
 C382 C 1.12430 -0.09363 0.68852
 C383 C 1.13410 -0.10334 0.70892
 C384 C 1.09564 -0.09503 0.65483
 C385 C 1.09144 -0.07068 0.65313
 C386 C 1.08170 -0.06107 0.63265
 C387 C 1.07605 -0.07563 0.61360
 C388 C 1.08015 -0.09987 0.61510
 C389 C 1.08987 -0.10952 0.63557
 C390 C 1.06605 -0.06572 0.59252
 C391 C 1.05767 -0.05741 0.57486
 H392 H 1.10091 -0.15307 0.71259
 H393 H 1.08346 -0.13605 0.67691
 H394 H 1.13126 -0.07719 0.68190
 H395 H 1.14824 -0.09417 0.71782
 H396 H 1.09540 -0.05911 0.66775
 H397 H 1.07853 -0.04229 0.63170
 H398 H 1.07590 -0.11129 0.60043
 H399 H 1.09318 -0.12827 0.63621
 C400 C 0.24409 1.14307 1.14429
 C401 C 0.26166 1.13465 1.13585
 C402 C 0.28267 1.12465 1.12579
 C403 C 0.30463 1.12944 1.13583
 C404 C 0.32506 1.11980 1.12604
 C405 C 0.32378 1.10520 1.10606
 C406 C 0.30159 1.10047 1.09612
 C407 C 0.28119 1.11015 1.10593
 C408 C 0.34548 1.09497 1.09564
 C409 C 0.34574 1.07160 1.08743
 C410 C 0.36619 1.06199 1.07767
 C411 C 0.38664 1.07557 1.07595
 C412 C 0.38656 1.09883 1.08403
 C413 C 0.36614 1.10848 1.09382
 C414 C 0.40769 1.06564 1.06593
 C415 C 0.42532 1.05732 1.05754
 H416 H 0.30597 1.14060 1.15125
 H417 H 0.34183 1.12353 1.13429
 H418 H 0.30005 1.08955 1.08056
 H419 H 0.26428 1.10638 1.09797
 H420 H 0.33022 1.06066 1.08886
 H421 H 0.36607 1.04394 1.07153
 H422 H 0.40228 1.10952 1.08272
 H423 H 0.36642 1.12660 1.09968
 C424 C 0.24442 0.85646 0.85607
 C425 C 0.26194 0.86490 0.86454
 C426 C 0.28289 0.87496 0.87461
 C427 C 0.28960 0.86914 0.89761
 C428 C 0.30999 0.87884 0.90737
 C429 C 0.32396 0.89450 0.89423
 C430 C 0.31703 0.90025 0.87113
 C431 C 0.29663 0.89054 0.86141
 C432 C 0.34568 0.90476 0.90455
 C433 C 0.36617 0.90718 0.89084
 C434 C 0.38660 0.91681 0.90056
 C435 C 0.38685 0.92416 0.92409
 C436 C 0.36657 0.92184 0.93788
 C437 C 0.34612 0.91220 0.92820
 C438 C 0.40790 0.93409 0.93407
 C439 C 0.42552 0.94242 0.94242
 H440 H 0.27913 0.85704 0.90796
 H441 H 0.31501 0.87383 0.92508
 H442 H 0.32723 0.91249 0.86068
 H443 H 0.29156 0.89522 0.84361
 H444 H 0.36649 0.90133 0.87269
 H445 H 0.40222 0.91846 0.88975
 H446 H 0.36655 0.92754 0.95609
 H447 H 0.33055 0.91085 0.93912
 C448 C 0.75606 0.85685 1.14420
 C449 C 0.73854 0.86531 1.13569
 C450 C 0.71760 0.87535 1.12554
 C451 C 0.70817 0.86591 1.10482
 C452 C 0.68776 0.87556 1.09500
 C453 C 0.67651 0.89483 1.10579
 C454 C 0.68617 0.90421 1.12659
 C455 C 0.70657 0.89452 1.13639
 C456 C 0.65477 0.90504 1.09542
 C457 C 0.65134 0.92956 1.09493
 C458 C 0.63085 0.93914 1.08520
 C459 C 0.61352 0.92437 1.07586
 C460 C 0.61676 0.89996 1.07625
 C461 C 0.63724 0.89034 1.08595
 C462 C 0.59242 0.93424 1.06588
 C463 C 0.57475 0.94252 1.05753
 H464 H 0.71661 0.85110 1.09624
 H465 H 0.68095 0.86814 1.07882
 H466 H 0.67776 0.91883 1.13548
 H467 H 0.71368 0.90192 1.15247
 H468 H 0.66463 0.94135 1.10179
 H469 H 0.62856 0.95806 1.08492
 H470 H 0.60343 0.88836 1.06913
 H471 H 0.63921 0.87140 1.08635
 C472 C 0.75560 1.14342 0.85609
 C473 C 0.73809 1.13497 0.86459
 C474 C 0.71717 1.12492 0.87471
 C475 C 0.70503 1.13692 0.89248
 C476 C 0.68464 1.12723 0.90226
 C477 C 0.67613 1.10537 0.89438
 C478 C 0.68849 1.09342 0.87652
 C479 C 0.70887 1.10316 0.86676
 C480 C 0.65442 1.09509 0.90469
 C481 C 0.65302 1.07083 0.90946
 C482 C 0.63257 1.06119 0.91915
 C483 C 0.61325 1.07563 0.92419
 C484 C 0.61446 1.09977 0.91952
 C485 C 0.63490 1.10946 0.90985
 C486 C 0.59220 1.06569 0.93414
 C487 C 0.57457 1.05735 0.94249
 H488 H 0.71134 1.15375 0.89881
 H489 H 0.67570 1.13671 0.91618
 H490 H 0.68223 1.07672 0.86986
 H491 H 0.71809 1.09375 0.85296
 H492 H 0.66784 1.05936 0.90598
 H493 H 0.63184 1.04249 0.92275
 H494 H 0.59959 1.11110 0.92330
 H495 H 0.63531 1.12813 0.90610
 C496 C 0.14361 0.24410 0.14367
 C497 C 0.13519 0.26166 0.13523
 C498 C 0.12517 0.28266 0.12519
 C499 C 0.13035 0.30467 0.13494
 C500 C 0.12066 0.32509 0.12519
 C501 C 0.10561 0.32376 0.10555
 C502 C 0.10049 0.30154 0.09589
 C503 C 0.11022 0.28115 0.10565
 C504 C 0.09531 0.34545 0.09518
 C505 C 0.07176 0.34582 0.08749
 C506 C 0.06208 0.36627 0.07777
 C507 C 0.07579 0.38659 0.07558
 C508 C 0.09922 0.38640 0.08315
 C509 C 0.10893 0.36599 0.09289
 C510 C 0.06580 0.40763 0.06558
 C511 C 0.05746 0.42525 0.05721
 H512 H 0.14185 0.30604 0.15010
 H513 H 0.12469 0.34189 0.13322
 H514 H 0.08922 0.29996 0.08059
 H515 H 0.10614 0.26421 0.09792
 H516 H 0.06074 0.33041 0.08929
 H517 H 0.04390 0.36624 0.07202
 H518 H 0.11000 0.40202 0.08147
 H519 H 0.12718 0.36618 0.09835
 C520 C -0.14406 0.24438 -0.14351
 C521 C -0.13558 0.26189 -0.13509
 C522 C -0.12546 0.28284 -0.12509
 C523 C -0.13251 0.29058 -0.10278
 C524 C -0.12274 0.31097 -0.09309
 C525 C -0.10576 0.32391 -0.10564
 C526 C -0.09878 0.31596 -0.12806
 C527 C -0.10856 0.29556 -0.13770
 C528 C -0.09543 0.34563 -0.09542
 C529 C -0.09139 0.36551 -0.10963
 C530 C -0.08169 0.38595 -0.09999
 C531 C -0.07588 0.38681 -0.07605
 C532 C -0.07981 0.36713 -0.06176
 C533 C -0.08953 0.34668 -0.07136
 C534 C -0.06590 0.40786 -0.06615
 C535 C -0.05754 0.42549 -0.05784
 H536 H -0.14563 0.28090 -0.09289
 H537 H -0.12871 0.31679 -0.07594
 H538 H -0.08553 0.32535 -0.13802
 H539 H -0.10292 0.28969 -0.15496
 H540 H -0.09603 0.36536 -0.12813
 H541 H -0.07879 0.40110 -0.11120
 H542 H -0.07532 0.36759 -0.04321
 H543 H -0.09213 0.33158 -0.06003
 C544 C 0.14396 0.75563 -0.14347
 C545 C 0.13548 0.73812 -0.13503
 C546 C 0.12539 0.71718 -0.12499
 C547 C 0.10342 0.70918 -0.13271
 C548 C 0.09364 0.68879 -0.12305
 C549 C 0.10574 0.67610 -0.10552
 C550 C 0.12780 0.68432 -0.09787
 C551 C 0.13754 0.70472 -0.10755
 C552 C 0.09542 0.65437 -0.09531
 C553 C 0.10968 0.63466 -0.09062
 C554 C 0.09995 0.61420 -0.08105
 C555 C 0.07587 0.61316 -0.07602
 C556 C 0.06153 0.63266 -0.08061
 C557 C 0.07121 0.65313 -0.09020
 C558 C 0.06589 0.59209 -0.06614
 C559 C 0.05753 0.57445 -0.05785
 H560 H 0.09389 0.71865 -0.14627
 H561 H 0.07678 0.68276 -0.12953
 H562 H 0.13741 0.67513 -0.08419
 H563 H 0.15453 0.71080 -0.10140
 H564 H 0.12830 0.63494 -0.09465
 H565 H 0.11120 0.59918 -0.07762
 H566 H 0.04287 0.63207 -0.07672
 H567 H 0.05983 0.66810 -0.09332
 C568 C -0.14342 0.75587 0.14360
 C569 C -0.13494 0.73837 0.13509
 C570 C -0.12485 0.71745 0.12496
 C571 C -0.13518 0.70712 0.10511
 C572 C -0.12547 0.68673 0.09533
 C573 C -0.10527 0.67638 0.10527
 C574 C -0.09500 0.68693 0.12520
 C575 C -0.10475 0.70732 0.13497
 C576 C -0.09500 0.65466 0.09495
 C577 C -0.07045 0.65194 0.09311
 C578 C -0.06081 0.63146 0.08343
 C579 C -0.07555 0.61344 0.07547
 C580 C -0.09999 0.61596 0.07721
 C581 C -0.10967 0.63643 0.08687
 C582 C -0.06562 0.59235 0.06552
 C583 C -0.05731 0.57470 0.05718
 H584 H -0.15071 0.71486 0.09718
 H585 H -0.13360 0.67922 0.07981
 H586 H -0.07963 0.67923 0.13345
 H587 H -0.09665 0.71512 0.15038
 H588 H -0.05870 0.66577 0.09888
 H589 H -0.04187 0.62972 0.08210
 H590 H -0.11156 0.60209 0.07116
 H591 H -0.12861 0.63785 0.08833
 C592 C 1.14196 0.14277 0.75723
 C593 C 1.13356 0.13431 0.73967
 C594 C 1.12359 0.12425 0.71867
 C595 C 1.13540 0.10614 0.70685
 C596 C 1.12581 0.09644 0.68636
 C597 C 1.10425 0.10477 0.67741
 C598 C 1.09251 0.12296 0.68945
 C599 C 1.10213 0.13262 0.70995
 C600 C 1.09412 0.09458 0.65556
 C601 C 1.08341 0.10917 0.63864
 C602 C 1.07395 0.09958 0.61804
 C603 C 1.07504 0.07531 0.61408
 C604 C 1.08563 0.06063 0.63082
 C605 C 1.09512 0.07019 0.65142
 C606 C 1.06530 0.06547 0.59287
 C607 C 1.05712 0.05723 0.57511
 H608 H 1.15207 0.09959 0.71341
 H609 H 1.13542 0.08268 0.67733
 H610 H 1.07575 0.12953 0.68318
 H611 H 1.09282 0.14660 0.71900
 H612 H 1.08264 0.12804 0.64116
 H613 H 1.06584 0.11110 0.60517
 H614 H 1.08650 0.04180 0.62796
 H615 H 1.10297 0.05846 0.66425
 C616 C 0.85814 -0.14291 0.75719
 C617 C 0.86648 -0.13451 0.73957
 C618 C 0.87637 -0.12451 0.71851
 C619 C 0.86337 -0.10831 0.70525
 C620 C 0.87292 -0.09863 0.68473
 C621 C 0.89562 -0.10507 0.67719
 C622 C 0.90855 -0.12137 0.69066
 C623 C 0.89897 -0.13100 0.71118
 C624 C 0.90575 -0.09487 0.65535
 C625 C 0.91874 -0.10900 0.63967
 C626 C 0.92823 -0.09939 0.61909
 C627 C 0.92487 -0.07556 0.61391
 C628 C 0.91200 -0.06134 0.62938
 C629 C 0.90248 -0.07091 0.64996
 C630 C 0.93466 -0.06569 0.59273
 C631 C 0.94288 -0.05741 0.57500
 H632 H 0.84583 -0.10321 0.71073
 H633 H 0.86242 -0.08637 0.67459
 H634 H 0.92618 -0.12644 0.68549
 H635 H 0.90921 -0.14349 0.72135
 H636 H 0.92130 -0.12756 0.64317
 H637 H 0.93812 -0.11056 0.60720
 H638 H 0.90936 -0.04285 0.62556
 H639 H 0.89284 -0.05952 0.66182
 C640 C 1.14193 -0.14219 0.24271
 C641 C 1.13356 -0.13381 0.26034
 C642 C 1.12363 -0.12385 0.28141
 C643 C 1.13248 -0.10274 0.29045
 C644 C 1.12293 -0.09311 0.31101
 C645 C 1.10438 -0.10451 0.32280
 C646 C 1.09559 -0.12572 0.31354
 C647 C 1.10516 -0.13530 0.29298
 C648 C 1.09431 -0.09437 0.34471
 C649 C 1.08830 -0.10901 0.36377
 C650 C 1.07886 -0.09944 0.38440
 C651 C 1.07528 -0.07516 0.38626
 C652 C 1.08117 -0.06044 0.36740
 C653 C 1.09064 -0.06996 0.34676
 C654 C 1.06553 -0.06535 0.40749
 C655 C 1.05733 -0.05713 0.42526
 H656 H 1.14683 -0.09377 0.28167
 H657 H 1.13028 -0.07693 0.31786
 H658 H 1.08113 -0.13474 0.32204
 H659 H 1.09814 -0.15163 0.28609
 H660 H 1.09120 -0.12781 0.36285
 H661 H 1.07440 -0.11098 0.39892
 H662 H 1.07841 -0.04162 0.36863
 H663 H 1.09480 -0.05827 0.33229
 C664 C 0.85755 0.14260 0.24320
 C665 C 0.86591 0.13421 0.26083
 C666 C 0.87582 0.12422 0.28190
 C667 C 0.89910 0.12918 0.28818
 C668 C 0.90871 0.11955 0.30870
 C669 C 0.89511 0.10482 0.32324
 C670 C 0.87172 0.09992 0.31676
 C671 C 0.86216 0.10957 0.29622
 C672 C 0.90526 0.09464 0.34509
 C673 C 0.89178 0.09337 0.36585
 C674 C 0.90135 0.08380 0.38642
 C675 C 0.92450 0.07537 0.38653
 C676 C 0.93806 0.07655 0.36598
 C677 C 0.92853 0.08612 0.34540
 C678 C 0.93433 0.06552 0.40770
 C679 C 0.94258 0.05726 0.42543
 H680 H 0.90980 0.14057 0.27725
 H681 H 0.92666 0.12389 0.31337
 H682 H 0.86092 0.08841 0.32741
 H683 H 0.84414 0.10556 0.29148
 H684 H 0.87393 0.10005 0.36626
 H685 H 0.89072 0.08303 0.40225
 H686 H 0.95598 0.07001 0.36586
 H687 H 0.93925 0.08658 0.32963
 C688 C 0.14213 0.24296 -0.14311
 C689 C 0.13376 0.26057 -0.13471
 C690 C 0.12382 0.28161 -0.12471
 C691 C 0.13633 0.29426 -0.10768
 C692 C 0.12675 0.31476 -0.09801
 C693 C 0.10450 0.32289 -0.10529
 C694 C 0.09206 0.31002 -0.12241
 C695 C 0.10168 0.28952 -0.13204
 C696 C 0.09435 0.34472 -0.09510
 C697 C 0.08230 0.36090 -0.10950
 C698 C 0.07281 0.38148 -0.09991
 C699 C 0.07519 0.38616 -0.07583
 C700 C 0.08711 0.37017 -0.06134
 C701 C 0.09664 0.34959 -0.07090
 C702 C 0.06541 0.40734 -0.06598
 C703 C 0.05720 0.42507 -0.05772
 H704 H 0.15352 0.28833 -0.10194
 H705 H 0.13688 0.32444 -0.08510
 H706 H 0.07478 0.31566 -0.12815
 H707 H 0.09182 0.27982 -0.14517
 H708 H 0.08051 0.35781 -0.12824
 H709 H 0.06366 0.39377 -0.11129
 H710 H 0.08899 0.37359 -0.04266
 H711 H 0.10554 0.33735 -0.05931
 C712 C -0.14212 0.24357 0.14268
 C713 C -0.13383 0.26118 0.13429
 C714 C -0.12400 0.28225 0.12429
 C715 C -0.13685 0.30326 0.12475
 C716 C -0.12732 0.32377 0.11510
 C717 C -0.10479 0.32351 0.10482
 C718 C -0.09202 0.30228 0.10442
 C719 C -0.10158 0.28180 0.11411
 C720 C -0.09464 0.34530 0.09459
 C721 C -0.08199 0.34451 0.07329
 C722 C -0.07247 0.36505 0.06367
 C723 C -0.07544 0.38661 0.07520
 C724 C -0.08798 0.38757 0.09640
 C725 C -0.09753 0.36707 0.10604
 C726 C -0.06561 0.40772 0.06530
 C727 C -0.05736 0.42540 0.05701
 H728 H -0.15425 0.30378 0.13253
 H729 H -0.13770 0.33975 0.11539
 H730 H -0.07452 0.30159 0.09691
 H731 H -0.09146 0.26564 0.11372
 H732 H -0.07972 0.32808 0.06391
 H733 H -0.06284 0.36411 0.04722
 H734 H -0.09032 0.40417 0.10550
 H735 H -0.10691 0.36820 0.12261
 C736 C -0.14174 0.75726 -0.14279
 C737 C -0.13337 0.73965 -0.13440
 C738 C -0.12345 0.71860 -0.12442
 C739 C -0.13367 0.70840 -0.10446
 C740 C -0.12413 0.68786 -0.09482
 C741 C -0.10420 0.67725 -0.10504
 C742 C -0.09403 0.68768 -0.12508
 C743 C -0.10361 0.70821 -0.13470
 C744 C -0.09412 0.65538 -0.09488
 C745 C -0.06959 0.65234 -0.09332
 C746 C -0.06012 0.63172 -0.08378
 C747 C -0.07502 0.61387 -0.07570
 C748 C -0.09944 0.61672 -0.07717
 C749 C -0.10894 0.63733 -0.08669
 C750 C -0.06527 0.59266 -0.06589
 C751 C -0.05708 0.57490 -0.05766
 H752 H -0.14899 0.71633 -0.09633
 H753 H -0.13217 0.68044 -0.07922
 H754 H -0.07888 0.67978 -0.13353
 H755 H -0.09560 0.71593 -0.15020
 H756 H -0.05772 0.66603 -0.09918
 H757 H -0.04119 0.62972 -0.08265
 H758 H -0.11113 0.60299 -0.07103
 H759 H -0.12788 0.63901 -0.08794
 C760 C 0.14156 0.75685 0.14219
 C761 C 0.13325 0.73925 0.13380
 C762 C 0.12340 0.71819 0.12379
 C763 C 0.10166 0.70979 0.13172
 C764 C 0.09213 0.68927 0.12209
 C765 C 0.10426 0.67686 0.10439
 C766 C 0.12610 0.68548 0.09653
 C767 C 0.13558 0.70601 0.10617
 C768 C 0.09422 0.65500 0.09422
 C769 C 0.10877 0.63554 0.08936
 C770 C 0.09930 0.61495 0.07981
 C771 C 0.07519 0.61354 0.07499
 C772 C 0.06057 0.63279 0.07975
 C773 C 0.07000 0.65339 0.08931
 C774 C 0.06547 0.59234 0.06516
 C775 C 0.05729 0.57461 0.05692
 H776 H 0.09212 0.71905 0.14541
 H777 H 0.07545 0.68292 0.12873
 H778 H 0.13571 0.67650 0.08272
 H779 H 0.15239 0.71240 0.09987
 H780 H 0.12741 0.63612 0.09323
 H781 H 0.11076 0.60013 0.07625
 H782 H 0.04190 0.63189 0.07602
 H783 H 0.05840 0.66816 0.09258
 C784 C 0.24330 1.14269 0.85735
 C785 C 0.26094 1.13435 0.86570
 C786 C 0.28203 1.12443 0.87563
 C787 C 0.28198 1.10138 0.88429
 C788 C 0.30248 1.09172 0.89389
 C789 C 0.32333 1.10502 0.89495
 C790 C 0.32318 1.12818 0.88620
 C791 C 0.30265 1.13781 0.87662
 C792 C 0.34513 1.09477 0.90510
 C793 C 0.36712 1.09898 0.89451
 C794 C 0.38764 1.08934 0.90409
 C795 C 0.38647 1.07539 0.92437
 C796 C 0.36470 1.07109 0.93504
 C797 C 0.34415 1.08070 0.92548
 C798 C 0.40761 1.06551 0.93424
 C799 C 0.42530 1.05722 0.94252
 H800 H 0.26612 1.09085 0.88354
 H801 H 0.30211 1.07375 0.90020
 H802 H 0.33885 1.13896 0.88705
 H803 H 0.30286 1.15570 0.87003
 H804 H 0.36841 1.10947 0.87864
 H805 H 0.40440 1.09272 0.89566
 H806 H 0.36361 1.06037 0.95079
 H807 H 0.32754 1.07739 0.93421
 C808 C 0.24304 0.85818 1.14237
 C809 C 0.26068 0.86650 1.13403
 C810 C 0.28176 0.87640 1.12413
 C811 C 0.29927 0.88536 1.13895
 C812 C 0.31982 0.89488 1.12936
 C813 C 0.32312 0.89556 1.10480
 C814 C 0.30538 0.88653 1.09006
 C815 C 0.28485 0.87701 1.09969
 C816 C 0.34497 0.90560 1.09461
 C817 C 0.34404 0.91979 1.07431
 C818 C 0.36464 0.92925 1.06475
 C819 C 0.38641 0.92464 1.07532
 C820 C 0.38753 0.91054 1.09549
 C821 C 0.36696 0.90108 1.10510
 C822 C 0.40758 0.93441 1.06548
 C823 C 0.42531 0.94262 1.05724
 H824 H 0.29703 0.88503 1.15790
 H825 H 0.33301 0.90197 1.14116
 H826 H 0.30753 0.88653 1.07111
 H827 H 0.27143 0.87004 1.08806
 H828 H 0.32737 0.92384 1.06601
 H829 H 0.36357 0.94020 1.04916
 H830 H 0.40430 0.90682 1.10378
 H831 H 0.36829 0.88998 1.12054
 C832 C 0.75665 1.14200 1.14263
 C833 C 0.73908 1.13361 1.13423
 C834 C 0.71807 1.12365 1.12425
 C835 C 0.71033 1.13085 1.10198
 C836 C 0.68984 1.12128 1.09232
 C837 C 0.67683 1.10433 1.10482
 C838 C 0.68479 1.09717 1.12718
 C839 C 0.70527 1.10679 1.13682
 C840 C 0.65501 1.09421 1.09462
 C841 C 0.65003 1.07008 1.09704
 C842 C 0.62946 1.06059 1.08748
 C843 C 0.61360 1.07506 1.07539
 C844 C 0.61839 1.09907 1.07287
 C845 C 0.63896 1.10860 1.08240
 C846 C 0.59242 1.06528 1.06557
 C847 C 0.57470 1.05708 1.05733
 H848 H 0.72014 1.14385 1.09208
 H849 H 0.68434 1.12691 1.07495
 H850 H 0.67500 1.08440 1.13737
 H851 H 0.71107 1.10114 1.15410
 H852 H 0.66219 1.05850 1.10608
 H853 H 0.62596 1.04196 1.08946
 H854 H 0.60619 1.11044 1.06359
 H855 H 0.64214 1.12728 1.08051
 C856 C 0.75724 0.85770 0.85774
 C857 C 0.73964 0.86609 0.86612
 C858 C 0.71859 0.87606 0.87608
 C859 C 0.70960 0.86729 0.89727
 C860 C 0.68907 0.87687 0.90690
 C861 C 0.67727 0.89539 0.89543
 C862 C 0.68649 0.90412 0.87414
 C863 C 0.70701 0.89449 0.86454
 C864 C 0.65541 0.90552 0.90558
 C865 C 0.65143 0.92996 0.90510
 C866 C 0.63082 0.93946 0.91463
 C867 C 0.61391 0.92469 0.92472
 C868 C 0.61770 0.90037 0.92528
 C869 C 0.63830 0.89083 0.91579
 C870 C 0.59270 0.93448 0.93450
 C871 C 0.57494 0.94270 0.94271
 H872 H 0.71847 0.85306 0.90638
 H873 H 0.68259 0.86998 0.92345
 H874 H 0.67764 0.91815 0.86474
 H875 H 0.71378 0.90136 0.84808
 H876 H 0.66439 0.94175 0.89765
 H877 H 0.62809 0.95833 0.91416
 H878 H 0.60469 0.88877 0.93301
 H879 H 0.64071 0.87193 0.91615
   
