data_POSCAR
  _audit_creation_date              2014-09-24
  _audit_creation_method            'ToBaCCo'
  _symmetry_space_group_name_H-M    'P1'
  _symmetry_Int_Tables_number       1
  _symmetry_cell_setting            triclinic
  loop_
  _symmetry_equiv_pos_as_xyz
 x,y,z
_cell_length_a 32.6212
_cell_length_b 30.6703
_cell_length_c 28.5717
_cell_angle_alpha 90.389400
_cell_angle_beta 89.854100
_cell_angle_gamma 90.446000
loop_
  _atom_site_label
  _atom_site_type_symbol
  _atom_site_fract_x
  _atom_site_fract_y
  _atom_site_fract_z
N1 N 0.28687 0.40709 1.42828
 N2 N 0.29917 0.39022 1.46794
 C3 C 0.27550 0.40562 1.50303
 C4 C 0.24622 0.43247 1.48355
 C5 C 0.25432 0.43254 1.43613
 H6 H 0.27762 0.39570 1.53920
 H7 H 0.23786 0.44971 1.40918
 Cu8 Cu 0.34021 0.34447 1.46775
 Cu9 Cu 0.31371 0.39497 1.36944
 Cu10 Cu 0.39803 0.32786 1.37134
 N11 N 0.36755 0.28932 1.45578
 N12 N 0.38975 0.28213 1.41800
 C13 C 0.40442 0.24112 1.41933
 C14 C 0.39046 0.22191 1.46023
 C15 C 0.36725 0.25340 1.48238
 H16 H 0.42403 0.22673 1.39294
 H17 H 0.35135 0.25048 1.51552
 N18 N 0.38840 0.36983 1.32054
 N19 N 0.35584 0.39513 1.32037
 C20 C 0.36046 0.42559 1.28725
 C21 C 0.39726 0.41885 1.26497
 C22 C 0.41434 0.38305 1.28652
 H23 H 0.33995 0.45268 1.28207
 H24 H 0.44479 0.37031 1.28087
 H25 H 0.33840 0.33410 1.38302
 H26 H 0.36928 0.38299 1.40175
 N27 N 1.18800 0.58149 0.93471
 N28 N 1.20972 0.61742 0.94033
 C29 C 1.24548 0.60778 0.96093
 C30 C 1.24586 0.56347 0.96919
 C31 C 1.20884 0.54773 0.95251
 H32 H 1.26945 0.63118 0.96904
 H33 H 1.19869 0.51407 0.95129
 Cu34 Cu 1.18890 0.67352 0.92158
 Cu35 Cu 1.13613 0.58142 0.90109
 Cu36 Cu 1.11018 0.67808 0.84702
 N37 N 1.15562 0.72534 0.91642
 N38 N 1.12385 0.72724 0.88826
 C39 C 1.10526 0.76604 0.89421
 C40 C 1.12689 0.78937 0.92789
 C41 C 1.15870 0.76270 0.94091
 H42 H 1.07805 0.77619 0.87580
 H43 H 1.18169 0.76938 0.96729
 N44 N 1.08912 0.62108 0.82589
 N45 N 1.09697 0.58472 0.84860
 C46 C 1.08127 0.55081 0.82438
 C47 C 1.06342 0.56648 0.78421
 C48 C 1.06872 0.61122 0.78621
 H49 H 1.08584 0.51692 0.83308
 H50 H 1.06038 0.63453 0.75972
 H51 H 1.15672 0.63144 0.85952
 H52 H 1.11950 0.64633 0.90681
 N53 N 0.72057 -0.09191 0.08306
 N54 N 0.71652 -0.12504 0.05391
 C55 C 0.75271 -0.13291 0.03310
 C56 C 0.78107 -0.10307 0.04987
 C57 C 0.75968 -0.07723 0.08141
 H58 H 0.75802 -0.15854 0.00765
 H59 H 0.77169 -0.05034 0.10203
 Cu60 Cu 0.66447 -0.15541 0.04580
 Cu61 Cu 0.67406 -0.07304 0.12178
 Cu62 Cu 0.61318 -0.16350 0.14659
 N63 N 0.61827 -0.19505 0.05223
 N64 N 0.60065 -0.20132 0.09310
 C65 C 0.57366 -0.23468 0.08941
 C66 C 0.57343 -0.24870 0.04321
 C67 C 0.60189 -0.22265 0.02055
 H68 H 0.55487 -0.24683 0.11781
 H69 H 0.61138 -0.22502 -0.01569
 N70 N 0.61412 -0.10983 0.18563
 N71 N 0.63449 -0.07410 0.17386
 C72 C 0.62322 -0.04115 0.20242
 C73 C 0.59499 -0.05727 0.23413
 C74 C 0.59013 -0.10083 0.22282
 H75 H 0.63457 -0.00800 0.20015
 H76 H 0.56873 -0.12353 0.23859
 H77 H 0.66966 -0.13751 0.12920
 H78 H 0.62374 -0.11334 0.10080
 N79 N -0.20545 1.08757 -0.43142
 N80 N -0.20536 1.12357 -0.45613
 C81 C -0.24350 1.13115 -0.47173
 C82 C -0.26855 1.09749 -0.45687
 C83 C -0.24348 1.07011 -0.43176
 H84 H -0.25249 1.15950 -0.49143
 H85 H -0.25282 1.04159 -0.41224
 Cu86 Cu -0.15572 1.15799 -0.46413
 Cu87 Cu -0.15780 1.07149 -0.39418
 Cu88 Cu -0.09908 1.16324 -0.36700
 N89 N -0.10660 1.19379 -0.46115
 N90 N -0.08706 1.19959 -0.42136
 C91 C -0.05942 1.23209 -0.42639
 C92 C -0.06098 1.24616 -0.47233
 C93 C -0.09093 1.22086 -0.49352
 H94 H -0.03959 1.24424 -0.39886
 H95 H -0.10252 1.22415 -0.52876
 N96 N -0.10030 1.11009 -0.32806
 N97 N -0.12031 1.07427 -0.34058
 C98 C -0.11287 1.04275 -0.30937
 C99 C -0.08725 1.05960 -0.27531
 C100 C -0.07982 1.10237 -0.28805
 H101 H -0.12591 1.01024 -0.31079
 H102 H -0.06030 1.12574 -0.27016
 H103 H -0.15627 1.13633 -0.38191
 H104 H -0.11072 1.11545 -0.41432
 N105 N 0.71727 0.56934 0.63288
 N106 N 0.72186 0.59015 0.59311
 C107 C 0.75679 0.57693 0.57225
 C108 C 0.77462 0.54613 0.60070
 C109 C 0.74886 0.54220 0.63879
 H110 H 0.76849 0.58909 0.53934
 H111 H 0.75306 0.52157 0.66895
 Cu112 Cu 0.68226 0.63347 0.57404
 Cu113 Cu 0.67206 0.58039 0.67548
 Cu114 Cu 0.58974 0.63265 0.62513
 N115 N 0.64428 0.68141 0.56640
 N116 N 0.60770 0.68091 0.58588
 C117 C 0.58822 0.71820 0.57562
 C118 C 0.61427 0.74337 0.54859
 C119 C 0.64946 0.71906 0.54325
 H120 H 0.55793 0.72675 0.58794
 H121 H 0.67709 0.72847 0.52477
 N122 N 0.58485 0.59701 0.68170
 N123 N 0.61673 0.57956 0.70264
 C124 C 0.60417 0.56034 0.74245
 C125 C 0.56238 0.56587 0.74636
 C126 C 0.55103 0.58909 0.70732
 H127 H 0.62387 0.54333 0.76651
 H128 H 0.52067 0.60060 0.69897
 H129 H 0.63624 0.58543 0.61803
 H130 H 0.64730 0.63773 0.64949
 N131 N 0.77509 0.42173 0.14132
 N132 N 0.76930 0.39936 0.10244
 C133 C 0.73420 0.41254 0.08224
 C134 C 0.71740 0.44478 0.11034
 C135 C 0.74401 0.44959 0.14748
 H136 H 0.72162 0.39933 0.05010
 H137 H 0.74097 0.47169 0.17695
 Cu138 Cu 0.80776 0.35409 0.08424
 Cu139 Cu 0.82219 0.41287 0.18149
 Cu140 Cu 0.90399 0.36453 0.12433
 N141 N 0.84814 0.30858 0.07432
 N142 N 0.88657 0.31376 0.08727
 C143 C 0.90751 0.27726 0.07661
 C144 C 0.88038 0.24741 0.05714
 C145 C 0.84301 0.26827 0.05634
 H146 H 0.93914 0.27156 0.08591
 H147 H 0.81398 0.25458 0.04508
 N148 N 0.91041 0.40184 0.18050
 N149 N 0.87881 0.41760 0.20392
 C150 C 0.89233 0.43829 0.24265
 C151 C 0.93450 0.43558 0.24351
 C152 C 0.94506 0.41238 0.20361
 H153 H 0.87294 0.45432 0.26813
 H154 H 0.97553 0.40259 0.19309
 H155 H 0.85393 0.40729 0.12103
 H156 H 0.84910 0.35599 0.15536
 N157 N 0.28316 0.11616 0.88303
 N158 N 0.28365 0.15787 0.89419
 C159 C 0.24596 0.16986 0.90830
 C160 C 0.22072 0.13358 0.90684
 C161 C 0.24527 0.09991 0.89096
 H162 H 0.23763 0.20231 0.91966
 H163 H 0.23605 0.06644 0.88460
 Cu164 Cu 0.33395 0.19201 0.89218
 Cu165 Cu 0.33172 0.08702 0.85754
 Cu166 Cu 0.41067 0.15716 0.82500
 N167 N 0.38786 0.21945 0.89514
 N168 N 0.41793 0.20563 0.86833
 C169 C 0.45101 0.23141 0.87464
 C170 C 0.44114 0.26295 0.90737
 C171 C 0.40084 0.25450 0.91975
 H172 H 0.47971 0.22809 0.85595
 H173 H 0.38211 0.27313 0.94378
 N174 N 0.40588 0.09733 0.80144
 N175 N 0.37692 0.06971 0.81471
 C176 C 0.38194 0.03182 0.79107
 C177 C 0.41556 0.03630 0.76166
 C178 C 0.42992 0.07811 0.76932
 H179 H 0.36148 0.00398 0.79320
 H180 H 0.45542 0.09385 0.75183
 H181 H 0.37863 0.12979 0.87782
 H182 H 0.34704 0.14365 0.82570
 N183 N 0.21892 0.88920 0.38713
 N184 N 0.21372 0.85264 0.41024
 C185 C 0.24860 0.84326 0.43300
 C186 C 0.27709 0.87559 0.42367
 C187 C 0.25732 0.90435 0.39448
 H188 H 0.25310 0.81508 0.45489
 H189 H 0.26999 0.93385 0.37956
 Cu190 Cu 0.16191 0.82078 0.40850
 Cu191 Cu 0.17582 0.91318 0.34792
 Cu192 Cu 0.08368 0.85584 0.34264
 N193 N 0.10959 0.78988 0.40724
 N194 N 0.07911 0.80376 0.38138
 C195 C 0.04694 0.77637 0.38623
 C196 C 0.05789 0.74364 0.41668
 C197 C 0.09781 0.75314 0.42938
 H198 H 0.01790 0.77962 0.36847
 H199 H 0.11688 0.73436 0.45253
 N200 N 0.09425 0.90944 0.30635
 N201 N 0.12878 0.93200 0.30992
 C202 C 0.12727 0.96613 0.28063
 C203 C 0.09039 0.96477 0.25711
 C204 C 0.07010 0.92844 0.27415
 H205 H 0.15203 0.98913 0.27487
 H206 H 0.04056 0.91615 0.26288
 H207 H 0.12669 0.88670 0.38424
 H208 H 0.14654 0.85451 0.33351
 Zn209 Zn -0.00179 1.06696 -0.04235
 Zn210 Zn -0.01048 0.96918 -0.04200
 Zn211 Zn 0.05664 1.01254 0.01023
 Zn212 Zn -0.02922 1.01982 0.04495
 O213 O 0.00353 1.01726 -0.00735
 O214 O -0.02244 1.05543 -0.09975
 O215 O 0.02950 0.92908 -0.04647
 O216 O 0.08977 1.05176 -0.01622
 O217 O -0.02510 0.98317 -0.09997
 O218 O 0.04638 1.09450 -0.05309
 O219 O 0.07817 0.96139 -0.00489
 O220 O -0.00053 1.01549 0.09914
 O221 O -0.05431 0.94134 -0.01895
 O222 O 0.06312 1.01754 0.07176
 O223 O -0.06904 0.97874 0.04531
 O224 O -0.05648 1.07021 0.04799
 O225 O -0.03535 1.10605 -0.01496
 C226 C -0.03033 1.01938 -0.12024
 C227 C 0.06506 0.92916 -0.02855
 C228 C 0.08270 1.08439 -0.04181
 C229 C 0.03805 1.01660 0.10570
 C230 C -0.07700 0.94822 0.01641
 C231 C -0.05704 1.10360 0.02198
 Zn232 Zn 0.55385 -0.02615 0.47570
 Zn233 Zn 0.48545 -0.06545 0.52999
 Zn234 Zn 0.50524 0.02928 0.53968
 Zn235 Zn 0.46758 -0.00335 0.45054
 O236 O 0.50277 -0.01647 0.49886
 O237 O 0.57298 -0.07820 0.48977
 O238 O 0.47182 -0.05459 0.59016
 O239 O 0.55509 0.05414 0.54370
 O240 O 0.52278 -0.10888 0.53023
 O241 O 0.59145 0.01192 0.49653
 O242 O 0.48913 0.01503 0.59731
 O243 O 0.44476 0.05003 0.45665
 O244 O 0.44003 -0.08763 0.50432
 O245 O 0.47156 0.07183 0.52403
 O246 O 0.42511 -0.04163 0.44732
 O247 O 0.49262 -0.00464 0.39399
 O248 O 0.55559 -0.02392 0.41360
 C249 C 0.55836 -0.11027 0.51206
 C250 C 0.47426 -0.01978 0.61436
 C251 C 0.58876 0.04427 0.52417
 C252 C 0.44801 0.07786 0.48959
 C253 C 0.41688 -0.07543 0.47131
 C254 C 0.52916 -0.01457 0.38292
 Zn255 Zn 1.03763 0.46447 0.47058
 Zn256 Zn 1.04145 0.53724 0.53740
 Zn257 Zn 0.96844 0.51970 0.47847
 Zn258 Zn 0.99161 0.46321 0.55705
 O259 O 1.00949 0.49653 0.51086
 O260 O 1.09105 0.46677 0.48268
 O261 O 1.03649 0.58897 0.50789
 O262 O 0.96270 0.49230 0.42205
 O263 O 1.09429 0.52038 0.53535
 O264 O 1.02912 0.48172 0.41205
 O265 O 0.98022 0.57567 0.46601
 O266 O 0.93991 0.47601 0.57021
 O267 O 1.02939 0.54339 0.59892
 O268 O 0.92072 0.51777 0.51097
 O269 O 1.01998 0.47267 0.60960
 O270 O 0.99190 0.40652 0.54267
 O271 O 1.02130 0.40831 0.47267
 C272 C 1.11115 0.49012 0.51167
 C273 C 1.00955 0.60085 0.47836
 C274 C 0.99313 0.48374 0.39542
 C275 C 0.91317 0.49888 0.54972
 C276 C 1.02739 0.51055 0.62596
 C277 C 1.00268 0.38770 0.50492
 Zn278 Zn 0.45333 0.46400 1.03359
 Zn279 Zn 0.50354 0.53548 1.06449
 Zn280 Zn 0.52955 0.48449 0.98150
 Zn281 Zn 0.46127 0.54200 0.97722
 O282 O 0.48727 0.50596 1.01427
 O283 O 0.45907 0.45523 1.09527
 O284 O 0.55359 0.51854 1.08027
 O285 O 0.51929 0.42896 0.96446
 O286 O 0.47022 0.52465 1.11326
 O287 O 0.46169 0.41386 1.00290
 O288 O 0.57602 0.48447 1.01620
 O289 O 0.47011 0.52708 0.91809
 O290 O 0.50791 0.59314 1.05443
 O291 O 0.53631 0.51420 0.92694
 O292 O 0.48069 0.59653 0.98359
 O293 O 0.40727 0.54160 0.98696
 O294 O 0.40065 0.47880 1.02448
 C295 C 0.45886 0.48640 1.12488
 C296 C 0.58146 0.49834 1.05797
 C297 C 0.48986 0.40312 0.97432
 C298 C 0.50591 0.52386 0.90099
 C299 C 0.49996 0.61422 1.01742
 C300 C 0.38504 0.51234 1.00582
 N301 N 1.17082 0.47292 0.55865
 N302 N 1.20743 0.45519 0.55231
 C303 C 1.21323 0.45240 0.50563
 C304 C 1.17935 0.46902 0.48364
 N305 N 1.15365 0.48141 0.51779
 H306 H 1.17250 0.46897 0.44657
 N307 N 0.31513 0.48432 1.01271
 N308 N 0.27728 0.49664 1.00271
 C309 C 0.28005 0.53809 0.98753
 C310 C 0.32056 0.55085 0.98843
 N311 N 0.34145 0.51641 1.00422
 H312 H 0.33379 0.58134 0.97661
 N313 N -0.12032 0.88591 -0.00237
 N314 N -0.15810 0.87158 0.00530
 C315 C -0.17557 0.89966 0.03573
 C316 C -0.14706 0.93163 0.04693
 N317 N -0.11302 0.92180 0.02231
 H318 H -0.15138 0.96041 0.06847
 N319 N 0.62365 0.11367 0.53713
 N320 N 0.66152 0.12928 0.54087
 C321 C 0.68677 0.09470 0.53877
 C322 C 0.66339 0.05742 0.53348
 N323 N 0.62424 0.07071 0.53261
 H324 H 0.67375 0.02409 0.53016
 N325 N 0.40171 0.12828 0.52692
 N326 N 0.38594 0.16732 0.52027
 C327 C 0.39860 0.18061 0.47770
 C328 C 0.42228 0.14800 0.45791
 N329 N 0.42327 0.11601 0.48991
 H330 H 0.43882 0.14837 0.42501
 N331 N 0.97973 0.32741 0.45625
 N332 N 0.96067 0.28942 0.46129
 C333 C 0.96014 0.28089 0.50753
 C334 C 0.97966 0.31466 0.53072
 N335 N 0.99115 0.34316 0.49749
 H336 H 0.98190 0.31999 0.56814
 N337 N 0.12595 0.88787 -0.01096
 N338 N 0.14337 0.85032 -0.02175
 C339 C 0.11878 0.83033 -0.05324
 C340 C 0.08549 0.85682 -0.06151
 N341 N 0.09125 0.89233 -0.03426
 H342 H 0.05958 0.85075 -0.08430
 N343 N 0.52602 0.67408 0.97107
 N344 N 0.54751 0.71053 0.97671
 C345 C 0.55065 0.71746 1.02321
 C346 C 0.53025 0.68413 1.04604
 N347 N 0.51551 0.65765 1.01215
 H348 H 0.52881 0.67802 1.08329
 N349 N 0.43186 0.51018 1.19988
 N350 N 0.41479 0.49321 1.23776
 C351 C 0.41685 0.44953 1.23285
 C352 C 0.43539 0.44004 1.19074
 N353 N 0.44419 0.47883 1.17124
 H354 H 0.43985 0.40834 1.17470
 N355 N 0.54044 0.01802 0.30632
 N356 N 0.55941 0.00833 0.26647
 C357 C 0.57265 -0.03306 0.27042
 C358 C 0.56136 -0.04844 0.31371
 N359 N 0.54122 -0.01575 0.33489
 H360 H 0.56811 -0.07982 0.32889
 N361 N -0.05944 0.98306 -0.18822
 N362 N -0.07512 0.99248 -0.22957
 C363 C -0.07180 1.03602 -0.23453
 C364 C -0.05355 1.05319 -0.19481
 N365 N -0.04642 1.01896 -0.16680
 H366 H -0.04713 1.08706 -0.18659
 N367 N 1.03308 0.48263 0.70484
 N368 N 1.04218 0.49634 0.74761
 C369 C 1.04862 0.53971 0.74491
 C370 C 1.04330 0.55230 0.69901
 N371 N 1.03377 0.51560 0.67521
 H372 H 1.04756 0.58438 0.68412
 N373 N 0.86342 0.48067 0.60940
 N374 N 0.82666 0.49241 0.62413
 C375 C 0.81337 0.52302 0.59432
 C376 C 0.84309 0.52969 0.56050
 N377 N 0.87383 0.50260 0.57140
 H378 H 0.84306 0.55286 0.53209
 N379 N 0.62927 0.51135 1.12113
 N380 N 0.66526 0.49789 1.13620
 C381 C 0.67899 0.46865 1.10456
 C382 C 0.65030 0.46467 1.06920
 N383 N 0.61975 0.49193 1.08107
 H384 H 0.65096 0.44337 1.03885
 N385 N 0.11477 1.15179 -0.06917
 N386 N 0.15139 1.16615 -0.08259
 C387 C 0.17699 1.13184 -0.08076
 C388 C 0.15510 1.09608 -0.06546
 N389 N 0.11651 1.10992 -0.05853
 H390 H 0.16610 1.06333 -0.05976
 N391 N 0.37219 -0.13809 0.48236
 N392 N 0.33510 -0.15209 0.47069
 C393 C 0.31908 -0.12188 0.44215
 C394 C 0.34771 -0.08884 0.43637
 N395 N 0.38039 -0.10030 0.46214
 H396 H 0.34457 -0.05888 0.41693
 N397 N 0.61992 -0.15170 0.49696
 N398 N 0.63580 -0.19034 0.50567
 C399 C 0.60775 -0.21243 0.53102
 C400 C 0.57400 -0.18610 0.53774
 N401 N 0.58297 -0.14847 0.51590
 H402 H 0.54601 -0.19338 0.55667
 N403 N 0.98268 0.66003 0.43168
 N404 N 0.99447 0.69811 0.41446
 C405 C 1.03272 0.70580 0.43038
 C406 C 1.04402 0.67124 0.45826
 N407 N 1.01189 0.64342 0.45809
 H408 H 1.07312 0.66604 0.47540
 N409 N -0.12330 1.13193 0.04502
 N410 N -0.14131 1.16972 0.05353
 C411 C -0.11253 1.20098 0.04758
 C412 C -0.07620 1.18126 0.03480
 N413 N -0.08438 1.13820 0.03361
 H414 H -0.04677 1.19647 0.02785
 N415 N 0.51726 0.34529 0.92473
 N416 N 0.50524 0.30763 0.90611
 C417 C 0.46708 0.29970 0.92241
 C418 C 0.45608 0.33347 0.95175
 N419 N 0.48818 0.36120 0.95221
 H420 H 0.42705 0.33837 0.96940
 N421 N 0.48046 0.54265 0.82439
 N422 N 0.49422 0.55437 0.78273
 C423 C 0.53539 0.55204 0.78455
 C424 C 0.54662 0.53835 0.82864
 N425 N 0.51132 0.53299 0.85239
 H426 H 0.57718 0.53481 0.84270
 N427 N 0.43436 -0.04960 0.67950
 N428 N 0.41731 -0.03547 0.71900
 C429 C 0.43027 0.00603 0.72526
 C430 C 0.45586 0.01677 0.68866
 N431 N 0.45763 -0.01863 0.66083
 H432 H 0.46952 0.04826 0.68119
 N433 N 0.08640 1.04106 0.16428
 N434 N 0.10162 1.02775 0.20457
 C435 C 0.07878 0.99328 0.21816
 C436 C 0.04854 0.98614 0.18500
 N437 N 0.05442 1.01680 0.15206
 H438 H 0.02730 0.95892 0.18263
 N439 N 1.01776 0.46490 0.31775
 N440 N 1.00341 0.45138 0.27680
 C441 C 0.96222 0.45177 0.28020
 C442 C 0.95166 0.46620 0.32453
 N443 N 0.98726 0.47395 0.34682
 H444 H 0.92134 0.46848 0.33982
   
