data_POSCAR
  _audit_creation_date              2014-09-24
  _audit_creation_method            'ToBaCCo'
  _symmetry_space_group_name_H-M    'P1'
  _symmetry_Int_Tables_number       1
  _symmetry_cell_setting            triclinic
  loop_
  _symmetry_equiv_pos_as_xyz
 x,y,z
_cell_length_a 49.1770
_cell_length_b 48.8494
_cell_length_c 48.9962
_cell_angle_alpha 89.999800
_cell_angle_beta 90.028900
_cell_angle_gamma 90.254000
loop_
  _atom_site_label
  _atom_site_type_symbol
  _atom_site_fract_x
  _atom_site_fract_y
  _atom_site_fract_z
N1 N 0.16319 0.22656 0.23750
 N2 N 0.17177 0.20479 0.25055
 C3 C 0.15526 0.19964 0.27180
 C4 C 0.13519 0.21911 0.27226
 C5 C 0.14071 0.23605 0.25016
 H6 H 0.15747 0.18288 0.28602
 H7 H 0.12930 0.25376 0.24373
 Cu8 Cu 0.20359 0.18527 0.23854
 Cu9 Cu 0.18235 0.24000 0.20502
 Cu10 Cu 0.24021 0.20361 0.18396
 N11 N 0.23514 0.16470 0.22789
 N12 N 0.24984 0.17137 0.20647
 C13 C 0.27046 0.15321 0.20428
 C14 C 0.26820 0.13448 0.22559
 C15 C 0.24572 0.14251 0.23997
 H16 H 0.28590 0.15365 0.18860
 H17 H 0.23775 0.13266 0.25804
 N18 N 0.22629 0.23691 0.16467
 N19 N 0.20438 0.25025 0.17286
 C20 C 0.19982 0.27136 0.15589
 C21 C 0.21961 0.27166 0.13609
 C22 C 0.23618 0.24953 0.14214
 H23 H 0.18321 0.28566 0.15769
 H24 H 0.25395 0.24308 0.13093
 H25 H 0.19934 0.20326 0.19217
 H26 H 0.22098 0.22531 0.21408
 N27 N 0.66367 0.72611 0.73762
 N28 N 0.67112 0.70399 0.75090
 C29 C 0.65415 0.69954 0.77190
 C30 C 0.63481 0.71970 0.77206
 C31 C 0.64133 0.73645 0.75000
 H32 H 0.65553 0.68272 0.78615
 H33 H 0.63064 0.75457 0.74346
 Cu34 Cu 0.70178 0.68243 0.73954
 Cu35 Cu 0.68432 0.73880 0.70521
 Cu36 Cu 0.74166 0.69981 0.68780
 N37 N 0.73407 0.66168 0.73153
 N38 N 0.74978 0.66806 0.71082
 C39 C 0.77046 0.64998 0.70966
 C40 C 0.76729 0.63148 0.73096
 C41 C 0.74415 0.63964 0.74434
 H42 H 0.78656 0.65039 0.69466
 H43 H 0.73532 0.63000 0.76212
 N44 N 0.73008 0.73250 0.66725
 N45 N 0.70851 0.74740 0.67340
 C46 C 0.70660 0.76797 0.65500
 C47 C 0.72801 0.76571 0.63668
 C48 C 0.74230 0.74314 0.64511
 H49 H 0.69090 0.78338 0.65493
 H50 H 0.76039 0.73508 0.63557
 H51 H 0.69983 0.70172 0.69353
 H52 H 0.72101 0.72268 0.71692
 N53 N 0.33480 0.76837 0.73399
 N54 N 0.32826 0.78961 0.74899
 C55 C 0.34684 0.79218 0.76923
 C56 C 0.36569 0.77122 0.76642
 C57 C 0.35734 0.75671 0.74393
 H58 H 0.34646 0.80771 0.78493
 H59 H 0.36688 0.73863 0.73566
 Cu60 Cu 0.29550 0.81032 0.73942
 Cu61 Cu 0.31302 0.75601 0.70371
 Cu62 Cu 0.25721 0.79481 0.68409
 N63 N 0.26400 0.83239 0.72960
 N64 N 0.24906 0.82674 0.70794
 C65 C 0.22892 0.84551 0.70616
 C66 C 0.23153 0.86369 0.72792
 C67 C 0.25397 0.85466 0.74218
 H68 H 0.21350 0.84580 0.69041
 H69 H 0.26234 0.86386 0.76046
 N70 N 0.26994 0.76144 0.66358
 N71 N 0.29155 0.74750 0.67144
 C72 C 0.29586 0.72663 0.65426
 C73 C 0.27616 0.72684 0.63456
 C74 C 0.25983 0.74918 0.64085
 H75 H 0.31217 0.71197 0.65593
 H76 H 0.24208 0.75588 0.62976
 H77 H 0.29778 0.79404 0.69245
 H78 H 0.27508 0.77238 0.71374
 N79 N 0.83704 0.27521 0.23708
 N80 N 0.82935 0.29710 0.25059
 C81 C 0.84610 0.30142 0.27180
 C82 C 0.86547 0.28130 0.27202
 C83 C 0.85928 0.26479 0.24962
 H84 H 0.84446 0.31805 0.28626
 H85 H 0.87004 0.24675 0.24296
 Cu86 Cu 0.79826 0.31824 0.23974
 Cu87 Cu 0.81680 0.26289 0.20421
 Cu88 Cu 0.76040 0.30288 0.18591
 N89 N 0.76740 0.34041 0.23015
 N90 N 0.75233 0.33461 0.20880
 C91 C 0.73226 0.35329 0.20691
 C92 C 0.73518 0.37160 0.22838
 C93 C 0.75757 0.36277 0.24258
 H94 H 0.71676 0.35342 0.19128
 H95 H 0.76593 0.37211 0.26075
 N96 N 0.77179 0.27017 0.16547
 N97 N 0.79299 0.25485 0.17186
 C98 C 0.79469 0.23428 0.15341
 C99 C 0.77351 0.23703 0.13485
 C100 C 0.75960 0.25984 0.14318
 H101 H 0.81001 0.21849 0.15352
 H102 H 0.74172 0.26824 0.13351
 H103 H 0.80205 0.30043 0.19323
 H104 H 0.77988 0.27881 0.21499
 N105 N 0.83932 0.73421 0.26685
 N106 N 0.83216 0.71277 0.25226
 C107 C 0.85021 0.71008 0.23148
 C108 C 0.86943 0.73104 0.23369
 C109 C 0.86172 0.74570 0.25624
 H110 H 0.84962 0.69420 0.21606
 H111 H 0.87175 0.76364 0.26432
 Cu112 Cu 0.79962 0.69137 0.26297
 Cu113 Cu 0.81991 0.74638 0.29872
 Cu114 Cu 0.76320 0.71024 0.31865
 N115 N 0.76695 0.67098 0.27483
 N116 N 0.75341 0.67882 0.29664
 C117 C 0.73246 0.66174 0.30098
 C118 C 0.73241 0.64207 0.28097
 C119 C 0.75456 0.64842 0.26446
 H120 H 0.71813 0.66350 0.31757
 H121 H 0.76124 0.63723 0.24661
 N122 N 0.77641 0.74282 0.33834
 N123 N 0.79829 0.75637 0.33054
 C124 C 0.80260 0.77739 0.34768
 C125 C 0.78255 0.77723 0.36720
 C126 C 0.76613 0.75503 0.36078
 H127 H 0.81916 0.79191 0.34618
 H128 H 0.74823 0.74822 0.37163
 H129 H 0.80380 0.70825 0.30954
 H130 H 0.78203 0.73069 0.28757
 N131 N 0.33493 0.22410 -0.23929
 N132 N 0.32601 0.20257 -0.25264
 C133 C 0.34253 0.19745 -0.27386
 C134 C 0.36284 0.21694 -0.27411
 C135 C 0.35755 0.23364 -0.25178
 H136 H 0.33996 0.18088 -0.28831
 H137 H 0.36918 0.25121 -0.24505
 Cu138 Cu 0.29335 0.18384 -0.24127
 Cu139 Cu 0.31596 0.23730 -0.20663
 Cu140 Cu 0.25837 0.20048 -0.18498
 N141 N 0.26300 0.16203 -0.22938
 N142 N 0.24880 0.16818 -0.20750
 C143 C 0.22859 0.14944 -0.20485
 C144 C 0.23064 0.13092 -0.22632
 C145 C 0.25262 0.13956 -0.24120
 H146 H 0.21357 0.14937 -0.18876
 H147 H 0.26030 0.13005 -0.25954
 N148 N 0.27242 0.23393 -0.16582
 N149 N 0.29427 0.24741 -0.17427
 C150 C 0.29891 0.26870 -0.15752
 C151 C 0.27926 0.26900 -0.13758
 C152 C 0.26265 0.24667 -0.14333
 H153 H 0.31542 0.28321 -0.15959
 H154 H 0.24491 0.24021 -0.13199
 H155 H 0.29877 0.20004 -0.19440
 H156 H 0.27673 0.22283 -0.21493
 N157 N 0.66088 0.27286 -0.23848
 N158 N 0.66936 0.29481 -0.25145
 C159 C 0.65292 0.29982 -0.27277
 C160 C 0.63305 0.27992 -0.27346
 C161 C 0.63858 0.26297 -0.25134
 H162 H 0.65518 0.31665 -0.28695
 H163 H 0.62724 0.24508 -0.24494
 Cu164 Cu 0.70106 0.31460 -0.23925
 Cu165 Cu 0.67991 0.25985 -0.20567
 Cu166 Cu 0.73740 0.29702 -0.18427
 N167 N 0.73242 0.33550 -0.22846
 N168 N 0.74693 0.32905 -0.20688
 C169 C 0.76755 0.34731 -0.20453
 C170 C 0.76546 0.36586 -0.22592
 C171 C 0.74310 0.35772 -0.24050
 H172 H 0.78283 0.34705 -0.18868
 H173 H 0.73534 0.36744 -0.25869
 N174 N 0.72352 0.26382 -0.16494
 N175 N 0.70176 0.25008 -0.17318
 C176 C 0.69730 0.22904 -0.15604
 C177 C 0.71704 0.22927 -0.13612
 C178 C 0.73343 0.25160 -0.14227
 H179 H 0.68084 0.21443 -0.15778
 H180 H 0.75110 0.25846 -0.13104
 H181 H 0.69672 0.29699 -0.19282
 H182 H 0.71865 0.27510 -0.21445
 N183 N 0.16717 0.76924 0.26636
 N184 N 0.17331 0.79096 0.25157
 C185 C 0.15497 0.79278 0.23100
 C186 C 0.13656 0.77117 0.23348
 C187 C 0.14506 0.75686 0.25599
 H188 H 0.15501 0.80846 0.21547
 H189 H 0.13578 0.73846 0.26408
 Cu190 Cu 0.20585 0.81307 0.26091
 Cu191 Cu 0.18747 0.75746 0.29828
 Cu192 Cu 0.24153 0.79794 0.31694
 N193 N 0.23770 0.83552 0.27216
 N194 N 0.25136 0.82835 0.29412
 C195 C 0.27214 0.84564 0.29829
 C196 C 0.27204 0.86486 0.27792
 C197 C 0.24993 0.85796 0.26137
 H198 H 0.28656 0.84430 0.31494
 H199 H 0.24315 0.86859 0.24331
 N200 N 0.23173 0.76488 0.33675
 N201 N 0.21082 0.74930 0.33009
 C202 C 0.20913 0.72850 0.34816
 C203 C 0.23014 0.73141 0.36683
 C204 C 0.24394 0.75453 0.35894
 H205 H 0.19377 0.71263 0.34783
 H206 H 0.26160 0.76318 0.36887
 H207 H 0.20010 0.79581 0.30723
 H208 H 0.22358 0.77423 0.28634
 N209 N 0.48346 0.41370 0.48252
 N210 N 0.46169 0.42019 0.49667
 C211 C 0.45892 0.40185 0.51721
 C212 C 0.48035 0.38336 0.51553
 C213 C 0.49526 0.39161 0.49340
 H214 H 0.44277 0.40198 0.53219
 H215 H 0.51353 0.38208 0.48572
 Cu216 Cu 0.43987 0.45197 0.48533
 Cu217 Cu 0.49574 0.43364 0.45104
 Cu218 Cu 0.45906 0.49022 0.43101
 N219 N 0.41948 0.48474 0.47438
 N220 N 0.42712 0.49910 0.45293
 C221 C 0.40970 0.51991 0.44916
 C222 C 0.38998 0.51884 0.46912
 C223 C 0.39674 0.49608 0.48488
 H224 H 0.41119 0.53489 0.43295
 H225 H 0.38575 0.48846 0.50248
 N226 N 0.49218 0.47762 0.41161
 N227 N 0.50577 0.45583 0.41958
 C228 C 0.52690 0.45174 0.40277
 C229 C 0.52691 0.47182 0.38321
 C230 C 0.50461 0.48806 0.38927
 H231 H 0.54141 0.43527 0.40448
 H232 H 0.49788 0.50592 0.37821
 H233 H 0.47943 0.47119 0.46208
 H234 H 0.45825 0.44913 0.43914
 N235 N -0.02433 -0.08619 0.98682
 N236 N -0.04577 -0.07825 1.00064
 C237 C -0.04993 -0.09513 1.02184
 C238 C -0.03019 -0.11481 1.02162
 C239 C -0.01404 -0.10871 0.99909
 H240 H -0.06605 -0.09326 1.03671
 H241 H 0.00371 -0.11970 0.99224
 Cu242 Cu -0.06621 -0.04629 0.99098
 Cu243 Cu -0.01223 -0.06592 0.95408
 Cu244 Cu -0.05115 -0.00859 0.93649
 N245 N -0.08802 -0.01529 0.98110
 N246 N -0.08225 -0.00015 0.95978
 C247 C -0.10051 0.02033 0.95818
 C248 C -0.11854 0.01759 0.97982
 C249 C -0.10996 -0.00511 0.99381
 H250 H -0.10049 0.03599 0.94263
 H251 H -0.11905 -0.01337 1.01212
 N252 N -0.01909 -0.02054 0.91557
 N253 N -0.00419 -0.04215 0.92179
 C254 C 0.01601 -0.04429 0.90315
 C255 C 0.01350 -0.02297 0.88457
 C256 C -0.00884 -0.00850 0.89314
 H257 H 0.03139 -0.06002 0.90315
 H258 H -0.01699 0.00962 0.88355
 H259 H -0.02718 -0.02829 0.96540
 H260 H -0.04957 -0.05027 0.94406
 N261 N 1.02778 0.58432 0.98884
 N262 N 1.04963 0.57514 1.00132
 C263 C 1.05508 0.59130 1.02284
 C264 C 1.03591 0.61176 1.02391
 C265 C 1.01886 0.60682 1.00194
 H266 H 1.07180 0.58848 1.03685
 H267 H 1.00158 0.61886 0.99568
 Cu268 Cu 1.06838 0.54242 0.98900
 Cu269 Cu 1.01302 0.56670 0.95645
 Cu270 Cu 1.04492 0.50750 0.93490
 N271 N 1.08726 0.51029 0.97505
 N272 N 1.07797 0.49690 0.95365
 C273 C 1.09418 0.47539 0.94869
 C274 C 1.11454 0.47496 0.96802
 C275 C 1.10954 0.49742 0.98452
 H276 H 1.09151 0.46102 0.93218
 H277 H 1.12103 0.50377 1.00221
 N278 N 1.01343 0.52328 0.91558
 N279 N 1.00130 0.54577 0.92409
 C280 C 0.98031 0.55131 0.90741
 C281 C 0.97905 0.53145 0.88751
 C282 C 1.00037 0.51391 0.89319
 H283 H 0.96668 0.56846 0.90961
 H284 H 1.00591 0.49570 0.88203
 H285 H 1.02626 0.52829 0.96625
 H286 H 1.04859 0.54853 0.94333
 N287 N 0.52291 0.08519 0.48716
 N288 N 0.54418 0.07580 0.50040
 C289 C 0.54943 0.09225 0.52181
 C290 C 0.53036 0.11287 0.52217
 C291 C 0.51379 0.10784 0.49985
 H292 H 0.56589 0.08956 0.53618
 H293 H 0.49651 0.11971 0.49323
 Cu294 Cu 0.56285 0.04319 0.48783
 Cu295 Cu 0.50883 0.06745 0.45424
 Cu296 Cu 0.54190 0.00844 0.43321
 N297 N 0.58310 0.01158 0.47487
 N298 N 0.57495 -0.00152 0.45288
 C299 C 0.59191 -0.02246 0.44801
 C300 C 0.61176 -0.02262 0.46789
 C301 C 0.60566 -0.00063 0.48467
 H302 H 0.58978 -0.03686 0.43142
 H303 H 0.61659 0.00584 0.50269
 N304 N 0.51046 0.02395 0.41325
 N305 N 0.49797 0.04635 0.42156
 C306 C 0.47724 0.05171 0.40449
 C307 C 0.47646 0.03187 0.38453
 C308 C 0.49784 0.01450 0.39062
 H309 H 0.46342 0.06874 0.40648
 H310 H 0.50371 -0.00366 0.37953
 H311 H 0.52149 0.02868 0.46386
 H312 H 0.54471 0.04935 0.44206
 N313 N -0.01966 0.08570 0.51834
 N314 N -0.04137 0.08063 0.50350
 C315 C -0.04284 0.09929 0.48320
 C316 C -0.02078 0.11689 0.48569
 C317 C -0.00660 0.10761 0.50810
 H318 H -0.05852 0.09985 0.46771
 H319 H 0.01202 0.11612 0.51621
 Cu320 Cu -0.06509 0.04970 0.51212
 Cu321 Cu -0.00915 0.06266 0.54891
 Cu322 Cu -0.05168 0.00883 0.56586
 N323 N -0.08761 0.01807 0.52061
 N324 N -0.08244 0.00232 0.54169
 C325 C -0.10134 -0.01766 0.54300
 C326 C -0.11927 -0.01421 0.52148
 C327 C -0.10992 0.00855 0.50772
 H328 H -0.10194 -0.03334 0.55850
 H329 H -0.11895 0.01748 0.48971
 N330 N -0.01943 0.01895 0.58757
 N331 N -0.00320 0.03968 0.58156
 C332 C 0.01695 0.04084 0.60028
 C333 C 0.01308 0.01971 0.61880
 C334 C -0.01007 0.00638 0.61008
 H335 H 0.03334 0.05565 0.60019
 H336 H -0.01923 -0.01144 0.61943
 H337 H -0.02829 0.02675 0.53634
 H338 H -0.04814 0.05013 0.55883
 N339 N 0.47962 0.58533 0.01548
 N340 N 0.45802 0.57901 0.00084
 C341 C 0.45596 0.59738 -0.01981
 C342 C 0.47742 0.61594 -0.01752
 C343 C 0.49180 0.60753 0.00493
 H344 H 0.44027 0.59726 -0.03529
 H345 H 0.51006 0.61694 0.01295
 Cu346 Cu 0.43583 0.54650 0.01034
 Cu347 Cu 0.49141 0.56526 0.04741
 Cu348 Cu 0.45204 0.51040 0.06615
 N349 N 0.41476 0.51358 0.02129
 N350 N 0.42223 0.49979 0.04307
 C351 C 0.40539 0.47857 0.04706
 C352 C 0.38612 0.47852 0.02687
 C353 C 0.39252 0.50103 0.01054
 H354 H 0.40692 0.46413 0.06370
 H355 H 0.38158 0.50789 -0.00734
 N356 N 0.48473 0.52094 0.08607
 N357 N 0.49990 0.54217 0.07930
 C358 C 0.52056 0.54433 0.09735
 C359 C 0.51803 0.52329 0.11618
 C360 C 0.49524 0.50896 0.10834
 H361 H 0.53610 0.56002 0.09687
 H362 H 0.48691 0.49111 0.11838
 H363 H 0.47475 0.52885 0.03537
 H364 H 0.45329 0.55216 0.05668
 N365 N 0.52082 -0.08439 0.01635
 N366 N 0.54208 -0.07884 0.00106
 C367 C 0.54341 -0.09750 -0.01925
 C368 C 0.52186 -0.11563 -0.01611
 C369 C 0.50807 -0.10663 0.00653
 H370 H 0.55876 -0.09789 -0.03499
 H371 H 0.48988 -0.11565 0.01501
 Cu372 Cu 0.56483 -0.04702 0.00896
 Cu373 Cu 0.51069 -0.06282 0.04788
 Cu374 Cu 0.55145 -0.00674 0.06300
 N375 N 0.58769 -0.01570 0.01795
 N376 N 0.58238 0.00005 0.03902
 C377 C 0.60109 0.02025 0.04024
 C378 C 0.61900 0.01699 0.01869
 C379 C 0.60980 -0.00588 0.00495
 H380 H 0.60147 0.03624 0.05543
 H381 H 0.61876 -0.01466 -0.01313
 N382 N 0.51927 -0.01708 0.08478
 N383 N 0.50373 -0.03844 0.07913
 C384 C 0.48354 -0.03992 0.09770
 C385 C 0.48660 -0.01839 0.11583
 C386 C 0.50936 -0.00442 0.10702
 H387 H 0.46781 -0.05543 0.09790
 H388 H 0.51800 0.01371 0.11625
 H389 H 0.52724 -0.02648 0.03462
 H390 H 0.54894 -0.04832 0.05638
 N391 N 1.01845 0.41337 0.51789
 N392 N 1.03986 0.41978 0.50301
 C393 C 1.04184 0.40153 0.48229
 C394 C 1.02029 0.38311 0.48454
 C395 C 1.00611 0.39132 0.50723
 H396 H 1.05751 0.40170 0.46677
 H397 H 0.98813 0.38168 0.51556
 Cu398 Cu 1.06269 0.45131 0.51325
 Cu399 Cu 1.00719 0.43334 0.55020
 Cu400 Cu 1.04771 0.48762 0.56885
 N401 N 1.08399 0.48404 0.52338
 N402 N 1.07708 0.49780 0.54533
 C403 C 1.09426 0.51869 0.54921
 C404 C 1.11323 0.51843 0.52883
 C405 C 1.10643 0.49604 0.51254
 H406 H 1.09344 0.53280 0.56613
 H407 H 1.11707 0.48899 0.49456
 N408 N 1.01508 0.47762 0.58884
 N409 N 0.99946 0.45662 0.58232
 C410 C 0.97899 0.45499 0.60064
 C411 C 0.98222 0.47614 0.61928
 C412 C 1.00511 0.48996 0.61109
 H413 H 0.96312 0.43964 0.60045
 H414 H 1.01390 0.50771 0.62092
 H415 H 1.02446 0.46947 0.53875
 H416 H 1.04555 0.44591 0.55985
 C417 C 0.41827 0.01039 0.21015
 H418 H 0.42099 0.02888 0.22208
 C419 C 0.43505 0.00551 0.18767
 H420 H 0.45036 0.02063 0.18278
 C421 C 0.39444 -0.03112 0.20228
 H422 H 0.37882 -0.04555 0.20811
 C423 C 0.41078 -0.03683 0.17976
 H424 H 0.40729 -0.05553 0.16837
 N425 N 0.39817 -0.00767 0.21678
 C426 C 0.33537 0.04042 0.25774
 H427 H 0.33229 0.02917 0.27656
 C428 C 0.31917 0.06317 0.25195
 H429 H 0.30419 0.06905 0.26691
 C430 C 0.35837 0.04548 0.21559
 H431 H 0.37312 0.03824 0.20103
 C432 C 0.34272 0.06832 0.20904
 H433 H 0.34601 0.07857 0.18970
 Zn434 Zn 0.37518 -0.00006 0.24695
 N435 N 0.35469 0.03214 0.23970
 C436 C 0.39808 0.02726 0.29352
 N437 N 0.39794 0.00405 0.27815
 C438 C 0.41548 -0.01673 0.28348
 C439 C 0.43391 -0.01481 0.30512
 C440 C 0.41625 0.03007 0.31536
 C441 C 0.33157 -0.03353 0.23140
 C442 C 0.31284 -0.05508 0.23293
 C443 C 0.33214 -0.06774 0.27643
 C444 C 0.35066 -0.04604 0.27396
 N445 N 0.35013 -0.02952 0.25162
 H446 H 0.38439 0.04386 0.28869
 H447 H 0.41532 -0.03479 0.27065
 H448 H 0.44774 -0.03158 0.30894
 H449 H 0.41593 0.04894 0.32679
 H450 H 0.33165 -0.02016 0.21376
 H451 H 0.29851 -0.05808 0.21639
 H452 H 0.33334 -0.08017 0.29460
 H453 H 0.36545 -0.04252 0.28995
 C454 C 0.32272 0.07751 0.22715
 C455 C 0.43144 -0.01851 0.17211
 C456 C 0.31277 -0.07259 0.25562
 C457 C 0.43457 0.00877 0.32146
 C458 C 0.08065 -0.01284 0.71269
 H459 H 0.07797 -0.03194 0.72361
 C460 C 0.06421 -0.00709 0.69009
 H461 H 0.04929 -0.02220 0.68407
 C462 C 0.10374 0.02947 0.70753
 H463 H 0.11893 0.04391 0.71441
 C464 C 0.08779 0.03603 0.68490
 H465 H 0.09108 0.05537 0.67457
 N466 N 0.10023 0.00522 0.72077
 C467 C 0.16494 -0.04291 0.76046
 H468 H 0.16755 -0.03225 0.77969
 C469 C 0.18126 -0.06564 0.75446
 H470 H 0.19596 -0.07193 0.76956
 C471 C 0.14213 -0.04740 0.71817
 H472 H 0.12702 -0.04024 0.70389
 C473 C 0.15798 -0.07012 0.71135
 H474 H 0.15465 -0.08014 0.69191
 Zn475 Zn 0.12286 -0.00365 0.75123
 N476 N 0.14559 -0.03437 0.74249
 C477 C 0.10337 -0.03589 0.79537
 N478 N 0.10000 -0.01199 0.78158
 C479 C 0.08079 0.00641 0.78942
 C480 C 0.06450 0.00131 0.81227
 C481 C 0.08742 -0.04187 0.81821
 C482 C 0.16440 0.03577 0.74207
 C483 C 0.18033 0.05883 0.74781
 C484 C 0.15724 0.06317 0.79105
 C485 C 0.14170 0.04013 0.78445
 N486 N 0.14529 0.02703 0.76019
 H487 H 0.11853 -0.05037 0.78881
 H488 H 0.07848 0.02541 0.77826
 H489 H 0.04999 0.01677 0.81811
 H490 H 0.09056 -0.06097 0.82896
 H491 H 0.16696 0.02514 0.72284
 H492 H 0.19478 0.06530 0.73254
 H493 H 0.15392 0.07334 0.81040
 H494 H 0.12674 0.03287 0.79884
 C495 C 0.17795 -0.07968 0.72946
 C496 C 0.06768 0.01775 0.67580
 C497 C 0.17693 0.07288 0.77277
 C498 C 0.06763 -0.02327 0.82703
 C499 C 0.58628 0.49596 0.21061
 H500 H 0.58355 0.47756 0.22268
 C501 C 0.56960 0.50061 0.18804
 H502 H 0.55440 0.48537 0.18324
 C503 C 0.61005 0.53746 0.20253
 H504 H 0.62563 0.55196 0.20833
 C505 C 0.59378 0.54297 0.17988
 H506 H 0.59725 0.56159 0.16836
 N507 N 0.60629 0.51411 0.21719
 C508 C 0.66866 0.46641 0.25906
 H509 H 0.67149 0.47775 0.27786
 C510 C 0.68484 0.44357 0.25369
 H511 H 0.69957 0.43767 0.26890
 C512 C 0.64623 0.46115 0.21657
 H513 H 0.63168 0.46835 0.20177
 C514 C 0.66187 0.43823 0.21044
 H515 H 0.65880 0.42784 0.19114
 Zn516 Zn 0.62889 0.50658 0.24758
 N517 N 0.64961 0.47459 0.24067
 C518 C 0.60587 0.47874 0.29340
 N519 N 0.60587 0.50214 0.27835
 C520 C 0.58804 0.52265 0.28369
 C521 C 0.56935 0.52020 0.30501
 C522 C 0.58746 0.47541 0.31489
 C523 C 0.67241 0.54014 0.23278
 C524 C 0.69111 0.56161 0.23480
 C525 C 0.67125 0.57382 0.27819
 C526 C 0.65279 0.55221 0.27525
 N527 N 0.65361 0.53597 0.25273
 H528 H 0.61982 0.46239 0.28856
 H529 H 0.58816 0.54088 0.27111
 H530 H 0.55525 0.53673 0.30889
 H531 H 0.58789 0.45635 0.32602
 H532 H 0.67256 0.52692 0.21505
 H533 H 0.70568 0.56481 0.21851
 H534 H 0.66988 0.58609 0.29644
 H535 H 0.63784 0.54852 0.29102
 C536 C 0.68153 0.42911 0.22896
 C537 C 0.57320 0.52454 0.17231
 C538 C 0.69084 0.57881 0.25771
 C539 C 0.56877 0.49638 0.32097
 C540 C 0.91660 0.50711 0.71409
 H541 H 0.91975 0.52591 0.72543
 C542 C 0.93258 0.50160 0.69124
 H543 H 0.94761 0.51666 0.68544
 C544 C 0.89261 0.46534 0.70827
 H545 H 0.87729 0.45105 0.71510
 C546 C 0.90820 0.45896 0.68540
 H547 H 0.90447 0.43989 0.67472
 N548 N 0.89679 0.48924 0.72191
 C549 C 0.83517 0.53814 0.76377
 H550 H 0.83273 0.52742 0.78298
 C551 C 0.81881 0.56078 0.75795
 H552 H 0.80435 0.56718 0.77322
 C553 C 0.85682 0.54215 0.72078
 H554 H 0.87120 0.53463 0.70598
 C555 C 0.84103 0.56487 0.71422
 H556 H 0.84379 0.57471 0.69459
 Zn557 Zn 0.87544 0.49793 0.75284
 N558 N 0.85392 0.52940 0.74533
 C559 C 0.89920 0.52638 0.79815
 N560 N 0.89982 0.50364 0.78218
 C561 C 0.91822 0.48341 0.78660
 C562 C 0.93676 0.48536 0.80805
 C563 C 0.91759 0.52929 0.81973
 C564 C 0.83271 0.46029 0.74354
 C565 C 0.81639 0.43750 0.74899
 C566 C 0.83996 0.43175 0.79187
 C567 C 0.85586 0.45455 0.78556
 N568 N 0.85228 0.46812 0.76158
 H569 H 0.88443 0.54227 0.79427
 H570 H 0.91813 0.46544 0.77364
 H571 H 0.95101 0.46884 0.81143
 H572 H 0.91655 0.54770 0.83183
 H573 H 0.83019 0.47139 0.72456
 H574 H 0.80163 0.43166 0.73376
 H575 H 0.84334 0.42106 0.81094
 H576 H 0.87112 0.46122 0.79995
 C577 C 0.82166 0.57453 0.73277
 C578 C 0.92849 0.47708 0.67654
 C579 C 0.81989 0.42287 0.77359
 C580 C 0.93676 0.50851 0.82496
 C581 C 0.21612 0.41498 0.01508
 H582 H 0.22975 0.41557 0.03244
 C583 C 0.19484 0.43369 0.01325
 H584 H 0.19206 0.44858 0.02939
 C585 C 0.20366 0.39520 -0.02731
 H586 H 0.20742 0.38055 -0.04340
 C587 C 0.18215 0.41356 -0.02998
 H588 H 0.16988 0.41237 -0.04819
 N589 N 0.22006 0.39617 -0.00496
 C590 C 0.26765 0.33225 0.03440
 H591 H 0.28519 0.33194 0.02105
 C592 C 0.26572 0.31363 0.05596
 H593 H 0.28203 0.29916 0.05923
 C594 C 0.22481 0.35108 0.04576
 H595 H 0.20855 0.36527 0.04140
 C596 C 0.22203 0.33278 0.06752
 H597 H 0.20361 0.33371 0.07943
 Zn598 Zn 0.25078 0.37327 -0.00151
 N599 N 0.24743 0.35057 0.02977
 C600 C 0.29766 0.39717 0.02374
 N601 N 0.28148 0.39687 0.00121
 C602 C 0.28541 0.41503 -0.01947
 C603 C 0.30645 0.43431 -0.01816
 C604 C 0.31890 0.41617 0.02593
 C605 C 0.23334 0.33115 -0.03594
 C606 C 0.23467 0.31215 -0.05721
 C607 C 0.27818 0.33124 -0.07008
 C608 C 0.27599 0.34995 -0.04860
 N609 N 0.25375 0.34963 -0.03210
 H610 H 0.29385 0.38307 0.04035
 H611 H 0.27191 0.41470 -0.03693
 H612 H 0.30920 0.44859 -0.03485
 H613 H 0.33095 0.41579 0.04433
 H614 H 0.21603 0.33113 -0.02228
 H615 H 0.21815 0.29765 -0.05991
 H616 H 0.29632 0.33210 -0.08242
 H617 H 0.29232 0.36441 -0.04496
 C618 C 0.24271 0.31358 0.07291
 C619 C 0.17751 0.43326 -0.00950
 C620 C 0.25729 0.31185 -0.07466
 C621 C 0.32359 0.43522 0.00472
 C622 C 0.71237 0.08713 -0.01103
 H623 H 0.72364 0.08507 -0.02990
 C624 C 0.68999 0.07006 -0.00606
 H625 H 0.68436 0.05538 -0.02155
 C626 C 0.70662 0.10870 0.03186
 H627 H 0.71331 0.12342 0.04688
 C628 C 0.68414 0.09216 0.03760
 H629 H 0.67366 0.09461 0.05690
 N630 N 0.72012 0.10615 0.00777
 C631 C 0.76541 0.17156 -0.03332
 H632 H 0.78324 0.17204 -0.02032
 C633 C 0.76333 0.18977 -0.05516
 H634 H 0.77961 0.20433 -0.05878
 C635 C 0.72304 0.15129 -0.04471
 H636 H 0.70743 0.13614 -0.04071
 C637 C 0.72001 0.16931 -0.06666
 H638 H 0.70179 0.16756 -0.07881
 Zn639 Zn 0.75124 0.12848 0.00104
 N640 N 0.74553 0.15271 -0.02860
 C641 C 0.79484 0.10917 -0.03112
 N642 N 0.78104 0.10547 -0.00732
 C643 C 0.78841 0.08569 0.01072
 C644 C 0.81088 0.06917 0.00541
 C645 C 0.81734 0.09310 -0.03725
 C646 C 0.74175 0.16975 0.04037
 C647 C 0.74744 0.18602 0.06315
 C648 C 0.78990 0.16201 0.06863
 C649 C 0.78338 0.14619 0.04582
 N650 N 0.75953 0.15007 0.03231
 H651 H 0.78855 0.12459 -0.04552
 H652 H 0.77715 0.08307 0.02954
 H653 H 0.81644 0.05416 0.02054
 H654 H 0.82820 0.09650 -0.05620
 H655 H 0.72297 0.17272 0.02918
 H656 H 0.73254 0.20107 0.06900
 H657 H 0.80898 0.15851 0.07908
 H658 H 0.79761 0.13096 0.03888
 C659 C 0.74039 0.18897 -0.07219
 C660 C 0.67550 0.07246 0.01864
 C661 C 0.77196 0.18230 0.07765
 C662 C 0.82565 0.07274 -0.01901
 C663 C 0.21593 0.57780 0.48369
 H664 H 0.22973 0.57751 0.46649
 C665 C 0.19459 0.55902 0.48497
 H666 H 0.19203 0.54419 0.46872
 C667 C 0.20212 0.59815 0.52534
 H668 H 0.20508 0.61343 0.54105
 C669 C 0.18066 0.57960 0.52758
 H670 H 0.16777 0.58133 0.54526
 N671 N 0.21914 0.59697 0.50356
 C672 C 0.25946 0.66310 0.46072
 H673 H 0.27776 0.66615 0.47268
 C674 C 0.25437 0.67980 0.43818
 H675 H 0.26933 0.69520 0.43314
 C676 C 0.21790 0.63942 0.45365
 H677 H 0.20324 0.62423 0.46004
 C678 C 0.21207 0.65553 0.43096
 H679 H 0.19326 0.65212 0.41991
 Zn680 Zn 0.24823 0.62163 0.49919
 N681 N 0.24144 0.64316 0.46782
 C682 C 0.29541 0.60125 0.47212
 N683 N 0.28002 0.60002 0.49515
 C684 C 0.28544 0.58151 0.51517
 C685 C 0.30731 0.56350 0.51266
 C686 C 0.31751 0.58363 0.46877
 C687 C 0.23003 0.66330 0.53380
 C688 C 0.23121 0.68236 0.55504
 C689 C 0.27554 0.66501 0.56702
 C690 C 0.27347 0.64620 0.54562
 N691 N 0.25094 0.64567 0.52952
 H692 H 0.29033 0.61552 0.45605
 H693 H 0.27244 0.58048 0.53298
 H694 H 0.31123 0.54883 0.52876
 H695 H 0.32926 0.58497 0.45012
 H696 H 0.21241 0.66261 0.52055
 H697 H 0.21433 0.69620 0.55811
 H698 H 0.29398 0.66486 0.57895
 H699 H 0.29009 0.63230 0.54173
 C700 C 0.23027 0.67611 0.42293
 C701 C 0.17667 0.55957 0.50714
 C702 C 0.25416 0.68358 0.57199
 C703 C 0.32382 0.56432 0.48937
 C704 C 0.71320 0.92006 0.51825
 H705 H 0.72607 0.92086 0.53618
 C706 C 0.69155 0.93824 0.51563
 H707 H 0.68790 0.95311 0.53160
 C708 C 0.70214 0.89935 0.47590
 H709 H 0.70631 0.88425 0.46035
 C710 C 0.68039 0.91726 0.47239
 H711 H 0.66847 0.91541 0.45400
 N712 N 0.71792 0.90094 0.49867
 C713 C 0.75776 0.83442 0.54249
 H714 H 0.77637 0.83181 0.53096
 C715 C 0.75260 0.81774 0.56510
 H716 H 0.76768 0.80269 0.57045
 C717 C 0.71618 0.85777 0.54922
 H718 H 0.70180 0.87313 0.54289
 C719 C 0.71019 0.84152 0.57185
 H720 H 0.69135 0.84483 0.58278
 Zn721 Zn 0.74734 0.87679 0.50451
 N722 N 0.73975 0.85419 0.53517
 C723 C 0.79271 0.89506 0.53484
 N724 N 0.77873 0.89832 0.51111
 C725 C 0.78619 0.91768 0.49255
 C726 C 0.80881 0.93437 0.49739
 C727 C 0.81544 0.91121 0.54043
 C728 C 0.73212 0.83554 0.46829
 C729 C 0.73457 0.81732 0.44650
 C730 C 0.77878 0.83669 0.43669
 C731 C 0.77544 0.85464 0.45862
 N732 N 0.75233 0.85378 0.47386
 H733 H 0.78617 0.88015 0.54971
 H734 H 0.77450 0.92028 0.47399
 H735 H 0.81427 0.94932 0.48211
 H736 H 0.82635 0.90825 0.55941
 H737 H 0.71404 0.83518 0.48090
 H738 H 0.71820 0.80300 0.44237
 H739 H 0.79756 0.83785 0.42535
 H740 H 0.79151 0.86902 0.46351
 C741 C 0.72836 0.82111 0.58013
 C742 C 0.67479 0.93708 0.49247
 C743 C 0.75811 0.81762 0.43035
 C744 C 0.82376 0.93123 0.52171
 C745 C 0.01082 0.21043 0.41654
 H746 H 0.02983 0.22146 0.41882
 C747 C 0.00527 0.18792 0.43335
 H748 H 0.02048 0.18202 0.44808
 C749 C -0.03189 0.20535 0.39475
 H750 H -0.04674 0.21240 0.38018
 C751 C -0.03817 0.18273 0.41094
 H752 H -0.05758 0.17248 0.40821
 N753 N -0.00760 0.21857 0.39749
 C754 C 0.03318 0.26458 0.33243
 H755 H 0.01963 0.28200 0.33207
 C756 C 0.05456 0.26311 0.31383
 H757 H 0.05734 0.27948 0.29915
 C758 C 0.04603 0.22239 0.35243
 H759 H 0.04257 0.20656 0.36749
 C760 C 0.06760 0.21996 0.33396
 H761 H 0.08018 0.20198 0.33533
 Zn762 Zn -0.00068 0.24965 0.37487
 N763 N 0.02943 0.24453 0.35136
 C764 C 0.03079 0.29395 0.39425
 N765 N 0.00641 0.28092 0.39716
 C766 C -0.01191 0.28939 0.41614
 C767 C -0.00614 0.31204 0.43271
 C768 C 0.03727 0.31670 0.41017
 C769 C -0.03462 0.23456 0.33241
 C770 C -0.05573 0.23623 0.31348
 C771 C -0.06841 0.27967 0.33318
 C772 C -0.04712 0.27704 0.35197
 N773 N -0.03080 0.25467 0.35126
 H774 H 0.04559 0.28665 0.37979
 H775 H -0.03099 0.27849 0.41855
 H776 H -0.02132 0.31819 0.44736
 H777 H 0.05673 0.32679 0.40731
 H778 H -0.02124 0.21701 0.33226
 H779 H -0.05850 0.21985 0.29882
 H780 H -0.08064 0.29791 0.33425
 H781 H -0.04355 0.29296 0.36692
 C782 C 0.07212 0.24059 0.31424
 C783 C -0.01962 0.17368 0.43064
 C784 C -0.07299 0.25899 0.31348
 C785 C 0.01889 0.32606 0.42981
 C786 C -0.01105 0.71450 0.08218
 H787 H -0.02862 0.72779 0.08141
 C788 C -0.00896 0.69273 0.06392
 H789 H -0.02505 0.68935 0.04915
 C790 C 0.03105 0.70285 0.10259
 H791 H 0.04669 0.70698 0.11757
 C792 C 0.03408 0.68092 0.08452
 H793 H 0.05222 0.66869 0.08611
 N794 N 0.00864 0.71899 0.10119
 C795 C -0.03643 0.76128 0.16538
 H796 H -0.02542 0.78040 0.16761
 C797 C -0.05918 0.75599 0.18180
 H798 H -0.06523 0.77155 0.19617
 C799 C -0.04145 0.71818 0.14384
 H800 H -0.03439 0.70312 0.12942
 C801 C -0.06429 0.71215 0.15968
 H802 H -0.07464 0.69272 0.15689
 Zn803 Zn 0.00308 0.74950 0.12427
 N804 N -0.02811 0.74253 0.14665
 C805 C -0.02465 0.79564 0.10142
 N806 N -0.00227 0.77947 0.10040
 C807 C 0.01748 0.78359 0.08136
 C808 C 0.01546 0.80501 0.06268
 C809 C -0.02761 0.81721 0.08293
 C810 C 0.04256 0.73869 0.16565
 C811 C 0.06526 0.74443 0.18203
 C812 C 0.07007 0.78790 0.15913
 C813 C 0.04729 0.78143 0.14336
 N814 N 0.03413 0.75705 0.14659
 H815 H -0.04030 0.79183 0.11647
 H816 H 0.03505 0.77031 0.08092
 H817 H 0.03157 0.80815 0.04791
 H818 H -0.04579 0.82941 0.08435
 H819 H 0.03168 0.71952 0.16818
 H820 H 0.07139 0.72920 0.19673
 H821 H 0.08026 0.80736 0.15603
 H822 H 0.04015 0.79620 0.12866
 C823 C -0.07350 0.73100 0.17908
 C824 C 0.01382 0.67559 0.06481
 C825 C 0.07941 0.76946 0.17888
 C826 C -0.00726 0.82219 0.06317
 C827 C 0.48192 0.21424 0.58215
 H828 H 0.46417 0.22727 0.58190
 C829 C 0.48410 0.19275 0.56347
 H830 H 0.46782 0.18926 0.54895
 C831 C 0.52486 0.20333 0.60110
 H832 H 0.54099 0.20768 0.61549
 C833 C 0.52787 0.18164 0.58279
 H834 H 0.54638 0.16988 0.58377
 N835 N 0.50205 0.21902 0.60059
 C836 C 0.46417 0.26383 0.66750
 H837 H 0.47780 0.28130 0.66813
 C838 C 0.44269 0.26193 0.68602
 H839 H 0.43996 0.27807 0.70093
 C840 C 0.45111 0.22196 0.64679
 H841 H 0.45452 0.20638 0.63148
 C842 C 0.42944 0.21911 0.66512
 H843 H 0.41676 0.20111 0.66334
 Zn844 Zn 0.49788 0.24932 0.62448
 N845 N 0.46789 0.24411 0.64828
 C846 C 0.46753 0.29455 0.60588
 N847 N 0.49148 0.28102 0.60284
 C848 C 0.50987 0.28892 0.58363
 C849 C 0.50469 0.31162 0.56702
 C850 C 0.46161 0.31735 0.58988
 C851 C 0.53359 0.23254 0.66516
 C852 C 0.55485 0.23426 0.68400
 C853 C 0.56639 0.27876 0.66577
 C854 C 0.54489 0.27612 0.64715
 N855 N 0.52902 0.25324 0.64719
 H856 H 0.45261 0.28754 0.62045
 H857 H 0.52851 0.27747 0.58101
 H858 H 0.51992 0.31725 0.55217
 H859 H 0.44246 0.32783 0.59277
 H860 H 0.52040 0.21472 0.66502
 H861 H 0.55803 0.21754 0.69815
 H862 H 0.57817 0.29745 0.66535
 H863 H 0.54063 0.29260 0.63304
 C864 C 0.42500 0.23933 0.68523
 C865 C 0.50726 0.17606 0.56357
 C866 C 0.57161 0.25757 0.68469
 C867 C 0.48015 0.32624 0.57009
 C868 C 0.50979 0.71037 0.91503
 H869 H 0.52904 0.72098 0.91744
 C870 C 0.50397 0.68747 0.93124
 H871 H 0.51929 0.68086 0.94555
 C872 C 0.46677 0.70678 0.89359
 H873 H 0.45196 0.71452 0.87935
 C874 C 0.46020 0.68382 0.90923
 H875 H 0.44056 0.67406 0.90649
 N876 N 0.49134 0.71944 0.89643
 C877 C 0.53250 0.76596 0.83171
 H878 H 0.51934 0.78368 0.83166
 C879 C 0.55402 0.76444 0.81321
 H880 H 0.55722 0.78104 0.79889
 C881 C 0.54459 0.72328 0.85110
 H882 H 0.54098 0.70735 0.86603
 C883 C 0.56627 0.72082 0.83276
 H884 H 0.57862 0.70267 0.83406
 Zn885 Zn 0.49882 0.75112 0.87477
 N886 N 0.52828 0.74567 0.85029
 C887 C 0.53158 0.79443 0.89439
 N888 N 0.50747 0.78114 0.89801
 C889 C 0.48956 0.78938 0.91750
 C890 C 0.49531 0.81228 0.93363
 C891 C 0.53814 0.81734 0.91004
 C892 C 0.46027 0.74143 0.83336
 C893 C 0.43748 0.74659 0.81715
 C894 C 0.43115 0.78915 0.84133
 C895 C 0.45396 0.78313 0.85716
 N896 N 0.46786 0.75947 0.85315
 H897 H 0.54591 0.78745 0.87928
 H898 H 0.47048 0.77853 0.92016
 H899 H 0.48026 0.81852 0.94837
 H900 H 0.55731 0.82779 0.90656
 H901 H 0.47173 0.72277 0.83041
 H902 H 0.43192 0.73144 0.80210
 H903 H 0.42031 0.80807 0.84491
 H904 H 0.46050 0.79750 0.87256
 C905 C 0.57129 0.74168 0.81340
 C906 C 0.47876 0.67379 0.92842
 C907 C 0.42256 0.77089 0.82098
 C908 C 0.52001 0.82663 0.92998
 C909 C 0.11325 0.22000 0.29270
 C910 C 0.09435 0.23960 0.29362
 H911 H 0.11333 0.20368 0.30752
 H912 H 0.09516 0.25590 0.27865
 C913 C 0.61251 0.72092 0.79215
 C914 C 0.59383 0.74073 0.79302
 H915 H 0.61210 0.70443 0.80678
 H916 H 0.59509 0.75718 0.77826
 C917 C 0.38948 0.76377 0.78303
 C918 C 0.39820 0.77823 0.80451
 H919 H 0.40005 0.74560 0.77656
 H920 H 0.38736 0.79663 0.81009
 C921 C -0.11389 0.27976 0.29159
 C922 C -0.09491 0.26019 0.29243
 H923 H -0.11398 0.29566 0.30686
 H924 H -0.09539 0.24410 0.27722
 C925 C -0.10676 0.73835 0.21683
 C926 C -0.09790 0.72359 0.19567
 H927 H -0.09610 0.75671 0.22297
 H928 H -0.10859 0.70484 0.19060
 C929 C 0.38355 0.21826 0.70644
 C930 C 0.40281 0.23781 0.70594
 H931 H 0.38320 0.20243 0.69110
 H932 H 0.40240 0.25380 0.72128
 C933 C 0.61244 0.27871 0.70695
 C934 C 0.59356 0.25885 0.70573
 H935 H 0.61260 0.29495 0.69204
 H936 H 0.59424 0.24236 0.72053
 C937 C 0.11291 0.76307 0.21669
 C938 C 0.10368 0.77745 0.19540
 H939 H 0.10277 0.74446 0.22290
 H940 H 0.11395 0.79636 0.19006
 C941 C 0.28492 0.11077 0.23337
 C942 C 0.30628 0.10180 0.21913
 H943 H 0.27853 0.10033 0.25168
 H944 H 0.31176 0.11234 0.20047
 C945 C 0.78385 0.60780 0.73910
 C946 C 0.80522 0.59880 0.72485
 H947 H 0.77730 0.59736 0.75735
 H948 H 0.81066 0.60924 0.70612
 C949 C 0.78224 0.38959 0.76656
 C950 C 0.80338 0.39850 0.78119
 H951 H 0.77609 0.40002 0.74820
 H952 H 0.80860 0.38788 0.79986
 C953 C 0.29115 -0.11400 0.27637
 C954 C 0.29208 -0.09507 0.25661
 H955 H 0.30604 -0.11378 0.29253
 H956 H 0.27727 -0.09600 0.24024
 C957 C 0.21590 -0.11354 0.73540
 C958 C 0.19438 -0.10415 0.72131
 H959 H 0.22235 -0.10316 0.75375
 H960 H 0.18859 -0.11442 0.70255
 C961 C 0.71894 0.39559 0.23605
 C962 C 0.69785 0.40467 0.22146
 H963 H 0.72534 0.40602 0.25437
 H964 H 0.69243 0.39406 0.20281
 C965 C 0.71216 0.61984 0.27934
 C966 C 0.71137 0.60125 0.25931
 H967 H 0.69734 0.61950 0.29555
 H968 H 0.72636 0.60253 0.24318
 C969 C 0.21406 0.10699 0.76607
 C970 C 0.19316 0.09744 0.78070
 H971 H 0.22014 0.09695 0.74747
 H972 H 0.18796 0.10767 0.79959
 C973 C 0.22107 0.29195 0.11382
 C974 C 0.24114 0.29297 0.09533
 H975 H 0.20477 0.30663 0.11337
 H976 H 0.25742 0.27819 0.09672
 C977 C 0.73553 0.78270 0.61295
 C978 C 0.72099 0.80411 0.60428
 H979 H 0.75376 0.77662 0.60240
 H980 H 0.70250 0.80931 0.61504
 C981 C 0.78063 0.79714 0.38960
 C982 C 0.76021 0.79750 0.40766
 H983 H 0.79681 0.81207 0.39051
 H984 H 0.74403 0.78253 0.40569
 C985 C 0.27804 0.28960 -0.11558
 C986 C 0.25829 0.29086 -0.09679
 H987 H 0.29438 0.30437 -0.11561
 H988 H 0.24191 0.27599 -0.09764
 C989 C 0.71871 0.20928 -0.11363
 C990 C 0.73866 0.20909 -0.09499
 H991 H 0.70269 0.19417 -0.11310
 H992 H 0.75470 0.22428 -0.09645
 C993 C 0.23745 0.71472 0.39061
 C994 C 0.22309 0.69296 0.39878
 H995 H 0.25525 0.72137 0.40166
 H996 H 0.20493 0.68733 0.38756
 C997 C 0.27488 0.70636 0.61254
 C998 C 0.25498 0.70467 0.59401
 H999 H 0.29131 0.69182 0.61248
 H1000 H 0.23841 0.71915 0.59508
 C1001 C 0.76569 0.22035 0.11101
 C1002 C 0.77982 0.19882 0.10201
 H1003 H 0.74754 0.22688 0.10056
 H1004 H 0.79831 0.19321 0.11261
 C1005 C 0.48761 0.35957 0.53237
 C1006 C 0.47277 0.35054 0.55335
 H1007 H 0.50600 0.34920 0.52643
 H1008 H 0.45412 0.36114 0.55835
 C1009 C -0.02852 0.86320 0.04201
 C1010 C -0.00879 0.84451 0.04257
 H1011 H -0.04448 0.86307 0.05709
 H1012 H 0.00716 0.84564 0.02738
 C1013 C 0.03514 0.63402 0.04421
 C1014 C 0.01549 0.65295 0.04462
 H1015 H 0.05129 0.63427 0.05912
 H1016 H -0.00059 0.65176 0.02957
 C1017 C 0.52901 0.13497 0.54255
 C1018 C 0.50911 0.15365 0.54308
 H1019 H 0.54497 0.13509 0.55763
 H1020 H 0.49308 0.15244 0.52797
 C1021 C -0.01265 0.14047 0.46877
 C1022 C -0.02734 0.14963 0.44766
 H1023 H 0.00605 0.15046 0.47460
 H1024 H -0.04628 0.13936 0.44275
 C1025 C 0.48532 0.63973 0.96573
 C1026 C 0.47078 0.64928 0.94476
 H1027 H 0.50389 0.64982 0.97187
 H1028 H 0.45182 0.63914 0.93962
 C1029 C 0.51369 0.86048 0.96749
 C1030 C 0.52790 0.85113 0.94620
 H1031 H 0.49528 0.85035 0.97396
 H1032 H 0.54660 0.86146 0.94063
 C1033 C 0.01245 0.35939 0.46771
 C1034 C 0.02688 0.35028 0.44649
 H1035 H -0.00593 0.34902 0.47396
 H1036 H 0.04569 0.36068 0.44131
 C1037 C 0.36702 0.53886 0.47106
 C1038 C 0.34684 0.54416 0.48792
 H1039 H 0.35902 0.52783 0.49176
 H1040 H 0.35600 0.55403 0.46730
 C1041 C 0.85796 0.03430 -0.01225
 C1042 C 0.84963 0.05603 -0.02646
 H1043 H 0.84723 0.02776 0.00582
 H1044 H 0.86053 0.06163 -0.04482
 C1045 C 0.64277 0.03381 0.01085
 C1046 C 0.65147 0.05522 0.02566
 H1047 H 0.65330 0.02785 -0.00754
 H1048 H 0.64082 0.06027 0.04432
 C1049 C 0.13555 0.53840 0.52750
 C1050 C 0.15444 0.53891 0.50802
 H1051 H 0.13575 0.55326 0.54376
 H1052 H 0.15355 0.52375 0.49194
 C1053 C 0.13632 0.45433 -0.03059
 C1054 C 0.15549 0.45399 -0.01114
 H1055 H 0.13593 0.43890 -0.04631
 H1056 H 0.15502 0.46947 0.00463
 C1057 C 0.63381 0.95710 0.46995
 C1058 C 0.65228 0.95716 0.49008
 H1059 H 0.63422 0.94164 0.45425
 H1060 H 0.65094 0.97264 0.50579
 C1061 C 0.85653 0.96957 0.51400
 C1062 C 0.84803 0.94799 0.52856
 H1063 H 0.84559 0.97614 0.49609
 H1064 H 0.85914 0.94233 0.54675
 C1065 C 0.36404 0.45806 0.02556
 C1066 C 0.34555 0.45643 0.00559
 H1067 H 0.36381 0.44361 0.04219
 H1068 H 0.34664 0.47101 -0.01102
 C1069 C 0.54716 0.47377 0.36118
 C1070 C 0.54814 0.49429 0.34313
 H1071 H 0.56191 0.45751 0.36061
 H1072 H 0.53338 0.51060 0.34479
 C1073 C 0.03009 -0.01562 0.86055
 C1074 C 0.05109 -0.03047 0.85153
 H1075 H 0.02399 0.00275 0.85003
 H1076 H 0.05625 -0.04911 0.86227
 C1077 C 0.02946 0.01151 0.64264
 C1078 C 0.05120 0.02557 0.65151
 H1079 H 0.02266 -0.00667 0.65314
 H1080 H 0.05704 0.04410 0.64084
 C1081 C 0.53482 0.51639 0.14001
 C1082 C 0.55630 0.53124 0.14806
 H1083 H 0.52851 0.49846 0.15119
 H1084 H 0.56165 0.54946 0.13663
 C1085 C 0.46994 -0.01084 0.13963
 C1086 C 0.44841 -0.02550 0.14799
 H1087 H 0.47624 0.00735 0.15039
 H1088 H 0.44297 -0.04390 0.13689
 C1089 C 0.96609 0.48376 0.64326
 C1090 C 0.94460 0.46948 0.65207
 H1091 H 0.97302 0.50177 0.65396
 H1092 H 0.93871 0.45108 0.64120
 C1093 C 0.95855 0.53028 0.86564
 C1094 C 0.95722 0.51001 0.84728
 H1095 H 0.94417 0.54686 0.86530
 H1096 H 0.97177 0.49348 0.84861
 C1097 C 0.45630 0.03068 0.36224
 C1098 C 0.45491 0.01025 0.34401
 H1099 H 0.44207 0.04739 0.36156
 H1100 H 0.46917 -0.00650 0.34576
   
