data_POSCAR
  _audit_creation_date              2014-09-24
  _audit_creation_method            'ToBaCCo'
  _symmetry_space_group_name_H-M    'P1'
  _symmetry_Int_Tables_number       1
  _symmetry_cell_setting            triclinic
  loop_
  _symmetry_equiv_pos_as_xyz
 x,y,z
_cell_length_a 49.3154
_cell_length_b 49.2711
_cell_length_c 49.0090
_cell_angle_alpha 90.773000
_cell_angle_beta 89.725700
_cell_angle_gamma 90.643200
loop_
  _atom_site_label
  _atom_site_type_symbol
  _atom_site_fract_x
  _atom_site_fract_y
  _atom_site_fract_z
N1 N 0.17261 0.21641 0.24502
 N2 N 0.18252 0.19921 0.26255
 C3 C 0.16551 0.19702 0.28395
 C4 C 0.14366 0.21363 0.27962
 C5 C 0.14882 0.22576 0.25471
 H6 H 0.16829 0.18356 0.30094
 H7 H 0.13609 0.23990 0.24417
 Cu8 Cu 0.21515 0.17910 0.25475
 Cu9 Cu 0.19113 0.22471 0.21071
 Cu10 Cu 0.24853 0.18691 0.19588
 N11 N 0.23950 0.15150 0.24094
 N12 N 0.25247 0.15451 0.21770
 C13 C 0.26806 0.13268 0.21300
 C14 C 0.26445 0.11499 0.23450
 C15 C 0.24620 0.12758 0.25182
 H16 H 0.28097 0.13004 0.19529
 H17 H 0.23842 0.11993 0.27094
 N18 N 0.23505 0.21541 0.17191
 N19 N 0.21325 0.22989 0.17734
 C20 C 0.20964 0.24764 0.15697
 C21 C 0.23011 0.24391 0.13787
 C22 C 0.24570 0.22332 0.14795
 H23 H 0.19334 0.26208 0.15608
 H24 H 0.26358 0.21477 0.13847
 H25 H 0.20832 0.18674 0.20646
 H26 H 0.22927 0.21432 0.22242
 N27 N 0.65032 0.71621 0.72363
 N28 N 0.65534 0.69521 0.73898
 C29 C 0.63429 0.69139 0.75623
 C30 C 0.61515 0.71108 0.75135
 C31 C 0.62608 0.72650 0.73052
 H32 H 0.63303 0.67562 0.77134
 H33 H 0.61738 0.74414 0.72122
 Cu34 Cu 0.68906 0.67518 0.73507
 Cu35 Cu 0.67592 0.72963 0.69668
 Cu36 Cu 0.73086 0.68873 0.68235
 N37 N 0.71717 0.64992 0.72347
 N38 N 0.73307 0.65529 0.70258
 C39 C 0.75056 0.63484 0.69884
 C40 C 0.74544 0.61555 0.71837
 C41 C 0.72406 0.62571 0.73377
 H42 H 0.76606 0.63411 0.68317
 H43 H 0.71426 0.61633 0.75108
 N44 N 0.72157 0.72026 0.66023
 N45 N 0.70069 0.73595 0.66577
 C46 C 0.69900 0.75500 0.64644
 C47 C 0.71972 0.75105 0.62784
 C48 C 0.73370 0.72886 0.63721
 H49 H 0.68342 0.77022 0.64547
 H50 H 0.75104 0.71930 0.62774
 H51 H 0.68942 0.69092 0.68834
 H52 H 0.71124 0.71289 0.71062
 N53 N 0.33765 0.79119 0.72208
 N54 N 0.33091 0.80906 0.74103
 C55 C 0.34937 0.80850 0.76124
 C56 C 0.36861 0.78918 0.75439
 C57 C 0.36053 0.77874 0.72944
 H58 H 0.34867 0.82099 0.77953
 H59 H 0.37050 0.76307 0.71755
 Cu60 Cu 0.29853 0.83114 0.73701
 Cu61 Cu 0.31651 0.78541 0.68907
 Cu62 Cu 0.25014 0.80639 0.69555
 N63 N 0.26520 0.85117 0.73063
 N64 N 0.24611 0.84073 0.71492
 C65 C 0.22506 0.85774 0.71417
 C66 C 0.23131 0.88036 0.72988
 C67 C 0.25700 0.87556 0.74022
 H68 H 0.20679 0.85419 0.70245
 H69 H 0.26887 0.88871 0.75348
 N70 N 0.26207 0.78037 0.66743
 N71 N 0.28753 0.77294 0.66439
 C72 C 0.28952 0.75652 0.64231
 C73 C 0.26403 0.75381 0.63081
 C74 C 0.24718 0.76921 0.64720
 H75 H 0.30822 0.74785 0.63483
 H76 H 0.22580 0.77268 0.64413
 H77 H 0.28927 0.81783 0.68983
 H78 H 0.28420 0.78910 0.71387
 N79 N 0.85123 0.27730 0.21635
 N80 N 0.84917 0.29915 0.23187
 C81 C 0.86839 0.29871 0.25125
 C82 C 0.88337 0.27545 0.24764
 C83 C 0.87191 0.26220 0.22528
 H84 H 0.87162 0.31432 0.26665
 H85 H 0.87816 0.24324 0.21600
 Cu86 Cu 0.82216 0.32647 0.22488
 Cu87 Cu 0.82720 0.27051 0.18550
 Cu88 Cu 0.77851 0.31915 0.17274
 N89 N 0.79547 0.35388 0.21717
 N90 N 0.77806 0.35087 0.19710
 C91 C 0.76174 0.37264 0.19675
 C92 C 0.76957 0.39017 0.21770
 C93 C 0.79099 0.37767 0.23011
 H94 H 0.74561 0.37554 0.18225
 H95 H 0.80231 0.38539 0.24745
 N96 N 0.78244 0.28564 0.15047
 N97 N 0.80104 0.26727 0.15532
 C98 C 0.79894 0.24717 0.13653
 C99 C 0.77799 0.25315 0.11899
 C100 C 0.76800 0.27764 0.12844
 H101 H 0.81184 0.22961 0.13562
 H102 H 0.75153 0.28885 0.11967
 H103 H 0.81914 0.31085 0.17757
 H104 H 0.79478 0.29269 0.20035
 N105 N 0.84594 0.73716 0.26125
 N106 N 0.83915 0.71638 0.24554
 C107 C 0.85788 0.71357 0.22560
 C108 C 0.87734 0.73384 0.22912
 C109 C 0.86907 0.74837 0.25185
 H110 H 0.85742 0.69789 0.20997
 H111 H 0.87934 0.76572 0.26099
 Cu112 Cu 0.80678 0.69477 0.25307
 Cu113 Cu 0.82468 0.74802 0.29291
 Cu114 Cu 0.76848 0.70824 0.30848
 N115 N 0.78072 0.66844 0.26705
 N116 N 0.76587 0.67368 0.28880
 C117 C 0.74905 0.65249 0.29336
 C118 C 0.75362 0.63291 0.27344
 C119 C 0.77393 0.64371 0.25707
 H120 H 0.73424 0.65155 0.30968
 H121 H 0.78288 0.63457 0.23904
 N122 N 0.77935 0.74051 0.33028
 N123 N 0.80061 0.75576 0.32405
 C124 C 0.80286 0.77611 0.34251
 C125 C 0.78227 0.77344 0.36140
 C126 C 0.76766 0.75064 0.35312
 H127 H 0.81857 0.79159 0.34256
 H128 H 0.74997 0.74200 0.36297
 H129 H 0.80922 0.70939 0.30055
 H130 H 0.78804 0.73263 0.28006
 N131 N 0.34121 0.24756 -0.20103
 N132 N 0.33288 0.23221 -0.22155
 C133 C 0.35187 0.23226 -0.24135
 C134 C 0.37346 0.24838 -0.23260
 C135 C 0.36594 0.25778 -0.20696
 H136 H 0.35038 0.22059 -0.26013
 H137 H 0.37781 0.27065 -0.19340
 Cu138 Cu 0.29927 0.21153 -0.21954
 Cu139 Cu 0.31991 0.25177 -0.16764
 Cu140 Cu 0.25473 0.22459 -0.16952
 N141 N 0.27030 0.18604 -0.21076
 N142 N 0.25258 0.19131 -0.19134
 C143 C 0.23474 0.17051 -0.18971
 C144 C 0.24183 0.15107 -0.20897
 C145 C 0.26450 0.16162 -0.22205
 H146 H 0.21812 0.16941 -0.17526
 H147 H 0.27610 0.15233 -0.23838
 N148 N 0.26675 0.25087 -0.14148
 N149 N 0.29169 0.26082 -0.14034
 C150 C 0.29369 0.27770 -0.11856
 C151 C 0.26879 0.27819 -0.10535
 C152 C 0.25227 0.26093 -0.12040
 H153 H 0.31191 0.28868 -0.11279
 H154 H 0.23128 0.25589 -0.11616
 H155 H 0.29489 0.21748 -0.17027
 H156 H 0.28479 0.24845 -0.18905
 N157 N 0.66073 0.26601 -0.24336
 N158 N 0.67200 0.28088 -0.26248
 C159 C 0.65495 0.28262 -0.28368
 C160 C 0.63163 0.26818 -0.27756
 C161 C 0.63595 0.25775 -0.25177
 H162 H 0.65891 0.29419 -0.30191
 H163 H 0.62220 0.24535 -0.23989
 Cu164 Cu 0.70679 0.29857 -0.25727
 Cu165 Cu 0.67933 0.25861 -0.20915
 Cu166 Cu 0.74145 0.29132 -0.19952
 N167 N 0.73427 0.32480 -0.24617
 N168 N 0.74786 0.32199 -0.22342
 C169 C 0.76535 0.34297 -0.22047
 C170 C 0.76232 0.35992 -0.24257
 C171 C 0.74243 0.34777 -0.25843
 H172 H 0.77884 0.34577 -0.20331
 H173 H 0.73430 0.35523 -0.27733
 N174 N 0.72564 0.26599 -0.17299
 N175 N 0.70188 0.25378 -0.17631
 C176 C 0.69692 0.23793 -0.15458
 C177 C 0.71861 0.24043 -0.13683
 C178 C 0.73633 0.25839 -0.14912
 H179 H 0.67898 0.22540 -0.15201
 H180 H 0.75567 0.26534 -0.14122
 H181 H 0.70114 0.29478 -0.20826
 H182 H 0.71799 0.26433 -0.22321
 N183 N 0.15377 0.76018 0.28652
 N184 N 0.16078 0.77850 0.26846
 C185 C 0.14059 0.78091 0.25025
 C186 C 0.11989 0.76307 0.25741
 C187 C 0.12894 0.75035 0.28050
 H188 H 0.14100 0.79459 0.23318
 H189 H 0.11837 0.73475 0.29182
 Cu190 Cu 0.19560 0.79746 0.27053
 Cu191 Cu 0.17809 0.74918 0.31531
 Cu192 Cu 0.23672 0.78739 0.32398
 N193 N 0.22470 0.82295 0.27986
 N194 N 0.24050 0.81895 0.30092
 C195 C 0.25895 0.83919 0.30268
 C196 C 0.25445 0.85697 0.28152
 C197 C 0.23251 0.84603 0.26750
 H198 H 0.27442 0.84060 0.31820
 H199 H 0.22303 0.85423 0.24958
 N200 N 0.22528 0.75879 0.34936
 N201 N 0.20279 0.74433 0.34626
 C202 C 0.20055 0.72673 0.36697
 C203 C 0.22277 0.73033 0.38383
 C204 C 0.23794 0.75081 0.37210
 H205 H 0.18403 0.71236 0.36949
 H206 H 0.25686 0.75922 0.37966
 H207 H 0.19535 0.78749 0.31890
 H208 H 0.21461 0.76154 0.29900
 N209 N 0.48936 0.40782 0.48039
 N210 N 0.46932 0.41395 0.49706
 C211 C 0.46565 0.39373 0.51492
 C212 C 0.48456 0.37384 0.50924
 C213 C 0.49928 0.38348 0.48722
 H214 H 0.45040 0.39370 0.53083
 H215 H 0.51601 0.37354 0.47698
 Cu216 Cu 0.45005 0.44790 0.49434
 Cu217 Cu 0.50124 0.43242 0.45167
 Cu218 Cu 0.45565 0.48313 0.43646
 N219 N 0.42396 0.47541 0.48510
 N220 N 0.42619 0.48902 0.46231
 C221 C 0.40543 0.50637 0.46061
 C222 C 0.38927 0.50341 0.48359
 C223 C 0.40159 0.48354 0.49865
 H224 H 0.40225 0.51984 0.44373
 H225 H 0.39465 0.47546 0.51791
 N226 N 0.48692 0.47420 0.41304
 N227 N 0.50444 0.45505 0.41877
 C228 C 0.52328 0.45396 0.39877
 C229 C 0.51736 0.47340 0.37965
 C230 C 0.49418 0.48584 0.38939
 H231 H 0.53999 0.43993 0.39800
 H232 H 0.48327 0.50210 0.37998
 H233 H 0.48352 0.46885 0.46352
 H234 H 0.46168 0.44273 0.44636
 N235 N -0.02823 -0.07753 0.97358
 N236 N -0.05183 -0.07612 0.98606
 C237 C -0.05571 -0.09876 1.00077
 C238 C -0.03335 -0.11517 0.99721
 C239 C -0.01622 -0.10097 0.97992
 H240 H -0.07338 -0.10297 1.01324
 H241 H 0.00357 -0.10696 0.97260
 Cu242 Cu -0.07456 -0.04429 0.98241
 Cu243 Cu -0.01460 -0.04854 0.95058
 Cu244 Cu -0.06521 -0.00731 0.92604
 N245 N -0.09810 -0.01409 0.97406
 N246 N -0.09425 0.00037 0.95200
 C247 C -0.11370 0.01924 0.95053
 C248 C -0.13060 0.01651 0.97302
 C249 C -0.12012 -0.00486 0.98746
 H250 H -0.11551 0.03349 0.93409
 H251 H -0.12821 -0.01324 1.00613
 N252 N -0.02929 -0.01053 0.90852
 N253 N -0.00980 -0.02559 0.91846
 C254 C 0.01209 -0.02389 0.90208
 C255 C 0.00611 -0.00683 0.88077
 C256 C -0.02023 0.00133 0.88557
 H257 H 0.03061 -0.03494 0.90514
 H258 H -0.03203 0.01462 0.87299
 H259 H -0.04139 -0.01616 0.95805
 H260 H -0.05323 -0.04610 0.93745
 N261 N 1.01821 0.59544 0.96365
 N262 N 1.03840 0.58968 0.97990
 C263 C 1.04218 0.61045 0.99769
 C264 C 1.02320 0.63018 0.99229
 C265 C 1.00835 0.61994 0.97060
 H266 H 1.05737 0.61095 1.01351
 H267 H 0.99144 0.62954 0.96075
 Cu268 Cu 1.05733 0.55527 0.97707
 Cu269 Cu 1.00564 0.57046 0.93534
 Cu270 Cu 1.04617 0.51485 0.92205
 N271 N 1.07795 0.52234 0.97052
 N272 N 1.07346 0.50667 0.94906
 C273 C 1.09064 0.48566 0.94936
 C274 C 1.10694 0.48840 0.97204
 C275 C 1.09838 0.51192 0.98509
 H276 H 1.09153 0.46972 0.93401
 H277 H 1.10646 0.52085 1.00365
 N278 N 1.01731 0.52632 0.89733
 N279 N 1.00156 0.54721 0.90264
 C280 C 0.98389 0.54989 0.88200
 C281 C 0.98873 0.52971 0.86284
 C282 C 1.01004 0.51507 0.87323
 H283 H 0.96879 0.56557 0.88078
 H284 H 1.01961 0.49759 0.86397
 H285 H 1.02139 0.53400 0.94938
 H286 H 1.04448 0.55660 0.92930
 N287 N 0.52798 0.08455 0.47387
 N288 N 0.54805 0.07914 0.49041
 C289 C 0.55093 0.09968 0.50861
 C290 C 0.53163 0.11898 0.50315
 C291 C 0.51737 0.10868 0.48096
 H292 H 0.56598 0.10062 0.52458
 H293 H 0.50042 0.11784 0.47082
 Cu294 Cu 0.56879 0.04604 0.48635
 Cu295 Cu 0.51660 0.05965 0.44485
 Cu296 Cu 0.55376 0.00074 0.43680
 N297 N 0.59462 0.01871 0.47458
 N298 N 0.58867 0.00110 0.45508
 C299 C 0.60957 -0.01592 0.45155
 C300 C 0.62974 -0.00856 0.46974
 C301 C 0.61959 0.01357 0.48409
 H302 H 0.60992 -0.03269 0.43708
 H303 H 0.62936 0.02487 0.50043
 N304 N 0.52226 0.00916 0.41403
 N305 N 0.50825 0.03170 0.41691
 C306 C 0.48850 0.03180 0.39803
 C307 C 0.49027 0.00820 0.38249
 C308 C 0.51192 -0.00559 0.39314
 H309 H 0.47422 0.04803 0.39553
 H310 H 0.51977 -0.02480 0.38590
 H311 H 0.52998 0.02497 0.46246
 H312 H 0.55440 0.04224 0.43909
 N313 N -0.01297 0.07516 0.52046
 N314 N -0.03413 0.06849 0.50552
 C315 C -0.03822 0.08794 0.48702
 C316 C -0.01856 0.10785 0.49055
 C317 C -0.00274 0.09903 0.51192
 H318 H -0.05458 0.08786 0.47238
 H319 H 0.01464 0.10922 0.52091
 Cu320 Cu -0.05473 0.03547 0.51222
 Cu321 Cu -0.00067 0.05236 0.55000
 Cu322 Cu -0.04874 0.00586 0.57323
 N323 N -0.08189 0.01012 0.52540
 N324 N -0.07973 -0.00129 0.54937
 C325 C -0.10173 -0.01714 0.55369
 C326 C -0.11861 -0.01536 0.53134
 C327 C -0.10531 0.00210 0.51371
 H328 H -0.10542 -0.02882 0.57189
 H329 H -0.11218 0.00880 0.49403
 N330 N -0.01571 0.01589 0.59395
 N331 N 0.00262 0.03334 0.58488
 C332 C 0.02227 0.03649 0.60367
 C333 C 0.01614 0.02020 0.62558
 C334 C -0.00809 0.00735 0.61875
 H335 H 0.03952 0.05010 0.60185
 H336 H -0.01959 -0.00673 0.63107
 H337 H -0.02153 0.01568 0.54336
 H338 H -0.04057 0.04450 0.55885
 N339 N 0.47159 0.59902 0.03027
 N340 N 0.45295 0.59049 0.01300
 C341 C 0.45075 0.60859 -0.00719
 C342 C 0.46903 0.62955 -0.00235
 C343 C 0.48197 0.62280 0.02163
 H344 H 0.43672 0.60682 -0.02403
 H345 H 0.49764 0.63426 0.03213
 Cu346 Cu 0.43286 0.55694 0.01886
 Cu347 Cu 0.48122 0.57860 0.06252
 Cu348 Cu 0.44633 0.51799 0.07258
 N349 N 0.40723 0.52948 0.03134
 N350 N 0.41272 0.51417 0.05230
 C351 C 0.39208 0.49658 0.05632
 C352 C 0.37247 0.50125 0.03685
 C353 C 0.38275 0.52228 0.02137
 H354 H 0.39148 0.48172 0.07234
 H355 H 0.37313 0.53159 0.00411
 N356 N 0.47505 0.53141 0.09711
 N357 N 0.48803 0.55469 0.09365
 C358 C 0.50582 0.55837 0.11418
 C359 C 0.50381 0.53648 0.13139
 C360 C 0.48410 0.51972 0.11996
 H361 H 0.51929 0.57570 0.11656
 H362 H 0.47672 0.50056 0.12768
 H363 H 0.47087 0.54146 0.04687
 H364 H 0.44399 0.55904 0.06705
 N365 N 0.51160 -0.08373 0.01610
 N366 N 0.53294 -0.07856 0.00082
 C367 C 0.53529 -0.09828 -0.01834
 C368 C 0.51411 -0.11668 -0.01478
 C369 C 0.49949 -0.10674 0.00717
 H370 H 0.55128 -0.09917 -0.03348
 H371 H 0.48154 -0.11577 0.01621
 Cu372 Cu 0.55538 -0.04640 0.00739
 Cu373 Cu 0.50119 -0.06042 0.04650
 Cu374 Cu 0.55160 -0.01623 0.06943
 N375 N 0.58273 -0.02044 0.01982
 N376 N 0.58127 -0.00893 0.04413
 C377 C 0.60262 0.00799 0.04751
 C378 C 0.61838 0.00695 0.02418
 C379 C 0.60517 -0.01133 0.00694
 H380 H 0.60644 0.02025 0.06559
 H381 H 0.61129 -0.01751 -0.01340
 N382 N 0.51962 -0.02615 0.09159
 N383 N 0.50019 -0.04247 0.08249
 C384 C 0.48136 -0.04563 0.10217
 C385 C 0.48922 -0.03052 0.12472
 C386 C 0.51356 -0.01833 0.11734
 H387 H 0.46348 -0.05844 0.10046
 H388 H 0.52610 -0.00507 0.12983
 H389 H 0.52386 -0.02480 0.03999
 H390 H 0.54173 -0.05458 0.05422
 N391 N 1.02471 0.40713 0.50644
 N392 N 1.04672 0.41343 0.49257
 C393 C 1.05040 0.39500 0.47247
 C394 C 1.02971 0.37602 0.47384
 C395 C 1.01361 0.38431 0.49563
 H396 H 1.06711 0.39519 0.45809
 H397 H 0.99524 0.37466 0.50301
 Cu398 Cu 1.06895 0.44485 0.50191
 Cu399 Cu 1.01223 0.42985 0.53688
 Cu400 Cu 1.06416 0.46785 0.56648
 N401 N 1.09621 0.46892 0.51750
 N402 N 1.09431 0.47793 0.54278
 C403 C 1.11626 0.49337 0.54862
 C404 C 1.13286 0.49384 0.52584
 C405 C 1.11948 0.47816 0.50637
 H406 H 1.12009 0.50319 0.56812
 H407 H 1.12617 0.47356 0.48581
 N408 N 1.02866 0.46200 0.58422
 N409 N 1.00873 0.44775 0.57295
 C410 C 0.98707 0.44819 0.58982
 C411 C 0.99363 0.46367 0.61266
 C412 C 1.02019 0.47206 0.60840
 H413 H 0.96786 0.43817 0.58574
 H414 H 1.03249 0.48469 0.62174
 H415 H 1.03722 0.46470 0.53488
 H416 H 1.05175 0.43204 0.54661
 C417 C 0.34216 -0.04061 0.26131
 C418 C 0.35686 -0.01700 0.25516
 C419 C 0.34321 0.00679 0.24875
 C420 C 0.31473 0.00718 0.24827
 C421 C 0.30014 -0.01652 0.25474
 C422 C 0.31359 -0.04052 0.26137
 C423 C 0.38667 -0.01702 0.25519
 C424 C 0.40088 -0.01912 0.23049
 C425 C 0.42931 -0.01818 0.22999
 C426 C 0.44342 -0.01534 0.25480
 C427 C 0.42937 -0.01246 0.27966
 C428 C 0.40085 -0.01377 0.27972
 H429 H 0.35316 -0.05897 0.26546
 H430 H 0.35498 0.02500 0.24474
 H431 H 0.38967 -0.02129 0.21159
 H432 H 0.38954 -0.01233 0.29865
 H433 H 0.27815 -0.01627 0.25465
 H434 H 0.46536 -0.01523 0.25504
 C435 C 0.16304 -0.00645 0.75906
 C436 C 0.14691 0.01676 0.76010
 C437 C 0.15899 0.04236 0.76396
 C438 C 0.18720 0.04504 0.76661
 C439 C 0.20322 0.02154 0.76590
 C440 C 0.19141 -0.00424 0.76175
 C441 C 0.11723 0.01410 0.75818
 C442 C 0.10171 0.01124 0.78198
 C443 C 0.07334 0.00831 0.78052
 C444 C 0.06078 0.00895 0.75488
 C445 C 0.07619 0.01147 0.73075
 C446 C 0.10449 0.01424 0.73269
 H447 H 0.15320 -0.02609 0.75690
 H448 H 0.14633 0.06020 0.76490
 H449 H 0.11196 0.01177 0.80145
 H450 H 0.11667 0.01643 0.71436
 H451 H 0.22492 0.02308 0.76888
 H452 H 0.03888 0.00772 0.75396
 C453 C 0.65868 0.48544 0.23473
 C454 C 0.64597 0.50823 0.24603
 C455 C 0.66143 0.53108 0.25364
 C456 C 0.68965 0.53152 0.24962
 C457 C 0.70235 0.50808 0.23905
 C458 C 0.68691 0.48491 0.23167
 C459 C 0.61628 0.50838 0.24875
 C460 C 0.60387 0.50288 0.27387
 C461 C 0.57549 0.50218 0.27626
 C462 C 0.55965 0.50657 0.25286
 C463 C 0.57201 0.51194 0.22750
 C464 C 0.60036 0.51305 0.22578
 H465 H 0.64652 0.46790 0.22873
 H466 H 0.65133 0.54882 0.26193
 H467 H 0.61636 0.49911 0.29153
 H468 H 0.61016 0.51716 0.20639
 H469 H 0.72410 0.50786 0.23637
 H470 H 0.53781 0.50573 0.25434
 C471 C 0.84214 0.47009 0.74160
 C472 C 0.85517 0.49509 0.73760
 C473 C 0.83986 0.51872 0.73556
 C474 C 0.81144 0.51759 0.73732
 C475 C 0.79851 0.49224 0.74098
 C476 C 0.81374 0.46851 0.74371
 C477 C 0.88496 0.49655 0.73688
 C478 C 0.89921 0.48997 0.71292
 C479 C 0.92767 0.49091 0.71242
 C480 C 0.94170 0.49739 0.73669
 C481 C 0.92752 0.50345 0.76099
 C482 C 0.89912 0.50356 0.76066
 H483 H 0.85430 0.45198 0.74287
 H484 H 0.85017 0.53804 0.73272
 H485 H 0.88808 0.48443 0.69461
 H486 H 0.88792 0.50832 0.77917
 H487 H 0.77661 0.49073 0.74165
 H488 H 0.96359 0.49754 0.73675
 C489 C 0.24448 0.36157 0.00148
 C490 C 0.23610 0.37551 0.02509
 C491 C 0.22709 0.36099 0.04785
 C492 C 0.22687 0.33252 0.04738
 C493 C 0.23461 0.31871 0.02328
 C494 C 0.24371 0.33303 0.00035
 C495 C 0.23737 0.40536 0.02612
 C496 C 0.21366 0.42050 0.02374
 C497 C 0.21495 0.44903 0.02379
 C498 C 0.24011 0.46214 0.02739
 C499 C 0.26401 0.44720 0.03007
 C500 C 0.26248 0.41867 0.02892
 H501 H 0.25086 0.37313 -0.01610
 H502 H 0.22098 0.37191 0.06619
 H503 H 0.19436 0.40996 0.02173
 H504 H 0.28064 0.40660 0.02987
 H505 H 0.23355 0.29676 0.02221
 H506 H 0.24115 0.48413 0.02770
 C507 C 0.73279 0.16012 -0.02870
 C508 C 0.73989 0.14655 -0.00490
 C509 C 0.74708 0.16140 0.01859
 C510 C 0.74760 0.19000 0.01837
 C511 C 0.74028 0.20333 -0.00562
 C512 C 0.73277 0.18866 -0.02922
 C513 C 0.74025 0.11669 -0.00484
 C514 C 0.76469 0.10297 -0.00902
 C515 C 0.76512 0.07441 -0.00973
 C516 C 0.74082 0.05988 -0.00554
 C517 C 0.71614 0.07349 -0.00153
 C518 C 0.71612 0.10196 -0.00108
 H519 H 0.72807 0.14826 -0.04684
 H520 H 0.75188 0.15045 0.03690
 H521 H 0.78320 0.11472 -0.01140
 H522 H 0.69729 0.11272 0.00211
 H523 H 0.74062 0.22533 -0.00600
 H524 H 0.74131 0.03792 -0.00521
 C525 C 0.24812 0.64451 0.48541
 C526 C 0.25832 0.63007 0.50748
 C527 C 0.26795 0.64402 0.53059
 C528 C 0.26666 0.67237 0.53216
 C529 C 0.25676 0.68678 0.50980
 C530 C 0.24744 0.67305 0.48631
 C531 C 0.25859 0.60026 0.50641
 C532 C 0.28304 0.58652 0.50279
 C533 C 0.28328 0.55800 0.50102
 C534 C 0.25880 0.54345 0.50397
 C535 C 0.23411 0.55717 0.50759
 C536 C 0.23426 0.58560 0.50877
 H537 H 0.24163 0.63332 0.46741
 H538 H 0.27571 0.63273 0.54766
 H539 H 0.30172 0.59820 0.50149
 H540 H 0.21541 0.59642 0.51159
 H541 H 0.25660 0.70877 0.51050
 H542 H 0.25914 0.52148 0.50352
 C543 C 0.74786 0.84084 0.47765
 C544 C 0.74809 0.85556 0.50230
 C545 C 0.74576 0.84192 0.52709
 C546 C 0.74307 0.81356 0.52747
 C547 C 0.74255 0.79897 0.50257
 C548 C 0.74547 0.81237 0.47764
 C549 C 0.75012 0.88536 0.50213
 C550 C 0.72745 0.90068 0.49543
 C551 C 0.72883 0.92913 0.49561
 C552 C 0.75379 0.94212 0.50143
 C553 C 0.77691 0.92683 0.50764
 C554 C 0.77465 0.89845 0.50857
 H555 H 0.74917 0.85173 0.45863
 H556 H 0.74583 0.85346 0.54608
 H557 H 0.70851 0.89033 0.49062
 H558 H 0.79217 0.88643 0.51362
 H559 H 0.73972 0.77715 0.50240
 H560 H 0.75529 0.96400 0.50115
 C561 C -0.02556 0.24159 0.34314
 C562 C -0.00146 0.23837 0.35768
 C563 C 0.02340 0.23733 0.34372
 C564 C 0.02427 0.23960 0.31511
 C565 C -0.00005 0.24284 0.30084
 C566 C -0.02510 0.24350 0.31463
 C567 C -0.00228 0.23706 0.38764
 C568 C -0.00331 0.21190 0.40059
 C569 C -0.00461 0.21054 0.42915
 C570 C -0.00544 0.23481 0.44461
 C571 C -0.00394 0.26012 0.43188
 C572 C -0.00258 0.26108 0.40325
 H573 H -0.04469 0.24266 0.35408
 H574 H 0.04186 0.23565 0.35539
 H575 H -0.00309 0.19338 0.38838
 H576 H -0.00228 0.28038 0.39292
 H577 H 0.00072 0.24542 0.27894
 H578 H -0.00735 0.23420 0.46662
 C579 C -0.01948 0.75095 0.14025
 C580 C 0.00406 0.75788 0.12575
 C581 C 0.02803 0.76419 0.13976
 C582 C 0.02877 0.76349 0.16834
 C583 C 0.00488 0.75686 0.18278
 C584 C -0.01924 0.75024 0.16893
 C585 C 0.00356 0.75857 0.09580
 C586 C -0.00287 0.78260 0.08254
 C587 C -0.00365 0.78344 0.05397
 C588 C 0.00170 0.75959 0.03876
 C589 C 0.00847 0.73541 0.05187
 C590 C 0.00911 0.73506 0.08056
 H591 H -0.03793 0.74684 0.12899
 H592 H 0.04616 0.76950 0.12833
 H593 H -0.00718 0.80070 0.09456
 H594 H 0.01324 0.71651 0.09130
 H595 H 0.00475 0.75719 0.20486
 H596 H 0.00033 0.75960 0.01673
 C597 C 0.46742 0.24184 0.65168
 C598 C 0.49302 0.24252 0.63918
 C599 C 0.51644 0.24229 0.65520
 C600 C 0.51448 0.24172 0.68384
 C601 C 0.48872 0.24061 0.69612
 C602 C 0.46503 0.24092 0.68019
 C603 C 0.49537 0.24303 0.60923
 C604 C 0.49154 0.26731 0.59527
 C605 C 0.49433 0.26807 0.56667
 C606 C 0.50103 0.24412 0.55240
 C607 C 0.50437 0.21950 0.56621
 C608 C 0.50193 0.21932 0.59472
 H609 H 0.44937 0.24179 0.63914
 H610 H 0.53602 0.24213 0.64512
 H611 H 0.48728 0.28554 0.60700
 H612 H 0.50482 0.20062 0.60570
 H613 H 0.48729 0.23914 0.71810
 H614 H 0.50390 0.24491 0.53051
 C615 C 0.46923 0.75903 0.84294
 C616 C 0.49210 0.74978 0.85672
 C617 C 0.51456 0.74043 0.84195
 C618 C 0.51463 0.74058 0.81336
 C619 C 0.49128 0.74928 0.79966
 C620 C 0.46859 0.75887 0.81422
 C621 C 0.49295 0.75074 0.88671
 C622 C 0.48982 0.72689 0.90170
 C623 C 0.49071 0.72768 0.93032
 C624 C 0.49474 0.75286 0.94376
 C625 C 0.49864 0.77678 0.92891
 C626 C 0.49725 0.77558 0.90028
 H627 H 0.45197 0.76569 0.85486
 H628 H 0.53231 0.73371 0.85283
 H629 H 0.48659 0.70773 0.89101
 H630 H 0.49921 0.79385 0.88836
 H631 H 0.49051 0.74853 0.77760
 H632 H 0.49469 0.75413 0.96581
 C633 C 0.11963 0.21575 0.29746
 C634 C 0.09736 0.22901 0.29030
 C635 C 0.07311 0.22904 0.30798
 C636 C 0.05001 0.23990 0.29934
 H637 H 0.09661 0.23923 0.27090
 H638 H 0.07401 0.21915 0.32753
 H639 H 0.11997 0.20515 0.31670
 H640 H 0.04956 0.24842 0.27905
 C641 C 0.58932 0.71506 0.76620
 C642 C 0.57172 0.73430 0.75914
 C643 C 0.54602 0.74039 0.77355
 C644 C 0.53949 0.73178 0.79863
 H645 H 0.57592 0.74656 0.74145
 H646 H 0.53289 0.75439 0.76332
 H647 H 0.58503 0.70178 0.78308
 H648 H 0.55364 0.71959 0.80979
 C649 C 0.39261 0.78035 0.76960
 C650 C 0.40065 0.79191 0.79317
 C651 C 0.42459 0.78313 0.80888
 C652 C 0.44458 0.76769 0.79852
 H653 H 0.38883 0.80817 0.80208
 H654 H 0.42593 0.79092 0.82954
 H655 H 0.40357 0.76345 0.76085
 H656 H 0.44418 0.76192 0.77717
 C657 C -0.09436 0.26832 0.26337
 C658 C -0.07938 0.24624 0.25836
 C659 C -0.05468 0.24008 0.27394
 C660 C -0.05079 0.24797 0.29995
 H661 H -0.08386 0.23315 0.24102
 H662 H -0.03955 0.22797 0.26353
 H663 H -0.08868 0.28213 0.27980
 H664 H -0.06712 0.25749 0.31125
 C665 C -0.09791 0.73949 0.21316
 C666 C -0.09021 0.72438 0.19162
 C667 C -0.06544 0.73011 0.17541
 C668 C -0.04394 0.74405 0.18519
 H669 H -0.10296 0.70769 0.18466
 H670 H -0.06476 0.72129 0.15511
 H671 H -0.08603 0.75705 0.21943
 H672 H -0.04375 0.75044 0.20640
 C673 C 0.39836 0.25331 0.75453
 C674 C 0.40458 0.24347 0.72969
 C675 C 0.43182 0.24763 0.71788
 C676 C 0.43764 0.23881 0.69259
 H677 H 0.38984 0.23177 0.71804
 H678 H 0.44716 0.25787 0.73009
 H679 H 0.41336 0.26538 0.76551
 H680 H 0.42154 0.23000 0.68021
 C681 C 0.60887 0.26603 0.70569
 C682 C 0.58599 0.25299 0.71272
 C683 C 0.56262 0.25252 0.69410
 C684 C 0.53880 0.24159 0.70151
 H685 H 0.58418 0.24309 0.73225
 H686 H 0.56482 0.26217 0.67448
 H687 H 0.60988 0.27597 0.68608
 H688 H 0.53664 0.23346 0.72187
 C689 C 0.09377 0.75757 0.24383
 C690 C 0.08705 0.76833 0.21995
 C691 C 0.06085 0.76140 0.20715
 C692 C 0.05457 0.77044 0.18237
 H693 H 0.10096 0.78194 0.20959
 H694 H 0.04700 0.74808 0.21792
 H695 H 0.07979 0.74365 0.25371
 H696 H 0.06944 0.78250 0.17137
 C697 C 0.27715 0.08853 0.23907
 C698 C 0.29582 0.07808 0.22211
 C699 C 0.30993 0.05235 0.22712
 C700 C 0.29969 0.03230 0.24245
 H701 H 0.30249 0.08948 0.20456
 H702 H 0.32918 0.04974 0.21679
 H703 H 0.27145 0.07799 0.25749
 H704 H 0.27925 0.03378 0.25043
 C705 C 0.76064 0.59019 0.72133
 C706 C 0.75554 0.57220 0.74101
 C707 C 0.77079 0.54669 0.74399
 C708 C 0.79609 0.54310 0.73439
 H709 H 0.73887 0.57555 0.75504
 H710 H 0.76102 0.53097 0.75581
 H711 H 0.77635 0.58634 0.70635
 H712 H 0.80673 0.55991 0.72500
 C713 C 0.77612 0.38589 0.75165
 C714 C 0.79623 0.39589 0.76720
 C715 C 0.81044 0.42184 0.76181
 C716 C 0.79937 0.44238 0.74820
 H717 H 0.80363 0.38422 0.78410
 H718 H 0.83022 0.42444 0.77100
 H719 H 0.76969 0.39664 0.73374
 H720 H 0.77852 0.44081 0.74151
 C721 C 0.26869 -0.11925 0.27494
 C722 C 0.29030 -0.11024 0.28916
 C723 C 0.30631 -0.08563 0.28249
 C724 C 0.29716 -0.06516 0.26741
 H725 H 0.29778 -0.12182 0.30607
 H726 H 0.32607 -0.08402 0.29187
 H727 H 0.26196 -0.10831 0.25727
 H728 H 0.27645 -0.06563 0.26022
 C729 C 0.21459 -0.09712 0.73305
 C730 C 0.22134 -0.07474 0.74730
 C731 C 0.20257 -0.05166 0.74847
 C732 C 0.20927 -0.02831 0.76107
 H733 H 0.24067 -0.07313 0.75765
 H734 H 0.18339 -0.05368 0.73795
 H735 H 0.19514 -0.09790 0.72279
 H736 H 0.22920 -0.02631 0.77019
 C737 C 0.75829 0.41653 0.22611
 C738 C 0.73515 0.42614 0.21629
 C739 C 0.72434 0.45205 0.22673
 C740 C 0.69941 0.46002 0.22021
 H741 H 0.72372 0.41456 0.20123
 H742 H 0.73648 0.46398 0.24092
 H743 H 0.76909 0.42803 0.24173
 H744 H 0.68697 0.44688 0.20735
 C745 C 0.73868 0.60691 0.27028
 C746 C 0.74370 0.58937 0.24974
 C747 C 0.72881 0.56348 0.24490
 C748 C 0.70500 0.55679 0.25656
 H749 H 0.75987 0.59380 0.23544
 H750 H 0.73747 0.55027 0.22946
 H751 H 0.72323 0.60250 0.28534
 H752 H 0.69521 0.57101 0.27030
 C753 C 0.22809 0.12465 0.78658
 C754 C 0.23718 0.10615 0.76853
 C755 C 0.22475 0.07898 0.76427
 C756 C 0.19912 0.07250 0.77110
 H757 H 0.25548 0.11028 0.75700
 H758 H 0.23724 0.06419 0.75382
 H759 H 0.21060 0.12028 0.79923
 H760 H 0.18581 0.08803 0.77910
 C761 C 0.23522 0.25806 0.11203
 C762 C 0.22192 0.28024 0.10458
 C763 C 0.22897 0.29372 0.07878
 C764 C 0.21868 0.31780 0.07234
 H765 H 0.20639 0.28882 0.11768
 H766 H 0.24379 0.28422 0.06546
 H767 H 0.25117 0.25020 0.09895
 H768 H 0.20525 0.32789 0.08672
 C769 C 0.72429 0.76671 0.60280
 C770 C 0.74315 0.75996 0.58422
 C771 C 0.74702 0.77419 0.55814
 C772 C 0.73969 0.79995 0.55404
 H773 H 0.75539 0.74217 0.58718
 H774 H 0.75736 0.76302 0.54212
 H775 H 0.71088 0.78352 0.59930
 H776 H 0.73192 0.81201 0.57090
 C777 C 0.77826 0.79133 0.38535
 C778 C 0.76102 0.78555 0.40558
 C779 C 0.75940 0.80349 0.42980
 C780 C 0.74562 0.79600 0.45206
 H781 H 0.74884 0.76711 0.40483
 H782 H 0.77086 0.82238 0.42983
 H783 H 0.79086 0.80946 0.38681
 H784 H 0.73573 0.77623 0.45222
 C785 C 0.26082 0.29308 -0.08033
 C786 C 0.27704 0.31143 -0.06801
 C787 C 0.26919 0.32684 -0.04315
 C788 C 0.25132 0.31758 -0.02465
 H789 H 0.29644 0.31658 -0.07705
 H790 H 0.27986 0.34583 -0.03945
 H791 H 0.24065 0.28914 -0.07241
 H792 H 0.24284 0.29733 -0.02707
 C793 C 0.72315 0.22704 -0.11055
 C794 C 0.70622 0.20819 -0.10043
 C795 C 0.71138 0.19363 -0.07479
 C796 C 0.72667 0.20377 -0.05439
 H797 H 0.68862 0.20179 -0.11203
 H798 H 0.70120 0.17422 -0.07253
 H799 H 0.74165 0.23237 -0.09988
 H800 H 0.73450 0.22433 -0.05564
 C801 C 0.22989 0.71576 0.40880
 C802 C 0.21486 0.69524 0.41863
 C803 C 0.22246 0.67952 0.44286
 C804 C 0.23869 0.68924 0.46271
 H805 H 0.19697 0.68839 0.40774
 H806 H 0.21338 0.65954 0.44456
 H807 H 0.24863 0.72177 0.41867
 H808 H 0.24545 0.71020 0.46220
 C809 C 0.25607 0.73957 0.60549
 C810 C 0.27196 0.72153 0.59288
 C811 C 0.26312 0.70825 0.56734
 C812 C 0.27587 0.68651 0.55727
 H813 H 0.29133 0.71622 0.60154
 H814 H 0.24537 0.71587 0.55711
 H815 H 0.23626 0.74385 0.59719
 H816 H 0.29236 0.67779 0.56867
 C817 C 0.76823 0.23757 0.09494
 C818 C 0.77925 0.21393 0.08707
 C819 C 0.77048 0.19746 0.06313
 C820 C 0.75522 0.20669 0.04269
 H821 H 0.79538 0.20544 0.09902
 H822 H 0.77850 0.17715 0.06196
 H823 H 0.75141 0.24591 0.08389
 H824 H 0.74914 0.22771 0.04280
 C825 C 0.48887 0.34796 0.52336
 C826 C 0.47375 0.34036 0.54485
 C827 C 0.47736 0.31498 0.56018
 C828 C 0.49142 0.29350 0.55104
 H829 H 0.45815 0.35372 0.55255
 H830 H 0.46662 0.31387 0.57942
 H831 H 0.50523 0.33540 0.51596
 H832 H 0.50019 0.29378 0.53078
 C833 C -0.02893 0.85835 0.01004
 C834 C -0.00806 0.84242 0.00307
 C835 C -0.00256 0.81597 0.01567
 C836 C -0.01074 0.80935 0.04088
 H837 H 0.00540 0.84836 -0.01335
 H838 H 0.01050 0.80244 0.00424
 H839 H -0.04359 0.85180 0.02514
 H840 H -0.02150 0.82411 0.05326
 C841 C 0.01842 0.65621 0.00664
 C842 C 0.03354 0.66474 0.02781
 C843 C 0.02857 0.68994 0.04372
 C844 C 0.01356 0.71068 0.03507
 H845 H 0.04979 0.65216 0.03498
 H846 H 0.03876 0.69150 0.06318
 H847 H 0.00145 0.66801 -0.00016
 H848 H 0.00546 0.71025 0.01459
 C849 C 0.52750 0.14463 0.51841
 C850 C 0.50900 0.16283 0.51099
 C851 C 0.50399 0.18876 0.52560
 C852 C 0.51089 0.19378 0.55166
 H853 H 0.49722 0.15926 0.49271
 H854 H 0.49249 0.20357 0.51456
 H855 H 0.54041 0.14853 0.53582
 H856 H 0.52008 0.17797 0.56349
 C857 C -0.01637 0.13326 0.47510
 C858 C 0.00174 0.15283 0.48131
 C859 C 0.00329 0.17926 0.46744
 C860 C -0.00603 0.18360 0.44220
 H861 H 0.01517 0.15035 0.49845
 H862 H 0.01366 0.19547 0.47842
 H863 H -0.03091 0.13612 0.45896
 H864 H -0.01388 0.16677 0.43010
 C865 C 0.47292 0.65381 0.98068
 C866 C 0.49134 0.67319 0.98666
 C867 C 0.49541 0.69835 0.97093
 C868 C 0.48645 0.70205 0.94543
 H869 H 0.50368 0.67137 1.00471
 H870 H 0.50745 0.71404 0.98087
 H871 H 0.45974 0.65570 0.96326
 H872 H 0.47657 0.68548 0.93457
 C873 C 0.50793 0.85800 0.97006
 C874 C 0.52267 0.84939 0.94867
 C875 C 0.51693 0.82387 0.93343
 C876 C 0.50339 0.80265 0.94402
 H877 H 0.53924 0.86184 0.94119
 H878 H 0.52583 0.82217 0.91327
 H879 H 0.49041 0.84646 0.97677
 H880 H 0.49692 0.80342 0.96514
 C881 C 0.02662 0.35230 0.45550
 C882 C 0.00963 0.33168 0.46055
 C883 C 0.00871 0.30790 0.44204
 C884 C -0.00427 0.28506 0.44908
 H885 H -0.00288 0.33185 0.47879
 H886 H 0.01998 0.30871 0.42303
 H887 H 0.03971 0.35136 0.43767
 H888 H -0.01389 0.28402 0.46899
 C889 C 0.36396 0.51755 0.49069
 C890 C 0.35488 0.53837 0.47612
 C891 C 0.32975 0.55326 0.48237
 C892 C 0.30873 0.54288 0.49641
 H893 H 0.36683 0.54590 0.45921
 H894 H 0.32807 0.57303 0.47323
 H895 H 0.35306 0.51090 0.50866
 H896 H 0.30930 0.52207 0.50316
 C897 C 0.84477 0.03185 -0.01986
 C898 C 0.83669 0.05330 -0.03415
 C899 C 0.81191 0.06894 -0.02803
 C900 C 0.79049 0.05902 -0.01423
 H901 H 0.84911 0.06057 -0.05084
 H902 H 0.81083 0.08879 -0.03710
 H903 H 0.83341 0.02532 -0.00215
 H904 H 0.79063 0.03820 -0.00749
 C905 C 0.64361 0.02258 0.01954
 C906 C 0.65946 0.01869 -0.00241
 C907 C 0.68520 0.03366 -0.00695
 C908 C 0.69026 0.05865 0.00316
 H909 H 0.65437 0.00289 -0.01711
 H910 H 0.69981 0.02406 -0.02038
 H911 H 0.64952 0.03709 0.03524
 H912 H 0.67448 0.06933 0.01419
 C913 C 0.15919 0.50806 0.52365
 C914 C 0.17620 0.50406 0.50260
 C915 C 0.20274 0.51803 0.50006
 C916 C 0.20790 0.54263 0.51096
 H917 H 0.17127 0.48906 0.48702
 H918 H 0.21773 0.50830 0.48717
 H919 H 0.16487 0.52151 0.54035
 H920 H 0.19183 0.55344 0.52142
 C921 C 0.12904 0.47005 -0.02058
 C922 C 0.14711 0.47611 -0.00115
 C923 C 0.16982 0.45780 0.00418
 C924 C 0.19055 0.46575 0.01997
 H925 H 0.14583 0.49508 0.01018
 H926 H 0.17023 0.43824 -0.00617
 H927 H 0.13107 0.45139 -0.03234
 H928 H 0.19062 0.48612 0.02866
 C929 C 0.65563 0.97725 0.47322
 C930 C 0.67392 0.98465 0.49214
 C931 C 0.69954 0.97011 0.49698
 C932 C 0.70385 0.94427 0.48920
 H933 H 0.67043 1.00251 0.50470
 H934 H 0.71449 0.98087 0.50916
 H935 H 0.65937 0.96020 0.45965
 H936 H 0.68778 0.93286 0.47922
 C937 C 0.85480 0.97098 0.52791
 C938 C 0.83841 0.97625 0.50692
 C939 C 0.81143 0.96350 0.50271
 C940 C 0.80360 0.93977 0.51350
 H941 H 0.84430 0.99152 0.49233
 H942 H 0.79828 0.97357 0.48853
 H943 H 0.84852 0.95692 0.54353
 H944 H 0.81776 0.92838 0.52551
 C945 C 0.34610 0.48736 0.03290
 C946 C 0.33822 0.46616 0.04800
 C947 C 0.31215 0.45145 0.04452
 C948 C 0.29016 0.46210 0.03293
 H949 H 0.35182 0.45820 0.06310
 H950 H 0.31093 0.43150 0.05341
 H951 H 0.33334 0.49462 0.01673
 H952 H 0.29070 0.48302 0.02647
 C953 C 0.53250 0.47889 0.35417
 C954 C 0.52491 0.49823 0.33685
 C955 C 0.53822 0.50409 0.31044
 C956 C 0.56310 0.49588 0.30315
 H957 H 0.50709 0.51008 0.34139
 H958 H 0.52693 0.51691 0.29694
 H959 H 0.54973 0.46622 0.34957
 H960 H 0.57544 0.48518 0.31759
 C961 C 0.02295 0.00020 0.85689
 C962 C 0.04792 -0.00972 0.85307
 C963 C 0.06520 -0.00445 0.82891
 C964 C 0.05602 0.00499 0.80514
 H965 H 0.05671 -0.02237 0.86850
 H966 H 0.08610 -0.01054 0.83064
 H967 H 0.01421 0.01375 0.84225
 H968 H 0.03462 0.00884 0.80279
 C969 C 0.03187 0.01872 0.65106
 C970 C 0.02495 0.00207 0.67142
 C971 C 0.03898 0.00098 0.69803
 C972 C 0.06334 0.01227 0.70343
 H973 H 0.00725 -0.01094 0.66926
 H974 H 0.02857 -0.01048 0.71363
 H975 H 0.04910 0.03234 0.65299
 H976 H 0.07491 0.02172 0.68728
 C977 C 0.51974 0.53259 0.15638
 C978 C 0.51539 0.51169 0.17315
 C979 C 0.53097 0.50728 0.19838
 C980 C 0.55613 0.51709 0.20252
 H981 H 0.49900 0.49747 0.16902
 H982 H 0.52170 0.49398 0.21320
 H983 H 0.53500 0.54784 0.16117
 H984 H 0.56632 0.52809 0.18641
 C985 C 0.47448 -0.02910 0.15091
 C986 C 0.48282 -0.01350 0.17194
 C987 C 0.46876 -0.01174 0.19866
 C988 C 0.44331 -0.02062 0.20323
 H989 H 0.50134 -0.00169 0.17005
 H990 H 0.47986 -0.00144 0.21477
 H991 H 0.45653 -0.04173 0.15261
 H992 H 0.43143 -0.02882 0.18652
 C993 C 0.97576 0.46960 0.63625
 C994 C 0.98314 0.48715 0.65610
 C995 C 0.96712 0.49370 0.68089
 C996 C 0.94216 0.48410 0.68661
 H997 H 1.00256 0.49747 0.65471
 H998 H 0.97685 0.50775 0.69499
 H999 H 0.95640 0.45916 0.63693
 H1000 H 0.93146 0.47152 0.67188
 C1001 C 0.97398 0.52546 0.83701
 C1002 C 0.98039 0.50569 0.81913
 C1003 C 0.96633 0.50062 0.79293
 C1004 C 0.94160 0.50990 0.78700
 H1005 H 0.99738 0.49270 0.82322
 H1006 H 0.97655 0.48720 0.77871
 H1007 H 0.95782 0.53940 0.83272
 H1008 H 0.93030 0.52119 0.80224
 C1009 C 0.47392 -0.00036 0.35871
 C1010 C 0.45189 0.01316 0.35093
 C1011 C 0.43558 0.00601 0.32659
 C1012 C 0.44517 -0.00797 0.30500
 H1013 H 0.44480 0.03012 0.36315
 H1014 H 0.41559 0.01477 0.32577
 H1015 H 0.48025 -0.01838 0.34768
 H1016 H 0.46609 -0.01438 0.30477
   
