data_POSCAR
  _audit_creation_date              2014-09-24
  _audit_creation_method            'ToBaCCo'
  _symmetry_space_group_name_H-M    'P1'
  _symmetry_Int_Tables_number       1
  _symmetry_cell_setting            triclinic
  loop_
  _symmetry_equiv_pos_as_xyz
 x,y,z
_cell_length_a 54.2511
_cell_length_b 54.2099
_cell_length_c 47.7321
_cell_angle_alpha 90.056400
_cell_angle_beta 89.947600
_cell_angle_gamma 119.977200
loop_
  _atom_site_label
  _atom_site_type_symbol
  _atom_site_fract_x
  _atom_site_fract_y
  _atom_site_fract_z
O1 O -0.00050 0.52321 -0.03607
 O2 O 0.03559 0.49327 0.00531
 O3 O -0.00056 0.47531 -0.03625
 O4 O 0.03555 0.54113 0.00554
 O5 O -0.00013 0.52319 0.03557
 O6 O -0.03625 0.45740 -0.00630
 O7 O -0.00013 0.47531 0.03529
 O8 O -0.03618 0.50530 -0.00604
 Cu9 Cu 0.02109 0.51001 -0.01837
 Cu10 Cu -0.02174 0.48850 0.01764
 C11 C -0.02465 0.51915 -0.02830
 C12 C 0.02405 0.47941 0.02756
 C13 C -0.02478 0.45515 -0.02867
 C14 C 0.02403 0.54333 0.02788
 O15 O 0.50658 0.54221 0.00535
 O16 O 0.47645 0.47604 -0.03597
 O17 O 0.45866 0.49445 0.00562
 O18 O 0.52436 0.52382 -0.03628
 O19 O 0.54222 0.50604 -0.00630
 O20 O 0.47654 0.47665 0.03561
 O21 O 0.49434 0.45826 -0.00596
 O22 O 0.52445 0.52441 0.03535
 Cu23 Cu 0.48973 0.51092 -0.01833
 Cu24 Cu 0.51118 0.48956 0.01768
 C25 C 0.52042 0.54453 0.02760
 C26 C 0.48047 0.45592 -0.02819
 C27 C 0.45646 0.48076 0.02795
 C28 C 0.54449 0.51972 -0.02868
 O29 O 0.52409 1.00048 -0.03563
 O30 O 0.45798 0.96448 0.00562
 O31 O 0.47632 1.00058 -0.03599
 O32 O 0.50576 0.96438 0.00594
 O33 O 0.52349 1.00011 0.03594
 O34 O 0.49400 1.03628 -0.00601
 O35 O 0.47568 1.00021 0.03564
 O36 O 0.54181 1.03624 -0.00566
 Cu37 Cu 0.48926 0.97890 -0.01801
 Cu38 Cu 0.51051 1.02178 0.01799
 C39 C 0.54416 1.02467 -0.02789
 C40 C 0.45561 0.97604 0.02786
 C41 C 0.48036 1.02482 -0.02841
 C42 C 0.51944 0.97592 0.02827
 O43 O 1.03592 0.54188 0.49393
 O44 O 1.00008 0.47582 0.53530
 O45 O 1.03615 0.49413 0.49366
 O46 O 0.99988 0.52360 0.53561
 O47 O 0.96418 0.50575 0.50563
 O48 O 1.00044 0.47624 0.46376
 O49 O 0.96433 0.45795 0.50538
 O50 O 1.00022 0.52400 0.46396
 Cu51 Cu 1.02158 0.51064 0.51762
 Cu52 Cu 0.97872 0.48919 0.48168
 C53 C 1.02435 0.54414 0.47169
 C54 C 0.97593 0.45569 0.52760
 C55 C 1.02470 0.48038 0.47130
 C56 C 0.97568 0.51948 0.52796
 O57 O 0.52339 0.52390 0.46464
 O58 O 0.49376 0.45812 0.50640
 O59 O 0.47556 0.47607 0.46487
 O60 O 0.54156 0.50599 0.50623
 O61 O 0.52379 0.52394 0.53628
 O62 O 0.45779 0.49403 0.49490
 O63 O 0.47599 0.47605 0.53645
 O64 O 0.50562 0.54186 0.49467
 Cu65 Cu 0.51035 0.48922 0.48253
 Cu66 Cu 0.48902 0.51077 0.51859
 C67 C 0.51934 0.54405 0.47234
 C68 C 0.48004 0.45592 0.52873
 C69 C 0.45548 0.48018 0.47263
 C70 C 0.54387 0.51985 0.52850
 O71 O 0.47651 -0.00030 0.46350
 O72 O 0.54230 0.03579 0.50523
 O73 O 0.52432 -0.00036 0.46360
 O74 O 0.49445 0.03576 0.50519
 O75 O 0.47654 0.00002 0.53514
 O76 O 0.50641 -0.03607 0.49353
 O77 O 0.52438 0.00004 0.53517
 O78 O 0.45859 -0.03603 0.49346
 Cu79 Cu 0.51119 0.02130 0.48138
 Cu80 Cu 0.48969 -0.02159 0.51732
 C81 C 0.45639 -0.02448 0.47117
 C82 C 0.54449 0.02423 0.52752
 C83 C 0.52024 -0.02459 0.47123
 C84 C 0.48062 0.02421 0.52745
 C85 C 0.28349 0.41573 0.23595
 C86 C 0.28337 0.41567 0.26468
 C87 C 0.26356 0.42327 0.27292
 N88 N 0.25155 0.42792 0.25023
 C89 C 0.26374 0.42335 0.22761
 C90 C 0.25880 0.42837 0.30087
 C91 C 0.23612 0.43268 0.30888
 C92 C 0.23423 0.44385 0.33441
 C93 C 0.20889 0.44385 0.33434
 C94 C 0.19598 0.43266 0.30877
 N95 N 0.21261 0.42569 0.29345
 C96 C 0.16904 0.42832 0.30063
 C97 C 0.15930 0.42309 0.27265
 C98 C 0.13191 0.41534 0.26431
 C99 C 0.13197 0.41529 0.23558
 C100 C 0.15940 0.42300 0.22735
 N101 N 0.17607 0.42774 0.25004
 C102 C 0.16926 0.42815 0.19940
 C103 C 0.19627 0.43258 0.19140
 C104 C 0.20930 0.44378 0.16588
 C105 C 0.23470 0.44390 0.16595
 C106 C 0.23650 0.43276 0.19151
 N107 N 0.21288 0.42569 0.20682
 C108 C 0.25918 0.42853 0.19964
 H109 H 0.29692 0.41115 0.22271
 H110 H 0.29670 0.41104 0.27798
 H111 H 0.20720 0.41436 0.22553
 H112 H 0.24957 0.45139 0.35131
 H113 H 0.20097 0.45138 0.35118
 H114 H 0.11388 0.41068 0.27754
 H115 H 0.11400 0.41057 0.22226
 H116 H 0.25013 0.45147 0.14911
 H117 H 0.20702 0.41435 0.27473
 H118 H 0.20143 0.45125 0.14898
 C119 C 0.55738 0.70353 0.26421
 C120 C 0.55748 0.70363 0.23547
 C121 C 0.56709 0.73150 0.22727
 N122 N 0.57303 0.74844 0.25000
 C123 C 0.56696 0.73136 0.27261
 C124 C 0.57130 0.74110 0.19923
 C125 C 0.57679 0.76856 0.19153
 C126 C 0.58652 0.78087 0.16544
 C127 C 0.58644 0.80621 0.16551
 C128 C 0.57669 0.80868 0.19164
 N129 N 0.57092 0.78568 0.20739
 C130 C 0.57111 0.83057 0.19948
 C131 C 0.56701 0.83592 0.22758
 C132 C 0.55743 0.85417 0.23598
 C133 C 0.55749 0.85416 0.26471
 C134 C 0.56709 0.83589 0.27292
 N135 N 0.57305 0.82490 0.25019
 C136 C 0.57127 0.83049 0.30096
 C137 C 0.57672 0.80849 0.30866
 C138 C 0.58639 0.80588 0.33476
 C139 C 0.58630 0.78046 0.33470
 C140 C 0.57659 0.76826 0.30856
 N141 N 0.57087 0.78551 0.29280
 C142 C 0.57101 0.74079 0.30072
 H143 H 0.55086 0.68505 0.27738
 H144 H 0.55103 0.68522 0.22217
 H145 H 0.56004 0.78014 0.27383
 H146 H 0.59256 0.77225 0.14800
 H147 H 0.59243 0.82092 0.14812
 H148 H 0.55093 0.86614 0.22281
 H149 H 0.55104 0.86611 0.27801
 H150 H 0.59224 0.77171 0.35209
 H151 H 0.56006 0.78021 0.22635
 H152 H 0.59240 0.82053 0.35221
 C153 C 0.29628 0.85398 0.26368
 C154 C 0.29615 0.85395 0.23494
 C155 C 0.26830 0.83570 0.22676
 N156 N 0.25140 0.82472 0.24950
 C157 C 0.26849 0.83574 0.27209
 C158 C 0.25867 0.83030 0.19872
 C159 C 0.23123 0.80832 0.19104
 C160 C 0.21890 0.80571 0.16496
 C161 C 0.19359 0.78030 0.16503
 C162 C 0.19117 0.76810 0.19115
 N163 N 0.21416 0.78534 0.20688
 C164 C 0.16932 0.74064 0.19898
 C165 C 0.16402 0.73121 0.22708
 C166 C 0.14583 0.70339 0.23546
 C167 C 0.14588 0.70348 0.26419
 C168 C 0.16412 0.73135 0.27242
 N169 N 0.17505 0.74829 0.24970
 C170 C 0.16955 0.74095 0.30047
 C171 C 0.19151 0.76841 0.30818
 C172 C 0.19415 0.78071 0.33430
 C173 C 0.21953 0.80605 0.33423
 C174 C 0.23168 0.80851 0.30807
 N175 N 0.21444 0.78553 0.29230
 C176 C 0.25911 0.83040 0.30021
 H177 H 0.31477 0.86594 0.27683
 H178 H 0.31453 0.86589 0.22163
 H179 H 0.21979 0.78005 0.27331
 H180 H 0.22749 0.82036 0.14753
 H181 H 0.17888 0.77157 0.14766
 H182 H 0.13386 0.68490 0.22227
 H183 H 0.13398 0.68508 0.27748
 H184 H 0.22827 0.82074 0.35163
 H185 H 0.21966 0.77997 0.22582
 H186 H 0.17953 0.77209 0.35177
 C187 C 0.85351 0.55697 0.76464
 C188 C 0.85355 0.55695 0.73591
 C189 C 0.83534 0.56657 0.72758
 N190 N 0.82431 0.57259 0.75023
 C191 C 0.83526 0.56658 0.77292
 C192 C 0.83003 0.57072 0.69950
 C193 C 0.80815 0.57630 0.69171
 C194 C 0.80570 0.58607 0.66561
 C195 C 0.78038 0.58614 0.66559
 C196 C 0.76807 0.57640 0.69168
 N197 N 0.78517 0.57052 0.70749
 C198 C 0.74063 0.57092 0.69942
 C199 C 0.73104 0.56672 0.72747
 C200 C 0.70319 0.55713 0.73571
 C201 C 0.70310 0.55705 0.76444
 C202 C 0.73089 0.56660 0.77280
 N203 N 0.74796 0.57265 0.75017
 C204 C 0.74031 0.57066 0.80090
 C205 C 0.76773 0.57618 0.80871
 C206 C 0.77991 0.58585 0.83486
 C207 C 0.80528 0.58589 0.83488
 C208 C 0.80789 0.57622 0.80875
 N209 N 0.78495 0.57042 0.79291
 C210 C 0.82985 0.57073 0.80098
 H211 H 0.86543 0.55048 0.77790
 H212 H 0.86552 0.55045 0.72269
 H213 H 0.77959 0.55960 0.77392
 H214 H 0.82041 0.59208 0.64821
 H215 H 0.77177 0.59221 0.64817
 H216 H 0.68480 0.55070 0.72243
 H217 H 0.68463 0.55056 0.77764
 H218 H 0.81991 0.59187 0.85232
 H219 H 0.77968 0.55964 0.72643
 H220 H 0.77118 0.59182 0.85228
 C221 C 0.44289 0.14567 0.73554
 C222 C 0.44292 0.14562 0.76428
 C223 C 0.43327 0.16381 0.77269
 N224 N 0.42721 0.17483 0.75008
 C225 C 0.43323 0.16390 0.72735
 C226 C 0.42915 0.16912 0.80080
 C227 C 0.42352 0.19097 0.80866
 C228 C 0.41377 0.19342 0.83481
 C229 C 0.41365 0.21873 0.83489
 C230 C 0.42332 0.23104 0.80879
 N231 N 0.42921 0.21395 0.79291
 C232 C 0.42874 0.25848 0.80111
 C233 C 0.43290 0.26808 0.77307
 C234 C 0.44245 0.29595 0.76488
 C235 C 0.44250 0.29604 0.73614
 C236 C 0.43297 0.26823 0.72773
 N237 N 0.42697 0.25115 0.75034
 C238 C 0.42888 0.25880 0.69963
 C239 C 0.42341 0.23137 0.69177
 C240 C 0.41371 0.21916 0.66563
 C241 C 0.41375 0.19380 0.66555
 C242 C 0.42348 0.19124 0.69163
 N243 N 0.42925 0.21418 0.70750
 C244 C 0.42906 0.16932 0.69931
 H245 H 0.44939 0.13376 0.72223
 H246 H 0.44945 0.13366 0.77744
 H247 H 0.44010 0.21959 0.72646
 H248 H 0.40783 0.17872 0.85219
 H249 H 0.40761 0.22734 0.85235
 H250 H 0.44887 0.31434 0.77818
 H251 H 0.44898 0.31453 0.72298
 H252 H 0.40777 0.17916 0.64809
 H253 H 0.44006 0.21945 0.77395
 H254 H 0.40768 0.22784 0.64826
 C255 C 0.71705 0.13194 0.76441
 C256 C 0.71702 0.13189 0.73568
 C257 C 0.73678 0.15928 0.72736
 N258 N 0.74888 0.17603 0.74999
 C259 C 0.73682 0.15935 0.77267
 C260 C 0.74141 0.16904 0.69939
 C261 C 0.76407 0.19597 0.69129
 C262 C 0.76591 0.20893 0.66574
 C263 C 0.79127 0.23425 0.66571
 C264 C 0.80424 0.23608 0.69126
 N265 N 0.78764 0.21255 0.70664
 C266 C 0.83120 0.25871 0.69931
 C267 C 0.84101 0.26339 0.72726
 C268 C 0.86841 0.28313 0.73552
 C269 C 0.86841 0.28320 0.76425
 C270 C 0.84101 0.26349 0.77257
 N271 N 0.82430 0.25138 0.74993
 C272 C 0.83122 0.25893 0.80053
 C273 C 0.80427 0.23631 0.80863
 C274 C 0.79128 0.23455 0.83417
 C275 C 0.76594 0.20921 0.83420
 C276 C 0.76412 0.19617 0.80866
 N277 N 0.78768 0.21272 0.79328
 C278 C 0.74147 0.16921 0.80062
 H279 H 0.70368 0.11397 0.77771
 H280 H 0.70364 0.11388 0.72243
 H281 H 0.79333 0.20700 0.77457
 H282 H 0.75052 0.20107 0.64887
 H283 H 0.79915 0.24963 0.64883
 H284 H 0.88639 0.29645 0.72223
 H285 H 0.88640 0.29657 0.77751
 H286 H 0.75056 0.20139 0.85107
 H287 H 0.79329 0.20690 0.72536
 H288 H 0.79915 0.24998 0.85102
 C289 C 0.07001 0.45243 0.08057
 C290 C 0.08194 0.46623 0.05523
 C291 C 0.06667 0.47430 0.03754
 C292 C 0.03926 0.46873 0.04505
 C293 C 0.02717 0.45417 0.07023
 C294 C 0.04248 0.44612 0.08787
 C295 C 0.08666 0.44643 0.09993
 C296 C 0.10081 0.44231 0.11669
 C297 C 0.11791 0.43843 0.13730
 C298 C 0.12363 0.41601 0.13495
 C299 C 0.14034 0.41255 0.15517
 C300 C 0.15139 0.43150 0.17788
 C301 C 0.14566 0.45398 0.18004
 C302 C 0.12898 0.45739 0.15987
 H303 H 0.10329 0.47134 0.04945
 H304 H 0.07659 0.48548 0.01833
 H305 H 0.00613 0.44956 0.07663
 H306 H 0.03310 0.43556 0.10750
 H307 H 0.11520 0.40125 0.11754
 H308 H 0.14463 0.39515 0.15319
 H309 H 0.15417 0.46888 0.19733
 H310 H 0.12474 0.47484 0.16186
 C311 C 0.54789 0.61788 0.08033
 C312 C 0.53415 0.61598 0.05495
 C313 C 0.52588 0.59248 0.03739
 C314 C 0.53119 0.57049 0.04505
 C315 C 0.54564 0.57295 0.07029
 C316 C 0.55389 0.59648 0.08781
 C317 C 0.55429 0.64088 0.09941
 C318 C 0.55880 0.65964 0.11577
 C319 C 0.56317 0.68139 0.13569
 C320 C 0.58518 0.69087 0.15539
 C321 C 0.58825 0.71075 0.17579
 C322 C 0.56922 0.72122 0.17670
 C323 C 0.54750 0.71200 0.15660
 C324 C 0.54449 0.69217 0.13621
 H325 H 0.52930 0.63238 0.04901
 H326 H 0.51479 0.59124 0.01812
 H327 H 0.55004 0.55641 0.07681
 H328 H 0.56442 0.59769 0.10746
 H329 H 0.59969 0.68259 0.15523
 H330 H 0.60514 0.71769 0.19112
 H331 H 0.53261 0.71980 0.15706
 H332 H 0.52732 0.68490 0.12114
 C333 C 0.38214 0.93019 0.08033
 C334 C 0.38411 0.91838 0.05493
 C335 C 0.40766 0.93360 0.03746
 C336 C 0.42963 0.96085 0.04524
 C337 C 0.42711 0.97282 0.07051
 C338 C 0.40353 0.95755 0.08794
 C339 C 0.35907 0.91360 0.09930
 C340 C 0.34025 0.89934 0.11555
 C341 C 0.31841 0.88192 0.13536
 C342 C 0.30765 0.85246 0.13579
 C343 C 0.28778 0.83562 0.15610
 C344 C 0.27851 0.84811 0.17621
 C345 C 0.28893 0.87760 0.17537
 C346 C 0.30885 0.89444 0.15505
 H347 H 0.36772 0.89717 0.04889
 H348 H 0.40894 0.92377 0.01817
 H349 H 0.44364 0.99374 0.07712
 H350 H 0.40227 0.96685 0.10761
 H351 H 0.31498 0.84258 0.12072
 H352 H 0.28002 0.81293 0.15651
 H353 H 0.28195 0.88754 0.19072
 H354 H 0.31712 0.91723 0.15496
 C355 C 0.92972 0.54665 0.58099
 C356 C 0.91792 0.53300 0.55555
 C357 C 0.93315 0.52479 0.53792
 C358 C 0.96042 0.53007 0.54557
 C359 C 0.97237 0.54439 0.57091
 C360 C 0.95708 0.55258 0.58849
 C361 C 0.91316 0.55310 0.60007
 C362 C 0.89894 0.55768 0.61638
 C363 C 0.88157 0.56217 0.63623
 C364 C 0.85211 0.54360 0.63666
 C365 C 0.83531 0.54675 0.65696
 C366 C 0.84783 0.56851 0.67705
 C367 C 0.87732 0.58744 0.67622
 C368 C 0.89412 0.58424 0.65591
 H369 H 0.89671 0.52820 0.54959
 H370 H 0.92334 0.51380 0.51859
 H371 H 0.99329 0.54876 0.57742
 H372 H 0.96638 0.56304 0.60819
 H373 H 0.84220 0.52639 0.62160
 H374 H 0.81261 0.53192 0.65735
 H375 H 0.88729 0.60437 0.69154
 H376 H 0.91691 0.59867 0.65582
 C377 C 0.45278 0.38271 0.58154
 C378 C 0.46635 0.38451 0.55606
 C379 C 0.47459 0.40798 0.53850
 C380 C 0.46941 0.43005 0.54627
 C381 C 0.45517 0.42772 0.57165
 C382 C 0.44695 0.40421 0.58916
 C383 C 0.44632 0.35966 0.60055
 C384 C 0.44175 0.34083 0.61680
 C385 C 0.43729 0.31894 0.63656
 C386 C 0.45586 0.30803 0.63689
 C387 C 0.45275 0.28805 0.65711
 C388 C 0.43103 0.27881 0.67724
 C389 C 0.41210 0.28940 0.67651
 C390 C 0.41527 0.30943 0.65628
 H391 H 0.47106 0.36803 0.55001
 H392 H 0.48551 0.40912 0.51913
 H393 H 0.45088 0.44432 0.57825
 H394 H 0.43656 0.40308 0.60890
 H395 H 0.47303 0.31532 0.62180
 H396 H 0.46757 0.28016 0.65742
 H397 H 0.39521 0.28245 0.69186
 H398 H 0.40085 0.31781 0.65627
 C399 C 0.61727 0.07008 0.58080
 C400 C 0.59596 0.04257 0.58805
 C401 C 0.57264 0.02730 0.57034
 C402 C 0.57029 0.03942 0.54514
 C403 C 0.59220 0.06683 0.53769
 C404 C 0.61550 0.08205 0.55545
 C405 C 0.63994 0.08664 0.60017
 C406 C 0.65829 0.10074 0.61692
 C407 C 0.67937 0.11777 0.63750
 C408 C 0.67170 0.12895 0.66014
 C409 C 0.69192 0.14559 0.68024
 C410 C 0.72005 0.15117 0.67795
 C411 C 0.72772 0.13998 0.65518
 C412 C 0.70743 0.12332 0.63502
 H413 H 0.59706 0.03315 0.60769
 H414 H 0.55616 0.00627 0.57670
 H415 H 0.59104 0.07677 0.51846
 H416 H 0.63182 0.10339 0.54969
 H417 H 0.65008 0.12484 0.66223
 H418 H 0.68570 0.15421 0.69758
 H419 H 0.74935 0.14415 0.65309
 H420 H 0.71360 0.11480 0.61755
 C421 C 0.45352 0.06984 0.91940
 C422 C 0.44767 0.04249 0.91192
 C423 C 0.45591 0.02726 0.92948
 C424 C 0.47031 0.03927 0.95484
 C425 C 0.47540 0.06658 0.96245
 C426 C 0.46712 0.08172 0.94481
 C427 C 0.44703 0.08633 0.90030
 C428 C 0.44242 0.10049 0.88395
 C429 C 0.43790 0.11778 0.86406
 C430 C 0.41585 0.10512 0.84440
 C431 C 0.41260 0.12186 0.82408
 C432 C 0.43146 0.15138 0.82321
 C433 C 0.45322 0.16399 0.84326
 C434 C 0.45642 0.14726 0.86357
 H435 H 0.43721 0.03313 0.89224
 H436 H 0.45149 0.00633 0.92284
 H437 H 0.48632 0.07659 0.98176
 H438 H 0.47182 0.10292 0.95077
 H439 H 0.40146 0.08231 0.84454
 H440 H 0.39567 0.11181 0.80879
 H441 H 0.46799 0.18671 0.84283
 H442 H 0.47362 0.15725 0.87860
 C443 C 0.61647 0.54651 0.91927
 C444 C 0.59504 0.55240 0.91173
 C445 C 0.57152 0.54417 0.92924
 C446 C 0.56901 0.52974 0.95460
 C447 C 0.59117 0.52461 0.96227
 C448 C 0.61464 0.53289 0.94469
 C449 C 0.63952 0.55300 0.90023
 C450 C 0.65834 0.55759 0.88395
 C451 C 0.68020 0.56208 0.86412
 C452 C 0.68981 0.58425 0.84457
 C453 C 0.70983 0.58747 0.82428
 C454 C 0.72030 0.56844 0.82333
 C455 C 0.71095 0.54657 0.84329
 C456 C 0.69099 0.54340 0.86357
 H457 H 0.59622 0.56288 0.89205
 H458 H 0.55506 0.54862 0.92255
 H459 H 0.59019 0.51368 0.98159
 H460 H 0.63110 0.52817 0.95069
 H461 H 0.68153 0.59877 0.84476
 H462 H 0.71686 0.60448 0.80906
 H463 H 0.71875 0.53167 0.84280
 H464 H 0.68361 0.52612 0.87853
 C465 C 0.93017 0.38335 0.91899
 C466 C 0.95756 0.40475 0.91161
 C467 C 0.97282 0.42817 0.92925
 C468 C 0.96079 0.43062 0.95459
 C469 C 0.93347 0.40846 0.96214
 C470 C 0.91830 0.38509 0.94442
 C471 C 0.91361 0.36060 0.89967
 C472 C 0.89952 0.34221 0.88295
 C473 C 0.88248 0.32107 0.86239
 C474 C 0.87682 0.29297 0.86492
 C475 C 0.86016 0.27264 0.84478
 C476 C 0.84908 0.28033 0.82196
 C477 C 0.85476 0.30851 0.81963
 C478 C 0.87140 0.32876 0.83971
 H479 H 0.96692 0.40365 0.89192
 H480 H 0.99377 0.44462 0.92265
 H481 H 0.92345 0.40941 0.98144
 H482 H 0.89705 0.36866 0.95029
 H483 H 0.88526 0.28679 0.88241
 H484 H 0.85591 0.25097 0.84690
 H485 H 0.84622 0.31474 0.80226
 H486 H 0.87559 0.35042 0.83758
 C487 C 0.54750 0.93036 0.41946
 C488 C 0.53375 0.91853 0.44482
 C489 C 0.52534 0.93369 0.46233
 C490 C 0.53045 0.96098 0.45463
 C491 C 0.54503 0.97296 0.42935
 C492 C 0.55340 0.95771 0.41191
 C493 C 0.55402 0.91380 0.40045
 C494 C 0.55861 0.89955 0.38417
 C495 C 0.56304 0.88213 0.36434
 C496 C 0.54430 0.85268 0.36381
 C497 C 0.54736 0.83584 0.34348
 C498 C 0.56918 0.84830 0.32346
 C499 C 0.58827 0.87777 0.32440
 C500 C 0.58517 0.89462 0.34474
 H501 H 0.52901 0.89733 0.45083
 H502 H 0.51429 0.92370 0.48159
 H503 H 0.54949 0.99388 0.42265
 H504 H 0.56398 0.96703 0.39227
 H505 H 0.52704 0.84282 0.37880
 H506 H 0.53241 0.81316 0.34299
 H507 H 0.60524 0.88770 0.30913
 H508 H 0.59972 0.91740 0.34491
 C509 C 0.38251 0.45311 0.41965
 C510 C 0.40375 0.44682 0.41233
 C511 C 0.42713 0.45491 0.42995
 C512 C 0.42960 0.46949 0.45514
 C513 C 0.40775 0.47505 0.46267
 C514 C 0.38439 0.46695 0.44499
 C515 C 0.35984 0.44706 0.40031
 C516 C 0.34153 0.44288 0.38357
 C517 C 0.32052 0.43892 0.36297
 C518 C 0.29244 0.41643 0.36530
 C519 C 0.27225 0.41288 0.34509
 C520 C 0.28004 0.43181 0.32239
 C521 C 0.30818 0.45437 0.32026
 C522 C 0.32831 0.45787 0.34042
 H523 H 0.40257 0.43623 0.39270
 H524 H 0.44356 0.45030 0.42354
 H525 H 0.40900 0.48625 0.48189
 H526 H 0.36813 0.47204 0.45079
 H527 H 0.28619 0.40168 0.38270
 H528 H 0.25060 0.39542 0.34705
 H529 H 0.31449 0.46926 0.30298
 H530 H 0.34994 0.47537 0.33844
 C531 C 0.07001 0.61752 0.41905
 C532 C 0.08184 0.61567 0.44445
 C533 C 0.06668 0.59215 0.46197
 C534 C 0.03947 0.57009 0.45425
 C535 C 0.02748 0.57249 0.42897
 C536 C 0.04269 0.59604 0.41149
 C537 C 0.08654 0.64056 0.40003
 C538 C 0.10075 0.65935 0.38373
 C539 C 0.11810 0.68116 0.36388
 C540 C 0.14754 0.69190 0.36331
 C541 C 0.16431 0.71177 0.34298
 C542 C 0.15180 0.72107 0.32298
 C543 C 0.12234 0.71066 0.32394
 C544 C 0.10555 0.69073 0.34429
 H545 H 0.10302 0.63213 0.45045
 H546 H 0.07653 0.59096 0.48126
 H547 H 0.00660 0.55589 0.42240
 H548 H 0.03338 0.59721 0.39182
 H549 H 0.15744 0.68455 0.37830
 H550 H 0.18699 0.71952 0.34247
 H551 H 0.11237 0.71765 0.30868
 H552 H 0.08279 0.68249 0.34449
 C553 C 0.92955 0.54679 0.91922
 C554 C 0.91774 0.53306 0.94462
 C555 C 0.93294 0.52471 0.96208
 C556 C 0.96016 0.52993 0.95430
 C557 C 0.97212 0.54435 0.92902
 C558 C 0.95687 0.55268 0.91160
 C559 C 0.91298 0.55331 0.90027
 C560 C 0.89875 0.55790 0.88403
 C561 C 0.88137 0.56237 0.86424
 C562 C 0.85194 0.54366 0.86372
 C563 C 0.83513 0.54676 0.84344
 C564 C 0.84762 0.56860 0.82345
 C565 C 0.87708 0.58767 0.82437
 C566 C 0.89389 0.58451 0.84466
 H567 H 0.89655 0.52829 0.95067
 H568 H 0.92312 0.51364 0.98138
 H569 H 0.99301 0.54868 0.92241
 H570 H 0.96616 0.56320 0.89193
 H571 H 0.84206 0.52639 0.87870
 H572 H 0.81246 0.53183 0.84296
 H573 H 0.88703 0.60465 0.80911
 H574 H 0.91666 0.59904 0.84482
 C575 C 0.45262 0.38228 0.91942
 C576 C 0.46636 0.38423 0.94481
 C577 C 0.47478 0.40784 0.96224
 C578 C 0.46961 0.42989 0.95444
 C579 C 0.45517 0.42739 0.92919
 C580 C 0.44678 0.40375 0.91179
 C581 C 0.44606 0.35914 0.90048
 C582 C 0.44145 0.34026 0.88425
 C583 C 0.43699 0.31836 0.86447
 C584 C 0.41479 0.30865 0.84496
 C585 C 0.41167 0.28867 0.82463
 C586 C 0.43081 0.27836 0.82363
 C587 C 0.45269 0.28779 0.84356
 C588 C 0.45577 0.30771 0.86387
 H589 H 0.47109 0.36778 0.95086
 H590 H 0.48585 0.40911 0.98153
 H591 H 0.45088 0.44398 0.92256
 H592 H 0.43625 0.40250 0.89213
 H593 H 0.40020 0.31682 0.84518
 H594 H 0.39466 0.28158 0.80942
 H595 H 0.46768 0.28011 0.84302
 H596 H 0.47308 0.31517 0.87879
 C597 C 0.61729 0.07044 0.91923
 C598 C 0.59606 0.04291 0.91194
 C599 C 0.57262 0.02766 0.92953
 C600 C 0.57009 0.03983 0.95466
 C601 C 0.59194 0.06725 0.96216
 C602 C 0.61535 0.08245 0.94451
 C603 C 0.64003 0.08700 0.89992
 C604 C 0.65841 0.10109 0.88319
 C605 C 0.67949 0.11810 0.86261
 C606 C 0.67181 0.12926 0.84000
 C607 C 0.69202 0.14585 0.81987
 C608 C 0.72014 0.15140 0.82209
 C609 C 0.72782 0.14024 0.84484
 C610 C 0.70754 0.12362 0.86503
 H611 H 0.59729 0.03346 0.89235
 H612 H 0.55619 0.00662 0.92314
 H613 H 0.59064 0.07723 0.98133
 H614 H 0.63162 0.10381 0.95030
 H615 H 0.65020 0.12517 0.83796
 H616 H 0.68580 0.15446 0.80254
 H617 H 0.74945 0.14439 0.84688
 H618 H 0.71371 0.11511 0.88247
 C619 C 0.06987 0.45377 0.41893
 C620 C 0.08173 0.46742 0.44434
 C621 C 0.06653 0.47559 0.46206
 C622 C 0.03917 0.47034 0.45454
 C623 C 0.02717 0.45584 0.42922
 C624 C 0.04245 0.44771 0.41158
 C625 C 0.08645 0.44760 0.39961
 C626 C 0.10057 0.44329 0.38291
 C627 C 0.11763 0.43919 0.36238
 C628 C 0.12876 0.45796 0.33969
 C629 C 0.14545 0.45435 0.31964
 C630 C 0.15113 0.43185 0.32202
 C631 C 0.14000 0.41308 0.34484
 C632 C 0.12329 0.41674 0.36494
 H633 H 0.10299 0.47229 0.45019
 H634 H 0.07654 0.48657 0.48135
 H635 H 0.00620 0.45128 0.42265
 H636 H 0.03311 0.43723 0.39190
 H637 H 0.12457 0.47543 0.33753
 H638 H 0.15402 0.46912 0.30226
 H639 H 0.14425 0.39566 0.34699
 H640 H 0.11481 0.40212 0.38244
 C641 C 0.54661 0.61713 0.41934
 C642 C 0.55255 0.59567 0.41187
 C643 C 0.54433 0.57221 0.42945
 C644 C 0.52997 0.56989 0.45475
 C645 C 0.52469 0.59191 0.46238
 C646 C 0.53293 0.61534 0.44475
 C647 C 0.55309 0.64012 0.40024
 C648 C 0.55770 0.65889 0.38389
 C649 C 0.56223 0.68070 0.36400
 C650 C 0.54364 0.69159 0.36345
 C651 C 0.54686 0.71152 0.34314
 C652 C 0.56869 0.72075 0.32314
 C653 C 0.58762 0.71016 0.32408
 C654 C 0.58435 0.69017 0.34440
 H655 H 0.56304 0.59678 0.39219
 H656 H 0.54871 0.55564 0.42296
 H657 H 0.51367 0.59078 0.48168
 H658 H 0.52813 0.63179 0.45069
 H659 H 0.52639 0.68432 0.37845
 H660 H 0.53204 0.71941 0.34266
 H661 H 0.60460 0.71711 0.30883
 H662 H 0.59879 0.68182 0.34459
 C663 C 0.38317 0.92981 0.41838
 C664 C 0.40466 0.95714 0.41083
 C665 C 0.42817 0.97235 0.42834
 C666 C 0.43052 0.96035 0.45364
 C667 C 0.40847 0.93311 0.46133
 C668 C 0.38499 0.91795 0.44378
 C669 C 0.36010 0.91331 0.39937
 C670 C 0.34125 0.89914 0.38311
 C671 C 0.31935 0.88182 0.36333
 C672 C 0.30976 0.89443 0.34382
 C673 C 0.28970 0.87766 0.32356
 C674 C 0.27916 0.84815 0.32261
 C675 C 0.28848 0.83558 0.34253
 C676 C 0.30849 0.85234 0.36277
 H677 H 0.40352 0.96647 0.39116
 H678 H 0.44477 0.99325 0.42180
 H679 H 0.40962 0.92326 0.48064
 H680 H 0.36852 0.89676 0.44977
 H681 H 0.31809 0.91723 0.34401
 H682 H 0.28268 0.88768 0.30837
 H683 H 0.28063 0.81287 0.34203
 H684 H 0.31584 0.84238 0.37769
 C685 C 0.54671 0.93009 0.08122
 C686 C 0.55253 0.95743 0.08878
 C687 C 0.54430 0.97267 0.07122
 C688 C 0.53005 0.96070 0.04587
 C689 C 0.52488 0.93345 0.03817
 C690 C 0.53314 0.91825 0.05577
 C691 C 0.55322 0.91356 0.10026
 C692 C 0.55785 0.89937 0.11653
 C693 C 0.56240 0.88203 0.13633
 C694 C 0.58450 0.89463 0.15593
 C695 C 0.58776 0.87785 0.17619
 C696 C 0.56885 0.84834 0.17707
 C697 C 0.54705 0.83577 0.15705
 C698 C 0.54384 0.85255 0.13680
 H699 H 0.56293 0.96674 0.10849
 H700 H 0.54858 0.99358 0.07777
 H701 H 0.51396 0.92362 0.01883
 H702 H 0.52844 0.89706 0.04977
 H703 H 0.59892 0.91743 0.15581
 H704 H 0.60472 0.88786 0.19146
 H705 H 0.53224 0.81306 0.15748
 H706 H 0.52661 0.84260 0.12180
 C707 C 0.38367 0.45398 0.08126
 C708 C 0.40497 0.44779 0.08855
 C709 C 0.42830 0.45581 0.07084
 C710 C 0.43067 0.47023 0.04560
 C711 C 0.40877 0.47573 0.03812
 C712 C 0.38546 0.46769 0.05588
 C713 C 0.36096 0.44786 0.10060
 C714 C 0.34257 0.44358 0.11732
 C715 C 0.32141 0.43948 0.13786
 C716 C 0.29338 0.41693 0.13535
 C717 C 0.27303 0.41325 0.15547
 C718 C 0.28061 0.43209 0.17824
 C719 C 0.30871 0.45469 0.18056
 C720 C 0.32900 0.45833 0.16049
 H721 H 0.40385 0.43729 0.10820
 H722 H 0.44477 0.45126 0.07722
 H723 H 0.40995 0.48680 0.01886
 H724 H 0.36915 0.47269 0.05009
 H725 H 0.28729 0.40225 0.11788
 H726 H 0.25142 0.39575 0.15336
 H727 H 0.31486 0.46951 0.19790
 H728 H 0.35060 0.47587 0.16261
 C729 C 0.06979 0.61657 0.08076
 C730 C 0.04249 0.59506 0.08834
 C731 C 0.02727 0.57154 0.07080
 C732 C 0.03922 0.56921 0.04545
 C733 C 0.06642 0.59127 0.03772
 C734 C 0.08160 0.61477 0.05529
 C735 C 0.08631 0.63965 0.09978
 C736 C 0.10050 0.65850 0.11605
 C737 C 0.11784 0.68041 0.13584
 C738 C 0.10526 0.68995 0.15548
 C739 C 0.12205 0.71001 0.17574
 C740 C 0.15154 0.72060 0.17657
 C741 C 0.16408 0.71133 0.15652
 C742 C 0.14730 0.69132 0.13627
 H743 H 0.03320 0.59620 0.10805
 H744 H 0.00639 0.55493 0.07737
 H745 H 0.07624 0.59013 0.01837
 H746 H 0.10277 0.63125 0.04927
 H747 H 0.08248 0.68158 0.15539
 H748 H 0.11206 0.71699 0.19103
 H749 H 0.18678 0.71922 0.15692
 H750 H 0.15724 0.68401 0.12124
 C751 C 0.45314 0.07000 0.58033
 C752 C 0.46693 0.08191 0.55498
 C753 C 0.47523 0.06672 0.53738
 C754 C 0.46989 0.03940 0.54498
 C755 C 0.45541 0.02735 0.57021
 C756 C 0.44714 0.04259 0.58777
 C757 C 0.44666 0.08653 0.59943
 C758 C 0.44207 0.10071 0.61580
 C759 C 0.43758 0.11801 0.63574
 C760 C 0.45623 0.14747 0.63636
 C761 C 0.45309 0.16420 0.65676
 C762 C 0.43127 0.15161 0.67677
 C763 C 0.41228 0.12212 0.67576
 C764 C 0.41547 0.10538 0.65535
 H765 H 0.47178 0.10317 0.54908
 H766 H 0.48634 0.07661 0.51812
 H767 H 0.45099 0.00639 0.57669
 H768 H 0.43657 0.03321 0.60740
 H769 H 0.47348 0.15744 0.62137
 H770 H 0.46797 0.18690 0.65730
 H771 H 0.39531 0.11209 0.69102
 H772 H 0.40098 0.08260 0.65511
 C773 C 0.61723 0.54735 0.58105
 C774 C 0.61531 0.53362 0.55563
 C775 C 0.59179 0.52532 0.53814
 C776 C 0.56981 0.53059 0.54592
 C777 C 0.57227 0.54502 0.57121
 C778 C 0.59582 0.55329 0.58866
 C779 C 0.64027 0.55380 0.60003
 C780 C 0.65906 0.55835 0.61629
 C781 C 0.68087 0.56276 0.63610
 C782 C 0.69163 0.54406 0.63654
 C783 C 0.71150 0.54710 0.65684
 C784 C 0.72077 0.56886 0.67694
 C785 C 0.71034 0.58792 0.67610
 C786 C 0.69042 0.58483 0.65578
 H787 H 0.63172 0.52881 0.54959
 H788 H 0.59056 0.51425 0.51883
 H789 H 0.55573 0.54939 0.57782
 H790 H 0.59704 0.56381 0.60835
 H791 H 0.68431 0.52684 0.62148
 H792 H 0.71927 0.53217 0.65725
 H793 H 0.71731 0.60485 0.69143
 H794 H 0.68215 0.59935 0.65569
 C795 C 0.93023 0.38264 0.58061
 C796 C 0.95772 0.40395 0.58788
 C797 C 0.97295 0.42735 0.57025
 C798 C 0.96081 0.42978 0.54510
 C799 C 0.93344 0.40786 0.53761
 C800 C 0.91825 0.38448 0.55530
 C801 C 0.91366 0.35995 0.59996
 C802 C 0.89956 0.34161 0.61671
 C803 C 0.88251 0.32057 0.63731
 C804 C 0.87134 0.32834 0.65989
 C805 C 0.85468 0.30817 0.68002
 C806 C 0.84907 0.28001 0.67782
 C807 C 0.86024 0.27224 0.65511
 C808 C 0.87692 0.29247 0.63492
 H809 H 0.96714 0.40280 0.60749
 H810 H 0.99396 0.44384 0.57662
 H811 H 0.92347 0.40908 0.51842
 H812 H 0.89692 0.36816 0.54953
 H813 H 0.87547 0.34999 0.66191
 H814 H 0.84607 0.31446 0.69732
 H815 H 0.85604 0.25057 0.65310
 H816 H 0.88544 0.28624 0.61750
   
