data_POSCAR
  _audit_creation_date              2014-09-24
  _audit_creation_method            'ToBaCCo'
  _symmetry_space_group_name_H-M    'P1'
  _symmetry_Int_Tables_number       1
  _symmetry_cell_setting            triclinic
  loop_
  _symmetry_equiv_pos_as_xyz
 x,y,z
_cell_length_a 31.0554
_cell_length_b 36.2612
_cell_length_c 16.0428
_cell_angle_alpha 89.585900
_cell_angle_beta 90.617300
_cell_angle_gamma 125.091000
loop_
  _atom_site_label
  _atom_site_type_symbol
  _atom_site_fract_x
  _atom_site_fract_y
  _atom_site_fract_z
C1 C 0.48196 0.87756 0.54562
 C2 C 0.46602 0.87158 0.46393
 C3 C 0.46754 0.90927 0.44092
 N4 N 0.48253 0.93737 0.50660
 C5 C 0.49137 0.91811 0.57060
 C6 C 0.45124 0.91576 0.36289
 C7 C 0.45865 0.95674 0.33928
 C8 C 0.43732 0.96226 0.26783
 C9 C 0.45800 1.00730 0.26184
 C10 C 0.49140 1.02830 0.32988
 N11 N 0.49148 0.99726 0.37695
 C12 C 0.52306 1.07544 0.34378
 C13 C 0.54255 1.09409 0.42466
 C14 C 0.58144 1.13905 0.44186
 C15 C 0.58825 1.14272 0.52666
 C16 C 0.55433 1.09981 0.55915
 N17 N 0.52647 1.07003 0.49674
 C18 C 0.55155 1.08862 0.64492
 C19 C 0.53340 1.04467 0.67251
 C20 C 0.52185 1.03016 0.75487
 C21 C 0.50947 0.98730 0.75729
 C22 C 0.51286 0.97624 0.67634
 N23 N 0.52755 1.01137 0.62486
 C24 C 0.50296 0.93452 0.65310
 H25 H 0.48473 0.85400 0.58291
 H26 H 0.45390 0.84227 0.42694
 H27 H 0.53816 1.01416 0.56273
 H28 H 0.41062 0.93675 0.22320
 H29 H 0.44960 1.02290 0.21256
 H30 H 0.60439 1.16639 0.39826
 H31 H 0.61707 1.17320 0.56009
 H32 H 0.49846 0.96639 0.81240
 H33 H 0.51764 1.00462 0.42555
 H34 H 0.52215 1.04844 0.80816
 C35 C -0.16798 0.40650 0.46296
 C36 C -0.16770 0.39044 0.54003
 C37 C -0.11632 0.41688 0.56935
 N38 N -0.08491 0.44782 0.51075
 C39 C -0.11620 0.44108 0.44437
 C40 C -0.09995 0.41281 0.65022
 C41 C -0.04636 0.43387 0.67325
 C42 C -0.02861 0.43779 0.75492
 C43 C 0.02507 0.46177 0.75241
 C44 C 0.03919 0.47248 0.66962
 N45 N -0.00455 0.45467 0.62136
 C46 C 0.09182 0.49903 0.64217
 C47 C 0.10741 0.51826 0.56212
 C48 C 0.15866 0.54199 0.53378
 C49 C 0.15916 0.56030 0.45879
 C50 C 0.10792 0.54668 0.44292
 N51 N 0.07647 0.52127 0.50681
 C52 C 0.09205 0.56113 0.37435
 C53 C 0.03969 0.54776 0.36225
 C54 C 0.02477 0.56797 0.30670
 C55 C -0.02928 0.54244 0.30641
 C56 C -0.04641 0.50695 0.36189
 N57 N -0.00386 0.51078 0.39583
 C58 C -0.09936 0.46886 0.37135
 H59 H -0.20339 0.39467 0.42741
 H60 H -0.20203 0.36269 0.57122
 H61 H -0.00478 0.48581 0.42969
 H62 H -0.05151 0.42607 0.81146
 H63 H 0.05085 0.47140 0.80607
 H64 H 0.19261 0.54694 0.56530
 H65 H 0.19408 0.58258 0.42246
 H66 H -0.05265 0.54931 0.26787
 H67 H -0.00590 0.45458 0.55664
 H68 H 0.05002 0.59745 0.26851
 C69 C 0.61168 0.47694 0.56285
 C70 C 0.61493 0.47671 0.47771
 C71 C 0.57452 0.47848 0.44601
 N72 N 0.54609 0.47894 0.50873
 C73 C 0.56846 0.47764 0.58037
 C74 C 0.56185 0.47611 0.36072
 C75 C 0.52761 0.48696 0.32959
 C76 C 0.50841 0.47950 0.24853
 C77 C 0.48068 0.49832 0.24173
 C78 C 0.48389 0.51705 0.31867
 N79 N 0.51284 0.51020 0.37162
 C80 C 0.46315 0.54216 0.33598
 C81 C 0.45905 0.55503 0.41708
 C82 C 0.43759 0.57862 0.43456
 C83 C 0.43495 0.57979 0.51946
 C84 C 0.45564 0.55740 0.55222
 N85 N 0.46950 0.54176 0.48896
 C86 C 0.45373 0.54533 0.63747
 C87 C 0.46848 0.51640 0.66364
 C88 C 0.45350 0.49220 0.73807
 C89 C 0.48094 0.47335 0.74492
 C90 C 0.51245 0.48645 0.67511
 N91 N 0.50436 0.51235 0.62539
 C92 C 0.54878 0.47545 0.66092
 H93 H 0.63832 0.47678 0.60658
 H94 H 0.64391 0.47560 0.44318
 H95 H 0.52699 0.53069 0.57400
 H96 H 0.51453 0.46310 0.19867
 H97 H 0.46130 0.49890 0.18579
 H98 H 0.42257 0.59163 0.39099
 H99 H 0.41607 0.59287 0.55169
 H100 H 0.47779 0.45222 0.79588
 H101 H 0.52681 0.52492 0.42983
 H102 H 0.42585 0.48804 0.78398
 O103 O 0.44047 0.70475 -0.11721
 O104 O 0.43318 0.77042 -0.07608
 C105 C 0.39430 0.76955 -0.10504
 O106 O 0.34770 0.74242 -0.07986
 O107 O 0.26767 0.66056 -0.05328
 C108 C 0.26244 0.63031 -0.10078
 O109 O 0.29167 0.61640 -0.09649
 O110 O 0.38465 0.63151 -0.09073
 C111 C 0.42012 0.66392 -0.13479
 O112 O 0.45606 0.69303 0.04496
 O113 O 0.44540 0.75687 0.08545
 C114 C 0.41767 0.76939 0.11269
 O115 O 0.37204 0.75470 0.08419
 O116 O 0.29246 0.67049 0.11010
 C117 C 0.27280 0.62883 0.11725
 O118 O 0.28460 0.60816 0.06972
 O119 O 0.37989 0.62793 0.07593
 C120 C 0.42925 0.65593 0.08479
 Cr121 Cr 0.44080 0.72952 -0.01519
 Cr122 Cr 0.32188 0.70635 0.01484
 Cr123 Cr 0.33642 0.62351 -0.01003
 O124 O 0.36641 0.68653 -0.00292
 O125 O 0.55183 0.31065 -0.10404
 O126 O 0.54187 0.23523 -0.07942
 C127 C 0.57461 0.23247 -0.12061
 O128 O 0.62287 0.25456 -0.10159
 O129 O 0.71264 0.32949 -0.06836
 C130 C 0.72152 0.36429 -0.10607
 O131 O 0.70017 0.38392 -0.08633
 O132 O 0.61548 0.38086 -0.06501
 C133 C 0.57889 0.35290 -0.11485
 O134 O 0.54358 0.31948 0.06116
 O135 O 0.54119 0.24716 0.08734
 C136 C 0.56427 0.22845 0.10508
 O137 O 0.60300 0.23505 0.06353
 O138 O 0.69179 0.31143 0.09630
 C139 C 0.71794 0.35247 0.11688
 O140 O 0.71323 0.38126 0.08008
 O141 O 0.62501 0.37421 0.10131
 C142 C 0.57553 0.35263 0.10788
 Cr143 Cr 0.54727 0.27932 -0.00831
 Cr144 Cr 0.65627 0.28371 -0.00238
 Cr145 Cr 0.66205 0.37767 0.00743
 O146 O 0.62203 0.31359 -0.00062
 C147 C 0.49986 0.90489 -0.27949
 C148 C 0.45430 0.86601 -0.26185
 C149 C 0.44985 0.83648 -0.19415
 C150 C 0.40245 0.80113 -0.17124
 H151 H 0.41944 0.85602 -0.29798
 H152 H 0.48507 0.84377 -0.16288
 H153 H 0.53436 0.91676 -0.24096
 H154 H 0.36765 0.79529 -0.20164
 C155 C 0.13390 0.51365 -0.29497
 C156 C 0.16000 0.55548 -0.26496
 C157 C 0.20187 0.57220 -0.20212
 C158 C 0.22015 0.61108 -0.16337
 H159 H 0.14970 0.57785 -0.28716
 H160 H 0.21732 0.55267 -0.18708
 H161 H 0.14140 0.48976 -0.27134
 H162 H 0.20260 0.62914 -0.17661
 C163 C 0.43263 0.55873 -0.30169
 C164 C 0.44489 0.60058 -0.29474
 C165 C 0.42319 0.61140 -0.22548
 C166 C 0.43965 0.65365 -0.20820
 H167 H 0.47305 0.62724 -0.33627
 H168 H 0.39404 0.58400 -0.18604
 H169 H 0.40961 0.53572 -0.25175
 H170 H 0.46933 0.68124 -0.24669
 C171 C 0.57110 0.12240 -0.29326
 C172 C 0.56299 0.15492 -0.29333
 C173 C 0.58248 0.18659 -0.22279
 C174 C 0.55544 0.20193 -0.19310
 H175 H 0.53916 0.15622 -0.34152
 H176 H 0.61834 0.19538 -0.19149
 H177 H 0.58890 0.11919 -0.23762
 H178 H 0.51767 0.19055 -0.22056
 C179 C 0.86215 0.38792 -0.28689
 C180 C 0.82247 0.39173 -0.27289
 C181 C 0.78755 0.36998 -0.20074
 C182 C 0.75798 0.38373 -0.17663
 H183 H 0.81806 0.41414 -0.31126
 H184 H 0.78689 0.34373 -0.16667
 H185 H 0.86931 0.37001 -0.24070
 H186 H 0.76058 0.41098 -0.21036
 C187 C 0.56421 0.46136 -0.26946
 C188 C 0.56964 0.42736 -0.27203
 C189 C 0.58198 0.41222 -0.19594
 C190 C 0.56680 0.36965 -0.18877
 H191 H 0.56106 0.40827 -0.32894
 H192 H 0.60218 0.43564 -0.14475
 H193 H 0.56545 0.47483 -0.20861
 H194 H 0.54390 0.34592 -0.23847
 C195 C 0.86433 0.45960 0.30615
 C196 C 0.82851 0.41787 0.27786
 C197 C 0.79117 0.40862 0.20979
 C198 C 0.75583 0.36604 0.18591
 H199 H 0.82772 0.38969 0.30317
 H200 H 0.79265 0.43613 0.17945
 H201 H 0.86862 0.48701 0.27083
 H202 H 0.75549 0.33925 0.21723
 C203 C 0.53655 0.10305 0.27218
 C204 C 0.54087 0.14195 0.26963
 C205 C 0.55717 0.16885 0.19226
 C206 C 0.54530 0.19839 0.17832
 H207 H 0.53065 0.15333 0.32332
 H208 H 0.57911 0.16432 0.14629
 H209 H 0.53936 0.09005 0.21326
 H210 H 0.52101 0.20095 0.22262
 C211 C 0.58600 0.46174 0.30185
 C212 C 0.55787 0.42089 0.26689
 C213 C 0.58236 0.40637 0.20996
 C214 C 0.55325 0.36690 0.16999
 H215 H 0.51616 0.39818 0.27996
 H216 H 0.62431 0.42880 0.19877
 H217 H 0.62796 0.48426 0.29103
 H218 H 0.51110 0.34530 0.17990
 C219 C 0.13261 0.59302 0.31342
 C220 C 0.16077 0.58197 0.27203
 C221 C 0.20385 0.61364 0.21585
 C222 C 0.23301 0.60168 0.18101
 H223 H 0.15268 0.54890 0.28195
 H224 H 0.21091 0.64595 0.20161
 H225 H 0.13893 0.62530 0.30238
 H226 H 0.22431 0.56869 0.19453
 C227 C 0.42286 0.87743 0.30357
 C228 C 0.44618 0.85987 0.26902
 C229 C 0.41834 0.82290 0.20810
 C230 C 0.44125 0.80384 0.17866
 H231 H 0.48658 0.87323 0.28577
 H232 H 0.37952 0.81187 0.18621
 H233 H 0.38315 0.86530 0.28487
 H234 H 0.48009 0.81530 0.20138
 C235 C 0.43997 0.55207 0.26560
 C236 C 0.46189 0.59408 0.23802
 C237 C 0.43501 0.60374 0.17468
 C238 C 0.45726 0.64527 0.14397
 H239 H 0.49868 0.62161 0.26521
 H240 H 0.39585 0.57653 0.15425
 H241 H 0.40389 0.52422 0.23738
 H242 H 0.49703 0.67210 0.16252
   
