data_POSCAR
  _audit_creation_date              2014-09-24
  _audit_creation_method            'ToBaCCo'
  _symmetry_space_group_name_H-M    'P1'
  _symmetry_Int_Tables_number       1
  _symmetry_cell_setting            triclinic
  loop_
  _symmetry_equiv_pos_as_xyz
 x,y,z
_cell_length_a 26.4358
_cell_length_b 25.7899
_cell_length_c 25.9205
_cell_angle_alpha 89.799900
_cell_angle_beta 90.246500
_cell_angle_gamma 89.943600
loop_
  _atom_site_label
  _atom_site_type_symbol
  _atom_site_fract_x
  _atom_site_fract_y
  _atom_site_fract_z
C1 C 0.26401 1.05250 -0.00469
 C2 C 0.23959 1.03671 -0.05076
 C3 C 0.23690 0.98379 -0.06335
 C4 C 0.25448 0.94631 -0.02863
 C5 C 0.27527 0.96256 0.01870
 C6 C 0.28279 1.01523 0.02881
 H7 H 0.29985 1.02745 0.06489
 H8 H 0.21727 0.97172 -0.09813
 C9 C 0.74566 0.45896 0.46784
 C10 C 0.73800 0.45244 0.52130
 C11 C 0.73224 0.49743 0.55059
 C12 C 0.73707 0.54754 0.52914
 C13 C 0.74364 0.55331 0.47583
 C14 C 0.74769 0.50840 0.44613
 H15 H 0.75271 0.51134 0.40474
 H16 H 0.72532 0.49342 0.59147
 C17 C 0.76498 0.96397 0.96411
 C18 C 0.76738 1.01630 0.94795
 C19 C 0.76298 1.05567 0.98429
 C20 C 0.75552 1.04294 1.03635
 C21 C 0.75240 0.99089 1.05226
 C22 C 0.75741 0.95162 1.01629
 H23 H 0.75454 0.91161 1.02886
 H24 H 0.76552 1.09585 0.97218
 C25 C 0.24842 0.52362 0.53711
 C26 C 0.24827 0.46974 0.53230
 C27 C 0.24589 0.44684 0.48303
 C28 C 0.24362 0.47592 0.43721
 C29 C 0.24354 0.53118 0.44187
 C30 C 0.24590 0.55344 0.49194
 H31 H 0.24600 0.59511 0.49614
 H32 H 0.24603 0.40504 0.48031
 C33 C 1.04138 0.26261 0.01517
 C34 C 1.03950 0.24311 -0.03465
 C35 C 0.99395 0.22556 -0.05491
 C36 C 0.94804 0.23393 -0.02948
 C37 C 0.94955 0.25256 0.02179
 C38 C 0.99699 0.26622 0.04384
 H39 H 0.99931 0.28210 0.08242
 H40 H 0.99413 0.20912 -0.09329
 C41 C 0.45254 0.75708 0.49956
 C42 C 0.45130 0.75346 0.55367
 C43 C 0.49742 0.75081 0.58051
 C44 C 0.54456 0.75111 0.55548
 C45 C 0.54624 0.75492 0.50145
 C46 C 0.50001 0.75803 0.47450
 H47 H 0.50105 0.76142 0.43296
 H48 H 0.49660 0.74799 0.62209
 C49 C 0.02686 0.74374 -0.02274
 C50 C -0.02638 0.74583 -0.02232
 C51 C -0.05148 0.76607 0.02068
 C52 C -0.02477 0.78241 0.06529
 C53 C 0.02902 0.78187 0.06407
 C54 C 0.05371 0.76353 0.01919
 H55 H 0.09456 0.76025 0.01834
 H56 H -0.09245 0.76492 0.02074
 C57 C 0.51667 0.22574 0.53585
 C58 C 0.46313 0.22552 0.53534
 C59 C 0.43744 0.23038 0.48706
 C60 C 0.46355 0.23466 0.43987
 C61 C 0.51617 0.23253 0.44080
 C62 C 0.54169 0.22836 0.48830
 H63 H 0.58254 0.22798 0.48818
 H64 H 0.39655 0.23175 0.48612
 C65 C 0.96382 -0.01688 0.24136
 C66 C 0.95329 0.02894 0.21396
 C67 C 0.99331 0.05640 0.19098
 C68 C 1.04371 0.04409 0.20096
 C69 C 1.05453 -0.00387 0.22661
 C70 C 1.01415 -0.03430 0.24531
 H71 H 1.02240 -0.06872 0.26803
 H72 H 0.98543 0.09261 0.17114
 C73 C 0.54515 0.44262 0.75654
 C74 C 0.54695 0.49697 0.76231
 C75 C 0.50068 0.52504 0.76238
 C76 C 0.45339 0.50011 0.75707
 C77 C 0.45250 0.44631 0.75200
 C78 C 0.49801 0.41846 0.75164
 H79 H 0.49667 0.37685 0.74709
 H80 H 0.50145 0.56680 0.76604
 C81 C 1.02272 0.92901 0.74347
 C82 C 0.97027 0.93199 0.74077
 C83 C 0.94657 0.97976 0.72866
 C84 C 0.97539 1.02457 0.72079
 C85 C 1.02846 1.02121 0.72542
 C86 C 1.05114 0.97374 0.73514
 H87 H 1.09209 0.97222 0.73713
 H88 H 0.90582 0.98190 0.72438
 C89 C 0.53109 0.47171 0.25513
 C90 C 0.47807 0.47150 0.25371
 C91 C 0.45214 0.51888 0.25406
 C92 C 0.47690 0.56691 0.25520
 C93 C 0.53040 0.56810 0.25617
 C94 C 0.55673 0.52007 0.25633
 H95 H 0.59764 0.52031 0.25731
 H96 H 0.41128 0.51835 0.25311
 O97 O 0.27269 0.14668 0.10905
 O98 O 0.33651 0.12935 0.18643
 O99 O 0.13873 0.17578 0.19051
 O100 O 0.10675 0.23675 0.24265
 O101 O 0.20354 0.29657 0.07596
 O102 O 0.28014 0.34820 0.07698
 O103 O 0.24342 0.31531 0.34979
 O104 O 0.18383 0.23888 0.34405
 O105 O 0.38001 0.25692 0.30038
 O106 O 0.40570 0.21026 0.21569
 O107 O 0.32060 0.39564 0.24135
 O108 O 0.24968 0.41434 0.17189
 O109 O 0.24515 0.38693 0.29872
 O110 O 0.19674 0.41010 0.23003
 O111 O 0.38610 0.33848 0.23992
 O112 O 0.41498 0.28132 0.18013
 O113 O 0.31115 0.24427 0.35098
 O114 O 0.25135 0.18332 0.34882
 O115 O 0.27396 0.22204 0.06348
 O116 O 0.33012 0.29044 0.06935
 O117 O 0.13753 0.26512 0.12232
 O118 O 0.10994 0.30641 0.19804
 O119 O 0.20622 0.12120 0.18925
 O120 O 0.27589 0.09899 0.22549
 Zr121 Zr 0.26798 0.17177 0.18861
 O122 O 0.30242 0.20924 0.25277
 Zr123 Zr 0.17037 0.25250 0.19583
 O124 O 0.20348 0.29717 0.25584
 Zr125 Zr 0.26824 0.27910 0.11960
 O126 O 0.30767 0.31945 0.17728
 Zr127 Zr 0.25024 0.24915 0.29994
 O128 O 0.21512 0.20329 0.24188
 Zr129 Zr 0.34950 0.26807 0.22475
 O130 O 0.31702 0.22892 0.16040
 Zr131 Zr 0.25412 0.35306 0.22623
 O132 O 0.21433 0.31482 0.16665
 O133 O 0.22086 0.21916 0.14469
 O134 O 0.29901 0.30608 0.27347
 C135 C 0.27485 0.17267 0.06598
 C136 C 0.15859 0.12962 0.19099
 C137 C 0.15644 0.28713 0.08215
 C138 C 0.24283 0.36530 0.34300
 C139 C 0.35888 0.24807 0.34439
 C140 C 0.36787 0.38427 0.24443
 H141 H 0.32148 0.18332 0.27327
 H142 H 0.32966 0.34550 0.16057
 H143 H 0.20146 0.20050 0.11780
 H144 H 0.17709 0.31340 0.27738
 H145 H 0.16487 0.20996 0.32802
 H146 H 0.11203 0.25440 0.27606
 H147 H 0.40360 0.29883 0.14812
 H148 H 0.35676 0.26559 0.08009
 H149 H 0.23847 0.15420 0.32779
 H150 H 0.27297 0.10562 0.26293
 H151 H 0.28440 0.42208 0.16000
 H152 H 0.25326 0.37296 0.08669
 H153 H 0.35473 0.14021 0.15489
 H154 H 0.40174 0.18467 0.24390
 H155 H 0.12278 0.33912 0.18293
 H156 H 0.16521 0.39219 0.24003
 O157 O 0.74022 0.93128 0.22460
 O158 O 0.68836 0.93288 0.29655
 O159 O 0.87806 0.86471 0.27982
 O160 O 0.89925 0.79359 0.32434
 O161 O 0.81757 0.80860 0.13878
 O162 O 0.74750 0.75826 0.11396
 O163 O 0.74856 0.69571 0.39434
 O164 O 0.80509 0.75917 0.41882
 O165 O 0.61937 0.76767 0.34111
 O166 O 0.60010 0.83564 0.27474
 O167 O 0.68678 0.65086 0.25279
 O168 O 0.75837 0.64665 0.19436
 O169 O 0.75412 0.64541 0.32280
 O170 O 0.81377 0.64476 0.24658
 O171 O 0.62136 0.70683 0.26328
 O172 O 0.60165 0.78697 0.21456
 O173 O 0.67877 0.76282 0.40459
 O174 O 0.74920 0.82352 0.42581
 O175 O 0.74477 0.88284 0.15166
 O176 O 0.68965 0.81166 0.12624
 O177 O 0.88022 0.79937 0.19845
 O178 O 0.89389 0.73302 0.26457
 O179 O 0.81386 0.92091 0.29643
 O180 O 0.74121 0.92215 0.35384
 Zr181 Zr 0.74677 0.87810 0.28540
 O182 O 0.70075 0.82435 0.32453
 Zr183 Zr 0.84003 0.79368 0.26923
 O184 O 0.79890 0.73691 0.31097
 Zr185 Zr 0.74938 0.80545 0.18042
 O186 O 0.70588 0.74658 0.21608
 Zr187 Zr 0.74753 0.77090 0.36307
 O188 O 0.79420 0.82749 0.32707
 Zr189 Zr 0.65857 0.77959 0.27185
 O190 O 0.69890 0.83923 0.23300
 Zr191 Zr 0.75261 0.69626 0.25895
 O192 O 0.79669 0.75021 0.21664
 O193 O 0.79521 0.84737 0.23018
 O194 O 0.70291 0.72693 0.31295
 C195 C 0.74027 0.92652 0.17545
 C196 C 0.86102 0.90972 0.29198
 C197 C 0.86437 0.80351 0.15151
 C198 C 0.75139 0.65159 0.37188
 C199 C 0.63258 0.76285 0.38856
 C200 C 0.63936 0.66086 0.25646
 H201 H 0.67862 0.84351 0.34846
 H202 H 0.68633 0.72756 0.18966
 H203 H 0.81566 0.87354 0.21160
 H204 H 0.82259 0.71364 0.32950
 H205 H 0.83161 0.78528 0.41176
 H206 H 0.88947 0.76916 0.35203
 H207 H 0.61150 0.76526 0.18487
 H208 H 0.66279 0.83240 0.14288
 H209 H 0.71869 0.84568 0.42387
 H210 H 0.76795 0.90938 0.37755
 H211 H 0.73281 0.65798 0.16873
 H212 H 0.76774 0.72703 0.12242
 H213 H 0.65948 0.92122 0.27512
 H214 H 0.60481 0.85604 0.30664
 H215 H 0.88466 0.71174 0.23427
 H216 H 0.83540 0.64499 0.27782
 O217 O 0.77937 0.07885 0.77600
 O218 O 0.72836 0.06558 0.70534
 O219 O 0.89602 0.17934 0.71349
 O220 O 0.90718 0.25692 0.68917
 O221 O 0.82310 0.21277 0.86770
 O222 O 0.74746 0.24480 0.89134
 O223 O 0.74301 0.31170 0.60637
 O224 O 0.80072 0.25615 0.57952
 O225 O 0.62013 0.21687 0.66417
 O226 O 0.61282 0.15174 0.72218
 O227 O 0.67207 0.34782 0.74953
 O228 O 0.73446 0.36668 0.80422
 O229 O 0.73614 0.36255 0.67736
 O230 O 0.79736 0.37113 0.75848
 O231 O 0.61923 0.27905 0.74070
 O232 O 0.61838 0.18981 0.79236
 O233 O 0.67847 0.23707 0.60331
 O234 O 0.76070 0.18453 0.57917
 O235 O 0.76822 0.12554 0.84929
 O236 O 0.69649 0.18716 0.87140
 O237 O 0.88205 0.23139 0.80689
 O238 O 0.88266 0.30791 0.74210
 O239 O 0.84831 0.10674 0.70454
 O240 O 0.77396 0.09115 0.64610
 Zr241 Zr 0.77249 0.13297 0.71615
 O242 O 0.71538 0.17638 0.67813
 Zr243 Zr 0.84442 0.23615 0.73495
 O244 O 0.79470 0.28247 0.69131
 Zr245 Zr 0.75814 0.20331 0.82209
 O246 O 0.70605 0.25453 0.78613
 Zr247 Zr 0.75031 0.23821 0.63998
 O248 O 0.80788 0.19361 0.67598
 Zr249 Zr 0.66574 0.21250 0.73062
 O250 O 0.71668 0.16026 0.76788
 Zr251 Zr 0.74259 0.31332 0.74312
 O252 O 0.79387 0.26849 0.78775
 O253 O 0.81253 0.17297 0.77255
 O254 O 0.69889 0.27311 0.68954
 C255 C 0.77571 0.08247 0.82508
 C256 C 0.89082 0.13139 0.70282
 C257 C 0.86813 0.22420 0.85389
 C258 C 0.73785 0.35584 0.62806
 C259 C 0.63273 0.22787 0.61778
 C260 C 0.62808 0.32783 0.74703
 H261 H 0.69660 0.15368 0.65410
 H262 H 0.68356 0.26958 0.81255
 H263 H 0.83834 0.15117 0.79001
 H264 H 0.81437 0.30929 0.67283
 H265 H 0.83482 0.24676 0.59232
 H266 H 0.89403 0.26142 0.65363
 H267 H 0.61214 0.22063 0.81405
 H268 H 0.68098 0.15441 0.85936
 H269 H 0.72899 0.16469 0.57465
 H270 H 0.80003 0.10749 0.62410
 H271 H 0.72497 0.34623 0.83501
 H272 H 0.75746 0.28101 0.88389
 H273 H 0.69768 0.07016 0.72661
 H274 H 0.63087 0.12300 0.70507
 H275 H 0.87767 0.32021 0.77787
 H276 H 0.81248 0.38171 0.72521
 O277 O 0.23787 0.84393 0.87038
 O278 O 0.29768 0.86998 0.80386
 O279 O 0.11202 0.79606 0.76963
 O280 O 0.10121 0.73744 0.70663
 O281 O 0.15917 0.69944 0.89956
 O282 O 0.23007 0.63953 0.90955
 O283 O 0.25272 0.67629 0.63233
 O284 O 0.19210 0.74852 0.62871
 O285 O 0.37531 0.73708 0.71354
 O286 O 0.38136 0.78654 0.80117
 O287 O 0.31970 0.59455 0.75686
 O288 O 0.24511 0.56614 0.80608
 O289 O 0.25218 0.60323 0.68161
 O290 O 0.19231 0.57588 0.74222
 O291 O 0.37568 0.65899 0.77427
 O292 O 0.38793 0.71792 0.83865
 O293 O 0.31992 0.74494 0.64678
 O294 O 0.25667 0.80358 0.63463
 O295 O 0.23113 0.77097 0.91925
 O296 O 0.28341 0.69568 0.92753
 O297 O 0.10465 0.71142 0.83254
 O298 O 0.09658 0.66659 0.75983
 O299 O 0.17107 0.85544 0.79372
 O300 O 0.24252 0.88309 0.74843
 Zr301 Zr 0.23910 0.81502 0.79400
 O302 O 0.28934 0.78111 0.74114
 Zr303 Zr 0.15201 0.72514 0.76902
 O304 O 0.20036 0.68506 0.71780
 Zr305 Zr 0.23202 0.70908 0.86620
 O306 O 0.28515 0.67130 0.81844
 Zr307 Zr 0.25014 0.73864 0.68438
 O308 O 0.19949 0.77953 0.73256
 Zr309 Zr 0.33175 0.72546 0.78080
 O310 O 0.28442 0.76238 0.83516
 Zr311 Zr 0.24791 0.63267 0.75781
 O312 O 0.19387 0.66723 0.80832
 O313 O 0.18823 0.76431 0.82867
 O314 O 0.29653 0.68451 0.72139
 C315 C 0.23496 0.82044 0.91414
 C316 C 0.12639 0.84253 0.78005
 C317 C 0.11419 0.70112 0.88005
 C318 C 0.25295 0.62676 0.63767
 C319 C 0.36484 0.74323 0.66538
 C320 C 0.36499 0.61177 0.76468
 H321 H 0.31099 0.80818 0.72567
 H322 H 0.30563 0.64735 0.83983
 H323 H 0.16456 0.78233 0.85210
 H324 H 0.17999 0.66692 0.69142
 H325 H 0.16912 0.77585 0.64170
 H326 H 0.11230 0.71586 0.67733
 H327 H 0.37330 0.69632 0.86640
 H328 H 0.31134 0.72080 0.92301
 H329 H 0.26633 0.83354 0.65613
 H330 H 0.22183 0.87652 0.71720
 H331 H 0.26839 0.57161 0.83549
 H332 H 0.20758 0.61548 0.89059
 H333 H 0.32074 0.85605 0.83072
 H334 H 0.38337 0.81078 0.77159
 H335 H 0.10875 0.64249 0.73303
 H336 H 0.16347 0.58320 0.76535
 O337 O 0.25142 0.36947 0.65831
 O338 O 0.19453 0.39318 0.72851
 O339 O 0.37000 0.28974 0.74195
 O340 O 0.37827 0.21869 0.79202
 O341 O 0.30382 0.22317 0.60382
 O342 O 0.22621 0.17652 0.58834
 O343 O 0.21408 0.17639 0.87050
 O344 O 0.28421 0.23006 0.88296
 O345 O 0.10124 0.25860 0.80073
 O346 O 0.09830 0.32295 0.72598
 O347 O 0.14002 0.12275 0.73329
 O348 O 0.21733 0.09139 0.68138
 O349 O 0.20018 0.11368 0.81068
 O350 O 0.25578 0.07961 0.74971
 O351 O 0.08907 0.19367 0.73046
 O352 O 0.08864 0.26695 0.67205
 O353 O 0.15983 0.25166 0.86492
 O354 O 0.23298 0.30480 0.87807
 O355 O 0.24344 0.30503 0.59915
 O356 O 0.18049 0.24102 0.58308
 O357 O 0.36441 0.22082 0.66619
 O358 O 0.36357 0.15655 0.73724
 O359 O 0.31995 0.36136 0.73536
 O360 O 0.25798 0.39273 0.78181
 Zr361 Zr 0.24691 0.33094 0.72948
 O362 O 0.19265 0.29703 0.77781
 Zr363 Zr 0.32130 0.22632 0.73487
 O364 O 0.26966 0.18768 0.78356
 Zr365 Zr 0.23562 0.23708 0.64232
 O366 O 0.17986 0.19969 0.68593
 Zr367 Zr 0.22806 0.24218 0.82572
 O368 O 0.28363 0.28067 0.78204
 Zr369 Zr 0.14201 0.25428 0.73188
 O370 O 0.19342 0.29263 0.68298
 Zr371 Zr 0.21497 0.14935 0.73890
 O372 O 0.27091 0.18194 0.69021
 O373 O 0.28805 0.27932 0.68460
 O374 O 0.17433 0.20134 0.78311
 C375 C 0.24809 0.35266 0.61193
 C376 C 0.36289 0.33889 0.74102
 C377 C 0.35000 0.21969 0.61871
 C378 C 0.20147 0.13041 0.85737
 C379 C 0.11427 0.25585 0.84828
 C380 C 0.09620 0.14461 0.73064
 H381 H 0.17539 0.32390 0.79840
 H382 H 0.15688 0.18152 0.66184
 H383 H 0.31308 0.29793 0.66314
 H384 H 0.28746 0.16316 0.80677
 H385 H 0.31389 0.25098 0.87268
 H386 H 0.36310 0.20090 0.82205
 H387 H 0.09323 0.23911 0.64633
 H388 H 0.15687 0.26918 0.59261
 H389 H 0.26388 0.32445 0.86910
 H390 H 0.23749 0.38518 0.81276
 H391 H 0.18978 0.09894 0.65651
 H392 H 0.24653 0.14685 0.60113
 H393 H 0.16973 0.38595 0.70074
 H394 H 0.10364 0.34347 0.75771
 H395 H 0.35167 0.13490 0.70815
 H396 H 0.29108 0.08951 0.75755
 O397 O 0.74858 0.60012 0.69628
 O398 O 0.80557 0.57598 0.76331
 O399 O 0.62267 0.65489 0.78801
 O400 O 0.60619 0.71886 0.84104
 O401 O 0.67153 0.73677 0.64909
 O402 O 0.73816 0.79473 0.63235
 O403 O 0.77101 0.79009 0.91247
 O404 O 0.71434 0.72060 0.93017
 O405 O 0.89132 0.72106 0.83041
 O406 O 0.90322 0.67874 0.75601
 O407 O 0.81645 0.86259 0.77863
 O408 O 0.74051 0.88069 0.73129
 O409 O 0.76009 0.85494 0.85400
 O410 O 0.69150 0.87217 0.78960
 O411 O 0.87910 0.80335 0.76749
 O412 O 0.88683 0.72900 0.69972
 O413 O 0.83952 0.71622 0.89995
 O414 O 0.77756 0.66027 0.92025
 O415 O 0.74037 0.66592 0.63821
 O416 O 0.79577 0.73862 0.62469
 O417 O 0.61745 0.73261 0.71700
 O418 O 0.61244 0.78665 0.79881
 O419 O 0.68053 0.59216 0.77114
 O420 O 0.75812 0.57463 0.82469
 Zr421 Zr 0.74982 0.63447 0.76920
 O422 O 0.80290 0.67635 0.81310
 Zr423 Zr 0.66269 0.72454 0.78395
 O424 O 0.71058 0.76863 0.83150
 Zr425 Zr 0.74209 0.73169 0.68463
 O426 O 0.79199 0.77829 0.72644
 Zr427 Zr 0.76572 0.72216 0.86781
 O428 O 0.71181 0.67605 0.82712
 Zr429 Zr 0.84225 0.73046 0.76737
 O430 O 0.79472 0.68282 0.72183
 Zr431 Zr 0.75167 0.81827 0.78340
 O432 O 0.70059 0.77760 0.73640
 O433 O 0.69911 0.68050 0.72866
 O434 O 0.80637 0.77490 0.82332
 C435 C 0.74456 0.61804 0.65030
 C436 C 0.63497 0.60761 0.77998
 C437 C 0.62725 0.73722 0.66860
 C438 C 0.76711 0.83815 0.89992
 C439 C 0.88346 0.71429 0.87866
 C440 C 0.86235 0.85014 0.77122
 H441 H 0.82586 0.65096 0.82975
 H442 H 0.80944 0.80187 0.70222
 H443 H 0.67549 0.65995 0.70719
 H444 H 0.69016 0.78747 0.85726
 H445 H 0.68899 0.69355 0.92214
 H446 H 0.62368 0.72285 0.87457
 H447 H 0.88364 0.76316 0.68251
 H448 H 0.82134 0.71109 0.63030
 H449 H 0.75525 0.63177 0.90896
 H450 H 0.72868 0.57664 0.84807
 H451 H 0.76285 0.87505 0.70130
 H452 H 0.71579 0.82100 0.64816
 H453 H 0.83150 0.58932 0.73927
 H454 H 0.89191 0.64447 0.76869
 H455 H 0.61533 0.81126 0.76957
 H456 H 0.67374 0.86556 0.82249
 O457 O 0.24448 0.64346 0.32201
 O458 O 0.18985 0.63907 0.25472
 O459 O 0.38475 0.69755 0.26047
 O460 O 0.40919 0.76488 0.20942
 O461 O 0.32642 0.76800 0.39732
 O462 O 0.26372 0.82758 0.41613
 O463 O 0.27102 0.85636 0.13042
 O464 O 0.31040 0.78196 0.10724
 O465 O 0.12896 0.80337 0.19073
 O466 O 0.10298 0.76110 0.26155
 O467 O 0.21759 0.92942 0.26434
 O468 O 0.28457 0.93418 0.31787
 O469 O 0.28202 0.91692 0.19284
 O470 O 0.34419 0.91551 0.27171
 O471 O 0.14632 0.88183 0.25275
 O472 O 0.12287 0.80768 0.32350
 O473 O 0.19038 0.79899 0.12993
 O474 O 0.25711 0.72706 0.11481
 O475 O 0.24783 0.70221 0.38711
 O476 O 0.19880 0.78453 0.40458
 O477 O 0.38742 0.76439 0.33582
 O478 O 0.41026 0.82428 0.26326
 O479 O 0.31690 0.64406 0.25241
 O480 O 0.23958 0.64409 0.19210
 Zr481 Zr 0.25104 0.69163 0.25749
 O482 O 0.20826 0.74528 0.21396
 Zr483 Zr 0.35043 0.76978 0.26425
 O484 O 0.31513 0.82361 0.21563
 Zr485 Zr 0.25994 0.77626 0.35287
 O486 O 0.22353 0.83612 0.31061
 Zr487 Zr 0.25951 0.78765 0.16967
 O488 O 0.30223 0.73214 0.21102
 Zr489 Zr 0.17185 0.80242 0.25926
 O490 O 0.20644 0.74176 0.30370
 Zr491 Zr 0.27517 0.87496 0.26249
 O492 O 0.31275 0.82243 0.31213
 O493 O 0.30176 0.72507 0.30860
 O494 O 0.22123 0.84356 0.21239
 C495 C 0.24377 0.65546 0.36977
 C496 C 0.36502 0.65285 0.25476
 C497 C 0.37272 0.76476 0.38289
 C498 C 0.27910 0.90268 0.14552
 C499 C 0.14378 0.80170 0.14373
 C500 C 0.17008 0.92568 0.25702
 H501 H 0.18382 0.72550 0.19282
 H502 H 0.20669 0.86042 0.33447
 H503 H 0.32028 0.69921 0.32974
 H504 H 0.34123 0.84108 0.19463
 H505 H 0.34429 0.79075 0.12089
 H506 H 0.39451 0.74775 0.17870
 H507 H 0.12112 0.84448 0.33401
 H508 H 0.17277 0.75902 0.39415
 H509 H 0.22275 0.71190 0.11544
 H510 H 0.27071 0.64605 0.17110
 H511 H 0.26898 0.92147 0.35011
 H512 H 0.28718 0.85563 0.40588
 H513 H 0.16183 0.65577 0.27367
 H514 H 0.11138 0.72498 0.25214
 H515 H 0.40713 0.84577 0.29466
 H516 H 0.36231 0.91463 0.23840
 O517 O 0.75106 0.36450 0.34978
 O518 O 0.81495 0.39301 0.27959
 O519 O 0.62164 0.33391 0.25371
 O520 O 0.60353 0.27677 0.19013
 O521 O 0.67393 0.22444 0.37369
 O522 O 0.74505 0.16332 0.37810
 O523 O 0.75187 0.21224 0.10365
 O524 O 0.69582 0.28488 0.10352
 O525 O 0.88098 0.26516 0.18337
 O526 O 0.89255 0.31064 0.27095
 O527 O 0.81902 0.12310 0.22421
 O528 O 0.74041 0.09907 0.27786
 O529 O 0.75204 0.13997 0.15398
 O530 O 0.69543 0.10662 0.21547
 O531 O 0.87886 0.18498 0.23699
 O532 O 0.89697 0.24104 0.30654
 O533 O 0.82306 0.27096 0.11861
 O534 O 0.76531 0.34085 0.11510
 O535 O 0.74408 0.29096 0.39764
 O536 O 0.79803 0.22064 0.39802
 O537 O 0.61490 0.24729 0.31369
 O538 O 0.60358 0.20329 0.23223
 O539 O 0.68587 0.38997 0.27045
 O540 O 0.75535 0.41933 0.23819
 Zr541 Zr 0.75100 0.34439 0.27096
 O542 O 0.79734 0.31113 0.21430
 Zr543 Zr 0.65874 0.26081 0.24740
 O544 O 0.70307 0.22049 0.19303
 Zr545 Zr 0.74415 0.23566 0.33933
 O546 O 0.79337 0.19813 0.28866
 Zr547 Zr 0.75404 0.27217 0.15842
 O548 O 0.70711 0.31375 0.20988
 Zr549 Zr 0.83925 0.25279 0.25092
 O550 O 0.79611 0.28919 0.30850
 Zr551 Zr 0.74978 0.16497 0.22993
 O552 O 0.69952 0.19947 0.28302
 O553 O 0.70032 0.29464 0.30644
 O554 O 0.79898 0.21538 0.19284
 C555 C 0.74789 0.34001 0.39324
 C556 C 0.63922 0.37983 0.26220
 C557 C 0.62834 0.23194 0.35887
 C558 C 0.75231 0.16292 0.11007
 C559 C 0.86864 0.26830 0.13560
 C560 C 0.86530 0.13852 0.22768
 H561 H 0.81896 0.33791 0.19819
 H562 H 0.81344 0.17204 0.30790
 H563 H 0.67804 0.31290 0.33106
 H564 H 0.68061 0.20441 0.16704
 H565 H 0.67377 0.31244 0.11756
 H566 H 0.61536 0.26123 0.15751
 H567 H 0.88481 0.21427 0.33089
 H568 H 0.82702 0.24393 0.39127
 H569 H 0.74269 0.36735 0.13002
 H570 H 0.75715 0.41429 0.20046
 H571 H 0.77089 0.09592 0.29994
 H572 H 0.71757 0.14209 0.36304
 H573 H 0.83356 0.38092 0.31062
 H574 H 0.89268 0.33700 0.24313
 H575 H 0.61314 0.17235 0.25279
 H576 H 0.66605 0.12367 0.19884
 N577 N 0.26974 0.10141 0.00751
 N578 N 0.27678 0.14771 0.01645
 N579 N 0.73841 0.59093 0.56309
 N580 N 0.74360 0.58094 0.61082
 N581 N 0.74371 0.97980 0.10082
 N582 N 0.73499 0.97399 0.14713
 N583 N 0.24942 0.43740 0.57709
 N584 N 0.24913 0.38861 0.57094
 N585 N 0.77456 0.02780 0.89920
 N586 N 0.78198 0.03458 0.85274
 N587 N 0.24284 0.56608 0.39813
 N588 N 0.24120 0.61484 0.40711
 N589 N 0.24457 0.89690 0.96383
 N590 N 0.23515 0.85007 0.96092
 N591 N 0.74941 0.41867 0.43129
 N592 N 0.74606 0.37040 0.43882
 N593 N 0.08333 0.28371 0.03135
 N594 N 0.12382 0.30453 0.04190
 N595 N 0.58966 0.74676 0.58594
 N596 N 0.58552 0.74219 0.63469
 N597 N 0.05108 0.71590 0.94267
 N598 N 0.07208 0.68667 0.91170
 N599 N 0.54510 0.23642 0.39433
 N600 N 0.59177 0.22533 0.39772
 N601 N 0.94723 0.79356 0.11203
 N602 N 0.89923 0.79918 0.10927
 N603 N 0.43403 0.22299 0.58226
 N604 N 0.38623 0.21796 0.57815
 N605 N 0.90200 0.22897 0.94086
 N606 N 0.90682 0.22882 0.89184
 N607 N 0.40702 0.76002 0.46904
 N608 N 0.41193 0.76097 0.42023
 N609 N 0.07899 0.08632 0.19229
 N610 N 0.12691 0.08415 0.19625
 N611 N 0.59446 0.52439 0.76639
 N612 N 0.59336 0.57228 0.77821
 N613 N 0.95353 0.06656 0.70312
 N614 N 0.93524 0.10620 0.68414
 N615 N 0.44655 0.61328 0.25573
 N616 N 0.39838 0.60960 0.25259
 N617 N 0.04808 0.88131 0.75510
 N618 N 0.09254 0.88446 0.77340
 N619 N 0.55881 0.42347 0.25526
 N620 N 0.60645 0.42400 0.26235
 N621 N 0.92921 0.96399 0.27211
 N622 N 0.89624 0.95018 0.30271
 N623 N 0.40565 0.41911 0.74731
 N624 N 0.40653 0.36989 0.74611
 N625 N 0.08223 0.24732 0.93229
 N626 N 0.07459 0.25465 0.88445
 N627 N 0.59348 0.75674 0.47330
 N628 N 0.59150 0.75856 0.42412
 N629 N 0.94751 0.72197 0.94181
 N630 N 0.92570 0.69642 0.90841
 N631 N 0.43706 0.24109 0.39145
 N632 N 0.38895 0.24193 0.39009
 N633 N 0.05945 0.79376 0.10886
 N634 N 0.10722 0.79808 0.10320
 N635 N 0.54702 0.22380 0.58262
 N636 N 0.59489 0.22972 0.57817
 N637 N 0.90458 0.25642 0.05228
 N638 N 0.90925 0.26669 0.10004
 N639 N 0.40459 0.75114 0.58225
 N640 N 0.40687 0.74741 0.63135
 N641 N 0.21234 0.06907 0.92205
 N642 N 0.18371 0.09712 0.89701
 N643 N 0.74556 0.60339 0.45110
 N644 N 0.75058 0.60542 0.40221
 N645 N 0.75249 0.08185 0.07475
 N646 N 0.75372 0.13032 0.06611
 N647 N 0.25026 0.54819 0.58728
 N648 N 0.25278 0.59748 0.59068
 N649 N 0.76730 0.92368 0.92682
 N650 N 0.76914 0.87598 0.93940
 N651 N 0.24283 0.44804 0.38831
 N652 N 0.24110 0.39811 0.38806
 N653 N 0.27912 0.92631 0.05977
 N654 N 0.28266 0.94075 0.10648
 N655 N 0.73903 0.40269 0.54726
 N656 N 0.73516 0.40133 0.59645
 N657 N 0.06287 0.06346 0.72287
 N658 N 0.05321 0.11125 0.72839
 N659 N 0.55804 0.61673 0.25753
 N660 N 0.60624 0.61660 0.25386
 N661 N 0.10073 0.98325 0.23997
 N662 N 0.14452 0.97488 0.25414
 N663 N 0.59002 0.41110 0.75487
 N664 N 0.58591 0.36191 0.75054
 N665 N 0.90525 0.05457 0.21970
 N666 N 0.90631 0.10378 0.22072
 N667 N 0.40665 0.52906 0.75720
 N668 N 0.40779 0.57793 0.76315
 N669 N 0.94114 0.88682 0.75086
 N670 N 0.89550 0.89228 0.76407
 N671 N 0.44959 0.42407 0.25025
 N672 N 0.40145 0.42669 0.25120
   
