data_POSCAR
  _audit_creation_date              2014-09-24
  _audit_creation_method            'ToBaCCo'
  _symmetry_space_group_name_H-M    'P1'
  _symmetry_Int_Tables_number       1
  _symmetry_cell_setting            triclinic
  loop_
  _symmetry_equiv_pos_as_xyz
 x,y,z
_cell_length_a 56.1422
_cell_length_b 56.0460
_cell_length_c 16.4888
_cell_angle_alpha 90.038900
_cell_angle_beta 89.961300
_cell_angle_gamma 119.969900
loop_
  _atom_site_label
  _atom_site_type_symbol
  _atom_site_fract_x
  _atom_site_fract_y
  _atom_site_fract_z
C1 C 0.22347 0.49358 0.45666
 C2 C 0.22261 0.49133 0.54314
 C3 C 0.24318 0.48845 0.58324
 C4 C 0.26572 0.48964 0.54178
 C5 C 0.26675 0.49264 0.45593
 C6 C 0.24614 0.49506 0.41542
 H7 H 0.24671 0.49560 0.34969
 H8 H 0.24305 0.48810 0.64895
 C9 C 0.51643 -0.26573 0.45993
 C10 C 0.51074 -0.26801 0.54448
 C11 C 0.50919 -0.24687 0.58518
 C12 C 0.51453 -0.22253 0.54514
 C13 C 0.52015 -0.22025 0.46052
 C14 C 0.52169 -0.24141 0.41980
 H15 H 0.52487 -0.23973 0.35470
 H16 H 0.50601 -0.24858 0.65029
 C17 C 1.26562 0.78195 0.45535
 C18 C 1.26440 0.78142 0.54182
 C19 C 1.24158 0.76014 0.58148
 C20 C 1.21986 0.73886 0.53831
 C21 C 1.22102 0.73903 0.45258
 C22 C 1.24389 0.76013 0.41252
 H23 H 1.24370 0.76023 0.34680
 H24 H 1.24125 0.75961 0.64724
 C25 C 0.77877 0.51702 0.45920
 C26 C 0.77832 0.51599 0.54552
 C27 C 0.75544 0.51446 0.58611
 C28 C 0.73396 0.51539 0.54429
 C29 C 0.73504 0.51656 0.45798
 C30 C 0.75744 0.51765 0.41734
 H31 H 0.75757 0.51758 0.35152
 H32 H 0.75562 0.51519 0.65175
 C33 C 0.47600 0.25754 0.45855
 C34 C 0.47739 0.25853 0.54484
 C35 C 0.47904 0.23729 0.58589
 C36 C 0.47816 0.21477 0.54456
 C37 C 0.47675 0.21437 0.45829
 C38 C 0.47529 0.23540 0.41721
 H39 H 0.47519 0.23538 0.35139
 H40 H 0.47852 0.23700 0.65155
 C41 C 0.73974 0.22189 0.45494
 C42 C 0.73928 0.22141 0.54064
 C43 C 0.76052 0.24339 0.58347
 C44 C 0.78247 0.26596 0.54344
 C45 C 0.78343 0.26533 0.45685
 C46 C 0.76193 0.24345 0.41445
 H47 H 0.76252 0.24307 0.34873
 H48 H 0.75920 0.24318 0.64903
 N49 N 0.97005 0.51320 -0.14239
 N50 N 0.94971 0.50617 -0.19425
 N51 N 1.02692 0.56002 -0.08683
 N52 N 1.04696 0.58564 -0.09772
 N53 N 1.02784 0.54379 -0.14269
 N54 N 1.04873 0.55774 -0.19224
 N55 N 0.96911 0.52885 -0.08470
 N56 N 0.94796 0.53270 -0.09527
 C57 C 0.93602 0.51837 -0.16384
 C58 C 1.06039 0.58380 -0.16362
 N59 N 1.02854 0.54310 0.14333
 N60 N 1.04936 0.55708 0.19318
 N61 N 0.96964 0.52831 0.08948
 N62 N 0.94818 0.53157 0.10108
 N63 N 0.97068 0.51214 0.14523
 N64 N 0.95003 0.50410 0.19665
 N65 N 1.02740 0.55949 0.08853
 N66 N 1.04725 0.58513 0.10016
 Mn67 Mn 0.99826 0.54446 0.00167
 C68 C 1.06083 0.58328 0.16558
 C69 C 0.93613 0.51634 0.16817
 N70 N 1.03003 0.49365 -0.14626
 N71 N 1.05080 0.50189 -0.19732
 N72 N 0.97328 0.44652 -0.09002
 N73 N 0.95287 0.42106 -0.10047
 N74 N 0.97216 0.46302 -0.14442
 N75 N 0.95081 0.44937 -0.19270
 N76 N 1.03116 0.47762 -0.09032
 N77 N 1.05287 0.47470 -0.10123
 Mn78 Mn 1.00002 0.50341 -0.14487
 C79 C 1.06490 0.48994 -0.16834
 C80 C 0.93903 0.42321 -0.16475
 N81 N 0.97323 0.46194 0.14272
 N82 N 0.95382 0.44736 0.19616
 N83 N 1.03157 0.47706 0.08380
 N84 N 1.05263 0.47309 0.09461
 N85 N 1.03077 0.49287 0.14126
 N86 N 1.05104 0.49982 0.19322
 N87 N 0.97362 0.44600 0.08492
 N88 N 0.95425 0.42019 0.09693
 Mn89 Mn 1.00080 0.50253 0.14408
 Mn90 Mn 1.00241 0.46150 -0.00294
 Cl91 Cl 1.00037 0.50297 -0.00048
 C92 C 0.94205 0.42138 0.16652
 C93 C 1.06461 0.48747 0.16310
 N94 N 0.46904 0.43973 0.08773
 N95 N 0.46468 0.41452 0.09865
 N96 N 0.45667 0.48560 0.14348
 N97 N 0.44336 0.49335 0.19313
 N98 N 0.43998 0.46860 0.08822
 N99 N 0.41477 0.46412 0.09925
 N100 N 0.48533 0.45633 0.14432
 N101 N 0.49240 0.44286 0.19551
 C102 C 0.47940 0.41681 0.16619
 C103 C 0.41722 0.47975 0.16489
 N104 N 0.52474 0.55321 0.08734
 N105 N 0.53006 0.57870 0.09956
 N106 N 0.53669 0.50743 0.14398
 N107 N 0.55007 0.50020 0.19496
 N108 N 0.55326 0.52368 0.08725
 N109 N 0.57836 0.52782 0.09785
 N110 N 0.50825 0.53674 0.14384
 N111 N 0.50211 0.55058 0.19646
 Mn112 Mn 0.49670 0.49653 0.14483
 C113 C 0.51575 0.57671 0.16788
 C114 C 0.57604 0.51303 0.16534
 N115 N 0.43981 0.46846 -0.08686
 N116 N 0.41461 0.46408 -0.09748
 N117 N 0.48507 0.45618 -0.14390
 N118 N 0.49160 0.44250 -0.19610
 N119 N 0.46897 0.43967 -0.08681
 N120 N 0.46431 0.41437 -0.09814
 N121 N 0.45649 0.48553 -0.14200
 N122 N 0.44326 0.49354 -0.19088
 Mn123 Mn 0.45416 0.45379 0.00058
 C124 C 0.41716 0.47995 -0.16252
 C125 C 0.47859 0.41646 -0.16655
 N126 N 0.55314 0.52363 -0.08728
 N127 N 0.57833 0.52814 -0.09881
 N128 N 0.50772 0.53664 -0.14252
 N129 N 0.50006 0.55016 -0.19164
 N130 N 0.52473 0.55319 -0.08712
 N131 N 0.52928 0.57849 -0.09737
 N132 N 0.53656 0.50753 -0.14423
 N133 N 0.55008 0.50085 -0.19654
 Mn134 Mn 0.53928 0.53871 0.00004
 Mn135 Mn 0.49645 0.49647 -0.14413
 Cl136 Cl 0.49665 0.49638 0.00032
 C137 C 0.57609 0.51377 -0.16718
 C138 C 0.51370 0.57626 -0.16278
 N139 N 0.44720 -0.03001 0.08632
 N140 N 0.42200 -0.05063 0.09827
 N141 N 0.49200 0.02825 0.14224
 N142 N 0.49867 0.04873 0.19343
 N143 N 0.47543 0.02805 0.08581
 N144 N 0.47049 0.04851 0.09679
 N145 N 0.46386 -0.02955 0.14289
 N146 N 0.45039 -0.04966 0.19546
 C147 C 0.42433 -0.06273 0.16653
 C148 C 0.48515 0.06125 0.16419
 N149 N 0.56034 0.02964 0.08492
 N150 N 0.58543 0.05059 0.09608
 N151 N 0.51572 -0.02859 0.14203
 N152 N 0.50948 -0.04869 0.19421
 N153 N 0.53232 -0.02843 0.08562
 N154 N 0.53771 -0.04856 0.09776
 N155 N 0.54369 0.02917 0.14163
 N156 N 0.55699 0.04964 0.19314
 Mn157 Mn 0.50382 -0.00020 0.14308
 C158 C 0.58300 0.06289 0.16388
 C159 C 0.52326 -0.06105 0.16579
 N160 N 0.47517 0.02779 -0.08860
 N161 N 0.47004 0.04811 -0.09973
 N162 N 0.46338 -0.03007 -0.14455
 N163 N 0.45000 -0.05086 -0.19506
 N164 N 0.44687 -0.03030 -0.08783
 N165 N 0.42180 -0.05139 -0.09785
 N166 N 0.49144 0.02776 -0.14580
 N167 N 0.49758 0.04789 -0.19794
 Mn168 Mn 0.46088 -0.00111 -0.00109
 C169 C 0.48418 0.06048 -0.16815
 C170 C 0.42408 -0.06404 -0.16505
 N171 N 0.53214 -0.02861 -0.08943
 N172 N 0.53686 -0.04925 -0.09977
 N173 N 0.54327 0.02861 -0.14659
 N174 N 0.55658 0.04865 -0.19947
 N175 N 0.56003 0.02939 -0.08979
 N176 N 0.58513 0.05017 -0.10197
 N177 N 0.51496 -0.02931 -0.14464
 N178 N 0.50729 -0.05057 -0.19346
 Mn179 Mn 0.54653 0.00051 -0.00219
 Mn180 Mn 0.50328 -0.00075 -0.14634
 Cl181 Cl 0.50364 -0.00038 -0.00163
 C182 C 0.52116 -0.06279 -0.16486
 C183 C 0.58265 0.06201 -0.17062
 C184 C 1.15689 0.48918 0.32162
 C185 C 1.15189 0.47285 0.39071
 C186 C 1.17368 0.47356 0.43335
 C187 C 1.20119 0.49153 0.41002
 C188 C 1.20590 0.50701 0.33820
 C189 C 1.18396 0.50579 0.29451
 C190 C 1.13379 0.48941 0.27974
 C191 C 1.11610 0.49560 0.32340
 C192 C 1.09392 0.49548 0.28485
 C193 C 1.08871 0.48857 0.20241
 C194 C 1.10642 0.48238 0.15862
 C195 C 1.12902 0.48311 0.19686
 H196 H 1.16883 0.45981 0.48452
 H197 H 1.22659 0.52117 0.31768
 H198 H 1.08055 0.50029 0.31995
 H199 H 1.10285 0.47710 0.09486
 H200 H 1.18818 0.51854 0.24112
 H201 H 1.11957 0.50065 0.38733
 H202 H 1.13104 0.45939 0.41142
 H203 H 1.14246 0.47824 0.16231
 C204 C 0.51506 0.66832 0.32818
 C205 C 0.49472 0.66330 0.38613
 C206 C 0.49509 0.68496 0.42883
 C207 C 0.51571 0.71242 0.41467
 C208 C 0.53524 0.71756 0.35352
 C209 C 0.53516 0.69577 0.31174
 C210 C 0.51537 0.64491 0.28630
 C211 C 0.50692 0.61997 0.32761
 C212 C 0.50679 0.59780 0.28867
 C213 C 0.51563 0.60018 0.20801
 C214 C 0.52442 0.62508 0.16664
 C215 C 0.52409 0.64717 0.20517
 H216 H 0.47859 0.68016 0.47129
 H217 H 0.55151 0.73835 0.34075
 H218 H 0.50016 0.57890 0.32221
 H219 H 0.53119 0.62735 0.10416
 H220 H 0.55133 0.70047 0.26813
 H221 H 0.50072 0.61762 0.39061
 H222 H 0.47822 0.64258 0.39814
 H223 H 0.53033 0.66585 0.17097
 C224 C 0.33192 -0.15308 0.32620
 C225 C 0.32161 -0.14747 0.39656
 C226 C 0.29931 -0.16862 0.43752
 C227 C 0.28734 -0.19621 0.41117
 C228 C 0.29731 -0.20144 0.33850
 C229 C 0.31928 -0.18011 0.29653
 C230 C 0.35588 -0.13062 0.28424
 C231 C 0.38013 -0.11371 0.32744
 C232 C 0.40265 -0.09201 0.28859
 C233 C 0.40105 -0.08650 0.20634
 C234 C 0.37682 -0.10349 0.16304
 C235 C 0.35450 -0.12559 0.20151
 H236 H 0.29106 -0.16305 0.48873
 H237 H 0.28903 -0.22221 0.31565
 H238 H 0.42109 -0.07918 0.32330
 H239 H 0.37515 -0.09970 0.09946
 H240 H 0.32695 -0.18483 0.24210
 H241 H 0.38163 -0.11738 0.39124
 H242 H 0.33058 -0.12658 0.41910
 H243 H 0.33592 -0.13836 0.16725
 C244 C 0.84173 0.51216 0.32373
 C245 C 0.82456 0.49084 0.37711
 C246 C 0.80368 0.49207 0.41977
 C247 C 0.79957 0.51461 0.40986
 C248 C 0.81590 0.53538 0.35441
 C249 C 0.83693 0.53430 0.31227
 C250 C 0.86510 0.51186 0.28213
 C251 C 0.88063 0.50206 0.32234
 C252 C 0.90339 0.50299 0.28468
 C253 C 0.91129 0.51403 0.20647
 C254 C 0.89563 0.52345 0.16569
 C255 C 0.87269 0.52223 0.20291
 H256 H 0.79099 0.47566 0.46153
 H257 H 0.81302 0.55294 0.34609
 H258 H 0.91519 0.49567 0.31756
 H259 H 0.90113 0.53181 0.10496
 H260 H 0.84995 0.55126 0.27263
 H261 H 0.87567 0.49435 0.38382
 H262 H 0.82730 0.47323 0.38613
 H263 H 0.86090 0.52944 0.16953
 C264 C 0.48129 0.32523 0.32133
 C265 C 0.50278 0.32921 0.37362
 C266 C 0.50136 0.30712 0.41688
 C267 C 0.47848 0.28064 0.40857
 C268 C 0.45756 0.27632 0.35397
 C269 C 0.45882 0.29844 0.31126
 C270 C 0.48179 0.34903 0.27983
 C271 C 0.47105 0.34631 0.20112
 C272 C 0.47038 0.36837 0.16394
 C273 C 0.48069 0.39368 0.20434
 C274 C 0.49190 0.39664 0.28221
 C275 C 0.49229 0.37451 0.31977
 H276 H 0.51790 0.31072 0.45787
 H277 H 0.43976 0.25599 0.34680
 H278 H 0.46183 0.36564 0.10352
 H279 H 0.49988 0.41590 0.31487
 H280 H 0.44175 0.29465 0.27238
 H281 H 0.46323 0.32715 0.16805
 H282 H 0.52066 0.34942 0.38144
 H283 H 0.50024 0.37722 0.38094
 C284 C 0.67324 0.15718 0.32039
 C285 C 0.66853 0.17442 0.37201
 C286 C 0.69021 0.19576 0.41458
 C287 C 0.71704 0.20039 0.40607
 C288 C 0.72205 0.18390 0.35269
 C289 C 0.70033 0.16237 0.31065
 C290 C 0.64992 0.13342 0.27890
 C291 C 0.65298 0.12550 0.20030
 C292 C 0.63124 0.10260 0.16272
 C293 C 0.60592 0.08732 0.20261
 C294 C 0.60268 0.09539 0.28054
 C295 C 0.62447 0.11805 0.31847
 H296 H 0.68605 0.20851 0.45489
 H297 H 0.74265 0.18716 0.34565
 H298 H 0.63420 0.09692 0.10231
 H299 H 0.58342 0.08388 0.31288
 H300 H 0.70469 0.14932 0.27237
 H301 H 0.67213 0.13710 0.16752
 H302 H 0.64805 0.17141 0.37966
 H303 H 0.62151 0.12318 0.37957
 C304 C 0.47994 0.15027 -0.32454
 C305 C 0.46336 0.14435 -0.39341
 C306 C 0.46193 0.16534 -0.43452
 C307 C 0.47797 0.19309 -0.40998
 C308 C 0.49370 0.19865 -0.33837
 C309 C 0.49461 0.17745 -0.29616
 C310 C 0.48203 0.12801 -0.28331
 C311 C 0.47604 0.12289 -0.20038
 C312 C 0.47676 0.10090 -0.16273
 C313 C 0.48410 0.08413 -0.20709
 C314 C 0.49079 0.08974 -0.28955
 C315 C 0.48945 0.11131 -0.32756
 H316 H 0.44773 0.15958 -0.48473
 H317 H 0.50647 0.21954 -0.31683
 H318 H 0.47163 0.09703 -0.09896
 H319 H 0.49646 0.07708 -0.32508
 H320 H 0.50748 0.18240 -0.24280
 H321 H 0.47019 0.13552 -0.16533
 H322 H 0.45121 0.12335 -0.41486
 H323 H 0.49427 0.11504 -0.39156
 C324 C 0.66847 0.51519 -0.32504
 C325 C 0.68054 0.50016 -0.29635
 C326 C 0.70233 0.50050 -0.33862
 C327 C 0.71265 0.51601 -0.41060
 C328 C 0.70136 0.53236 -0.43562
 C329 C 0.67924 0.53151 -0.39444
 C330 C 0.64452 0.51382 -0.28344
 C331 C 0.64571 0.52006 -0.20059
 C332 C 0.62341 0.52003 -0.16258
 C333 C 0.59937 0.51313 -0.20649
 C334 C 0.59796 0.50620 -0.28886
 C335 C 0.62047 0.50684 -0.32723
 H336 H 0.71014 0.48751 -0.31672
 H337 H 0.70994 0.54642 -0.48616
 H338 H 0.62493 0.52534 -0.09889
 H339 H 0.57968 0.50086 -0.32404
 H340 H 0.67073 0.54392 -0.41616
 H341 H 0.66413 0.52558 -0.16589
 H342 H 0.67253 0.48749 -0.24261
 H343 H 0.61913 0.50184 -0.39115
 C344 C 0.84438 0.33284 -0.31975
 C345 C 0.83184 0.30574 -0.28987
 C346 C 0.81125 0.28388 -0.33408
 C347 C 0.80232 0.28840 -0.40954
 C348 C 0.81361 0.31585 -0.43624
 C349 C 0.83467 0.33759 -0.39314
 C350 C 0.86793 0.35589 -0.27602
 C351 C 0.87249 0.38296 -0.28041
 C352 C 0.89558 0.40479 -0.24408
 C353 C 0.91424 0.39999 -0.20061
 C354 C 0.90937 0.37300 -0.19349
 C355 C 0.88668 0.35124 -0.23164
 H356 H 0.80337 0.26327 -0.31045
 H357 H 0.80616 0.32073 -0.49067
 H358 H 0.89876 0.42544 -0.24951
 H359 H 0.92362 0.36886 -0.16064
 H360 H 0.84366 0.35806 -0.41869
 H361 H 0.85826 0.38742 -0.31189
 H362 H 0.83808 0.30124 -0.23250
 H363 H 0.88434 0.33090 -0.22803
 C364 C 0.51711 -0.15680 -0.31998
 C365 C 0.53729 -0.15159 -0.37821
 C366 C 0.53642 -0.17321 -0.42267
 C367 C 0.51549 -0.20065 -0.40921
 C368 C 0.49590 -0.20577 -0.34812
 C369 C 0.49641 -0.18400 -0.30511
 C370 C 0.51745 -0.13369 -0.27632
 C371 C 0.49570 -0.12840 -0.28580
 C372 C 0.49689 -0.10533 -0.24922
 C373 C 0.51956 -0.08759 -0.20114
 C374 C 0.54095 -0.09338 -0.18978
 C375 C 0.54006 -0.11608 -0.22804
 H376 H 0.55269 -0.16844 -0.46599
 H377 H 0.47940 -0.22651 -0.33601
 H378 H 0.48009 -0.10134 -0.25856
 H379 H 0.55866 -0.07995 -0.15314
 H380 H 0.48069 -0.18834 -0.26012
 H381 H 0.47817 -0.14172 -0.32327
 H382 H 0.55354 -0.13070 -0.39000
 H383 H 0.55703 -0.11989 -0.22025
 C384 C 0.32935 0.48733 -0.32251
 C385 C 0.30175 0.47215 -0.29737
 C386 C 0.28092 0.47287 -0.34188
 C387 C 0.28698 0.48903 -0.41273
 C388 C 0.31484 0.50517 -0.43520
 C389 C 0.33552 0.50385 -0.39214
 C390 C 0.35159 0.48584 -0.27716
 C391 C 0.37857 0.50849 -0.27590
 C392 C 0.39980 0.50651 -0.23839
 C393 C 0.39443 0.48219 -0.19893
 C394 C 0.36748 0.45990 -0.19692
 C395 C 0.34633 0.46154 -0.23659
 H396 H 0.25991 0.45992 -0.32178
 H397 H 0.32105 0.51964 -0.48482
 H398 H 0.42044 0.52411 -0.23971
 H399 H 0.36295 0.44086 -0.16717
 H400 H 0.35638 0.51579 -0.41428
 H401 H 0.38345 0.52787 -0.30386
 H402 H 0.29610 0.45966 -0.24310
 H403 H 0.32605 0.44346 -0.23718
 C404 C 1.15331 0.67349 -0.32634
 C405 C 1.16583 0.66751 -0.39123
 C406 C 1.18772 0.68859 -0.43373
 C407 C 1.19690 0.71629 -0.41531
 C408 C 1.18455 0.72243 -0.35064
 C409 C 1.16325 0.70132 -0.30616
 C410 C 1.13000 0.65083 -0.28061
 C411 C 1.10943 0.65480 -0.24465
 C412 C 1.08726 0.63326 -0.20391
 C413 C 1.08471 0.60712 -0.20054
 C414 C 1.10511 0.60301 -0.23559
 C415 C 1.12774 0.62470 -0.27383
 H416 H 1.19745 0.68314 -0.48121
 H417 H 1.19141 0.74362 -0.33450
 H418 H 1.07155 0.63674 -0.17772
 H419 H 1.10365 0.58300 -0.23274
 H420 H 1.15480 0.70695 -0.25553
 H421 H 1.10995 0.67429 -0.24959
 H422 H 1.15866 0.64652 -0.41020
 H423 H 1.14343 0.62085 -0.29790
 C424 C 0.84409 0.51785 -0.32120
 C425 C 0.81700 0.50232 -0.29297
 C426 C 0.79536 0.50202 -0.33599
 C427 C 0.80037 0.51736 -0.40827
 C428 C 0.82797 0.53428 -0.43263
 C429 C 0.84942 0.53408 -0.39069
 C430 C 0.86687 0.51693 -0.27947
 C431 C 0.88422 0.51029 -0.32327
 C432 C 0.90633 0.51013 -0.28504
 C433 C 0.91182 0.51721 -0.20277
 C434 C 0.89438 0.52373 -0.15877
 C435 C 0.87186 0.52328 -0.19667
 H436 H 0.77460 0.48865 -0.31453
 H437 H 0.83323 0.54822 -0.48341
 H438 H 0.91948 0.50506 -0.32030
 H439 H 0.89814 0.52914 -0.09514
 H440 H 0.87032 0.54686 -0.41207
 H441 H 0.88060 0.50519 -0.38714
 H442 H 0.81249 0.48971 -0.23915
 H443 H 0.85873 0.52853 -0.16197
 C444 C 0.47693 0.32365 -0.32355
 C445 C 0.49224 0.31183 -0.29530
 C446 C 0.49207 0.29010 -0.33774
 C447 C 0.47645 0.27961 -0.40946
 C448 C 0.45978 0.29060 -0.43385
 C449 C 0.46047 0.31266 -0.39251
 C450 C 0.47829 0.34768 -0.28217
 C451 C 0.47218 0.34662 -0.19926
 C452 C 0.47226 0.36902 -0.16147
 C453 C 0.47909 0.39303 -0.20567
 C454 C 0.48587 0.39430 -0.28811
 C455 C 0.48516 0.37169 -0.32626
 H456 H 0.50530 0.28254 -0.31629
 H457 H 0.44565 0.28186 -0.48412
 H458 H 0.46706 0.36761 -0.09772
 H459 H 0.49115 0.41256 -0.32351
 H460 H 0.44786 0.32098 -0.41389
 H461 H 0.46675 0.32823 -0.16434
 H462 H 0.50503 0.32001 -0.24188
 H463 H 0.49007 0.37294 -0.39023
 C464 C 0.67348 0.15406 -0.32958
 C465 C 0.68743 0.14891 -0.39152
 C466 C 0.70933 0.17075 -0.43192
 C467 C 0.71700 0.19815 -0.41312
 C468 C 0.70321 0.20323 -0.35017
 C469 C 0.68176 0.18134 -0.30826
 C470 C 0.65006 0.13092 -0.28822
 C471 C 0.62661 0.11270 -0.33250
 C472 C 0.60443 0.09058 -0.29379
 C473 C 0.60568 0.08595 -0.21062
 C474 C 0.62925 0.10414 -0.16641
 C475 C 0.65116 0.12669 -0.20478
 H476 H 0.72014 0.16624 -0.47837
 H477 H 0.70873 0.22413 -0.33438
 H478 H 0.58651 0.07679 -0.32919
 H479 H 0.63063 0.10103 -0.10214
 H480 H 0.67117 0.18565 -0.26053
 H481 H 0.62544 0.11574 -0.39695
 H482 H 0.68149 0.12795 -0.40807
 H483 H 0.66916 0.14055 -0.16982
 C484 C 1.16104 0.49671 -0.32115
 C485 C 1.16913 0.47744 -0.30036
 C486 C 1.19023 0.47650 -0.34265
 C487 C 1.20323 0.49421 -0.40879
 C488 C 1.19605 0.51437 -0.42687
 C489 C 1.17533 0.51565 -0.38353
 C490 C 1.13710 0.49629 -0.28034
 C491 C 1.11955 0.50285 -0.32390
 C492 C 1.09646 0.50137 -0.28689
 C493 C 1.09003 0.49276 -0.20605
 C494 C 1.10751 0.48638 -0.16206
 C495 C 1.13093 0.48839 -0.19851
 H496 H 1.19505 0.46062 -0.32691
 H497 H 1.20647 0.52921 -0.47482
 H498 H 1.08320 0.50625 -0.32227
 H499 H 1.10313 0.47997 -0.09926
 H500 H 1.17043 0.53144 -0.39943
 H501 H 1.12318 0.50844 -0.38736
 H502 H 1.15846 0.46227 -0.25348
 H503 H 1.14420 0.48375 -0.16238
 C504 C 0.51076 0.66708 -0.31716
 C505 C 0.48727 0.66992 -0.31839
 C506 C 0.48743 0.69151 -0.36146
 C507 C 0.51080 0.71001 -0.40569
 C508 C 0.53435 0.70734 -0.40367
 C509 C 0.53439 0.68615 -0.35938
 C510 C 0.51058 0.64389 -0.27390
 C511 C 0.48989 0.61669 -0.28948
 C512 C 0.49083 0.59465 -0.25300
 C513 C 0.51218 0.59951 -0.19920
 C514 C 0.53242 0.62676 -0.18184
 C515 C 0.53178 0.64876 -0.21955
 H516 H 0.46913 0.69336 -0.36226
 H517 H 0.55262 0.72157 -0.43704
 H518 H 0.47490 0.57382 -0.26706
 H519 H 0.54909 0.63104 -0.14058
 H520 H 0.55266 0.68424 -0.35962
 H521 H 0.47346 0.61248 -0.33165
 H522 H 0.46889 0.65548 -0.28587
 H523 H 0.54788 0.66961 -0.20649
 C524 C 0.33233 -0.15780 -0.31823
 C525 C 0.33597 -0.17544 -0.37121
 C526 C 0.31377 -0.19573 -0.41504
 C527 C 0.28751 -0.19880 -0.40663
 C528 C 0.28350 -0.18218 -0.35107
 C529 C 0.30572 -0.16172 -0.30780
 C530 C 0.35629 -0.13466 -0.27683
 C531 C 0.35374 -0.12643 -0.19815
 C532 C 0.37584 -0.10361 -0.16150
 C533 C 0.40101 -0.08871 -0.20238
 C534 C 0.40385 -0.09726 -0.28004
 C535 C 0.38169 -0.11986 -0.31708
 H536 H 0.31714 -0.20867 -0.45683
 H537 H 0.26336 -0.18429 -0.34384
 H538 H 0.37319 -0.09760 -0.10121
 H539 H 0.42302 -0.08608 -0.31303
 H540 H 0.30217 -0.14835 -0.26842
 H541 H 0.33466 -0.13763 -0.16479
 H542 H 0.35602 -0.17342 -0.37936
 H543 H 0.38429 -0.12526 -0.37821
 C544 C 0.52092 -0.15438 0.32423
 C545 C 0.54340 -0.15893 0.32014
 C546 C 0.54295 -0.18075 0.36271
 C547 C 0.52021 -0.19814 0.41090
 C548 C 0.49744 -0.19419 0.41305
 C549 C 0.49776 -0.17260 0.37012
 C550 C 0.52175 -0.13039 0.28288
 C551 C 0.51008 -0.11607 0.32028
 C552 C 0.51050 -0.09369 0.28186
 C553 C 0.52287 -0.08486 0.20550
 C554 C 0.53479 -0.09890 0.16810
 C555 C 0.53416 -0.12151 0.20632
 H556 H 0.56068 -0.18357 0.36021
 H557 H 0.47949 -0.20772 0.44874
 H558 H 0.50133 -0.08313 0.31243
 H559 H 0.54437 -0.09257 0.10904
 H560 H 0.47982 -0.17017 0.37298
 H561 H 0.50089 -0.12192 0.37994
 H562 H 0.56164 -0.14519 0.28594
 H563 H 0.54306 -0.13226 0.17541
 C564 C 0.32790 0.48601 0.31683
 C565 C 0.30881 0.46368 0.36366
 C566 C 0.28858 0.46562 0.40781
 C567 C 0.28697 0.48981 0.40495
 C568 C 0.30525 0.51167 0.35523
 C569 C 0.32583 0.50993 0.31241
 C570 C 0.35061 0.48477 0.27549
 C571 C 0.37794 0.50543 0.28911
 C572 C 0.39960 0.50375 0.25317
 C573 C 0.39427 0.48166 0.20169
 C574 C 0.36690 0.46127 0.18674
 C575 C 0.34525 0.46265 0.22413
 H576 H 0.27448 0.44849 0.44537
 H577 H 0.30420 0.53042 0.35211
 H578 H 0.42052 0.51977 0.26546
 H579 H 0.36228 0.44401 0.14739
 H580 H 0.34026 0.52731 0.27620
 H581 H 0.38252 0.52256 0.32902
 H582 H 0.31012 0.44508 0.36806
 H583 H 0.32430 0.44653 0.21275
 C584 C 1.15410 0.67526 0.31770
 C585 C 1.18052 0.67849 0.31274
 C586 C 1.20251 0.69990 0.35428
 C587 C 1.19823 0.71794 0.40304
 C588 C 1.17194 0.71506 0.40695
 C589 C 1.15006 0.69398 0.36408
 C590 C 1.13059 0.65185 0.27693
 C591 C 1.11318 0.65624 0.22571
 C592 C 1.09074 0.63396 0.18822
 C593 C 1.08501 0.60691 0.20288
 C594 C 1.10238 0.60255 0.25438
 C595 C 1.12514 0.62485 0.29044
 H596 H 1.22267 0.70186 0.35068
 H597 H 1.16834 0.72888 0.44417
 H598 H 1.07761 0.63784 0.14888
 H599 H 1.09845 0.58190 0.26647
 H600 H 1.12982 0.69177 0.36899
 H601 H 1.11709 0.67692 0.21435
 H602 H 1.18407 0.66435 0.27693
 H603 H 1.13821 0.62101 0.33021
 C604 C 0.48417 0.15325 0.32030
 C605 C 0.46121 0.15676 0.31039
 C606 C 0.45925 0.17720 0.35335
 C607 C 0.47995 0.19419 0.40805
 C608 C 0.50331 0.19141 0.41621
 C609 C 0.50543 0.17116 0.37270
 C610 C 0.48545 0.13038 0.27850
 C611 C 0.49661 0.11597 0.31817
 C612 C 0.49692 0.09382 0.28038
 C613 C 0.48576 0.08535 0.20252
 C614 C 0.47480 0.09978 0.16236
 C615 C 0.47478 0.12216 0.19978
 H616 H 0.44109 0.17910 0.34628
 H617 H 0.51969 0.20466 0.45727
 H618 H 0.50539 0.08297 0.31286
 H619 H 0.46628 0.09380 0.10196
 H620 H 0.52366 0.16945 0.38042
 H621 H 0.50454 0.12136 0.37933
 H622 H 0.44431 0.14316 0.27143
 H623 H 0.46645 0.13306 0.16690
 C624 C 0.66741 0.51075 0.31970
 C625 C 0.66350 0.48929 0.37221
 C626 C 0.68557 0.49082 0.41567
 C627 C 0.71198 0.51379 0.40735
 C628 C 0.71624 0.53465 0.35243
 C629 C 0.69414 0.53328 0.30951
 C630 C 0.64362 0.51022 0.27826
 C631 C 0.64630 0.52100 0.19957
 C632 C 0.62430 0.52178 0.16261
 C633 C 0.59908 0.51155 0.20319
 C634 C 0.59614 0.50026 0.28098
 C635 C 0.61820 0.49975 0.31832
 H636 H 0.68201 0.47433 0.45693
 H637 H 0.73651 0.55253 0.34526
 H638 H 0.62703 0.53038 0.10225
 H639 H 0.57693 0.49232 0.31377
 H640 H 0.69789 0.55033 0.27048
 H641 H 0.66541 0.52880 0.16639
 H642 H 0.64333 0.47137 0.38015
 H643 H 0.61551 0.49177 0.37946
 C644 C 0.85214 0.32782 0.32315
 C645 C 0.82516 0.31972 0.29946
 C646 C 0.80287 0.29906 0.34204
 C647 C 0.80722 0.28592 0.40830
 C648 C 0.83427 0.29303 0.42891
 C649 C 0.85657 0.31420 0.38766
 C650 C 0.87555 0.35136 0.28305
 C651 C 0.89307 0.37495 0.32809
 C652 C 0.91455 0.39785 0.28990
 C653 C 0.91922 0.39724 0.20645
 C654 C 0.90194 0.37344 0.16164
 C655 C 0.88000 0.35078 0.19952
 H656 H 0.78223 0.29390 0.32481
 H657 H 0.83812 0.28279 0.47863
 H658 H 0.92767 0.41593 0.32574
 H659 H 0.90510 0.37256 0.09716
 H660 H 0.87730 0.32010 0.40629
 H661 H 0.88978 0.37579 0.39253
 H662 H 0.82140 0.33008 0.24988
 H663 H 0.86660 0.33274 0.16390
   
