data_POSCAR
  _audit_creation_date              2014-09-24
  _audit_creation_method            'ToBaCCo'
  _symmetry_space_group_name_H-M    'P1'
  _symmetry_Int_Tables_number       1
  _symmetry_cell_setting            triclinic
  loop_
  _symmetry_equiv_pos_as_xyz
 x,y,z
_cell_length_a 28.7623
_cell_length_b 29.4789
_cell_length_c 28.2547
_cell_angle_alpha 88.787500
_cell_angle_beta 90.634100
_cell_angle_gamma 90.188000
loop_
  _atom_site_label
  _atom_site_type_symbol
  _atom_site_fract_x
  _atom_site_fract_y
  _atom_site_fract_z
C1 C 0.21579 0.23115 0.27242
 C2 C 0.21251 0.25976 0.23258
 C3 C 0.24050 0.25309 0.19379
 C4 C 0.27355 0.21797 0.19533
 C5 C 0.27705 0.18977 0.23518
 C6 C 0.24743 0.19597 0.27367
 C7 C 0.18489 0.22360 0.30842
 N8 N 0.19661 0.18456 0.33153
 C9 C 0.23485 0.16736 0.31060
 C10 C 0.30718 0.15532 0.22470
 N11 N 0.32238 0.16202 0.17980
 C12 C 0.30169 0.19989 0.16133
 C13 C 0.22313 0.28051 0.15741
 N14 N 0.18572 0.30309 0.17385
 C15 C 0.17921 0.29078 0.21960
 H16 H 0.15274 0.24187 0.31338
 H17 H 0.24880 0.13379 0.31773
 H18 H 0.31539 0.12625 0.24727
 H19 H 0.30515 0.21207 0.12510
 H20 H 0.23486 0.28173 0.12114
 H21 H 0.15023 0.30138 0.24084
 C22 C -0.17216 0.78469 0.25195
 C23 C -0.17154 0.75195 0.21688
 C24 C -0.20452 0.75278 0.18077
 C25 C -0.23934 0.78604 0.18000
 C26 C -0.24001 0.81839 0.21484
 C27 C -0.20610 0.81782 0.25088
 C28 C -0.14028 0.79581 0.28651
 N29 N -0.15413 0.83496 0.30623
 C30 C -0.19439 0.84859 0.28495
 C31 C -0.27385 0.84937 0.20236
 N32 N -0.29406 0.83630 0.16124
 C33 C -0.27310 0.79778 0.14703
 C34 C -0.19145 0.72091 0.14853
 N35 N -0.15175 0.70096 0.16467
 C36 C -0.13945 0.71947 0.20641
 H37 H -0.10793 0.77843 0.29435
 H38 H -0.21206 0.88018 0.29163
 H39 H -0.28182 0.88027 0.22064
 H40 H -0.28011 0.78095 0.11402
 H41 H -0.20838 0.71406 0.11502
 H42 H -0.10807 0.71146 0.22636
 C43 C -0.19398 0.22444 -0.26818
 C44 C -0.18860 0.25029 -0.22746
 C45 C -0.21838 0.24395 -0.18967
 C46 C -0.25434 0.21170 -0.19236
 C47 C -0.25979 0.18627 -0.23276
 C48 C -0.22925 0.19255 -0.27084
 C49 C -0.16499 0.21785 -0.30585
 N50 N -0.18178 0.18288 -0.33146
 C51 C -0.22097 0.16711 -0.31018
 C52 C -0.29393 0.15447 -0.22366
 N53 N -0.30952 0.16019 -0.17899
 C54 C -0.28525 0.19477 -0.15938
 C55 C -0.20145 0.26988 -0.15319
 N56 N -0.16242 0.29154 -0.16822
 C57 C -0.15428 0.27980 -0.21344
 H58 H -0.13150 0.23395 -0.31120
 H59 H -0.23920 0.13632 -0.31957
 H60 H -0.30500 0.12781 -0.24706
 H61 H -0.28853 0.20553 -0.12316
 H62 H -0.21541 0.27146 -0.11786
 H63 H -0.12444 0.29059 -0.23387
 C64 C 0.17850 0.76890 -0.26893
 C65 C 0.18284 0.73256 -0.23664
 C66 C 0.21762 0.73252 -0.20211
 C67 C 0.24950 0.76909 -0.20036
 C68 C 0.24520 0.80461 -0.23301
 C69 C 0.20947 0.80467 -0.26694
 C70 C 0.14371 0.78104 -0.30070
 N71 N 0.15325 0.82331 -0.31777
 C72 C 0.19321 0.83806 -0.29727
 C73 C 0.27661 0.83757 -0.22090
 N74 N 0.30056 0.82331 -0.18188
 C75 C 0.28421 0.78157 -0.16858
 C76 C 0.20813 0.69633 -0.17170
 N77 N 0.16894 0.67508 -0.18727
 C78 C 0.15352 0.69694 -0.22695
 H79 H 0.11239 0.76195 -0.30833
 H80 H 0.20776 0.87178 -0.30189
 H81 H 0.28038 0.87059 -0.23801
 H82 H 0.29506 0.76274 -0.13708
 H83 H 0.22625 0.68810 -0.13887
 H84 H 0.12127 0.68972 -0.24541
 C85 C 0.22132 1.20586 0.73758
 C86 C 0.26042 1.20925 0.76709
 C87 C 0.26368 1.24360 0.79960
 C88 C 0.22812 1.27591 0.80187
 C89 C 0.18921 1.27252 0.77260
 C90 C 0.18546 1.23678 0.74056
 C91 C 0.20651 1.17165 0.70883
 N92 N 0.16241 1.18063 0.69439
 C93 C 0.14898 1.22042 0.71342
 C94 C 0.15774 1.30417 0.78735
 N95 N 0.17673 1.32682 0.82423
 C96 C 0.21951 1.30950 0.83374
 C97 C 0.29934 1.23217 0.83068
 N98 N 0.31735 1.19197 0.81746
 C99 C 0.29411 1.17801 0.77849
 H100 H 0.22552 1.14111 0.70097
 H101 H 0.11472 1.23524 0.70966
 H102 H 0.12248 1.30851 0.77421
 H103 H 0.24145 1.31856 0.86348
 H104 H 0.30781 1.24899 0.86337
 H105 H 0.29769 1.14483 0.76321
 C106 C 0.78153 0.81549 0.76675
 C107 C 0.74360 0.80921 0.79674
 C108 C 0.74380 0.77479 0.83075
 C109 C 0.78201 0.74538 0.83445
 C110 C 0.81950 0.75122 0.80434
 C111 C 0.81943 0.78686 0.77035
 C112 C 0.79223 0.84964 0.73482
 N113 N 0.83571 0.84257 0.71866
 C114 C 0.85281 0.80422 0.74001
 C115 C 0.85265 0.71995 0.81832
 N116 N 0.83619 0.69551 0.85588
 C117 C 0.79313 0.71087 0.86618
 C118 C 0.70565 0.78138 0.85906
 N119 N 0.68248 0.81854 0.84240
 C120 C 0.70557 0.83573 0.80449
 H121 H 0.77073 0.87862 0.72542
 H122 H 0.88755 0.79109 0.73555
 H123 H 0.88681 0.71606 0.80321
 H124 H 0.77193 0.69868 0.89522
 H125 H 0.69736 0.76279 0.89134
 H126 H 0.69759 0.86751 0.78635
 C127 C 0.21735 0.81699 1.26149
 C128 C 0.25454 0.81137 1.23077
 C129 C 0.25717 0.77312 1.20366
 C130 C 0.22293 0.73962 1.20757
 C131 C 0.18565 0.74501 1.23771
 C132 C 0.18265 0.78445 1.26487
 C133 C 0.20417 0.85338 1.28748
 N134 N 0.16229 0.84410 1.30702
 C135 C 0.14851 0.80213 1.29329
 C136 C 0.15484 0.71020 1.22846
 N137 N 0.17301 0.68432 1.19402
 C138 C 0.21427 0.70227 1.18085
 C139 C 0.29137 0.78062 1.17070
 N140 N 0.30935 0.82250 1.17746
 C141 C 0.28735 0.84143 1.21429
 H142 H 0.22321 0.88490 1.29051
 H143 H 0.11575 0.78620 1.30240
 H144 H 0.12041 0.70598 1.24304
 H145 H 0.23484 0.69076 1.15159
 H146 H 0.29964 0.75914 1.14136
 H147 H 0.29153 0.87618 1.22521
 C148 C 0.75897 1.18613 1.24747
 C149 C 0.72577 1.18846 1.21068
 C150 C 0.72943 1.22141 1.17526
 C151 C 0.76593 1.25276 1.17630
 C152 C 0.79900 1.25049 1.21228
 C153 C 0.79549 1.21688 1.24823
 C154 C 0.76719 1.15424 1.28302
 N155 N 0.80767 1.16496 1.30537
 C156 C 0.82522 1.20314 1.28438
 C157 C 0.83304 1.28174 1.20080
 N158 N 0.82084 1.30293 1.15937
 C159 C 0.78008 1.28527 1.14394
 C160 C 0.69736 1.21140 1.14050
 N161 N 0.67439 1.17327 1.15408
 C162 C 0.69108 1.15919 1.19701
 H163 H 0.74659 1.12414 1.29020
 H164 H 0.85850 1.21830 1.29309
 H165 H 0.86516 1.28752 1.22012
 H166 H 0.76314 1.29400 1.11060
 H167 H 0.69342 1.22857 1.10646
 H168 H 0.68126 1.12787 1.21502
 O169 O 0.53936 0.95941 0.90500
 O170 O 0.45131 0.94557 1.07329
 O171 O 0.60141 0.97481 1.03114
 O172 O 0.39564 0.97289 0.93176
 O173 O 0.53925 0.93823 1.05956
 O174 O 0.45824 0.94711 0.90341
 O175 O 0.40074 0.93904 1.01479
 O176 O 0.55467 0.93453 0.97428
 C177 C 0.55627 0.92906 0.93125
 C178 C 0.41624 0.92692 1.05477
 C179 C 0.58373 0.94382 1.06001
 C180 C 0.41577 0.94346 0.90902
 O181 O 0.44331 1.03902 0.90221
 O182 O 0.54570 1.02572 1.07539
 O183 O 0.58637 1.01469 0.94231
 O184 O 0.39938 1.01975 1.04718
 O185 O 0.46483 1.03560 1.07997
 O186 O 0.52701 1.05018 0.91455
 O187 O 0.40339 1.05354 0.96546
 O188 O 0.55755 1.05358 1.00891
 Co189 Co 0.49135 0.99907 0.91303
 Co190 Co 0.49840 0.98651 1.06387
 Co191 Co 0.55321 0.99356 0.99358
 Co192 Co 0.40815 0.99614 0.98956
 O193 O 0.48489 0.99537 0.98761
 C194 C 0.41507 1.06335 0.92410
 C195 C 0.56058 1.05802 1.05171
 C196 C 0.57031 1.04625 0.91662
 C197 C 0.42253 1.04186 1.07581
 O198 O 0.05409 0.45485 0.09564
 O199 O 0.02340 0.53990 -0.09223
 O200 O 0.06419 0.42568 -0.02312
 O201 O 0.08095 0.55894 0.04258
 O202 O 0.03871 0.45789 -0.08628
 O203 O 0.04401 0.53874 0.10433
 O204 O 0.07319 0.54877 -0.03863
 O205 O 0.02880 0.40008 0.05142
 C206 C 0.05619 0.41461 0.08256
 C207 C 0.06277 0.55330 -0.08046
 C208 C 0.06869 0.43386 -0.06582
 C209 C 0.07694 0.55929 0.08589
 O210 O -0.04314 0.53385 0.09305
 O211 O -0.04971 0.44289 -0.05989
 O212 O -0.05408 0.42486 0.02282
 O213 O -0.01678 0.58365 -0.03643
 O214 O -0.06045 0.52660 -0.05597
 O215 O -0.03693 0.44696 0.09298
 O216 O -0.00925 0.58737 0.04892
 O217 O -0.01134 0.38170 -0.03523
 Co218 Co 0.00478 0.49331 0.08807
 Co219 Co -0.00982 0.49211 -0.06581
 Co220 Co 0.00534 0.42983 -0.00090
 Co221 Co 0.03029 0.56416 0.00390
 O222 O 0.00937 0.49697 0.01002
 C223 C -0.03993 0.57445 0.07850
 C224 C -0.04170 0.40049 -0.06479
 C225 C -0.06194 0.42436 0.06595
 C226 C -0.05480 0.56836 -0.05213
 O227 O 1.09179 0.04738 0.45526
 O228 O 0.90401 0.04326 0.53572
 O229 O 0.95134 0.07226 0.43628
 O230 O 1.03792 0.03260 0.59879
 O231 O 0.89883 0.02465 0.45080
 O232 O 1.07884 0.05959 0.54081
 O233 O 0.96585 0.06748 0.56915
 O234 O 1.03150 0.07994 0.42627
 C235 C 1.07409 0.07842 0.43132
 C236 C 0.92409 0.07257 0.55989
 C237 C 0.91025 0.06190 0.43304
 C238 C 1.06732 0.06048 0.58319
 O239 O 1.07919 -0.02957 0.55304
 O240 O 0.93469 -0.05635 0.47026
 O241 O 1.04041 -0.00975 0.40464
 O242 O 0.95309 -0.00534 0.61811
 O243 O 0.92899 -0.04345 0.55603
 O244 O 1.08352 -0.03768 0.46403
 O245 O 1.01013 -0.04855 0.57345
 O246 O 0.95552 -0.01712 0.40796
 Co247 Co 1.07505 0.01011 0.50345
 Co248 Co 0.92440 -0.00560 0.50288
 Co249 Co 0.99443 0.02974 0.42496
 Co250 Co 0.98735 0.00988 0.56716
 O251 O 0.99881 0.01291 0.49715
 C252 C 1.05248 -0.05623 0.57396
 C253 C 0.93954 -0.05307 0.42655
 C254 C 1.07058 -0.03770 0.42123
 C255 C 0.92457 -0.03555 0.60013
 C256 C 1.09233 0.14902 0.37069
 C257 C 1.13097 0.17887 0.39327
 C258 C 1.16571 0.15937 0.35838
 C259 C 1.12787 0.13046 0.33511
 C260 C 1.17923 0.12090 0.39291
 C261 C 1.14358 0.13945 0.42846
 C262 C 1.10540 0.11023 0.40548
 C263 C 1.14065 0.09144 0.37024
 H264 H 1.05634 0.16012 0.36201
 H265 H 1.12792 0.21520 0.40229
 H266 H 1.12241 0.12724 0.29637
 H267 H 1.21524 0.10985 0.40158
 H268 H 1.14924 0.14278 0.46717
 H269 H 1.14401 0.05517 0.36102
 C270 C 0.87015 -0.07503 0.37176
 C271 C 0.88883 -0.09181 0.32419
 C272 C 0.87132 -0.13938 0.33763
 C273 C 0.85203 -0.12317 0.38455
 C274 C 0.91813 -0.15209 0.36077
 C275 C 0.93611 -0.10357 0.34817
 C276 C 0.91720 -0.08698 0.39544
 C277 C 0.89941 -0.13484 0.40862
 H278 H 0.85073 -0.04302 0.37673
 H279 H 0.88386 -0.07471 0.28913
 H280 H 0.81711 -0.13161 0.39865
 H281 H 0.93769 -0.18404 0.35607
 H282 H 0.97076 -0.09496 0.33352
 H283 H 0.90426 -0.15203 0.44365
 C284 C 0.91547 0.14013 0.62186
 C285 C 0.88069 0.17672 0.60302
 C286 C 0.84470 0.15790 0.63802
 C287 C 0.87886 0.12227 0.65745
 C288 C 0.82503 0.12524 0.60139
 C289 C 0.86189 0.14292 0.56557
 C290 C 0.89634 0.10703 0.58492
 C291 C 0.85982 0.08913 0.62034
 H292 H 0.95287 0.14600 0.62985
 H293 H 0.88856 0.21320 0.59655
 H294 H 0.88508 0.11416 0.69554
 H295 H 0.78761 0.11944 0.59354
 H296 H 0.85557 0.15100 0.52749
 H297 H 0.85158 0.05279 0.62729
 C298 C 1.10338 -0.13156 0.58308
 C299 C 1.14402 -0.11781 0.61615
 C300 C 1.12444 -0.14962 0.65447
 C301 C 1.08431 -0.16449 0.62209
 C302 C 1.09514 -0.11176 0.67514
 C303 C 1.11432 -0.07942 0.63634
 C304 C 1.07389 -0.09316 0.60324
 C305 C 1.05429 -0.12532 0.64180
 H306 H 1.10623 -0.13926 0.54493
 H307 H 1.18114 -0.11510 0.60608
 H308 H 1.07270 -0.19997 0.61672
 H309 H 1.09259 -0.10423 0.71335
 H310 H 1.12641 -0.04413 0.64214
 H311 H 1.01713 -0.12790 0.65171
 C312 C 0.41822 1.10476 1.14514
 C313 C 0.39086 1.14612 1.12430
 C314 C 0.34931 1.13213 1.15485
 C315 C 0.37605 1.09168 1.17660
 C316 C 0.32889 1.10293 1.11555
 C317 C 0.37102 1.11604 1.08439
 C318 C 0.39798 1.07521 1.10559
 C319 C 0.35620 1.06185 1.13656
 H320 H 0.45520 1.10509 1.15683
 H321 H 0.40445 1.18121 1.11976
 H322 H 0.37815 1.08177 1.21467
 H323 H 0.29190 1.10276 1.10394
 H324 H 0.36939 1.12561 1.04619
 H325 H 0.34237 1.02685 1.14128
 C326 C 0.40384 0.86532 0.85895
 C327 C 0.36451 0.83709 0.88329
 C328 C 0.33168 0.85062 0.84233
 C329 C 0.37022 0.87774 0.81731
 C330 C 0.31525 0.89274 0.86811
 C331 C 0.34882 0.88016 0.90957
 C332 C 0.38755 0.90781 0.88486
 C333 C 0.35428 0.92043 0.84366
 H334 H 0.44057 0.85458 0.85541
 H335 H 0.36825 0.80256 0.89927
 H336 H 0.37846 0.87621 0.77909
 H337 H 0.27849 0.90340 0.87157
 H338 H 0.34042 0.88157 0.94778
 H339 H 0.35040 0.95490 0.82753
 C340 C 0.64418 0.92868 1.13011
 C341 C 0.63136 0.88406 1.15706
 C342 C 0.67396 0.86175 1.13539
 C343 C 0.68750 0.90573 1.10922
 C344 C 0.64538 0.84535 1.09292
 C345 C 0.60197 0.86859 1.11385
 C346 C 0.61521 0.91286 1.08740
 C347 C 0.65811 0.89013 1.06618
 H348 H 0.64315 0.96325 1.14491
 H349 H 0.62110 0.88103 1.19475
 H350 H 0.72310 0.92030 1.10785
 H351 H 0.64610 0.81088 1.07789
 H352 H 0.56643 0.85387 1.11536
 H353 H 0.66871 0.89317 1.02858
 C354 C 0.64002 1.06208 0.85684
 C355 C 0.62526 1.09955 0.82043
 C356 C 0.65930 1.13209 0.84459
 C357 C 0.67479 1.09529 0.88036
 C358 C 0.62150 1.14873 0.87782
 C359 C 0.58676 1.11531 0.85442
 C360 C 0.60189 1.07811 0.89042
 C361 C 0.63620 1.11104 0.91416
 H362 H 0.64733 1.02627 0.84830
 H363 H 0.62079 1.09505 0.78174
 H364 H 0.71137 1.08763 0.89048
 H365 H 0.61450 1.18473 0.88596
 H366 H 0.55026 1.12318 0.84413
 H367 H 0.64013 1.11554 0.95288
 C368 C 0.10125 0.33448 0.09146
 C369 C 0.15430 0.34449 0.09435
 C370 C 0.15330 0.33186 0.14717
 C371 C 0.10116 0.32101 0.14478
 C372 C 0.14373 0.38096 0.16063
 C373 C 0.14378 0.39435 0.10729
 C374 C 0.09133 0.38383 0.10485
 C375 C 0.09098 0.37072 0.15775
 H376 H 0.08321 0.31584 0.06285
 H377 H 0.18075 0.33341 0.06877
 H378 H 0.08446 0.29034 0.16057
 H379 H 0.16191 0.39940 0.18929
 H380 H 0.16063 0.42499 0.09158
 H381 H 0.06453 0.38173 0.18338
 C382 C -0.12649 0.38139 -0.09985
 C383 C -0.12138 0.36991 -0.15288
 C384 C -0.13172 0.32015 -0.14016
 C385 C -0.13768 0.33097 -0.08777
 C386 C -0.07992 0.30990 -0.13272
 C387 C -0.06889 0.36032 -0.14475
 C388 C -0.07438 0.37147 -0.09220
 C389 C -0.08513 0.32144 -0.07978
 H390 H -0.14515 0.41116 -0.08604
 H391 H -0.13693 0.38916 -0.18327
 H392 H -0.16614 0.31873 -0.06453
 H393 H -0.06151 0.28004 -0.14663
 H394 H -0.04038 0.37274 -0.16782
 H395 H -0.06986 0.30186 -0.04946
 C396 C 0.13928 0.60264 -0.09527
 C397 C 0.15948 0.59386 -0.14493
 C398 C 0.14222 0.64087 -0.16102
 C399 C 0.12275 0.65025 -0.11203
 C400 C 0.09548 0.62118 -0.17783
 C401 C 0.11197 0.57337 -0.16082
 C402 C 0.09223 0.58268 -0.11164
 C403 C 0.07565 0.63002 -0.12818
 H404 H 0.15705 0.59468 -0.06102
 H405 H 0.19436 0.57978 -0.15217
 H406 H 0.12765 0.68220 -0.09247
 H407 H 0.07725 0.62870 -0.21189
 H408 H 0.10711 0.54141 -0.18040
 H409 H 0.04114 0.64484 -0.12088
 C410 C -0.12433 0.60536 0.10201
 C411 C -0.12120 0.61792 0.15502
 C412 C -0.12379 0.66804 0.14008
 C413 C -0.12773 0.65639 0.08760
 C414 C -0.07071 0.67171 0.13738
 C415 C -0.06758 0.62087 0.15178
 C416 C -0.07103 0.60868 0.09920
 C417 C -0.07389 0.65916 0.08453
 H418 H -0.14578 0.57763 0.08707
 H419 H -0.14115 0.60182 0.18431
 H420 H -0.15279 0.67144 0.06162
 H421 H -0.04925 0.69946 0.15226
 H422 H -0.04239 0.60593 0.17772
 H423 H -0.05383 0.67571 0.05557
 C424 C 1.07794 0.10470 0.66623
 C425 C 1.13017 0.10112 0.68007
 C426 C 1.13591 0.15162 0.66720
 C427 C 1.08421 0.15614 0.65430
 C428 C 1.14858 0.14091 0.61618
 C429 C 1.14229 0.08983 0.62836
 C430 C 1.09047 0.09364 0.61491
 C431 C 1.09634 0.14449 0.60251
 H432 H 1.04867 0.08934 0.68629
 H433 H 1.14451 0.08398 0.71238
 H434 H 1.06061 0.18366 0.66514
 H435 H 1.17786 0.15636 0.59621
 H436 H 1.16576 0.06219 0.61748
 H437 H 1.08212 0.16175 0.57021
 C438 C 0.88840 -0.11806 0.61908
 C439 C 0.90749 -0.13475 0.66801
 C440 C 0.85903 -0.12773 0.68853
 C441 C 0.83935 -0.11198 0.64033
 C442 C 0.87073 -0.07888 0.70202
 C443 C 0.91969 -0.08509 0.68063
 C444 C 0.90032 -0.06882 0.63212
 C445 C 0.85172 -0.06238 0.65305
 H446 H 0.89581 -0.13373 0.58459
 H447 H 0.93031 -0.16462 0.67421
 H448 H 0.80612 -0.12371 0.62436
 H449 H 0.86318 -0.06352 0.73662
 H450 H 0.95290 -0.07359 0.69686
 H451 H 0.82910 -0.03241 0.64658
 C452 C 1.13899 -0.09450 0.40305
 C453 C 1.11915 -0.13969 0.38425
 C454 C 1.13786 -0.12667 0.33529
 C455 C 1.15829 -0.08207 0.35360
 C456 C 1.09211 -0.10343 0.32089
 C457 C 1.07278 -0.11544 0.37081
 C458 C 1.09306 -0.07063 0.38926
 C459 C 1.11206 -0.05817 0.34000
 H460 H 1.15819 -0.09065 0.43705
 H461 H 1.12256 -0.17355 0.40186
 H462 H 1.19344 -0.06773 0.34730
 H463 H 1.07340 -0.10772 0.28670
 H464 H 1.03751 -0.12882 0.37858
 H465 H 1.10882 -0.02439 0.32217
 C466 C 0.83158 0.11140 0.41118
 C467 C 0.84854 0.15618 0.38670
 C468 C 0.83085 0.13847 0.33918
 C469 C 0.81286 0.09446 0.36271
 C470 C 0.87785 0.11681 0.32888
 C471 C 0.89611 0.13390 0.37699
 C472 C 0.87889 0.08953 0.40108
 C473 C 0.86069 0.07233 0.35319
 H474 H 0.81300 0.10884 0.44537
 H475 H 0.84323 0.19100 0.39976
 H476 H 0.77846 0.07831 0.35667
 H477 H 0.89644 0.11944 0.29470
 H478 H 0.93051 0.15011 0.38303
 H479 H 0.86598 0.03764 0.33973
 C480 C 0.14081 0.42565 -0.12783
 C481 C 0.17322 0.38674 -0.10928
 C482 C 0.15263 0.35602 -0.14742
 C483 C 0.12135 0.39415 -0.16681
 C484 C 0.11485 0.33850 -0.11401
 C485 C 0.13446 0.36984 -0.07520
 C486 C 0.10274 0.40828 -0.09412
 C487 C 0.08306 0.37711 -0.13274
 H488 H 0.15103 0.46176 -0.13290
 H489 H 0.21066 0.39032 -0.10014
 H490 H 0.11630 0.40340 -0.20480
 H491 H 0.10458 0.30239 -0.10906
 H492 H 0.13959 0.36033 -0.03728
 H493 H 0.04567 0.37334 -0.14206
 C494 C -0.13888 0.40656 0.11688
 C495 C -0.16768 0.36809 0.09362
 C496 C -0.15058 0.33549 0.13313
 C497 C -0.12276 0.37320 0.15685
 C498 C -0.10877 0.32141 0.10387
 C499 C -0.12485 0.35485 0.06382
 C500 C -0.09675 0.39288 0.08739
 C501 C -0.08038 0.35973 0.12711
 H502 H -0.15091 0.44190 0.12168
 H503 H -0.20404 0.37106 0.08041
 H504 H -0.12225 0.38004 0.19533
 H505 H -0.09693 0.28599 0.09928
 H506 H -0.12535 0.34789 0.02535
 H507 H -0.04407 0.35656 0.14054
 C508 C -0.07305 0.62849 -0.11885
 C509 C -0.12092 0.61945 -0.14233
 C510 C -0.13908 0.66237 -0.11934
 C511 C -0.09175 0.67208 -0.09640
 C512 C -0.15531 0.63531 -0.07549
 C513 C -0.13607 0.59146 -0.09790
 C514 C -0.08842 0.60091 -0.07470
 C515 C -0.10704 0.64418 -0.05210
 H516 H -0.03916 0.62512 -0.13679
 H517 H -0.12694 0.61007 -0.17975
 H518 H -0.07398 0.70556 -0.09631
 H519 H -0.18933 0.63837 -0.05772
 H520 H -0.15390 0.55802 -0.09810
 H521 H -0.10117 0.65387 -0.01485
 C522 C 0.14744 0.61869 0.09866
 C523 C 0.12485 0.66127 0.11971
 C524 C 0.14856 0.64985 0.16723
 C525 C 0.17189 0.60795 0.14684
 C526 C 0.10678 0.62192 0.18410
 C527 C 0.08261 0.63260 0.13593
 C528 C 0.10547 0.59032 0.11508
 C529 C 0.12933 0.57916 0.16290
 H530 H 0.16383 0.61688 0.06337
 H531 H 0.12330 0.69560 0.10286
 H532 H 0.20896 0.59857 0.15212
 H533 H 0.09049 0.62387 0.21941
 H534 H 0.04557 0.64232 0.13088
 H535 H 0.13097 0.54491 0.17993
 C536 C 0.36223 1.09049 0.85330
 C537 C 0.32280 1.12041 0.87198
 C538 C 0.34535 1.16141 0.84705
 C539 C 0.38435 1.13204 0.82783
 C540 C 0.37391 1.17268 0.89138
 C541 C 0.35194 1.13070 0.91688
 C542 C 0.39114 1.10091 0.89791
 C543 C 0.41363 1.14221 0.87287
 H544 H 0.35762 1.05633 0.83805
 H545 H 0.28512 1.11218 0.87095
 H546 H 0.39705 1.13328 0.79087
 H547 H 0.37828 1.20696 0.90634
 H548 H 0.33894 1.12965 0.95373
 H549 H 0.45130 1.15049 0.87376
 C550 C 0.40583 0.87855 1.13432
 C551 C 0.35889 0.89419 1.15432
 C552 C 0.33892 0.84714 1.14428
 C553 C 0.38533 0.83076 1.12494
 C554 C 0.32221 0.86232 1.09478
 C555 C 0.34275 0.90984 1.10434
 C556 C 0.38954 0.89427 1.08451
 C557 C 0.36947 0.84698 1.07449
 H558 H 0.44059 0.88528 1.15019
 H559 H 0.35490 0.91376 1.18713
 H560 H 0.40211 0.79788 1.13434
 H561 H 0.28728 0.85525 1.07951
 H562 H 0.32548 0.94260 1.09540
 H563 H 0.37423 0.82819 1.04127
 C564 C 0.64076 1.10259 1.06429
 C565 C 0.63249 1.15403 1.07158
 C566 C 0.64342 1.14656 1.12448
 C567 C 0.65246 1.09604 1.11752
 C568 C 0.59222 1.13786 1.13557
 C569 C 0.58029 1.14423 1.08201
 C570 C 0.58924 1.09341 1.07502
 C571 C 0.60084 1.08683 1.12824
 H572 H 0.66038 1.08766 1.03484
 H573 H 0.64600 1.18203 1.04868
 H574 H 0.68237 1.07667 1.13258
 H575 H 0.57306 1.15268 1.16539
 H576 H 0.55033 1.16352 1.06694
 H577 H 0.58785 1.05905 1.15179
 C578 C 0.57463 0.86284 0.86962
 C579 C 0.61785 0.88073 0.84284
 C580 C 0.64705 0.84356 0.86740
 C581 C 0.60456 0.82470 0.89365
 C582 C 0.65957 0.87459 0.90841
 C583 C 0.62995 0.91212 0.88416
 C584 C 0.58690 0.89427 0.91070
 C585 C 0.61622 0.85684 0.93529
 H586 H 0.53930 0.85837 0.85417
 H587 H 0.61845 0.89049 0.80470
 H588 H 0.59498 0.78828 0.89694
 H589 H 0.69497 0.87901 0.92371
 H590 H 0.64033 0.94831 0.88060
 H591 H 0.61481 0.84734 0.97347
   
