data_POSCAR
  _audit_creation_date              2014-09-24
  _audit_creation_method            'ToBaCCo'
  _symmetry_space_group_name_H-M    'P1'
  _symmetry_Int_Tables_number       1
  _symmetry_cell_setting            triclinic
  loop_
  _symmetry_equiv_pos_as_xyz
 x,y,z
_cell_length_a 46.5759
_cell_length_b 32.4926
_cell_length_c 19.8967
_cell_angle_alpha 90.049500
_cell_angle_beta 89.897100
_cell_angle_gamma 90.043100
loop_
  _atom_site_label
  _atom_site_type_symbol
  _atom_site_fract_x
  _atom_site_fract_y
  _atom_site_fract_z
O1 O 0.76112 0.19980 0.56354
 O2 O 0.71426 0.24378 0.43325
 O3 O 0.76123 0.19975 0.43338
 O4 O 0.71424 0.24390 0.56377
 O5 O 0.74022 0.30068 0.56363
 O6 O 0.78707 0.25659 0.43297
 O7 O 0.74014 0.30065 0.43344
 O8 O 0.78711 0.25657 0.56349
 Cu9 Cu 0.73510 0.21614 0.49847
 Cu10 Cu 0.76624 0.28429 0.49836
 C11 C 0.78235 0.22044 0.58524
 C12 C 0.71894 0.27996 0.41166
 C13 C 0.78247 0.22034 0.41135
 C14 C 0.71899 0.28005 0.58549
 O15 O 0.23883 0.80020 0.56689
 O16 O 0.28592 0.75593 0.43675
 O17 O 0.23912 0.80019 0.43674
 O18 O 0.28573 0.75601 0.56726
 O19 O 0.25976 0.69923 0.56685
 O20 O 0.21304 0.74351 0.43656
 O21 O 0.25986 0.69923 0.43667
 O22 O 0.21291 0.74345 0.56709
 Cu23 Cu 0.26502 0.78374 0.50195
 Cu24 Cu 0.23377 0.71570 0.50179
 C25 C 0.21753 0.77967 0.58878
 C26 C 0.28115 0.71980 0.41496
 C27 C 0.21788 0.77963 0.41488
 C28 C 0.28096 0.71983 0.58878
 O29 O 0.23945 0.19921 -0.56785
 O30 O 0.28673 0.24334 -0.43826
 O31 O 0.23980 0.19928 -0.43770
 O32 O 0.28648 0.24321 -0.56880
 O33 O 0.26077 0.30010 -0.56804
 O34 O 0.21387 0.25605 -0.43741
 O35 O 0.26080 0.30011 -0.43788
 O36 O 0.21374 0.25610 -0.56794
 Cu37 Cu 0.26572 0.21560 -0.50323
 Cu38 Cu 0.23469 0.28375 -0.50282
 C39 C 0.21822 0.21983 -0.58959
 C40 C 0.28204 0.27947 -0.41637
 C41 C 0.21862 0.21993 -0.41569
 C42 C 0.28194 0.27947 -0.59029
 O43 O -0.24006 0.80076 -0.56312
 O44 O -0.28709 0.75652 -0.43291
 O45 O -0.24019 0.80070 -0.43293
 O46 O -0.28694 0.75648 -0.56343
 O47 O -0.26094 0.69978 -0.56342
 O48 O -0.21428 0.74392 -0.43272
 O49 O -0.26123 0.69977 -0.43327
 O50 O -0.21408 0.74405 -0.56323
 Cu51 Cu -0.26619 0.78427 -0.49809
 Cu52 Cu -0.23502 0.71622 -0.49815
 C53 C -0.21880 0.78019 -0.58488
 C54 C -0.28250 0.72030 -0.41131
 C55 C -0.21902 0.78008 -0.41105
 C56 C -0.28215 0.72035 -0.58521
 N57 N -0.03010 0.92708 -0.07167
 N58 N -0.05139 0.90094 -0.08184
 N59 N 0.03039 0.95570 -0.11798
 N60 N 0.05163 0.94985 -0.16087
 N61 N 0.03030 0.92692 -0.07173
 N62 N 0.05143 0.90057 -0.08210
 N63 N -0.03001 0.95582 -0.11799
 N64 N -0.05125 0.95014 -0.16074
 C65 C -0.06447 0.91584 -0.13754
 C66 C 0.06464 0.91541 -0.13782
 N67 N 0.03052 1.07315 -0.07236
 N68 N 0.05172 1.09939 -0.08301
 N69 N -0.02988 1.04431 -0.11840
 N70 N -0.05098 1.05003 -0.16148
 N71 N -0.02988 1.07327 -0.07237
 N72 N -0.05097 1.09961 -0.08307
 N73 N 0.03051 1.04419 -0.11839
 N74 N 0.05171 1.04981 -0.16142
 Mn75 Mn 0.00026 1.00000 -0.11891
 C76 C 0.06483 1.08430 -0.13868
 C77 C -0.06403 1.08458 -0.13878
 N78 N 0.03019 0.92725 0.07324
 N79 N 0.05131 0.90094 0.08381
 N80 N -0.03018 0.95633 0.11935
 N81 N -0.05137 0.95068 0.16242
 N82 N -0.03020 0.92738 0.07330
 N83 N -0.05139 0.90113 0.08397
 N84 N 0.03021 0.95620 0.11929
 N85 N 0.05135 0.95050 0.16227
 Mn86 Mn 0.00004 0.92663 0.00078
 C87 C 0.06440 0.91597 0.13946
 C88 C -0.06450 0.91619 0.13967
 N89 N -0.02997 1.07359 0.07263
 N90 N -0.05117 1.09985 0.08285
 N91 N 0.03036 1.04471 0.11889
 N92 N 0.05158 1.05045 0.16170
 N93 N 0.03042 1.07348 0.07262
 N94 N 0.05165 1.09971 0.08290
 N95 N -0.03005 1.04483 0.11891
 N96 N -0.05134 1.05060 0.16168
 Mn97 Mn 0.00027 1.07390 0.00013
 Mn98 Mn 0.00009 1.00052 0.11984
 Cl99 Cl 0.00017 1.00026 0.00046
 C100 C -0.06439 1.08499 0.13853
 C101 C 0.06474 1.08482 0.13858
 N102 N 0.46956 0.45515 0.11804
 N103 N 0.44824 0.44935 0.16070
 N104 N 0.53008 0.42656 0.07200
 N105 N 0.55132 0.40040 0.08231
 N106 N 0.52997 0.45533 0.11835
 N107 N 0.55114 0.44966 0.16127
 N108 N 0.46968 0.42637 0.07171
 N109 N 0.44847 0.40007 0.08180
 C110 C 0.43521 0.41493 0.13743
 C111 C 0.56434 0.41533 0.13813
 N112 N 0.53035 0.45576 -0.11897
 N113 N 0.55161 0.45016 -0.16185
 N114 N 0.46991 0.42662 -0.07329
 N115 N 0.44881 0.40026 -0.08413
 N116 N 0.46996 0.45558 -0.11926
 N117 N 0.44889 0.44982 -0.16243
 N118 N 0.53031 0.42682 -0.07297
 N119 N 0.55153 0.40064 -0.08349
 Mn120 Mn 0.49999 0.42607 -0.00064
 C121 C 0.56471 0.41573 -0.13905
 C122 C 0.43580 0.41527 -0.13986
 N123 N 0.52988 0.54384 0.11889
 N124 N 0.55101 0.54956 0.16194
 N125 N 0.46953 0.57259 0.07265
 N126 N 0.44836 0.59885 0.08331
 N127 N 0.46949 0.54365 0.11863
 N128 N 0.44828 0.54931 0.16164
 N129 N 0.52993 0.57277 0.07288
 N130 N 0.55107 0.59907 0.08355
 Mn131 Mn 0.49972 0.49949 0.11921
 C132 C 0.56411 0.58407 0.13922
 C133 C 0.43521 0.58379 0.13893
 N134 N 0.46986 0.54407 -0.11868
 N135 N 0.44866 0.54973 -0.16151
 N136 N 0.53016 0.57304 -0.07210
 N137 N 0.55131 0.59942 -0.08236
 N138 N 0.53027 0.54424 -0.11841
 N139 N 0.55153 0.55010 -0.16121
 N140 N 0.46976 0.57283 -0.07231
 N141 N 0.44849 0.59895 -0.08250
 Mn142 Mn 0.50011 0.49992 -0.11955
 Mn143 Mn 0.49984 0.57333 0.00028
 Cl144 Cl 0.49992 0.49970 -0.00017
 C145 C 0.43544 0.58402 -0.13827
 C146 C 0.56454 0.58457 -0.13807
 C147 C 0.34169 0.33546 0.27776
 C148 C 0.34486 0.29404 0.29636
 C149 C 0.32474 0.27515 0.33845
 C150 C 0.30085 0.29725 0.36281
 C151 C 0.29714 0.33828 0.34164
 C152 C 0.31738 0.35715 0.29990
 C153 C 0.36451 0.35662 0.23879
 C154 C 0.37388 0.39598 0.25818
 C155 C 0.39659 0.41508 0.22454
 C156 C 0.41031 0.39534 0.17054
 C157 C 0.40055 0.35641 0.14999
 C158 C 0.37794 0.33712 0.18404
 H159 H 0.32837 0.24349 0.35317
 H160 H 0.27898 0.35633 0.35867
 H161 H 0.40363 0.44514 0.24139
 H162 H 0.41072 0.34055 0.10839
 H163 H 0.31420 0.38897 0.28553
 H164 H 0.36419 0.41153 0.30069
 H165 H 0.36350 0.27666 0.28044
 H166 H 0.37098 0.30692 0.16770
 C167 C -0.15785 0.83722 0.28163
 C168 C -0.15524 0.79540 0.29846
 C169 C -0.17547 0.77653 0.34031
 C170 C -0.19882 0.79903 0.36596
 C171 C -0.20197 0.84046 0.34712
 C172 C -0.18168 0.85937 0.30555
 C173 C -0.13498 0.85822 0.24250
 C174 C -0.12511 0.89723 0.26243
 C175 C -0.10247 0.91622 0.22835
 C176 C -0.08929 0.89671 0.17340
 C177 C -0.09951 0.85810 0.15242
 C178 C -0.12208 0.83895 0.18684
 H179 H -0.17243 0.74455 0.35383
 H180 H -0.21976 0.85864 0.36582
 H181 H -0.09507 0.94601 0.24558
 H182 H -0.08978 0.84243 0.11008
 H183 H -0.18444 0.89149 0.29267
 H184 H -0.13436 0.91261 0.30563
 H185 H -0.13697 0.77766 0.28128
 H186 H -0.12943 0.80905 0.17002
 C187 C 0.65723 0.66327 0.28098
 C188 C 0.65452 0.70507 0.29799
 C189 C 0.67466 0.72398 0.33992
 C190 C 0.69801 0.70153 0.36546
 C191 C 0.70127 0.66012 0.34639
 C192 C 0.68106 0.64119 0.30474
 C193 C 0.63443 0.64221 0.24188
 C194 C 0.62458 0.60319 0.26179
 C195 C 0.60200 0.58414 0.22776
 C196 C 0.58885 0.60361 0.17289
 C197 C 0.59905 0.64222 0.15193
 C198 C 0.62157 0.66144 0.18630
 H199 H 0.67155 0.75593 0.35362
 H200 H 0.71905 0.64199 0.36499
 H201 H 0.59461 0.55434 0.24497
 H202 H 0.58934 0.65786 0.10965
 H203 H 0.68389 0.60908 0.29170
 H204 H 0.63381 0.58785 0.30494
 H205 H 0.63624 0.72276 0.28092
 H206 H 0.62890 0.69135 0.16951
 C207 C 0.15819 1.16394 0.27929
 C208 C 0.15510 1.20536 0.29807
 C209 C 0.17529 1.22419 0.33995
 C210 C 0.19918 1.20205 0.36389
 C211 C 0.20279 1.16099 0.34261
 C212 C 0.18247 1.14216 0.30111
 C213 C 0.13535 1.14289 0.24032
 C214 C 0.12589 1.10354 0.25952
 C215 C 0.10320 1.08453 0.22579
 C216 C 0.08960 1.10434 0.17187
 C217 C 0.09943 1.14326 0.15153
 C218 C 0.12202 1.16246 0.18567
 H219 H 0.17172 1.25587 0.35477
 H220 H 0.22094 1.14288 0.35934
 H221 H 0.09610 1.05447 0.24248
 H222 H 0.08936 1.15918 0.11000
 H223 H 0.18559 1.11034 0.28661
 H224 H 0.13551 1.08792 0.30193
 H225 H 0.13647 1.22280 0.28240
 H226 H 0.12905 1.19265 0.16947
 C227 C 0.65819 0.33694 -0.28056
 C228 C 0.65553 0.29513 -0.29756
 C229 C 0.67573 0.27629 -0.33953
 C230 C 0.69909 0.29882 -0.36514
 C231 C 0.70230 0.34024 -0.34607
 C232 C 0.68204 0.35910 -0.30437
 C233 C 0.63533 0.35792 -0.24145
 C234 C 0.62548 0.39691 -0.26137
 C235 C 0.60281 0.41585 -0.22740
 C236 C 0.58956 0.39631 -0.17259
 C237 C 0.59976 0.35775 -0.15159
 C238 C 0.62237 0.33864 -0.18590
 H239 H 0.67265 0.24433 -0.35322
 H240 H 0.72009 0.35843 -0.36472
 H241 H 0.59541 0.44562 -0.24463
 H242 H 0.58998 0.34206 -0.10935
 H243 H 0.68483 0.39122 -0.29135
 H244 H 0.63478 0.41228 -0.30450
 H245 H 0.63724 0.27738 -0.28046
 H246 H 0.62970 0.30876 -0.16910
 C247 C 0.15779 0.83579 -0.27931
 C248 C 0.18216 0.85743 -0.30128
 C249 C 0.20238 0.83852 -0.34305
 C250 C 0.19858 0.79752 -0.36445
 C251 C 0.17460 0.77550 -0.34035
 C252 C 0.15450 0.79441 -0.29821
 C253 C 0.13504 0.85696 -0.24010
 C254 C 0.12160 0.83742 -0.18542
 C255 C 0.09909 0.85674 -0.15107
 C256 C 0.08943 0.89576 -0.17125
 C257 C 0.10315 0.91553 -0.22520
 C258 C 0.12577 0.89639 -0.25912
 H259 H 0.22061 0.85653 -0.35989
 H260 H 0.17089 0.74387 -0.35525
 H261 H 0.08893 0.84086 -0.10953
 H262 H 0.09619 0.94565 -0.24177
 H263 H 0.13581 0.77708 -0.28242
 H264 H 0.12848 0.80716 -0.16935
 H265 H 0.18542 0.88921 -0.28669
 H266 H 0.13547 0.91199 -0.30156
 C267 C 0.34179 0.66278 -0.27822
 C268 C 0.31803 0.64057 -0.30224
 C269 C 0.29774 0.65949 -0.34358
 C270 C 0.30084 0.70100 -0.36208
 C271 C 0.32411 0.72357 -0.33625
 C272 C 0.34433 0.70468 -0.29463
 C273 C 0.36470 0.64178 -0.23954
 C274 C 0.37756 0.66090 -0.18377
 C275 C 0.40021 0.64180 -0.14986
 C276 C 0.41056 0.60341 -0.17147
 C277 C 0.39743 0.58403 -0.22651
 C278 C 0.37471 0.60296 -0.26009
 H279 H 0.28001 0.64126 -0.36243
 H280 H 0.32711 0.75560 -0.34951
 H281 H 0.40990 0.65737 -0.10743
 H282 H 0.40494 0.55439 -0.24422
 H283 H 0.36256 0.72247 -0.27736
 H284 H 0.37011 0.69065 -0.16649
 H285 H 0.31533 0.60838 -0.28967
 H286 H 0.36549 0.58771 -0.30340
 C287 C -0.15699 1.16363 -0.28096
 C288 C -0.18084 1.14149 -0.30465
 C289 C -0.20104 1.16033 -0.34632
 C290 C -0.19777 1.20170 -0.36550
 C291 C -0.17439 1.22421 -0.34007
 C292 C -0.15425 1.20539 -0.29811
 C293 C -0.13421 1.14266 -0.24178
 C294 C -0.12130 1.16200 -0.18627
 C295 C -0.09884 1.14282 -0.15177
 C296 C -0.08872 1.10413 -0.17255
 C297 C -0.10190 1.08455 -0.22736
 C298 C -0.12443 1.10356 -0.26151
 H299 H -0.21885 1.14215 -0.36483
 H300 H -0.17125 1.25613 -0.35385
 H301 H -0.08910 1.15855 -0.10955
 H302 H -0.09457 1.05469 -0.24444
 H303 H -0.13595 1.22313 -0.28111
 H304 H -0.12858 1.19197 -0.16961
 H305 H -0.18370 1.10941 -0.29151
 H306 H -0.13368 1.08812 -0.30460
 C307 C 0.65774 0.66421 -0.27939
 C308 C 0.68210 0.64258 -0.30141
 C309 C 0.70232 0.66147 -0.34320
 C310 C 0.69854 0.70246 -0.36455
 C311 C 0.67458 0.72448 -0.34039
 C312 C 0.65448 0.70558 -0.29824
 C313 C 0.63499 0.64305 -0.24020
 C314 C 0.62155 0.66261 -0.18551
 C315 C 0.59902 0.64327 -0.15120
 C316 C 0.58936 0.60423 -0.17143
 C317 C 0.60308 0.58444 -0.22538
 C318 C 0.62570 0.60358 -0.25926
 H319 H 0.72053 0.64348 -0.36009
 H320 H 0.67089 0.75610 -0.35525
 H321 H 0.58886 0.65917 -0.10965
 H322 H 0.59611 0.55430 -0.24198
 H323 H 0.63580 0.72290 -0.28242
 H324 H 0.62844 0.69288 -0.16941
 H325 H 0.68534 0.61082 -0.28686
 H326 H 0.63540 0.58797 -0.30171
 C327 C 0.15805 1.16318 -0.28106
 C328 C 0.15533 1.20493 -0.29822
 C329 C 0.17545 1.22373 -0.34043
 C330 C 0.19879 1.20122 -0.36611
 C331 C 0.20207 1.15987 -0.34688
 C332 C 0.18188 1.14105 -0.30494
 C333 C 0.13525 1.14220 -0.24172
 C334 C 0.12542 1.10312 -0.26145
 C335 C 0.10282 1.08416 -0.22726
 C336 C 0.08963 1.10376 -0.17242
 C337 C 0.09981 1.14241 -0.15161
 C338 C 0.12235 1.16155 -0.18614
 H339 H 0.17232 1.25564 -0.35425
 H340 H 0.21986 1.14170 -0.36557
 H341 H 0.09544 1.05432 -0.24436
 H342 H 0.09006 1.15815 -0.10935
 H343 H 0.18473 1.10897 -0.29179
 H344 H 0.13468 1.08769 -0.30460
 H345 H 0.13704 1.22265 -0.28107
 H346 H 0.12967 1.19150 -0.16949
 C347 C 0.34283 0.33623 -0.28253
 C348 C 0.34552 0.29448 -0.29987
 C349 C 0.32535 0.27568 -0.34187
 C350 C 0.30198 0.29821 -0.36716
 C351 C 0.29876 0.33957 -0.34781
 C352 C 0.31899 0.35838 -0.30609
 C353 C 0.36563 0.35718 -0.24325
 C354 C 0.37544 0.39629 -0.26280
 C355 C 0.39798 0.41530 -0.22853
 C356 C 0.41112 0.39571 -0.17377
 C357 C 0.40097 0.35699 -0.15318
 C358 C 0.37850 0.33782 -0.18780
 H359 H 0.32845 0.24377 -0.35579
 H360 H 0.28096 0.35775 -0.36620
 H361 H 0.40533 0.44517 -0.24548
 H362 H 0.41068 0.34126 -0.11100
 H363 H 0.31617 0.39046 -0.29280
 H364 H 0.36621 0.41174 -0.30584
 H365 H 0.36380 0.27674 -0.28297
 H366 H 0.37119 0.30783 -0.17128
 C367 C -0.15820 0.83705 -0.27763
 C368 C -0.15566 0.79518 -0.29432
 C369 C -0.17588 0.77631 -0.33608
 C370 C -0.19915 0.79887 -0.36177
 C371 C -0.20225 0.84035 -0.34298
 C372 C -0.18197 0.85924 -0.30149
 C373 C -0.13528 0.85805 -0.23887
 C374 C -0.12240 0.83890 -0.18324
 C375 C -0.09973 0.85800 -0.14928
 C376 C -0.08938 0.89643 -0.17072
 C377 C -0.10254 0.91585 -0.22561
 C378 C -0.12528 0.89691 -0.25923
 H379 H -0.17288 0.74430 -0.34956
 H380 H -0.21997 0.85857 -0.36171
 H381 H -0.09001 0.84241 -0.10697
 H382 H -0.09504 0.94551 -0.24319
 H383 H -0.18467 0.89141 -0.28871
 H384 H -0.12984 0.80911 -0.16610
 H385 H -0.13744 0.77740 -0.27717
 H386 H -0.13452 0.91219 -0.30243
 C387 C 0.34195 0.66280 0.28108
 C388 C 0.31808 0.64068 0.30488
 C389 C 0.29783 0.65958 0.34658
 C390 C 0.30107 0.70098 0.36567
 C391 C 0.32447 0.72347 0.34012
 C392 C 0.34465 0.70460 0.29814
 C393 C 0.36478 0.64180 0.24186
 C394 C 0.37774 0.66109 0.18631
 C395 C 0.40028 0.64192 0.15183
 C396 C 0.41042 0.60329 0.17266
 C397 C 0.39719 0.58375 0.22748
 C398 C 0.37458 0.60275 0.26162
 H399 H 0.28001 0.64141 0.36518
 H400 H 0.32757 0.75542 0.35383
 H401 H 0.41006 0.65761 0.10959
 H402 H 0.40453 0.55394 0.24460
 H403 H 0.36296 0.72232 0.28106
 H404 H 0.37045 0.69102 0.16962
 H405 H 0.31526 0.60857 0.29181
 H406 H 0.36528 0.58736 0.30473
 C407 C -0.15778 1.16434 0.27937
 C408 C -0.18212 1.14265 0.30141
 C409 C -0.20235 1.16152 0.34318
 C410 C -0.19860 1.20254 0.36450
 C411 C -0.17467 1.22463 0.34029
 C412 C -0.15456 1.20575 0.29815
 C413 C -0.13500 1.14321 0.24027
 C414 C -0.12158 1.16273 0.18556
 C415 C -0.09900 1.14347 0.15139
 C416 C -0.08926 1.10454 0.17177
 C417 C -0.10297 1.08477 0.22573
 C418 C -0.12565 1.10385 0.25949
 H419 H -0.22054 1.14347 0.36011
 H420 H -0.17100 1.25628 0.35512
 H421 H -0.08884 1.15935 0.10982
 H422 H -0.09594 1.05471 0.24245
 H423 H -0.13589 1.22312 0.28231
 H424 H -0.12852 1.19293 0.16936
 H425 H -0.18533 1.11084 0.28690
 H426 H -0.13534 1.08827 0.30196
 C427 C 0.65795 0.33673 0.27865
 C428 C 0.68171 0.35902 0.30252
 C429 C 0.70204 0.34020 0.34389
 C430 C 0.69899 0.29871 0.36257
 C431 C 0.67572 0.27606 0.33690
 C432 C 0.65546 0.29486 0.29525
 C433 C 0.63502 0.35764 0.23987
 C434 C 0.62216 0.33841 0.18419
 C435 C 0.59952 0.35747 0.15013
 C436 C 0.58919 0.39593 0.17149
 C437 C 0.60233 0.41540 0.22646
 C438 C 0.62503 0.39651 0.26018
 H439 H 0.71976 0.35848 0.36260
 H440 H 0.67275 0.24404 0.35030
 H441 H 0.58983 0.34184 0.10777
 H442 H 0.59484 0.44509 0.24399
 H443 H 0.63724 0.27701 0.27810
 H444 H 0.62959 0.30862 0.16708
 H445 H 0.68439 0.39119 0.28980
 H446 H 0.63425 0.41185 0.30341
 C447 C 0.15739 0.83673 0.28108
 C448 C 0.15460 0.79495 0.29806
 C449 C 0.17470 0.77603 0.34000
 C450 C 0.19808 0.79846 0.36557
 C451 C 0.20142 0.83985 0.34654
 C452 C 0.18126 0.85878 0.30488
 C453 C 0.13464 0.85780 0.24199
 C454 C 0.12486 0.89686 0.26193
 C455 C 0.10231 0.91591 0.22793
 C456 C 0.08912 0.89642 0.17306
 C457 C 0.09925 0.85778 0.15206
 C458 C 0.12173 0.83855 0.18641
 H459 H 0.17151 0.74410 0.35367
 H460 H 0.21924 0.85796 0.36517
 H461 H 0.09498 0.94574 0.24517
 H462 H 0.08950 0.84212 0.10978
 H463 H 0.18416 0.89088 0.29187
 H464 H 0.13413 0.91221 0.30509
 H465 H 0.13629 0.77728 0.28097
 H466 H 0.12901 0.80861 0.16959
   
