data_POSCAR
  _audit_creation_date              2014-09-24
  _audit_creation_method            'ToBaCCo'
  _symmetry_space_group_name_H-M    'P1'
  _symmetry_Int_Tables_number       1
  _symmetry_cell_setting            triclinic
  loop_
  _symmetry_equiv_pos_as_xyz
 x,y,z
_cell_length_a 44.5773
_cell_length_b 40.9234
_cell_length_c 40.9663
_cell_angle_alpha 89.435100
_cell_angle_beta 90.125300
_cell_angle_gamma 89.629000
loop_
  _atom_site_label
  _atom_site_type_symbol
  _atom_site_fract_x
  _atom_site_fract_y
  _atom_site_fract_z
N1 N 0.19018 1.25198 0.16150
 N2 N 0.16942 1.25087 0.18415
 C3 C 0.14713 1.27180 0.17619
 C4 C 0.15429 1.28718 0.14684
 C5 C 0.18199 1.27395 0.13845
 H6 H 0.12718 1.27519 0.19073
 H7 H 0.19480 1.27879 0.11659
 Cu8 Cu 0.17300 1.22145 0.22133
 Cu9 Cu 0.22487 1.22272 0.16214
 Cu10 Cu 0.22630 1.16302 0.22285
 N11 N 0.17081 1.18455 0.25123
 N12 N 0.19206 1.16222 0.25243
 C13 C 0.18463 1.13923 0.27465
 C14 C 0.15691 1.14734 0.28795
 C15 C 0.14897 1.17647 0.27235
 H16 H 0.19794 1.11758 0.27961
 H17 H 0.12874 1.19073 0.27565
 N18 N 0.25852 1.16808 0.19026
 N19 N 0.25783 1.19068 0.16704
 C20 C 0.28117 1.18589 0.14683
 C21 C 0.29735 1.15890 0.15769
 C22 C 0.28241 1.14840 0.18544
 H23 H 0.28537 1.20020 0.12504
 H24 H 0.28746 1.12678 0.19982
 H25 H 0.20197 1.18582 0.18614
 H26 H 0.22641 1.21232 0.21164
 N27 N 0.80816 0.74833 0.16627
 N28 N 0.83037 0.75021 0.18728
 C29 C 0.85161 0.72812 0.17944
 C30 C 0.84230 0.71147 0.15197
 C31 C 0.81447 0.72490 0.14443
 H32 H 0.87274 0.72518 0.19212
 H33 H 0.80060 0.71937 0.12355
 Cu34 Cu 0.83095 0.78365 0.22065
 Cu35 Cu 0.77455 0.77908 0.16646
 Cu36 Cu 0.77547 0.83919 0.22576
 N37 N 0.83119 0.81724 0.25387
 N38 N 0.80928 0.83870 0.25606
 C39 C 0.81592 0.86028 0.27956
 C40 C 0.84383 0.85223 0.29270
 C41 C 0.85263 0.82454 0.27574
 H42 H 0.80202 0.88113 0.28539
 H43 H 0.87346 0.81116 0.27828
 N44 N 0.74327 0.83557 0.19290
 N45 N 0.74272 0.81250 0.17061
 C46 C 0.71934 0.81810 0.15038
 C47 C 0.70460 0.84621 0.16017
 C48 C 0.72037 0.85652 0.18729
 H49 H 0.71451 0.80398 0.12888
 H50 H 0.71613 0.87836 0.20119
 H51 H 0.79764 0.81755 0.18709
 H52 H 0.77675 0.78997 0.21548
 N53 N 0.80499 1.25173 -0.16605
 N54 N 0.82561 1.25103 -0.18890
 C55 C 0.84719 1.27266 -0.18173
 C56 C 0.83967 1.28792 -0.15280
 C57 C 0.81265 1.27403 -0.14363
 H58 H 0.86710 1.27649 -0.19624
 H59 H 0.80014 1.27870 -0.12157
 Cu60 Cu 0.82318 1.22069 -0.22483
 Cu61 Cu 0.77132 1.22149 -0.16548
 Cu62 Cu 0.77243 1.16053 -0.22377
 N63 N 0.82674 1.18347 -0.25352
 N64 N 0.80643 1.16039 -0.25367
 C65 C 0.81463 1.13727 -0.27506
 C66 C 0.84190 1.14607 -0.28893
 C67 C 0.84875 1.17574 -0.27453
 H68 H 0.80218 1.11510 -0.27904
 H69 H 0.86842 1.19055 -0.27847
 N70 N 0.74016 1.16499 -0.19120
 N71 N 0.73960 1.18829 -0.16916
 C72 C 0.71624 1.18321 -0.14897
 C73 C 0.70152 1.15519 -0.15855
 C74 C 0.71727 1.14442 -0.18552
 H75 H 0.71140 1.19765 -0.12766
 H76 H 0.71306 1.12252 -0.19926
 H77 H 0.79578 1.18505 -0.18788
 H78 H 0.77021 1.21008 -0.21443
 N79 N 0.19253 0.74962 -0.16045
 N80 N 0.17606 0.74612 -0.18680
 C81 C 0.15511 0.72326 -0.18118
 C82 C 0.15849 0.71176 -0.14944
 C83 C 0.18256 0.72909 -0.13706
 H84 H 0.13791 0.71660 -0.19850
 H85 H 0.19197 0.72719 -0.11277
 Cu86 Cu 0.18152 0.77404 -0.22469
 Cu87 Cu 0.22527 0.78101 -0.15852
 Cu88 Cu 0.23591 0.82990 -0.22742
 N89 N 0.17921 0.81137 -0.25416
 N90 N 0.20073 0.83305 -0.25568
 C91 C 0.19311 0.85650 -0.27751
 C92 C 0.16482 0.84948 -0.28998
 C93 C 0.15690 0.82040 -0.27452
 H94 H 0.20676 0.87765 -0.28271
 H95 H 0.13636 0.80683 -0.27725
 N96 N 0.26189 0.83180 -0.18851
 N97 N 0.25735 0.81391 -0.16201
 C98 C 0.27743 0.82243 -0.13908
 C99 C 0.29546 0.84697 -0.15162
 C100 C 0.28493 0.85218 -0.18312
 H101 H 0.27857 0.81178 -0.11487
 H102 H 0.29258 0.87037 -0.20044
 H103 H 0.20728 0.81410 -0.19193
 H104 H 0.23384 0.78259 -0.20744
 C105 C 0.46733 0.98166 -0.01880
 C106 C 0.48342 1.00195 0.00224
 C107 C 0.46808 1.02291 0.02342
 C108 C 0.43661 1.02400 0.02341
 C109 C 0.42072 1.00340 0.00243
 C110 C 0.43583 0.98201 -0.01861
 C111 C 0.51638 1.00153 0.00189
 C112 C 0.53189 1.02201 -0.01978
 C113 C 0.56337 1.02183 -0.02030
 C114 C 0.57911 1.00118 0.00142
 C115 C 0.56380 0.98072 0.02340
 C116 C 0.53230 0.98088 0.02335
 H117 H 0.47936 0.96529 -0.03485
 H118 H 0.48067 1.03878 0.03936
 H119 H 0.51942 1.03772 -0.03645
 H120 H 0.52013 0.96538 0.04028
 H121 H 0.39641 1.00401 0.00248
 H122 H 0.60341 1.00106 0.00124
 C123 C -0.02522 0.46500 0.97870
 C124 C -0.00381 0.48198 0.99690
 C125 C 0.01771 0.46467 1.01526
 C126 C 0.01759 0.43038 1.01605
 C127 C -0.00375 0.41361 0.99747
 C128 C -0.02504 0.43068 0.97845
 C129 C -0.00378 0.51791 0.99666
 C130 C -0.02492 0.53519 1.01509
 C131 C -0.02433 0.56948 1.01593
 C132 C -0.00269 0.58625 0.99744
 C133 C 0.01841 0.56919 0.97857
 C134 C 0.01783 0.53488 0.97853
 H135 H -0.04144 0.47856 0.96411
 H136 H 0.03402 0.47795 1.02952
 H137 H -0.04122 0.52182 1.02947
 H138 H 0.03424 0.52129 0.96458
 H139 H -0.00373 0.38713 0.99777
 H140 H -0.00276 0.61272 0.99712
 C141 C 0.97979 -0.01788 0.46797
 C142 C 1.00208 -0.00057 0.48458
 C143 C 1.02383 0.01671 0.46691
 C144 C 1.02307 0.01734 0.43266
 C145 C 1.00104 -0.00063 0.41629
 C146 C 0.97952 -0.01855 0.43372
 C147 C 1.00255 -0.00038 0.52050
 C148 C 1.02544 -0.01687 0.53763
 C149 C 1.02565 -0.01728 0.57190
 C150 C 1.00344 0.00014 0.58879
 C151 C 0.98078 0.01727 0.57187
 C152 C 0.98012 0.01634 0.53764
 H153 H 0.96328 -0.03159 0.48173
 H154 H 1.04071 0.03047 0.47988
 H155 H 1.04245 -0.03022 0.52427
 H156 H 0.96272 0.02944 0.52427
 H157 H 1.00065 -0.00067 0.38984
 H158 H 1.00373 0.00030 0.61525
 C159 C 0.10075 0.35349 1.09253
 C160 C 0.13026 0.34712 1.08253
 C161 C 0.14809 0.32534 1.10059
 C162 C 0.13681 0.30995 1.12887
 C163 C 0.10719 0.31757 1.13819
 N164 N 0.09016 0.33844 1.11986
 C165 C 0.08021 0.37457 1.07319
 N166 N 0.05034 0.36794 1.07371
 C167 C 0.03007 0.38558 1.05596
 C168 C 0.03949 0.41186 1.03635
 C169 C 0.07008 0.41971 1.03606
 C170 C 0.09053 0.40105 1.05434
 H171 H 0.17067 0.32076 1.09214
 H172 H 0.09704 0.30646 1.15945
 H173 H 0.00659 0.37911 1.05723
 H174 H 0.07819 0.43985 1.02127
 H175 H 0.13927 0.35801 1.06050
 H176 H 0.11404 0.40749 1.05389
 C177 C -0.10569 0.64482 1.09486
 C178 C -0.13676 0.64738 1.08947
 C179 C -0.15387 0.66871 1.10843
 C180 C -0.14020 0.68745 1.13276
 C181 C -0.10916 0.68379 1.13759
 N182 N -0.09298 0.66314 1.11865
 C183 C -0.08582 0.62427 1.07450
 N184 N -0.05618 0.63188 1.07299
 C185 C -0.03632 0.61475 1.05467
 C186 C -0.04591 0.58793 1.03639
 C187 C -0.07627 0.57917 1.03801
 C188 C -0.09630 0.59725 1.05698
 H189 H -0.17773 0.67064 1.10382
 H190 H -0.09746 0.69785 1.15575
 H191 H -0.01300 0.62197 1.05463
 H192 H -0.08459 0.55864 1.02427
 H193 H -0.14774 0.63394 1.07030
 H194 H -0.11949 0.58978 1.05811
 C195 C -0.10704 0.35502 0.90163
 C196 C -0.13769 0.35185 0.90880
 C197 C -0.15518 0.33028 0.89080
 C198 C -0.14232 0.31189 0.86563
 C199 C -0.11168 0.31607 0.85904
 N200 N -0.09506 0.33696 0.87711
 C201 C -0.08687 0.37588 0.92105
 N202 N -0.05713 0.36818 0.92209
 C203 C -0.03713 0.38545 0.93991
 C204 C -0.04667 0.41245 0.95811
 C205 C -0.07708 0.42141 0.95679
 C206 C -0.09726 0.40319 0.93835
 H207 H -0.17871 0.32794 0.89676
 H208 H -0.10065 0.30225 0.84013
 H209 H -0.01375 0.37814 0.93973
 H210 H -0.08532 0.44212 0.97045
 H211 H -0.14798 0.36504 0.92865
 H212 H -0.12056 0.41069 0.93750
 C213 C 0.10136 0.64486 0.90163
 C214 C 0.10047 0.64640 0.86737
 C215 C 0.11939 0.66785 0.85072
 C216 C 0.13922 0.68787 0.86798
 C217 C 0.13960 0.68536 0.90219
 N218 N 0.12079 0.66447 0.91788
 C219 C 0.08072 0.62392 0.92078
 N220 N 0.07443 0.63228 0.95212
 C221 C 0.05507 0.61499 0.97106
 C222 C 0.04067 0.58734 0.95865
 C223 C 0.04737 0.57776 0.92668
 C224 C 0.06736 0.59590 0.90770
 H225 H 0.11829 0.66882 0.82434
 H226 H 0.15426 0.70046 0.91660
 H227 H 0.05098 0.62287 0.99581
 H228 H 0.03671 0.55662 0.91613
 H229 H 0.08483 0.63201 0.85343
 H230 H 0.07230 0.58781 0.88324
 C231 C 1.10500 0.09287 0.35475
 C232 C 1.13453 0.08297 0.34818
 C233 C 1.15185 0.10109 0.32625
 C234 C 1.14001 0.12932 0.31090
 C235 C 1.11041 0.13854 0.31874
 N236 N 1.09390 0.12017 0.33976
 C237 C 1.08490 0.07353 0.37599
 N238 N 1.05488 0.07455 0.36989
 C239 C 1.03491 0.05702 0.38774
 C240 C 1.04478 0.03713 0.41375
 C241 C 1.07554 0.03625 0.42104
 C242 C 1.09570 0.05430 0.40214
 H243 H 1.17445 0.09271 0.32148
 H244 H 1.09984 0.15976 0.30772
 H245 H 1.01129 0.05876 0.38170
 H246 H 1.08399 0.02121 0.44097
 H247 H 1.14394 0.06097 0.35902
 H248 H 1.11933 0.05344 0.40819
 C249 C 1.11095 -0.09336 0.64647
 C250 C 1.14071 -0.08410 0.65229
 C251 C 1.15873 -0.10313 0.67310
 C252 C 1.14733 -0.13160 0.68805
 C253 C 1.11746 -0.14012 0.68094
 N254 N 1.10033 -0.12093 0.66103
 C255 C 1.09010 -0.07332 0.62640
 N256 N 1.06025 -0.07481 0.63311
 C257 C 1.03950 -0.05715 0.61610
 C258 C 1.04834 -0.03667 0.59026
 C259 C 1.07892 -0.03515 0.58240
 C260 C 1.09992 -0.05330 0.60052
 H261 H 1.18149 -0.09524 0.67739
 H262 H 1.10720 -0.16151 0.69164
 H263 H 1.01607 -0.05939 0.62255
 H264 H 1.08657 -0.01965 0.56256
 H265 H 1.14980 -0.06195 0.64174
 H266 H 1.12338 -0.05202 0.59398
 C267 C 0.89582 -0.09437 0.35951
 C268 C 0.86614 -0.08460 0.35317
 C269 C 0.84867 -0.10255 0.33148
 C270 C 0.86054 -0.13041 0.31607
 C271 C 0.89019 -0.13969 0.32399
 N272 N 0.90681 -0.12151 0.34475
 C273 C 0.91632 -0.07497 0.37996
 N274 N 0.94622 -0.07630 0.37345
 C275 C 0.96662 -0.05874 0.39042
 C276 C 0.95733 -0.03843 0.41590
 C277 C 0.92671 -0.03723 0.42367
 C278 C 0.90609 -0.05535 0.40566
 H279 H 0.82603 -0.09415 0.32669
 H280 H 0.90074 -0.16081 0.31322
 H281 H 0.99012 -0.06074 0.38407
 H282 H 0.91872 -0.02186 0.44324
 H283 H 0.85676 -0.06274 0.36387
 H284 H 0.88257 -0.05421 0.41204
 C285 C 0.89583 0.09169 0.64655
 C286 C 0.86691 0.08070 0.65408
 C287 C 0.84889 0.09882 0.67518
 C288 C 0.85941 0.12811 0.68877
 C289 C 0.88840 0.13842 0.67991
 N290 N 0.90563 0.12005 0.65974
 C291 C 0.91670 0.07246 0.62625
 N292 N 0.94666 0.07479 0.63215
 C293 C 0.96735 0.05750 0.61508
 C294 C 0.95827 0.03653 0.59010
 C295 C 0.92756 0.03424 0.58303
 C296 C 0.90667 0.05204 0.60115
 H297 H 0.82682 0.08954 0.68078
 H298 H 0.89792 0.16058 0.68944
 H299 H 0.99089 0.06031 0.62088
 H300 H 0.91974 0.01834 0.56387
 H301 H 0.85856 0.05787 0.64467
 H302 H 0.88308 0.05010 0.59528
 C303 C 0.36541 1.10650 0.10609
 C304 C 0.36149 1.10054 0.13964
 C305 C 0.33986 1.11828 0.15676
 C306 C 0.32220 1.14197 0.14064
 C307 C 0.32748 1.14781 0.10733
 N308 N 0.34833 1.12993 0.09112
 C309 C 0.38557 1.08637 0.08573
 N310 N 0.37916 1.08377 0.05337
 C311 C 0.39549 1.06466 0.03307
 C312 C 0.42004 1.04657 0.04507
 C313 C 0.42774 1.04961 0.07812
 C314 C 0.41055 1.06943 0.09857
 H315 H 0.33667 1.11304 0.18246
 H316 H 0.31436 1.16561 0.09373
 H317 H 0.38917 1.06348 0.00758
 H318 H 0.44657 1.03607 0.08827
 H319 H 0.37400 1.08159 0.15235
 H320 H 0.41685 1.07142 0.12398
 C321 C 0.63451 1.10351 -0.10454
 C322 C 0.63803 1.13722 -0.09973
 C323 C 0.65937 1.15431 -0.11793
 C324 C 0.67713 1.13802 -0.14097
 C325 C 0.67232 1.10451 -0.14559
 N326 N 0.65174 1.08833 -0.12727
 C327 C 0.61446 1.08333 -0.08395
 N328 N 0.62119 1.05105 -0.07996
 C329 C 0.60489 1.03097 -0.06038
 C330 C 0.58006 1.04316 -0.04328
 C331 C 0.57209 1.07612 -0.04775
 C332 C 0.58923 1.09632 -0.06802
 H333 H 0.66222 1.18015 -0.11361
 H334 H 0.68559 1.09079 -0.16282
 H335 H 0.61144 1.00554 -0.05808
 H336 H 0.55305 1.08642 -0.03499
 H337 H 0.62538 1.15011 -0.08135
 H338 H 0.58267 1.12165 -0.07113
 C339 C 0.36202 0.90143 -0.10009
 C340 C 0.35988 0.90462 -0.13420
 C341 C 0.33850 0.88651 -0.15113
 C342 C 0.31922 0.86525 -0.13426
 C343 C 0.32242 0.86252 -0.10024
 N344 N 0.34319 0.88056 -0.08433
 C345 C 0.38264 0.92138 -0.08018
 N346 N 0.37628 0.92506 -0.04795
 C347 C 0.39322 0.94366 -0.02790
 C348 C 0.41841 0.96011 -0.04005
 C349 C 0.42602 0.95600 -0.07298
 C350 C 0.40821 0.93668 -0.09315
 H351 H 0.33699 0.88944 -0.17735
 H352 H 0.30805 0.84673 -0.08601
 H353 H 0.38693 0.94563 -0.00249
 H354 H 0.44531 0.96828 -0.08326
 H355 H 0.37378 0.92150 -0.14774
 H356 H 0.41461 0.93380 -0.11840
 C357 C 0.63686 0.89867 0.10670
 C358 C 0.64044 0.86494 0.10185
 C359 C 0.66207 0.84763 0.11983
 C360 C 0.68006 0.86372 0.14271
 C361 C 0.67525 0.89730 0.14732
 N362 N 0.65438 0.91369 0.12921
 C363 C 0.61635 0.91899 0.08641
 N364 N 0.62286 0.95120 0.08218
 C365 C 0.60609 0.97135 0.06284
 C366 C 0.58097 0.95933 0.04623
 C367 C 0.57322 0.92645 0.05097
 C368 C 0.59085 0.90618 0.07099
 H369 H 0.66492 0.82174 0.11551
 H370 H 0.68872 0.91086 0.16441
 H371 H 0.61248 0.99672 0.06033
 H372 H 0.55399 0.91628 0.03860
 H373 H 0.62759 0.85216 0.08362
 H374 H 0.58446 0.88092 0.07433
   
