data_POSCAR
  _audit_creation_date              2014-09-24
  _audit_creation_method            'ToBaCCo'
  _symmetry_space_group_name_H-M    'P1'
  _symmetry_Int_Tables_number       1
  _symmetry_cell_setting            triclinic
  loop_
  _symmetry_equiv_pos_as_xyz
 x,y,z
_cell_length_a 34.4586
_cell_length_b 34.4636
_cell_length_c 34.5231
_cell_angle_alpha 101.975500
_cell_angle_beta 79.050400
_cell_angle_gamma 76.686600
loop_
  _atom_site_label
  _atom_site_type_symbol
  _atom_site_fract_x
  _atom_site_fract_y
  _atom_site_fract_z
C1 C 0.51038 0.47887 0.00229
 C2 C 0.47952 0.50907 -0.00173
 C3 C 0.43811 0.50387 -0.00203
 C4 C 0.48541 0.54945 -0.00536
 C5 C 0.55096 0.48550 0.00456
 C6 C 0.50562 0.43759 0.00423
 C7 C 0.42324 0.50518 -0.03680
 C8 C 0.38339 0.50271 -0.03694
 C9 C 0.35642 0.49997 -0.00164
 C10 C 0.37238 0.49843 0.03323
 C11 C 0.41263 0.50009 0.03284
 C12 C 0.51194 0.55253 -0.04009
 C13 C 0.51592 0.59113 -0.04388
 C14 C 0.49359 0.62728 -0.01284
 C15 C 0.46757 0.62372 0.02220
 C16 C 0.46325 0.58523 0.02568
 C17 C 0.55509 0.51313 0.03853
 C18 C 0.59394 0.51745 0.04129
 C19 C 0.62931 0.49440 0.00992
 C20 C 0.62464 0.46739 -0.02445
 C21 C 0.58592 0.46270 -0.02686
 C22 C 0.51392 0.42212 0.03720
 C23 C 0.51203 0.38234 0.03836
 C24 C 0.50221 0.35702 0.00633
 C25 C 0.49356 0.37276 -0.02655
 C26 C 0.49537 0.41265 -0.02764
 H27 H 0.44247 0.50863 -0.06387
 H28 H 0.37346 0.50592 -0.06425
 H29 H 0.35483 0.49419 0.06071
 H30 H 0.42376 0.49899 0.06001
 H31 H 0.52894 0.52512 -0.06451
 H32 H 0.53574 0.59273 -0.07151
 H33 H 0.44276 0.58326 0.05274
 H34 H 0.52835 0.53063 0.06326
 H35 H 0.59634 0.53804 0.06847
 H36 H 0.65091 0.44985 -0.04962
 H37 H 0.58315 0.44133 -0.05335
 H38 H 0.52197 0.44090 0.06203
 H39 H 0.51824 0.37141 0.06440
 H40 H 0.48657 0.35381 -0.05202
 H41 H 0.48976 0.42370 -0.05379
 H42 H 0.45061 0.65068 0.04710
 C43 C -0.00147 0.52486 0.52615
 C44 C -0.00507 0.49463 0.49609
 C45 C -0.00752 0.45375 0.50191
 C46 C -0.00605 0.50067 0.45509
 C47 C 0.00209 0.56480 0.51879
 C48 C -0.00166 0.52005 0.56782
 C49 C 0.02416 0.42812 0.51294
 C50 C 0.02270 0.38846 0.51545
 C51 C -0.01038 0.37369 0.50678
 C52 C -0.04234 0.39982 0.49645
 C53 C -0.04078 0.43932 0.49382
 C54 C 0.02790 0.47974 0.42196
 C55 C 0.02638 0.48288 0.38258
 C56 C -0.00952 0.50641 0.37550
 C57 C -0.04333 0.52789 0.40911
 C58 C -0.04151 0.52516 0.44861
 C59 C -0.03200 0.59981 0.53409
 C60 C -0.02883 0.63786 0.52789
 C61 C 0.00873 0.64158 0.50694
 C62 C 0.04291 0.60640 0.49172
 C63 C 0.03950 0.56816 0.49733
 C64 C -0.03555 0.51263 0.59174
 C65 C -0.03574 0.50922 0.63143
 C66 C -0.00198 0.51304 0.64776
 C67 C 0.03192 0.52034 0.62364
 C68 C 0.03192 0.52411 0.58414
 H69 H 0.05046 0.43844 0.51858
 H70 H 0.04808 0.36891 0.52292
 H71 H -0.06857 0.38969 0.49028
 H72 H -0.06553 0.45865 0.48530
 H73 H 0.05551 0.46078 0.42663
 H74 H 0.05331 0.46671 0.35767
 H75 H -0.06812 0.54115 0.47397
 H76 H -0.06104 0.59759 0.55078
 H77 H -0.05548 0.66462 0.54022
 H78 H 0.07211 0.60852 0.47532
 H79 H 0.06607 0.54129 0.48541
 H80 H -0.06195 0.50987 0.57978
 H81 H -0.06217 0.50340 0.64932
 H82 H 0.05808 0.52396 0.63565
 H83 H 0.05825 0.53004 0.56619
 H84 H -0.07165 0.54580 0.40481
 C85 C 0.52249 -0.00161 0.47501
 C86 C 0.49281 -0.00398 0.50576
 C87 C 0.49966 -0.00450 0.54675
 C88 C 0.45166 -0.00623 0.50040
 C89 C 0.51598 -0.00205 0.43371
 C90 C 0.56339 0.00105 0.48079
 C91 C 0.52826 -0.03759 0.55241
 C92 C 0.53164 -0.03937 0.59180
 C93 C 0.50635 -0.00797 0.62672
 C94 C 0.47869 0.02586 0.62002
 C95 C 0.47517 0.02724 0.58073
 C96 C 0.43756 -0.03957 0.50818
 C97 C 0.39801 -0.04117 0.50569
 C98 C 0.37156 -0.00917 0.49579
 C99 C 0.38595 0.02405 0.48754
 C100 C 0.42566 0.02555 0.48993
 C101 C 0.51974 0.03134 0.41744
 C102 C 0.51521 0.03091 0.37804
 C103 C 0.50741 -0.00324 0.35393
 C104 C 0.50369 -0.03673 0.37027
 C105 C 0.50786 -0.03611 0.40990
 C106 C 0.56748 0.03457 0.50893
 C107 C 0.60651 0.03746 0.51263
 C108 C 0.64265 0.00683 0.48805
 C109 C 0.63766 -0.02709 0.46030
 C110 C 0.59869 -0.02966 0.45658
 H111 H 0.54699 -0.06273 0.52640
 H112 H 0.55261 -0.06676 0.59438
 H113 H 0.46004 0.05215 0.64479
 H114 H 0.45316 0.05325 0.57677
 H115 H 0.45723 -0.06436 0.51632
 H116 H 0.38812 -0.06749 0.51155
 H117 H 0.43579 0.05190 0.48453
 H118 H 0.52630 0.05773 0.43531
 H119 H 0.51880 0.05686 0.36602
 H120 H 0.49752 -0.06335 0.35238
 H121 H 0.50536 -0.06237 0.42181
 H122 H 0.54044 0.05900 0.52739
 H123 H 0.60783 0.06494 0.53348
 H124 H 0.66355 -0.05274 0.44202
 H125 H 0.59601 -0.05598 0.43492
 H126 H 0.36611 0.04945 0.48042
 O127 O 0.47502 -0.00754 -0.05830
 O128 O 0.47247 0.00131 0.05039
 O129 O 0.47256 0.05166 0.00333
 O130 O 0.47390 -0.05738 -0.01138
 O131 O 0.54184 -0.07590 -0.02621
 O132 O 0.54047 0.03346 -0.01213
 O133 O 0.54039 -0.01710 0.03492
 O134 O 0.54295 -0.02572 -0.07367
 Cu135 Cu 0.46669 -0.00111 -0.00240
 Cu136 Cu 0.54823 -0.02312 -0.02081
 C137 C 0.50940 -0.01788 -0.08454
 C138 C 0.50606 -0.00684 0.06119
 C139 C 0.50625 0.06125 -0.00233
 C140 C 0.50798 -0.08525 -0.02096
 O141 O -0.07337 0.54276 1.02562
 O142 O 0.03553 0.54153 1.01540
 O143 O -0.01420 0.54243 0.96654
 O144 O -0.02399 0.54331 1.07467
 O145 O -0.00531 0.47511 1.05747
 O146 O 0.00375 0.47427 0.94917
 O147 O 0.05387 0.47334 0.99713
 O148 O -0.05479 0.47457 1.00930
 Cu149 Cu -0.02083 0.54934 1.02224
 Cu150 Cu 0.00125 0.46750 1.00151
 C151 C -0.08263 0.50874 1.01911
 C152 C 0.06328 0.50716 1.00477
 C153 C -0.00405 0.50830 0.93939
 C154 C -0.01597 0.50938 1.08456
 O155 O 0.01688 -0.05840 0.46409
 O156 O 0.00621 0.05116 0.46735
 O157 O 0.06641 -0.01115 0.46457
 O158 O -0.04302 0.00408 0.46603
 O159 O -0.05902 0.01833 0.53339
 O160 O 0.05031 0.00629 0.53202
 O161 O -0.01121 0.06733 0.53477
 O162 O 0.00276 -0.04260 0.53148
 Cu163 Cu 0.01322 -0.00523 0.45875
 Cu164 Cu -0.00595 0.01392 0.53969
 C165 C 0.01167 -0.06923 0.49728
 C166 C -0.00419 0.07799 0.50162
 C167 C 0.07705 -0.00429 0.49804
 C168 C -0.06970 0.01329 0.49984
 C169 C -0.24945 0.50315 1.01944
 C170 C -0.25541 0.46544 1.00060
 C171 C -0.29463 0.46265 0.99789
 C172 C -0.32901 0.49764 1.01332
 C173 C -0.32311 0.53545 1.03204
 C174 C -0.28386 0.53813 1.03524
 C175 C -0.20738 0.50582 1.02198
 C176 C -0.19515 0.54137 1.01804
 C177 C -0.15496 0.54286 1.01837
 C178 C -0.12597 0.50864 1.02204
 C179 C -0.13831 0.47346 1.02678
 C180 C -0.17859 0.47221 1.02713
 H181 H -0.29795 0.43283 0.98393
 H182 H -0.34874 0.56316 1.04387
 H183 H -0.14621 0.57029 1.01440
 H184 H -0.11674 0.44679 1.03014
 H185 H -0.28060 0.56759 1.05038
 H186 H -0.21620 0.56763 1.01347
 H187 H -0.22967 0.43797 0.98741
 H188 H -0.18709 0.44474 1.03133
 C189 C 0.23314 0.50180 0.99980
 C190 C 0.24452 0.51355 1.03635
 C191 C 0.28546 0.51210 1.03607
 C192 C 0.31653 0.49968 0.99890
 C193 C 0.30426 0.48768 0.96226
 C194 C 0.26342 0.48843 0.96285
 C195 C 0.18971 0.50353 1.00023
 C196 C 0.17980 0.46939 0.97873
 C197 C 0.13872 0.47066 0.97997
 C198 C 0.10682 0.50639 1.00212
 C199 C 0.11685 0.54084 1.02296
 C200 C 0.15788 0.53928 1.02231
 H201 H 0.29153 0.52333 1.06530
 H202 H 0.32614 0.47565 0.93275
 H203 H 0.13191 0.44366 0.96360
 H204 H 0.09290 0.56871 1.04045
 H205 H 0.25539 0.47888 0.93421
 H206 H 0.20382 0.44142 0.96164
 H207 H 0.22160 0.52393 1.06532
 H208 H 0.16484 0.56610 1.03887
 C209 C 0.01670 -0.23815 0.49660
 C210 C 0.04659 -0.26325 0.51022
 C211 C 0.04462 -0.30281 0.51255
 C212 C 0.01232 -0.31765 0.50197
 C213 C -0.01736 -0.29269 0.48801
 C214 C -0.01500 -0.25342 0.48502
 C215 C 0.01761 -0.19555 0.49585
 C216 C 0.01264 -0.18115 0.46142
 C217 C 0.01181 -0.14037 0.46146
 C218 C 0.01519 -0.11305 0.49623
 C219 C 0.02051 -0.12762 0.53053
 C220 C 0.02205 -0.16857 0.53021
 H221 H 0.06770 -0.32141 0.52365
 H222 H -0.04243 -0.30358 0.47950
 H223 H 0.00754 -0.12997 0.43464
 H224 H 0.02329 -0.10729 0.55772
 H225 H -0.03856 -0.23452 0.47471
 H226 H 0.00937 -0.20147 0.43449
 H227 H 0.07141 -0.25219 0.51914
 H228 H 0.02559 -0.17889 0.55724
 C229 C -0.01101 0.24853 0.50631
 C230 C -0.02470 0.26657 0.47660
 C231 C -0.02460 0.30713 0.47693
 C232 C -0.01098 0.33076 0.50707
 C233 C 0.00246 0.31286 0.53698
 C234 C 0.00243 0.27220 0.53661
 C235 C -0.01018 0.20500 0.50521
 C236 C -0.02123 0.19335 0.54153
 C237 C -0.01979 0.15223 0.54037
 C238 C -0.00732 0.12184 0.50286
 C239 C 0.00337 0.13357 0.46654
 C240 C 0.00201 0.17463 0.46771
 H241 H -0.03463 0.31976 0.45311
 H242 H 0.01279 0.33037 0.56083
 H243 H -0.02830 0.14423 0.56891
 H244 H 0.01334 0.11090 0.43715
 H245 H 0.01358 0.25907 0.55968
 H246 H -0.03130 0.21609 0.57086
 H247 H -0.03570 0.24938 0.45313
 H248 H 0.01131 0.18243 0.43921
 C249 C 0.50974 -0.01650 -0.25207
 C250 C 0.47502 0.00831 -0.25953
 C251 C 0.47394 0.01106 -0.29908
 C252 C 0.50785 -0.01062 -0.33286
 C253 C 0.54281 -0.03535 -0.32492
 C254 C 0.54365 -0.03825 -0.28523
 C255 C 0.51042 -0.01921 -0.20972
 C256 C 0.54654 -0.02082 -0.19602
 C257 C 0.54648 -0.02138 -0.15562
 C258 C 0.51024 -0.01997 -0.12794
 C259 C 0.47436 -0.01915 -0.14178
 C260 C 0.47451 -0.01902 -0.18223
 H261 H 0.44544 0.02918 -0.30269
 H262 H 0.57044 -0.05169 -0.34884
 H263 H 0.57458 -0.02184 -0.14579
 H264 H 0.44605 -0.01845 -0.12129
 H265 H 0.57090 -0.05783 -0.28061
 H266 H 0.57459 -0.02048 -0.21617
 H267 H 0.44847 0.02592 -0.23467
 H268 H 0.44640 -0.01874 -0.19196
 C269 C 0.50318 -0.00495 0.22977
 C270 C 0.48139 0.03034 0.26183
 C271 C 0.48229 0.03073 0.30222
 C272 C 0.50464 -0.00432 0.31140
 C273 C 0.52566 -0.03992 0.27943
 C274 C 0.52509 -0.04017 0.23902
 C275 C 0.50380 -0.00482 0.18673
 C276 C 0.54094 -0.02110 0.15624
 C277 C 0.54172 -0.02113 0.11564
 C278 C 0.50530 -0.00520 0.10454
 C279 C 0.46814 0.01124 0.13507
 C280 C 0.46745 0.01162 0.17580
 H281 H 0.46557 0.05847 0.32634
 H282 H 0.54340 -0.06723 0.28560
 H283 H 0.57084 -0.03408 0.09285
 H284 H 0.43956 0.02371 0.12749
 H285 H 0.54182 -0.06793 0.21492
 H286 H 0.56950 -0.03349 0.16391
 H287 H 0.46444 0.05797 0.25554
 H288 H 0.43836 0.02413 0.19867
 C289 C 0.50228 -0.25226 -0.02395
 C290 C 0.53700 -0.28693 -0.03957
 C291 C 0.53429 -0.32599 -0.03604
 C292 C 0.49671 -0.33139 -0.01711
 C293 C 0.46192 -0.29681 -0.00204
 C294 C 0.46474 -0.25777 -0.00512
 C295 C 0.50512 -0.21032 -0.02630
 C296 C 0.47167 -0.18153 -0.03171
 C297 C 0.47294 -0.14115 -0.03070
 C298 C 0.50796 -0.12876 -0.02500
 C299 C 0.54207 -0.15781 -0.02121
 C300 C 0.54057 -0.19809 -0.02157
 H301 H 0.56182 -0.35183 -0.04763
 H302 H 0.43229 -0.29984 0.01205
 H303 H 0.44636 -0.11951 -0.03417
 H304 H 0.56938 -0.14901 -0.01652
 H305 H 0.43749 -0.23178 0.00790
 H306 H 0.44428 -0.19009 -0.03648
 H307 H 0.56630 -0.28397 -0.05469
 H308 H 0.56670 -0.21918 -0.01678
 C309 C 0.50294 0.23170 0.00642
 C310 C 0.47259 0.25640 -0.00712
 C311 C 0.47217 0.29709 -0.00696
 C312 C 0.50210 0.31402 0.00674
 C313 C 0.53233 0.28936 0.02043
 C314 C 0.53272 0.24872 0.02032
 C315 C 0.50386 0.18819 0.00553
 C316 C 0.54151 0.15703 -0.00645
 C317 C 0.54235 0.11593 -0.00831
 C318 C 0.50555 0.10504 0.00166
 C319 C 0.46794 0.13626 0.01414
 C320 C 0.46711 0.17735 0.01609
 H321 H 0.44824 0.31540 -0.01732
 H322 H 0.55615 0.30126 0.03067
 H323 H 0.57182 0.09260 -0.01823
 H324 H 0.43904 0.12892 0.02218
 H325 H 0.55624 0.23068 0.03136
 H326 H 0.57034 0.16425 -0.01531
 H327 H 0.44950 0.24407 -0.01847
 H328 H 0.43766 0.20071 0.02607
 C329 C -0.23727 0.01614 0.49533
 C330 C -0.24333 -0.00762 0.45996
 C331 C -0.28256 -0.01047 0.45752
 C332 C -0.31738 0.01010 0.49065
 C333 C -0.31090 0.03404 0.52617
 C334 C -0.27151 0.03696 0.52840
 C335 C -0.19518 0.01848 0.49760
 C336 C -0.18229 0.01786 0.53381
 C337 C -0.14181 0.01737 0.53495
 C338 C -0.11334 0.01716 0.49982
 C339 C -0.12651 0.01888 0.46398
 C340 C -0.16699 0.01976 0.46295
 H341 H -0.28515 -0.02783 0.42871
 H342 H -0.33573 0.04953 0.55320
 H343 H -0.13251 0.01590 0.56298
 H344 H -0.10541 0.01920 0.43653
 H345 H -0.26793 0.05571 0.55610
 H346 H -0.20307 0.01642 0.56091
 H347 H -0.21758 -0.02445 0.43399
 H348 H -0.17614 0.02121 0.43484
 C349 C 0.24689 -0.01072 0.49544
 C350 C 0.27002 0.00273 0.46545
 C351 C 0.31052 0.00310 0.46539
 C352 C 0.32875 -0.00998 0.49532
 C353 C 0.30564 -0.02355 0.52519
 C354 C 0.26524 -0.02399 0.52520
 C355 C 0.20359 -0.01034 0.49609
 C356 C 0.17346 0.00215 0.53337
 C357 C 0.13254 0.00338 0.53404
 C358 C 0.12077 -0.00772 0.49743
 C359 C 0.15096 -0.02065 0.46016
 C360 C 0.19192 -0.02198 0.45950
 H361 H 0.32764 0.01337 0.44176
 H362 H 0.31859 -0.03330 0.54899
 H363 H 0.11000 0.01371 0.56325
 H364 H 0.14291 -0.02951 0.43141
 H365 H 0.24842 -0.03496 0.54844
 H366 H 0.18134 0.01186 0.56205
 H367 H 0.25661 0.01359 0.44238
 H368 H 0.21452 -0.03233 0.43034
 C369 C -0.01668 0.50883 1.25236
 C370 C -0.03629 0.54411 1.28522
 C371 C -0.03379 0.54350 1.32506
 C372 C -0.01198 0.50747 1.33312
 C373 C 0.00726 0.47211 1.30030
 C374 C 0.00519 0.47287 1.26047
 C375 C -0.01842 0.50956 1.20973
 C376 C -0.01991 0.47418 1.18174
 C377 C -0.01948 0.47421 1.14119
 C378 C -0.01821 0.50980 1.12783
 C379 C -0.01778 0.54549 1.15594
 C380 C -0.01761 0.54530 1.19634
 H381 H -0.04864 0.57144 1.34947
 H382 H 0.02370 0.44356 1.30535
 H383 H -0.02019 0.44636 1.12028
 H384 H -0.01648 0.57330 1.14643
 H385 H 0.02124 0.44530 1.23595
 H386 H -0.02148 0.44639 1.19113
 H387 H -0.05386 0.57221 1.28025
 H388 H -0.01577 0.57288 1.21676
 C389 C -0.00217 0.50836 0.77144
 C390 C -0.03736 0.53080 0.76246
 C391 C -0.03754 0.53169 0.72221
 C392 C -0.00240 0.51048 0.69017
 C393 C 0.03269 0.48775 0.69908
 C394 C 0.03273 0.48652 0.73930
 C395 C -0.00176 0.50828 0.81429
 C396 C 0.01437 0.47138 0.82426
 C397 C 0.01397 0.47135 0.86485
 C398 C -0.00219 0.50832 0.89620
 C399 C -0.01772 0.54530 0.88605
 C400 C -0.01767 0.54524 0.84557
 H401 H -0.06488 0.54971 0.71624
 H402 H 0.06008 0.47086 0.67489
 H403 H 0.02614 0.44236 0.87169
 H404 H -0.03044 0.57429 0.90948
 H405 H 0.06033 0.46918 0.74540
 H406 H 0.02659 0.44242 0.80075
 H407 H -0.06482 0.54758 0.78661
 H408 H -0.02983 0.57420 0.83866
   
