data_POSCAR
  _audit_creation_date              2014-09-24
  _audit_creation_method            'ToBaCCo'
  _symmetry_space_group_name_H-M    'P1'
  _symmetry_Int_Tables_number       1
  _symmetry_cell_setting            triclinic
  loop_
  _symmetry_equiv_pos_as_xyz
 x,y,z
_cell_length_a 30.9021
_cell_length_b 29.8902
_cell_length_c 31.4104
_cell_angle_alpha 91.040900
_cell_angle_beta 90.068300
_cell_angle_gamma 89.651000
loop_
  _atom_site_label
  _atom_site_type_symbol
  _atom_site_fract_x
  _atom_site_fract_y
  _atom_site_fract_z
C1 C 0.31760 0.40193 1.35619
 C2 C 0.34864 0.39894 1.32370
 C3 C 0.37891 0.36465 1.32354
 C4 C 0.37852 0.33286 1.35584
 C5 C 0.34852 0.33652 1.38833
 C6 C 0.31772 0.37102 1.38836
 C7 C 0.28233 0.42947 1.36277
 N8 N 0.26085 0.41577 1.39790
 C9 C 0.28263 0.38010 1.41397
 C10 C 0.35505 0.30108 1.41480
 N11 N 0.38774 0.27538 1.39884
 C12 C 0.40243 0.29461 1.36265
 C13 C 0.40408 0.36928 1.28783
 N14 N 0.38986 0.40570 1.26636
 C15 C 0.35579 0.42375 1.28796
 H16 H 0.27210 0.45655 1.34254
 H17 H 0.27319 0.36077 1.44116
 H18 H 0.33659 0.29384 1.44313
 H19 H 0.42863 0.28226 1.34279
 H20 H 0.43020 0.34713 1.27817
 H21 H 0.33743 0.45280 1.27820
 C22 C 1.17127 0.60606 0.87259
 C23 C 1.13792 0.60307 0.84230
 C24 C 1.10604 0.63570 0.84139
 C25 C 1.10699 0.67175 0.87059
 C26 C 1.13953 0.67443 0.90075
 C27 C 1.17205 0.64141 0.90164
 C28 C 1.20761 0.58036 0.87966
 N29 N 1.23068 0.59934 0.91228
 C30 C 1.20890 0.63657 0.92590
 C31 C 1.13278 0.71334 0.92411
 N32 N 1.09701 0.73449 0.90857
 C33 C 1.08130 0.70924 0.87572
 C34 C 1.07882 0.62515 0.80809
 N35 N 1.09329 0.58703 0.78861
 C36 C 1.12959 0.57323 0.80931
 H37 H 1.21640 0.55059 0.86155
 H38 H 1.21959 0.65912 0.95111
 H39 H 1.15339 0.72556 0.94957
 H40 H 1.05323 0.71768 0.85671
 H41 H 1.05083 0.64432 0.79817
 H42 H 1.14905 0.54422 0.80091
 C43 C 0.70359 -0.10900 0.14225
 C44 C 0.67190 -0.11191 0.17407
 C45 C 0.64125 -0.14553 0.17183
 C46 C 0.64214 -0.17690 0.13801
 C47 C 0.67389 -0.17436 0.10730
 C48 C 0.70463 -0.14036 0.10941
 C49 C 0.73712 -0.07975 0.13546
 N50 N 0.75834 -0.09311 0.09932
 C51 C 0.73874 -0.13029 0.08354
 C52 C 0.66779 -0.20905 0.07881
 N53 N 0.63284 -0.23272 0.09113
 C54 C 0.61681 -0.21326 0.12749
 C55 C 0.61489 -0.14045 0.20686
 N56 N 0.62883 -0.10464 0.23032
 C57 C 0.66377 -0.08715 0.21062
 H58 H 0.74548 -0.05151 0.15578
 H59 H 0.74844 -0.14855 0.05496
 H60 H 0.68743 -0.21659 0.05101
 H61 H 0.58936 -0.22466 0.14555
 H62 H 0.58815 -0.16187 0.21499
 H63 H 0.68188 -0.05847 0.22210
 C64 C -0.18859 1.09568 -0.35024
 C65 C -0.15727 1.09578 -0.31798
 C66 C -0.12788 1.13028 -0.31503
 C67 C -0.12967 1.16538 -0.34383
 C68 C -0.16084 1.16585 -0.37550
 C69 C -0.19086 1.13055 -0.37868
 C70 C -0.22070 1.06593 -0.36073
 N71 N -0.24315 1.08174 -0.39447
 C72 C -0.22520 1.12146 -0.40572
 C73 C -0.15445 1.20447 -0.39824
 N74 N -0.12024 1.22712 -0.38083
 C75 C -0.10518 1.20323 -0.34758
 C76 C -0.10184 1.12232 -0.28047
 N77 N -0.11494 1.08386 -0.26220
 C78 C -0.14898 1.06749 -0.28475
 H79 H -0.22754 1.03502 -0.34463
 H80 H -0.23554 1.14202 -0.43188
 H81 H -0.17355 1.21484 -0.42523
 H82 H -0.07818 1.21277 -0.32741
 H83 H -0.07624 1.14381 -0.26868
 H84 H -0.16666 1.03751 -0.27718
 C85 C 0.66225 0.60486 0.65366
 C86 C 0.63398 0.61686 0.68693
 C87 C 0.61045 0.65647 0.68529
 C88 C 0.61434 0.68420 0.64979
 C89 C 0.64246 0.67227 0.61729
 C90 C 0.66648 0.63264 0.61927
 C91 C 0.69180 0.57047 0.64814
 N92 N 0.71400 0.57740 0.61161
 C93 C 0.69834 0.61510 0.59353
 C94 C 0.64172 0.70576 0.58805
 N95 N 0.61319 0.73767 0.60127
 C96 C 0.59628 0.72490 0.63927
 C97 C 0.58864 0.66109 0.72341
 N98 N 0.59792 0.62510 0.74762
 C99 C 0.62566 0.59792 0.72560
 H100 H 0.69828 0.54374 0.67010
 H101 H 0.71004 0.62949 0.56437
 H102 H 0.66048 0.70673 0.55896
 H103 H 0.57328 0.74379 0.65843
 H104 H 0.56822 0.68897 0.73323
 H105 H 0.64022 0.56760 0.73756
 C106 C 0.82256 0.39693 0.16387
 C107 C 0.85543 0.39806 0.19451
 C108 C 0.89253 0.37264 0.18881
 C109 C 0.89694 0.34510 0.15231
 C110 C 0.86462 0.34436 0.12166
 C111 C 0.82719 0.37103 0.12721
 C112 C 0.78228 0.41651 0.16285
 N113 N 0.76232 0.40421 0.12605
 C114 C 0.78958 0.37636 0.10379
 C115 C 0.87636 0.31238 0.09158
 N116 N 0.91463 0.29341 0.10326
 C117 C 0.92761 0.31367 0.14033
 C118 C 0.91821 0.37988 0.22424
 N119 N 0.89743 0.40929 0.25092
 C120 C 0.85892 0.42015 0.23308
 H121 H 0.76837 0.43816 0.18733
 H122 H 0.78214 0.35965 0.07384
 H123 H 0.85739 0.30228 0.06406
 H124 H 0.95609 0.30523 0.15861
 H125 H 0.94923 0.36425 0.23029
 H126 H 0.83512 0.44258 0.24726
 C127 C 0.31789 0.11904 0.83119
 C128 C 0.34198 0.11948 0.79327
 C129 C 0.37383 0.15119 0.78826
 C130 C 0.38240 0.18239 0.82073
 C131 C 0.35904 0.18179 0.85818
 C132 C 0.32626 0.15016 0.86330
 C133 C 0.28285 0.09451 0.84395
 N134 N 0.26936 0.11034 0.88261
 C135 C 0.29603 0.14436 0.89478
 C136 C 0.37275 0.21745 0.88288
 N137 N 0.40365 0.23951 0.86096
 C138 C 0.40955 0.21852 0.82287
 C139 C 0.39110 0.14525 0.74842
 N140 N 0.37053 0.11059 0.72869
 C141 C 0.34053 0.09446 0.75594
 H142 H 0.26715 0.06820 0.82560
 H143 H 0.29330 0.16457 0.92355
 H144 H 0.35973 0.22782 0.91351
 H145 H 0.43116 0.22957 0.79812
 H146 H 0.41739 0.16439 0.73539
 H147 H 0.31922 0.06664 0.74902
 C148 C 0.17962 0.86639 0.33590
 C149 C 0.14970 0.86585 0.30228
 C150 C 0.12109 0.83072 0.29803
 C151 C 0.12163 0.79596 0.32729
 C152 C 0.15054 0.79680 0.36097
 C153 C 0.18013 0.83220 0.36508
 C154 C 0.21287 0.89486 0.34631
 N155 N 0.23395 0.87890 0.38088
 C156 C 0.21393 0.84054 0.39277
 C157 C 0.14363 0.75854 0.38392
 N158 N 0.11153 0.73474 0.36456
 C159 C 0.09822 0.75714 0.32978
 C160 C 0.09676 0.83801 0.26222
 N161 N 0.10965 0.87678 0.24459
 C162 C 0.14224 0.89414 0.26877
 H163 H 0.22187 0.92453 0.32918
 H164 H 0.22360 0.81928 0.41864
 H165 H 0.16121 0.74832 0.41198
 H166 H 0.07318 0.74598 0.30797
 H167 H 0.07156 0.81648 0.24963
 H168 H 0.15969 0.92454 0.26236
 Zn169 Zn 0.03387 1.00700 -0.05480
 Zn170 Zn 0.00980 0.96743 0.02702
 Zn171 Zn 0.04848 1.05952 0.02699
 Zn172 Zn -0.04137 1.04370 -0.00654
 O173 O 0.01284 1.01966 -0.00171
 O174 O 0.04651 0.94884 -0.06414
 O175 O 0.04079 0.96931 0.07434
 O176 O 0.09491 1.07442 -0.00470
 O177 O 0.02982 0.91970 -0.00223
 O178 O 0.08259 1.03601 -0.06457
 O179 O 0.07002 1.03672 0.07583
 O180 O -0.04506 1.09839 0.01656
 O181 O -0.04382 0.95427 0.04347
 O182 O 0.02071 1.11139 0.04189
 O183 O -0.08161 1.01206 0.02020
 O184 O -0.05899 1.04912 -0.06075
 O185 O -0.00213 1.02303 -0.09621
 C186 C 0.04445 0.91555 -0.03980
 C187 C 0.06451 0.99858 0.09220
 C188 C 0.10559 1.06251 -0.04239
 C189 C -0.01839 1.12357 0.03592
 C190 C -0.07920 0.97552 0.04001
 C191 C -0.03970 1.04031 -0.09556
 Zn192 Zn 0.47328 -0.00365 0.42353
 Zn193 Zn 0.45384 -0.03541 0.51079
 Zn194 Zn 0.54616 -0.03031 0.48109
 Zn195 Zn 0.49538 0.05316 0.49902
 O196 O 0.49229 -0.00417 0.47861
 O197 O 0.42330 -0.03271 0.41615
 O198 O 0.47863 -0.08183 0.53623
 O199 O 0.56491 -0.04981 0.42954
 O200 O 0.40883 -0.05697 0.48070
 O201 O 0.51053 -0.03001 0.38775
 O202 O 0.54696 -0.07806 0.51524
 O203 O 0.54916 0.06946 0.51311
 O204 O 0.43111 -0.00271 0.55348
 O205 O 0.58713 0.00742 0.50130
 O206 O 0.46290 0.06267 0.54538
 O207 O 0.47772 0.09309 0.46144
 O208 O 0.46400 0.05168 0.40398
 C209 C 0.39920 -0.05362 0.44156
 C210 C 0.51721 -0.09641 0.53664
 C211 C 0.54733 -0.04817 0.39300
 C212 C 0.58481 0.04827 0.51315
 C213 C 0.43741 0.03742 0.56542
 C214 C 0.46593 0.08947 0.42287
 Zn215 Zn 1.02485 0.49902 0.47181
 Zn216 Zn 1.02482 0.45585 0.55794
 Zn217 Zn 0.98905 0.54819 0.54655
 Zn218 Zn 0.94187 0.46965 0.51031
 O219 O 0.99525 0.49300 0.52173
 O220 O 1.07456 0.46905 0.47244
 O221 O 1.03855 0.48310 0.60811
 O222 O 1.01498 0.59166 0.51801
 O223 O 1.07541 0.43674 0.53540
 O224 O 1.03990 0.55575 0.46093
 O225 O 1.01169 0.55104 0.59856
 O226 O 0.89847 0.50565 0.52743
 O227 O 0.99445 0.40624 0.57054
 O228 O 0.93386 0.56483 0.55229
 O229 O 0.93323 0.41746 0.53555
 O230 O 0.93352 0.45812 0.45476
 O231 O 0.99571 0.47826 0.42616
 C232 C 1.09301 0.44474 0.49983
 C233 C 1.03159 0.52300 0.62127
 C234 C 1.03510 0.59150 0.48291
 C235 C 0.89882 0.54461 0.54417
 C236 C 0.95679 0.39367 0.55941
 C237 C 0.95800 0.46193 0.42266
 Zn238 Zn 0.47090 0.48305 0.95741
 Zn239 Zn 0.54755 0.53011 0.99273
 Zn240 Zn 0.46278 0.53339 1.03952
 Zn241 Zn 0.51430 0.44867 1.03542
 O242 O 0.49894 0.49885 1.00632
 O243 O 0.49861 0.49972 0.91051
 O244 O 0.54932 0.58336 1.01988
 O245 O 0.41200 0.54592 1.01409
 O246 O 0.55242 0.54042 0.93659
 O247 O 0.41800 0.50739 0.95359
 O248 O 0.48657 0.58571 1.05406
 O249 O 0.49121 0.44723 1.08744
 O250 O 0.59655 0.50104 1.00709
 O251 O 0.44982 0.50789 1.08912
 O252 O 0.57180 0.44231 1.04134
 O253 O 0.49564 0.39833 1.01001
 O254 O 0.46364 0.42429 0.95234
 C255 C 0.53114 0.52459 0.90519
 C256 C 0.52267 0.60296 1.04489
 C257 C 0.39666 0.53322 0.97840
 C258 C 0.46389 0.47253 1.10621
 C259 C 0.60304 0.46532 1.02750
 C260 C 0.47463 0.39203 0.97579
 C261 C 1.22275 0.43405 0.41157
 C262 C 1.20087 0.41928 0.44534
 C263 C 1.15838 0.43869 0.45614
 C264 C 1.13595 0.42561 0.49009
 H265 H 1.21333 0.39256 0.46467
 H266 H 1.14505 0.46407 0.43556
 H267 H 1.20896 0.46138 0.39362
 H268 H 1.14953 0.40097 0.51128
 C269 C 0.26947 0.58584 0.92875
 C270 C 0.29150 0.54993 0.91374
 C271 C 0.33463 0.53547 0.92911
 C272 C 0.35319 0.54901 0.96577
 H273 H 0.27891 0.53044 0.88730
 H274 H 0.35148 0.51137 0.90888
 H275 H 0.28331 0.60588 0.95429
 H276 H 0.33647 0.57166 0.98744
 C277 C -0.20641 0.92535 0.08085
 C278 C -0.18965 0.96473 0.09326
 C279 C -0.15112 0.98312 0.07242
 C280 C -0.11797 0.95708 0.05977
 H281 H -0.20547 0.98546 0.11718
 H282 H -0.14903 1.01913 0.06979
 H283 H -0.19193 0.90777 0.05384
 H284 H -0.11810 0.92161 0.06628
 C285 C 0.72274 0.05959 0.58759
 C286 C 0.69623 0.07747 0.55864
 C287 C 0.65892 0.05172 0.54224
 C288 C 0.62387 0.07250 0.52720
 H289 H 0.70022 0.11166 0.54868
 H290 H 0.65919 0.01558 0.54469
 H291 H 0.71549 0.02629 0.59873
 H292 H 0.62273 0.10877 0.52746
 C293 C 0.40190 0.23723 0.41740
 C294 C 0.42836 0.20766 0.39806
 C295 C 0.44188 0.16728 0.42057
 C296 C 0.45392 0.12995 0.39966
 H297 H 0.43864 0.21188 0.36547
 H298 H 0.44018 0.16762 0.45507
 H299 H 0.38969 0.22948 0.44880
 H300 H 0.45302 0.12853 0.36517
 C301 C 0.89761 0.26670 0.60739
 C302 C 0.88305 0.29088 0.57465
 C303 C 0.90167 0.33427 0.56180
 C304 C 0.94032 0.35037 0.57437
 H305 H 0.85523 0.27974 0.55660
 H306 H 0.88240 0.35329 0.53960
 H307 H 0.92457 0.27917 0.62601
 H308 H 0.96115 0.33141 0.59511
 C309 C 0.07935 0.77442 -0.07845
 C310 C 0.09199 0.79649 -0.04298
 C311 C 0.07264 0.83954 -0.02871
 C312 C 0.06011 0.87157 -0.05550
 H313 H 0.11529 0.78171 -0.02168
 H314 H 0.07211 0.84630 0.00529
 H315 H 0.05293 0.78820 -0.09692
 H316 H 0.06423 0.86668 -0.08952
 C317 C 0.61866 0.73016 1.06976
 C318 C 0.58283 0.70810 1.08028
 C319 C 0.57087 0.66695 1.05689
 C320 C 0.53374 0.64621 1.06491
 H321 H 0.56232 0.71975 1.10611
 H322 H 0.59320 0.65290 1.03356
 H323 H 0.63734 0.71793 1.04265
 H324 H 0.51133 0.66064 1.08797
 C325 C 0.40598 0.42277 1.22695
 C326 C 0.44265 0.40754 1.20884
 C327 C 0.45957 0.42276 1.16757
 C328 C 0.44732 0.46055 1.14842
 H329 H 0.46097 0.38121 1.22374
 H330 H 0.48387 0.40145 1.15265
 H331 H 0.38713 0.44853 1.21171
 H332 H 0.42438 0.48329 1.16336
 C333 C 0.61097 -0.08773 0.26971
 C334 C 0.56987 -0.09554 0.28067
 C335 C 0.54921 -0.07617 0.31913
 C336 C 0.57015 -0.06761 0.35579
 H337 H 0.54900 -0.11376 0.25890
 H338 H 0.51456 -0.07076 0.31742
 H339 H 0.63069 -0.06587 0.28949
 H340 H 0.60411 -0.07610 0.35901
 C341 C -0.09810 1.06501 -0.22386
 C342 C -0.05700 1.07160 -0.21196
 C343 C -0.03841 1.05480 -0.17210
 C344 C -0.06103 1.05162 -0.13591
 H345 H -0.03520 1.08873 -0.23303
 H346 H -0.00375 1.04911 -0.17176
 H347 H -0.11899 1.04413 -0.20507
 H348 H -0.09497 1.06086 -0.13508
 C349 C 1.07328 0.56772 0.75122
 C350 C 1.08921 0.53164 0.73026
 C351 C 1.07089 0.51390 0.68965
 C352 C 1.04711 0.53883 0.66323
 H353 H 1.11676 0.51385 0.74291
 H354 H 1.07981 0.48009 0.68012
 H355 H 1.04425 0.58389 0.73971
 H356 H 1.04014 0.57346 0.67122
 C357 C 0.75042 0.55138 0.59707
 C358 C 0.78266 0.57039 0.57577
 C359 C 0.82180 0.54538 0.56332
 C360 C 0.85804 0.56751 0.55463
 H361 H 0.78141 0.60589 0.56951
 H362 H 0.82156 0.50910 0.56302
 H363 H 0.75316 0.51671 0.60631
 H364 H 0.85855 0.60370 0.55780
 C365 C 0.72116 0.41700 1.11615
 C366 C 0.70425 0.41339 1.07697
 C367 C 0.65917 0.42768 1.06944
 C368 C 0.64792 0.45021 1.03473
 H369 H 0.72381 0.40228 1.05019
 H370 H 0.63529 0.42175 1.09395
 H371 H 0.70165 0.43300 1.14087
 H372 H 0.67256 0.45962 1.01211
 C373 C 0.23345 1.09519 -0.09720
 C374 C 0.21824 1.11307 -0.06043
 C375 C 0.17746 1.09861 -0.04023
 C376 C 0.14541 1.07885 -0.06209
 H377 H 0.23605 1.13880 -0.04353
 H378 H 0.17348 1.10569 -0.00651
 H379 H 0.21629 1.06763 -0.11217
 H380 H 0.14827 1.07316 -0.09607
 C381 C 0.27002 -0.10156 0.39775
 C382 C 0.29154 -0.11752 0.43153
 C383 C 0.33172 -0.09702 0.44848
 C384 C 0.35929 -0.07386 0.42450
 H385 H 0.27915 -0.14563 0.44876
 H386 H 0.33955 -0.10310 0.48150
 H387 H 0.28168 -0.07149 0.38294
 H388 H 0.35307 -0.06985 0.39087
 C389 C 0.60468 -0.22481 0.57870
 C390 C 0.57271 -0.19606 0.58838
 C391 C 0.56459 -0.15714 0.56136
 C392 C 0.52696 -0.13511 0.56335
 H393 H 0.55127 -0.20186 0.61489
 H394 H 0.58914 -0.14725 0.53881
 H395 H 0.62375 -0.21884 0.55037
 H396 H 0.50198 -0.14630 0.58484
 C397 C 1.09469 0.69228 0.37688
 C398 C 1.08990 0.68178 0.41771
 C399 C 1.07022 0.63904 0.42973
 C400 C 1.05404 0.63380 0.46873
 H401 H 1.09888 0.70575 0.44243
 H402 H 1.06828 0.61203 0.40630
 H403 H 1.08259 0.66969 0.35228
 H404 H 1.05456 0.66170 0.49128
 C405 C -0.06664 1.25796 0.08205
 C406 C -0.02966 1.23796 0.09478
 C407 C -0.01137 1.19644 0.07488
 C408 C -0.03496 1.16713 0.05203
 H409 H -0.01133 1.25189 0.12108
 H410 H 0.02200 1.18833 0.08220
 H411 H -0.08297 1.24513 0.05393
 H412 H -0.06891 1.17371 0.04639
 C413 C 0.42342 0.28099 0.87289
 C414 C 0.43029 0.29239 0.91352
 C415 C 0.44743 0.33669 0.92456
 C416 C 0.46178 0.34638 0.96368
 H417 H 0.42275 0.26926 0.93859
 H418 H 0.44748 0.36212 0.90035
 H419 H 0.43359 0.30322 0.84794
 H420 H 0.46341 0.32055 0.98743
 C421 C 0.58345 0.61907 0.79055
 C422 C 0.57766 0.57825 0.80616
 C423 C 0.56401 0.57165 0.85050
 C424 C 0.54462 0.53373 0.86137
 H425 H 0.58208 0.54910 0.78558
 H426 H 0.56918 0.59803 0.87407
 H427 H 0.57582 0.64834 0.81008
 H428 H 0.53685 0.50899 0.83690
 C429 C 0.38019 0.09197 0.68725
 C430 C 0.40331 0.11475 0.65876
 C431 C 0.41948 0.09669 0.61766
 C432 C 0.41540 0.05419 0.60408
 H433 H 0.41243 0.14890 0.66597
 H434 H 0.43792 0.11975 0.59873
 H435 H 0.36863 0.05870 0.67980
 H436 H 0.39721 0.03030 0.62211
 C437 C 0.09134 0.89373 0.20602
 C438 C 0.10068 0.93388 0.19029
 C439 C 0.07989 0.94752 0.15032
 C440 C 0.08610 0.98745 0.13268
 H441 H 0.12291 0.95629 0.20644
 H442 H 0.05859 0.92360 0.13472
 H443 H 0.06826 0.87268 0.18915
 H444 H 0.10712 1.01183 0.14791
 C445 C 0.91135 0.42604 0.29184
 C446 C 0.95257 0.42353 0.30501
 C447 C 0.96758 0.44140 0.34672
 C448 C 0.94182 0.44631 0.38087
 H449 H 0.97705 0.40985 0.28383
 H450 H 1.00180 0.44844 0.34975
 H451 H 0.88756 0.44314 0.31159
 H452 H 0.90823 0.43639 0.37914
   
