data_POSCAR
  _audit_creation_date              2014-09-24
  _audit_creation_method            'ToBaCCo'
  _symmetry_space_group_name_H-M    'P1'
  _symmetry_Int_Tables_number       1
  _symmetry_cell_setting            triclinic
  loop_
  _symmetry_equiv_pos_as_xyz
 x,y,z
_cell_length_a 27.3440
_cell_length_b 27.2086
_cell_length_c 19.0440
_cell_angle_alpha 89.560800
_cell_angle_beta 89.844700
_cell_angle_gamma 90.078400
loop_
  _atom_site_label
  _atom_site_type_symbol
  _atom_site_fract_x
  _atom_site_fract_y
  _atom_site_fract_z
C1 C 1.27938 0.18494 0.30291
 C2 C 1.24737 0.22308 0.28508
 C3 C 1.20186 0.21206 0.25585
 C4 C 1.18822 0.16347 0.24245
 C5 C 1.22144 0.12534 0.25873
 C6 C 1.26766 0.13561 0.28879
 C7 C 1.26386 0.27479 0.28752
 C8 C 1.30948 0.28746 0.25938
 C9 C 1.32278 0.33680 0.24805
 C10 C 1.28912 0.37384 0.26780
 C11 C 1.24372 0.36145 0.29913
 C12 C 1.23180 0.31175 0.30876
 H13 H 1.31454 0.19470 0.32457
 H14 H 1.17856 0.24200 0.23922
 H15 H 1.33236 0.25813 0.24019
 H16 H 1.19649 0.30139 0.33005
 H17 H 1.21076 0.08789 0.24841
 H18 H 1.29849 0.41212 0.26007
 C19 C 0.76811 -0.31626 0.29481
 C20 C 0.73544 -0.28168 0.26625
 C21 C 0.68996 -0.29735 0.24088
 C22 C 0.67678 -0.34687 0.24485
 C23 C 0.71002 -0.38135 0.27200
 C24 C 0.75662 -0.36668 0.29604
 C25 C 0.74991 -0.22945 0.25985
 C26 C 0.79650 -0.21707 0.23461
 C27 C 0.81059 -0.16782 0.22601
 C28 C 0.77681 -0.13056 0.24304
 C29 C 0.72973 -0.14246 0.26837
 C30 C 0.71682 -0.19209 0.27668
 H31 H 0.80326 -0.30361 0.31337
 H32 H 0.66482 -0.27111 0.21773
 H33 H 0.82090 -0.24628 0.21905
 H34 H 0.68077 -0.20192 0.29584
 H35 H 0.69894 -0.41951 0.27410
 H36 H 0.78740 -0.09242 0.23759
 C37 C 0.76564 0.18374 -0.20295
 C38 C 0.73134 0.21739 -0.22955
 C39 C 0.68546 0.20047 -0.25169
 C40 C 0.67379 0.15048 -0.24688
 C41 C 0.70870 0.11703 -0.22123
 C42 C 0.75527 0.13337 -0.20055
 C43 C 0.74539 0.26943 -0.23984
 C44 C 0.79104 0.28065 -0.26903
 C45 C 0.80576 0.32942 -0.28147
 C46 C 0.77264 0.36751 -0.26396
 C47 C 0.72641 0.35671 -0.23404
 C48 C 0.71329 0.30740 -0.22262
 H49 H 0.80135 0.19674 -0.18699
 H50 H 0.65923 0.22592 -0.27414
 H51 H 0.81378 0.25031 -0.28491
 H52 H 0.67793 0.29822 -0.20042
 H53 H 0.69992 0.07822 -0.21942
 H54 H 0.78312 0.40548 -0.27167
 C55 C 1.27866 -0.31184 -0.20270
 C56 C 1.24742 -0.27356 -0.22235
 C57 C 1.20213 -0.28431 -0.25246
 C58 C 1.18773 -0.33292 -0.26405
 C59 C 1.22016 -0.37126 -0.24573
 C60 C 1.26622 -0.36116 -0.21522
 C61 C 1.26390 -0.22201 -0.21787
 C62 C 1.31069 -0.20897 -0.24153
 C63 C 1.32476 -0.15958 -0.24663
 C64 C 1.29114 -0.12284 -0.22713
 C65 C 1.24416 -0.13558 -0.20233
 C66 C 1.23130 -0.18532 -0.19710
 H67 H 1.31362 -0.30230 -0.18023
 H68 H 1.17940 -0.25427 -0.27027
 H69 H 1.33481 -0.23739 -0.26074
 H70 H 1.19504 -0.19575 -0.17952
 H71 H 1.20891 -0.40876 -0.25442
 H72 H 1.30156 -0.08455 -0.23149
 C73 C 0.20585 0.30547 0.75864
 C74 C 0.22239 0.25770 0.77205
 C75 C 0.18821 0.22029 0.78377
 C76 C 0.13795 0.22921 0.78055
 C77 C 0.12139 0.27766 0.76852
 C78 C 0.15557 0.31600 0.75561
 C79 C 0.27490 0.24503 0.76551
 C80 C 0.31174 0.27676 0.78906
 C81 C 0.36156 0.26549 0.77853
 C82 C 0.37352 0.22006 0.74693
 C83 C 0.33672 0.18737 0.72512
 C84 C 0.28793 0.20112 0.73266
 H85 H 0.23234 0.33351 0.74484
 H86 H 0.20093 0.18336 0.79527
 H87 H 0.30108 0.31078 0.81370
 H88 H 0.25962 0.17820 0.71065
 H89 H 0.08254 0.28474 0.76412
 H90 H 0.41122 0.20910 0.74080
 C91 C 0.71879 0.80078 0.74874
 C92 C 0.72942 0.75574 0.78097
 C93 C 0.69127 0.72412 0.80027
 C94 C 0.64233 0.73587 0.78504
 C95 C 0.63246 0.78138 0.75141
 C96 C 0.67053 0.81446 0.73321
 C97 C 0.78092 0.73963 0.78638
 C98 C 0.81741 0.77310 0.80533
 C99 C 0.86703 0.76124 0.79819
 C100 C 0.87988 0.71413 0.77392
 C101 C 0.84345 0.67953 0.75651
 C102 C 0.79418 0.69277 0.76326
 H103 H 0.74912 0.82323 0.73139
 H104 H 0.70064 0.68935 0.82449
 H105 H 0.80684 0.80943 0.82243
 H106 H 0.76590 0.66806 0.74532
 H107 H 0.59512 0.79171 0.74095
 H108 H 0.91802 0.70442 0.76823
 C109 C 0.71592 0.30667 0.24785
 C110 C 0.72922 0.26078 0.27551
 C111 C 0.69273 0.22781 0.29705
 C112 C 0.64317 0.23950 0.28904
 C113 C 0.63030 0.28576 0.26111
 C114 C 0.66667 0.31970 0.24051
 C115 C 0.78113 0.24573 0.27562
 C116 C 0.81775 0.27950 0.29271
 C117 C 0.86729 0.26745 0.28527
 C118 C 0.87998 0.22013 0.26194
 C119 C 0.84344 0.18544 0.24567
 C120 C 0.79423 0.19878 0.25267
 H121 H 0.74419 0.33092 0.22799
 H122 H 0.70320 0.19223 0.31783
 H123 H 0.80737 0.31583 0.30998
 H124 H 0.76582 0.17377 0.23610
 H125 H 0.59213 0.29534 0.25538
 H126 H 0.91809 0.21021 0.25667
 C127 C 0.21248 0.80037 0.25121
 C128 C 0.22372 0.75389 0.27841
 C129 C 0.18602 0.72147 0.29642
 C130 C 0.13683 0.73363 0.28419
 C131 C 0.12620 0.78032 0.25445
 C132 C 0.16389 0.81447 0.23849
 C133 C 0.27517 0.73733 0.28029
 C134 C 0.31218 0.76921 0.30227
 C135 C 0.36156 0.75663 0.29436
 C136 C 0.37361 0.71055 0.26571
 C137 C 0.33665 0.67766 0.24461
 C138 C 0.28763 0.69154 0.25237
 H139 H 0.24246 0.82374 0.23503
 H140 H 0.19588 0.68573 0.31711
 H141 H 0.30223 0.80479 0.32289
 H142 H 0.25891 0.66823 0.23223
 H143 H 0.08865 0.79087 0.24593
 H144 H 0.41158 0.70030 0.25964
 O145 O 1.07592 0.04971 0.07606
 O146 O 0.93020 -0.04594 0.07843
 O147 O 0.95896 0.07719 0.07895
 O148 O 1.04755 -0.07293 0.07910
 O149 O 0.90021 0.03132 0.04610
 O150 O 1.10607 -0.02723 0.04389
 O151 O 0.97208 -0.10473 0.03848
 O152 O 1.03428 0.10917 0.03634
 C153 C 1.06275 0.09245 0.08184
 C154 C 0.94299 -0.08892 0.08354
 C155 C 0.91774 0.06075 0.08966
 C156 C 1.08929 -0.05743 0.08779
 O157 O 1.08986 -0.00172 -0.09521
 O158 O 0.91560 0.00672 -0.09307
 O159 O 1.00310 0.09108 -0.09725
 O160 O 1.00166 -0.08501 -0.09593
 O161 O 0.92860 -0.07616 -0.05916
 O162 O 1.07643 0.08047 -0.06199
 O163 O 1.08377 -0.07372 -0.05380
 O164 O 0.92117 0.07869 -0.05277
 Co165 Co 1.07902 0.02315 -0.00939
 Co166 Co 0.92670 -0.01873 -0.00738
 Co167 Co 0.98177 0.08025 -0.00894
 Co168 Co 1.02386 -0.07517 -0.00838
 O169 O 1.00284 0.00240 -0.00868
 C170 C 1.10202 -0.04498 -0.09809
 C171 C 0.90277 0.04982 -0.09613
 C172 C 1.04728 0.09729 -0.10674
 C173 C 0.95797 -0.09510 -0.10176
 O174 O 1.07152 0.54996 0.57975
 O175 O 0.92783 0.45052 0.57716
 O176 O 0.95719 0.57589 0.58130
 O177 O 1.04211 0.42377 0.58238
 O178 O 0.89901 0.52849 0.54976
 O179 O 1.10099 0.47209 0.55417
 O180 O 0.96826 0.39213 0.53417
 O181 O 1.03182 0.60886 0.53582
 C182 C 1.05975 0.59320 0.58246
 C183 C 0.93905 0.40708 0.57957
 C184 C 0.91652 0.55833 0.59307
 C185 C 1.08247 0.44115 0.59614
 O186 O 1.08946 0.49513 0.41115
 O187 O 0.91501 0.50732 0.40799
 O188 O 1.00006 0.58829 0.40480
 O189 O 1.00287 0.41402 0.40422
 O190 O 0.92850 0.42471 0.43619
 O191 O 1.07401 0.57765 0.43874
 O192 O 1.08414 0.42407 0.45469
 O193 O 0.91774 0.57789 0.45157
 Co194 Co 1.07641 0.52157 0.49555
 Co195 Co 0.92517 0.47991 0.49264
 Co196 Co 0.97920 0.57852 0.49312
 Co197 Co 1.02188 0.42269 0.49351
 O198 O 1.00068 0.50066 0.49373
 C199 C 1.10270 0.45220 0.41000
 C200 C 0.90019 0.54967 0.40691
 C201 C 1.04405 0.59669 0.39634
 C202 C 0.95897 0.40610 0.39458
 O203 O 0.57789 0.04042 0.57343
 O204 O 0.42775 -0.04595 0.57515
 O205 O 0.45549 0.07115 0.57005
 O206 O 0.55234 -0.07475 0.57219
 O207 O 0.39663 0.02969 0.53018
 O208 O 0.61055 -0.03400 0.52826
 O209 O 0.47487 -0.10461 0.54408
 O210 O 0.53274 0.10010 0.54050
 C211 C 0.55909 0.08033 0.58655
 C212 C 0.44516 -0.08679 0.58735
 C213 C 0.41272 0.05850 0.57516
 C214 C 0.59515 -0.06192 0.57547
 O215 O 0.59009 -0.00193 0.39664
 O216 O 0.41566 -0.00231 0.39833
 O217 O 0.50920 0.08469 0.39926
 O218 O 0.49767 -0.09093 0.40283
 O219 O 0.42672 -0.08464 0.44562
 O220 O 0.57970 0.08017 0.44291
 O221 O 0.57977 -0.07614 0.43178
 O222 O 0.42665 0.07183 0.43112
 Co223 Co 0.58062 0.01884 0.48510
 Co224 Co 0.42567 -0.02336 0.48682
 Co225 Co 0.48319 0.07416 0.48489
 Co226 Co 0.52406 -0.07871 0.48740
 O227 O 0.50332 -0.00230 0.48585
 C228 C 0.59788 -0.04621 0.38834
 C229 C 0.40691 0.04180 0.39008
 C230 C 0.55206 0.09765 0.39723
 C231 C 0.45456 -0.10312 0.40112
 O232 O 0.57436 0.54380 0.07216
 O233 O 0.42553 0.45363 0.07347
 O234 O 0.45329 0.57317 0.07129
 O235 O 0.54741 0.42581 0.07161
 O236 O 0.39475 0.52990 0.03324
 O237 O 0.60597 0.46856 0.03148
 O238 O 0.47074 0.39526 0.03815
 O239 O 0.53028 0.60346 0.03732
 C240 C 0.55687 0.58449 0.08356
 C241 C 0.44173 0.41209 0.08297
 C242 C 0.41133 0.55812 0.07883
 C243 C 0.58951 0.44055 0.07803
 O244 O 0.58748 0.49850 -0.10321
 O245 O 0.41282 0.50095 -0.10148
 O246 O 0.50415 0.58760 -0.10129
 O247 O 0.49654 0.41208 -0.10026
 O248 O 0.42454 0.41830 -0.06019
 O249 O 0.57587 0.58083 -0.06099
 O250 O 0.57866 0.42502 -0.06587
 O251 O 0.42177 0.57434 -0.06549
 Co252 Co 0.57730 0.52062 -0.01540
 Co253 Co 0.42310 0.47808 -0.01411
 Co254 Co 0.47960 0.57650 -0.01488
 Co255 Co 0.52113 0.42278 -0.01433
 O256 O 0.50028 0.49950 -0.01483
 C257 C 0.59644 0.45440 -0.11010
 C258 C 0.40302 0.54483 -0.10801
 C259 C 0.54752 0.59894 -0.10549
 C260 C 0.45321 0.40071 -0.10460
 N261 N 1.07157 0.16816 0.15405
 N262 N 1.10444 0.18647 0.19751
 C263 C 1.14115 0.15359 0.20598
 C264 C 1.13026 0.11223 0.16716
 C265 C 1.08636 0.12322 0.13464
 H266 H 1.15272 0.08003 0.15908
 H267 H 1.04022 0.18663 0.13717
 H268 H 1.10164 0.22132 0.21964
 N269 N 1.07084 0.67137 0.64819
 N270 N 1.10448 0.69059 0.68955
 C271 C 1.14039 0.65715 0.70031
 C272 C 1.12815 0.61452 0.66530
 C273 C 1.08431 0.62529 0.63255
 H274 H 1.14964 0.58141 0.65969
 H275 H 1.03988 0.68994 0.63009
 H276 H 1.10267 0.72637 0.70872
 N277 N 0.56635 0.08161 0.71480
 N278 N 0.59896 0.09861 0.75950
 C279 C 0.62662 0.13252 0.72638
 C280 C 0.61048 0.13772 0.65776
 C281 C 0.57239 0.10433 0.65221
 H282 H 0.62917 0.15659 0.61520
 H283 H 0.54384 0.05130 0.72491
 H284 H 0.60456 0.08436 0.80992
 N285 N 0.56447 0.59078 0.21144
 N286 N 0.59847 0.60696 0.25465
 C287 C 0.62877 0.63696 0.21870
 C288 C 0.61304 0.64038 0.14969
 C289 C 0.57221 0.61015 0.14700
 H290 H 0.63304 0.65594 0.10568
 H291 H 0.53951 0.56299 0.22420
 H292 H 0.60284 0.59472 0.30637
 N293 N 0.93168 -0.16738 0.15010
 N294 N 0.89667 -0.18814 0.18813
 C295 C 0.85945 -0.15585 0.19575
 C296 C 0.87222 -0.11231 0.16232
 C297 C 0.91781 -0.12140 0.13353
 H298 H 0.84987 -0.07995 0.15438
 H299 H 0.96369 -0.18504 0.13415
 H300 H 0.89834 -0.22426 0.20680
 N301 N 0.92465 0.32634 0.63718
 N302 N 0.88691 0.30455 0.67565
 C303 C 0.85197 0.33894 0.68724
 C304 C 0.86783 0.38335 0.65827
 C305 C 0.91262 0.37356 0.62671
 H306 H 0.84789 0.41760 0.65490
 H307 H 0.95518 0.30798 0.61738
 H308 H 0.88749 0.26780 0.69148
 N309 N 0.44225 -0.15927 0.66828
 N310 N 0.41045 -0.17820 0.71343
 C311 C 0.37229 -0.14699 0.72016
 C312 C 0.38096 -0.10600 0.67864
 C313 C 0.42511 -0.11564 0.64588
 H314 H 0.35620 -0.07592 0.66758
 H315 H 0.47392 -0.17699 0.65108
 H316 H 0.41428 -0.21281 0.73682
 N317 N 0.43737 0.33603 0.15547
 N318 N 0.40363 0.31488 0.20166
 C319 C 0.36717 0.34767 0.21267
 C320 C 0.37809 0.39067 0.17569
 C321 C 0.42131 0.38130 0.13946
 H322 H 0.35513 0.42277 0.16941
 H323 H 0.46760 0.31805 0.13407
 H324 H 0.40728 0.27949 0.22242
 N325 N 0.83683 0.03070 -0.18095
 N326 N 0.79692 0.05167 -0.20596
 C327 C 0.79434 0.09799 -0.18167
 C328 C 0.83487 0.10689 -0.13951
 C329 C 0.86071 0.06314 -0.14033
 H330 H 0.84338 0.13970 -0.11018
 H331 H 0.84678 -0.00573 -0.19036
 H332 H 0.77231 0.03434 -0.23954
 N333 N 0.83022 0.52723 0.33175
 N334 N 0.78888 0.54982 0.30387
 C335 C 0.79152 0.59827 0.31833
 C336 C 0.83451 0.60715 0.35617
 C337 C 0.85723 0.56182 0.36368
 H338 H 0.84698 0.64149 0.37812
 H339 H 0.83710 0.48949 0.33039
 H340 H 0.76256 0.53142 0.27442
 N341 N 0.33913 0.02534 0.30655
 N342 N 0.29858 0.05100 0.28125
 C343 C 0.30231 0.09811 0.30273
 C344 C 0.34547 0.10299 0.34138
 C345 C 0.36694 0.05695 0.34303
 H346 H 0.35831 0.13474 0.36977
 H347 H 0.34426 -0.01254 0.30206
 H348 H 0.27112 0.03511 0.25099
 N349 N 0.33587 0.52806 -0.19227
 N350 N 0.29601 0.55383 -0.21945
 C351 C 0.29993 0.60109 -0.19883
 C352 C 0.34236 0.60597 -0.15862
 C353 C 0.36329 0.55980 -0.15540
 H354 H 0.35518 0.63792 -0.13067
 H355 H 0.34095 0.49014 -0.19629
 H356 H 0.26906 0.53799 -0.25069
 N357 N 1.16842 -0.02821 -0.18482
 N358 N 1.20701 -0.05132 -0.21027
 C359 C 1.20720 -0.09774 -0.18496
 C360 C 1.16663 -0.10432 -0.14177
 C361 C 1.14314 -0.05946 -0.14313
 H362 H 1.15659 -0.13644 -0.11110
 H363 H 1.16044 0.00874 -0.19451
 H364 H 1.23243 -0.03529 -0.24447
 N365 N 1.16763 0.46857 0.32056
 N366 N 1.20556 0.44553 0.29293
 C367 C 1.20722 0.39940 0.31922
 C368 C 1.16821 0.39309 0.36576
 C369 C 1.14411 0.43772 0.36495
 H370 H 1.15919 0.36112 0.39738
 H371 H 1.15850 0.50511 0.30972
 H372 H 1.22934 0.46133 0.25616
 N373 N 0.65918 -0.03197 0.29300
 N374 N 0.69492 -0.05687 0.26279
 C375 C 0.69388 -0.10364 0.28686
 C376 C 0.65529 -0.10857 0.33401
 C377 C 0.63449 -0.06233 0.33670
 H378 H 0.64567 -0.14031 0.36575
 H379 H 0.65307 0.00560 0.28559
 H380 H 0.71977 -0.04159 0.22705
 N381 N 0.65753 0.46818 -0.20623
 N382 N 0.69256 0.44294 -0.23767
 C383 C 0.69166 0.39621 -0.21340
 C384 C 0.65393 0.39179 -0.16456
 C385 C 0.63340 0.43815 -0.16141
 H386 H 0.64431 0.36013 -0.13266
 H387 H 0.65126 0.50568 -0.21408
 H388 H 0.71665 0.45793 -0.27470
 N389 N 1.09130 0.10803 -0.21827
 N390 N 1.11740 0.14602 -0.25027
 C391 C 1.10663 0.18833 -0.21696
 C392 C 1.07325 0.17814 -0.16338
 C393 C 1.06543 0.12743 -0.16535
 H394 H 1.06291 0.20251 -0.12120
 H395 H 1.09675 0.07070 -0.22785
 H396 H 1.14472 0.14086 -0.28796
 N397 N 1.02717 0.66254 0.30856
 N398 N 1.05255 0.70252 0.27999
 C399 C 1.09966 0.69911 0.30066
 C400 C 1.10487 0.65677 0.34217
 C401 C 1.05896 0.63549 0.34637
 H402 H 1.13678 0.64467 0.37090
 H403 H 0.98940 0.65739 0.30518
 H404 H 1.03651 0.72937 0.24817
 N405 N 0.53691 0.16210 0.30650
 N406 N 0.56015 0.20056 0.27974
 C407 C 0.60556 0.20222 0.30712
 C408 C 0.61136 0.16278 0.35307
 C409 C 0.56706 0.13843 0.35116
 H410 H 0.64258 0.15395 0.38558
 H411 H 0.50065 0.15297 0.29532
 H412 H 0.54494 0.22481 0.24312
 N413 N 0.53187 0.66563 -0.19250
 N414 N 0.55787 0.70528 -0.22082
 C415 C 0.60458 0.70207 -0.19810
 C416 C 0.60885 0.66030 -0.15530
 C417 C 0.56288 0.63903 -0.15287
 H418 H 0.64030 0.64800 -0.12575
 H419 H 0.49432 0.65993 -0.19834
 H420 H 0.54256 0.73147 -0.25443
 N421 N 0.97357 -0.16104 -0.18922
 N422 N 0.95042 -0.20014 -0.21330
 C423 C 0.90451 -0.20064 -0.18715
 C424 C 0.89831 -0.15957 -0.14507
 C425 C 0.94289 -0.13561 -0.14764
 H426 H 0.86684 -0.14987 -0.11354
 H427 H 1.01028 -0.15295 -0.19939
 H428 H 0.96620 -0.22588 -0.24680
 N429 N 0.97496 0.34277 0.30350
 N430 N 0.95138 0.30485 0.27665
 C431 C 0.90496 0.30506 0.30083
 C432 C 0.89883 0.34533 0.34426
 C433 C 0.94399 0.36803 0.34485
 H434 H 0.86715 0.35484 0.37550
 H435 H 1.01215 0.34989 0.29579
 H436 H 0.96732 0.27917 0.24323
 N437 N 0.46924 -0.16814 0.31226
 N438 N 0.44551 -0.20609 0.28589
 C439 C 0.39981 -0.20699 0.31275
 C440 C 0.39439 -0.16750 0.35805
 C441 C 0.43917 -0.14395 0.35619
 H442 H 0.36300 -0.15803 0.38987
 H443 H 0.50572 -0.15960 0.30113
 H444 H 0.46057 -0.23045 0.24971
 N445 N 0.47074 0.33555 -0.19137
 N446 N 0.44572 0.29645 -0.22166
 C447 C 0.39839 0.29912 -0.20141
 C448 C 0.39266 0.34007 -0.15808
 C449 C 0.43861 0.36131 -0.15277
 H450 H 0.36017 0.35172 -0.13034
 H451 H 0.50839 0.34150 -0.19545
 H452 H 0.46199 0.27115 -0.25530
 N453 N 1.16618 -0.06629 0.15579
 N454 N 1.18733 -0.10290 0.19734
 C455 C 1.15403 -0.13935 0.20668
 C456 C 1.11086 -0.12565 0.17326
 C457 C 1.12041 -0.08065 0.14107
 H458 H 1.07820 -0.14756 0.16646
 H459 H 1.18443 -0.03539 0.13600
 H460 H 1.22304 -0.10095 0.21620
 N461 N 1.15054 0.43842 0.68352
 N462 N 1.16884 0.40561 0.72783
 C463 C 1.14025 0.36494 0.72811
 C464 C 1.10138 0.37310 0.68312
 C465 C 1.10976 0.41960 0.65510
 H466 H 1.07406 0.34681 0.66659
 H467 H 1.16689 0.47211 0.67109
 H468 H 1.20166 0.41050 0.75481
 N469 N 0.67410 -0.07087 0.63819
 N470 N 0.69526 -0.10590 0.68235
 C471 C 0.66132 -0.14102 0.69657
 C472 C 0.61784 -0.12792 0.66354
 C473 C 0.62773 -0.08477 0.62696
 H474 H 0.58426 -0.14887 0.66076
 H475 H 0.69238 -0.04095 0.61555
 H476 H 0.73134 -0.10374 0.69965
 N477 N 0.66471 0.43674 0.15134
 N478 N 0.68484 0.40496 0.19539
 C479 C 0.65386 0.36670 0.20521
 C480 C 0.61179 0.37532 0.16690
 C481 C 0.62051 0.41956 0.13293
 H482 H 0.58108 0.35081 0.15921
 H483 H 0.68169 0.46871 0.13274
 H484 H 0.71978 0.40920 0.21645
 N485 N 0.84434 0.06556 0.16725
 N486 N 0.82490 0.09859 0.20951
 C487 C 0.85597 0.13711 0.21497
 C488 C 0.89740 0.12735 0.17580
 C489 C 0.88821 0.08219 0.14568
 H490 H 0.92769 0.15183 0.16442
 H491 H 0.82692 0.03331 0.15145
 H492 H 0.79018 0.09512 0.23195
 N493 N 0.84417 0.56122 0.67319
 N494 N 0.82520 0.59320 0.71753
 C495 C 0.85606 0.63185 0.72367
 C496 C 0.89687 0.62324 0.68256
 C497 C 0.88753 0.57863 0.65074
 H498 H 0.92678 0.64822 0.67127
 H499 H 0.82672 0.52916 0.65668
 H500 H 0.79086 0.58905 0.74094
 N501 N 0.33594 0.06810 0.64409
 N502 N 0.31614 0.10207 0.68435
 C503 C 0.34822 0.13961 0.69170
 C504 C 0.39069 0.12820 0.65584
 C505 C 0.38108 0.08301 0.62587
 H506 H 0.42265 0.15109 0.64779
 H507 H 0.31833 0.03594 0.62832
 H508 H 0.28088 0.09944 0.70519
 N509 N 0.33628 0.56222 0.15328
 N510 N 0.31691 0.59355 0.19817
 C511 C 0.34855 0.63112 0.20810
 C512 C 0.39025 0.62249 0.16877
 C513 C 0.38066 0.57897 0.13423
 H514 H 0.42138 0.64658 0.16110
 H515 H 0.31871 0.53081 0.13466
 H516 H 0.28202 0.58950 0.21986
   
