data_POSCAR
  _audit_creation_date              2014-09-24
  _audit_creation_method            'ToBaCCo'
  _symmetry_space_group_name_H-M    'P1'
  _symmetry_Int_Tables_number       1
  _symmetry_cell_setting            triclinic
  loop_
  _symmetry_equiv_pos_as_xyz
 x,y,z
_cell_length_a 40.8587
_cell_length_b 41.3607
_cell_length_c 37.2435
_cell_angle_alpha 89.243800
_cell_angle_beta 91.352400
_cell_angle_gamma 89.602600
loop_
  _atom_site_label
  _atom_site_type_symbol
  _atom_site_fract_x
  _atom_site_fract_y
  _atom_site_fract_z
C1 C 0.20057 0.18436 0.17964
 C2 C 0.18702 0.21188 0.16201
 C3 C 0.19122 0.21741 0.12515
 C4 C 0.21030 0.19600 0.10541
 C5 C 0.22393 0.16807 0.12195
 C6 C 0.21859 0.16255 0.15884
 H7 H 0.17317 0.22956 0.17661
 H8 H 0.21305 0.20037 0.07689
 H9 H 0.22867 0.14084 0.17130
 C10 C -0.17642 0.81561 0.26161
 C11 C -0.20810 0.82717 0.25204
 C12 C -0.23275 0.80629 0.23954
 C13 C -0.22569 0.77314 0.23701
 C14 C -0.19411 0.76098 0.24489
 C15 C -0.16991 0.78230 0.25754
 H16 H -0.21402 0.85252 0.25455
 H17 H -0.24476 0.75680 0.22824
 H18 H -0.14520 0.77319 0.26152
 C19 C -0.19748 0.19233 -0.25264
 C20 C -0.22476 0.18034 -0.23427
 C21 C -0.23743 0.19652 -0.20498
 C22 C -0.22434 0.22617 -0.19490
 C23 C -0.19670 0.23891 -0.21182
 C24 C -0.18354 0.22173 -0.24075
 H25 H -0.23662 0.15823 -0.24240
 H26 H -0.23599 0.23886 -0.17341
 H27 H -0.16108 0.23013 -0.25224
 C28 C 0.19021 0.79984 -0.20942
 C29 C 0.17291 0.77408 -0.19373
 C30 C 0.18884 0.75144 -0.17087
 C31 C 0.22244 0.75434 -0.16346
 C32 C 0.24008 0.78051 -0.17726
 C33 C 0.22376 0.80293 -0.20020
 H34 H 0.14728 0.77038 -0.20029
 H35 H 0.23454 0.73669 -0.14589
 H36 H 0.23684 0.82418 -0.20882
 C37 C 0.18745 1.20281 0.81811
 C38 C 0.21676 1.18897 0.83258
 C39 C 0.22683 1.19417 0.86838
 C40 C 0.20769 1.21320 0.89062
 C41 C 0.17881 1.22747 0.87703
 C42 C 0.16934 1.22287 0.84102
 H43 H 0.23133 1.17245 0.81729
 H44 H 0.21511 1.21664 0.91844
 H45 H 0.14798 1.23608 0.83123
 C46 C 0.82655 0.80908 0.73913
 C47 C 0.79547 0.81919 0.75082
 C48 C 0.77397 0.79725 0.76664
 C49 C 0.78312 0.76463 0.76968
 C50 C 0.81499 0.75390 0.76192
 C51 C 0.83600 0.77644 0.74545
 H52 H 0.78756 0.84406 0.74753
 H53 H 0.76487 0.74789 0.77890
 H54 H 0.86109 0.76975 0.74079
 C55 C 0.18094 0.83633 1.18368
 C56 C 0.16209 0.81235 1.16666
 C57 C 0.17627 0.79010 1.14350
 C58 C 0.20986 0.79187 1.13686
 C59 C 0.22921 0.81652 1.15198
 C60 C 0.21444 0.83835 1.17556
 H61 H 0.13656 0.80938 1.17304
 H62 H 0.22065 0.77424 1.11939
 H63 H 0.22860 0.85828 1.18598
 C64 C 0.77807 1.19706 1.25767
 C65 C 0.78810 1.22917 1.25092
 C66 C 0.77261 1.24937 1.22445
 C67 C 0.74637 1.23597 1.20415
 C68 C 0.73729 1.20364 1.20895
 C69 C 0.75251 1.18475 1.23598
 H70 H 0.81037 1.23715 1.26392
 H71 H 0.73289 1.24988 1.18397
 H72 H 0.74353 1.16048 1.24003
 O73 O 0.53613 0.95814 0.91118
 O74 O 0.48698 0.95916 1.06476
 O75 O 0.56373 0.93200 1.02009
 O76 O 0.47594 0.91994 0.96135
 O77 O 0.54626 0.96288 1.06242
 O78 O 0.47602 0.95321 0.91733
 O79 O 0.48465 0.92372 1.02469
 O80 O 0.56876 0.93551 0.95191
 C81 C 0.55851 0.93822 0.92012
 C82 C 0.48105 0.93054 1.05643
 C83 C 0.55943 0.93675 1.05263
 C84 C 0.47161 0.92506 0.92888
 O85 O 0.47319 1.01419 0.94048
 O86 O 0.53924 1.02414 1.03291
 O87 O 0.57671 0.99846 0.95628
 O88 O 0.44750 0.97925 1.02449
 O89 O 0.48102 1.01806 1.03100
 O90 O 0.53373 1.01905 0.92708
 O91 O 0.44166 0.97671 0.96043
 O92 O 0.57959 0.99356 1.02288
 Co93 Co 0.50514 0.98508 0.93030
 Co94 Co 0.51341 0.98945 1.04276
 Co95 Co 0.56637 0.96563 0.98807
 Co96 Co 0.46648 0.95175 0.99251
 O97 O 0.51307 0.97345 0.98781
 C98 C 0.44538 1.00524 0.94904
 C99 C 0.56918 1.02072 1.03113
 C100 C 0.56372 1.01923 0.93493
 C101 C 0.45231 1.00874 1.02909
 O102 O 0.01067 0.47298 0.07118
 O103 O 0.01166 0.53246 -0.03067
 O104 O -0.02022 0.43417 -0.00460
 O105 O -0.02449 0.56693 0.06062
 O106 O 0.01438 0.47100 -0.01985
 O107 O 0.01039 0.53037 0.07427
 O108 O -0.01877 0.56914 -0.00507
 O109 O -0.02345 0.43581 0.05990
 C110 C 0.00524 0.44384 0.06774
 C111 C 0.00602 0.56133 -0.02276
 C112 C 0.00828 0.44204 -0.01337
 C113 C 0.00435 0.55937 0.06875
 O114 O -0.05261 0.52971 0.09758
 O115 O -0.04554 0.46707 -0.05045
 O116 O -0.08348 0.46517 0.05264
 O117 O -0.07985 0.55245 -0.01515
 O118 O -0.04913 0.52725 -0.05378
 O119 O -0.05136 0.47076 0.09763
 O120 O -0.08473 0.54334 0.05286
 O121 O -0.08131 0.46020 -0.01061
 Co122 Co -0.02204 0.50091 0.08012
 Co123 Co -0.01866 0.49930 -0.03254
 Co124 Co -0.05070 0.45302 0.02445
 Co125 Co -0.05053 0.55252 0.02371
 O126 O -0.03495 0.50165 0.02353
 C127 C -0.07990 0.54042 0.08587
 C128 C -0.07371 0.45824 -0.04232
 C129 C -0.07931 0.46396 0.08548
 C130 C -0.07350 0.54496 -0.04673
 O131 O 1.10130 0.05541 0.46141
 O132 O 0.96885 0.03014 0.52722
 O133 O 0.99978 0.07066 0.45699
 O134 O 1.06131 0.07478 0.55769
 O135 O 0.96940 0.02964 0.46303
 O136 O 1.10369 0.05689 0.52882
 O137 O 1.00103 0.06862 0.54420
 O138 O 1.05691 0.08170 0.45122
 C139 C 1.08704 0.08041 0.44965
 C140 C 0.97283 0.05869 0.53810
 C141 C 0.97199 0.05914 0.45610
 C142 C 1.09097 0.07625 0.55049
 O143 O 1.09916 -0.00564 0.53272
 O144 O 1.00959 -0.02366 0.46506
 O145 O 1.06667 0.02214 0.42300
 O146 O 1.00566 0.00838 0.57021
 O147 O 1.00692 -0.02576 0.52884
 O148 O 1.09136 -0.00767 0.46397
 O149 O 1.06570 0.01264 0.57347
 O150 O 1.00882 0.01239 0.42397
 Co151 Co 1.09291 0.02501 0.49658
 Co152 Co 0.99279 0.00471 0.49626
 Co153 Co 1.03335 0.04521 0.44379
 Co154 Co 1.03368 0.04000 0.55515
 O155 O 1.03881 0.02886 0.49827
 C156 C 1.08878 -0.00573 0.56416
 C157 C 1.00715 -0.01684 0.43273
 C158 C 1.08360 -0.00248 0.43182
 C159 C 1.00309 -0.02026 0.56086
 C160 C 1.21071 0.14889 0.27245
 C161 C 1.18136 0.15824 0.28886
 C162 C 1.16030 0.17984 0.26942
 C163 C 1.16729 0.18943 0.23405
 C164 C 1.19530 0.17782 0.21677
 C165 C 1.21742 0.15844 0.23734
 C166 C 1.13164 0.19096 0.28482
 C167 C 1.12242 0.17982 0.31838
 C168 C 1.14131 0.15649 0.33780
 C169 C 1.17166 0.14605 0.32319
 C170 C 1.19042 0.12250 0.34247
 C171 C 1.17889 0.10787 0.37341
 C172 C 1.14851 0.11638 0.38678
 C173 C 1.12993 0.14182 0.37023
 C174 C 1.09985 0.15025 0.38589
 C175 C 1.08720 0.13175 0.41383
 C176 C 1.10424 0.10465 0.42759
 C177 C 1.13576 0.09826 0.41536
 H178 H 1.22909 0.13402 0.28584
 H179 H 1.14929 0.20412 0.21950
 H180 H 1.24064 0.15083 0.22679
 H181 H 1.11568 0.20796 0.27039
 H182 H 1.09956 0.18922 0.32769
 H183 H 1.21368 0.11371 0.33360
 H184 H 1.19349 0.08886 0.38634
 H185 H 1.08482 0.17021 0.37639
 H186 H 1.06309 0.13773 0.42339
 H187 H 1.14941 0.07761 0.42618
 C188 C 0.87194 -0.10896 0.27747
 C189 C 0.89694 -0.11969 0.30177
 C190 C 0.89736 -0.15285 0.31176
 C191 C 0.87376 -0.17411 0.29774
 C192 C 0.84841 -0.16308 0.27422
 C193 C 0.84826 -0.13012 0.26420
 C194 C 0.92086 -0.16459 0.33649
 C195 C 0.94287 -0.14385 0.35312
 C196 C 0.94258 -0.11036 0.34525
 C197 C 0.92058 -0.09844 0.31760
 C198 C 0.92262 -0.06559 0.30714
 C199 C 0.94328 -0.04446 0.32517
 C200 C 0.96238 -0.05503 0.35457
 C201 C 0.96289 -0.08822 0.36470
 C202 C 0.98225 -0.09746 0.39525
 C203 C 0.99832 -0.07438 0.41609
 C204 C 0.99628 -0.04152 0.40685
 C205 C 0.97960 -0.03220 0.37507
 H206 H 0.86943 -0.08413 0.26873
 H207 H 0.87423 -0.19899 0.30723
 H208 H 0.83039 -0.12036 0.24503
 H209 H 0.92171 -0.19004 0.34382
 H210 H 0.95996 -0.15491 0.37209
 H211 H 0.90843 -0.05533 0.28503
 H212 H 0.94335 -0.01924 0.31681
 H213 H 0.98406 -0.12204 0.40501
 H214 H 1.01130 -0.08217 0.44043
 H215 H 0.97786 -0.00677 0.36774
 C216 C 0.82637 0.12281 0.68976
 C217 C 0.84440 0.13791 0.66247
 C218 C 0.84832 0.17187 0.66405
 C219 C 0.83414 0.18977 0.69161
 C220 C 0.81624 0.17449 0.71886
 C221 C 0.81278 0.14063 0.71721
 C222 C 0.86682 0.18783 0.63839
 C223 C 0.88334 0.17060 0.61258
 C224 C 0.88147 0.13656 0.61101
 C225 C 0.85997 0.12023 0.63481
 C226 C 0.85516 0.08670 0.63051
 C227 C 0.87341 0.06907 0.60654
 C228 C 0.89729 0.08404 0.58619
 C229 C 0.90114 0.11812 0.58734
 C230 C 0.92616 0.13198 0.56659
 C231 C 0.94801 0.11254 0.54829
 C232 C 0.94517 0.07886 0.54918
 C233 C 0.91870 0.06482 0.56645
 H234 H 0.82346 0.09698 0.69166
 H235 H 0.83665 0.21581 0.69109
 H236 H 0.80106 0.12704 0.73824
 H237 H 0.86941 0.21389 0.63891
 H238 H 0.89742 0.18476 0.59412
 H239 H 0.83746 0.07325 0.64547
 H240 H 0.86971 0.04319 0.60507
 H241 H 0.93090 0.15755 0.56577
 H242 H 0.96828 0.12380 0.53478
 H243 H 0.91658 0.03870 0.56737
 C244 C 1.12579 -0.14799 0.74493
 C245 C 1.14375 -0.13161 0.71834
 C246 C 1.17741 -0.13947 0.71584
 C247 C 1.19236 -0.16184 0.73970
 C248 C 1.17452 -0.17768 0.76652
 C249 C 1.14083 -0.17059 0.76832
 C250 C 1.19620 -0.12509 0.68941
 C251 C 1.18231 -0.10333 0.66483
 C252 C 1.14887 -0.09468 0.66592
 C253 C 1.12952 -0.10811 0.69390
 C254 C 1.09683 -0.09723 0.69677
 C255 C 1.08333 -0.07448 0.67282
 C256 C 1.10148 -0.06222 0.64454
 C257 C 1.13431 -0.07260 0.64026
 C258 C 1.15108 -0.06084 0.60999
 C259 C 1.13611 -0.03924 0.58569
 C260 C 1.10407 -0.02834 0.59063
 C261 C 1.08684 -0.03984 0.62021
 H262 H 1.09994 -0.14416 0.74824
 H263 H 1.21791 -0.16786 0.73604
 H264 H 1.12591 -0.18140 0.78880
 H265 H 1.22204 -0.13082 0.68756
 H266 H 1.19883 -0.09310 0.64575
 H267 H 1.08112 -0.10534 0.71783
 H268 H 1.05822 -0.06667 0.67627
 H269 H 1.17553 -0.06838 0.60369
 H270 H 1.14985 -0.03090 0.56286
 H271 H 1.06177 -0.03197 0.62382
 C272 C 0.26274 1.09059 1.09558
 C273 C 0.28788 1.10115 1.07296
 C274 C 0.28914 1.13454 1.06401
 C275 C 0.26584 1.15628 1.07745
 C276 C 0.24286 1.14578 1.10259
 C277 C 0.24113 1.11251 1.11044
 C278 C 0.31480 1.14626 1.04350
 C279 C 0.34084 1.12616 1.03472
 C280 C 0.34145 1.09318 1.04498
 C281 C 0.31311 1.07999 1.06127
 C282 C 0.31131 1.04618 1.06619
 C283 C 0.33770 1.02626 1.05903
 C284 C 0.36706 1.03929 1.04753
 C285 C 0.36945 1.07290 1.04004
 C286 C 0.40026 1.08492 1.02966
 C287 C 0.42737 1.06428 1.02697
 C288 C 0.42446 1.03107 1.03383
 C289 C 0.39416 1.01878 1.04387
 H290 H 0.26034 1.06578 1.10424
 H291 H 0.26795 1.18185 1.07122
 H292 H 0.22283 1.10315 1.12833
 H293 H 0.31565 1.17159 1.03577
 H294 H 0.36020 1.13705 1.01964
 H295 H 0.28956 1.03430 1.07527
 H296 H 0.33544 1.00045 1.06373
 H297 H 0.40438 1.11025 1.02446
 H298 H 0.45055 1.07425 1.01889
 H299 H 0.39173 0.99309 1.04932
 C300 C 0.31551 0.78839 0.88317
 C301 C 0.33718 0.80583 0.86121
 C302 C 0.32717 0.81246 0.82516
 C303 C 0.29669 0.80178 0.81195
 C304 C 0.27459 0.78633 0.83473
 C305 C 0.28470 0.77925 0.87024
 C306 C 0.34689 0.83110 0.80301
 C307 C 0.37486 0.84587 0.81679
 C308 C 0.38472 0.84153 0.85311
 C309 C 0.36724 0.81892 0.87462
 C310 C 0.37987 0.81088 0.90919
 C311 C 0.40630 0.82730 0.92395
 C312 C 0.42062 0.85268 0.90515
 C313 C 0.41068 0.85979 0.86916
 C314 C 0.42542 0.88649 0.85180
 C315 C 0.44706 0.90663 0.87048
 C316 C 0.45524 0.90035 0.90662
 C317 C 0.44336 0.87226 0.92307
 H318 H 0.32070 0.78332 0.91119
 H319 H 0.28961 0.80689 0.78421
 H320 H 0.26816 0.76805 0.88888
 H321 H 0.33977 0.83569 0.77517
 H322 H 0.38834 0.86063 0.79831
 H323 H 0.36969 0.79197 0.92559
 H324 H 0.41448 0.82115 0.95112
 H325 H 0.41906 0.89376 0.82462
 H326 H 0.45609 0.92809 0.85710
 H327 H 0.44966 0.86701 0.95101
 C328 C 0.69269 0.86130 1.22767
 C329 C 0.67852 0.85053 1.19490
 C330 C 0.69213 0.82239 1.17963
 C331 C 0.72010 0.80744 1.19512
 C332 C 0.73512 0.81967 1.22629
 C333 C 0.72045 0.84610 1.24296
 C334 C 0.67851 0.80980 1.14823
 C335 C 0.65256 0.82531 1.13046
 C336 C 0.63944 0.85463 1.14304
 C337 C 0.65223 0.86720 1.17614
 C338 C 0.63939 0.89678 1.18839
 C339 C 0.61644 0.91449 1.16804
 C340 C 0.60493 0.90334 1.13495
 C341 C 0.61523 0.87266 1.12263
 C342 C 0.60190 0.86202 1.08944
 C343 C 0.58212 0.88231 1.06795
 C344 C 0.57428 0.91359 1.07894
 C345 C 0.58439 0.92340 1.11328
 H346 H 0.68323 0.88163 1.24204
 H347 H 0.73109 0.78711 1.18170
 H348 H 0.73074 0.85547 1.26775
 H349 H 0.68849 0.78798 1.13678
 H350 H 0.64416 0.81409 1.10606
 H351 H 0.64748 0.90765 1.21312
 H352 H 0.60829 0.93767 1.17791
 H353 H 0.60695 0.83856 1.07863
 H354 H 0.57387 0.87383 1.04188
 H355 H 0.57813 0.94748 1.12218
 C356 C 0.72321 1.15642 0.87442
 C357 C 0.69497 1.14231 0.85864
 C358 C 0.68755 1.14989 0.82204
 C359 C 0.70909 1.16846 0.80163
 C360 C 0.73777 1.18064 0.81729
 C361 C 0.74418 1.17528 0.85396
 C362 C 0.65907 1.13830 0.80570
 C363 C 0.63769 1.11910 0.82472
 C364 C 0.64446 1.10987 0.86081
 C365 C 0.67408 1.12079 0.87770
 C366 C 0.68252 1.10869 0.91240
 C367 C 0.66282 1.08651 0.92991
 C368 C 0.63340 1.07640 0.91419
 C369 C 0.62322 1.08892 0.88002
 C370 C 0.59208 1.07991 0.86642
 C371 C 0.57291 1.05794 0.88490
 C372 C 0.58395 1.04404 0.91751
 C373 C 0.61411 1.05363 0.93231
 H374 H 0.72977 1.15338 0.90245
 H375 H 0.70386 1.17307 0.77332
 H376 H 0.76620 1.18477 0.86659
 H377 H 0.65328 1.14402 0.77776
 H378 H 0.61667 1.11064 0.80971
 H379 H 0.70502 1.11488 0.92624
 H380 H 0.67070 1.07724 0.95610
 H381 H 0.58152 1.08973 0.84181
 H382 H 0.54947 1.05131 0.87307
 H383 H 0.62248 1.04350 0.95794
 C384 C 0.12616 0.26166 0.07028
 C385 C 0.12786 0.29325 0.08446
 C386 C 0.15486 0.30045 0.10756
 C387 C 0.17676 0.27594 0.11915
 C388 C 0.17289 0.24424 0.10726
 C389 C 0.14836 0.23758 0.08166
 C390 C 0.15913 0.33173 0.12017
 C391 C 0.13659 0.35598 0.11138
 C392 C 0.10805 0.34957 0.09063
 C393 C 0.10330 0.31752 0.07751
 C394 C 0.07326 0.31026 0.06000
 C395 C 0.04835 0.33318 0.05640
 C396 C 0.05289 0.36468 0.06832
 C397 C 0.08329 0.37372 0.08420
 C398 C 0.08749 0.40659 0.09323
 C399 C 0.06214 0.42905 0.08797
 C400 C 0.03164 0.41960 0.07393
 C401 C 0.02716 0.38727 0.06429
 H402 H 0.10773 0.25473 0.05072
 H403 H 0.19614 0.28120 0.13858
 H404 H 0.14530 0.21322 0.07183
 H405 H 0.17990 0.33745 0.13753
 H406 H 0.14137 0.37921 0.12306
 H407 H 0.06755 0.28647 0.05035
 H408 H 0.02528 0.32618 0.04392
 H409 H 0.11031 0.41594 0.10361
 H410 H 0.06650 0.45401 0.09500
 H411 H 0.00387 0.37986 0.05267
 C412 C -0.14639 0.31660 -0.20550
 C413 C -0.15062 0.32563 -0.16939
 C414 C -0.17134 0.30628 -0.14821
 C415 C -0.18463 0.27773 -0.16170
 C416 C -0.18072 0.26891 -0.19767
 C417 C -0.16170 0.28909 -0.21949
 C418 C -0.17880 0.31536 -0.11345
 C419 C -0.16666 0.34375 -0.09932
 C420 C -0.14495 0.36327 -0.11877
 C421 C -0.13527 0.35315 -0.15349
 C422 C -0.10944 0.36980 -0.17005
 C423 C -0.09298 0.39477 -0.15255
 C424 C -0.10309 0.40549 -0.11912
 C425 C -0.13078 0.39128 -0.10324
 C426 C -0.14293 0.40528 -0.07188
 C427 C -0.12554 0.42922 -0.05417
 C428 C -0.09543 0.43996 -0.06693
 C429 C -0.08514 0.42933 -0.10055
 H430 H -0.13240 0.33106 -0.22385
 H431 H -0.19795 0.26237 -0.14352
 H432 H -0.15878 0.28400 -0.24764
 H433 H -0.19461 0.30059 -0.09710
 H434 H -0.17314 0.34880 -0.07204
 H435 H -0.10007 0.36258 -0.19559
 H436 H -0.07211 0.40571 -0.16526
 H437 H -0.16575 0.39799 -0.06033
 H438 H -0.13495 0.43805 -0.02913
 H439 H -0.06246 0.43827 -0.11133
 C440 C 0.16356 0.66893 -0.13682
 C441 C 0.13436 0.67591 -0.11851
 C442 C 0.12393 0.70867 -0.11756
 C443 C 0.14147 0.73291 -0.13525
 C444 C 0.17003 0.72542 -0.15345
 C445 C 0.18107 0.69337 -0.15383
 C446 C 0.09609 0.71721 -0.09891
 C447 C 0.07810 0.69399 -0.08106
 C448 C 0.08694 0.66093 -0.08163
 C449 C 0.11523 0.65166 -0.10117
 C450 C 0.12297 0.61843 -0.10343
 C451 C 0.10361 0.59503 -0.08770
 C452 C 0.07611 0.60365 -0.06851
 C453 C 0.06781 0.63671 -0.06430
 C454 C 0.04040 0.64403 -0.04320
 C455 C 0.02101 0.61957 -0.02909
 C456 C 0.02837 0.58698 -0.03504
 C457 C 0.05646 0.57923 -0.05408
 H458 H 0.17387 0.64497 -0.13818
 H459 H 0.13324 0.75787 -0.13428
 H460 H 0.20328 0.68716 -0.16759
 H461 H 0.08808 0.74223 -0.09808
 H462 H 0.05675 0.70278 -0.06777
 H463 H 0.14345 0.60949 -0.11811
 H464 H 0.11016 0.56979 -0.09084
 H465 H 0.03312 0.66838 -0.03709
 H466 H -0.00024 0.62633 -0.01398
 H467 H 0.06275 0.55408 -0.05837
 C468 C -0.14962 0.67995 0.24599
 C469 C -0.16098 0.66595 0.21353
 C470 C -0.18691 0.68199 0.19447
 C471 C -0.19859 0.71210 0.20575
 C472 C -0.18527 0.72689 0.23641
 C473 C -0.16160 0.70984 0.25710
 C474 C -0.20026 0.66863 0.16333
 C475 C -0.18728 0.64056 0.14933
 C476 C -0.15970 0.62502 0.16552
 C477 C -0.14668 0.63753 0.19855
 C478 C -0.11863 0.62240 0.21426
 C479 C -0.10230 0.59771 0.19698
 C480 C -0.11357 0.58658 0.16379
 C481 C -0.14335 0.59882 0.14849
 C482 C -0.15447 0.58548 0.11562
 C483 C -0.13481 0.56429 0.09671
 C484 C -0.10379 0.55510 0.11016
 C485 C -0.09420 0.56470 0.14476
 H486 H -0.13117 0.66872 0.26320
 H487 H -0.21686 0.72480 0.18927
 H488 H -0.15171 0.71997 0.28169
 H489 H -0.22052 0.68048 0.14903
 H490 H -0.19866 0.63255 0.12469
 H491 H -0.10762 0.63012 0.23922
 H492 H -0.07991 0.58798 0.20920
 H493 H -0.17768 0.59174 0.10304
 H494 H -0.14327 0.55638 0.07049
 H495 H -0.07046 0.55726 0.15572
 C496 C 1.13040 0.19303 0.73844
 C497 C 1.15074 0.17947 0.71247
 C498 C 1.18396 0.17379 0.72214
 C499 C 1.19639 0.18287 0.75613
 C500 C 1.17579 0.19593 0.78245
 C501 C 1.14250 0.20062 0.77252
 C502 C 1.20443 0.15822 0.69815
 C503 C 1.19198 0.14608 0.66592
 C504 C 1.15872 0.15037 0.65573
 C505 C 1.13857 0.16957 0.67811
 C506 C 1.10673 0.17793 0.66564
 C507 C 1.09351 0.16470 0.63461
 C508 C 1.11132 0.14238 0.61515
 C509 C 1.14448 0.13546 0.62460
 C510 C 1.16110 0.11224 0.60389
 C511 C 1.14446 0.09471 0.57725
 C512 C 1.11106 0.10018 0.57013
 C513 C 1.09531 0.12545 0.58767
 H514 H 1.10441 0.19626 0.73404
 H515 H 1.22231 0.17963 0.76145
 H516 H 1.12456 0.20848 0.79140
 H517 H 1.23006 0.15413 0.70502
 H518 H 1.20909 0.13358 0.64933
 H519 H 1.09136 0.19480 0.67941
 H520 H 1.06850 0.17088 0.62674
 H521 H 1.18629 0.10552 0.60925
 H522 H 1.15720 0.07530 0.56405
 H523 H 1.06955 0.13022 0.58198
 C524 C 0.86924 -0.11376 0.71531
 C525 C 0.89277 -0.12411 0.69061
 C526 C 0.89337 -0.15735 0.68201
 C527 C 0.87189 -0.17917 0.69838
 C528 C 0.84850 -0.16869 0.72304
 C529 C 0.84761 -0.13549 0.73096
 C530 C 0.91512 -0.16871 0.65667
 C531 C 0.93560 -0.14764 0.63868
 C532 C 0.93562 -0.11420 0.64581
 C533 C 0.91499 -0.10252 0.67344
 C534 C 0.91730 -0.06968 0.68299
 C535 C 0.93744 -0.04850 0.66476
 C536 C 0.95570 -0.05895 0.63592
 C537 C 0.95532 -0.09196 0.62606
 C538 C 0.97363 -0.10095 0.59586
 C539 C 0.99031 -0.07789 0.57566
 C540 C 0.98986 -0.04528 0.58516
 C541 C 0.97340 -0.03618 0.61605
 H542 H 0.86644 -0.08884 0.72278
 H543 H 0.87251 -0.20422 0.69026
 H544 H 0.83106 -0.12598 0.75050
 H545 H 0.91596 -0.19417 0.65019
 H546 H 0.95151 -0.15849 0.61951
 H547 H 0.90400 -0.05952 0.70482
 H548 H 0.93803 -0.02340 0.67276
 H549 H 0.97444 -0.12533 0.58610
 H550 H 1.00286 -0.08550 0.55187
 H551 H 0.97269 -0.01092 0.62348
 C552 C 1.11901 -0.11389 0.23136
 C553 C 1.13712 -0.10291 0.26156
 C554 C 1.17041 -0.11257 0.26499
 C555 C 1.18499 -0.13132 0.23848
 C556 C 1.16664 -0.14262 0.20881
 C557 C 1.13340 -0.13354 0.20583
 C558 C 1.18894 -0.10406 0.29527
 C559 C 1.17493 -0.08703 0.32290
 C560 C 1.14186 -0.07692 0.32086
 C561 C 1.12318 -0.08341 0.28885
 C562 C 1.09148 -0.06973 0.28499
 C563 C 1.07827 -0.05085 0.31176
 C564 C 1.09553 -0.04588 0.34394
 C565 C 1.12714 -0.05973 0.34941
 C566 C 1.14254 -0.05625 0.38356
 C567 C 1.12782 -0.03843 0.41033
 C568 C 1.09754 -0.02313 0.40398
 C569 C 1.08136 -0.02710 0.37077
 H570 H 1.09335 -0.10850 0.22715
 H571 H 1.21029 -0.13884 0.24248
 H572 H 1.11833 -0.14079 0.18308
 H573 H 1.21449 -0.11112 0.29796
 H574 H 1.19104 -0.08122 0.34517
 H575 H 1.07660 -0.07226 0.26094
 H576 H 1.05408 -0.04038 0.30737
 H577 H 1.16565 -0.06759 0.39070
 H578 H 1.14061 -0.03601 0.43597
 H579 H 1.05758 -0.01584 0.36598
 C580 C 0.81281 0.12410 0.30655
 C581 C 0.83088 0.13793 0.33520
 C582 C 0.83020 0.17201 0.33808
 C583 C 0.81172 0.19112 0.31350
 C584 C 0.79457 0.17731 0.28421
 C585 C 0.79526 0.14332 0.28166
 C586 C 0.84851 0.18704 0.36510
 C587 C 0.86928 0.16917 0.38788
 C588 C 0.87188 0.13525 0.38511
 C589 C 0.85070 0.11923 0.36005
 C590 C 0.85022 0.08510 0.36053
 C591 C 0.87159 0.06722 0.38261
 C592 C 0.89477 0.08257 0.40439
 C593 C 0.89521 0.11681 0.40619
 C594 C 0.92021 0.13117 0.42748
 C595 C 0.94437 0.11229 0.44484
 C596 C 0.94397 0.07859 0.44236
 C597 C 0.91845 0.06381 0.42317
 H598 H 0.81300 0.09851 0.30150
 H599 H 0.81067 0.21695 0.31779
 H600 H 0.78390 0.13104 0.25922
 H601 H 0.84762 0.21309 0.36795
 H602 H 0.88280 0.18264 0.40778
 H603 H 0.83329 0.07140 0.34427
 H604 H 0.87074 0.04105 0.38162
 H605 H 0.92288 0.15696 0.42971
 H606 H 0.96397 0.12415 0.45955
 H607 H 0.91829 0.03770 0.42080
 C608 C 0.10282 0.25929 -0.08006
 C609 C 0.11364 0.28855 -0.06463
 C610 C 0.14750 0.29578 -0.06608
 C611 C 0.16926 0.27461 -0.08292
 C612 C 0.15755 0.24684 -0.09984
 C613 C 0.12443 0.23905 -0.09760
 C614 C 0.15918 0.32480 -0.05227
 C615 C 0.13770 0.34805 -0.03971
 C616 C 0.10357 0.34285 -0.03993
 C617 C 0.09169 0.31174 -0.05005
 C618 C 0.05809 0.30519 -0.04629
 C619 C 0.03625 0.32914 -0.03668
 C620 C 0.04695 0.36052 -0.03046
 C621 C 0.08078 0.36785 -0.03123
 C622 C 0.09008 0.40029 -0.02499
 C623 C 0.06662 0.42430 -0.01914
 C624 C 0.03330 0.41676 -0.01884
 C625 C 0.02373 0.38470 -0.02398
 H626 H 0.07754 0.25208 -0.08081
 H627 H 0.19492 0.28075 -0.08489
 H628 H 0.11504 0.21756 -0.11049
 H629 H 0.18510 0.33018 -0.05251
 H630 H 0.14861 0.37005 -0.03015
 H631 H 0.04778 0.28163 -0.05067
 H632 H 0.01053 0.32320 -0.03496
 H633 H 0.11514 0.40814 -0.02553
 H634 H 0.07459 0.44891 -0.01489
 H635 H -0.00204 0.37862 -0.02372
 C636 C -0.17744 0.32515 0.23232
 C637 C -0.18175 0.33949 0.19798
 C638 C -0.20596 0.32626 0.17482
 C639 C -0.22175 0.29730 0.18396
 C640 C -0.21493 0.28104 0.21693
 C641 C -0.19398 0.29694 0.24168
 C642 C -0.21355 0.34136 0.14196
 C643 C -0.19688 0.36875 0.13102
 C644 C -0.17076 0.38135 0.15191
 C645 C -0.16259 0.36608 0.18561
 C646 C -0.13417 0.37630 0.20451
 C647 C -0.11353 0.39949 0.19007
 C648 C -0.12113 0.41444 0.15710
 C649 C -0.15094 0.40706 0.13879
 C650 C -0.15906 0.42490 0.10721
 C651 C -0.13650 0.44561 0.09182
 C652 C -0.10527 0.44955 0.10746
 C653 C -0.09838 0.43545 0.14126
 H654 H -0.16176 0.33550 0.25277
 H655 H -0.23777 0.28697 0.16379
 H656 H -0.19016 0.28806 0.26888
 H657 H -0.23235 0.33166 0.12420
 H658 H -0.20370 0.37826 0.10481
 H659 H -0.12602 0.36520 0.22953
 H660 H -0.09104 0.40527 0.20453
 H661 H -0.18243 0.42292 0.09339
 H662 H -0.14299 0.45731 0.06641
 H663 H -0.07458 0.43899 0.15404
 C664 C -0.13162 0.67982 -0.22489
 C665 C -0.14610 0.66422 -0.19525
 C666 C -0.17620 0.67690 -0.18359
 C667 C -0.18936 0.70551 -0.19868
 C668 C -0.17363 0.72253 -0.22644
 C669 C -0.14517 0.70816 -0.24015
 C670 C -0.19270 0.66176 -0.15579
 C671 C -0.17906 0.63537 -0.13762
 C672 C -0.14773 0.62344 -0.14591
 C673 C -0.13135 0.63740 -0.17592
 C674 C -0.10010 0.62522 -0.18429
 C675 C -0.08438 0.60191 -0.16270
 C676 C -0.09915 0.58964 -0.13205
 C677 C -0.13152 0.59930 -0.12393
 C678 C -0.14555 0.58573 -0.09281
 C679 C -0.12711 0.56631 -0.06907
 C680 C -0.09443 0.55889 -0.07586
 C681 C -0.08105 0.56919 -0.10831
 H682 H -0.10963 0.67090 -0.23684
 H683 H -0.21077 0.71532 -0.18618
 H684 H -0.13298 0.71843 -0.26303
 H685 H -0.21622 0.67088 -0.14736
 H686 H -0.19346 0.62564 -0.11628
 H687 H -0.08647 0.63410 -0.20672
 H688 H -0.05986 0.59427 -0.16938
 H689 H -0.17028 0.59061 -0.08503
 H690 H -0.13813 0.55805 -0.04443
 H691 H -0.05571 0.56344 -0.11373
 C692 C 0.10392 0.74938 0.09845
 C693 C 0.11268 0.71619 0.10047
 C694 C 0.14403 0.70807 0.11533
 C695 C 0.16526 0.73228 0.12786
 C696 C 0.15556 0.76482 0.12678
 C697 C 0.12497 0.77310 0.11152
 C698 C 0.15370 0.67577 0.11857
 C699 C 0.13249 0.65111 0.10892
 C700 C 0.10059 0.65778 0.09520
 C701 C 0.09104 0.69087 0.08951
 C702 C 0.05999 0.69753 0.07351
 C703 C 0.03818 0.67297 0.06548
 C704 C 0.04625 0.64079 0.07306
 C705 C 0.07772 0.63253 0.08744
 C706 C 0.08452 0.59934 0.09433
 C707 C 0.06088 0.57575 0.08789
 C708 C 0.02966 0.58428 0.07452
 C709 C 0.02270 0.61685 0.06673
 H710 H 0.08062 0.75790 0.08793
 H711 H 0.18882 0.72568 0.13995
 H712 H 0.11709 0.79816 0.11010
 H713 H 0.17777 0.66941 0.12948
 H714 H 0.14194 0.62691 0.11269
 H715 H 0.05162 0.72163 0.06680
 H716 H 0.01442 0.67934 0.05375
 H717 H 0.10762 0.59073 0.10532
 H718 H 0.06699 0.55070 0.09391
 H719 H -0.00132 0.62370 0.05606
 C720 C 0.31514 1.16829 0.87829
 C721 C 0.31379 1.14286 0.90403
 C722 C 0.28305 1.13580 0.91915
 C723 C 0.25510 1.15405 0.90910
 C724 C 0.25687 1.17827 0.88265
 C725 C 0.28697 1.18538 0.86755
 C726 C 0.28015 1.10979 0.94311
 C727 C 0.30646 1.08898 0.95014
 C728 C 0.33707 1.09418 0.93433
 C729 C 0.34148 1.12305 0.91357
 C730 C 0.37334 1.13098 0.90280
 C731 C 0.39956 1.11013 0.90959
 C732 C 0.39483 1.08015 0.92613
 C733 C 0.36348 1.07154 0.93850
 C734 C 0.35955 1.04002 0.95294
 C735 C 0.38588 1.01833 0.95545
 C736 C 0.41707 1.02751 0.94447
 C737 C 0.42131 1.05854 0.92987
 H738 H 0.33721 1.17440 0.86452
 H739 H 0.23157 1.14824 0.92033
 H740 H 0.28853 1.20387 0.84678
 H741 H 0.25695 1.10469 0.95544
 H742 H 0.30234 1.06919 0.96860
 H743 H 0.37889 1.15357 0.88961
 H744 H 0.42361 1.11712 0.90071
 H745 H 0.33622 1.03113 0.96153
 H746 H 0.38189 0.99441 0.96663
 H747 H 0.44525 1.06583 0.92091
 C748 C 0.30602 0.81849 1.09607
 C749 C 0.32906 0.83381 1.11897
 C750 C 0.31890 0.84252 1.15365
 C751 C 0.28726 0.83493 1.16509
 C752 C 0.26416 0.82073 1.14160
 C753 C 0.27418 0.81256 1.10704
 C754 C 0.33998 0.85981 1.17624
 C755 C 0.36998 0.87076 1.16415
 C756 C 0.38067 0.86352 1.12939
 C757 C 0.36107 0.84250 1.10774
 C758 C 0.37395 0.83116 1.07540
 C759 C 0.40338 0.84266 1.06272
 C760 C 0.42055 0.86654 1.08118
 C761 C 0.40983 0.87710 1.11504
 C762 C 0.42742 0.90246 1.13174
 C763 C 0.45269 0.91833 1.11401
 C764 C 0.46186 0.90879 1.07972
 C765 C 0.44708 0.88144 1.06466
 H766 H 0.31126 0.81256 1.06869
 H767 H 0.28046 0.84098 1.19213
 H768 H 0.25706 0.80263 1.08760
 H769 H 0.33263 0.86618 1.20303
 H770 H 0.38456 0.88460 1.18283
 H771 H 0.36180 0.81312 1.05936
 H772 H 0.41191 0.83394 1.03722
 H773 H 0.42065 0.91220 1.15724
 H774 H 0.46371 0.93936 1.12627
 H775 H 0.45400 0.87367 1.03817
 C776 C 0.65930 1.18202 1.15768
 C777 C 0.66924 1.15442 1.13829
 C778 C 0.70274 1.14528 1.14100
 C779 C 0.72452 1.16183 1.16371
 C780 C 0.71396 1.18814 1.18367
 C781 C 0.68146 1.19863 1.17989
 C782 C 0.71441 1.11930 1.12154
 C783 C 0.69350 1.10142 1.09989
 C784 C 0.65965 1.10844 1.09728
 C785 C 0.64723 1.13529 1.11690
 C786 C 0.61314 1.14127 1.11557
 C787 C 0.59178 1.12111 1.09695
 C788 C 0.60345 1.09457 1.07823
 C789 C 0.63762 1.08854 1.07700
 C790 C 0.64823 1.06222 1.05619
 C791 C 0.62585 1.04127 1.04018
 C792 C 0.59213 1.04595 1.04370
 C793 C 0.58105 1.07340 1.06165
 H794 H 0.63464 1.19139 1.15633
 H795 H 0.74992 1.15410 1.16615
 H796 H 0.67302 1.21924 1.19486
 H797 H 0.74006 1.11242 1.12336
 H798 H 0.70466 1.08142 1.08650
 H799 H 0.60195 1.16081 1.12976
 H800 H 0.56572 1.12609 1.09768
 H801 H 0.67364 1.05678 1.05201
 H802 H 0.63511 1.02075 1.02565
 H803 H 0.55496 1.07756 1.06406
 C804 C 0.70832 0.80634 0.83579
 C805 C 0.68779 0.83109 0.82119
 C806 C 0.69589 0.84445 0.78728
 C807 C 0.72333 0.83296 0.76887
 C808 C 0.74349 0.80849 0.78403
 C809 C 0.73554 0.79549 0.81762
 C810 C 0.67698 0.86969 0.77236
 C811 C 0.65110 0.88299 0.79099
 C812 C 0.64266 0.87116 0.82528
 C813 C 0.66045 0.84387 0.83987
 C814 C 0.65068 0.83052 0.87298
 C815 C 0.62666 0.84506 0.89292
 C816 C 0.61102 0.87320 0.88058
 C817 C 0.61775 0.88616 0.84609
 C818 C 0.60017 0.91436 0.83480
 C819 C 0.57891 0.93013 0.85795
 C820 C 0.57451 0.91830 0.89287
 C821 C 0.58960 0.88912 0.90337
 H822 H 0.70486 0.79549 0.86184
 H823 H 0.72916 0.84329 0.74292
 H824 H 0.75110 0.77732 0.83065
 H825 H 0.68278 0.87987 0.74632
 H826 H 0.63827 0.90281 0.77780
 H827 H 0.66133 0.80881 0.88460
 H828 H 0.62084 0.83456 0.91881
 H829 H 0.60321 0.92559 0.80885
 H830 H 0.56741 0.95266 0.84921
 H831 H 0.58588 0.87954 0.93022
   
