data_POSCAR
  _audit_creation_date              2014-09-24
  _audit_creation_method            'ToBaCCo'
  _symmetry_space_group_name_H-M    'P1'
  _symmetry_Int_Tables_number       1
  _symmetry_cell_setting            triclinic
  loop_
  _symmetry_equiv_pos_as_xyz
 x,y,z
_cell_length_a 54.0019
_cell_length_b 53.9603
_cell_length_c 53.9068
_cell_angle_alpha 90.463300
_cell_angle_beta 90.544200
_cell_angle_gamma 90.535700
loop_
  _atom_site_label
  _atom_site_type_symbol
  _atom_site_fract_x
  _atom_site_fract_y
  _atom_site_fract_z
C1 C 0.72833 0.66185 0.96871
 H2 H 0.74734 0.66222 0.96256
 C3 C 0.71012 0.67446 0.95529
 H4 H 0.71512 0.68472 0.93886
 C5 C 0.69815 0.64669 0.99659
 H6 H 0.69329 0.63519 1.01212
 C7 C 0.67948 0.65904 0.98381
 H8 H 0.66044 0.65718 0.98976
 N9 N 0.72203 0.64812 0.98881
 C10 C 0.78791 0.63239 1.03321
 H11 H 0.78482 0.61267 1.03518
 C12 C 0.80844 0.64365 1.04455
 H13 H 0.82121 0.63258 1.05530
 C14 C 0.77526 0.67080 1.01638
 H15 H 0.76228 0.68121 1.00531
 C16 C 0.79571 0.68284 1.02742
 H17 H 0.79853 0.70254 1.02478
 Zn18 Zn 0.74612 0.62753 1.00373
 N19 N 0.77205 0.64592 1.01915
 C20 C 0.78415 0.60783 0.97390
 N21 N 0.75937 0.60728 0.97833
 C22 C 0.74359 0.59349 0.96387
 C23 C 0.75268 0.57924 0.94424
 C24 C 0.79397 0.59387 0.95451
 C25 C 0.72329 0.62026 1.04922
 C26 C 0.71173 0.60736 1.06828
 C27 C 0.71730 0.56932 1.04502
 C28 C 0.72878 0.58299 1.02637
 N29 N 0.73120 0.60805 1.02864
 H30 H 0.79636 0.61935 0.98511
 H31 H 0.72392 0.59376 0.96749
 H32 H 0.74002 0.56837 0.93275
 H33 H 0.81370 0.59452 0.95107
 H34 H 0.72576 0.64015 1.05065
 H35 H 0.70526 0.61740 1.08444
 H36 H 0.71525 0.54941 1.04291
 H37 H 0.73564 0.57357 1.01011
 C38 C 0.81254 0.66903 1.04144
 C39 C 0.68542 0.67274 0.96277
 C40 C 0.70855 0.58166 1.06610
 C41 C 0.77811 0.57949 0.93954
 C42 C 0.73452 0.34456 0.52361
 H43 H 0.75356 0.34337 0.52989
 C44 C 0.71590 0.33156 0.53605
 H45 H 0.72060 0.32018 0.55184
 C46 C 0.70478 0.36208 0.49644
 H47 H 0.70028 0.37462 0.48161
 C48 C 0.68570 0.34938 0.50825
 H49 H 0.66670 0.35202 0.50224
 N50 N 0.72865 0.35963 0.50433
 C51 C 0.79543 0.37601 0.46228
 H52 H 0.79377 0.39597 0.46194
 C53 C 0.81494 0.36460 0.45007
 H54 H 0.82840 0.37580 0.44031
 C55 C 0.77993 0.33706 0.47552
 H56 H 0.76616 0.32647 0.48540
 C57 C 0.79927 0.32485 0.46351
 H58 H 0.80046 0.30485 0.46426
 Zn59 Zn 0.75352 0.38044 0.49089
 N60 N 0.77860 0.36224 0.47492
 C61 C 0.79214 0.39820 0.52256
 N62 N 0.76742 0.39918 0.51751
 C63 C 0.75191 0.41248 0.53215
 C64 C 0.76123 0.42582 0.55257
 C65 C 0.80220 0.41126 0.54277
 C66 C 0.73072 0.39040 0.44557
 C67 C 0.71930 0.40444 0.42718
 C68 C 0.72650 0.44116 0.45230
 C69 C 0.73781 0.42641 0.47027
 N70 N 0.73930 0.40145 0.46678
 H71 H 0.80410 0.38705 0.51115
 H72 H 0.73227 0.41256 0.52801
 H73 H 0.74877 0.43633 0.56416
 H74 H 0.82189 0.41032 0.54669
 H75 H 0.73243 0.37057 0.44317
 H76 H 0.71217 0.39542 0.41052
 H77 H 0.72504 0.46096 0.45531
 H78 H 0.74519 0.43492 0.48700
 C79 C 0.81699 0.33883 0.45079
 C80 C 0.69123 0.33427 0.52844
 C81 C 0.71699 0.43000 0.43067
 C82 C 0.78661 0.42518 0.55790
 C83 C 0.23449 -0.15498 0.02335
 H84 H 0.25354 -0.15614 0.02960
 C85 C 0.21590 -0.16801 0.03581
 H86 H 0.22064 -0.17938 0.05159
 C87 C 0.20468 -0.13752 -0.00380
 H88 H 0.20015 -0.12500 -0.01863
 C89 C 0.18564 -0.15025 0.00804
 H90 H 0.16663 -0.14765 0.00204
 N91 N 0.22856 -0.13993 0.00407
 C92 C 0.29524 -0.12361 -0.03819
 H93 H 0.29356 -0.10365 -0.03858
 C94 C 0.31473 -0.13504 -0.05040
 H95 H 0.32816 -0.12387 -0.06022
 C96 C 0.27980 -0.16253 -0.02479
 H97 H 0.26606 -0.17310 -0.01485
 C98 C 0.29913 -0.17476 -0.03680
 H99 H 0.30035 -0.19476 -0.03599
 Zn100 Zn 0.25340 -0.11913 -0.00947
 N101 N 0.27845 -0.13736 -0.02546
 C102 C 0.29209 -0.10129 0.02204
 N103 N 0.26736 -0.10031 0.01707
 C104 C 0.25190 -0.08698 0.03172
 C105 C 0.26127 -0.07359 0.05208
 C106 C 0.30221 -0.08819 0.04220
 C107 C 0.23052 -0.10932 -0.05477
 C108 C 0.21904 -0.09538 -0.07320
 C109 C 0.22620 -0.05855 -0.04817
 C110 C 0.23757 -0.07324 -0.03019
 N111 N 0.23911 -0.09820 -0.03361
 H112 H 0.30401 -0.11247 0.01063
 H113 H 0.23224 -0.08690 0.02763
 H114 H 0.24886 -0.06304 0.06368
 H115 H 0.32191 -0.08912 0.04606
 H116 H 0.23227 -0.12916 -0.05711
 H117 H 0.21193 -0.10458 -0.08979
 H118 H 0.22477 -0.03873 -0.04510
 H119 H 0.24497 -0.06468 -0.01349
 C120 C 0.31680 -0.16081 -0.04960
 C121 C 0.19122 -0.16535 0.02822
 C122 C 0.21666 -0.06978 -0.06979
 C123 C 0.28667 -0.07423 0.05734
 C124 C 0.22877 0.16188 0.46814
 H125 H 0.24777 0.16233 0.46199
 C126 C 0.21052 0.17449 0.45477
 H127 H 0.21548 0.18483 0.43838
 C128 C 0.19863 0.14653 0.49597
 H129 H 0.19381 0.13496 0.51145
 C130 C 0.17992 0.15889 0.48324
 H131 H 0.16090 0.15695 0.48919
 N132 N 0.22251 0.14805 0.48819
 C133 C 0.28845 0.13227 0.53248
 H134 H 0.28539 0.11253 0.53434
 C135 C 0.30894 0.14351 0.54390
 H136 H 0.32172 0.13241 0.55460
 C137 C 0.27571 0.17074 0.51586
 H138 H 0.26271 0.18119 0.50485
 C139 C 0.29612 0.18277 0.52699
 H140 H 0.29889 0.20250 0.52447
 Zn141 Zn 0.24665 0.12747 0.50302
 N142 N 0.27255 0.14584 0.51850
 C143 C 0.28469 0.10792 0.47310
 N144 N 0.25992 0.10730 0.47756
 C145 C 0.24415 0.09349 0.46311
 C146 C 0.25325 0.07928 0.44345
 C147 C 0.29452 0.09401 0.45369
 C148 C 0.22387 0.12006 0.54852
 C149 C 0.21238 0.10707 0.56757
 C150 C 0.21801 0.06912 0.54425
 C151 C 0.22942 0.08283 0.52559
 N152 N 0.23179 0.10789 0.52789
 H153 H 0.29688 0.11946 0.48431
 H154 H 0.22449 0.09371 0.46675
 H155 H 0.24061 0.06840 0.43196
 H156 H 0.31425 0.09471 0.45023
 H157 H 0.22629 0.13994 0.54998
 H158 H 0.20588 0.11695 0.58379
 H159 H 0.21596 0.04921 0.54223
 H160 H 0.23628 0.07345 0.50931
 C161 C 0.31297 0.16892 0.54095
 C162 C 0.18582 0.17268 0.46225
 C163 C 0.20929 0.08140 0.56534
 C164 C 0.27868 0.07960 0.43872
 C165 C 0.16271 0.46811 0.22871
 H166 H 0.16309 0.46204 0.24779
 C167 C 0.17531 0.45464 0.21054
 H168 H 0.18556 0.43826 0.21564
 C169 C 0.14753 0.49580 0.19833
 H170 H 0.13602 0.51126 0.19337
 C171 C 0.15987 0.48297 0.17969
 H172 H 0.15799 0.48883 0.16059
 N173 N 0.14896 0.48813 0.22229
 C174 C 0.13297 0.53260 0.28805
 H175 H 0.11326 0.53441 0.28492
 C176 C 0.14414 0.54411 0.30855
 H177 H 0.13300 0.55484 0.32126
 C178 C 0.17147 0.51601 0.27551
 H179 H 0.18195 0.50498 0.26258
 C180 C 0.18342 0.52723 0.29594
 H181 H 0.20312 0.52476 0.29879
 Zn182 Zn 0.12832 0.50301 0.24632
 N183 N 0.14659 0.51859 0.27225
 C184 C 0.10864 0.47323 0.28450
 N185 N 0.10814 0.47760 0.25966
 C186 C 0.09441 0.46308 0.24387
 C187 C 0.08019 0.44345 0.25301
 C188 C 0.09471 0.45385 0.29438
 C189 C 0.12094 0.54837 0.22324
 C190 C 0.10797 0.56734 0.21163
 C191 C 0.07005 0.54400 0.21734
 C192 C 0.08375 0.52542 0.22886
 N193 N 0.10879 0.52777 0.23125
 H194 H 0.12011 0.48449 0.29671
 H195 H 0.09472 0.46665 0.22416
 H196 H 0.06937 0.43191 0.24035
 H197 H 0.09532 0.45045 0.31416
 H198 H 0.14081 0.54987 0.22567
 H199 H 0.11784 0.58354 0.20506
 H200 H 0.05016 0.54194 0.21527
 H201 H 0.07438 0.50917 0.23580
 C202 C 0.16952 0.54122 0.31269
 C203 C 0.17356 0.46200 0.18576
 C204 C 0.08232 0.56506 0.20852
 C205 C 0.08039 0.43881 0.27851
 C206 C -0.15587 0.02419 0.23367
 H207 H -0.15708 0.03044 0.25273
 C208 C -0.16877 0.03666 0.21498
 H209 H -0.18009 0.05246 0.21971
 C210 C -0.13840 -0.00299 0.20394
 H211 H -0.12592 -0.01783 0.19948
 C212 C -0.15099 0.00885 0.18478
 H213 H -0.14830 0.00278 0.16578
 N214 N -0.14087 0.00489 0.22784
 C215 C -0.12460 -0.03726 0.29472
 H216 H -0.10467 -0.03764 0.29302
 C217 C -0.13600 -0.04948 0.31428
 H218 H -0.12482 -0.05929 0.32773
 C219 C -0.16351 -0.02391 0.27930
 H220 H -0.17409 -0.01397 0.26554
 C221 C -0.17571 -0.03592 0.29869
 H222 H -0.19569 -0.03514 0.29993
 Zn223 Zn -0.12013 -0.00859 0.25279
 N224 N -0.13836 -0.02456 0.27791
 C225 C -0.10231 0.02292 0.29151
 N226 N -0.10134 0.01795 0.26673
 C227 C -0.08798 0.03257 0.25123
 C228 C -0.07455 0.05290 0.26060
 C229 C -0.08916 0.04303 0.30162
 C230 C -0.11028 -0.05387 0.23000
 C231 C -0.09630 -0.07226 0.21860
 C232 C -0.05955 -0.04721 0.22580
 C233 C -0.07424 -0.02924 0.23709
 N234 N -0.09920 -0.03269 0.23858
 H235 H -0.11350 0.01153 0.30346
 H236 H -0.08791 0.02849 0.23154
 H237 H -0.06397 0.06446 0.24815
 H238 H -0.09008 0.04689 0.32135
 H239 H -0.13011 -0.05624 0.23170
 H240 H -0.10535 -0.08889 0.21147
 H241 H -0.03976 -0.04423 0.22435
 H242 H -0.06571 -0.01254 0.24447
 C243 C -0.16175 -0.04871 0.31639
 C244 C -0.16603 0.02908 0.19026
 C245 C -0.07075 -0.06881 0.21630
 C246 C -0.07516 0.05814 0.28604
 C247 C 0.34394 0.52386 0.73473
 H248 H 0.34277 0.53002 0.75382
 C249 C 0.33096 0.53639 0.71613
 H250 H 0.31962 0.55214 0.72090
 C251 C 0.36139 0.49686 0.70482
 H252 H 0.37389 0.48207 0.70025
 C253 C 0.34871 0.50877 0.68575
 H254 H 0.35133 0.50287 0.66670
 N255 N 0.35897 0.50462 0.72876
 C256 C 0.37534 0.46229 0.79550
 H257 H 0.39528 0.46199 0.79384
 C258 C 0.36393 0.44995 0.81497
 H259 H 0.37512 0.44014 0.82842
 C260 C 0.33642 0.47553 0.78000
 H261 H 0.32584 0.48546 0.76624
 C262 C 0.32421 0.46340 0.79931
 H263 H 0.30422 0.46408 0.80050
 Zn264 Zn 0.37977 0.49107 0.75361
 N265 N 0.36158 0.47499 0.77869
 C266 C 0.39762 0.52251 0.79238
 N267 N 0.39855 0.51759 0.76760
 C268 C 0.41184 0.53226 0.75208
 C269 C 0.42524 0.55261 0.76145
 C270 C 0.41074 0.54265 0.80250
 C271 C 0.38962 0.44590 0.73060
 C272 C 0.40361 0.42756 0.71911
 C273 C 0.44035 0.45260 0.72642
 C274 C 0.42565 0.47051 0.73779
 N275 N 0.40070 0.46704 0.73927
 H276 H 0.38648 0.51108 0.80434
 H277 H 0.41188 0.52821 0.73240
 H278 H 0.43575 0.56422 0.74900
 H279 H 0.40985 0.54647 0.82223
 H280 H 0.36980 0.44351 0.73230
 H281 H 0.39457 0.41096 0.71192
 H282 H 0.46015 0.45559 0.72498
 H283 H 0.43418 0.48718 0.74525
 C284 C 0.33818 0.45060 0.81700
 C285 C 0.33365 0.52892 0.69139
 C286 C 0.42916 0.43104 0.71683
 C287 C 0.42466 0.55782 0.78690
 C288 C 0.66303 0.96866 0.72932
 H289 H 0.66345 0.96248 0.74836
 C290 C 0.67559 0.95532 0.71104
 H291 H 0.68587 0.93892 0.71601
 C292 C 0.64774 0.99652 0.69914
 H293 H 0.63619 1.01199 0.69431
 C294 C 0.66005 0.98382 0.68039
 H295 H 0.65811 0.98979 0.66133
 N296 N 0.64923 0.98870 0.72305
 C297 C 0.63325 1.03278 0.78910
 H298 H 0.61353 1.03457 0.78599
 C299 C 0.64441 1.04420 0.80965
 H300 H 0.63321 1.05484 0.82239
 C301 C 0.67175 1.01632 0.77643
 H302 H 0.68224 1.00538 0.76342
 C303 C 0.68372 1.02745 0.79689
 H304 H 0.70344 1.02497 0.79965
 Zn305 Zn 0.62860 1.00341 0.74721
 N306 N 0.64687 1.01887 0.77321
 C307 C 0.60899 0.97338 0.78524
 N308 N 0.60848 0.97787 0.76043
 C309 C 0.59478 0.96341 0.74457
 C310 C 0.58057 0.94372 0.75361
 C311 C 0.59507 0.95393 0.79503
 C312 C 0.62108 1.04887 0.72438
 C313 C 0.60805 1.06784 0.71282
 C314 C 0.57021 1.04434 0.71840
 C315 C 0.58396 1.02577 0.72988
 N316 N 0.60899 1.02820 0.73230
 H317 H 0.62044 0.98460 0.79751
 H318 H 0.59508 0.96708 0.72487
 H319 H 0.56976 0.93224 0.74089
 H320 H 0.59568 0.95045 0.81479
 H321 H 0.64094 1.05044 0.72684
 H322 H 0.61787 1.08409 0.70631
 H323 H 0.55033 1.04221 0.71629
 H324 H 0.57463 1.00946 0.73674
 C325 C 0.66982 1.04134 0.81376
 C326 C 0.67378 0.96282 0.68630
 C327 C 0.58242 1.06547 0.70966
 C328 C 0.58077 0.93897 0.77908
 C329 C 0.02324 0.23369 -0.15482
 H330 H 0.02946 0.25276 -0.15592
 C331 C 0.03577 0.21515 -0.16782
 H332 H 0.05158 0.21994 -0.17910
 C333 C -0.00387 0.20376 -0.13754
 H334 H -0.01871 0.19916 -0.12508
 C335 C 0.00804 0.18476 -0.15024
 H336 H 0.00208 0.16572 -0.14769
 N337 N 0.00395 0.22768 -0.13986
 C338 C -0.03823 0.29435 -0.12339
 H339 H -0.03862 0.29258 -0.10342
 C340 C -0.05042 0.31391 -0.13479
 H341 H -0.06023 0.32730 -0.12357
 C342 C -0.02486 0.27907 -0.16239
 H343 H -0.01494 0.26536 -0.17300
 C344 C -0.03686 0.29846 -0.17458
 H345 H -0.03606 0.29977 -0.19460
 Zn346 Zn -0.00959 0.25244 -0.11900
 N347 N -0.02553 0.27760 -0.13719
 C348 C 0.02191 0.29106 -0.10099
 N349 N 0.01691 0.26631 -0.10008
 C350 C 0.03152 0.25075 -0.08678
 C351 C 0.05189 0.26004 -0.07336
 C352 C 0.04208 0.30109 -0.08785
 C353 C -0.05481 0.22949 -0.10934
 C354 C -0.07323 0.21799 -0.09544
 C355 C -0.04828 0.22507 -0.05850
 C356 C -0.03030 0.23646 -0.07315
 N357 N -0.03369 0.23805 -0.09814
 H358 H 0.01053 0.30305 -0.11214
 H359 H 0.02741 0.23109 -0.08676
 H360 H 0.06347 0.24754 -0.06286
 H361 H 0.04597 0.32080 -0.08874
 H362 H -0.05712 0.23129 -0.12920
 H363 H -0.08979 0.21092 -0.10469
 H364 H -0.04525 0.22360 -0.03866
 H365 H -0.01364 0.24383 -0.06453
 C366 C -0.04964 0.31609 -0.16058
 C367 C 0.02824 0.19042 -0.16522
 C368 C -0.06986 0.21556 -0.06980
 C369 C 0.05720 0.28545 -0.07394
 C370 C 0.46906 0.22882 0.16233
 H371 H 0.46287 0.24783 0.16267
 C372 C 0.45572 0.21056 0.17497
 H373 H 0.43932 0.21552 0.18522
 C374 C 0.49695 0.19869 0.14718
 H375 H 0.51243 0.19387 0.13566
 C376 C 0.48425 0.17997 0.15957
 H377 H 0.49023 0.16094 0.15772
 N378 N 0.48911 0.22257 0.14857
 C379 C 0.53306 0.28864 0.13235
 H380 H 0.53487 0.28550 0.11261
 C381 C 0.54441 0.30923 0.14348
 H382 H 0.55502 0.32201 0.13228
 C383 C 0.51661 0.27600 0.17095
 H384 H 0.50569 0.26300 0.18149
 C385 C 0.52768 0.29652 0.18287
 H386 H 0.52521 0.29936 0.20260
 Zn387 Zn 0.50379 0.24669 0.12782
 N388 N 0.51919 0.27274 0.14604
 C389 C 0.47371 0.28455 0.10805
 N390 N 0.47826 0.25977 0.10760
 C391 C 0.46382 0.24386 0.09394
 C392 C 0.44408 0.25280 0.07973
 C393 C 0.45422 0.29423 0.09414
 C394 C 0.54926 0.22399 0.12041
 C395 C 0.56824 0.21247 0.10742
 C396 C 0.54479 0.21789 0.06947
 C397 C 0.52620 0.22933 0.08319
 N398 N 0.52860 0.23181 0.10825
 H399 H 0.48491 0.29685 0.11948
 H400 H 0.46753 0.22420 0.09429
 H401 H 0.43260 0.24004 0.06898
 H402 H 0.45068 0.31396 0.09471
 H403 H 0.55080 0.22649 0.14030
 H404 H 0.58450 0.20605 0.11730
 H405 H 0.54269 0.21574 0.04956
 H406 H 0.50989 0.23611 0.07380
 C407 C 0.54152 0.31337 0.16889
 C408 C 0.46325 0.18586 0.17326
 C409 C 0.56592 0.20926 0.08175
 C410 C 0.43926 0.27823 0.07989
 C411 C 0.96788 0.72853 0.66282
 H412 H 0.96177 0.74757 0.66329
 C413 C 0.95455 0.71027 0.67545
 H414 H 0.93824 0.71524 0.68583
 C415 C 0.99558 0.69837 0.64738
 H416 H 1.01098 0.69355 0.63576
 C417 C 0.98288 0.67964 0.65975
 H418 H 0.98880 0.66059 0.65779
 N419 N 0.98785 0.72227 0.64893
 C420 C 1.03207 0.78826 0.63313
 H421 H 1.03384 0.78526 0.61336
 C422 C 1.04353 0.80871 0.64439
 H423 H 1.05419 0.82152 0.63327
 C424 C 1.01561 0.77542 0.67166
 H425 H 1.00465 0.76239 0.68213
 C426 C 1.02680 0.79579 0.68371
 H427 H 1.02438 0.79850 0.70347
 Zn428 Zn 1.00262 0.74646 0.62833
 N429 N 1.01814 0.77233 0.64672
 C430 C 0.97275 0.78459 0.60879
 N431 N 0.97718 0.75980 0.60817
 C432 C 0.96273 0.74406 0.59433
 C433 C 0.94312 0.75320 0.58008
 C434 C 0.95338 0.79448 0.59484
 C435 C 1.04800 0.72362 0.62084
 C436 C 1.06698 0.71216 0.60780
 C437 C 1.04365 0.71797 0.56984
 C438 C 1.02505 0.72935 0.58361
 N439 N 1.02740 0.73161 0.60869
 H440 H 0.98395 0.79676 0.62035
 H441 H 0.96635 0.72437 0.59454
 H442 H 0.93164 0.74058 0.56916
 H443 H 0.94994 0.81422 0.59554
 H444 H 1.04950 0.72596 0.64075
 H445 H 1.08319 0.70561 0.61766
 H446 H 1.04159 0.71601 0.54991
 H447 H 1.00879 0.73626 0.57424
 C448 C 1.04070 0.81267 0.66984
 C449 C 0.96199 0.68555 0.67360
 C450 C 1.06472 0.70918 0.58210
 C451 C 0.93842 0.77866 0.58039
 C452 C 0.52385 0.73544 0.34387
 H453 H 0.53009 0.75450 0.34271
 C454 C 0.53629 0.71685 0.33084
 H455 H 0.55204 0.72160 0.31947
 C456 C 0.49677 0.70559 0.36133
 H457 H 0.48198 0.70104 0.37386
 C458 C 0.50859 0.68654 0.34861
 H459 H 0.50261 0.66752 0.35122
 N460 N 0.50462 0.72949 0.35892
 C461 C 0.46253 0.79621 0.37544
 H462 H 0.46220 0.79444 0.39541
 C463 C 0.45028 0.81576 0.36408
 H464 H 0.44052 0.82912 0.37539
 C465 C 0.47577 0.78090 0.33641
 H466 H 0.48566 0.76719 0.32578
 C467 C 0.46373 0.80028 0.32424
 H468 H 0.46449 0.80152 0.30420
 Zn469 Zn 0.49116 0.75431 0.37979
 N470 N 0.47518 0.77946 0.36161
 C471 C 0.52268 0.79294 0.39773
 N472 N 0.51770 0.76819 0.39864
 C473 C 0.53230 0.75264 0.41197
 C474 C 0.55262 0.76196 0.42545
 C475 C 0.54280 0.80300 0.41093
 C476 C 0.44594 0.73141 0.38962
 C477 C 0.42755 0.71997 0.40361
 C478 C 0.45258 0.72713 0.44044
 C479 C 0.47054 0.73846 0.42573
 N480 N 0.46709 0.73999 0.40074
 H481 H 0.51131 0.80493 0.38656
 H482 H 0.52820 0.73298 0.41199
 H483 H 0.56418 0.74948 0.43600
 H484 H 0.54666 0.82271 0.41006
 H485 H 0.44357 0.73315 0.36976
 H486 H 0.41094 0.71285 0.39454
 H487 H 0.45555 0.72566 0.46027
 H488 H 0.48722 0.74585 0.43429
 C489 C 0.45098 0.81794 0.33827
 C490 C 0.52873 0.69215 0.33351
 C491 C 0.43100 0.71764 0.42922
 C492 C 0.55789 0.78738 0.42490
 C493 C 0.35519 -0.00421 0.21795
 C494 C 0.36500 0.00800 0.23899
 C495 C 0.37550 0.03177 0.23659
 C496 C 0.37641 0.04310 0.21332
 C497 C 0.36634 0.03091 0.19246
 C498 C 0.35563 0.00732 0.19478
 C499 C 0.36413 -0.00405 0.26346
 C500 C 0.37438 -0.02765 0.26681
 C501 C 0.37369 -0.03892 0.29012
 C502 C 0.36228 -0.02686 0.31002
 C503 C 0.35181 -0.00347 0.30672
 C504 C 0.35296 0.00802 0.28356
 H505 H 0.34689 -0.02248 0.21970
 H506 H 0.38336 0.04120 0.25271
 H507 H 0.38327 -0.03698 0.25144
 H508 H 0.34487 0.02615 0.28107
 H509 H 0.36696 0.03970 0.17445
 H510 H 0.36166 -0.03560 0.32805
 C511 C 0.13076 1.01238 0.71829
 C512 C 0.12090 1.00035 0.73902
 C513 C 0.11108 0.97626 0.73636
 C514 C 0.11094 0.96443 0.71312
 C515 C 0.12107 0.97646 0.69259
 C516 C 0.13110 1.00036 0.69519
 C517 C 0.12156 1.01271 0.76355
 C518 C 0.11109 1.03625 0.76679
 C519 C 0.11194 1.04793 0.79010
 C520 C 0.12372 1.03635 0.81011
 C521 C 0.13441 1.01302 0.80689
 C522 C 0.13310 1.00113 0.78374
 H523 H 0.13870 1.03083 0.72030
 H524 H 0.10335 0.96688 0.75226
 H525 H 0.10198 1.04523 0.75132
 H526 H 0.14146 0.98309 0.78130
 H527 H 0.12123 0.96720 0.67465
 H528 H 0.12451 1.04544 0.82812
 C529 C 0.63054 0.51372 0.21692
 C530 C 0.62065 0.50167 0.23762
 C531 C 0.61090 0.47754 0.23493
 C532 C 0.61087 0.46571 0.21170
 C533 C 0.62103 0.47776 0.19119
 C534 C 0.63099 0.50169 0.19382
 C535 C 0.62125 0.51402 0.26216
 C536 C 0.61085 0.53759 0.26537
 C537 C 0.61167 0.54926 0.28869
 C538 C 0.62335 0.53764 0.30873
 C539 C 0.63397 0.51427 0.30554
 C540 C 0.63268 0.50239 0.28238
 H541 H 0.63844 0.53218 0.21894
 H542 H 0.60316 0.46814 0.25081
 H543 H 0.60182 0.54661 0.24988
 H544 H 0.64100 0.48433 0.27996
 H545 H 0.62128 0.46850 0.17326
 H546 H 0.62412 0.54672 0.32675
 C547 C 0.85451 0.49532 0.71877
 C548 C 0.86423 0.50758 0.73982
 C549 C 0.87466 0.53139 0.73740
 C550 C 0.87558 0.54268 0.71411
 C551 C 0.86560 0.53043 0.69325
 C552 C 0.85496 0.50682 0.69559
 C553 C 0.86336 0.49556 0.76430
 C554 C 0.87356 0.47194 0.76766
 C555 C 0.87285 0.46069 0.79099
 C556 C 0.86148 0.47279 0.81088
 C557 C 0.85107 0.49620 0.80758
 C558 C 0.85223 0.50767 0.78441
 H559 H 0.84625 0.47702 0.72053
 H560 H 0.88246 0.54087 0.75352
 H561 H 0.88242 0.46258 0.75230
 H562 H 0.84418 0.52582 0.78191
 H563 H 0.86622 0.53919 0.67523
 H564 H 0.86085 0.46406 0.82892
 C565 C 0.21796 0.35335 -0.00400
 C566 C 0.23899 0.36315 0.00820
 C567 C 0.23664 0.37365 0.03200
 C568 C 0.21342 0.37457 0.04334
 C569 C 0.19258 0.36451 0.03115
 C570 C 0.19485 0.35380 0.00755
 C571 C 0.26339 0.36234 -0.00388
 C572 C 0.26664 0.37260 -0.02752
 C573 C 0.28991 0.37202 -0.03879
 C574 C 0.30984 0.36071 -0.02671
 C575 C 0.30664 0.35023 -0.00328
 C576 C 0.28354 0.35126 0.00822
 H577 H 0.21967 0.34506 -0.02229
 H578 H 0.25274 0.38152 0.04142
 H579 H 0.25125 0.38144 -0.03686
 H580 H 0.28112 0.34318 0.02640
 H581 H 0.17461 0.36515 0.03995
 H582 H 0.32784 0.36020 -0.03545
 C583 C 0.71828 0.13040 1.01253
 C584 C 0.73892 0.12049 1.00048
 C585 C 0.73619 0.11069 0.97636
 C586 C 0.71297 0.11063 0.96454
 C587 C 0.69252 0.12080 0.97659
 C588 C 0.69520 0.13081 1.00052
 C589 C 0.76343 0.12108 1.01284
 C590 C 0.76666 0.11069 1.03646
 C591 C 0.78994 0.11150 1.04816
 C592 C 0.80994 0.12315 1.03651
 C593 C 0.80676 0.13376 1.01310
 C594 C 0.78363 0.13248 1.00119
 H595 H 0.72034 0.13833 1.03100
 H596 H 0.75203 0.10292 0.96696
 H597 H 0.75119 0.10168 1.04550
 H598 H 0.78120 0.14079 0.98309
 H599 H 0.67460 0.12102 0.96734
 H600 H 0.82794 0.12392 1.04561
 C601 C 0.21741 0.63118 0.51276
 C602 C 0.23812 0.62138 0.50073
 C603 C 0.23547 0.61160 0.47660
 C604 C 0.21227 0.61144 0.46474
 C605 C 0.19175 0.62151 0.47677
 C606 C 0.19434 0.63150 0.50070
 C607 C 0.26261 0.62204 0.51313
 C608 C 0.26583 0.61162 0.53674
 C609 C 0.28910 0.61245 0.54846
 C610 C 0.30910 0.62414 0.53684
 C611 C 0.30591 0.63478 0.51344
 C612 C 0.28279 0.63349 0.50152
 H613 H 0.21940 0.63909 0.53124
 H614 H 0.25135 0.60391 0.46722
 H615 H 0.25037 0.60257 0.54575
 H616 H 0.28037 0.64181 0.48342
 H617 H 0.17384 0.62165 0.46749
 H618 H 0.32708 0.62491 0.54595
 C619 C 0.71811 0.85529 0.49583
 C620 C 0.73913 0.86500 0.50812
 C621 C 0.73675 0.87541 0.53195
 C622 C 0.71351 0.87632 0.54325
 C623 C 0.69267 0.86635 0.53097
 C624 C 0.69498 0.85574 0.50733
 C625 C 0.76357 0.86414 0.49610
 C626 C 0.76689 0.87435 0.47244
 C627 C 0.79015 0.87364 0.46118
 C628 C 0.81003 0.86227 0.47331
 C629 C 0.80677 0.85185 0.49676
 C630 C 0.78366 0.85301 0.50823
 H631 H 0.71985 0.84706 0.47752
 H632 H 0.75285 0.88319 0.54145
 H633 H 0.75153 0.88321 0.46305
 H634 H 0.78118 0.84495 0.52641
 H635 H 0.67469 0.86698 0.53973
 H636 H 0.82803 0.86165 0.46458
 C637 C -0.00426 0.21817 0.35468
 C638 C 0.00806 0.23913 0.36450
 C639 C 0.03185 0.23662 0.37493
 C640 C 0.04306 0.21333 0.37575
 C641 C 0.03075 0.19256 0.36568
 C642 C 0.00716 0.19499 0.35504
 C643 C -0.00387 0.26362 0.36371
 C644 C -0.02747 0.26697 0.37392
 C645 C -0.03863 0.29030 0.37327
 C646 C -0.02648 0.31020 0.36194
 C647 C -0.00309 0.30690 0.35152
 C648 C 0.00830 0.28373 0.35262
 H649 H -0.02253 0.22000 0.34642
 H650 H 0.04137 0.25266 0.38280
 H651 H -0.03687 0.25160 0.38274
 H652 H 0.02643 0.28123 0.34455
 H653 H 0.03946 0.17454 0.36623
 H654 H -0.03514 0.32824 0.36135
 C655 C 1.01293 0.71766 0.12978
 C656 C 1.00082 0.73835 0.11999
 C657 C 0.97667 0.73564 0.11031
 C658 C 0.96488 0.71240 0.11026
 C659 C 0.97699 0.69190 0.12032
 C660 C 1.00094 0.69455 0.13021
 C661 C 1.01313 0.76289 0.12059
 C662 C 1.03670 0.76617 0.11021
 C663 C 1.04835 0.78948 0.11105
 C664 C 1.03671 0.80946 0.12273
 C665 C 1.01336 0.80622 0.13333
 C666 C 1.00150 0.78306 0.13203
 H667 H 1.03141 0.71969 0.13763
 H668 H 0.96722 0.75152 0.10263
 H669 H 1.04573 0.75072 0.10117
 H670 H 0.98344 0.78060 0.14034
 H671 H 0.96776 0.67397 0.12057
 H672 H 1.04578 0.82747 0.12352
 C673 C 0.51288 0.21769 0.63037
 C674 C 0.50080 0.23834 0.62045
 C675 C 0.47670 0.23558 0.61067
 C676 C 0.46492 0.21234 0.61066
 C677 C 0.47700 0.19188 0.62085
 C678 C 0.50091 0.19458 0.63083
 C679 C 0.51311 0.26288 0.62101
 C680 C 0.53666 0.26614 0.61060
 C681 C 0.54831 0.28946 0.61140
 C682 C 0.53667 0.30945 0.62306
 C683 C 0.51332 0.30622 0.63368
 C684 C 0.50147 0.28306 0.63242
 H685 H 0.53133 0.21976 0.63829
 H686 H 0.46728 0.25142 0.60289
 H687 H 0.54569 0.25068 0.60159
 H688 H 0.48342 0.28060 0.64075
 H689 H 0.46778 0.17394 0.62111
 H690 H 0.54573 0.32747 0.62382
 C691 C 0.49553 0.71819 0.85487
 C692 C 0.50789 0.73917 0.86460
 C693 C 0.53166 0.73667 0.87505
 C694 C 0.54283 0.71336 0.87599
 C695 C 0.53049 0.69257 0.86602
 C696 C 0.50691 0.69499 0.85535
 C697 C 0.49599 0.76368 0.86371
 C698 C 0.47236 0.76709 0.87383
 C699 C 0.46124 0.79043 0.87313
 C700 C 0.47348 0.81030 0.86184
 C701 C 0.49690 0.80696 0.85150
 C702 C 0.50824 0.78376 0.85266
 H703 H 0.47726 0.72002 0.84660
 H704 H 0.54121 0.75273 0.88286
 H705 H 0.46290 0.75174 0.88264
 H706 H 0.52640 0.78123 0.84466
 H707 H 0.53916 0.67453 0.86667
 H708 H 0.46485 0.82836 0.86122
 C709 C 0.43958 -0.16251 0.32728
 C710 C 0.42939 -0.14465 0.31878
 C711 C 0.41739 -0.12314 0.31027
 C712 C 0.40718 -0.10436 0.30414
 C713 C 0.39532 -0.08193 0.29818
 C714 C 0.38535 -0.06248 0.29404
 C715 C 0.93838 0.33678 0.82783
 C716 C 0.92822 0.35471 0.81943
 C717 C 0.91629 0.37629 0.81101
 C718 C 0.90613 0.39513 0.80494
 C719 C 0.89435 0.41760 0.79903
 C720 C 0.88444 0.43709 0.79490
 C721 C 0.04219 1.17053 0.82396
 C722 C 0.05363 1.15307 0.81621
 C723 C 0.06669 1.13185 0.80851
 C724 C 0.07754 1.11321 0.80298
 C725 C 0.08988 1.09087 0.79761
 C726 C 0.10010 1.07146 0.79381
 C727 C 0.54257 0.67221 0.32264
 C728 C 0.55391 0.65469 0.31485
 C729 C 0.56684 0.63341 0.30711
 C730 C 0.57759 0.61471 0.30156
 C731 C 0.58981 0.59231 0.29617
 C732 C 0.59994 0.57284 0.29237
 C733 C 0.55214 0.33544 0.17996
 C734 C 0.56113 0.35454 0.18774
 C735 C 0.57172 0.37745 0.19526
 C736 C 0.58077 0.39734 0.20050
 C737 C 0.59133 0.42094 0.20540
 C738 C 0.60028 0.44127 0.20869
 C739 C 0.05146 0.83461 0.68105
 C740 C 0.06057 0.85361 0.68893
 C741 C 0.07131 0.87642 0.69656
 C742 C 0.08048 0.89624 0.70187
 C743 C 0.09117 0.91976 0.70681
 C744 C 0.10023 0.94004 0.71012
 C745 C 0.94732 0.66582 0.68394
 C746 C 0.93537 0.64842 0.69127
 C747 C 0.92180 0.62719 0.69842
 C748 C 0.91061 0.60849 0.70343
 C749 C 0.89795 0.58602 0.70814
 C750 C 0.88754 0.56644 0.71128
 C751 C 0.44853 0.16613 0.18353
 C752 C 0.43653 0.14873 0.19078
 C753 C 0.42290 0.12751 0.19784
 C754 C 0.41165 0.10882 0.20278
 C755 C 0.39892 0.08637 0.20741
 C756 C 0.38845 0.06683 0.21051
 C757 C 0.32656 0.43844 -0.16241
 C758 C 0.31816 0.42813 -0.14455
 C759 C 0.30974 0.41602 -0.12305
 C760 C 0.30368 0.40572 -0.10427
 C761 C 0.29781 0.39378 -0.08184
 C762 C 0.29373 0.38374 -0.06237
 C763 C 0.82667 0.93928 0.33708
 C764 C 0.81830 0.92911 0.35503
 C765 C 0.80994 0.91715 0.37664
 C766 C 0.80393 0.90697 0.39551
 C767 C 0.79809 0.89516 0.41802
 C768 C 0.79402 0.88524 0.43755
 C769 C 0.82380 0.04223 1.17131
 C770 C 0.81601 0.05363 1.15378
 C771 C 0.80829 0.06662 1.13248
 C772 C 0.80276 0.07739 1.11375
 C773 C 0.79739 0.08963 1.09130
 C774 C 0.79362 0.09977 1.07180
 C775 C 0.32284 0.54287 0.67145
 C776 C 0.31509 0.55430 0.65393
 C777 C 0.30741 0.56734 0.63265
 C778 C 0.30190 0.57817 0.61395
 C779 C 0.29655 0.59048 0.59154
 C780 C 0.29278 0.60067 0.57206
 C781 C 0.18061 0.55199 0.33469
 C782 C 0.18841 0.56112 0.35374
 C783 C 0.19593 0.57187 0.37659
 C784 C 0.20116 0.58104 0.39644
 C785 C 0.20603 0.59172 0.42000
 C786 C 0.20929 0.60077 0.44031
 C787 C 0.68038 0.05145 0.83460
 C788 C 0.68836 0.06050 0.85361
 C789 C 0.69609 0.07117 0.87643
 C790 C 0.70148 0.08029 0.89627
 C791 C 0.70652 0.09093 0.91982
 C792 C 0.70989 0.09995 0.94012
 C793 C 0.68398 0.94812 0.66655
 C794 C 0.69118 0.93613 0.64912
 C795 C 0.69819 0.92254 0.62786
 C796 C 0.70308 0.91133 0.60913
 C797 C 0.70766 0.89867 0.58663
 C798 C 0.71073 0.88826 0.56703
 C799 C 0.18381 0.44716 0.16612
 C800 C 0.19104 0.43506 0.14879
 C801 C 0.19808 0.42132 0.12764
 C802 C 0.20299 0.40998 0.10899
 C803 C 0.20759 0.39718 0.08658
 C804 C 0.21066 0.38665 0.06706
 C805 C -0.16238 0.32721 0.43880
 C806 C -0.14448 0.31879 0.42864
 C807 C -0.12294 0.31035 0.41671
 C808 C -0.10413 0.30426 0.40656
 C809 C -0.08168 0.29834 0.39477
 C810 C -0.06221 0.29421 0.38486
 C811 C 0.33744 0.82755 0.93842
 C812 C 0.35533 0.81911 0.92829
 C813 C 0.37688 0.81064 0.91638
 C814 C 0.39569 0.80453 0.90626
 C815 C 0.41816 0.79856 0.89452
 C816 C 0.43764 0.79439 0.88465
 C817 C 1.17129 0.82374 0.04206
 C818 C 1.15378 0.81590 0.05339
 C819 C 1.13250 0.80810 0.06631
 C820 C 1.11380 0.80250 0.07703
 C821 C 1.09140 0.79705 0.08923
 C822 C 1.07193 0.79321 0.09934
 C823 C 0.67127 0.32342 0.54228
 C824 C 0.65374 0.31564 0.55362
 C825 C 0.63245 0.30792 0.56656
 C826 C 0.61375 0.30237 0.57731
 C827 C 0.59135 0.29698 0.58953
 C828 C 0.57188 0.29317 0.59966
 C829 C 0.33496 0.18010 0.55162
 C830 C 0.35399 0.18798 0.56067
 C831 C 0.37683 0.19561 0.57132
 C832 C 0.39667 0.20092 0.58042
 C833 C 0.42022 0.20590 0.59103
 C834 C 0.44051 0.20925 0.60002
 C835 C 0.83458 0.68021 0.05199
 C836 C 0.85366 0.68809 0.06092
 C837 C 0.87656 0.69573 0.07143
 C838 C 0.89646 0.70105 0.08040
 C839 C 0.92007 0.70603 0.09087
 C840 C 0.94041 0.70937 0.09975
 C841 C 0.66574 0.68305 0.94802
 C842 C 0.64838 0.69036 0.93600
 C843 C 0.62720 0.69751 0.92237
 C844 C 0.60853 0.70253 0.91113
 C845 C 0.58610 0.70726 0.89843
 C846 C 0.56656 0.71045 0.88799
 C847 C 0.16612 0.18300 0.44755
 C848 C 0.14872 0.19031 0.43557
 C849 C 0.12751 0.19746 0.42199
 C850 C 0.10882 0.20248 0.41078
 C851 C 0.08637 0.20722 0.39813
 C852 C 0.06681 0.21041 0.38771
 C853 C 0.56883 0.08468 0.69733
 C854 C 0.55785 0.10095 0.68688
 C855 C 0.54537 0.12024 0.67462
 C856 C 0.53497 0.13692 0.66422
 C857 C 0.52301 0.15671 0.65224
 C858 C 0.51290 0.17384 0.64228
 C859 C 1.06878 0.58431 0.19622
 C860 C 1.05784 0.60064 0.18581
 C861 C 1.04539 0.61999 0.17361
 C862 C 1.03502 0.63673 0.16328
 C863 C 1.02307 0.65658 0.15140
 C864 C 1.01297 0.67376 0.14154
 C865 C 0.94373 0.91273 0.20384
 C866 C 0.95538 0.89707 0.19313
 C867 C 0.96848 0.87847 0.18039
 C868 C 0.97926 0.86236 0.16945
 C869 C 0.99147 0.84317 0.15667
 C870 C 1.00159 0.82650 0.14591
 C871 C 0.44366 0.41262 0.70431
 C872 C 0.45531 0.39700 0.69355
 C873 C 0.46843 0.37844 0.68078
 C874 C 0.47922 0.36234 0.66981
 C875 C 0.49144 0.34318 0.65702
 C876 C 0.50156 0.32651 0.64625
 C877 C 0.43788 0.57892 0.79701
 C878 C 0.44872 0.59661 0.80573
 C879 C 0.46121 0.61735 0.81615
 C880 C 0.47175 0.63508 0.82516
 C881 C 0.48400 0.65588 0.83575
 C882 C 0.49443 0.67368 0.84474
 C883 C -0.06189 0.07920 0.29616
 C884 C -0.05101 0.09685 0.30492
 C885 C -0.03850 0.11753 0.31543
 C886 C -0.02795 0.13522 0.32452
 C887 C -0.01570 0.15596 0.33522
 C888 C -0.00528 0.17372 0.34431
 C889 C 0.06651 0.41838 0.28850
 C890 C 0.05527 0.40129 0.29742
 C891 C 0.04250 0.38131 0.30839
 C892 C 0.03185 0.36428 0.31807
 C893 C 0.01960 0.34434 0.32965
 C894 C 0.00924 0.32729 0.33963
 C895 C 0.56687 0.91849 0.78897
 C896 C 0.55561 0.90137 0.79781
 C897 C 0.54279 0.88137 0.80868
 C898 C 0.53208 0.86432 0.81828
 C899 C 0.51975 0.84438 0.82977
 C900 C 0.50932 0.82733 0.83968
 C901 C 0.69736 0.56939 0.08363
 C902 C 0.68693 0.55843 0.09995
 C903 C 0.67469 0.54599 0.11930
 C904 C 0.66431 0.53563 0.13602
 C905 C 0.65235 0.52371 0.15586
 C906 C 0.64241 0.51365 0.17303
 C907 C 0.19706 1.06787 0.58465
 C908 C 0.18670 1.05694 0.60103
 C909 C 0.17453 1.04454 0.62044
 C910 C 0.16422 1.03422 0.63723
 C911 C 0.15234 1.02234 0.65714
 C912 C 0.14246 1.01230 0.67436
 C913 C 0.20527 0.94338 0.91343
 C914 C 0.19452 0.95508 0.89777
 C915 C 0.18173 0.96822 0.87919
 C916 C 0.17074 0.97901 0.86308
 C917 C 0.15790 0.99122 0.84389
 C918 C 0.14707 1.00131 0.82720
 C919 C 0.70452 0.44454 0.41221
 C920 C 0.69379 0.45622 0.39654
 C921 C 0.68104 0.46936 0.37793
 C922 C 0.67009 0.48017 0.36180
 C923 C 0.65731 0.49240 0.34259
 C924 C 0.64654 0.50252 0.32588
 C925 C 0.79666 0.43832 0.57909
 C926 C 0.80535 0.44909 0.59686
 C927 C 0.81576 0.46149 0.61768
 C928 C 0.82475 0.47194 0.63547
 C929 C 0.83534 0.48409 0.65635
 C930 C 0.84434 0.49443 0.67421
 C931 C 0.29679 -0.06105 0.07848
 C932 C 0.30556 -0.05026 0.09620
 C933 C 0.31606 -0.03786 0.11697
 C934 C 0.32514 -0.02742 0.13473
 C935 C 0.33583 -0.01530 0.15557
 C936 C 0.34492 -0.00499 0.17341
 C937 C 0.28863 0.06575 0.41826
 C938 C 0.29754 0.05455 0.40115
 C939 C 0.30851 0.04183 0.38116
 C940 C 0.31821 0.03123 0.36411
 C941 C 0.32983 0.01905 0.34416
 C942 C 0.33985 0.00876 0.32712
 C943 C 0.78804 0.56560 0.91909
 C944 C 0.79694 0.55437 0.90199
 C945 C 0.80789 0.54162 0.88200
 C946 C 0.81756 0.53100 0.86496
 C947 C 0.82915 0.51879 0.84502
 C948 C 0.83915 0.50847 0.82797
 C949 C 0.08397 0.69702 0.56850
 C950 C 0.10031 0.68671 0.55751
 C951 C 0.11969 0.67463 0.54505
 C952 C 0.13645 0.66439 0.53467
 C953 C 0.15632 0.65259 0.52274
 C954 C 0.17353 0.64278 0.51267
 C955 C 0.58515 0.19700 1.06821
 C956 C 0.60146 0.18660 1.05726
 C957 C 0.62079 0.17440 1.04483
 C958 C 0.63750 0.16406 1.03447
 C959 C 0.65731 0.15214 1.02256
 C960 C 0.67446 0.14222 1.01249
 C961 C 0.91334 0.20419 0.94333
 C962 C 0.89768 0.19348 0.95501
 C963 C 0.87908 0.18074 0.96815
 C964 C 0.86295 0.16981 0.97896
 C965 C 0.84375 0.15705 0.99119
 C966 C 0.82706 0.14630 1.00132
 C967 C 0.41253 0.70518 0.44372
 C968 C 0.39686 0.69448 0.45539
 C969 C 0.37825 0.68175 0.46851
 C970 C 0.36212 0.67083 0.47932
 C971 C 0.34291 0.65808 0.49155
 C972 C 0.32622 0.64733 0.50168
 C973 C 0.57896 0.79744 0.43821
 C974 C 0.59662 0.80614 0.44912
 C975 C 0.61733 0.81655 0.46167
 C976 C 0.63504 0.82555 0.47224
 C977 C 0.65583 0.83614 0.48450
 C978 C 0.67364 0.84514 0.49491
 C979 C 0.07837 0.29547 -0.06077
 C980 C 0.09613 0.30414 -0.04999
 C981 C 0.11695 0.31453 -0.03761
 C982 C 0.13474 0.32352 -0.02718
 C983 C 0.15562 0.33412 -0.01508
 C984 C 0.17348 0.34314 -0.00477
 C985 C 0.41869 0.28801 0.06605
 C986 C 0.40150 0.29677 0.05485
 C987 C 0.38140 0.30756 0.04213
 C988 C 0.36426 0.31710 0.03152
 C989 C 0.34422 0.32854 0.01932
 C990 C 0.32710 0.33842 0.00900
 C991 C 0.91802 0.78866 0.56646
 C992 C 0.90097 0.79760 0.55519
 C993 C 0.88105 0.80859 0.54238
 C994 C 0.86405 0.81830 0.53171
 C995 C 0.84415 0.82991 0.51943
 C996 C 0.82714 0.83992 0.50907
   
