data_POSCAR
  _audit_creation_date              2014-09-24
  _audit_creation_method            'ToBaCCo'
  _symmetry_space_group_name_H-M    'P1'
  _symmetry_Int_Tables_number       1
  _symmetry_cell_setting            triclinic
  loop_
  _symmetry_equiv_pos_as_xyz
 x,y,z
_cell_length_a 51.2559
_cell_length_b 51.2298
_cell_length_c 38.4860
_cell_angle_alpha 89.873000
_cell_angle_beta 89.883900
_cell_angle_gamma 89.001000
loop_
  _atom_site_label
  _atom_site_type_symbol
  _atom_site_fract_x
  _atom_site_fract_y
  _atom_site_fract_z
O1 O 0.01717 0.30993 -0.01767
 O2 O -0.03409 0.30684 0.04970
 O3 O 0.01711 0.30580 0.05012
 O4 O -0.03414 0.30997 -0.01734
 O5 O -0.03346 0.26689 -0.02114
 O6 O 0.01717 0.26276 0.04592
 O7 O -0.03364 0.26378 0.04553
 O8 O 0.01739 0.26686 -0.02137
 Cu9 Cu -0.00838 0.31252 0.01658
 Cu10 Cu -0.00797 0.26076 0.01182
 C11 C 0.02598 0.28884 -0.03078
 C12 C -0.04287 0.28475 0.05842
 C13 C 0.02578 0.28346 0.05932
 C14 C -0.04281 0.28897 -0.03002
 O15 O 0.53077 0.81362 0.46220
 O16 O 0.47842 0.81563 0.52865
 O17 O 0.52980 0.81415 0.52966
 O18 O 0.47948 0.81599 0.46114
 O19 O 0.47874 0.77283 0.46157
 O20 O 0.52886 0.77100 0.52959
 O21 O 0.47795 0.77247 0.52861
 O22 O 0.52956 0.77049 0.46260
 Cu23 Cu 0.50469 0.81924 0.49541
 Cu24 Cu 0.50368 0.76739 0.49563
 C25 C 0.53920 0.79157 0.45160
 C26 C 0.46913 0.79424 0.53941
 C27 C 0.53813 0.79219 0.54071
 C28 C 0.47037 0.79466 0.45018
 O29 O 1.03407 0.70373 0.02825
 O30 O 0.98075 0.70118 -0.03611
 O31 O 1.03156 0.70347 -0.03947
 O32 O 0.98315 0.70134 0.03176
 O33 O 0.98059 0.74447 0.03134
 O34 O 1.02871 0.74659 -0.03948
 O35 O 0.97823 0.74432 -0.03611
 O36 O 1.03117 0.74685 0.02783
 Cu37 Cu 1.00764 0.69805 -0.00383
 Cu38 Cu 1.00438 0.74987 -0.00409
 C39 C 1.04169 0.72581 0.03872
 C40 C 0.97054 0.72242 -0.04697
 C41 C 1.03832 0.72547 -0.05143
 C42 C 0.97367 0.72263 0.04349
 O43 O 0.46739 0.19528 0.48225
 O44 O 0.51810 0.19853 0.55016
 O45 O 0.46720 0.20021 0.54979
 O46 O 0.51864 0.19418 0.48271
 O47 O 0.51887 0.23718 0.47757
 O48 O 0.46787 0.24318 0.54425
 O49 O 0.51844 0.24150 0.54463
 O50 O 0.46801 0.23827 0.47716
 Cu51 Cu 0.49276 0.19268 0.51667
 Cu52 Cu 0.49332 0.24433 0.51027
 C53 C 0.45903 0.21633 0.46845
 C54 C 0.52683 0.22062 0.55878
 C55 C 0.45893 0.22281 0.55833
 C56 C 0.52762 0.21478 0.46913
 O57 O 0.69057 -0.03193 0.03772
 O58 O 0.69074 0.02051 -0.02854
 O59 O 0.68887 -0.03079 -0.02960
 O60 O 0.69192 0.01907 0.03941
 O61 O 0.73502 0.01694 0.03737
 O62 O 0.73200 -0.03263 -0.03120
 O63 O 0.73384 0.01823 -0.03009
 O64 O 0.73370 -0.03364 0.03566
 Cu65 Cu 0.68614 -0.00547 0.00483
 Cu66 Cu 0.73795 -0.00788 0.00266
 C67 C 0.71224 -0.04179 0.04754
 C68 C 0.71244 0.02831 -0.04029
 C69 C 0.71001 -0.04051 -0.04147
 C70 C 0.71405 0.02634 0.05007
 O71 O 0.20204 0.53186 0.44779
 O72 O 0.19510 0.48044 0.51443
 O73 O 0.19859 0.53140 0.51549
 O74 O 0.19950 0.48094 0.44683
 O75 O 0.24246 0.47791 0.45131
 O76 O 0.24154 0.52785 0.51946
 O77 O 0.23807 0.47726 0.51845
 O78 O 0.24498 0.52847 0.45219
 Cu79 Cu 0.19444 0.50649 0.48073
 Cu80 Cu 0.24605 0.50254 0.48581
 C81 C 0.22471 0.53886 0.43883
 C82 C 0.21550 0.47010 0.52756
 C83 C 0.22004 0.53818 0.52891
 C84 C 0.22125 0.47090 0.43759
 O85 O 0.30847 1.03235 0.01391
 O86 O 0.30826 0.98060 -0.05279
 O87 O 0.30338 1.03162 -0.05369
 O88 O 0.31260 0.98110 0.01420
 O89 O 0.26975 0.97848 0.01948
 O90 O 0.26062 1.02845 -0.04800
 O91 O 0.26544 0.97781 -0.04712
 O92 O 0.26567 1.02928 0.01911
 Cu93 Cu 0.31252 1.00685 -0.02011
 Cu94 Cu 0.26108 1.00332 -0.01355
 C95 C 0.28701 1.03962 0.02762
 C96 C 0.28679 0.97019 -0.06072
 C97 C 0.28035 1.03855 -0.06222
 C98 C 0.29258 0.97090 0.02773
 O99 O 0.80926 0.46494 0.47214
 O100 O 0.80702 0.51812 0.53688
 O101 O 0.80877 0.46699 0.53921
 O102 O 0.80754 0.51620 0.46881
 O103 O 0.76443 0.51537 0.46864
 O104 O 0.76562 0.46654 0.53859
 O105 O 0.76391 0.51729 0.53623
 O106 O 0.76611 0.46450 0.47189
 Cu107 Cu 0.81253 0.49180 0.50424
 Cu108 Cu 0.76069 0.49101 0.50374
 C109 C 0.78797 0.45536 0.46177
 C110 C 0.78500 0.52659 0.54753
 C111 C 0.78731 0.45813 0.55026
 C112 C 0.78570 0.52410 0.45692
 C113 C 0.21271 0.21135 0.18609
 C114 C 0.23857 0.20367 0.19285
 C115 C 0.25356 0.21851 0.21578
 C116 C 0.24250 0.24015 0.23352
 C117 C 0.21612 0.24690 0.22691
 C118 C 0.20144 0.23316 0.20252
 C119 C 0.25833 0.25585 0.25843
 C120 C 0.25175 0.28228 0.26508
 C121 C 0.26581 0.29694 0.28915
 C122 C 0.28770 0.28561 0.30524
 C123 C 0.29518 0.25968 0.29852
 C124 C 0.28005 0.24469 0.27594
 H125 H 0.20163 0.20084 0.16687
 H126 H 0.27381 0.21300 0.21956
 H127 H 0.20661 0.26275 0.24076
 H128 H 0.23582 0.29186 0.25148
 H129 H 0.29848 0.29670 0.32420
 H130 H 0.28542 0.22439 0.27222
 C131 C 0.79296 0.77949 0.19053
 C132 C 0.76727 0.78685 0.19862
 C133 C 0.75302 0.77164 0.22200
 C134 C 0.76470 0.75006 0.23935
 C135 C 0.79083 0.74328 0.23090
 C136 C 0.80476 0.75753 0.20600
 C137 C 0.74966 0.73498 0.26611
 C138 C 0.75668 0.70896 0.27478
 C139 C 0.74271 0.69504 0.29997
 C140 C 0.72067 0.70672 0.31544
 C141 C 0.71297 0.73229 0.30701
 C142 C 0.72799 0.74653 0.28334
 H143 H 0.80354 0.79044 0.17111
 H144 H 0.73285 0.77703 0.22656
 H145 H 0.80080 0.72724 0.24379
 H146 H 0.77274 0.69907 0.26184
 H147 H 0.70992 0.69617 0.33508
 H148 H 0.72237 0.76661 0.27848
 C149 C 0.77775 0.20713 0.19208
 C150 C 0.78516 0.23207 0.20252
 C151 C 0.77262 0.24379 0.23102
 C152 C 0.75381 0.23031 0.25068
 C153 C 0.74694 0.20501 0.23975
 C154 C 0.75847 0.19360 0.21019
 C155 C 0.74188 0.24252 0.28257
 C156 C 0.71747 0.23449 0.29554
 C157 C 0.70693 0.24540 0.32606
 C158 C 0.72000 0.26573 0.34251
 C159 C 0.74380 0.27464 0.32967
 C160 C 0.75500 0.26239 0.30058
 H161 H 0.78711 0.19814 0.16974
 H162 H 0.77758 0.26364 0.23730
 H163 H 0.73314 0.19365 0.25439
 H164 H 0.70653 0.21965 0.28237
 H165 H 0.71112 0.27517 0.36488
 H166 H 0.77420 0.26842 0.29260
 C167 C 0.23014 0.78813 0.16365
 C168 C 0.21709 0.76830 0.18135
 C169 C 0.22932 0.75590 0.20968
 C170 C 0.25482 0.76254 0.21983
 C171 C 0.26765 0.78227 0.20106
 C172 C 0.25527 0.79543 0.17350
 C173 C 0.26790 0.74912 0.24993
 C174 C 0.28731 0.76185 0.26924
 C175 C 0.29999 0.74929 0.29705
 C176 C 0.29260 0.72407 0.30652
 C177 C 0.27306 0.71113 0.28830
 C178 C 0.26112 0.72353 0.25976
 H179 H 0.22064 0.79803 0.14209
 H180 H 0.21850 0.74152 0.22409
 H181 H 0.28751 0.78731 0.20723
 H182 H 0.29238 0.78179 0.26341
 H183 H 0.30209 0.71446 0.32831
 H184 H 0.24692 0.71283 0.24502
 C185 C 0.71201 0.28159 0.69372
 C186 C 0.69870 0.26211 0.71176
 C187 C 0.71083 0.24968 0.74015
 C188 C 0.73649 0.25598 0.75002
 C189 C 0.74960 0.27530 0.73084
 C190 C 0.73734 0.28845 0.70319
 C191 C 0.74960 0.24254 0.78007
 C192 C 0.76934 0.25509 0.79893
 C193 C 0.78247 0.24236 0.82624
 C194 C 0.77498 0.21718 0.83588
 C195 C 0.75500 0.20446 0.81820
 C196 C 0.74272 0.21703 0.79003
 H197 H 0.70261 0.29145 0.67205
 H198 H 0.69988 0.23549 0.75474
 H199 H 0.76961 0.27995 0.73668
 H200 H 0.77444 0.27500 0.79298
 H201 H 0.78481 0.20739 0.85726
 H202 H 0.72824 0.20648 0.77557
 C203 C 0.28553 0.71861 0.67096
 C204 C 0.29363 0.74342 0.68102
 C205 C 0.27892 0.75741 0.70573
 C206 C 0.25723 0.74617 0.72248
 C207 C 0.24988 0.72085 0.71222
 C208 C 0.26350 0.70733 0.68596
 C209 C 0.24272 0.76061 0.75077
 C210 C 0.21686 0.75413 0.75993
 C211 C 0.20368 0.76715 0.78701
 C212 C 0.21591 0.78767 0.80413
 C213 C 0.24130 0.79481 0.79534
 C214 C 0.25475 0.78090 0.76936
 H215 H 0.29608 0.70833 0.65059
 H216 H 0.28487 0.77697 0.71191
 H217 H 0.23393 0.71108 0.72483
 H218 H 0.20652 0.73924 0.74602
 H219 H 0.20567 0.79801 0.82471
 H220 H 0.27485 0.78579 0.76463
 C221 C 0.27551 0.29715 0.69155
 C222 C 0.24965 0.30487 0.69825
 C223 C 0.23425 0.28960 0.72034
 C224 C 0.24502 0.26752 0.73756
 C225 C 0.27146 0.26084 0.73116
 C226 C 0.28643 0.27491 0.70732
 C227 C 0.22897 0.25134 0.76189
 C228 C 0.23591 0.22498 0.76853
 C229 C 0.22222 0.21007 0.79287
 C230 C 0.20004 0.22095 0.80885
 C231 C 0.19200 0.24670 0.80180
 C232 C 0.20692 0.26203 0.77918
 H233 H 0.28684 0.30801 0.67281
 H234 H 0.21398 0.29516 0.72387
 H235 H 0.28085 0.24474 0.74468
 H236 H 0.25196 0.21565 0.75487
 H237 H 0.18950 0.20971 0.82800
 H238 H 0.20116 0.28222 0.77535
 C239 C 0.71923 0.71400 0.67940
 C240 C 0.73945 0.70095 0.69711
 C241 C 0.75155 0.71330 0.72520
 C242 C 0.74416 0.73893 0.73508
 C243 C 0.72416 0.75180 0.71615
 C244 C 0.71131 0.73930 0.68887
 C245 C 0.75714 0.75225 0.76491
 C246 C 0.74383 0.77205 0.78375
 C247 C 0.75605 0.78525 0.81094
 C248 C 0.78152 0.77798 0.82034
 C249 C 0.79503 0.75805 0.80266
 C250 C 0.78293 0.74551 0.77475
 H251 H 0.70960 0.70441 0.65803
 H252 H 0.76630 0.70252 0.73958
 H253 H 0.71868 0.77180 0.72193
 H254 H 0.72373 0.77710 0.77794
 H255 H 0.79094 0.78795 0.84158
 H256 H 0.79405 0.73097 0.76043
 C257 C 0.24409 0.13604 0.15393
 C258 C 0.26819 0.13700 0.13694
 C259 C 0.28348 0.15931 0.13987
 C260 C 0.27433 0.18082 0.15906
 C261 C 0.28652 0.05924 0.05128
 C262 C 0.23490 0.15747 0.17294
 C263 C 0.27598 0.11574 0.11459
 C264 C 0.28086 0.09785 0.09520
 C265 C 0.28473 0.07694 0.07181
 C266 C 0.24969 0.18026 0.17522
 H267 H 0.23207 0.11892 0.15180
 H268 H 0.30210 0.16032 0.12662
 H269 H 0.28602 0.19820 0.16018
 H270 H 0.21601 0.15640 0.18547
 C271 C 0.73771 0.63256 0.66036
 C272 C 0.76418 0.62756 0.65373
 C273 C 0.78281 0.64561 0.66416
 C274 C 0.77487 0.66903 0.68000
 C275 C 0.78360 0.54743 0.57236
 C276 C 0.72976 0.65594 0.67602
 C277 C 0.77166 0.60501 0.63353
 C278 C 0.77668 0.58650 0.61525
 C279 C 0.78110 0.56525 0.59257
 C280 C 0.74820 0.67469 0.68524
 H281 H 0.72312 0.61875 0.65237
 H282 H 0.80334 0.64201 0.65898
 H283 H 0.78945 0.68324 0.68659
 H284 H 0.70912 0.65967 0.68012
 C285 C 0.72012 0.83289 0.15184
 C286 C 0.73509 0.85544 0.14937
 C287 C 0.76000 0.85579 0.16409
 C288 C 0.77019 0.83360 0.18059
 C289 C 0.71290 0.93686 0.07167
 C290 C 0.73027 0.81061 0.16851
 C291 C 0.72603 0.87771 0.12971
 C292 C 0.72015 0.89650 0.11235
 C293 C 0.71528 0.91842 0.09095
 C294 C 0.75559 0.81066 0.18259
 H295 H 0.70089 0.83234 0.14028
 H296 H 0.77179 0.87310 0.16222
 H297 H 0.78958 0.83430 0.19162
 H298 H 0.71870 0.79314 0.16947
 C299 C 0.20758 0.35017 0.64286
 C300 C 0.22307 0.37244 0.64184
 C301 C 0.24594 0.37324 0.66154
 C302 C 0.25389 0.35157 0.68106
 C303 C 0.21332 0.44965 0.55288
 C304 C 0.21548 0.32842 0.66264
 C305 C 0.21724 0.39365 0.61834
 C306 C 0.21430 0.41144 0.59809
 C307 C 0.21293 0.43217 0.57388
 C308 C 0.23908 0.32874 0.68118
 H309 H 0.18993 0.34928 0.62751
 H310 H 0.25811 0.39031 0.66088
 H311 H 0.27203 0.35237 0.69539
 H312 H 0.20384 0.31099 0.66214
 C313 C 0.84879 0.26687 0.18702
 C314 C 0.85113 0.26503 0.15087
 C315 C 0.83101 0.25418 0.13142
 C316 C 0.80901 0.24437 0.14808
 C317 C 0.93660 0.28337 0.08058
 C318 C 0.82674 0.25712 0.20375
 C319 C 0.87491 0.27227 0.13374
 C320 C 0.89474 0.27701 0.11831
 C321 C 0.91761 0.28108 0.09876
 C322 C 0.80689 0.24526 0.18448
 H323 H 0.86434 0.27508 0.20234
 H324 H 0.83265 0.25264 0.10342
 H325 H 0.79389 0.23563 0.13257
 H326 H 0.82574 0.25781 0.23185
 C327 C 0.36296 0.74777 0.64765
 C328 C 0.36370 0.77354 0.63568
 C329 C 0.34169 0.78990 0.63939
 C330 C 0.31890 0.78035 0.65464
 C331 C 0.44740 0.79422 0.56297
 C332 C 0.34027 0.73820 0.66273
 C333 C 0.38662 0.78224 0.61765
 C334 C 0.40595 0.78781 0.60156
 C335 C 0.42850 0.79226 0.58142
 C336 C 0.31788 0.75427 0.66605
 H337 H 0.37984 0.73491 0.64483
 H338 H 0.34198 0.80983 0.62995
 H339 H 0.30189 0.79310 0.65666
 H340 H 0.34019 0.71816 0.67177
 C341 C 0.16155 0.72649 0.15001
 C342 C 0.14345 0.74562 0.13924
 C343 C 0.14861 0.77202 0.14474
 C344 C 0.17214 0.77936 0.15977
 C345 C 0.06183 0.72722 0.06146
 C346 C 0.18512 0.73381 0.16519
 C347 C 0.12055 0.73860 0.12006
 C348 C 0.10170 0.73384 0.10265
 C349 C 0.08001 0.72962 0.08094
 C350 C 0.19088 0.76036 0.16946
 H351 H 0.15782 0.70601 0.14570
 H352 H 0.13476 0.78699 0.13649
 H353 H 0.17592 0.79993 0.16316
 H354 H 0.19931 0.71879 0.17216
 C355 C 0.63063 0.26643 0.67409
 C356 C 0.62550 0.24011 0.66794
 C357 C 0.64329 0.22081 0.67908
 C358 C 0.66662 0.22789 0.69511
 C359 C 0.54694 0.22225 0.58452
 C360 C 0.65392 0.27354 0.68994
 C361 C 0.60319 0.23337 0.64736
 C362 C 0.58500 0.22880 0.62867
 C363 C 0.56424 0.22469 0.60538
 C364 C 0.67245 0.25438 0.69982
 H365 H 0.61702 0.28153 0.66553
 H366 H 0.63959 0.20038 0.67426
 H367 H 0.68066 0.21277 0.70221
 H368 H 0.65779 0.29406 0.69362
 C369 C 0.71257 0.14894 0.84880
 C370 C 0.73148 0.13052 0.85931
 C371 C 0.75794 0.13553 0.85397
 C372 C 0.76556 0.15918 0.83934
 C373 C 0.71313 0.04836 0.93661
 C374 C 0.72017 0.17263 0.83401
 C375 C 0.72419 0.10744 0.87815
 C376 C 0.71933 0.08844 0.89536
 C377 C 0.71520 0.06660 0.91700
 C378 C 0.74678 0.17821 0.82986
 H379 H 0.69204 0.14534 0.85301
 H380 H 0.77275 0.12144 0.86205
 H381 H 0.78617 0.16281 0.83603
 H382 H 0.70531 0.18703 0.82720
 C383 C 0.23034 0.65634 0.32015
 C384 C 0.24915 0.63819 0.33173
 C385 C 0.27564 0.64291 0.32625
 C386 C 0.28340 0.66613 0.31057
 C387 C 0.22772 0.55925 0.41361
 C388 C 0.23808 0.67960 0.30432
 C389 C 0.24166 0.61586 0.35196
 C390 C 0.23633 0.59760 0.37031
 C391 C 0.23119 0.57672 0.39317
 C392 C 0.26472 0.68500 0.30022
 H393 H 0.20978 0.65296 0.32445
 H394 H 0.29037 0.62902 0.33514
 H395 H 0.30404 0.66966 0.30735
 H396 H 0.22331 0.69390 0.29686
 C397 C 0.25973 0.84261 0.86564
 C398 C 0.27148 0.86229 0.84615
 C399 C 0.27507 0.85907 0.81033
 C400 C 0.26620 0.83655 0.79391
 C401 C 0.28650 0.94850 0.91581
 C402 C 0.25080 0.82018 0.84930
 C403 C 0.27792 0.88642 0.86287
 C404 C 0.28192 0.90645 0.87816
 C405 C 0.28506 0.92945 0.89767
 C406 C 0.25346 0.81715 0.81316
 H407 H 0.25685 0.84490 0.89337
 H408 H 0.28401 0.87425 0.79498
 H409 H 0.26831 0.83478 0.76601
 H410 H 0.24136 0.80540 0.86480
 C411 C 0.77502 0.34075 0.33969
 C412 C 0.77435 0.34390 0.37579
 C413 C 0.76551 0.32360 0.39693
 C414 C 0.75653 0.30060 0.38204
 C415 C 0.78831 0.43280 0.43978
 C416 C 0.76609 0.31771 0.32473
 C417 C 0.78055 0.36859 0.39120
 C418 C 0.78435 0.38920 0.40517
 C419 C 0.78722 0.41301 0.42302
 C420 C 0.75623 0.29762 0.34574
 H421 H 0.78164 0.35641 0.32307
 H422 H 0.76486 0.32585 0.42491
 H423 H 0.74933 0.28535 0.39887
 H424 H 0.76582 0.31608 0.29668
 C425 C 0.12390 0.25080 0.83955
 C426 C 0.12437 0.27465 0.85713
 C427 C 0.14644 0.29033 0.85476
 C428 C 0.16824 0.28179 0.83562
 C429 C 0.04649 0.28949 0.94383
 C430 C 0.14563 0.24222 0.82062
 C431 C 0.10295 0.28161 0.87970
 C432 C 0.08499 0.28570 0.89933
 C433 C 0.06409 0.28857 0.92303
 C434 C 0.16821 0.25737 0.81900
 H435 H 0.10698 0.23847 0.84126
 H436 H 0.14707 0.30875 0.86848
 H437 H 0.18546 0.29373 0.83500
 H438 H 0.14500 0.22346 0.80772
 C439 C 0.66609 0.77995 0.35150
 C440 C 0.64371 0.76479 0.35441
 C441 C 0.64385 0.73939 0.34115
 C442 C 0.66630 0.72901 0.32548
 C443 C 0.56083 0.78994 0.42795
 C444 C 0.68862 0.76961 0.33569
 C445 C 0.62101 0.77437 0.37278
 C446 C 0.60189 0.78091 0.38909
 C447 C 0.57958 0.78670 0.40940
 C448 C 0.68902 0.74390 0.32284
 H449 H 0.66626 0.79957 0.36195
 H450 H 0.62668 0.72744 0.34336
 H451 H 0.66592 0.70930 0.31538
 H452 H 0.70589 0.78144 0.33429
 C453 C 0.86346 0.76239 0.83837
 C454 C 0.86918 0.73620 0.84601
 C455 C 0.85164 0.71684 0.83640
 C456 C 0.82798 0.72380 0.82044
 C457 C 0.94966 0.72200 0.92827
 C458 C 0.83984 0.76937 0.82263
 C459 C 0.89188 0.72985 0.86651
 C460 C 0.91049 0.72596 0.88504
 C461 C 0.93181 0.72307 0.90796
 C462 C 0.82157 0.75022 0.81432
 H463 H 0.87686 0.77753 0.84573
 H464 H 0.85581 0.69652 0.84237
 H465 H 0.81414 0.70871 0.81453
 H466 H 0.83549 0.78983 0.81785
 C467 C 0.36297 0.25435 0.33668
 C468 C 0.36180 0.23077 0.35495
 C469 C 0.33940 0.21556 0.35277
 C470 C 0.31794 0.22435 0.33319
 C471 C 0.43865 0.21568 0.44296
 C472 C 0.34158 0.26318 0.31732
 C473 C 0.38286 0.22367 0.37801
 C474 C 0.40056 0.21952 0.39798
 C475 C 0.42121 0.21661 0.42198
 C476 C 0.31865 0.24856 0.31594
 H477 H 0.38015 0.26631 0.33822
 H478 H 0.33822 0.19735 0.36700
 H479 H 0.30043 0.21282 0.33274
 H480 H 0.34274 0.28176 0.30396
 C481 C 0.73485 0.83186 0.88212
 C482 C 0.72347 0.85225 0.86285
 C483 C 0.72074 0.84976 0.82682
 C484 C 0.73023 0.82731 0.80999
 C485 C 0.70937 0.93818 0.93447
 C486 C 0.74442 0.80952 0.86537
 C487 C 0.71691 0.87641 0.88003
 C488 C 0.71302 0.89642 0.89576
 C489 C 0.71026 0.91932 0.91583
 C490 C 0.74275 0.80727 0.82906
 H491 H 0.73711 0.83359 0.91000
 H492 H 0.71211 0.86550 0.81164
 H493 H 0.72889 0.82616 0.78196
 H494 H 0.75371 0.79425 0.88071
 C495 C 0.26697 0.36708 0.31984
 C496 C 0.24084 0.37130 0.32920
 C497 C 0.22244 0.35213 0.32225
 C498 C 0.23035 0.32839 0.30734
 C499 C 0.22223 0.45083 0.41169
 C500 C 0.27493 0.34337 0.30504
 C501 C 0.23368 0.39400 0.34925
 C502 C 0.22881 0.41246 0.36766
 C503 C 0.22453 0.43343 0.39081
 C504 C 0.25682 0.32350 0.29949
 H505 H 0.28140 0.38175 0.32521
 H506 H 0.20220 0.35510 0.32965
 H507 H 0.21603 0.31335 0.30370
 H508 H 0.29537 0.34023 0.29892
 C509 C 0.26789 0.15640 0.82521
 C510 C 0.25030 0.13670 0.83331
 C511 C 0.22382 0.14011 0.82535
 C512 C 0.21478 0.16352 0.81061
 C513 C 0.27649 0.05761 0.91368
 C514 C 0.25889 0.17983 0.81042
 C515 C 0.25888 0.11414 0.85283
 C516 C 0.26536 0.09581 0.87071
 C517 C 0.27193 0.07495 0.89325
 C518 C 0.23213 0.18388 0.80373
 H519 H 0.28839 0.15406 0.83152
 H520 H 0.21002 0.12502 0.83162
 H521 H 0.19413 0.16598 0.80540
 H522 H 0.27268 0.19524 0.80584
 C523 C 0.74119 0.62576 0.33428
 C524 C 0.76718 0.62181 0.34437
 C525 C 0.78568 0.64080 0.33673
 C526 C 0.77799 0.66413 0.32039
 C527 C 0.78470 0.54381 0.43036
 C528 C 0.73346 0.64906 0.31808
 C529 C 0.77403 0.59957 0.36562
 C530 C 0.77860 0.58147 0.38489
 C531 C 0.78255 0.56088 0.40888
 C532 C 0.75164 0.66878 0.31181
 H533 H 0.72669 0.61125 0.34012
 H534 H 0.80582 0.63804 0.34464
 H535 H 0.79234 0.67908 0.31618
 H536 H 0.71310 0.65202 0.31143
 C537 C 0.15037 0.72485 0.82365
 C538 C 0.13172 0.74378 0.83337
 C539 C 0.13541 0.76995 0.82441
 C540 C 0.15819 0.77738 0.80738
 C541 C 0.05652 0.72667 0.92295
 C542 C 0.17318 0.73225 0.80644
 C543 C 0.11025 0.73709 0.85568
 C544 C 0.09283 0.73265 0.87583
 C545 C 0.07301 0.72881 0.90078
 C546 C 0.17766 0.75872 0.79913
 H547 H 0.14781 0.70456 0.83065
 H548 H 0.12115 0.78478 0.83186
 H549 H 0.16105 0.79786 0.80176
 H550 H 0.18797 0.71753 0.80067
 C551 C 0.65704 0.22443 0.39250
 C552 C 0.63477 0.22157 0.37203
 C553 C 0.63635 0.22507 0.33597
 C554 C 0.66006 0.23203 0.32059
 C555 C 0.54884 0.21310 0.44485
 C556 C 0.68060 0.23148 0.37728
 C557 C 0.61015 0.21711 0.38888
 C558 C 0.59013 0.21457 0.40492
 C559 C 0.56747 0.21307 0.42568
 C560 C 0.68228 0.23581 0.34126
 H561 H 0.65603 0.22185 0.42043
 H562 H 0.61917 0.22308 0.31990
 H563 H 0.66080 0.23540 0.29282
 H564 H 0.69750 0.23392 0.39373
 C565 C 0.84632 0.27690 0.84131
 C566 C 0.84920 0.27408 0.87729
 C567 C 0.82945 0.26246 0.89681
 C568 C 0.80729 0.25295 0.88038
 C569 C 0.93538 0.28971 0.94669
 C570 C 0.82409 0.26746 0.82481
 C571 C 0.87315 0.28103 0.89411
 C572 C 0.89314 0.28535 0.90934
 C573 C 0.91621 0.28859 0.92870
 C574 C 0.80459 0.25491 0.84412
 H575 H 0.86157 0.28568 0.82592
 H576 H 0.83150 0.26012 0.92467
 H577 H 0.79245 0.24369 0.89595
 H578 H 0.82265 0.26900 0.79681
 C579 C 0.36359 0.78334 0.31519
 C580 C 0.36526 0.78073 0.35134
 C581 C 0.34466 0.76972 0.36988
 C582 C 0.32290 0.76046 0.35233
 C583 C 0.44929 0.79494 0.42575
 C584 C 0.34174 0.77416 0.29754
 C585 C 0.38881 0.78715 0.36945
 C586 C 0.40834 0.79102 0.38588
 C587 C 0.43075 0.79387 0.40665
 C588 C 0.32147 0.76206 0.31591
 H589 H 0.37950 0.79168 0.30057
 H590 H 0.34576 0.76757 0.39786
 H591 H 0.30743 0.75153 0.36714
 H592 H 0.34121 0.77543 0.26946
 C593 C 0.27556 0.84221 0.10258
 C594 C 0.28602 0.86256 0.12201
 C595 C 0.28849 0.85997 0.15808
 C596 C 0.27964 0.83747 0.17478
 C597 C 0.29538 0.94934 0.05134
 C598 C 0.26662 0.81981 0.11919
 C599 C 0.29163 0.88688 0.10499
 C600 C 0.29456 0.90707 0.08945
 C601 C 0.29595 0.93024 0.06968
 C602 C 0.26800 0.81748 0.15554
 H603 H 0.27347 0.84403 0.07466
 H604 H 0.29637 0.87569 0.17341
 H605 H 0.28073 0.83626 0.20284
 H606 H 0.25801 0.80458 0.10372
 C607 C 0.75895 0.33327 0.63074
 C608 C 0.77052 0.35339 0.64944
 C609 C 0.77300 0.35135 0.68557
 C610 C 0.76318 0.32961 0.70303
 C611 C 0.78724 0.43720 0.57505
 C612 C 0.74905 0.31164 0.64811
 C613 C 0.77772 0.37686 0.63150
 C614 C 0.78221 0.39636 0.61514
 C615 C 0.78572 0.41873 0.59432
 C616 C 0.75057 0.30984 0.68450
 H617 H 0.75689 0.33467 0.60277
 H618 H 0.78178 0.36689 0.70031
 H619 H 0.76441 0.32880 0.73110
 H620 H 0.73974 0.29654 0.63317
 C621 C 0.71593 0.13974 0.17587
 C622 C 0.73481 0.12199 0.16343
 C623 C 0.76128 0.12655 0.16930
 C624 C 0.76893 0.14926 0.18614
 C625 C 0.71568 0.04592 0.07653
 C626 C 0.72357 0.16249 0.19291
 C627 C 0.72753 0.10041 0.14185
 C628 C 0.72262 0.08281 0.12232
 C629 C 0.71824 0.06271 0.09810
 C630 C 0.75019 0.16779 0.19731
 H631 H 0.69539 0.13648 0.17130
 H632 H 0.77606 0.11298 0.15975
 H633 H 0.78955 0.15274 0.18955
 H634 H 0.70877 0.17655 0.20102
 C635 C 0.21994 0.65557 0.64813
 C636 C 0.23829 0.63603 0.63959
 C637 C 0.26443 0.63887 0.64903
 C638 C 0.27245 0.66157 0.66563
 C639 C 0.22044 0.55835 0.55472
 C640 C 0.22792 0.67830 0.66489
 C641 C 0.23106 0.61419 0.61840
 C642 C 0.22631 0.59625 0.59934
 C643 C 0.22236 0.57563 0.57574
 C644 C 0.25439 0.68180 0.67299
 H645 H 0.19968 0.65365 0.64075
 H646 H 0.27881 0.62391 0.64250
 H647 H 0.29289 0.66363 0.67193
 H648 H 0.21365 0.69366 0.66997
 C649 C 0.87392 0.76058 0.17213
 C650 C 0.87794 0.73502 0.16027
 C651 C 0.85919 0.71609 0.16706
 C652 C 0.83595 0.72302 0.18416
 C653 C 0.95439 0.72228 0.07060
 C654 C 0.85071 0.76755 0.18905
 C655 C 0.89984 0.72926 0.13787
 C656 C 0.91759 0.72579 0.11769
 C657 C 0.93772 0.72323 0.09274
 C658 C 0.83115 0.74903 0.19429
 H659 H 0.88825 0.77541 0.16695
 H660 H 0.86201 0.69629 0.15778
 H661 H 0.82110 0.70845 0.18758
 H662 H 0.84759 0.78767 0.19684
 C663 C 0.34051 0.23037 0.67384
 C664 C 0.36004 0.24832 0.66649
 C665 C 0.35646 0.27457 0.67565
 C666 C 0.33299 0.28307 0.69070
 C667 C 0.43877 0.22568 0.58397
 C668 C 0.31703 0.23882 0.68895
 C669 C 0.38249 0.24052 0.64631
 C670 C 0.40072 0.23483 0.62785
 C671 C 0.42147 0.22931 0.60473
 C672 C 0.31276 0.26540 0.69667
 H673 H 0.34300 0.21005 0.66659
 H674 H 0.37142 0.28865 0.66997
 H675 H 0.33034 0.30359 0.69671
 H676 H 0.30170 0.22482 0.69286
 C677 C 0.13122 0.23288 0.17183
 C678 C 0.12700 0.25926 0.16369
 C679 C 0.14629 0.27742 0.17116
 C680 C 0.17008 0.26908 0.18549
 C681 C 0.04624 0.28123 0.08459
 C682 C 0.15499 0.22450 0.18607
 C683 C 0.10404 0.26707 0.14456
 C684 C 0.08532 0.27266 0.12697
 C685 C 0.06397 0.27795 0.10476
 C686 C 0.17493 0.24243 0.19228
 H687 H 0.11647 0.21864 0.16606
 H688 H 0.14332 0.29785 0.16471
 H689 H 0.18516 0.28329 0.18962
 H690 H 0.15807 0.20391 0.19138
 C691 C 0.64690 0.77476 0.67267
 C692 C 0.64448 0.77208 0.63663
 C693 C 0.66469 0.76030 0.61748
 C694 C 0.68688 0.75047 0.63433
 C695 C 0.55943 0.79097 0.56477
 C696 C 0.66916 0.76499 0.68960
 C697 C 0.62065 0.77955 0.61928
 C698 C 0.60088 0.78445 0.60348
 C699 C 0.57819 0.78866 0.58340
 C700 C 0.68913 0.75226 0.67064
 H701 H 0.63130 0.78371 0.68776
 H702 H 0.66301 0.75811 0.58958
 H703 H 0.70210 0.74107 0.61905
 H704 H 0.67030 0.76643 0.71762
   
