data_POSCAR
  _audit_creation_date              2014-09-24
  _audit_creation_method            'ToBaCCo'
  _symmetry_space_group_name_H-M    'P1'
  _symmetry_Int_Tables_number       1
  _symmetry_cell_setting            triclinic
  loop_
  _symmetry_equiv_pos_as_xyz
 x,y,z
_cell_length_a 56.1303
_cell_length_b 56.5394
_cell_length_c 31.4718
_cell_angle_alpha 89.764600
_cell_angle_beta 89.810100
_cell_angle_gamma 119.388500
loop_
  _atom_site_label
  _atom_site_type_symbol
  _atom_site_fract_x
  _atom_site_fract_y
  _atom_site_fract_z
O1 O 0.02644 0.53669 -0.00078
 O2 O -0.02322 0.46574 -0.02295
 O3 O 0.02522 0.49052 0.01056
 O4 O -0.02160 0.51181 -0.03820
 O5 O -0.00061 0.51693 -0.09962
 O6 O 0.04351 0.49330 -0.05266
 O7 O -0.00498 0.46951 -0.08656
 O8 O 0.04644 0.54033 -0.06282
 Cu9 Cu -0.00025 0.50091 -0.00658
 Cu10 Cu 0.02302 0.50533 -0.08163
 C11 C 0.04515 0.55055 -0.02758
 C12 C -0.02281 0.45550 -0.05852
 C13 C 0.04232 0.48815 -0.01319
 C14 C -0.01889 0.51820 -0.07751
 O15 O 0.45029 0.43703 -0.01625
 O16 O 0.47956 0.50932 0.00826
 O17 O 0.49350 0.48111 -0.04066
 O18 O 0.43730 0.46465 0.03550
 O19 O 0.46109 0.45842 0.08560
 O20 O 0.51874 0.47982 0.01183
 O21 O 0.50193 0.50489 0.06254
 O22 O 0.47695 0.43331 0.03168
 Cu23 Cu 0.46266 0.47346 -0.00834
 Cu24 Cu 0.49203 0.46859 0.05314
 C25 C 0.45917 0.42303 0.00248
 C26 C 0.49538 0.51942 0.03976
 C27 C 0.51597 0.48358 -0.02722
 C28 C 0.43960 0.45854 0.07362
 O29 O 0.55461 1.00312 -0.04755
 O30 O 0.48617 0.96395 0.00367
 O31 O 0.50492 0.99666 -0.05951
 O32 O 0.53010 0.96038 0.00596
 O33 O 0.54520 0.99306 0.05357
 O34 O 0.51846 1.02921 -0.01201
 O35 O 0.49917 0.99634 0.05149
 O36 O 0.56611 1.03482 0.00130
 Cu37 Cu 0.51852 0.97841 -0.02929
 Cu38 Cu 0.53346 1.01577 0.02860
 C39 C 0.57198 1.02575 -0.03145
 C40 C 0.48104 0.97392 0.03648
 C41 C 0.50701 1.01894 -0.04733
 C42 C 0.54211 0.97043 0.04062
 O43 O 0.96357 0.54592 0.49812
 O44 O 0.99253 0.51148 0.43489
 O45 O 0.94830 0.49574 0.48057
 O46 O 1.00819 0.56153 0.45202
 O47 O 1.02920 0.55914 0.50955
 O48 O 0.97019 0.49260 0.53654
 O49 O 1.01464 0.50932 0.49128
 O50 O 0.98509 0.54311 0.55488
 Cu51 Cu 0.97591 0.52897 0.46082
 Cu52 Cu 1.00185 0.52574 0.52883
 C53 C 0.96918 0.55017 0.53736
 C54 C 1.00900 0.50502 0.45204
 C55 C 0.94905 0.48288 0.51330
 C56 C 1.02920 0.57145 0.47563
 O57 O 0.49331 0.52476 0.52372
 O58 O 0.47002 0.45644 0.56972
 O59 O 0.45101 0.47671 0.51325
 O60 O 0.51331 0.50393 0.57728
 O61 O 0.49224 0.51200 0.62984
 O62 O 0.42996 0.48644 0.56383
 O63 O 0.44829 0.46537 0.62019
 O64 O 0.47303 0.53351 0.57672
 Cu65 Cu 0.48395 0.48954 0.54076
 Cu66 Cu 0.45872 0.50017 0.60275
 C67 C 0.48734 0.54092 0.54299
 C68 C 0.45514 0.44932 0.60302
 C69 C 0.42992 0.47703 0.52714
 C70 C 0.51352 0.51250 0.61456
 O71 O 0.50926 -0.02835 0.46023
 O72 O 0.48619 0.01873 0.49968
 O73 O 0.46679 -0.02258 0.44692
 O74 O 0.52801 0.01169 0.51353
 O75 O 0.54924 0.04160 0.46229
 O76 O 0.48990 0.00381 0.39299
 O77 O 0.50590 0.04538 0.44422
 O78 O 0.53371 0.00160 0.41053
 Cu79 Cu 0.49520 -0.00791 0.48542
 Cu80 Cu 0.52174 0.02604 0.42223
 C81 C 0.52596 -0.02100 0.42913
 C82 C 0.49206 0.04007 0.47836
 C83 C 0.46823 -0.01612 0.40790
 C84 C 0.54905 0.03259 0.49941
 C85 C 0.20743 0.44907 0.30299
 C86 C 0.21264 0.44851 0.26063
 C87 C 0.19489 0.45007 0.22682
 C88 C 0.23727 0.44729 0.24615
 C89 C 0.22388 0.44435 0.33537
 C90 C 0.18607 0.45524 0.31820
 C91 C 0.16627 0.43353 0.22801
 C92 C 0.15004 0.43567 0.19620
 C93 C 0.16222 0.45376 0.16201
 C94 C 0.19079 0.46991 0.16046
 C95 C 0.20694 0.46814 0.19258
 C96 C 0.23467 0.42704 0.21787
 C97 C 0.25775 0.42547 0.20516
 C98 C 0.28363 0.44396 0.22096
 C99 C 0.28630 0.46456 0.24847
 C100 C 0.26339 0.46652 0.26031
 C101 C 0.24151 0.46556 0.36197
 C102 C 0.26187 0.46361 0.38471
 C103 C 0.26462 0.44023 0.38162
 C104 C 0.24510 0.41802 0.35825
 C105 C 0.22496 0.42009 0.33527
 C106 C 0.18478 0.47779 0.30207
 C107 C 0.16251 0.48137 0.31167
 C108 C 0.14165 0.46301 0.33872
 C109 C 0.14393 0.44164 0.35745
 C110 C 0.16599 0.43772 0.34713
 H111 H 0.15651 0.41895 0.25352
 H112 H 0.12806 0.42280 0.19776
 H113 H 0.20063 0.48412 0.13452
 H114 H 0.22891 0.48109 0.19085
 H115 H 0.21474 0.41225 0.20617
 H116 H 0.25536 0.40954 0.18368
 H117 H 0.26599 0.48293 0.28082
 H118 H 0.24094 0.48444 0.36239
 H119 H 0.27658 0.48110 0.40229
 H120 H 0.24616 0.39945 0.35614
 H121 H 0.21128 0.40338 0.31529
 H122 H 0.20050 0.49201 0.28070
 H123 H 0.16134 0.49828 0.29757
 H124 H 0.12807 0.42737 0.37861
 H125 H 0.16679 0.42039 0.36027
 H126 H 0.30619 0.47934 0.26030
 C127 C 0.54904 0.76073 0.27990
 C128 C 0.55539 0.76106 0.23789
 C129 C 0.55257 0.73662 0.21548
 C130 C 0.56395 0.78603 0.21174
 C131 C 0.54853 0.78434 0.29959
 C132 C 0.54287 0.73762 0.30885
 C133 C 0.57300 0.73936 0.18677
 C134 C 0.56969 0.71730 0.16260
 C135 C 0.54597 0.69193 0.16686
 C136 C 0.52577 0.68892 0.19623
 C137 C 0.52885 0.71115 0.21989
 C138 C 0.58523 0.81124 0.22503
 C139 C 0.58981 0.83516 0.20488
 C140 C 0.57416 0.83436 0.16946
 C141 C 0.55479 0.80877 0.15363
 C142 C 0.54952 0.78490 0.17485
 C143 C 0.52949 0.79215 0.28653
 C144 C 0.53060 0.81565 0.30284
 C145 C 0.55099 0.83178 0.33197
 C146 C 0.56948 0.82348 0.34594
 C147 C 0.56800 0.79970 0.33033
 C148 C 0.52024 0.72816 0.33630
 C149 C 0.51554 0.70853 0.36700
 C150 C 0.53334 0.69786 0.37087
 C151 C 0.55548 0.70653 0.34251
 C152 C 0.56039 0.72651 0.31194
 H153 H 0.59139 0.75878 0.18256
 H154 H 0.58556 0.72008 0.14017
 H155 H 0.50710 0.66966 0.19954
 H156 H 0.51236 0.70861 0.24070
 H157 H 0.59734 0.81252 0.25251
 H158 H 0.60481 0.85420 0.21850
 H159 H 0.53344 0.76561 0.16341
 H160 H 0.51421 0.78037 0.26305
 H161 H 0.51624 0.82180 0.29155
 H162 H 0.58528 0.83561 0.36853
 H163 H 0.58276 0.79387 0.34085
 H164 H 0.50642 0.73637 0.33445
 H165 H 0.49813 0.70187 0.38818
 H166 H 0.56954 0.69867 0.34515
 H167 H 0.57826 0.73386 0.29162
 H168 H 0.54310 0.80705 0.12543
 C169 C 0.23529 0.77441 0.23540
 C170 C 0.23233 0.77620 0.19269
 C171 C 0.25341 0.79994 0.16848
 C172 C 0.21007 0.75439 0.16770
 C173 C 0.21419 0.75286 0.26294
 C174 C 0.26068 0.79486 0.25647
 C175 C 0.25600 0.82566 0.17408
 C176 C 0.27880 0.84875 0.15788
 C177 C 0.29981 0.84662 0.13661
 C178 C 0.29616 0.82051 0.12887
 C179 C 0.27298 0.79738 0.14420
 C180 C 0.19737 0.76130 0.13533
 C181 C 0.17888 0.74148 0.10795
 C182 C 0.17262 0.71433 0.11254
 C183 C 0.18470 0.70724 0.14562
 C184 C 0.20350 0.72713 0.17267
 C185 C 0.22200 0.73887 0.29155
 C186 C 0.20317 0.72022 0.32038
 C187 C 0.17608 0.71535 0.32177
 C188 C 0.16803 0.72884 0.29232
 C189 C 0.18695 0.74750 0.26320
 C190 C 0.28591 0.79708 0.24524
 C191 C 0.31024 0.81937 0.25837
 C192 C 0.30966 0.83930 0.28403
 C193 C 0.28441 0.83594 0.29816
 C194 C 0.26000 0.81385 0.28427
 H195 H 0.24092 0.82791 0.19252
 H196 H 0.28032 0.86832 0.16329
 H197 H 0.31186 0.81789 0.11315
 H198 H 0.27129 0.77763 0.13981
 H199 H 0.20222 0.78219 0.13068
 H200 H 0.16967 0.74739 0.08284
 H201 H 0.21365 0.72136 0.19637
 H202 H 0.24285 0.74256 0.29178
 H203 H 0.20991 0.70971 0.34186
 H204 H 0.14738 0.72569 0.29276
 H205 H 0.18056 0.75835 0.24179
 H206 H 0.28672 0.78228 0.22444
 H207 H 0.32953 0.82148 0.24756
 H208 H 0.28361 0.85115 0.31798
 H209 H 0.24066 0.81233 0.29332
 H210 H 0.18050 0.68649 0.14938
 C211 C 0.76629 0.55535 0.79501
 C212 C 0.76768 0.56600 0.75552
 C213 C 0.79057 0.57150 0.72654
 C214 C 0.74429 0.56830 0.73846
 C215 C 0.73979 0.54181 0.81778
 C216 C 0.79018 0.55471 0.81405
 C217 C 0.81121 0.59818 0.71823
 C218 C 0.83511 0.60294 0.69694
 C219 C 0.83810 0.58104 0.68262
 C220 C 0.81667 0.55442 0.68883
 C221 C 0.79317 0.54969 0.71093
 C222 C 0.73658 0.58588 0.75768
 C223 C 0.71156 0.58425 0.74789
 C224 C 0.69358 0.56478 0.71897
 C225 C 0.70213 0.54818 0.69813
 C226 C 0.72735 0.55010 0.70755
 C227 C 0.71821 0.51816 0.80061
 C228 C 0.69142 0.50917 0.81400
 C229 C 0.68590 0.52343 0.84531
 C230 C 0.70777 0.54573 0.86510
 C231 C 0.73464 0.55494 0.85128
 C232 C 0.78815 0.53008 0.82762
 C233 C 0.81164 0.52900 0.83951
 C234 C 0.83739 0.55249 0.83765
 C235 C 0.83913 0.57735 0.82662
 C236 C 0.81567 0.57852 0.81566
 H237 H 0.80946 0.61517 0.73032
 H238 H 0.85146 0.62360 0.69240
 H239 H 0.81870 0.53727 0.67837
 H240 H 0.77740 0.52898 0.71732
 H241 H 0.74945 0.60004 0.78165
 H242 H 0.70602 0.59781 0.76380
 H243 H 0.73281 0.53611 0.69285
 H244 H 0.72196 0.50785 0.77467
 H245 H 0.67490 0.49173 0.79871
 H246 H 0.70393 0.55707 0.88924
 H247 H 0.75109 0.57337 0.86451
 H248 H 0.76868 0.51149 0.82692
 H249 H 0.80992 0.50961 0.84782
 H250 H 0.85879 0.59574 0.82535
 H251 H 0.81757 0.59787 0.80668
 H252 H 0.68878 0.53270 0.67615
 C253 C 0.45026 0.20985 0.77985
 C254 C 0.44908 0.21359 0.73724
 C255 C 0.44393 0.23534 0.72137
 C256 C 0.45189 0.19594 0.70482
 C257 C 0.45170 0.18621 0.79700
 C258 C 0.44873 0.22866 0.81120
 C259 C 0.41882 0.23417 0.72952
 C260 C 0.41484 0.25583 0.71799
 C261 C 0.43602 0.27918 0.69847
 C262 C 0.46083 0.27975 0.68899
 C263 C 0.46465 0.25789 0.70005
 C264 C 0.43294 0.18529 0.67157
 C265 C 0.43537 0.16897 0.64057
 C266 C 0.45675 0.16283 0.64222
 C267 C 0.47575 0.17345 0.67544
 C268 C 0.47355 0.19014 0.70612
 C269 C 0.47396 0.19025 0.82203
 C270 C 0.47659 0.16810 0.83560
 C271 C 0.45673 0.14149 0.82488
 C272 C 0.43380 0.13754 0.80137
 C273 C 0.43132 0.15971 0.78753
 C274 C 0.46817 0.25641 0.81089
 C275 C 0.46505 0.27438 0.83774
 C276 C 0.44247 0.26487 0.86547
 C277 C 0.42372 0.23689 0.86699
 C278 C 0.42690 0.21894 0.84023
 H279 H 0.40253 0.21669 0.74556
 H280 H 0.39526 0.25439 0.72482
 H281 H 0.47769 0.29749 0.67450
 H282 H 0.48415 0.25902 0.69363
 H283 H 0.41609 0.18948 0.66973
 H284 H 0.42039 0.16095 0.61541
 H285 H 0.48891 0.19873 0.73064
 H286 H 0.48981 0.21061 0.82970
 H287 H 0.49463 0.17189 0.85325
 H288 H 0.41783 0.11731 0.79343
 H289 H 0.41374 0.15627 0.76886
 H290 H 0.48535 0.26424 0.78904
 H291 H 0.47972 0.29583 0.83562
 H292 H 0.40633 0.22893 0.88844
 H293 H 0.41179 0.19758 0.84110
 H294 H 0.49268 0.16940 0.67702
 C295 C 0.78120 0.22762 0.73636
 C296 C 0.77948 0.23049 0.69373
 C297 C 0.75990 0.20738 0.66767
 C298 C 0.79472 0.25738 0.67261
 C299 C 0.80151 0.25008 0.76280
 C300 C 0.76192 0.20226 0.75929
 C301 C 0.76008 0.18264 0.66831
 C302 C 0.73868 0.15955 0.65009
 C303 C 0.71696 0.16094 0.63044
 C304 C 0.71788 0.18618 0.62717
 C305 C 0.73922 0.20923 0.64559
 C306 C 0.81524 0.26239 0.64263
 C307 C 0.82932 0.28770 0.62232
 C308 C 0.82246 0.30800 0.63087
 C309 C 0.80177 0.30284 0.66066
 C310 C 0.78818 0.27781 0.68168
 C311 C 0.79276 0.25789 0.79925
 C312 C 0.81167 0.27804 0.82566
 C313 C 0.83976 0.29071 0.81624
 C314 C 0.84853 0.28306 0.77950
 C315 C 0.82955 0.26277 0.75312
 C316 C 0.73371 0.19313 0.75961
 C317 C 0.71596 0.17058 0.78419
 C318 C 0.72612 0.15679 0.80906
 C319 C 0.75432 0.16556 0.80755
 C320 C 0.77204 0.18819 0.78320
 H321 H 0.77614 0.18096 0.68467
 H322 H 0.73870 0.14045 0.65238
 H323 H 0.70132 0.18781 0.61248
 H324 H 0.73870 0.22813 0.64478
 H325 H 0.82043 0.24677 0.63523
 H326 H 0.84510 0.29125 0.59922
 H327 H 0.77225 0.27416 0.70456
 H328 H 0.77121 0.24836 0.80726
 H329 H 0.80430 0.28383 0.85339
 H330 H 0.87008 0.29228 0.77177
 H331 H 0.83677 0.25661 0.72564
 H332 H 0.72557 0.20400 0.74186
 H333 H 0.69448 0.16468 0.78511
 H334 H 0.76278 0.15516 0.82573
 H335 H 0.79375 0.19495 0.78332
 H336 H 0.79621 0.31825 0.66768
 C337 C 0.08274 0.47010 0.06412
 C338 C 0.09950 0.46635 0.03624
 C339 C 0.09817 0.46872 -0.00749
 C340 C 0.07890 0.47542 -0.02325
 C341 C 0.06143 0.47971 0.00467
 C342 C 0.06330 0.47674 0.04912
 O343 O 0.08806 0.46774 0.10458
 C344 C 0.10866 0.46247 0.10205
 C345 C 0.11641 0.46146 0.06089
 C346 C 0.13823 0.45738 0.05074
 C347 C 0.15288 0.45445 0.08442
 C348 C 0.14545 0.45550 0.12722
 C349 C 0.12276 0.45925 0.13613
 H350 H 0.11173 0.46585 -0.02874
 H351 H 0.07786 0.47755 -0.05729
 H352 H 0.05051 0.48010 0.07133
 H353 H 0.14404 0.45689 0.01807
 H354 H 0.17009 0.45145 0.07724
 H355 H 0.11692 0.46055 0.16850
 C356 C 0.51793 0.58489 0.09923
 C357 C 0.52433 0.60276 0.06573
 C358 C 0.52207 0.59478 0.02354
 C359 C 0.51265 0.56722 0.01550
 C360 C 0.50620 0.54840 0.04941
 C361 C 0.50916 0.55745 0.09194
 O362 O 0.52026 0.59647 0.13680
 C363 C 0.52841 0.62220 0.12675
 C364 C 0.53142 0.62712 0.08368
 C365 C 0.53962 0.65258 0.06606
 C366 C 0.54487 0.67386 0.09396
 C367 C 0.54149 0.66930 0.13849
 C368 C 0.53312 0.64302 0.15508
 H369 H 0.52693 0.60917 -0.00227
 H370 H 0.51042 0.56050 -0.01715
 H371 H 0.50390 0.54341 0.11839
 H372 H 0.54176 0.65591 0.03204
 H373 H 0.55098 0.69379 0.08086
 H374 H 0.53038 0.63899 0.18892
 C375 C 0.40792 0.92161 0.06420
 C376 C 0.40349 0.93377 0.09878
 C377 C 0.42320 0.95869 0.11432
 C378 C 0.44857 0.97166 0.09337
 C379 C 0.45386 0.95965 0.05755
 C380 C 0.43306 0.93419 0.04277
 O381 O 0.38659 0.89755 0.05539
 C382 C 0.36840 0.89451 0.08512
 C383 C 0.37776 0.91614 0.11235
 C384 C 0.36246 0.91695 0.14649
 C385 C 0.33653 0.89438 0.15324
 C386 C 0.32629 0.87141 0.12609
 C387 C 0.34254 0.87186 0.09105
 H388 H 0.41927 0.96775 0.14177
 H389 H 0.46410 0.99108 0.10528
 H390 H 0.43640 0.92437 0.01573
 H391 H 0.37045 0.93409 0.16781
 H392 H 0.32505 0.89450 0.18083
 H393 H 0.33554 0.85500 0.06932
 C394 C 0.91704 0.56739 0.58033
 C395 C 0.93050 0.58267 0.61520
 C396 C 0.95693 0.58862 0.62573
 C397 C 0.96986 0.57822 0.59942
 C398 C 0.95637 0.56259 0.56317
 C399 C 0.92972 0.55746 0.55328
 O400 O 0.89132 0.56208 0.57777
 C401 C 0.88843 0.57431 0.61167
 C402 C 0.91186 0.58743 0.63550
 C403 C 0.91289 0.60049 0.67342
 C404 C 0.88869 0.59960 0.68758
 C405 C 0.86415 0.58543 0.66414
 C406 C 0.86417 0.57294 0.62537
 H407 H 0.96694 0.60019 0.65380
 H408 H 0.99021 0.58212 0.60743
 H409 H 0.91866 0.54495 0.52650
 H410 H 0.93143 0.61038 0.69195
 H411 H 0.88870 0.60881 0.71771
 H412 H 0.84559 0.56164 0.60727
 C413 C 0.44680 0.38015 0.62793
 C414 C 0.43088 0.37357 0.66404
 C415 C 0.42160 0.39026 0.68088
 C416 C 0.42923 0.41488 0.65989
 C417 C 0.44600 0.42244 0.62284
 C418 C 0.45466 0.40457 0.60647
 O419 O 0.45412 0.36179 0.61808
 C420 C 0.44267 0.34333 0.64876
 C421 C 0.42826 0.34962 0.67767
 C422 C 0.41562 0.33374 0.71331
 C423 C 0.41802 0.31043 0.71954
 C424 C 0.43271 0.30330 0.69014
 C425 C 0.44505 0.32007 0.65403
 H426 H 0.40922 0.38469 0.70949
 H427 H 0.42239 0.42822 0.67298
 H428 H 0.46763 0.40976 0.57856
 H429 H 0.40478 0.33938 0.73599
 H430 H 0.40904 0.29840 0.74795
 H431 H 0.45636 0.31534 0.63087
 C432 C 0.61784 0.08502 0.54065
 C433 C 0.61950 0.07242 0.57710
 C434 C 0.59889 0.04696 0.59003
 C435 C 0.57566 0.03396 0.56425
 C436 C 0.57355 0.04650 0.52632
 C437 C 0.59509 0.07241 0.51443
 O438 O 0.63915 0.10959 0.53485
 C439 C 0.65461 0.11257 0.56836
 C440 C 0.64359 0.09037 0.59511
 C441 C 0.65611 0.08948 0.63265
 C442 C 0.68082 0.11256 0.64330
 C443 C 0.69237 0.13591 0.61656
 C444 C 0.67911 0.13569 0.57830
 H445 H 0.60055 0.03755 0.61905
 H446 H 0.55939 0.01412 0.57380
 H447 H 0.59405 0.08267 0.48595
 H448 H 0.64693 0.07187 0.65339
 H449 H 0.69043 0.11259 0.67309
 H450 H 0.68736 0.15317 0.55728
 C451 C 0.48785 0.06923 0.91279
 C452 C 0.47638 0.05771 0.87451
 C453 C 0.47427 0.03351 0.86058
 C454 C 0.48445 0.02061 0.88714
 C455 C 0.49664 0.03208 0.92691
 C456 C 0.49822 0.05684 0.93975
 O457 O 0.48808 0.09248 0.91973
 C458 C 0.47657 0.09569 0.88500
 C459 C 0.46907 0.07498 0.85636
 C460 C 0.45719 0.07450 0.81749
 C461 C 0.45297 0.09637 0.80762
 C462 C 0.46048 0.11808 0.83662
 C463 C 0.47236 0.11752 0.87603
 H464 H 0.46520 0.02488 0.83025
 H465 H 0.48291 0.00175 0.87637
 H466 H 0.50732 0.06632 0.96966
 H467 H 0.45172 0.05808 0.79529
 H468 H 0.44444 0.09665 0.77695
 H469 H 0.47820 0.13358 0.89904
 C470 C 0.58437 0.50031 0.93161
 C471 C 0.58038 0.50080 0.88864
 C472 C 0.55579 0.49661 0.87154
 C473 C 0.53437 0.49143 0.89994
 C474 C 0.53775 0.49010 0.94454
 C475 C 0.56336 0.49482 0.96028
 O476 O 0.60928 0.50508 0.94152
 C477 C 0.62129 0.50851 0.90394
 C478 C 0.60444 0.50589 0.87048
 C479 C 0.61271 0.50798 0.82830
 C480 C 0.63947 0.51313 0.82040
 C481 C 0.65739 0.51653 0.85446
 C482 C 0.64809 0.51414 0.89683
 H483 H 0.55317 0.49725 0.83757
 H484 H 0.51507 0.48796 0.88699
 H485 H 0.56699 0.49421 0.99395
 H486 H 0.59907 0.50567 0.80245
 H487 H 0.64644 0.51502 0.78780
 H488 H 0.66125 0.51641 0.92338
 C489 C 0.92938 0.39117 0.88380
 C490 C 0.91494 0.37474 0.91750
 C491 C 0.92031 0.38314 0.95948
 C492 C 0.94126 0.40969 0.96704
 C493 C 0.95641 0.42715 0.93282
 C494 C 0.95052 0.41755 0.89059
 O495 O 0.92013 0.37967 0.84633
 C496 C 0.89940 0.35548 0.85665
 C497 C 0.89542 0.35145 0.89980
 C498 C 0.87425 0.32796 0.91760
 C499 C 0.85630 0.30785 0.88976
 C500 C 0.85973 0.31161 0.84506
 C501 C 0.88184 0.33573 0.82838
 H502 H 0.90847 0.36992 0.98543
 H503 H 0.94551 0.41670 0.99954
 H504 H 0.96140 0.43049 0.86379
 H505 H 0.87148 0.32533 0.95167
 H506 H 0.83971 0.28937 0.90302
 H507 H 0.88474 0.33940 0.79448
 C508 C 0.53059 0.91692 0.39814
 C509 C 0.55698 0.92891 0.38281
 C510 C 0.57416 0.95687 0.38212
 C511 C 0.56367 0.97316 0.39766
 C512 C 0.53666 0.96131 0.41416
 C513 C 0.51996 0.93274 0.41472
 O514 O 0.51735 0.89008 0.39428
 C515 C 0.53583 0.88504 0.37631
 C516 C 0.56049 0.90810 0.36897
 C517 C 0.58275 0.90752 0.35051
 C518 C 0.57945 0.88212 0.33913
 C519 C 0.55411 0.85809 0.34572
 C520 C 0.53196 0.85960 0.36451
 H521 H 0.59476 0.96584 0.36949
 H522 H 0.57661 0.99501 0.39704
 H523 H 0.49912 0.92320 0.42649
 H524 H 0.60193 0.92596 0.34503
 H525 H 0.59643 0.88115 0.32446
 H526 H 0.51243 0.84152 0.36988
 C527 C 0.36144 0.46189 0.48152
 C528 C 0.36085 0.44773 0.44575
 C529 C 0.38162 0.44214 0.43528
 C530 C 0.40405 0.45163 0.46269
 C531 C 0.40537 0.46641 0.49986
 C532 C 0.38353 0.47140 0.50950
 O533 O 0.33996 0.46573 0.48470
 C534 C 0.32556 0.45375 0.45016
 C535 C 0.33748 0.44239 0.42538
 C536 C 0.32642 0.42954 0.38717
 C537 C 0.30211 0.42843 0.37377
 C538 C 0.28926 0.44004 0.39850
 C539 C 0.30126 0.45282 0.43746
 H540 H 0.38074 0.43110 0.40677
 H541 H 0.42046 0.44754 0.45473
 H542 H 0.38399 0.48283 0.53729
 H543 H 0.33642 0.42111 0.36795
 H544 H 0.29378 0.41922 0.34339
 H545 H 0.29214 0.46199 0.45706
 C546 C 0.07999 0.62997 0.41112
 C547 C 0.10149 0.64106 0.43901
 C548 C 0.10003 0.63071 0.47962
 C549 C 0.07554 0.60773 0.49191
 C550 C 0.05285 0.59562 0.46381
 C551 C 0.05517 0.60742 0.42295
 O552 O 0.08621 0.64200 0.37317
 C553 C 0.11221 0.66109 0.37728
 C554 C 0.12243 0.66140 0.41704
 C555 C 0.14937 0.67912 0.42802
 C556 C 0.16659 0.69712 0.39663
 C557 C 0.15685 0.69696 0.35492
 C558 C 0.12904 0.67880 0.34542
 H559 H 0.11738 0.63962 0.50078
 H560 H 0.07448 0.59928 0.52325
 H561 H 0.03864 0.59866 0.40025
 H562 H 0.15693 0.67895 0.45954
 H563 H 0.18757 0.71118 0.40491
 H564 H 0.12099 0.67785 0.31389
 C565 C 0.92348 0.53161 0.90135
 C566 C 0.93023 0.54208 0.86083
 C567 C 0.95326 0.54524 0.83944
 C568 C 0.97005 0.53716 0.86049
 C569 C 0.96399 0.52655 0.90273
 C570 C 0.94033 0.52405 0.92351
 O571 O 0.89997 0.52928 0.91503
 C572 C 0.89187 0.53862 0.88246
 C573 C 0.90985 0.54692 0.84869
 C574 C 0.90560 0.55748 0.81131
 C575 C 0.88179 0.55957 0.80855
 C576 C 0.86265 0.55077 0.84257
 C577 C 0.86771 0.54004 0.88006
 H578 H 0.95795 0.55330 0.80738
 H579 H 0.98792 0.53940 0.84369
 H580 H 0.93473 0.51576 0.95537
 H581 H 0.92008 0.56386 0.78519
 H582 H 0.87795 0.56759 0.77964
 H583 H 0.85338 0.53320 0.90641
 C584 C 0.45733 0.35928 0.96318
 C585 C 0.43012 0.34405 0.95288
 C586 C 0.41130 0.35288 0.96014
 C587 C 0.42101 0.37866 0.97805
 C588 C 0.44895 0.39479 0.98891
 C589 C 0.46729 0.38473 0.98207
 O590 O 0.47213 0.34806 0.95061
 C591 C 0.45386 0.32528 0.93202
 C592 C 0.42784 0.32181 0.93280
 C593 C 0.40580 0.30000 0.91356
 C594 C 0.41077 0.28102 0.89247
 C595 C 0.43749 0.28422 0.89062
 C596 C 0.45931 0.30670 0.91101
 H597 H 0.39010 0.34076 0.95102
 H598 H 0.40690 0.38633 0.98274
 H599 H 0.48888 0.39702 0.98881
 H600 H 0.38558 0.29793 0.91407
 H601 H 0.39395 0.26429 0.87639
 H602 H 0.47994 0.30983 0.91002
 C603 C 0.62994 0.06811 0.89300
 C604 C 0.65158 0.07784 0.92074
 C605 C 0.64865 0.07013 0.96326
 C606 C 0.62225 0.05202 0.97805
 C607 C 0.59956 0.04177 0.95028
 C608 C 0.60349 0.04950 0.90690
 O609 O 0.63693 0.07979 0.85485
 C610 C 0.66348 0.09726 0.85871
 C611 C 0.67340 0.09672 0.89836
 C612 C 0.70017 0.11435 0.91028
 C613 C 0.71747 0.13349 0.88020
 C614 C 0.70785 0.13481 0.83900
 C615 C 0.68040 0.11612 0.82814
 H616 H 0.66591 0.07848 0.98462
 H617 H 0.61932 0.04638 1.01139
 H618 H 0.58632 0.04259 0.88546
 H619 H 0.70732 0.11385 0.94199
 H620 H 0.73808 0.14794 0.88967
 H621 H 0.67228 0.11659 0.79719
 C622 C 0.05696 0.47983 0.41751
 C623 C 0.05301 0.47832 0.37429
 C624 C 0.03384 0.48353 0.35489
 C625 C 0.01847 0.49114 0.38105
 C626 C 0.02269 0.49360 0.42567
 C627 C 0.04192 0.48733 0.44409
 O628 O 0.07714 0.47547 0.42938
 C629 C 0.08627 0.47128 0.39282
 C630 C 0.07225 0.47290 0.35812
 C631 C 0.07962 0.47102 0.31657
 C632 C 0.10243 0.46746 0.31057
 C633 C 0.11713 0.46569 0.34589
 C634 C 0.10871 0.46729 0.38761
 H635 H 0.03129 0.48247 0.32075
 H636 H 0.00396 0.49597 0.36632
 H637 H 0.04596 0.48934 0.47788
 H638 H 0.06856 0.47279 0.28975
 H639 H 0.10878 0.46620 0.27850
 H640 H 0.11993 0.46650 0.41500
 C641 C 0.51291 0.60171 0.46945
 C642 C 0.51163 0.62016 0.49637
 C643 C 0.50342 0.61431 0.53855
 C644 C 0.49596 0.58824 0.55361
 C645 C 0.49684 0.56863 0.52654
 C646 C 0.50580 0.57565 0.48390
 O647 O 0.51991 0.61105 0.42995
 C648 C 0.52303 0.63588 0.43209
 C649 C 0.51821 0.64238 0.47209
 C650 C 0.51893 0.66672 0.48126
 C651 C 0.52456 0.68507 0.44769
 C652 C 0.52930 0.67881 0.40597
 C653 C 0.52895 0.65400 0.39820
 H654 H 0.50234 0.62913 0.55893
 H655 H 0.48925 0.58329 0.58633
 H656 H 0.50633 0.56105 0.46231
 H657 H 0.51482 0.67122 0.51297
 H658 H 0.52500 0.70409 0.45405
 H659 H 0.53208 0.64856 0.36654
 C660 C 0.40150 0.92943 0.36914
 C661 C 0.40541 0.93352 0.32602
 C662 C 0.42874 0.95501 0.30828
 C663 C 0.44916 0.97270 0.33610
 C664 C 0.44626 0.96824 0.38084
 C665 C 0.42165 0.94646 0.39737
 O666 O 0.37814 0.90748 0.37948
 C667 C 0.36719 0.89733 0.34204
 C668 C 0.38320 0.91237 0.30829
 C669 C 0.37658 0.90439 0.26628
 C670 C 0.35242 0.87997 0.25885
 C671 C 0.33524 0.86452 0.29306
 C672 C 0.34268 0.87340 0.33527
 H673 H 0.43134 0.95780 0.27419
 H674 H 0.46767 0.98914 0.32249
 H675 H 0.41852 0.94227 0.43115
 H676 H 0.38977 0.91622 0.24026
 H677 H 0.34698 0.87304 0.22652
 H678 H 0.33014 0.86167 0.36192
 C679 C 0.54902 0.91378 0.09087
 C680 C 0.57547 0.92766 0.10540
 C681 C 0.59150 0.95575 0.10189
 C682 C 0.57987 0.96997 0.08200
 C683 C 0.55302 0.95585 0.06539
 C684 C 0.53737 0.92738 0.07011
 O685 O 0.53704 0.88727 0.09808
 C686 C 0.55642 0.88426 0.11717
 C687 C 0.58043 0.90825 0.12200
 C688 C 0.60358 0.90944 0.13994
 C689 C 0.60175 0.88497 0.15400
 C690 C 0.57679 0.85994 0.15097
 C691 C 0.55389 0.85989 0.13191
 H692 H 0.61220 0.96631 0.11382
 H693 H 0.59202 0.99179 0.07819
 H694 H 0.51679 0.91618 0.05775
 H695 H 0.62246 0.92849 0.14270
 H696 H 0.61988 0.88572 0.16712
 H697 H 0.53429 0.84162 0.12949
 C698 C 0.37291 0.44623 0.12243
 C699 C 0.37784 0.44428 0.16473
 C700 C 0.40190 0.44572 0.17907
 C701 C 0.42182 0.44962 0.14860
 C702 C 0.41749 0.45227 0.10477
 C703 C 0.39247 0.45024 0.09162
 O704 O 0.34917 0.44534 0.11563
 C705 C 0.33896 0.44292 0.15450
 C706 C 0.35575 0.44228 0.18572
 C707 C 0.34980 0.44150 0.22882
 C708 C 0.32566 0.44161 0.24016
 C709 C 0.30803 0.44220 0.20849
 C710 C 0.31464 0.44253 0.16506
 H711 H 0.40541 0.44435 0.21256
 H712 H 0.44087 0.45124 0.15934
 H713 H 0.38855 0.45237 0.05855
 H714 H 0.36353 0.44142 0.25282
 H715 H 0.32076 0.44147 0.27350
 H716 H 0.30179 0.44358 0.14037
 C717 C 0.09076 0.61329 0.03485
 C718 C 0.10537 0.63118 0.00269
 C719 C 0.10123 0.62406 -0.04001
 C720 C 0.08126 0.59738 -0.04989
 C721 C 0.06578 0.57867 -0.01721
 C722 C 0.07060 0.58690 0.02574
 O723 O 0.09846 0.62368 0.07333
 C724 C 0.11833 0.64873 0.06536
 C725 C 0.12326 0.65444 0.02265
 C726 C 0.14340 0.67947 0.00734
 C727 C 0.15918 0.69933 0.03728
 C728 C 0.15475 0.69373 0.08151
 C729 C 0.13392 0.66804 0.09563
 H730 H 0.11314 0.63841 -0.06476
 H731 H 0.07780 0.59134 -0.08289
 H732 H 0.05942 0.57301 0.05144
 H733 H 0.14700 0.68348 -0.02640
 H734 H 0.17529 0.71881 0.02609
 H735 H 0.13005 0.66323 0.12915
 C736 C 0.47457 0.08260 0.55070
 C737 C 0.47054 0.09835 0.52130
 C738 C 0.47248 0.09555 0.47774
 C739 C 0.47915 0.07592 0.46392
 C740 C 0.48331 0.05933 0.49355
 C741 C 0.48065 0.06255 0.53761
 O742 O 0.47298 0.08936 0.59058
 C743 C 0.46778 0.10977 0.58623
 C744 C 0.46592 0.11594 0.54448
 C745 C 0.46086 0.13679 0.53264
 C746 C 0.45757 0.15189 0.56516
 C747 C 0.45969 0.14617 0.60852
 C748 C 0.46489 0.12475 0.61909
 H749 H 0.46950 0.10837 0.45522
 H750 H 0.48120 0.07373 0.43014
 H751 H 0.48424 0.05055 0.56099
 H752 H 0.45960 0.14134 0.49956
 H753 H 0.45388 0.16838 0.55658
 H754 H 0.46652 0.11985 0.65187
 C755 C 0.58636 0.53498 0.64650
 C756 C 0.58604 0.54176 0.68832
 C757 C 0.56282 0.53973 0.70789
 C758 C 0.53900 0.53030 0.68334
 C759 C 0.53878 0.52300 0.64014
 C760 C 0.56298 0.52551 0.62164
 O761 O 0.61029 0.53797 0.63400
 C762 C 0.62545 0.54678 0.66870
 C763 C 0.61163 0.54947 0.70285
 C764 C 0.62357 0.55787 0.74252
 C765 C 0.65073 0.56348 0.74725
 C766 C 0.66546 0.56062 0.71258
 C767 C 0.65248 0.55239 0.67259
 H768 H 0.56299 0.54507 0.74091
 H769 H 0.52071 0.52847 0.69810
 H770 H 0.56363 0.52012 0.58885
 H771 H 0.61224 0.55955 0.76913
 H772 H 0.65988 0.56913 0.77839
 H773 H 0.66297 0.55021 0.64526
 C774 C 0.90431 0.41343 0.56190
 C775 C 0.87904 0.40800 0.54742
 C776 C 0.87536 0.42580 0.52122
 C777 C 0.89866 0.45024 0.50958
 C778 C 0.92493 0.45659 0.52471
 C779 C 0.92770 0.43780 0.55129
 O780 O 0.90338 0.39370 0.58615
 C781 C 0.87693 0.37549 0.58719
 C782 C 0.86113 0.38336 0.56425
 C783 C 0.83281 0.36769 0.56204
 C784 C 0.82027 0.34293 0.58440
 C785 C 0.83615 0.33420 0.60775
 C786 C 0.86492 0.35069 0.60897
 H787 H 0.85528 0.42106 0.51013
 H788 H 0.89616 0.46442 0.48939
 H789 H 0.94745 0.44197 0.56320
 H790 H 0.82079 0.37439 0.54405
 H791 H 0.79824 0.33040 0.58327
 H792 H 0.87744 0.34457 0.62694
   
