data_POSCAR
  _audit_creation_date              2014-09-24
  _audit_creation_method            'ToBaCCo'
  _symmetry_space_group_name_H-M    'P1'
  _symmetry_Int_Tables_number       1
  _symmetry_cell_setting            triclinic
  loop_
  _symmetry_equiv_pos_as_xyz
 x,y,z
_cell_length_a 57.3820
_cell_length_b 57.7062
_cell_length_c 57.8753
_cell_angle_alpha 90.024600
_cell_angle_beta 89.893300
_cell_angle_gamma 89.989100
loop_
  _atom_site_label
  _atom_site_type_symbol
  _atom_site_fract_x
  _atom_site_fract_y
  _atom_site_fract_z
N1 N 0.27751 0.22957 0.21291
 N2 N 0.26845 0.24906 0.20541
 C3 C 0.27976 0.25568 0.18611
 C4 C 0.29695 0.23948 0.18123
 C5 C 0.29491 0.22314 0.19868
 H6 H 0.27597 0.27135 0.17662
 H7 H 0.30538 0.20776 0.20105
 Cu8 Cu 0.24330 0.26448 0.22188
 Cu9 Cu 0.26666 0.21447 0.24098
 Cu10 Cu 0.21788 0.23792 0.26730
 N11 N 0.21386 0.27516 0.23467
 N12 N 0.20404 0.26488 0.25244
 C13 C 0.18428 0.27620 0.25796
 C14 C 0.18149 0.29459 0.24280
 C15 C 0.20065 0.29331 0.22823
 H16 H 0.17285 0.27135 0.27201
 H17 H 0.20495 0.30493 0.21422
 N18 N 0.23448 0.21069 0.27961
 N19 N 0.25307 0.20175 0.26956
 C20 C 0.26057 0.18360 0.28211
 C21 C 0.24601 0.18089 0.30105
 C22 C 0.22966 0.19844 0.29883
 H23 H 0.27555 0.17313 0.27774
 H24 H 0.21545 0.20224 0.31050
 H25 H 0.23290 0.22651 0.23684
 H26 H 0.25205 0.24301 0.25717
 N27 N 0.72067 -0.23816 0.21357
 N28 N 0.73141 -0.25628 0.20490
 C29 C 0.71965 -0.26376 0.18621
 C30 C 0.70037 -0.24954 0.18290
 C31 C 0.70174 -0.23346 0.20074
 H32 H 0.72483 -0.27848 0.17588
 H33 H 0.68991 -0.21935 0.20432
 Cu34 Cu 0.75972 -0.26832 0.21895
 Cu35 Cu 0.73190 -0.22199 0.24091
 Cu36 Cu 0.78278 -0.24261 0.26579
 N37 N 0.78851 -0.27941 0.23282
 N38 N 0.79745 -0.26931 0.25110
 C39 C 0.81708 -0.28048 0.25723
 C40 C 0.82078 -0.29873 0.24196
 C41 C 0.80216 -0.29736 0.22667
 H42 H 0.82768 -0.27563 0.27186
 H43 H 0.79861 -0.30862 0.21220
 N44 N 0.76536 -0.21582 0.27809
 N45 N 0.74601 -0.20798 0.26861
 C46 C 0.73827 -0.18973 0.28095
 C47 C 0.75344 -0.18583 0.29914
 C48 C 0.77041 -0.20276 0.29671
 H49 H 0.72260 -0.18013 0.27708
 H50 H 0.78542 -0.20537 0.30764
 H51 H 0.76664 -0.23041 0.23628
 H52 H 0.74915 -0.24983 0.25540
 N53 N 0.72344 0.22929 0.78814
 N54 N 0.73413 0.24722 0.79724
 C55 C 0.72279 0.25367 0.81660
 C56 C 0.70394 0.23898 0.81985
 C57 C 0.70498 0.22370 0.80138
 H58 H 0.72787 0.26800 0.82749
 H59 H 0.69299 0.20979 0.79757
 Cu60 Cu 0.76157 0.26057 0.78261
 Cu61 Cu 0.73391 0.21478 0.75956
 Cu62 Cu 0.78274 0.23843 0.73313
 N63 N 0.78899 0.27365 0.76769
 N64 N 0.79715 0.26496 0.74832
 C65 C 0.81588 0.27730 0.74160
 C66 C 0.81979 0.29484 0.75763
 C67 C 0.80225 0.29182 0.77397
 H68 H 0.82573 0.27372 0.72609
 H69 H 0.79915 0.30212 0.78924
 N70 N 0.76571 0.21156 0.72049
 N71 N 0.74716 0.20257 0.73057
 C72 C 0.73953 0.18456 0.71786
 C73 C 0.75395 0.18200 0.69879
 C74 C 0.77036 0.19948 0.70110
 H75 H 0.72464 0.17401 0.72227
 H76 H 0.78458 0.20326 0.68945
 H77 H 0.76856 0.22400 0.76265
 H78 H 0.74948 0.24397 0.74578
 N79 N 0.27863 -0.23793 0.78717
 N80 N 0.26730 -0.25543 0.79638
 C81 C 0.27904 -0.26293 0.81508
 C82 C 0.29878 -0.24936 0.81780
 C83 C 0.29788 -0.23367 0.79970
 H84 H 0.27353 -0.27711 0.82598
 H85 H 0.31039 -0.22025 0.79572
 Cu86 Cu 0.23836 -0.26674 0.78300
 Cu87 Cu 0.26770 -0.22201 0.75961
 Cu88 Cu 0.21683 -0.24247 0.73467
 N89 N 0.21015 -0.27835 0.76840
 N90 N 0.20182 -0.26883 0.74955
 C91 C 0.18249 -0.28031 0.74304
 C92 C 0.17837 -0.29816 0.75866
 C93 C 0.19643 -0.29624 0.77454
 H94 H 0.17239 -0.27595 0.72793
 H95 H 0.19958 -0.30711 0.78938
 N96 N 0.23453 -0.21597 0.72218
 N97 N 0.25389 -0.20819 0.73168
 C98 C 0.26180 -0.19008 0.71927
 C99 C 0.24672 -0.18620 0.70100
 C100 C 0.22963 -0.20300 0.70346
 H101 H 0.27750 -0.18055 0.72316
 H102 H 0.21460 -0.20552 0.69254
 H103 H 0.23273 -0.22944 0.76393
 H104 H 0.25010 -0.25015 0.74603
 N105 N 0.72370 -0.22809 0.78767
 N106 N 0.73255 -0.24776 0.79495
 C107 C 0.72054 -0.25492 0.81365
 C108 C 0.70316 -0.23889 0.81835
 C109 C 0.70576 -0.22209 0.80143
 H110 H 0.72402 -0.27077 0.82295
 H111 H 0.69545 -0.20658 0.79923
 Cu112 Cu 0.75879 -0.26222 0.77918
 Cu113 Cu 0.73585 -0.21184 0.76076
 Cu114 Cu 0.78333 -0.23651 0.73301
 N115 N 0.78582 -0.27550 0.76370
 N116 N 0.79532 -0.26535 0.74571
 C117 C 0.81359 -0.27801 0.73839
 C118 C 0.81581 -0.29731 0.75256
 C119 C 0.79775 -0.29501 0.76847
 H120 H 0.82434 -0.27335 0.72378
 H121 H 0.79351 -0.30658 0.78252
 N122 N 0.76872 -0.20740 0.72275
 N123 N 0.75061 -0.19802 0.73325
 C124 C 0.74446 -0.17858 0.72191
 C125 C 0.75943 -0.17553 0.70335
 C126 C 0.77458 -0.19418 0.70449
 H127 H 0.73010 -0.16749 0.72681
 H128 H 0.78857 -0.19812 0.69261
 H129 H 0.74936 -0.24062 0.74419
 H130 H 0.76946 -0.22439 0.76371
 N131 N 0.27796 0.23638 0.78680
 N132 N 0.26831 0.25569 0.79408
 C133 C 0.28054 0.26383 0.81220
 C134 C 0.29887 0.24879 0.81656
 C135 C 0.29661 0.23156 0.80000
 H136 H 0.27630 0.27947 0.82157
 H137 H 0.30771 0.21664 0.79757
 Cu138 Cu 0.24069 0.26821 0.77914
 Cu139 Cu 0.26570 0.21883 0.76075
 Cu140 Cu 0.21642 0.24078 0.73396
 N141 N 0.21307 0.28036 0.76388
 N142 N 0.20368 0.26952 0.74625
 C143 C 0.18496 0.28148 0.73895
 C144 C 0.18237 0.30094 0.75275
 C145 C 0.20060 0.29961 0.76841
 H146 H 0.17400 0.27624 0.72471
 H147 H 0.20462 0.31182 0.78198
 N148 N 0.23186 0.21195 0.72405
 N149 N 0.25066 0.20361 0.73416
 C150 C 0.25718 0.18404 0.72323
 C151 C 0.24173 0.17980 0.70535
 C152 C 0.22592 0.19790 0.70645
 H153 H 0.27208 0.17364 0.72796
 H154 H 0.21138 0.20088 0.69500
 H155 H 0.25042 0.24665 0.74419
 H156 H 0.23160 0.22969 0.76439
 N157 N 0.27613 -0.22756 0.21123
 N158 N 0.26642 -0.24651 0.20316
 C159 C 0.27835 -0.25364 0.18440
 C160 C 0.29654 -0.23832 0.18042
 C161 C 0.29451 -0.22197 0.19788
 H162 H 0.27408 -0.26888 0.17441
 H163 H 0.30569 -0.20723 0.20091
 Cu164 Cu 0.23932 -0.26023 0.21811
 Cu165 Cu 0.26447 -0.21167 0.23858
 Cu166 Cu 0.21697 -0.23626 0.26630
 N167 N 0.21312 -0.27415 0.23439
 N168 N 0.20448 -0.26469 0.25318
 C169 C 0.18666 -0.27772 0.26092
 C170 C 0.18390 -0.29647 0.24620
 C171 C 0.20108 -0.29357 0.22955
 H172 H 0.17661 -0.27383 0.27624
 H173 H 0.20454 -0.30470 0.21493
 N174 N 0.23200 -0.20754 0.27697
 N175 N 0.25013 -0.19818 0.26648
 C176 C 0.25649 -0.17893 0.27803
 C177 C 0.24164 -0.17597 0.29670
 C178 C 0.22634 -0.19448 0.29542
 H179 H 0.27085 -0.16785 0.27315
 H180 H 0.21232 -0.19839 0.30727
 H181 H 0.25052 -0.24091 0.25387
 H182 H 0.23045 -0.22292 0.23591
 N183 N 0.72159 0.23595 0.21295
 N184 N 0.73119 0.25529 0.20568
 C185 C 0.71890 0.26344 0.18761
 C186 C 0.70057 0.24839 0.18329
 C187 C 0.70291 0.23113 0.19979
 H188 H 0.72290 0.27924 0.17843
 H189 H 0.69196 0.21608 0.20205
 Cu190 Cu 0.75877 0.26789 0.22065
 Cu191 Cu 0.73389 0.21843 0.23899
 Cu192 Cu 0.78304 0.24058 0.26587
 N193 N 0.78635 0.28012 0.23591
 N194 N 0.79570 0.26935 0.25361
 C195 C 0.81439 0.28135 0.26093
 C196 C 0.81699 0.30076 0.24708
 C197 C 0.79881 0.29936 0.23136
 H198 H 0.82535 0.27616 0.27518
 H199 H 0.79483 0.31153 0.21776
 N200 N 0.76769 0.21171 0.27576
 N201 N 0.74896 0.20328 0.26559
 C202 C 0.74251 0.18368 0.27651
 C203 C 0.75794 0.17952 0.29443
 C204 C 0.77366 0.19770 0.29337
 H205 H 0.72767 0.17321 0.27175
 H206 H 0.78816 0.20076 0.30485
 H207 H 0.74903 0.24630 0.25557
 H208 H 0.76796 0.22939 0.23542
 C209 C 0.25363 -0.01215 0.50251
 C210 C 0.25375 0.01141 0.50358
 C211 C 0.25407 0.02602 0.48244
 C212 C 0.25300 0.02403 0.52593
 C213 C 0.25393 -0.02681 0.52361
 C214 C 0.25272 -0.02473 0.48014
 C215 C 0.27187 0.02389 0.46585
 C216 C 0.27212 0.03831 0.44639
 C217 C 0.25469 0.05505 0.44346
 C218 C 0.23702 0.05730 0.46000
 C219 C 0.23674 0.04293 0.47939
 C220 C 0.27014 0.04068 0.53080
 C221 C 0.26894 0.05380 0.55103
 C222 C 0.25052 0.05054 0.56657
 C223 C 0.23342 0.03386 0.56193
 C224 C 0.23460 0.02069 0.54165
 C225 C 0.23655 -0.04366 0.52669
 C226 C 0.23695 -0.05826 0.54591
 C227 C 0.25480 -0.05632 0.56223
 C228 C 0.27223 -0.03956 0.55931
 C229 C 0.27185 -0.02490 0.54004
 C230 C 0.23431 -0.02121 0.46454
 C231 C 0.23310 -0.03415 0.44413
 C232 C 0.25020 -0.05079 0.43923
 C233 C 0.26858 -0.05429 0.45469
 C234 C 0.26981 -0.04139 0.47506
 H235 H 0.28564 0.01126 0.46809
 H236 H 0.28598 0.03654 0.43378
 H237 H 0.22351 0.07026 0.45797
 H238 H 0.22295 0.04494 0.49205
 H239 H 0.28434 0.04362 0.51880
 H240 H 0.28218 0.06675 0.55438
 H241 H 0.22096 0.00827 0.53798
 H242 H 0.22266 -0.04550 0.51417
 H243 H 0.22341 -0.07119 0.54795
 H244 H 0.28621 -0.03800 0.57177
 H245 H 0.28566 -0.01231 0.53776
 H246 H 0.22071 -0.00876 0.46838
 H247 H 0.21869 -0.03144 0.43237
 H248 H 0.28182 -0.06721 0.45113
 H249 H 0.28402 -0.04447 0.48696
 H250 H 0.21898 0.03135 0.57375
 C251 C 0.74686 -0.01171 0.49776
 C252 C 0.74666 0.01185 0.49665
 C253 C 0.74629 0.02653 0.51776
 C254 C 0.74733 0.02440 0.47427
 C255 C 0.74654 -0.02641 0.47667
 C256 C 0.74790 -0.02423 0.52014
 C257 C 0.72852 0.02435 0.53438
 C258 C 0.72819 0.03885 0.55378
 C259 C 0.74551 0.05572 0.55663
 C260 C 0.76316 0.05799 0.54008
 C261 C 0.76352 0.04354 0.52073
 C262 C 0.73010 0.04095 0.46937
 C263 C 0.73120 0.05398 0.44909
 C264 C 0.74960 0.05072 0.43352
 C265 C 0.76680 0.03415 0.43820
 C266 C 0.76572 0.02108 0.45853
 C267 C 0.76398 -0.04320 0.47353
 C268 C 0.76359 -0.05779 0.45430
 C269 C 0.74570 -0.05590 0.43802
 C270 C 0.72821 -0.03921 0.44100
 C271 C 0.72857 -0.02455 0.46029
 C272 C 0.76633 -0.02058 0.53570
 C273 C 0.76768 -0.03349 0.55611
 C274 C 0.75072 -0.05023 0.56106
 C275 C 0.73231 -0.05387 0.54565
 C276 C 0.73094 -0.04100 0.52528
 H277 H 0.71483 0.01163 0.53219
 H278 H 0.71436 0.03704 0.56642
 H279 H 0.77660 0.07103 0.54207
 H280 H 0.77728 0.04558 0.50807
 H281 H 0.71591 0.04389 0.48139
 H282 H 0.71789 0.06686 0.44571
 H283 H 0.77943 0.00873 0.46222
 H284 H 0.77790 -0.04499 0.48602
 H285 H 0.77717 -0.07069 0.45222
 H286 H 0.71420 -0.03769 0.42857
 H287 H 0.71473 -0.01201 0.46261
 H288 H 0.77984 -0.00806 0.53182
 H289 H 0.78211 -0.03068 0.56783
 H290 H 0.71918 -0.06687 0.54924
 H291 H 0.71672 -0.04418 0.51342
 H292 H 0.78123 0.03164 0.42637
 C293 C 0.49942 0.25472 0.01162
 C294 C 0.50013 0.25473 -0.01189
 C295 C 0.47858 0.25530 -0.02607
 C296 C 0.52245 0.25357 -0.02487
 C297 C 0.52097 0.25520 0.02580
 C298 C 0.47708 0.25366 0.02458
 C299 C 0.47506 0.23820 -0.04298
 C300 C 0.45541 0.23888 -0.05713
 C301 C 0.43908 0.25672 -0.05466
 C302 C 0.44243 0.27387 -0.03784
 C303 C 0.46214 0.27321 -0.02363
 C304 C 0.53812 0.23513 -0.02158
 C305 C 0.55830 0.23349 -0.03510
 C306 C 0.56292 0.25017 -0.05207
 C307 C 0.54744 0.26863 -0.05530
 C308 C 0.52729 0.27029 -0.04183
 C309 C 0.53750 0.27302 0.02337
 C310 C 0.55720 0.27360 0.03758
 C311 C 0.56047 0.25646 0.05441
 C312 C 0.54406 0.23869 0.05687
 C313 C 0.52441 0.23809 0.04271
 C314 C 0.47228 0.27041 0.04154
 C315 C 0.45210 0.26886 0.05496
 C316 C 0.43655 0.25047 0.05169
 C317 C 0.44113 0.23375 0.03473
 C318 C 0.46135 0.23529 0.02126
 H319 H 0.48758 0.22432 -0.04521
 H320 H 0.45304 0.22558 -0.07013
 H321 H 0.42997 0.28784 -0.03589
 H322 H 0.46474 0.28679 -0.01098
 H323 H 0.53445 0.22179 -0.00893
 H324 H 0.57006 0.21903 -0.03259
 H325 H 0.51534 0.28451 -0.04475
 H326 H 0.53495 0.28661 0.01072
 H327 H 0.56972 0.28751 0.03564
 H328 H 0.54636 0.22539 0.06987
 H329 H 0.51183 0.22428 0.04494
 H330 H 0.48429 0.28458 0.04448
 H331 H 0.44880 0.28181 0.06813
 H332 H 0.42932 0.21934 0.03221
 H333 H 0.46499 0.22192 0.00862
 H334 H 0.55077 0.28156 -0.06847
 C335 C 0.50024 0.74516 0.01185
 C336 C 0.50082 0.74503 -0.01166
 C337 C 0.47920 0.74442 -0.02573
 C338 C 0.52308 0.74610 -0.02475
 C339 C 0.52186 0.74470 0.02592
 C340 C 0.47798 0.74629 0.02494
 C341 C 0.46274 0.72656 -0.02311
 C342 C 0.44295 0.72586 -0.03721
 C343 C 0.43954 0.74292 -0.05410
 C344 C 0.45589 0.76071 -0.05674
 C345 C 0.47562 0.76143 -0.04270
 C346 C 0.52782 0.72929 -0.04167
 C347 C 0.54786 0.73088 -0.05529
 C348 C 0.56334 0.74937 -0.05226
 C349 C 0.55884 0.76613 -0.03532
 C350 C 0.53876 0.76455 -0.02165
 C351 C 0.52541 0.76187 0.04275
 C352 C 0.54509 0.76125 0.05686
 C353 C 0.56141 0.74339 0.05444
 C354 C 0.55804 0.72618 0.03768
 C355 C 0.53831 0.72679 0.02351
 C356 C 0.46222 0.76465 0.02163
 C357 C 0.44209 0.76627 0.03523
 C358 C 0.43763 0.74966 0.05232
 C359 C 0.45320 0.73128 0.05556
 C360 C 0.47329 0.72964 0.04200
 H361 H 0.46539 0.71305 -0.01041
 H362 H 0.43047 0.71194 -0.03511
 H363 H 0.45348 0.77394 -0.06980
 H364 H 0.48816 0.77526 -0.04507
 H365 H 0.51584 0.71505 -0.04445
 H366 H 0.55110 0.71789 -0.06843
 H367 H 0.53517 0.77796 -0.00904
 H368 H 0.51289 0.77574 0.04496
 H369 H 0.54748 0.77459 0.06982
 H370 H 0.57050 0.71220 0.03577
 H371 H 0.53567 0.71315 0.01092
 H372 H 0.46576 0.77794 0.00890
 H373 H 0.43025 0.78067 0.03271
 H374 H 0.44999 0.71840 0.06880
 H375 H 0.48532 0.71548 0.04493
 H376 H 0.57060 0.78062 -0.03296
 C377 C -0.00918 0.50055 0.25239
 C378 C 0.01453 0.49964 0.25228
 C379 C 0.02740 0.47731 0.25132
 C380 C 0.02903 0.52094 0.25272
 C381 C -0.02207 0.52287 0.25170
 C382 C -0.02371 0.47927 0.25281
 C383 C 0.04435 0.47249 0.26811
 C384 C 0.05761 0.45223 0.26679
 C385 C 0.05419 0.43661 0.24861
 C386 C 0.03724 0.44124 0.23183
 C387 C 0.02394 0.46154 0.23313
 C388 C 0.02681 0.53734 0.27056
 C389 C 0.04120 0.55692 0.27099
 C390 C 0.05800 0.56016 0.25369
 C391 C 0.06031 0.54383 0.23596
 C392 C 0.04597 0.52431 0.23551
 C393 C -0.01886 0.53867 0.23349
 C394 C -0.03236 0.55885 0.23234
 C395 C -0.04923 0.56332 0.24929
 C396 C -0.05236 0.54771 0.26753
 C397 C -0.03891 0.52758 0.26870
 C398 C -0.04074 0.47603 0.23573
 C399 C -0.05524 0.45664 0.23628
 C400 C -0.05301 0.44030 0.25399
 C401 C -0.03607 0.44337 0.27113
 C402 C -0.02151 0.46282 0.27059
 H403 H 0.04740 0.48451 0.28216
 H404 H 0.07075 0.44891 0.27979
 H405 H 0.03459 0.42937 0.21757
 H406 H 0.01130 0.46517 0.21974
 H407 H 0.01415 0.53484 0.28423
 H408 H 0.03937 0.56939 0.28487
 H409 H 0.04805 0.51180 0.22169
 H410 H -0.00630 0.53513 0.21995
 H411 H -0.02994 0.57071 0.21803
 H412 H -0.06545 0.55092 0.28066
 H413 H -0.04177 0.51552 0.28276
 H414 H -0.04279 0.48858 0.22196
 H415 H -0.06833 0.45448 0.22298
 H416 H -0.03429 0.43089 0.28499
 H417 H -0.00877 0.46523 0.28417
 H418 H 0.07331 0.54612 0.22254
 C419 C 0.00865 0.50091 0.74710
 C420 C -0.01505 0.50000 0.74711
 C421 C -0.02791 0.47767 0.74791
 C422 C -0.02957 0.52130 0.74667
 C423 C 0.02153 0.52323 0.74790
 C424 C 0.02318 0.47962 0.74668
 C425 C -0.04476 0.47288 0.73100
 C426 C -0.05798 0.45260 0.73215
 C427 C -0.05464 0.43692 0.75028
 C428 C -0.03781 0.44151 0.76719
 C429 C -0.02454 0.46183 0.76606
 C430 C -0.02728 0.53774 0.72889
 C431 C -0.04169 0.55731 0.72845
 C432 C -0.05857 0.56051 0.74567
 C433 C -0.06094 0.54415 0.76335
 C434 C -0.04659 0.52463 0.76382
 C435 C 0.01822 0.53900 0.76614
 C436 C 0.03171 0.55917 0.76741
 C437 C 0.04867 0.56367 0.75055
 C438 C 0.05189 0.54808 0.73229
 C439 C 0.03846 0.52796 0.73101
 C440 C 0.04012 0.47635 0.76385
 C441 C 0.05462 0.45694 0.76332
 C442 C 0.05248 0.44064 0.74556
 C443 C 0.03564 0.44375 0.72833
 C444 C 0.02108 0.46321 0.72884
 H445 H -0.04774 0.48495 0.71699
 H446 H -0.07104 0.44930 0.71906
 H447 H -0.03521 0.42959 0.78141
 H448 H -0.01197 0.46543 0.77953
 H449 H -0.01456 0.53526 0.71527
 H450 H -0.03980 0.56981 0.71461
 H451 H -0.04871 0.51210 0.77759
 H452 H 0.00559 0.53544 0.77960
 H453 H 0.02921 0.57102 0.78173
 H454 H 0.06506 0.55131 0.71924
 H455 H 0.04140 0.51592 0.71693
 H456 H 0.04210 0.48887 0.77766
 H457 H 0.06764 0.45475 0.77668
 H458 H 0.03395 0.43130 0.71443
 H459 H 0.00843 0.46565 0.71520
 H460 H -0.07399 0.54642 0.77672
 C461 C 0.32960 0.25762 0.12694
 C462 C 0.34822 0.24198 0.12689
 C463 C 0.34983 0.22523 0.14426
 C464 C 0.33305 0.22423 0.16176
 C465 C 0.31435 0.24005 0.16218
 C466 C 0.31276 0.25667 0.14443
 C467 C 0.36616 0.24357 0.10955
 C468 C 0.38161 0.24497 0.09548
 C469 C 0.40020 0.24671 0.07958
 C470 C 0.41652 0.24833 0.06654
 H471 H 0.32820 0.27070 0.11359
 H472 H 0.36424 0.21309 0.14445
 H473 H 0.33503 0.21126 0.17508
 H474 H 0.29861 0.26903 0.14400
 C475 C 0.64759 0.76322 0.14742
 C476 C 0.64875 0.74568 0.13081
 C477 C 0.66709 0.72975 0.13136
 C478 C 0.68419 0.73130 0.14849
 C479 C 0.68324 0.74889 0.16546
 C480 C 0.66461 0.76485 0.16457
 C481 C 0.63094 0.74404 0.11342
 C482 C 0.61565 0.74309 0.09919
 C483 C 0.59729 0.74255 0.08302
 C484 C 0.58118 0.74261 0.06968
 H485 H 0.63343 0.77565 0.14716
 H486 H 0.66814 0.71606 0.11858
 H487 H 0.69801 0.71859 0.14826
 H488 H 0.66291 0.77870 0.17703
 C489 C 0.66754 0.26013 -0.12945
 C490 C 0.65177 0.24185 -0.12673
 C491 C 0.65329 0.22246 -0.14116
 C492 C 0.67037 0.22142 -0.15839
 C493 C 0.68620 0.23981 -0.16145
 C494 C 0.68466 0.25913 -0.14666
 C495 C 0.63355 0.24330 -0.10966
 C496 C 0.61796 0.24462 -0.09574
 C497 C 0.59928 0.24633 -0.07993
 C498 C 0.58294 0.24797 -0.06693
 H499 H 0.66646 0.27528 -0.11844
 H500 H 0.64114 0.20821 -0.13923
 H501 H 0.67109 0.20617 -0.16924
 H502 H 0.69637 0.27369 -0.14853
 C503 C 0.35066 0.76479 -0.14411
 C504 C 0.35157 0.74533 -0.12975
 C505 C 0.33516 0.72760 -0.13241
 C506 C 0.31793 0.72932 -0.14940
 C507 C 0.31691 0.74881 -0.16401
 C508 C 0.33349 0.76655 -0.16111
 C509 C 0.36956 0.74357 -0.11255
 C510 C 0.38498 0.74257 -0.09847
 C511 C 0.40347 0.74201 -0.08243
 C512 C 0.41968 0.74209 -0.06921
 H513 H 0.36328 0.77863 -0.14220
 H514 H 0.33574 0.71242 -0.12142
 H515 H 0.30562 0.71524 -0.15117
 H516 H 0.33320 0.78189 -0.17181
 C517 C 0.14293 0.34470 0.22412
 C518 C 0.12791 0.34680 0.24307
 C519 C 0.13002 0.33152 0.26171
 C520 C 0.14723 0.31435 0.26152
 C521 C 0.16265 0.31226 0.24268
 C522 C 0.16016 0.32756 0.22390
 C523 C 0.11097 0.36520 0.24377
 C524 C 0.09719 0.38097 0.24451
 C525 C 0.08159 0.39986 0.24563
 C526 C 0.06878 0.41639 0.24683
 H527 H 0.14148 0.35646 0.20961
 H528 H 0.11856 0.33306 0.27653
 H529 H 0.14865 0.30305 0.27636
 H530 H 0.17150 0.32641 0.20900
 C531 C 0.12568 0.66862 0.74005
 C532 C 0.12456 0.65151 0.75711
 C533 C 0.14101 0.65132 0.77487
 C534 C 0.15865 0.66801 0.77552
 C535 C 0.16023 0.68528 0.75830
 C536 C 0.14329 0.68537 0.74062
 C537 C 0.10707 0.63366 0.75601
 C538 C 0.09285 0.61831 0.75502
 C539 C 0.07678 0.59984 0.75372
 C540 C 0.06362 0.58362 0.75241
 H541 H 0.11305 0.66889 0.72616
 H542 H 0.14035 0.63811 0.78815
 H543 H 0.17101 0.66706 0.78954
 H544 H 0.14353 0.69817 0.72700
 C545 C -0.12575 0.66879 0.25967
 C546 C -0.12519 0.65116 0.24312
 C547 C -0.14224 0.65039 0.22594
 C548 C -0.15994 0.66702 0.22540
 C549 C -0.16099 0.68480 0.24214
 C550 C -0.14343 0.68548 0.25921
 C551 C -0.10764 0.63335 0.24416
 C552 C -0.09341 0.61801 0.24509
 C553 C -0.07734 0.59953 0.24632
 C554 C -0.06418 0.58328 0.24755
 H555 H -0.11264 0.66953 0.27310
 H556 H -0.14200 0.63677 0.21304
 H557 H -0.17280 0.66559 0.21185
 H558 H -0.14324 0.69870 0.27244
 C559 C -0.14424 0.34618 0.77427
 C560 C -0.12824 0.34705 0.75607
 C561 C -0.12920 0.33041 0.73854
 C562 C -0.14621 0.31304 0.73910
 C563 C -0.16268 0.31204 0.75725
 C564 C -0.16126 0.32888 0.77492
 C565 C -0.11134 0.36547 0.75506
 C566 C -0.09759 0.38125 0.75419
 C567 C -0.08202 0.40015 0.75305
 C568 C -0.06922 0.41669 0.75191
 H569 H -0.14369 0.35903 0.78792
 H570 H -0.11692 0.33095 0.72431
 H571 H -0.14635 0.30062 0.72512
 H572 H -0.17330 0.32901 0.78929
 C573 C 0.23131 0.14421 0.35362
 C574 C 0.25099 0.13000 0.35522
 C575 C 0.26903 0.13232 0.33910
 C576 C 0.26743 0.14882 0.32147
 C577 C 0.24771 0.16326 0.31970
 C578 C 0.22966 0.16071 0.33602
 C579 C 0.25268 0.11322 0.37355
 C580 C 0.25380 0.09940 0.38912
 C581 C 0.25467 0.08353 0.40766
 C582 C 0.25496 0.07032 0.42379
 H583 H 0.21723 0.14257 0.36601
 H584 H 0.28439 0.12145 0.34022
 H585 H 0.28177 0.15030 0.30942
 H586 H 0.21416 0.17134 0.33523
 C587 C 0.73100 0.13326 0.66088
 C588 C 0.74888 0.13113 0.64456
 C589 C 0.76840 0.14558 0.64594
 C590 C 0.77007 0.16209 0.66353
 C591 C 0.75219 0.16443 0.68007
 C592 C 0.73262 0.14977 0.67851
 C593 C 0.74723 0.11426 0.62629
 C594 C 0.74616 0.10035 0.61078
 C595 C 0.74536 0.08438 0.59231
 C596 C 0.74514 0.07109 0.57624
 H597 H 0.71578 0.12220 0.65995
 H598 H 0.78236 0.14408 0.63338
 H599 H 0.78546 0.17288 0.66415
 H600 H 0.71842 0.15106 0.69074
 C601 C 0.23567 -0.15180 0.64613
 C602 C 0.25182 -0.13378 0.64830
 C603 C 0.26633 -0.13285 0.66767
 C604 C 0.26470 -0.14986 0.68482
 C605 C 0.24849 -0.16809 0.68282
 C606 C 0.23400 -0.16882 0.66324
 C607 C 0.25343 -0.11635 0.63058
 C608 C 0.25445 -0.10201 0.61546
 C609 C 0.25516 -0.08559 0.59738
 C610 C 0.25530 -0.07198 0.58158
 H611 H 0.22437 -0.15273 0.63118
 H612 H 0.27889 -0.11896 0.66955
 H613 H 0.27605 -0.14855 0.69965
 H614 H 0.22145 -0.18260 0.66092
 C615 C 0.76502 -0.15115 0.35376
 C616 C 0.74863 -0.13331 0.35183
 C617 C 0.73381 -0.13258 0.33269
 C618 C 0.73536 -0.14960 0.31554
 C619 C 0.75179 -0.16766 0.31730
 C620 C 0.76661 -0.16818 0.33666
 C621 C 0.74705 -0.11589 0.36959
 C622 C 0.74606 -0.10156 0.38473
 C623 C 0.74536 -0.08516 0.40283
 C624 C 0.74522 -0.07155 0.41865
 H625 H 0.77656 -0.15192 0.36855
 H626 H 0.72105 -0.11884 0.33101
 H627 H 0.72374 -0.14845 0.30090
 H628 H 0.77936 -0.18181 0.33880
 C629 C 0.67011 0.74277 -0.12770
 C630 C 0.65120 0.75806 -0.12802
 C631 C 0.64941 0.77454 -0.14563
 C632 C 0.66637 0.77566 -0.16296
 C633 C 0.68539 0.76025 -0.16296
 C634 C 0.68710 0.74384 -0.14503
 C635 C 0.63324 0.75645 -0.11069
 C636 C 0.61785 0.75502 -0.09656
 C637 C 0.59938 0.75324 -0.08053
 C638 C 0.58319 0.75157 -0.06733
 H639 H 0.67165 0.72990 -0.11416
 H640 H 0.63477 0.78639 -0.14610
 H641 H 0.66429 0.78841 -0.17648
 H642 H 0.70153 0.73181 -0.14427
 C643 C 0.35014 0.23440 -0.14456
 C644 C 0.35144 0.25421 -0.13071
 C645 C 0.33551 0.27227 -0.13396
 C646 C 0.31837 0.27053 -0.15104
 C647 C 0.31694 0.25067 -0.16515
 C648 C 0.33305 0.23261 -0.16162
 C649 C 0.36937 0.25600 -0.11344
 C650 C 0.38474 0.25700 -0.09931
 C651 C 0.40316 0.25758 -0.08319
 C652 C 0.41930 0.25752 -0.06989
 H653 H 0.36240 0.22031 -0.14220
 H654 H 0.33640 0.28773 -0.12337
 H655 H 0.30643 0.28485 -0.15321
 H656 H 0.33254 0.21700 -0.17194
 C657 C 0.33323 0.74002 0.13008
 C658 C 0.34905 0.75824 0.12729
 C659 C 0.34755 0.77771 0.14161
 C660 C 0.33040 0.77892 0.15875
 C661 C 0.31447 0.76061 0.16188
 C662 C 0.31606 0.74117 0.14722
 C663 C 0.36725 0.75669 0.11021
 C664 C 0.38280 0.75530 0.09624
 C665 C 0.40141 0.75354 0.08036
 C666 C 0.41769 0.75187 0.06727
 H667 H 0.33429 0.72481 0.11915
 H668 H 0.35974 0.79191 0.13963
 H669 H 0.32973 0.79424 0.16950
 H670 H 0.30427 0.72668 0.14906
 C671 C 0.66705 0.26886 0.13046
 C672 C 0.64783 0.25396 0.13077
 C673 C 0.64584 0.23728 0.14818
 C674 C 0.66295 0.23546 0.16522
 C675 C 0.68240 0.25034 0.16513
 C676 C 0.68423 0.26708 0.14750
 C677 C 0.63002 0.25570 0.11338
 C678 C 0.61472 0.25669 0.09917
 C679 C 0.59635 0.25726 0.08300
 C680 C 0.58023 0.25721 0.06967
 H681 H 0.66878 0.28185 0.11705
 H682 H 0.63099 0.22569 0.14863
 H683 H 0.66075 0.22248 0.17851
 H684 H 0.69893 0.27876 0.14671
 C685 C -0.13349 0.66728 0.73241
 C686 C -0.13395 0.64901 0.74822
 C687 C -0.15101 0.64851 0.76547
 C688 C -0.16759 0.66619 0.76695
 C689 C -0.16743 0.68481 0.75112
 C690 C -0.15004 0.68502 0.73380
 C691 C -0.11702 0.63066 0.74678
 C692 C -0.10309 0.61505 0.74588
 C693 C -0.08713 0.59646 0.74526
 C694 C -0.07387 0.58026 0.74517
 H695 H -0.12034 0.66783 0.71896
 H696 H -0.15153 0.63441 0.77782
 H697 H -0.18043 0.66503 0.78057
 H698 H -0.14900 0.69879 0.72119
 C699 C -0.14474 0.35235 0.23230
 C700 C -0.13028 0.35353 0.25170
 C701 C -0.13300 0.33749 0.26960
 C702 C -0.15013 0.32031 0.26813
 C703 C -0.16480 0.31896 0.24869
 C704 C -0.16187 0.33521 0.23078
 C705 C -0.11285 0.37139 0.25321
 C706 C -0.09852 0.38662 0.25411
 C707 C -0.08214 0.40484 0.25467
 C708 C -0.06858 0.42078 0.25466
 H709 H -0.14278 0.36469 0.21833
 H710 H -0.12195 0.33830 0.28474
 H711 H -0.15193 0.30828 0.28234
 H712 H -0.17264 0.33468 0.21548
 C713 C 0.14479 0.35325 0.76697
 C714 C 0.12966 0.35377 0.74807
 C715 C 0.13167 0.33705 0.73069
 C716 C 0.14878 0.31985 0.73219
 C717 C 0.16415 0.31916 0.75113
 C718 C 0.16191 0.33609 0.76852
 C719 C 0.11225 0.37165 0.74651
 C720 C 0.09794 0.38690 0.74557
 C721 C 0.08159 0.40514 0.74496
 C722 C 0.06804 0.42110 0.74493
 H723 H 0.14339 0.36613 0.78053
 H724 H 0.12008 0.33734 0.71594
 H725 H 0.15000 0.30729 0.71838
 H726 H 0.17323 0.33612 0.78343
 C727 C 0.13203 0.66763 0.26603
 C728 C 0.13325 0.64871 0.25098
 C729 C 0.15100 0.64764 0.23442
 C730 C 0.16747 0.66541 0.23287
 C731 C 0.16643 0.68459 0.24789
 C732 C 0.14847 0.68545 0.26452
 C733 C 0.11638 0.63033 0.25246
 C734 C 0.10247 0.61471 0.25340
 C735 C 0.08653 0.59611 0.25406
 C736 C 0.07328 0.57991 0.25418
 H737 H 0.11834 0.66864 0.27891
 H738 H 0.15213 0.63304 0.22270
 H739 H 0.18101 0.66396 0.21994
 H740 H 0.14695 0.69989 0.27633
 C741 C 0.77697 -0.13692 0.65315
 C742 C 0.75746 -0.12255 0.65113
 C743 C 0.73878 -0.12510 0.66649
 C744 C 0.73951 -0.14212 0.68367
 C745 C 0.75893 -0.15690 0.68567
 C746 C 0.77774 -0.15396 0.67028
 C747 C 0.75628 -0.10582 0.63274
 C748 C 0.75524 -0.09227 0.61695
 C749 C 0.75390 -0.07697 0.59799
 C750 C 0.75258 -0.06445 0.58138
 H751 H 0.79152 -0.13512 0.64132
 H752 H 0.72353 -0.11413 0.66501
 H753 H 0.72464 -0.14391 0.69505
 H754 H 0.79308 -0.16478 0.67138
 C755 C 0.26250 -0.12577 0.33378
 C756 C 0.24380 -0.12314 0.34910
 C757 C 0.22423 -0.13741 0.34702
 C758 C 0.22342 -0.15442 0.32984
 C759 C 0.24223 -0.15743 0.31448
 C760 C 0.26173 -0.14276 0.31656
 C761 C 0.24499 -0.10642 0.36750
 C762 C 0.24600 -0.09286 0.38331
 C763 C 0.24727 -0.07756 0.40228
 C764 C 0.24849 -0.06503 0.41890
 H765 H 0.27780 -0.11488 0.33532
 H766 H 0.20966 -0.13555 0.35881
 H767 H 0.20802 -0.16516 0.32869
 H768 H 0.27661 -0.14462 0.30521
 C769 C 0.73683 0.12855 0.33034
 C770 C 0.75590 0.12488 0.34492
 C771 C 0.77581 0.13866 0.34265
 C772 C 0.77659 0.15623 0.32605
 C773 C 0.75740 0.16031 0.31148
 C774 C 0.73757 0.14610 0.31370
 C775 C 0.75473 0.10767 0.36287
 C776 C 0.75373 0.09374 0.37834
 C777 C 0.75248 0.07805 0.39699
 C778 C 0.75128 0.06524 0.41338
 H779 H 0.72128 0.11804 0.33204
 H780 H 0.79066 0.13599 0.35387
 H781 H 0.79225 0.16657 0.32474
 H782 H 0.72242 0.14876 0.30295
 C783 C 0.22393 0.13878 0.65722
 C784 C 0.24392 0.12510 0.65489
 C785 C 0.26302 0.12890 0.66939
 C786 C 0.26224 0.14648 0.68602
 C787 C 0.24233 0.16057 0.68830
 C788 C 0.22311 0.15637 0.67380
 C789 C 0.24512 0.10783 0.63698
 C790 C 0.24616 0.09384 0.62155
 C791 C 0.24747 0.07805 0.60298
 C792 C 0.24875 0.06515 0.58664
 H793 H 0.20906 0.13601 0.64605
 H794 H 0.27863 0.11847 0.66765
 H795 H 0.27742 0.14924 0.69671
 H796 H 0.20740 0.16663 0.67516
   
