data_POSCAR
  _audit_creation_date              2014-09-24
  _audit_creation_method            'ToBaCCo'
  _symmetry_space_group_name_H-M    'P1'
  _symmetry_Int_Tables_number       1
  _symmetry_cell_setting            triclinic
  loop_
  _symmetry_equiv_pos_as_xyz
 x,y,z
_cell_length_a 11.5780
_cell_length_b 11.6575
_cell_length_c 11.6412
_cell_angle_alpha 90.000000
_cell_angle_beta 90.000000
_cell_angle_gamma 90.000000
loop_
  _atom_site_label
  _atom_site_type_symbol
  _atom_site_fract_x
  _atom_site_fract_y
  _atom_site_fract_z
N1 N 0.38602 0.38660 1.38323
 N2 N 1.11401 0.61853 0.88552
 N3 N 0.61401 -0.11853 0.11448
 N4 N -0.11398 1.11340 -0.38323
 N5 N 0.61401 0.61853 0.61448
 N6 N 0.88602 0.38660 0.11677
 N7 N 0.38602 0.11340 0.88323
 N8 N 0.11401 0.88147 0.38552
 Zn9 Zn 0.03894 1.13304 -0.07196
 Zn10 Zn -0.09247 0.91014 -0.09051
 Zn11 Zn 0.13185 0.92755 0.04002
 Zn12 Zn -0.07542 1.03980 0.13411
 O13 O -0.00032 1.00176 0.00204
 O14 O -0.01766 1.13603 -0.21047
 O15 O -0.02514 0.76883 -0.11654
 O16 O 0.26218 0.99253 -0.01393
 O17 O -0.11930 0.97686 -0.23150
 O18 O 0.18994 1.14809 -0.09519
 O19 O 0.13593 0.79040 -0.01743
 O20 O -0.01076 0.98301 0.26324
 O21 O -0.23350 0.88491 -0.02321
 O22 O 0.14514 0.90187 0.18957
 O23 O -0.21531 0.98415 0.13745
 O24 O -0.09677 1.19026 0.14960
 O25 O -0.01526 1.26191 -0.00655
 C26 C -0.08189 1.07232 -0.27070
 C27 C 0.07154 0.72988 -0.08019
 C28 C 0.27483 1.08337 -0.07238
 C29 C 0.08036 0.92378 0.27461
 C30 C -0.27426 0.91969 0.07284
 C31 C -0.07269 1.27480 0.08518
 Zn32 Zn 0.42458 0.03980 0.36588
 Zn33 Zn 0.40753 -0.08986 0.59051
 Zn34 Zn 0.63185 -0.07245 0.45998
 Zn35 Zn 0.53894 0.13304 0.57196
 O36 O 0.49968 0.00176 0.49795
 O37 O 0.28469 -0.01585 0.36255
 O38 O 0.47486 -0.23117 0.61653
 O39 O 0.64514 -0.09813 0.31042
 O40 O 0.26650 -0.11509 0.52321
 O41 O 0.48924 -0.01699 0.23676
 O42 O 0.63594 -0.20960 0.51743
 O43 O 0.68994 0.14809 0.59519
 O44 O 0.38070 -0.02314 0.73150
 O45 O 0.76218 -0.00747 0.51393
 O46 O 0.48234 0.13603 0.71047
 O47 O 0.48474 0.26191 0.50655
 O48 O 0.40323 0.19026 0.35040
 C49 C 0.22574 -0.08031 0.42716
 C50 C 0.57154 -0.27012 0.58019
 C51 C 0.58036 -0.07622 0.22539
 C52 C 0.77483 0.08337 0.57238
 C53 C 0.41811 0.07232 0.77070
 C54 C 0.42731 0.27480 0.41482
 Zn55 Zn 1.03894 0.36697 0.42804
 Zn56 Zn 1.13186 0.57245 0.54002
 Zn57 Zn 0.90753 0.58986 0.40949
 Zn58 Zn 0.92458 0.46020 0.63411
 O59 O 0.99968 0.49824 0.50204
 O60 O 1.18994 0.35191 0.40481
 O61 O 1.13594 0.70960 0.48257
 O62 O 0.88070 0.52314 0.26850
 O63 O 1.26218 0.50747 0.48607
 O64 O 0.98234 0.36397 0.28953
 O65 O 0.97486 0.73117 0.38346
 O66 O 0.78469 0.51585 0.63745
 O67 O 1.14514 0.59813 0.68957
 O68 O 0.76650 0.61509 0.47679
 O69 O 0.98924 0.51699 0.76324
 O70 O 0.90323 0.30974 0.64960
 O71 O 0.98474 0.23809 0.49345
 C72 C 1.27483 0.41663 0.42762
 C73 C 1.07154 0.77012 0.41981
 C74 C 0.91811 0.42768 0.22930
 C75 C 0.72574 0.58031 0.57284
 C76 C 1.08036 0.57622 0.77461
 C77 C 0.92731 0.22520 0.58518
 Zn78 Zn 0.42458 0.46020 0.86588
 Zn79 Zn 0.40753 0.58986 1.09051
 Zn80 Zn 0.53894 0.36697 1.07196
 Zn81 Zn 0.63185 0.57245 0.95998
 O82 O 0.49968 0.49824 0.99795
 O83 O 0.28469 0.51585 0.86255
 O84 O 0.38070 0.52314 1.23150
 O85 O 0.48474 0.23809 1.00655
 O86 O 0.26650 0.61509 1.02321
 O87 O 0.40323 0.30974 0.85040
 O88 O 0.48234 0.36397 1.21047
 O89 O 0.76218 0.50747 1.01392
 O90 O 0.47486 0.73117 1.11653
 O91 O 0.68994 0.35191 1.09519
 O92 O 0.63593 0.70960 1.01743
 O93 O 0.64514 0.59813 0.81042
 O94 O 0.48924 0.51700 0.73676
 C95 C 0.22574 0.58031 0.92716
 C96 C 0.41811 0.42768 1.27070
 C97 C 0.42731 0.22520 0.91482
 C98 C 0.77483 0.41663 1.07238
 C99 C 0.57154 0.77012 1.08019
 C100 C 0.58036 0.57622 0.72539
   
