data_POSCAR
  _audit_creation_date              2014-09-24
  _audit_creation_method            'ToBaCCo'
  _symmetry_space_group_name_H-M    'P1'
  _symmetry_Int_Tables_number       1
  _symmetry_cell_setting            triclinic
  loop_
  _symmetry_equiv_pos_as_xyz
 x,y,z
_cell_length_a 31.4970
_cell_length_b 26.2196
_cell_length_c 14.0962
_cell_angle_alpha 89.741000
_cell_angle_beta 89.631800
_cell_angle_gamma 89.927200
loop_
  _atom_site_label
  _atom_site_type_symbol
  _atom_site_fract_x
  _atom_site_fract_y
  _atom_site_fract_z
C1 C 1.28703 0.19514 0.27677
 C2 C 1.24990 0.22163 0.25127
 C3 C 1.21320 0.19343 0.22991
 C4 C 1.21309 0.14004 0.23472
 C5 C 1.25107 0.11397 0.25773
 C6 C 1.28841 0.14182 0.27792
 C7 C 1.24976 0.27857 0.24663
 C8 C 1.28710 0.30524 0.22275
 C9 C 1.28831 0.35857 0.22215
 C10 C 1.25050 0.38624 0.24122
 C11 C 1.21227 0.35995 0.26251
 C12 C 1.21264 0.30655 0.26678
 H13 H 1.31520 0.21602 0.29704
 H14 H 1.18454 0.21283 0.20768
 H15 H 1.31562 0.28448 0.20338
 H16 H 1.18381 0.28695 0.28783
 H17 H 1.25151 0.07264 0.25976
 H18 H 1.25078 0.42756 0.23970
 C19 C 0.78602 -0.30633 0.27725
 C20 C 0.74887 -0.27978 0.25229
 C21 C 0.71226 -0.30786 0.23012
 C22 C 0.71220 -0.36123 0.23359
 C23 C 0.75026 -0.38744 0.25586
 C24 C 0.78757 -0.35961 0.27683
 C25 C 0.74868 -0.22289 0.24868
 C26 C 0.78604 -0.19611 0.22576
 C27 C 0.78717 -0.14289 0.22607
 C28 C 0.74942 -0.11528 0.24471
 C29 C 0.71119 -0.14163 0.26488
 C30 C 0.71148 -0.19502 0.26861
 H31 H 0.81412 -0.28551 0.29824
 H32 H 0.68360 -0.28834 0.20822
 H33 H 0.81469 -0.21657 0.20645
 H34 H 0.68258 -0.21465 0.28900
 H35 H 0.75077 -0.42877 0.25673
 H36 H 0.74980 -0.07397 0.24371
 C37 C 0.78606 0.19577 -0.22365
 C38 C 0.74906 0.22234 -0.24961
 C39 C 0.71240 0.19426 -0.27154
 C40 C 0.71223 0.14088 -0.26685
 C41 C 0.75010 0.11473 -0.24348
 C42 C 0.78735 0.14252 -0.22274
 C43 C 0.74909 0.27923 -0.25429
 C44 C 0.78658 0.30573 -0.27748
 C45 C 0.78792 0.35902 -0.27799
 C46 C 0.75015 0.38686 -0.25970
 C47 C 0.71180 0.36071 -0.23921
 C48 C 0.71198 0.30734 -0.23486
 H49 H 0.81425 0.21641 -0.20293
 H50 H 0.68382 0.21372 -0.29413
 H51 H 0.81511 0.28487 -0.29636
 H52 H 0.68302 0.28787 -0.21429
 H53 H 0.75059 0.07342 -0.24158
 H54 H 0.75055 0.42818 -0.26121
 C55 C 1.28596 -0.30602 -0.22403
 C56 C 1.24883 -0.27948 -0.24895
 C57 C 1.21213 -0.30754 -0.27051
 C58 C 1.21202 -0.36090 -0.26629
 C59 C 1.25004 -0.38710 -0.24410
 C60 C 1.28739 -0.35928 -0.22390
 C61 C 1.24870 -0.22262 -0.25268
 C62 C 1.28610 -0.19585 -0.27539
 C63 C 1.28726 -0.14264 -0.27449
 C64 C 1.24958 -0.11503 -0.25569
 C65 C 1.21137 -0.14137 -0.23589
 C66 C 1.21156 -0.19474 -0.23257
 H67 H 1.31413 -0.28523 -0.20343
 H68 H 1.18345 -0.28807 -0.29238
 H69 H 1.31474 -0.21628 -0.29485
 H70 H 1.18263 -0.21433 -0.21223
 H71 H 1.25049 -0.42843 -0.24270
 H72 H 1.25001 -0.07371 -0.25624
 C73 C 0.20495 0.29366 0.73037
 C74 C 0.22654 0.25032 0.76150
 C75 C 0.20432 0.20626 0.78650
 C76 C 0.16060 0.20472 0.77772
 C77 C 0.13834 0.24863 0.74778
 C78 C 0.16111 0.29339 0.72499
 C79 C 0.27257 0.25036 0.76419
 C80 C 0.29422 0.29357 0.79479
 C81 C 0.33818 0.29473 0.79122
 C82 C 0.36101 0.25148 0.76083
 C83 C 0.33876 0.20769 0.73240
 C84 C 0.29488 0.20766 0.73257
 H85 H 0.22228 0.32758 0.70895
 H86 H 0.22120 0.17297 0.81265
 H87 H 0.27680 0.32652 0.82060
 H88 H 0.27812 0.17449 0.70645
 H89 H 0.10402 0.24809 0.74247
 H90 H 0.39543 0.25193 0.75875
 C91 C 0.70425 0.79444 0.72249
 C92 C 0.72561 0.75068 0.75239
 C93 C 0.70314 0.70680 0.77737
 C94 C 0.65933 0.70594 0.77049
 C95 C 0.63729 0.75030 0.74212
 C96 C 0.66032 0.79486 0.71895
 C97 C 0.77163 0.75046 0.75625
 C98 C 0.79324 0.79323 0.78907
 C99 C 0.83718 0.79367 0.78924
 C100 C 0.86004 0.75024 0.76012
 C101 C 0.83784 0.70692 0.72918
 C102 C 0.79399 0.70758 0.72565
 H103 H 0.72189 0.82821 0.70129
 H104 H 0.71985 0.67322 0.80276
 H105 H 0.77590 0.82635 0.81421
 H106 H 0.77730 0.67473 0.69796
 H107 H 0.60290 0.75021 0.73853
 H108 H 0.89445 0.75027 0.76100
 C109 C 0.70518 0.29330 0.21739
 C110 C 0.72665 0.24972 0.24754
 C111 C 0.70433 0.20580 0.27264
 C112 C 0.66061 0.20481 0.26581
 C113 C 0.63839 0.24897 0.23760
 C114 C 0.66131 0.29350 0.21429
 C115 C 0.77254 0.24986 0.25261
 C116 C 0.79373 0.29286 0.28560
 C117 C 0.83761 0.29340 0.28764
 C118 C 0.86083 0.24990 0.26063
 C119 C 0.83897 0.20640 0.22966
 C120 C 0.79522 0.20693 0.22378
 H121 H 0.72258 0.32720 0.19614
 H122 H 0.72098 0.17230 0.29848
 H123 H 0.77612 0.32605 0.30946
 H124 H 0.77887 0.17389 0.19586
 H125 H 0.60402 0.24880 0.23449
 H126 H 0.89522 0.25004 0.26303
 C127 C 0.20432 0.79335 0.22487
 C128 C 0.22567 0.74971 0.25534
 C129 C 0.20326 0.70582 0.28030
 C130 C 0.15951 0.70479 0.27272
 C131 C 0.13742 0.74901 0.24374
 C132 C 0.16042 0.79361 0.22065
 C133 C 0.27162 0.74954 0.25922
 C134 C 0.29314 0.79233 0.29203
 C135 C 0.33706 0.79304 0.29123
 C136 C 0.36000 0.74984 0.26129
 C137 C 0.33784 0.70645 0.23051
 C138 C 0.29399 0.70684 0.22793
 H139 H 0.22197 0.82711 0.20368
 H140 H 0.22001 0.67234 0.30604
 H141 H 0.27574 0.82531 0.31759
 H142 H 0.27730 0.67399 0.20025
 H143 H 0.10304 0.74879 0.23963
 H144 H 0.39442 0.75011 0.26132
 O145 O 1.06509 0.08495 0.17486
 O146 O 1.10970 0.03866 0.07914
 C147 C 1.10288 0.07113 0.14586
 O148 O 0.93735 -0.09256 0.16428
 O149 O 0.89231 -0.04000 0.08216
 C150 C 0.89942 -0.07664 0.14084
 O151 O 1.05597 -0.09435 0.17027
 O152 O 1.10480 -0.05065 0.07846
 C153 C 1.09396 -0.08567 0.14042
 O154 O 0.94669 0.09496 0.17180
 O155 O 0.89740 0.05149 0.08319
 C156 C 0.90862 0.08663 0.14338
 Zr157 Zr 1.00319 0.06266 0.12497
 O158 O 1.00038 0.05986 0.27501
 O159 O 1.00651 0.14324 0.12200
 Zr160 Zr 0.99910 -0.06463 0.12115
 O161 O 0.99816 -0.05888 0.27060
 O162 O 0.99899 -0.14524 0.12591
 O163 O 1.03979 -0.00243 0.13965
 O164 O 0.96357 -0.00004 0.14123
 O165 O 0.93676 0.09265 -0.15834
 O166 O 0.89200 0.04184 -0.07082
 C167 C 0.89892 0.07743 -0.13202
 O168 O 1.06326 -0.08564 -0.17260
 O169 O 1.10888 -0.03929 -0.08106
 C170 C 1.10131 -0.07204 -0.14641
 O171 O 0.94451 -0.09458 -0.16062
 O172 O 0.89621 -0.04971 -0.07031
 C173 C 0.90670 -0.08564 -0.12984
 O174 O 1.05527 0.09274 -0.17209
 O175 O 1.10446 0.04951 -0.08169
 C176 C 1.09338 0.08405 -0.14413
 Zr177 Zr 0.99856 0.06582 -0.11523
 O178 O 0.99407 0.07145 -0.26456
 O179 O 0.99859 0.14586 -0.09826
 Zr180 Zr 1.00170 -0.06196 -0.12039
 O181 O 0.99663 -0.05753 -0.26999
 O182 O 1.00497 -0.14256 -0.12250
 Zr183 Zr 1.06426 -0.00014 0.00015
 Zr184 Zr 0.93728 0.00072 0.00455
 O185 O 0.96268 0.00132 -0.13372
 O186 O 1.03845 0.00271 -0.13758
 O187 O 0.96345 0.07447 0.00725
 O188 O 1.03672 -0.07323 -0.00057
 O189 O 1.03765 0.07345 0.00307
 O190 O 0.96321 -0.07316 0.00050
 H191 H 0.94413 0.00035 0.19681
 H192 H 1.05459 -0.10428 -0.00425
 H193 H 0.94298 0.00088 -0.18824
 H194 H 1.05620 0.10390 0.00531
 H195 H 0.99051 -0.15688 0.06211
 H196 H 1.00689 -0.15254 -0.19016
 H197 H 1.02348 -0.04303 -0.29491
 H198 H 1.01184 0.04386 -0.29127
 H199 H 0.99618 0.16050 -0.16293
 H200 H 1.00961 0.15425 0.18879
 H201 H 1.02277 0.03596 0.29629
 H202 H 0.99472 -0.09416 0.29490
 O203 O 1.06382 0.58530 0.67271
 O204 O 1.10859 0.53921 0.57700
 C205 C 1.10165 0.57145 0.64396
 O206 O 0.93622 0.40790 0.66151
 O207 O 0.89126 0.46035 0.57898
 C208 C 0.89827 0.42378 0.63784
 O209 O 1.05497 0.40636 0.66827
 O210 O 1.10384 0.45038 0.57711
 C211 C 1.09302 0.41535 0.63908
 O212 O 0.94543 0.59565 0.66851
 O213 O 0.89631 0.55200 0.57981
 C214 C 0.90738 0.58727 0.63995
 Zr215 Zr 1.00198 0.56322 0.62215
 O216 O 0.99890 0.56062 0.77217
 O217 O 1.00536 0.64380 0.61892
 Zr218 Zr 0.99809 0.43585 0.61861
 O219 O 0.99697 0.44159 0.76806
 O220 O 0.99808 0.35524 0.62339
 O221 O 1.03863 0.49820 0.63714
 O222 O 0.96245 0.50041 0.63840
 O223 O 0.93546 0.59254 0.33845
 O224 O 0.89086 0.54158 0.42602
 C225 C 0.89762 0.57711 0.36466
 O226 O 1.06314 0.41485 0.32548
 O227 O 1.10840 0.46152 0.41724
 C228 C 1.10118 0.42864 0.35188
 O229 O 0.94407 0.40577 0.33650
 O230 O 0.89555 0.45049 0.42658
 C231 C 0.90622 0.41463 0.36714
 O232 O 1.05409 0.59320 0.32497
 O233 O 1.10335 0.55018 0.41555
 C234 C 1.09221 0.58461 0.35293
 Zr235 Zr 0.99749 0.56621 0.38198
 O236 O 0.99315 0.57206 0.23268
 O237 O 0.99731 0.64623 0.39916
 Zr238 Zr 1.00120 0.43837 0.37708
 O239 O 0.99644 0.44257 0.22741
 O240 O 1.00462 0.35778 0.37520
 Zr241 Zr 1.06333 0.50048 0.49779
 Zr242 Zr 0.93635 0.50100 0.50158
 O243 O 0.96195 0.50150 0.36343
 O244 O 1.03766 0.50323 0.35993
 O245 O 0.96230 0.57484 0.50425
 O246 O 1.03600 0.42728 0.49721
 O247 O 1.03656 0.57401 0.50040
 O248 O 0.96247 0.42717 0.49771
 H249 H 0.94293 0.50084 0.69381
 H250 H 1.05402 0.39635 0.49379
 H251 H 0.94234 0.50098 0.30874
 H252 H 1.05511 0.60446 0.50269
 H253 H 0.98968 0.34357 0.55957
 H254 H 1.00669 0.34778 0.30757
 H255 H 1.02330 0.45715 0.20274
 H256 H 1.01021 0.54384 0.20602
 H257 H 0.99471 0.66089 0.33454
 H258 H 1.00847 0.65486 0.68568
 H259 H 1.02104 0.53648 0.79372
 H260 H 0.99348 0.40631 0.79233
 O261 O 0.56444 0.08627 0.67217
 O262 O 0.60901 0.03974 0.57674
 C263 C 0.60220 0.07233 0.64325
 O264 O 0.43708 -0.09148 0.66447
 O265 O 0.39184 -0.03922 0.58221
 C266 C 0.39912 -0.07574 0.64104
 O267 O 0.55563 -0.09294 0.67003
 O268 O 0.60429 -0.04959 0.57721
 C269 C 0.59358 -0.08438 0.63971
 O270 O 0.44617 0.09662 0.66903
 O271 O 0.39674 0.05264 0.58172
 C272 C 0.40802 0.08816 0.64119
 Zr273 Zr 0.50258 0.06391 0.62255
 O274 O 0.49980 0.06195 0.77263
 O275 O 0.50605 0.14446 0.61788
 Zr276 Zr 0.49863 -0.06345 0.62084
 O277 O 0.49781 -0.05697 0.77018
 O278 O 0.49863 -0.14404 0.62699
 O279 O 0.53925 -0.00111 0.63815
 O280 O 0.46304 0.00121 0.64012
 O281 O 0.43572 0.09257 0.33956
 O282 O 0.39109 0.04204 0.42797
 C283 C 0.39790 0.07747 0.36635
 O284 O 0.56263 -0.08584 0.32739
 O285 O 0.60825 -0.03901 0.41801
 C286 C 0.60072 -0.07212 0.35326
 O287 O 0.44379 -0.09464 0.33972
 O288 O 0.39550 -0.04952 0.42969
 C289 C 0.40601 -0.08565 0.37060
 O290 O 0.55419 0.09208 0.32407
 O291 O 0.60357 0.04923 0.41456
 C292 C 0.59236 0.08328 0.35142
 Zr293 Zr 0.49764 0.06590 0.38251
 O294 O 0.49283 0.07127 0.23323
 O295 O 0.49788 0.14600 0.39861
 Zr296 Zr 0.50097 -0.06190 0.37931
 O297 O 0.49586 -0.05819 0.22966
 O298 O 0.50419 -0.14252 0.37848
 Zr299 Zr 0.56358 0.00050 0.49851
 Zr300 Zr 0.43656 0.00133 0.50363
 O301 O 0.46183 0.00127 0.36522
 O302 O 0.53756 0.00272 0.36091
 O303 O 0.46267 0.07511 0.50498
 O304 O 0.53610 -0.07261 0.49908
 O305 O 0.53698 0.07411 0.50029
 O306 O 0.46260 -0.07254 0.50056
 H307 H 0.44364 0.00186 0.69574
 H308 H 0.55396 -0.10368 0.49581
 H309 H 0.44207 0.00062 0.31082
 H310 H 0.55568 0.10445 0.50168
 H311 H 0.49015 -0.15601 0.56341
 H312 H 0.50616 -0.15280 0.31098
 H313 H 0.52275 -0.04392 0.20445
 H314 H 0.50951 0.04269 0.20666
 H315 H 0.49536 0.16042 0.33379
 H316 H 0.50918 0.15587 0.68443
 H317 H 0.52201 0.03792 0.79432
 H318 H 0.49450 -0.09215 0.79508
 O319 O 0.56378 0.58568 0.17075
 O320 O 0.60848 0.53983 0.07457
 C321 C 0.60161 0.57187 0.14189
 O322 O 0.43646 0.40814 0.15973
 O323 O 0.39123 0.46043 0.07757
 C324 C 0.39840 0.42385 0.13637
 O325 O 0.55542 0.40739 0.16553
 O326 O 0.60395 0.45138 0.07334
 C327 C 0.59334 0.41641 0.13548
 O328 O 0.44531 0.59582 0.16705
 O329 O 0.39614 0.55208 0.07862
 C330 C 0.40725 0.58732 0.13881
 Zr331 Zr 0.50185 0.56370 0.12015
 O332 O 0.49895 0.56113 0.27019
 O333 O 0.50504 0.64429 0.11695
 Zr334 Zr 0.49824 0.43634 0.11640
 O335 O 0.49725 0.44184 0.26589
 O336 O 0.49857 0.35573 0.12097
 O337 O 0.53865 0.49882 0.13469
 O338 O 0.46248 0.50074 0.13653
 O339 O 0.43499 0.59299 -0.16302
 O340 O 0.39058 0.54179 -0.07537
 C341 C 0.39725 0.57741 -0.13661
 O342 O 0.56284 0.41569 -0.17719
 O343 O 0.60810 0.46262 -0.08591
 C344 C 0.60086 0.42965 -0.15106
 O345 O 0.44395 0.40589 -0.16538
 O346 O 0.39545 0.45028 -0.07475
 C347 C 0.40613 0.41441 -0.13425
 O348 O 0.55356 0.59434 -0.17691
 O349 O 0.60299 0.55133 -0.08685
 C350 C 0.59175 0.58582 -0.14923
 Zr351 Zr 0.49705 0.56681 -0.12005
 O352 O 0.49252 0.57240 -0.26937
 O353 O 0.49659 0.64685 -0.10304
 Zr354 Zr 0.50096 0.43898 -0.12519
 O355 O 0.49590 0.44342 -0.27478
 O356 O 0.50466 0.35841 -0.12736
 Zr357 Zr 0.56311 0.50134 -0.00487
 Zr358 Zr 0.43616 0.50126 -0.00009
 O359 O 0.46155 0.50198 -0.13842
 O360 O 0.53729 0.50399 -0.14255
 O361 O 0.46197 0.57520 0.00252
 O362 O 0.53597 0.42801 -0.00534
 O363 O 0.53621 0.57475 -0.00180
 O364 O 0.46247 0.42756 -0.00424
 H365 H 0.44304 0.50105 0.19211
 H366 H 0.55402 0.39711 -0.00897
 H367 H 0.44184 0.50134 -0.19290
 H368 H 0.55472 0.60524 0.00064
 H369 H 0.48992 0.34406 0.05732
 H370 H 0.50669 0.34847 -0.19502
 H371 H 0.52275 0.45793 -0.29966
 H372 H 0.51035 0.54486 -0.29606
 H373 H 0.49392 0.66146 -0.16767
 H374 H 0.50835 0.65532 0.18366
 H375 H 0.52092 0.53671 0.29157
 H376 H 0.49405 0.40649 0.28997
 C377 C 1.17383 0.11363 0.21094
 C378 C 1.14066 0.09428 0.18576
 C379 C 1.17269 0.61302 0.70992
 C380 C 1.13941 0.59413 0.68451
 C381 C 0.67305 0.11459 0.70883
 C382 C 0.63993 0.09535 0.68329
 C383 C 0.67283 0.61281 0.20896
 C384 C 0.63948 0.59421 0.18297
 C385 C 0.82751 -0.11850 0.20327
 C386 C 0.86146 -0.10042 0.17928
 C387 C 0.82611 0.38204 0.70004
 C388 C 0.86016 0.40007 0.67619
 C389 C 0.32752 -0.11812 0.70317
 C390 C 0.36135 -0.09977 0.67941
 C391 C 0.32640 0.38176 0.19948
 C392 C 0.36037 0.39996 0.17511
 C393 C 0.82732 0.11831 -0.19709
 C394 C 0.86101 0.10051 -0.17134
 C395 C 0.82553 0.61746 0.30035
 C396 C 0.85946 0.59986 0.32544
 C397 C 0.32618 0.11871 0.30207
 C398 C 0.35989 0.10065 0.32739
 C399 C 0.32525 0.61777 -0.20048
 C400 C 0.35912 0.60013 -0.17553
 C401 C 1.17188 -0.11523 -0.21278
 C402 C 1.13867 -0.09578 -0.18752
 C403 C 1.17249 0.38601 0.28575
 C404 C 1.13898 0.40515 0.31095
 C405 C 0.67153 -0.11550 0.28767
 C406 C 0.63820 -0.09605 0.31256
 C407 C 0.67207 0.38691 -0.21665
 C408 C 0.63859 0.40614 -0.19183
 C409 C 1.14066 0.16056 -0.19863
 C410 C 1.12231 0.12239 -0.17491
 C411 C 1.13943 0.66087 0.29716
 C412 C 1.12109 0.62284 0.32158
 C413 C 0.63973 0.15851 0.29263
 C414 C 0.62136 0.12083 0.31839
 C415 C 0.63912 0.66208 -0.20499
 C416 C 0.62063 0.62411 -0.18061
 C417 C 0.85798 -0.16065 -0.18153
 C418 C 0.87703 -0.12342 -0.15727
 C419 C 0.85799 0.33930 0.31635
 C420 C 0.87678 0.37673 0.34008
 C421 C 0.35765 -0.16110 0.31998
 C422 C 0.37648 -0.12364 0.34380
 C423 C 0.35799 0.33833 -0.18335
 C424 C 0.37681 0.37603 -0.16061
 C425 C 1.14107 -0.16246 0.19358
 C426 C 1.12295 -0.12428 0.16921
 C427 C 1.14065 0.33952 0.69487
 C428 C 1.12227 0.37727 0.66920
 C429 C 0.64090 -0.16113 0.69240
 C430 C 0.62266 -0.12297 0.66837
 C431 C 0.64094 0.34005 0.18715
 C432 C 0.62258 0.37813 0.16373
 C433 C 0.86042 0.16113 0.20057
 C434 C 0.87941 0.12416 0.17448
 C435 C 0.85907 0.66169 0.69829
 C436 C 0.87804 0.62479 0.67130
 C437 C 0.35992 0.16261 0.70039
 C438 C 0.37879 0.12574 0.67285
 C439 C 0.35904 0.66143 0.19861
 C440 C 0.37792 0.62465 0.17084
   
