data_POSCAR
  _audit_creation_date              2014-09-24
  _audit_creation_method            'ToBaCCo'
  _symmetry_space_group_name_H-M    'P1'
  _symmetry_Int_Tables_number       1
  _symmetry_cell_setting            triclinic
  loop_
  _symmetry_equiv_pos_as_xyz
 x,y,z
_cell_length_a 37.1399
_cell_length_b 37.1350
_cell_length_c 21.1424
_cell_angle_alpha 89.919100
_cell_angle_beta 90.080400
_cell_angle_gamma 120.108900
loop_
  _atom_site_label
  _atom_site_type_symbol
  _atom_site_fract_x
  _atom_site_fract_y
  _atom_site_fract_z
C1 C 0.44482 0.88824 0.49941
 C2 C 0.45212 0.90979 0.55635
 C3 C 0.47284 0.95341 0.55643
 C4 C 0.48895 0.97642 0.49978
 C5 C 0.48216 0.95367 0.44299
 C6 C 0.45925 0.91009 0.44273
 C7 C 0.51248 1.02346 0.49994
 C8 C 0.51939 1.04645 0.44327
 C9 C 0.54232 1.09007 0.44334
 C10 C 0.55659 1.11164 0.50030
 C11 C 0.54915 1.08980 0.55700
 C12 C 0.52846 1.04623 0.55676
 H13 H 0.42791 0.85445 0.49907
 H14 H 0.47584 0.96870 0.60112
 H15 H 0.49449 0.96904 0.39834
 H16 H 0.50709 1.03114 0.39855
 H17 H 0.57350 1.14543 0.50063
 H18 H 0.52540 1.03087 0.60144
 C19 C 0.11176 0.55647 0.49945
 C20 C 0.09020 0.54217 0.55641
 C21 C 0.04659 0.51924 0.55649
 C22 C 0.02359 0.51234 0.49983
 C23 C 0.04636 0.52834 0.44301
 C24 C 0.08992 0.54904 0.44276
 C25 C -0.02344 0.48880 0.49999
 C26 C -0.04644 0.47265 0.44336
 C27 C -0.09006 0.45192 0.44343
 C28 C -0.11160 0.44465 0.50037
 C29 C -0.08975 0.45911 0.55705
 C30 C -0.04619 0.48203 0.55679
 H31 H 0.14555 0.57338 0.49911
 H32 H 0.03128 0.50691 0.60120
 H33 H 0.03099 0.52529 0.39834
 H34 H -0.03115 0.47563 0.39867
 H35 H -0.14539 0.42774 0.50071
 H36 H -0.03081 0.49438 0.60143
 C37 C 0.44316 0.55549 0.50036
 C38 C 0.45740 0.54817 0.55737
 C39 C 0.48030 0.52752 0.55755
 C40 C 0.48724 0.51153 0.50093
 C41 C 0.47130 0.51835 0.44405
 C42 C 0.45061 0.54116 0.44371
 C43 C 0.51077 0.48811 0.50116
 C44 C 0.52681 0.48125 0.44453
 C45 C 0.54753 0.45847 0.44468
 C46 C 0.55487 0.44420 0.50157
 C47 C 0.54051 0.45153 0.55826
 C48 C 0.51763 0.47216 0.55801
 H49 H 0.42627 0.57233 0.49995
 H50 H 0.49256 0.52449 0.60230
 H51 H 0.47440 0.50613 0.39941
 H52 H 0.52380 0.49344 0.39972
 H53 H 0.57177 0.42738 0.50172
 H54 H 0.50537 0.47517 0.60268
 O55 O 0.39411 0.66844 -0.07432
 O56 O 0.39625 0.73878 -0.05601
 C57 C 0.37009 0.74430 -0.08705
 O58 O 0.33163 0.72591 -0.07466
 O59 O 0.26124 0.65757 -0.05610
 C60 C 0.25565 0.62583 -0.08698
 O61 O 0.27397 0.60575 -0.07443
 O62 O 0.34223 0.60377 -0.05570
 C63 C 0.37397 0.62997 -0.08667
 O64 O 0.39583 0.65719 0.05186
 O65 O 0.39442 0.72575 0.07017
 C66 C 0.37458 0.74431 0.08252
 O67 O 0.34294 0.73897 0.05147
 O68 O 0.27432 0.66885 0.07004
 C69 C 0.25570 0.63039 0.08256
 O70 O 0.26096 0.60405 0.05168
 O71 O 0.33100 0.60563 0.07041
 C72 C 0.36947 0.62554 0.08289
 Cr73 Cr 0.39284 0.69639 -0.00208
 Cr74 Cr 0.30368 0.69666 -0.00231
 Cr75 Cr 0.30321 0.60711 -0.00202
 O76 O 0.33324 0.66672 -0.00213
 O77 O 0.60583 0.33101 -0.07050
 O78 O 0.60422 0.26092 -0.05192
 C79 C 0.63053 0.25564 -0.08284
 O80 O 0.66899 0.27424 -0.07034
 O81 O 0.73912 0.34284 -0.05174
 C82 C 0.74447 0.37449 -0.08275
 O83 O 0.72593 0.39435 -0.07035
 O84 O 0.65741 0.39582 -0.05187
 C85 C 0.62572 0.36950 -0.08284
 O86 O 0.60403 0.34218 0.05560
 O87 O 0.60596 0.27387 0.07422
 C88 C 0.62601 0.25552 0.08671
 O89 O 0.65773 0.26110 0.05579
 O90 O 0.72609 0.33146 0.07440
 C91 C 0.74450 0.36992 0.08681
 O92 O 0.73901 0.39612 0.05580
 O93 O 0.66871 0.39402 0.07425
 C94 C 0.63023 0.37393 0.08656
 Cr95 Cr 0.60732 0.30315 0.00186
 Cr96 Cr 0.69682 0.30356 0.00202
 Cr97 Cr 0.69661 0.39276 0.00196
 O98 O 0.66692 0.33316 0.00195
 C99 C 0.43998 0.88812 -0.38822
 C100 C 0.42977 0.86819 -0.33989
 C101 C 0.41812 0.84388 -0.28425
 C102 C 0.40808 0.82231 -0.23761
 C103 C 0.39585 0.79609 -0.18403
 C104 C 0.38467 0.77289 -0.13920
 C105 C 0.11186 0.55171 -0.38816
 C106 C 0.13179 0.56145 -0.33982
 C107 C 0.15609 0.57413 -0.28418
 C108 C 0.17765 0.58568 -0.23754
 C109 C 0.20387 0.59971 -0.18395
 C110 C 0.22706 0.61177 -0.13912
 C111 C 0.44786 0.56024 -0.38726
 C112 C 0.43814 0.57040 -0.33898
 C113 C 0.42549 0.58201 -0.28343
 C114 C 0.41397 0.59203 -0.23688
 C115 C 0.39998 0.60423 -0.18340
 C116 C 0.38798 0.61541 -0.13868
 C117 C 0.56179 0.11242 -0.38426
 C118 C 0.57180 0.13222 -0.33585
 C119 C 0.58322 0.15639 -0.28014
 C120 C 0.59308 0.17785 -0.23345
 C121 C 0.60510 0.20397 -0.17982
 C122 C 0.61612 0.22710 -0.13498
 C123 C 0.88764 0.44914 -0.38422
 C124 C 0.86785 0.43936 -0.33580
 C125 C 0.84370 0.42661 -0.28008
 C126 C 0.82224 0.41499 -0.23337
 C127 C 0.79614 0.40085 -0.17973
 C128 C 0.77301 0.38870 -0.13488
 C129 C 0.55053 0.43884 -0.38305
 C130 C 0.56040 0.42874 -0.33477
 C131 C 0.57326 0.41719 -0.27927
 C132 C 0.58499 0.40721 -0.23279
 C133 C 0.59923 0.39506 -0.17944
 C134 C 0.61146 0.38395 -0.13480
 C135 C 0.88828 0.43976 0.38801
 C136 C 0.86836 0.42954 0.33967
 C137 C 0.84406 0.41788 0.28403
 C138 C 0.82249 0.40784 0.23738
 C139 C 0.79629 0.39564 0.18379
 C140 C 0.77309 0.38447 0.13896
 C141 C 0.55187 0.11172 0.38791
 C142 C 0.56162 0.13165 0.33955
 C143 C 0.57430 0.15594 0.28391
 C144 C 0.58586 0.17750 0.23725
 C145 C 0.59990 0.20372 0.18366
 C146 C 0.61195 0.22692 0.13884
 C147 C 0.56033 0.44846 0.38619
 C148 C 0.57052 0.43864 0.33804
 C149 C 0.58217 0.42586 0.28268
 C150 C 0.59223 0.41422 0.23630
 C151 C 0.60447 0.40011 0.18303
 C152 C 0.61567 0.38801 0.13845
 C153 C 0.11253 0.56169 0.38401
 C154 C 0.13232 0.57171 0.33559
 C155 C 0.15647 0.58314 0.27987
 C156 C 0.17792 0.59299 0.23317
 C157 C 0.20403 0.60500 0.17954
 C158 C 0.22715 0.61600 0.13469
 C159 C 0.44925 0.88749 0.38399
 C160 C 0.43945 0.86770 0.33557
 C161 C 0.42669 0.84355 0.27984
 C162 C 0.41506 0.82210 0.23313
 C163 C 0.40093 0.79599 0.17949
 C164 C 0.38877 0.77286 0.13464
 C165 C 0.43800 0.55116 0.38491
 C166 C 0.42801 0.56094 0.33643
 C167 C 0.41662 0.57366 0.28063
 C168 C 0.40679 0.58524 0.23384
 C169 C 0.39481 0.59932 0.18009
 C170 C 0.38382 0.61141 0.13514
   
