data_POSCAR
  _audit_creation_date              2014-09-24
  _audit_creation_method            'ToBaCCo'
  _symmetry_space_group_name_H-M    'P1'
  _symmetry_Int_Tables_number       1
  _symmetry_cell_setting            triclinic
  loop_
  _symmetry_equiv_pos_as_xyz
 x,y,z
_cell_length_a 57.3323
_cell_length_b 58.2319
_cell_length_c 55.4515
_cell_angle_alpha 89.205300
_cell_angle_beta 90.502200
_cell_angle_gamma 89.152700
loop_
  _atom_site_label
  _atom_site_type_symbol
  _atom_site_fract_x
  _atom_site_fract_y
  _atom_site_fract_z
N1 N 0.59146 0.65806 0.60901
 N2 N 0.58380 0.64963 0.62952
 C3 C 0.56484 0.66184 0.63623
 C4 C 0.56034 0.67875 0.61891
 C5 C 0.57759 0.67576 0.60189
 H6 H 0.55511 0.65876 0.65254
 H7 H 0.58038 0.68621 0.58594
 Cu8 Cu 0.59978 0.62386 0.64559
 Cu9 Cu 0.61989 0.64683 0.59396
 Cu10 Cu 0.65020 0.60287 0.62382
 N11 N 0.61616 0.59810 0.66125
 N12 N 0.63627 0.59060 0.65309
 C13 C 0.64393 0.57292 0.66702
 C14 C 0.62763 0.56878 0.68490
 C15 C 0.61021 0.58524 0.68057
 H16 H 0.65983 0.56336 0.66369
 H17 H 0.59436 0.58775 0.69064
 N18 N 0.66123 0.61734 0.59376
 N19 N 0.64914 0.63332 0.58181
 C20 C 0.66057 0.63881 0.56146
 C21 C 0.68091 0.62581 0.56066
 C22 C 0.68079 0.61242 0.58145
 H23 H 0.65477 0.65162 0.54835
 H24 H 0.69377 0.59970 0.58690
 H25 H 0.61911 0.61378 0.60812
 H26 H 0.63556 0.63549 0.62568
 N27 N 0.90514 0.34059 0.11800
 N28 N 0.91831 0.35260 0.13248
 C29 C 0.93847 0.34110 0.13671
 C30 C 0.93790 0.32045 0.12445
 C31 C 0.91626 0.32075 0.11288
 H32 H 0.95220 0.34719 0.14834
 H33 H 0.90917 0.30789 0.10114
 Cu34 Cu 0.90731 0.38157 0.14535
 Cu35 Cu 0.87470 0.35192 0.10675
 Cu36 Cu 0.86487 0.41020 0.11567
 N37 N 0.89224 0.40836 0.15917
 N38 N 0.87623 0.42017 0.14702
 C39 C 0.86975 0.43859 0.15989
 C40 C 0.88210 0.43803 0.18148
 C41 C 0.89620 0.41857 0.18040
 H42 H 0.85670 0.45116 0.15414
 H43 H 0.90873 0.41255 0.19383
 N44 N 0.84748 0.39235 0.09183
 N45 N 0.85055 0.37005 0.08908
 C46 C 0.83564 0.36280 0.07201
 C47 C 0.82245 0.38146 0.06362
 C48 C 0.83051 0.39990 0.07669
 H49 H 0.83482 0.34530 0.06588
 H50 H 0.82429 0.41750 0.07563
 H51 H 0.88837 0.38383 0.10573
 H52 H 0.86730 0.37854 0.13058
 N53 N 0.40096 0.16754 -0.11687
 N54 N 0.41462 0.15444 -0.12995
 C55 C 0.43368 0.16633 -0.13616
 C56 C 0.43178 0.18811 -0.12656
 C57 C 0.41076 0.18824 -0.11447
 H58 H 0.44775 0.15969 -0.14702
 H59 H 0.40342 0.20217 -0.10415
 Cu60 Cu 0.40632 0.12316 -0.13786
 Cu61 Cu 0.37224 0.15636 -0.10276
 Cu62 Cu 0.35346 0.10362 -0.12206
 N63 N 0.39312 0.09595 -0.15233
 N64 N 0.37241 0.08857 -0.14625
 C65 C 0.36731 0.07002 -0.15933
 C66 C 0.38581 0.06542 -0.17451
 C67 C 0.40194 0.08225 -0.16950
 H68 H 0.35128 0.06057 -0.15786
 H69 H 0.41860 0.08472 -0.17808
 N70 N 0.33679 0.12159 -0.09768
 N71 N 0.34375 0.14189 -0.09052
 C72 C 0.32899 0.14966 -0.07360
 C73 C 0.31195 0.13340 -0.06985
 C74 C 0.31749 0.11585 -0.08548
 H75 H 0.33088 0.16568 -0.06422
 H76 H 0.30820 0.10002 -0.08779
 H77 H 0.37934 0.12151 -0.10416
 H78 H 0.36622 0.13549 -0.13189
 N79 N 0.09722 0.83452 0.38423
 N80 N 0.08568 0.84656 0.36773
 C81 C 0.06610 0.83542 0.36178
 C82 C 0.06534 0.81507 0.37510
 C83 C 0.08558 0.81512 0.38908
 H84 H 0.05352 0.84162 0.34853
 H85 H 0.09108 0.80250 0.40250
 Cu86 Cu 0.09754 0.87550 0.35544
 Cu87 Cu 0.12530 0.84592 0.39978
 Cu88 Cu 0.14509 0.89900 0.38018
 N89 N 0.10972 0.90442 0.34346
 N90 N 0.12781 0.91395 0.35377
 C91 C 0.13257 0.93373 0.34208
 C92 C 0.11678 0.93658 0.32323
 C93 C 0.10255 0.91765 0.32463
 H94 H 0.14699 0.94476 0.34636
 H95 H 0.08811 0.91382 0.31275
 N96 N 0.16027 0.88103 0.40647
 N97 N 0.15318 0.86054 0.41341
 C98 C 0.16730 0.85258 0.43128
 C99 C 0.18408 0.86885 0.43588
 C100 C 0.17905 0.88665 0.41977
 H101 H 0.16523 0.83635 0.44064
 H102 H 0.18851 0.90247 0.41775
 H103 H 0.11764 0.88031 0.39391
 H104 H 0.13639 0.86592 0.37109
 C105 C 0.10537 0.13939 0.10902
 C106 C 0.12510 0.12921 0.09855
 C107 C 0.13382 0.10851 0.10756
 C108 C 0.12313 0.09783 0.12731
 C109 C 0.10381 0.10796 0.13776
 C110 C 0.09471 0.12873 0.12838
 C111 C 0.09279 0.15919 0.10378
 N112 N 0.07463 0.16056 0.11929
 C113 C 0.07568 0.14203 0.13441
 C114 C 0.09752 0.09421 0.15693
 N115 N 0.11248 0.07593 0.15824
 C116 C 0.12813 0.07792 0.14011
 C117 C 0.15280 0.10259 0.09386
 N118 N 0.15586 0.11917 0.07674
 C119 C 0.13897 0.13555 0.07951
 H120 H 0.09623 0.17140 0.08940
 H121 H 0.06347 0.13851 0.14873
 H122 H 0.08316 0.09729 0.16908
 H123 H 0.14244 0.06605 0.13689
 H124 H 0.16374 0.08743 0.09640
 H125 H 0.13671 0.15079 0.06830
 C126 C 0.38569 0.85507 0.62385
 C127 C 0.36626 0.86587 0.61285
 C128 C 0.35698 0.88572 0.62250
 C129 C 0.36690 0.89497 0.64333
 C130 C 0.38610 0.88437 0.65421
 C131 C 0.39553 0.86419 0.64442
 C132 C 0.39833 0.83562 0.61838
 N133 N 0.41559 0.83261 0.63514
 C134 C 0.41396 0.85001 0.65117
 C135 C 0.39190 0.89717 0.67404
 N136 N 0.37659 0.91515 0.67549
 C137 C 0.36127 0.91390 0.65673
 C138 C 0.33832 0.89243 0.60819
 N139 N 0.33598 0.87710 0.59009
 C140 C 0.35303 0.86076 0.59286
 H141 H 0.39498 0.82432 0.60345
 H142 H 0.42551 0.85238 0.66645
 H143 H 0.40596 0.89343 0.68671
 H144 H 0.34715 0.92599 0.65296
 H145 H 0.32706 0.90722 0.61098
 H146 H 0.35580 0.84636 0.58104
 C147 C 0.89251 0.64362 0.38715
 C148 C 0.87208 0.63449 0.39688
 C149 C 0.86121 0.61639 0.38569
 C150 C 0.87075 0.60702 0.36472
 C151 C 0.89091 0.61604 0.35514
 C152 C 0.90196 0.63431 0.36652
 C153 C 0.90660 0.66138 0.39395
 N154 N 0.92447 0.66282 0.37812
 C155 C 0.92182 0.64630 0.36132
 C156 C 0.89595 0.60397 0.33465
 N157 N 0.87947 0.58773 0.33168
 C158 C 0.86402 0.58938 0.35003
 C159 C 0.84175 0.61123 0.39896
 N160 N 0.84072 0.62560 0.41803
 C161 C 0.85922 0.63987 0.41690
 H162 H 0.90418 0.67235 0.40937
 H163 H 0.93333 0.64349 0.34623
 H164 H 0.91066 0.60666 0.32288
 H165 H 0.84883 0.57876 0.35230
 H166 H 0.82944 0.59778 0.39524
 H167 H 0.86291 0.65332 0.42961
 C168 C 0.61542 0.35127 -0.11797
 C169 C 0.63578 0.36059 -0.10819
 C170 C 0.64391 0.38127 -0.11694
 C171 C 0.63186 0.39292 -0.13562
 C172 C 0.61164 0.38389 -0.14512
 C173 C 0.60334 0.36289 -0.13621
 C174 C 0.60370 0.33129 -0.11325
 N175 N 0.58476 0.33052 -0.12809
 C176 C 0.58437 0.34983 -0.14216
 C177 C 0.60385 0.39878 -0.16307
 N178 N 0.61897 0.41649 -0.16476
 C179 C 0.63612 0.41303 -0.14798
 C180 C 0.66373 0.38628 -0.10401
 N181 N 0.66783 0.36916 -0.08751
 C182 C 0.65081 0.35332 -0.09005
 H183 H 0.60852 0.31833 -0.09985
 H184 H 0.57146 0.35388 -0.15600
 H185 H 0.58864 0.39658 -0.17445
 H186 H 0.65065 0.42433 -0.14496
 H187 H 0.67439 0.40128 -0.10653
 H188 H 0.64910 0.33789 -0.07914
 C189 C -0.02225 0.30690 0.13373
 C190 C -0.00493 0.28979 0.13308
 C191 C -0.00964 0.26840 0.12323
 C192 C -0.03185 0.26436 0.11348
 C193 C -0.04909 0.28161 0.11359
 C194 C -0.04465 0.30313 0.12392
 N195 N 0.00840 0.25114 0.12323
 N196 N 0.00400 0.23004 0.12008
 C197 C 0.02208 0.21283 0.11969
 C198 C 0.01615 0.18977 0.12275
 C199 C 0.03344 0.17260 0.12287
 C200 C 0.05690 0.17825 0.11931
 C201 C 0.06280 0.20136 0.11577
 C202 C 0.04556 0.21858 0.11620
 H203 H -0.01774 0.32314 0.14158
 H204 H 0.01219 0.29313 0.14054
 H205 H -0.03583 0.24795 0.10561
 H206 H -0.06596 0.27772 0.10595
 H207 H -0.00188 0.18513 0.12535
 H208 H 0.02850 0.15486 0.12538
 H209 H 0.08080 0.20607 0.11309
 H210 H 0.05051 0.23631 0.11363
 C211 C 0.53526 0.70824 0.59744
 C212 C 0.51839 0.72580 0.59754
 C213 C 0.50804 0.73248 0.61912
 C214 C 0.51447 0.72110 0.64074
 C215 C 0.53121 0.70336 0.64065
 C216 C 0.54193 0.69688 0.61901
 N217 N 0.49122 0.75091 0.61852
 N218 N 0.48256 0.75937 0.63756
 C219 C 0.46572 0.77781 0.63658
 C220 C 0.45812 0.78757 0.65810
 C221 C 0.44179 0.80567 0.65769
 C222 C 0.43264 0.81418 0.63565
 C223 C 0.44029 0.80429 0.61407
 C224 C 0.45672 0.78632 0.61450
 H225 H 0.54297 0.70352 0.58044
 H226 H 0.51350 0.73438 0.58075
 H227 H 0.50664 0.72593 0.65766
 H228 H 0.53605 0.69508 0.65758
 H229 H 0.46489 0.78115 0.67523
 H230 H 0.43604 0.81277 0.67460
 H231 H 0.43379 0.81065 0.59682
 H232 H 0.46233 0.77910 0.59760
 C233 C 1.02622 0.80285 0.36300
 C234 C 1.00858 0.78655 0.36325
 C235 C 1.01216 0.76527 0.37471
 C236 C 1.03353 0.76050 0.38638
 C237 C 1.05102 0.77699 0.38671
 C238 C 1.04772 0.79842 0.37489
 N239 N 0.99375 0.74895 0.37452
 N240 N 0.99750 0.72764 0.37853
 C241 C 0.97890 0.71152 0.37884
 C242 C 0.98397 0.68825 0.37519
 C243 C 0.96605 0.67224 0.37478
 C244 C 0.94288 0.67923 0.37874
 C245 C 0.93786 0.70247 0.38300
 C246 C 0.95570 0.71858 0.38277
 H247 H 1.02259 0.81906 0.35390
 H248 H 0.99211 0.79044 0.35429
 H249 H 1.03660 0.74416 0.39550
 H250 H 1.06722 0.77260 0.39592
 H251 H 1.00179 0.68261 0.37225
 H252 H 0.97025 0.65434 0.37164
 H253 H 0.92008 0.70818 0.38598
 H254 H 0.95143 0.73647 0.38584
 C255 C 0.44148 0.22988 -0.12512
 C256 C 0.45759 0.24765 -0.12609
 C257 C 0.48126 0.24284 -0.12973
 C258 C 0.48866 0.21996 -0.13290
 C259 C 0.47251 0.20220 -0.13227
 C260 C 0.44878 0.20696 -0.12814
 N261 N 0.49739 0.26139 -0.12988
 N262 N 0.51937 0.25798 -0.12950
 C263 C 0.53552 0.27651 -0.12963
 C264 C 0.55918 0.27166 -0.12534
 C265 C 0.57534 0.28937 -0.12478
 C266 C 0.56812 0.31228 -0.12886
 C267 C 0.54440 0.31709 -0.13355
 C268 C 0.52819 0.29938 -0.13378
 H269 H 0.42330 0.23414 -0.12216
 H270 H 0.45167 0.26521 -0.12370
 H271 H 0.50687 0.21582 -0.13584
 H272 H 0.47870 0.18472 -0.13451
 H273 H 0.56505 0.25410 -0.12220
 H274 H 0.59355 0.28517 -0.12142
 H275 H 0.53837 0.33461 -0.13658
 H276 H 0.50999 0.30356 -0.13721
 C277 C 0.12391 -0.02277 0.31038
 C278 C 0.12327 -0.00524 0.29288
 C279 C 0.11533 -0.00960 0.26948
 C280 C 0.10752 -0.03165 0.26382
 C281 C 0.10769 -0.04906 0.28142
 C282 C 0.11605 -0.04483 0.30481
 N283 N 0.11526 0.00859 0.25184
 N284 N 0.11346 0.00471 0.22937
 C285 C 0.11293 0.02289 0.21172
 C286 C 0.11700 0.01767 0.18755
 C287 C 0.11700 0.03510 0.16996
 C288 C 0.11234 0.05798 0.17627
 C289 C 0.10782 0.06314 0.20046
 C290 C 0.10832 0.04577 0.21812
 H291 H 0.13027 -0.01901 0.32831
 H292 H 0.12924 0.01172 0.29747
 H293 H 0.10117 -0.03538 0.24587
 H294 H 0.10168 -0.06594 0.27659
 H295 H 0.12048 0.00009 0.18240
 H296 H 0.12035 0.03074 0.15138
 H297 H 0.10435 0.08068 0.20573
 H298 H 0.10497 0.05018 0.23668
 C299 C 0.64838 0.53715 -0.29403
 C300 C 0.64902 0.51964 -0.27657
 C301 C 0.62971 0.51558 -0.26204
 C302 C 0.60971 0.52959 -0.26480
 C303 C 0.60911 0.54738 -0.28204
 C304 C 0.62837 0.55133 -0.29716
 N305 N 0.63096 0.49715 -0.24469
 N306 N 0.61326 0.49026 -0.23311
 C307 C 0.61502 0.47183 -0.21575
 C308 C 0.59462 0.46262 -0.20616
 C309 C 0.59585 0.44436 -0.18950
 C310 C 0.61759 0.43526 -0.18191
 C311 C 0.63803 0.44471 -0.19139
 C312 C 0.63678 0.46275 -0.20823
 H313 H 0.66379 0.53951 -0.30482
 H314 H 0.66459 0.50900 -0.27450
 H315 H 0.59459 0.52683 -0.25363
 H316 H 0.59330 0.55765 -0.28364
 H317 H 0.57775 0.46949 -0.21176
 H318 H 0.57985 0.43753 -0.18231
 H319 H 0.65499 0.43787 -0.18607
 H320 H 0.65282 0.46959 -0.21534
 C321 C 0.40919 1.04018 0.79799
 C322 C 0.41061 1.02265 0.78102
 C323 C 0.39043 1.01170 0.77308
 C324 C 0.36872 1.01840 0.78246
 C325 C 0.36730 1.03577 0.79951
 C326 C 0.38750 1.04691 0.80746
 N327 N 0.39230 0.99397 0.75548
 N328 N 0.37427 0.98474 0.74650
 C329 C 0.37547 0.96699 0.72893
 C330 C 0.35469 0.95939 0.71859
 C331 C 0.35506 0.94235 0.70113
 C332 C 0.37630 0.93244 0.69381
 C333 C 0.39718 0.93987 0.70446
 C334 C 0.39680 0.95710 0.72182
 H335 H 0.42510 1.04826 0.80384
 H336 H 0.42745 1.01763 0.77396
 H337 H 0.35284 1.01023 0.77664
 H338 H 0.35028 1.04063 0.80618
 H339 H 0.33815 0.96681 0.72401
 H340 H 0.33869 0.93675 0.69351
 H341 H 0.41379 0.93267 0.69902
 H342 H 0.41309 0.96269 0.72962
 C343 C 0.88589 0.44764 0.22515
 C344 C 0.88477 0.46340 0.24391
 C345 C 0.87901 0.48644 0.23912
 C346 C 0.87381 0.49355 0.21533
 C347 C 0.87446 0.47771 0.19661
 C348 C 0.88073 0.45466 0.20132
 N349 N 0.87870 0.50227 0.25865
 N350 N 0.87861 0.52391 0.25508
 C351 C 0.87819 0.53977 0.27457
 C352 C 0.88391 0.56268 0.27001
 C353 C 0.88439 0.57844 0.28878
 C354 C 0.87862 0.57158 0.31234
 C355 C 0.87235 0.54870 0.31681
 C356 C 0.87234 0.53283 0.29811
 H357 H 0.89054 0.42994 0.22933
 H358 H 0.88873 0.45771 0.26219
 H359 H 0.86918 0.51127 0.21123
 H360 H 0.87052 0.48360 0.17841
 H361 H 0.88836 0.56824 0.25193
 H362 H 0.88905 0.59605 0.28490
 H363 H 0.86796 0.54304 0.33486
 H364 H 0.86772 0.51522 0.30202
 C365 C 0.28552 0.15503 -0.04195
 C366 C 0.26736 0.15561 -0.02527
 C367 C 0.25603 0.13543 -0.01856
 C368 C 0.26294 0.11455 -0.02892
 C369 C 0.28098 0.11395 -0.04567
 C370 C 0.29255 0.13417 -0.05234
 N371 N 0.23774 0.13650 -0.00114
 N372 N 0.22772 0.11851 0.00655
 C373 C 0.20946 0.11922 0.02399
 C374 C 0.20036 0.09852 0.03249
 C375 C 0.18277 0.09848 0.04976
 C376 C 0.17385 0.11926 0.05875
 C377 C 0.18287 0.14008 0.05001
 C378 C 0.20059 0.14008 0.03282
 H379 H 0.29388 0.17095 -0.04681
 H380 H 0.26217 0.17182 -0.01745
 H381 H 0.25446 0.09868 -0.02403
 H382 H 0.28603 0.09755 -0.05308
 H383 H 0.20700 0.08235 0.02576
 H384 H 0.17595 0.08220 0.05587
 H385 H 0.17652 0.15633 0.05677
 H386 H 0.20737 0.15632 0.02651
 C387 C 0.69292 0.63247 0.51785
 C388 C 0.70987 0.63250 0.49987
 C389 C 0.73305 0.62660 0.50546
 C390 C 0.73911 0.62031 0.52929
 C391 C 0.72211 0.61989 0.54719
 C392 C 0.69887 0.62608 0.54167
 N393 N 0.75002 0.62693 0.48666
 N394 N 0.77182 0.62595 0.49117
 C395 C 0.78884 0.62583 0.47243
 C396 C 0.81222 0.62959 0.47841
 C397 C 0.82924 0.62972 0.46053
 C398 C 0.82316 0.62562 0.43639
 C399 C 0.79973 0.62154 0.43044
 C400 C 0.78265 0.62182 0.44828
 H401 H 0.67512 0.63711 0.51301
 H402 H 0.70497 0.63728 0.48155
 H403 H 0.75692 0.61557 0.53401
 H404 H 0.72723 0.61503 0.56542
 H405 H 0.81721 0.63259 0.49697
 H406 H 0.84722 0.63267 0.46558
 H407 H 0.79463 0.61848 0.41193
 H408 H 0.76469 0.61874 0.44325
 C409 C 0.79505 0.40265 0.03525
 C410 C 0.77747 0.40292 0.01763
 C411 C 0.76833 0.38238 0.00919
 C412 C 0.77704 0.36139 0.01855
 C413 C 0.79465 0.36107 0.03618
 C414 C 0.80386 0.38171 0.04479
 N415 N 0.75020 0.38340 -0.00874
 N416 N 0.74097 0.36547 -0.01728
 C417 C 0.72275 0.36677 -0.03513
 C418 C 0.71323 0.34643 -0.04372
 C419 C 0.69527 0.34716 -0.06095
 C420 C 0.68653 0.36833 -0.06994
 C421 C 0.69622 0.38873 -0.06130
 C422 C 0.71414 0.38797 -0.04407
 H423 H 0.80176 0.41889 0.04120
 H424 H 0.77092 0.41921 0.01052
 H425 H 0.77022 0.34526 0.01232
 H426 H 0.80083 0.34463 0.04316
 H427 H 0.71975 0.32998 -0.03701
 H428 H 0.68840 0.33115 -0.06743
 H429 H 0.68968 0.40530 -0.06754
 H430 H 0.72116 0.40395 -0.03766
 C431 C 0.20994 0.84646 0.46473
 C432 C 0.22762 0.84539 0.48225
 C433 C 0.23853 0.86541 0.48980
 C434 C 0.23169 0.88664 0.47943
 C435 C 0.21412 0.88773 0.46180
 C436 C 0.20297 0.86765 0.45431
 N437 N 0.25634 0.86374 0.50805
 N438 N 0.26590 0.88143 0.51674
 C439 C 0.28370 0.87987 0.53500
 C440 C 0.29225 0.90011 0.54482
 C441 C 0.30940 0.89923 0.56288
 C442 C 0.31843 0.87800 0.57134
 C443 C 0.30995 0.85768 0.56129
 C444 C 0.29268 0.85858 0.54332
 H445 H 0.20192 0.83064 0.45924
 H446 H 0.23277 0.82892 0.49007
 H447 H 0.23988 0.90238 0.48495
 H448 H 0.20909 0.90435 0.45433
 H449 H 0.28552 0.91661 0.53850
 H450 H 0.31579 0.91517 0.57004
 H451 H 0.31638 0.84108 0.56761
 H452 H 0.28634 0.84268 0.53601
   
