data_POSCAR
  _audit_creation_date              2014-09-24
  _audit_creation_method            'ToBaCCo'
  _symmetry_space_group_name_H-M    'P1'
  _symmetry_Int_Tables_number       1
  _symmetry_cell_setting            triclinic
  loop_
  _symmetry_equiv_pos_as_xyz
 x,y,z
_cell_length_a 45.1775
_cell_length_b 42.4997
_cell_length_c 44.0657
_cell_angle_alpha 95.567400
_cell_angle_beta 90.269600
_cell_angle_gamma 92.587500
loop_
  _atom_site_label
  _atom_site_type_symbol
  _atom_site_fract_x
  _atom_site_fract_y
  _atom_site_fract_z
N1 N 0.20172 1.26485 0.17645
 N2 N 0.18021 1.26660 0.19637
 C3 C 0.16443 1.29201 0.19226
 C4 C 0.17662 1.30704 0.16822
 C5 C 0.20047 1.28900 0.15900
 H6 H 0.14508 1.29841 0.20534
 H7 H 0.21527 1.29220 0.14026
 Cu8 Cu 0.17334 1.23413 0.22418
 Cu9 Cu 0.22768 1.22960 0.17229
 Cu10 Cu 0.22669 1.18214 0.23178
 N11 N 0.17275 1.20637 0.25681
 N12 N 0.19399 1.18685 0.26009
 C13 C 0.18753 1.16976 0.28351
 C14 C 0.16056 1.17883 0.29573
 C15 C 0.15201 1.20239 0.27813
 H16 H 0.20109 1.15129 0.29021
 H17 H 0.13191 1.21525 0.28005
 N18 N 0.25755 1.18061 0.20034
 N19 N 0.25752 1.19824 0.17732
 C20 C 0.27979 1.19003 0.15842
 C21 C 0.29450 1.16578 0.16990
 C22 C 0.27978 1.16056 0.19661
 H23 H 0.28446 1.20051 0.13749
 H24 H 0.28401 1.14247 0.21148
 H25 H 0.20427 1.19583 0.19538
 H26 H 0.22635 1.22781 0.21863
 N27 N 0.80532 0.75422 0.16113
 N28 N 0.81970 0.75307 0.18697
 C29 C 0.84239 0.73384 0.18234
 C30 C 0.84237 0.72215 0.15189
 C31 C 0.81836 0.73549 0.13914
 H32 H 0.85800 0.72919 0.19985
 H33 H 0.81155 0.73275 0.11544
 Cu34 Cu 0.80917 0.77829 0.22403
 Cu35 Cu 0.77216 0.78177 0.15777
 Cu36 Cu 0.76139 0.83572 0.22036
 N37 N 0.80718 0.81249 0.25640
 N38 N 0.78876 0.83524 0.25455
 C39 C 0.79364 0.85734 0.27821
 C40 C 0.81657 0.84812 0.29605
 C41 C 0.82438 0.81920 0.28144
 H42 H 0.78182 0.87892 0.28146
 H43 H 0.84225 0.80482 0.28740
 N44 N 0.73609 0.83242 0.18365
 N45 N 0.74003 0.81205 0.15962
 C46 C 0.71983 0.81673 0.13803
 C47 C 0.70246 0.84137 0.14905
 C48 C 0.71342 0.85049 0.17810
 H49 H 0.71838 0.80376 0.11569
 H50 H 0.70564 0.86913 0.19407
 H51 H 0.79136 0.81472 0.18987
 H52 H 0.76086 0.78816 0.20308
 N53 N 0.80591 1.24490 -0.15189
 N54 N 0.82384 1.24658 -0.17509
 C55 C 0.84336 1.27135 -0.16898
 C56 C 0.83735 1.28590 -0.14026
 C57 C 0.81333 1.26844 -0.13023
 H58 H 0.86133 1.27741 -0.18377
 H59 H 0.80245 1.27205 -0.10846
 Cu60 Cu 0.82114 1.21483 -0.20995
 Cu61 Cu 0.77586 1.21091 -0.15019
 Cu62 Cu 0.77688 1.14907 -0.20734
 N63 N 0.82520 1.17771 -0.23869
 N64 N 0.80761 1.15233 -0.23801
 C65 C 0.81551 1.13031 -0.26016
 C66 C 0.83964 1.14238 -0.27556
 C67 C 0.84505 1.17267 -0.26110
 H68 H 0.80482 1.10701 -0.26408
 H69 H 0.86217 1.18990 -0.26616
 N70 N 0.74769 1.15062 -0.17402
 N71 N 0.74736 1.17439 -0.15244
 C72 C 0.72601 1.16833 -0.13241
 C73 C 0.71217 1.13920 -0.14156
 C74 C 0.72646 1.12872 -0.16820
 H75 H 0.72121 1.18389 -0.11237
 H76 H 0.72231 1.10642 -0.18184
 H77 H 0.80106 1.17828 -0.17543
 H78 H 0.77132 1.19662 -0.19650
 N79 N 0.18316 0.73249 -0.20650
 N80 N 0.15857 0.73647 -0.22145
 C81 C 0.13696 0.71677 -0.21232
 C82 C 0.14867 0.69932 -0.19053
 C83 C 0.17815 0.70980 -0.18761
 H84 H 0.11431 0.71575 -0.22054
 H85 H 0.19437 0.70276 -0.17177
 Cu86 Cu 0.15673 0.76808 -0.25042
 Cu87 Cu 0.21871 0.75967 -0.21050
 Cu88 Cu 0.19983 0.83299 -0.23069
 N89 N 0.15225 0.80661 -0.26999
 N90 N 0.16821 0.83243 -0.26093
 C91 C 0.15924 0.85639 -0.27595
 C92 C 0.13670 0.84492 -0.29617
 C93 C 0.13301 0.81301 -0.29175
 H94 H 0.16915 0.88012 -0.27284
 H95 H 0.11690 0.79591 -0.30262
 N96 N 0.23777 0.82559 -0.21082
 N97 N 0.24549 0.79754 -0.20397
 C98 C 0.27278 0.80035 -0.19123
 C99 C 0.28284 0.83178 -0.19021
 C100 C 0.25997 0.84696 -0.20289
 H101 H 0.28421 0.78099 -0.18304
 H102 H 0.25926 0.87187 -0.20580
 H103 H 0.18855 0.79292 -0.20913
 H104 H 0.20844 0.78765 -0.24615
 C105 C 0.46976 1.00478 0.01947
 C106 C 0.48720 0.98164 0.03662
 C107 C 0.50439 0.96223 0.01839
 C108 C 0.50208 0.96717 -0.01566
 C109 C 0.49374 1.02201 0.00190
 C110 C 0.51061 1.00254 -0.01655
 C111 C 0.45219 0.98380 -0.00501
 C112 C 0.46885 0.96427 -0.02338
 H113 H 0.48835 0.98235 0.06113
 H114 H 0.51570 0.95121 -0.03068
 H115 H 0.49706 1.04753 0.00414
 H116 H 0.42840 0.98464 -0.00779
 C117 C 0.04511 0.49335 1.03295
 C118 C 0.06273 0.50939 1.00846
 C119 C 0.04563 0.52252 0.98790
 C120 C 0.01217 0.51881 0.99401
 C121 C 0.02610 0.51973 1.04745
 C122 C 0.00862 0.53294 1.02725
 C123 C 0.02312 0.47004 1.01513
 C124 C 0.00589 0.48313 0.99484
 H125 H 0.08658 0.51290 1.00904
 H126 H -0.00198 0.52930 0.97739
 H127 H 0.02611 0.52683 1.07171
 H128 H 0.02174 0.44500 1.01810
 C129 C 1.02961 0.02717 0.47805
 C130 C 1.01442 0.04748 0.50367
 C131 C 0.99473 0.03102 0.52022
 C132 C 0.99227 -0.00465 0.50979
 C133 C 1.04369 0.00115 0.49463
 C134 C 1.02414 -0.01532 0.51115
 C135 C 1.00409 0.01005 0.45928
 C136 C 0.98466 -0.00666 0.47568
 H137 H 1.01872 0.07279 0.50789
 H138 H 0.97665 -0.01860 0.52318
 H139 H 1.06724 -0.00173 0.49658
 H140 H 1.00235 0.01007 0.43475
 C141 C 0.18075 0.34502 1.12970
 C142 C 0.16905 0.36927 1.11479
 C143 C 0.14246 0.38233 1.12433
 C144 C 0.12803 0.37161 1.14979
 C145 C 0.13970 0.34739 1.16485
 C146 C 0.16596 0.33315 1.15464
 N147 N 0.12987 0.40508 1.10674
 N148 N 0.10515 0.41715 1.11325
 C149 C 0.09206 0.43852 1.09443
 C150 C 0.06422 0.44982 1.10204
 C151 C 0.04968 0.46840 1.08271
 C152 C 0.06296 0.47665 1.05551
 C153 C 0.09107 0.46513 1.04806
 C154 C 0.10555 0.44656 1.06742
 H155 H 0.20117 0.33547 1.12109
 H156 H 0.18042 0.37742 1.09523
 H157 H 0.10742 0.38145 1.15766
 H158 H 0.12755 0.33952 1.18400
 H159 H 0.05334 0.44334 1.12253
 H160 H 0.02754 0.47545 1.08859
 H161 H 0.10157 0.46917 1.02672
 H162 H 0.12687 0.43764 1.06074
 C163 C -0.10795 0.69822 1.15016
 C164 C -0.08724 0.67847 1.13596
 C165 C -0.09373 0.66133 1.10787
 C166 C -0.12126 0.66444 1.09375
 C167 C -0.14204 0.68442 1.10788
 C168 C -0.13567 0.70135 1.13639
 N169 N -0.07207 0.64064 1.09475
 N170 N -0.07636 0.62276 1.07009
 C171 C -0.05415 0.60190 1.05832
 C172 C -0.06072 0.58031 1.03287
 C173 C -0.04006 0.55833 1.02222
 C174 C -0.01243 0.55769 1.03693
 C175 C -0.00557 0.58009 1.06186
 C176 C -0.02621 0.60192 1.07249
 H177 H -0.10203 0.71118 1.17184
 H178 H -0.06606 0.67631 1.14701
 H179 H -0.12676 0.65136 1.07199
 H180 H -0.16320 0.68620 1.09672
 H181 H -0.08216 0.58001 1.02174
 H182 H -0.04615 0.54118 1.00320
 H183 H 0.01573 0.58067 1.07330
 H184 H -0.02042 0.61853 1.09203
 C185 C -0.14822 0.31714 0.90913
 C186 C -0.13124 0.34099 0.92596
 C187 C -0.11147 0.36068 0.91142
 C188 C -0.10901 0.35651 0.87952
 C189 C -0.12589 0.33242 0.86257
 C190 C -0.14556 0.31232 0.87725
 N191 N -0.09323 0.38345 0.92988
 N192 N -0.07600 0.40396 0.91899
 C193 C -0.05708 0.42511 0.93858
 C194 C -0.04017 0.44917 0.92629
 C195 C -0.02026 0.46884 0.94476
 C196 C -0.01673 0.46429 0.97569
 C197 C -0.03419 0.44062 0.98809
 C198 C -0.05424 0.42129 0.96978
 H199 H -0.16283 0.30201 0.92132
 H200 H -0.13315 0.34386 0.95056
 H201 H -0.09374 0.37143 0.86781
 H202 H -0.12346 0.32951 0.83806
 H203 H -0.04210 0.45235 0.90228
 H204 H -0.00691 0.48682 0.93466
 H205 H -0.03219 0.43693 1.01198
 H206 H -0.06703 0.40293 0.97991
 C207 C 0.10183 0.67785 0.83177
 C208 C 0.08704 0.65776 0.85061
 C209 C 0.10263 0.63598 0.86549
 C210 C 0.13334 0.63428 0.86112
 C211 C 0.14822 0.65458 0.84258
 C212 C 0.13266 0.67674 0.82785
 N213 N 0.08708 0.61673 0.88574
 N214 N 0.09942 0.59444 0.89754
 C215 C 0.08465 0.57587 0.91884
 C216 C 0.09869 0.54982 0.92829
 C217 C 0.08572 0.53209 0.95020
 C218 C 0.05850 0.54037 0.96339
 C219 C 0.04419 0.56631 0.95350
 C220 C 0.05711 0.58389 0.93135
 H221 H 0.08922 0.69482 0.82100
 H222 H 0.06339 0.65939 0.85387
 H223 H 0.14593 0.61767 0.87244
 H224 H 0.17191 0.65295 0.83983
 H225 H 0.11988 0.54337 0.91877
 H226 H 0.09709 0.51191 0.95683
 H227 H 0.02348 0.57370 0.96349
 H228 H 0.04593 0.60412 0.92454
 C229 C 1.11657 0.17625 0.32825
 C230 C 1.10027 0.16187 0.35047
 C231 C 1.11157 0.13668 0.36434
 C232 C 1.13981 0.12643 0.35626
 C233 C 1.15617 0.14074 0.33413
 C234 C 1.14468 0.16561 0.31933
 N235 N 1.09368 0.12127 0.38577
 N236 N 1.10244 0.09739 0.39803
 C237 C 1.08460 0.08109 0.41883
 C238 C 1.09555 0.05437 0.43035
 C239 C 1.07836 0.03698 0.44968
 C240 C 1.04980 0.04633 0.45833
 C241 C 1.03888 0.07318 0.44639
 C242 C 1.05610 0.09049 0.42700
 H243 H 1.10671 0.19536 0.31792
 H244 H 1.07853 0.17006 0.35657
 H245 H 1.14913 0.10708 0.36677
 H246 H 1.17767 0.13174 0.32858
 H247 H 1.11733 0.04664 0.42381
 H248 H 1.08748 0.01587 0.45687
 H249 H 1.01672 0.08056 0.45181
 H250 H 1.04700 0.11090 0.41810
 C251 C 1.12356 -0.10464 0.68599
 C252 C 1.10845 -0.08764 0.66574
 C253 C 1.09150 -0.10342 0.64190
 C254 C 1.08890 -0.13660 0.63904
 C255 C 1.10323 -0.15372 0.65990
 C256 C 1.12122 -0.13800 0.68345
 N257 N 1.07745 -0.08514 0.62084
 N258 N 1.07059 -0.09636 0.59377
 C259 C 1.05675 -0.07742 0.57313
 C260 C 1.06141 -0.08364 0.54177
 C261 C 1.05047 -0.06363 0.52139
 C262 C 1.03384 -0.03782 0.53212
 C263 C 1.02793 -0.03247 0.56336
 C264 C 1.03965 -0.05189 0.58382
 H265 H 1.13658 -0.09134 0.70393
 H266 H 1.11046 -0.06203 0.66824
 H267 H 1.07567 -0.14922 0.62083
 H268 H 1.10081 -0.17927 0.65685
 H269 H 1.07452 -0.10326 0.53328
 H270 H 1.05515 -0.06808 0.49730
 H271 H 1.01523 -0.01257 0.57201
 H272 H 1.03561 -0.04685 0.60796
 C273 C 0.82278 -0.10318 0.33074
 C274 C 0.83839 -0.08494 0.35413
 C275 C 0.86152 -0.09757 0.36943
 C276 C 0.86852 -0.12914 0.36160
 C277 C 0.85324 -0.14737 0.33786
 C278 C 0.83047 -0.13449 0.32157
 N279 N 0.87906 -0.07707 0.39084
 N280 N 0.89785 -0.08725 0.40870
 C281 C 0.91701 -0.06593 0.42782
 C282 C 0.93398 -0.07767 0.45054
 C283 C 0.95505 -0.05791 0.46736
 C284 C 0.95982 -0.02634 0.46109
 C285 C 0.94222 -0.01436 0.43895
 C286 C 0.92083 -0.03390 0.42260
 H287 H 0.80546 -0.09202 0.31930
 H288 H 0.83286 -0.06057 0.35993
 H289 H 0.88644 -0.13937 0.37309
 H290 H 0.85975 -0.17139 0.33219
 H291 H 0.93136 -0.10234 0.45468
 H292 H 0.96858 -0.06767 0.48418
 H293 H 0.94545 0.00999 0.43389
 H294 H 0.90812 -0.02427 0.40508
 C295 C 0.84634 0.09665 0.68683
 C296 C 0.86226 0.08156 0.66292
 C297 C 0.88777 0.09624 0.65192
 C298 C 0.89709 0.12656 0.66488
 C299 C 0.88111 0.14186 0.68857
 C300 C 0.85551 0.12712 0.70013
 N301 N 0.90377 0.08002 0.62761
 N302 N 0.92868 0.09084 0.61883
 C303 C 0.94482 0.07517 0.59436
 C304 C 0.97321 0.08713 0.58800
 C305 C 0.98955 0.07271 0.56412
 C306 C 0.97759 0.04610 0.54590
 C307 C 0.94904 0.03409 0.55238
 C308 C 0.93280 0.04844 0.57645
 H309 H 0.82680 0.08427 0.69455
 H310 H 0.85478 0.05821 0.65304
 H311 H 0.91671 0.13850 0.65667
 H312 H 0.88927 0.16513 0.69782
 H313 H 0.98275 0.10765 0.60172
 H314 H 1.01166 0.08225 0.56018
 H315 H 0.93894 0.01400 0.53852
 H316 H 0.91079 0.03887 0.58082
 C317 C 0.33353 1.12560 0.17137
 C318 C 0.35512 1.10698 0.15704
 C319 C 0.36232 1.10971 0.12656
 C320 C 0.34807 1.13185 0.11061
 C321 C 0.32650 1.15050 0.12487
 C322 C 0.31869 1.14735 0.15534
 N323 N 0.38341 1.08916 0.11208
 N324 N 0.39043 1.09019 0.08425
 C325 C 0.41087 1.06920 0.06931
 C326 C 0.41744 1.07190 0.03871
 C327 C 0.43655 1.05119 0.02314
 C328 C 0.44983 1.02739 0.03792
 C329 C 0.44282 1.02461 0.06875
 C330 C 0.42368 1.04542 0.08429
 H331 H 0.32842 1.12272 0.19492
 H332 H 0.36601 1.09006 0.16961
 H333 H 0.35325 1.13444 0.08699
 H334 H 0.31558 1.16681 0.11167
 H335 H 0.40745 1.08993 0.02681
 H336 H 0.44084 1.05359 -0.00071
 H337 H 0.45129 1.00618 0.08105
 H338 H 0.41859 1.04260 0.10788
 C339 C 0.68104 1.13371 -0.09527
 C340 C 0.65878 1.11832 -0.07972
 C341 C 0.64338 1.09150 -0.09362
 C342 C 0.65053 1.07996 -0.12352
 C343 C 0.67292 1.09538 -0.13921
 C344 C 0.68840 1.12254 -0.12527
 N345 N 0.62048 1.07696 -0.07671
 N346 N 0.60504 1.05239 -0.08692
 C347 C 0.58212 1.03938 -0.06878
 C348 C 0.56504 1.01263 -0.08065
 C349 C 0.54197 1.00025 -0.06356
 C350 C 0.53562 1.01464 -0.03439
 C351 C 0.55316 1.04110 -0.02237
 C352 C 0.57613 1.05336 -0.03935
 H353 H 0.69255 1.15421 -0.08349
 H354 H 0.65347 1.12737 -0.05666
 H355 H 0.63880 1.05923 -0.13473
 H356 H 0.67785 1.08616 -0.16229
 H357 H 0.56939 1.00161 -0.10328
 H358 H 0.52868 0.97996 -0.07346
 H359 H 0.54925 1.05230 0.00029
 H360 H 0.58908 1.07390 -0.02948
 C361 C 0.31983 0.87763 -0.18280
 C362 C 0.34468 0.89299 -0.16822
 C363 C 0.36129 0.87784 -0.14764
 C364 C 0.35340 0.84644 -0.14254
 C365 C 0.32841 0.83096 -0.15713
 C366 C 0.31094 0.84668 -0.17691
 N367 N 0.38407 0.89604 -0.13030
 N368 N 0.40126 0.88453 -0.11170
 C369 C 0.42162 0.90475 -0.09282
 C370 C 0.44124 0.89152 -0.07336
 C371 C 0.45833 0.91103 -0.05181
 C372 C 0.45548 0.94391 -0.04925
 C373 C 0.43696 0.95719 -0.06971
 C374 C 0.42032 0.93786 -0.09142
 H375 H 0.30736 0.89035 -0.19827
 H376 H 0.35054 0.91721 -0.17229
 H377 H 0.36586 0.83433 -0.12654
 H378 H 0.32225 0.80717 -0.15202
 H379 H 0.44243 0.86607 -0.07412
 H380 H 0.47241 0.90040 -0.03606
 H381 H 0.43461 0.98256 -0.06815
 H382 H 0.40543 0.94878 -0.10614
 C383 C 0.66840 0.88567 0.14518
 C384 C 0.64575 0.89987 0.13077
 C385 C 0.63249 0.88512 0.10412
 C386 C 0.64225 0.85571 0.09174
 C387 C 0.66510 0.84134 0.10620
 C388 C 0.67836 0.85616 0.13321
 N389 N 0.60930 0.90096 0.09054
 N390 N 0.59530 0.89027 0.06631
 C391 C 0.57233 0.90808 0.05450
 C392 C 0.55713 0.89646 0.02764
 C393 C 0.53483 0.91386 0.01584
 C394 C 0.52732 0.94305 0.03094
 C395 C 0.54277 0.95463 0.05776
 C396 C 0.56491 0.93737 0.06944
 H397 H 0.67820 0.89818 0.16557
 H398 H 0.63846 0.92262 0.14041
 H399 H 0.63225 0.84390 0.07108
 H400 H 0.67213 0.81859 0.09640
 H401 H 0.56261 0.87396 0.01582
 H402 H 0.52331 0.90438 -0.00489
 H403 H 0.53826 0.97746 0.06950
 H404 H 0.57638 0.94713 0.09009
   
