data_POSCAR
  _audit_creation_date              2014-09-24
  _audit_creation_method            'ToBaCCo'
  _symmetry_space_group_name_H-M    'P1'
  _symmetry_Int_Tables_number       1
  _symmetry_cell_setting            triclinic
  loop_
  _symmetry_equiv_pos_as_xyz
 x,y,z
_cell_length_a 31.0021
_cell_length_b 31.0213
_cell_length_c 34.9611
_cell_angle_alpha 89.950500
_cell_angle_beta 90.097300
_cell_angle_gamma 120.159200
loop_
  _atom_site_label
  _atom_site_type_symbol
  _atom_site_fract_x
  _atom_site_fract_y
  _atom_site_fract_z
C1 C 0.04503 0.51940 1.33176
 C2 C -0.00033 0.49686 1.35140
 C3 C -0.04581 0.47398 1.33182
 C4 C -0.04645 0.47337 1.29135
 C5 C -0.00063 0.49613 1.27104
 C6 C 0.04536 0.51927 1.29128
 C7 C 0.09029 0.54158 1.27050
 C8 C 0.09011 0.54122 1.23068
 C9 C 0.04502 0.51855 1.21010
 C10 C -0.00079 0.49578 1.23041
 C11 C -0.09154 0.45070 1.27067
 C12 C -0.09169 0.45038 1.23086
 C13 C -0.04675 0.47270 1.21012
 C14 C -0.04633 0.47269 1.16964
 C15 C -0.00093 0.49525 1.15007
 C16 C 0.04444 0.51803 1.16971
 H17 H 0.12607 0.55956 1.28492
 H18 H 0.12573 0.55893 1.21613
 H19 H -0.12721 0.43297 1.28516
 H20 H -0.12744 0.43242 1.21640
 H21 H -0.00024 0.49714 1.38250
 H22 H -0.00078 0.49518 1.11899
 C23 C 0.48132 0.52647 1.33152
 C24 C 0.50397 0.50399 1.35134
 C25 C 0.52671 0.48131 1.33193
 C26 C 0.52703 0.48091 1.29146
 C27 C 0.50411 0.50367 1.27102
 C28 C 0.48115 0.52656 1.29112
 C29 C 0.45865 0.54886 1.27031
 C30 C 0.45865 0.54870 1.23048
 C31 C 0.48116 0.52622 1.21000
 C32 C 0.50411 0.50351 1.23042
 C33 C 0.54954 0.45844 1.27087
 C34 C 0.54953 0.45830 1.23104
 C35 C 0.52702 0.48060 1.21028
 C36 C 0.52673 0.48066 1.16987
 C37 C 0.50403 0.50314 1.15012
 C38 C 0.48137 0.52579 1.16960
 H39 H 0.44080 0.56666 1.28468
 H40 H 0.44081 0.56638 1.21584
 H41 H 0.56740 0.44073 1.28546
 H42 H 0.56735 0.44050 1.21663
 H43 H 0.50381 0.50416 1.38242
 H44 H 0.50396 0.50299 1.11906
 C45 C 0.51938 1.04600 1.16940
 C46 C 0.49670 1.00055 1.14986
 C47 C 0.47387 0.95525 1.16952
 C48 C 0.47341 0.95479 1.20992
 C49 C 0.49627 1.00064 1.23021
 C50 C 0.51939 1.04652 1.20990
 C51 C 0.54182 1.09148 1.23062
 C52 C 0.54159 1.09144 1.27044
 C53 C 0.51893 1.04644 1.29116
 C54 C 0.49604 1.00059 1.27086
 C55 C 0.45075 0.90980 1.23053
 C56 C 0.45051 0.90972 1.27036
 C57 C 0.47294 0.95467 1.29113
 C58 C 0.47300 0.95510 1.33162
 C59 C 0.49565 1.00050 1.35123
 C60 C 0.51850 1.04592 1.33164
 H61 H 0.55979 1.12717 1.21615
 H62 H 0.55940 1.12713 1.28492
 H63 H 0.43296 0.87416 1.21600
 H64 H 0.43255 0.87401 1.28479
 H65 H 0.49679 1.00032 1.11878
 H66 H 0.49556 1.00049 1.38233
 C67 C 1.04665 0.52672 0.83099
 C68 C 1.00116 0.50377 0.85045
 C69 C 0.95585 0.48119 0.83072
 C70 C 0.95548 0.48128 0.79031
 C71 C 1.00142 0.50447 0.77013
 C72 C 1.04728 0.52733 0.79051
 C73 C 1.09232 0.55007 0.76987
 C74 C 1.09237 0.55036 0.73004
 C75 C 1.04738 0.52792 0.70925
 C76 C 1.00148 0.50476 0.72950
 C77 C 0.91051 0.45885 0.76958
 C78 C 0.91056 0.45912 0.72975
 C79 C 0.95559 0.48185 0.70917
 C80 C 0.95604 0.48229 0.66878
 C81 C 1.00137 0.50517 0.64917
 C82 C 1.04685 0.52788 0.66876
 H83 H 1.12801 0.56787 0.78442
 H84 H 1.12809 0.56837 0.71561
 H85 H 0.87481 0.44084 0.78403
 H86 H 0.87489 0.44131 0.71518
 H87 H 1.00090 0.50341 0.88153
 H88 H 1.00114 0.50519 0.61809
 C89 C 0.51855 0.47361 0.66873
 C90 C 0.49596 0.49640 0.64922
 C91 C 0.47340 0.51899 0.66893
 C92 C 0.47317 0.51899 0.70935
 C93 C 0.49602 0.49595 0.72951
 C94 C 0.51884 0.47315 0.70913
 C95 C 0.54129 0.45057 0.72967
 C96 C 0.54137 0.45039 0.76952
 C97 C 0.51900 0.47277 0.79028
 C98 C 0.49609 0.49575 0.77011
 C99 C 0.45079 0.54136 0.73012
 C100 C 0.45083 0.54115 0.76996
 C101 C 0.47328 0.51857 0.79049
 C102 C 0.47361 0.51815 0.83090
 C103 C 0.49626 0.49544 0.85041
 C104 C 0.51886 0.47288 0.83070
 H105 H 0.55904 0.43283 0.71506
 H106 H 0.55917 0.43252 0.78395
 H107 H 0.43302 0.55926 0.71569
 H108 H 0.43309 0.55889 0.78456
 H109 H 0.49597 0.49659 0.61817
 H110 H 0.49635 0.49535 0.88146
 C111 C 0.52621 0.04473 0.66823
 C112 C 0.50344 -0.00056 0.64856
 C113 C 0.48072 -0.04599 0.66812
 C114 C 0.48060 -0.04652 0.70860
 C115 C 0.50367 -0.00064 0.72887
 C116 C 0.52658 0.04521 0.70861
 C117 C 0.54920 0.09022 0.72924
 C118 C 0.54931 0.09026 0.76908
 C119 C 0.52682 0.04529 0.78972
 C120 C 0.50380 -0.00058 0.76947
 C121 C 0.45811 -0.09149 0.72935
 C122 C 0.45826 -0.09141 0.76918
 C123 C 0.48088 -0.04639 0.78977
 C124 C 0.48123 -0.04583 0.83016
 C125 C 0.50399 -0.00049 0.84975
 C126 C 0.52665 0.04483 0.83013
 H127 H 0.56702 0.12587 0.71472
 H128 H 0.56721 0.12592 0.78359
 H129 H 0.44017 -0.12720 0.71490
 H130 H 0.44044 -0.12704 0.78374
 H131 H 0.50342 -0.00034 0.61749
 H132 H 0.50402 -0.00047 0.88081
 O133 O 0.40811 0.65452 0.96834
 O134 O 0.40616 0.73669 0.95624
 C135 C 0.38305 0.75987 0.94965
 O136 O 0.34469 0.75257 0.96808
 O137 O 0.26229 0.66825 0.95603
 C138 C 0.23897 0.62187 0.94946
 O139 O 0.24622 0.59081 0.96794
 O140 O 0.33057 0.59304 0.95610
 C141 C 0.37702 0.61616 0.94978
 O142 O 0.40594 0.66842 1.04422
 O143 O 0.40823 0.75273 1.03214
 C144 C 0.37719 0.76004 1.05054
 O145 O 0.33075 0.73665 1.04402
 O146 O 0.24634 0.65430 1.03196
 C147 C 0.23896 0.61591 1.05041
 O148 O 0.26213 0.59279 1.04390
 O149 O 0.34440 0.59091 1.03204
 C150 C 0.38280 0.62199 1.05060
 Cr151 Cr 0.40431 0.70169 1.00023
 Cr152 Cr 0.29741 0.70155 1.00002
 Cr153 Cr 0.29723 0.59468 1.00000
 O154 O 0.33298 0.66597 1.00009
 O155 O 0.59399 0.33018 0.95666
 O156 O 0.59195 0.24597 0.96856
 C157 C 0.62305 0.23874 0.95017
 O158 O 0.66944 0.26193 0.95686
 O159 O 0.75388 0.34431 0.96880
 C160 C 0.76126 0.38265 0.95027
 O161 O 0.73806 0.40576 0.95673
 O162 O 0.65577 0.40767 0.96846
 C163 C 0.61722 0.37656 0.95006
 O164 O 0.59203 0.34393 1.03263
 O165 O 0.59394 0.26168 1.04456
 C166 C 0.61708 0.23853 1.05118
 O167 O 0.65558 0.24604 1.03283
 O168 O 0.73795 0.33052 1.04477
 C169 C 0.76121 0.37692 1.05128
 O170 O 0.75390 0.40792 1.03275
 O171 O 0.66956 0.40576 1.04445
 C172 C 0.62315 0.38247 1.05100
 Cr173 Cr 0.59580 0.29685 1.00061
 Cr174 Cr 0.70280 0.29710 1.00081
 Cr175 Cr 0.70291 0.40396 1.00060
 O176 O 0.66716 0.33264 1.00068
 O177 O 0.65515 0.40865 0.53117
 O178 O 0.73746 0.40678 0.54316
 C179 C 0.76081 0.38380 0.54956
 O180 O 0.75348 0.34553 0.53099
 O181 O 0.66910 0.26313 0.54291
 C182 C 0.62268 0.23974 0.54937
 O183 O 0.59156 0.24694 0.53090
 O184 O 0.59358 0.33109 0.54299
 C185 C 0.61670 0.37747 0.54956
 O186 O 0.66901 0.40689 0.45526
 O187 O 0.75341 0.40911 0.46724
 C188 C 0.76076 0.37817 0.44873
 O189 O 0.73737 0.33173 0.45506
 O190 O 0.65504 0.24720 0.46699
 C191 C 0.61652 0.23967 0.44856
 O192 O 0.59348 0.26295 0.45499
 O193 O 0.59150 0.34514 0.46710
 C194 C 0.62256 0.38373 0.44879
 Cr195 Cr 0.70236 0.40506 0.49920
 Cr196 Cr 0.70234 0.29829 0.49898
 Cr197 Cr 0.59533 0.29794 0.49899
 O198 O 0.66667 0.33376 0.49904
 O199 O 0.33047 0.59465 0.54369
 O200 O 0.24611 0.59250 0.53186
 C201 C 0.23884 0.62359 0.55023
 O202 O 0.26207 0.66995 0.54354
 O203 O 0.34454 0.75427 0.53160
 C204 C 0.38302 0.76168 0.55002
 O205 O 0.40614 0.73852 0.54346
 O206 O 0.40797 0.65623 0.53166
 C207 C 0.37692 0.61780 0.55014
 O208 O 0.34397 0.59243 0.46774
 O209 O 0.26161 0.59432 0.45587
 C210 C 0.23846 0.61747 0.44927
 O211 O 0.24608 0.65604 0.46757
 O212 O 0.33058 0.73845 0.45563
 C213 C 0.37700 0.76174 0.44910
 O214 O 0.40802 0.75427 0.46748
 O215 O 0.40571 0.66986 0.45569
 C216 C 0.38248 0.62342 0.44931
 Cr217 Cr 0.29695 0.59630 0.49978
 Cr218 Cr 0.29722 0.70326 0.49958
 Cr219 Cr 0.40414 0.70332 0.49957
 O220 O 0.33276 0.66763 0.49963
 C221 C 0.45859 0.54892 0.35390
 C222 C 0.44017 0.56706 0.37384
 C223 C 0.41927 0.58755 0.39864
 C224 C 0.40207 0.60435 0.42108
 C225 C 0.45161 0.91231 0.35298
 C226 C 0.43337 0.87572 0.37306
 C227 C 0.41283 0.83436 0.39808
 C228 C 0.39603 0.80040 0.42069
 C229 C 0.08786 0.54103 0.35309
 C230 C 0.12448 0.55956 0.37317
 C231 C 0.16585 0.58053 0.39820
 C232 C 0.19981 0.59779 0.42084
 C233 C 0.54796 0.45999 0.35339
 C234 C 0.56616 0.44163 0.37339
 C235 C 0.58671 0.42073 0.39818
 C236 C 0.60353 0.40346 0.42059
 C237 C 0.53997 0.08868 0.35299
 C238 C 0.55842 0.12533 0.37297
 C239 C 0.57940 0.16683 0.39781
 C240 C 0.59671 0.20091 0.42028
 C241 C 0.91149 0.45280 0.35317
 C242 C 0.87488 0.43466 0.37315
 C243 C 0.83346 0.41415 0.39798
 C244 C 0.79944 0.39731 0.42046
 C245 C 0.54918 0.45804 1.14737
 C246 C 0.56724 0.43974 1.12724
 C247 C 0.58759 0.41902 1.10214
 C248 C 0.60425 0.40196 1.07946
 C249 C 0.91092 0.45133 1.14822
 C250 C 0.87444 0.43314 1.12800
 C251 C 0.83332 0.41269 1.10275
 C252 C 0.79960 0.39594 1.07991
 C253 C 0.54098 0.08871 1.14795
 C254 C 0.55945 0.12515 1.12773
 C255 C 0.58033 0.16629 1.10251
 C256 C 0.59750 0.20005 1.07973
 C257 C 0.45870 0.54806 1.14690
 C258 C 0.44032 0.56605 1.12672
 C259 C 0.41949 0.58637 1.10166
 C260 C 0.40234 0.60305 1.07902
 C261 C 0.08950 0.54054 1.14710
 C262 C 0.12586 0.55875 1.12688
 C263 C 0.16690 0.57939 1.10169
 C264 C 0.20060 0.59642 1.07893
 C265 C 0.45142 0.91010 1.14693
 C266 C 0.43333 0.87365 1.12675
 C267 C 0.41292 0.83244 1.10165
 C268 C 0.39619 0.79859 1.07898
 C269 C 0.54106 0.45124 0.64603
 C270 C 0.55931 0.43321 0.62581
 C271 C 0.58003 0.41288 0.60069
 C272 C 0.59713 0.39627 0.57801
 C273 C 0.54866 0.08983 0.64567
 C274 C 0.56674 0.12627 0.62553
 C275 C 0.58712 0.16745 0.60047
 C276 C 0.60379 0.20127 0.57781
 C277 C 0.91088 0.45962 0.64614
 C278 C 0.87442 0.44127 0.62593
 C279 C 0.83321 0.42048 0.60078
 C280 C 0.79935 0.40335 0.57805
 C281 C 0.45103 0.54178 0.64642
 C282 C 0.43300 0.56022 0.62628
 C283 C 0.41264 0.58109 0.60122
 C284 C 0.39594 0.59825 0.57857
 C285 C 0.45915 0.91133 0.64671
 C286 C 0.44069 0.87489 0.62652
 C287 C 0.41981 0.83379 0.60134
 C288 C 0.40263 0.80007 0.57856
 C289 C 0.08955 0.54933 0.64734
 C290 C 0.12594 0.56755 0.62708
 C291 C 0.16694 0.58801 0.60177
 C292 C 0.20056 0.60470 0.57889
 C293 C 0.45122 0.54065 0.85358
 C294 C 0.43314 0.55889 0.87376
 C295 C 0.41273 0.57959 0.89880
 C296 C 0.39600 0.59666 0.92142
 C297 C 0.08932 0.54792 0.85250
 C298 C 0.12575 0.56598 0.87276
 C299 C 0.16685 0.58631 0.89802
 C300 C 0.20058 0.60296 0.92085
 C301 C 0.45861 0.90914 0.85279
 C302 C 0.44031 0.87282 0.87305
 C303 C 0.41959 0.83181 0.89827
 C304 C 0.40253 0.79816 0.92108
 C305 C 0.54153 0.45041 0.85325
 C306 C 0.55985 0.43236 0.87348
 C307 C 0.58061 0.41204 0.89870
 C308 C 0.59770 0.39542 0.92149
 C309 C 0.91067 0.45835 0.85328
 C310 C 0.87431 0.43995 0.87355
 C311 C 0.83330 0.41918 0.89885
 C312 C 0.79963 0.40212 0.92168
 C313 C 0.54916 0.08989 0.85277
 C314 C 0.56722 0.12615 0.87313
 C315 C 0.58753 0.16702 0.89853
 C316 C 0.60416 0.20055 0.92147
   
