data_POSCAR
  _audit_creation_date              2014-09-24
  _audit_creation_method            'ToBaCCo'
  _symmetry_space_group_name_H-M    'P1'
  _symmetry_Int_Tables_number       1
  _symmetry_cell_setting            triclinic
  loop_
  _symmetry_equiv_pos_as_xyz
 x,y,z
_cell_length_a 57.1483
_cell_length_b 59.0551
_cell_length_c 55.3827
_cell_angle_alpha 92.516000
_cell_angle_beta 90.138600
_cell_angle_gamma 94.271600
loop_
  _atom_site_label
  _atom_site_type_symbol
  _atom_site_fract_x
  _atom_site_fract_y
  _atom_site_fract_z
C1 C 0.26752 0.45300 0.99211
 C2 C 0.25013 0.45176 1.01325
 C3 C 0.23652 0.46976 1.01546
 C4 C 0.24122 0.48727 0.99590
 C5 C 0.25171 0.45537 0.97001
 C6 C 0.23791 0.47322 0.97191
 C7 C 0.28120 0.47613 0.99591
 C8 C 0.26760 0.49400 0.99794
 H9 H 0.24890 0.43794 1.02549
 H10 H 0.23011 0.50188 0.99751
 H11 H 0.25036 0.44317 0.95486
 H12 H 0.30016 0.47810 0.99745
 C13 C 0.73775 0.55137 0.00744
 C14 C 0.75577 0.55079 0.02796
 C15 C 0.76781 0.53169 0.02755
 C16 C 0.76083 0.51482 0.00633
 C17 C 0.75223 0.54802 -0.01568
 C18 C 0.76430 0.52892 -0.01628
 C19 C 0.72232 0.52919 0.00901
 C20 C 0.73419 0.51012 0.00858
 H21 H 0.75842 0.56430 0.04177
 H22 H 0.77045 0.49918 0.00575
 H23 H 0.75480 0.56049 -0.02929
 H24 H 0.70334 0.52873 0.00985
 C25 C 0.04417 0.23298 0.49698
 C26 C 0.04268 0.24790 0.47690
 C27 C 0.02080 0.25834 0.47499
 C28 C 0.00458 0.25189 0.49449
 C29 C 0.03911 0.24816 0.51937
 C30 C 0.01838 0.25809 0.51814
 C31 C 0.02267 0.21607 0.49432
 C32 C 0.00193 0.22574 0.49295
 H33 H 0.05799 0.25269 0.46634
 H34 H -0.01272 0.25902 0.49426
 H35 H 0.05179 0.25285 0.53359
 H36 H 0.02388 0.19783 0.49401
 C37 C 0.95518 0.76804 0.50130
 C38 C 0.96113 0.75322 0.47892
 C39 C 0.98120 0.74232 0.48124
 C40 C 0.99360 0.74729 0.50580
 C41 C 0.95458 0.75142 0.52193
 C42 C 0.97466 0.74058 0.52444
 C43 C 0.97714 0.78394 0.50617
 C44 C 0.99722 0.77330 0.50851
 H45 H 0.94921 0.74943 0.46384
 H46 H 1.01009 0.73872 0.50759
 H47 H 0.93936 0.74827 0.53321
 H48 H 0.97682 0.80228 0.50686
 C49 C 0.49785 0.03995 0.22159
 C50 C 0.47409 0.03750 0.23435
 C51 C 0.47176 0.02009 0.24970
 C52 C 0.49354 0.00625 0.25046
 C53 C 0.51602 0.04172 0.24234
 C54 C 0.51380 0.02405 0.25745
 C55 C 0.50074 0.01788 0.20986
 C56 C 0.49830 -0.00087 0.22543
 H57 H 0.46066 0.04924 0.23199
 H58 H 0.49191 -0.00756 0.26336
 H59 H 0.53068 0.05432 0.24393
 H60 H 0.50360 0.01588 0.19060
 C61 C 0.49936 -0.04277 0.77704
 C62 C 0.47710 -0.04224 0.76154
 C63 C 0.47743 -0.02475 0.74625
 C64 C 0.50023 -0.00912 0.74795
 C65 C 0.51917 -0.04296 0.75825
 C66 C 0.51977 -0.02527 0.74319
 C67 C 0.50257 -0.01924 0.78981
 C68 C 0.50305 -0.00167 0.77475
 H69 H 0.46266 -0.05514 0.76216
 H70 H 0.50077 0.00520 0.73561
 H71 H 0.53135 -0.05605 0.75646
 H72 H 0.50457 -0.01676 0.80923
 C73 C 0.28732 0.01155 0.47278
 H74 H 0.29067 0.02326 0.48818
 C75 C 0.30217 0.01253 0.45289
 H76 H 0.31711 0.02495 0.45319
 C77 C 0.26383 -0.01905 0.45395
 H78 H 0.24873 -0.03119 0.45448
 C79 C 0.27838 -0.01877 0.43366
 H80 H 0.27431 -0.03067 0.41854
 N81 N 0.26846 -0.00387 0.47285
 C82 C 0.21888 0.02871 0.52033
 H83 H 0.21642 0.01672 0.53449
 C84 C 0.20632 0.04814 0.52086
 H85 H 0.19419 0.05089 0.53550
 C86 C 0.23664 0.03891 0.48337
 H87 H 0.24814 0.03514 0.46853
 C88 C 0.22450 0.05855 0.48323
 H89 H 0.22724 0.06987 0.46848
 Zn90 Zn 0.24933 -0.00305 0.50057
 N91 N 0.23368 0.02440 0.50173
 C92 C 0.26944 0.01139 0.54672
 N93 N 0.26952 -0.00410 0.52777
 C94 C 0.28521 -0.02034 0.52687
 C95 C 0.30109 -0.02194 0.54577
 C96 C 0.28508 0.01044 0.56603
 C97 C 0.20349 -0.02468 0.49787
 C98 C 0.18626 -0.04260 0.49912
 C99 C 0.21677 -0.06840 0.50276
 C100 C 0.23346 -0.04992 0.50158
 N101 N 0.22662 -0.02846 0.49973
 H102 H 0.25744 0.02464 0.54690
 H103 H 0.28586 -0.03173 0.51114
 H104 H 0.31360 -0.03482 0.54449
 H105 H 0.28454 0.02271 0.58109
 H106 H 0.19826 -0.00772 0.49557
 H107 H 0.16796 -0.03915 0.49788
 H108 H 0.22254 -0.08524 0.50497
 H109 H 0.25185 -0.05278 0.50251
 C110 C 0.20891 0.06330 0.50203
 C111 C 0.29770 -0.00264 0.43290
 C112 C 0.19280 -0.06475 0.50204
 C113 C 0.30111 -0.00648 0.56575
 C114 C 0.71487 0.01960 0.52896
 H115 H 0.71496 0.03312 0.51639
 C116 C 0.69897 0.01903 0.54809
 H117 H 0.68683 0.03221 0.55009
 C118 C 0.72951 -0.01486 0.54050
 H119 H 0.74093 -0.02840 0.53714
 C120 C 0.71398 -0.01605 0.55988
 H121 H 0.71410 -0.03027 0.57156
 N122 N 0.72956 0.00269 0.52540
 C123 C 0.78439 0.02886 0.47722
 H124 H 0.78242 0.01582 0.46287
 C125 C 0.80187 0.04651 0.47585
 H126 H 0.81304 0.04708 0.46009
 C127 C 0.77192 0.04380 0.51506
 H128 H 0.76043 0.04243 0.53047
 C129 C 0.78934 0.06173 0.51450
 H130 H 0.79114 0.07397 0.52964
 Zn131 Zn 0.74766 0.00243 0.49686
 N132 N 0.76978 0.02787 0.49653
 C133 C 0.72758 0.02018 0.45539
 N134 N 0.72628 0.00279 0.47076
 C135 C 0.70847 -0.01382 0.46915
 C136 C 0.69104 -0.01338 0.45150
 C137 C 0.71052 0.02128 0.43750
 C138 C 0.78166 -0.02530 0.51181
 C139 C 0.79498 -0.04415 0.51181
 C140 C 0.77382 -0.05947 0.47621
 C141 C 0.76083 -0.04029 0.47693
 N142 N 0.76474 -0.02385 0.49477
 H143 H 0.74150 0.03354 0.45730
 H144 H 0.70757 -0.02717 0.48196
 H145 H 0.67671 -0.02647 0.45087
 H146 H 0.71188 0.03525 0.42543
 H147 H 0.78468 -0.01178 0.52554
 H148 H 0.80840 -0.04491 0.52552
 H149 H 0.77021 -0.07259 0.46215
 H150 H 0.74764 -0.03862 0.46326
 C151 C 0.80472 0.06316 0.49475
 C152 C 0.69811 0.00080 0.56361
 C153 C 0.79103 -0.06165 0.49395
 C154 C 0.69181 0.00447 0.43552
 C155 C 0.49673 0.21899 1.00134
 H156 H 0.48376 0.21818 0.98701
 C157 C 0.49489 0.20326 1.01943
 H158 H 0.48016 0.19061 1.01907
 C159 C 0.53144 0.23681 1.01924
 H160 H 0.54591 0.24963 1.01885
 C161 C 0.53039 0.22130 1.03759
 H162 H 0.54416 0.22241 1.05114
 N163 N 0.51453 0.23561 1.00180
 C164 C 0.48661 0.28889 0.96055
 H165 H 0.50034 0.29161 0.94735
 C166 C 0.46747 0.30229 0.96087
 H167 H 0.46665 0.31538 0.94787
 C168 C 0.47168 0.26926 0.99429
 H169 H 0.47358 0.25677 1.00766
 C170 C 0.45227 0.28226 0.99526
 H171 H 0.43915 0.27915 1.00903
 Zn172 Zn 0.51554 0.25622 0.97654
 N173 N 0.48829 0.27264 0.97700
 C174 C 0.50159 0.23905 0.92930
 N175 N 0.51771 0.23875 0.94736
 C176 C 0.53500 0.22415 0.94621
 C177 C 0.53621 0.20861 0.92664
 C178 C 0.50231 0.22396 0.90921
 C179 C 0.54166 0.29151 1.00094
 C180 C 0.55952 0.30863 1.00494
 C181 C 0.57670 0.29743 0.96683
 C182 C 0.55856 0.28029 0.96367
 N183 N 0.54151 0.27772 0.98064
 H184 H 0.48775 0.25052 0.93071
 H185 H 0.54735 0.22404 0.96103
 H186 H 0.54948 0.19647 0.92677
 H187 H 0.48925 0.22443 0.89508
 H188 H 0.52773 0.28919 1.01400
 H189 H 0.55939 0.31916 1.02143
 H190 H 0.58975 0.29964 0.95282
 H191 H 0.55783 0.26940 0.94744
 C192 C 0.45001 0.29911 0.97846
 C193 C 0.51183 0.20432 1.03796
 C194 C 0.57722 0.31202 0.98761
 C195 C 0.51951 0.20812 0.90790
 C196 C 0.47189 0.77883 -0.00284
 H197 H 0.46127 0.78175 0.01297
 C198 C 0.47188 0.79366 -0.02178
 H199 H 0.46131 0.80812 -0.02028
 C200 C 0.49933 0.75687 -0.02341
 H201 H 0.50997 0.74248 -0.02393
 C202 C 0.49981 0.77125 -0.04278
 H203 H 0.51076 0.76765 -0.05820
 N204 N 0.48564 0.76099 -0.00390
 C205 C 0.45579 0.70749 0.04121
 H206 H 0.46970 0.70615 0.05423
 C207 C 0.43591 0.69225 0.04135
 H208 H 0.43491 0.67915 0.05446
 C209 C 0.44112 0.72528 0.00741
 H210 H 0.44330 0.73800 -0.00599
 C211 C 0.42081 0.71058 0.00709
 H212 H 0.40744 0.71250 -0.00638
 Zn213 Zn 0.48639 0.74261 0.02313
 N214 N 0.45821 0.72342 0.02420
 C215 C 0.47677 0.75853 0.07152
 N216 N 0.48957 0.76227 0.05119
 C217 C 0.50479 0.78098 0.04976
 C218 C 0.50782 0.79666 0.06924
 C219 C 0.47935 0.77379 0.09156
 C220 C 0.51003 0.70186 0.01820
 C221 C 0.52954 0.68895 0.01720
 C222 C 0.55466 0.72370 0.02002
 C223 C 0.53468 0.73594 0.02127
 N224 N 0.51288 0.72494 0.02065
 H225 H 0.46445 0.74383 0.07229
 H226 H 0.51418 0.78407 0.03317
 H227 H 0.51959 0.81170 0.06734
 H228 H 0.46920 0.77040 0.10766
 H229 H 0.49268 0.69334 0.01690
 H230 H 0.52696 0.67060 0.01538
 H231 H 0.57186 0.73274 0.02090
 H232 H 0.53665 0.75426 0.02274
 C233 C 0.41812 0.69352 0.02399
 C234 C 0.48613 0.79008 -0.04202
 C235 C 0.55219 0.69989 0.01825
 C236 C 0.49507 0.79318 0.09057
 C237 C 1.03167 0.47623 0.22095
 H238 H 1.01671 0.46386 0.22021
 C239 C 1.04979 0.47441 0.20435
 H240 H 1.04853 0.46062 0.19076
 C241 C 1.05076 0.50978 0.23901
 H242 H 1.05085 0.52372 0.25232
 C243 C 1.06932 0.50862 0.22269
 H244 H 1.08382 0.52152 0.22390
 N245 N 1.03250 0.49361 0.23792
 C246 C 0.98497 0.46575 0.29262
 H247 H 0.97157 0.47777 0.29311
 C248 C 0.98318 0.44722 0.30756
 H249 H 0.96806 0.44491 0.31917
 C250 C 1.02093 0.45430 0.27684
 H251 H 1.03592 0.45738 0.26529
 C252 C 1.01995 0.43571 0.29159
 H253 H 1.03434 0.42477 0.29115
 Zn254 Zn 1.00598 0.49464 0.25821
 N255 N 1.00351 0.46879 0.27744
 C256 C 0.96101 0.47982 0.23717
 N257 N 0.97981 0.49539 0.23730
 C258 C 0.98131 0.51236 0.22144
 C259 C 0.96316 0.51463 0.20509
 C260 C 0.94238 0.48147 0.22104
 C261 C 1.02605 0.52379 0.29566
 C262 C 1.02781 0.54275 0.31179
 C263 C 0.99264 0.55535 0.29406
 C264 C 0.99154 0.53618 0.27835
 N265 N 1.00823 0.52097 0.27922
 H266 H 0.96039 0.46614 0.24951
 H267 H 0.99668 0.52422 0.22161
 H268 H 0.96483 0.52822 0.19257
 H269 H 0.92734 0.46922 0.22146
 H270 H 1.03890 0.51126 0.29623
 H271 H 1.04226 0.54485 0.32456
 H272 H 0.97897 0.56704 0.29326
 H273 H 0.97709 0.53335 0.26573
 C274 C 1.00087 0.43188 0.30721
 C275 C 1.06897 0.49073 0.20506
 C276 C 1.01097 0.55888 0.31105
 C277 C 0.94325 0.49920 0.20486
 C278 C -0.02999 0.48760 0.78158
 H279 H -0.01703 0.47515 0.78142
 C280 C -0.04781 0.48685 0.79880
 H281 H -0.04867 0.47348 0.81161
 C282 C -0.04439 0.52026 0.76513
 H283 H -0.04272 0.53356 0.75234
 C284 C -0.06248 0.52015 0.78203
 H285 H -0.07452 0.53346 0.78203
 N286 N -0.02868 0.50405 0.76510
 C287 C 0.01017 0.47904 0.70309
 H288 H 0.02282 0.49341 0.70122
 C289 C 0.00969 0.46066 0.68635
 H290 H 0.02221 0.46087 0.67170
 C291 C -0.02145 0.46131 0.72460
 H292 H -0.03379 0.46177 0.73932
 C293 C -0.02238 0.44245 0.70839
 H294 H -0.03545 0.42850 0.71079
 Zn295 Zn -0.00312 0.50494 0.74335
 N296 N -0.00514 0.47899 0.72186
 C297 C 0.03986 0.48918 0.75861
 N298 N 0.02464 0.50563 0.76218
 C299 C 0.02774 0.52150 0.78068
 C300 C 0.04650 0.52091 0.79683
 C301 C 0.05886 0.48801 0.77424
 C302 C -0.02122 0.53075 0.70800
 C303 C -0.02259 0.54884 0.69282
 C304 C 0.01290 0.56662 0.71126
 C305 C 0.01361 0.54811 0.72610
 N306 N -0.00345 0.53076 0.72434
 H307 H 0.03695 0.47650 0.74406
 H308 H 0.01514 0.53416 0.78336
 H309 H 0.04817 0.53318 0.81196
 H310 H 0.07067 0.47468 0.77115
 H311 H -0.03432 0.51654 0.70671
 H312 H -0.03675 0.54828 0.67974
 H313 H 0.02640 0.58045 0.71316
 H314 H 0.02778 0.54762 0.73897
 C315 C -0.00667 0.44200 0.68896
 C316 C -0.06434 0.50332 0.79923
 C317 C -0.00544 0.56717 0.69438
 C318 C 0.06214 0.50373 0.79396
 C319 C 0.10322 0.19051 0.49839
 C320 C 0.09511 0.20056 0.51995
 C321 C 0.07686 0.21506 0.51960
 C322 C 0.06648 0.22029 0.49761
 C323 C 0.07491 0.21035 0.47604
 C324 C 0.09314 0.19588 0.47640
 C325 C 0.12093 0.17338 0.49888
 N326 N 0.12746 0.16251 0.47813
 N327 N 0.14227 0.14616 0.47862
 C328 C 0.15121 0.13994 0.49987
 N329 N 0.14490 0.15098 0.52062
 N330 N 0.13006 0.16733 0.52013
 C331 C 0.16679 0.12095 0.50042
 C332 C 0.17639 0.11463 0.52232
 C333 C 0.19026 0.09611 0.52285
 C334 C 0.19484 0.08346 0.50150
 C335 C 0.18544 0.08995 0.47959
 C336 C 0.17164 0.10847 0.47905
 H337 H 0.10228 0.19660 0.53725
 H338 H 0.07032 0.22123 0.53676
 H339 H 0.06681 0.21314 0.45884
 H340 H 0.09877 0.18832 0.45944
 H341 H 0.17309 0.12390 0.53912
 H342 H 0.19749 0.09174 0.53998
 H343 H 0.18829 0.08038 0.46287
 H344 H 0.16447 0.11276 0.46187
 C345 C 0.68958 0.60495 0.01385
 C346 C 0.69443 0.59184 0.03353
 C347 C 0.71079 0.57549 0.03146
 C348 C 0.72281 0.57170 0.00966
 C349 C 0.71846 0.58540 -0.00983
 C350 C 0.70217 0.60193 -0.00767
 C351 C 0.67042 0.62052 0.01535
 N352 N 0.66747 0.63558 -0.00206
 N353 N 0.64944 0.64867 -0.00125
 C354 C 0.63354 0.64712 0.01692
 N355 N 0.63660 0.63217 0.03439
 N356 N 0.65466 0.61918 0.03363
 C357 C 0.61291 0.66090 0.01739
 C358 C 0.59369 0.65512 0.03229
 C359 C 0.57395 0.66771 0.03240
 C360 C 0.57310 0.68650 0.01786
 C361 C 0.59237 0.69247 0.00313
 C362 C 0.61202 0.67969 0.00277
 H363 H 0.68514 0.59377 0.05043
 H364 H 0.71344 0.56510 0.04673
 H365 H 0.72670 0.58301 -0.02716
 H366 H 0.69875 0.61169 -0.02322
 H367 H 0.59377 0.64071 0.04371
 H368 H 0.55942 0.66290 0.04410
 H369 H 0.59207 0.70682 -0.00835
 H370 H 0.62655 0.68459 -0.00888
 C371 C 0.89735 -0.18824 0.49728
 C372 C 0.90551 -0.19489 0.51964
 C373 C 0.92352 -0.20954 0.52074
 C374 C 0.93356 -0.21846 0.49951
 C375 C 0.92529 -0.21180 0.47710
 C376 C 0.90730 -0.19705 0.47601
 C377 C 0.87958 -0.17121 0.49629
 N378 N 0.87316 -0.16302 0.47490
 N379 N 0.85813 -0.14684 0.47422
 C380 C 0.84886 -0.13818 0.49491
 N381 N 0.85511 -0.14654 0.51625
 N382 N 0.87013 -0.16269 0.51693
 C383 C 0.83304 -0.11938 0.49439
 C384 C 0.82409 -0.11019 0.51601
 C385 C 0.81021 -0.09171 0.51577
 C386 C 0.80491 -0.08194 0.49392
 C387 C 0.81340 -0.09141 0.47223
 C388 C 0.82734 -0.10991 0.47245
 H389 H 0.89851 -0.18822 0.53642
 H390 H 0.93009 -0.21333 0.53834
 H391 H 0.93322 -0.21718 0.46031
 H392 H 0.90166 -0.19207 0.45847
 H393 H 0.82799 -0.11710 0.53322
 H394 H 0.80360 -0.08506 0.53275
 H395 H 0.80978 -0.08414 0.45512
 H396 H 0.83393 -0.11653 0.45546
 C397 C 0.31858 0.40177 0.98764
 C398 C 0.31059 0.40989 1.01013
 C399 C 0.29379 0.42592 1.01145
 C400 C 0.28409 0.43392 0.99033
 C401 C 0.29249 0.42602 0.96783
 C402 C 0.30926 0.40997 0.96651
 C403 C 0.33721 0.38558 0.98622
 N404 N 0.34517 0.37790 0.96449
 N405 N 0.36238 0.36388 0.96323
 C406 C 0.37239 0.35695 0.98363
 N407 N 0.36435 0.36453 1.00536
 N408 N 0.34714 0.37854 1.00663
 C409 C 0.39195 0.34179 0.98226
 C410 C 0.40287 0.33545 1.00344
 C411 C 0.42161 0.32156 1.00218
 C412 C 0.42988 0.31364 0.97972
 C413 C 0.41891 0.31987 0.95852
 C414 C 0.40015 0.33378 0.95977
 H415 H 0.31764 0.40423 1.02680
 H416 H 0.28883 0.43244 1.02912
 H417 H 0.28678 0.43265 0.95110
 H418 H 0.31532 0.40442 0.94887
 H419 H 0.39710 0.34137 1.02106
 H420 H 0.42991 0.31736 1.01883
 H421 H 0.42469 0.31381 0.94095
 H422 H 0.39212 0.33826 0.94309
 C423 C 0.93801 0.18247 0.48788
 C424 C 0.93886 0.20294 0.50199
 C425 C 0.95937 0.21756 0.50302
 C426 C 0.97935 0.21188 0.49006
 C427 C 0.97811 0.19196 0.47519
 C428 C 0.95773 0.17746 0.47410
 C429 C 0.91732 0.16574 0.48821
 N430 N 0.91816 0.14505 0.47669
 N431 N 0.90022 0.12944 0.47771
 C432 C 0.88059 0.13377 0.49029
 N433 N 0.87959 0.15455 0.50169
 N434 N 0.89761 0.17020 0.50072
 C435 C 0.86103 0.11592 0.49176
 C436 C 0.83921 0.12081 0.50159
 C437 C 0.82090 0.10374 0.50266
 C438 C 0.82407 0.08142 0.49402
 C439 C 0.84600 0.07655 0.48452
 C440 C 0.86418 0.09357 0.48330
 H441 H 0.92394 0.20735 0.51277
 H442 H 0.95991 0.23279 0.51471
 H443 H 0.99310 0.18740 0.46460
 H444 H 0.95768 0.16204 0.46277
 H445 H 0.83620 0.13786 0.50822
 H446 H 0.80416 0.10811 0.50989
 H447 H 0.84926 0.05947 0.47822
 H448 H 0.88081 0.08909 0.47587
 C449 C 0.30042 0.56098 0.01190
 C450 C 0.30505 0.54316 0.02679
 C451 C 0.29394 0.52151 0.02251
 C452 C 0.27766 0.51734 0.00355
 C453 C 0.27209 0.53529 -0.01063
 C454 C 0.28358 0.55692 -0.00667
 C455 C 0.31431 0.58310 0.01484
 N456 N 0.31679 0.59723 -0.00384
 N457 N 0.33109 0.61612 -0.00192
 C458 C 0.34337 0.62171 0.01880
 N459 N 0.34051 0.60781 0.03762
 N460 N 0.32634 0.58887 0.03565
 C461 C 0.36083 0.64155 0.02029
 C462 C 0.36998 0.65001 0.04276
 C463 C 0.38800 0.66738 0.04402
 C464 C 0.39753 0.67650 0.02283
 C465 C 0.38788 0.66843 0.00039
 C466 C 0.36965 0.65128 -0.00085
 H467 H 0.31794 0.54569 0.04121
 H468 H 0.29829 0.50789 0.03380
 H469 H 0.25964 0.53236 -0.02538
 H470 H 0.27959 0.57036 -0.01836
 H471 H 0.36339 0.64302 0.05939
 H472 H 0.39461 0.67350 0.06163
 H473 H 0.39496 0.67475 -0.01634
 H474 H 0.36311 0.64504 -0.01845
 C475 C 0.06234 -0.18562 0.51562
 C476 C 0.04276 -0.18045 0.52957
 C477 C 0.02196 -0.19434 0.52793
 C478 C 0.02022 -0.21384 0.51243
 C479 C 0.04007 -0.21982 0.49946
 C480 C 0.06095 -0.20577 0.50094
 C481 C 0.08335 -0.16925 0.51542
 N482 N 0.10168 -0.17272 0.50045
 N483 N 0.11969 -0.15709 0.49920
 C484 C 0.12007 -0.13733 0.51281
 N485 N 0.10187 -0.13405 0.52796
 N486 N 0.08393 -0.14964 0.52923
 C487 C 0.13928 -0.11922 0.51057
 C488 C 0.13778 -0.09794 0.52267
 C489 C 0.15518 -0.08042 0.51990
 C490 C 0.17463 -0.08370 0.50506
 C491 C 0.17645 -0.10506 0.49326
 C492 C 0.15889 -0.12263 0.49591
 H493 H 0.04319 -0.16523 0.54126
 H494 H 0.00700 -0.18956 0.53844
 H495 H 0.03912 -0.23475 0.48732
 H496 H 0.07574 -0.21033 0.49006
 H497 H 0.12298 -0.09467 0.53416
 H498 H 0.15350 -0.06427 0.52955
 H499 H 0.19121 -0.10803 0.48162
 H500 H 0.16061 -0.13879 0.48633
 C501 C 0.69487 0.44529 1.00950
 C502 C 0.68920 0.46345 1.02513
 C503 C 0.70258 0.48415 1.02543
 C504 C 0.72199 0.48726 1.01015
 C505 C 0.72855 0.46884 0.99546
 C506 C 0.71505 0.44801 0.99507
 C507 C 0.67881 0.42437 1.00741
 N508 N 0.68396 0.40614 0.99308
 N509 N 0.66865 0.38801 0.99031
 C510 C 0.64755 0.38746 1.00163
 N511 N 0.64256 0.40560 1.01608
 N512 N 0.65785 0.42362 1.01891
 C513 C 0.62987 0.36795 0.99789
 C514 C 0.60657 0.37011 1.00514
 C515 C 0.58961 0.35205 1.00159
 C516 C 0.59550 0.33120 0.99096
 C517 C 0.61881 0.32901 0.98360
 C518 C 0.63581 0.34724 0.98695
 H519 H 0.67402 0.46192 1.03677
 H520 H 0.69745 0.49794 1.03734
 H521 H 0.74345 0.47085 0.98348
 H522 H 0.71995 0.43433 0.98290
 H523 H 0.60128 0.38590 1.01333
 H524 H 0.57175 0.35458 1.00692
 H525 H 0.62399 0.31313 0.97555
 H526 H 0.65363 0.34504 0.98121
 C527 C 0.49986 0.09255 1.16857
 C528 C 0.48451 0.07292 1.16590
 C529 C 0.48377 0.05654 1.18333
 C530 C 0.49870 0.05900 1.20371
 C531 C 0.51348 0.07915 1.20675
 C532 C 0.51405 0.09566 1.18937
 C533 C 0.50127 0.10945 1.14954
 N534 N 0.51312 0.13009 1.15343
 N535 N 0.51470 0.14507 1.13609
 C536 C 0.50459 0.13996 1.11410
 N537 N 0.49273 0.11933 1.11024
 N538 N 0.49108 0.10440 1.12759
 C539 C 0.50655 0.15644 1.09468
 C540 C 0.50015 0.14956 1.07080
 C541 C 0.50203 0.16503 1.05242
 C542 C 0.51016 0.18780 1.05749
 C543 C 0.51654 0.19467 1.08139
 C544 C 0.51484 0.17915 1.09975
 H545 H 0.47304 0.07013 1.15030
 H546 H 0.47169 0.04160 1.18070
 H547 H 0.52462 0.08256 1.22241
 H548 H 0.52587 0.11076 1.19211
 H549 H 0.49389 0.13214 1.06623
 H550 H 0.49738 0.15904 1.03416
 H551 H 0.52251 0.21216 1.08600
 H552 H 0.51979 0.18503 1.11798
 C553 C -0.01779 0.68980 0.57705
 C554 C 0.00178 0.70372 0.56988
 C555 C -0.00065 0.72022 0.55282
 C556 C -0.02267 0.72309 0.54251
 C557 C -0.04216 0.70901 0.54953
 C558 C -0.03977 0.69265 0.56662
 C559 C -0.01551 0.67238 0.59525
 N560 N -0.03491 0.66103 0.60417
 N561 N -0.03304 0.64525 0.62035
 C562 C -0.01168 0.64007 0.62834
 N563 N 0.00776 0.65144 0.61946
 N564 N 0.00589 0.66730 0.60329
 C565 C -0.00979 0.62210 0.64601
 C566 C 0.01211 0.61445 0.65203
 C567 C 0.01361 0.59686 0.66798
 C568 C -0.00675 0.58657 0.67829
 C569 C -0.02857 0.59459 0.67265
 C570 C -0.03007 0.61207 0.65668
 H571 H 0.01895 0.70204 0.57761
 H572 H 0.01466 0.73097 0.54806
 H573 H -0.05928 0.71035 0.54157
 H574 H -0.05519 0.68210 0.57151
 H575 H 0.02809 0.62177 0.64411
 H576 H 0.03067 0.59093 0.67175
 H577 H -0.04454 0.58735 0.68064
 H578 H -0.04722 0.61766 0.65266
 C579 C 0.49525 0.90483 -0.16974
 C580 C 0.51623 0.90970 -0.18229
 C581 C 0.51774 0.92638 -0.19947
 C582 C 0.49813 0.93840 -0.20491
 C583 C 0.47740 0.93398 -0.19166
 C584 C 0.47589 0.91726 -0.17455
 C585 C 0.49370 0.88722 -0.15142
 N586 N 0.47313 0.88173 -0.14010
 N587 N 0.47179 0.86606 -0.12348
 C588 C 0.49096 0.85521 -0.11746
 N589 N 0.51152 0.86066 -0.12882
 N590 N 0.51286 0.87631 -0.14546
 C591 C 0.48958 0.83807 -0.09864
 C592 C 0.50986 0.82819 -0.09111
 C593 C 0.50868 0.81249 -0.07293
 C594 C 0.48719 0.80622 -0.06188
 C595 C 0.46686 0.81588 -0.06960
 C596 C 0.46804 0.83163 -0.08775
 H597 H 0.53165 0.90075 -0.17871
 H598 H 0.53451 0.93002 -0.20792
 H599 H 0.46229 0.94360 -0.19443
 H600 H 0.45956 0.91428 -0.16492
 H601 H 0.52675 0.83280 -0.09904
 H602 H 0.52472 0.80562 -0.06716
 H603 H 0.44999 0.81116 -0.06169
 H604 H 0.45205 0.83879 -0.09319
 C605 C 1.00896 0.30613 0.42125
 C606 C 0.99361 0.30356 0.44079
 C607 C 0.99696 0.28751 0.45805
 C608 C 1.01624 0.27378 0.45672
 C609 C 1.03110 0.27607 0.43643
 C610 C 1.02748 0.29192 0.41904
 C611 C 1.00599 0.32385 0.40355
 N612 N 1.01773 0.32361 0.38226
 N613 N 1.01568 0.33994 0.36671
 C614 C 1.00189 0.35728 0.37184
 N615 N 0.99007 0.35748 0.39310
 N616 N 0.99203 0.34108 0.40859
 C617 C 1.00041 0.37592 0.35495
 C618 C 0.99123 0.39647 0.36256
 C619 C 0.99106 0.41450 0.34701
 C620 C 0.99988 0.41234 0.32340
 C621 C 1.00845 0.39154 0.31561
 C622 C 1.00883 0.37361 0.33122
 H623 H 0.97893 0.31407 0.44286
 H624 H 0.98449 0.28678 0.47257
 H625 H 1.04547 0.26546 0.43336
 H626 H 1.03951 0.29323 0.40400
 H627 H 0.98470 0.39886 0.38076
 H628 H 0.98462 0.43034 0.35377
 H629 H 1.01491 0.38907 0.29740
 H630 H 1.01580 0.35793 0.32469
 C631 C 0.50437 0.93144 0.19813
 C632 C 0.49172 0.93550 0.21936
 C633 C 0.49036 0.95770 0.22898
 C634 C 0.50094 0.97646 0.21707
 C635 C 0.51404 0.97203 0.19605
 C636 C 0.51590 0.94989 0.18690
 C637 C 0.50476 0.90836 0.18679
 N638 N 0.52239 0.90327 0.17158
 N639 N 0.52179 0.88329 0.15944
 C640 C 0.50344 0.86760 0.16184
 N641 N 0.48594 0.87253 0.17735
 N642 N 0.48663 0.89249 0.18966
 C643 C 0.50175 0.84656 0.14620
 C644 C 0.48001 0.83430 0.14186
 C645 C 0.47794 0.81639 0.12440
 C646 C 0.49761 0.81028 0.11109
 C647 C 0.51957 0.82171 0.11652
 C648 C 0.52160 0.83970 0.13377
 H649 H 0.48271 0.92152 0.22842
 H650 H 0.47989 0.95995 0.24498
 H651 H 0.52351 0.98554 0.18673
 H652 H 0.52591 0.94730 0.17056
 H653 H 0.46437 0.83922 0.15110
 H654 H 0.46073 0.80806 0.12057
 H655 H 0.53518 0.81705 0.10704
 H656 H 0.53866 0.84860 0.13693
 C657 C 0.00222 0.31036 0.57077
 C658 C 0.01086 0.29006 0.57816
 C659 C 0.01564 0.27284 0.56112
 C660 C 0.01165 0.27546 0.53640
 C661 C 0.00240 0.29542 0.52910
 C662 C -0.00221 0.31270 0.54606
 C663 C -0.00116 0.32938 0.58849
 N664 N -0.00502 0.35033 0.58084
 N665 N -0.00701 0.36774 0.59663
 C666 C -0.00530 0.36495 0.62076
 N667 N -0.00166 0.34394 0.62844
 N668 N 0.00042 0.32654 0.61264
 C669 C -0.00659 0.38457 0.63823
 C670 C -0.00854 0.38131 0.66316
 C671 C -0.00898 0.39993 0.67962
 C672 C -0.00722 0.42220 0.67150
 C673 C -0.00549 0.42546 0.64659
 C674 C -0.00530 0.40686 0.63013
 H675 H 0.01447 0.28767 0.59704
 H676 H 0.02266 0.25753 0.56724
 H677 H -0.00039 0.29814 0.51020
 H678 H -0.00887 0.32809 0.53972
 H679 H -0.00963 0.36437 0.67000
 H680 H -0.01016 0.39695 0.69875
 H681 H -0.00437 0.44244 0.63983
 H682 H -0.00378 0.41001 0.61106
 C683 C 0.51304 0.06729 0.80290
 C684 C 0.52800 0.05090 0.80996
 C685 C 0.52490 0.02855 0.80055
 C686 C 0.50705 0.02224 0.78360
 C687 C 0.49265 0.03872 0.77582
 C688 C 0.49546 0.06103 0.78556
 C689 C 0.51502 0.09036 0.81461
 N690 N 0.49652 0.10353 0.81480
 N691 N 0.49767 0.12354 0.82699
 C692 C 0.51744 0.13129 0.83934
 N693 N 0.53609 0.11831 0.83878
 N694 N 0.53488 0.09823 0.82673
 C695 C 0.51810 0.15254 0.85461
 C696 C 0.53959 0.16307 0.86311
 C697 C 0.54010 0.18174 0.87955
 C698 C 0.51912 0.19013 0.88815
 C699 C 0.49766 0.18008 0.87890
 C700 C 0.49717 0.16161 0.86221
 H701 H 0.54167 0.05515 0.82332
 H702 H 0.53637 0.01613 0.80662
 H703 H 0.47869 0.03418 0.76291
 H704 H 0.48371 0.07330 0.77973
 H705 H 0.55603 0.15664 0.85737
 H706 H 0.55696 0.18937 0.88583
 H707 H 0.48114 0.18580 0.88533
 H708 H 0.48032 0.15381 0.85609
 C709 C 0.99917 0.69030 0.42899
 C710 C 0.99010 0.71035 0.42147
 C711 C 0.98471 0.72744 0.43837
 C712 C 0.98834 0.72492 0.46317
 C713 C 0.99794 0.70515 0.47067
 C714 C 1.00328 0.68803 0.45378
 C715 C 1.00344 0.67153 0.41119
 N716 N 1.01083 0.65158 0.41852
 N717 N 1.01363 0.63438 0.40266
 C718 C 1.00916 0.63639 0.37877
 N719 N 1.00197 0.65640 0.37143
 N720 N 0.99916 0.67359 0.38728
 C721 C 1.01112 0.61689 0.36123
 C722 C 1.00590 0.61897 0.33664
 C723 C 1.00634 0.60028 0.32032
 C724 C 1.01203 0.57904 0.32816
 C725 C 1.01788 0.57707 0.35261
 C726 C 1.01741 0.59578 0.36896
 H727 H 0.98679 0.71275 0.40252
 H728 H 0.97758 0.74261 0.43203
 H729 H 1.00060 0.70251 0.48967
 H730 H 1.01022 0.67282 0.46024
 H731 H 1.00113 0.63498 0.32998
 H732 H 1.00214 0.60244 0.30153
 H733 H 1.02213 0.56089 0.35925
 H734 H 1.02155 0.59355 0.38775
 C735 C 1.18710 0.47711 0.07344
 C736 C 1.19937 0.49631 0.06414
 C737 C 1.21528 0.49393 0.04520
 C738 C 1.21922 0.47231 0.03512
 C739 C 1.20678 0.45314 0.04425
 C740 C 1.19095 0.45551 0.06319
 C741 C 1.17045 0.47949 0.09374
 N742 N 1.16014 0.46079 0.10395
 N743 N 1.14511 0.46281 0.12211
 C744 C 1.13970 0.48361 0.13087
 N745 N 1.15003 0.50233 0.12070
 N746 N 1.16511 0.50031 0.10255
 C747 C 1.12251 0.48570 0.15073
 C748 C 1.11509 0.50703 0.15835
 C749 C 1.09807 0.50875 0.17633
 C750 C 1.08812 0.48920 0.18709
 C751 C 1.09598 0.46796 0.17988
 C752 C 1.11293 0.46623 0.16191
 H753 H 1.19690 0.51320 0.07165
 H754 H 1.22487 0.50900 0.03886
 H755 H 1.20911 0.43627 0.03661
 H756 H 1.18169 0.44035 0.06976
 H757 H 1.12209 0.52238 0.15013
 H758 H 1.09222 0.52533 0.18131
 H759 H 1.08897 0.45262 0.18811
 H760 H 1.11837 0.44955 0.15667
 C761 C 0.57234 -0.01622 0.68817
 C762 C 0.56257 -0.03807 0.69319
 C763 C 0.54539 -0.04098 0.71088
 C764 C 0.53751 -0.02213 0.72394
 C765 C 0.54696 -0.00026 0.71876
 C766 C 0.56424 0.00267 0.70108
 C767 C 0.59099 -0.01333 0.66975
 N768 N 0.60135 0.00755 0.66540
 N769 N 0.61828 0.00998 0.64899
 C770 C 0.62555 -0.00837 0.63624
 N771 N 0.61515 -0.02922 0.64060
 N772 N 0.59827 -0.03164 0.65699
 C773 C 0.64435 -0.00585 0.61793
 C774 C 0.65101 -0.02495 0.60433
 C775 C 0.66853 -0.02274 0.58691
 C776 C 0.67992 -0.00139 0.58265
 C777 C 0.67335 0.01775 0.59627
 C778 C 0.65576 0.01554 0.61373
 H779 H 0.56827 -0.05300 0.68354
 H780 H 0.53814 -0.05802 0.71419
 H781 H 0.54140 0.01456 0.72874
 H782 H 0.57137 0.01973 0.69769
 H783 H 0.64256 -0.04168 0.60697
 H784 H 0.67283 -0.03776 0.57642
 H785 H 0.68194 0.03440 0.59355
 H786 H 0.65112 0.03061 0.62393
 C787 C -0.18656 0.51514 0.92705
 C788 C -0.18185 0.50997 0.95105
 C789 C -0.19799 0.51409 0.96937
 C790 C -0.21915 0.52353 0.96411
 C791 C -0.22406 0.52836 0.94009
 C792 C -0.20798 0.52418 0.92176
 C793 C -0.16901 0.51174 0.90778
 N794 N -0.17367 0.51644 0.88454
 N795 N -0.15765 0.51410 0.86737
 C796 C -0.13624 0.50699 0.87268
 N797 N -0.13162 0.50216 0.89590
 N798 N -0.14766 0.50448 0.91307
 C799 C -0.11811 0.50515 0.85370
 C800 C -0.09547 0.49923 0.85955
 C801 C -0.07813 0.49837 0.84184
 C802 C -0.08302 0.50337 0.81785
 C803 C -0.10576 0.50893 0.81191
 C804 C -0.12310 0.50981 0.82962
 H805 H -0.16554 0.50301 0.95579
 H806 H -0.19354 0.51048 0.98775
 H807 H -0.24037 0.53538 0.93546
 H808 H -0.21225 0.52830 0.90349
 H809 H -0.09098 0.49558 0.87791
 H810 H -0.06071 0.49432 0.84708
 H811 H -0.11019 0.51253 0.79353
 H812 H -0.14037 0.51431 0.82442
 C813 C 0.41421 0.01097 0.29943
 C814 C 0.42517 -0.00792 0.28974
 C815 C 0.44363 -0.00503 0.27332
 C816 C 0.45147 0.01676 0.26619
 C817 C 0.44032 0.03559 0.27570
 C818 C 0.42192 0.03273 0.29205
 C819 C 0.39533 0.00828 0.31764
 N820 N 0.38537 0.02678 0.32723
 N821 N 0.36903 0.02466 0.34422
 C822 C 0.36188 0.00395 0.35239
 N823 N 0.37169 -0.01462 0.34268
 N824 N 0.38808 -0.01250 0.32566
 C825 C 0.34443 0.00193 0.37210
 C826 C 0.33641 -0.01943 0.38045
 C827 C 0.32082 -0.02102 0.39987
 C828 C 0.31308 -0.00129 0.41141
 C829 C 0.32068 0.01998 0.40272
 C830 C 0.33612 0.02158 0.38329
 H831 H 0.41964 -0.02493 0.29497
 H832 H 0.45164 -0.01989 0.26615
 H833 H 0.44620 0.05269 0.27106
 H834 H 0.41400 0.04770 0.29918
 H835 H 0.34242 -0.03490 0.37221
 H836 H 0.31532 -0.03763 0.40629
 H837 H 0.31470 0.03545 0.41102
 H838 H 0.34178 0.03830 0.37731
 C839 C 0.18512 0.48414 0.91872
 C840 C 0.19719 0.50271 0.93126
 C841 C 0.21426 0.49920 0.94863
 C842 C 0.21973 0.47709 0.95367
 C843 C 0.20748 0.45856 0.94129
 C844 C 0.19043 0.46204 0.92405
 C845 C 0.16707 0.48757 0.90018
 N846 N 0.15513 0.46941 0.88880
 N847 N 0.13896 0.47225 0.87211
 C848 C 0.13398 0.49338 0.86600
 N849 N 0.14591 0.51161 0.87736
 N850 N 0.16212 0.50876 0.89411
 C851 C 0.11583 0.49630 0.84741
 C852 C 0.11092 0.51803 0.84026
 C853 C 0.09363 0.52052 0.82281
 C854 C 0.08091 0.50135 0.81212
 C855 C 0.08585 0.47967 0.81930
 C856 C 0.10309 0.47718 0.83666
 H857 H 0.19351 0.51997 0.92766
 H858 H 0.22340 0.51382 0.95780
 H859 H 0.21078 0.44127 0.94514
 H860 H 0.18141 0.44731 0.91491
 H861 H 0.12043 0.53312 0.84812
 H862 H 0.09036 0.53744 0.81753
 H863 H 0.07607 0.46457 0.81181
 H864 H 0.10627 0.46018 0.84177
 C865 C 0.56429 0.01693 0.31393
 C866 C 0.55438 -0.00229 0.30065
 C867 C 0.53768 -0.00003 0.28259
 C868 C 0.53059 0.02149 0.27739
 C869 C 0.54017 0.04065 0.29090
 C870 C 0.55680 0.03840 0.30897
 C871 C 0.58268 0.01475 0.33245
 N872 N 0.59229 0.03340 0.34507
 N873 N 0.60918 0.03161 0.36133
 C874 C 0.61722 0.01110 0.36567
 N875 N 0.60755 -0.00759 0.35310
 N876 N 0.59065 -0.00580 0.33683
 C877 C 0.63626 0.00926 0.38356
 C878 C 0.64486 -0.01189 0.38795
 C879 C 0.66291 -0.01348 0.40475
 C880 C 0.67279 0.00605 0.41749
 C881 C 0.66416 0.02716 0.41313
 C882 C 0.64613 0.02875 0.39637
 H883 H 0.55975 -0.01909 0.30397
 H884 H 0.53086 -0.01507 0.27225
 H885 H 0.53478 0.05743 0.28750
 H886 H 0.56394 0.05357 0.31890
 H887 H 0.63771 -0.02724 0.37837
 H888 H 0.66935 -0.02995 0.40757
 H889 H 0.67111 0.04246 0.42295
 H890 H 0.63990 0.04531 0.39354
 C891 C 0.81983 0.52041 0.08136
 C892 C 0.80580 0.50204 0.07073
 C893 C 0.78900 0.50567 0.05316
 C894 C 0.78590 0.52773 0.04583
 C895 C 0.80011 0.54604 0.05625
 C896 C 0.81682 0.54243 0.07382
 C897 C 0.83743 0.51680 0.10027
 N898 N 0.84945 0.53483 0.11181
 N899 N 0.86531 0.53177 0.12876
 C900 C 0.86989 0.51054 0.13494
 N901 N 0.85786 0.49246 0.12342
 N902 N 0.84194 0.49553 0.10647
 C903 C 0.88792 0.50733 0.15355
 C904 C 0.89439 0.48551 0.15862
 C905 C 0.91208 0.48276 0.17556
 C906 C 0.92364 0.50178 0.18777
 C907 C 0.91678 0.52352 0.18307
 C908 C 0.89918 0.52627 0.16617
 H909 H 0.80760 0.48486 0.07616
 H910 H 0.77811 0.49124 0.04574
 H911 H 0.79850 0.56320 0.05068
 H912 H 0.82742 0.55697 0.08144
 H913 H 0.88608 0.47055 0.14924
 H914 H 0.91710 0.46580 0.17864
 H915 H 0.92502 0.53849 0.19252
 H916 H 0.89453 0.54332 0.16293
 C917 C 0.42271 -0.01813 0.69372
 C918 C 0.43556 0.00124 0.70381
 C919 C 0.45330 -0.00088 0.72084
 C920 C 0.45852 -0.02239 0.72827
 C921 C 0.44573 -0.04175 0.71805
 C922 C 0.42805 -0.03965 0.70105
 C923 C 0.40400 -0.01607 0.67552
 N924 N 0.39178 -0.03490 0.66580
 N925 N 0.37514 -0.03319 0.64926
 C926 C 0.36996 -0.01257 0.64170
 N927 N 0.38213 0.00630 0.65146
 N928 N 0.39878 0.00459 0.66803
 C929 C 0.35175 -0.01083 0.62288
 C930 C 0.34639 0.01045 0.61481
 C931 C 0.32971 0.01192 0.59653
 C932 C 0.31808 -0.00786 0.58587
 C933 C 0.32319 -0.02908 0.59418
 C934 C 0.33980 -0.03056 0.61246
 H935 H 0.43195 0.01808 0.69856
 H936 H 0.46269 0.01438 0.72832
 H937 H 0.44963 -0.05865 0.72281
 H938 H 0.41866 -0.05497 0.69356
 H939 H 0.35525 0.02599 0.62243
 H940 H 0.32632 0.02850 0.59034
 H941 H 0.31427 -0.04460 0.58657
 H942 H 0.34337 -0.04723 0.61828
   
