data_POSCAR
  _audit_creation_date              2014-09-24
  _audit_creation_method            'ToBaCCo'
  _symmetry_space_group_name_H-M    'P1'
  _symmetry_Int_Tables_number       1
  _symmetry_cell_setting            triclinic
  loop_
  _symmetry_equiv_pos_as_xyz
 x,y,z
_cell_length_a 42.8019
_cell_length_b 26.2242
_cell_length_c 15.0076
_cell_angle_alpha 90.017100
_cell_angle_beta 89.899900
_cell_angle_gamma 90.096900
loop_
  _atom_site_label
  _atom_site_type_symbol
  _atom_site_fract_x
  _atom_site_fract_y
  _atom_site_fract_z
C1 C 0.74887 0.24746 0.45358
 C2 C 0.74969 0.24948 0.54432
 C3 C 0.72356 0.27247 0.59560
 C4 C 0.77613 0.22784 0.59633
 C5 C 0.77318 0.22068 0.40123
 C6 C 0.72378 0.27271 0.40223
 C7 C 0.72914 0.31358 0.65259
 C8 C 0.70455 0.33651 0.69901
 C9 C 0.67330 0.31871 0.69056
 C10 C 0.66853 0.27583 0.63419
 C11 C 0.69321 0.25329 0.58783
 C12 C 0.80727 0.23924 0.57441
 C13 C 0.83183 0.21549 0.61909
 C14 C 0.82592 0.18143 0.68973
 C15 C 0.79467 0.17260 0.71503
 C16 C 0.77009 0.19523 0.66844
 C17 C 0.77780 0.16799 0.41080
 C18 C 0.80218 0.14383 0.36536
 C19 C 0.82246 0.17221 0.31083
 C20 C 0.81737 0.22469 0.29993
 C21 C 0.79263 0.24862 0.34387
 C22 C 0.70362 0.24344 0.34927
 C23 C 0.67922 0.26673 0.30301
 C24 C 0.67501 0.31978 0.30766
 C25 C 0.69571 0.34916 0.35914
 C26 C 0.71985 0.32576 0.40637
 H27 H 0.75253 0.32895 0.65923
 H28 H 0.71053 0.37002 0.73713
 H29 H 0.64611 0.25734 0.62765
 H30 H 0.68863 0.22043 0.54604
 H31 H 0.81264 0.26586 0.52145
 H32 H 0.85539 0.22317 0.59663
 H33 H 0.74628 0.18659 0.68784
 H34 H 0.76283 0.14590 0.45447
 H35 H 0.80576 0.10330 0.37461
 H36 H 0.83260 0.24711 0.25754
 H37 H 0.78930 0.28928 0.33569
 H38 H 0.70646 0.20247 0.34519
 H39 H 0.66372 0.24339 0.26312
 H40 H 0.69281 0.39008 0.36412
 H41 H 0.73540 0.34889 0.44648
 H42 H 0.78904 0.14809 0.77079
 C43 C 0.24965 0.74797 0.45308
 C44 C 0.24924 0.74685 0.54387
 C45 C 0.22333 0.76923 0.59718
 C46 C 0.27536 0.72336 0.59392
 C47 C 0.27469 0.72199 0.40223
 C48 C 0.22540 0.77477 0.40057
 C49 C 0.23012 0.80176 0.66887
 C50 C 0.20606 0.82439 0.71785
 C51 C 0.17459 0.81534 0.69576
 C52 C 0.16790 0.78161 0.62527
 C53 C 0.19197 0.75817 0.57764
 C54 C 0.30546 0.74436 0.58965
 C55 C 0.33026 0.72090 0.63386
 C56 C 0.32546 0.67576 0.68281
 C57 C 0.29506 0.65532 0.68776
 C58 C 0.27021 0.67917 0.64427
 C59 C 0.27818 0.66888 0.40714
 C60 C 0.30292 0.64491 0.36321
 C61 C 0.32463 0.67373 0.31402
 C62 C 0.32072 0.72683 0.30800
 C63 C 0.29578 0.75071 0.35125
 C64 C 0.20709 0.74728 0.33977
 C65 C 0.18279 0.77124 0.29409
 C66 C 0.17678 0.82335 0.30717
 C67 C 0.19586 0.85125 0.36581
 C68 C 0.21995 0.82711 0.41232
 H69 H 0.25412 0.81026 0.68623
 H70 H 0.21220 0.84896 0.77308
 H71 H 0.14406 0.77394 0.60544
 H72 H 0.18606 0.73188 0.52464
 H73 H 0.30971 0.77884 0.55176
 H74 H 0.35316 0.73836 0.63013
 H75 H 0.24708 0.66245 0.64791
 H76 H 0.26195 0.64618 0.44594
 H77 H 0.30551 0.60398 0.36927
 H78 H 0.33692 0.74979 0.26961
 H79 H 0.29333 0.79173 0.34677
 H80 H 0.21107 0.70691 0.32959
 H81 H 0.16866 0.74906 0.24845
 H82 H 0.19163 0.89142 0.37730
 H83 H 0.23406 0.84900 0.45842
 H84 H 0.29054 0.62028 0.72366
 C85 C 0.24725 0.25808 -0.45417
 C86 C 0.24776 0.25716 -0.54471
 C87 C 0.27407 0.27964 -0.59568
 C88 C 0.22205 0.23365 -0.59635
 C89 C 0.22229 0.23222 -0.40299
 C90 C 0.27201 0.28403 -0.40249
 C91 C 0.26877 0.32070 -0.65304
 C92 C 0.29369 0.34430 -0.69705
 C93 C 0.32478 0.32706 -0.68561
 C94 C 0.32947 0.28441 -0.62933
 C95 C 0.30449 0.26117 -0.58517
 C96 C 0.19167 0.25291 -0.59061
 C97 C 0.16729 0.22961 -0.63707
 C98 C 0.17257 0.18604 -0.69078
 C99 C 0.20365 0.16791 -0.69734
 C100 C 0.22798 0.19160 -0.65106
 C101 C 0.22076 0.17896 -0.39991
 C102 C 0.19698 0.15466 -0.35205
 C103 C 0.17368 0.18320 -0.30751
 C104 C 0.17567 0.23699 -0.31136
 C105 C 0.19991 0.26106 -0.35755
 C106 C 0.29171 0.25545 -0.34729
 C107 C 0.31663 0.27894 -0.30345
 C108 C 0.32190 0.33156 -0.31305
 C109 C 0.30151 0.36040 -0.36619
 C110 C 0.27680 0.33676 -0.41083
 H111 H 0.24537 0.33561 -0.66146
 H112 H 0.28829 0.37763 -0.73635
 H113 H 0.35224 0.26740 -0.62073
 H114 H 0.30888 0.22871 -0.54239
 H115 H 0.18686 0.28626 -0.55028
 H116 H 0.14458 0.24732 -0.63238
 H117 H 0.25139 0.17619 -0.65598
 H118 H 0.23793 0.15622 -0.43502
 H119 H 0.19622 0.11345 -0.35400
 H120 H 0.15925 0.26094 -0.27599
 H121 H 0.20102 0.30233 -0.35883
 H122 H 0.28829 0.21472 -0.34015
 H123 H 0.33182 0.25604 -0.26204
 H124 H 0.30519 0.40096 -0.37494
 H125 H 0.26166 0.35935 -0.45294
 H126 H 0.20941 0.13392 -0.73454
 C127 C -0.24836 0.74615 -0.45919
 C128 C -0.24884 0.74740 -0.55007
 C129 C -0.22448 0.77434 -0.60200
 C130 C -0.27379 0.72198 -0.60201
 C131 C -0.27455 0.72323 -0.40758
 C132 C -0.22207 0.76864 -0.40720
 C133 C -0.22083 0.82724 -0.59503
 C134 C -0.19653 0.85192 -0.64005
 C135 C -0.17485 0.82400 -0.69180
 C136 C -0.17930 0.77077 -0.69949
 C137 C -0.20409 0.74649 -0.65623
 C138 C -0.29424 0.75122 -0.65354
 C139 C -0.31893 0.72807 -0.69896
 C140 C -0.32330 0.67465 -0.69605
 C141 C -0.30176 0.64547 -0.64617
 C142 C -0.27752 0.66896 -0.59913
 C143 C -0.26850 0.68603 -0.34311
 C144 C -0.29296 0.66362 -0.29523
 C145 C -0.32444 0.67768 -0.31059
 C146 C -0.32998 0.71626 -0.37464
 C147 C -0.30541 0.73900 -0.42131
 C148 C -0.19085 0.75699 -0.42749
 C149 C -0.16643 0.78103 -0.38228
 C150 C -0.17258 0.81569 -0.31273
 C151 C -0.20395 0.82494 -0.28922
 C152 C -0.22836 0.80200 -0.33635
 H153 H -0.23649 0.84925 -0.55334
 H154 H -0.19392 0.89254 -0.62977
 H155 H -0.16426 0.74768 -0.74106
 H156 H -0.20684 0.70559 -0.66289
 H157 H -0.29145 0.79223 -0.65707
 H158 H -0.33385 0.75226 -0.73875
 H159 H -0.26183 0.64585 -0.55959
 H160 H -0.24473 0.67410 -0.33005
 H161 H -0.28663 0.63639 -0.24442
 H162 H -0.35329 0.72810 -0.39253
 H163 H -0.31059 0.76867 -0.46919
 H164 H -0.18529 0.72980 -0.47935
 H165 H -0.14277 0.77299 -0.40339
 H166 H -0.20981 0.84993 -0.23434
 H167 H -0.25224 0.81086 -0.31818
 H168 H -0.30434 0.60463 -0.63921
 O169 O -0.04320 0.90918 0.16015
 O170 O -0.07761 0.95673 0.07775
 C171 C -0.07129 0.92278 0.13782
 O172 O 0.04296 1.09527 0.15609
 O173 O 0.07792 1.04739 0.07618
 C174 C 0.07123 1.08274 0.13358
 O175 O -0.04436 1.08960 0.16145
 O176 O -0.07816 1.04257 0.07611
 C177 C -0.07233 1.07598 0.13757
 O178 O 0.04464 0.90706 0.15283
 O179 O 0.07891 0.95848 0.07662
 C180 C 0.07275 0.92196 0.13220
 Zr181 Zr 0.00059 0.93693 0.11452
 O182 O 0.00335 0.94394 0.25498
 O183 O 0.00028 0.85676 0.12919
 Zr184 Zr -0.00032 1.06519 0.11279
 O185 O 0.00258 1.06430 0.25362
 O186 O -0.00413 1.14568 0.11312
 O187 O -0.02804 1.00053 0.13038
 O188 O 0.02748 1.00160 0.13021
 O189 O 0.04479 0.90625 -0.15029
 O190 O 0.07888 0.95690 -0.07241
 C191 C 0.07278 0.92026 -0.12786
 O192 O -0.04326 1.08997 -0.16072
 O193 O -0.07781 1.04202 -0.07871
 C194 C -0.07139 1.07637 -0.13830
 O195 O 0.04430 1.09495 -0.15185
 O196 O 0.07883 1.04570 -0.07295
 C197 C 0.07245 1.08158 -0.12954
 O198 O -0.04230 0.90875 -0.15953
 O199 O -0.07728 0.95581 -0.07793
 C200 C -0.07056 0.92159 -0.13741
 Zr201 Zr 0.00103 0.93604 -0.11096
 O202 O 0.00470 0.93833 -0.25166
 O203 O -0.00141 0.85541 -0.11348
 Zr204 Zr 0.00048 1.06446 -0.11252
 O205 O 0.00418 1.06083 -0.25313
 O206 O -0.00298 1.14485 -0.11867
 Zr207 Zr -0.04630 0.99980 -0.00019
 Zr208 Zr 0.04707 1.00151 0.00150
 O209 O 0.02811 1.00061 -0.12768
 O210 O -0.02728 0.99973 -0.12987
 O211 O 0.02859 0.92685 0.00223
 O212 O -0.02704 1.07374 -0.00044
 O213 O -0.02623 0.92657 0.00136
 O214 O 0.02785 1.07548 0.00061
 H215 H 0.04169 1.00192 0.18227
 H216 H -0.04104 1.10379 -0.00055
 H217 H 0.04255 1.00058 -0.17936
 H218 H -0.04000 0.89618 0.00104
 H219 H 0.01314 1.15935 0.07630
 H220 H 0.01182 1.15892 -0.07450
 H221 H -0.01497 1.04418 -0.27588
 H222 H -0.01424 0.95536 -0.27475
 H223 H 0.01416 0.84249 -0.07038
 H224 H -0.00529 0.84216 0.07067
 H225 H -0.01733 0.95509 0.27708
 H226 H -0.01529 1.04410 0.27624
 O227 O 0.45641 0.41221 0.16324
 O228 O 0.42238 0.45800 0.07707
 C229 C 0.42839 0.42533 0.13954
 O230 O 0.54528 0.59323 0.15081
 O231 O 0.57907 0.54224 0.07222
 C232 C 0.57322 0.57844 0.12872
 O233 O 0.45727 0.58939 0.16118
 O234 O 0.42263 0.54302 0.07719
 C235 C 0.42906 0.57616 0.13861
 O236 O 0.54390 0.40595 0.15282
 O237 O 0.57841 0.45426 0.07182
 C238 C 0.57206 0.41897 0.12956
 Zr239 Zr 0.50022 0.43565 0.11159
 O240 O 0.50402 0.43629 0.25223
 O241 O 0.49605 0.35519 0.11214
 Zr242 Zr 0.50112 0.56468 0.11055
 O243 O 0.50448 0.56677 0.25122
 O244 O 0.50007 0.64509 0.10204
 O245 O 0.47285 0.50065 0.12904
 O246 O 0.52779 0.49972 0.12710
 O247 O 0.54344 0.40568 -0.15654
 O248 O 0.57824 0.45381 -0.07631
 C249 C 0.57169 0.41851 -0.13396
 O250 O 0.45737 0.58886 -0.16490
 O251 O 0.42287 0.54431 -0.07751
 C252 C 0.42922 0.57661 -0.14038
 O253 O 0.54495 0.59293 -0.15476
 O254 O 0.57898 0.54215 -0.07709
 C255 C 0.57296 0.57843 -0.13322
 O256 O 0.45549 0.41168 -0.16230
 O257 O 0.42175 0.45933 -0.07749
 C258 C 0.42756 0.42591 -0.13897
 Zr259 Zr 0.49981 0.43512 -0.11374
 O260 O 0.50302 0.43526 -0.25454
 O261 O 0.49576 0.35465 -0.11360
 Zr262 Zr 0.50094 0.56395 -0.11421
 O263 O 0.50457 0.56311 -0.25493
 O264 O 0.49849 0.64454 -0.11468
 Zr265 Zr 0.45402 0.50061 -0.00068
 Zr266 Zr 0.54695 0.49883 -0.00205
 O267 O 0.52752 0.49902 -0.13073
 O268 O 0.47247 0.50005 -0.13105
 O269 O 0.52777 0.42476 -0.00148
 O270 O 0.47383 0.57407 -0.00145
 O271 O 0.47282 0.42652 -0.00056
 O272 O 0.52901 0.57355 -0.00217
 H273 H 0.54197 0.49962 0.17922
 H274 H 0.45990 0.60421 -0.00142
 H275 H 0.54168 0.49884 -0.18304
 H276 H 0.45846 0.39683 -0.00023
 H277 H 0.50024 0.65777 0.16425
 H278 H 0.51254 0.65690 -0.06701
 H279 H 0.48691 0.54268 -0.27804
 H280 H 0.48527 0.45543 -0.27755
 H281 H 0.51312 0.34106 -0.07731
 H282 H 0.51318 0.34142 0.07500
 H283 H 0.48672 0.45738 0.27570
 H284 H 0.48783 0.54442 0.27513
 C285 C 0.34608 0.38134 0.19348
 C286 C 0.35038 0.35181 0.27140
 C287 C 0.38113 0.34795 0.30528
 C288 C 0.40625 0.37188 0.26282
 C289 C 0.40163 0.40083 0.18545
 C290 C 0.37125 0.40551 0.15158
 H291 H 0.32357 0.38450 0.16154
 H292 H 0.38611 0.32811 0.36671
 H293 H 0.42934 0.36806 0.29143
 H294 H 0.36690 0.42710 0.09135
 C295 C -0.12071 0.82250 0.25193
 C296 C -0.14921 0.84849 0.26606
 C297 C -0.15125 0.89967 0.23745
 C298 C -0.12605 0.92344 0.19515
 C299 C -0.09782 0.89743 0.18245
 C300 C -0.09528 0.84691 0.21181
 H301 H -0.11735 0.78384 0.27512
 H302 H -0.17271 0.92109 0.24389
 H303 H -0.12859 0.96241 0.17286
 H304 H -0.07370 0.82600 0.20281
 C305 C 0.62287 0.67747 0.24558
 C306 C 0.65129 0.65117 0.25901
 C307 C 0.65344 0.60062 0.22705
 C308 C 0.62834 0.57757 0.18325
 C309 C 0.60007 0.60373 0.17196
 C310 C 0.59756 0.65382 0.20371
 H311 H 0.61939 0.71564 0.27103
 H312 H 0.67488 0.57907 0.23255
 H313 H 0.63093 0.53888 0.15923
 H314 H 0.57596 0.67484 0.19604
 C315 C 0.11634 1.16589 0.29486
 C316 C 0.14749 1.16106 0.26444
 C317 C 0.15274 1.13001 0.18870
 C318 C 0.12810 1.10482 0.14623
 C319 C 0.09736 1.10996 0.17743
 C320 C 0.09178 1.14095 0.25192
 H321 H 0.11057 1.18702 0.35446
 H322 H 0.17567 1.12613 0.15927
 H323 H 0.13315 1.08167 0.08818
 H324 H 0.06839 1.14523 0.27850
 C325 C 0.65373 0.37501 -0.19210
 C326 C 0.64885 0.34201 -0.26589
 C327 C 0.61740 0.33467 -0.29315
 C328 C 0.59263 0.35894 -0.24990
 C329 C 0.59803 0.39177 -0.17791
 C330 C 0.62884 0.39938 -0.14937
 H331 H 0.67651 0.38101 -0.16317
 H332 H 0.61125 0.31252 -0.35117
 H333 H 0.56916 0.35270 -0.27450
 H334 H 0.63382 0.42393 -0.09307
 C335 C 0.11987 0.81733 -0.24233
 C336 C 0.14889 0.84154 -0.25520
 C337 C 0.15286 0.89152 -0.22263
 C338 C 0.12841 0.91664 -0.17919
 C339 C 0.09923 0.89286 -0.16907
 C340 C 0.09526 0.84287 -0.20063
 H341 H 0.11609 0.77849 -0.26422
 H342 H 0.17461 0.91186 -0.23251
 H343 H 0.13207 0.95521 -0.15576
 H344 H 0.07311 0.82333 -0.19258
 C345 C 0.34783 0.62570 -0.18932
 C346 C 0.35206 0.65003 -0.27201
 C347 C 0.38194 0.64951 -0.31125
 C348 C 0.40700 0.62583 -0.26848
 C349 C 0.40270 0.60151 -0.18599
 C350 C 0.37280 0.60147 -0.14709
 H351 H 0.32532 0.62603 -0.15636
 H352 H 0.38594 0.66690 -0.37569
 H353 H 0.42969 0.62609 -0.30055
 H354 H 0.36878 0.58339 -0.08319
 C355 C -0.11823 1.17785 -0.25714
 C356 C -0.14785 1.15477 -0.26439
 C357 C -0.15198 1.10554 -0.22861
 C358 C -0.12732 1.08040 -0.18652
 C359 C -0.09767 1.10304 -0.18170
 C360 C -0.09338 1.15203 -0.21739
 H361 H -0.11416 1.21615 -0.28128
 H362 H -0.17413 1.08585 -0.23413
 H363 H -0.13136 1.04293 -0.15892
 H364 H -0.07091 1.17090 -0.21310
 C365 C 0.62080 0.67732 -0.25659
 C366 C 0.65040 0.65367 -0.26412
 C367 C 0.65387 0.60493 -0.22478
 C368 C 0.62896 0.58102 -0.18121
 C369 C 0.59963 0.60455 -0.17627
 C370 C 0.59586 0.65296 -0.21410
 H371 H 0.61663 0.71550 -0.28068
 H372 H 0.67529 0.58345 -0.23046
 H373 H 0.63247 0.54332 -0.15349
 H374 H 0.57362 0.67248 -0.20990
 C375 C 0.15292 1.10992 -0.22274
 C376 C 0.14890 1.15863 -0.26123
 C377 C 0.11928 1.18190 -0.25299
 C378 C 0.09459 1.15693 -0.21025
 C379 C 0.09885 1.10852 -0.17255
 C380 C 0.12838 1.08562 -0.17813
 H381 H 0.17534 1.09092 -0.22388
 H382 H 0.11441 1.21844 -0.28331
 H383 H 0.07206 1.17559 -0.20695
 H384 H 0.13245 1.04848 -0.14899
 C385 C 0.37866 0.33356 -0.27386
 C386 C 0.34895 0.35604 -0.26899
 C387 C 0.34530 0.40196 -0.22207
 C388 C 0.37084 0.42466 -0.17975
 C389 C 0.40061 0.40219 -0.18457
 C390 C 0.40428 0.35656 -0.23254
 H391 H 0.38211 0.29842 -0.31050
 H392 H 0.32258 0.41988 -0.21706
 H393 H 0.36728 0.45995 -0.14361
 H394 H 0.42689 0.33828 -0.23733
 C395 C -0.11698 0.81940 -0.25689
 C396 C -0.14649 0.84252 -0.26602
 C397 C -0.15066 0.89195 -0.23119
 C398 C -0.12618 0.91722 -0.18819
 C399 C -0.09664 0.89452 -0.18138
 C400 C -0.09229 0.84535 -0.21617
 H401 H -0.11288 0.78097 -0.28030
 H402 H -0.17267 0.91173 -0.23821
 H403 H -0.13024 0.95491 -0.16159
 H404 H -0.06988 0.82650 -0.21049
 C405 C 0.34700 0.60362 0.22040
 C406 C 0.35143 0.64853 0.26973
 C407 C 0.38163 0.66917 0.27674
 C408 C 0.40695 0.64536 0.23515
 C409 C 0.40249 0.60072 0.18487
 C410 C 0.37223 0.58009 0.17800
 H411 H 0.32392 0.58711 0.21354
 H412 H 0.38570 0.70349 0.31523
 H413 H 0.42995 0.66224 0.24159
 H414 H 0.36802 0.54564 0.14002
 C415 C -0.15515 1.10436 0.21286
 C416 C -0.15069 1.14743 0.26676
 C417 C -0.12042 1.16695 0.27821
 C418 C -0.09491 1.14346 0.23707
 C419 C -0.09928 1.10051 0.18233
 C420 C -0.12975 1.08152 0.17010
 H421 H -0.17838 1.08898 0.20268
 H422 H -0.11651 1.20007 0.31991
 H423 H -0.07181 1.15926 0.24751
 H424 H -0.13402 1.04899 0.12745
 C425 C 0.65396 0.38822 0.20844
 C426 C 0.64883 0.34435 0.26000
 C427 C 0.61846 0.32442 0.26679
 C428 C 0.59353 0.34847 0.22409
 C429 C 0.59856 0.39259 0.17277
 C430 C 0.62912 0.41186 0.16463
 H431 H 0.67724 0.40400 0.20159
 H432 H 0.61393 0.29079 0.30668
 H433 H 0.57031 0.33253 0.23145
 H434 H 0.63384 0.44560 0.12528
 C435 C 0.12073 0.82489 0.25944
 C436 C 0.15029 0.84826 0.26107
 C437 C 0.15425 0.89572 0.21925
 C438 C 0.12916 0.91929 0.17638
 C439 C 0.09947 0.89620 0.17554
 C440 C 0.09553 0.84876 0.21763
 H441 H 0.11701 0.78850 0.29192
 H442 H 0.17685 0.91436 0.21911
 H443 H 0.13294 0.95596 0.14492
 H444 H 0.07298 0.82997 0.21803
   
