data_POSCAR
  _audit_creation_date              2014-09-24
  _audit_creation_method            'ToBaCCo'
  _symmetry_space_group_name_H-M    'P1'
  _symmetry_Int_Tables_number       1
  _symmetry_cell_setting            triclinic
  loop_
  _symmetry_equiv_pos_as_xyz
 x,y,z
_cell_length_a 30.0157
_cell_length_b 30.0710
_cell_length_c 30.2038
_cell_angle_alpha 89.889600
_cell_angle_beta 89.734600
_cell_angle_gamma 90.842700
loop_
  _atom_site_label
  _atom_site_type_symbol
  _atom_site_fract_x
  _atom_site_fract_y
  _atom_site_fract_z
N1 N 0.56587 0.68329 0.61044
 N2 N 0.54558 0.66177 0.64286
 C3 C 0.51506 0.68837 0.66140
 C4 C 0.51577 0.72839 0.63894
 C5 C 0.54841 0.72411 0.60675
 H6 H 0.49380 0.67929 0.68908
 H7 H 0.55922 0.74904 0.58303
 Cu8 Cu 0.56074 0.60118 0.65806
 Cu9 Cu 0.61401 0.65704 0.57628
 Cu10 Cu 0.64582 0.55112 0.60745
 N11 N 0.58868 0.54938 0.68363
 N12 N 0.62327 0.53089 0.66469
 C13 C 0.63613 0.49599 0.68926
 C14 C 0.60760 0.49228 0.72540
 C15 C 0.57791 0.52664 0.72067
 H16 H 0.66315 0.47426 0.68049
 H17 H 0.55048 0.53444 0.74254
 N18 N 0.67311 0.58355 0.55730
 N19 N 0.66176 0.62426 0.54597
 C20 C 0.68646 0.63726 0.51076
 C21 C 0.71450 0.60293 0.49942
 C22 C 0.70509 0.56947 0.52948
 H23 H 0.68351 0.66886 0.49400
 H24 H 0.72044 0.53719 0.53084
 H25 H 0.59515 0.59195 0.58476
 H26 H 0.63434 0.61522 0.62679
 N27 N 0.92890 0.31240 0.11711
 N28 N 0.93853 0.32650 0.15715
 C29 C 0.96858 0.29932 0.17541
 C30 C 0.97861 0.26658 0.14509
 C31 C 0.95285 0.27591 0.10828
 H32 H 0.98236 0.30317 0.20824
 H33 H 0.95068 0.25715 0.07785
 Cu34 Cu 0.91179 0.37946 0.18142
 Cu35 Cu 0.88362 0.34059 0.08093
 Cu36 Cu 0.83407 0.43449 0.12508
 N37 N 0.89713 0.44042 0.19582
 N38 N 0.86556 0.46140 0.17465
 C39 C 0.86004 0.50168 0.19308
 C40 C 0.89027 0.50625 0.22731
 C41 C 0.91346 0.46693 0.22792
 H42 H 0.83611 0.52584 0.18211
 H43 H 0.93952 0.45792 0.25073
 N44 N 0.81801 0.40951 0.06699
 N45 N 0.83667 0.37378 0.05014
 C46 C 0.81772 0.36467 0.01076
 C47 C 0.78601 0.39650 0.00239
 C48 C 0.78732 0.42452 0.03847
 H49 H 0.82637 0.33705 -0.01028
 H50 H 0.76691 0.45339 0.04376
 H51 H 0.89203 0.40386 0.10749
 H52 H 0.84798 0.36691 0.13195
 N53 N 0.44974 0.17187 -0.08053
 N54 N 0.46335 0.15897 -0.11982
 C55 C 0.50092 0.18159 -0.13060
 C56 C 0.51134 0.21003 -0.09603
 C57 C 0.47831 0.20284 -0.06477
 H58 H 0.51946 0.17721 -0.16102
 H59 H 0.47495 0.21950 -0.03325
 Cu60 Cu 0.43220 0.11270 -0.15319
 Cu61 Cu 0.39501 0.14861 -0.05455
 Cu62 Cu 0.33519 0.06932 -0.10573
 N63 N 0.39589 0.06531 -0.18106
 N64 N 0.35899 0.04902 -0.16293
 C65 C 0.34109 0.01833 -0.19021
 C66 C 0.36833 0.01461 -0.22686
 C67 C 0.40282 0.04482 -0.22007
 H68 H 0.31029 0.00019 -0.18407
 H69 H 0.43032 0.05198 -0.24232
 N70 N 0.31003 0.10511 -0.05852
 N71 N 0.33295 0.13720 -0.03933
 C72 C 0.30707 0.15693 -0.00885
 C73 C 0.26605 0.13549 -0.00844
 C74 C 0.26904 0.10268 -0.04037
 H75 H 0.31750 0.18434 0.01201
 H76 H 0.24328 0.07925 -0.05020
 H77 H 0.40373 0.08141 -0.09999
 H78 H 0.36945 0.12484 -0.12698
 N79 N 0.05641 0.83073 0.41914
 N80 N 0.04244 0.84423 0.38025
 C81 C 0.00651 0.81974 0.36848
 C82 C -0.00257 0.78941 0.40215
 C83 C 0.02969 0.79746 0.43374
 H84 H -0.01191 0.82442 0.33820
 H85 H 0.03371 0.78004 0.46481
 Cu86 Cu 0.07041 0.89459 0.34973
 Cu87 Cu 0.10910 0.85669 0.44633
 Cu88 Cu 0.17138 0.93264 0.39173
 N89 N 0.10816 0.93940 0.31917
 N90 N 0.14683 0.95342 0.33501
 C91 C 0.16536 0.98261 0.30626
 C92 C 0.13679 0.98768 0.27104
 C93 C 0.10083 0.95978 0.28017
 H94 H 0.19734 0.99904 0.31051
 H95 H 0.07197 0.95410 0.25956
 N96 N 0.19466 0.89922 0.44155
 N97 N 0.17064 0.86878 0.46238
 C98 C 0.19552 0.85011 0.49418
 C99 C 0.23702 0.87055 0.49371
 C100 C 0.23539 0.90163 0.45991
 H101 H 0.18423 0.82382 0.51620
 H102 H 0.26201 0.92365 0.44885
 H103 H 0.10361 0.92477 0.40116
 H104 H 0.13297 0.87882 0.37263
 N105 N 0.09781 0.10628 0.10777
 N106 N 0.40561 0.89815 0.60813
 N107 N 0.84344 0.66410 0.34891
 N108 N 0.66400 0.33973 -0.15282
 C109 C 0.00792 0.23163 0.15207
 C110 C 0.01885 0.20234 0.12068
 C111 C 0.04920 0.16567 0.13064
 C112 C 0.06780 0.14192 0.09829
 H113 H 0.00605 0.20544 0.08737
 H114 H 0.05722 0.15852 0.16486
 H115 H 0.02280 0.22869 0.18459
 H116 H 0.06204 0.15104 0.06406
 C117 C 0.48798 0.76708 0.64882
 C118 C 0.48082 0.79913 0.61914
 C119 C 0.45213 0.83688 0.62995
 C120 C 0.43512 0.86227 0.59806
 H121 H 0.49501 0.79689 0.58617
 H122 H 0.44346 0.84310 0.66424
 H123 H 0.47159 0.76828 0.68084
 H124 H 0.44127 0.85396 0.56366
 C125 C 0.96324 0.75752 0.40536
 C126 C 0.93493 0.74843 0.37238
 C127 C 0.89928 0.71478 0.37823
 C128 C 0.87775 0.69760 0.34347
 H129 H 0.93829 0.76500 0.34064
 H130 H 0.89122 0.70299 0.41129
 H131 H 0.96025 0.73885 0.43602
 H132 H 0.88798 0.70715 0.31026
 C133 C 0.54914 0.24153 -0.09211
 C134 C 0.57381 0.25431 -0.12692
 C135 C 0.61058 0.28679 -0.12183
 C136 C 0.62935 0.30643 -0.15715
 H137 H 0.56613 0.24180 -0.15967
 H138 H 0.62144 0.29589 -0.08885
 H139 H 0.55583 0.25576 -0.05982
 H140 H 0.61634 0.29920 -0.18985
 C141 C 0.14474 0.01617 0.23202
 C142 C 0.11213 0.02795 0.20463
 C143 C 0.12158 0.05703 0.16638
 C144 C 0.08872 0.07662 0.14429
 H145 H 0.07811 0.01709 0.21098
 H146 H 0.15593 0.06362 0.15691
 H147 H 0.17826 0.02899 0.22656
 H148 H 0.05460 0.07215 0.15561
 C149 C 0.60645 0.46025 -0.24105
 C150 C 0.63810 0.42986 -0.23568
 C151 C 0.63359 0.39567 -0.20098
 C152 C 0.66881 0.37340 -0.18643
 H153 H 0.66766 0.43017 -0.25639
 H154 H 0.60106 0.38898 -0.18649
 H155 H 0.57859 0.46063 -0.21805
 H156 H 0.70190 0.38227 -0.19836
 C157 C 0.36017 0.98572 0.73465
 C158 C 0.39226 0.97523 0.70589
 C159 C 0.38247 0.94633 0.66780
 C160 C 0.41512 0.92728 0.64473
 H161 H 0.42609 0.98719 0.71087
 H162 H 0.34803 0.93950 0.65916
 H163 H 0.32696 0.97169 0.73063
 H164 H 0.44939 0.93176 0.65526
 C165 C 0.89676 0.54400 0.25766
 C166 C 0.86491 0.57361 0.26531
 C167 C 0.87178 0.60965 0.29755
 C168 C 0.83721 0.63089 0.31520
 H169 H 0.83285 0.57018 0.24923
 H170 H 0.90526 0.61757 0.30863
 H171 H 0.92772 0.54607 0.27593
 H172 H 0.80358 0.62065 0.30650
 C173 C 0.22791 0.14613 0.02026
 C174 C 0.19508 0.11678 0.02856
 C175 C 0.15812 0.12792 0.05851
 C176 C 0.13250 0.09599 0.07661
 H177 H 0.19622 0.08368 0.01452
 H178 H 0.15281 0.16237 0.06733
 H179 H 0.22790 0.17826 0.03647
 H180 H 0.13996 0.06139 0.07026
 C181 C 0.74653 0.60052 0.46244
 C182 C 0.75991 0.63629 0.43939
 C183 C 0.79181 0.63209 0.40253
 C184 C 0.81132 0.66794 0.38421
 H185 H 0.74792 0.66896 0.44808
 H186 H 0.80033 0.59921 0.39088
 H187 H 0.76013 0.56827 0.45454
 H188 H 0.80468 0.70058 0.39774
 C189 C 0.75626 0.40049 -0.03600
 C190 C 0.74729 0.36636 -0.06293
 C191 C 0.71557 0.37113 -0.09959
 C192 C 0.69744 0.33544 -0.11917
 H193 H 0.76187 0.33418 -0.05687
 H194 H 0.70525 0.40411 -0.10935
 H195 H 0.73961 0.43185 -0.04089
 H196 H 0.70558 0.30251 -0.10726
 C197 C 0.27466 0.85996 0.52273
 C198 C 0.30802 0.88883 0.53011
 C199 C 0.34477 0.87740 0.55989
 C200 C 0.37085 0.90900 0.57754
 H201 H 0.30759 0.92167 0.51527
 H202 H 0.34966 0.84289 0.56886
 H203 H 0.27394 0.82822 0.53983
 H204 H 0.36383 0.94371 0.57118
   
