data_POSCAR
  _audit_creation_date              2014-09-24
  _audit_creation_method            'ToBaCCo'
  _symmetry_space_group_name_H-M    'P1'
  _symmetry_Int_Tables_number       1
  _symmetry_cell_setting            triclinic
  loop_
  _symmetry_equiv_pos_as_xyz
 x,y,z
_cell_length_a 27.2381
_cell_length_b 27.2611
_cell_length_c 27.2170
_cell_angle_alpha 98.239200
_cell_angle_beta 82.009000
_cell_angle_gamma 81.921400
loop_
  _atom_site_label
  _atom_site_type_symbol
  _atom_site_fract_x
  _atom_site_fract_y
  _atom_site_fract_z
C1 C 0.54658 0.51539 0.00732
 C2 C 0.51222 0.55098 -0.01024
 C3 C 0.46619 0.53685 -0.02074
 C4 C 0.45023 0.49187 -0.00990
 C5 C 0.48432 0.45710 0.00817
 C6 C 0.53067 0.47012 0.01748
 H7 H 0.55653 0.44201 0.02949
 H8 H 0.44001 0.56372 -0.03380
 C9 C -0.00194 0.44861 0.50832
 C10 C 0.01247 0.48332 0.54519
 C11 C 0.01938 0.53085 0.53409
 C12 C 0.01068 0.54647 0.48827
 C13 C -0.00317 0.51103 0.45108
 C14 C -0.00950 0.46326 0.46213
 H15 H -0.01870 0.43605 0.43312
 H16 H 0.02906 0.55721 0.56349
 C17 C 0.48633 0.01108 0.45614
 C18 C 0.45233 -0.00717 0.49030
 C19 C 0.46645 -0.01674 0.53616
 C20 C 0.51246 -0.00691 0.55083
 C21 C 0.54755 0.01016 0.51552
 C22 C 0.53239 0.02042 0.46986
 H23 H 0.55857 0.03248 0.44215
 H24 H 0.43892 -0.02877 0.56256
 O25 O 0.46597 -0.00087 -0.06386
 O26 O 0.45050 0.01124 0.07399
 O27 O 0.45111 0.07465 0.00928
 O28 O 0.46591 -0.06307 -0.00074
 O29 O 0.54785 -0.06737 -0.00329
 O30 O 0.53297 0.07071 0.00727
 O31 O 0.53242 0.00851 0.07029
 O32 O 0.54789 -0.00345 -0.06786
 Cu33 Cu 0.45011 0.00603 0.00523
 Cu34 Cu 0.54860 0.00146 0.00105
 C35 C 0.50934 -0.00390 -0.08928
 C36 C 0.48891 0.01182 0.09556
 C37 C 0.48960 0.09607 0.00982
 C38 C 0.50923 -0.08864 -0.00359
 O39 O -0.07202 0.54575 1.00458
 O40 O 0.06537 0.53254 0.99492
 O41 O 0.00381 0.52989 0.93133
 O42 O -0.00827 0.54686 1.06945
 O43 O -0.00496 0.46496 1.06607
 O44 O 0.00722 0.44798 0.92799
 O45 O 0.07073 0.45058 0.99267
 O46 O -0.06712 0.46386 1.00242
 Cu47 Cu -0.00357 0.54708 1.00059
 Cu48 Cu 0.00208 0.44856 0.99688
 C49 C -0.09292 0.50697 1.00484
 C50 C 0.09142 0.48954 0.99217
 C51 C 0.00757 0.48615 0.90622
 C52 C -0.00832 0.50861 1.09117
 O53 O 0.00783 -0.07429 0.45073
 O54 O -0.00380 0.06323 0.46418
 O55 O 0.07143 -0.00996 0.45078
 O56 O -0.06624 0.00028 0.46503
 O57 O -0.07093 0.00514 0.54734
 O58 O 0.06685 -0.00668 0.53293
 O59 O -0.00637 0.06862 0.54633
 O60 O 0.00357 -0.06857 0.53309
 Cu61 Cu 0.00289 -0.00585 0.44933
 Cu62 Cu -0.00233 0.00036 0.54828
 C63 C 0.00735 -0.09473 0.48984
 C64 C -0.00668 0.08922 0.50737
 C65 C 0.09251 -0.01008 0.48958
 C66 C -0.09195 0.00431 0.50847
 C67 C -0.30248 0.51986 1.01106
 N68 N -0.32713 0.48913 1.03662
 N69 N -0.37587 0.48907 1.03631
 C70 C -0.40245 0.51956 1.01040
 N71 N -0.37726 0.54992 0.98430
 N72 N -0.32842 0.55046 0.98497
 C73 C -0.24820 0.51773 1.01015
 N74 N -0.22427 0.55516 0.99598
 N75 N -0.17482 0.55223 0.99498
 C76 C -0.14758 0.51154 1.00759
 N77 N -0.17154 0.47415 1.02156
 N78 N -0.22095 0.47735 1.02312
 C79 C 0.30074 0.48144 0.98384
 N80 N 0.32307 0.51628 0.96247
 N81 N 0.37136 0.51842 0.96354
 C82 C 0.39977 0.48605 0.98612
 N83 N 0.37701 0.45119 1.00763
 N84 N 0.32861 0.44868 1.00629
 C85 C 0.24667 0.48180 0.98472
 N86 N 0.22420 0.44290 0.99744
 N87 N 0.17475 0.44472 0.99907
 C88 C 0.14611 0.48569 0.98853
 N89 N 0.16867 0.52442 0.97589
 N90 N 0.21800 0.52239 0.97377
 C91 C 0.01511 -0.30360 0.48047
 N92 N 0.03338 -0.32531 0.51731
 N93 N 0.03266 -0.37367 0.51877
 C94 C 0.01351 -0.40276 0.48369
 N95 N -0.00499 -0.38062 0.44685
 N96 N -0.00401 -0.33209 0.44505
 C97 C 0.01420 -0.24964 0.48127
 N98 N 0.00400 -0.22739 0.44144
 N99 N 0.00255 -0.17799 0.44361
 C100 C 0.01084 -0.14926 0.48581
 N101 N 0.02098 -0.17161 0.52546
 N102 N 0.02287 -0.22088 0.52313
 C103 C -0.01145 0.29779 0.51786
 N104 N -0.03929 0.32320 0.48919
 N105 N -0.03719 0.37139 0.48761
 C106 C -0.00693 0.39613 0.51433
 N107 N 0.02124 0.37046 0.54278
 N108 N 0.01871 0.32228 0.54487
 C109 C -0.01191 0.24400 0.51680
 N110 N 0.00423 0.22024 0.55359
 N111 N 0.00493 0.17094 0.55126
 C112 C -0.00986 0.14374 0.51175
 N113 N -0.02589 0.16754 0.47502
 N114 N -0.02722 0.21683 0.47769
 C115 C 0.52085 -0.01160 -0.29900
 N116 N 0.48981 -0.03739 -0.32317
 N117 N 0.48851 -0.03677 -0.37171
 C118 C 0.51803 -0.01029 -0.39854
 N119 N 0.54873 0.01605 -0.37384
 N120 N 0.55050 0.01509 -0.32520
 C121 C 0.51956 -0.01073 -0.24478
 N122 N 0.55697 0.00424 -0.22104
 N123 N 0.55443 0.00552 -0.17152
 C124 C 0.51416 -0.00758 -0.14408
 N125 N 0.47687 -0.02241 -0.16789
 N126 N 0.47969 -0.02427 -0.21732
 C127 C 0.47445 0.02060 0.30547
 N128 N 0.49941 0.05191 0.33205
 N129 N 0.50115 0.05014 0.38037
 C130 C 0.47836 0.01676 0.40411
 N131 N 0.45347 -0.01471 0.37732
 N132 N 0.45113 -0.01251 0.32903
 C133 C 0.47632 0.02020 0.25131
 N134 N 0.44135 0.00138 0.22646
 N135 N 0.44465 -0.00034 0.17686
 C136 C 0.48345 0.01596 0.15038
 N137 N 0.51838 0.03462 0.17525
 N138 N 0.51468 0.03703 0.22484
 C139 C 0.52113 -0.29868 -0.01300
 N140 N 0.55032 -0.32530 0.01387
 N141 N 0.54855 -0.37401 0.01408
 C142 C 0.51831 -0.39840 -0.01323
 N143 N 0.48940 -0.37117 -0.04000
 N144 N 0.49068 -0.32259 -0.03988
 C145 C 0.51960 -0.24428 -0.01124
 N146 N 0.47969 -0.21664 -0.02466
 N147 N 0.47675 -0.16720 -0.02234
 C148 C 0.51394 -0.14348 -0.00717
 N149 N 0.55422 -0.17108 0.00587
 N150 N 0.55688 -0.22062 0.00415
 C151 C 0.47507 0.30568 0.01580
 N152 N 0.45592 0.32787 -0.02057
 N153 N 0.45745 0.37630 -0.02233
 C154 C 0.47698 0.40473 0.01294
 N155 N 0.49595 0.38229 0.04931
 N156 N 0.49515 0.33377 0.05063
 C157 C 0.47726 0.25151 0.01572
 N158 N 0.51417 0.22577 0.03525
 N159 N 0.51788 0.17629 0.03353
 C160 C 0.48430 0.15082 0.01297
 N161 N 0.44697 0.17660 -0.00604
 N162 N 0.44375 0.22603 -0.00507
 C163 C -0.30167 0.01290 0.52151
 N164 N -0.32599 0.03898 0.49088
 N165 N -0.37471 0.03903 0.49041
 C166 C -0.40158 0.01295 0.52036
 N167 N -0.37673 -0.01367 0.55065
 N168 N -0.32791 -0.01335 0.55162
 C169 C -0.24737 0.01140 0.51948
 N170 N -0.22359 -0.00271 0.55713
 N171 N -0.17407 -0.00423 0.55418
 C172 C -0.14664 0.00774 0.51324
 N173 N -0.17047 0.02164 0.47565
 N174 N -0.21993 0.02376 0.47888
 C175 C 0.30183 -0.01710 0.47796
 N176 N 0.32570 0.01548 0.45409
 N177 N 0.37385 0.01790 0.45675
 C178 C 0.40023 -0.01281 0.48254
 N179 N 0.37617 -0.04559 0.50596
 N180 N 0.32797 -0.04758 0.50388
 C181 C 0.24784 -0.01710 0.47912
 N182 N 0.22097 -0.03363 0.51744
 N183 N 0.17153 -0.03167 0.52043
 C184 C 0.14721 -0.01380 0.48480
 N185 N 0.17411 0.00219 0.44606
 N186 N 0.22355 0.00092 0.44346
 C187 C -0.01303 0.52290 1.30064
 N188 N 0.02332 0.54215 1.32290
 N189 N 0.02585 0.53983 1.37113
 C190 C -0.00860 0.51929 1.39920
 N191 N -0.04490 0.50017 1.37671
 N192 N -0.04700 0.50181 1.32841
 C193 C -0.01362 0.52116 1.24662
 N194 N -0.03317 0.48426 1.22080
 N195 N -0.03184 0.48066 1.17132
 C196 C -0.01170 0.51435 1.14596
 N197 N 0.00731 0.55173 1.17182
 N198 N 0.00672 0.55485 1.22127
 C199 C 0.01969 0.46985 0.69576
 N200 N 0.05166 0.49460 0.67003
 N201 N 0.05071 0.49660 0.62164
 C202 C 0.01754 0.47424 0.59695
 N203 N -0.01452 0.44937 0.62280
 N204 N -0.01316 0.44681 0.67121
 C205 C 0.01815 0.47212 0.75013
 N206 N -0.00124 0.43747 0.77480
 N207 N -0.00376 0.44123 0.82454
 C208 C 0.01227 0.48019 0.85132
 N209 N 0.03145 0.51481 0.82662
 N210 N 0.03466 0.51063 0.77692
   
