data_POSCAR
  _audit_creation_date              2014-09-24
  _audit_creation_method            'ToBaCCo'
  _symmetry_space_group_name_H-M    'P1'
  _symmetry_Int_Tables_number       1
  _symmetry_cell_setting            triclinic
  loop_
  _symmetry_equiv_pos_as_xyz
 x,y,z
_cell_length_a 42.2425
_cell_length_b 42.2614
_cell_length_c 9.1451
_cell_angle_alpha 90.738600
_cell_angle_beta 90.364800
_cell_angle_gamma 90.107500
loop_
  _atom_site_label
  _atom_site_type_symbol
  _atom_site_fract_x
  _atom_site_fract_y
  _atom_site_fract_z
O1 O 0.21785 0.28157 0.15131
 O2 O 0.27910 0.21988 0.14623
 O3 O 0.21747 0.21995 0.14396
 O4 O 0.27953 0.28149 0.14945
 O5 O 0.27943 0.28091 0.39040
 O6 O 0.21755 0.21960 0.38473
 O7 O 0.27921 0.21931 0.38721
 O8 O 0.21776 0.28123 0.39230
 Cu9 Cu 0.24845 0.25076 0.12415
 Cu10 Cu 0.24851 0.25024 0.41225
 C11 C 0.20727 0.29199 0.27236
 C12 C 0.28969 0.20900 0.26574
 C13 C 0.20683 0.20916 0.26319
 C14 C 0.29014 0.29171 0.27146
 O15 O 0.78112 0.28070 0.38438
 O16 O 0.71919 0.21883 0.37887
 O17 O 0.78085 0.21905 0.37904
 O18 O 0.71959 0.28025 0.40207
 O19 O 0.71768 0.28218 0.16141
 O20 O 0.77929 0.22038 0.13824
 O21 O 0.71764 0.22071 0.13839
 O22 O 0.77921 0.28202 0.14362
 Cu23 Cu 0.75040 0.24951 0.40962
 Cu24 Cu 0.74826 0.25153 0.12187
 C25 C 0.79076 0.29193 0.26415
 C26 C 0.70774 0.20916 0.25714
 C27 C 0.79061 0.20914 0.25583
 C28 C 0.70806 0.29173 0.28591
 O29 O 0.72496 0.78264 0.52606
 O30 O 0.78748 0.72088 0.52579
 O31 O 0.72533 0.72308 0.47353
 O32 O 0.78547 0.78398 0.52460
 O33 O 0.78342 0.77946 0.76414
 O34 O 0.72201 0.71722 0.71229
 O35 O 0.78297 0.71752 0.76481
 O36 O 0.72172 0.77802 0.76529
 Cu37 Cu 0.75687 0.75237 0.49129
 Cu38 Cu 0.75218 0.74757 0.77482
 C39 C 0.71270 0.79085 0.64784
 C40 C 0.79586 0.70867 0.64671
 C41 C 0.71308 0.70973 0.58275
 C42 C 0.79483 0.79259 0.65100
 O43 O 0.27982 0.78339 0.88488
 O44 O 0.21770 0.72170 0.88161
 O45 O 0.27907 0.72199 0.90741
 O46 O 0.21816 0.78330 0.87678
 O47 O 0.22025 0.78068 0.63638
 O48 O 0.28169 0.71893 0.66697
 O49 O 0.22030 0.71908 0.64107
 O50 O 0.28189 0.78035 0.64430
 Cu51 Cu 0.24841 0.75294 0.91126
 Cu52 Cu 0.25133 0.74945 0.62358
 C53 C 0.29146 0.79242 0.76440
 C54 C 0.20842 0.70981 0.76016
 C55 C 0.29082 0.70985 0.79248
 C56 C 0.20861 0.79260 0.75266
 O57 O 1.02946 -0.02946 0.10055
 O58 O 0.96769 0.03160 0.09549
 O59 O 0.96784 -0.03005 0.09637
 O60 O 1.02930 0.03212 0.10296
 O61 O 1.03006 0.03176 -0.13804
 O62 O 0.96877 -0.03011 -0.14459
 O63 O 0.96841 0.03151 -0.14550
 O64 O 1.03042 -0.02988 -0.14043
 Cu65 Cu 0.99849 0.00111 0.12245
 Cu66 Cu 0.99949 0.00076 -0.16577
 C67 C 1.04056 -0.04017 -0.01892
 C68 C 0.95745 0.04208 -0.02542
 C69 C 0.95779 -0.04074 -0.02584
 C70 C 1.04022 0.04256 -0.01629
 O71 O 0.52883 0.46355 0.73112
 O72 O 0.46726 0.52623 0.72744
 O73 O 0.46716 0.46454 0.71912
 O74 O 0.52832 0.52475 0.77112
 O75 O 0.53331 0.52890 0.53232
 O76 O 0.47112 0.46751 0.47947
 O77 O 0.47230 0.52909 0.48818
 O78 O 0.53275 0.46772 0.49190
 Cu79 Cu 0.49741 0.49439 0.76057
 Cu80 Cu 0.50287 0.49868 0.47465
 C81 C 0.54126 0.45498 0.61037
 C82 C 0.45929 0.53828 0.60561
 C83 C 0.45850 0.45556 0.59233
 C84 C 0.54138 0.53725 0.66171
 O85 O 0.03075 0.52992 -0.12611
 O86 O -0.03119 0.46808 -0.13062
 O87 O -0.03068 0.52958 -0.14769
 O88 O 0.03048 0.46830 -0.12658
 O89 O 0.02906 0.47010 0.11428
 O90 O -0.03274 0.53173 0.09304
 O91 O -0.03261 0.47022 0.11021
 O92 O 0.02876 0.53175 0.11467
 Cu93 Cu 0.00004 0.49873 -0.15632
 Cu94 Cu -0.00210 0.50116 0.13164
 C95 C 0.04030 0.54145 -0.00440
 C96 C -0.04248 0.45856 -0.01025
 C97 C -0.04221 0.54124 -0.03120
 C98 C 0.04034 0.45866 -0.00367
 O99 O 0.46789 0.96972 0.36511
 O100 O 0.52955 1.03189 0.36905
 O101 O 0.52939 0.97047 0.34343
 O102 O 0.46790 1.03137 0.37292
 O103 O 0.47011 1.02964 0.61357
 O104 O 0.53196 0.96819 0.58390
 O105 O 0.53175 1.02960 0.60959
 O106 O 0.47046 0.96803 0.60571
 Cu107 Cu 0.49839 1.00110 0.33904
 Cu108 Cu 0.50134 0.99860 0.62677
 C109 C 0.45860 0.95829 0.48553
 C110 C 0.54122 1.04133 0.49061
 C111 C 0.54131 0.95889 0.45854
 C112 C 0.45843 1.04102 0.49705
 C113 C 1.17107 0.17369 0.12715
 C114 C 1.14753 0.15019 0.12481
 C115 C 1.13576 0.13836 0.25780
 C116 C 1.14773 0.15022 0.39079
 C117 C 1.17117 0.17358 0.39244
 C118 C 1.18319 0.18566 0.26088
 C119 C 1.11225 0.11487 0.25581
 C120 C 1.10036 0.10300 0.12237
 C121 C 1.11213 0.11483 -0.01068
 C122 C 1.13562 0.13834 -0.00865
 C123 C 1.10023 0.10290 -0.14376
 C124 C 1.07688 0.07945 -0.14527
 C125 C 1.06495 0.06748 -0.01375
 C126 C 1.07686 0.07945 0.11993
 H127 H 1.17990 0.18256 0.02437
 H128 H 1.13898 0.14142 0.49377
 H129 H 1.17983 0.18214 0.49747
 H130 H 1.10325 0.10582 0.35798
 H131 H 1.14462 0.14738 -0.11083
 H132 H 1.10898 0.11168 -0.24677
 H133 H 1.06816 0.07069 -0.24981
 H134 H 1.06792 0.07045 0.22219
 C135 C 0.67392 0.66993 0.67502
 C136 C 0.65058 0.64673 0.64932
 C137 C 0.64152 0.63881 0.50416
 C138 C 0.65589 0.65422 0.38730
 C139 C 0.67902 0.67723 0.41364
 C140 C 0.68833 0.68534 0.55742
 C141 C 0.61828 0.61563 0.47794
 C142 C 0.60389 0.60023 0.59508
 C143 C 0.61292 0.60818 0.74025
 C144 C 0.63619 0.63133 0.76646
 C145 C 0.59850 0.59283 0.85712
 C146 C 0.57534 0.56985 0.83079
 C147 C 0.56610 0.56166 0.68700
 C148 C 0.58057 0.57701 0.56938
 H149 H 0.68085 0.67592 0.78633
 H150 H 0.64925 0.64848 0.27539
 H151 H 0.68968 0.68867 0.32075
 H152 H 0.61140 0.60961 0.36650
 H153 H 0.64307 0.63736 0.87790
 H154 H 0.60511 0.59861 0.96904
 H155 H 0.56465 0.55844 0.92370
 H156 H 0.57368 0.57098 0.45807
 C157 C -0.17292 0.32821 0.13014
 C158 C -0.14941 0.35167 0.12805
 C159 C -0.13712 0.36395 0.26132
 C160 C -0.14854 0.35248 0.39426
 C161 C -0.17194 0.32905 0.39535
 C162 C -0.18438 0.31670 0.26354
 C163 C -0.11365 0.38747 0.25952
 C164 C -0.10228 0.39881 0.12610
 C165 C -0.11451 0.38646 -0.00716
 C166 C -0.13802 0.36300 -0.00535
 C167 C -0.10299 0.39782 -0.14012
 C168 C -0.07956 0.42121 -0.14126
 C169 C -0.06726 0.43372 -0.00948
 C170 C -0.07882 0.42232 0.12397
 H171 H -0.18224 0.31890 0.02755
 H172 H -0.13937 0.36162 0.49743
 H173 H -0.18032 0.32064 0.49957
 H174 H -0.10425 0.39691 0.36179
 H175 H -0.14742 0.35355 -0.10763
 H176 H -0.11209 0.38861 -0.24327
 H177 H -0.07112 0.42955 -0.24550
 H178 H -0.06954 0.43169 0.22653
 C179 C 0.32796 0.82833 0.62926
 C180 C 0.35149 0.85177 0.62649
 C181 C 0.36373 0.86427 0.75942
 C182 C 0.35214 0.85316 0.89270
 C183 C 0.32862 0.82985 0.89447
 C184 C 0.31633 0.81718 0.76302
 C185 C 0.38731 0.88765 0.75697
 C186 C 0.39875 0.89876 0.62325
 C187 C 0.38643 0.88634 0.49031
 C188 C 0.36291 0.86289 0.49275
 C189 C 0.39786 0.89763 0.35704
 C190 C 0.42129 0.92102 0.35531
 C191 C 0.43377 0.93350 0.48679
 C192 C 0.42231 0.92216 0.62051
 H193 H 0.31867 0.81884 0.52694
 H194 H 0.36124 0.86249 0.99561
 H195 H 0.32012 0.82170 0.99894
 H196 H 0.39673 0.89722 0.85900
 H197 H 0.35349 0.85333 0.39073
 H198 H 0.38867 0.88838 0.25412
 H199 H 0.42967 0.92931 0.25086
 H200 H 0.43165 0.93159 0.72286
 C201 C -0.16953 0.67211 -0.21172
 C202 C -0.14625 0.64865 -0.20319
 C203 C -0.13236 0.63665 -0.33262
 C204 C -0.14203 0.64853 -0.46847
 C205 C -0.16529 0.67203 -0.47597
 C206 C -0.17930 0.68400 -0.34777
 C207 C -0.10912 0.61303 -0.32389
 C208 C -0.09960 0.60136 -0.18726
 C209 C -0.11349 0.61352 -0.05801
 C210 C -0.13672 0.63704 -0.06683
 C211 C -0.10391 0.60193 0.07821
 C212 C -0.08076 0.57848 0.08677
 C213 C -0.06678 0.56611 -0.04072
 C214 C -0.07639 0.57773 -0.17767
 H215 H -0.18003 0.68112 -0.11169
 H216 H -0.13164 0.63963 -0.56886
 H217 H -0.17238 0.68074 -0.58207
 H218 H -0.09846 0.60376 -0.42313
 H219 H -0.14738 0.64632 0.03244
 H220 H -0.11432 0.61102 0.17824
 H221 H -0.07384 0.56999 0.19351
 H222 H -0.06579 0.56847 -0.27697
 C223 C 0.32680 1.17191 0.39353
 C224 C 0.35031 1.14845 0.39002
 C225 C 0.36157 1.13709 0.25382
 C226 C 0.34919 1.14931 0.12385
 C227 C 0.32586 1.17263 0.12829
 C228 C 0.31441 1.18419 0.26275
 C229 C 0.38502 1.11371 0.24942
 C230 C 0.39745 1.10149 0.37944
 C231 C 0.38628 1.11275 0.51585
 C232 C 0.36276 1.13618 0.52034
 C233 C 0.39890 1.10036 0.64534
 C234 C 0.42235 1.07703 0.63969
 C235 C 0.43360 1.06570 0.50448
 C236 C 0.42093 1.07813 0.37478
 H237 H 0.31822 1.18061 0.49800
 H238 H 0.35756 1.14086 0.01862
 H239 H 0.31678 1.18161 0.02592
 H240 H 0.39361 1.10505 0.14479
 H241 H 0.35417 1.14484 0.62495
 H242 H 0.39064 1.10869 0.75094
 H243 H 0.43168 1.06788 0.74125
 H244 H 0.42933 1.06966 0.26960
 C245 C 1.17229 -0.17092 -0.12536
 C246 C 1.14882 -0.14758 -0.13070
 C247 C 1.13777 -0.13675 -0.26728
 C248 C 1.15047 -0.14955 -0.39639
 C249 C 1.17389 -0.17288 -0.39033
 C250 C 1.18512 -0.18391 -0.25479
 C251 C 1.11422 -0.11335 -0.27232
 C252 C 1.10163 -0.10073 -0.14228
 C253 C 1.11278 -0.11167 -0.00585
 C254 C 1.13628 -0.13497 -0.00096
 C255 C 1.10025 -0.09914 0.12387
 C256 C 1.07682 -0.07595 0.11900
 C257 C 1.06546 -0.06479 -0.01567
 C258 C 1.07804 -0.07735 -0.14624
 H259 H 1.18047 -0.17895 -0.01949
 H260 H 1.14229 -0.14153 -0.50217
 H261 H 1.18316 -0.18226 -0.49218
 H262 H 1.10571 -0.10501 -0.37712
 H263 H 1.14478 -0.14332 0.10388
 H264 H 1.10855 -0.10728 0.22926
 H265 H 1.06761 -0.06674 0.22122
 H266 H 1.06950 -0.06898 -0.25085
 C267 C 0.67161 0.32623 0.43327
 C268 C 0.64808 0.34957 0.44333
 C269 C 0.63605 0.36330 0.31428
 C270 C 0.64763 0.35346 0.17782
 C271 C 0.67098 0.33020 0.16880
 C272 C 0.68325 0.31637 0.29605
 C273 C 0.61265 0.38666 0.32348
 C274 C 0.60106 0.39648 0.46003
 C275 C 0.61291 0.38277 0.58933
 C276 C 0.63641 0.35937 0.58020
 C277 C 0.60102 0.39275 0.72535
 C278 C 0.57763 0.41616 0.73311
 C279 C 0.56582 0.43000 0.60499
 C280 C 0.57773 0.41990 0.46883
 H281 H 0.68080 0.31575 0.53239
 H282 H 0.63862 0.36375 0.07795
 H283 H 0.67948 0.32308 0.06187
 H284 H 0.60347 0.39721 0.22435
 H285 H 0.64559 0.34883 0.67931
 H286 H 0.60980 0.38249 0.82566
 H287 H 0.56889 0.42349 0.83929
 H288 H 0.56884 0.43026 0.36883
 C289 C 0.82902 -0.17259 -0.19867
 C290 C 0.85210 -0.14855 -0.18895
 C291 C 0.86410 -0.13515 -0.31834
 C292 C 0.85294 -0.14576 -0.45456
 C293 C 0.83010 -0.16949 -0.46354
 C294 C 0.81779 -0.18335 -0.33629
 C295 C 0.88713 -0.11134 -0.31016
 C296 C 0.89844 -0.10058 -0.17420
 C297 C 0.88653 -0.11373 -0.04424
 C298 C 0.86341 -0.13768 -0.05233
 C299 C 0.89805 -0.10266 0.09137
 C300 C 0.92116 -0.07887 0.09786
 C301 C 0.93318 -0.06576 -0.03112
 C302 C 0.92157 -0.07681 -0.16677
 H303 H 0.81992 -0.18283 -0.09925
 H304 H 0.86190 -0.13570 -0.55460
 H305 H 0.82217 -0.17699 -0.57145
 H306 H 0.89627 -0.10119 -0.40982
 H307 H 0.85428 -0.14783 0.04731
 H308 H 0.88923 -0.11240 0.19231
 H309 H 0.92966 -0.07081 0.20392
 H310 H 0.93055 -0.06693 -0.26722
 C311 C 0.32687 0.32738 0.41172
 C312 C 0.35063 0.35053 0.41864
 C313 C 0.36311 0.36300 0.28836
 C314 C 0.35145 0.35196 0.15297
 C315 C 0.32771 0.32881 0.14699
 C316 C 0.31519 0.31630 0.27627
 C317 C 0.38697 0.38622 0.29591
 C318 C 0.39843 0.39706 0.43231
 C319 C 0.38577 0.38442 0.56210
 C320 C 0.36203 0.36131 0.55442
 C321 C 0.39701 0.39507 0.69819
 C322 C 0.42059 0.41809 0.70648
 C323 C 0.43352 0.43101 0.57890
 C324 C 0.42229 0.42032 0.44156
 H325 H 0.31749 0.31799 0.51239
 H326 H 0.36070 0.36119 0.05179
 H327 H 0.31916 0.32069 0.04107
 H328 H 0.39658 0.39581 0.19605
 H329 H 0.35242 0.35170 0.65431
 H330 H 0.38755 0.38561 0.79852
 H331 H 0.42869 0.42577 0.81379
 H332 H 0.43202 0.43008 0.34240
 C333 C 0.17091 0.67330 -0.11296
 C334 C 0.14761 0.64955 -0.11680
 C335 C 0.13683 0.63729 -0.25293
 C336 C 0.14951 0.64897 -0.38274
 C337 C 0.17271 0.67253 -0.37800
 C338 C 0.18367 0.68494 -0.24339
 C339 C 0.11359 0.61355 -0.25724
 C340 C 0.10097 0.60186 -0.12709
 C341 C 0.11175 0.61412 0.00905
 C342 C 0.13498 0.63787 0.01336
 C343 C 0.09909 0.60239 0.13884
 C344 C 0.07593 0.57878 0.13404
 C345 C 0.06498 0.56639 -0.00061
 C346 C 0.07770 0.57810 -0.13099
 H347 H 0.17914 0.68261 -0.00843
 H348 H 0.14153 0.63985 -0.48801
 H349 H 0.18208 0.68104 -0.48022
 H350 H 0.10534 0.60418 -0.36176
 H351 H 0.14323 0.64724 0.11788
 H352 H 0.10708 0.61150 0.24413
 H353 H 0.06659 0.57022 0.23623
 H354 H 0.06948 0.56880 -0.23556
 C355 C 0.67245 1.17264 0.38351
 C356 C 0.64875 1.14929 0.37925
 C357 C 0.63640 1.13868 0.24314
 C358 C 0.64792 1.15159 0.11365
 C359 C 0.67145 1.17483 0.11855
 C360 C 0.68407 1.18570 0.25329
 C361 C 0.61273 1.11536 0.23851
 C362 C 0.60122 1.10248 0.36842
 C363 C 0.61357 1.11310 0.50460
 C364 C 0.63723 1.13642 0.50918
 C365 C 0.60204 1.10020 0.63417
 C366 C 0.57853 1.07694 0.62914
 C367 C 0.56605 1.06613 0.49446
 C368 C 0.57756 1.07910 0.36427
 H369 H 0.68173 1.18059 0.48857
 H370 H 0.63873 1.14374 0.00836
 H371 H 0.67973 1.18424 0.01598
 H372 H 0.60330 1.10724 0.13394
 H373 H 0.64667 1.14453 0.61376
 H374 H 0.61121 1.10806 0.73949
 H375 H 0.57013 1.06740 0.73119
 H376 H 0.56818 1.07100 0.25969
 C377 C 0.17080 0.32855 0.13991
 C378 C 0.14736 0.35198 0.13861
 C379 C 0.13532 0.36401 0.27204
 C380 C 0.14704 0.35232 0.40462
 C381 C 0.17043 0.32893 0.40497
 C382 C 0.18254 0.31681 0.27277
 C383 C 0.11181 0.38747 0.27057
 C384 C 0.10022 0.39900 0.13721
 C385 C 0.11235 0.38687 0.00402
 C386 C 0.13580 0.36348 0.00558
 C387 C 0.10083 0.39832 -0.12902
 C388 C 0.07748 0.42159 -0.13066
 C389 C 0.06514 0.43393 0.00068
 C390 C 0.07668 0.42247 0.13464
 H391 H 0.17988 0.31945 0.03705
 H392 H 0.13811 0.36124 0.50803
 H393 H 0.17902 0.32032 0.50892
 H394 H 0.10257 0.39671 0.37291
 H395 H 0.14505 0.35424 -0.09678
 H396 H 0.10988 0.38927 -0.23200
 H397 H 0.06908 0.42993 -0.23543
 H398 H 0.06739 0.43176 0.23670
 C399 C 0.67499 0.82881 0.52793
 C400 C 0.65114 0.85194 0.53779
 C401 C 0.64014 0.86187 0.67683
 C402 C 0.65303 0.84861 0.80323
 C403 C 0.67654 0.82564 0.79259
 C404 C 0.68780 0.81545 0.65533
 C405 C 0.61641 0.88487 0.68774
 C406 C 0.60335 0.89811 0.56144
 C407 C 0.61420 0.88822 0.42220
 C408 C 0.63806 0.86522 0.41118
 C409 C 0.60096 0.90155 0.29633
 C410 C 0.57724 0.92444 0.30827
 C411 C 0.56631 0.93448 0.44629
 C412 C 0.57955 0.92111 0.57252
 H413 H 0.68340 0.82116 0.42150
 H414 H 0.64488 0.85596 0.91055
 H415 H 0.68596 0.81587 0.89269
 H416 H 0.60807 0.89242 0.79459
 H417 H 0.64638 0.85766 0.30435
 H418 H 0.60894 0.89428 0.18865
 H419 H 0.56748 0.93433 0.20909
 H420 H 0.57138 0.92859 0.67964
 C421 C 0.82687 0.17271 0.11629
 C422 C 0.85033 0.14917 0.11290
 C423 C 0.86237 0.13711 0.24568
 C424 C 0.85084 0.14871 0.37912
 C425 C 0.82757 0.17206 0.38156
 C426 C 0.81532 0.18433 0.25064
 C427 C 0.88575 0.11367 0.24333
 C428 C 0.89735 0.10204 0.10992
 C429 C 0.88541 0.11399 -0.02313
 C430 C 0.86195 0.13750 -0.02086
 C431 C 0.89721 0.10219 -0.15609
 C432 C 0.92060 0.07880 -0.15717
 C433 C 0.93262 0.06678 -0.02532
 C434 C 0.92077 0.07860 0.10788
 H435 H 0.81765 0.18195 0.01454
 H436 H 0.85982 0.13972 0.48179
 H437 H 0.81916 0.18052 0.48662
 H438 H 0.89493 0.10448 0.34539
 H439 H 0.85278 0.14669 -0.12290
 H440 H 0.88836 0.11105 -0.25922
 H441 H 0.92930 0.07014 -0.26135
 H442 H 0.92978 0.06959 0.21049
 C443 C 0.32884 0.67147 0.67907
 C444 C 0.35184 0.64772 0.69052
 C445 C 0.36147 0.63709 0.82990
 C446 C 0.34790 0.65053 0.95557
 C447 C 0.32502 0.67421 0.94328
 C448 C 0.31523 0.68490 0.80510
 C449 C 0.38446 0.61327 0.84126
 C450 C 0.39799 0.59999 0.71484
 C451 C 0.38832 0.61077 0.57566
 C452 C 0.36533 0.63447 0.56441
 C453 C 0.40182 0.59769 0.44945
 C454 C 0.42478 0.57420 0.46042
 C455 C 0.43471 0.56317 0.59782
 C456 C 0.42110 0.57618 0.72504
 H457 H 0.32156 0.67947 0.57185
 H458 H 0.35497 0.64273 1.06336
 H459 H 0.31493 0.68412 1.04231
 H460 H 0.39183 0.60512 0.94820
 H461 H 0.35797 0.64263 0.45746
 H462 H 0.39467 0.60567 0.34204
 H463 H 0.43474 0.56463 0.36043
 H464 H 0.42857 0.56794 0.83157
   
