data_POSCAR
  _audit_creation_date              2014-09-24
  _audit_creation_method            'ToBaCCo'
  _symmetry_space_group_name_H-M    'P1'
  _symmetry_Int_Tables_number       1
  _symmetry_cell_setting            triclinic
  loop_
  _symmetry_equiv_pos_as_xyz
 x,y,z
_cell_length_a 30.0168
_cell_length_b 29.3262
_cell_length_c 16.5297
_cell_angle_alpha 88.478200
_cell_angle_beta 89.911700
_cell_angle_gamma 89.440800
loop_
  _atom_site_label
  _atom_site_type_symbol
  _atom_site_fract_x
  _atom_site_fract_y
  _atom_site_fract_z
C1 C 0.16425 0.24855 0.10429
 C2 C 0.17714 0.20903 0.14879
 C3 C 0.21311 0.21178 0.20265
 C4 C 0.23885 0.25175 0.20678
 C5 C 0.22574 0.29028 0.15925
 C6 C 0.18803 0.28920 0.10964
 C7 C 0.27927 0.25309 0.26002
 C8 C 0.29413 0.29450 0.29108
 C9 C 0.33258 0.29625 0.33864
 C10 C 0.35567 0.25562 0.35874
 C11 C 0.34202 0.21355 0.32859
 C12 C 0.30401 0.21300 0.27828
 H13 H 0.13362 0.24910 0.07010
 H14 H 0.22112 0.18227 0.24077
 H15 H 0.24456 0.32151 0.16015
 H16 H 0.27596 0.32595 0.27882
 H17 H 0.38584 0.25703 0.39447
 H18 H 0.29350 0.18164 0.25235
 C19 C 0.84266 0.25048 0.17494
 C20 C 0.82180 0.29220 0.19198
 C21 C 0.78360 0.29230 0.24105
 C22 C 0.76693 0.25141 0.27595
 C23 C 0.78998 0.21032 0.26097
 C24 C 0.82651 0.20944 0.20837
 C25 C 0.72552 0.25127 0.32689
 C26 C 0.69799 0.21255 0.33059
 C27 C 0.65913 0.21141 0.37873
 C28 C 0.64725 0.25068 0.42104
 C29 C 0.67326 0.29023 0.41613
 C30 C 0.71260 0.28990 0.37038
 H31 H 0.87290 0.24990 0.13922
 H32 H 0.76688 0.32453 0.25085
 H33 H 0.77966 0.17855 0.28966
 H34 H 0.70694 0.18370 0.29494
 H35 H 0.61634 0.25102 0.45494
 H36 H 0.73293 0.32016 0.36910
 C37 C 0.65699 0.75320 0.66763
 C38 C 0.67299 0.71212 0.70241
 C39 C 0.71062 0.71257 0.75231
 C40 C 0.73466 0.75303 0.76362
 C41 C 0.71804 0.79392 0.72746
 C42 C 0.67889 0.79441 0.68110
 C43 C 0.77649 0.75231 0.81343
 C44 C 0.79074 0.79148 0.85359
 C45 C 0.82956 0.79082 0.90129
 C46 C 0.85367 0.74955 0.91025
 C47 C 0.84070 0.71036 0.87024
 C48 C 0.80255 0.71213 0.82121
 H49 H 0.62603 0.75335 0.63414
 H50 H 0.72073 0.68095 0.78240
 H51 H 0.73534 0.82574 0.73444
 H52 H 0.77125 0.82267 0.84950
 H53 H 0.88416 0.74770 0.94491
 H54 H 0.79314 0.68206 0.78945
 C55 C 0.34123 0.75269 0.66427
 C56 C 0.31687 0.79354 0.67113
 C57 C 0.27647 0.79323 0.71398
 C58 C 0.26098 0.75312 0.75345
 C59 C 0.28754 0.71325 0.74946
 C60 C 0.32649 0.71238 0.70282
 C61 C 0.21753 0.75265 0.79863
 C62 C 0.19330 0.71177 0.80868
 C63 C 0.15341 0.71028 0.85397
 C64 C 0.13690 0.75093 0.88576
 C65 C 0.15871 0.79229 0.87246
 C66 C 0.19961 0.79287 0.83129
 H67 H 0.37291 0.75263 0.63284
 H68 H 0.25729 0.82460 0.71557
 H69 H 0.27820 0.68238 0.78222
 H70 H 0.20560 0.68146 0.78056
 H71 H 0.10575 0.75085 0.91921
 H72 H 0.21748 0.82464 0.82645
 O73 O 0.94914 -0.02686 -0.09262
 O74 O 1.03286 0.06177 -0.06796
 O75 O 1.03619 -0.02457 -0.09656
 O76 O 0.94740 0.05986 -0.05835
 O77 O 0.95088 0.04256 0.07236
 O78 O 1.03958 -0.04141 0.03434
 O79 O 1.03703 0.04522 0.06307
 O80 O 0.95295 -0.04452 0.03790
 Cu81 Cu 0.99081 0.01898 -0.09207
 Cu82 Cu 0.99522 -0.00138 0.06510
 C83 C 0.93716 -0.05123 -0.03212
 C84 C 1.04891 0.06896 0.00137
 C85 C 1.05325 -0.04709 -0.03734
 C86 C 0.93490 0.06640 0.01387
 O87 O 0.45931 0.54032 0.60165
 O88 O 0.54839 0.45446 0.56935
 O89 O 0.54556 0.54208 0.59781
 O90 O 0.46242 0.45154 0.57956
 O91 O 0.45894 0.46527 0.44771
 O92 O 0.54149 0.55680 0.46628
 O93 O 0.54513 0.46966 0.43788
 O94 O 0.45572 0.55339 0.46959
 Cu95 Cu 0.50419 0.49570 0.60034
 Cu96 Cu 0.49991 0.51257 0.44223
 C97 C 0.44310 0.56213 0.54076
 C98 C 0.56146 0.44719 0.49753
 C99 C 0.55706 0.56544 0.53555
 C100 C 0.44723 0.44229 0.51041
 O101 O -0.04533 0.53631 0.01468
 O102 O 0.04489 0.45526 0.06348
 O103 O 0.04070 0.54040 0.01620
 O104 O -0.04173 0.45009 0.05525
 O105 O -0.03774 0.43123 -0.07302
 O106 O 0.04487 0.52093 -0.11181
 O107 O 0.04896 0.43599 -0.06461
 O108 O -0.04144 0.51857 -0.11421
 Cu109 Cu -0.00079 0.49727 0.05029
 Cu110 Cu 0.00380 0.47460 -0.10381
 C111 C -0.05820 0.54202 -0.05787
 C112 C 0.06245 0.43193 0.00817
 C113 C 0.05670 0.54609 -0.05451
 C114 C -0.05361 0.42513 -0.00245
 O115 O 0.45275 1.03971 0.50093
 O116 O 0.53913 0.95166 0.54211
 O117 O 0.53860 1.03910 0.50912
 O118 O 0.45219 0.95198 0.53752
 O119 O 0.45588 0.93628 0.40776
 O120 O 0.54170 1.02454 0.37880
 O121 O 0.54190 0.93677 0.41189
 O122 O 0.45541 1.02407 0.37107
 Cu123 Cu 0.49523 0.99695 0.53552
 Cu124 Cu 0.49893 0.97899 0.37932
 C125 C 0.44001 1.04743 0.42860
 C126 C 0.55497 0.92902 0.48392
 C127 C 0.55442 1.04713 0.43905
 C128 C 0.43989 0.92869 0.47794
 C129 C 1.15404 0.16758 0.14288
 C130 C 1.12752 0.15827 0.08032
 C131 C 1.10137 0.11622 0.07712
 C132 C 1.08027 0.10663 0.00864
 H133 H 1.12526 0.18146 0.02846
 H134 H 1.09800 0.09440 0.13069
 H135 H 1.15938 0.14116 0.18913
 H136 H 1.08491 0.12851 -0.04461
 C137 C 0.64931 0.66871 0.69148
 C138 C 0.62951 0.65852 0.62192
 C139 C 0.60432 0.61602 0.61438
 C140 C 0.58726 0.60434 0.54327
 H141 H 0.63151 0.68191 0.57017
 H142 H 0.59829 0.59502 0.66819
 H143 H 0.64943 0.64385 0.74124
 H144 H 0.59377 0.62532 0.48963
 C145 C -0.15834 0.33616 0.16522
 C146 C -0.13373 0.34083 0.09801
 C147 C -0.10790 0.38246 0.08114
 C148 C -0.08492 0.38748 0.01220
 H149 H -0.13092 0.31298 0.05648
 H150 H -0.10586 0.40805 0.12711
 H151 H -0.16298 0.36523 0.20366
 H152 H -0.08800 0.36229 -0.03426
 C153 C 0.33521 0.83769 0.64167
 C154 C 0.36166 0.84184 0.57673
 C155 C 0.38581 0.88453 0.55935
 C156 C 0.40862 0.89071 0.49044
 H157 H 0.36735 0.81297 0.53833
 H158 H 0.38707 0.91003 0.60560
 H159 H 0.32774 0.86763 0.67654
 H160 H 0.40616 0.86582 0.44335
 C161 C -0.13243 0.66812 -0.11631
 C162 C -0.13165 0.63252 -0.16584
 C163 C -0.10287 0.59199 -0.15003
 C164 C -0.09181 0.57770 -0.07501
 H165 H -0.14951 0.63413 -0.22259
 H166 H -0.09034 0.57391 -0.20176
 H167 H -0.11050 0.66750 -0.06433
 H168 H -0.10606 0.59440 -0.02322
 C169 C 0.36746 1.17407 0.34916
 C170 C 0.36240 1.13278 0.31675
 C171 C 0.39155 1.09334 0.33750
 C172 C 0.40831 1.08515 0.41160
 H173 H 0.33942 1.12752 0.26789
 H174 H 0.39828 1.06957 0.28982
 H175 H 0.39430 1.17783 0.39224
 H176 H 0.39939 1.10713 0.46084
 C177 C 1.13673 -0.16585 -0.09883
 C178 C 1.13716 -0.12625 -0.14128
 C179 C 1.10669 -0.08781 -0.12364
 C180 C 1.08838 -0.08136 -0.05079
 H181 H 1.15610 -0.12373 -0.19700
 H182 H 1.09830 -0.06476 -0.17373
 H183 H 1.11429 -0.16995 -0.04791
 H184 H 1.09855 -0.10230 0.00094
 C185 C 0.65741 0.33382 0.45009
 C186 C 0.62926 0.33607 0.51305
 C187 C 0.60528 0.37823 0.53541
 C188 C 0.59435 0.41108 0.48086
 H189 H 0.62197 0.30560 0.54880
 H190 H 0.59103 0.37901 0.59561
 H191 H 0.66813 0.36503 0.41979
 H192 H 0.60560 0.40873 0.41885
 C193 C 0.84463 -0.16797 -0.06641
 C194 C 0.87710 -0.16521 -0.01073
 C195 C 0.89915 -0.12218 0.00948
 C196 C 0.90594 -0.08866 -0.04564
 H197 H 0.88899 -0.19523 0.02214
 H198 H 0.91582 -0.12120 0.06748
 H199 H 0.82944 -0.13644 -0.08899
 H200 H 0.89220 -0.09117 -0.10589
 C201 C 0.35051 0.34148 0.35860
 C202 C 0.37465 0.34906 0.42470
 C203 C 0.39736 0.39294 0.43417
 C204 C 0.41767 0.40277 0.50334
 H205 H 0.37914 0.32234 0.47059
 H206 H 0.39946 0.41640 0.38250
 H207 H 0.34424 0.36953 0.31590
 H208 H 0.41453 0.37974 0.55540
 C209 C 0.12876 0.67026 -0.13070
 C210 C 0.13797 0.62876 -0.15944
 C211 C 0.10936 0.58914 -0.14086
 C212 C 0.08832 0.58327 -0.06978
 H213 H 0.16465 0.62326 -0.20196
 H214 H 0.10628 0.56383 -0.18702
 H215 H 0.09916 0.67361 -0.09356
 H216 H 0.09385 0.60670 -0.02133
 C217 C 0.63131 1.17292 0.38652
 C218 C 0.63569 1.13413 0.34524
 C219 C 0.60524 1.09519 0.35699
 C220 C 0.58678 1.08418 0.42862
 H221 H 0.65988 1.13072 0.29745
 H222 H 0.59912 1.07426 0.30522
 H223 H 0.60355 1.17529 0.42828
 H224 H 0.59500 1.10331 0.48163
 C225 C 0.17044 0.33198 0.07161
 C226 C 0.14568 0.33237 0.00402
 C227 C 0.11694 0.37114 -0.02210
 C228 C 0.09797 0.39919 0.03082
 H229 H 0.14423 0.30215 -0.03209
 H230 H 0.10657 0.37263 -0.08485
 H231 H 0.17565 0.36336 0.10323
 H232 H 0.10619 0.39604 0.09450
 C233 C 0.65893 0.83868 0.65426
 C234 C 0.63434 0.84358 0.58714
 C235 C 0.60820 0.88552 0.57014
 C236 C 0.58730 0.89175 0.49934
 H237 H 0.63179 0.81563 0.54585
 H238 H 0.60412 0.91022 0.61731
 H239 H 0.66351 0.86775 0.69247
 H240 H 0.59272 0.86759 0.45169
 C241 C 0.84882 0.16553 0.19175
 C242 C 0.86460 0.15612 0.11833
 C243 C 0.88981 0.11386 0.10392
 C244 C 0.90321 0.10374 0.02930
 H245 H 0.85974 0.18044 0.06847
 H246 H 0.89951 0.09223 0.15525
 H247 H 0.85124 0.14004 0.24030
 H248 H 0.89304 0.12544 -0.02166
 C249 C 0.35232 0.66935 0.69753
 C250 C 0.37080 0.65646 0.62810
 C251 C 0.39752 0.61421 0.62297
 C252 C 0.41092 0.59972 0.55087
 H253 H 0.36618 0.67755 0.57380
 H254 H 0.40770 0.59614 0.67804
 H255 H 0.35431 0.64688 0.75057
 H256 H 0.40005 0.61810 0.49650
   
