data_POSCAR
  _audit_creation_date              2014-09-24
  _audit_creation_method            'ToBaCCo'
  _symmetry_space_group_name_H-M    'P1'
  _symmetry_Int_Tables_number       1
  _symmetry_cell_setting            triclinic
  loop_
  _symmetry_equiv_pos_as_xyz
 x,y,z
_cell_length_a 44.6136
_cell_length_b 46.1716
_cell_length_c 43.8532
_cell_angle_alpha 90.146700
_cell_angle_beta 89.522200
_cell_angle_gamma 90.334100
loop_
  _atom_site_label
  _atom_site_type_symbol
  _atom_site_fract_x
  _atom_site_fract_y
  _atom_site_fract_z
C1 C 0.34844 0.33428 1.38841
 C2 C 0.32166 0.34438 1.40157
 C3 C 0.30644 0.36847 1.38936
 C4 C 0.31902 0.38209 1.36330
 C5 C 0.34573 0.37218 1.34994
 C6 C 0.36071 0.34844 1.36279
 C7 C 0.36281 0.30984 1.40026
 C8 C 0.38995 0.29964 1.38744
 C9 C 0.40244 0.31479 1.36240
 C10 C 0.38775 0.33860 1.34971
 C11 C 0.39924 0.35211 1.32348
 C12 C 0.38385 0.37509 1.30973
 C13 C 0.35738 0.38538 1.32351
 H14 H 0.31220 0.33240 1.42055
 H15 H 0.30885 0.40120 1.35372
 H16 H 0.35320 0.29941 1.42020
 H17 H 0.42264 0.30704 1.35130
 H18 H 0.42000 0.34440 1.31344
 H19 H 0.34521 0.40293 1.31303
 C20 C 1.15615 0.66310 0.88327
 C21 C 1.18048 0.65004 0.89779
 C22 C 1.19420 0.62493 0.88567
 C23 C 1.18219 0.61299 0.85857
 C24 C 1.15775 0.62581 0.84392
 C25 C 1.14470 0.65097 0.85633
 C26 C 1.14360 0.68856 0.89515
 C27 C 1.11967 0.70268 0.88045
 C28 C 1.10799 0.68971 0.85375
 C29 C 1.12041 0.66421 0.84162
 C30 C 1.10934 0.65216 0.81451
 C31 C 1.12240 0.62721 0.80164
 C32 C 1.14648 0.61406 0.81671
 H33 H 1.18961 0.66072 0.91767
 H34 H 1.19107 0.59314 0.84906
 H35 H 1.15223 0.69673 0.91652
 H36 H 1.09030 0.70009 0.84115
 H37 H 1.09049 0.66226 0.80339
 H38 H 1.15704 0.59512 0.80681
 C39 C 0.63784 -0.16310 0.10732
 C40 C 0.66419 -0.15320 0.09288
 C41 C 0.67936 -0.12854 0.10380
 C42 C 0.66740 -0.11335 0.12888
 C43 C 0.64116 -0.12299 0.14348
 C44 C 0.62627 -0.14796 0.13268
 C45 C 0.62339 -0.18834 0.09720
 C46 C 0.59753 -0.19931 0.11224
 C47 C 0.58592 -0.18339 0.13727
 C48 C 0.60015 -0.15806 0.14760
 C49 C 0.58925 -0.14322 0.17338
 C50 C 0.60430 -0.11859 0.18454
 C51 C 0.63005 -0.10844 0.16922
 H52 H 0.67349 -0.16528 0.07385
 H53 H 0.67872 -0.09410 0.13723
 H54 H 0.63223 -0.19893 0.07704
 H55 H 0.56679 -0.19139 0.15011
 H56 H 0.56959 -0.15136 0.18535
 H57 H 0.64158 -0.08929 0.17753
 C58 C -0.14764 1.16674 -0.37937
 C59 C -0.17277 1.15439 -0.39363
 C60 C -0.18643 1.12889 -0.38213
 C61 C -0.17429 1.11627 -0.35565
 C62 C -0.14960 1.12868 -0.34090
 C63 C -0.13608 1.15388 -0.35287
 C64 C -0.13393 1.19184 -0.39116
 C65 C -0.10896 1.20439 -0.37667
 C66 C -0.09775 1.19144 -0.35014
 C67 C -0.11117 1.16639 -0.33812
 C68 C -0.10033 1.15392 -0.31129
 C69 C -0.11419 1.12918 -0.29874
 C70 C -0.13867 1.11656 -0.31390
 H71 H -0.18083 1.16423 -0.41437
 H72 H -0.18489 1.09750 -0.34534
 H73 H -0.14259 1.20151 -0.41176
 H74 H -0.07896 1.20127 -0.33841
 H75 H -0.08109 1.16352 -0.30013
 H76 H -0.14977 1.09772 -0.30426
 C77 C 0.67237 0.67990 0.63049
 C78 C 0.69835 0.67011 0.61551
 C79 C 0.71279 0.64484 0.62521
 C80 C 0.70109 0.62939 0.65020
 C81 C 0.67528 0.63902 0.66547
 C82 C 0.66071 0.66428 0.65547
 C83 C 0.65797 0.70509 0.62078
 C84 C 0.63191 0.71546 0.63575
 C85 C 0.62040 0.69927 0.66064
 C86 C 0.63460 0.67396 0.67057
 C87 C 0.62342 0.65845 0.69578
 C88 C 0.63820 0.63358 0.70617
 C89 C 0.66400 0.62393 0.69077
 H90 H 0.70724 0.68199 0.59612
 H91 H 0.71242 0.61012 0.65807
 H92 H 0.66679 0.71586 0.60071
 H93 H 0.60116 0.70684 0.67349
 H94 H 0.60363 0.66607 0.70777
 H95 H 0.67524 0.60455 0.69848
 C96 C 0.82937 0.32152 0.12513
 C97 C 0.80266 0.33062 0.11142
 C98 C 0.78799 0.35615 0.12117
 C99 C 0.80041 0.37177 0.14583
 C100 C 0.82674 0.36265 0.15997
 C101 C 0.84163 0.33777 0.14924
 C102 C 0.84413 0.29650 0.11484
 C103 C 0.87152 0.28766 0.12779
 C104 C 0.88359 0.30449 0.15174
 C105 C 0.86865 0.32906 0.16282
 C106 C 0.87999 0.34472 0.18773
 C107 C 0.86454 0.36886 0.19934
 C108 C 0.83817 0.37791 0.18503
 H109 H 0.79427 0.31838 0.09218
 H110 H 0.78902 0.39051 0.15512
 H111 H 0.83473 0.28471 0.09576
 H112 H 0.90390 0.29779 0.16303
 H113 H 0.90033 0.33761 0.19872
 H114 H 0.82651 0.39687 0.19350
 C115 C 0.32227 0.17294 0.87044
 C116 C 0.29719 0.16113 0.88536
 C117 C 0.28358 0.13520 0.87504
 C118 C 0.29641 0.12102 0.84944
 C119 C 0.32134 0.13281 0.83402
 C120 C 0.33423 0.15892 0.84453
 C121 C 0.33540 0.19883 0.88085
 C122 C 0.35998 0.21112 0.86527
 C123 C 0.37165 0.19714 0.83938
 C124 C 0.35896 0.17119 0.82896
 C125 C 0.37046 0.15755 0.80294
 C126 C 0.35751 0.13185 0.79188
 C127 C 0.33316 0.11934 0.80776
 H128 H 0.28897 0.17192 0.90570
 H129 H 0.28617 0.10160 0.84025
 H130 H 0.32613 0.20978 0.90066
 H131 H 0.39077 0.20644 0.82744
 H132 H 0.38961 0.16702 0.79118
 H133 H 0.32298 0.09958 0.79923
 C134 C 0.17554 0.83074 0.37926
 C135 C 0.20249 0.84141 0.39142
 C136 C 0.21767 0.86474 0.37752
 C137 C 0.20526 0.87773 0.35159
 C138 C 0.17854 0.86721 0.33912
 C139 C 0.16365 0.84355 0.35290
 C140 C 0.16077 0.80699 0.39264
 C141 C 0.13437 0.79524 0.37978
 C142 C 0.12272 0.80858 0.35345
 C143 C 0.13704 0.83255 0.34010
 C144 C 0.12532 0.84549 0.31385
 C145 C 0.14015 0.86900 0.29997
 C146 C 0.16672 0.87977 0.31280
 H147 H 0.21204 0.83108 0.41124
 H148 H 0.21646 0.89608 0.34105
 H149 H 0.17102 0.79682 0.41214
 H150 H 0.10188 0.80104 0.34365
 H151 H 0.10502 0.83685 0.30378
 H152 H 0.17814 0.89804 0.30231
 Zn153 Zn -0.00099 1.02950 -0.00938
 Zn154 Zn -0.03075 0.97147 -0.01870
 Zn155 Zn 0.02931 0.97584 0.01109
 Zn156 Zn -0.02492 0.99693 0.04380
 O157 O -0.00689 0.99339 0.00660
 O158 O -0.01933 1.03346 -0.04508
 O159 O -0.01259 0.93884 -0.03158
 O160 O 0.05999 0.99721 -0.00296
 O161 O -0.04115 0.99086 -0.05251
 O162 O 0.03769 1.03760 -0.01702
 O163 O 0.03144 0.94229 -0.00904
 O164 O -0.00275 0.98323 0.07429
 O165 O -0.06521 0.95980 -0.00050
 O166 O 0.03764 0.96759 0.04998
 O167 O -0.05949 0.97780 0.04586
 O168 O -0.03406 1.03352 0.05338
 O169 O -0.01530 1.05810 0.01439
 C170 C -0.03518 1.01651 -0.06121
 C171 C 0.01323 0.92873 -0.02606
 C172 C 0.06119 1.02250 -0.01419
 C173 C 0.02283 0.97135 0.07450
 C174 C -0.07462 0.96338 0.02668
 C175 C -0.02931 1.05731 0.03969
 Zn176 Zn 0.54850 -0.00985 0.49474
 Zn177 Zn 0.49023 -0.02040 0.52735
 Zn178 Zn 0.51428 0.04004 0.51968
 Zn179 Zn 0.49119 0.00767 0.46600
 O180 O 0.51103 0.00433 0.50200
 O181 O 0.55484 -0.04306 0.51427
 O182 O 0.47760 -0.00287 0.56162
 O183 O 0.55232 0.05098 0.52623
 O184 O 0.51216 -0.05097 0.53895
 O185 O 0.57770 0.01405 0.50720
 O186 O 0.49527 0.04168 0.55569
 O187 O 0.47966 0.04397 0.45803
 O188 O 0.45701 -0.03515 0.51005
 O189 O 0.49806 0.06815 0.49731
 O190 O 0.45803 -0.01388 0.46496
 O191 O 0.51295 -0.00411 0.43398
 O192 O 0.55554 -0.01727 0.45515
 C193 C 0.53877 -0.05835 0.53208
 C194 C 0.48052 0.02304 0.57100
 C195 C 0.57703 0.03863 0.52020
 C196 C 0.48380 0.06753 0.47241
 C197 C 0.44572 -0.03096 0.48395
 C198 C 0.53920 -0.01440 0.43179
 Zn199 Zn 0.96537 0.48628 0.48835
 Zn200 Zn 1.02503 0.47813 0.51828
 Zn201 Zn 1.02043 0.50701 0.45718
 Zn202 Zn 0.99831 0.53747 0.51253
 O203 O 1.00237 0.50215 0.49420
 O204 O 0.96095 0.45278 0.50773
 O205 O 1.05894 0.46627 0.49919
 O206 O 0.99870 0.49363 0.42606
 O207 O 1.00484 0.44571 0.52952
 O208 O 0.95741 0.47843 0.44917
 O209 O 1.05491 0.48821 0.45463
 O210 O 1.01354 0.56661 0.49030
 O211 O 1.03673 0.49561 0.55321
 O212 O 1.02910 0.54400 0.44867
 O213 O 1.01699 0.53919 0.54825
 O214 O 0.96001 0.54671 0.52030
 O215 O 0.93568 0.50868 0.50210
 C216 C 0.97815 0.43755 0.52396
 C217 C 1.06909 0.47190 0.47264
 C218 C 0.97294 0.48194 0.42507
 C219 C 1.02569 0.56708 0.46403
 C220 C 1.03219 0.52109 0.56330
 C221 C 0.93568 0.53322 0.51518
 Zn222 Zn 0.50134 0.46145 1.01662
 Zn223 Zn 0.47249 0.52007 1.02049
 Zn224 Zn 0.53326 0.51258 0.99152
 Zn225 Zn 0.47948 0.48953 0.96032
 O226 O 0.49654 0.49600 0.99733
 O227 O 0.48272 0.46070 1.05259
 O228 O 0.49126 0.55352 1.03056
 O229 O 0.56342 0.49135 1.00593
 O230 O 0.46104 0.50359 1.05611
 O231 O 0.53973 0.45288 1.02408
 O232 O 0.53606 0.54682 1.00979
 O233 O 0.50177 0.50233 0.92896
 O234 O 0.43844 0.53011 1.00096
 O235 O 0.54183 0.51946 0.95228
 O236 O 0.44463 0.50746 0.95687
 O237 O 0.47129 0.45214 0.95324
 O238 O 0.48649 0.43147 0.99572
 C239 C 0.46671 0.47877 1.06714
 C240 C 0.51786 0.56223 1.02505
 C241 C 0.56381 0.46686 1.01897
 C242 C 0.52717 0.51481 0.92807
 C243 C 0.42928 0.52358 0.97439
 C244 C 0.47447 0.42980 0.96967
 C245 C 1.27224 0.37384 0.43385
 C246 C 1.24551 0.38407 0.44677
 C247 C 1.22498 0.39919 0.42910
 C248 C 1.23137 0.40382 0.39810
 C249 C 1.25795 0.39366 0.38508
 C250 C 1.27917 0.37854 0.40266
 N251 N 1.19793 0.40982 0.44291
 N252 N 1.17948 0.42469 0.42761
 C253 C 1.15214 0.43598 0.43993
 C254 C 1.13433 0.45279 0.42096
 C255 C 1.10751 0.46440 0.43173
 C256 C 1.09780 0.45934 0.46187
 C257 C 1.11570 0.44232 0.48101
 C258 C 1.14277 0.43073 0.47013
 H259 H 1.28784 0.36337 0.44892
 H260 H 1.24097 0.38050 0.47077
 H261 H 1.21569 0.41515 0.38375
 H262 H 1.26097 0.39686 0.36084
 H263 H 1.14134 0.45694 0.39767
 H264 H 1.09433 0.47732 0.41629
 H265 H 1.10885 0.43804 0.50432
 H266 H 1.15626 0.41773 0.48519
 C267 C 0.22543 0.61681 0.93134
 C268 C 0.25128 0.60586 0.94486
 C269 C 0.27219 0.59038 0.92759
 C270 C 0.26673 0.58556 0.89651
 C271 C 0.24097 0.59646 0.88286
 C272 C 0.21979 0.61266 0.89987
 N273 N 0.29896 0.58019 0.94184
 N274 N 0.31836 0.56571 0.92694
 C275 C 0.34563 0.55542 0.93992
 C276 C 0.36467 0.53886 0.92155
 C277 C 0.39167 0.52858 0.93289
 C278 C 0.40034 0.53475 0.96302
 C279 C 0.38117 0.55145 0.98157
 C280 C 0.35394 0.56171 0.97012
 H281 H 0.20960 0.62777 0.94608
 H282 H 0.25502 0.60946 0.96895
 H283 H 0.28266 0.57378 0.88253
 H284 H 0.23879 0.59326 0.85856
 H285 H 0.35853 0.53394 0.89825
 H286 H 0.40582 0.51584 0.91788
 H287 H 0.38719 0.55656 1.00485
 H288 H 0.33953 0.57457 0.98473
 C289 C -0.28693 0.88039 0.05831
 C290 C -0.25942 0.88934 0.04579
 C291 C -0.23615 0.89862 0.06477
 C292 C -0.24063 0.89857 0.09654
 C293 C -0.26799 0.88964 0.10903
 C294 C -0.29155 0.88065 0.09010
 N295 N -0.20835 0.90836 0.05157
 N296 N -0.18749 0.91816 0.06838
 C297 C -0.15933 0.92854 0.05692
 C298 C -0.13909 0.94032 0.07771
 C299 C -0.11160 0.95141 0.06779
 C300 C -0.10367 0.95079 0.03669
 C301 C -0.12388 0.93854 0.01574
 C302 C -0.15163 0.92756 0.02578
 H303 H -0.30473 0.87373 0.04315
 H304 H -0.25630 0.88929 0.02128
 H305 H -0.22301 0.90545 0.11180
 H306 H -0.27059 0.88950 0.13360
 H307 H -0.14479 0.94113 0.10175
 H308 H -0.09657 0.96053 0.08458
 H309 H -0.11841 0.93777 -0.00835
 H310 H -0.16701 0.91846 0.00931
 C311 C 0.78237 0.08631 0.60532
 C312 C 0.75668 0.07414 0.59246
 C313 C 0.73565 0.09159 0.57811
 C314 C 0.74106 0.12147 0.57574
 C315 C 0.76709 0.13371 0.58804
 C316 C 0.78803 0.11643 0.60367
 N317 N 0.70884 0.07841 0.56670
 N318 N 0.68617 0.09309 0.55873
 C319 C 0.65942 0.07940 0.54775
 C320 C 0.63317 0.09567 0.54548
 C321 C 0.60635 0.08252 0.53638
 C322 C 0.60552 0.05289 0.52888
 C323 C 0.63212 0.03679 0.53041
 C324 C 0.65878 0.04986 0.53997
 H325 H 0.79816 0.07173 0.61574
 H326 H 0.75292 0.05100 0.59408
 H327 H 0.72507 0.13540 0.56464
 H328 H 0.76975 0.15697 0.58663
 H329 H 0.63337 0.11846 0.55137
 H330 H 0.58626 0.09552 0.53526
 H331 H 0.63220 0.01393 0.52483
 H332 H 0.67883 0.03685 0.54140
 C333 C 0.43533 0.27097 0.39725
 C334 C 0.44888 0.24565 0.40760
 C335 C 0.43145 0.22274 0.41876
 C336 C 0.40023 0.22577 0.42060
 C337 C 0.38663 0.25138 0.41115
 C338 C 0.40388 0.27434 0.39875
 N339 N 0.44587 0.19667 0.42817
 N340 N 0.43191 0.17257 0.42907
 C341 C 0.44586 0.14655 0.43931
 C342 C 0.43294 0.11982 0.43175
 C343 C 0.44575 0.09403 0.44181
 C344 C 0.47130 0.09468 0.46033
 C345 C 0.48416 0.12155 0.46803
 C346 C 0.47174 0.14729 0.45734
 H347 H 0.44977 0.28823 0.38905
 H348 H 0.47304 0.24369 0.40644
 H349 H 0.38635 0.20833 0.42938
 H350 H 0.36242 0.25235 0.41213
 H351 H 0.41293 0.11900 0.41795
 H352 H 0.43526 0.07363 0.43574
 H353 H 0.50386 0.12264 0.48227
 H354 H 0.48196 0.16775 0.46363
 C355 C 0.93639 0.23515 0.61140
 C356 C 0.94943 0.26094 0.60094
 C357 C 0.93151 0.28337 0.59011
 C358 C 0.90020 0.27965 0.58973
 C359 C 0.88713 0.25394 0.60024
 C360 C 0.90505 0.23139 0.61129
 N361 N 0.94544 0.30969 0.57978
 N362 N 0.93005 0.33021 0.56874
 C363 C 0.94297 0.35686 0.55823
 C364 C 0.92418 0.37705 0.54460
 C365 C 0.93569 0.40320 0.53366
 C366 C 0.96639 0.40983 0.53632
 C367 C 0.98528 0.38965 0.55039
 C368 C 0.97368 0.36327 0.56119
 H369 H 0.95084 0.21806 0.61940
 H370 H 0.97358 0.26346 0.60126
 H371 H 0.88579 0.29669 0.58156
 H372 H 0.86293 0.25194 0.60028
 H373 H 0.90049 0.37238 0.54228
 H374 H 0.92044 0.41825 0.52309
 H375 H 1.00901 0.39412 0.55275
 H376 H 0.98863 0.34796 0.57177
 C377 C 0.12645 0.74811 -0.09047
 C378 C 0.11548 0.77432 -0.07925
 C379 C 0.08618 0.78282 -0.08519
 C380 C 0.06768 0.76474 -0.10270
 C381 C 0.07856 0.73839 -0.11405
 C382 C 0.10824 0.72938 -0.10808
 N383 N 0.07606 0.80991 -0.07305
 N384 N 0.04992 0.81990 -0.07746
 C385 C 0.04098 0.84717 -0.06463
 C386 C 0.01218 0.85773 -0.07025
 C387 C 0.00301 0.88428 -0.05785
 C388 C 0.02259 0.90068 -0.03955
 C389 C 0.05148 0.88996 -0.03403
 C390 C 0.06058 0.86354 -0.04642
 H391 H 0.14975 0.74345 -0.08620
 H392 H 0.13005 0.78827 -0.06602
 H393 H 0.04479 0.77083 -0.10741
 H394 H 0.06307 0.72477 -0.12646
 H395 H -0.00317 0.84535 -0.08424
 H396 H -0.01939 0.89191 -0.06253
 H397 H 0.06716 0.90198 -0.02008
 H398 H 0.08297 0.85593 -0.04169
 C399 C 0.55357 0.76772 1.10874
 C400 C 0.54094 0.74112 1.10014
 C401 C 0.55844 0.72004 1.08576
 C402 C 0.58881 0.72595 1.07985
 C403 C 0.60149 0.75242 1.08830
 C404 C 0.58422 0.77399 1.10302
 N405 N 0.54517 0.69281 1.07742
 N406 N 0.56078 0.67322 1.06457
 C407 C 0.54910 0.64561 1.05557
 C408 C 0.56854 0.62628 1.04113
 C409 C 0.55834 0.59923 1.03150
 C410 C 0.52828 0.59087 1.03618
 C411 C 0.50870 0.61025 1.05099
 C412 C 0.51903 0.63751 1.06060
 H413 H 0.53878 0.78358 1.11889
 H414 H 0.51740 0.73696 1.10462
 H415 H 0.60298 0.70994 1.06897
 H416 H 0.62531 0.75507 1.08441
 H417 H 0.59175 0.63230 1.03719
 H418 H 0.57409 0.58489 1.02026
 H419 H 0.48544 0.60446 1.05491
 H420 H 0.50361 0.65219 1.07180
 C421 C 0.40598 0.36841 1.25750
 C422 C 0.41562 0.37924 1.22942
 C423 C 0.41387 0.40882 1.22312
 C424 C 0.40242 0.42774 1.24544
 C425 C 0.39285 0.41693 1.27375
 C426 C 0.39455 0.38709 1.28010
 N427 N 0.42406 0.41873 1.19392
 N428 N 0.42197 0.44485 1.18496
 C429 C 0.43293 0.45324 1.15540
 C430 C 0.42891 0.48169 1.14521
 C431 C 0.43960 0.49019 1.11640
 C432 C 0.45466 0.47028 1.09745
 C433 C 0.45856 0.44177 1.10783
 C434 C 0.44781 0.43333 1.13639
 H435 H 0.40701 0.34528 1.26131
 H436 H 0.42432 0.36447 1.21232
 H437 H 0.40099 0.45075 1.24106
 H438 H 0.38441 0.43191 1.29075
 H439 H 0.41749 0.49727 1.15961
 H440 H 0.43629 0.51231 1.10908
 H441 H 0.46998 0.42583 1.09386
 H442 H 0.45127 0.41121 1.14363
 C443 C 0.56334 -0.09864 0.21800
 C444 C 0.55376 -0.08524 0.24499
 C445 C 0.57447 -0.07733 0.26736
 C446 C 0.60509 -0.08270 0.26234
 C447 C 0.61471 -0.09590 0.23532
 C448 C 0.59393 -0.10409 0.21291
 N449 N 0.56388 -0.06436 0.29510
 N450 N 0.58133 -0.05867 0.31717
 C451 C 0.57075 -0.04609 0.34510
 C452 C 0.59044 -0.04358 0.36965
 C453 C 0.58042 -0.03278 0.39774
 C454 C 0.55048 -0.02404 0.40160
 C455 C 0.53097 -0.02585 0.37661
 C456 C 0.54097 -0.03688 0.34865
 H457 H 0.54689 -0.10451 0.20101
 H458 H 0.53010 -0.08120 0.24860
 H459 H 0.62154 -0.07684 0.27930
 H460 H 0.63838 -0.10018 0.23217
 H461 H 0.61347 -0.05055 0.36716
 H462 H 0.59602 -0.03160 0.41650
 H463 H 0.50777 -0.01936 0.37883
 H464 H 0.52535 -0.03849 0.32995
 C465 C -0.09490 1.13570 -0.24554
 C466 C -0.08561 1.12448 -0.21766
 C467 C -0.08520 1.09457 -0.21284
 C468 C -0.09393 1.07578 -0.23644
 C469 C -0.10303 1.08697 -0.26447
 C470 C -0.10373 1.11709 -0.26932
 N471 N -0.07569 1.08402 -0.18386
 N472 N -0.07690 1.05736 -0.17662
 C473 C -0.06685 1.04750 -0.14750
 C474 C -0.07049 1.01830 -0.13968
 C475 C -0.06057 1.00813 -0.11148
 C476 C -0.04662 1.02708 -0.09074
 C477 C -0.04312 1.05640 -0.09869
 C478 C -0.05319 1.06653 -0.12672
 H479 H -0.09566 1.15898 -0.24827
 H480 H -0.07898 1.13916 -0.19960
 H481 H -0.09357 1.05254 -0.23328
 H482 H -0.10929 1.07204 -0.28243
 H483 H -0.08098 1.00341 -0.15551
 H484 H -0.06352 0.98541 -0.10607
 H485 H -0.03254 1.07160 -0.08325
 H486 H -0.05007 1.08921 -0.13220
 C487 C 1.10299 0.63451 0.74861
 C488 C 1.09272 0.62376 0.72078
 C489 C 1.09092 0.59392 0.71555
 C490 C 1.09949 0.57473 0.73866
 C491 C 1.10963 0.58547 0.76669
 C492 C 1.11147 0.61553 0.77202
 N493 N 1.07997 0.58397 0.68671
 N494 N 1.07936 0.55739 0.67889
 C495 C 1.06777 0.54852 0.64986
 C496 C 1.06961 0.51940 0.64097
 C497 C 1.05830 0.51031 0.61275
 C498 C 1.04472 0.53027 0.59307
 C499 C 1.04293 0.55946 0.60216
 C500 C 1.05437 0.56850 0.63015
 H501 H 1.10466 0.65774 0.75164
 H502 H 1.08625 0.63876 0.70310
 H503 H 1.09813 0.55154 0.73518
 H504 H 1.11565 0.57024 0.78431
 H505 H 1.07984 0.50375 0.65592
 H506 H 1.05999 0.48768 0.60646
 H507 H 1.03270 0.57545 0.58758
 H508 H 1.05258 0.59112 0.63643
 C509 C 0.76369 0.65409 0.60248
 C510 C 0.79009 0.64418 0.58869
 C511 C 0.79337 0.61484 0.58137
 C512 C 0.76982 0.59541 0.58791
 C513 C 0.74357 0.60524 0.60195
 C514 C 0.74029 0.63465 0.60949
 N515 N 0.82105 0.60515 0.56821
 N516 N 0.82436 0.57926 0.55882
 C517 C 0.85217 0.56889 0.54667
 C518 C 0.85325 0.54082 0.53469
 C519 C 0.88026 0.52944 0.52388
 C520 C 0.90683 0.54595 0.52514
 C521 C 0.90562 0.57430 0.53687
 C522 C 0.87850 0.58573 0.54747
 H523 H 0.76182 0.67682 0.60832
 H524 H 0.80812 0.65933 0.58388
 H525 H 0.77184 0.57261 0.58254
 H526 H 0.72575 0.58987 0.60687
 H527 H 0.83312 0.52763 0.53403
 H528 H 0.88042 0.50752 0.51506
 H529 H 0.92568 0.58757 0.53811
 H530 H 0.87821 0.60749 0.55674
 C531 C 0.74124 0.34644 1.09283
 C532 C 0.71476 0.35631 1.07960
 C533 C 0.70809 0.38585 1.07927
 C534 C 0.72825 0.40556 1.09241
 C535 C 0.75445 0.39579 1.10608
 C536 C 0.76150 0.36598 1.10675
 N537 N 0.68048 0.39533 1.06622
 N538 N 0.67543 0.42203 1.06138
 C539 C 0.64762 0.43226 1.04956
 C540 C 0.64554 0.46128 1.04080
 C541 C 0.61847 0.47238 1.03029
 C542 C 0.59278 0.45466 1.02880
 C543 C 0.59495 0.42544 1.03748
 C544 C 0.62220 0.41426 1.04762
 H545 H 0.74487 0.32331 1.09334
 H546 H 0.69926 0.34085 1.06973
 H547 H 0.72368 0.42856 1.09235
 H548 H 0.76959 0.41200 1.11513
 H549 H 0.66496 0.47537 1.04232
 H550 H 0.61752 0.49500 1.02390
 H551 H 0.57557 0.41123 1.03653
 H552 H 0.62324 0.39177 1.05444
 C553 C 0.23698 1.14280 -0.09538
 C554 C 0.21102 1.13204 -0.08137
 C555 C 0.20488 1.10238 -0.08130
 C556 C 0.22495 1.08339 -0.09574
 C557 C 0.25077 1.09410 -0.11025
 C558 C 0.25743 1.12408 -0.11026
 N559 N 0.17779 1.09228 -0.06705
 N560 N 0.17257 1.06553 -0.06237
 C561 C 0.14499 1.05559 -0.04897
 C562 C 0.14211 1.02641 -0.04092
 C563 C 0.11513 1.01580 -0.02882
 C564 C 0.09037 1.03422 -0.02496
 C565 C 0.09342 1.06360 -0.03279
 C566 C 0.12054 1.07425 -0.04455
 H567 H 0.24004 1.16606 -0.09564
 H568 H 0.19550 1.14693 -0.07062
 H569 H 0.22063 1.06029 -0.09597
 H570 H 0.26593 1.07854 -0.12037
 H571 H 0.16077 1.01181 -0.04426
 H572 H 0.11346 0.99302 -0.02317
 H573 H 0.07478 1.07833 -0.03006
 H574 H 0.12220 1.09690 -0.05069
 C575 C 0.26997 -0.11680 0.36908
 C576 C 0.29705 -0.10581 0.37993
 C577 C 0.30174 -0.10276 0.41123
 C578 C 0.27906 -0.11119 0.43184
 C579 C 0.25179 -0.12210 0.42099
 C580 C 0.24685 -0.12474 0.38944
 N581 N 0.32935 -0.09013 0.42112
 N582 N 0.33668 -0.08791 0.44902
 C583 C 0.36426 -0.07413 0.45754
 C584 C 0.37337 -0.07466 0.48801
 C585 C 0.40005 -0.06092 0.49678
 C586 C 0.41779 -0.04614 0.47512
 C587 C 0.40851 -0.04569 0.44457
 C588 C 0.38212 -0.05960 0.43585
 H589 H 0.26715 -0.11911 0.34469
 H590 H 0.31443 -0.09946 0.36386
 H591 H 0.28221 -0.10889 0.45618
 H592 H 0.23433 -0.12781 0.43723
 H593 H 0.35978 -0.08573 0.50498
 H594 H 0.40658 -0.06159 0.52049
 H595 H 0.42169 -0.03460 0.42729
 H596 H 0.37558 -0.05874 0.41215
 C597 C 0.58705 -0.25342 0.63130
 C598 C 0.57348 -0.22796 0.62122
 C599 C 0.59021 -0.20689 0.60575
 C600 C 0.62092 -0.21139 0.60072
 C601 C 0.63457 -0.23670 0.61073
 C602 C 0.61794 -0.25850 0.62606
 N603 N 0.57568 -0.18125 0.59511
 N604 N 0.58996 -0.16223 0.57976
 C605 C 0.57643 -0.13639 0.56851
 C606 C 0.59395 -0.11754 0.55088
 C607 C 0.58169 -0.09223 0.53912
 C608 C 0.55153 -0.08521 0.54490
 C609 C 0.53394 -0.10412 0.56283
 C610 C 0.54628 -0.12958 0.57451
 H611 H 0.57274 -0.26950 0.64197
 H612 H 0.54971 -0.22483 0.62511
 H613 H 0.63451 -0.19524 0.58917
 H614 H 0.65852 -0.23836 0.60729
 H615 H 0.61720 -0.12257 0.54614
 H616 H 0.59591 -0.07816 0.52548
 H617 H 0.51065 -0.09934 0.56768
 H618 H 0.53232 -0.14387 0.58815
 C619 C 1.12249 0.76402 0.42401
 C620 C 1.10914 0.73915 0.43631
 C621 C 1.09374 0.71967 0.41763
 C622 C 1.09115 0.72566 0.38643
 C623 C 1.10403 0.75071 0.37410
 C624 C 1.12029 0.77033 0.39256
 N625 N 1.08133 0.69383 0.43073
 N626 N 1.07149 0.67318 0.41427
 C627 C 1.05914 0.64721 0.42713
 C628 C 1.05399 0.62344 0.40801
 C629 C 1.04299 0.59740 0.41995
 C630 C 1.03646 0.59490 0.45125
 C631 C 1.04101 0.61904 0.47032
 C632 C 1.05246 0.64494 0.45841
 H633 H 1.13361 0.77869 0.43957
 H634 H 1.11104 0.73489 0.46048
 H635 H 1.07936 0.71087 0.37149
 H636 H 1.10236 0.75370 0.34972
 H637 H 1.05899 0.62497 0.38386
 H638 H 1.03958 0.57923 0.40467
 H639 H 1.03626 0.61774 0.49454
 H640 H 1.05613 0.66311 0.47360
 C641 C -0.08204 1.26015 0.11820
 C642 C -0.06749 1.23520 0.10781
 C643 C -0.08399 1.21150 0.09718
 C644 C -0.11534 1.21328 0.09618
 C645 C -0.12995 1.23848 0.10569
 C646 C -0.11362 1.26236 0.11725
 N647 N -0.06856 1.18598 0.08728
 N648 N -0.08163 1.16142 0.08658
 C649 C -0.06708 1.13575 0.07580
 C650 C -0.07936 1.10879 0.08353
 C651 C -0.06642 1.08329 0.07259
 C652 C -0.04133 1.08436 0.05300
 C653 C -0.02898 1.11147 0.04523
 C654 C -0.04156 1.13700 0.05683
 H655 H -0.06825 1.27809 0.12578
 H656 H -0.04325 1.23422 0.10838
 H657 H -0.12856 1.19521 0.08789
 H658 H -0.15420 1.23850 0.10523
 H659 H -0.09910 1.10757 0.09802
 H660 H -0.07659 1.06274 0.07873
 H661 H -0.00968 1.11291 0.03015
 H662 H -0.03184 1.15765 0.05039
 C663 C 0.37998 0.26080 0.85455
 C664 C 0.39337 0.28664 0.86409
 C665 C 0.40068 0.29079 0.89473
 C666 C 0.39398 0.26891 0.91602
 C667 C 0.38029 0.24314 0.90654
 C668 C 0.37341 0.23877 0.87567
 N669 N 0.41471 0.31741 0.90359
 N670 N 0.42474 0.32154 0.93033
 C671 C 0.43829 0.34842 0.93916
 C672 C 0.45029 0.35103 0.96839
 C673 C 0.46274 0.37728 0.97809
 C674 C 0.46319 0.40148 0.95866
 C675 C 0.45151 0.39866 0.92912
 C676 C 0.43922 0.37234 0.91941
 H677 H 0.37459 0.25807 0.83067
 H678 H 0.39827 0.30341 0.84754
 H679 H 0.39931 0.27172 0.93988
 H680 H 0.37560 0.22640 0.92320
 H681 H 0.44971 0.33274 0.98379
 H682 H 0.47148 0.37875 1.00101
 H683 H 0.45152 0.41687 0.91360
 H684 H 0.43007 0.37085 0.89667
 C685 C 0.64733 0.60965 0.75632
 C686 C 0.63712 0.59487 0.78217
 C687 C 0.60676 0.58780 0.78554
 C688 C 0.58648 0.59593 0.76277
 C689 C 0.59662 0.61102 0.73702
 C690 C 0.62718 0.61791 0.73352
 N691 N 0.59710 0.57304 0.81258
 N692 N 0.57057 0.56323 0.81593
 C693 C 0.56092 0.54939 0.84355
 C694 C 0.53205 0.53749 0.84518
 C695 C 0.52137 0.52532 0.87237
 C696 C 0.53941 0.52511 0.89853
 C697 C 0.56866 0.53651 0.89661
 C698 C 0.57937 0.54847 0.86935
 H699 H 0.67094 0.61498 0.75433
 H700 H 0.65291 0.58888 0.79966
 H701 H 0.56285 0.59083 0.76498
 H702 H 0.58070 0.61700 0.71966
 H703 H 0.51762 0.53808 0.82545
 H704 H 0.49871 0.51681 0.87311
 H705 H 0.58313 0.53665 0.91631
 H706 H 0.60179 0.55754 0.86868
 C707 C 0.37697 0.13672 0.73856
 C708 C 0.39055 0.12522 0.71253
 C709 C 0.39668 0.09565 0.71058
 C710 C 0.38830 0.07732 0.73479
 C711 C 0.37467 0.08885 0.76102
 C712 C 0.36940 0.11879 0.76334
 N713 N 0.41236 0.08532 0.68418
 N714 N 0.41827 0.05875 0.67950
 C715 C 0.43474 0.04993 0.65288
 C716 C 0.43694 0.02046 0.64572
 C717 C 0.45217 0.01152 0.61931
 C718 C 0.46577 0.03202 0.59985
 C719 C 0.46410 0.06153 0.60755
 C720 C 0.44866 0.07041 0.63370
 H721 H 0.37267 0.15977 0.73946
 H722 H 0.39676 0.13949 0.69393
 H723 H 0.39285 0.05434 0.73371
 H724 H 0.36919 0.07458 0.77984
 H725 H 0.42644 0.00444 0.66037
 H726 H 0.45311 -0.01138 0.61403
 H727 H 0.47425 0.07789 0.59306
 H728 H 0.44752 0.09333 0.63883
 C729 C 0.14765 0.88821 0.24708
 C730 C 0.13656 0.90038 0.22036
 C731 C 0.10609 0.90680 0.21784
 C732 C 0.08661 0.90069 0.24239
 C733 C 0.09764 0.88827 0.26906
 C734 C 0.12830 0.88199 0.27169
 N735 N 0.09551 0.91909 0.19002
 N736 N 0.06866 0.92771 0.18699
 C737 C 0.05806 0.93943 0.15889
 C738 C 0.02890 0.95029 0.15771
 C739 C 0.01759 0.96117 0.13043
 C740 C 0.03529 0.96114 0.10373
 C741 C 0.06470 0.95043 0.10506
 C742 C 0.07603 0.93975 0.13241
 H743 H 0.17131 0.88327 0.24838
 H744 H 0.15174 0.90485 0.20153
 H745 H 0.06292 0.90539 0.24093
 H746 H 0.08230 0.88388 0.28778
 H747 H 0.01484 0.95014 0.17796
 H748 H -0.00518 0.96917 0.13017
 H749 H 0.07891 0.95014 0.08493
 H750 H 0.09866 0.93143 0.13274
 C751 C 0.85487 0.39133 0.25045
 C752 C 0.86478 0.40522 0.27687
 C753 C 0.89507 0.41234 0.28030
 C754 C 0.91555 0.40530 0.25692
 C755 C 0.90569 0.39115 0.23055
 C756 C 0.87522 0.38408 0.22705
 N757 N 0.90444 0.42605 0.30799
 N758 N 0.93106 0.43534 0.31179
 C759 C 0.94046 0.44826 0.33990
 C760 C 0.96949 0.45965 0.34190
 C761 C 0.97981 0.47129 0.36936
 C762 C 0.96125 0.47150 0.39546
 C763 C 0.93190 0.46043 0.39325
 C764 C 0.92156 0.44898 0.36570
 H765 H 0.83133 0.38580 0.24854
 H766 H 0.84883 0.41038 0.29480
 H767 H 0.93912 0.41050 0.25912
 H768 H 0.92180 0.38595 0.21278
 H769 H 0.98427 0.45921 0.32219
 H770 H 1.00255 0.47955 0.37029
 H771 H 0.91705 0.46029 0.41291
 H772 H 0.89901 0.44026 0.36474
   
