data_POSCAR
  _audit_creation_date              2014-09-24
  _audit_creation_method            'ToBaCCo'
  _symmetry_space_group_name_H-M    'P1'
  _symmetry_Int_Tables_number       1
  _symmetry_cell_setting            triclinic
  loop_
  _symmetry_equiv_pos_as_xyz
 x,y,z
_cell_length_a 43.4198
_cell_length_b 42.9319
_cell_length_c 42.0136
_cell_angle_alpha 89.290200
_cell_angle_beta 86.527300
_cell_angle_gamma 90.140700
loop_
  _atom_site_label
  _atom_site_type_symbol
  _atom_site_fract_x
  _atom_site_fract_y
  _atom_site_fract_z
C1 C 0.19783 0.52457 1.01505
 H2 H 0.20322 0.54016 0.99505
 C3 C 0.17275 0.53084 1.03623
 H4 H 0.15952 0.55169 1.03213
 C5 C 0.20837 0.47800 1.04306
 H6 H 0.22163 0.45688 1.04495
 C7 C 0.18357 0.48348 1.06512
 H8 H 0.17861 0.46646 1.08398
 N9 N 0.21479 0.49836 1.01849
 C10 C 0.29591 0.51928 0.95585
 H11 H 0.29384 0.50079 0.93883
 C12 C 0.32124 0.53938 0.95310
 H13 H 0.33814 0.53653 0.93337
 C14 C 0.27616 0.54497 1.00229
 H15 H 0.25896 0.54648 1.02190
 C16 C 0.30119 0.56563 1.00046
 H17 H 0.30288 0.58307 1.01868
 Zn18 Zn 0.24396 0.49039 0.98436
 N19 N 0.27423 0.52214 0.98033
 C20 C 0.22132 0.51408 0.92740
 N21 N 0.22105 0.48912 0.94766
 C22 C 0.20040 0.46549 0.94550
 C23 C 0.17824 0.46683 0.92281
 C24 C 0.19918 0.51665 0.90477
 C25 C 0.28126 0.45081 1.01744
 C26 C 0.30221 0.42677 1.02140
 C27 C 0.29062 0.40721 0.96980
 C28 C 0.26950 0.43152 0.96702
 N29 N 0.26564 0.45295 0.99048
 H30 H 0.23736 0.53301 0.93016
 H31 H 0.20012 0.44638 0.96255
 H32 H 0.16110 0.44849 0.92229
 H33 H 0.19879 0.53729 0.88973
 H34 H 0.27843 0.46869 1.03530
 H35 H 0.31490 0.42618 1.04281
 H36 H 0.29450 0.39172 0.94989
 H37 H 0.25771 0.43432 0.94524
 C38 C 0.32458 0.56247 0.97609
 C39 C 0.16465 0.50983 1.06150
 C40 C 0.30790 0.40498 0.99704
 C41 C 0.17677 0.49321 0.90297
 C42 C 0.79226 0.53749 -0.03740
 H43 H 0.79256 0.55625 -0.02061
 C44 C 0.81473 0.53659 -0.06255
 H45 H 0.83225 0.55462 -0.06452
 C46 C 0.76912 0.49148 -0.05534
 H47 H 0.75138 0.47386 -0.05252
 C48 C 0.79118 0.48967 -0.08091
 H49 H 0.79037 0.47011 -0.09681
 N50 N 0.77057 0.51463 -0.03363
 C51 C 0.70318 0.55784 0.03296
 H52 H 0.70591 0.54341 0.05389
 C53 C 0.68075 0.58109 0.03361
 H54 H 0.66647 0.58471 0.05528
 C55 C 0.71693 0.56904 -0.02147
 H56 H 0.73020 0.56335 -0.04321
 C57 C 0.69509 0.59289 -0.02172
 H58 H 0.69180 0.60538 -0.04379
 Zn59 Zn 0.74367 0.51464 0.00395
 N60 N 0.71994 0.55158 0.00540
 C61 C 0.78487 0.53895 0.04628
 N62 N 0.76791 0.51326 0.04023
 C63 C 0.76941 0.48711 0.05873
 C64 C 0.79010 0.48542 0.08293
 C65 C 0.80596 0.53823 0.07004
 C66 C 0.68530 0.48598 0.00545
 C67 C 0.66384 0.46183 0.00660
 C68 C 0.70572 0.42492 0.00333
 C69 C 0.72655 0.44994 0.00276
 N70 N 0.71607 0.47985 0.00411
 H71 H 0.78239 0.55999 0.03234
 H72 H 0.75532 0.46711 0.05425
 H73 H 0.79199 0.46379 0.09616
 H74 H 0.81995 0.55864 0.07373
 H75 H 0.67710 0.50965 0.00561
 H76 H 0.63948 0.46739 0.00789
 H77 H 0.71439 0.40130 0.00268
 H78 H 0.75111 0.44550 0.00128
 C79 C 0.67602 0.59847 0.00583
 C80 C 0.81480 0.51212 -0.08439
 C81 C 0.67389 0.43086 0.00563
 C82 C 0.80927 0.51100 0.08832
 C83 C -0.01921 0.29432 0.45818
 H84 H -0.03581 0.29338 0.47844
 C85 C -0.02178 0.31718 0.43459
 H86 H -0.04085 0.33334 0.43714
 C87 C 0.02610 0.27472 0.43161
 H88 H 0.04540 0.25888 0.43113
 C89 C 0.02424 0.29692 0.40718
 H90 H 0.04257 0.29719 0.38866
 N91 N 0.00458 0.27385 0.45647
 C92 C -0.02362 0.19820 0.52165
 H93 H -0.00562 0.20064 0.53816
 C94 C -0.04400 0.17314 0.52488
 H95 H -0.04197 0.15694 0.54457
 C96 C -0.04732 0.21628 0.47556
 H97 H -0.04778 0.23264 0.45583
 C98 C -0.06820 0.19130 0.47781
 H99 H -0.08481 0.18875 0.45980
 Zn100 Zn 0.00829 0.24685 0.49201
 N101 N -0.02525 0.21883 0.49705
 C102 C -0.01305 0.27134 0.55172
 N103 N 0.01012 0.27206 0.52843
 C104 C 0.03372 0.29284 0.52913
 C105 C 0.03447 0.31426 0.55381
 C106 C -0.01320 0.29231 0.57686
 C107 C 0.04382 0.20164 0.46143
 C108 C 0.06490 0.17726 0.45897
 C109 C 0.08540 0.19362 0.50828
 C110 C 0.06405 0.21803 0.50962
 N111 N 0.04336 0.22106 0.48673
 H112 H -0.03214 0.25536 0.55020
 H113 H 0.05156 0.29327 0.50999
 H114 H 0.05318 0.33100 0.55360
 H115 H -0.03263 0.29208 0.59423
 H116 H 0.02671 0.20419 0.44391
 H117 H 0.06444 0.16200 0.43871
 H118 H 0.10060 0.19053 0.52757
 H119 H 0.06276 0.23322 0.52997
 C120 C -0.06596 0.16877 0.50213
 C121 C 0.00025 0.31916 0.40849
 C122 C 0.08515 0.17210 0.48334
 C123 C 0.01065 0.31441 0.57799
 C124 C 0.97854 0.71435 0.54668
 H125 H 0.95654 0.72229 0.53931
 C126 C 0.97948 0.68960 0.56861
 H127 H 0.95814 0.67879 0.57779
 C128 C 1.03312 0.71686 0.54230
 H129 H 1.05408 0.72681 0.53127
 C130 C 1.03511 0.69221 0.56389
 H131 H 1.05764 0.68394 0.56975
 N132 N 1.00520 0.72679 0.53325
 C133 C 0.97774 0.80993 0.48939
 H134 H 1.00119 0.81839 0.48781
 C135 C 0.95392 0.83122 0.48678
 H136 H 0.95954 0.85573 0.48388
 C137 C 0.94209 0.76809 0.49404
 H138 H 0.93760 0.74335 0.49556
 C139 C 0.91734 0.78881 0.49193
 H140 H 0.89403 0.77976 0.49238
 Zn141 Zn 1.00680 0.75243 0.49596
 N142 N 0.97166 0.77897 0.49333
 C143 C 0.98746 0.72146 0.44068
 N144 N 1.01030 0.72478 0.46118
 C145 C 1.03489 0.70522 0.46035
 C146 C 1.03614 0.67984 0.43997
 C147 C 0.98773 0.69621 0.41990
 C148 C 1.04535 0.79401 0.52422
 C149 C 1.06929 0.81535 0.52645
 C150 C 1.08765 0.80251 0.47277
 C151 C 1.06318 0.78134 0.47154
 N152 N 1.04244 0.77788 0.49694
 H153 H 0.96820 0.73736 0.44151
 H154 H 1.05298 0.70854 0.47654
 H155 H 1.05570 0.66429 0.44029
 H156 H 0.96856 0.69297 0.40493
 H157 H 1.02844 0.79086 0.54399
 H158 H 1.07073 0.82841 0.54821
 H159 H 1.10312 0.80591 0.45185
 H160 H 1.06015 0.76852 0.44995
 C161 C 0.92323 0.82089 0.48832
 C162 C 1.00809 0.67740 0.57624
 C163 C 1.09064 0.82019 0.50042
 C164 C 1.01165 0.67427 0.42040
 C165 C 0.46089 -0.03420 0.30374
 H166 H 0.48009 -0.05022 0.30353
 C167 C 0.43672 -0.03724 0.32703
 H168 H 0.43738 -0.05598 0.34446
 C169 C 0.43786 0.01079 0.28235
 H170 H 0.43906 0.03026 0.26580
 C171 C 0.41325 0.00867 0.30528
 H172 H 0.39593 0.02674 0.30583
 N173 N 0.46119 -0.01029 0.28223
 C174 C 0.53212 -0.03512 0.20958
 H175 H 0.54695 -0.01504 0.21159
 C176 C 0.53807 -0.05611 0.18498
 H177 H 0.55847 -0.05204 0.16953
 C178 C 0.48777 -0.06357 0.22824
 H179 H 0.46758 -0.06570 0.24447
 C180 C 0.49289 -0.08533 0.20398
 H181 H 0.47643 -0.10416 0.20243
 Zn182 Zn 0.49763 -0.00406 0.25603
 N183 N 0.50694 -0.03868 0.23003
 C184 C 0.55292 -0.01699 0.28641
 N185 N 0.52944 0.00358 0.28366
 C186 C 0.52603 0.02845 0.30324
 C187 C 0.54631 0.03303 0.32731
 C188 C 0.57371 -0.01333 0.31020
 C189 C 0.47026 0.02559 0.20663
 C190 C 0.46754 0.04632 0.18122
 C191 C 0.51128 0.07495 0.19871
 C192 C 0.51303 0.05370 0.22407
 N193 N 0.49290 0.02937 0.22720
 H194 H 0.55481 -0.03699 0.27107
 H195 H 0.50695 0.04426 0.30069
 H196 H 0.54302 0.05301 0.34255
 H197 H 0.59164 -0.03053 0.31265
 H198 H 0.45484 0.00579 0.20950
 H199 H 0.44919 0.04270 0.16534
 H200 H 0.52815 0.09355 0.19584
 H201 H 0.53129 0.05584 0.24029
 C202 C 0.51751 -0.08106 0.18073
 C203 C 0.41271 -0.01531 0.32843
 C204 C 0.48885 0.07085 0.17632
 C205 C 0.57009 0.01147 0.33161
 C206 C 0.54574 -0.01993 0.70774
 H207 H 0.53013 -0.03957 0.71064
 C208 C 0.56780 -0.01894 0.68213
 H209 H 0.56935 -0.03809 0.66557
 C210 C 0.56116 0.03002 0.72437
 H211 H 0.55777 0.04948 0.74027
 C212 C 0.58295 0.03232 0.69858
 H213 H 0.59668 0.05332 0.69514
 N214 N 0.54286 0.00431 0.72825
 C215 C 0.47985 -0.03500 0.80336
 H216 H 0.46274 -0.01671 0.80418
 C217 C 0.47679 -0.06010 0.82471
 H218 H 0.45699 -0.06104 0.84165
 C219 C 0.52712 -0.05493 0.78119
 H220 H 0.54734 -0.05215 0.76511
 C221 C 0.52502 -0.08048 0.80221
 H222 H 0.54381 -0.09699 0.80182
 Zn223 Zn 0.50847 0.00476 0.75812
 N224 N 0.50472 -0.03279 0.78221
 C225 C 0.45196 -0.01112 0.73085
 N226 N 0.47382 0.01125 0.73378
 C227 C 0.47419 0.03773 0.71570
 C228 C 0.45277 0.04199 0.69263
 C229 C 0.43000 -0.00776 0.70804
 C230 C 0.53806 0.03509 0.80534
 C231 C 0.54180 0.05560 0.83028
 C232 C 0.49359 0.07998 0.81868
 C233 C 0.49081 0.05898 0.79378
 N234 N 0.51277 0.03688 0.78791
 H235 H 0.45253 -0.03234 0.74488
 H236 H 0.49206 0.05496 0.71829
 H237 H 0.45393 0.06299 0.67808
 H238 H 0.41364 -0.02641 0.70499
 H239 H 0.55508 0.01720 0.80020
 H240 H 0.56223 0.05365 0.84367
 H241 H 0.47545 0.09680 0.82369
 H242 H 0.47062 0.05963 0.77996
 C243 C 0.49970 -0.08316 0.82465
 C244 C 0.58609 0.00778 0.67690
 C245 C 0.51896 0.07793 0.83784
 C246 C 0.43096 0.01855 0.68781
 C247 C 0.21865 -0.02996 0.52174
 C248 C 0.23734 -0.00324 0.52094
 C249 C 0.22406 0.02639 0.51821
 C250 C 0.19202 0.02945 0.51614
 C251 C 0.17356 0.00250 0.51761
 C252 C 0.18658 -0.02718 0.52065
 C253 C 0.27095 -0.00627 0.52221
 C254 C 0.28908 -0.01265 0.49432
 C255 C 0.32127 -0.01494 0.49503
 C256 C 0.33505 -0.01027 0.52401
 C257 C 0.31713 -0.00420 0.55219
 C258 C 0.28493 -0.00224 0.55113
 H259 H 0.22904 -0.05278 0.52375
 H260 H 0.23887 0.04675 0.51668
 H261 H 0.27806 -0.01576 0.47210
 H262 H 0.27076 0.00302 0.57249
 H263 H 0.14883 0.00458 0.51599
 H264 H 0.35992 -0.01104 0.52473
 C265 C 0.79195 -0.03043 0.47979
 C266 C 0.77407 -0.00355 0.48476
 C267 C 0.78840 0.02563 0.48674
 C268 C 0.82068 0.02819 0.48388
 C269 C 0.83830 0.00112 0.47888
 C270 C 0.82423 -0.02820 0.47644
 C271 C 0.74023 -0.00560 0.48762
 C272 C 0.72469 -0.00772 0.51777
 C273 C 0.69240 -0.00671 0.52067
 C274 C 0.67572 -0.00394 0.49322
 C275 C 0.69100 -0.00298 0.46273
 C276 C 0.72345 -0.00345 0.46022
 H277 H 0.78074 -0.05289 0.47820
 H278 H 0.77429 0.04609 0.49113
 H279 H 0.73772 -0.00923 0.53894
 H280 H 0.73585 -0.00129 0.43715
 H281 H 0.86323 0.00288 0.47718
 H282 H 0.65073 -0.00338 0.49568
 C283 C 0.52638 0.29706 1.01373
 C284 C 0.49981 0.27893 1.01044
 C285 C 0.47063 0.29305 1.01147
 C286 C 0.46784 0.32520 1.01623
 C287 C 0.49460 0.34312 1.01889
 C288 C 0.52390 0.32929 1.01829
 C289 C 0.50220 0.24483 1.00906
 C290 C 0.50243 0.22759 1.03757
 C291 C 0.50418 0.19496 1.03709
 C292 C 0.50564 0.17992 1.00753
 C293 C 0.50526 0.19686 0.97868
 C294 C 0.50358 0.22956 0.97969
 H295 H 0.54877 0.28594 1.01361
 H296 H 0.45014 0.27885 1.00971
 H297 H 0.50043 0.23978 1.06000
 H298 H 0.50374 0.24327 0.95788
 H299 H 0.49261 0.36815 1.02096
 H300 H 0.50682 0.15472 1.00699
 C301 C 0.51518 0.71251 0.00713
 C302 C 0.48821 0.72957 0.00294
 C303 C 0.46050 0.71396 -0.00191
 C304 C 0.45944 0.68120 -0.00201
 C305 C 0.48673 0.66444 0.00209
 C306 C 0.51463 0.67988 0.00681
 C307 C 0.48870 0.76371 0.00561
 C308 C 0.48556 0.78289 -0.02134
 C309 C 0.48634 0.81545 -0.01856
 C310 C 0.49078 0.82848 0.01133
 C311 C 0.49356 0.80955 0.03841
 C312 C 0.49250 0.77711 0.03542
 H313 H 0.53647 0.72469 0.01116
 H314 H 0.43991 0.72746 -0.00533
 H315 H 0.48246 0.77247 -0.04430
 H316 H 0.49495 0.76223 0.05614
 H317 H 0.48627 0.63921 0.00173
 H318 H 0.49204 0.85356 0.01363
 C319 C 0.98387 0.52959 0.27777
 C320 C 0.98367 0.50065 0.26270
 C321 C 0.98198 0.47308 0.28099
 C322 C 0.97978 0.47440 0.31443
 C323 C 0.98036 0.50355 0.32926
 C324 C 0.98257 0.53127 0.31116
 C325 C 0.98624 0.49971 0.22768
 C326 C 1.01534 0.49676 0.21162
 C327 C 1.01856 0.50004 0.17832
 C328 C 0.99234 0.50593 0.16127
 C329 C 0.96299 0.50834 0.17703
 C330 C 0.96009 0.50506 0.21035
 H331 H 0.98621 0.55063 0.26332
 H332 H 0.98203 0.45076 0.26921
 H333 H 1.03555 0.49333 0.22518
 H334 H 0.93771 0.50766 0.22291
 H335 H 0.97964 0.50465 0.35505
 H336 H 0.99481 0.50801 0.13551
 C337 C -0.00969 0.52104 0.71328
 C338 C -0.00455 0.49198 0.72763
 C339 C 0.00255 0.46604 0.70854
 C340 C 0.00497 0.46911 0.67516
 C341 C 0.00031 0.49850 0.66120
 C342 C -0.00680 0.52455 0.68003
 C343 C -0.00351 0.48983 0.76256
 C344 C -0.02947 0.49766 0.78237
 C345 C -0.02736 0.49958 0.81553
 C346 C 0.00122 0.49393 0.82852
 C347 C 0.02711 0.48580 0.80892
 C348 C 0.02457 0.48323 0.77601
 H349 H -0.01407 0.54121 0.72812
 H350 H 0.00677 0.44369 0.71972
 H351 H -0.05109 0.50288 0.77186
 H352 H 0.04483 0.47793 0.76070
 H353 H 0.00180 0.50120 0.63548
 H354 H 0.00340 0.49524 0.85402
 C355 C 0.14661 0.11578 0.50345
 C356 C 0.13572 0.08818 0.49059
 N357 N 0.10943 0.08852 0.47482
 C358 C 0.09331 0.11526 0.47135
 C359 C 0.10382 0.14317 0.48442
 N360 N 0.13036 0.14258 0.50029
 N361 N 0.17280 0.11508 0.51960
 C362 C 0.18847 0.08797 0.52360
 C363 C 0.17724 0.06011 0.51113
 N364 N 0.15110 0.06121 0.49484
 H365 H 0.07191 0.11423 0.45955
 H366 H 0.20888 0.08810 0.53712
 C367 C 0.59595 0.62775 0.01840
 C368 C 0.59684 0.65523 -0.00004
 N369 N 0.62384 0.66442 -0.01538
 C370 C 0.64993 0.64714 -0.01343
 C371 C 0.64905 0.61939 0.00482
 N372 N 0.62196 0.61062 0.02048
 N373 N 0.56890 0.61811 0.03319
 C374 C 0.54251 0.63456 0.03013
 C375 C 0.54314 0.66200 0.01142
 N376 N 0.57052 0.67181 -0.00298
 H377 H 0.67108 0.65496 -0.02601
 H378 H 0.52131 0.62636 0.04233
 C379 C 0.88372 -0.10585 0.46763
 C380 C 0.85570 -0.10819 0.48595
 N381 N 0.84916 -0.13471 0.50308
 C382 C 0.86964 -0.15873 0.50316
 C383 C 0.89830 -0.15587 0.48578
 N384 N 0.90428 -0.12947 0.46819
 N385 N 0.89061 -0.07944 0.45067
 C386 C 0.87112 -0.05477 0.45188
 C387 C 0.84364 -0.05626 0.47144
 N388 N 0.83632 -0.08332 0.48759
 H389 H 0.86415 -0.17916 0.51777
 H390 H 0.87735 -0.03398 0.43812
 C391 C 0.38258 0.37282 1.02065
 C392 C 0.38738 0.34764 1.00004
 N393 N 0.36515 0.34004 0.98007
 C394 C 0.33868 0.35697 0.97923
 C395 C 0.33433 0.38311 0.99905
 N396 N 0.35648 0.38984 1.01954
 N397 N 0.40457 0.38069 1.04063
 C398 C 0.43163 0.36496 1.04045
 C399 C 0.43725 0.34043 1.01894
 N400 N 0.41461 0.33198 0.99956
 H401 H 0.32155 0.35007 0.96308
 H402 H 0.44871 0.37181 1.05675
 C403 C 0.86943 0.11354 0.48997
 C404 C 0.88180 0.08534 0.50037
 N405 N 0.91039 0.08484 0.51158
 C406 C 0.92732 0.11133 0.51291
 C407 C 0.91522 0.13985 0.50242
 N408 N 0.88644 0.14013 0.49101
 N409 N 0.84084 0.11373 0.47848
 C410 C 0.82415 0.08693 0.47680
 C411 C 0.83674 0.05848 0.48684
 N412 N 0.86535 0.05868 0.49843
 H413 H 0.95037 0.10982 0.52121
 H414 H 0.80175 0.08779 0.46690
 C415 C 0.37697 0.62925 -0.01005
 C416 C 0.40560 0.61768 -0.02162
 N417 N 0.40731 0.58885 -0.03439
 C418 C 0.38165 0.57092 -0.03608
 C419 C 0.35276 0.58221 -0.02427
 N420 N 0.35130 0.61126 -0.01144
 N421 N 0.37544 0.65799 0.00307
 C422 C 0.40130 0.67565 0.00530
 C423 C 0.43022 0.66395 -0.00591
 N424 N 0.43141 0.63512 -0.01914
 H425 H 0.38411 0.54774 -0.04564
 H426 H 0.39929 0.69808 0.01663
 C427 C 0.12679 -0.10512 0.52184
 C428 C 0.15509 -0.10559 0.50391
 N429 N 0.16241 -0.13068 0.48558
 C430 C 0.14254 -0.15517 0.48412
 C431 C 0.11392 -0.15458 0.50181
 N432 N 0.10707 -0.12947 0.52040
 N433 N 0.11909 -0.08002 0.53985
 C434 C 0.13826 -0.05504 0.54044
 C435 C 0.16648 -0.05506 0.52211
 N436 N 0.17437 -0.08061 0.50448
 H437 H 0.14918 -0.17486 0.46947
 H438 H 0.13148 -0.03529 0.55499
 C439 C 0.60050 0.38919 1.02610
 C440 C 0.60322 0.36265 1.00701
 N441 N 0.62995 0.35768 0.98926
 C442 C 0.65382 0.37837 0.98933
 C443 C 0.65058 0.40562 1.00752
 N444 N 0.62396 0.41001 1.02567
 N445 N 0.57401 0.39441 1.04389
 C446 C 0.54964 0.37473 1.04285
 C447 C 0.55150 0.34884 1.02254
 N448 N 0.57863 0.34311 1.00551
 H449 H 0.67452 0.37422 0.97435
 H450 H 0.52887 0.37954 1.05748
 C451 C 0.50131 0.13935 1.12156
 C452 C 0.49042 0.12806 1.09316
 N453 N 0.47912 0.09867 1.09228
 C454 C 0.47804 0.07996 1.11861
 C455 C 0.48874 0.09111 1.14740
 N456 N 0.50034 0.12066 1.14795
 N457 N 0.51301 0.16868 1.12214
 C458 C 0.51421 0.18728 1.09560
 C459 C 0.50321 0.17603 1.06698
 N460 N 0.49167 0.14651 1.06673
 H461 H 0.46963 0.05638 1.11663
 H462 H 0.52422 0.21029 1.09680
 C463 C -0.01038 0.61291 0.63448
 C464 C 0.01160 0.59059 0.62457
 N465 N 0.03226 0.59718 0.59995
 C466 C 0.03198 0.62516 0.58462
 C467 C 0.00983 0.64763 0.59412
 N468 N -0.01102 0.64082 0.61885
 N469 N -0.03079 0.60618 0.65945
 C470 C -0.03019 0.57811 0.67489
 C471 C -0.00843 0.55556 0.66462
 N472 N 0.01190 0.56255 0.63963
 H473 H 0.04839 0.62942 0.56460
 H474 H -0.04682 0.57326 0.69457
 C475 C 0.48140 0.87736 -0.09724
 C476 C 0.49731 0.84910 -0.10061
 N477 N 0.51275 0.84264 -0.12883
 C478 C 0.51343 0.86340 -0.15367
 C479 C 0.49812 0.89220 -0.15010
 N480 N 0.48221 0.89807 -0.12188
 N481 N 0.46612 0.88411 -0.06910
 C482 C 0.46651 0.86412 -0.04384
 C483 C 0.48318 0.83610 -0.04666
 N484 N 0.49787 0.82908 -0.07530
 H485 H 0.52578 0.85734 -0.17583
 H486 H 0.45412 0.87021 -0.02167
 C487 C 0.97767 0.39334 0.37292
 C488 C 0.99670 0.39487 0.34482
 N489 N 1.01581 0.37077 0.33735
 C490 C 1.01726 0.34540 0.35697
 C491 C 0.99865 0.34388 0.38585
 N492 N 0.97902 0.36807 0.39245
 N493 N 0.95885 0.41756 0.38081
 C494 C 0.95854 0.44355 0.36204
 C495 C 0.97799 0.44550 0.33404
 N496 N 0.99640 0.42080 0.32594
 H497 H 1.03258 0.32681 0.34946
 H498 H 0.94334 0.46256 0.36899
 C499 C 0.50093 0.85643 0.12551
 C500 C 0.51891 0.86538 0.09814
 N501 N 0.53759 0.89059 0.09896
 C502 C 0.53887 0.90775 0.12579
 C503 C 0.51985 0.89984 0.15335
 N504 N 0.50155 0.87396 0.15216
 N505 N 0.48227 0.83104 0.12462
 C506 C 0.48047 0.81451 0.09733
 C507 C 0.49758 0.82427 0.06946
 N508 N 0.51655 0.84944 0.07074
 H509 H 0.55345 0.92812 0.12438
 H510 H 0.46491 0.79479 0.09706
 C511 C 0.02053 0.39180 0.61472
 C512 C 0.00380 0.38833 0.64416
 N513 N -0.00903 0.36030 0.65242
 C514 C -0.00644 0.33573 0.63227
 C515 C 0.00948 0.33939 0.60218
 N516 N 0.02290 0.36743 0.59453
 N517 N 0.03331 0.41978 0.60630
 C518 C 0.02956 0.44472 0.62571
 C519 C 0.01188 0.44173 0.65484
 N520 N -0.00018 0.41330 0.66353
 H521 H -0.01682 0.31371 0.63974
 H522 H 0.04018 0.46667 0.61833
 C523 C 0.50727 0.14469 0.89330
 C524 C 0.52144 0.13372 0.92033
 N525 N 0.53496 0.10531 0.91992
 C526 C 0.53501 0.08722 0.89364
 C527 C 0.52071 0.09791 0.86632
 N528 N 0.50706 0.12654 0.86701
 N529 N 0.49340 0.17303 0.89407
 C530 C 0.49293 0.19082 0.92074
 C531 C 0.50680 0.17967 0.94813
 N532 N 0.52075 0.15128 0.94694
 H533 H 0.54530 0.06436 0.89461
 H534 H 0.48103 0.21291 0.92074
 C535 C 0.99161 0.61712 0.35875
 C536 C 1.00382 0.58947 0.37076
 N537 N 1.01877 0.58997 0.39814
 C538 C 1.02214 0.61692 0.41415
 C539 C 1.00991 0.64487 0.40235
 N540 N 0.99472 0.64411 0.37486
 N541 N 0.97656 0.61643 0.33135
 C542 C 0.97326 0.58933 0.31538
 C543 C 0.98542 0.56148 0.32746
 N544 N 1.00035 0.56245 0.35501
 H545 H 1.03348 0.61619 0.43636
 H546 H 0.96084 0.58949 0.29383
 C547 C 1.10435 0.49556 0.12520
 C548 C 1.08291 0.51854 0.11910
 N549 N 1.08988 0.54017 0.09415
 C550 C 1.11708 0.53863 0.07487
 C551 C 1.13763 0.51416 0.08153
 N552 N 1.13075 0.49384 0.10634
 N553 N 1.09820 0.47488 0.14953
 C554 C 1.07119 0.47620 0.16776
 C555 C 1.04913 0.49891 0.16094
 N556 N 1.05575 0.51966 0.13671
 H557 H 1.09570 0.54996 0.08138
 H558 H 1.06662 0.45919 0.18670
 C559 C 0.64254 -0.01162 0.61009
 C560 C 0.64058 0.01477 0.59023
 N561 N 0.62213 0.03881 0.59969
 C562 C 0.60528 0.03759 0.62803
 C563 C 0.60641 0.01082 0.64756
 N564 N 0.62509 -0.01321 0.63803
 N565 N 0.66157 -0.03535 0.60090
 C566 C 0.67855 -0.03399 0.57261
 C567 C 0.67587 -0.00804 0.55228
 N568 N 0.65692 0.01578 0.56165
 H569 H 0.59036 0.05688 0.63475
 H570 H 0.69341 -0.05326 0.56566
 C571 C -0.10598 0.51752 0.87719
 C572 C -0.10871 0.50101 0.84893
 N573 N -0.13664 0.48944 0.84206
 C574 C -0.16190 0.49320 0.86246
 C575 C -0.15912 0.50913 0.89129
 N576 N -0.13108 0.52115 0.89758
 N577 N -0.07812 0.52901 0.88424
 C578 C -0.05264 0.52429 0.86452
 C579 C -0.05499 0.50702 0.83647
 N580 N -0.08324 0.49615 0.82923
 H581 H -0.18380 0.48385 0.85610
 H582 H -0.03081 0.53397 0.87076
 C583 C 0.37836 -0.02746 0.41079
 C584 C 0.34990 -0.01227 0.40972
 N585 N 0.34140 0.00003 0.38166
 C586 C 0.36041 -0.00154 0.35475
 C587 C 0.38956 -0.01577 0.35597
 N588 N 0.39743 -0.02875 0.38409
 N589 N 0.38696 -0.03978 0.43874
 C590 C 0.36867 -0.03702 0.46594
 C591 C 0.34054 -0.02078 0.46535
 N592 N 0.33168 -0.00922 0.43694
 H593 H 0.35278 0.00840 0.33282
 H594 H 0.37616 -0.04734 0.48777
 C595 C 0.11204 0.47599 0.85182
 C596 C 0.09602 0.50436 0.85278
 N597 N 0.10757 0.52888 0.86829
 C598 C 0.13430 0.52626 0.88329
 C599 C 0.14997 0.49761 0.88336
 N600 N 0.13836 0.47309 0.86753
 N601 N 0.10063 0.45166 0.83577
 C602 C 0.07373 0.45435 0.82091
 C603 C 0.05718 0.48240 0.82284
 N604 N 0.06885 0.50678 0.83868
 H605 H 0.14254 0.54601 0.89614
 H606 H 0.06492 0.43462 0.80844
 C607 C 0.63716 0.00019 0.38174
 C608 C 0.62654 0.01356 0.41060
 N609 N 0.59819 0.02682 0.41306
 C610 C 0.57986 0.02726 0.38795
 C611 C 0.59023 0.01361 0.35889
 N612 N 0.61879 0.00037 0.35671
 N613 N 0.66534 -0.01346 0.37945
 C614 C 0.68342 -0.01440 0.40478
 C615 C 0.67279 -0.00121 0.43397
 N616 N 0.64443 0.01244 0.43597
 H617 H 0.55707 0.03724 0.39120
 H618 H 0.70544 -0.02612 0.40228
 C619 C 0.88547 0.52245 0.12215
 C620 C 0.88346 0.50276 0.14909
 N621 N 0.85683 0.48693 0.15659
 C622 C 0.83225 0.48954 0.13808
 C623 C 0.83438 0.50885 0.11066
 N624 N 0.86102 0.52504 0.10372
 N625 N 0.91211 0.53801 0.11431
 C626 C 0.93711 0.53443 0.13192
 C627 C 0.93553 0.51422 0.15862
 N628 N 0.90845 0.49913 0.16676
 H629 H 0.81136 0.47669 0.14479
 H630 H 0.95802 0.54724 0.12509
 C631 C 0.36546 0.00514 0.63620
 C632 C 0.37726 0.01763 0.60695
 N633 N 0.40542 0.03143 0.60495
 C634 C 0.42258 0.03311 0.63084
 C635 C 0.41127 0.02000 0.66018
 N636 N 0.38281 0.00630 0.66204
 N637 N 0.33726 -0.00880 0.63798
 C638 C 0.32052 -0.01114 0.61171
 C639 C 0.33277 0.00053 0.58212
 N640 N 0.36087 0.01478 0.58071
 H641 H 0.44533 0.04346 0.62806
 H642 H 0.29846 -0.02300 0.61369
   
