data_POSCAR
  _audit_creation_date              2014-09-24
  _audit_creation_method            'ToBaCCo'
  _symmetry_space_group_name_H-M    'P1'
  _symmetry_Int_Tables_number       1
  _symmetry_cell_setting            triclinic
  loop_
  _symmetry_equiv_pos_as_xyz
 x,y,z
_cell_length_a 57.2652
_cell_length_b 57.7101
_cell_length_c 57.5731
_cell_angle_alpha 89.854100
_cell_angle_beta 89.848200
_cell_angle_gamma 90.004500
loop_
  _atom_site_label
  _atom_site_type_symbol
  _atom_site_fract_x
  _atom_site_fract_y
  _atom_site_fract_z
N1 N 0.26684 0.22210 0.20609
 N2 N 0.25666 0.24037 0.19691
 C3 C 0.26919 0.24753 0.17839
 C4 C 0.28802 0.23288 0.17593
 C5 C 0.28614 0.21697 0.19371
 H6 H 0.26522 0.26249 0.16776
 H7 H 0.29813 0.20301 0.19759
 Cu8 Cu 0.22852 0.25363 0.21043
 Cu9 Cu 0.25486 0.20694 0.23388
 Cu10 Cu 0.20565 0.23090 0.25945
 N11 N 0.20140 0.26725 0.22558
 N12 N 0.19250 0.25830 0.24469
 C13 C 0.17440 0.27145 0.25175
 C14 C 0.17194 0.28947 0.23620
 C15 C 0.18929 0.28644 0.21987
 H16 H 0.16411 0.26843 0.26725
 H17 H 0.19307 0.29766 0.20526
 N18 N 0.22143 0.20317 0.27182
 N19 N 0.24018 0.19403 0.26206
 C20 C 0.24714 0.17564 0.27475
 C21 C 0.23202 0.17321 0.29324
 C22 C 0.21597 0.19083 0.29099
 H23 H 0.26223 0.16499 0.27107
 H24 H 0.20162 0.19453 0.30264
 H25 H 0.22043 0.21685 0.22990
 H26 H 0.23938 0.23635 0.24757
 N27 N 0.72287 -0.23403 0.20773
 N28 N 0.73408 -0.25214 0.19945
 C29 C 0.72261 -0.26019 0.18070
 C30 C 0.70335 -0.24631 0.17724
 C31 C 0.70391 -0.22991 0.19457
 H32 H 0.72778 -0.27499 0.17041
 H33 H 0.69145 -0.21611 0.19743
 Cu34 Cu 0.76242 -0.26341 0.21422
 Cu35 Cu 0.73350 -0.21728 0.23507
 Cu36 Cu 0.78427 -0.23698 0.26134
 N37 N 0.79099 -0.27421 0.22889
 N38 N 0.79947 -0.26378 0.24734
 C39 C 0.81888 -0.27496 0.25435
 C40 C 0.82263 -0.29322 0.23942
 C41 C 0.80471 -0.29240 0.22351
 H42 H 0.82921 -0.27041 0.26937
 H43 H 0.80173 -0.30437 0.20940
 N44 N 0.76636 -0.21014 0.27287
 N45 N 0.74702 -0.20266 0.26286
 C46 C 0.73878 -0.18437 0.27487
 C47 C 0.75364 -0.18027 0.29315
 C48 C 0.77091 -0.19680 0.29150
 H49 H 0.72307 -0.17482 0.27077
 H50 H 0.78556 -0.19898 0.30311
 H51 H 0.76851 -0.22528 0.23129
 H52 H 0.75086 -0.24474 0.25041
 N53 N 0.72652 0.22368 0.79401
 N54 N 0.73789 0.24124 0.80312
 C55 C 0.72654 0.24835 0.82236
 C56 C 0.70722 0.23442 0.82535
 C57 C 0.70761 0.21897 0.80715
 H58 H 0.73166 0.26277 0.83317
 H59 H 0.69492 0.20558 0.80357
 Cu60 Cu 0.76597 0.25369 0.78866
 Cu61 Cu 0.73666 0.20876 0.76545
 Cu62 Cu 0.78571 0.23134 0.73825
 N63 N 0.79295 0.26659 0.77259
 N64 N 0.80062 0.25782 0.75292
 C65 C 0.81896 0.27040 0.74534
 C66 C 0.82283 0.28785 0.76117
 C67 C 0.80611 0.28511 0.77819
 H68 H 0.82844 0.26736 0.72936
 H69 H 0.80347 0.29603 0.79321
 N70 N 0.76827 0.20457 0.72607
 N71 N 0.74957 0.19597 0.73645
 C72 C 0.74147 0.17803 0.72389
 C73 C 0.75578 0.17532 0.70483
 C74 C 0.77256 0.19231 0.70663
 H75 H 0.72624 0.16777 0.72814
 H76 H 0.78671 0.19555 0.69457
 H77 H 0.77162 0.21716 0.76813
 H78 H 0.75277 0.23790 0.75170
 N79 N 0.27011 -0.23304 0.79175
 N80 N 0.26014 -0.25187 0.80006
 C81 C 0.27289 -0.25993 0.81799
 C82 C 0.29168 -0.24533 0.82093
 C83 C 0.28951 -0.22847 0.80409
 H84 H 0.26894 -0.27528 0.82808
 H85 H 0.30123 -0.21409 0.80098
 Cu86 Cu 0.23169 -0.26405 0.78633
 Cu87 Cu 0.25747 -0.21606 0.76533
 Cu88 Cu 0.20646 -0.23733 0.74095
 N89 N 0.20293 -0.27569 0.77275
 N90 N 0.19313 -0.26513 0.75498
 C91 C 0.17390 -0.27696 0.74860
 C92 C 0.17168 -0.29577 0.76323
 C93 C 0.19028 -0.29460 0.77830
 H94 H 0.16267 -0.27245 0.73421
 H95 H 0.19444 -0.30681 0.79196
 N96 N 0.22259 -0.20945 0.72924
 N97 N 0.24201 -0.20134 0.73854
 C98 C 0.24900 -0.18255 0.72643
 C99 C 0.23321 -0.17878 0.70882
 C100 C 0.21673 -0.19603 0.71096
 H101 H 0.26457 -0.17255 0.72987
 H102 H 0.20183 -0.19875 0.69981
 H103 H 0.22311 -0.22577 0.77056
 H104 H 0.24071 -0.24385 0.75016
 N105 N 0.73275 -0.22476 0.79378
 N106 N 0.74187 -0.24446 0.80088
 C107 C 0.72998 -0.25201 0.81966
 C108 C 0.71266 -0.23615 0.82445
 C109 C 0.71477 -0.21910 0.80778
 H110 H 0.73332 -0.26800 0.82891
 H111 H 0.70378 -0.20400 0.80574
 Cu112 Cu 0.76784 -0.25861 0.78432
 Cu113 Cu 0.74414 -0.20842 0.76636
 Cu114 Cu 0.79078 -0.23318 0.73693
 N115 N 0.79422 -0.27217 0.76789
 N116 N 0.80313 -0.26207 0.74936
 C117 C 0.82081 -0.27509 0.74110
 C118 C 0.82295 -0.29423 0.75527
 C119 C 0.80592 -0.29200 0.77207
 H120 H 0.83110 -0.27108 0.72583
 H121 H 0.80223 -0.30402 0.78606
 N122 N 0.77590 -0.20402 0.72707
 N123 N 0.75813 -0.19457 0.73827
 C124 C 0.75135 -0.17532 0.72681
 C125 C 0.76557 -0.17266 0.70768
 C126 C 0.78088 -0.19103 0.70822
 H127 H 0.73681 -0.16438 0.73164
 H128 H 0.79422 -0.19492 0.69549
 H129 H 0.75711 -0.23720 0.74937
 H130 H 0.77791 -0.22085 0.76810
 N131 N 0.27748 0.23555 0.79199
 N132 N 0.26655 0.25428 0.79917
 C133 C 0.27736 0.26247 0.81823
 C134 C 0.29590 0.24805 0.82308
 C135 C 0.29558 0.23118 0.80621
 H136 H 0.27230 0.27780 0.82776
 H137 H 0.30770 0.21692 0.80434
 Cu138 Cu 0.23945 0.26618 0.78269
 Cu139 Cu 0.26774 0.21841 0.76456
 Cu140 Cu 0.21944 0.23932 0.73497
 N141 N 0.21238 0.27770 0.76589
 N142 N 0.20462 0.26707 0.74725
 C143 C 0.18605 0.27867 0.73885
 C144 C 0.18210 0.29746 0.75300
 C145 C 0.19900 0.29647 0.76997
 H146 H 0.17632 0.27394 0.72350
 H147 H 0.20143 0.30861 0.78404
 N148 N 0.23678 0.21152 0.72524
 N149 N 0.25520 0.20353 0.73647
 C150 C 0.26333 0.18463 0.72534
 C151 C 0.24929 0.18072 0.70636
 C152 C 0.23269 0.19794 0.70670
 H153 H 0.27841 0.17460 0.73047
 H154 H 0.21884 0.20047 0.69422
 H155 H 0.25250 0.24620 0.74772
 H156 H 0.23300 0.22785 0.76622
 N157 N 0.27500 -0.22463 0.20585
 N158 N 0.26391 -0.24288 0.19782
 C159 C 0.27455 -0.25010 0.17822
 C160 C 0.29310 -0.23550 0.17387
 C161 C 0.29300 -0.21957 0.19164
 H162 H 0.26952 -0.26505 0.16812
 H163 H 0.30536 -0.20565 0.19425
 Cu164 Cu 0.23715 -0.25600 0.21406
 Cu165 Cu 0.26589 -0.20936 0.23456
 Cu166 Cu 0.21929 -0.23308 0.26482
 N167 N 0.21155 -0.26945 0.23182
 N168 N 0.20461 -0.26039 0.25161
 C169 C 0.18702 -0.27322 0.26038
 C170 C 0.18285 -0.29118 0.24526
 C171 C 0.19862 -0.28843 0.22735
 H172 H 0.17813 -0.26991 0.27663
 H173 H 0.20066 -0.29955 0.21240
 N174 N 0.23630 -0.20547 0.27545
 N175 N 0.25408 -0.19638 0.26394
 C176 C 0.26217 -0.17793 0.27578
 C177 C 0.24878 -0.17545 0.29552
 C178 C 0.23260 -0.19306 0.29489
 H179 H 0.27677 -0.16720 0.27058
 H180 H 0.21928 -0.19661 0.30775
 H181 H 0.25174 -0.23867 0.24978
 H182 H 0.23125 -0.21911 0.23387
 N183 N 0.73034 0.23364 0.20723
 N184 N 0.74044 0.25289 0.20014
 C185 C 0.72847 0.26148 0.18191
 C186 C 0.71008 0.24674 0.17749
 C187 C 0.71167 0.22930 0.19377
 H188 H 0.73261 0.27731 0.17270
 H189 H 0.69998 0.21471 0.19581
 Cu190 Cu 0.76796 0.26504 0.21567
 Cu191 Cu 0.74168 0.21598 0.23372
 Cu192 Cu 0.78997 0.23775 0.26251
 N193 N 0.79464 0.27730 0.23250
 N194 N 0.80323 0.26650 0.25072
 C195 C 0.82129 0.27876 0.25919
 C196 C 0.82406 0.29818 0.24551
 C197 C 0.80696 0.29686 0.22877
 H198 H 0.83146 0.27408 0.27429
 H199 H 0.80364 0.30934 0.21513
 N200 N 0.77414 0.20889 0.27183
 N201 N 0.75571 0.20059 0.26088
 C202 C 0.74845 0.18119 0.27180
 C203 C 0.76306 0.17723 0.29035
 C204 C 0.77909 0.19500 0.29000
 H205 H 0.73339 0.17099 0.26700
 H206 H 0.79295 0.19783 0.30238
 H207 H 0.75644 0.24396 0.25064
 H208 H 0.77605 0.22658 0.23142
 C209 C 0.25524 -0.01187 0.50355
 C210 C 0.25500 0.01172 0.50291
 C211 C 0.25569 0.02584 0.52443
 C212 C 0.25319 0.02474 0.48068
 C213 C 0.25607 -0.02594 0.48200
 C214 C 0.25372 -0.02495 0.52577
 C215 C 0.23845 0.04272 0.52820
 C216 C 0.23912 0.05662 0.54798
 C217 C 0.25709 0.05391 0.56417
 C218 C 0.27440 0.03715 0.56056
 C219 C 0.27375 0.02319 0.54073
 C220 C 0.23442 0.02098 0.46545
 C221 C 0.23217 0.03433 0.44527
 C222 C 0.24856 0.05165 0.44020
 C223 C 0.26732 0.05541 0.45526
 C224 C 0.26959 0.04209 0.47543
 C225 C 0.27399 -0.02292 0.46551
 C226 C 0.27464 -0.03664 0.44551
 C227 C 0.25751 -0.05356 0.44193
 C228 C 0.23973 -0.05671 0.45836
 C229 C 0.23905 -0.04304 0.47830
 C230 C 0.27033 -0.04214 0.53077
 C231 C 0.26819 -0.05573 0.55078
 C232 C 0.24934 -0.05240 0.56594
 C233 C 0.23278 -0.03519 0.56116
 C234 C 0.23491 -0.02157 0.54113
 H235 H 0.22443 0.04509 0.51582
 H236 H 0.22569 0.06960 0.55058
 H237 H 0.28847 0.03503 0.57294
 H238 H 0.28743 0.01053 0.53794
 H239 H 0.22131 0.00803 0.46943
 H240 H 0.21749 0.03140 0.43382
 H241 H 0.28406 0.04538 0.48704
 H242 H 0.28750 -0.01009 0.46824
 H243 H 0.28855 -0.03416 0.43295
 H244 H 0.22643 -0.06980 0.45577
 H245 H 0.22515 -0.04571 0.49083
 H246 H 0.28483 -0.04515 0.51904
 H247 H 0.28103 -0.06909 0.55424
 H248 H 0.21801 -0.03261 0.57266
 H249 H 0.22162 -0.00876 0.53733
 H250 H 0.28003 0.06884 0.45156
 C251 C 0.74694 0.01160 0.49672
 C252 C 0.74717 -0.01198 0.49733
 C253 C 0.74643 -0.02612 0.47581
 C254 C 0.74849 -0.02503 0.51954
 C255 C 0.74642 0.02571 0.51827
 C256 C 0.74766 0.02468 0.47449
 C257 C 0.72815 -0.02373 0.45973
 C258 C 0.72745 -0.03770 0.43990
 C259 C 0.74493 -0.05426 0.43608
 C260 C 0.76311 -0.05674 0.45209
 C261 C 0.76381 -0.04282 0.47187
 C262 C 0.73167 -0.04204 0.52454
 C263 C 0.73315 -0.05513 0.54490
 C264 C 0.75154 -0.05147 0.56043
 C265 C 0.76841 -0.03455 0.55558
 C266 C 0.76696 -0.02144 0.53517
 C267 C 0.76364 0.04264 0.52183
 C268 C 0.76323 0.05639 0.54175
 C269 C 0.74551 0.05349 0.55828
 C270 C 0.72816 0.03675 0.55482
 C271 C 0.72855 0.02296 0.53486
 C272 C 0.76592 0.02144 0.45846
 C273 C 0.76692 0.03475 0.43814
 C274 C 0.74977 0.05149 0.43377
 C275 C 0.73153 0.05475 0.44965
 C276 C 0.73052 0.04147 0.46993
 H277 H 0.71434 -0.01124 0.46267
 H278 H 0.71322 -0.03574 0.42769
 H279 H 0.77667 -0.06954 0.44934
 H280 H 0.77798 -0.04502 0.48412
 H281 H 0.71743 -0.04519 0.51261
 H282 H 0.72009 -0.06828 0.54843
 H283 H 0.78037 -0.00874 0.53139
 H284 H 0.77749 0.04512 0.50920
 H285 H 0.77671 0.06932 0.54423
 H286 H 0.71429 0.03446 0.56745
 H287 H 0.71487 0.01028 0.53223
 H288 H 0.77957 0.00891 0.46188
 H289 H 0.78121 0.03224 0.42604
 H290 H 0.71826 0.06775 0.44650
 H291 H 0.71641 0.04433 0.48216
 H292 H 0.78281 -0.03173 0.56740
 C293 C 0.49988 0.25544 0.01537
 C294 C 0.50032 0.25562 -0.00827
 C295 C 0.47855 0.25625 -0.02220
 C296 C 0.52256 0.25428 -0.02153
 C297 C 0.52167 0.25620 0.02928
 C298 C 0.47766 0.25362 0.02859
 C299 C 0.47465 0.23912 -0.03901
 C300 C 0.45448 0.23959 -0.05255
 C301 C 0.43804 0.25728 -0.04956
 C302 C 0.44183 0.27453 -0.03292
 C303 C 0.46204 0.27406 -0.01930
 C304 C 0.53805 0.23565 -0.01830
 C305 C 0.55829 0.23393 -0.03183
 C306 C 0.56316 0.25072 -0.04877
 C307 C 0.54782 0.26933 -0.05201
 C308 C 0.52758 0.27105 -0.03852
 C309 C 0.53796 0.27422 0.02642
 C310 C 0.55833 0.27466 0.03980
 C311 C 0.56248 0.25717 0.05619
 C312 C 0.54620 0.23933 0.05923
 C313 C 0.52588 0.23888 0.04591
 C314 C 0.47237 0.27011 0.04570
 C315 C 0.45203 0.26805 0.05899
 C316 C 0.43684 0.24939 0.05544
 C317 C 0.44202 0.23283 0.03845
 C318 C 0.46237 0.23489 0.02511
 H319 H 0.48719 0.22529 -0.04154
 H320 H 0.45174 0.22620 -0.06542
 H321 H 0.42927 0.28837 -0.03058
 H322 H 0.46491 0.28763 -0.00668
 H323 H 0.53422 0.22227 -0.00563
 H324 H 0.56993 0.21934 -0.02934
 H325 H 0.51574 0.28541 -0.04139
 H326 H 0.53484 0.28794 0.01394
 H327 H 0.57076 0.28863 0.03743
 H328 H 0.54923 0.22575 0.07190
 H329 H 0.51350 0.22489 0.04841
 H330 H 0.48404 0.28455 0.04875
 H331 H 0.44825 0.28088 0.07219
 H332 H 0.43049 0.21821 0.03571
 H333 H 0.46638 0.22172 0.01235
 H334 H 0.55135 0.28233 -0.06517
 C335 C 0.50111 0.74483 -0.01516
 C336 C 0.50003 0.74469 0.00846
 C337 C 0.52141 0.74413 0.02301
 C338 C 0.47745 0.74597 0.02110
 C339 C 0.47972 0.74437 -0.02969
 C340 C 0.52371 0.74628 -0.02777
 C341 C 0.53800 0.72632 0.02071
 C342 C 0.55785 0.72600 0.03486
 C343 C 0.56119 0.74340 0.05145
 C344 C 0.54463 0.76107 0.05387
 C345 C 0.52483 0.76140 0.03980
 C346 C 0.47191 0.72901 0.03774
 C347 C 0.45131 0.73063 0.05066
 C348 C 0.43611 0.74931 0.04721
 C349 C 0.44149 0.76628 0.03061
 C350 C 0.46210 0.76466 0.01763
 C351 C 0.47620 0.76180 -0.04638
 C352 C 0.45628 0.76164 -0.06029
 C353 C 0.43971 0.74398 -0.05779
 C354 C 0.44317 0.72639 -0.04135
 C355 C 0.46314 0.72654 -0.02738
 C356 C 0.53910 0.76488 -0.02408
 C357 C 0.55985 0.76653 -0.03685
 C358 C 0.56531 0.74970 -0.05348
 C359 C 0.55002 0.73115 -0.05722
 C360 C 0.52929 0.72950 -0.04450
 H361 H 0.53548 0.71264 0.00812
 H362 H 0.57049 0.71216 0.03295
 H363 H 0.54702 0.77458 0.06669
 H364 H 0.51221 0.77522 0.04188
 H365 H 0.48363 0.71459 0.04076
 H366 H 0.44738 0.71748 0.06357
 H367 H 0.46630 0.77817 0.00520
 H368 H 0.48881 0.77564 -0.04847
 H369 H 0.45378 0.77530 -0.07299
 H370 H 0.43051 0.71257 -0.03938
 H371 H 0.46573 0.71273 -0.01486
 H372 H 0.53487 0.77825 -0.01160
 H373 H 0.57145 0.78107 -0.03399
 H374 H 0.55402 0.71812 -0.07014
 H375 H 0.51754 0.71515 -0.04769
 H376 H 0.42995 0.78093 0.02797
 C377 C 0.01499 0.50326 0.25404
 C378 C -0.00877 0.50406 0.25461
 C379 C -0.02319 0.48268 0.25530
 C380 C -0.02180 0.52632 0.25399
 C381 C 0.02944 0.52461 0.25459
 C382 C 0.02791 0.48099 0.25242
 C383 C -0.04061 0.47942 0.23851
 C384 C -0.05482 0.45979 0.23921
 C385 C -0.05189 0.44324 0.25676
 C386 C -0.03460 0.44636 0.27363
 C387 C -0.02034 0.46606 0.27297
 C388 C -0.01872 0.54216 0.23564
 C389 C -0.03242 0.56220 0.23444
 C390 C -0.04936 0.56652 0.25148
 C391 C -0.05235 0.55089 0.26988
 C392 C -0.03869 0.53089 0.27110
 C393 C 0.02722 0.54077 0.27270
 C394 C 0.04155 0.56040 0.27326
 C395 C 0.05829 0.56394 0.25583
 C396 C 0.06060 0.54786 0.23782
 C397 C 0.04631 0.52829 0.23723
 C398 C 0.04526 0.47583 0.26882
 C399 C 0.05834 0.45548 0.26696
 C400 C 0.05432 0.44014 0.24861
 C401 C 0.03704 0.44515 0.23218
 C402 C 0.02394 0.46554 0.23401
 H403 H -0.04315 0.49208 0.22483
 H404 H -0.06821 0.45758 0.22613
 H405 H -0.03229 0.43372 0.28737
 H406 H -0.00729 0.46847 0.28632
 H407 H -0.00614 0.53871 0.22201
 H408 H -0.03014 0.57407 0.22000
 H409 H -0.04146 0.51879 0.28526
 H410 H 0.01462 0.53802 0.28649
 H411 H 0.03974 0.57267 0.28736
 H412 H 0.07357 0.55039 0.22430
 H413 H 0.04838 0.51598 0.22320
 H414 H 0.04871 0.48761 0.28301
 H415 H 0.07175 0.45184 0.27970
 H416 H 0.03391 0.43349 0.21781
 H417 H 0.01098 0.46944 0.22091
 H418 H -0.06552 0.55396 0.28305
 C419 C -0.01569 0.49671 0.74577
 C420 C 0.00807 0.49750 0.74598
 C421 C 0.02253 0.47616 0.74533
 C422 C 0.02105 0.51975 0.74730
 C423 C -0.03007 0.51812 0.74517
 C424 C -0.02869 0.47444 0.74666
 C425 C 0.03953 0.47260 0.76250
 C426 C 0.05407 0.45322 0.76164
 C427 C 0.05188 0.43723 0.74356
 C428 C 0.03494 0.44059 0.72637
 C429 C 0.02034 0.46003 0.72721
 C430 C 0.01744 0.53521 0.76580
 C431 C 0.03090 0.55537 0.76753
 C432 C 0.04814 0.56016 0.75089
 C433 C 0.05170 0.54487 0.73240
 C434 C 0.03829 0.52475 0.73064
 C435 C -0.02724 0.53470 0.72745
 C436 C -0.04126 0.55455 0.72701
 C437 C -0.05831 0.55789 0.74416
 C438 C -0.06130 0.54134 0.76173
 C439 C -0.04732 0.52154 0.76220
 C440 C -0.04570 0.46975 0.72979
 C441 C -0.05903 0.44952 0.73108
 C442 C -0.05562 0.43381 0.74931
 C443 C -0.03864 0.43831 0.76618
 C444 C -0.02527 0.45858 0.76491
 H445 H 0.04158 0.48490 0.77653
 H446 H 0.06719 0.45083 0.77496
 H447 H 0.03322 0.42838 0.71221
 H448 H 0.00763 0.46269 0.71357
 H449 H 0.00458 0.53142 0.77910
 H450 H 0.02815 0.56699 0.78204
 H451 H 0.04146 0.51295 0.71638
 H452 H -0.01433 0.53216 0.71392
 H453 H -0.03890 0.56719 0.71326
 H454 H -0.07450 0.54372 0.77503
 H455 H -0.04985 0.50891 0.77593
 H456 H -0.04872 0.48185 0.71570
 H457 H -0.07223 0.44628 0.71803
 H458 H -0.03600 0.42637 0.78048
 H459 H -0.01260 0.46211 0.77837
 H460 H 0.06510 0.54833 0.71952
 C461 C 0.37933 0.24279 0.09736
 C462 C 0.36822 0.26291 0.10607
 C463 C 0.34911 0.26077 0.12174
 C464 C 0.34122 0.23852 0.12862
 C465 C 0.35211 0.21841 0.11965
 C466 C 0.37122 0.22055 0.10397
 C467 C 0.38187 0.20019 0.09530
 C468 C 0.37389 0.17833 0.10193
 C469 C 0.35523 0.17624 0.11728
 C470 C 0.34440 0.19598 0.12609
 C471 C 0.33835 0.28114 0.13027
 C472 C 0.34625 0.30299 0.12353
 C473 C 0.36494 0.30508 0.10822
 C474 C 0.37587 0.28533 0.09954
 C475 C 0.32219 0.23636 0.14521
 C476 C 0.30652 0.23469 0.15915
 C477 C 0.39943 0.24500 0.08209
 C478 C 0.41636 0.24694 0.06974
 H479 H 0.39643 0.20093 0.08330
 H480 H 0.38224 0.16294 0.09513
 H481 H 0.34909 0.15922 0.12238
 H482 H 0.32992 0.19347 0.13795
 H483 H 0.32373 0.28041 0.14220
 H484 H 0.33781 0.31839 0.13021
 H485 H 0.37101 0.32209 0.10302
 H486 H 0.39033 0.28785 0.08765
 C487 C 0.61749 0.74536 0.09506
 C488 C 0.62456 0.76728 0.10355
 C489 C 0.64290 0.76879 0.12007
 C490 C 0.65408 0.74837 0.12801
 C491 C 0.64732 0.72650 0.11918
 C492 C 0.62897 0.72499 0.10265
 C493 C 0.62245 0.70294 0.09416
 C494 C 0.63375 0.68293 0.10175
 C495 C 0.65169 0.68440 0.11790
 C496 C 0.65846 0.70589 0.12658
 C497 C 0.64956 0.79088 0.12838
 C498 C 0.63845 0.81091 0.12059
 C499 C 0.62052 0.80944 0.10444
 C500 C 0.61357 0.78793 0.09597
 C501 C 0.67215 0.74992 0.14559
 C502 C 0.68692 0.75155 0.16039
 C503 C 0.59796 0.74386 0.07910
 C504 C 0.58138 0.74325 0.06625
 H505 H 0.60861 0.70094 0.08155
 H506 H 0.62856 0.66620 0.09505
 H507 H 0.66041 0.66880 0.12374
 H508 H 0.67253 0.70616 0.13910
 H509 H 0.66344 0.79293 0.14093
 H510 H 0.64378 0.82767 0.12711
 H511 H 0.61195 0.82505 0.09843
 H512 H 0.59956 0.78770 0.08341
 C513 C 0.61965 0.24444 -0.09207
 C514 C 0.63042 0.26458 -0.10127
 C515 C 0.64891 0.26247 -0.11765
 C516 C 0.65651 0.24023 -0.12477
 C517 C 0.64604 0.22010 -0.11525
 C518 C 0.62756 0.22221 -0.09884
 C519 C 0.61730 0.20184 -0.08964
 C520 C 0.62507 0.17999 -0.09644
 C521 C 0.64312 0.17793 -0.11249
 C522 C 0.65354 0.19769 -0.12185
 C523 C 0.65933 0.28285 -0.12667
 C524 C 0.65170 0.30469 -0.11970
 C525 C 0.63362 0.30675 -0.10369
 C526 C 0.62303 0.28699 -0.09453
 C527 C 0.67472 0.23809 -0.14224
 C528 C 0.68964 0.23637 -0.15694
 C529 C 0.59999 0.24661 -0.07623
 C530 C 0.58337 0.24846 -0.06347
 H531 H 0.60322 0.20256 -0.07709
 H532 H 0.61703 0.16459 -0.08922
 H533 H 0.64909 0.16092 -0.11772
 H534 H 0.66754 0.19519 -0.13425
 H535 H 0.67347 0.28214 -0.13915
 H536 H 0.65987 0.32010 -0.12676
 H537 H 0.62776 0.32375 -0.09832
 H538 H 0.60905 0.28948 -0.08210
 C539 C 0.38247 0.74632 -0.10021
 C540 C 0.37513 0.76824 -0.10855
 C541 C 0.35613 0.76979 -0.12431
 C542 C 0.34457 0.74940 -0.13165
 C543 C 0.35170 0.72750 -0.12307
 C544 C 0.37071 0.72596 -0.10730
 C545 C 0.37757 0.70388 -0.09901
 C546 C 0.36597 0.68389 -0.10608
 C547 C 0.34739 0.68539 -0.12150
 C548 C 0.34026 0.70690 -0.12996
 C549 C 0.34918 0.79189 -0.13246
 C550 C 0.36065 0.81190 -0.12524
 C551 C 0.37923 0.81039 -0.10983
 C552 C 0.38647 0.78887 -0.10153
 C553 C 0.32561 0.75099 -0.14829
 C554 C 0.31004 0.75256 -0.16227
 C555 C 0.40244 0.74478 -0.08478
 C556 C 0.41929 0.74406 -0.07229
 H557 H 0.39191 0.70185 -0.08697
 H558 H 0.37143 0.66714 -0.09956
 H559 H 0.33844 0.66981 -0.12694
 H560 H 0.32570 0.70720 -0.14190
 H561 H 0.33480 0.79397 -0.14445
 H562 H 0.35509 0.82866 -0.13163
 H563 H 0.38808 0.82599 -0.10426
 H564 H 0.40100 0.78861 -0.08956
 C565 C 0.09643 0.38306 0.24281
 C566 C 0.08713 0.36033 0.24248
 C567 C 0.10237 0.34094 0.24104
 C568 C 0.12684 0.34438 0.23991
 C569 C 0.13613 0.36713 0.24010
 C570 C 0.12089 0.38651 0.24156
 C571 C 0.13061 0.40907 0.24178
 C572 C 0.15469 0.41238 0.24057
 C573 C 0.16959 0.39344 0.23913
 C574 C 0.16052 0.37103 0.23890
 C575 C 0.09266 0.31838 0.24078
 C576 C 0.06858 0.31508 0.24190
 C577 C 0.05368 0.33405 0.24331
 C578 C 0.06275 0.35645 0.24361
 C579 C 0.14248 0.32461 0.23861
 C580 C 0.15576 0.30843 0.23754
 C581 C 0.08095 0.40292 0.24465
 C582 C 0.06853 0.41971 0.24635
 H583 H 0.11975 0.42437 0.24288
 H584 H 0.16181 0.42976 0.24074
 H585 H 0.18828 0.39610 0.23819
 H586 H 0.17283 0.35685 0.23775
 H587 H 0.10355 0.30310 0.23970
 H588 H 0.06144 0.29771 0.24168
 H589 H 0.03498 0.33139 0.24418
 H590 H 0.05047 0.37066 0.24472
 C591 C 0.09244 0.61551 0.75690
 C592 C 0.11668 0.61089 0.75847
 C593 C 0.13283 0.62952 0.75994
 C594 C 0.12467 0.65269 0.75982
 C595 C 0.10043 0.65731 0.75838
 C596 C 0.08427 0.63867 0.75692
 C597 C 0.06013 0.64371 0.75548
 C598 C 0.05218 0.66654 0.75547
 C599 C 0.06798 0.68476 0.75688
 C600 C 0.09186 0.68031 0.75832
 C601 C 0.15697 0.62445 0.76146
 C602 C 0.16493 0.60163 0.76152
 C603 C 0.14913 0.58341 0.76008
 C604 C 0.12527 0.58788 0.75856
 C605 C 0.14128 0.67167 0.76108
 C606 C 0.15541 0.68713 0.76209
 C607 C 0.07605 0.59640 0.75499
 C608 C 0.06298 0.58012 0.75323
 H609 H 0.04718 0.63011 0.75436
 H610 H 0.03366 0.67009 0.75436
 H611 H 0.06172 0.70246 0.75687
 H612 H 0.10348 0.69505 0.75940
 H613 H 0.16996 0.63802 0.76263
 H614 H 0.18345 0.59807 0.76270
 H615 H 0.15540 0.56571 0.76013
 H616 H 0.11369 0.57311 0.75748
 C617 C -0.09515 0.62079 0.24642
 C618 C -0.08776 0.64420 0.24667
 C619 C -0.10453 0.66232 0.24527
 C620 C -0.12859 0.65693 0.24361
 C621 C -0.13598 0.63351 0.24332
 C622 C -0.11922 0.61539 0.24474
 C623 C -0.12705 0.59212 0.24445
 C624 C -0.15074 0.58689 0.24280
 C625 C -0.16712 0.60460 0.24141
 C626 C -0.15993 0.62766 0.24166
 C627 C -0.09672 0.68558 0.24559
 C628 C -0.07302 0.69080 0.24722
 C629 C -0.05663 0.67308 0.24858
 C630 C -0.06381 0.65001 0.24831
 C631 C -0.14581 0.67537 0.24218
 C632 C -0.16047 0.69032 0.24092
 C633 C -0.07815 0.60217 0.24808
 C634 C -0.06464 0.58621 0.24956
 H635 H -0.11499 0.57772 0.24548
 H636 H -0.15641 0.56900 0.24259
 H637 H -0.18551 0.60045 0.24014
 H638 H -0.17335 0.64081 0.24055
 H639 H -0.10882 0.69995 0.24458
 H640 H -0.06735 0.70869 0.24744
 H641 H -0.03824 0.67723 0.24984
 H642 H -0.05043 0.63682 0.24940
 C643 C -0.09932 0.37779 0.75409
 C644 C -0.12367 0.38202 0.75497
 C645 C -0.13955 0.36314 0.75635
 C646 C -0.13101 0.34011 0.75684
 C647 C -0.10666 0.33588 0.75595
 C648 C -0.09077 0.35478 0.75459
 C649 C -0.06652 0.35012 0.75374
 C650 C -0.05820 0.32743 0.75421
 C651 C -0.07373 0.30896 0.75553
 C652 C -0.09770 0.31303 0.75640
 C653 C -0.16381 0.36782 0.75722
 C654 C -0.17214 0.39050 0.75672
 C655 C -0.15662 0.40896 0.75536
 C656 C -0.13265 0.40488 0.75449
 C657 C -0.14731 0.32088 0.75830
 C658 C -0.16119 0.30520 0.75959
 C659 C -0.08319 0.39717 0.75253
 C660 C -0.07030 0.41365 0.75114
 H661 H -0.05377 0.36393 0.75271
 H662 H -0.03959 0.32418 0.75355
 H663 H -0.06717 0.29137 0.75588
 H664 H -0.10910 0.29810 0.75741
 H665 H -0.17659 0.35405 0.75827
 H666 H -0.19075 0.39376 0.75738
 H667 H -0.16317 0.42655 0.75497
 H668 H -0.12129 0.41983 0.75344
 C669 C 0.24052 0.09446 0.38391
 C670 C 0.25302 0.09049 0.36304
 C671 C 0.25087 0.10628 0.34416
 C672 C 0.23624 0.12595 0.34626
 C673 C 0.22347 0.12973 0.36700
 C674 C 0.22563 0.11395 0.38588
 C675 C 0.21276 0.11817 0.40647
 C676 C 0.19817 0.13740 0.40835
 C677 C 0.19606 0.15282 0.38989
 C678 C 0.20852 0.14912 0.36942
 C679 C 0.26359 0.10198 0.32351
 C680 C 0.27802 0.08263 0.32155
 C681 C 0.28013 0.06721 0.34001
 C682 C 0.26783 0.07101 0.36056
 C683 C 0.23462 0.14251 0.32727
 C684 C 0.23338 0.15644 0.31166
 C685 C 0.24332 0.07882 0.40352
 C686 C 0.24570 0.06620 0.42008
 H687 H 0.21380 0.10667 0.42131
 H688 H 0.18844 0.14035 0.42422
 H689 H 0.18469 0.16773 0.39143
 H690 H 0.20628 0.16158 0.35553
 H691 H 0.26250 0.11347 0.30867
 H692 H 0.28760 0.07960 0.30561
 H693 H 0.29136 0.05221 0.33839
 H694 H 0.27002 0.05852 0.37443
 C695 C 0.74600 0.09607 0.61511
 C696 C 0.76209 0.09202 0.63331
 C697 C 0.76369 0.10793 0.65206
 C698 C 0.74919 0.12780 0.65252
 C699 C 0.73276 0.13159 0.63456
 C700 C 0.73116 0.11569 0.61581
 C701 C 0.71469 0.11992 0.59801
 C702 C 0.70020 0.13930 0.59871
 C703 C 0.70176 0.15485 0.61704
 C704 C 0.71782 0.15113 0.63480
 C705 C 0.77999 0.10356 0.66998
 C706 C 0.79430 0.08404 0.66941
 C707 C 0.79274 0.06849 0.65109
 C708 C 0.77686 0.07235 0.63319
 C709 C 0.75145 0.14453 0.67121
 C710 C 0.75341 0.15854 0.68660
 C711 C 0.74531 0.08055 0.59529
 C712 C 0.74515 0.06801 0.57857
 H713 H 0.71279 0.10830 0.58341
 H714 H 0.68769 0.14227 0.58496
 H715 H 0.69046 0.16988 0.61751
 H716 H 0.71836 0.16370 0.64870
 H717 H 0.78183 0.11514 0.68462
 H718 H 0.80666 0.08096 0.68328
 H719 H 0.80389 0.05335 0.65073
 H720 H 0.77626 0.05974 0.61933
 C721 C 0.24125 -0.09681 0.62100
 C722 C 0.22769 -0.11709 0.61784
 C723 C 0.22560 -0.13352 0.63617
 C724 C 0.23707 -0.12960 0.65756
 C725 C 0.25033 -0.10916 0.66084
 C726 C 0.25243 -0.09272 0.64251
 C727 C 0.26585 -0.07247 0.64617
 C728 C 0.27690 -0.06856 0.66734
 C729 C 0.27486 -0.08463 0.68526
 C730 C 0.26175 -0.10473 0.68215
 C731 C 0.21203 -0.15370 0.63255
 C732 C 0.20086 -0.15754 0.61143
 C733 C 0.20292 -0.14148 0.59352
 C734 C 0.21615 -0.12146 0.59658
 C735 C 0.23557 -0.14680 0.67598
 C736 C 0.23443 -0.16129 0.69107
 C737 C 0.24409 -0.08051 0.60192
 C738 C 0.24648 -0.06742 0.58573
 H739 H 0.26793 -0.05946 0.63276
 H740 H 0.28710 -0.05298 0.66985
 H741 H 0.28347 -0.08151 0.70167
 H742 H 0.26066 -0.11670 0.69660
 H743 H 0.20989 -0.16669 0.64597
 H744 H 0.19055 -0.17306 0.60897
 H745 H 0.19421 -0.14454 0.57714
 H746 H 0.21719 -0.10948 0.58213
 C747 C 0.74439 -0.09794 0.38011
 C748 C 0.72921 -0.11731 0.37999
 C749 C 0.73062 -0.13379 0.36171
 C750 C 0.74720 -0.13080 0.34365
 C751 C 0.76199 -0.11113 0.34348
 C752 C 0.76057 -0.09465 0.36176
 C753 C 0.77563 -0.07520 0.36127
 C754 C 0.79162 -0.07210 0.34325
 C755 C 0.79301 -0.08821 0.32539
 C756 C 0.77841 -0.10753 0.32542
 C757 C 0.71536 -0.15308 0.36207
 C758 C 0.69916 -0.15601 0.37994
 C759 C 0.69778 -0.13990 0.39780
 C760 C 0.71259 -0.12075 0.39791
 C761 C 0.74937 -0.14819 0.32556
 C762 C 0.75130 -0.16277 0.31070
 C763 C 0.74403 -0.08197 0.39957
 C764 C 0.74417 -0.06909 0.41604
 H765 H 0.77516 -0.06218 0.37475
 H766 H 0.80300 -0.05712 0.34314
 H767 H 0.80547 -0.08572 0.31142
 H768 H 0.78013 -0.11956 0.31113
 H769 H 0.71574 -0.16607 0.34855
 H770 H 0.68761 -0.17086 0.37994
 H771 H 0.68517 -0.14225 0.41164
 H772 H 0.71082 -0.10866 0.41215
 C773 C 0.62358 0.75529 -0.09447
 C774 C 0.63191 0.77739 -0.10129
 C775 C 0.65087 0.77918 -0.11718
 C776 C 0.66140 0.75887 -0.12614
 C777 C 0.65345 0.73677 -0.11886
 C778 C 0.63448 0.73498 -0.10298
 C779 C 0.62673 0.71270 -0.09608
 C780 C 0.63745 0.69276 -0.10459
 C781 C 0.65600 0.69451 -0.12011
 C782 C 0.66398 0.71622 -0.12723
 C783 C 0.65879 0.80147 -0.12387
 C784 C 0.64829 0.82140 -0.11509
 C785 C 0.62976 0.81964 -0.09954
 C786 C 0.62159 0.79793 -0.09267
 C787 C 0.67990 0.76069 -0.14334
 C788 C 0.69499 0.76216 -0.15790
 C789 C 0.60329 0.75343 -0.07940
 C790 C 0.58614 0.75179 -0.06733
 H791 H 0.61239 0.71045 -0.08401
 H792 H 0.63131 0.67586 -0.09910
 H793 H 0.66426 0.67897 -0.12666
 H794 H 0.67849 0.71669 -0.13930
 H795 H 0.67317 0.80372 -0.13589
 H796 H 0.65458 0.83831 -0.12038
 H797 H 0.62168 0.83518 -0.09276
 H798 H 0.60715 0.79744 -0.08050
 C799 C 0.38104 0.25594 -0.09223
 C800 C 0.37002 0.27645 -0.10010
 C801 C 0.35174 0.27512 -0.11671
 C802 C 0.34461 0.25329 -0.12534
 C803 C 0.35521 0.23274 -0.11699
 C804 C 0.37347 0.23406 -0.10038
 C805 C 0.38391 0.21328 -0.09240
 C806 C 0.37650 0.19181 -0.10058
 C807 C 0.35865 0.19051 -0.11683
 C808 C 0.34807 0.21067 -0.12501
 C809 C 0.34109 0.29587 -0.12444
 C810 C 0.34826 0.31732 -0.11596
 C811 C 0.36611 0.31861 -0.09970
 C812 C 0.37695 0.29846 -0.09181
 C813 C 0.32692 0.25191 -0.14330
 C814 C 0.31258 0.25035 -0.15851
 C815 C 0.40077 0.25724 -0.07651
 C816 C 0.41755 0.25766 -0.06393
 H817 H 0.39783 0.21338 -0.07973
 H818 H 0.38465 0.17609 -0.09427
 H819 H 0.35296 0.17379 -0.12313
 H820 H 0.33423 0.20875 -0.13761
 H821 H 0.32710 0.29574 -0.13704
 H822 H 0.33990 0.33302 -0.12203
 H823 H 0.37160 0.33531 -0.09316
 H824 H 0.39073 0.30032 -0.07912
 C825 C 0.37884 0.75519 0.08947
 C826 C 0.37080 0.77735 0.09632
 C827 C 0.35242 0.77929 0.11285
 C828 C 0.34219 0.75905 0.12240
 C829 C 0.34976 0.73690 0.11504
 C830 C 0.36815 0.73496 0.09853
 C831 C 0.37556 0.71263 0.09156
 C832 C 0.36507 0.69277 0.10062
 C833 C 0.34708 0.69466 0.11676
 C834 C 0.33945 0.71642 0.12396
 C835 C 0.34481 0.80163 0.11957
 C836 C 0.35503 0.82149 0.11021
 C837 C 0.37299 0.81959 0.09404
 C838 C 0.38087 0.79782 0.08712
 C839 C 0.32442 0.76102 0.14033
 C840 C 0.30997 0.76262 0.15550
 C841 C 0.39870 0.75320 0.07388
 C842 C 0.41556 0.75147 0.06143
 H843 H 0.38946 0.71027 0.07901
 H844 H 0.37093 0.67582 0.09507
 H845 H 0.33898 0.67917 0.12374
 H846 H 0.32537 0.71700 0.13651
 H847 H 0.33086 0.80399 0.13205
 H848 H 0.34898 0.83844 0.11552
 H849 H 0.38087 0.83507 0.08680
 H850 H 0.39486 0.79723 0.07446
 C851 C 0.62067 0.25542 0.09727
 C852 C 0.63223 0.27584 0.10449
 C853 C 0.65124 0.27438 0.12026
 C854 C 0.65858 0.25250 0.12869
 C855 C 0.64735 0.23203 0.12106
 C856 C 0.62835 0.23349 0.10531
 C857 C 0.61731 0.21279 0.09804
 C858 C 0.62484 0.19128 0.10610
 C859 C 0.64342 0.18985 0.12151
 C860 C 0.65461 0.20993 0.12897
 C861 C 0.66244 0.29504 0.12734
 C862 C 0.65507 0.31654 0.11906
 C863 C 0.63648 0.31796 0.10364
 C864 C 0.62512 0.29790 0.09638
 C865 C 0.67722 0.25098 0.14568
 C866 C 0.69238 0.24927 0.16006
 C867 C 0.60042 0.25686 0.08221
 C868 C 0.58328 0.25740 0.07012
 H869 H 0.60281 0.21299 0.08603
 H870 H 0.61621 0.17563 0.10034
 H871 H 0.64921 0.17309 0.12772
 H872 H 0.66900 0.20790 0.14094
 H873 H 0.67700 0.29480 0.13928
 H874 H 0.66384 0.33218 0.12464
 H875 H 0.63084 0.33471 0.09725
 H876 H 0.61077 0.29987 0.08434
 C877 C -0.10172 0.61423 0.74458
 C878 C -0.09281 0.63711 0.74430
 C879 C -0.10834 0.65625 0.74602
 C880 C -0.13268 0.65239 0.74801
 C881 C -0.14162 0.62951 0.74790
 C882 C -0.12610 0.61037 0.74618
 C883 C -0.13544 0.58766 0.74620
 C884 C -0.15943 0.58396 0.74786
 C885 C -0.17462 0.60267 0.74953
 C886 C -0.16591 0.62522 0.74957
 C887 C -0.09902 0.67897 0.74578
 C888 C -0.07504 0.68267 0.74390
 C889 C -0.05986 0.66395 0.74224
 C890 C -0.06854 0.64139 0.74243
 C891 C -0.14852 0.67187 0.75050
 C892 C -0.16185 0.68788 0.75271
 C893 C -0.08587 0.59461 0.74387
 C894 C -0.07307 0.57803 0.74373
 H895 H -0.12435 0.57253 0.74490
 H896 H -0.16628 0.56647 0.74784
 H897 H -0.19324 0.59970 0.75081
 H898 H -0.17843 0.63920 0.75088
 H899 H -0.11014 0.69408 0.74701
 H900 H -0.06821 0.70016 0.74374
 H901 H -0.04124 0.66692 0.74078
 H902 H -0.05605 0.62738 0.74105
 C903 C -0.09683 0.38812 0.25700
 C904 C -0.12096 0.39277 0.25431
 C905 C -0.13709 0.37414 0.25257
 C906 C -0.12899 0.35098 0.25355
 C907 C -0.10493 0.34633 0.25671
 C908 C -0.08879 0.36497 0.25844
 C909 C -0.06481 0.35992 0.26149
 C910 C -0.05699 0.33709 0.26281
 C911 C -0.07276 0.31886 0.26113
 C912 C -0.09648 0.32333 0.25811
 C913 C -0.16111 0.37922 0.24977
 C914 C -0.16897 0.40205 0.24874
 C915 C -0.15320 0.42027 0.25044
 C916 C -0.12946 0.41579 0.25318
 C917 C -0.14541 0.33200 0.25091
 C918 C -0.15924 0.31646 0.24851
 C919 C -0.08033 0.40720 0.25757
 C920 C -0.06706 0.42341 0.25751
 H921 H -0.05190 0.37353 0.26293
 H922 H -0.03858 0.33353 0.26517
 H923 H -0.06659 0.30116 0.26218
 H924 H -0.10809 0.30858 0.25692
 H925 H -0.17406 0.36565 0.24840
 H926 H -0.18740 0.40561 0.24661
 H927 H -0.15939 0.43797 0.24963
 H928 H -0.11789 0.43055 0.25446
 C929 C 0.09885 0.38383 0.74240
 C930 C 0.09178 0.36035 0.74153
 C931 C 0.10875 0.34242 0.74305
 C932 C 0.13268 0.34811 0.74545
 C933 C 0.13979 0.37161 0.74581
 C934 C 0.12283 0.38952 0.74428
 C935 C 0.13035 0.41289 0.74480
 C936 C 0.15395 0.41840 0.74676
 C937 C 0.17054 0.40089 0.74825
 C938 C 0.16365 0.37774 0.74779
 C939 C 0.10126 0.31907 0.74223
 C940 C 0.07767 0.31358 0.73998
 C941 C 0.06109 0.33111 0.73851
 C942 C 0.06796 0.35426 0.73926
 C943 C 0.14997 0.32988 0.74795
 C944 C 0.16453 0.31498 0.75021
 C945 C 0.08153 0.40219 0.74213
 C946 C 0.06766 0.41789 0.74246
 H947 H 0.11813 0.42714 0.74366
 H948 H 0.15939 0.43636 0.74712
 H949 H 0.18886 0.40526 0.74976
 H950 H 0.17721 0.36474 0.74897
 H951 H 0.11352 0.30484 0.74328
 H952 H 0.07224 0.29563 0.73937
 H953 H 0.04279 0.32675 0.73676
 H954 H 0.05443 0.36729 0.73801
 C955 C 0.10343 0.61891 0.25594
 C956 C 0.12764 0.61423 0.25401
 C957 C 0.14382 0.63284 0.25237
 C958 C 0.13571 0.65601 0.25268
 C959 C 0.11155 0.66070 0.25504
 C960 C 0.09536 0.64208 0.25667
 C961 C 0.07129 0.64718 0.25892
 C962 C 0.06343 0.67002 0.25956
 C963 C 0.07926 0.68822 0.25797
 C964 C 0.10306 0.68372 0.25572
 C965 C 0.16793 0.62773 0.25035
 C966 C 0.17581 0.60489 0.24998
 C967 C 0.15999 0.58670 0.25158
 C968 C 0.13616 0.59121 0.25357
 C969 C 0.15222 0.67496 0.25021
 C970 C 0.16611 0.69050 0.24800
 C971 C 0.08690 0.59985 0.25651
 C972 C 0.07358 0.58368 0.25649
 H973 H 0.05832 0.63359 0.26027
 H974 H 0.04495 0.67361 0.26131
 H975 H 0.07306 0.70594 0.25849
 H976 H 0.11471 0.69845 0.25457
 H977 H 0.18092 0.64128 0.24908
 H978 H 0.19430 0.60130 0.24845
 H979 H 0.16620 0.56898 0.25128
 H980 H 0.12455 0.57646 0.25479
 C981 C 0.75599 -0.09393 0.61728
 C982 C 0.74456 -0.11567 0.61629
 C983 C 0.74630 -0.13136 0.63526
 C984 C 0.75944 -0.12523 0.65512
 C985 C 0.77061 -0.10337 0.65624
 C986 C 0.76888 -0.08767 0.63725
 C987 C 0.78023 -0.06594 0.63873
 C988 C 0.79292 -0.05988 0.65842
 C989 C 0.79461 -0.07523 0.67699
 C990 C 0.78363 -0.09676 0.67600
 C991 C 0.73479 -0.15303 0.63384
 C992 C 0.72190 -0.15900 0.61424
 C993 C 0.72020 -0.14364 0.59570
 C994 C 0.73136 -0.12221 0.59660
 C995 C 0.76171 -0.14159 0.67417
 C996 C 0.76352 -0.15557 0.68966
 C997 C 0.75469 -0.07825 0.59758
 C998 C 0.75340 -0.06573 0.58084
 H999 H 0.77939 -0.05342 0.62472
 H1000 H 0.80148 -0.04318 0.65928
 H1001 H 0.80448 -0.07044 0.69225
 H1002 H 0.78544 -0.10811 0.69087
 H1003 H 0.73558 -0.16556 0.64782
 H1004 H 0.71320 -0.17563 0.61346
 H1005 H 0.71017 -0.14836 0.58051
 H1006 H 0.72949 -0.11086 0.58174
 C1007 C 0.25670 -0.09685 0.38579
 C1008 C 0.24018 -0.11511 0.38623
 C1009 C 0.23895 -0.13089 0.36737
 C1010 C 0.25426 -0.12834 0.34817
 C1011 C 0.27077 -0.11007 0.34772
 C1012 C 0.27200 -0.09428 0.36660
 C1013 C 0.28866 -0.07618 0.36579
 C1014 C 0.30369 -0.07375 0.34686
 C1015 C 0.30248 -0.08919 0.32840
 C1016 C 0.28624 -0.10718 0.32873
 C1017 C 0.22230 -0.14902 0.36823
 C1018 C 0.20730 -0.15149 0.38717
 C1019 C 0.20850 -0.13606 0.40561
 C1020 C 0.22470 -0.11805 0.40524
 C1021 C 0.25295 -0.14460 0.32903
 C1022 C 0.25134 -0.15849 0.31351
 C1023 C 0.25785 -0.08086 0.40517
 C1024 C 0.25811 -0.06809 0.42170
 H1025 H 0.29025 -0.06377 0.37975
 H1026 H 0.31634 -0.05981 0.34652
 H1027 H 0.31420 -0.08723 0.31374
 H1028 H 0.28596 -0.11876 0.31398
 H1029 H 0.22067 -0.16148 0.35431
 H1030 H 0.19469 -0.16546 0.38753
 H1031 H 0.19681 -0.13804 0.42029
 H1032 H 0.22494 -0.10651 0.42002
 C1033 C 0.75333 0.09509 0.37769
 C1034 C 0.76804 0.09050 0.35845
 C1035 C 0.76969 0.10683 0.33998
 C1036 C 0.75664 0.12765 0.34089
 C1037 C 0.74160 0.13203 0.35994
 C1038 C 0.73994 0.11571 0.37839
 C1039 C 0.72485 0.12053 0.39730
 C1040 C 0.71178 0.14088 0.39795
 C1041 C 0.71340 0.15684 0.37991
 C1042 C 0.72811 0.15257 0.36109
 C1043 C 0.78457 0.10191 0.32095
 C1044 C 0.79743 0.08143 0.32018
 C1045 C 0.79582 0.06547 0.33824
 C1046 C 0.78133 0.06987 0.35721
 C1047 C 0.75899 0.14481 0.32254
 C1048 C 0.76088 0.15942 0.30766
 C1049 C 0.75230 0.07895 0.39705
 C1050 C 0.75127 0.06609 0.41355
 H1051 H 0.72295 0.10864 0.41175
 H1052 H 0.70032 0.14427 0.41254
 H1053 H 0.70321 0.17263 0.38049
 H1054 H 0.72875 0.16551 0.34747
 H1055 H 0.78638 0.11379 0.30649
 H1056 H 0.80871 0.07792 0.30549
 H1057 H 0.80585 0.04958 0.33756
 H1058 H 0.78062 0.05693 0.37083
 C1059 C 0.25651 0.09863 0.61917
 C1060 C 0.27178 0.09660 0.63836
 C1061 C 0.27068 0.11306 0.65668
 C1062 C 0.25433 0.13143 0.65566
 C1063 C 0.23902 0.13342 0.63649
 C1064 C 0.24011 0.11698 0.61819
 C1065 C 0.22462 0.11935 0.59919
 C1066 C 0.20853 0.13744 0.59830
 C1067 C 0.20747 0.15352 0.61619
 C1068 C 0.22249 0.15162 0.63510
 C1069 C 0.28612 0.11070 0.67568
 C1070 C 0.30219 0.09259 0.67658
 C1071 C 0.30326 0.07650 0.65868
 C1072 C 0.28827 0.07839 0.63973
 C1073 C 0.25321 0.14842 0.67419
 C1074 C 0.25172 0.16295 0.68913
 C1075 C 0.25761 0.08205 0.60028
 C1076 C 0.25780 0.06886 0.58409
 H1077 H 0.22474 0.10729 0.58483
 H1078 H 0.19683 0.13898 0.58364
 H1079 H 0.19495 0.16755 0.61542
 H1080 H 0.22097 0.16457 0.64857
 H1081 H 0.28593 0.12280 0.69001
 H1082 H 0.31388 0.09104 0.69124
 H1083 H 0.31577 0.06246 0.65946
 H1084 H 0.28973 0.06547 0.62622
   
