data_POSCAR
  _audit_creation_date              2014-09-24
  _audit_creation_method            'ToBaCCo'
  _symmetry_space_group_name_H-M    'P1'
  _symmetry_Int_Tables_number       1
  _symmetry_cell_setting            triclinic
  loop_
  _symmetry_equiv_pos_as_xyz
 x,y,z
_cell_length_a 27.2558
_cell_length_b 27.9443
_cell_length_c 25.7790
_cell_angle_alpha 91.532100
_cell_angle_beta 90.604400
_cell_angle_gamma 90.566000
loop_
  _atom_site_label
  _atom_site_type_symbol
  _atom_site_fract_x
  _atom_site_fract_y
  _atom_site_fract_z
C1 C 0.19868 0.20128 0.26383
 N2 N 0.17913 0.24091 0.24272
 C3 C 0.20161 0.26159 0.20199
 N4 N 0.24250 0.24163 0.18138
 C5 C 0.26186 0.20206 0.20265
 N6 N 0.23961 0.18179 0.24336
 C7 C -0.18825 0.80477 0.23042
 N8 N -0.17212 0.76302 0.20884
 C9 C -0.20070 0.73843 0.17342
 N10 N -0.24486 0.75623 0.15882
 C11 C -0.26089 0.79786 0.18082
 N12 N -0.23236 0.82207 0.21607
 C13 C -0.21822 0.19769 -0.28031
 N14 N -0.25853 0.17772 -0.25914
 C15 C -0.27853 0.19748 -0.21585
 N16 N -0.25741 0.23681 -0.19274
 C17 C -0.21707 0.25715 -0.21378
 N18 N -0.19692 0.23707 -0.25715
 C19 C 0.17453 0.80681 -0.23202
 N20 N 0.15808 0.76450 -0.21369
 C21 C 0.18373 0.74263 -0.17556
 N22 N 0.22513 0.76354 -0.15526
 C23 C 0.24138 0.80574 -0.17385
 N24 N 0.21592 0.82729 -0.21185
 C25 C 0.21404 1.20439 0.75422
 N26 N 0.25298 1.18561 0.77953
 C27 C 0.27204 1.20837 0.82258
 N28 N 0.25114 1.24933 0.84113
 C29 C 0.21223 1.26808 0.81551
 N30 N 0.19360 1.24525 0.77260
 C31 C 0.81220 0.80359 0.73699
 N32 N 0.83001 0.76253 0.75623
 C33 C 0.80626 0.74034 0.79489
 N34 N 0.76507 0.75978 0.81527
 C35 C 0.74693 0.80083 0.79604
 N36 N 0.77089 0.82311 0.75729
 C37 C 0.19021 0.80800 1.24498
 N38 N 0.16992 0.76797 1.22283
 C39 C 0.19076 0.74669 1.18086
 N40 N 0.23193 0.76587 1.16025
 C41 C 0.25265 0.80600 1.18240
 N42 N 0.23146 0.82735 1.22453
 C43 C 0.80746 1.20461 1.27801
 N44 N 0.76737 1.18395 1.25451
 C45 C 0.74591 1.20488 1.21312
 N46 N 0.76540 1.24578 1.19448
 C47 C 0.80541 1.26644 1.21789
 N48 N 0.82674 1.24549 1.25918
 O49 O 0.54886 0.95209 0.90517
 O50 O 0.44889 0.96623 1.09989
 O51 O 0.60184 0.97442 1.06370
 O52 O 0.40006 0.97944 0.95590
 O53 O 0.53448 0.95159 1.09691
 O54 O 0.46003 0.94021 0.92320
 O55 O 0.43363 0.93917 1.02673
 O56 O 0.59609 0.93946 0.97272
 C57 C 0.58274 0.92927 0.92715
 C58 C 0.43044 0.93353 1.07316
 C59 C 0.57856 0.94513 1.08913
 C60 C 0.41471 0.94498 0.92810
 O61 O 0.44711 1.03617 0.91213
 O62 O 0.55248 1.04792 1.09604
 O63 O 0.60100 1.02529 0.93756
 O64 O 0.39121 1.02364 1.05396
 O65 O 0.46041 1.05876 1.08352
 O66 O 0.53235 1.04758 0.90524
 O67 O 0.43695 1.06445 0.98858
 O68 O 0.59871 1.05983 1.02865
 Co69 Co 0.49800 0.99379 0.91895
 Co70 Co 0.50064 1.00586 1.08499
 Co71 Co 0.59077 0.99953 1.00075
 Co72 Co 0.43860 1.00239 1.01028
 O73 O 0.50987 0.99886 1.00057
 C74 C 0.43263 1.06950 0.94125
 C75 C 0.58629 1.07059 1.07395
 C76 C 0.57723 1.05275 0.90995
 C77 C 0.41334 1.05572 1.08461
 O78 O 0.04285 0.44717 0.09359
 O79 O 0.03067 0.54394 -0.09827
 O80 O 0.01973 0.39524 -0.06564
 O81 O 0.01501 0.59240 0.04635
 O82 O 0.04479 0.46064 -0.09673
 O83 O 0.05472 0.53384 0.07761
 O84 O 0.05733 0.55886 -0.02485
 O85 O 0.05560 0.40044 0.02519
 C86 C 0.06630 0.41413 0.07062
 C87 C 0.06379 0.56182 -0.07121
 C88 C 0.05107 0.41766 -0.08957
 C89 C 0.04988 0.57808 0.07384
 O90 O -0.04384 0.54604 0.08939
 O91 O -0.05458 0.44413 -0.09581
 O92 O -0.03217 0.39578 0.06127
 O93 O -0.02804 0.60114 -0.05133
 O94 O -0.06458 0.53428 -0.08239
 O95 O -0.05518 0.46251 0.09573
 O96 O -0.07155 0.55682 0.01311
 O97 O -0.06762 0.39899 -0.02916
 Co98 Co -0.00018 0.49651 0.08157
 Co99 Co -0.01085 0.49410 -0.08436
 Co100 Co -0.00584 0.40605 -0.00205
 Co101 Co -0.00772 0.55462 -0.00853
 O102 O -0.00483 0.48502 -0.00020
 C103 C -0.07699 0.56148 0.06056
 C104 C -0.07837 0.41145 -0.07404
 C105 C -0.05949 0.41852 0.09104
 C106 C -0.06032 0.58017 -0.08293
 O107 O 1.10020 0.05082 0.46795
 O108 O 0.90178 0.01728 0.54626
 O109 O 0.97884 0.06182 0.42470
 O110 O 1.04016 0.07530 0.58422
 O111 O 0.91192 0.03450 0.45414
 O112 O 1.10516 0.03795 0.56388
 O113 O 0.95670 0.06806 0.56579
 O114 O 1.05748 0.02580 0.40033
 C115 C 1.08884 0.05374 0.42096
 C116 C 0.91298 0.05789 0.56344
 C117 C 0.93437 0.06664 0.43127
 C118 C 1.08521 0.07254 0.58556
 O119 O 1.09375 -0.05197 0.55229
 O120 O 0.94062 -0.05645 0.43572
 O121 O 1.02693 -0.06013 0.42186
 O122 O 0.95667 -0.02564 0.59984
 O123 O 0.93999 -0.06889 0.53055
 O124 O 1.09844 -0.04275 0.45342
 O125 O 1.04530 -0.01893 0.61168
 O126 O 0.96851 -0.01559 0.36966
 Co127 Co 1.09062 -0.00120 0.50844
 Co128 Co 0.93157 -0.01615 0.49281
 Co129 Co 1.00176 0.00097 0.42839
 Co130 Co 0.99989 0.02296 0.58383
 O131 O 1.00961 0.00357 0.50619
 C132 C 1.07601 -0.05063 0.59727
 C133 C 0.93765 -0.04772 0.38732
 C134 C 1.07162 -0.06814 0.42431
 C135 C 0.94138 -0.06426 0.57875
 C136 C 1.17419 0.17663 0.30019
 C137 C 1.15379 0.15127 0.33040
 C138 C 1.13110 0.11853 0.36341
 C139 C 1.11201 0.08917 0.39016
 C140 C 0.84076 -0.16816 0.26304
 C141 C 0.86456 -0.14161 0.29132
 C142 C 0.89062 -0.10875 0.32408
 C143 C 0.91211 -0.08044 0.35242
 C144 C 0.80609 0.17193 0.67861
 C145 C 0.82705 0.14726 0.64696
 C146 C 0.85338 0.11621 0.61355
 C147 C 0.87860 0.08918 0.58848
 C148 C 1.14883 -0.16921 0.73167
 C149 C 1.12863 -0.14476 0.70026
 C150 C 1.10798 -0.11329 0.66427
 C151 C 1.09246 -0.08502 0.63379
 C152 C 0.29824 1.17787 1.17860
 C153 C 0.32809 1.15296 1.15746
 C154 C 0.36001 1.12063 1.13276
 C155 C 0.38521 1.09136 1.11124
 C156 C 0.28052 0.82899 0.84808
 C157 C 0.31374 0.85259 0.86669
 C158 C 0.35061 0.88310 0.88781
 C159 C 0.38060 0.91083 0.90589
 C160 C 0.69825 0.81947 1.16292
 C161 C 0.66484 0.84322 1.14739
 C162 C 0.63005 0.87570 1.12888
 C163 C 0.60428 0.90638 1.11182
 C164 C 0.68594 1.17298 0.80881
 C165 C 0.65695 1.14843 0.83114
 C166 C 0.62628 1.11687 0.85783
 C167 C 0.60262 1.08819 0.88124
 C168 C 0.17816 0.30000 0.17587
 C169 C 0.15664 0.33016 0.15236
 C170 C 0.12872 0.36274 0.12375
 C171 C 0.10200 0.38790 0.09915
 C172 C -0.19183 0.29533 -0.18571
 C173 C -0.16942 0.32541 -0.16041
 C174 C -0.14103 0.35827 -0.12976
 C175 C -0.11419 0.38402 -0.10372
 C176 C 0.16477 0.69962 -0.15356
 C177 C 0.14703 0.66473 -0.13422
 C178 C 0.12297 0.62574 -0.11128
 C179 C 0.09852 0.59476 -0.09222
 C180 C -0.18190 0.69612 0.14795
 C181 C -0.16359 0.66191 0.12643
 C182 C -0.13840 0.62377 0.10173
 C183 C -0.11289 0.59355 0.08182
 C184 C 1.19105 0.17939 0.71501
 C185 C 1.16807 0.15713 0.68208
 C186 C 1.13923 0.13010 0.64595
 C187 C 1.11418 0.10523 0.61718
 C188 C 0.83880 -0.17251 0.70144
 C189 C 0.86365 -0.15086 0.67131
 C190 C 0.89290 -0.12390 0.63759
 C191 C 0.91655 -0.09845 0.61001
 C192 C 1.16650 -0.16956 0.28474
 C193 C 1.14367 -0.14978 0.31880
 C194 C 1.11636 -0.12517 0.35724
 C195 C 1.09430 -0.10135 0.38879
 C196 C 0.83220 0.18118 0.31562
 C197 C 0.85558 0.15910 0.34686
 C198 C 0.88380 0.13073 0.38038
 C199 C 0.90761 0.10350 0.40580
 C200 C 0.18686 0.30537 -0.16384
 C201 C 0.16013 0.33597 -0.14695
 C202 C 0.12469 0.36822 -0.12799
 C203 C 0.09193 0.39259 -0.11130
 C204 C -0.17153 0.30366 0.19536
 C205 C -0.14898 0.33450 0.17382
 C206 C -0.12008 0.36745 0.14673
 C207 C -0.09340 0.39260 0.12207
 C208 C -0.17106 0.70049 -0.18106
 C209 C -0.14912 0.66918 -0.15998
 C210 C -0.12051 0.63527 -0.13428
 C211 C -0.09396 0.60875 -0.11137
 C212 C 0.16735 0.70886 0.15730
 C213 C 0.14352 0.67662 0.13759
 C214 C 0.11265 0.64066 0.11549
 C215 C 0.08455 0.61137 0.09676
 C216 C 0.31067 1.18586 0.85130
 C217 C 0.34164 1.16408 0.87451
 C218 C 0.37600 1.13505 0.90021
 C219 C 0.40329 1.10703 0.92029
 C220 C 0.29456 0.82807 1.15872
 C221 C 0.32856 0.84806 1.13836
 C222 C 0.36676 0.87400 1.11452
 C223 C 0.39737 0.89911 1.09487
 C224 C 0.70683 1.18058 1.18481
 C225 C 0.67584 1.15889 1.15963
 C226 C 0.64180 1.13135 1.12930
 C227 C 0.61498 1.10532 1.10352
 C228 C 0.70618 0.82371 0.82119
 C229 C 0.67382 0.84419 0.84410
 C230 C 0.63847 0.87043 0.87247
 C231 C 0.61108 0.89549 0.89739
   
