data_POSCAR
  _audit_creation_date              2014-09-24
  _audit_creation_method            'ToBaCCo'
  _symmetry_space_group_name_H-M    'P1'
  _symmetry_Int_Tables_number       1
  _symmetry_cell_setting            triclinic
  loop_
  _symmetry_equiv_pos_as_xyz
 x,y,z
_cell_length_a 25.1415
_cell_length_b 25.2041
_cell_length_c 49.5228
_cell_angle_alpha 86.337600
_cell_angle_beta 91.781600
_cell_angle_gamma 119.989200
loop_
  _atom_site_label
  _atom_site_type_symbol
  _atom_site_fract_x
  _atom_site_fract_y
  _atom_site_fract_z
C1 C 0.01580 0.09523 0.53909
 H2 H 0.05589 0.08993 0.54112
 C3 C 0.01121 0.13744 0.55424
 H4 H 0.04739 0.16312 0.56844
 C5 C -0.07953 0.06788 0.51781
 H6 H -0.11382 0.04175 0.50301
 C7 C -0.08553 0.11055 0.53228
 H8 H -0.12474 0.11675 0.52842
 N9 N -0.02905 0.06161 0.52130
 C10 C 0.02275 -0.07556 0.50757
 H11 H 0.03185 -0.06731 0.48605
 C12 C 0.02684 -0.12319 0.52165
 H13 H 0.04074 -0.15034 0.51088
 C14 C -0.00857 -0.05135 0.54739
 H15 H -0.02492 -0.02502 0.55711
 C16 C -0.00552 -0.09877 0.56221
 H17 H -0.01918 -0.10787 0.58327
 Zn18 Zn -0.01174 0.01387 0.49918
 N19 N 0.00506 -0.04095 0.52053
 C20 C 0.11258 0.07574 0.48018
 N21 N 0.05623 0.07071 0.47778
 C22 C 0.04699 0.11073 0.46141
 C23 C 0.09534 0.15798 0.44645
 C24 C 0.16255 0.12282 0.46569
 C25 C -0.13155 -0.07837 0.48997
 C26 C -0.17983 -0.12342 0.47549
 C27 C -0.12017 -0.07856 0.43465
 C28 C -0.07310 -0.03455 0.45001
 N29 N -0.07923 -0.03575 0.47719
 H30 H 0.11933 0.04458 0.49394
 H31 H 0.00188 0.10623 0.46026
 H32 H 0.08654 0.18879 0.43334
 H33 H 0.20743 0.12721 0.46844
 H34 H -0.13459 -0.07915 0.51175
 H35 H -0.21810 -0.15813 0.48735
 H36 H -0.11295 -0.07373 0.41306
 H37 H -0.03078 -0.00076 0.44021
 C38 C 0.01140 -0.13616 0.54925
 C39 C -0.03920 0.14680 0.55051
 C40 C -0.17477 -0.12597 0.44718
 C41 C 0.15436 0.16513 0.44872
 C42 C 1.12175 0.05367 0.12767
 H43 H 1.12110 0.09624 0.12785
 C44 C 1.16503 0.05040 0.11201
 H45 H 1.19760 0.09068 0.10008
 C46 C 1.08208 -0.04953 0.14431
 H47 H 1.05041 -0.08783 0.15738
 C48 C 1.12532 -0.05455 0.12921
 H49 H 1.12610 -0.09720 0.13042
 N50 N 1.08137 0.00416 0.14333
 C51 C 0.93396 0.04010 0.16009
 H52 H 0.93443 0.03659 0.18197
 C53 C 0.88593 0.04307 0.14654
 H54 H 0.84991 0.04286 0.15807
 C55 C 0.97810 0.04039 0.11842
 H56 H 1.01240 0.03647 0.10753
 C57 C 0.93148 0.04450 0.10405
 H58 H 0.93078 0.04447 0.08217
 Zn59 Zn 1.03070 0.01685 0.16628
 N60 N 0.97804 0.03750 0.14596
 C61 C 1.08637 0.13521 0.18800
 N62 N 1.08434 0.08023 0.18846
 C63 C 1.12501 0.06993 0.20329
 C64 C 1.16997 0.11578 0.21858
 C65 C 1.13125 0.18281 0.20281
 C66 C 0.93307 -0.10226 0.17417
 C67 C 0.88592 -0.15238 0.18855
 C68 C 0.93457 -0.10598 0.23017
 C69 C 0.98035 -0.05635 0.21498
 N70 N 0.97839 -0.05506 0.18748
 H71 H 1.05441 0.14275 0.17556
 H72 H 1.12283 0.02601 0.20292
 H73 H 1.20126 0.10604 0.23047
 H74 H 1.13338 0.22686 0.20153
 H75 H 0.93190 -0.09940 0.15228
 H76 H 0.84869 -0.18776 0.17742
 H77 H 0.93682 -0.10577 0.25203
 H78 H 1.01586 -0.01787 0.22525
 C79 C 0.88379 0.04413 0.11819
 C80 C 1.16768 -0.00395 0.11294
 C81 C 0.88551 -0.15418 0.21698
 C82 C 1.17427 0.17358 0.21820
 C83 C 0.04887 0.93554 0.87123
 H84 H 0.00394 0.89480 0.87232
 C85 C 0.09734 0.93680 0.88616
 H86 H 0.08882 0.89717 0.89918
 C87 C 0.11386 1.03638 0.85271
 H88 H 0.12033 1.07436 0.83907
 C89 C 0.16394 1.03945 0.86717
 H90 H 0.20863 1.08015 0.86452
 N91 N 0.05773 0.98486 0.85502
 C92 C -0.13001 0.94707 0.84341
 H93 H -0.13313 0.94539 0.82161
 C94 C -0.17805 0.94395 0.85812
 H95 H -0.21683 0.94080 0.84677
 C96 C -0.07151 0.96010 0.88328
 H97 H -0.02921 0.96817 0.89295
 C98 C -0.11843 0.95702 0.89884
 H99 H -0.11164 0.95947 0.92048
 Zn100 Zn -0.01049 0.97374 0.83382
 N101 N -0.07776 0.95592 0.85604
 C102 C -0.07848 0.85215 0.81526
 N103 N -0.02795 0.90873 0.81171
 C104 C 0.01681 0.91975 0.79384
 C105 C 0.01208 0.87292 0.77869
 C106 C -0.08461 0.80345 0.80079
 C107 C 0.02347 1.09745 0.82543
 C108 C 0.02739 1.14909 0.81135
 C109 C -0.00479 1.09241 0.77081
 C110 C -0.00767 1.04201 0.78563
 N111 N 0.00597 1.04525 0.81248
 H112 H -0.11271 0.84415 0.83011
 H113 H 0.05693 0.96501 0.79175
 H114 H 0.04820 0.88326 0.76442
 H115 H -0.12385 0.75818 0.80471
 H116 H 0.03258 1.09830 0.84694
 H117 H 0.04115 1.19007 0.82211
 H118 H -0.01845 1.08784 0.74976
 H119 H -0.02386 0.99941 0.77592
 C120 C -0.17259 0.95056 0.88639
 C121 C 0.15610 0.98894 0.88402
 C122 C 0.01195 1.14663 0.78375
 C123 C -0.03837 0.81332 0.78249
 C124 C 0.51525 0.00095 0.01412
 C125 C 0.51100 -0.00614 -0.01295
 C126 C 0.45892 -0.00898 -0.02887
 C127 C 0.55767 -0.01220 -0.02785
 C128 C 0.56861 0.00678 0.02986
 C129 C 0.46604 0.00184 0.02934
 C130 C 0.39890 -0.05780 -0.02456
 C131 C 0.34994 -0.05836 -0.03897
 C132 C 0.36030 -0.01002 -0.05785
 C133 C 0.42065 0.03834 -0.06233
 C134 C 0.46958 0.03861 -0.04807
 C135 C 0.54059 -0.06701 -0.04017
 C136 C 0.58414 -0.07432 -0.05377
 C137 C 0.64559 -0.02663 -0.05552
 C138 C 0.66232 0.02867 -0.04344
 C139 C 0.61869 0.03584 -0.02976
 C140 C 0.61227 0.06411 0.03899
 C141 C 0.66392 0.07086 0.05323
 C142 C 0.67190 0.02002 0.05904
 C143 C 0.62754 -0.03762 0.05022
 C144 C 0.57641 -0.04411 0.03553
 C145 C 0.45332 0.04987 0.02496
 C146 C 0.40463 0.04837 0.03855
 C147 C 0.36762 -0.00141 0.05666
 C148 C 0.38121 -0.04907 0.06112
 C149 C 0.43022 -0.04718 0.04772
 H150 H 0.39003 -0.09506 -0.00989
 H151 H 0.30385 -0.09599 -0.03502
 H152 H 0.42998 0.07572 -0.07700
 H153 H 0.51574 0.07651 -0.05165
 H154 H 0.49364 -0.10456 -0.03885
 H155 H 0.56988 -0.11771 -0.06254
 H156 H 0.63241 0.07886 -0.02074
 H157 H 0.60668 0.10374 0.03473
 H158 H 0.69731 0.11559 0.06002
 H159 H 0.63299 -0.07736 0.05438
 H160 H 0.54295 -0.08864 0.02858
 H161 H 0.48092 0.08826 0.01093
 H162 H 0.39628 0.08641 0.03502
 H163 H 0.35322 -0.08853 0.07454
 H164 H 0.43927 -0.08482 0.05116
 H165 H 0.70896 0.06671 -0.04486
 C166 C -0.03549 0.47953 0.68032
 C167 C -0.03553 0.48381 0.65271
 C168 C -0.04015 0.43392 0.63641
 C169 C -0.02733 0.54024 0.63755
 C170 C -0.04001 0.52486 0.69663
 C171 C -0.02725 0.43130 0.69546
 C172 C 0.00004 0.44828 0.61462
 C173 C -0.00241 0.40188 0.59975
 C174 C -0.04479 0.33983 0.60646
 C175 C -0.08633 0.32565 0.62777
 C176 C -0.08451 0.37224 0.64235
 C177 C 0.02391 0.59762 0.64238
 C178 C 0.03194 0.65050 0.62787
 C179 C -0.01102 0.64702 0.60815
 C180 C -0.06201 0.58927 0.60322
 C181 C -0.06982 0.53638 0.61765
 C182 C -0.08436 0.54234 0.69075
 C183 C -0.08607 0.58717 0.70533
 C184 C -0.04444 0.61445 0.72657
 C185 C -0.00209 0.59462 0.73322
 C186 C 0.00026 0.55061 0.71835
 C187 C -0.06969 0.39280 0.71541
 C188 C -0.06184 0.34772 0.72984
 C189 C -0.01083 0.34085 0.72485
 C190 C 0.03208 0.38021 0.70508
 C191 C 0.02399 0.42504 0.69057
 H192 H 0.03413 0.49549 0.60935
 H193 H 0.02916 0.41476 0.58301
 H194 H -0.11937 0.27850 0.63365
 H195 H -0.11723 0.36002 0.65856
 H196 H 0.05791 0.60132 0.65727
 H197 H 0.07228 0.69399 0.63181
 H198 H -0.10947 0.49244 0.61358
 H199 H -0.11715 0.52191 0.67459
 H200 H -0.11910 0.60140 0.69950
 H201 H 0.02955 0.61325 0.74991
 H202 H 0.03434 0.53738 0.72357
 H203 H -0.10935 0.39717 0.71953
 H204 H -0.09621 0.31767 0.74464
 H205 H 0.07243 0.37698 0.70109
 H206 H 0.05796 0.45524 0.67564
 H207 H -0.09642 0.58502 0.58846
 C208 C 0.50935 0.51758 0.34681
 C209 C 0.51395 0.51571 0.31965
 C210 C 0.56718 0.56390 0.30396
 C211 C 0.46571 0.46529 0.30430
 C212 C 0.45715 0.46775 0.36247
 C213 C 0.55598 0.56938 0.36214
 C214 C 0.57887 0.62451 0.30149
 C215 C 0.63055 0.66979 0.28732
 C216 C 0.67162 0.65529 0.27549
 C217 C 0.65908 0.59417 0.27785
 C218 C 0.60710 0.54889 0.29176
 C219 C 0.42973 0.47775 0.28566
 C220 C 0.38216 0.43032 0.27187
 C221 C 0.37049 0.36981 0.27620
 C222 C 0.40744 0.35765 0.29454
 C223 C 0.45460 0.40505 0.30856
 C224 C 0.46790 0.43100 0.38175
 C225 C 0.41894 0.38195 0.39582
 C226 C 0.35845 0.36940 0.39108
 C227 C 0.34797 0.40717 0.37213
 C228 C 0.39695 0.45594 0.35790
 C229 C 0.61758 0.58378 0.36289
 C230 C 0.66122 0.63419 0.37667
 C231 C 0.64394 0.67084 0.39008
 C232 C 0.58191 0.65545 0.38965
 C233 C 0.53836 0.60505 0.37590
 H234 H 0.54804 0.63664 0.31057
 H235 H 0.63800 0.71604 0.28545
 H236 H 0.69005 0.58143 0.26940
 H237 H 0.59873 0.50226 0.29358
 H238 H 0.43788 0.52409 0.28215
 H239 H 0.35480 0.44096 0.25762
 H240 H 0.48221 0.39483 0.32285
 H241 H 0.51418 0.43970 0.38555
 H242 H 0.42837 0.35408 0.41056
 H243 H 0.30177 0.39830 0.36798
 H244 H 0.38798 0.48420 0.34319
 H245 H 0.63181 0.55608 0.35276
 H246 H 0.70840 0.64412 0.37706
 H247 H 0.56719 0.68307 0.39952
 H248 H 0.49097 0.59454 0.37552
 H249 H 0.39915 0.31133 0.29832
 C250 C 0.01292 0.25109 0.56944
 C251 C -0.04151 0.19601 0.56467
 C252 C -0.09751 0.18890 0.57343
 C253 C -0.09887 0.23559 0.58675
 C254 C -0.04421 0.29032 0.59180
 C255 C 0.01165 0.29725 0.58301
 H256 H 0.05683 0.25898 0.56251
 H257 H -0.14029 0.14698 0.57030
 H258 H -0.14284 0.22889 0.59291
 H259 H 0.05481 0.33817 0.58689
 C260 C 0.81136 0.80918 0.25593
 C261 C 0.83239 0.79618 0.23261
 C262 C 0.80059 0.73606 0.22380
 C263 C 0.74857 0.69048 0.23765
 C264 C 0.72734 0.70363 0.26085
 C265 C 0.75978 0.76346 0.26994
 H266 H 0.83392 0.85510 0.26311
 H267 H 0.81579 0.72413 0.20613
 H268 H 0.72441 0.64513 0.22986
 H269 H 0.74544 0.77506 0.28798
 C270 C 0.25497 0.04346 -0.08997
 C271 C 0.20889 -0.01034 -0.10122
 C272 C 0.21349 -0.06381 -0.09823
 C273 C 0.26246 -0.06370 -0.08409
 C274 C 0.30834 -0.01000 -0.07283
 C275 C 0.30427 0.04366 -0.07600
 H276 H 0.25243 0.08518 -0.09157
 H277 H 0.17962 -0.10570 -0.10714
 H278 H 0.26500 -0.10544 -0.08231
 H279 H 0.33870 0.08553 -0.06724
 C280 C -0.01277 0.75417 0.55109
 C281 C 0.00897 0.80938 0.56403
 C282 C 0.02567 0.81115 0.59146
 C283 C 0.01969 0.75873 0.60571
 C284 C -0.00287 0.70332 0.59283
 C285 C -0.01841 0.70190 0.56528
 H286 H -0.02692 0.75080 0.53010
 H287 H 0.04319 0.85305 0.60199
 H288 H 0.03154 0.76131 0.62697
 H289 H -0.03504 0.66028 0.55462
 C290 C 0.28312 0.22997 0.23495
 C291 C 0.22443 0.22410 0.23313
 C292 C 0.21439 0.26692 0.24563
 C293 C 0.26185 0.31435 0.25955
 C294 C 0.32014 0.31962 0.26149
 C295 C 0.33026 0.27691 0.24911
 H296 H 0.29305 0.19881 0.22506
 H297 H 0.16963 0.26332 0.24499
 H298 H 0.25276 0.34642 0.26917
 H299 H 0.37506 0.28055 0.24998
 C300 C 0.72056 -0.07139 -0.10813
 C301 C 0.78156 -0.04653 -0.09858
 C302 C 0.79590 -0.01661 -0.07395
 C303 C 0.75185 -0.01071 -0.06000
 C304 C 0.69192 -0.03440 -0.07004
 C305 C 0.67669 -0.06524 -0.09414
 H306 H 0.70539 -0.09714 -0.12614
 H307 H 0.84187 0.00531 -0.06575
 H308 H 0.76492 0.01272 -0.04128
 H309 H 0.63086 -0.08402 -0.10248
 C310 C 0.23072 0.01766 0.07120
 C311 C 0.21657 -0.00632 0.09805
 C312 C 0.25149 -0.02976 0.11106
 C313 C 0.30041 -0.02817 0.09766
 C314 C 0.31507 -0.00373 0.07082
 C315 C 0.27918 0.01861 0.05767
 H316 H 0.20409 0.03551 0.06065
 H317 H 0.24212 -0.04761 0.13190
 H318 H 0.32762 -0.04481 0.10859
 H319 H 0.28826 0.03652 0.03685
 C320 C 0.72055 0.78818 0.44338
 C321 C 0.78068 0.82688 0.43289
 C322 C 0.79311 0.81321 0.40723
 C323 C 0.74887 0.76321 0.39345
 C324 C 0.69036 0.72481 0.40452
 C325 C 0.67657 0.73822 0.42950
 H326 H 0.70535 0.79665 0.46194
 H327 H 0.83789 0.83822 0.39791
 H328 H 0.76075 0.75449 0.37403
 H329 H 0.63169 0.70955 0.43858
 C330 C 0.02609 0.21348 0.74152
 C331 C 0.00941 0.19859 0.76897
 C332 C -0.01242 0.23205 0.78193
 C333 C -0.01815 0.27865 0.76774
 C334 C -0.00261 0.29273 0.74017
 C335 C 0.02002 0.25988 0.72728
 H336 H 0.04368 0.18910 0.73099
 H337 H -0.02657 0.22130 0.80293
 H338 H -0.03483 0.30364 0.77840
 H339 H 0.03186 0.26911 0.70600
 C340 C 0.77030 -0.00579 0.11158
 C341 C 0.82972 0.03982 0.10352
 C342 C 0.83696 0.07924 0.08084
 C343 C 0.78557 0.07334 0.06656
 C344 C 0.72624 0.02711 0.07440
 C345 C 0.71906 -0.01242 0.09701
 H346 H 0.76365 -0.03718 0.12883
 H347 H 0.88235 0.11468 0.07427
 H348 H 0.79212 0.10414 0.04910
 H349 H 0.67371 -0.04815 0.10350
 C350 C 0.25384 0.21034 0.42300
 C351 C 0.20706 0.21744 0.43404
 C352 C 0.21093 0.27517 0.43095
 C353 C 0.25989 0.32430 0.41694
 C354 C 0.30648 0.31711 0.40590
 C355 C 0.30312 0.25971 0.40915
 H356 H 0.25190 0.16636 0.42467
 H357 H 0.17652 0.28273 0.43971
 H358 H 0.26185 0.36830 0.41510
 H359 H 0.33812 0.25275 0.40056
 C360 C 0.01357 0.76087 0.76347
 C361 C -0.04080 0.76174 0.76832
 C362 C -0.09687 0.71302 0.75966
 C363 C -0.09834 0.66492 0.74635
 C364 C -0.04374 0.66462 0.74122
 C365 C 0.01218 0.71338 0.74991
 H366 H 0.05752 0.79675 0.77033
 H367 H -0.13960 0.71234 0.76286
 H368 H -0.14236 0.62777 0.74026
 H369 H 0.05530 0.71544 0.74597
   
