data_POSCAR
  _audit_creation_date              2014-09-24
  _audit_creation_method            'ToBaCCo'
  _symmetry_space_group_name_H-M    'P1'
  _symmetry_Int_Tables_number       1
  _symmetry_cell_setting            triclinic
  loop_
  _symmetry_equiv_pos_as_xyz
 x,y,z
_cell_length_a 23.9285
_cell_length_b 22.9584
_cell_length_c 30.6561
_cell_angle_alpha 82.413700
_cell_angle_beta 90.044500
_cell_angle_gamma 70.453500
loop_
  _atom_site_label
  _atom_site_type_symbol
  _atom_site_fract_x
  _atom_site_fract_y
  _atom_site_fract_z
C1 C 0.01006 0.51479 0.97528
 C2 C 0.00475 0.50337 1.01948
 C3 C 0.01994 0.54171 1.04974
 C4 C -0.01412 0.45184 1.04070
 C5 C 0.00232 0.47385 0.94356
 C6 C 0.02437 0.57061 0.95582
 C7 C 0.07139 0.51532 1.07715
 C8 C 0.09025 0.55180 1.10271
 C9 C 0.05759 0.61581 1.10197
 C10 C 0.00428 0.64131 1.07557
 C11 C -0.01414 0.60465 1.04962
 C12 C 0.02323 0.38942 1.04439
 C13 C 0.00722 0.34253 1.06979
 C14 C -0.04642 0.35753 1.09180
 C15 C -0.08469 0.41997 1.08601
 C16 C -0.06835 0.46658 1.06121
 C17 C -0.04722 0.45386 0.94288
 C18 C -0.05481 0.41970 0.91000
 C19 C -0.01425 0.40724 0.87652
 C20 C 0.03511 0.42689 0.87732
 C21 C 0.04363 0.45918 0.91068
 C22 C -0.01727 0.61697 0.92673
 C23 C -0.00531 0.67024 0.90839
 C24 C 0.04879 0.67818 0.91866
 C25 C 0.09081 0.63107 0.94753
 C26 C 0.07887 0.57755 0.96566
 H27 H 0.09804 0.46663 1.07776
 H28 H 0.13039 0.52878 1.12311
 H29 H -0.02263 0.68999 1.07355
 H30 H -0.05421 0.62566 1.02865
 H31 H 0.06558 0.37743 1.02902
 H32 H 0.03790 0.29512 1.07340
 H33 H -0.09769 0.51462 1.05857
 H34 H -0.08101 0.46629 0.96669
 H35 H -0.09356 0.40539 0.90960
 H36 H 0.06722 0.41728 0.85201
 H37 H 0.08218 0.47392 0.91030
 H38 H -0.05933 0.61202 0.91846
 H39 H -0.03847 0.70473 0.88584
 H40 H 0.13277 0.63542 0.95654
 H41 H 0.11198 0.54166 0.98752
 H42 H -0.12702 0.43359 1.10118
 C43 C 0.50436 -0.02770 0.48117
 C44 C 0.49566 0.00054 0.51817
 C45 C 0.44266 0.00332 0.54392
 C46 C 0.53956 0.02356 0.53762
 C47 C 0.56105 -0.04393 0.45825
 C48 C 0.45677 -0.04736 0.46358
 C49 C 0.38606 0.04478 0.52903
 C50 C 0.33548 0.03852 0.54921
 C51 C 0.34108 -0.00993 0.58392
 C52 C 0.39795 -0.04937 0.59992
 C53 C 0.44834 -0.04237 0.58036
 C54 C 0.52162 0.08594 0.54504
 C55 C 0.55999 0.10806 0.56675
 C56 C 0.61710 0.06804 0.58192
 C57 C 0.63564 0.00572 0.57359
 C58 C 0.59697 -0.01650 0.55188
 C59 C 0.58738 -0.10535 0.44943
 C60 C 0.64089 -0.12308 0.42852
 C61 C 0.66989 -0.07988 0.41597
 C62 C 0.64288 -0.01776 0.42388
 C63 C 0.58872 0.00015 0.44463
 C64 C 0.44482 -0.09944 0.48501
 C65 C 0.39465 -0.11233 0.47227
 C66 C 0.35570 -0.07347 0.43773
 C67 C 0.36953 -0.02300 0.41502
 C68 C 0.41970 -0.01010 0.42789
 H69 H 0.38105 0.07998 0.50067
 H70 H 0.29203 0.06941 0.53629
 H71 H 0.40345 -0.08645 0.62706
 H72 H 0.49172 -0.07494 0.59201
 H73 H 0.47743 0.11747 0.53437
 H74 H 0.54457 0.15654 0.57182
 H75 H 0.61125 -0.06517 0.54721
 H76 H 0.56681 -0.14019 0.45924
 H77 H 0.65899 -0.17084 0.42214
 H78 H 0.66373 0.01690 0.41458
 H79 H 0.56860 0.04822 0.45016
 H80 H 0.47333 -0.12881 0.51253
 H81 H 0.38625 -0.15236 0.48989
 H82 H 0.34051 0.00804 0.38841
 H83 H 0.42829 0.03047 0.41122
 H84 H 0.67915 -0.02645 0.58519
 C85 C 0.12339 -0.04368 0.28779
 H86 H 0.12725 -0.03177 0.25284
 C87 C 0.17097 -0.05209 0.31721
 H88 H 0.21141 -0.04682 0.30446
 C89 C 0.06610 -0.06610 0.34644
 H90 H 0.02492 -0.07056 0.35793
 C91 C 0.11250 -0.07499 0.37697
 H92 H 0.10599 -0.08610 0.41156
 N93 N 0.07283 -0.05237 0.30266
 C94 C -0.00072 -0.11378 0.19423
 H95 H -0.04466 -0.07906 0.18931
 C96 C 0.01409 -0.16574 0.17180
 H97 H -0.01908 -0.16898 0.14922
 C98 C 0.09377 -0.15152 0.23149
 H99 H 0.12411 -0.14729 0.25593
 C100 C 0.11060 -0.20392 0.20972
 H101 H 0.15445 -0.23744 0.21779
 Zn102 Zn 0.01173 -0.04518 0.26072
 N103 N 0.03866 -0.10816 0.22394
 C104 C -0.00399 0.04589 0.18431
 N105 N -0.01060 0.03576 0.22846
 C106 C -0.03086 0.08398 0.25221
 C107 C -0.04723 0.14543 0.23150
 C108 C -0.01897 0.10692 0.16228
 C109 C -0.04213 -0.11727 0.31225
 C110 C -0.08640 -0.13266 0.33547
 C111 C -0.15403 -0.02839 0.31145
 C112 C -0.10818 -0.01489 0.28867
 N113 N -0.05328 -0.05900 0.29005
 H114 H 0.01343 0.00675 0.16625
 H115 H -0.03424 0.07448 0.28745
 H116 H -0.06308 0.18302 0.25118
 H117 H -0.01373 0.11448 0.12713
 H118 H 0.00175 -0.15167 0.31236
 H119 H -0.07538 -0.17897 0.35371
 H120 H -0.19739 0.00728 0.30986
 H121 H -0.11670 0.03068 0.26987
 C122 C 0.07008 -0.21307 0.18017
 C123 C 0.16620 -0.06906 0.36243
 C124 C -0.14334 -0.08798 0.33540
 C125 C -0.04145 0.15751 0.18597
 C126 C -0.05033 0.19561 0.72475
 H127 H -0.05947 0.19501 0.69028
 C128 C -0.05290 0.25137 0.73947
 H129 H -0.06449 0.29363 0.71602
 C130 C -0.02406 0.14080 0.79697
 H131 H -0.01282 0.09757 0.81927
 C132 C -0.02650 0.19567 0.81319
 H133 H -0.01602 0.19371 0.84781
 N134 N -0.03430 0.14149 0.75321
 C135 C 0.05386 -0.00639 0.67610
 H136 H 0.02801 -0.03683 0.68359
 C137 C 0.10603 -0.02670 0.65361
 H138 H 0.11914 -0.07235 0.64307
 C139 C 0.06938 0.08874 0.68282
 H140 H 0.05638 0.13264 0.69571
 C141 C 0.12170 0.07042 0.66019
 H142 H 0.14794 0.10090 0.65576
 Zn143 Zn -0.02634 0.06720 0.72951
 N144 N 0.03702 0.05003 0.69078
 C145 C -0.10332 0.06172 0.65964
 N146 N -0.09950 0.07701 0.70068
 C147 C -0.14883 0.10013 0.72355
 C148 C -0.20487 0.10864 0.70534
 C149 C -0.15863 0.06856 0.64042
 C150 C 0.04726 -0.01947 0.79619
 C151 C 0.06718 -0.07447 0.82601
 C152 C -0.02443 -0.09228 0.81094
 C153 C -0.04265 -0.03686 0.78152
 N154 N -0.00660 -0.00202 0.77447
 H155 H -0.06363 0.04393 0.64185
 H156 H -0.14444 0.11175 0.75616
 H157 H -0.24344 0.12653 0.72438
 H158 H -0.16109 0.05614 0.60778
 H159 H 0.07541 0.00868 0.78943
 H160 H 0.11032 -0.08725 0.84264
 H161 H -0.05333 -0.11990 0.81487
 H162 H -0.08476 -0.02290 0.76325
 C163 C 0.14143 0.01129 0.64634
 C164 C -0.03961 0.25158 0.78405
 C165 C 0.03163 -0.11237 0.83318
 C166 C -0.21025 0.09258 0.66334
 N167 N 0.13618 -0.31702 0.16888
 N168 N 0.13225 -0.36551 0.14754
 C169 C 0.07810 -0.34695 0.12679
 C170 C 0.04693 -0.28616 0.13440
 C171 C 0.08428 -0.26907 0.16130
 H172 H 0.00186 -0.25883 0.12318
 H173 H 0.17370 -0.32012 0.18760
 H174 H 0.16716 -0.40746 0.14757
 N175 N -0.10042 0.27108 0.17835
 N176 N -0.10201 0.32328 0.15366
 C177 C -0.06116 0.30971 0.12278
 C178 C -0.03266 0.24532 0.12816
 C179 C -0.05867 0.22276 0.16397
 H180 H 0.00355 0.21871 0.11002
 H181 H -0.12731 0.26915 0.20494
 H182 H -0.12943 0.36732 0.15945
 N183 N 0.23371 -0.07393 0.63170
 N184 N 0.28643 -0.07936 0.61627
 C185 C 0.28825 -0.02197 0.60211
 C186 C 0.23407 0.02209 0.60869
 C187 C 0.20071 -0.01285 0.62792
 H188 H 0.22163 0.07236 0.60184
 H189 H 0.22182 -0.11167 0.64605
 H190 H 0.32054 -0.12189 0.61574
 N191 N -0.32014 0.14486 0.65329
 N192 N -0.36518 0.13874 0.63176
 C193 C -0.34450 0.09091 0.60816
 C194 C -0.28317 0.06577 0.61491
 C195 C -0.26957 0.10131 0.64386
 H196 H -0.25287 0.02639 0.60155
 H197 H -0.32442 0.17852 0.67407
 H198 H -0.40940 0.16603 0.63448
 N199 N 0.11107 -0.20438 0.87526
 N200 N 0.11564 -0.25933 0.89743
 C201 C 0.06138 -0.26514 0.89881
 C202 C 0.02058 -0.21097 0.87666
 C203 C 0.05375 -0.17362 0.86194
 H204 H -0.02665 -0.20042 0.87155
 H205 H 0.14737 -0.18977 0.86829
 H206 H 0.15589 -0.29267 0.90992
 N207 N -0.02110 0.35316 0.77300
 N208 N -0.01372 0.39353 0.79739
 C209 C -0.02380 0.37619 0.83950
 C210 C -0.03823 0.32225 0.84216
 C211 C -0.03549 0.30875 0.79914
 H212 H -0.04639 0.29516 0.87155
 H213 H -0.01343 0.35477 0.73942
 H214 H -0.00076 0.43156 0.78536
 N215 N -0.18871 -0.16266 0.37486
 N216 N -0.23721 -0.16052 0.39599
 C217 C -0.27188 -0.10036 0.39520
 C218 C -0.24360 -0.06256 0.37243
 C219 C -0.19084 -0.10394 0.36008
 H220 H -0.25902 -0.01214 0.36598
 H221 H -0.15531 -0.20421 0.37062
 H222 H -0.24522 -0.20022 0.41113
 N223 N 0.22336 -0.11465 0.43464
 N224 N 0.27327 -0.11643 0.45411
 C225 C 0.29992 -0.08416 0.42660
 C226 C 0.26513 -0.06089 0.38781
 C227 C 0.21688 -0.08117 0.39422
 H228 H 0.27344 -0.03269 0.35910
 H229 H 0.19485 -0.13670 0.44905
 H230 H 0.28768 -0.13847 0.48612
   
