data_POSCAR
  _audit_creation_date              2014-09-24
  _audit_creation_method            'ToBaCCo'
  _symmetry_space_group_name_H-M    'P1'
  _symmetry_Int_Tables_number       1
  _symmetry_cell_setting            triclinic
  loop_
  _symmetry_equiv_pos_as_xyz
 x,y,z
_cell_length_a 54.0063
_cell_length_b 53.9502
_cell_length_c 15.6348
_cell_angle_alpha 90.098200
_cell_angle_beta 89.896300
_cell_angle_gamma 119.875400
loop_
  _atom_site_label
  _atom_site_type_symbol
  _atom_site_fract_x
  _atom_site_fract_y
  _atom_site_fract_z
C1 C 0.22212 0.49057 0.45213
 C2 C 0.22235 0.49110 0.54366
 C3 C 0.24575 0.49205 0.58673
 C4 C 0.26916 0.49304 0.54362
 C5 C 0.26919 0.49351 0.45261
 C6 C 0.24602 0.49265 0.40915
 H7 H 0.24625 0.49249 0.33983
 H8 H 0.24594 0.49235 0.65594
 C9 C 0.50321 -0.27048 0.45296
 C10 C 0.50741 -0.26857 0.54317
 C11 C 0.50737 -0.24628 0.58928
 C12 C 0.50224 -0.22600 0.54933
 C13 C 0.49822 -0.22769 0.45927
 C14 C 0.49790 -0.25018 0.41304
 H15 H 0.49617 -0.25011 0.34398
 H16 H 0.50950 -0.24599 0.65831
 C17 C 1.27228 0.77165 0.45324
 C18 C 1.27270 0.77142 0.54455
 C19 C 1.25110 0.74804 0.58898
 C20 C 1.22911 0.72481 0.54609
 C21 C 1.22885 0.72441 0.45576
 C22 C 1.25079 0.74735 0.41055
 H23 H 1.24951 0.74724 0.34135
 H24 H 1.25162 0.74761 0.65829
 C25 C 0.77717 0.50854 0.45379
 C26 C 0.77701 0.50677 0.54473
 C27 C 0.75258 0.50283 0.58928
 C28 C 0.72959 0.50311 0.54751
 C29 C 0.73075 0.50621 0.45704
 C30 C 0.75431 0.50873 0.41201
 H31 H 0.75410 0.50937 0.34269
 H32 H 0.75267 0.50241 0.65856
 C33 C 0.50089 0.27427 0.46143
 C34 C 0.49805 0.27172 0.55167
 C35 C 0.49547 0.24704 0.59078
 C36 C 0.49768 0.22582 0.54347
 C37 C 0.50062 0.22896 0.45276
 C38 C 0.50240 0.25314 0.41382
 H39 H 0.50346 0.25482 0.34461
 H40 H 0.49464 0.24592 0.65997
 C41 C 0.72788 0.22482 0.45353
 C42 C 0.72737 0.22575 0.54374
 C43 C 0.74896 0.24959 0.58668
 C44 C 0.77194 0.27211 0.54215
 C45 C 0.77243 0.27045 0.45117
 C46 C 0.75055 0.24683 0.40863
 H47 H 0.75048 0.24620 0.33926
 H48 H 0.74870 0.24957 0.65599
 O49 O 0.95564 0.43315 0.14390
 O50 O 0.92645 0.44380 0.06464
 C51 C 0.93065 0.42889 0.12183
 O52 O 1.04022 0.56054 0.15614
 O53 O 1.07141 0.55178 0.07999
 C54 C 1.06581 0.56614 0.13589
 O55 O 0.96012 0.52066 0.15963
 O56 O 0.92852 0.48598 0.06836
 C57 C 0.93447 0.50336 0.13219
 O58 O 1.03516 0.46678 0.14203
 O59 O 1.06886 0.50707 0.07317
 C60 C 1.06147 0.48563 0.12460
 Zr61 Zr 0.99665 0.46401 0.09954
 O62 O 0.99780 0.46084 0.23420
 O63 O 0.99313 0.42356 0.08107
 Zr64 Zr 1.00011 0.52816 0.11193
 O65 O 1.00228 0.52648 0.24688
 O66 O 0.99874 0.56660 0.12140
 O67 O 0.97279 0.48425 0.12017
 O68 O 1.02306 0.50708 0.12381
 O69 O 1.03840 0.47417 -0.15969
 O70 O 1.07032 0.50980 -0.07119
 C71 C 1.06412 0.49167 -0.13321
 O72 O 0.96432 0.52822 -0.15319
 O73 O 0.93060 0.48923 -0.07962
 C74 C 0.93802 0.50955 -0.13517
 O75 O 1.04420 0.56566 -0.13945
 O76 O 1.07325 0.55373 -0.06443
 C77 C 1.06918 0.56968 -0.11801
 O78 O 0.95858 0.43973 -0.17043
 O79 O 0.92771 0.44658 -0.08602
 C80 C 0.93304 0.43402 -0.14827
 Zr81 Zr 0.99875 0.46816 -0.11468
 O82 O 1.00056 0.46743 -0.24966
 O83 O 0.99411 0.42679 -0.11153
 Zr84 Zr 1.00281 0.53283 -0.10328
 O85 O 1.00700 0.53729 -0.23788
 O86 O 1.00227 0.57172 -0.09340
 Zr87 Zr 0.95705 0.47921 -0.00578
 Zr88 Zr 1.04223 0.51767 0.00214
 O89 O 1.02558 0.51195 -0.12267
 O90 O 0.97570 0.48949 -0.12860
 O91 O 1.02314 0.47286 -0.00631
 O92 O 0.97693 0.52401 0.00283
 O93 O 0.97231 0.45018 -0.01046
 O94 O 1.02726 0.54705 0.00751
 H95 H 1.03539 0.51199 0.17508
 H96 H 0.96494 0.53316 0.00456
 H97 H 1.03873 0.51881 -0.17229
 H98 H 0.95831 0.42946 -0.01416
 H99 H 1.01381 0.58072 0.08341
 H100 H 1.01953 0.58546 -0.06153
 H101 H 0.99104 0.51985 -0.26343
 H102 H 1.00536 0.48665 -0.26980
 H103 H 1.01116 0.42835 -0.08287
 H104 H 0.99198 0.41562 0.13899
 H105 H 0.98477 0.46699 0.25821
 H106 H 0.98491 0.50908 0.26654
 O107 O 0.47523 0.43473 -0.14572
 O108 O 0.51398 0.44245 -0.06531
 C109 C 0.49476 0.42862 -0.12303
 O110 O 0.52640 0.56398 -0.15711
 O111 O 0.48716 0.55774 -0.08198
 C112 C 0.50733 0.57103 -0.13772
 O113 O 0.56183 0.51942 -0.15940
 O114 O 0.55515 0.48282 -0.07073
 C115 C 0.56802 0.50030 -0.13343
 O116 O 0.43444 0.47462 -0.14613
 O117 O 0.44400 0.51569 -0.07509
 C118 C 0.42901 0.49496 -0.12795
 Zr119 Zr 0.46789 0.46802 -0.10260
 O120 O 0.46423 0.46555 -0.23750
 O121 O 0.42908 0.42923 -0.08661
 Zr122 Zr 0.53135 0.52976 -0.11184
 O123 O 0.53001 0.53001 -0.24712
 O124 O 0.57168 0.56744 -0.10893
 O125 O 0.51166 0.48536 -0.12191
 O126 O 0.48768 0.51156 -0.12530
 O127 O 0.43734 0.48090 0.15382
 O128 O 0.44498 0.51852 0.06761
 C129 C 0.43134 0.50014 0.12766
 O130 O 0.56468 0.52476 0.15255
 O131 O 0.55558 0.48433 0.07845
 C132 C 0.56971 0.50412 0.13456
 O133 O 0.52888 0.56918 0.13709
 O134 O 0.48876 0.56074 0.06300
 C135 C 0.50958 0.57569 0.11554
 O136 O 0.47734 0.44095 0.16775
 O137 O 0.51387 0.44443 0.08433
 C138 C 0.49570 0.43314 0.14647
 Zr139 Zr 0.46955 0.47213 0.11238
 O140 O 0.46808 0.47495 0.24712
 O141 O 0.43108 0.43233 0.11384
 Zr142 Zr 0.53314 0.53350 0.10325
 O143 O 0.53246 0.53737 0.23793
 O144 O 0.57405 0.57047 0.09736
 Zr145 Zr 0.52080 0.47860 0.00407
 Zr146 Zr 0.48013 0.52317 -0.00362
 O147 O 0.48969 0.51614 0.12138
 O148 O 0.51356 0.48978 0.12708
 O149 O 0.45166 0.47882 0.00316
 O150 O 0.54873 0.52297 -0.00292
 O151 O 0.47613 0.45256 0.00787
 O152 O 0.52483 0.54970 -0.00728
 H153 H 0.48128 0.51738 -0.17700
 H154 H 0.56960 0.53040 -0.00381
 H155 H 0.48406 0.52386 0.17058
 H156 H 0.46778 0.43154 0.01119
 H157 H 0.57745 0.57258 -0.16941
 H158 H 0.57354 0.58252 0.05050
 H159 H 0.53117 0.51997 0.26325
 H160 H 0.48721 0.48011 0.26911
 H161 H 0.41736 0.43410 0.07604
 H162 H 0.42236 0.42177 -0.14500
 H163 H 0.48276 0.46907 -0.26054
 H164 H 0.52507 0.51067 -0.26687
 O165 O 0.43852 -0.04202 -0.16512
 O166 O 0.44234 -0.07248 -0.07070
 C167 C 0.43103 -0.06739 -0.13646
 O168 O 0.56543 0.03745 -0.14196
 O169 O 0.55651 0.07005 -0.07485
 C170 C 0.57147 0.06350 -0.12537
 O171 O 0.52250 -0.04312 -0.14081
 O172 O 0.48265 -0.07333 -0.06274
 C173 C 0.50225 -0.06847 -0.11894
 O174 O 0.47620 0.03824 -0.16497
 O175 O 0.51384 0.07054 -0.08303
 C176 C 0.49502 0.06415 -0.14293
 Zr177 Zr 0.46864 -0.00145 -0.11512
 O178 O 0.46971 -0.00040 -0.25037
 O179 O 0.42901 -0.00249 -0.11336
 Zr180 Zr 0.53078 -0.00205 -0.10013
 O181 O 0.53448 -0.00064 -0.23511
 O182 O 0.56799 -0.00557 -0.08948
 O183 O 0.48711 -0.02736 -0.12161
 O184 O 0.51246 0.02281 -0.12614
 O185 O 0.47136 0.04178 0.13427
 O186 O 0.51182 0.07193 0.05913
 C187 C 0.49134 0.06715 0.11182
 O188 O 0.51852 -0.03862 0.17051
 O189 O 0.48188 -0.07099 0.08646
 C190 C 0.49976 -0.06457 0.14911
 O191 O 0.56150 0.04124 0.15348
 O192 O 0.55444 0.07185 0.06872
 C193 C 0.56799 0.06668 0.12808
 O194 O 0.43257 -0.03797 0.14953
 O195 O 0.44030 -0.07055 0.07773
 C196 C 0.42631 -0.06399 0.13214
 Zr197 Zr 0.46544 0.00117 0.09981
 O198 O 0.46489 0.00575 0.23421
 O199 O 0.42535 -0.00101 0.08828
 Zr200 Zr 0.52773 0.00078 0.11483
 O201 O 0.52744 0.00584 0.24909
 O202 O 0.56490 -0.00284 0.12426
 Zr203 Zr 0.47660 -0.04303 0.00458
 Zr204 Zr 0.51964 0.04215 -0.00488
 O205 O 0.50889 0.02594 0.12032
 O206 O 0.48346 -0.02432 0.12703
 O207 O 0.47519 0.02547 -0.01166
 O208 O 0.52115 -0.02559 0.01114
 O209 O 0.44993 -0.02510 -0.00623
 O210 O 0.54700 0.02489 0.00564
 H211 H 0.51963 0.03496 -0.17788
 H212 H 0.52899 -0.03869 0.01571
 H213 H 0.51474 0.03939 0.16922
 H214 H 0.42897 -0.03798 -0.00865
 H215 H 0.58227 0.01121 -0.05690
 H216 H 0.57987 0.01248 0.08879
 H217 H 0.50905 -0.00976 0.27092
 H218 H 0.46689 -0.00982 0.26050
 H219 H 0.42745 0.01318 0.04467
 H220 H 0.42337 -0.00331 -0.17402
 H221 H 0.47778 -0.01242 -0.26904
 H222 H 0.51702 -0.01717 -0.25829
 C223 C 1.15146 0.47999 0.30651
 C224 C 1.14681 0.46315 0.37979
 C225 C 1.17010 0.46600 0.42656
 C226 C 1.19822 0.48600 0.40220
 C227 C 1.20184 0.50150 0.32626
 N228 N 1.17881 0.49848 0.28218
 C229 C 1.12772 0.47965 0.25744
 N230 N 1.13371 0.50212 0.20506
 C231 C 1.11318 0.50419 0.16061
 C232 C 1.08439 0.48284 0.16800
 C233 C 1.07778 0.45910 0.21990
 C234 C 1.09928 0.45734 0.26418
 H235 H 1.16603 0.45260 0.48225
 H236 H 1.22292 0.51726 0.30438
 H237 H 1.11937 0.52280 0.12095
 H238 H 1.05595 0.44191 0.22679
 H239 H 1.12559 0.44846 0.40288
 H240 H 1.09344 0.43860 0.30268
 C241 C 0.51120 0.66895 0.30009
 C242 C 0.52944 0.68160 0.37022
 C243 C 0.52701 0.70175 0.41976
 C244 C 0.50603 0.70923 0.40182
 C245 C 0.48859 0.69644 0.32963
 N246 N 0.49132 0.67672 0.28229
 C247 C 0.51227 0.64656 0.24740
 N248 N 0.48857 0.62755 0.20332
 C249 C 0.48750 0.60547 0.15790
 C250 C 0.51117 0.60127 0.15621
 C251 C 0.53611 0.62121 0.19855
 C252 C 0.53685 0.64391 0.24338
 H253 H 0.54234 0.71210 0.47058
 H254 H 0.47196 0.70118 0.31271
 H255 H 0.46786 0.59070 0.12571
 H256 H 0.55507 0.61915 0.19772
 H257 H 0.54524 0.67585 0.38814
 H258 H 0.55654 0.65907 0.27438
 C259 C 0.33244 -0.15663 0.31171
 C260 C 0.32023 -0.15258 0.38602
 C261 C 0.29977 -0.17621 0.43117
 C262 C 0.29164 -0.20418 0.40447
 C263 C 0.30350 -0.20723 0.32751
 N264 N 0.32357 -0.18380 0.28482
 C265 C 0.35565 -0.13231 0.26410
 N266 N 0.37297 -0.13732 0.21212
 C267 C 0.39532 -0.11607 0.16874
 C268 C 0.40154 -0.08759 0.17680
 C269 C 0.38363 -0.08201 0.22867
 C270 C 0.36067 -0.10420 0.27180
 H271 H 0.29020 -0.17248 0.48703
 H272 H 0.29806 -0.22818 0.30362
 H273 H 0.40839 -0.12146 0.12898
 H274 H 0.38727 -0.06048 0.23586
 H275 H 0.32672 -0.13153 0.41100
 H276 H 0.34703 -0.09917 0.30986
 C277 C 0.84171 0.50501 0.30393
 C278 C 0.83285 0.52455 0.28188
 C279 C 0.81171 0.52565 0.33039
 C280 C 0.79909 0.50697 0.39969
 C281 C 0.80775 0.48685 0.41691
 N282 N 0.82898 0.48678 0.37042
 C283 C 0.86522 0.50454 0.25809
 N284 N 0.88722 0.50561 0.30344
 C285 C 0.90975 0.50562 0.26452
 C286 C 0.91046 0.50373 0.17524
 C287 C 0.88775 0.50207 0.12742
 C288 C 0.86524 0.50290 0.16864
 H289 H 0.80562 0.54145 0.31498
 H290 H 0.79805 0.47160 0.46840
 H291 H 0.92683 0.50663 0.30325
 H292 H 0.88768 0.50060 0.05828
 H293 H 0.84284 0.53938 0.22947
 H294 H 0.84785 0.50184 0.13139
 C295 C 0.49507 0.34049 0.32996
 C296 C 0.47279 0.32193 0.38451
 C297 C 0.47457 0.30012 0.42638
 C298 C 0.49835 0.29664 0.41397
 C299 C 0.51962 0.31481 0.35662
 N300 N 0.51755 0.33609 0.31690
 C301 C 0.49472 0.36445 0.28512
 N302 N 0.51161 0.37589 0.21496
 C303 C 0.51249 0.39789 0.17023
 C304 C 0.49560 0.40970 0.19555
 C305 C 0.47841 0.39857 0.26854
 C306 C 0.47803 0.37614 0.31367
 H307 H 0.45745 0.28598 0.46880
 H308 H 0.53812 0.31248 0.34503
 H309 H 0.52621 0.40590 0.11462
 H310 H 0.46534 0.40727 0.29121
 H311 H 0.45398 0.32380 0.39435
 H312 H 0.46510 0.36855 0.37082
 C313 C 0.65912 0.15980 0.30971
 C314 C 0.65412 0.17786 0.36286
 C315 C 0.67657 0.19896 0.41039
 C316 C 0.70391 0.20222 0.40425
 C317 C 0.70812 0.18393 0.35011
 N318 N 0.68582 0.16318 0.30547
 C319 C 0.63582 0.13662 0.26052
 N320 N 0.63524 0.11123 0.25193
 C321 C 0.61398 0.08874 0.20932
 C322 C 0.59185 0.09129 0.17121
 C323 C 0.59242 0.11751 0.17738
 C324 C 0.61425 0.14016 0.22251
 H325 H 0.67270 0.21281 0.45171
 H326 H 0.72901 0.18590 0.34438
 H327 H 0.61441 0.06893 0.20519
 H328 H 0.57569 0.12029 0.14894
 H329 H 0.63301 0.17532 0.36896
 H330 H 0.61439 0.16025 0.22700
 C331 C 0.49811 0.15765 -0.32477
 C332 C 0.51509 0.16893 -0.39764
 C333 C 0.51559 0.19189 -0.43978
 C334 C 0.49826 0.20310 -0.41207
 C335 C 0.48218 0.19144 -0.33658
 N336 N 0.48253 0.16940 -0.29561
 C337 C 0.49704 0.13332 -0.27924
 N338 N 0.50057 0.13457 -0.19287
 C339 C 0.50020 0.11280 -0.14806
 C340 C 0.49536 0.08782 -0.19032
 C341 C 0.49111 0.08590 -0.27900
 C342 C 0.49232 0.10878 -0.32389
 H343 H 0.53036 0.20135 -0.49242
 H344 H 0.46835 0.19892 -0.31175
 H345 H 0.50329 0.11483 -0.07949
 H346 H 0.48739 0.06693 -0.31359
 H347 H 0.52837 0.16049 -0.42051
 H348 H 0.48923 0.10724 -0.39254
 C349 C 0.66132 0.49803 -0.30576
 C350 C 0.67354 0.48124 -0.28331
 C351 C 0.69627 0.48317 -0.33127
 C352 C 0.70684 0.50145 -0.40261
 C353 C 0.69454 0.51851 -0.42076
 N354 N 0.67252 0.51629 -0.37305
 C355 C 0.63698 0.49727 -0.25905
 N356 N 0.62816 0.51580 -0.28391
 C357 C 0.60621 0.51699 -0.24552
 C358 C 0.59154 0.49872 -0.17705
 C359 C 0.60007 0.47928 -0.15034
 C360 C 0.62264 0.47839 -0.19111
 H361 H 0.70482 0.46946 -0.31418
 H362 H 0.70298 0.53442 -0.47078
 H363 H 0.60041 0.53232 -0.26851
 H364 H 0.58942 0.46481 -0.09765
 H365 H 0.66594 0.46666 -0.22989
 H366 H 0.62840 0.46302 -0.16890
 C367 C 0.83742 0.34134 -0.32054
 C368 C 0.80896 0.32909 -0.29277
 C369 C 0.78743 0.30602 -0.33750
 C370 C 0.79388 0.29503 -0.41067
 C371 C 0.82287 0.30723 -0.43366
 N372 N 0.84342 0.32966 -0.38903
 C373 C 0.86138 0.36595 -0.27645
 N374 N 0.88851 0.37147 -0.29164
 C375 C 0.91169 0.39335 -0.25330
 C376 C 0.90830 0.41128 -0.19510
 C377 C 0.88059 0.40641 -0.17990
 C378 C 0.85718 0.38397 -0.22061
 H379 H 0.76558 0.29754 -0.31634
 H380 H 0.82947 0.29843 -0.48515
 H381 H 0.93263 0.39633 -0.26726
 H382 H 0.87694 0.41989 -0.13632
 H383 H 0.80312 0.33683 -0.23685
 H384 H 0.83623 0.38118 -0.20859
 C385 C 0.49848 -0.16265 -0.30162
 C386 C 0.47832 -0.17648 -0.36645
 C387 C 0.47948 -0.19746 -0.41559
 C388 C 0.50051 -0.20507 -0.40005
 C389 C 0.51970 -0.19123 -0.33221
 N390 N 0.51858 -0.17029 -0.28667
 C391 C 0.49886 -0.13927 -0.25155
 N392 N 0.52429 -0.11541 -0.23443
 C393 C 0.52595 -0.09265 -0.19162
 C394 C 0.50103 -0.09338 -0.16219
 C395 C 0.47466 -0.11807 -0.17724
 C396 C 0.47347 -0.14094 -0.22257
 H397 H 0.46341 -0.20823 -0.46441
 H398 H 0.53648 -0.19602 -0.31796
 H399 H 0.54669 -0.07405 -0.18054
 H400 H 0.45495 -0.11940 -0.15582
 H401 H 0.46219 -0.17072 -0.38018
 H402 H 0.45297 -0.15978 -0.23448
 C403 C 0.33578 0.49509 -0.30808
 C404 C 0.32282 0.51088 -0.28230
 C405 C 0.30094 0.51011 -0.33134
 C406 C 0.29152 0.49364 -0.40675
 C407 C 0.30449 0.47738 -0.42855
 N408 N 0.32590 0.47856 -0.37964
 C409 C 0.35958 0.49556 -0.25909
 N410 N 0.36554 0.47403 -0.27088
 C411 C 0.38720 0.47315 -0.22925
 C412 C 0.40464 0.49498 -0.17174
 C413 C 0.39896 0.51742 -0.15886
 C414 C 0.37668 0.51789 -0.20245
 H415 H 0.29209 0.52333 -0.31132
 H416 H 0.29719 0.46314 -0.48307
 H417 H 0.39084 0.45548 -0.24165
 H418 H 0.41198 0.53491 -0.11596
 H419 H 0.32914 0.52358 -0.22455
 H420 H 0.37354 0.53597 -0.19287
 C421 C 1.16399 0.65777 -0.30414
 C422 C 1.18088 0.65158 -0.35890
 C423 C 1.20215 0.67341 -0.40817
 C424 C 1.20674 0.70130 -0.40218
 C425 C 1.18960 0.70665 -0.34630
 N426 N 1.16872 0.68500 -0.30005
 C427 C 1.14049 0.63526 -0.25324
 N428 N 1.11638 0.63684 -0.24008
 C429 C 1.09362 0.61652 -0.19579
 C430 C 1.09448 0.59304 -0.16068
 C431 C 1.11945 0.59142 -0.17138
 C432 C 1.14241 0.61236 -0.21802
 H433 H 1.21501 0.66861 -0.45090
 H434 H 1.19252 0.72795 -0.34067
 H435 H 1.07483 0.61866 -0.18846
 H436 H 1.12095 0.57358 -0.14564
 H437 H 1.17727 0.63005 -0.36512
 H438 H 1.16147 0.61074 -0.22589
 C439 C 0.84786 0.51467 -0.31689
 C440 C 0.85235 0.53214 -0.38841
 C441 C 0.82901 0.53003 -0.43273
 C442 C 0.80091 0.51010 -0.40798
 C443 C 0.79744 0.49369 -0.33421
 N444 N 0.82056 0.49610 -0.29220
 C445 C 0.87171 0.51479 -0.26942
 N446 N 0.86581 0.49228 -0.21730
 C447 C 0.88642 0.49028 -0.17322
 C448 C 0.91515 0.51175 -0.18065
 C449 C 0.92169 0.53538 -0.23281
 C450 C 0.90014 0.53709 -0.27669
 H451 H 0.83308 0.54431 -0.48613
 H452 H 0.77640 0.47786 -0.31221
 H453 H 0.88032 0.47173 -0.13334
 H454 H 0.94349 0.55267 -0.23956
 H455 H 0.87349 0.54697 -0.41176
 H456 H 0.90595 0.55588 -0.31485
 C457 C 0.49915 0.33764 -0.30035
 C458 C 0.51944 0.34447 -0.36518
 C459 C 0.51928 0.32268 -0.41334
 C460 C 0.49911 0.29387 -0.39692
 C461 C 0.47994 0.28797 -0.32851
 N462 N 0.48002 0.30972 -0.28386
 C463 C 0.49816 0.36049 -0.25131
 N464 N 0.47279 0.35972 -0.23949
 C465 C 0.47105 0.38115 -0.19880
 C466 C 0.49577 0.40479 -0.16632
 C467 C 0.52198 0.40558 -0.17631
 C468 C 0.52329 0.38365 -0.21940
 H469 H 0.53535 0.32839 -0.46257
 H470 H 0.46395 0.26619 -0.31339
 H471 H 0.45041 0.37966 -0.19152
 H472 H 0.54154 0.42345 -0.15232
 H473 H 0.53492 0.36651 -0.37959
 H474 H 0.54372 0.38471 -0.22756
 C475 C 0.66452 0.15495 -0.31055
 C476 C 0.68018 0.15039 -0.37449
 C477 C 0.70082 0.17352 -0.42096
 C478 C 0.70566 0.20118 -0.40563
 C479 C 0.68976 0.20499 -0.34121
 N480 N 0.66978 0.18211 -0.29632
 C481 C 0.64173 0.13110 -0.26024
 N482 N 0.62252 0.13573 -0.21673
 C483 C 0.60048 0.11483 -0.17150
 C484 C 0.59652 0.08705 -0.16896
 C485 C 0.61642 0.08193 -0.21155
 C486 C 0.63908 0.10382 -0.25647
 H487 H 0.71301 0.16979 -0.46923
 H488 H 0.69294 0.22605 -0.32746
 H489 H 0.58571 0.11980 -0.13937
 H490 H 0.61447 0.06096 -0.21030
 H491 H 0.67645 0.12931 -0.39029
 H492 H 0.65423 0.09915 -0.28711
 C493 C 1.15812 0.49468 -0.31161
 C494 C 1.17079 0.47946 -0.27985
 C495 C 1.19209 0.47838 -0.32736
 C496 C 1.20123 0.49282 -0.40631
 C497 C 1.18896 0.50933 -0.43254
 N498 N 1.16766 0.50934 -0.38625
 C499 C 1.13396 0.49418 -0.26656
 N500 N 1.13407 0.49587 -0.17962
 C501 C 1.11203 0.49522 -0.13551
 C502 C 1.08793 0.49190 -0.17929
 C503 C 1.08728 0.48979 -0.26866
 C504 C 1.11047 0.49136 -0.31265
 H505 H 1.20031 0.46500 -0.30393
 H506 H 1.19627 0.52230 -0.48968
 H507 H 1.11316 0.49692 -0.06644
 H508 H 1.06909 0.48751 -0.30440
 H509 H 1.16346 0.46755 -0.22066
 H510 H 1.10988 0.48983 -0.38179
 C511 C 0.51013 0.66541 -0.31475
 C512 C 0.53312 0.69351 -0.30947
 C513 C 0.53206 0.71518 -0.35488
 C514 C 0.50844 0.70874 -0.40655
 C515 C 0.48571 0.68053 -0.40913
 N516 N 0.48703 0.65982 -0.36341
 C517 C 0.51028 0.64179 -0.26812
 N518 N 0.48535 0.62046 -0.23558
 C519 C 0.48397 0.59789 -0.19279
 C520 C 0.50860 0.59565 -0.18252
 C521 C 0.53443 0.61721 -0.21664
 C522 C 0.53540 0.64041 -0.25892
 H523 H 0.54982 0.73685 -0.35102
 H524 H 0.46699 0.67501 -0.44744
 H525 H 0.46357 0.58152 -0.16816
 H526 H 0.55388 0.61622 -0.21016
 H527 H 0.55151 0.69873 -0.26986
 H528 H 0.55544 0.65673 -0.28570
 C529 C 0.34031 -0.16247 -0.31001
 C530 C 0.31196 -0.17268 -0.28489
 C531 C 0.28996 -0.19425 -0.33230
 C532 C 0.29621 -0.20599 -0.40368
 C533 C 0.32499 -0.19584 -0.42466
 N534 N 0.34608 -0.17420 -0.37890
 C535 C 0.36381 -0.13865 -0.26425
 N536 N 0.38364 -0.11568 -0.30909
 C537 C 0.40522 -0.09255 -0.26961
 C538 C 0.40788 -0.09213 -0.18038
 C539 C 0.38804 -0.11587 -0.13327
 C540 C 0.36572 -0.13905 -0.17498
 H541 H 0.26805 -0.20143 -0.31422
 H542 H 0.33067 -0.20475 -0.47824
 H543 H 0.42041 -0.07468 -0.30784
 H544 H 0.38951 -0.11623 -0.06422
 H545 H 0.30692 -0.16345 -0.23067
 H546 H 0.35024 -0.15719 -0.13818
 C547 C 0.50112 -0.15701 0.32776
 C548 C 0.52426 -0.15284 0.37888
 C549 C 0.52343 -0.17607 0.42008
 C550 C 0.49974 -0.20346 0.41043
 C551 C 0.47765 -0.20711 0.35569
 N552 N 0.47879 -0.18405 0.31658
 C553 C 0.50059 -0.13284 0.28492
 N554 N 0.48396 -0.13802 0.21438
 C555 C 0.48285 -0.11676 0.17102
 C556 C 0.49931 -0.08822 0.19808
 C557 C 0.51600 -0.08254 0.27191
 C558 C 0.51656 -0.10470 0.31569
 H559 H 0.54117 -0.17267 0.46028
 H560 H 0.45922 -0.22808 0.34610
 H561 H 0.46950 -0.12216 0.11473
 H562 H 0.52868 -0.06094 0.29601
 H563 H 0.54299 -0.13202 0.38672
 H564 H 0.52918 -0.09967 0.37339
 C565 C 0.33862 0.50104 0.30119
 C566 C 0.31064 0.48033 0.28023
 C567 C 0.28810 0.47785 0.32999
 C568 C 0.29336 0.49636 0.39945
 C569 C 0.32168 0.51760 0.41599
 N570 N 0.34342 0.51899 0.36825
 C571 C 0.36286 0.50230 0.25488
 N572 N 0.38311 0.49981 0.29944
 C573 C 0.40515 0.49911 0.25981
 C574 C 0.40784 0.50146 0.17059
 C575 C 0.38765 0.50483 0.12353
 C576 C 0.36480 0.50480 0.16552
 H577 H 0.26657 0.46118 0.31515
 H578 H 0.32655 0.53268 0.46773
 H579 H 0.42062 0.49685 0.29795
 H580 H 0.38919 0.50671 0.05449
 H581 H 0.30641 0.46562 0.22772
 H582 H 0.34885 0.50676 0.12895
 C583 C 1.15824 0.65913 0.31680
 C584 C 1.15351 0.67455 0.38115
 C585 C 1.17659 0.69603 0.42526
 C586 C 1.20438 0.70181 0.40755
 C587 C 1.20838 0.68602 0.34314
 N588 N 1.18550 0.66526 0.30019
 C589 C 1.13432 0.63598 0.26809
 N590 N 1.13841 0.61597 0.22714
 C591 C 1.11717 0.59375 0.18319
 C592 C 1.08977 0.59060 0.17965
 C593 C 1.08533 0.61134 0.21964
 C594 C 1.10747 0.63409 0.26297
 H595 H 1.17273 0.70810 0.47364
 H596 H 1.22960 0.69000 0.32772
 H597 H 1.12155 0.57831 0.15266
 H598 H 1.06471 0.61014 0.21695
 H599 H 1.13231 0.67000 0.39893
 H600 H 1.10338 0.65002 0.29104
 C601 C 0.49666 0.16354 0.28820
 C602 C 0.52006 0.19152 0.28304
 C603 C 0.52102 0.21284 0.33581
 C604 C 0.49908 0.20642 0.39471
 C605 C 0.47592 0.17843 0.39745
 N606 N 0.47540 0.15798 0.34529
 C607 C 0.49490 0.13949 0.23695
 N608 N 0.47547 0.11227 0.26026
 C609 C 0.47323 0.08894 0.21960
 C610 C 0.49157 0.09223 0.15139
 C611 C 0.51125 0.12006 0.12471
 C612 C 0.51283 0.14366 0.16658
 H613 H 0.53928 0.23423 0.33236
 H614 H 0.45846 0.17281 0.44163
 H615 H 0.45764 0.06790 0.24227
 H616 H 0.52569 0.12368 0.07197
 H617 H 0.53792 0.19707 0.24084
 H618 H 0.52803 0.16471 0.14346
 C619 C 0.66085 0.50102 0.31477
 C620 C 0.65676 0.47747 0.36383
 C621 C 0.67965 0.47895 0.40950
 C622 C 0.70651 0.50375 0.40601
 C623 C 0.70989 0.52656 0.35488
 N624 N 0.68720 0.52481 0.31203
 C625 C 0.63705 0.50099 0.26825
 N626 N 0.63663 0.52591 0.26030
 C627 C 0.61532 0.52742 0.21871
 C628 C 0.59295 0.50292 0.18071
 C629 C 0.59319 0.47708 0.18712
 C630 C 0.61507 0.47599 0.23115
 H631 H 0.67638 0.46097 0.44839
 H632 H 0.73037 0.54601 0.35105
 H633 H 0.61608 0.54781 0.21455
 H634 H 0.57634 0.45766 0.15871
 H635 H 0.63599 0.45844 0.36883
 H636 H 0.61501 0.45593 0.23474
 C637 C 0.83527 0.33874 0.29994
 C638 C 0.81679 0.34361 0.35153
 C639 C 0.79600 0.32125 0.40035
 C640 C 0.79356 0.29416 0.39730
 C641 C 0.81187 0.28995 0.34326
 N642 N 0.83229 0.31215 0.29756
 C643 C 0.85896 0.36206 0.25199
 N644 N 0.88375 0.36153 0.24264
 C645 C 0.90676 0.38251 0.20112
 C646 C 0.90547 0.40561 0.16490
 C647 C 0.87991 0.40630 0.17204
 C648 C 0.85666 0.38466 0.21602
 H649 H 0.78208 0.32511 0.44136
 H650 H 0.81048 0.26926 0.33952
 H651 H 0.92598 0.38104 0.19623
 H652 H 0.87807 0.42378 0.14496
 H653 H 0.81896 0.36462 0.35634
 H654 H 0.83708 0.38546 0.22095
   
