data_POSCAR
  _audit_creation_date              2014-09-24
  _audit_creation_method            'ToBaCCo'
  _symmetry_space_group_name_H-M    'P1'
  _symmetry_Int_Tables_number       1
  _symmetry_cell_setting            triclinic
  loop_
  _symmetry_equiv_pos_as_xyz
 x,y,z
_cell_length_a 29.8708
_cell_length_b 31.4779
_cell_length_c 7.3995
_cell_angle_alpha 87.986600
_cell_angle_beta 89.110800
_cell_angle_gamma 90.004000
loop_
  _atom_site_label
  _atom_site_type_symbol
  _atom_site_fract_x
  _atom_site_fract_y
  _atom_site_fract_z
O1 O 0.21358 0.29190 0.07680
 O2 O 0.30076 0.21283 0.17882
 O3 O 0.21794 0.20980 0.06991
 O4 O 0.29589 0.29483 0.19063
 O5 O 0.27473 0.28859 0.47600
 O6 O 0.19719 0.20363 0.35594
 O7 O 0.27880 0.20719 0.46498
 O8 O 0.19151 0.28636 0.36271
 Cu9 Cu 0.25955 0.25298 0.10142
 Cu10 Cu 0.23270 0.24618 0.44230
 C11 C 0.18694 0.30191 0.20345
 C12 C 0.30534 0.19717 0.33785
 C13 C 0.19420 0.19170 0.19466
 C14 C 0.29956 0.30579 0.35333
 O15 O 0.70030 0.29573 0.20672
 O16 O 0.78870 0.22552 0.04240
 O17 O 0.70267 0.21711 0.11886
 O18 O 0.78496 0.30368 0.15326
 O19 O 0.80044 0.28222 0.43009
 O20 O 0.71713 0.19773 0.40121
 O21 O 0.80297 0.20499 0.32285
 O22 O 0.71479 0.27710 0.48979
 Cu23 Cu 0.74295 0.26227 0.10209
 Cu24 Cu 0.76019 0.23797 0.43788
 C25 C 0.69308 0.29951 0.37452
 C26 C 0.81177 0.20385 0.15451
 C27 C 0.69511 0.19328 0.25812
 C28 C 0.80653 0.30842 0.29840
 O29 O 0.71532 0.78460 0.54071
 O30 O 0.80574 0.71278 0.69043
 O31 O 0.72312 0.70289 0.58206
 O32 O 0.79708 0.79491 0.64418
 O33 O 0.77692 0.79736 0.93079
 O34 O 0.69927 0.70833 0.86366
 O35 O 0.78179 0.71587 0.97307
 O36 O 0.69356 0.79038 0.82490
 Cu37 Cu 0.76291 0.74827 0.58760
 Cu38 Cu 0.73539 0.75339 0.92467
 C39 C 0.68848 0.79924 0.65791
 C40 C 0.80973 0.70271 0.85684
 C41 C 0.69777 0.69038 0.71282
 C42 C 0.80033 0.81167 0.79705
 O43 O 0.19172 0.78492 0.62655
 O44 O 0.28088 0.70563 0.55423
 O45 O 0.19920 0.70285 0.67056
 O46 O 0.27574 0.78661 0.50330
 O47 O 0.29963 0.79277 0.78183
 O48 O 0.21828 0.71232 0.95184
 O49 O 0.30040 0.71102 0.83726
 O50 O 0.21581 0.79420 0.90233
 Cu51 Cu 0.23419 0.74468 0.56182
 Cu52 Cu 0.26088 0.75392 0.89471
 C53 C 0.18772 0.80211 0.77875
 C54 C 0.30561 0.69408 0.68500
 C55 C 0.19549 0.69270 0.83732
 C56 C 0.30271 0.80216 0.61399
 C57 C 1.00429 0.11544 0.02502
 C58 C 1.04317 0.09096 0.02896
 C59 C 1.04095 0.04736 -0.00318
 C60 C 0.99993 0.02770 -0.04582
 C61 C 0.96117 0.05372 -0.05198
 C62 C 0.96314 0.09699 -0.01324
 C63 C 0.99741 -0.01944 -0.07915
 C64 C 0.95573 -0.04099 -0.08068
 C65 C 0.95335 -0.08445 -0.11466
 C66 C 0.99258 -0.10783 -0.13624
 C67 C 1.03427 -0.08789 -0.13018
 C68 C 1.03663 -0.04386 -0.10834
 H69 H 1.00589 0.14877 0.05674
 H70 H 1.07158 0.02948 0.01018
 H71 H 0.92890 0.04135 -0.08672
 H72 H 0.92447 -0.02493 -0.05614
 H73 H 0.99071 -0.14166 -0.15829
 H74 H 1.06948 -0.02964 -0.11340
 C75 C 0.50400 0.60683 0.62681
 C76 C 0.54370 0.58353 0.62118
 C77 C 0.54212 0.53945 0.60061
 C78 C 0.50077 0.51726 0.59854
 C79 C 0.46114 0.54175 0.61286
 C80 C 0.46262 0.58627 0.61973
 C81 C 0.49902 0.46949 0.57826
 C82 C 0.45835 0.44820 0.54346
 C83 C 0.45717 0.40420 0.51768
 C84 C 0.49732 0.38136 0.51123
 C85 C 0.53812 0.40164 0.53872
 C86 C 0.53844 0.44453 0.58418
 H87 H 0.50530 0.64103 0.63914
 H88 H 0.57386 0.52355 0.58731
 H89 H 0.42847 0.52722 0.61947
 H90 H 0.42705 0.46499 0.53161
 H91 H 0.49690 0.34801 0.47935
 H92 H 0.57052 0.45787 0.61497
 C93 C -0.00517 0.39358 0.19919
 C94 C -0.04372 0.41784 0.22361
 C95 C -0.04205 0.46209 0.19747
 C96 C -0.00203 0.48262 0.13926
 C97 C 0.03632 0.45711 0.11157
 C98 C 0.03495 0.41312 0.14507
 C99 C -0.00032 0.52993 0.10497
 C100 C 0.04108 0.55161 0.09647
 C101 C 0.04333 0.59464 0.04429
 C102 C 0.00415 0.61778 0.01660
 C103 C -0.03758 0.59794 0.03677
 C104 C -0.03970 0.55393 0.07348
 H105 H -0.00639 0.35939 0.22272
 H106 H -0.07220 0.47981 0.22497
 H107 H 0.06757 0.47054 0.06166
 H108 H 0.07226 0.53551 0.12414
 H109 H 0.00616 0.65114 -0.02470
 H110 H -0.07227 0.53905 0.07414
 C111 C 0.49636 0.88426 0.47959
 C112 C 0.45663 0.90577 0.44042
 C113 C 0.45775 0.94956 0.40131
 C114 C 0.49819 0.97273 0.40921
 C115 C 0.53799 0.95005 0.44811
 C116 C 0.53728 0.90579 0.47597
 C117 C 0.49844 1.02014 0.38051
 C118 C 0.53805 1.04239 0.32940
 C119 C 0.53824 1.08687 0.31114
 C120 C 0.49852 1.10946 0.33544
 C121 C 0.45891 1.08817 0.38276
 C122 C 0.45899 1.04398 0.40834
 H123 H 0.49554 0.85040 0.51208
 H124 H 0.42669 0.96492 0.36461
 H125 H 0.56974 0.96615 0.45819
 H126 H 0.56915 1.02583 0.30559
 H127 H 0.49856 1.14384 0.31920
 H128 H 0.42809 1.02896 0.45371
 C129 C 1.10636 0.13811 -0.05953
 C130 C 1.14442 0.16148 -0.02133
 C131 C 1.16252 0.16029 0.15325
 C132 C 1.14459 0.13023 0.28475
 C133 C 1.10564 0.10657 0.24482
 C134 C 1.08604 0.11144 0.07260
 C135 C 1.08732 0.07879 0.37960
 N136 N 1.10832 0.07298 0.53949
 N137 N 1.14624 0.09315 0.57368
 C138 C 1.16514 0.12132 0.45240
 H139 H 1.09167 0.14198 -0.19205
 H140 H 1.15748 0.18316 -0.12612
 H141 H 1.05685 0.06121 0.35863
 H142 H 1.19688 0.13504 0.48656
 C143 C 0.60280 0.63253 0.50170
 C144 C 0.64090 0.65737 0.52236
 C145 C 0.66389 0.65670 0.68645
 C146 C 0.65025 0.62732 0.82688
 C147 C 0.61132 0.60215 0.80591
 C148 C 0.58700 0.60560 0.64306
 C149 C 0.59749 0.57487 0.95094
 N150 N 0.62212 0.57183 1.10316
 N151 N 0.65948 0.59429 1.12044
 C152 C 0.67442 0.62181 0.98785
 H153 H 0.58473 0.63524 0.37598
 H154 H 0.65107 0.67887 0.41193
 H155 H 0.56749 0.55581 0.94478
 H156 H 0.70554 0.63831 1.00845
 C157 C -0.11812 0.39471 0.13169
 C158 C -0.15478 0.36777 0.15013
 C159 C -0.16158 0.34165 0.30699
 C160 C -0.13324 0.34822 0.45856
 C161 C -0.09432 0.37396 0.43397
 C162 C -0.08637 0.39605 0.26720
 C163 C -0.06459 0.37741 0.57833
 N164 N -0.07416 0.35785 0.74002
 N165 N -0.11175 0.33577 0.76745
 C166 C -0.14179 0.33079 0.63430
 H167 H -0.11289 0.41254 0.00516
 H168 H -0.17661 0.36595 0.03505
 H169 H -0.03425 0.39610 0.56521
 H170 H -0.17250 0.31474 0.67202
 C171 C 0.38232 0.89457 0.58532
 C172 C 0.34567 0.86881 0.63094
 C173 C 0.33948 0.83005 0.54754
 C174 C 0.37039 0.81745 0.41186
 C175 C 0.40654 0.84459 0.36027
 C176 C 0.41367 0.88236 0.45424
 C177 C 0.43513 0.83254 0.21820
 N178 N 0.42951 0.79445 0.14166
 N179 N 0.39733 0.76767 0.19803
 C180 C 0.36790 0.77766 0.33134
 H181 H 0.38746 0.92322 0.65933
 H182 H 0.32267 0.87858 0.73628
 H183 H 0.46170 0.85315 0.16693
 H184 H 0.34332 0.75413 0.37375
 C185 C -0.10711 0.61293 -0.13226
 C186 C -0.14334 0.63880 -0.17802
 C187 C -0.15210 0.67601 -0.08517
 C188 C -0.12355 0.68740 0.05680
 C189 C -0.08783 0.66017 0.10820
 C190 C -0.07876 0.62338 0.00863
 C191 C -0.06202 0.67094 0.25755
 N192 N -0.06975 0.70793 0.34110
 N193 N -0.10145 0.73482 0.28533
 C194 C -0.12829 0.72600 0.14537
 H195 H -0.10043 0.58516 -0.21080
 H196 H -0.16450 0.62991 -0.28816
 H197 H -0.03583 0.65032 0.30882
 H198 H -0.15257 0.74952 0.10334
 C199 C 0.38548 1.10791 0.26088
 C200 C 0.34877 1.13488 0.24847
 C201 C 0.34231 1.16712 0.37208
 C202 C 0.37309 1.17153 0.51469
 C203 C 0.41021 1.14359 0.52823
 C204 C 0.41693 1.11253 0.39675
 C205 C 0.43994 1.14805 0.67188
 N206 N 0.43348 1.17935 0.79074
 N207 N 0.39957 1.20660 0.77458
 C208 C 0.36942 1.20401 0.64017
 H209 H 0.39046 1.08444 0.15876
 H210 H 0.32572 1.13120 0.13845
 H211 H 0.46814 1.12688 0.69086
 H212 H 0.34342 1.22771 0.63218
 C213 C 1.10093 -0.11237 -0.30140
 C214 C 1.13734 -0.13955 -0.32402
 C215 C 1.14935 -0.16916 -0.18696
 C216 C 1.12354 -0.17147 -0.02345
 C217 C 1.08724 -0.14303 0.00073
 C218 C 1.07542 -0.11397 -0.14104
 C219 C 1.06333 -0.14496 0.16635
 N220 N 1.07390 -0.17470 0.29549
 N221 N 1.10654 -0.20272 0.26987
 C222 C 1.13139 -0.20237 0.11491
 H223 H 1.09193 -0.09056 -0.41146
 H224 H 1.15616 -0.13763 -0.45045
 H225 H 1.03631 -0.12316 0.19436
 H226 H 1.15624 -0.22686 0.10094
 C227 C 0.58979 0.34135 0.60601
 C228 C 0.62789 0.31718 0.57003
 C229 C 0.65825 0.32991 0.43233
 C230 C 0.65145 0.36930 0.33694
 C231 C 0.61177 0.39288 0.36775
 C232 C 0.58077 0.37878 0.50456
 C233 C 0.60397 0.42925 0.25594
 N234 N 0.63538 0.44266 0.13269
 N235 N 0.67393 0.42207 0.11235
 C236 C 0.68311 0.38604 0.21037
 H237 H 0.56647 0.33014 0.71069
 H238 H 0.63259 0.28733 0.64480
 H239 H 0.57318 0.44709 0.26341
 H240 H 0.71538 0.37130 0.18997
 C241 C 0.89162 -0.12974 0.00910
 C242 C 0.85275 -0.15358 -0.01042
 C243 C 0.83209 -0.15587 -0.17957
 C244 C 0.84773 -0.12834 -0.32440
 C245 C 0.88691 -0.10359 -0.30270
 C246 C 0.90965 -0.10559 -0.13643
 C247 C 0.90219 -0.07743 -0.44900
 N248 N 0.87831 -0.07448 -0.60306
 N249 N 0.84047 -0.09613 -0.62110
 C250 C 0.82436 -0.12282 -0.48775
 H251 H 0.90864 -0.13126 0.13736
 H252 H 0.84116 -0.17306 0.10451
 H253 H 0.93242 -0.05873 -0.44133
 H254 H 0.79258 -0.13806 -0.50897
 C255 C 0.41036 0.36271 0.31559
 C256 C 0.37213 0.33998 0.27547
 C257 C 0.33579 0.33625 0.39825
 C258 C 0.33785 0.35836 0.56293
 C259 C 0.37783 0.38027 0.60645
 C260 C 0.41429 0.38235 0.48107
 C261 C 0.38027 0.39877 0.77641
 N262 N 0.34423 0.39772 0.88995
 N263 N 0.30600 0.37942 0.84530
 C264 C 0.30145 0.35999 0.68597
 H265 H 0.43763 0.36432 0.21720
 H266 H 0.37182 0.32398 0.14818
 H267 H 0.41040 0.41402 0.82062
 H268 H 0.26900 0.34720 0.65666
 C269 C 0.10677 0.64083 0.11819
 C270 C 0.14528 0.66364 0.06955
 C271 C 0.16409 0.66148 -0.10555
 C272 C 0.14681 0.63088 -0.22446
 C273 C 0.10718 0.60831 -0.17526
 C274 C 0.08670 0.61436 -0.00451
 C275 C 0.08903 0.58040 -0.29968
 N276 N 0.11087 0.57357 -0.45781
 N277 N 0.14957 0.59268 -0.49968
 C278 C 0.16843 0.62072 -0.38854
 H279 H 0.09149 0.64516 0.25005
 H280 H 0.15800 0.68568 0.16525
 H281 H 0.05801 0.56352 -0.27205
 H282 H 0.20086 0.63343 -0.42754
 C283 C 0.59323 1.13543 0.43278
 C284 C 0.63122 1.16064 0.42031
 C285 C 0.65783 1.16243 0.26256
 C286 C 0.64648 1.13675 0.11604
 C287 C 0.60738 1.11098 0.12902
 C288 C 0.58057 1.11079 0.28863
 C289 C 0.59616 1.08673 -0.01955
 N290 N 0.62326 1.08715 -0.16831
 N291 N 0.66055 1.11037 -0.17879
 C292 C 0.67310 1.13516 -0.04206
 H293 H 0.57303 1.13558 0.55581
 H294 H 0.63908 1.18003 0.53383
 H295 H 0.56623 1.06739 -0.01874
 H296 H 0.70406 1.15272 -0.05754
 C297 C 0.10773 0.39248 0.27116
 C298 C 0.14398 0.36501 0.28734
 C299 C 0.14992 0.33186 0.16787
 C300 C 0.11891 0.32681 0.02647
 C301 C 0.08215 0.35514 0.00954
 C302 C 0.07616 0.38743 0.13595
 C303 C 0.05215 0.34991 -0.13260
 N304 N 0.05803 0.31758 -0.24690
 N305 N 0.09165 0.29010 -0.22775
 C306 C 0.12204 0.29339 -0.09461
 H307 H 0.10330 0.41689 0.36948
 H308 H 0.16721 0.36920 0.39637
 H309 H 0.02422 0.37127 -0.15404
 H310 H 0.14786 0.26954 -0.08404
 C311 C 0.60509 0.88912 0.65446
 C312 C 0.64068 0.86247 0.70103
 C313 C 0.65061 0.82658 0.60053
 C314 C 0.62393 0.81757 0.44940
 C315 C 0.58975 0.84622 0.39536
 C316 C 0.57897 0.88111 0.50387
 C317 C 0.56682 0.83859 0.23485
 N318 N 0.57500 0.80265 0.14434
 N319 N 0.60447 0.77391 0.20379
 C320 C 0.62879 0.77994 0.35399
 H321 H 0.59708 0.91547 0.73960
 H322 H 0.66029 0.86963 0.81816
 H323 H 0.54263 0.86092 0.18045
 H324 H 0.65100 0.75491 0.39883
 C325 C 0.89136 0.11117 0.14300
 C326 C 0.85568 0.13761 0.18581
 C327 C 0.84903 0.17649 0.09133
 C328 C 0.87892 0.18825 -0.05410
 C329 C 0.91475 0.16065 -0.09963
 C330 C 0.92172 0.12261 0.00389
 C331 C 0.94295 0.17220 -0.24724
 N332 N 0.93676 0.20970 -0.33874
 N333 N 0.90448 0.23646 -0.29177
 C334 C 0.87570 0.22727 -0.15226
 H335 H 0.89635 0.08227 0.22413
 H336 H 0.83339 0.12783 0.29650
 H337 H 0.96972 0.15166 -0.29124
 H338 H 0.85125 0.25102 -0.11945
 C339 C 0.41327 0.63558 0.78114
 C340 C 0.37531 0.66069 0.79690
 C341 C 0.34260 0.66252 0.66183
 C342 C 0.34840 0.63643 0.50875
 C343 C 0.38844 0.61219 0.48981
 C344 C 0.42071 0.61153 0.62860
 C345 C 0.39525 0.58979 0.33039
 N346 N 0.36302 0.58939 0.20383
 N347 N 0.32443 0.60978 0.22602
 C348 C 0.31585 0.63290 0.37379
 H349 H 0.43747 0.63529 0.88885
 H350 H 0.37218 0.67959 0.91596
 H351 H 0.42591 0.57266 0.30457
 H352 H 0.28313 0.64690 0.38418
   
