data_POSCAR
  _audit_creation_date              2014-09-24
  _audit_creation_method            'ToBaCCo'
  _symmetry_space_group_name_H-M    'P1'
  _symmetry_Int_Tables_number       1
  _symmetry_cell_setting            triclinic
  loop_
  _symmetry_equiv_pos_as_xyz
 x,y,z
_cell_length_a 30.2540
_cell_length_b 30.1531
_cell_length_c 40.0305
_cell_angle_alpha 89.879500
_cell_angle_beta 90.178500
_cell_angle_gamma 119.754000
loop_
  _atom_site_label
  _atom_site_type_symbol
  _atom_site_fract_x
  _atom_site_fract_y
  _atom_site_fract_z
C1 C -0.02536 0.48935 1.25078
 C2 C 0.02650 0.51564 1.25127
 C3 C 0.05523 0.52862 1.28331
 C4 C 0.05706 0.53144 1.22001
 C5 C -0.05482 0.47100 1.21923
 C6 C -0.05558 0.47705 1.28198
 C7 C 0.09110 0.57944 1.29044
 C8 C 0.11839 0.59209 1.32039
 C9 C 0.11031 0.55427 1.34441
 C10 C 0.07560 0.50278 1.33610
 C11 C 0.04826 0.49034 1.30610
 C12 C 0.04774 0.55801 1.19462
 C13 C 0.07591 0.57114 1.16502
 C14 C 0.11408 0.55798 1.16014
 C15 C 0.12545 0.53451 1.18670
 C16 C 0.09689 0.52084 1.21603
 C17 C -0.04795 0.43840 1.19759
 C18 C -0.07683 0.42055 1.16830
 C19 C -0.11384 0.43438 1.16031
 C20 C -0.11962 0.46793 1.18195
 C21 C -0.09098 0.48546 1.21122
 C22 C -0.09074 0.42613 1.28955
 C23 C -0.11958 0.41397 1.31871
 C24 C -0.11492 0.45252 1.34068
 C25 C -0.07891 0.50367 1.33310
 C26 C -0.04991 0.51575 1.30391
 H27 H 0.09785 0.60943 1.27279
 H28 H 0.14630 0.63180 1.32475
 H29 H 0.06998 0.47146 1.35201
 H30 H 0.02206 0.45060 1.30041
 H31 H 0.01875 0.56873 1.19775
 H32 H 0.06811 0.59220 1.14625
 H33 H 0.10574 0.50161 1.23561
 H34 H -0.02024 0.42672 1.20344
 H35 H -0.06927 0.39655 1.15214
 H36 H -0.14675 0.48042 1.17622
 H37 H -0.09667 0.51079 1.22755
 H38 H -0.09542 0.39569 1.27301
 H39 H -0.14589 0.37416 1.32413
 H40 H -0.07213 0.53471 1.34953
 H41 H -0.02295 0.55535 1.29841
 H42 H 0.15658 0.52665 1.18495
 C43 C 0.51188 0.48581 1.24919
 C44 C 0.48555 0.51164 1.24889
 C45 C 0.46763 0.52394 1.28019
 C46 C 0.47328 0.52899 1.21726
 C47 C 0.52571 0.46934 1.21782
 C48 C 0.52818 0.47280 1.28097
 C49 C 0.43591 0.48535 1.30254
 C50 C 0.41886 0.49741 1.33174
 C51 C 0.43257 0.54844 1.33897
 C52 C 0.46494 0.58687 1.31651
 C53 C 0.48178 0.57473 1.28734
 C54 C 0.42279 0.51555 1.21021
 C55 C 0.41065 0.53157 1.18060
 C56 C 0.44865 0.56131 1.15718
 C57 C 0.49961 0.57596 1.16492
 C58 C 0.51169 0.55993 1.19464
 C59 C 0.57651 0.48292 1.21189
 C60 C 0.59006 0.46795 1.18244
 C61 C 0.55322 0.43923 1.15805
 C62 C 0.50190 0.42416 1.16477
 C63 C 0.48842 0.43916 1.19428
 C64 C 0.55806 0.51090 1.30415
 C65 C 0.57272 0.49821 1.33418
 C66 C 0.55757 0.44692 1.34175
 C67 C 0.52914 0.40925 1.31772
 C68 C 0.51451 0.42201 1.28776
 H69 H 0.42433 0.44582 1.29734
 H70 H 0.39556 0.46643 1.34841
 H71 H 0.47712 0.62658 1.32155
 H72 H 0.50637 0.60510 1.27045
 H73 H 0.39266 0.49228 1.22757
 H74 H 0.37129 0.52075 1.17591
 H75 H 0.55114 0.57200 1.20016
 H76 H 0.60580 0.50552 1.22999
 H77 H 0.62960 0.47881 1.17868
 H78 H 0.47159 0.39993 1.14792
 H79 H 0.44872 0.42685 1.19890
 H80 H 0.57036 0.55059 1.29884
 H81 H 0.59677 0.52907 1.35075
 H82 H 0.51832 0.36970 1.32216
 H83 H 0.49212 0.39215 1.26993
 H84 H 0.53066 0.60051 1.14873
 C85 C 0.51752 1.02842 1.25045
 C86 C 0.49014 0.97640 1.25007
 C87 C 0.47385 0.94549 1.28125
 C88 C 0.47347 0.94771 1.21815
 C89 C 0.53452 1.05837 1.21898
 C90 C 0.53077 1.05803 1.28202
 C91 C 0.50882 0.95192 1.30650
 C92 C 0.49240 0.92301 1.33585
 C93 C 0.44038 0.88718 1.34086
 C94 C 0.40634 0.87864 1.31423
 C95 C 0.42273 0.90787 1.28514
 C96 C 0.48789 0.91138 1.21057
 C97 C 0.47225 0.88403 1.18069
 C98 C 0.44164 0.89218 1.15769
 C99 C 0.42641 0.92810 1.16589
 C100 C 0.44223 0.95551 1.19578
 C101 C 0.51964 1.09453 1.21185
 C102 C 0.53354 1.12143 1.18175
 C103 C 0.56235 1.11256 1.15771
 C104 C 0.57938 1.07790 1.16601
 C105 C 0.56529 1.05096 1.19616
 C106 C 0.49292 1.05234 1.30454
 C107 C 0.50594 1.08032 1.33426
 C108 C 0.55746 1.11440 1.34242
 C109 C 0.59486 1.12147 1.31868
 C110 C 0.58169 1.09348 1.28904
 H111 H 0.54892 0.97910 1.30339
 H112 H 0.52085 0.92840 1.35430
 H113 H 0.36682 0.84902 1.31554
 H114 H 0.39528 0.90114 1.26558
 H115 H 0.51152 0.90442 1.22775
 H116 H 0.48381 0.85601 1.17555
 H117 H 0.42969 0.98256 1.20166
 H118 H 0.49660 1.10144 1.22946
 H119 H 0.52164 1.14940 1.17724
 H120 H 0.60442 1.07180 1.14994
 H121 H 0.57853 1.02434 1.20178
 H122 H 0.45315 1.02653 1.29892
 H123 H 0.47508 1.07565 1.35006
 H124 H 0.63460 1.14898 1.32300
 H125 H 0.61138 1.09927 1.27158
 H126 H 0.40161 0.93491 1.14997
 C127 C 1.02801 0.51193 0.75035
 C128 C 0.97625 0.48327 0.75047
 C129 C 0.94570 0.46763 0.71926
 C130 C 0.94709 0.46645 0.78217
 C131 C 1.05727 0.52957 0.78204
 C132 C 1.05811 0.52801 0.71892
 C133 C 0.94912 0.50384 0.69584
 C134 C 0.91838 0.48827 0.66729
 C135 C 0.88256 0.43633 0.66194
 C136 C 0.88070 0.40017 0.68511
 C137 C 0.91146 0.41578 0.71357
 C138 C 0.91024 0.48035 0.78904
 C139 C 0.88265 0.46507 0.81877
 C140 C 0.89094 0.43519 0.84235
 C141 C 0.92757 0.42065 0.83498
 C142 C 0.95526 0.43615 0.80521
 C143 C 1.09460 0.51648 0.78931
 C144 C 1.12198 0.53225 0.81916
 C145 C 1.11255 0.56134 0.84276
 C146 C 1.07628 0.57615 0.83443
 C147 C 1.04891 0.56022 0.80450
 C148 C 1.05199 0.49261 0.69409
 C149 C 1.08055 0.50883 0.66466
 C150 C 1.11575 0.56105 0.65917
 C151 C 1.12399 0.59558 0.68541
 C152 C 1.09506 0.57940 0.71455
 H153 H 0.97519 0.54413 0.69983
 H154 H 0.92198 0.51702 0.64954
 H155 H 0.85612 0.35968 0.68155
 H156 H 0.90877 0.38724 0.73120
 H157 H 0.90312 0.50345 0.77144
 H158 H 0.85437 0.47638 0.82336
 H159 H 0.98292 0.42422 0.79999
 H160 H 1.10225 0.49362 0.77193
 H161 H 1.15082 0.52165 0.82384
 H162 H 1.06917 0.60086 0.85021
 H163 H 1.02135 0.57213 0.79870
 H164 H 1.02543 0.45232 0.69760
 H165 H 1.07542 0.48010 0.64651
 H166 H 1.15319 0.63533 0.68382
 H167 H 1.10163 0.60720 0.73381
 H168 H 0.93496 0.39685 0.85151
 C169 C 0.48681 0.51372 0.75042
 C170 C 0.51246 0.48728 0.75081
 C171 C 0.52842 0.47283 0.71961
 C172 C 0.52628 0.47118 0.78240
 C173 C 0.46949 0.52661 0.78168
 C174 C 0.47481 0.53123 0.71871
 C175 C 0.49272 0.44204 0.69546
 C176 C 0.50849 0.42697 0.66699
 C177 C 0.56009 0.44134 0.66243
 C178 C 0.59581 0.47387 0.68629
 C179 C 0.57998 0.48878 0.71471
 C180 C 0.51000 0.41937 0.78759
 C181 C 0.52486 0.40344 0.81613
 C182 C 0.55771 0.43924 0.83984
 C183 C 0.57215 0.49105 0.83512
 C184 C 0.55712 0.50695 0.80653
 C185 C 0.48410 0.57761 0.78849
 C186 C 0.46860 0.59051 0.81792
 C187 C 0.43834 0.55278 0.84141
 C188 C 0.42225 0.50130 0.83379
 C189 C 0.43776 0.48846 0.80425
 C190 C 0.51342 0.56332 0.69658
 C191 C 0.50148 0.57973 0.66692
 C192 C 0.45051 0.56486 0.65895
 C193 C 0.41211 0.53242 0.68135
 C194 C 0.42413 0.51619 0.71095
 H195 H 0.45266 0.42923 0.69885
 H196 H 0.48017 0.40338 0.64866
 H197 H 0.63613 0.48862 0.68328
 H198 H 0.60813 0.51318 0.73291
 H199 H 0.48554 0.39113 0.76946
 H200 H 0.50996 0.36295 0.81932
 H201 H 0.57017 0.54719 0.80296
 H202 H 0.50794 0.60754 0.77111
 H203 H 0.48033 0.63025 0.82242
 H204 H 0.39697 0.47045 0.84993
 H205 H 0.42471 0.44866 0.79887
 H206 H 0.55288 0.57575 0.70233
 H207 H 0.53260 0.60370 0.65063
 H208 H 0.37251 0.51975 0.67590
 H209 H 0.39376 0.49142 0.72772
 H210 H 0.59591 0.51948 0.85336
 C211 C 0.48267 -0.02923 0.74854
 C212 C 0.50930 0.02277 0.74836
 C213 C 0.52433 0.05286 0.71697
 C214 C 0.52606 0.05299 0.77970
 C215 C 0.46924 -0.05839 0.78035
 C216 C 0.46734 -0.05959 0.71715
 C217 C 0.55625 0.04819 0.69364
 C218 C 0.57204 0.07908 0.66512
 C219 C 0.55728 0.11616 0.65975
 C220 C 0.52342 0.11887 0.68267
 C221 C 0.50785 0.08814 0.71114
 C222 C 0.57805 0.08645 0.78499
 C223 C 0.59492 0.11669 0.81364
 C224 C 0.55993 0.11511 0.83745
 C225 C 0.50779 0.08003 0.83247
 C226 C 0.49097 0.04970 0.80375
 C227 C 0.41811 -0.09205 0.78790
 C228 C 0.40482 -0.11915 0.81795
 C229 C 0.44235 -0.11293 0.84150
 C230 C 0.49397 -0.08078 0.83275
 C231 C 0.50710 -0.05362 0.80268
 C232 C 0.43963 -0.05140 0.69210
 C233 C 0.42764 -0.07897 0.66219
 C234 C 0.44350 -0.11519 0.65645
 C235 C 0.46790 -0.12570 0.68294
 C236 C 0.48023 -0.09781 0.71259
 H237 H 0.56937 0.02108 0.69773
 H238 H 0.59646 0.07449 0.64743
 H239 H 0.50824 0.14419 0.67886
 H240 H 0.48257 0.09168 0.72868
 H241 H 0.60575 0.08891 0.76690
 H242 H 0.63546 0.14061 0.81677
 H243 H 0.45059 0.02409 0.80009
 H244 H 0.38840 -0.09708 0.77057
 H245 H 0.36489 -0.14536 0.82270
 H246 H 0.52476 -0.07705 0.84838
 H247 H 0.54693 -0.02918 0.79664
 H248 H 0.42718 -0.02372 0.69572
 H249 H 0.40529 -0.07215 0.64391
 H250 H 0.47754 -0.15569 0.68094
 H251 H 0.50034 -0.10585 0.73197
 H252 H 0.47989 0.07672 0.85066
 O253 O 0.40846 0.65702 0.97145
 O254 O 0.40472 0.74018 0.96069
 C255 C 0.37987 0.76283 0.95431
 O256 O 0.34249 0.75735 0.97195
 O257 O 0.25919 0.67133 0.96218
 C258 C 0.23696 0.62414 0.95538
 O259 O 0.24335 0.59204 0.97232
 O260 O 0.32920 0.59534 0.96061
 C261 C 0.37631 0.61936 0.95414
 O262 O 0.40694 0.67246 1.03785
 O263 O 0.40877 0.75844 1.02694
 C264 C 0.37696 0.76391 1.04463
 O265 O 0.32960 0.74033 1.03876
 O266 O 0.24402 0.65656 1.02903
 C267 C 0.23883 0.61818 1.04563
 O268 O 0.26209 0.59429 1.03842
 O269 O 0.34579 0.59275 1.02686
 C270 C 0.38334 0.62506 1.04418
 Cr271 Cr 0.40457 0.70569 0.99925
 Cr272 Cr 0.29515 0.70510 1.00046
 Cr273 Cr 0.29642 0.59627 0.99957
 O274 O 0.33198 0.66902 0.99977
 O275 O 0.59371 0.34627 0.97223
 O276 O 0.59302 0.26138 0.96077
 C277 C 0.61624 0.23752 0.95348
 O278 O 0.65307 0.24080 0.97080
 O279 O 0.73740 0.32574 0.96047
 C280 C 0.76228 0.37334 0.95497
 O281 O 0.75825 0.40581 0.97309
 O282 O 0.67390 0.40694 0.96230
 C283 C 0.62688 0.38362 0.95512
 O284 O 0.59508 0.32933 1.03868
 O285 O 0.59022 0.24231 1.02728
 C286 C 0.62198 0.23539 1.04426
 O287 O 0.66892 0.25671 1.03730
 O288 O 0.75581 0.33879 1.02694
 C289 C 0.76176 0.37575 1.04533
 O290 O 0.73980 0.40146 1.03958
 O291 O 0.65851 0.40822 1.02878
 C292 C 0.62011 0.37644 1.04561
 Cr293 Cr 0.59560 0.29602 0.99976
 Cr294 Cr 0.70254 0.29189 0.99891
 Cr295 Cr 0.70625 0.40302 1.00090
 O296 O 0.66806 0.33028 0.99988
 O297 O 0.65093 0.40805 0.52907
 O298 O 0.73547 0.40818 0.54013
 C299 C 0.75991 0.38508 0.54626
 O300 O 0.75733 0.34957 0.52775
 O301 O 0.67370 0.26385 0.53762
 C302 C 0.62664 0.23991 0.54448
 O303 O 0.59337 0.24379 0.52713
 O304 O 0.59166 0.32735 0.53893
 C305 C 0.61444 0.37432 0.54630
 O306 O 0.66754 0.40855 0.46274
 O307 O 0.75489 0.41424 0.47391
 C308 C 0.76133 0.38369 0.45540
 O309 O 0.73999 0.33613 0.46096
 O310 O 0.65919 0.24791 0.47102
 C311 C 0.62073 0.24107 0.45398
 O312 O 0.59510 0.26264 0.46081
 O313 O 0.58906 0.34418 0.47256
 C314 C 0.62056 0.38293 0.45574
 Cr315 Cr 0.70101 0.40716 0.50139
 Cr316 Cr 0.70620 0.30057 0.49934
 Cr317 Cr 0.59487 0.29589 0.49983
 O318 O 0.66729 0.33447 0.50014
 O319 O 0.33232 0.59554 0.53951
 O320 O 0.24568 0.59246 0.53067
 C321 C 0.24049 0.62571 0.54694
 O322 O 0.26356 0.67257 0.53930
 O323 O 0.34689 0.75684 0.52705
 C324 C 0.38619 0.76277 0.54269
 O325 O 0.41037 0.74003 0.53467
 O326 O 0.41060 0.65486 0.52448
 C327 C 0.38009 0.61963 0.54399
 O328 O 0.34174 0.58791 0.47275
 O329 O 0.25781 0.59088 0.46385
 C330 C 0.23599 0.61640 0.45670
 O331 O 0.24331 0.65564 0.47315
 O332 O 0.32819 0.73851 0.46074
 C333 C 0.37466 0.76058 0.45258
 O334 O 0.40753 0.75394 0.46819
 O335 O 0.40197 0.66621 0.45808
 C336 C 0.37715 0.61839 0.45337
 Cr337 Cr 0.29575 0.59436 0.50160
 Cr338 Cr 0.29682 0.70450 0.50002
 Cr339 Cr 0.40494 0.70245 0.49646
 O340 O 0.33243 0.66720 0.49934
 C341 C 0.41520 0.56402 0.37039
 C342 C 0.37404 0.52128 0.39233
 C343 C 0.36139 0.53877 0.42000
 C344 C 0.39055 0.59734 0.42341
 C345 C 0.44693 0.61228 0.42212
 C346 C 0.45977 0.59497 0.39451
 C347 C 0.39291 0.59913 0.36277
 C348 C 0.38035 0.61665 0.39038
 H349 H 0.35408 0.48097 0.38638
 H350 H 0.33206 0.51315 0.43718
 H351 H 0.47437 0.63419 0.44146
 H352 H 0.49821 0.60212 0.39036
 H353 H 0.38644 0.60851 0.33769
 H354 H 0.36345 0.64102 0.38880
 C355 C 0.42318 0.85593 0.37066
 C356 C 0.36764 0.83829 0.38094
 C357 C 0.35126 0.80659 0.40785
 C358 C 0.39190 0.79585 0.42286
 C359 C 0.40913 0.77517 0.39372
 C360 C 0.42535 0.80635 0.36657
 C361 C 0.45358 0.88062 0.40302
 C362 C 0.43734 0.84907 0.43012
 H363 H 0.34406 0.85208 0.36963
 H364 H 0.31377 0.79305 0.41852
 H365 H 0.40869 0.73896 0.39440
 H366 H 0.43872 0.79661 0.34411
 H367 H 0.48309 0.92033 0.40521
 H368 H 0.45373 0.86168 0.45481
 C369 C 0.14086 0.56895 0.37480
 C370 C 0.19349 0.58248 0.36767
 C371 C 0.22608 0.59932 0.39624
 C372 C 0.20032 0.59940 0.42695
 C373 C 0.17721 0.63105 0.41965
 C374 C 0.14420 0.61404 0.39115
 C375 C 0.12438 0.53075 0.40176
 C376 C 0.15750 0.54759 0.43031
 H377 H 0.20722 0.57996 0.34308
 H378 H 0.26622 0.61084 0.39481
 H379 H 0.18161 0.66259 0.43505
 H380 H 0.12149 0.63140 0.38411
 H381 H 0.08701 0.49708 0.40355
 H382 H 0.14776 0.52603 0.45350
 C383 C 0.57387 0.43127 0.37364
 C384 C 0.53015 0.38424 0.39093
 C385 C 0.54488 0.36761 0.41817
 C386 C 0.60208 0.39980 0.42607
 C387 C 0.62887 0.39934 0.39370
 C388 C 0.61428 0.41581 0.36645
 C389 C 0.59700 0.47119 0.40198
 C390 C 0.61186 0.45466 0.42919
 H391 H 0.49071 0.36616 0.38283
 H392 H 0.51798 0.33525 0.43297
 H393 H 0.65698 0.38700 0.39231
 H394 H 0.63013 0.41770 0.34185
 H395 H 0.59841 0.50777 0.40230
 H396 H 0.62674 0.47761 0.45163
 C397 C 0.57256 0.14519 0.37245
 C398 C 0.53315 0.12869 0.40107
 C399 C 0.54962 0.16051 0.42796
 C400 C 0.60398 0.20559 0.42444
 C401 C 0.63651 0.18062 0.41680
 C402 C 0.61991 0.14883 0.38988
 C403 C 0.58723 0.20088 0.36485
 C404 C 0.60367 0.23226 0.39185
 H405 H 0.49736 0.09306 0.40204
 H406 H 0.52719 0.15244 0.45059
 H407 H 0.66888 0.18613 0.43170
 H408 H 0.63802 0.12710 0.38234
 H409 H 0.58489 0.21456 0.34015
 H410 H 0.61548 0.27260 0.39014
 C411 C 0.85235 0.43706 0.37207
 C412 C 0.86836 0.40891 0.39719
 C413 C 0.83868 0.39191 0.42495
 C414 C 0.79530 0.40434 0.42533
 C415 C 0.82168 0.46263 0.42057
 C416 C 0.85132 0.47979 0.39274
 C417 C 0.79570 0.39954 0.36481
 C418 C 0.76611 0.38230 0.39257
 H419 H 0.90084 0.40335 0.39357
 H420 H 0.84575 0.37185 0.44496
 H421 H 0.81614 0.48819 0.43685
 H422 H 0.86926 0.51965 0.38568
 H423 H 0.77993 0.38828 0.33986
 H424 H 0.72536 0.35612 0.39126
 C425 C 0.56977 0.42287 1.12662
 C426 C 0.53064 0.39936 1.09787
 C427 C 0.54788 0.38459 1.07110
 C428 C 0.60262 0.39478 1.07499
 C429 C 0.63419 0.45222 1.08280
 C430 C 0.61686 0.46687 1.10961
 C431 C 0.58542 0.38261 1.13450
 C432 C 0.60259 0.36807 1.10767
 H433 H 0.49403 0.39758 1.09695
 H434 H 0.52547 0.36944 1.04848
 H435 H 0.66672 0.47931 1.06827
 H436 H 0.63452 0.50643 1.11759
 H437 H 0.58314 0.36682 1.15924
 H438 H 0.61514 0.34009 1.10957
 C439 C 0.85339 0.41603 1.12884
 C440 C 0.86815 0.45962 1.10354
 C441 C 0.83830 0.44601 1.07574
 C442 C 0.79597 0.38989 1.07546
 C443 C 0.82378 0.35928 1.08048
 C444 C 0.85364 0.37271 1.10836
 C445 C 0.79648 0.39571 1.13596
 C446 C 0.76672 0.38245 1.10816
 H447 H 0.89997 0.49797 1.10707
 H448 H 0.84460 0.47269 1.05561
 H449 H 0.81913 0.32843 1.06428
 H450 H 0.87278 0.35190 1.11555
 H451 H 0.78071 0.39113 1.16087
 H452 H 0.72581 0.36704 1.10939
 C453 C 0.57692 0.14214 1.12714
 C454 C 0.53287 0.14562 1.11001
 C455 C 0.54708 0.17642 1.08257
 C456 C 0.60400 0.20063 1.07419
 C457 C 0.63183 0.22830 1.10626
 C458 C 0.61789 0.19792 1.13373
 C459 C 0.59883 0.12430 1.09854
 C460 C 0.61320 0.15515 1.07114
 H461 H 0.49352 0.12453 1.11819
 H462 H 0.51991 0.18175 1.06782
 H463 H 0.66019 0.26859 1.10728
 H464 H 0.63463 0.21240 1.15813
 H465 H 0.59901 0.08848 1.09797
 H466 H 0.62675 0.14609 1.04849
 C467 C 0.43323 0.57848 1.12556
 C468 C 0.41456 0.61632 1.13352
 C469 C 0.39770 0.63099 1.10650
 C470 C 0.40103 0.60686 1.07359
 C471 C 0.45685 0.62004 1.07106
 C472 C 0.47383 0.60518 1.09806
 C473 C 0.38841 0.53414 1.10701
 C474 C 0.37140 0.54891 1.08002
 H475 H 0.41475 0.63053 1.15845
 H476 H 0.38332 0.65751 1.10839
 H477 H 0.48040 0.63759 1.04923
 H478 H 0.51155 0.60953 1.09816
 H479 H 0.37203 0.49431 1.11415
 H480 H 0.34040 0.52159 1.06446
 C481 C 0.14584 0.57279 1.12835
 C482 C 0.16432 0.53536 1.11830
 C483 C 0.19503 0.55017 1.09105
 C484 C 0.20417 0.60085 1.07558
 C485 C 0.15046 0.59220 1.06876
 C486 C 0.11983 0.57736 1.09626
 C487 C 0.19456 0.62485 1.13182
 C488 C 0.22484 0.63949 1.10433
 H489 H 0.15207 0.49878 1.13028
 H490 H 0.20916 0.52641 1.08058
 H491 H 0.13703 0.59546 1.04420
 H492 H 0.08010 0.56715 1.09461
 H493 H 0.20414 0.64854 1.15401
 H494 H 0.26009 0.67569 1.10302
 C495 C 0.42419 0.85983 1.12605
 C496 C 0.39440 0.87210 1.09962
 C497 C 0.37950 0.84055 1.07260
 C498 C 0.39562 0.79968 1.07400
 C499 C 0.45370 0.83001 1.07905
 C500 C 0.46855 0.86153 1.10612
 C501 C 0.38922 0.80297 1.13424
 C502 C 0.37458 0.77170 1.10720
 H503 H 0.38771 0.90414 1.10040
 H504 H 0.35982 0.84558 1.05147
 H505 H 0.48094 0.82776 1.06258
 H506 H 0.50838 0.88613 1.11248
 H507 H 0.37742 0.78843 1.15940
 H508 H 0.35096 0.73056 1.10935
 C509 C 0.57575 0.42286 0.63163
 C510 C 0.62971 0.42925 0.63188
 C511 C 0.64167 0.41300 0.60346
 C512 C 0.59896 0.39122 0.57727
 C513 C 0.55269 0.34904 0.59596
 C514 C 0.54082 0.36551 0.62439
 C515 C 0.57367 0.45007 0.59960
 C516 C 0.58573 0.43356 0.57126
 H517 H 0.65514 0.44102 0.65320
 H518 H 0.67717 0.41262 0.60075
 H519 H 0.53151 0.30946 0.58799
 H520 H 0.50997 0.33973 0.64061
 H521 H 0.56349 0.47989 0.59929
 H522 H 0.58567 0.44911 0.54679
 C523 C 0.57657 0.15074 0.62909
 C524 C 0.63362 0.17185 0.62194
 C525 C 0.65055 0.20074 0.59373
 C526 C 0.60911 0.20667 0.57515
 C527 C 0.56626 0.15182 0.56873
 C528 C 0.54929 0.12268 0.59686
 C529 C 0.57128 0.19915 0.62977
 C530 C 0.58794 0.22790 0.60156
 H531 H 0.65893 0.16563 0.63809
 H532 H 0.68998 0.21831 0.58584
 H533 H 0.55073 0.13707 0.54414
 H534 H 0.51912 0.08306 0.59625
 H535 H 0.55991 0.21280 0.65128
 H536 H 0.58899 0.26429 0.59917
 C537 C 0.84812 0.42106 0.63123
 C538 C 0.87732 0.42629 0.59870
 C539 C 0.84840 0.41498 0.57050
 C540 C 0.79262 0.39933 0.57714
 C541 C 0.77367 0.35494 0.60206
 C542 C 0.80225 0.36609 0.63035
 C543 C 0.82365 0.45479 0.62580
 C544 C 0.79502 0.44375 0.59754
 H545 H 0.91750 0.43791 0.59796
 H546 H 0.86387 0.41710 0.54574
 H547 H 0.73892 0.31866 0.59863
 H548 H 0.79003 0.33909 0.65082
 H549 H 0.82772 0.48433 0.64305
 H550 H 0.77546 0.46444 0.59077
 C551 C 0.43489 0.58174 0.62719
 C552 C 0.40190 0.60635 0.63462
 C553 C 0.38421 0.61876 0.60693
 C554 C 0.40117 0.60602 0.57396
 C555 C 0.45963 0.63345 0.57643
 C556 C 0.47735 0.62096 0.60416
 C557 C 0.40182 0.53636 0.60406
 C558 C 0.38427 0.54900 0.57635
 H559 H 0.39402 0.61439 0.65964
 H560 H 0.36131 0.63727 0.60837
 H561 H 0.48514 0.66108 0.55831
 H562 H 0.51780 0.63916 0.60903
 H563 H 0.39348 0.49753 0.60890
 H564 H 0.36096 0.52102 0.55765
 C565 C 0.43038 0.85505 0.62602
 C566 C 0.42388 0.88065 0.59425
 C567 C 0.40959 0.85026 0.56660
 C568 C 0.40352 0.79723 0.57279
 C569 C 0.45506 0.80841 0.58754
 C570 C 0.46934 0.83894 0.61501
 C571 C 0.37974 0.80472 0.62951
 C572 C 0.36579 0.77471 0.60185
 H573 H 0.43304 0.92024 0.59274
 H574 H 0.40559 0.86369 0.54220
 H575 H 0.47970 0.79592 0.57639
 H576 H 0.50647 0.85275 0.62645
 H577 H 0.35665 0.79356 0.65198
 H578 H 0.33094 0.73801 0.60078
 C579 C 0.14659 0.57798 0.62927
 C580 C 0.12138 0.54728 0.59711
 C581 C 0.15244 0.56318 0.56986
 C582 C 0.20574 0.60859 0.57682
 C583 C 0.19557 0.64971 0.59168
 C584 C 0.16437 0.63369 0.61871
 C585 C 0.19587 0.57545 0.63328
 C586 C 0.22657 0.59132 0.60598
 H587 H 0.08175 0.51771 0.59519
 H588 H 0.13946 0.54648 0.54529
 H589 H 0.20903 0.68724 0.58077
 H590 H 0.15087 0.65758 0.62979
 H591 H 0.20577 0.56212 0.65578
 H592 H 0.26253 0.59151 0.60522
 C593 C 0.42188 0.56889 0.87292
 C594 C 0.46628 0.61425 0.89109
 C595 C 0.45189 0.63157 0.91800
 C596 C 0.39425 0.60167 0.92474
 C597 C 0.36957 0.60445 0.89185
 C598 C 0.38387 0.58730 0.86491
 C599 C 0.39597 0.52854 0.90077
 C600 C 0.38147 0.54579 0.92766
 H601 H 0.50589 0.63072 0.88379
 H602 H 0.47926 0.66293 0.93332
 H603 H 0.34304 0.61877 0.88992
 H604 H 0.36933 0.58680 0.83999
 H605 H 0.39223 0.49093 0.90101
 H606 H 0.36468 0.52250 0.94975
 C607 C 0.14254 0.57740 0.87312
 C608 C 0.14493 0.53338 0.89126
 C609 C 0.17609 0.54828 0.91847
 C610 C 0.20181 0.60592 0.92568
 C611 C 0.22922 0.63180 0.89316
 C612 C 0.19843 0.61712 0.86586
 C613 C 0.12633 0.60186 0.90109
 C614 C 0.15758 0.61690 0.92830
 H615 H 0.12297 0.49357 0.88384
 H616 H 0.18073 0.52114 0.93381
 H617 H 0.26958 0.65950 0.89172
 H618 H 0.21265 0.63258 0.84119
 H619 H 0.09148 0.60366 0.90144
 H620 H 0.14974 0.63242 0.95052
 C621 C 0.42727 0.85697 0.87185
 C622 C 0.38072 0.85461 0.88944
 C623 C 0.36434 0.82345 0.91672
 C624 C 0.39627 0.79780 0.92449
 C625 C 0.39524 0.77015 0.89212
 C626 C 0.41146 0.80089 0.86480
 C627 C 0.46729 0.87350 0.90022
 C628 C 0.45105 0.84231 0.92744
 H629 H 0.36303 0.87674 0.88176
 H630 H 0.33255 0.81883 0.93178
 H631 H 0.38263 0.72961 0.89078
 H632 H 0.41283 0.78646 0.84021
 H633 H 0.50338 0.90886 0.90078
 H634 H 0.47394 0.85056 0.94994
 C635 C 0.57673 0.42338 0.87049
 C636 C 0.63386 0.45876 0.87772
 C637 C 0.65080 0.44653 0.90590
 C638 C 0.60928 0.39948 0.92443
 C639 C 0.56670 0.41201 0.93085
 C640 C 0.54973 0.42444 0.90274
 C641 C 0.57103 0.36951 0.86974
 C642 C 0.58774 0.35720 0.89793
 H643 H 0.65921 0.49013 0.86163
 H644 H 0.69033 0.46794 0.91377
 H645 H 0.55132 0.41135 0.95543
 H646 H 0.51972 0.43423 0.90336
 H647 H 0.55939 0.34449 0.84822
 H648 H 0.58867 0.32179 0.90023
 C649 C 0.85836 0.41834 0.87387
 C650 C 0.86112 0.46351 0.89363
 C651 C 0.82958 0.44946 0.92058
 C652 C 0.79810 0.39130 0.92569
 C653 C 0.77022 0.37051 0.89240
 C654 C 0.80154 0.38431 0.86549
 C655 C 0.86931 0.38774 0.90046
 C656 C 0.83775 0.37370 0.92736
 H657 H 0.88634 0.50328 0.88718
 H658 H 0.82791 0.47731 0.93688
 H659 H 0.72914 0.34757 0.89010
 H660 H 0.78708 0.37246 0.84030
 H661 H 0.90008 0.37926 0.89969
 H662 H 0.84171 0.35325 0.94847
 C663 C 0.57657 0.14936 0.86831
 C664 C 0.63210 0.19404 0.86917
 C665 C 0.64441 0.22249 0.89752
 C666 C 0.60060 0.20477 0.92256
 C667 C 0.55691 0.20424 0.90235
 C668 C 0.54468 0.17566 0.87403
 C669 C 0.57065 0.11941 0.90077
 C670 C 0.58318 0.14830 0.92905
 H671 H 0.65907 0.20535 0.84884
 H672 H 0.68162 0.25586 0.90124
 H673 H 0.53745 0.22486 0.90937
 H674 H 0.51537 0.17268 0.85697
 H675 H 0.55774 0.07879 0.90139
 H676 H 0.58082 0.13237 0.95375
   
