data_POSCAR
  _audit_creation_date              2014-09-24
  _audit_creation_method            'ToBaCCo'
  _symmetry_space_group_name_H-M    'P1'
  _symmetry_Int_Tables_number       1
  _symmetry_cell_setting            triclinic
  loop_
  _symmetry_equiv_pos_as_xyz
 x,y,z
_cell_length_a 25.3116
_cell_length_b 25.1012
_cell_length_c 48.1374
_cell_angle_alpha 87.227900
_cell_angle_beta 92.677300
_cell_angle_gamma 119.128500
loop_
  _atom_site_label
  _atom_site_type_symbol
  _atom_site_fract_x
  _atom_site_fract_y
  _atom_site_fract_z
C1 C -0.00643 0.06492 0.54245
 H2 H 0.00193 0.03001 0.55225
 C3 C -0.00960 0.10767 0.55884
 H4 H -0.00494 0.10474 0.58127
 C5 C -0.02021 0.11336 0.50137
 H6 H -0.02323 0.11575 0.47890
 C7 C -0.02289 0.15740 0.51694
 H8 H -0.02833 0.19362 0.50641
 N9 N -0.01113 0.06894 0.51424
 C10 C 0.06479 -0.04724 0.51029
 H11 H 0.10166 -0.01685 0.49722
 C12 C 0.06732 -0.09575 0.52469
 H13 H 0.10684 -0.10144 0.52322
 C14 C -0.03304 -0.07963 0.52722
 H15 H -0.07246 -0.07354 0.52769
 C16 C -0.03261 -0.12887 0.54168
 H17 H -0.07164 -0.16054 0.55345
 Zn18 Zn 0.00366 0.01956 0.49092
 N19 N 0.01515 -0.03993 0.51195
 C20 C 0.12803 0.09997 0.48168
 N21 N 0.07151 0.07355 0.46978
 C22 C 0.06112 0.09165 0.44397
 C23 C 0.10871 0.13703 0.42886
 C24 C 0.17731 0.14415 0.46688
 C25 C -0.11931 -0.03400 0.47213
 C26 C -0.16942 -0.07474 0.45632
 C27 C -0.10261 -0.09426 0.42958
 C28 C -0.05425 -0.05426 0.44624
 N29 N -0.06328 -0.02506 0.46695
 H30 H 0.13473 0.08766 0.50287
 H31 H 0.01544 0.07275 0.43553
 H32 H 0.09921 0.15252 0.40881
 H33 H 0.22213 0.16441 0.47653
 H34 H -0.12565 -0.01219 0.48953
 H35 H -0.21373 -0.08478 0.46287
 H36 H -0.09264 -0.11467 0.41270
 H37 H -0.00922 -0.04701 0.44290
 C38 C 0.01763 -0.13778 0.54016
 C39 C -0.01597 0.15565 0.54596
 C40 C -0.16218 -0.10618 0.43441
 C41 C 0.16794 0.16302 0.44004
 C42 C 1.06722 -0.02655 0.12113
 H43 H 1.02957 -0.02431 0.11076
 C44 C 1.10936 -0.03170 0.10534
 H45 H 1.10328 -0.03463 0.08294
 C46 C 1.12322 -0.02240 0.16264
 H47 H 1.12905 -0.01702 0.18493
 C48 C 1.16692 -0.02641 0.14761
 H49 H 1.20619 -0.02474 0.15840
 N50 N 1.07544 -0.02097 0.14920
 C51 C 0.97586 0.07028 0.14481
 H52 H 1.01215 0.10929 0.15491
 C53 C 0.92946 0.07598 0.13043
 H54 H 0.93040 0.11963 0.12918
 C55 C 0.92814 -0.03511 0.13512
 H56 H 0.92732 -0.07856 0.13769
 C57 C 0.88099 -0.03146 0.12064
 H58 H 0.84396 -0.07209 0.11182
 Zn59 Zn 1.02856 0.00144 0.17026
 N60 N 0.97396 0.01512 0.14705
 C61 C 1.12685 0.11894 0.17352
 N62 N 1.08390 0.07260 0.18899
 C63 C 1.08525 0.07421 0.21724
 C64 C 1.13204 0.12332 0.23103
 C65 C 1.17485 0.16856 0.18650
 C66 C 0.98138 -0.11440 0.19914
 C67 C 0.93958 -0.16135 0.21623
 C68 C 0.89756 -0.09646 0.22656
 C69 C 0.94005 -0.05091 0.20944
 N70 N 0.98054 -0.06066 0.19603
 H71 H 1.12511 0.11601 0.15111
 H72 H 1.05136 0.03653 0.22920
 H73 H 1.13324 0.12381 0.25355
 H74 H 1.20985 0.20431 0.17404
 H75 H 1.01315 -0.12151 0.18777
 H76 H 0.93948 -0.20456 0.21814
 H77 H 0.86421 -0.08879 0.23630
 H78 H 0.93963 -0.00820 0.20605
 C79 C 0.88080 0.02425 0.11875
 C80 C 1.16115 -0.02903 0.11854
 C81 C 0.89694 -0.15250 0.23007
 C82 C 1.17852 0.17012 0.21562
 C83 C 0.04585 0.94453 0.87679
 H84 H 0.00183 0.90430 0.87815
 C85 C 0.09422 0.94786 0.89318
 H86 H 0.08741 0.91007 0.90718
 C87 C 0.10922 1.04116 0.85564
 H88 H 0.11557 1.07624 0.84018
 C89 C 0.15887 1.04645 0.87173
 H90 H 0.20287 1.08623 0.86899
 N91 N 0.05384 0.99103 0.85870
 C92 C -0.13378 0.94916 0.84427
 H93 H -0.13702 0.94585 0.82187
 C94 C -0.18347 0.94142 0.85889
 H95 H -0.22426 0.93347 0.84731
 C96 C -0.07432 0.96958 0.88588
 H97 H -0.03124 0.98212 0.89623
 C98 C -0.12274 0.96270 0.90132
 H99 H -0.11648 0.96839 0.92360
 Zn100 Zn -0.01452 0.97766 0.83598
 N101 N -0.08078 0.96236 0.85790
 C102 C -0.08432 0.85592 0.81650
 N103 N -0.03196 0.90987 0.81440
 C104 C 0.01339 0.91647 0.79809
 C105 C 0.00776 0.86722 0.78351
 C106 C -0.09205 0.80551 0.80203
 C107 C 0.02640 1.10235 0.82322
 C108 C 0.03202 1.15220 0.80684
 C109 C -0.02129 1.08385 0.76939
 C110 C -0.02367 1.03572 0.78609
 N111 N 0.00009 1.04572 0.81247
 H112 H -0.11938 0.85132 0.82994
 H113 H 0.05469 0.95978 0.79703
 H114 H 0.04479 0.87266 0.77111
 H115 H -0.13351 0.76248 0.80402
 H116 H 0.04201 1.10866 0.84472
 H117 H 0.05356 1.19705 0.81568
 H118 H -0.04321 1.07449 0.74899
 H119 H -0.04703 0.98985 0.77844
 C120 C -0.17885 0.94754 0.88796
 C121 C 0.15142 0.99954 0.89089
 C122 C 0.00780 1.14329 0.77953
 C123 C -0.04492 0.81067 0.78589
 C124 C 0.50797 -0.01394 0.01738
 C125 C 0.50420 -0.01595 -0.01092
 C126 C 0.45550 -0.00998 -0.02681
 C127 C 0.54785 -0.02508 -0.02686
 C128 C 0.56372 -0.00434 0.03309
 C129 C 0.45680 -0.01959 0.03356
 C130 C 0.41717 -0.05500 -0.04540
 C131 C 0.36798 -0.05218 -0.05838
 C132 C 0.35665 -0.00426 -0.05296
 C133 C 0.39664 0.04230 -0.03543
 C134 C 0.44576 0.03952 -0.02249
 C135 C 0.55882 -0.07390 -0.01985
 C136 C 0.60114 -0.08151 -0.03429
 C137 C 0.63272 -0.04071 -0.05607
 C138 C 0.62136 0.00762 -0.06336
 C139 C 0.57874 0.01508 -0.04900
 C140 C 0.62058 0.04381 0.02554
 C141 C 0.67295 0.05260 0.04025
 C142 C 0.66919 0.01406 0.06303
 C143 C 0.61242 -0.03381 0.07073
 C144 C 0.56001 -0.04265 0.05600
 C145 C 0.46625 0.02519 0.05248
 C146 C 0.41733 0.02269 0.06592
 C147 C 0.35837 -0.02465 0.06063
 C148 C 0.34918 -0.07097 0.04273
 C149 C 0.39810 -0.06859 0.02936
 H150 H 0.42420 -0.09328 -0.04913
 H151 H 0.33790 -0.08806 -0.07215
 H152 H 0.38915 0.08018 -0.03146
 H153 H 0.47555 0.07531 -0.00862
 H154 H 0.53480 -0.10589 -0.00309
 H155 H 0.60961 -0.11894 -0.02842
 H156 H 0.57077 0.05287 -0.05475
 H157 H 0.62435 0.07464 0.00827
 H158 H 0.71640 0.08963 0.03399
 H159 H 0.60885 -0.06444 0.08807
 H160 H 0.51664 -0.07991 0.06221
 H161 H 0.51118 0.06306 0.05615
 H162 H 0.42513 0.05836 0.07999
 H163 H 0.30402 -0.10810 0.03866
 H164 H 0.39008 -0.10422 0.01523
 H165 H 0.64559 0.03952 -0.08011
 C166 C -0.02423 0.48829 0.67779
 C167 C -0.02225 0.49236 0.64950
 C168 C -0.02355 0.44274 0.63329
 C169 C -0.01504 0.54767 0.63370
 C170 C -0.03155 0.53269 0.69424
 C171 C -0.01794 0.43927 0.69344
 C172 C 0.02184 0.45609 0.61422
 C173 C 0.02329 0.40912 0.60043
 C174 C -0.02011 0.34804 0.60583
 C175 C -0.06714 0.33491 0.62386
 C176 C -0.06917 0.38193 0.63729
 C177 C 0.03328 0.60554 0.63996
 C178 C 0.04157 0.65705 0.62412
 C179 C 0.00209 0.65139 0.60161
 C180 C -0.04674 0.59369 0.59563
 C181 C -0.05481 0.54213 0.61135
 C182 C -0.07913 0.54551 0.68814
 C183 C -0.08581 0.58713 0.70388
 C184 C -0.04544 0.61601 0.72614
 C185 C 0.00229 0.60344 0.73212
 C186 C 0.00879 0.56165 0.71649
 C187 C -0.06639 0.39442 0.70860
 C188 C -0.06239 0.34514 0.72124
 C189 C -0.00948 0.34060 0.71928
 C190 C 0.04010 0.38737 0.70530
 C191 C 0.03563 0.43591 0.69217
 H192 H 0.05697 0.50270 0.61052
 H193 H 0.05901 0.42023 0.58599
 H194 H -0.10171 0.28819 0.62786
 H195 H -0.10573 0.37081 0.65121
 H196 H 0.06506 0.61062 0.65684
 H197 H 0.07925 0.70124 0.62915
 H198 H -0.09222 0.49788 0.60617
 H199 H -0.11121 0.52305 0.67128
 H200 H -0.12265 0.59658 0.69884
 H201 H 0.03455 0.62614 0.74889
 H202 H 0.04586 0.55254 0.72150
 H203 H -0.10792 0.39657 0.70983
 H204 H -0.10086 0.31009 0.73227
 H205 H 0.08201 0.38587 0.70428
 H206 H 0.07369 0.47066 0.68080
 H207 H -0.07829 0.58861 0.57863
 C208 C 0.50781 0.52703 0.34431
 C209 C 0.51595 0.52231 0.31690
 C210 C 0.57361 0.56518 0.30341
 C211 C 0.46820 0.47307 0.29983
 C212 C 0.45983 0.47462 0.35989
 C213 C 0.54841 0.58318 0.35977
 C214 C 0.57348 0.59860 0.27922
 C215 C 0.62809 0.64294 0.26804
 C216 C 0.68337 0.65402 0.28081
 C217 C 0.68352 0.61827 0.30408
 C218 C 0.62901 0.57420 0.31533
 C219 C 0.40766 0.46021 0.30068
 C220 C 0.36207 0.41065 0.28668
 C221 C 0.37633 0.37383 0.27109
 C222 C 0.43719 0.38904 0.26864
 C223 C 0.48279 0.43806 0.28308
 C224 C 0.45752 0.41754 0.36034
 C225 C 0.40972 0.36676 0.37286
 C226 C 0.36303 0.37201 0.38484
 C227 C 0.36673 0.42965 0.38550
 C228 C 0.41503 0.48074 0.37320
 C229 C 0.57436 0.57909 0.38564
 C230 C 0.61714 0.63195 0.39883
 C231 C 0.63440 0.68973 0.38644
 C232 C 0.60710 0.69386 0.36099
 C233 C 0.56360 0.64115 0.34807
 H234 H 0.53117 0.59186 0.26964
 H235 H 0.62732 0.66972 0.24985
 H236 H 0.72585 0.62554 0.31385
 H237 H 0.62992 0.54793 0.33369
 H238 H 0.39555 0.48786 0.31269
 H239 H 0.31549 0.40029 0.28841
 H240 H 0.52921 0.44765 0.28177
 H241 H 0.49231 0.41225 0.35057
 H242 H 0.40856 0.32305 0.37283
 H243 H 0.33161 0.43476 0.39505
 H244 H 0.41639 0.52454 0.37318
 H245 H 0.56326 0.53499 0.39512
 H246 H 0.63806 0.62782 0.41837
 H247 H 0.62053 0.73786 0.35080
 H248 H 0.54324 0.64552 0.32841
 H249 H 0.44911 0.36194 0.25613
 C250 C 0.03626 0.24329 0.57939
 C251 C -0.01458 0.20460 0.56254
 C252 C -0.06533 0.21317 0.56089
 C253 C -0.06653 0.25912 0.57541
 C254 C -0.01710 0.29794 0.59218
 C255 C 0.03435 0.28932 0.59486
 C256 C 0.08951 0.23816 0.58081
 C257 C 0.13822 0.27512 0.59816
 C258 C 0.13511 0.31793 0.61431
 C259 C 0.08380 0.32511 0.61278
 H260 H 0.09437 0.20607 0.56845
 H261 H 0.17850 0.27029 0.59918
 H262 H 0.17270 0.34582 0.62807
 H263 H 0.08308 0.35830 0.62603
 H264 H -0.10436 0.18412 0.54806
 H265 H -0.10615 0.26508 0.57320
 C266 C 0.83415 0.80198 0.27337
 C267 C 0.84746 0.79660 0.24564
 C268 C 0.80880 0.74393 0.23108
 C269 C 0.75642 0.69808 0.24300
 C270 C 0.74093 0.70338 0.26986
 C271 C 0.77982 0.75556 0.28539
 C272 C 0.87366 0.85252 0.28942
 C273 C 0.85880 0.85850 0.31620
 C274 C 0.80454 0.81451 0.32749
 C275 C 0.76526 0.76349 0.31234
 H276 H 0.91647 0.88753 0.28151
 H277 H 0.88940 0.89766 0.32821
 H278 H 0.79288 0.81988 0.34814
 H279 H 0.72344 0.73078 0.32189
 H280 H 0.81808 0.73927 0.20985
 H281 H 0.72707 0.65840 0.23097
 C282 C 0.20625 -0.00287 -0.06372
 C283 C 0.20415 0.00204 -0.09321
 C284 C 0.25186 0.00576 -0.10832
 C285 C 0.30060 0.00351 -0.09488
 C286 C 0.30326 -0.00257 -0.06587
 C287 C 0.25568 -0.00633 -0.04995
 C288 C 0.16060 -0.00390 -0.04756
 C289 C 0.16213 -0.01098 -0.01867
 C290 C 0.20894 -0.01709 -0.00534
 C291 C 0.25547 -0.01465 -0.02070
 H292 H 0.12360 0.00110 -0.05703
 H293 H 0.12660 -0.01211 -0.00656
 H294 H 0.20924 -0.02360 0.01704
 H295 H 0.29076 -0.01986 -0.00946
 H296 H 0.25078 0.00925 -0.13085
 H297 H 0.33666 0.00643 -0.10724
 C298 C 0.02025 0.76206 0.54032
 C299 C 0.01727 0.80860 0.55467
 C300 C 0.01175 0.80334 0.58362
 C301 C 0.00846 0.75290 0.59845
 C302 C 0.01073 0.70604 0.58483
 C303 C 0.01836 0.71108 0.55562
 C304 C 0.02371 0.76424 0.51104
 C305 C 0.02836 0.71906 0.49735
 C306 C 0.02946 0.67089 0.51242
 C307 C 0.02453 0.66673 0.54126
 H308 H 0.02250 0.80044 0.49842
 H309 H 0.03139 0.72159 0.47492
 H310 H 0.03382 0.63636 0.50169
 H311 H 0.02606 0.62877 0.55214
 H312 H 0.00925 0.83843 0.59483
 H313 H 0.00273 0.74973 0.62075
 C314 C 0.26980 0.20970 0.24899
 C315 C 0.23116 0.22028 0.22988
 C316 C 0.24194 0.27999 0.22447
 C317 C 0.28924 0.32888 0.23795
 C318 C 0.32727 0.31970 0.25733
 C319 C 0.31737 0.25965 0.26331
 C320 C 0.26267 0.15066 0.25400
 C321 C 0.29930 0.14058 0.27366
 C322 C 0.34376 0.18886 0.28862
 C323 C 0.35289 0.24785 0.28358
 H324 H 0.22918 0.11183 0.24269
 H325 H 0.29294 0.09499 0.27742
 H326 H 0.37142 0.18058 0.30417
 H327 H 0.38733 0.28366 0.29604
 H328 H 0.21295 0.28875 0.20988
 H329 H 0.29625 0.37448 0.23322
 C330 C 0.71086 -0.10075 -0.10192
 C331 C 0.77261 -0.05592 -0.09706
 C332 C 0.78561 -0.01057 -0.07767
 C333 C 0.73968 -0.00635 -0.06493
 C334 C 0.67900 -0.04762 -0.07068
 C335 C 0.66390 -0.09549 -0.08912
 C336 C 0.69461 -0.15288 -0.11771
 C337 C 0.63407 -0.19540 -0.12274
 C338 C 0.58841 -0.18780 -0.11175
 C339 C 0.60294 -0.13863 -0.09493
 H340 H 0.72831 -0.16223 -0.12577
 H341 H 0.62254 -0.23467 -0.13511
 H342 H 0.54149 -0.22080 -0.11585
 H343 H 0.56606 -0.13502 -0.08639
 H344 H 0.83173 0.02443 -0.07341
 H345 H 0.75164 0.03000 -0.05057
 C346 C 0.24289 0.02121 0.08236
 C347 C 0.21047 -0.02659 0.10212
 C348 C 0.22625 -0.07260 0.10702
 C349 C 0.27340 -0.07190 0.09295
 C350 C 0.30628 -0.02514 0.07355
 C351 C 0.29031 0.02112 0.06755
 C352 C 0.23028 0.06990 0.07734
 C353 C 0.26108 0.11516 0.05716
 C354 C 0.30538 0.11338 0.04181
 C355 C 0.32024 0.06710 0.04697
 H356 H 0.19698 0.07390 0.08899
 H357 H 0.25043 0.15179 0.05337
 H358 H 0.32867 0.14828 0.02596
 H359 H 0.35479 0.06735 0.03446
 H360 H 0.20202 -0.10924 0.12206
 H361 H 0.28511 -0.10760 0.09760
 C362 C 0.73350 0.85080 0.41453
 C363 C 0.78906 0.84951 0.42022
 C364 C 0.79151 0.79716 0.41240
 C365 C 0.74100 0.74658 0.40191
 C366 C 0.68528 0.74511 0.39866
 C367 C 0.68087 0.79726 0.40511
 C368 C 0.72996 0.90527 0.41552
 C369 C 0.67495 0.90499 0.41138
 C370 C 0.62251 0.85100 0.40543
 C371 C 0.62528 0.79762 0.40209
 H372 H 0.76981 0.94892 0.41880
 H373 H 0.67305 0.94694 0.41276
 H374 H 0.57974 0.85082 0.40264
 H375 H 0.58362 0.75692 0.39691
 H376 H 0.83144 0.79233 0.41626
 H377 H 0.74541 0.70750 0.39655
 C378 C 0.02254 0.20693 0.73438
 C379 C 0.00727 0.19474 0.76291
 C380 C -0.01285 0.23024 0.77587
 C381 C -0.01807 0.27672 0.76135
 C382 C -0.00511 0.28853 0.73305
 C383 C 0.01354 0.25215 0.71905
 C384 C 0.04719 0.17579 0.72073
 C385 C 0.05725 0.18462 0.69224
 C386 C 0.04355 0.22485 0.67686
 C387 C 0.02229 0.25871 0.69003
 H388 H 0.05928 0.14468 0.73187
 H389 H 0.07520 0.15962 0.68199
 H390 H 0.04985 0.23008 0.65464
 H391 H 0.01204 0.28925 0.67720
 H392 H -0.02536 0.22155 0.79750
 H393 H -0.03242 0.30388 0.77240
 C394 C 0.78703 0.03615 0.12075
 C395 C 0.82835 0.02705 0.10539
 C396 C 0.81787 0.01680 0.07684
 C397 C 0.76699 0.01457 0.06340
 C398 C 0.72486 0.02226 0.07812
 C399 C 0.73531 0.03463 0.10689
 C400 C 0.79516 0.04539 0.14969
 C401 C 0.75466 0.05524 0.16438
 C402 C 0.70537 0.05593 0.15065
 C403 C 0.69559 0.04576 0.12219
 H404 H 0.83258 0.04491 0.16127
 H405 H 0.76166 0.06258 0.18653
 H406 H 0.67441 0.06417 0.16214
 H407 H 0.65697 0.04711 0.11233
 H408 H 0.84894 0.00945 0.06494
 H409 H 0.75955 0.00512 0.04141
 C410 C 0.22976 0.21080 0.39638
 C411 C 0.21884 0.21368 0.42483
 C412 C 0.25484 0.26789 0.43894
 C413 C 0.30062 0.31859 0.42554
 C414 C 0.31136 0.31746 0.39738
 C415 C 0.27461 0.26385 0.38228
 C416 C 0.19763 0.15626 0.38163
 C417 C 0.20550 0.15538 0.35322
 C418 C 0.24579 0.20837 0.33903
 C419 C 0.28057 0.26206 0.35333
 H420 H 0.16641 0.11378 0.39184
 H421 H 0.17975 0.11348 0.34210
 H422 H 0.25028 0.20768 0.31685
 H423 H 0.31133 0.30213 0.34143
 H424 H 0.24699 0.27135 0.46055
 H425 H 0.32818 0.35918 0.43734
 C426 C -0.05487 0.70469 0.78666
 C427 C -0.04959 0.75727 0.77180
 C428 C -0.04627 0.76048 0.74276
 C429 C -0.04706 0.71338 0.72833
 C430 C -0.05133 0.66139 0.74246
 C431 C -0.05714 0.65580 0.77179
 C432 C -0.05643 0.70011 0.81601
 C433 C -0.06324 0.64749 0.83022
 C434 C -0.06837 0.59865 0.81560
 C435 C -0.06536 0.60254 0.78668
 H436 H -0.05206 0.73701 0.82831
 H437 H -0.06478 0.64451 0.85270
 H438 H -0.07436 0.55765 0.82673
 H439 H -0.06998 0.56334 0.77615
 H440 H -0.04207 0.80040 0.73117
 H441 H -0.04258 0.71830 0.70594
   
