data_POSCAR
  _audit_creation_date              2014-09-24
  _audit_creation_method            'ToBaCCo'
  _symmetry_space_group_name_H-M    'P1'
  _symmetry_Int_Tables_number       1
  _symmetry_cell_setting            triclinic
  loop_
  _symmetry_equiv_pos_as_xyz
 x,y,z
_cell_length_a 25.9179
_cell_length_b 38.8608
_cell_length_c 30.1982
_cell_angle_alpha 90.640700
_cell_angle_beta 83.816000
_cell_angle_gamma 89.530700
loop_
  _atom_site_label
  _atom_site_type_symbol
  _atom_site_fract_x
  _atom_site_fract_y
  _atom_site_fract_z
O1 O 0.38841 0.37331 0.01185
 O2 O 0.38639 0.31864 -0.08662
 O3 O 0.36546 0.38539 -0.07350
 O4 O 0.39627 0.31035 -0.00712
 O5 O 0.31213 0.29991 0.00525
 O6 O 0.28167 0.37554 -0.05953
 O7 O 0.30155 0.31155 -0.07272
 O8 O 0.30379 0.36767 0.02740
 Cu9 Cu 0.39152 0.34979 -0.04119
 Cu10 Cu 0.29138 0.33964 -0.02160
 C11 C 0.34722 0.37849 0.03767
 C12 C 0.34483 0.30410 -0.09502
 C13 C 0.31869 0.39231 -0.07958
 C14 C 0.35902 0.29135 0.00833
 O15 O 0.63232 0.61875 0.07081
 O16 O 0.60482 0.68246 -0.01338
 O17 O 0.61204 0.61650 -0.01332
 O18 O 0.62165 0.68505 0.06908
 O19 O 0.70476 0.69146 0.04585
 O20 O 0.69663 0.61810 -0.03251
 O21 O 0.68849 0.68364 -0.03731
 O22 O 0.71644 0.62412 0.05142
 Cu23 Cu 0.60940 0.64987 0.03075
 Cu24 Cu 0.71028 0.65447 0.00526
 C25 C 0.67905 0.61131 0.07624
 C26 C 0.64202 0.69311 -0.04046
 C27 C 0.65210 0.60634 -0.03803
 C28 C 0.66399 0.70087 0.07038
 O29 O 0.63641 0.31353 1.08612
 O30 O 0.63251 0.37436 0.99547
 O31 O 0.59320 0.31868 1.01921
 O32 O 0.69128 0.37247 1.06608
 O33 O 0.75357 0.34377 1.02565
 O34 O 0.65639 0.29143 0.97723
 O35 O 0.70051 0.34914 0.95755
 O36 O 0.70216 0.28617 1.04780
 Cu37 Cu 0.63475 0.34920 1.04680
 Cu38 Cu 0.71035 0.31515 0.99861
 C39 C 0.66661 0.28768 1.08034
 C40 C 0.66400 0.37127 0.96041
 C41 C 0.60858 0.29549 0.99063
 C42 C 0.73913 0.36756 1.05334
 O43 O 0.31252 0.61574 0.95271
 O44 O 0.41206 0.67460 0.98741
 O45 O 0.37826 0.61426 1.01695
 O46 O 0.35472 0.67199 0.92661
 O47 O 0.30134 0.70284 0.97393
 O48 O 0.31102 0.63616 1.05921
 O49 O 0.35434 0.69609 1.03992
 O50 O 0.25277 0.64530 0.99530
 Cu51 Cu 0.37021 0.64016 0.96734
 Cu52 Cu 0.29851 0.67247 1.02189
 C53 C 0.26524 0.62182 0.96662
 C54 C 0.39947 0.69603 1.01894
 C55 C 0.34816 0.61454 1.05295
 C56 C 0.32723 0.69870 0.93597
 O57 O -0.02351 0.36696 0.32135
 O58 O 0.03322 0.31921 0.40864
 O59 O 0.05997 0.37312 0.36715
 O60 O -0.04265 0.30784 0.37016
 O61 O 0.00322 0.27952 0.31530
 O62 O 0.10396 0.34522 0.31080
 O63 O 0.08267 0.28964 0.35696
 O64 O 0.02386 0.33684 0.26932
 Cu65 Cu 0.00075 0.34588 0.36999
 Cu66 Cu 0.05776 0.30993 0.30746
 C67 C -0.00817 0.36103 0.28068
 C68 C 0.06602 0.29540 0.39758
 C69 C 0.09948 0.37005 0.33849
 C70 C -0.03420 0.28087 0.34616
 O71 O 0.02090 0.69150 0.62536
 O72 O -0.07459 0.62153 0.64211
 O73 O -0.06774 0.67160 0.59392
 O74 O 0.00896 0.63211 0.67601
 O75 O -0.03550 0.66309 0.72902
 O76 O -0.10362 0.70814 0.64497
 O77 O -0.11983 0.65348 0.69394
 O78 O -0.02005 0.72033 0.68206
 Cu79 Cu -0.02105 0.65241 0.62917
 Cu80 Cu -0.07338 0.68960 0.69297
 C81 C 0.01570 0.71828 0.64999
 C82 C -0.11417 0.62623 0.67025
 C83 C -0.09911 0.69624 0.60534
 C84 C -0.00358 0.63888 0.71703
 O85 O 1.07400 0.62926 0.37479
 O86 O 0.96961 0.69453 0.38366
 O87 O 0.97252 0.62759 0.36803
 O88 O 1.06539 0.69359 0.39477
 O89 O 1.08286 0.70399 0.32294
 O90 O 0.98872 0.63757 0.29608
 O91 O 0.98455 0.70397 0.31139
 O92 O 1.08831 0.63858 0.30248
 Cu93 Cu 1.01812 0.65955 0.38737
 Cu94 Cu 1.03774 0.67198 0.30103
 C95 C 1.09960 0.62341 0.33712
 C96 C 0.96022 0.71086 0.34919
 C97 C 0.96429 0.62140 0.32801
 C98 C 1.08962 0.71034 0.36343
 O99 O 0.95949 0.29796 0.60937
 O100 O 1.04609 0.36843 0.63395
 O101 O 1.05657 0.30165 0.62062
 O102 O 0.94543 0.36224 0.62946
 O103 O 0.93235 0.35260 0.70175
 O104 O 1.04213 0.29155 0.69270
 O105 O 1.03175 0.35841 0.70603
 O106 O 0.94502 0.28705 0.68129
 Cu107 Cu 1.00377 0.33399 0.61628
 Cu108 Cu 0.98640 0.32153 0.70265
 C109 C 0.93805 0.28020 0.64102
 C110 C 1.05365 0.37559 0.67382
 C111 C 1.06709 0.28538 0.65492
 C112 C 0.91962 0.36732 0.66725
 O113 O 0.34959 0.02769 0.24361
 O114 O 0.34752 -0.03426 0.33413
 O115 O 0.35517 -0.03823 0.24789
 O116 O 0.34451 0.03317 0.32725
 O117 O 0.25882 0.03128 0.33279
 O118 O 0.26977 -0.04128 0.25097
 O119 O 0.26202 -0.03644 0.33792
 O120 O 0.26385 0.02728 0.24795
 Cu121 Cu 0.35775 -0.00309 0.28815
 Cu122 Cu 0.25485 -0.00540 0.29266
 C123 C 0.30726 0.03941 0.23214
 C124 C 0.30456 -0.04633 0.35104
 C125 C 0.31483 -0.05216 0.23605
 C126 C 0.30046 0.04561 0.34173
 O127 O 0.63980 -0.03447 0.66183
 O128 O 0.63338 0.03162 0.74942
 O129 O 0.64161 0.03314 0.66353
 O130 O 0.62777 -0.03430 0.74666
 O131 O 0.71248 -0.03542 0.75053
 O132 O 0.72699 0.02995 0.66110
 O133 O 0.71890 0.03123 0.74753
 O134 O 0.72470 -0.03869 0.66265
 Cu135 Cu 0.62727 -0.00065 0.70501
 Cu136 Cu 0.72959 -0.00371 0.70493
 C137 C 0.68290 -0.04883 0.64850
 C138 C 0.67470 0.04303 0.76302
 C139 C 0.68625 0.04362 0.64863
 C140 C 0.66702 -0.04597 0.76331
 O141 O 0.39062 0.95590 0.71440
 O142 O 0.36999 1.01380 0.62204
 O143 O 0.42986 1.01434 0.67837
 O144 O 0.33170 0.95450 0.64448
 O145 O 0.27179 0.98014 0.69136
 O146 O 0.36956 1.04008 0.72506
 O147 O 0.30691 1.03984 0.66547
 O148 O 0.32943 0.98335 0.75785
 Cu149 Cu 0.38612 0.98026 0.66198
 Cu150 Cu 0.31306 1.01308 0.71466
 C151 C 0.36459 0.96045 0.75215
 C152 C 0.33650 1.03786 0.62923
 C153 C 0.41561 1.03847 0.70576
 C154 C 0.28485 0.95765 0.66129
 O155 O 0.58015 0.97100 0.34283
 O156 O 0.66357 1.04199 0.37280
 O157 O 0.57433 1.03898 0.34170
 O158 O 0.66817 0.97541 0.37475
 O159 O 0.71040 0.97696 0.30718
 O160 O 0.61243 1.03761 0.27266
 O161 O 0.70098 1.04283 0.30352
 O162 O 0.62103 0.96972 0.27476
 Cu163 Cu 0.61704 1.00690 0.36473
 Cu164 Cu 0.66470 1.00647 0.28240
 C165 C 0.58764 0.95754 0.30414
 C166 C 0.69643 1.05455 0.34320
 C167 C 0.57813 1.04976 0.30197
 C168 C 0.70592 0.96603 0.34690
 O169 O 0.86477 0.81337 0.44550
 O170 O 0.78899 0.86530 0.53357
 O171 O 0.83687 0.80383 0.52814
 O172 O 0.82483 0.87429 0.44909
 O173 O 0.74777 0.85529 0.43582
 O174 O 0.77091 0.77831 0.50117
 O175 O 0.71868 0.83822 0.51765
 O176 O 0.79162 0.79679 0.42049
 Cu177 Cu 0.83555 0.84192 0.49193
 Cu178 Cu 0.74921 0.81495 0.46808
 C179 C 0.84078 0.79680 0.41758
 C180 C 0.74039 0.86045 0.54031
 C181 C 0.80912 0.77747 0.52426
 C182 C 0.78416 0.87693 0.42936
 O183 O 0.13843 0.17892 0.49178
 O184 O 0.22564 0.12409 0.54794
 O185 O 0.15970 0.17315 0.57207
 O186 O 0.20766 0.12940 0.46618
 O187 O 0.26867 0.16870 0.45483
 O188 O 0.21960 0.21303 0.55867
 O189 O 0.28774 0.16257 0.53526
 O190 O 0.20032 0.21730 0.47724
 Cu191 Cu 0.17653 0.14745 0.52030
 Cu192 Cu 0.25032 0.19435 0.50550
 C193 C 0.15364 0.20790 0.47678
 C194 C 0.27198 0.13352 0.54988
 C195 C 0.18045 0.20122 0.58228
 C196 C 0.24803 0.14089 0.44371
 O197 O 0.19448 0.87511 0.46576
 O198 O 0.10922 0.82462 0.54580
 O199 O 0.16080 0.88024 0.54934
 O200 O 0.13772 0.82039 0.45909
 O201 O 0.20501 0.78858 0.47310
 O202 O 0.22912 0.84959 0.56381
 O203 O 0.17599 0.79229 0.55975
 O204 O 0.26139 0.84325 0.48056
 Cu205 Cu 0.14362 0.85288 0.50319
 Cu206 Cu 0.22432 0.81491 0.52078
 C207 C 0.24278 0.86818 0.46040
 C208 C 0.12839 0.80059 0.56724
 C209 C 0.19895 0.87545 0.57161
 C210 C 0.16764 0.79472 0.45023
 O211 O 0.81942 0.12231 0.44883
 O212 O 0.87083 0.16945 0.54038
 O213 O 0.80135 0.12141 0.53445
 O214 O 0.88450 0.17045 0.45133
 O215 O 0.82492 0.21146 0.45132
 O216 O 0.74030 0.16111 0.53188
 O217 O 0.81018 0.20954 0.53856
 O218 O 0.75904 0.16258 0.44577
 Cu219 Cu 0.85071 0.14231 0.49457
 Cu220 Cu 0.77747 0.19027 0.49230
 C221 C 0.78115 0.13472 0.43133
 C222 C 0.84913 0.19722 0.55531
 C223 C 0.75569 0.13255 0.54609
 C224 C 0.86816 0.19834 0.43588
 O225 O 0.53561 0.79753 0.90623
 O226 O 0.45230 0.86935 0.87835
 O227 O 0.43708 0.80528 0.89894
 O228 O 0.55203 0.86136 0.88238
 O229 O 0.56044 0.84695 0.81090
 O230 O 0.44883 0.79003 0.82783
 O231 O 0.46315 0.85385 0.80725
 O232 O 0.54924 0.78322 0.83487
 Cu233 Cu 0.49315 0.83487 0.89869
 Cu234 Cu 0.50666 0.81652 0.81315
 C235 C 0.55729 0.77852 0.87517
 C236 C 0.44351 0.87380 0.83823
 C237 C 0.42338 0.78834 0.86600
 C238 C 0.57481 0.86418 0.84316
 O239 O 0.55081 0.17118 0.12221
 O240 O 0.43052 0.12317 0.14123
 O241 O 0.45653 0.17446 0.08730
 O242 O 0.51080 0.12677 0.17703
 O243 O 0.47672 0.16666 0.22441
 O244 O 0.43027 0.21666 0.13410
 O245 O 0.39416 0.16583 0.18303
 O246 O 0.51864 0.21283 0.16761
 Cu247 Cu 0.49054 0.14636 0.12542
 Cu248 Cu 0.45221 0.19468 0.18208
 C249 C 0.55600 0.19963 0.14205
 C250 C 0.39223 0.13584 0.16579
 C251 C 0.43297 0.20304 0.09573
 C252 C 0.50005 0.13802 0.21667
 O253 O 0.54926 0.12974 0.86186
 O254 O 0.42980 0.18103 0.85932
 O255 O 0.47142 0.12806 0.81734
 O256 O 0.50551 0.18304 0.90842
 O257 O 0.54949 0.21763 0.86083
 O258 O 0.51577 0.16178 0.76879
 O259 O 0.47279 0.21681 0.81269
 O260 O 0.59235 0.16592 0.81580
 Cu261 Cu 0.48506 0.15212 0.86707
 Cu262 Cu 0.53642 0.19421 0.80946
 C263 C 0.59031 0.13834 0.83786
 C264 C 0.43157 0.20820 0.83635
 C265 C 0.48921 0.13487 0.77776
 C266 C 0.53199 0.20998 0.90030
 O267 O 0.49665 0.81746 0.08949
 O268 O 0.53295 0.87224 0.18173
 O269 O 0.57849 0.82462 0.12946
 O270 O 0.45060 0.86751 0.14074
 O271 O 0.41860 0.82776 0.18751
 O272 O 0.54595 0.78408 0.17480
 O273 O 0.50118 0.83304 0.22934
 O274 O 0.46266 0.77936 0.13781
 Cu275 Cu 0.51741 0.84952 0.13053
 Cu276 Cu 0.47937 0.80237 0.18779
 C277 C 0.47478 0.78873 0.09802
 C278 C 0.52228 0.86203 0.22140
 C279 C 0.58288 0.79597 0.14843
 C280 C 0.41340 0.85549 0.16662
 O281 O 0.79881 0.52557 0.76523
 O282 O 0.74344 0.45629 0.83797
 O283 O 0.80774 0.45830 0.76460
 O284 O 0.74038 0.52249 0.84104
 O285 O 0.67192 0.51949 0.80342
 O286 O 0.74055 0.45656 0.72541
 O287 O 0.67608 0.45410 0.79893
 O288 O 0.73092 0.52276 0.72696
 Cu289 Cu 0.77972 0.49078 0.80572
 Cu290 Cu 0.69827 0.48801 0.75961
 C291 C 0.77424 0.53567 0.73346
 C292 C 0.69912 0.44456 0.83173
 C293 C 0.78616 0.44696 0.73169
 C294 C 0.69396 0.53085 0.83622
 O295 O 0.26222 0.46114 0.16557
 O296 O 0.20297 0.52898 0.24093
 O297 O 0.26658 0.52784 0.16805
 O298 O 0.20290 0.46224 0.24185
 O299 O 0.26944 0.46253 0.28190
 O300 O 0.33546 0.52479 0.20517
 O301 O 0.27109 0.52825 0.27913
 O302 O 0.32894 0.45885 0.20526
 Cu303 Cu 0.22682 0.49512 0.20030
 Cu304 Cu 0.30812 0.49345 0.24666
 C305 C 0.30630 0.44900 0.17204
 C306 C 0.22635 0.53971 0.27312
 C307 C 0.31267 0.53652 0.17333
 C308 C 0.22456 0.45228 0.27534
 O309 O 0.91667 0.47652 0.18202
 O310 O 0.81787 0.53783 0.15062
 O311 O 0.88779 0.53941 0.21053
 O312 O 0.85338 0.47777 0.12520
 O313 O 0.79379 0.45488 0.17382
 O314 O 0.82999 0.51578 0.25972
 O315 O 0.76060 0.51531 0.20131
 O316 O 0.85893 0.45389 0.23238
 Cu317 Cu 0.87481 0.51122 0.16287
 Cu318 Cu 0.80484 0.48322 0.22210
 C319 C 0.90380 0.45374 0.21093
 C320 C 0.77175 0.53592 0.16947
 C321 C 0.86579 0.53745 0.25002
 C322 C 0.81897 0.45530 0.13531
 O323 O 0.13875 0.52393 0.88000
 O324 O 0.11170 0.46444 0.79038
 O325 O 0.17910 0.46658 0.85094
 O326 O 0.07931 0.52711 0.81830
 O327 O 0.13766 0.55183 0.77050
 O328 O 0.23704 0.49195 0.80342
 O329 O 0.17018 0.49013 0.74377
 O330 O 0.19864 0.54951 0.83434
 Cu331 Cu 0.12101 0.49242 0.83867
 Cu332 Cu 0.19156 0.52323 0.78301
 C333 C 0.17351 0.54653 0.87268
 C334 C 0.13594 0.46712 0.75186
 C335 C 0.22578 0.47024 0.83394
 C336 C 0.09196 0.55049 0.79007
 C337 C 0.35110 0.39607 0.08059
 C338 C 0.39629 0.39693 0.10086
 C339 C 0.38451 0.41546 0.13913
 C340 C 0.33307 0.42483 0.13929
 O341 O 0.31246 0.41300 0.10381
 H342 H 0.43351 0.38551 0.08892
 H343 H 0.41075 0.42239 0.16325
 C344 C 0.68994 0.58795 0.11217
 C345 C 0.65255 0.57556 0.14379
 C346 C 0.67866 0.55520 0.17047
 C347 C 0.73007 0.55666 0.15316
 O348 O 0.73710 0.57655 0.11774
 H349 H 0.61119 0.58064 0.14684
 H350 H 0.66210 0.54044 0.19861
 C351 C 0.65664 0.39248 0.92192
 C352 C 0.60869 0.40024 0.90877
 C353 C 0.61876 0.41912 0.87121
 C354 C 0.67209 0.42183 0.86476
 O355 O 0.69533 0.40556 0.89544
 H356 H 0.57103 0.39282 0.92460
 H357 H 0.59058 0.43079 0.85190
 C358 C 0.22413 0.60139 0.94978
 C359 C 0.17507 0.59813 0.97194
 C360 C 0.14954 0.57685 0.94582
 C361 C 0.18467 0.56928 0.90935
 O362 O 0.23013 0.58402 0.91163
 H363 H 0.16008 0.60952 1.00364
 H364 H 0.10999 0.56800 0.95236
 C365 C 0.07998 0.27206 0.43209
 C366 C 0.04634 0.26492 0.46935
 C367 C 0.06908 0.23876 0.48968
 C368 C 0.11514 0.23224 0.46363
 O369 O 0.12214 0.25235 0.42848
 H370 H 0.00880 0.27659 0.47950
 H371 H 0.05450 0.22635 0.52037
 C372 C 0.04873 0.74845 0.63980
 C373 C 0.04313 0.77882 0.66407
 C374 C 0.07330 0.80200 0.64015
 C375 C 0.09551 0.78407 0.60330
 O376 O 0.08073 0.75152 0.60272
 H377 H 0.01800 0.78386 0.69450
 H378 H 0.07777 0.82899 0.64799
 C379 C 0.92097 0.73830 0.35363
 C380 C 0.89299 0.74922 0.31997
 C381 C 0.85900 0.77338 0.33941
 C382 C 0.87002 0.77584 0.38297
 O383 O 0.90727 0.75448 0.39181
 H384 H 0.89590 0.73986 0.28590
 H385 H 0.82948 0.78728 0.32394
 C386 C 0.90618 0.25072 0.63039
 C387 C 0.89130 0.22469 0.65958
 C388 C 0.86741 0.20110 0.63511
 C389 C 0.86887 0.21481 0.59313
 O390 O 0.89255 0.24482 0.58998
 H391 H 0.89863 0.22262 0.69407
 H392 H 0.85125 0.17671 0.64629
 C393 C 0.31007 0.07001 0.20429
 C394 C 0.27241 0.09552 0.20658
 C395 C 0.29737 0.12421 0.18967
 C396 C 0.34789 0.11365 0.17776
 O397 O 0.35549 0.08100 0.18650
 H398 H 0.23331 0.09442 0.22315
 H399 H 0.28166 0.15006 0.18894
 C400 C 0.67002 0.07172 0.79508
 C401 C 0.70929 0.09412 0.80250
 C402 C 0.68484 0.12176 0.82434
 C403 C 0.63288 0.11356 0.82947
 O404 O 0.62399 0.08339 0.81165
 H405 H 0.74981 0.09217 0.78956
 H406 H 0.70211 0.14606 0.83207
 C407 C 0.37599 0.93941 0.78995
 C408 C 0.35605 0.94569 0.83354
 C409 C 0.37884 0.92171 0.85789
 C410 C 0.41053 0.90253 0.82719
 O411 O 0.40897 0.91320 0.78595
 H412 H 0.32898 0.96576 0.84609
 H413 H 0.37321 0.91860 0.89366
 C414 C 0.55861 0.92670 0.29372
 C415 C 0.52852 0.90784 0.32499
 C416 C 0.51178 0.88040 0.30211
 C417 C 0.53269 0.88470 0.25859
 O418 O 0.56112 0.91279 0.25335
 H419 H 0.52040 0.91322 0.36031
 H420 H 0.48675 0.85997 0.31539
 C421 C 0.34918 0.27534 0.87297
 C422 C 0.31108 0.25117 0.86945
 C423 C 0.33646 0.22294 0.85003
 C424 C 0.38781 0.23234 0.84244
 O425 O 0.39538 0.26402 0.85616
 H426 H 0.27115 0.25238 0.88420
 H427 H 0.32049 0.19757 0.84613
 C428 C 0.63089 0.71583 0.92324
 C429 C 0.65943 0.71620 0.88199
 C430 C 0.63442 0.73910 0.85765
 C431 C 0.59308 0.75131 0.88620
 O432 O 0.59067 0.73717 0.92600
 H433 H 0.69374 0.70110 0.87084
 H434 H 0.64554 0.74658 0.82356
 C435 C 0.43575 0.72286 0.02947
 C436 C 0.47502 0.73547 -0.00029
 C437 C 0.49406 0.76310 0.02086
 C438 C 0.46513 0.76495 0.06193
 O439 O 0.42976 0.74064 0.06720
 H440 H 0.48704 0.72630 -0.03382
 H441 H 0.52574 0.77950 0.00825
 C442 C 0.65459 0.25709 0.10739
 C443 C 0.68465 0.22753 0.10447
 C444 C 0.65238 0.20211 0.12110
 C445 C 0.60515 0.21808 0.13316
 O446 O 0.60650 0.25140 0.12510
 H447 H 0.72360 0.22425 0.08797
 H448 H 0.66095 0.17480 0.12098
 C449 C 0.33439 0.06542 0.59700
 C450 C 0.37696 0.07731 0.57040
 C451 C 0.35982 0.10604 0.55073
 C452 C 0.30810 0.10914 0.56666
 O453 O 0.29256 0.08462 0.59478
 H454 H 0.41605 0.06687 0.56690
 H455 H 0.38183 0.12217 0.52670
 C456 C 0.72809 0.08125 0.35455
 C457 C 0.76477 0.09704 0.32512
 C458 C 0.78829 0.12032 0.35019
 C459 C 0.76394 0.11710 0.39273
 O460 O 0.72758 0.09338 0.39572
 H461 H 0.77401 0.09170 0.28989
 H462 H 0.82025 0.13702 0.33917
 C463 C 0.68310 0.92168 0.61750
 C464 C 0.63842 0.90538 0.60810
 C465 C 0.65447 0.87944 0.57923
 C466 C 0.70781 0.88179 0.57295
 O467 O 0.72552 0.90743 0.59625
 H468 H 0.59880 0.91172 0.62083
 H469 H 0.63010 0.86142 0.56374
 C470 C 0.30436 0.92702 0.38514
 C471 C 0.34854 0.91168 0.39787
 C472 C 0.33122 0.88723 0.42772
 C473 C 0.27781 0.88957 0.43102
 O474 O 0.26132 0.91368 0.40521
 H475 H 0.38852 0.91731 0.38624
 H476 H 0.35466 0.86982 0.44508
 C477 C 0.08782 0.40439 0.68265
 C478 C 0.11971 0.42090 0.65020
 C479 C 0.14310 0.44633 0.67202
 C480 C 0.12346 0.44358 0.71611
 O481 O 0.08996 0.41810 0.72272
 H482 H 0.12494 0.41521 0.61482
 H483 H 0.17044 0.46503 0.65748
 C484 C 0.14334 0.59911 0.33318
 C485 C 0.17306 0.59129 0.36699
 C486 C 0.21031 0.56892 0.34830
 C487 C 0.19986 0.56457 0.30476
 O488 O 0.15937 0.58291 0.29547
 H489 H 0.16834 0.60096 0.40094
 H490 H 0.24037 0.55642 0.36472
 C491 C 0.97539 0.38416 0.24662
 C492 C 1.00164 0.38721 0.20464
 C493 C 0.97901 0.41450 0.18609
 C494 C 0.94040 0.42585 0.21800
 O495 O 0.93803 0.40753 0.25483
 H496 H 1.03450 0.37210 0.18996
 H497 H 0.98901 0.42469 0.15310
 C498 C 0.84586 0.59996 0.67511
 C499 C 0.81661 0.59041 0.64167
 C500 C 0.78423 0.56566 0.65984
 C501 C 0.79696 0.56173 0.70272
 O502 O 0.83435 0.58260 0.71219
 H503 H 0.81862 0.60043 0.60824
 H504 H 0.75575 0.55149 0.64348
 C505 C 0.64658 0.58323 0.92724
 C506 C 0.59930 0.57287 0.91477
 C507 C 0.61096 0.55294 0.87761
 C508 C 0.66438 0.55227 0.87048
 O509 O 0.68623 0.57059 0.90053
 H510 H 0.56091 0.57959 0.93037
 H511 H 0.58386 0.53975 0.85861
 C512 C 0.30826 0.41786 0.89043
 C513 C 0.34610 0.43558 0.86450
 C514 C 0.31993 0.45670 0.83885
 C515 C 0.26803 0.45053 0.85106
 O516 O 0.26071 0.42695 0.88243
 H517 H 0.38780 0.43319 0.86411
 H518 H 0.33665 0.47496 0.81470
 C519 C 0.35591 0.59067 0.08559
 C520 C 0.40108 0.57178 0.08690
 C521 C 0.39188 0.55100 0.12282
 C522 C 0.34142 0.55809 0.13995
 O523 O 0.31944 0.58228 0.11764
 H524 H 0.43633 0.57289 0.06421
 H525 H 0.41761 0.53143 0.13355
 C526 C 0.77628 0.38904 0.06864
 C527 C 0.82774 0.38916 0.05102
 C528 C 0.84983 0.41505 0.07279
 C529 C 0.81058 0.42835 0.10264
 O530 O 0.76575 0.41269 0.10033
 H531 H 0.84663 0.37280 0.02477
 H532 H 0.89004 0.42284 0.06827
 C533 C 0.87085 0.71000 0.57415
 C534 C 0.86166 0.69330 0.53524
 C535 C 0.83178 0.71546 0.51422
 C536 C 0.82609 0.74443 0.54112
 O537 O 0.84969 0.74123 0.57770
 H538 H 0.87549 0.66811 0.52345
 H539 H 0.81929 0.71208 0.48138
 C540 C 0.93810 0.25099 0.35710
 C541 C 0.94968 0.21954 0.33637
 C542 C 0.92443 0.19581 0.36327
 C543 C 0.89872 0.21443 0.39805
 O544 O 0.90638 0.24798 0.39435
 H545 H 0.97628 0.21429 0.30687
 H546 H 0.92547 0.16814 0.35868
 C547 C 0.10455 0.25931 0.65025
 C548 C 0.11500 0.23689 0.68347
 C549 C 0.14740 0.21232 0.66273
 C550 C 0.15516 0.22218 0.61888
 O551 O 0.12916 0.25046 0.61117
 H552 H 0.09843 0.23718 0.71795
 H553 H 0.16190 0.18934 0.67730
 C554 C 0.12290 0.73638 0.37420
 C555 C 0.15253 0.75631 0.34378
 C556 C 0.17577 0.77991 0.36879
 C557 C 0.15886 0.77242 0.41242
 O558 O 0.12661 0.74621 0.41588
 H559 H 0.15557 0.75453 0.30779
 H560 H 0.20040 0.80091 0.35673
 C561 C 0.65765 0.92740 0.79688
 C562 C 0.68032 0.92477 0.83602
 C563 C 0.65234 0.90002 0.85996
 C564 C 0.61578 0.88935 0.83289
 O565 O 0.61889 0.90598 0.79504
 H566 H 0.71126 0.94026 0.84678
 H567 H 0.65744 0.89124 0.89309
 C568 C 0.32253 0.91730 0.20716
 C569 C 0.28800 0.89056 0.20604
 C570 C 0.31679 0.86353 0.18684
 C571 C 0.36620 0.87622 0.17691
 O572 O 0.36959 0.90865 0.18926
 H573 H 0.24841 0.88975 0.22159
 H574 H 0.30436 0.83718 0.18364
 C575 C 0.54403 0.07787 0.29036
 C576 C 0.51113 0.09629 0.32105
 C577 C 0.49094 0.12186 0.29748
 C578 C 0.51286 0.11702 0.25416
 O579 O 0.54505 0.09030 0.24964
 H580 H 0.50366 0.09201 0.35650
 H581 H 0.46318 0.14148 0.31021
 C582 C 0.45140 0.06616 0.71390
 C583 C 0.49360 0.07576 0.68501
 C584 C 0.51252 0.10447 0.70399
 C585 C 0.48044 0.10984 0.74298
 O586 O 0.44345 0.08672 0.74900
 H587 H 0.50823 0.06362 0.65368
 H588 H 0.54642 0.11901 0.69173
 C589 C 0.66318 0.73176 0.09878
 C590 C 0.69964 0.75751 0.09486
 C591 C 0.67609 0.78514 0.11751
 C592 C 0.62760 0.77379 0.13418
 O593 O 0.61996 0.74154 0.12287
 H594 H 0.73645 0.75735 0.07420
 H595 H 0.69060 0.81114 0.11833
 C596 C 0.37066 0.25788 0.02677
 C597 C 0.35395 0.22718 0.01033
 C598 C 0.37720 0.20225 0.03288
 C599 C 0.40576 0.21976 0.06166
 O600 O 0.40202 0.25357 0.05803
 H601 H 0.32900 0.22352 -0.01583
 H602 H 0.37300 0.17469 0.02952
 C603 C 0.57106 0.27190 0.97444
 C604 C 0.52438 0.26374 0.99810
 C605 C 0.50438 0.23846 0.97367
 C606 C 0.53998 0.23352 0.93692
 O607 O 0.58063 0.25373 0.93714
 H608 H 0.50777 0.27428 1.02984
 H609 H 0.46792 0.22545 0.98097
 C610 C 0.33297 0.72681 0.90451
 C611 C 0.32853 0.72246 0.85970
 C612 C 0.35834 0.74756 0.83899
 C613 C 0.37931 0.76494 0.87277
 O614 O 0.36371 0.75258 0.91237
 H615 H 0.31070 0.70121 0.84379
 H616 H 0.36771 0.75062 0.80346
 C617 C 0.74495 0.94247 0.36142
 C618 C 0.79703 0.94284 0.34620
 C619 C 0.81938 0.91869 0.37075
 C620 C 0.77896 0.90511 0.39833
 O621 O 0.73380 0.91954 0.39290
 H622 H 0.81641 0.95931 0.32108
 H623 H 0.86000 0.91143 0.36837
 C624 C 0.24455 0.93592 0.64499
 C625 C 0.19212 0.94125 0.65651
 C626 C 0.16818 0.91847 0.63116
 C627 C 0.20773 0.90058 0.60656
 O628 O 0.25428 0.91111 0.61471
 H629 H 0.17361 0.96037 0.67940
 H630 H 0.12683 0.91566 0.62999
 C631 C 0.29893 0.07857 0.36590
 C632 C 0.33862 0.10200 0.35973
 C633 C 0.32275 0.12940 0.38604
 C634 C 0.27463 0.12064 0.40665
 O635 O 0.25973 0.08974 0.39433
 H636 H 0.37485 0.09935 0.33844
 H637 H 0.34461 0.15248 0.39105
 C638 C 0.68981 0.07291 0.61798
 C639 C 0.64753 0.09277 0.60990
 C640 C 0.66694 0.11815 0.58245
 C641 C 0.71961 0.11183 0.57552
 O642 O 0.73380 0.08437 0.59711
 H643 H 0.60738 0.08940 0.62303
 H644 H 0.64526 0.13866 0.56875
 C645 C 0.92577 0.59523 0.31890
 C646 C 0.89176 0.58060 0.35149
 C647 C 0.86375 0.55765 0.32971
 C648 C 0.88279 0.55980 0.28539
 O649 O 0.92047 0.58267 0.27864
 H650 H 0.88808 0.58593 0.38695
 H651 H 0.83370 0.54084 0.34445
 C652 C 0.87415 0.39031 0.67141
 C653 C 0.84415 0.39732 0.63751
 C654 C 0.80544 0.41864 0.65615
 C655 C 0.81534 0.42335 0.69977
 O656 O 0.85690 0.40612 0.70917
 H657 H 0.84963 0.38776 0.60351
 H658 H 0.77456 0.43011 0.63968
 C659 C 0.01537 0.61681 0.75139
 C660 C -0.01000 0.61417 0.79377
 C661 C 0.01466 0.58827 0.81329
 C662 C 0.05374 0.57722 0.78166
 O663 O 0.05433 0.59441 0.74386
 H664 H -0.04367 0.62864 0.80817
 H665 H 0.00568 0.57878 0.84677
 C666 C 0.14026 0.39583 0.33575
 C667 C 0.16243 0.40936 0.37147
 C668 C 0.19947 0.43134 0.35319
 C669 C 0.19610 0.42986 0.30791
 O670 O 0.16030 0.40830 0.29724
 H671 H 0.15303 0.40363 0.40638
 H672 H 0.22458 0.44745 0.37079
   
