data_POSCAR
  _audit_creation_date              2014-09-24
  _audit_creation_method            'ToBaCCo'
  _symmetry_space_group_name_H-M    'P1'
  _symmetry_Int_Tables_number       1
  _symmetry_cell_setting            triclinic
  loop_
  _symmetry_equiv_pos_as_xyz
 x,y,z
_cell_length_a 50.3299
_cell_length_b 50.2459
_cell_length_c 50.4688
_cell_angle_alpha 89.964400
_cell_angle_beta 89.994900
_cell_angle_gamma 89.991000
loop_
  _atom_site_label
  _atom_site_type_symbol
  _atom_site_fract_x
  _atom_site_fract_y
  _atom_site_fract_z
N1 N 0.29150 0.36687 1.34922
 N2 N 0.29241 0.34792 1.36718
 C3 C 0.27221 0.35123 1.38436
 C4 C 0.25789 0.37345 1.37676
 C5 C 0.27066 0.38292 1.35436
 H6 H 0.26816 0.33850 1.40116
 H7 H 0.26522 0.40016 1.34271
 Cu8 Cu 0.31981 0.32062 1.36632
 Cu9 Cu 0.31750 0.36927 1.32063
 Cu10 Cu 0.36699 0.32125 1.31910
 N11 N 0.34790 0.29404 1.36555
 N12 N 0.36621 0.29436 1.34696
 C13 C 0.38299 0.27385 1.35080
 C14 C 0.37472 0.25994 1.37297
 C15 C 0.35240 0.27328 1.38188
 H16 H 0.39991 0.26933 1.33838
 H17 H 0.34039 0.26818 1.39891
 N18 N 0.36437 0.35010 1.29268
 N19 N 0.34551 0.36837 1.29331
 C20 C 0.34906 0.38528 1.27289
 C21 C 0.37116 0.37730 1.25878
 C22 C 0.38041 0.35494 1.27181
 H23 H 0.33657 0.40224 1.26856
 H24 H 0.39759 0.34318 1.26648
 H25 H 0.32676 0.32913 1.31923
 H26 H 0.34810 0.35049 1.34076
 N27 N 1.20796 0.63360 0.84884
 N28 N 1.20700 0.65254 0.86679
 C29 C 1.22724 0.64929 0.88393
 C30 C 1.24157 0.62713 0.87634
 C31 C 1.22883 0.61761 0.85399
 H32 H 1.23123 0.66195 0.90078
 H33 H 1.23429 0.60033 0.84244
 Cu34 Cu 1.17925 0.67945 0.86593
 Cu35 Cu 1.18191 0.63109 0.82027
 Cu36 Cu 1.13232 0.67915 0.81865
 N37 N 1.15152 0.70636 0.86507
 N38 N 1.13322 0.70610 0.84646
 C39 C 1.11649 0.72665 0.85027
 C40 C 1.12480 0.74051 0.87244
 C41 C 1.14709 0.72713 0.88136
 H42 H 1.09952 0.73115 0.83791
 H43 H 1.15905 0.73212 0.89845
 N44 N 1.13496 0.65022 0.79230
 N45 N 1.15384 0.63196 0.79298
 C46 C 1.15033 0.61504 0.77259
 C47 C 1.12824 0.62299 0.75844
 C48 C 1.11895 0.64535 0.77142
 H49 H 1.16285 0.59811 0.76828
 H50 H 1.10179 0.65710 0.76602
 H51 H 1.17245 0.67117 0.81886
 H52 H 1.15102 0.64970 0.84013
 N53 N 0.70636 -0.13577 0.15141
 N54 N 0.70553 -0.15457 0.13330
 C55 C 0.72601 -0.15119 0.11643
 C56 C 0.74032 -0.12914 0.12446
 C57 C 0.72733 -0.11984 0.14670
 H58 H 0.73030 -0.16379 0.09961
 H59 H 0.73278 -0.10275 0.15855
 Cu60 Cu 0.67785 -0.18167 0.13388
 Cu61 Cu 0.68035 -0.13331 0.17983
 Cu62 Cu 0.63092 -0.18137 0.18120
 N63 N 0.65000 -0.20861 0.13481
 N64 N 0.63178 -0.20829 0.15349
 C65 C 0.61501 -0.22881 0.14988
 C66 C 0.62310 -0.24278 0.12773
 C67 C 0.64541 -0.22947 0.11862
 H68 H 0.59814 -0.23325 0.16241
 H69 H 0.65732 -0.23460 0.10153
 N70 N 0.63336 -0.15251 0.20750
 N71 N 0.65221 -0.13422 0.20695
 C72 C 0.64857 -0.11736 0.22736
 C73 C 0.62645 -0.12544 0.24137
 C74 C 0.61725 -0.14774 0.22829
 H75 H 0.66104 -0.10042 0.23179
 H76 H 0.60009 -0.15954 0.23359
 H77 H 0.67126 -0.17338 0.18109
 H78 H 0.64983 -0.15185 0.15986
 N79 N -0.20697 1.13625 -0.34849
 N80 N -0.20646 1.15540 -0.36627
 C81 C -0.22692 1.15203 -0.38317
 C82 C -0.24087 1.12962 -0.37547
 C83 C -0.22771 1.12010 -0.35342
 H84 H -0.23132 1.16476 -0.39988
 H85 H -0.23279 1.10265 -0.34193
 Cu86 Cu -0.17859 1.18229 -0.36557
 Cu87 Cu -0.18068 1.13344 -0.32029
 Cu88 Cu -0.13088 1.18115 -0.31926
 N89 N -0.15066 1.20916 -0.36501
 N90 N -0.13195 1.20826 -0.34683
 C91 C -0.11482 1.22841 -0.35077
 C92 C -0.12319 1.24275 -0.37259
 C93 C -0.14604 1.23004 -0.38120
 H94 H -0.09749 1.23231 -0.33872
 H95 H -0.15821 1.23551 -0.39800
 N96 N -0.13327 1.15217 -0.29305
 N97 N -0.15229 1.13407 -0.29341
 C98 C -0.14876 1.11731 -0.27288
 C99 C -0.12652 1.12527 -0.25901
 C100 C -0.11714 1.14738 -0.27228
 H101 H -0.16145 1.10059 -0.26822
 H102 H -0.09992 1.15911 -0.26706
 H103 H -0.17110 1.17330 -0.31878
 H104 H -0.15023 1.15193 -0.34070
 N105 N 0.70781 0.63608 0.65205
 N106 N 0.70703 0.65498 0.63402
 C107 C 0.72733 0.65148 0.61696
 C108 C 0.74148 0.62925 0.62481
 C109 C 0.72860 0.61998 0.64714
 H110 H 0.73143 0.66392 0.59996
 H111 H 0.73388 0.60269 0.65880
 Cu112 Cu 0.67904 0.68174 0.63454
 Cu113 Cu 0.68152 0.63325 0.68024
 Cu114 Cu 0.63118 0.68044 0.68069
 N115 N 0.65102 0.70851 0.63502
 N116 N 0.63217 0.70749 0.65305
 C117 C 0.61505 0.72764 0.64907
 C118 C 0.62360 0.74213 0.62746
 C119 C 0.64650 0.72950 0.61895
 H120 H 0.59763 0.73152 0.66101
 H121 H 0.65882 0.73518 0.60232
 N122 N 0.63368 0.65159 0.70702
 N123 N 0.65306 0.63386 0.70705
 C124 C 0.64964 0.61726 0.72773
 C125 C 0.62704 0.62486 0.74122
 C126 C 0.61736 0.64663 0.72760
 H127 H 0.66263 0.60087 0.73273
 H128 H 0.59977 0.65799 0.73244
 H129 H 0.65100 0.65124 0.65958
 H130 H 0.67155 0.67298 0.68142
 N131 N 0.79342 0.36432 0.15125
 N132 N 0.79459 0.34584 0.13283
 C133 C 0.77420 0.34925 0.11587
 C134 C 0.75959 0.37099 0.12417
 C135 C 0.77230 0.38009 0.14666
 H136 H 0.77018 0.33690 0.09880
 H137 H 0.76657 0.39690 0.15875
 Cu138 Cu 0.82247 0.31902 0.13345
 Cu139 Cu 0.81935 0.36672 0.17981
 Cu140 Cu 0.86922 0.31904 0.18072
 N141 N 0.85028 0.29208 0.13407
 N142 N 0.86845 0.29235 0.15280
 C143 C 0.88516 0.27178 0.14922
 C144 C 0.87704 0.25783 0.12713
 C145 C 0.85483 0.27118 0.11792
 H146 H 0.90195 0.26723 0.16179
 H147 H 0.84292 0.26597 0.10085
 N148 N 0.86657 0.34768 0.20720
 N149 N 0.84749 0.36573 0.20694
 C150 C 0.85103 0.38242 0.22750
 C151 C 0.87338 0.37450 0.24124
 C152 C 0.88279 0.35247 0.22789
 H153 H 0.83838 0.39916 0.23218
 H154 H 0.90018 0.34089 0.23290
 H155 H 0.85017 0.34869 0.15973
 H156 H 0.82885 0.32674 0.18066
 N157 N 0.29171 0.13329 0.84873
 N158 N 0.29270 0.15220 0.86670
 C159 C 0.27237 0.14905 0.88375
 C160 C 0.25798 0.12697 0.87610
 C161 C 0.27074 0.11740 0.85379
 H162 H 0.26833 0.16173 0.90056
 H163 H 0.26525 0.10013 0.84223
 Cu164 Cu 0.32060 0.17891 0.86636
 Cu165 Cu 0.31779 0.13072 0.82028
 Cu166 Cu 0.36730 0.17870 0.81870
 N167 N 0.34816 0.20595 0.86503
 N168 N 0.36642 0.20569 0.84640
 C169 C 0.38307 0.22631 0.85012
 C170 C 0.37474 0.24021 0.87222
 C171 C 0.35254 0.22682 0.88121
 H172 H 0.40003 0.23086 0.83775
 H173 H 0.34058 0.23191 0.89827
 N174 N 0.36477 0.14974 0.79245
 N175 N 0.34590 0.13150 0.79311
 C176 C 0.34944 0.11456 0.77274
 C177 C 0.37155 0.12252 0.75863
 C178 C 0.38082 0.14487 0.77161
 H179 H 0.33693 0.09763 0.76840
 H180 H 0.39798 0.15663 0.76623
 H181 H 0.34862 0.14919 0.84026
 H182 H 0.32706 0.17084 0.81920
 N183 N 0.20792 0.86712 0.34898
 N184 N 0.20661 0.84848 0.36725
 C185 C 0.22681 0.85172 0.38443
 C186 C 0.24150 0.87352 0.37651
 C187 C 0.22900 0.88286 0.35394
 H188 H 0.23066 0.83920 0.40143
 H189 H 0.23483 0.89980 0.34205
 Cu190 Cu 0.17879 0.82172 0.36640
 Cu191 Cu 0.18212 0.86948 0.32019
 Cu192 Cu 0.13259 0.82131 0.31856
 N193 N 0.15128 0.79464 0.36552
 N194 N 0.13333 0.79456 0.34658
 C195 C 0.11690 0.77375 0.35017
 C196 C 0.12501 0.76009 0.37251
 C197 C 0.14687 0.77384 0.38181
 H198 H 0.10031 0.76883 0.33746
 H199 H 0.15864 0.76895 0.39906
 N200 N 0.13537 0.85012 0.29210
 N201 N 0.15421 0.86841 0.29276
 C202 C 0.15066 0.88535 0.27238
 C203 C 0.12857 0.87736 0.25827
 C204 C 0.11934 0.85498 0.27124
 H205 H 0.16308 0.90237 0.26810
 H206 H 0.10214 0.84325 0.26591
 H207 H 0.15104 0.85108 0.33974
 H208 H 0.17279 0.82936 0.31909
 Zn209 Zn -0.00301 0.96459 0.01300
 Zn210 Zn -0.03415 1.01189 -0.00329
 Zn211 Zn 0.02034 1.01931 0.02010
 Zn212 Zn 0.01318 0.99575 -0.03425
 O213 O -0.00080 0.99798 -0.00101
 O214 O -0.03616 0.95503 0.02167
 O215 O -0.03726 1.04168 0.01515
 O216 O 0.03307 1.00164 0.04871
 O217 O -0.05938 0.99036 0.00948
 O218 O 0.01547 0.96165 0.04277
 O219 O 0.00258 1.04798 0.03276
 O220 O 0.04292 1.01438 -0.03729
 O221 O -0.04362 1.02068 -0.03630
 O222 O 0.04896 1.03214 0.00244
 O223 O -0.00831 1.00860 -0.05945
 O224 O 0.02195 0.96257 -0.04366
 O225 O 0.00992 0.93932 -0.00839
 C226 C -0.05806 0.96736 0.01975
 C227 C -0.02142 1.05514 0.02930
 C228 C 0.02963 0.97766 0.05605
 C229 C 0.05622 1.02870 -0.02146
 C230 C -0.03128 1.01889 -0.05812
 C231 C 0.02016 0.94065 -0.03132
 Zn232 Zn 0.48662 0.00434 0.46590
 Zn233 Zn 0.47950 -0.01939 0.52028
 Zn234 Zn 0.53397 -0.01190 0.49683
 Zn235 Zn 0.50277 0.03540 0.51313
 O236 O 0.50061 0.00201 0.49914
 O237 O 0.45688 -0.01428 0.46288
 O238 O 0.49733 -0.04811 0.53294
 O239 O 0.54343 -0.02061 0.46378
 O240 O 0.45085 -0.03217 0.50259
 O241 O 0.50811 -0.00846 0.44067
 O242 O 0.53714 -0.04174 0.51529
 O243 O 0.53592 0.04497 0.52176
 O244 O 0.46674 -0.00173 0.54891
 O245 O 0.55917 0.00967 0.50959
 O246 O 0.48430 0.03828 0.54289
 O247 O 0.48980 0.06074 0.49177
 O248 O 0.47779 0.03756 0.45650
 C249 C 0.44358 -0.02864 0.47870
 C250 C 0.52133 -0.05525 0.52947
 C251 C 0.53107 -0.01875 0.44197
 C252 C 0.55783 0.03266 0.51984
 C253 C 0.47015 0.02227 0.55620
 C254 C 0.47954 0.05946 0.46885
 Zn255 Zn 0.96618 0.48699 0.49694
 Zn256 Zn 1.02076 0.47953 0.52042
 Zn257 Zn 1.01352 0.50316 0.46602
 Zn258 Zn 0.99732 0.53425 0.51322
 O259 O 0.99956 0.50087 0.49927
 O260 O 0.96305 0.45720 0.51542
 O261 O 1.04946 0.46673 0.50267
 O262 O 0.99210 0.49031 0.44083
 O263 O 1.00287 0.45082 0.53310
 O264 O 0.95673 0.47824 0.46389
 O265 O 1.04332 0.48464 0.46299
 O266 O 1.01010 0.55955 0.49177
 O267 O 1.03353 0.49731 0.54906
 O268 O 1.02215 0.53634 0.45653
 O269 O 1.01587 0.53726 0.54292
 O270 O 0.96419 0.54382 0.52186
 O271 O 0.94093 0.50856 0.50963
 C272 C 0.97885 0.44370 0.52961
 C273 C 1.05670 0.47032 0.47876
 C274 C 0.96912 0.48007 0.44210
 C275 C 1.02027 0.55826 0.46883
 C276 C 1.03009 0.52134 0.55627
 C277 C 0.94227 0.53156 0.51987
 Zn278 Zn 0.50298 0.46542 1.01360
 Zn279 Zn 0.48690 0.49651 0.96635
 Zn280 Zn 0.47970 0.52019 1.02073
 Zn281 Zn 0.53425 0.51266 0.99728
 O282 O 0.50084 0.49881 0.99960
 O283 O 0.49010 0.44013 0.99223
 O284 O 0.45714 0.51508 0.96328
 O285 O 0.46689 0.50246 1.04940
 O286 O 0.47818 0.46332 0.95692
 O287 O 0.48447 0.46247 1.04335
 O288 O 0.45103 0.53298 1.00295
 O289 O 0.53745 0.54246 1.01575
 O290 O 0.50840 0.50929 0.94115
 O291 O 0.49761 0.54889 1.03336
 O292 O 0.54374 0.52138 0.96423
 O293 O 0.55944 0.49100 1.00996
 O294 O 0.53608 0.45578 1.02217
 C295 C 0.47996 0.44141 0.96927
 C296 C 0.44378 0.52941 0.97905
 C297 C 0.47028 0.47843 1.05667
 C298 C 0.52164 0.55599 1.02991
 C299 C 0.53139 0.51952 0.94242
 C300 C 0.55803 0.46798 1.02016
 N301 N 1.20399 0.38209 0.42327
 C302 C 1.19193 0.40419 0.41363
 N303 N 1.20186 0.41597 0.39155
 N304 N 1.22326 0.40601 0.37953
 C305 C 1.23545 0.38391 0.38918
 N306 N 1.22537 0.37214 0.41126
 C307 C 1.16882 0.41490 0.42651
 C308 C 1.14926 0.42415 0.43681
 C309 C 1.12568 0.43569 0.44800
 N310 N 1.10997 0.45130 0.43275
 N311 N 1.08808 0.46220 0.44276
 C312 C 1.08105 0.45792 0.46839
 N313 N 1.09681 0.44224 0.48372
 N314 N 1.11879 0.43130 0.47366
 N315 N 0.29867 0.58396 0.89201
 C316 C 0.30858 0.59574 0.91408
 N317 N 0.29650 0.61784 0.92369
 N318 N 0.27515 0.62781 0.91163
 C319 C 0.26516 0.61605 0.88954
 N320 N 0.27732 0.59394 0.87994
 C321 C 0.33165 0.58499 0.92699
 C322 C 0.35120 0.57569 0.93728
 C323 C 0.37478 0.56409 0.94842
 N324 N 0.39044 0.54848 0.93313
 N325 N 0.41235 0.53756 0.94310
 C326 C 0.41943 0.54183 0.96872
 N327 N 0.40373 0.55751 0.98407
 N328 N 0.38174 0.56847 0.97405
 N329 N -0.20249 0.91448 0.11077
 C330 C -0.19201 0.90306 0.08879
 N331 N -0.20369 0.88102 0.07860
 N332 N -0.22524 0.87071 0.09001
 C333 C -0.23581 0.88211 0.11199
 N334 N -0.22404 0.90417 0.12218
 C335 C -0.16887 0.91416 0.07640
 C336 C -0.14943 0.92337 0.06590
 C337 C -0.12626 0.93427 0.05341
 N338 N -0.12738 0.95824 0.04110
 N339 N -0.10573 0.96856 0.02991
 C340 C -0.08226 0.95522 0.03058
 N341 N -0.08124 0.93118 0.04285
 N342 N -0.10289 0.92086 0.05404
 N343 N 0.70326 0.11943 0.57856
 C344 C 0.69181 0.09714 0.58852
 N345 N 0.70248 0.08550 0.61030
 N346 N 0.72395 0.09586 0.62179
 C347 C 0.73546 0.11820 0.61187
 N348 N 0.72473 0.12979 0.59005
 C349 C 0.66868 0.08606 0.57613
 C350 C 0.64923 0.07684 0.56567
 C351 C 0.62604 0.06590 0.55328
 N352 N 0.62716 0.04193 0.54103
 N353 N 0.60550 0.03155 0.52992
 C354 C 0.58202 0.04485 0.53062
 N355 N 0.58098 0.06889 0.54285
 N356 N 0.60264 0.07927 0.55395
 N357 N 0.38737 0.20397 0.41621
 C358 C 0.40936 0.19328 0.40490
 N359 N 0.41967 0.20484 0.38293
 N360 N 0.40839 0.22645 0.37257
 C361 C 0.38639 0.23728 0.38384
 N362 N 0.37607 0.22560 0.40585
 C363 C 0.42175 0.17012 0.41608
 C364 C 0.43240 0.15069 0.42525
 C365 C 0.44513 0.12755 0.43605
 N366 N 0.45744 0.12872 0.45992
 N367 N 0.46889 0.10712 0.47015
 C368 C 0.46850 0.08365 0.45680
 N369 N 0.45625 0.08259 0.43284
 N370 N 0.44480 0.10419 0.42262
 N371 N 0.89085 0.29879 0.58467
 C372 C 0.91346 0.30845 0.59570
 N373 N 0.92371 0.29618 0.61731
 N374 N 0.91176 0.27488 0.62755
 C375 C 0.88912 0.26509 0.61657
 N376 N 0.87889 0.27746 0.59491
 C377 C 0.92624 0.33155 0.58482
 C378 C 0.93656 0.35112 0.57554
 C379 C 0.94783 0.37469 0.56404
 N380 N 0.97359 0.38150 0.56838
 N381 N 0.98373 0.40350 0.55751
 C382 C 0.96839 0.41936 0.54196
 N383 N 0.94266 0.41243 0.53774
 N384 N 0.93256 0.39051 0.54857
 N385 N 0.07979 0.79549 -0.11738
 C386 C 0.09014 0.80698 -0.09541
 N387 N 0.11213 0.79625 -0.08412
 N388 N 0.12343 0.77466 -0.09455
 C389 C 0.11310 0.76308 -0.11659
 N390 N 0.09107 0.77392 -0.12779
 C391 C 0.07776 0.83008 -0.08419
 C392 C 0.06712 0.84947 -0.07499
 C393 C 0.05442 0.87259 -0.06417
 N394 N 0.04213 0.87139 -0.04029
 N395 N 0.03072 0.89299 -0.03005
 C396 C 0.03114 0.91647 -0.04339
 N397 N 0.04338 0.91757 -0.06735
 N398 N 0.05479 0.89596 -0.07759
 N399 N 0.57703 0.70294 1.11825
 C400 C 0.58689 0.69120 1.09619
 N401 N 0.60903 0.70142 1.08471
 N402 N 0.62088 0.72282 1.09492
 C403 C 0.61099 0.73470 1.11701
 N404 N 0.58886 0.72431 1.12847
 C405 C 0.57417 0.66808 1.08526
 C406 C 0.56387 0.64853 1.07593
 C407 C 0.55261 0.62499 1.06436
 N408 N 0.56792 0.60917 1.04893
 N409 N 0.55784 0.58726 1.03809
 C410 C 0.53210 0.58033 1.04225
 N411 N 0.51671 0.59620 1.05774
 N412 N 0.52683 0.61819 1.06863
 N413 N 0.41473 0.39206 1.20188
 C414 C 0.40319 0.41422 1.19167
 N415 N 0.38111 0.42415 1.20346
 N416 N 0.37092 0.41234 1.22481
 C417 C 0.38244 0.39017 1.23511
 N418 N 0.40454 0.38024 1.22325
 C419 C 0.41412 0.42686 1.16856
 C420 C 0.42354 0.43700 1.14901
 C421 C 0.43527 0.44804 1.12548
 N422 N 0.43110 0.47381 1.11846
 N423 N 0.44217 0.48374 1.09653
 C424 C 0.45777 0.46818 1.08095
 N425 N 0.46184 0.44243 1.08810
 N426 N 0.45080 0.43254 1.10995
 N427 N 0.58303 -0.11145 0.29846
 C428 C 0.59461 -0.08943 0.30885
 N429 N 0.61661 -0.07931 0.29710
 N430 N 0.62675 -0.09084 0.27560
 C431 C 0.61521 -0.11286 0.26512
 N432 N 0.59317 -0.12299 0.27694
 C433 C 0.58368 -0.07682 0.33189
 C434 C 0.57464 -0.06604 0.35121
 C435 C 0.56391 -0.05318 0.37421
 N436 N 0.54003 -0.04075 0.37302
 N437 N 0.52980 -0.02927 0.39451
 C438 C 0.54317 -0.02975 0.41789
 N439 N 0.56714 -0.04213 0.41897
 N440 N 0.57736 -0.05361 0.39747
 N441 N -0.11711 1.07971 -0.20269
 C442 C -0.09497 1.08972 -0.19112
 N443 N -0.08318 1.11150 -0.20181
 N444 N -0.09325 1.12290 -0.22345
 C445 C -0.11541 1.11287 -0.23510
 N446 N -0.12717 1.09110 -0.22431
 C447 C -0.08405 1.07719 -0.16804
 C448 C -0.07497 1.06643 -0.14871
 C449 C -0.06418 1.05356 -0.12575
 N450 N -0.04030 1.04114 -0.12700
 N451 N -0.03004 1.02959 -0.10555
 C452 C -0.04338 1.02998 -0.08216
 N453 N -0.06735 1.04234 -0.08101
 N454 N -0.07761 1.05390 -0.10246
 N455 N 1.11862 0.57609 0.70318
 C456 C 1.09656 0.58594 0.69130
 N457 N 1.08493 0.60809 0.70140
 N458 N 1.09501 0.61996 0.72278
 C459 C 1.11709 0.61010 0.73475
 N460 N 1.12870 0.58795 0.72454
 C461 C 1.08576 0.57324 0.66817
 C462 C 1.07646 0.56303 0.64862
 C463 C 1.06486 0.55192 0.62508
 N464 N 1.04934 0.56735 0.60946
 N465 N 1.03840 0.55740 0.58761
 C466 C 1.04255 0.53166 0.58054
 N467 N 1.05813 0.51615 0.59621
 N468 N 1.06912 0.52615 0.61814
 N469 N 0.79673 0.61866 0.57820
 C470 C 0.80835 0.59649 0.58823
 N471 N 0.79800 0.58506 0.61027
 N472 N 0.77666 0.59549 0.62194
 C473 C 0.76498 0.61771 0.61196
 N474 N 0.77539 0.62909 0.58987
 C475 C 0.83140 0.58539 0.57572
 C476 C 0.85082 0.57614 0.56522
 C477 C 0.87400 0.56513 0.55286
 N478 N 0.87286 0.54112 0.54069
 N479 N 0.89454 0.53062 0.52972
 C480 C 0.91807 0.54384 0.53050
 N481 N 0.91911 0.56794 0.54263
 N482 N 0.89743 0.57842 0.55359
 N483 N 0.70390 0.38105 1.07801
 C484 C 0.69176 0.40270 1.08849
 N485 N 0.70183 0.41389 1.11077
 N486 N 0.72344 0.40375 1.12220
 C487 C 0.73568 0.38209 1.11172
 N488 N 0.72550 0.37091 1.08944
 C489 C 0.66863 0.41370 1.07604
 C490 C 0.64923 0.42296 1.06552
 C491 C 0.62613 0.43404 1.05310
 N492 N 0.62739 0.45808 1.04095
 N493 N 0.60577 0.46869 1.02998
 C494 C 0.58219 0.45557 1.03074
 N495 N 0.58103 0.43144 1.04284
 N496 N 0.60266 0.42084 1.05381
 N497 N 0.20100 1.08382 -0.10797
 C498 C 0.19117 1.09566 -0.08589
 N499 N 0.20323 1.11779 -0.07639
 N500 N 0.22451 1.12775 -0.08857
 C501 C 0.23442 1.11595 -0.11067
 N502 N 0.22228 1.09379 -0.12015
 C503 C 0.16812 1.08498 -0.07295
 C504 C 0.14857 1.07568 -0.06271
 C505 C 0.12501 1.06398 -0.05172
 N506 N 0.11800 1.06813 -0.02607
 N507 N 0.09606 1.05697 -0.01618
 C508 C 0.08048 1.04131 -0.03168
 N509 N 0.08762 1.03728 -0.05731
 N510 N 0.10948 1.04840 -0.06715
 N511 N 0.29915 -0.08399 0.39172
 C512 C 0.30875 -0.09557 0.41404
 N513 N 0.29635 -0.11737 0.42391
 N514 N 0.27494 -0.12723 0.41187
 C515 C 0.26524 -0.11564 0.38956
 N516 N 0.27774 -0.09385 0.37968
 C517 C 0.33181 -0.08490 0.42694
 C518 C 0.35133 -0.07557 0.43721
 C519 C 0.37482 -0.06382 0.44829
 N520 N 0.38181 -0.06807 0.47394
 N521 N 0.40373 -0.05692 0.48388
 C522 C 0.41931 -0.04118 0.46845
 N523 N 0.41218 -0.03703 0.44283
 N524 N 0.39034 -0.04813 0.43293
 N525 N 0.57622 -0.20300 0.61714
 C526 C 0.58652 -0.19061 0.59562
 N527 N 0.60912 -0.20025 0.58454
 N528 N 0.62103 -0.22168 0.59464
 C529 C 0.61071 -0.23416 0.61619
 N530 N 0.58811 -0.22442 0.62724
 C531 C 0.57374 -0.16747 0.58479
 C532 C 0.56344 -0.14789 0.57552
 C533 C 0.55220 -0.12431 0.56397
 N534 N 0.52644 -0.11747 0.56825
 N535 N 0.51635 -0.09545 0.55735
 C536 C 0.53175 -0.07961 0.54183
 N537 N 0.55748 -0.08658 0.53767
 N538 N 0.56753 -0.10851 0.54853
 N539 N 1.11170 0.70301 0.41638
 C540 C 1.09006 0.69199 0.40471
 N541 N 1.08004 0.70327 0.38246
 N542 N 1.09127 0.72494 0.37218
 C543 C 1.11288 0.73607 0.38382
 N544 N 1.12294 0.72470 0.40610
 C545 C 1.07767 0.66886 0.41584
 C546 C 1.06700 0.64946 0.42499
 C547 C 1.05424 0.62637 0.43579
 N548 N 1.04195 0.62757 0.45966
 N549 N 1.03060 0.60595 0.46996
 C550 C 1.03108 0.58246 0.45667
 N551 N 1.04328 0.58139 0.43269
 N552 N 1.05463 0.60300 0.42240
 N553 N -0.07665 1.20195 0.11781
 C554 C -0.08640 1.19021 0.09569
 N555 N -0.10834 1.20056 0.08394
 N556 N -0.12012 1.22208 0.09396
 C557 C -0.11033 1.23394 0.11607
 N558 N -0.08842 1.22345 0.12781
 C559 C -0.07367 1.16709 0.08488
 C560 C -0.06339 1.14756 0.07557
 C561 C -0.05218 1.12406 0.06394
 N562 N -0.06752 1.10835 0.04846
 N563 N -0.05750 1.08646 0.03753
 C564 C -0.03178 1.07946 0.04167
 N565 N -0.01635 1.09523 0.05721
 N566 N -0.02642 1.11720 0.06818
 N567 N 0.38824 0.29705 0.91629
 C568 C 0.41031 0.30766 0.90506
 N569 N 0.42060 0.29617 0.88305
 N570 N 0.40921 0.27469 0.87258
 C571 C 0.38713 0.26399 0.88377
 N572 N 0.37683 0.27556 0.90581
 C573 C 0.42275 0.33072 0.91629
 C574 C 0.43340 0.35011 0.92549
 C575 C 0.44607 0.37324 0.93631
 N576 N 0.45827 0.37208 0.96022
 N577 N 0.46957 0.39372 0.97051
 C578 C 0.46912 0.41720 0.95717
 N579 N 0.45698 0.41824 0.93315
 N580 N 0.44568 0.39661 0.92288
 N581 N 0.61763 0.57943 0.79763
 C582 C 0.59516 0.58913 0.80884
 N583 N 0.58315 0.61065 0.79788
 N584 N 0.59331 0.62209 0.77631
 C585 C 0.61581 0.61239 0.76502
 N586 N 0.62778 0.59087 0.77608
 C587 C 0.58423 0.57665 0.83194
 C588 C 0.57515 0.56600 0.85133
 C589 C 0.56438 0.55333 0.87441
 N590 N 0.54044 0.54101 0.87331
 N591 N 0.53016 0.52975 0.89490
 C592 C 0.54351 0.53035 0.91828
 N593 N 0.56754 0.54260 0.91927
 N594 N 0.57782 0.55387 0.89767
 N595 N 0.41496 0.10786 0.70167
 C596 C 0.40339 0.08573 0.69148
 N597 N 0.38132 0.07580 0.70328
 N598 N 0.37119 0.08758 0.72466
 C599 C 0.38275 0.10970 0.73495
 N600 N 0.40482 0.11964 0.72306
 C601 C 0.41427 0.07315 0.66836
 C602 C 0.42367 0.06310 0.64880
 C603 C 0.43537 0.05221 0.62523
 N604 N 0.43120 0.02648 0.61811
 N605 N 0.44220 0.01670 0.59610
 C606 C 0.45772 0.03238 0.58054
 N607 N 0.46179 0.05808 0.58780
 N608 N 0.45082 0.06782 0.60973
 N609 N 0.11839 0.92443 0.20324
 C610 C 0.09630 0.91450 0.19151
 N611 N 0.08483 0.89228 0.20164
 N612 N 0.09511 0.88039 0.22292
 C613 C 0.11722 0.89031 0.23474
 N614 N 0.12866 0.91254 0.22451
 C615 C 0.08536 0.92710 0.16843
 C616 C 0.07594 0.93711 0.14885
 C617 C 0.06426 0.94793 0.12525
 N618 N 0.04884 0.93227 0.10979
 N619 N 0.03792 0.94193 0.08779
 C620 C 0.04202 0.96760 0.08043
 N621 N 0.05751 0.98333 0.09594
 N622 N 0.06846 0.97363 0.11802
 N623 N 0.88327 0.42020 0.29728
 C624 C 0.90551 0.41020 0.30870
 N625 N 0.91722 0.38842 0.29798
 N626 N 0.90699 0.37699 0.27646
 C627 C 0.88471 0.38698 0.26497
 N628 N 0.87304 0.40878 0.27578
 C629 C 0.91650 0.42266 0.33176
 C630 C 0.92558 0.43331 0.35113
 C631 C 0.93632 0.44600 0.37418
 N632 N 0.96023 0.45837 0.37307
 N633 N 0.97045 0.46972 0.39463
 C634 C 0.95705 0.46916 0.41798
 N635 N 0.93305 0.45686 0.41899
 N636 N 0.92283 0.44551 0.39743
   
