data_POSCAR
  _audit_creation_date              2014-09-24
  _audit_creation_method            'ToBaCCo'
  _symmetry_space_group_name_H-M    'P1'
  _symmetry_Int_Tables_number       1
  _symmetry_cell_setting            triclinic
  loop_
  _symmetry_equiv_pos_as_xyz
 x,y,z
_cell_length_a 24.3454
_cell_length_b 24.2708
_cell_length_c 56.6109
_cell_angle_alpha 86.907300
_cell_angle_beta 96.189600
_cell_angle_gamma 120.093600
loop_
  _atom_site_label
  _atom_site_type_symbol
  _atom_site_fract_x
  _atom_site_fract_y
  _atom_site_fract_z
Si1 Si 0.02950 0.05900 0.50031
 Si2 Si 1.02755 -0.02658 0.16792
 Si3 Si -0.05066 0.97796 0.83175
 O4 O 0.55517 0.01277 -0.02333
 O5 O 0.45577 0.01211 0.02188
 O6 O 0.56627 0.01882 0.02277
 O7 O 0.45130 0.01939 -0.02420
 O8 O 0.39702 -0.08560 -0.02437
 O9 O 0.51555 -0.08618 0.02253
 O10 O 0.40475 -0.09289 0.02180
 O11 O 0.50117 -0.09223 -0.02366
 Cu12 Cu 0.51230 0.02613 -0.00071
 Cu13 Cu 0.44941 -0.09964 -0.00095
 C14 C 0.54504 -0.04008 -0.03115
 C15 C 0.41295 -0.04096 0.02950
 C16 C 0.56149 -0.03318 0.03058
 C17 C 0.40418 -0.03241 -0.03222
 O18 O 0.02671 0.58898 0.69351
 O19 O 0.04307 0.49493 0.64814
 O20 O 0.04936 0.60554 0.64894
 O21 O 0.03368 0.48518 0.69356
 O22 O -0.07052 0.43196 0.68474
 O23 O -0.05489 0.55561 0.64026
 O24 O -0.06114 0.44523 0.63932
 O25 O -0.07753 0.53598 0.68483
 Cu26 Cu 0.04852 0.54888 0.67188
 Cu27 Cu -0.07634 0.48722 0.66145
 C28 C -0.02874 0.57817 0.69689
 C29 C -0.00681 0.45346 0.63609
 C30 C 0.00046 0.60186 0.63704
 C31 C -0.02050 0.43753 0.69664
 O32 O 0.56278 0.58802 0.30715
 O33 O 0.45233 0.49447 0.35256
 O34 O 0.55668 0.60506 0.35168
 O35 O 0.45204 0.48427 0.30717
 O36 O 0.50304 0.43111 0.31614
 O37 O 0.61096 0.55515 0.36052
 O38 O 0.50684 0.44480 0.36152
 O39 O 0.61403 0.53508 0.31599
 Cu40 Cu 0.50088 0.54819 0.32879
 Cu41 Cu 0.56407 0.48657 0.33940
 C42 C 0.60742 0.57713 0.30384
 C43 C 0.46073 0.45309 0.36469
 C44 C 0.60186 0.60145 0.36364
 C45 C 0.45860 0.43659 0.30418
 C46 C 0.01006 0.20128 0.54595
 C47 C 0.06758 0.20107 0.54686
 C48 C 0.07216 0.15752 0.53329
 C49 C 0.01921 0.11348 0.51875
 C50 C -0.03849 0.11365 0.51777
 C51 C -0.04309 0.15743 0.53141
 C52 C 0.00626 0.24654 0.56009
 C53 C 0.00448 0.28467 0.57232
 C54 C 0.00268 0.32965 0.58732
 C55 C 0.05832 0.37468 0.60038
 C56 C 0.05582 0.41622 0.61589
 C57 C -0.00251 0.41299 0.61854
 C58 C -0.05788 0.36833 0.60496
 C59 C -0.05524 0.32699 0.58949
 H60 H 0.10896 0.23472 0.55801
 H61 H 0.11722 0.15833 0.53408
 H62 H -0.07960 0.08053 0.50642
 H63 H -0.08783 0.15728 0.53056
 H64 H 0.10343 0.37705 0.59884
 H65 H 0.09921 0.44993 0.62611
 H66 H -0.10357 0.36458 0.60655
 H67 H -0.09857 0.29232 0.57949
 C68 C 0.88657 0.80797 0.21353
 C69 C 0.93703 0.86272 0.22465
 C70 C 0.98258 0.91048 0.21122
 C71 C 0.97829 0.90378 0.18652
 C72 C 0.92931 0.84757 0.17556
 C73 C 0.88350 0.79979 0.18902
 C74 C 0.83578 0.76317 0.22714
 C75 C 0.79359 0.72786 0.23912
 C76 C 0.74424 0.68757 0.25411
 C77 C 0.69580 0.70077 0.25747
 C78 C 0.65034 0.66419 0.27332
 C79 C 0.65300 0.61407 0.28605
 C80 C 0.70125 0.60055 0.28219
 C81 C 0.74651 0.63709 0.26637
 H82 H 0.93969 0.86971 0.24357
 H83 H 1.01893 0.95376 0.22009
 H84 H 0.92465 0.84207 0.15646
 H85 H 0.84447 0.75774 0.18021
 H86 H 0.69379 0.73998 0.24814
 H87 H 0.61387 0.67581 0.27589
 H88 H 0.70467 0.56225 0.29167
 H89 H 0.78391 0.62661 0.26399
 C90 C 0.12329 -0.00829 -0.12357
 C91 C 0.12441 0.00165 -0.14814
 C92 C 0.07257 0.00136 -0.16161
 C93 C 0.01922 -0.00870 -0.15060
 C94 C 0.01927 -0.01698 -0.12584
 C95 C 0.07110 -0.01655 -0.11243
 C96 C 0.17406 -0.01287 -0.10976
 C97 C 0.21551 -0.01740 -0.09766
 C98 C 0.26441 -0.02227 -0.08258
 C99 C 0.32151 0.03295 -0.07568
 C100 C 0.36747 0.02925 -0.05974
 C101 C 0.35697 -0.02988 -0.05041
 C102 C 0.30003 -0.08543 -0.05787
 C103 C 0.25395 -0.08156 -0.07383
 H104 H 0.16451 0.00792 -0.15696
 H105 H 0.07330 0.00674 -0.18073
 H106 H -0.02143 -0.02641 -0.11675
 H107 H 0.06964 -0.02453 -0.09343
 H108 H 0.33005 0.07907 -0.08228
 H109 H 0.41082 0.07295 -0.05443
 H110 H 0.29050 -0.13159 -0.05098
 H111 H 0.20975 -0.12463 -0.07901
 C112 C 0.04819 0.90539 0.54737
 C113 C 0.05557 0.90858 0.52305
 C114 C 0.05498 0.95790 0.50923
 C115 C 0.04696 1.00427 0.51964
 C116 C 0.04202 1.00215 0.54418
 C117 C 0.04280 0.95303 0.55797
 C118 C 0.04165 0.85132 0.56126
 C119 C 0.03462 0.80613 0.57331
 C120 C 0.02576 0.75291 0.58824
 C121 C 0.07869 0.75236 0.60029
 C122 C 0.07031 0.70265 0.61585
 C123 C 0.00869 0.65265 0.61963
 C124 C -0.04430 0.65301 0.60714
 C125 C -0.03575 0.70295 0.59157
 H126 H 0.05950 0.87181 0.51464
 H127 H 0.05773 0.95815 0.49025
 H128 H 0.03441 1.03639 0.55261
 H129 H 0.03674 0.95087 0.57675
 H130 H 0.12648 0.79084 0.59792
 H131 H 0.11218 0.70385 0.62514
 H132 H -0.09229 0.61530 0.60966
 H133 H -0.07711 0.70304 0.58237
 C134 C 0.18073 0.14386 0.21497
 C135 C 0.18092 0.08634 0.21505
 C136 C 0.13400 0.03551 0.20114
 C137 C 0.08616 0.04150 0.18710
 C138 C 0.08586 0.09911 0.18700
 C139 C 0.13304 0.15020 0.20097
 C140 C 0.22982 0.19600 0.22925
 C141 C 0.27128 0.23882 0.24147
 C142 C 0.32038 0.28948 0.25634
 C143 C 0.36840 0.28181 0.26938
 C144 C 0.41446 0.33017 0.28462
 C145 C 0.41284 0.38671 0.28701
 C146 C 0.36497 0.39426 0.27349
 C147 C 0.31912 0.34598 0.25830
 H148 H 0.21757 0.08090 0.22576
 H149 H 0.13522 -0.00851 0.20123
 H150 H 0.04987 0.10491 0.17602
 H151 H 0.13258 0.19462 0.20074
 H152 H 0.36973 0.23816 0.26800
 H153 H 0.45057 0.32287 0.29480
 H154 H 0.36232 0.43718 0.27488
 H155 H 0.28220 0.35241 0.24830
 C156 C 0.79290 -0.04362 -0.12177
 C157 C 0.85150 0.01287 -0.12175
 C158 C 0.89800 0.01782 -0.13546
 C159 C 0.88667 -0.03376 -0.14925
 C160 C 0.82797 -0.09055 -0.14929
 C161 C 0.78115 -0.09552 -0.13550
 C162 C 0.74554 -0.04709 -0.10764
 C163 C 0.70795 -0.04719 -0.09539
 C164 C 0.66504 -0.04528 -0.08028
 C165 C 0.67604 0.01330 -0.07224
 C166 C 0.63638 0.01529 -0.05658
 C167 C 0.58522 -0.04142 -0.04873
 C168 C 0.57398 -0.10002 -0.05723
 C169 C 0.61368 -0.10187 -0.07288
 H170 H 0.86112 0.05331 -0.11124
 H171 H 0.94286 0.06223 -0.13540
 H172 H 0.81809 -0.13053 -0.16008
 H173 H 0.73583 -0.13945 -0.13567
 H174 H 0.71582 0.05741 -0.07783
 H175 H 0.64634 0.06110 -0.05036
 H176 H 0.53501 -0.14458 -0.05156
 H177 H 0.60481 -0.14745 -0.07894
 C178 C 0.16154 -0.04712 0.12075
 C179 C 0.15907 0.00917 0.12089
 C180 C 0.11772 0.01379 0.13481
 C181 C 0.07807 -0.03792 0.14868
 C182 C 0.08024 -0.09455 0.14854
 C183 C 0.12190 -0.09918 0.13453
 C184 C 0.20533 -0.05019 0.10645
 C185 C 0.24276 -0.04993 0.09407
 C186 C 0.28752 -0.04759 0.07883
 C187 C 0.33516 0.01122 0.07099
 C188 C 0.37686 0.01367 0.05525
 C189 C 0.37128 -0.04282 0.04712
 C190 C 0.32383 -0.10166 0.05541
 C191 C 0.28225 -0.10396 0.07114
 H192 H 0.18948 0.04972 0.11035
 H193 H 0.11699 0.05805 0.13489
 H194 H 0.05049 -0.13464 0.15936
 H195 H 0.12356 -0.14296 0.13457
 H196 H 0.33954 0.05517 0.07681
 H197 H 0.41278 0.05966 0.04919
 H198 H 0.31823 -0.14605 0.04952
 H199 H 0.24550 -0.14972 0.07706
 C200 C 0.85726 0.90542 0.45323
 C201 C 0.85304 0.90861 0.47755
 C202 C 0.90293 0.95793 0.49137
 C203 C 0.95731 1.00430 0.48097
 C204 C 0.96016 1.00220 0.45644
 C205 C 0.91029 0.95307 0.44264
 C206 C 0.80979 0.85131 0.43934
 C207 C 0.77168 0.80608 0.42730
 C208 C 0.72741 0.75280 0.41237
 C209 C 0.73894 0.70276 0.40916
 C210 C 0.69762 0.65274 0.39360
 C211 C 0.64436 0.65237 0.38102
 C212 C 0.63277 0.70246 0.38468
 C213 C 0.67403 0.75226 0.40022
 H214 H 0.81236 0.87183 0.48596
 H215 H 0.90042 0.95818 0.51035
 H216 H 1.00200 1.03644 0.44802
 H217 H 0.91420 0.95091 0.42387
 H218 H 0.78031 0.70285 0.41842
 H219 H 0.70787 0.61496 0.39117
 H220 H 0.59218 0.70366 0.37532
 H221 H 0.66474 0.79079 0.40250
 C222 C -0.03415 0.14511 0.78573
 C223 C 0.01945 0.15212 0.80021
 C224 C 0.01578 0.10107 0.81413
 C225 C -0.04156 0.04259 0.81351
 C226 C -0.09501 0.03611 0.79897
 C227 C -0.09124 0.08696 0.78511
 C228 C -0.03133 0.19727 0.77151
 C229 C -0.03015 0.24009 0.75934
 C230 C -0.02880 0.29071 0.74451
 C231 C 0.02886 0.34725 0.74251
 C232 C 0.03110 0.39546 0.72731
 C233 C -0.02442 0.38778 0.71384
 C234 C -0.08250 0.33121 0.71629
 C235 C -0.08460 0.28293 0.73153
 H236 H 0.06384 0.19710 0.80086
 H237 H 0.05738 0.10790 0.82550
 H238 H -0.14002 -0.00830 0.79838
 H239 H -0.13302 0.08102 0.77403
 H240 H 0.07231 0.35377 0.75246
 H241 H 0.07661 0.43840 0.72588
 H242 H -0.12599 0.32380 0.70615
 H243 H -0.12952 0.23923 0.73295
 C244 C 0.86513 -0.01129 0.12220
 C245 C 0.87370 -0.00150 0.14680
 C246 C 0.92504 -0.00208 0.16033
 C247 C 0.96816 -0.01229 0.14935
 C248 C 0.96025 -0.02038 0.12462
 C249 C 0.90909 -0.01968 0.11112
 C250 C 0.81002 -0.01553 0.10831
 C251 C 0.76424 -0.01977 0.09616
 C252 C 0.71071 -0.02428 0.08102
 C253 C 0.70895 0.03111 0.07431
 C254 C 0.65952 0.02780 0.05834
 C255 C 0.61099 -0.03110 0.04879
 C256 C 0.61227 -0.08682 0.05605
 C257 C 0.66199 -0.08335 0.07205
 H258 H 0.83986 0.00487 0.15557
 H259 H 0.92976 0.00311 0.17944
 H260 H 0.99182 -0.02982 0.11574
 H261 H 0.90279 -0.02753 0.09212
 H262 H 0.74644 0.07706 0.08109
 H263 H 0.65995 0.07163 0.05318
 H264 H 0.57572 -0.13281 0.04899
 H265 H 0.66303 -0.12654 0.07708
 C266 C 0.19130 0.20125 0.45473
 C267 C 0.13359 0.20108 0.45381
 C268 C 0.08543 0.15754 0.46736
 C269 C 0.09430 0.11346 0.48189
 C270 C 0.15215 0.11359 0.48289
 C271 C 0.20055 0.15737 0.46927
 C272 C 0.24041 0.24651 0.44061
 C273 C 0.28037 0.28462 0.42840
 C274 C 0.32721 0.32955 0.41342
 C275 C 0.31660 0.37446 0.40027
 C276 C 0.36071 0.41593 0.38477
 C277 C 0.41590 0.41275 0.38223
 C278 C 0.42661 0.36823 0.39590
 C279 C 0.38256 0.32696 0.41136
 H280 H 0.12589 0.23476 0.44265
 H281 H 0.04120 0.15838 0.46656
 H282 H 0.16010 0.08046 0.49423
 H283 H 0.24513 0.15719 0.47013
 H284 H 0.27380 0.37678 0.40172
 H285 H 0.35103 0.44954 0.37447
 H286 H 0.46861 0.36451 0.39440
 H287 H 0.39123 0.29238 0.42144
 C288 C -0.07561 0.81157 0.78641
 C289 C -0.06941 0.86697 0.77523
 C290 C -0.06700 0.91508 0.78850
 C291 C -0.07117 0.90813 0.81313
 C292 C -0.08018 0.85134 0.82413
 C293 C -0.08234 0.80319 0.81082
 C294 C -0.06993 0.76622 0.77301
 C295 C -0.06327 0.73048 0.76119
 C296 C -0.05444 0.68971 0.74635
 C297 C -0.10733 0.63893 0.73429
 C298 C -0.09883 0.60200 0.71856
 C299 C -0.03716 0.61541 0.71462
 C300 C 0.01577 0.66581 0.72719
 C301 C 0.00711 0.70279 0.74293
 H302 H -0.06375 0.87414 0.75639
 H303 H -0.05845 0.95882 0.77959
 H304 H -0.08228 0.84561 0.84318
 H305 H -0.08681 0.76065 0.81969
 H306 H -0.15515 0.62854 0.73672
 H307 H -0.14065 0.56349 0.70922
 H308 H 0.06381 0.67738 0.72455
 H309 H 0.04844 0.74224 0.75211
   
