data_POSCAR
  _audit_creation_date              2014-09-24
  _audit_creation_method            'ToBaCCo'
  _symmetry_space_group_name_H-M    'P1'
  _symmetry_Int_Tables_number       1
  _symmetry_cell_setting            triclinic
  loop_
  _symmetry_equiv_pos_as_xyz
 x,y,z
_cell_length_a 52.3990
_cell_length_b 45.8484
_cell_length_c 9.1275
_cell_angle_alpha 89.707700
_cell_angle_beta 90.030200
_cell_angle_gamma 90.056500
loop_
  _atom_site_label
  _atom_site_type_symbol
  _atom_site_fract_x
  _atom_site_fract_y
  _atom_site_fract_z
O1 O 0.27732 0.22296 0.09369
 O2 O 0.22779 0.28010 0.08056
 O3 O 0.27736 0.27959 0.10755
 O4 O 0.22774 0.22364 0.05923
 O5 O 0.22311 0.22065 0.29925
 O6 O 0.27314 0.27644 0.34787
 O7 O 0.22358 0.27705 0.32094
 O8 O 0.27260 0.21982 0.33369
 Cu9 Cu 0.25303 0.25187 0.06148
 Cu10 Cu 0.24767 0.24814 0.34918
 C11 C 0.28350 0.21185 0.21645
 C12 C 0.21715 0.28813 0.19874
 C13 C 0.28383 0.28741 0.23545
 C14 C 0.21669 0.21288 0.17092
 O15 O 0.77885 0.27705 0.38260
 O16 O 0.72916 0.22154 0.45116
 O17 O 0.77842 0.22047 0.40384
 O18 O 0.72992 0.27801 0.43730
 O19 O 0.72231 0.27542 0.19960
 O20 O 0.77116 0.21800 0.16582
 O21 O 0.72202 0.21895 0.21313
 O22 O 0.77123 0.27453 0.14493
 Cu23 Cu 0.75488 0.24951 0.44242
 Cu24 Cu 0.74595 0.24645 0.15715
 C25 C 0.78358 0.28507 0.25193
 C26 C 0.71687 0.21108 0.34338
 C27 C 0.78325 0.20966 0.27918
 C28 C 0.71762 0.28624 0.32463
 O29 O 0.73001 0.77848 0.54802
 O30 O 0.77935 0.72275 0.61788
 O31 O 0.73042 0.72206 0.56281
 O32 O 0.77925 0.77934 0.59624
 O33 O 0.77203 0.78196 0.83412
 O34 O 0.72279 0.72484 0.80039
 O35 O 0.77173 0.72541 0.85546
 O36 O 0.72288 0.78129 0.78608
 Cu37 Cu 0.75557 0.75040 0.55755
 Cu38 Cu 0.74663 0.75366 0.84276
 C39 C 0.71782 0.78907 0.65564
 C40 C 0.78402 0.71474 0.74865
 C41 C 0.71804 0.71400 0.67546
 C42 C 0.78420 0.79021 0.72078
 O43 O 0.27741 0.77719 0.90621
 O44 O 0.22792 0.71990 0.92011
 O45 O 0.27748 0.72052 0.89297
 O46 O 0.22784 0.77635 0.94089
 O47 O 0.22314 0.77921 0.70085
 O48 O 0.27317 0.72356 0.65264
 O49 O 0.22364 0.72284 0.67971
 O50 O 0.27261 0.78021 0.66619
 Cu51 Cu 0.25316 0.74821 0.93881
 Cu52 Cu 0.24771 0.75180 0.65108
 C53 C 0.28353 0.78829 0.78330
 C54 C 0.21724 0.71181 0.80207
 C55 C 0.28389 0.71264 0.76512
 C56 C 0.21675 0.78701 0.82912
 C57 C 0.99996 0.07496 0.09679
 C58 C 1.02282 0.06168 0.05310
 C59 C 1.02240 0.03228 0.01041
 C60 C 0.99986 0.01549 0.01965
 C61 C 0.97735 0.02930 0.06809
 C62 C 0.97703 0.05915 0.10205
 C63 C 0.99985 -0.01622 -0.02115
 C64 C 0.97729 -0.03007 -0.06910
 C65 C 0.97692 -0.05995 -0.10267
 C66 C 0.99983 -0.07575 -0.09715
 C67 C 1.02273 -0.06241 -0.05412
 C68 C 1.02238 -0.03297 -0.01213
 H69 H 0.99999 0.09780 0.12624
 H70 H 1.03977 0.02270 -0.03107
 H71 H 0.95992 0.01692 0.08061
 H72 H 0.95988 -0.01772 -0.08167
 H73 H 0.99981 -0.09862 -0.12593
 H74 H 1.03979 -0.02333 0.02873
 C75 C 0.49995 0.57584 0.59280
 C76 C 0.52288 0.56230 0.55287
 C77 C 0.52246 0.53283 0.51155
 C78 C 0.49983 0.51614 0.51962
 C79 C 0.47722 0.53025 0.56464
 C80 C 0.47693 0.56021 0.59630
 C81 C 0.49987 0.48426 0.48126
 C82 C 0.47728 0.47005 0.43622
 C83 C 0.47704 0.44008 0.40489
 C84 C 0.50008 0.42454 0.40857
 C85 C 0.52300 0.43819 0.44834
 C86 C 0.52254 0.46767 0.48942
 H87 H 0.50001 0.59876 0.62084
 H88 H 0.53992 0.52316 0.47224
 H89 H 0.45968 0.51808 0.57637
 H90 H 0.45973 0.48215 0.42413
 H91 H 0.50015 0.40161 0.38077
 H92 H 0.53999 0.47743 0.52872
 C93 C -0.00046 0.42417 0.09780
 C94 C -0.02356 0.43765 0.05959
 C95 C -0.02337 0.46716 0.01707
 C96 C -0.00074 0.48391 0.02195
 C97 C 0.02199 0.46988 0.06655
 C98 C 0.02249 0.43991 0.09893
 C99 C -0.00075 0.51575 -0.01943
 C100 C 0.02196 0.52984 -0.06426
 C101 C 0.02245 0.55983 -0.09621
 C102 C -0.00049 0.57553 -0.09453
 C103 C -0.02357 0.56198 -0.05635
 C104 C -0.02337 0.53246 -0.01411
 H105 H -0.00032 0.40123 0.12640
 H106 H -0.04099 0.47676 -0.02094
 H107 H 0.03951 0.48207 0.07720
 H108 H 0.03947 0.51768 -0.07535
 H109 H -0.00036 0.59848 -0.12294
 H110 H -0.04098 0.52281 0.02383
 C111 C 0.49897 0.92445 0.58575
 C112 C 0.47616 0.94028 0.59863
 C113 C 0.47631 0.97033 0.56710
 C114 C 0.49861 0.98437 0.51658
 C115 C 0.52099 0.96768 0.50023
 C116 C 0.52155 0.93797 0.53818
 C117 C 0.49866 1.01632 0.48141
 C118 C 0.52110 1.03297 0.49785
 C119 C 0.52173 1.06270 0.46032
 C120 C 0.49916 1.07628 0.41310
 C121 C 0.47631 1.06045 0.39985
 C122 C 0.47640 1.03039 0.43091
 H123 H 0.49915 0.90142 0.61264
 H124 H 0.45902 0.98276 0.58345
 H125 H 0.53811 0.97771 0.45707
 H126 H 0.53821 1.02291 0.54075
 H127 H 0.49937 1.09933 0.38681
 H128 H 0.45910 1.01798 0.41421
 N129 N 1.16931 0.16727 -0.00182
 C130 C 1.15664 0.15650 0.11611
 N131 N 1.16448 0.16401 0.25239
 N132 N 1.18429 0.18188 0.27030
 C133 C 1.19693 0.19292 0.15243
 N134 N 1.18914 0.18513 0.01602
 C135 C 1.13427 0.13883 0.09718
 C136 C 1.11500 0.12471 0.08344
 C137 C 1.09155 0.10873 0.07038
 N138 N 1.06907 0.12190 0.10107
 N139 N 1.04727 0.10705 0.09347
 C140 C 1.04709 0.07846 0.05477
 N141 N 1.06972 0.06539 0.02348
 N142 N 1.09156 0.08025 0.03111
 N143 N 0.67144 0.66389 0.51004
 C144 C 0.65701 0.65621 0.62730
 N145 N 0.66312 0.66683 0.76122
 N146 N 0.68297 0.68472 0.77731
 C147 C 0.69736 0.69261 0.65991
 N148 N 0.69129 0.68178 0.52608
 C149 C 0.63461 0.63860 0.60863
 C150 C 0.61531 0.62457 0.59398
 C151 C 0.59183 0.60874 0.57886
 N152 N 0.56931 0.62217 0.60561
 N153 N 0.54745 0.60750 0.59520
 C154 C 0.54725 0.57886 0.55741
 N155 N 0.56993 0.56554 0.53012
 N156 N 0.59183 0.58021 0.54056
 N157 N -0.16235 0.33502 0.30902
 C158 C -0.15635 0.34276 0.16964
 N159 N -0.17049 0.33209 0.05756
 N160 N -0.18998 0.31414 0.08410
 C161 C -0.19595 0.30621 0.22356
 N162 N -0.18183 0.31706 0.33559
 C163 C -0.13436 0.36054 0.14100
 C164 C -0.11534 0.37472 0.11922
 C165 C -0.09208 0.39067 0.09710
 N166 N -0.09247 0.41937 0.06049
 N167 N -0.07072 0.43422 0.04584
 C168 C -0.04781 0.42092 0.06729
 N169 N -0.04763 0.39211 0.10310
 N170 N -0.06933 0.37727 0.11767
 N171 N 0.33676 0.83649 0.88720
 C172 C 0.34363 0.84794 0.75568
 N173 N 0.33033 0.84036 0.63429
 N174 N 0.31082 0.82181 0.64385
 C175 C 0.30397 0.81016 0.77515
 N176 N 0.31722 0.81793 0.89684
 C177 C 0.36583 0.86613 0.74266
 C178 C 0.38494 0.88049 0.72744
 C179 C 0.40820 0.89640 0.70430
 N180 N 0.40777 0.92517 0.66940
 N181 N 0.42939 0.93931 0.63880
 C182 C 0.45220 0.92517 0.64156
 N183 N 0.45244 0.89636 0.67757
 N184 N 0.43087 0.88225 0.70823
 N185 N -0.16223 0.66445 -0.30787
 C186 C -0.15629 0.65668 -0.16842
 N187 N -0.17036 0.66745 -0.05648
 N188 N -0.18974 0.68552 -0.08322
 C189 C -0.19565 0.69347 -0.22274
 N190 N -0.18160 0.68252 -0.33464
 C191 C -0.13436 0.63883 -0.13950
 C192 C -0.11538 0.62464 -0.11745
 C193 C -0.09212 0.60874 -0.09500
 N194 N -0.09250 0.58004 -0.05837
 N195 N -0.07074 0.56526 -0.04328
 C196 C -0.04784 0.57864 -0.06426
 N197 N -0.04767 0.60745 -0.10020
 N198 N -0.06938 0.62221 -0.11521
 N199 N 0.33684 1.16401 0.11184
 C200 C 0.34382 1.15260 0.24325
 N201 N 0.33055 1.16008 0.36480
 N202 N 0.31097 1.17849 0.35550
 C203 C 0.30400 1.19010 0.22432
 N204 N 0.31723 1.18243 0.10247
 C205 C 0.36605 1.13452 0.25594
 C206 C 0.38518 1.12022 0.27093
 C207 C 0.40843 1.10433 0.29393
 N208 N 0.40796 1.07556 0.32901
 N209 N 0.42955 1.06143 0.35971
 C210 C 0.45238 1.07558 0.35691
 N211 N 0.45267 1.10437 0.32071
 N212 N 0.43112 1.11848 0.28994
 N213 N 1.16438 -0.16448 -0.25283
 C214 C 1.15654 -0.15696 -0.11663
 N215 N 1.16928 -0.16758 0.00142
 N216 N 1.18915 -0.18533 -0.01622
 C217 C 1.19694 -0.19313 -0.15256
 N218 N 1.18424 -0.18223 -0.27054
 C219 C 1.13414 -0.13939 -0.09794
 C220 C 1.11486 -0.12533 -0.08442
 C221 C 1.09143 -0.10938 -0.07153
 N222 N 1.09147 -0.08091 -0.03210
 N223 N 1.06964 -0.06608 -0.02443
 C224 C 1.04699 -0.07916 -0.05582
 N225 N 1.04714 -0.10775 -0.09464
 N226 N 1.06893 -0.12257 -0.10229
 N227 N 0.66308 0.33386 0.23884
 C228 C 0.65705 0.34450 0.37276
 N229 N 0.67142 0.33668 0.49008
 N230 N 0.69114 0.31864 0.47407
 C231 C 0.69712 0.30779 0.34022
 N232 N 0.68280 0.31582 0.22279
 C233 C 0.63473 0.36219 0.39145
 C234 C 0.61547 0.37623 0.40622
 C235 C 0.59199 0.39200 0.42164
 N236 N 0.56947 0.37849 0.39526
 N237 N 0.54760 0.39308 0.40601
 C238 C 0.54739 0.42171 0.44381
 N239 N 0.57007 0.43511 0.47091
 N240 N 0.59198 0.42052 0.46013
 N241 N 0.83684 -0.16239 -0.37300
 C242 C 0.84324 -0.15149 -0.24019
 N243 N 0.82945 -0.15951 -0.12087
 N244 N 0.80994 -0.17798 -0.13383
 C245 C 0.80360 -0.18917 -0.26658
 N246 N 0.81733 -0.18087 -0.38602
 C247 C 0.86546 -0.13344 -0.22450
 C248 C 0.88466 -0.11923 -0.21001
 C249 C 0.90810 -0.10350 -0.19039
 N250 N 0.90799 -0.07485 -0.15432
 N251 N 0.92986 -0.06082 -0.12937
 C252 C 0.95262 -0.07494 -0.13942
 N253 N 0.95253 -0.10361 -0.17653
 N254 N 0.93070 -0.11762 -0.20155
 N255 N 0.33200 0.33532 0.40330
 C256 C 0.34391 0.34652 0.28365
 N257 N 0.33571 0.33876 0.14847
 N258 N 0.31624 0.32031 0.13333
 C259 C 0.30435 0.30894 0.25286
 N260 N 0.31252 0.31686 0.38819
 C261 C 0.36597 0.36478 0.29967
 C262 C 0.38505 0.37925 0.31297
 C263 C 0.40837 0.39533 0.32972
 N264 N 0.43107 0.38155 0.31558
 N265 N 0.45283 0.39594 0.33662
 C266 C 0.45274 0.42468 0.37244
 N267 N 0.42988 0.43846 0.38545
 N268 N 0.40807 0.42404 0.36446
 N269 N 0.16894 0.66036 -0.05850
 C270 C 0.15680 0.65248 -0.18347
 N271 N 0.16496 0.66351 -0.31330
 N272 N 0.18460 0.68195 -0.31802
 C273 C 0.19672 0.69003 -0.19304
 N274 N 0.18860 0.67881 -0.06318
 C275 C 0.13448 0.63437 -0.17738
 C276 C 0.11521 0.62005 -0.17104
 C277 C 0.09171 0.60410 -0.16088
 N278 N 0.06918 0.61814 -0.17836
 N279 N 0.04723 0.60389 -0.16120
 C280 C 0.04695 0.57505 -0.12597
 N281 N 0.06965 0.56103 -0.10968
 N282 N 0.09164 0.57529 -0.12677
 N283 N 0.66337 1.16349 0.27562
 C284 C 0.65635 1.15598 0.41360
 N285 N 0.67007 1.16621 0.52850
 N286 N 0.69010 1.18362 0.50591
 C287 C 0.69703 1.19143 0.36764
 N288 N 0.68336 1.18089 0.25300
 C289 C 0.63378 1.13884 0.43682
 C290 C 0.61432 1.12509 0.45124
 C291 C 0.59067 1.10944 0.46228
 N292 N 0.59035 1.08069 0.49763
 N293 N 0.56841 1.06595 0.49977
 C294 C 0.54600 1.07940 0.46641
 N295 N 0.54649 1.10827 0.43197
 N296 N 0.56840 1.12301 0.42988
 N297 N 0.16893 0.33967 0.06009
 C298 C 0.15682 0.34749 0.18516
 N299 N 0.16497 0.33637 0.31485
 N300 N 0.18458 0.31792 0.31931
 C301 C 0.19665 0.30989 0.19420
 N302 N 0.18853 0.32119 0.06451
 C303 C 0.13454 0.36560 0.17928
 C304 C 0.11528 0.37991 0.17307
 C305 C 0.09178 0.39581 0.16312
 N306 N 0.09169 0.42463 0.12931
 N307 N 0.06969 0.43884 0.11240
 C308 C 0.04700 0.42475 0.12857
 N309 N 0.04729 0.39590 0.16355
 N310 N 0.06925 0.38170 0.18053
 N311 N 0.66947 0.83411 0.46851
 C312 C 0.65612 0.84486 0.58347
 N313 N 0.66356 0.83800 0.72161
 N314 N 0.68363 0.82076 0.74432
 C315 C 0.69696 0.80980 0.62963
 N316 N 0.68958 0.81686 0.49122
 C317 C 0.63349 0.86187 0.56040
 C318 C 0.61401 0.87555 0.54613
 C319 C 0.59039 0.89120 0.53537
 N320 N 0.59011 0.91995 0.50023
 N321 N 0.56820 0.93470 0.49844
 C322 C 0.54579 0.92126 0.53199
 N323 N 0.54623 0.89238 0.56635
 N324 N 0.56811 0.87764 0.56809
 N325 N 0.83696 0.16127 0.37140
 C326 C 0.84338 0.15053 0.23833
 N327 N 0.82957 0.15860 0.11915
 N328 N 0.81001 0.17695 0.13253
 C329 C 0.80364 0.18789 0.26557
 N330 N 0.81741 0.17962 0.38482
 C331 C 0.86561 0.13257 0.22227
 C332 C 0.88482 0.11842 0.20761
 C333 C 0.90825 0.10273 0.18810
 N334 N 0.90810 0.07406 0.15235
 N335 N 0.92996 0.06002 0.12799
 C336 C 0.95273 0.07414 0.13842
 N337 N 0.95268 0.10283 0.17517
 N338 N 0.93087 0.11685 0.19958
 N339 N 0.33566 0.66126 0.85234
 C340 C 0.34380 0.65345 0.71721
 N341 N 0.33190 0.66463 0.59749
 N342 N 0.31247 0.68312 0.61250
 C343 C 0.30436 0.69110 0.74780
 N344 N 0.31624 0.67974 0.86739
 C345 C 0.36584 0.63519 0.70132
 C346 C 0.38490 0.62074 0.68812
 C347 C 0.40823 0.60473 0.67141
 N348 N 0.40795 0.57600 0.63686
 N349 N 0.42977 0.56166 0.61588
 C350 C 0.45262 0.57552 0.62873
 N351 N 0.45269 0.60427 0.66429
 N352 N 0.43092 0.61859 0.68531
   
