data_POSCAR
  _audit_creation_date              2014-09-24
  _audit_creation_method            'ToBaCCo'
  _symmetry_space_group_name_H-M    'P1'
  _symmetry_Int_Tables_number       1
  _symmetry_cell_setting            triclinic
  loop_
  _symmetry_equiv_pos_as_xyz
 x,y,z
_cell_length_a 35.2974
_cell_length_b 35.2974
_cell_length_c 35.2974
_cell_angle_alpha 89.999500
_cell_angle_beta 89.980300
_cell_angle_gamma 90.000600
loop_
  _atom_site_label
  _atom_site_type_symbol
  _atom_site_fract_x
  _atom_site_fract_y
  _atom_site_fract_z
Zn1 Zn 0.78002 0.72012 0.77994
 Zn2 Zn 0.78004 0.78006 0.72003
 Zn3 Zn 0.72011 0.72014 0.72002
 Zn4 Zn 0.72009 0.78005 0.77996
 O5 O 0.75006 0.75010 0.74999
 O6 O 0.82958 0.72788 0.77218
 O7 O 0.77229 0.77231 0.67046
 O8 O 0.72786 0.67058 0.72777
 O9 O 0.82960 0.77230 0.72778
 O10 O 0.77226 0.67056 0.77217
 O11 O 0.72788 0.72791 0.67046
 O12 O 0.67053 0.77230 0.77221
 O13 O 0.77227 0.82962 0.72780
 O14 O 0.67054 0.72790 0.72779
 O15 O 0.72786 0.82962 0.77221
 O16 O 0.72784 0.77228 0.82952
 O17 O 0.77224 0.72787 0.82950
 C18 C 0.84700 0.75009 0.74998
 C19 C 0.75009 0.75012 0.65305
 C20 C 0.75005 0.65316 0.74996
 C21 C 0.65312 0.75010 0.75000
 C22 C 0.75006 0.84703 0.75000
 C23 C 0.75003 0.75007 0.84693
 Zn24 Zn 0.22011 0.72013 0.72004
 Zn25 Zn 0.22009 0.78006 0.77995
 Zn26 Zn 0.28002 0.72013 0.77995
 Zn27 Zn 0.28004 0.78005 0.72002
 O28 O 0.25007 0.75009 0.74999
 O29 O 0.17055 0.72788 0.72780
 O30 O 0.22784 0.77231 0.82951
 O31 O 0.27227 0.67057 0.77220
 O32 O 0.17053 0.77230 0.77220
 O33 O 0.22787 0.67057 0.72780
 O34 O 0.27224 0.72789 0.82951
 O35 O 0.32960 0.77229 0.72777
 O36 O 0.22786 0.82962 0.77218
 O37 O 0.32958 0.72790 0.77219
 O38 O 0.27228 0.82961 0.72777
 O39 O 0.27228 0.77229 0.67046
 O40 O 0.22787 0.72788 0.67047
 C41 C 0.15313 0.75009 0.75000
 C42 C 0.25003 0.75010 0.84693
 C43 C 0.25007 0.65315 0.75000
 C44 C 0.34700 0.75009 0.74998
 C45 C 0.25007 0.84703 0.74998
 C46 C 0.25008 0.75009 0.65305
 Zn47 Zn 0.72009 0.22013 0.77996
 Zn48 Zn 0.78003 0.22013 0.72002
 Zn49 Zn 0.72010 0.28005 0.72002
 Zn50 Zn 0.78001 0.28007 0.77994
 O51 O 0.75006 0.25009 0.74999
 O52 O 0.72786 0.17057 0.77220
 O53 O 0.77228 0.22788 0.67046
 O54 O 0.67054 0.27229 0.72779
 O55 O 0.77228 0.17057 0.72779
 O56 O 0.67053 0.22789 0.77221
 O57 O 0.72786 0.27227 0.67046
 O58 O 0.77225 0.32963 0.77217
 O59 O 0.82959 0.22790 0.72778
 O60 O 0.72785 0.32961 0.72777
 O61 O 0.82958 0.27231 0.77218
 O62 O 0.77225 0.27231 0.82951
 O63 O 0.72785 0.22790 0.82952
 C64 C 0.75007 0.15316 0.75000
 C65 C 0.75007 0.25007 0.65305
 C66 C 0.65312 0.25009 0.75001
 C67 C 0.75005 0.34703 0.74996
 C68 C 0.84700 0.25011 0.74997
 C69 C 0.75004 0.25010 0.84693
 Zn70 Zn 0.28003 0.22014 0.72002
 Zn71 Zn 0.22009 0.22012 0.77995
 Zn72 Zn 0.28002 0.28005 0.77996
 Zn73 Zn 0.22011 0.28007 0.72004
 O74 O 0.25006 0.25009 0.74999
 O75 O 0.27228 0.17058 0.72777
 O76 O 0.22784 0.22786 0.82951
 O77 O 0.32958 0.27229 0.77220
 O78 O 0.22785 0.17056 0.77217
 O79 O 0.32959 0.22790 0.72777
 O80 O 0.27224 0.27228 0.82952
 O81 O 0.22787 0.32962 0.72780
 O82 O 0.17053 0.22788 0.77220
 O83 O 0.27227 0.32961 0.77221
 O84 O 0.17054 0.27231 0.72781
 O85 O 0.22786 0.27231 0.67047
 O86 O 0.27228 0.22790 0.67046
 C87 C 0.25007 0.15316 0.74997
 C88 C 0.25003 0.25006 0.84693
 C89 C 0.34700 0.25010 0.74998
 C90 C 0.25007 0.34703 0.75001
 C91 C 0.15312 0.25010 0.75001
 C92 C 0.25007 0.25010 0.65305
 Zn93 Zn 0.71994 0.71998 0.22003
 Zn94 Zn 0.77988 0.77990 0.22002
 Zn95 Zn 0.71995 0.77990 0.27996
 Zn96 Zn 0.77987 0.71997 0.27994
 O97 O 0.74991 0.74994 0.24999
 O98 O 0.72770 0.72775 0.17047
 O99 O 0.77213 0.82946 0.22779
 O100 O 0.67038 0.77215 0.27222
 O101 O 0.77212 0.77215 0.17046
 O102 O 0.67038 0.72774 0.22781
 O103 O 0.72771 0.82946 0.27220
 O104 O 0.77211 0.72773 0.32950
 O105 O 0.82944 0.77214 0.22777
 O106 O 0.72771 0.77214 0.32952
 O107 O 0.82943 0.72773 0.27217
 O108 O 0.77211 0.67041 0.27218
 O109 O 0.72770 0.67042 0.22778
 C110 C 0.74991 0.74995 0.15305
 C111 C 0.74992 0.84688 0.25000
 C112 C 0.65297 0.74995 0.25002
 C113 C 0.74991 0.74994 0.34693
 C114 C 0.84685 0.74993 0.24997
 C115 C 0.74991 0.65300 0.24997
 Zn116 Zn 0.27987 0.77990 0.22002
 Zn117 Zn 0.21994 0.71998 0.22003
 Zn118 Zn 0.27986 0.71997 0.27995
 Zn119 Zn 0.21994 0.77990 0.27996
 O120 O 0.24990 0.74994 0.24999
 O121 O 0.27211 0.77214 0.17046
 O122 O 0.22769 0.67042 0.22779
 O123 O 0.32942 0.72773 0.27217
 O124 O 0.22770 0.72774 0.17047
 O125 O 0.32943 0.77214 0.22777
 O126 O 0.27209 0.67041 0.27219
 O127 O 0.22770 0.77215 0.32952
 O128 O 0.17038 0.72774 0.22781
 O129 O 0.27210 0.72774 0.32951
 O130 O 0.17038 0.77214 0.27222
 O131 O 0.22769 0.82946 0.27219
 O132 O 0.27210 0.82946 0.22777
 C133 C 0.24990 0.74994 0.15305
 C134 C 0.24989 0.65300 0.24999
 C135 C 0.34684 0.74994 0.24997
 C136 C 0.24990 0.74995 0.34693
 C137 C 0.15296 0.74994 0.25002
 C138 C 0.24989 0.84688 0.24997
 Zn139 Zn 0.71995 0.27989 0.22003
 Zn140 Zn 0.77988 0.21997 0.22002
 Zn141 Zn 0.77987 0.27990 0.27994
 Zn142 Zn 0.71995 0.21997 0.27996
 O143 O 0.74991 0.24993 0.24999
 O144 O 0.72771 0.27213 0.17047
 O145 O 0.82943 0.22772 0.22777
 O146 O 0.77211 0.32946 0.27217
 O147 O 0.77212 0.22773 0.17046
 O148 O 0.72770 0.32945 0.22779
 O149 O 0.82943 0.27214 0.27217
 O150 O 0.72771 0.22773 0.32952
 O151 O 0.77212 0.17041 0.22778
 O152 O 0.77212 0.27214 0.32950
 O153 O 0.72772 0.17041 0.27221
 O154 O 0.67039 0.22771 0.27221
 O155 O 0.67038 0.27212 0.22780
 C156 C 0.74992 0.24993 0.15305
 C157 C 0.84685 0.24993 0.24996
 C158 C 0.74991 0.34687 0.24998
 C159 C 0.74992 0.24993 0.34693
 C160 C 0.74992 0.15299 0.25000
 C161 C 0.65297 0.24991 0.25001
 Zn162 Zn 0.21994 0.27989 0.22004
 Zn163 Zn 0.27987 0.21997 0.22002
 Zn164 Zn 0.27987 0.27990 0.27994
 Zn165 Zn 0.21994 0.21997 0.27997
 O166 O 0.24990 0.24993 0.24999
 O167 O 0.22771 0.27214 0.17047
 O168 O 0.32943 0.22772 0.22777
 O169 O 0.27210 0.32946 0.27219
 O170 O 0.27212 0.22774 0.17046
 O171 O 0.22769 0.32945 0.22780
 O172 O 0.32943 0.27214 0.27217
 O173 O 0.22770 0.22773 0.32952
 O174 O 0.27210 0.17041 0.22777
 O175 O 0.27210 0.27214 0.32951
 O176 O 0.22770 0.17041 0.27220
 O177 O 0.17038 0.22772 0.27222
 O178 O 0.17038 0.27212 0.22780
 C179 C 0.24992 0.24994 0.15305
 C180 C 0.34684 0.24993 0.24997
 C181 C 0.24989 0.34687 0.24999
 C182 C 0.24990 0.24993 0.34693
 C183 C 0.24989 0.15299 0.24998
 C184 C 0.15297 0.24991 0.25001
 C185 C -0.03665 0.75007 0.74999
 C186 C -0.01926 0.75044 0.78984
 C187 C 0.01935 0.75045 0.78985
 C188 C 0.03678 0.75007 0.75001
 C189 C 0.01938 0.78440 0.72975
 C190 C -0.01923 0.78439 0.72974
 C191 C -0.01923 0.71537 0.73039
 C192 C 0.01938 0.71537 0.73040
 C193 C -0.07822 0.75006 0.74998
 C194 C -0.11237 0.75008 0.74997
 C195 C 0.07834 0.75007 0.75001
 C196 C 0.11250 0.75008 0.75001
 H197 H -0.03581 0.75069 0.81578
 H198 H 0.03587 0.75069 0.81579
 H199 H 0.03592 0.80674 0.71658
 H200 H -0.03576 0.80673 0.71656
 H201 H -0.03575 0.69279 0.71763
 H202 H 0.03592 0.69279 0.71765
 C203 C 0.75005 -0.03662 0.75002
 C204 C 0.71872 -0.01921 0.72539
 C205 C 0.71873 0.01940 0.72539
 C206 C 0.75005 0.03681 0.75002
 C207 C 0.78705 0.01940 0.73520
 C208 C 0.78705 -0.01921 0.73521
 C209 C 0.74436 -0.01921 0.78947
 C210 C 0.74436 0.01940 0.78947
 C211 C 0.75004 -0.07818 0.75002
 C212 C 0.75006 -0.11234 0.75000
 C213 C 0.75005 0.07837 0.75002
 C214 C 0.75006 0.11253 0.75000
 H215 H 0.69834 -0.03574 0.70936
 H216 H 0.69834 0.03593 0.70936
 H217 H 0.81113 0.03593 0.72556
 H218 H 0.81113 -0.03575 0.72556
 H219 H 0.74066 -0.03574 0.81514
 H220 H 0.74067 0.03594 0.81514
 C221 C 0.74998 0.75003 -0.03673
 C222 C 0.77082 0.71606 -0.01933
 C223 C 0.77080 0.71604 0.01928
 C224 C 0.74994 0.74999 0.03671
 C225 C 0.71011 0.74893 0.01928
 C226 C 0.71013 0.74895 -0.01932
 C227 C 0.76895 0.78506 -0.01930
 C228 C 0.76893 0.78504 0.01931
 C229 C 0.75000 0.75004 -0.07829
 C230 C 0.75001 0.75004 -0.11244
 C231 C 0.74991 0.74997 0.07827
 C232 C 0.74990 0.74996 0.11242
 H233 H 0.78439 0.69396 -0.03587
 H234 H 0.78436 0.69393 0.03580
 H235 H 0.68417 0.74822 0.03581
 H236 H 0.68421 0.74826 -0.03586
 H237 H 0.78132 0.80787 -0.03582
 H238 H 0.78128 0.80783 0.03586
 C239 C 0.53678 0.75008 0.75001
 C240 C 0.51938 0.71890 0.72517
 C241 C 0.48078 0.71890 0.72517
 C242 C 0.46335 0.75007 0.74999
 C243 C 0.48077 0.78716 0.73541
 C244 C 0.51938 0.78717 0.73542
 C245 C 0.51935 0.74416 0.78941
 C246 C 0.48074 0.74416 0.78940
 C247 C 0.57834 0.75008 0.75001
 C248 C 0.61250 0.75009 0.75001
 C249 C 0.42178 0.75007 0.74998
 C250 C 0.38763 0.75009 0.74997
 H251 H 0.53593 0.69862 0.70902
 H252 H 0.46425 0.69861 0.70900
 H253 H 0.46424 0.81130 0.72592
 H254 H 0.53591 0.81131 0.72593
 H255 H 0.53587 0.74031 0.81507
 H256 H 0.46419 0.74031 0.81505
 C257 C 0.25009 -0.03663 0.74995
 C258 C 0.21877 -0.01921 0.72531
 C259 C 0.21877 0.01940 0.72531
 C260 C 0.25009 0.03681 0.74994
 C261 C 0.28709 0.01940 0.73513
 C262 C 0.28709 -0.01921 0.73513
 C263 C 0.24441 -0.01921 0.78939
 C264 C 0.24441 0.01940 0.78939
 C265 C 0.25008 -0.07819 0.74995
 C266 C 0.25007 -0.11234 0.74996
 C267 C 0.25008 0.07837 0.74994
 C268 C 0.25006 0.11253 0.74995
 H269 H 0.19839 -0.03575 0.70928
 H270 H 0.19839 0.03593 0.70928
 H271 H 0.31117 0.03593 0.72548
 H272 H 0.31117 -0.03575 0.72549
 H273 H 0.24071 -0.03574 0.81507
 H274 H 0.24071 0.03594 0.81506
 C275 C 0.24995 0.75006 -0.03673
 C276 C 0.27079 0.71609 -0.01933
 C277 C 0.27077 0.71606 0.01928
 C278 C 0.24991 0.75001 0.03671
 C279 C 0.21008 0.74895 0.01929
 C280 C 0.21010 0.74897 -0.01932
 C281 C 0.26893 0.78509 -0.01929
 C282 C 0.26891 0.78506 0.01932
 C283 C 0.24997 0.75008 -0.07829
 C284 C 0.25001 0.75009 -0.11244
 C285 C 0.24989 0.74998 0.07827
 C286 C 0.24989 0.74996 0.11242
 H287 H 0.28437 0.69399 -0.03588
 H288 H 0.28433 0.69395 0.03580
 H289 H 0.18415 0.74824 0.03582
 H290 H 0.18419 0.74829 -0.03586
 H291 H 0.28129 0.80790 -0.03581
 H292 H 0.28125 0.80786 0.03587
 C293 C -0.03666 0.25012 0.74999
 C294 C -0.01926 0.25049 0.78984
 C295 C 0.01934 0.25048 0.78985
 C296 C 0.03678 0.25010 0.75000
 C297 C 0.01938 0.28443 0.72975
 C298 C -0.01923 0.28444 0.72974
 C299 C -0.01924 0.21541 0.73039
 C300 C 0.01937 0.21541 0.73040
 C301 C -0.07822 0.25012 0.74998
 C302 C -0.11237 0.25010 0.74997
 C303 C 0.07834 0.25009 0.75001
 C304 C 0.11249 0.25010 0.75001
 H305 H -0.03581 0.25074 0.81577
 H306 H 0.03587 0.25072 0.81579
 H307 H 0.03593 0.30677 0.71657
 H308 H -0.03575 0.30678 0.71656
 H309 H -0.03577 0.19283 0.71763
 H310 H 0.03591 0.19282 0.71765
 C311 C 0.75005 0.53681 0.74994
 C312 C 0.76605 0.51939 0.71344
 C313 C 0.76605 0.48079 0.71344
 C314 C 0.75005 0.46338 0.74995
 C315 C 0.71044 0.48079 0.75435
 C316 C 0.71044 0.51940 0.75435
 C317 C 0.77365 0.51940 0.78204
 C318 C 0.77366 0.48079 0.78205
 C319 C 0.75004 0.57837 0.74994
 C320 C 0.75004 0.61253 0.74995
 C321 C 0.75004 0.42181 0.74996
 C322 C 0.75004 0.38766 0.74995
 H323 H 0.77646 0.53593 0.68968
 H324 H 0.77646 0.46425 0.68969
 H325 H 0.68466 0.46426 0.75722
 H326 H 0.68466 0.53593 0.75721
 H327 H 0.78902 0.53594 0.80293
 H328 H 0.78902 0.46426 0.80294
 C329 C 0.75000 0.25005 -0.03673
 C330 C 0.77084 0.21608 -0.01934
 C331 C 0.77082 0.21604 0.01927
 C332 C 0.74996 0.24999 0.03671
 C333 C 0.71013 0.24893 0.01928
 C334 C 0.71015 0.24896 -0.01933
 C335 C 0.76898 0.28508 -0.01929
 C336 C 0.76896 0.28505 0.01932
 C337 C 0.75001 0.25009 -0.07829
 C338 C 0.75004 0.25010 -0.11244
 C339 C 0.74993 0.24996 0.07827
 C340 C 0.74993 0.24994 0.11242
 H341 H 0.78442 0.19399 -0.03589
 H342 H 0.78438 0.19393 0.03579
 H343 H 0.68419 0.24822 0.03581
 H344 H 0.68423 0.24828 -0.03586
 H345 H 0.78134 0.30789 -0.03580
 H346 H 0.78131 0.30783 0.03588
 C347 C 0.53678 0.25010 0.75000
 C348 C 0.51937 0.21893 0.72517
 C349 C 0.48077 0.21893 0.72517
 C350 C 0.46334 0.25011 0.74999
 C351 C 0.48077 0.28719 0.73541
 C352 C 0.51938 0.28719 0.73541
 C353 C 0.51934 0.24419 0.78941
 C354 C 0.48074 0.24419 0.78940
 C355 C 0.57834 0.25009 0.75001
 C356 C 0.61249 0.25008 0.75001
 C357 C 0.42178 0.25010 0.74998
 C358 C 0.38763 0.25009 0.74998
 H359 H 0.53592 0.19864 0.70902
 H360 H 0.46424 0.19864 0.70900
 H361 H 0.46424 0.31133 0.72591
 H362 H 0.53592 0.31132 0.72593
 H363 H 0.53587 0.24034 0.81506
 H364 H 0.46419 0.24035 0.81505
 C365 C 0.25008 0.53681 0.75001
 C366 C 0.26609 0.51940 0.71351
 C367 C 0.26609 0.48079 0.71351
 C368 C 0.25009 0.46337 0.75002
 C369 C 0.21048 0.48079 0.75442
 C370 C 0.21047 0.51940 0.75442
 C371 C 0.27369 0.51940 0.78211
 C372 C 0.27369 0.48079 0.78212
 C373 C 0.25008 0.57837 0.75001
 C374 C 0.25008 0.61253 0.74999
 C375 C 0.25009 0.42181 0.75002
 C376 C 0.25009 0.38766 0.75000
 H377 H 0.27650 0.53593 0.68975
 H378 H 0.27651 0.46425 0.68976
 H379 H 0.18470 0.46425 0.75729
 H380 H 0.18469 0.53593 0.75728
 H381 H 0.28906 0.53594 0.80300
 H382 H 0.28906 0.46426 0.80301
 C383 C 0.24997 0.25002 -0.03673
 C384 C 0.27081 0.21605 -0.01933
 C385 C 0.27079 0.21602 0.01928
 C386 C 0.24994 0.24998 0.03671
 C387 C 0.21011 0.24891 0.01929
 C388 C 0.21012 0.24893 -0.01932
 C389 C 0.26895 0.28505 -0.01929
 C390 C 0.26893 0.28503 0.01932
 C391 C 0.24999 0.25004 -0.07829
 C392 C 0.25001 0.25005 -0.11244
 C393 C 0.24991 0.24996 0.07827
 C394 C 0.24991 0.24994 0.11242
 H395 H 0.28439 0.19395 -0.03587
 H396 H 0.28435 0.19391 0.03581
 H397 H 0.18417 0.24820 0.03582
 H398 H 0.18420 0.24824 -0.03586
 H399 H 0.28131 0.30786 -0.03581
 H400 H 0.28128 0.30782 0.03587
 C401 C -0.03681 0.74996 0.24999
 C402 C -0.01943 0.75034 0.28984
 C403 C 0.01918 0.75034 0.28986
 C404 C 0.03662 0.74997 0.25001
 C405 C 0.01922 0.78429 0.22975
 C406 C -0.01939 0.78429 0.22974
 C407 C -0.01938 0.71527 0.23039
 C408 C 0.01922 0.71527 0.23040
 C409 C -0.07837 0.74995 0.24997
 C410 C -0.11253 0.74993 0.24996
 C411 C 0.07818 0.74996 0.25002
 C412 C 0.11233 0.74994 0.25003
 H413 H -0.03598 0.75059 0.31577
 H414 H 0.03570 0.75059 0.31580
 H415 H 0.03576 0.80663 0.21658
 H416 H -0.03592 0.80663 0.21656
 H417 H -0.03591 0.69268 0.21763
 H418 H 0.03577 0.69269 0.21765
 C419 C 0.74993 -0.03678 0.25003
 C420 C 0.71861 -0.01937 0.22540
 C421 C 0.71861 0.01924 0.22540
 C422 C 0.74993 0.03665 0.25003
 C423 C 0.78694 0.01924 0.23522
 C424 C 0.78694 -0.01937 0.23522
 C425 C 0.74425 -0.01937 0.28948
 C426 C 0.74425 0.01924 0.28948
 C427 C 0.74993 -0.07834 0.25002
 C428 C 0.74993 -0.11250 0.25000
 C429 C 0.74993 0.07821 0.25003
 C430 C 0.74993 0.11236 0.25000
 H431 H 0.69823 -0.03590 0.20937
 H432 H 0.69823 0.03577 0.20937
 H433 H 0.81102 0.03577 0.22558
 H434 H 0.81102 -0.03591 0.22558
 H435 H 0.74056 -0.03591 0.31515
 H436 H 0.74056 0.03577 0.31515
 C437 C 0.75006 0.75008 0.53671
 C438 C 0.75316 0.78980 0.51925
 C439 C 0.75312 0.78976 0.48064
 C440 C 0.74999 0.75002 0.46327
 C441 C 0.71404 0.73287 0.48074
 C442 C 0.71408 0.73290 0.51935
 C443 C 0.78289 0.72750 0.51927
 C444 C 0.78285 0.72747 0.48066
 C445 C 0.75009 0.75011 0.57827
 C446 C 0.75010 0.75012 0.61242
 C447 C 0.74994 0.74997 0.42171
 C448 C 0.74992 0.74995 0.38756
 H449 H 0.75521 0.81567 0.53576
 H450 H 0.75514 0.81561 0.46408
 H451 H 0.69062 0.72168 0.46425
 H452 H 0.69068 0.72174 0.53593
 H453 H 0.80429 0.71284 0.53579
 H454 H 0.80422 0.71277 0.46411
 C455 C 0.53662 0.74997 0.25001
 C456 C 0.51923 0.71880 0.22517
 C457 C 0.48062 0.71879 0.22516
 C458 C 0.46318 0.74996 0.24998
 C459 C 0.48061 0.78705 0.23540
 C460 C 0.51922 0.78706 0.23542
 C461 C 0.51918 0.74405 0.28941
 C462 C 0.48057 0.74405 0.28940
 C463 C 0.57819 0.74996 0.25002
 C464 C 0.61234 0.74995 0.25003
 C465 C 0.42162 0.74995 0.24996
 C466 C 0.38747 0.74993 0.24996
 H467 H 0.53578 0.69851 0.20902
 H468 H 0.46410 0.69850 0.20899
 H469 H 0.46408 0.81119 0.22591
 H470 H 0.53576 0.81120 0.22593
 H471 H 0.53570 0.74021 0.31507
 H472 H 0.46402 0.74020 0.31504
 C473 C 0.24985 -0.03678 0.24996
 C474 C 0.21853 -0.01937 0.22533
 C475 C 0.21853 0.01924 0.22533
 C476 C 0.24985 0.03665 0.24996
 C477 C 0.28685 0.01924 0.23514
 C478 C 0.28685 -0.01937 0.23514
 C479 C 0.24417 -0.01937 0.28941
 C480 C 0.24417 0.01924 0.28941
 C481 C 0.24985 -0.07834 0.24996
 C482 C 0.24987 -0.11250 0.24995
 C483 C 0.24985 0.07821 0.24996
 C484 C 0.24987 0.11237 0.24996
 H485 H 0.19815 -0.03590 0.20929
 H486 H 0.19815 0.03578 0.20930
 H487 H 0.31093 0.03578 0.22550
 H488 H 0.31093 -0.03590 0.22550
 H489 H 0.24047 -0.03591 0.31508
 H490 H 0.24047 0.03577 0.31508
 C491 C 0.25004 0.75004 0.53671
 C492 C 0.25314 0.78976 0.51927
 C493 C 0.25310 0.78974 0.48066
 C494 C 0.24997 0.75000 0.46327
 C495 C 0.21402 0.73284 0.48074
 C496 C 0.21406 0.73286 0.51935
 C497 C 0.28287 0.72747 0.51927
 C498 C 0.28284 0.72744 0.48066
 C499 C 0.25007 0.75006 0.57827
 C500 C 0.25008 0.75008 0.61242
 C501 C 0.24994 0.74997 0.42171
 C502 C 0.24991 0.74996 0.38756
 H503 H 0.25518 0.81563 0.53578
 H504 H 0.25512 0.81558 0.46410
 H505 H 0.19060 0.72166 0.46424
 H506 H 0.19067 0.72170 0.53592
 H507 H 0.30427 0.71280 0.53579
 H508 H 0.30420 0.71275 0.46411
 C509 C -0.03681 0.24989 0.24999
 C510 C -0.01942 0.25026 0.28984
 C511 C 0.01919 0.25026 0.28985
 C512 C 0.03663 0.24988 0.25001
 C513 C 0.01923 0.28421 0.22975
 C514 C -0.01938 0.28421 0.22974
 C515 C -0.01939 0.21519 0.23039
 C516 C 0.01922 0.21518 0.23040
 C517 C -0.07837 0.24989 0.24998
 C518 C -0.11252 0.24991 0.24996
 C519 C 0.07818 0.24988 0.25001
 C520 C 0.11234 0.24989 0.25000
 H521 H -0.03597 0.25051 0.31577
 H522 H 0.03571 0.25050 0.31579
 H523 H 0.03577 0.30654 0.21657
 H524 H -0.03591 0.30655 0.21656
 H525 H -0.03592 0.19260 0.21763
 H526 H 0.03576 0.19260 0.21765
 C527 C 0.74993 0.53665 0.24995
 C528 C 0.76594 0.51924 0.21345
 C529 C 0.76594 0.48063 0.21345
 C530 C 0.74994 0.46321 0.24995
 C531 C 0.71033 0.48063 0.25435
 C532 C 0.71033 0.51924 0.25435
 C533 C 0.77354 0.51924 0.28205
 C534 C 0.77354 0.48063 0.28205
 C535 C 0.74993 0.57821 0.24995
 C536 C 0.74991 0.61237 0.24996
 C537 C 0.74993 0.42165 0.24995
 C538 C 0.74991 0.38750 0.24996
 H539 H 0.77635 0.53577 0.18969
 H540 H 0.77636 0.46410 0.18969
 H541 H 0.68455 0.46409 0.25722
 H542 H 0.68455 0.53577 0.25722
 H543 H 0.78891 0.53577 0.30294
 H544 H 0.78891 0.46409 0.30294
 C545 C 0.75003 0.25000 0.53671
 C546 C 0.75313 0.28972 0.51926
 C547 C 0.75311 0.28969 0.48065
 C548 C 0.74998 0.24995 0.46327
 C549 C 0.71403 0.23280 0.48073
 C550 C 0.71405 0.23282 0.51934
 C551 C 0.78287 0.22742 0.51928
 C552 C 0.78284 0.22740 0.48067
 C553 C 0.75005 0.25003 0.57827
 C554 C 0.75006 0.25005 0.61242
 C555 C 0.74995 0.24992 0.42171
 C556 C 0.74993 0.24992 0.38756
 H557 H 0.75517 0.31559 0.53578
 H558 H 0.75513 0.31554 0.46410
 H559 H 0.69061 0.22161 0.46422
 H560 H 0.69066 0.22166 0.53590
 H561 H 0.80426 0.21275 0.53580
 H562 H 0.80421 0.21271 0.46412
 C563 C 0.53663 0.24988 0.25001
 C564 C 0.51922 0.21871 0.22518
 C565 C 0.48061 0.21871 0.22517
 C566 C 0.46319 0.24989 0.24999
 C567 C 0.48061 0.28697 0.23541
 C568 C 0.51922 0.28697 0.23542
 C569 C 0.51919 0.24397 0.28941
 C570 C 0.48058 0.24397 0.28941
 C571 C 0.57819 0.24988 0.25001
 C572 C 0.61234 0.24989 0.25000
 C573 C 0.42163 0.24989 0.24998
 C574 C 0.38747 0.24991 0.24997
 H575 H 0.53576 0.19841 0.20902
 H576 H 0.46408 0.19842 0.20901
 H577 H 0.46409 0.31111 0.22591
 H578 H 0.53577 0.31110 0.22593
 H579 H 0.53571 0.24011 0.31507
 H580 H 0.46403 0.24012 0.31505
 C581 C 0.24986 0.53665 0.25002
 C582 C 0.26586 0.51924 0.21351
 C583 C 0.26586 0.48063 0.21351
 C584 C 0.24986 0.46322 0.25002
 C585 C 0.21025 0.48063 0.25442
 C586 C 0.21025 0.51924 0.25442
 C587 C 0.27346 0.51924 0.28212
 C588 C 0.27346 0.48063 0.28212
 C589 C 0.24986 0.57822 0.25001
 C590 C 0.24988 0.61237 0.24999
 C591 C 0.24986 0.42165 0.25001
 C592 C 0.24988 0.38750 0.24999
 H593 H 0.27627 0.53577 0.18976
 H594 H 0.27627 0.46410 0.18976
 H595 H 0.18447 0.46409 0.25729
 H596 H 0.18447 0.53577 0.25729
 H597 H 0.28883 0.53577 0.30301
 H598 H 0.28883 0.46410 0.30301
 C599 C 0.25001 0.25003 0.53671
 C600 C 0.25311 0.28975 0.51926
 C601 C 0.25308 0.28972 0.48065
 C602 C 0.24995 0.24998 0.46327
 C603 C 0.21400 0.23282 0.48074
 C604 C 0.21403 0.23285 0.51935
 C605 C 0.28285 0.22745 0.51928
 C606 C 0.28282 0.22742 0.48067
 C607 C 0.25004 0.25006 0.57827
 C608 C 0.25005 0.25009 0.61242
 C609 C 0.24992 0.24994 0.42171
 C610 C 0.24991 0.24993 0.38756
 H611 H 0.25516 0.31562 0.53578
 H612 H 0.25510 0.31556 0.46410
 H613 H 0.19058 0.22164 0.46424
 H614 H 0.19064 0.22169 0.53592
 H615 H 0.30424 0.21278 0.53580
 H616 H 0.30418 0.21273 0.46412
   
