data_POSCAR
  _audit_creation_date              2014-09-24
  _audit_creation_method            'ToBaCCo'
  _symmetry_space_group_name_H-M    'P1'
  _symmetry_Int_Tables_number       1
  _symmetry_cell_setting            triclinic
  loop_
  _symmetry_equiv_pos_as_xyz
 x,y,z
_cell_length_a 43.1687
_cell_length_b 43.3753
_cell_length_c 43.5607
_cell_angle_alpha 90.167000
_cell_angle_beta 90.017700
_cell_angle_gamma 90.015000
loop_
  _atom_site_label
  _atom_site_type_symbol
  _atom_site_fract_x
  _atom_site_fract_y
  _atom_site_fract_z
C1 C 0.25049 0.27166 0.22746
 C2 C 0.27340 0.27137 0.20463
 C3 C 0.29649 0.24850 0.20436
 C4 C 0.29639 0.22573 0.22730
 C5 C 0.27360 0.22569 0.25025
 C6 C 0.25056 0.24875 0.25036
 C7 C 0.22752 0.29452 0.22772
 C8 C 0.20450 0.29483 0.25057
 C9 C 0.20474 0.27187 0.27333
 C10 C 0.22759 0.24889 0.27338
 C11 C 0.22781 0.22604 0.29609
 C12 C 0.25068 0.20294 0.29614
 C13 C 0.27350 0.20297 0.27309
 H14 H 0.27300 0.28875 0.18681
 H15 H 0.31433 0.20825 0.22753
 H16 H 0.22781 0.31236 0.21035
 H17 H 0.18685 0.27165 0.29078
 H18 H 0.21039 0.22648 0.31400
 H19 H 0.29097 0.18502 0.27268
 C20 C 0.74961 -0.27317 0.22728
 C21 C 0.72687 -0.27276 0.20424
 C22 C 0.70389 -0.24952 0.20339
 C23 C 0.70448 -0.22657 0.22652
 C24 C 0.72694 -0.22689 0.24979
 C25 C 0.74953 -0.25031 0.25023
 C26 C 0.77242 -0.29623 0.22760
 C27 C 0.79535 -0.29716 0.25079
 C28 C 0.79460 -0.27413 0.27384
 C29 C 0.77207 -0.25084 0.27362
 C30 C 0.77187 -0.22794 0.29643
 C31 C 0.74940 -0.20446 0.29621
 C32 C 0.72700 -0.20415 0.27277
 H33 H 0.72815 -0.28999 0.18627
 H34 H 0.68668 -0.20903 0.22751
 H35 H 0.77125 -0.31415 0.21029
 H36 H 0.81236 -0.27319 0.29136
 H37 H 0.78897 -0.22861 0.31464
 H38 H 0.70985 -0.18591 0.27216
 C39 C 0.74969 0.27302 0.77258
 C40 C 0.72699 0.27260 0.79563
 C41 C 0.70401 0.24935 0.79650
 C42 C 0.70459 0.22637 0.77341
 C43 C 0.72703 0.22669 0.75012
 C44 C 0.74961 0.25014 0.74966
 C45 C 0.77249 0.29610 0.77224
 C46 C 0.79541 0.29704 0.74905
 C47 C 0.79465 0.27399 0.72602
 C48 C 0.77212 0.25068 0.72625
 C49 C 0.77191 0.22775 0.70346
 C50 C 0.74947 0.20425 0.70372
 C51 C 0.72709 0.20393 0.72717
 H52 H 0.72828 0.28985 0.81359
 H53 H 0.68680 0.20881 0.77244
 H54 H 0.77132 0.31403 0.78953
 H55 H 0.81239 0.27307 0.70848
 H56 H 0.78900 0.22842 0.68525
 H57 H 0.70995 0.18567 0.72779
 C58 C 0.24925 -0.27108 0.77328
 C59 C 0.27201 -0.27056 0.79628
 C60 C 0.29524 -0.24782 0.79640
 C61 C 0.29536 -0.22531 0.77323
 C62 C 0.27275 -0.22554 0.75009
 C63 C 0.24969 -0.24860 0.75003
 C64 C 0.22622 -0.29390 0.77315
 C65 C 0.20335 -0.29499 0.74990
 C66 C 0.20429 -0.27223 0.72671
 C67 C 0.22709 -0.24917 0.72671
 C68 C 0.22751 -0.22656 0.70375
 C69 C 0.25028 -0.20335 0.70372
 C70 C 0.27288 -0.20308 0.72698
 H71 H 0.27144 -0.28770 0.81433
 H72 H 0.31337 -0.20790 0.77290
 H73 H 0.22722 -0.31157 0.79062
 H74 H 0.18654 -0.27137 0.70918
 H75 H 0.21030 -0.22724 0.68563
 H76 H 0.29031 -0.18510 0.72738
 C77 C 0.75036 -0.27121 0.77311
 C78 C 0.72764 -0.27068 0.79613
 C79 C 0.70444 -0.24792 0.79628
 C80 C 0.70431 -0.22541 0.77312
 C81 C 0.72688 -0.22564 0.74996
 C82 C 0.74991 -0.24872 0.74987
 C83 C 0.77336 -0.29404 0.77296
 C84 C 0.79620 -0.29512 0.74969
 C85 C 0.79525 -0.27236 0.72651
 C86 C 0.77248 -0.24930 0.72654
 C87 C 0.77206 -0.22667 0.70359
 C88 C 0.74933 -0.20344 0.70360
 C89 C 0.72675 -0.20317 0.72688
 H90 H 0.72822 -0.28783 0.81418
 H91 H 0.68632 -0.20798 0.77282
 H92 H 0.77238 -0.31171 0.79043
 H93 H 0.81298 -0.27150 0.70897
 H94 H 0.78924 -0.22734 0.68546
 H95 H 0.70935 -0.18516 0.72730
 C96 C 0.25043 0.27297 0.77240
 C97 C 0.27330 0.27267 0.79528
 C98 C 0.29633 0.24974 0.79551
 C99 C 0.29624 0.22696 0.77246
 C100 C 0.27350 0.22693 0.74946
 C101 C 0.25049 0.25002 0.74940
 C102 C 0.22749 0.29586 0.77219
 C103 C 0.20450 0.29614 0.74930
 C104 C 0.20473 0.27315 0.72645
 C105 C 0.22755 0.25014 0.72634
 C106 C 0.22776 0.22725 0.70354
 C107 C 0.25060 0.20412 0.70344
 C108 C 0.27339 0.20416 0.72653
 H109 H 0.27291 0.29007 0.81319
 H110 H 0.31415 0.20945 0.77218
 H111 H 0.22777 0.31372 0.78964
 H112 H 0.18685 0.27292 0.70897
 H113 H 0.21036 0.22767 0.68560
 H114 H 0.29083 0.18619 0.72690
 C115 C 0.25021 -0.27306 0.22690
 C116 C 0.27295 -0.27264 0.20388
 C117 C 0.29595 -0.24942 0.20306
 C118 C 0.29537 -0.22646 0.22618
 C119 C 0.27290 -0.22678 0.24943
 C120 C 0.25029 -0.25020 0.24984
 C121 C 0.22739 -0.29612 0.22719
 C122 C 0.20447 -0.29706 0.25038
 C123 C 0.20521 -0.27402 0.27341
 C124 C 0.22775 -0.25073 0.27321
 C125 C 0.22796 -0.22783 0.29603
 C126 C 0.25043 -0.20436 0.29583
 C127 C 0.27284 -0.20405 0.27241
 H128 H 0.27168 -0.28988 0.18590
 H129 H 0.31319 -0.20892 0.22720
 H130 H 0.22855 -0.31404 0.20989
 H131 H 0.18745 -0.27308 0.29092
 H132 H 0.21085 -0.22851 0.31422
 H133 H 0.29001 -0.18581 0.27183
 C134 C 0.75050 0.27138 0.22744
 C135 C 0.72778 0.27086 0.20440
 C136 C 0.70457 0.24810 0.20422
 C137 C 0.70445 0.22556 0.22736
 C138 C 0.72702 0.22578 0.25053
 C139 C 0.75006 0.24886 0.25065
 C140 C 0.77351 0.29421 0.22761
 C141 C 0.79637 0.29526 0.25088
 C142 C 0.79541 0.27249 0.27405
 C143 C 0.77263 0.24942 0.27399
 C144 C 0.77221 0.22677 0.29692
 C145 C 0.74947 0.20353 0.29687
 C146 C 0.72689 0.20328 0.27359
 H147 H 0.72836 0.28802 0.18637
 H148 H 0.68646 0.20812 0.22762
 H149 H 0.77252 0.31190 0.21016
 H150 H 0.81315 0.27162 0.29159
 H151 H 0.78939 0.22743 0.31505
 H152 H 0.70948 0.18527 0.27313
 O153 O 0.22524 0.02958 0.46989
 O154 O 0.22520 -0.03020 0.52971
 O155 O 0.22521 0.02976 0.52970
 O156 O 0.22519 -0.03038 0.46991
 O157 O 0.27628 -0.03043 0.46996
 O158 O 0.27630 0.02980 0.52970
 O159 O 0.27629 -0.03028 0.52970
 O160 O 0.27633 0.02963 0.46997
 Cu161 Cu 0.22010 -0.00031 0.49981
 Cu162 Cu 0.28142 -0.00032 0.49984
 C163 C 0.25079 0.03986 0.45967
 C164 C 0.25073 -0.04050 0.53996
 C165 C 0.25075 0.04010 0.53995
 C166 C 0.25073 -0.04071 0.45968
 O167 O 0.72359 0.02990 0.52994
 O168 O 0.72359 -0.03024 0.47009
 O169 O 0.72353 -0.03016 0.52983
 O170 O 0.72356 0.02984 0.47021
 O171 O 0.77464 0.02977 0.47018
 O172 O 0.77462 -0.03009 0.52990
 O173 O 0.77467 -0.03020 0.47010
 O174 O 0.77468 0.02987 0.52997
 Cu175 Cu 0.71845 -0.00017 0.50001
 Cu176 Cu 0.77977 -0.00017 0.50004
 C177 C 0.74914 0.04020 0.54022
 C178 C 0.74913 -0.04053 0.45983
 C179 C 0.74907 -0.04039 0.54010
 C180 C 0.74911 0.04008 0.45997
 O181 O 0.47025 0.22287 0.02964
 O182 O 0.53042 0.22297 -0.03028
 O183 O 0.53061 0.22272 0.02952
 O184 O 0.47011 0.22312 -0.03009
 O185 O 0.47049 0.27396 -0.02994
 O186 O 0.53052 0.27356 0.03006
 O187 O 0.53079 0.27381 -0.02966
 O188 O 0.47033 0.27371 0.02990
 Cu189 Cu 0.50034 0.21782 -0.00034
 Cu190 Cu 0.50053 0.27885 0.00011
 C191 C 0.45998 0.24828 0.04004
 C192 C 0.54095 0.24841 -0.04022
 C193 C 0.54088 0.24809 0.04006
 C194 C 0.45998 0.24862 -0.04028
 O195 O 0.53018 0.72641 0.02981
 O196 O 0.46988 0.72677 -0.02995
 O197 O 0.53007 0.72676 -0.02993
 O198 O 0.46979 0.72642 0.02979
 O199 O 0.46988 0.77726 0.03034
 O200 O 0.53020 0.77760 -0.02943
 O201 O 0.46981 0.77762 -0.02944
 O202 O 0.53014 0.77725 0.03036
 Cu203 Cu 0.49998 0.72150 -0.00009
 Cu204 Cu 0.50001 0.78253 0.00049
 C205 C 0.54051 0.75176 0.04033
 C206 C 0.45951 0.75225 -0.03996
 C207 C 0.54046 0.75222 -0.03994
 C208 C 0.45949 0.75178 0.04030
 O209 O 0.02990 0.46933 0.22567
 O210 O -0.03025 0.52948 0.22571
 O211 O 0.03014 0.52936 0.22560
 O212 O -0.03034 0.46953 0.22579
 O213 O -0.03003 0.46953 0.27641
 O214 O 0.03006 0.52979 0.27622
 O215 O -0.03022 0.52962 0.27634
 O216 O 0.03028 0.46979 0.27630
 Cu217 Cu -0.00014 0.49943 0.22062
 Cu218 Cu 0.00003 0.49971 0.28139
 C219 C 0.04042 0.45926 0.25097
 C220 C -0.04060 0.53982 0.25103
 C221 C 0.04046 0.53985 0.25087
 C222 C -0.04050 0.45922 0.25112
 O223 O 0.02985 0.53076 0.72394
 O224 O -0.03031 0.47055 0.72370
 O225 O -0.03038 0.53064 0.72387
 O226 O 0.03004 0.47074 0.72383
 O227 O 0.02969 0.47051 0.77445
 O228 O -0.03034 0.53075 0.77449
 O229 O -0.03059 0.47080 0.77433
 O230 O 0.02999 0.53056 0.77456
 Cu231 Cu -0.00020 0.50065 0.71876
 Cu232 Cu -0.00031 0.50066 0.77953
 C233 C 0.04025 0.54097 0.74930
 C234 C -0.04081 0.46040 0.74898
 C235 C -0.04068 0.54101 0.74919
 C236 C 0.04020 0.46033 0.74914
 C237 C 0.36630 0.24835 0.13424
 C238 C 0.35307 0.22032 0.14354
 C239 C 0.33025 0.22049 0.16646
 C240 C 0.32071 0.24842 0.18012
 C241 C 0.33435 0.27631 0.17052
 C242 C 0.35710 0.27641 0.14754
 C243 C 0.39024 0.24833 0.11009
 C244 C 0.40341 0.27637 0.10073
 C245 C 0.42613 0.27623 0.07773
 C246 C 0.43582 0.24828 0.06419
 C247 C 0.42235 0.22036 0.07394
 C248 C 0.39951 0.22026 0.09684
 C249 C 0.37086 0.30400 0.13763
 C250 C 0.39360 0.30398 0.11459
 C251 C 0.36288 0.19271 0.12969
 C252 C 0.38574 0.19268 0.10676
 H253 H 0.36397 0.32580 0.14772
 H254 H 0.40359 0.32577 0.10759
 H255 H 0.35285 0.17093 0.13666
 H256 H 0.39267 0.17087 0.09671
 H257 H 0.31963 0.19896 0.17336
 H258 H 0.32752 0.29788 0.18116
 H259 H 0.43634 0.29785 0.07050
 H260 H 0.42955 0.19872 0.06369
 C261 C 0.63483 0.75107 0.13398
 C262 C 0.64408 0.77894 0.14752
 C263 C 0.66690 0.77866 0.17044
 C264 C 0.68082 0.75070 0.18004
 C265 C 0.67102 0.72293 0.16578
 C266 C 0.64811 0.72302 0.14294
 C267 C 0.61071 0.75125 0.10997
 C268 C 0.60124 0.72329 0.09662
 C269 C 0.57823 0.72357 0.07389
 C270 C 0.56479 0.75159 0.06438
 C271 C 0.57467 0.77943 0.07800
 C272 C 0.59757 0.77937 0.10085
 C273 C 0.63804 0.69549 0.12905
 C274 C 0.61499 0.69562 0.10630
 C275 C 0.63042 0.80665 0.13775
 C276 C 0.60758 0.80687 0.11480
 H277 H 0.64804 0.67363 0.13581
 H278 H 0.60791 0.67388 0.09619
 H279 H 0.63742 0.82837 0.14795
 H280 H 0.59764 0.82873 0.10797
 H281 H 0.67452 0.80056 0.17973
 H282 H 0.68005 0.70090 0.17319
 H283 H 0.57089 0.70201 0.06356
 H284 H 0.56449 0.80112 0.07094
 C285 C 0.63506 0.24887 -0.13401
 C286 C 0.64425 0.22098 -0.14753
 C287 C 0.66702 0.22122 -0.17049
 C288 C 0.68096 0.24916 -0.18014
 C289 C 0.67120 0.27695 -0.16591
 C290 C 0.64835 0.27691 -0.14304
 C291 C 0.61101 0.24874 -0.10994
 C292 C 0.60162 0.27672 -0.09662
 C293 C 0.57867 0.27648 -0.07384
 C294 C 0.56521 0.24850 -0.06427
 C295 C 0.57502 0.22062 -0.07787
 C296 C 0.59786 0.22063 -0.10076
 C297 C 0.63834 0.30446 -0.12916
 C298 C 0.61537 0.30437 -0.10636
 C299 C 0.63059 0.19329 -0.13770
 C300 C 0.60781 0.19312 -0.11470
 H301 H 0.64835 0.32630 -0.13598
 H302 H 0.60833 0.32612 -0.09627
 H303 H 0.63754 0.17155 -0.14789
 H304 H 0.59786 0.17127 -0.10783
 H305 H 0.67461 0.19931 -0.17977
 H306 H 0.68022 0.29898 -0.17337
 H307 H 0.57138 0.29807 -0.06354
 H308 H 0.56482 0.19895 -0.07076
 C309 C 0.36532 0.75231 -0.13371
 C310 C 0.35585 0.72424 -0.14681
 C311 C 0.33298 0.72435 -0.16966
 C312 C 0.31949 0.75227 -0.17937
 C313 C 0.32929 0.78022 -0.16592
 C314 C 0.35223 0.78037 -0.14311
 C315 C 0.38943 0.75232 -0.10970
 C316 C 0.39897 0.78040 -0.09665
 C317 C 0.42195 0.78028 -0.07387
 C318 C 0.43528 0.75232 -0.06405
 C319 C 0.42533 0.72437 -0.07741
 C320 C 0.40246 0.72425 -0.10027
 C321 C 0.36233 0.80800 -0.12946
 C322 C 0.38532 0.80801 -0.10665
 C323 C 0.36949 0.69662 -0.13682
 C324 C 0.39238 0.69662 -0.11392
 H325 H 0.35240 0.82980 -0.13650
 H326 H 0.39246 0.82983 -0.09675
 H327 H 0.36238 0.67481 -0.14676
 H328 H 0.40227 0.67481 -0.10686
 H329 H 0.32595 0.70277 -0.18016
 H330 H 0.31880 0.80178 -0.17293
 H331 H 0.42935 0.80192 -0.06375
 H332 H 0.43542 0.70271 -0.07011
 C333 C 0.13445 0.36500 0.25077
 C334 C 0.14359 0.35160 0.22284
 C335 C 0.16644 0.32862 0.22291
 C336 C 0.18022 0.31910 0.25066
 C337 C 0.17075 0.33288 0.27847
 C338 C 0.14784 0.35580 0.27866
 C339 C 0.11039 0.38915 0.25083
 C340 C 0.10119 0.40249 0.27878
 C341 C 0.07825 0.42539 0.27871
 C342 C 0.06463 0.43505 0.25093
 C343 C 0.07425 0.42142 0.22311
 C344 C 0.09708 0.39842 0.22294
 C345 C 0.13807 0.36974 0.30615
 C346 C 0.11512 0.39267 0.30622
 C347 C 0.12967 0.36143 0.19539
 C348 C 0.10683 0.38446 0.19544
 H349 H 0.14823 0.36285 0.32782
 H350 H 0.10823 0.40280 0.32793
 H351 H 0.13652 0.35125 0.17369
 H352 H 0.09672 0.39139 0.17377
 H353 H 0.17322 0.31789 0.20144
 H354 H 0.18148 0.32605 0.29989
 H355 H 0.07110 0.43573 0.30026
 H356 H 0.06392 0.42859 0.20160
 C357 C 0.13418 0.63540 0.74965
 C358 C 0.14356 0.64857 0.72181
 C359 C 0.16636 0.67161 0.72199
 C360 C 0.18013 0.68170 0.74981
 C361 C 0.17014 0.66786 0.77756
 C362 C 0.14727 0.64490 0.77757
 C363 C 0.11016 0.61119 0.74956
 C364 C 0.10059 0.59819 0.77747
 C365 C 0.07769 0.57524 0.77727
 C366 C 0.06445 0.56519 0.74939
 C367 C 0.07443 0.57848 0.72159
 C368 C 0.09723 0.60153 0.72157
 C369 C 0.13708 0.63135 0.80505
 C370 C 0.11413 0.60841 0.80501
 C371 C 0.13010 0.63827 0.69423
 C372 C 0.10734 0.61515 0.69411
 H373 H 0.14693 0.63853 0.82681
 H374 H 0.10696 0.59858 0.82671
 H375 H 0.13720 0.64818 0.67254
 H376 H 0.09755 0.60790 0.67235
 H377 H 0.17411 0.68057 0.70013
 H378 H 0.17903 0.67568 0.79947
 H379 H 0.07027 0.56518 0.79880
 H380 H 0.06441 0.57101 0.70000
 C381 C -0.13525 0.63349 0.25094
 C382 C -0.14854 0.64266 0.22306
 C383 C -0.17155 0.66547 0.22312
 C384 C -0.18147 0.67950 0.25087
 C385 C -0.16754 0.66970 0.27866
 C386 C -0.14461 0.64680 0.27879
 C387 C -0.11103 0.60949 0.25097
 C388 C -0.09789 0.60016 0.27893
 C389 C -0.07490 0.57731 0.27884
 C390 C -0.06493 0.56390 0.25102
 C391 C -0.07837 0.57364 0.22318
 C392 C -0.10147 0.59637 0.22305
 C393 C -0.13094 0.63683 0.30633
 C394 C -0.10800 0.61390 0.30640
 C395 C -0.13836 0.62898 0.19556
 C396 C -0.11522 0.60625 0.19555
 H397 H -0.13802 0.64686 0.32803
 H398 H -0.09806 0.60690 0.32813
 H399 H -0.14837 0.63591 0.17383
 H400 H -0.10806 0.59631 0.17383
 H401 H -0.18058 0.67306 0.20123
 H402 H -0.17524 0.67881 0.30052
 H403 H -0.06472 0.57008 0.30040
 H404 H -0.07097 0.56348 0.20164
 C405 C -0.13529 0.36651 0.74893
 C406 C -0.14856 0.35732 0.77680
 C407 C -0.17153 0.33445 0.77673
 C408 C -0.18142 0.32039 0.74898
 C409 C -0.16749 0.33020 0.72119
 C410 C -0.14461 0.35316 0.72108
 C411 C -0.11113 0.39058 0.74892
 C412 C -0.09799 0.39994 0.72098
 C413 C -0.07505 0.42285 0.72110
 C414 C -0.06513 0.43629 0.74893
 C415 C -0.07857 0.42653 0.77675
 C416 C -0.10162 0.40374 0.77686
 C417 C -0.13095 0.36317 0.69355
 C418 C -0.10805 0.38617 0.69350
 C419 C -0.13844 0.37102 0.80431
 C420 C -0.11536 0.39383 0.80434
 H421 H -0.13799 0.35311 0.67185
 H422 H -0.09812 0.39318 0.67178
 H423 H -0.14844 0.36407 0.82603
 H424 H -0.10823 0.40379 0.82606
 H425 H -0.18054 0.32684 0.79862
 H426 H -0.17517 0.32107 0.69933
 H427 H -0.06486 0.43011 0.69955
 H428 H -0.07121 0.43671 0.79830
 C429 C 0.25076 0.13329 0.36591
 C430 C 0.27894 0.14638 0.35653
 C431 C 0.27879 0.16916 0.33374
 C432 C 0.25072 0.17879 0.32028
 C433 C 0.22268 0.16530 0.32996
 C434 C 0.22256 0.14258 0.35281
 C435 C 0.25077 0.10937 0.38992
 C436 C 0.22258 0.09634 0.39936
 C437 C 0.22271 0.07366 0.42224
 C438 C 0.25079 0.06390 0.43558
 C439 C 0.27886 0.07723 0.42575
 C440 C 0.27897 0.10002 0.40296
 C441 C 0.19482 0.12895 0.36280
 C442 C 0.19483 0.10624 0.38570
 C443 C 0.30669 0.13647 0.37017
 C444 C 0.30671 0.11366 0.39297
 H445 H 0.17291 0.13591 0.35286
 H446 H 0.17292 0.09635 0.39277
 H447 H 0.32859 0.14641 0.36315
 H448 H 0.32863 0.10666 0.40287
 H449 H 0.30044 0.17967 0.32678
 H450 H 0.20100 0.17220 0.31947
 H451 H 0.20097 0.06356 0.42955
 H452 H 0.30061 0.06997 0.43585
 C453 C 0.74932 0.13426 0.63390
 C454 C 0.77758 0.14403 0.64658
 C455 C 0.77749 0.16689 0.66942
 C456 C 0.74941 0.18003 0.67952
 C457 C 0.72128 0.16995 0.66646
 C458 C 0.72110 0.14704 0.64367
 C459 C 0.74927 0.11018 0.60991
 C460 C 0.72100 0.10037 0.59727
 C461 C 0.72108 0.07743 0.57451
 C462 C 0.74918 0.06439 0.56431
 C463 C 0.77732 0.07459 0.57726
 C464 C 0.77748 0.09745 0.60010
 C465 C 0.69329 0.13667 0.63043
 C466 C 0.69324 0.11371 0.60764
 C467 C 0.80534 0.13069 0.63621
 C468 C 0.80530 0.10782 0.61334
 H469 H 0.67137 0.14635 0.63777
 H470 H 0.67127 0.10635 0.59806
 H471 H 0.82730 0.13802 0.64583
 H472 H 0.82723 0.09816 0.60598
 H473 H 0.79922 0.17416 0.67960
 H474 H 0.69959 0.18019 0.67376
 H475 H 0.69928 0.06983 0.56471
 H476 H 0.79908 0.06473 0.56966
 C477 C 0.25051 -0.13394 0.63372
 C478 C 0.22227 -0.14335 0.64664
 C479 C 0.22234 -0.16602 0.66953
 C480 C 0.25038 -0.17934 0.67945
 C481 C 0.27849 -0.16962 0.66615
 C482 C 0.27869 -0.14689 0.64331
 C483 C 0.25057 -0.11004 0.60969
 C484 C 0.27882 -0.10056 0.59684
 C485 C 0.27876 -0.07777 0.57405
 C486 C 0.25069 -0.06455 0.56404
 C487 C 0.22257 -0.07444 0.57720
 C488 C 0.22239 -0.09713 0.60007
 C489 C 0.30648 -0.13686 0.62985
 C490 C 0.30655 -0.11407 0.60702
 C491 C 0.19454 -0.12985 0.63645
 C492 C 0.19459 -0.10716 0.61354
 H493 H 0.32838 -0.14668 0.63704
 H494 H 0.32850 -0.10697 0.59727
 H495 H 0.17260 -0.13691 0.64625
 H496 H 0.17269 -0.09737 0.60632
 H497 H 0.20063 -0.17300 0.67989
 H498 H 0.30015 -0.18000 0.67330
 H499 H 0.30054 -0.07041 0.56409
 H500 H 0.20083 -0.06444 0.56975
 C501 C 0.74928 -0.13453 0.36609
 C502 C 0.72106 -0.14733 0.35631
 C503 C 0.72123 -0.17022 0.33350
 C504 C 0.74936 -0.18027 0.32043
 C505 C 0.77744 -0.16710 0.33054
 C506 C 0.77753 -0.14427 0.35340
 C507 C 0.74923 -0.11048 0.39010
 C508 C 0.77745 -0.09772 0.39992
 C509 C 0.77730 -0.07488 0.42278
 C510 C 0.74916 -0.06471 0.43574
 C511 C 0.72106 -0.07777 0.42553
 C512 C 0.72098 -0.10069 0.40275
 C513 C 0.80530 -0.13092 0.36378
 C514 C 0.80526 -0.10806 0.38667
 C515 C 0.69325 -0.13699 0.36956
 C516 C 0.69321 -0.11405 0.39237
 H517 H 0.82725 -0.13822 0.35415
 H518 H 0.82719 -0.09839 0.39403
 H519 H 0.67133 -0.14669 0.36222
 H520 H 0.67125 -0.10672 0.40196
 H521 H 0.69954 -0.18047 0.32620
 H522 H 0.79916 -0.17435 0.32035
 H523 H 0.79906 -0.06500 0.43038
 H524 H 0.69927 -0.07019 0.43533
 C525 C 0.63450 0.75224 -0.13375
 C526 C 0.64389 0.72417 -0.14688
 C527 C 0.66672 0.72427 -0.16977
 C528 C 0.68024 0.75218 -0.17947
 C529 C 0.67052 0.78013 -0.16598
 C530 C 0.64762 0.78029 -0.14314
 C531 C 0.61044 0.75226 -0.10972
 C532 C 0.60097 0.78034 -0.09664
 C533 C 0.57803 0.78023 -0.07383
 C534 C 0.56466 0.75228 -0.06403
 C535 C 0.57454 0.72433 -0.07742
 C536 C 0.59737 0.72420 -0.10030
 C537 C 0.63760 0.80792 -0.12946
 C538 C 0.61465 0.80795 -0.10663
 C539 C 0.63022 0.69656 -0.13691
 C540 C 0.60738 0.69657 -0.11398
 H541 H 0.64756 0.82972 -0.13649
 H542 H 0.60756 0.82977 -0.09670
 H543 H 0.63727 0.67475 -0.14687
 H544 H 0.59746 0.67477 -0.10693
 H545 H 0.67369 0.70269 -0.18029
 H546 H 0.68104 0.80168 -0.17299
 H547 H 0.57068 0.80188 -0.06370
 H548 H 0.56442 0.70268 -0.07013
 C549 C 0.36609 0.24927 -0.13430
 C550 C 0.35700 0.27739 -0.14741
 C551 C 0.33423 0.27741 -0.17038
 C552 C 0.32048 0.24958 -0.18018
 C553 C 0.32989 0.22160 -0.16668
 C554 C 0.35272 0.22131 -0.14378
 C555 C 0.39009 0.24911 -0.11020
 C556 C 0.39926 0.22099 -0.09716
 C557 C 0.42216 0.22095 -0.07432
 C558 C 0.43578 0.24879 -0.06440
 C559 C 0.42620 0.27680 -0.07771
 C560 C 0.40341 0.27708 -0.10067
 C561 C 0.36243 0.19364 -0.13014
 C562 C 0.38534 0.19348 -0.10725
 C563 C 0.37091 0.30490 -0.13732
 C564 C 0.39369 0.30475 -0.11432
 H565 H 0.35228 0.17191 -0.13724
 H566 H 0.39219 0.17163 -0.09735
 H567 H 0.36410 0.32674 -0.14726
 H568 H 0.40381 0.32649 -0.10718
 H569 H 0.32749 0.29901 -0.18089
 H570 H 0.31917 0.20012 -0.17373
 H571 H 0.42927 0.19926 -0.06423
 H572 H 0.43653 0.29837 -0.07034
 C573 C 0.36508 0.75114 0.13378
 C574 C 0.35178 0.72309 0.14273
 C575 C 0.32884 0.72302 0.16552
 C576 C 0.31904 0.75079 0.17974
 C577 C 0.33298 0.77875 0.17015
 C578 C 0.35583 0.77902 0.14728
 C579 C 0.38923 0.75131 0.10981
 C580 C 0.40239 0.77943 0.10070
 C581 C 0.42531 0.77947 0.07789
 C582 C 0.43520 0.75162 0.06431
 C583 C 0.42173 0.72361 0.07381
 C584 C 0.39869 0.72334 0.09650
 C585 C 0.36950 0.80673 0.13752
 C586 C 0.39238 0.80693 0.11462
 C587 C 0.36185 0.69555 0.12887
 C588 C 0.38492 0.69568 0.10617
 H589 H 0.36250 0.82845 0.14770
 H590 H 0.40233 0.82879 0.10779
 H591 H 0.35183 0.67370 0.13564
 H592 H 0.39201 0.67393 0.09609
 H593 H 0.31980 0.70099 0.17294
 H594 H 0.32535 0.80065 0.17942
 H595 H 0.43551 0.80116 0.07083
 H596 H 0.42907 0.70204 0.06351
 C597 C 0.63474 0.24798 0.13412
 C598 C 0.64411 0.27604 0.14731
 C599 C 0.66689 0.27592 0.17024
 C600 C 0.68039 0.24801 0.17994
 C601 C 0.67069 0.22007 0.16640
 C602 C 0.64783 0.21992 0.14351
 C603 C 0.61073 0.24798 0.11002
 C604 C 0.60128 0.21992 0.09688
 C605 C 0.57839 0.22005 0.07401
 C606 C 0.56506 0.24801 0.06420
 C607 C 0.57492 0.27595 0.07764
 C608 C 0.59770 0.27605 0.10059
 C609 C 0.63783 0.19231 0.12977
 C610 C 0.61493 0.19230 0.10687
 C611 C 0.63047 0.30366 0.13732
 C612 C 0.60768 0.30367 0.11433
 H613 H 0.64777 0.17050 0.13681
 H614 H 0.60786 0.17049 0.09691
 H615 H 0.63750 0.32546 0.14733
 H616 H 0.59778 0.32548 0.10727
 H617 H 0.67385 0.29749 0.18081
 H618 H 0.68119 0.19851 0.17341
 H619 H 0.57105 0.19841 0.06383
 H620 H 0.56481 0.29760 0.07036
 C621 C -0.13461 0.63535 0.74946
 C622 C -0.14405 0.64846 0.72161
 C623 C -0.16686 0.67148 0.72178
 C624 C -0.18059 0.68158 0.74961
 C625 C -0.17054 0.66781 0.77736
 C626 C -0.14766 0.64487 0.77738
 C627 C -0.11058 0.61117 0.74938
 C628 C -0.10096 0.59823 0.77730
 C629 C -0.07806 0.57531 0.77712
 C630 C -0.06486 0.56522 0.74924
 C631 C -0.07489 0.57845 0.72143
 C632 C -0.09769 0.60147 0.72139
 C633 C -0.13741 0.63139 0.80488
 C634 C -0.11445 0.60848 0.80484
 C635 C -0.13063 0.63813 0.69403
 C636 C -0.10786 0.61503 0.69392
 H637 H -0.14724 0.63859 0.82663
 H638 H -0.10724 0.59869 0.82655
 H639 H -0.13777 0.64800 0.67234
 H640 H -0.09811 0.60776 0.67216
 H641 H -0.17466 0.68040 0.69992
 H642 H -0.17940 0.67565 0.79927
 H643 H -0.07060 0.56530 0.79866
 H644 H -0.06489 0.57094 0.69984
 C645 C -0.13441 0.36479 0.25104
 C646 C -0.14750 0.35526 0.22314
 C647 C -0.17038 0.33231 0.22318
 C648 C -0.18039 0.31854 0.25094
 C649 C -0.16659 0.32864 0.27876
 C650 C -0.14378 0.35167 0.27890
 C651 C -0.11038 0.38900 0.25108
 C652 C -0.09744 0.39870 0.27906
 C653 C -0.07464 0.42175 0.27898
 C654 C -0.06469 0.43499 0.25115
 C655 C -0.07795 0.42489 0.22330
 C656 C -0.10083 0.40195 0.22315
 C657 C -0.13030 0.36201 0.30645
 C658 C -0.10754 0.38513 0.30653
 C659 C -0.13732 0.36875 0.19562
 C660 C -0.11438 0.39169 0.19563
 H661 H -0.13740 0.35213 0.32816
 H662 H -0.09774 0.39240 0.32828
 H663 H -0.14719 0.36154 0.17389
 H664 H -0.10721 0.40149 0.17391
 H665 H -0.17927 0.32447 0.20128
 H666 H -0.17435 0.31970 0.30062
 H667 H -0.06459 0.42927 0.30054
 H668 H -0.07054 0.43490 0.20174
 C669 C 0.13439 0.36626 0.74922
 C670 C 0.14784 0.35702 0.72133
 C671 C 0.17079 0.33414 0.72149
 C672 C 0.18023 0.32043 0.74926
 C673 C 0.16640 0.32999 0.77702
 C674 C 0.14351 0.35293 0.77713
 C675 C 0.11028 0.39035 0.74919
 C676 C 0.09690 0.39964 0.77709
 C677 C 0.07402 0.42260 0.77695
 C678 C 0.06442 0.43615 0.74915
 C679 C 0.07810 0.42645 0.72137
 C680 C 0.10109 0.40360 0.72127
 C681 C 0.12953 0.36279 0.80457
 C682 C 0.10664 0.38578 0.80456
 C683 C 0.13809 0.37087 0.69386
 C684 C 0.11508 0.39375 0.69383
 H685 H 0.13636 0.35268 0.82626
 H686 H 0.09647 0.39273 0.82623
 H687 H 0.14830 0.36395 0.67219
 H688 H 0.10821 0.40381 0.67213
 H689 H 0.18156 0.32728 0.70006
 H690 H 0.17316 0.31931 0.79846
 H691 H 0.06365 0.42980 0.79846
 H692 H 0.07097 0.43672 0.69984
 C693 C 0.13510 0.63356 0.25061
 C694 C 0.14449 0.64689 0.27844
 C695 C 0.16742 0.66980 0.27828
 C696 C 0.18131 0.67958 0.25047
 C697 C 0.17137 0.66552 0.22274
 C698 C 0.14835 0.64270 0.22271
 C699 C 0.11087 0.60955 0.25068
 C700 C 0.10128 0.59639 0.22277
 C701 C 0.07818 0.57365 0.22294
 C702 C 0.06478 0.56395 0.25080
 C703 C 0.07477 0.57740 0.27859
 C704 C 0.09777 0.60025 0.27864
 C705 C 0.13815 0.62899 0.19523
 C706 C 0.11501 0.60625 0.19525
 C707 C 0.13086 0.63694 0.30600
 C708 C 0.10790 0.61401 0.30610
 H709 H 0.14813 0.63590 0.17349
 H710 H 0.10782 0.59629 0.17355
 H711 H 0.13796 0.64700 0.32769
 H712 H 0.09799 0.60704 0.32784
 H713 H 0.17515 0.67892 0.30013
 H714 H 0.18038 0.67310 0.20084
 H715 H 0.07075 0.56346 0.20141
 H716 H 0.06463 0.57019 0.30017
 C717 C 0.74918 -0.13394 0.63372
 C718 C 0.72098 -0.14689 0.64327
 C719 C 0.72115 -0.16966 0.66607
 C720 C 0.74925 -0.17941 0.67937
 C721 C 0.77731 -0.16608 0.66950
 C722 C 0.77741 -0.14338 0.64665
 C723 C 0.74914 -0.11002 0.60973
 C724 C 0.77735 -0.09711 0.60015
 C725 C 0.77720 -0.07439 0.57731
 C726 C 0.74909 -0.06448 0.56414
 C727 C 0.72100 -0.07769 0.57411
 C728 C 0.72091 -0.10051 0.59686
 C729 C 0.80515 -0.12989 0.63651
 C730 C 0.80513 -0.10716 0.61363
 C731 C 0.69320 -0.13684 0.62979
 C732 C 0.69317 -0.11402 0.60700
 H733 H 0.82709 -0.13697 0.64632
 H734 H 0.82704 -0.09737 0.60645
 H735 H 0.67130 -0.14666 0.63695
 H736 H 0.67123 -0.10689 0.59723
 H737 H 0.69948 -0.18004 0.67319
 H738 H 0.79901 -0.17309 0.67988
 H739 H 0.79894 -0.06438 0.56990
 H740 H 0.69923 -0.07031 0.56414
 C741 C 0.25057 -0.13456 0.36581
 C742 C 0.22232 -0.14424 0.35304
 C743 C 0.22241 -0.16703 0.33014
 C744 C 0.25049 -0.18019 0.32006
 C745 C 0.27861 -0.17019 0.33319
 C746 C 0.27879 -0.14735 0.35604
 C747 C 0.25062 -0.11056 0.38986
 C748 C 0.27887 -0.10082 0.40258
 C749 C 0.27879 -0.07794 0.42540
 C750 C 0.25070 -0.06488 0.43558
 C751 C 0.22256 -0.07501 0.42256
 C752 C 0.22240 -0.09781 0.39966
 C753 C 0.30659 -0.13706 0.36937
 C754 C 0.30664 -0.11417 0.39222
 C755 C 0.19456 -0.13090 0.36340
 C756 C 0.19459 -0.10809 0.38634
 H757 H 0.32851 -0.14676 0.36204
 H758 H 0.32859 -0.10688 0.40187
 H759 H 0.17261 -0.13816 0.35372
 H760 H 0.17267 -0.09842 0.39368
 H761 H 0.20069 -0.17425 0.31990
 H762 H 0.30030 -0.18045 0.32591
 H763 H 0.30058 -0.07039 0.43525
 H764 H 0.20080 -0.06513 0.43014
 C765 C 0.74928 0.13388 0.36660
 C766 C 0.77752 0.14336 0.35372
 C767 C 0.77744 0.16612 0.33093
 C768 C 0.74939 0.17947 0.32107
 C769 C 0.72128 0.16968 0.33433
 C770 C 0.72110 0.14686 0.35707
 C771 C 0.74923 0.10988 0.39051
 C772 C 0.72099 0.10033 0.40333
 C773 C 0.72106 0.07745 0.42602
 C774 C 0.74914 0.06421 0.43597
 C775 C 0.77726 0.07415 0.42285
 C776 C 0.77742 0.09694 0.40008
 C777 C 0.69331 0.13677 0.37049
 C778 C 0.69325 0.11387 0.39321
 C779 C 0.80526 0.12982 0.36384
 C780 C 0.80521 0.10703 0.38665
 H781 H 0.67141 0.14661 0.36335
 H782 H 0.67131 0.10672 0.40294
 H783 H 0.82719 0.13693 0.35407
 H784 H 0.82712 0.09721 0.39382
 H785 H 0.79914 0.17315 0.32058
 H786 H 0.69962 0.18008 0.32722
 H787 H 0.69929 0.07004 0.43596
 H788 H 0.79900 0.06413 0.43026
 C789 C 0.25068 0.13416 0.63361
 C790 C 0.27886 0.14730 0.64302
 C791 C 0.27870 0.17021 0.66580
 C792 C 0.25063 0.17991 0.67925
 C793 C 0.22258 0.16638 0.66952
 C794 C 0.22247 0.14354 0.64667
 C795 C 0.25070 0.11009 0.60962
 C796 C 0.22251 0.09700 0.60016
 C797 C 0.22265 0.07415 0.57731
 C798 C 0.25074 0.06430 0.56401
 C799 C 0.27881 0.07769 0.57387
 C800 C 0.27891 0.10063 0.59662
 C801 C 0.19474 0.12985 0.63665
 C802 C 0.19475 0.10699 0.61377
 C803 C 0.30661 0.13730 0.62941
 C804 C 0.30664 0.11434 0.60663
 H805 H 0.17282 0.13688 0.64656
 H806 H 0.17285 0.09706 0.60668
 H807 H 0.32851 0.14728 0.63646
 H808 H 0.32856 0.10726 0.59676
 H809 H 0.30036 0.18074 0.67280
 H810 H 0.20091 0.17335 0.67999
 H811 H 0.20091 0.06400 0.56998
 H812 H 0.30056 0.07036 0.56379
   
