data_POSCAR
  _audit_creation_date              2014-09-24
  _audit_creation_method            'ToBaCCo'
  _symmetry_space_group_name_H-M    'P1'
  _symmetry_Int_Tables_number       1
  _symmetry_cell_setting            triclinic
  loop_
  _symmetry_equiv_pos_as_xyz
 x,y,z
_cell_length_a 21.1260
_cell_length_b 20.7589
_cell_length_c 21.6209
_cell_angle_alpha 93.230400
_cell_angle_beta 80.932400
_cell_angle_gamma 84.062500
loop_
  _atom_site_label
  _atom_site_type_symbol
  _atom_site_fract_x
  _atom_site_fract_y
  _atom_site_fract_z
C1 C 0.31672 0.23875 0.24535
 N2 N 0.26263 0.28164 0.25221
 C3 C 0.21239 0.27712 0.29905
 N4 N 0.21661 0.22923 0.33921
 C5 C 0.27065 0.18589 0.33217
 N6 N 0.32027 0.19099 0.28527
 C7 C 0.67662 -0.26879 0.18325
 N8 N 0.72281 -0.31825 0.18725
 C9 C 0.76227 -0.31448 0.23087
 N10 N 0.75593 -0.25998 0.27033
 C11 C 0.71057 -0.20958 0.26635
 N12 N 0.67065 -0.21439 0.22310
 C13 C 0.70876 0.28452 0.76476
 N14 N 0.70979 0.23750 0.71786
 C15 C 0.76168 0.22644 0.67082
 N16 N 0.81209 0.26170 0.67145
 C17 C 0.81135 0.30792 0.71831
 N18 N 0.75946 0.31930 0.76464
 C19 C 0.31102 -0.28006 0.80049
 N20 N 0.26921 -0.32560 0.80553
 C21 C 0.22133 -0.32439 0.77076
 N22 N 0.21507 -0.27735 0.73059
 C23 C 0.25665 -0.23195 0.72412
 N24 N 0.30481 -0.23279 0.75950
 C25 C 0.71372 -0.21220 0.76868
 N26 N 0.76358 -0.25941 0.76861
 C27 C 0.81317 -0.26959 0.71958
 N28 N 0.81286 -0.23200 0.67049
 C29 C 0.76377 -0.18467 0.66990
 N30 N 0.71409 -0.17468 0.71906
 C31 C 0.30780 0.22793 0.82980
 N32 N 0.31429 0.17936 0.78387
 C33 C 0.27312 0.18014 0.74173
 N34 N 0.22564 0.23024 0.74515
 C35 C 0.21901 0.27925 0.79080
 N36 N 0.26002 0.27780 0.83320
 C37 C 0.27361 -0.24618 0.20471
 N38 N 0.23379 -0.29287 0.19762
 C39 C 0.18865 -0.30524 0.24664
 N40 N 0.18409 -0.27063 0.30307
 C41 C 0.22413 -0.22458 0.31051
 N42 N 0.26816 -0.21242 0.26107
 C43 C 0.71479 0.25185 0.17173
 N44 N 0.70822 0.21058 0.21776
 C45 C 0.74390 0.21236 0.26423
 N46 N 0.78734 0.25647 0.26485
 C47 C 0.79466 0.29875 0.21861
 N48 N 0.75796 0.29622 0.17207
 O49 O 0.29619 0.04169 0.46190
 O50 O 0.32704 -0.08246 0.57107
 O51 O 0.31209 -0.08427 0.45198
 O52 O 0.29660 0.04226 0.58166
 O53 O 0.19153 0.03642 0.60131
 O54 O 0.20770 -0.09222 0.47454
 O55 O 0.22233 -0.08832 0.59401
 O56 O 0.19134 0.03556 0.48239
 Cu57 Cu 0.31847 -0.02047 0.51443
 Cu58 Cu 0.19291 -0.02868 0.53989
 C59 C 0.23915 0.06065 0.45397
 C60 C 0.27989 -0.10530 0.60259
 C61 C 0.26216 -0.10899 0.44053
 C62 C 0.24097 0.06132 0.61300
 O63 O 0.77887 0.06986 0.52994
 O64 O 0.79546 -0.06240 0.40529
 O65 O 0.81183 0.06563 0.41168
 O66 O 0.78309 -0.05133 0.52947
 O67 O 0.67820 -0.03879 0.52797
 O68 O 0.70756 0.07926 0.40748
 O69 O 0.69094 -0.04588 0.40390
 O70 O 0.67402 0.08569 0.52891
 Cu71 Cu 0.80232 0.00236 0.46699
 Cu72 Cu 0.67731 0.02114 0.46601
 C73 C 0.72323 0.09963 0.55136
 C74 C 0.74566 -0.07765 0.38429
 C75 C 0.76467 0.09390 0.39054
 C76 C 0.72652 -0.06396 0.55028
 O77 O 0.44305 0.33746 0.07605
 O78 O 0.55761 0.31774 -0.07411
 O79 O 0.43290 0.33617 -0.04161
 O80 O 0.56840 0.34531 0.04393
 O81 O 0.57836 0.23879 0.04681
 O82 O 0.44191 0.22934 -0.03920
 O83 O 0.56255 0.21107 -0.07140
 O84 O 0.45200 0.23059 0.07720
 Cu85 Cu 0.50017 0.34468 0.00101
 Cu86 Cu 0.51103 0.21771 0.00513
 C87 C 0.42717 0.28626 0.10145
 C88 C 0.57839 0.26059 -0.09880
 C89 C 0.41470 0.28183 -0.05567
 C90 C 0.59668 0.29379 0.06007
 O91 O 0.53017 0.82063 0.05739
 O92 O 0.43870 0.81827 -0.07217
 O93 O 0.41332 0.79501 0.04701
 O94 O 0.56210 0.80799 -0.06727
 O95 O 0.58018 0.70090 -0.07491
 O96 O 0.43228 0.68818 0.03240
 O97 O 0.45784 0.71122 -0.08444
 O98 O 0.55017 0.71368 0.04793
 Cu99 Cu 0.48486 0.81988 -0.00778
 Cu100 Cu 0.50728 0.69363 -0.02025
 C101 C 0.55610 0.76860 0.07492
 C102 C 0.43221 0.76497 -0.10043
 C103 C 0.39743 0.73852 0.05832
 C104 C 0.59628 0.75535 -0.09057
 O105 O 0.05075 0.42806 0.31803
 O106 O -0.08626 0.55635 0.32637
 O107 O -0.07318 0.42839 0.31974
 O108 O 0.03598 0.55487 0.32882
 O109 O 0.05361 0.55546 0.22545
 O110 O -0.05765 0.42813 0.21634
 O111 O -0.07000 0.55447 0.22280
 O112 O 0.06739 0.42887 0.21467
 Cu113 Cu -0.02004 0.49171 0.33348
 Cu114 Cu 0.00002 0.49150 0.20952
 C115 C 0.08286 0.40731 0.26459
 C116 C -0.10119 0.57727 0.27584
 C117 C -0.08442 0.40680 0.26692
 C118 C 0.06338 0.57688 0.27915
 O119 O 0.06598 0.55707 0.79592
 O120 O -0.06136 0.44847 0.81104
 O121 O 0.06406 0.43285 0.80261
 O122 O -0.06003 0.57222 0.81175
 O123 O -0.05209 0.56344 0.70839
 O124 O 0.07220 0.42341 0.69929
 O125 O -0.05180 0.43862 0.70754
 O126 O 0.07245 0.54839 0.69266
 Cu127 Cu 0.00171 0.50354 0.81584
 Cu128 Cu 0.01110 0.49249 0.69153
 C129 C 0.09045 0.57141 0.74158
 C130 C -0.07826 0.42534 0.76137
 C131 C 0.08919 0.40431 0.74964
 C132 C -0.07756 0.59126 0.76174
 C133 C 0.36982 0.23991 0.19269
 C134 C 0.37783 0.29113 0.15840
 H135 H 0.40322 0.19603 0.18132
 H136 H 0.34684 0.33638 0.17118
 C137 C 0.63713 0.72535 0.13735
 C138 C 0.59368 0.77345 0.12669
 H139 H 0.64393 0.68036 0.10785
 H140 H 0.58798 0.81968 0.15404
 C141 C 0.65534 0.29740 -0.18233
 C142 C 0.62232 0.25045 -0.15922
 H143 H 0.64886 0.34477 -0.15692
 H144 H 0.63225 0.20175 -0.18194
 C145 C 0.35728 0.71788 -0.15995
 C146 C 0.39277 0.76609 -0.15080
 H147 H 0.36045 0.67674 -0.13131
 H148 H 0.38703 0.81015 -0.17494
 C149 C 0.15360 0.32374 0.30633
 C150 C 0.13984 0.35892 0.25913
 H151 H 0.12066 0.32813 0.35055
 H152 H 0.17125 0.35168 0.21396
 C153 C 0.17505 0.62775 0.77842
 C154 C 0.13937 0.61626 0.73422
 H155 H 0.17070 0.60133 0.82043
 H156 H 0.14689 0.63960 0.69046
 C157 C -0.18998 0.63419 0.23275
 C158 C -0.15436 0.62961 0.27879
 H159 H -0.18224 0.59588 0.19520
 H160 H -0.16453 0.66405 0.31964
 C161 C -0.13655 0.34349 0.71774
 C162 C -0.13040 0.38406 0.76618
 H163 H -0.09949 0.33728 0.67630
 H164 H -0.16408 0.38762 0.80992
 C165 C 0.27776 0.13376 0.37480
 C166 C 0.22827 0.11286 0.41190
 H167 H 0.32622 0.11033 0.37390
 H168 H 0.17930 0.13389 0.41116
 C169 C 0.76642 0.17530 0.62006
 C170 C 0.71538 0.15041 0.60319
 H171 H 0.81415 0.15950 0.59389
 H172 H 0.66713 0.16837 0.62679
 C173 C 0.24594 -0.18209 0.67998
 C174 C 0.29276 -0.15146 0.64991
 H175 H 0.19781 -0.17410 0.66833
 H176 H 0.34172 -0.16158 0.65887
 C177 C 0.70414 -0.15006 0.30876
 C178 C 0.75223 -0.13439 0.33845
 H179 H 0.65926 -0.11822 0.31498
 H180 H 0.79807 -0.16481 0.32976
 C181 C 0.66117 0.79619 -0.18211
 C182 C 0.65543 0.75528 -0.13629
 H183 H 0.62229 0.83422 -0.18357
 H184 H 0.69211 0.71465 -0.13645
 C185 C 0.35433 0.22700 -0.12646
 C186 C 0.36243 0.28050 -0.09273
 H187 H 0.38591 0.18255 -0.12565
 H188 H 0.33358 0.32600 -0.09645
 C189 C 0.32184 0.76688 0.15637
 C190 C 0.33900 0.72981 0.10261
 H191 H 0.34983 0.80639 0.16528
 H192 H 0.31526 0.68697 0.09459
 C193 C 0.67302 0.24726 0.12386
 C194 C 0.64975 0.29847 0.09641
 H195 H 0.65405 0.20121 0.11749
 H196 H 0.66549 0.34565 0.10547
 C197 C -0.13642 0.68096 0.71776
 C198 C -0.12917 0.64531 0.76638
 H199 H -0.10143 0.67178 0.67489
 H200 H -0.16099 0.65622 0.81105
 C201 C -0.16132 0.34525 0.21837
 C202 C -0.12866 0.35597 0.26583
 H203 H -0.15534 0.37521 0.17884
 H204 H -0.13692 0.32911 0.30736
 C205 C 0.16851 0.33431 0.79454
 C206 C 0.13856 0.34826 0.74598
 H207 H 0.15762 0.36558 0.83760
 H208 H 0.15184 0.31911 0.70175
 C209 C 0.14798 0.64642 0.23844
 C210 C 0.10590 0.62838 0.28592
 H211 H 0.15196 0.62198 0.19211
 H212 H 0.10335 0.65071 0.33292
 C213 C 0.76772 -0.14351 0.61690
 C214 C 0.71716 -0.10714 0.60183
 H215 H 0.81492 -0.14413 0.58848
 H216 H 0.66907 -0.10866 0.62761
 C217 C 0.21913 -0.18675 0.37127
 C218 C 0.26795 -0.15502 0.38507
 H219 H 0.17450 -0.18391 0.40428
 H220 H 0.31339 -0.16052 0.35296
 C221 C 0.73221 0.16702 0.31344
 C222 C 0.77703 0.14420 0.34608
 H223 H 0.68608 0.14765 0.31914
 H224 H 0.82462 0.16036 0.33795
 C225 C 0.28157 0.12768 0.69186
 C226 C 0.23284 0.11343 0.66307
 H227 H 0.32820 0.09884 0.68016
 H228 H 0.18506 0.13923 0.67789
   
