data_POSCAR
  _audit_creation_date              2014-09-24
  _audit_creation_method            'ToBaCCo'
  _symmetry_space_group_name_H-M    'P1'
  _symmetry_Int_Tables_number       1
  _symmetry_cell_setting            triclinic
  loop_
  _symmetry_equiv_pos_as_xyz
 x,y,z
_cell_length_a 58.5395
_cell_length_b 58.5104
_cell_length_c 58.6237
_cell_angle_alpha 90.004000
_cell_angle_beta 89.983900
_cell_angle_gamma 90.042200
loop_
  _atom_site_label
  _atom_site_type_symbol
  _atom_site_fract_x
  _atom_site_fract_y
  _atom_site_fract_z
N1 N 0.15910 0.21577 0.21674
 N2 N 0.16432 0.19822 0.22970
 C3 C 0.14900 0.19676 0.24680
 C4 C 0.13332 0.21440 0.24451
 C5 C 0.14037 0.22609 0.22516
 H6 H 0.14934 0.18385 0.25997
 H7 H 0.13259 0.24103 0.21768
 Cu8 Cu 0.19070 0.17916 0.22269
 Cu9 Cu 0.17718 0.22434 0.19015
 Cu10 Cu 0.22471 0.19096 0.17813
 N11 N 0.21713 0.16016 0.21569
 N12 N 0.23038 0.16504 0.19826
 C13 C 0.24724 0.14949 0.19702
 C14 C 0.24456 0.13389 0.21463
 C15 C 0.22516 0.14127 0.22612
 H16 H 0.26039 0.14957 0.18410
 H17 H 0.21740 0.13349 0.24094
 N18 N 0.21595 0.21780 0.15973
 N19 N 0.19772 0.23029 0.16415
 C20 C 0.19616 0.24703 0.14848
 C21 C 0.21426 0.24508 0.13336
 C22 C 0.22642 0.22628 0.14109
 H23 H 0.18279 0.25973 0.14818
 H24 H 0.24180 0.21925 0.13374
 H25 H 0.18995 0.19222 0.18311
 H26 H 0.20764 0.21098 0.20172
 N27 N 0.65962 0.71624 0.71695
 N28 N 0.66468 0.69853 0.72974
 C29 C 0.64919 0.69689 0.74666
 C30 C 0.63359 0.71462 0.74447
 C31 C 0.64086 0.72653 0.72534
 H32 H 0.64934 0.68382 0.75965
 H33 H 0.63323 0.74168 0.71806
 Cu34 Cu 0.69107 0.67948 0.72281
 Cu35 Cu 0.67779 0.72494 0.69046
 Cu36 Cu 0.72488 0.69116 0.67801
 N37 N 0.71732 0.66036 0.71556
 N38 N 0.73046 0.66516 0.69803
 C39 C 0.74728 0.64957 0.69669
 C40 C 0.74465 0.63400 0.71431
 C41 C 0.72535 0.64144 0.72592
 H42 H 0.76049 0.64972 0.68382
 H43 H 0.71771 0.63373 0.74082
 N44 N 0.71628 0.71813 0.65977
 N45 N 0.69831 0.73088 0.66445
 C46 C 0.69684 0.74771 0.64887
 C47 C 0.71474 0.74552 0.63354
 C48 C 0.72669 0.72651 0.64106
 H49 H 0.68364 0.76058 0.64873
 H50 H 0.74185 0.71924 0.63350
 H51 H 0.69005 0.69260 0.68335
 H52 H 0.70820 0.71121 0.70186
 N53 N 0.33948 0.78369 0.71756
 N54 N 0.33480 0.80178 0.72998
 C55 C 0.35035 0.80344 0.74686
 C56 C 0.36577 0.78552 0.74482
 C57 C 0.35821 0.77338 0.72595
 H58 H 0.35038 0.81668 0.75971
 H59 H 0.36578 0.75821 0.71868
 Cu60 Cu 0.30862 0.82106 0.72269
 Cu61 Cu 0.32136 0.77505 0.69100
 Cu62 Cu 0.27520 0.80982 0.67760
 N63 N 0.28238 0.84033 0.71551
 N64 N 0.26948 0.83577 0.69775
 C65 C 0.25256 0.85127 0.69652
 C66 C 0.25477 0.86656 0.71455
 C67 C 0.27399 0.85889 0.72627
 H68 H 0.23964 0.85123 0.68340
 H69 H 0.28134 0.86617 0.74154
 N70 N 0.28375 0.78272 0.65941
 N71 N 0.30110 0.76937 0.66472
 C72 C 0.30242 0.75235 0.64932
 C73 C 0.28503 0.75498 0.63349
 C74 C 0.27355 0.77448 0.64052
 H75 H 0.31516 0.73903 0.64966
 H76 H 0.25873 0.78206 0.63259
 H77 H 0.30998 0.80747 0.68333
 H78 H 0.29103 0.78969 0.70170
 N79 N 0.84103 0.28380 0.21731
 N80 N 0.83592 0.30148 0.23013
 C81 C 0.85138 0.30315 0.24706
 C82 C 0.86703 0.28540 0.24492
 C83 C 0.85977 0.27351 0.22571
 H84 H 0.85107 0.31626 0.26002
 H85 H 0.86731 0.25839 0.21833
 Cu86 Cu 0.80951 0.32052 0.22328
 Cu87 Cu 0.82288 0.27516 0.19082
 Cu88 Cu 0.77588 0.30900 0.17833
 N89 N 0.78329 0.33968 0.21595
 N90 N 0.77022 0.33495 0.19836
 C91 C 0.75341 0.35053 0.19704
 C92 C 0.75601 0.36607 0.21472
 C93 C 0.77529 0.35861 0.22633
 H94 H 0.74023 0.35040 0.18416
 H95 H 0.78288 0.36627 0.24129
 N96 N 0.78448 0.28204 0.16008
 N97 N 0.80241 0.26925 0.16479
 C98 C 0.80388 0.25242 0.14920
 C99 C 0.78600 0.25463 0.13385
 C100 C 0.77407 0.27366 0.14137
 H101 H 0.81704 0.23951 0.14908
 H102 H 0.75893 0.28095 0.13380
 H103 H 0.81071 0.30752 0.18386
 H104 H 0.79249 0.28892 0.20218
 N105 N 0.84029 0.71647 0.28290
 N106 N 0.83528 0.69868 0.27018
 C107 C 0.85067 0.69713 0.25317
 C108 C 0.86625 0.71489 0.25531
 C109 C 0.85902 0.72680 0.27445
 H110 H 0.85053 0.68398 0.24024
 H111 H 0.86672 0.74188 0.28179
 Cu112 Cu 0.80931 0.67915 0.27739
 Cu113 Cu 0.82226 0.72495 0.30951
 Cu114 Cu 0.77548 0.69085 0.32227
 N115 N 0.78278 0.66033 0.28451
 N116 N 0.76975 0.66500 0.30214
 C117 C 0.75291 0.64940 0.30344
 C118 C 0.75540 0.63400 0.28564
 C119 C 0.77462 0.64156 0.27397
 H120 H 0.73987 0.64935 0.31647
 H121 H 0.78216 0.63398 0.25896
 N122 N 0.78414 0.71777 0.34054
 N123 N 0.80194 0.73071 0.33568
 C124 C 0.80332 0.74765 0.35116
 C125 C 0.78552 0.74536 0.36659
 C126 C 0.77373 0.72616 0.35924
 H127 H 0.81633 0.76073 0.35109
 H128 H 0.75863 0.71880 0.36688
 H129 H 0.81032 0.69247 0.31683
 H130 H 0.79196 0.71071 0.29823
 N131 N 0.34066 0.21608 -0.21720
 N132 N 0.33560 0.19835 -0.22997
 C133 C 0.35099 0.19684 -0.24703
 C134 C 0.36670 0.21459 -0.24487
 C135 C 0.35944 0.22640 -0.22558
 H136 H 0.35062 0.18377 -0.26001
 H137 H 0.36710 0.24143 -0.21805
 Cu138 Cu 0.30906 0.17926 -0.22319
 Cu139 Cu 0.32246 0.22457 -0.19059
 Cu140 Cu 0.27556 0.19052 -0.17791
 N141 N 0.28284 0.16001 -0.21571
 N142 N 0.26983 0.16464 -0.19805
 C143 C 0.25295 0.14909 -0.19675
 C144 C 0.25531 0.13376 -0.21464
 C145 C 0.27454 0.14133 -0.22634
 H146 H 0.23993 0.14905 -0.18367
 H147 H 0.28197 0.13388 -0.24146
 N148 N 0.28420 0.21746 -0.15962
 N149 N 0.30202 0.23040 -0.16443
 C150 C 0.30331 0.24736 -0.14894
 C151 C 0.28545 0.24508 -0.13357
 C152 C 0.27371 0.22586 -0.14096
 H153 H 0.31632 0.26046 -0.14894
 H154 H 0.25858 0.21851 -0.13338
 H155 H 0.31028 0.19212 -0.18355
 H156 H 0.29186 0.21071 -0.20179
 N157 N 0.65929 0.28394 -0.21690
 N158 N 0.66451 0.30148 -0.22986
 C159 C 0.64917 0.30295 -0.24695
 C160 C 0.63337 0.28529 -0.24468
 C161 C 0.64051 0.27362 -0.22528
 H162 H 0.64955 0.31595 -0.26000
 H163 H 0.63286 0.25860 -0.21778
 Cu164 Cu 0.69096 0.32054 -0.22284
 Cu165 Cu 0.67746 0.27543 -0.19026
 Cu166 Cu 0.72500 0.30891 -0.17826
 N167 N 0.71733 0.33969 -0.21580
 N168 N 0.73057 0.33484 -0.19838
 C169 C 0.74734 0.35050 -0.19702
 C170 C 0.74464 0.36613 -0.21458
 C171 C 0.72531 0.35866 -0.22615
 H172 H 0.76053 0.35040 -0.18416
 H173 H 0.71754 0.36649 -0.24090
 N174 N 0.71630 0.28204 -0.15988
 N175 N 0.69808 0.26951 -0.16425
 C176 C 0.69665 0.25272 -0.14860
 C177 C 0.71482 0.25473 -0.13355
 C178 C 0.72688 0.27359 -0.14131
 H179 H 0.68332 0.23997 -0.14824
 H180 H 0.74224 0.28072 -0.13401
 H181 H 0.69028 0.30775 -0.18326
 H182 H 0.70802 0.28887 -0.20175
 N183 N 0.15999 0.78388 0.28273
 N184 N 0.16489 0.80178 0.27012
 C185 C 0.14933 0.80346 0.25326
 C186 C 0.13383 0.78560 0.25536
 C187 C 0.14124 0.77357 0.27434
 H188 H 0.14932 0.81670 0.24043
 H189 H 0.13367 0.75837 0.28157
 Cu190 Cu 0.19123 0.82096 0.27715
 Cu191 Cu 0.17812 0.77524 0.30925
 Cu192 Cu 0.22470 0.80958 0.32228
 N193 N 0.21742 0.84022 0.28453
 N194 N 0.23038 0.83560 0.30221
 C195 C 0.24721 0.85120 0.30355
 C196 C 0.24485 0.86665 0.28569
 C197 C 0.22560 0.85901 0.27400
 H198 H 0.26026 0.85107 0.31657
 H199 H 0.21806 0.86646 0.25893
 N200 N 0.21613 0.78247 0.34043
 N201 N 0.19849 0.76938 0.33538
 C202 C 0.19706 0.75242 0.35083
 C203 C 0.21464 0.75484 0.36647
 C204 C 0.22638 0.77414 0.35926
 H205 H 0.18408 0.73931 0.35068
 H206 H 0.24129 0.78164 0.36711
 H207 H 0.18993 0.80771 0.31656
 H208 H 0.20857 0.78945 0.29822
 N209 N 0.46606 0.40925 0.46717
 N210 N 0.44831 0.41427 0.47993
 C211 C 0.44670 0.39882 0.49689
 C212 C 0.46446 0.38325 0.49474
 C213 C 0.47637 0.39050 0.47558
 H214 H 0.43362 0.39901 0.50989
 H215 H 0.49145 0.38284 0.46825
 Cu216 Cu 0.42916 0.44054 0.47282
 Cu217 Cu 0.47463 0.42740 0.44059
 Cu218 Cu 0.44071 0.47442 0.42811
 N219 N 0.41001 0.46681 0.46573
 N220 N 0.41477 0.47997 0.44820
 C221 C 0.39912 0.49673 0.44687
 C222 C 0.38359 0.49404 0.46454
 C223 C 0.39110 0.47477 0.47614
 H224 H 0.39915 0.50987 0.43395
 H225 H 0.38346 0.46711 0.49107
 N226 N 0.46767 0.46585 0.40981
 N227 N 0.48048 0.44791 0.41451
 C228 C 0.49731 0.44650 0.39892
 C229 C 0.49507 0.46438 0.38356
 C230 C 0.47602 0.47628 0.39110
 H231 H 0.51024 0.43336 0.39881
 H232 H 0.46873 0.49144 0.38355
 H233 H 0.46071 0.45773 0.45175
 H234 H 0.44228 0.43958 0.43330
 N235 N -0.03370 -0.08999 0.96757
 N236 N -0.05134 -0.08485 0.98045
 C237 C -0.05314 -0.10047 0.99724
 C238 C -0.03566 -0.11630 0.99479
 C239 C -0.02371 -0.10901 0.97569
 H240 H -0.06618 -0.10024 1.01028
 H241 H -0.00887 -0.11690 0.96809
 Cu242 Cu -0.07013 -0.05841 0.97334
 Cu243 Cu -0.02518 -0.07198 0.94084
 Cu244 Cu -0.05992 -0.02572 0.92756
 N245 N -0.08969 -0.03257 0.96611
 N246 N -0.08557 -0.02005 0.94797
 C247 C -0.10135 -0.00346 0.94649
 C248 C -0.11632 -0.00560 0.96467
 C249 C -0.10835 -0.02437 0.97678
 H250 H -0.10173 0.00923 0.93312
 H251 H -0.11551 -0.03151 0.99219
 N252 N -0.03300 -0.03433 0.90927
 N253 N -0.01966 -0.05173 0.91448
 C254 C -0.00273 -0.05301 0.89899
 C255 C -0.00543 -0.03555 0.88323
 C256 C -0.02485 -0.02406 0.89039
 H257 H 0.01058 -0.06576 0.89924
 H258 H -0.03244 -0.00917 0.88260
 H259 H -0.03937 -0.04129 0.95119
 H260 H -0.05783 -0.06042 0.93367
 N261 N 1.03405 0.59043 0.96712
 N262 N 1.05176 0.58536 0.97990
 C263 C 1.05352 0.60089 0.99678
 C264 C 1.03575 0.61645 0.99466
 C265 C 1.02379 0.60917 0.97556
 H266 H 1.06665 0.60077 1.00973
 H267 H 1.00871 0.61683 0.96824
 Cu268 Cu 1.07091 0.55916 0.97273
 Cu269 Cu 1.02549 0.57235 0.94050
 Cu270 Cu 1.05984 0.52574 0.92753
 N271 N 1.09007 0.53299 0.96556
 N272 N 1.08565 0.52016 0.94770
 C273 C 1.10123 0.50337 0.94643
 C274 C 1.11645 0.50575 0.96437
 C275 C 1.10884 0.52490 0.97612
 H276 H 1.10130 0.49037 0.93337
 H277 H 1.11625 0.53227 0.99133
 N278 N 1.03288 0.53431 0.90933
 N279 N 1.01977 0.55194 0.91431
 C280 C 1.00283 0.55323 0.89886
 C281 C 1.00530 0.53554 0.88331
 C282 C 1.02460 0.52392 0.89057
 H283 H 0.98965 0.56612 0.89898
 H284 H 1.03210 0.50895 0.88283
 H285 H 1.03953 0.54178 0.95138
 H286 H 1.05788 0.56043 0.93324
 N287 N 0.53452 0.09062 0.46693
 N288 N 0.55212 0.08544 0.47981
 C289 C 0.55355 0.10064 0.49700
 C290 C 0.53589 0.11631 0.49479
 C291 C 0.52417 0.10929 0.47544
 H292 H 0.56641 0.10020 0.51019
 H293 H 0.50917 0.11706 0.46805
 Cu294 Cu 0.57116 0.05914 0.47274
 Cu295 Cu 0.52601 0.07253 0.44027
 Cu296 Cu 0.55948 0.02509 0.42813
 N297 N 0.59018 0.03286 0.46567
 N298 N 0.58533 0.01958 0.44828
 C299 C 0.60089 0.00277 0.44701
 C300 C 0.61645 0.00553 0.46460
 C301 C 0.60903 0.02487 0.47614
 H302 H 0.60083 -0.01041 0.43411
 H303 H 0.61672 0.03258 0.49101
 N304 N 0.53269 0.03382 0.40974
 N305 N 0.52015 0.05201 0.41419
 C306 C 0.50338 0.05347 0.39855
 C307 C 0.50539 0.03536 0.38343
 C308 C 0.52424 0.02328 0.39114
 H309 H 0.49061 0.06676 0.39829
 H310 H 0.53130 0.00789 0.38382
 H311 H 0.53954 0.04198 0.45170
 H312 H 0.55827 0.05980 0.43313
 N313 N -0.03416 0.09030 0.53236
 N314 N -0.05171 0.08505 0.51941
 C315 C -0.05345 0.10056 0.50253
 C316 C -0.03597 0.11642 0.50494
 C317 C -0.02410 0.10926 0.52414
 H318 H -0.06651 0.10031 0.48952
 H319 H -0.00925 0.11718 0.53169
 Cu320 Cu -0.07051 0.05861 0.52653
 Cu321 Cu -0.02567 0.07232 0.55910
 Cu322 Cu -0.06008 0.02569 0.57210
 N323 N -0.09004 0.03276 0.53377
 N324 N -0.08581 0.02010 0.55178
 C325 C -0.10164 0.00356 0.55331
 C326 C -0.11677 0.00588 0.53529
 C327 C -0.10884 0.02470 0.52324
 H328 H -0.10197 -0.00921 0.56660
 H329 H -0.11614 0.03200 0.50797
 N330 N -0.03316 0.03434 0.59036
 N331 N -0.02004 0.05199 0.58538
 C332 C -0.00309 0.05328 0.60084
 C333 C -0.00559 0.03560 0.61640
 C334 C -0.02489 0.02396 0.60913
 H335 H 0.01011 0.06616 0.60069
 H336 H -0.03239 0.00897 0.61684
 H337 H -0.03961 0.04160 0.54854
 H338 H -0.05828 0.06037 0.56621
 N339 N 0.46642 0.59016 0.03281
 N340 N 0.44868 0.58514 0.02003
 C341 C 0.44724 0.60045 0.00295
 C342 C 0.46501 0.61602 0.00513
 C343 C 0.47684 0.60883 0.02435
 H344 H 0.43405 0.60037 -0.00992
 H345 H 0.49171 0.61672 0.03191
 Cu346 Cu 0.42873 0.55947 0.02738
 Cu347 Cu 0.47352 0.57297 0.06036
 Cu348 Cu 0.44079 0.52515 0.07198
 N349 N 0.40997 0.53292 0.03455
 N350 N 0.41480 0.51966 0.05197
 C351 C 0.39923 0.50280 0.05321
 C352 C 0.38368 0.50551 0.03559
 C353 C 0.39112 0.52487 0.02408
 H354 H 0.39930 0.48960 0.06609
 H355 H 0.38342 0.53259 0.00923
 N356 N 0.46782 0.53377 0.09019
 N357 N 0.48049 0.55185 0.08560
 C358 C 0.49740 0.55324 0.10110
 C359 C 0.49531 0.53521 0.11632
 C360 C 0.47631 0.52323 0.10876
 H361 H 0.51017 0.56655 0.10134
 H362 H 0.46905 0.50802 0.11628
 H363 H 0.46026 0.54258 0.04844
 H364 H 0.44118 0.55983 0.06723
 N365 N 0.53432 -0.09056 0.03301
 N366 N 0.55160 -0.08506 0.01980
 C367 C 0.55311 -0.10040 0.00272
 C368 C 0.53576 -0.11640 0.00530
 C369 C 0.52421 -0.10949 0.02479
 H370 H 0.56586 -0.09990 -0.01058
 H371 H 0.50948 -0.11752 0.03247
 Cu372 Cu 0.57031 -0.05847 0.02680
 Cu373 Cu 0.52585 -0.07261 0.05980
 Cu374 Cu 0.55947 -0.02516 0.07196
 N375 N 0.58982 -0.03250 0.03393
 N376 N 0.58532 -0.01957 0.05170
 C377 C 0.60123 -0.00309 0.05329
 C378 C 0.61666 -0.00568 0.03553
 C379 C 0.60882 -0.02463 0.02359
 H380 H 0.60148 0.00975 0.06652
 H381 H 0.61628 -0.03208 0.00847
 N382 N 0.53268 -0.03398 0.09042
 N383 N 0.52010 -0.05216 0.08596
 C384 C 0.50334 -0.05366 0.10162
 C385 C 0.50542 -0.03561 0.11681
 C386 C 0.52428 -0.02351 0.10909
 H387 H 0.49044 -0.06685 0.10177
 H388 H 0.53143 -0.00819 0.11648
 H389 H 0.53904 -0.04196 0.04873
 H390 H 0.55826 -0.05997 0.06658
 N391 N 1.03378 0.40961 0.53268
 N392 N 1.05148 0.41468 0.51987
 C393 C 1.05303 0.39930 0.50285
 C394 C 1.03532 0.38368 0.50507
 C395 C 1.02346 0.39087 0.52426
 H396 H 1.06613 0.39948 0.48988
 H397 H 1.00837 0.38319 0.53159
 Cu398 Cu 1.07101 0.44062 0.52701
 Cu399 Cu 1.02533 0.42766 0.55931
 Cu400 Cu 1.05921 0.47466 0.57175
 N401 N 1.08972 0.46718 0.53404
 N402 N 1.08499 0.48030 0.55160
 C403 C 1.10060 0.49710 0.55292
 C404 C 1.11607 0.49448 0.53523
 C405 C 1.10857 0.47523 0.52359
 H406 H 1.10055 0.51024 0.56585
 H407 H 1.11626 0.46754 0.50870
 N408 N 1.03239 0.46602 0.59010
 N409 N 1.01958 0.44807 0.58545
 C410 C 1.00278 0.44666 0.60107
 C411 C 1.00506 0.46458 0.61638
 C412 C 1.02409 0.47648 0.60881
 H413 H 0.98983 0.43352 0.60121
 H414 H 1.03141 0.49166 0.61631
 H415 H 1.03938 0.45796 0.54791
 H416 H 1.05774 0.43983 0.56654
 C417 C 0.34997 -0.02032 0.25542
 C418 C 0.36205 -0.00021 0.25020
 C419 C 0.35001 0.01988 0.24497
 C420 C 0.32605 0.01985 0.24497
 C421 C 0.31415 -0.00022 0.25016
 C422 C 0.32600 -0.02030 0.25536
 C423 C 0.38725 -0.00019 0.25017
 C424 C 0.39930 -0.00537 0.23008
 C425 C 0.42326 -0.00529 0.23009
 C426 C 0.43516 -0.00009 0.25009
 C427 C 0.42330 0.00507 0.27013
 C428 C 0.39934 0.00506 0.27021
 H429 H 0.35919 -0.03586 0.25947
 H430 H 0.35925 0.03542 0.24091
 H431 H 0.39008 -0.00943 0.21457
 H432 H 0.39015 0.00911 0.28574
 H433 H 0.29562 -0.00021 0.25015
 H434 H 0.45370 -0.00007 0.25007
 C435 C 0.14963 -0.02041 0.74446
 C436 C 0.13756 -0.00029 0.74964
 C437 C 0.14963 0.01980 0.75490
 C438 C 0.17358 0.01978 0.75493
 C439 C 0.18546 -0.00030 0.74978
 C440 C 0.17360 -0.02039 0.74455
 C441 C 0.11237 -0.00025 0.74965
 C442 C 0.10030 -0.00536 0.76974
 C443 C 0.07635 -0.00518 0.76975
 C444 C 0.06447 0.00006 0.74976
 C445 C 0.07634 0.00517 0.72972
 C446 C 0.10029 0.00505 0.72962
 H447 H 0.14039 -0.03594 0.74040
 H448 H 0.14040 0.03534 0.75894
 H449 H 0.10952 -0.00943 0.78525
 H450 H 0.10950 0.00908 0.71408
 H451 H 0.20400 -0.00029 0.74983
 H452 H 0.04593 0.00016 0.74981
 C453 C 0.65019 0.47970 0.24488
 C454 C 0.63812 0.49980 0.25002
 C455 C 0.65016 0.51992 0.25523
 C456 C 0.67410 0.51990 0.25525
 C457 C 0.68601 0.49985 0.25014
 C458 C 0.67415 0.47976 0.24497
 C459 C 0.61294 0.49979 0.25001
 C460 C 0.60088 0.49454 0.27006
 C461 C 0.57693 0.49459 0.27003
 C462 C 0.56505 0.49985 0.25003
 C463 C 0.57694 0.50509 0.23002
 C464 C 0.60089 0.50508 0.22996
 H465 H 0.64098 0.46414 0.24085
 H466 H 0.64092 0.53546 0.25924
 H467 H 0.61009 0.49046 0.28557
 H468 H 0.61012 0.50915 0.21446
 H469 H 0.70454 0.49987 0.25017
 H470 H 0.54652 0.49988 0.25004
 C471 C 0.85025 0.48007 0.75516
 C472 C 0.86230 0.50018 0.74993
 C473 C 0.85025 0.52027 0.74471
 C474 C 0.82630 0.52022 0.74475
 C475 C 0.81442 0.50014 0.74995
 C476 C 0.82630 0.48009 0.75515
 C477 C 0.88747 0.50018 0.74992
 C478 C 0.89951 0.49497 0.72985
 C479 C 0.92346 0.49496 0.72990
 C480 C 0.93535 0.50010 0.74991
 C481 C 0.92348 0.50528 0.76993
 C482 C 0.89953 0.50534 0.76998
 H483 H 0.85948 0.46454 0.75922
 H484 H 0.85949 0.53581 0.74065
 H485 H 0.89029 0.49094 0.71433
 H486 H 0.89032 0.50938 0.78551
 H487 H 0.79589 0.50013 0.74996
 H488 H 0.95389 0.50008 0.74991
 C489 C 0.25489 0.35089 -0.02018
 C490 C 0.24973 0.36293 -0.00010
 C491 C 0.24441 0.35088 0.01993
 C492 C 0.24434 0.32693 0.01985
 C493 C 0.24952 0.31504 -0.00017
 C494 C 0.25478 0.32694 -0.02017
 C495 C 0.24978 0.38808 -0.00007
 C496 C 0.22971 0.40012 -0.00527
 C497 C 0.22977 0.42407 -0.00519
 C498 C 0.24980 0.43597 -0.00001
 C499 C 0.26983 0.42410 0.00514
 C500 C 0.26988 0.40014 0.00516
 H501 H 0.25897 0.36013 -0.03568
 H502 H 0.24034 0.36011 0.03544
 H503 H 0.21417 0.39090 -0.00933
 H504 H 0.28540 0.39092 0.00922
 H505 H 0.24947 0.29649 -0.00018
 H506 H 0.24979 0.45452 0.00000
 C507 C 0.74523 0.14927 -0.01993
 C508 C 0.75043 0.13722 0.00012
 C509 C 0.75578 0.14925 0.02015
 C510 C 0.75588 0.17319 0.02009
 C511 C 0.75067 0.18510 0.00010
 C512 C 0.74537 0.17322 -0.01990
 C513 C 0.75036 0.11207 0.00013
 C514 C 0.77043 0.10003 -0.00508
 C515 C 0.77035 0.07609 -0.00503
 C516 C 0.75031 0.06419 0.00015
 C517 C 0.73029 0.07608 0.00533
 C518 C 0.73026 0.10003 0.00537
 H519 H 0.74113 0.14004 -0.03543
 H520 H 0.75985 0.14000 0.03565
 H521 H 0.78598 0.10924 -0.00913
 H522 H 0.71474 0.10927 0.00945
 H523 H 0.75075 0.20365 0.00010
 H524 H 0.75031 0.04565 0.00014
 C525 C 0.24451 0.64897 0.47997
 C526 C 0.24986 0.63692 0.49999
 C527 C 0.25501 0.64896 0.52007
 C528 C 0.25486 0.67291 0.52008
 C529 C 0.24957 0.68481 0.50010
 C530 C 0.24439 0.67293 0.48006
 C531 C 0.24992 0.61176 0.49996
 C532 C 0.27002 0.59972 0.49478
 C533 C 0.26997 0.57575 0.49481
 C534 C 0.24991 0.56387 0.49995
 C535 C 0.22988 0.57576 0.50508
 C536 C 0.22983 0.59970 0.50513
 H537 H 0.24045 0.63975 0.46446
 H538 H 0.25910 0.63971 0.53556
 H539 H 0.28556 0.60896 0.49074
 H540 H 0.21428 0.60891 0.50917
 H541 H 0.24948 0.70335 0.50013
 H542 H 0.24989 0.54532 0.49995
 C543 C 0.75524 0.85107 0.47991
 C544 C 0.74996 0.86309 0.49995
 C545 C 0.74475 0.85107 0.52001
 C546 C 0.74481 0.82713 0.51997
 C547 C 0.75005 0.81523 0.49998
 C548 C 0.75526 0.82713 0.47997
 C549 C 0.74994 0.88821 0.49995
 C550 C 0.72985 0.90022 0.49475
 C551 C 0.72992 0.92415 0.49479
 C552 C 0.74993 0.93606 0.49995
 C553 C 0.76994 0.92418 0.50509
 C554 C 0.77002 0.90025 0.50514
 H555 H 0.75930 0.86032 0.46440
 H556 H 0.74067 0.86031 0.53551
 H557 H 0.71432 0.89098 0.49070
 H558 H 0.78556 0.89105 0.50919
 H559 H 0.75008 0.79669 0.49998
 H560 H 0.74993 0.95461 0.49995
 C561 C -0.02049 0.25540 0.35012
 C562 C -0.00043 0.25009 0.36215
 C563 C 0.01963 0.24476 0.35011
 C564 C 0.01959 0.24475 0.32620
 C565 C -0.00043 0.25007 0.31434
 C566 C -0.02045 0.25540 0.32621
 C567 C -0.00042 0.25011 0.38728
 C568 C -0.00584 0.23006 0.39932
 C569 C -0.00582 0.23012 0.42323
 C570 C -0.00039 0.25013 0.43509
 C571 C 0.00501 0.27013 0.42321
 C572 C 0.00499 0.27016 0.39930
 H573 H -0.03600 0.25952 0.35935
 H574 H 0.03515 0.24064 0.35932
 H575 H -0.01003 0.21455 0.39012
 H576 H 0.00916 0.28568 0.39008
 H577 H -0.00043 0.25008 0.29583
 H578 H -0.00037 0.25014 0.45360
 C579 C -0.02000 0.74476 0.14961
 C580 C 0.00008 0.75006 0.13757
 C581 C 0.02016 0.75535 0.14961
 C582 C 0.02012 0.75535 0.17353
 C583 C 0.00007 0.75005 0.18539
 C584 C -0.01996 0.74475 0.17352
 C585 C 0.00009 0.75006 0.11243
 C586 C -0.00531 0.77010 0.10039
 C587 C -0.00530 0.77005 0.07647
 C588 C 0.00009 0.75003 0.06461
 C589 C 0.00547 0.73003 0.07649
 C590 C 0.00548 0.73000 0.10040
 H591 H -0.03552 0.74067 0.14039
 H592 H 0.03568 0.75945 0.14040
 H593 H -0.00950 0.78561 0.10959
 H594 H 0.00964 0.71449 0.10962
 H595 H 0.00006 0.75004 0.20390
 H596 H 0.00008 0.75002 0.04610
 C597 C 0.48010 0.24450 0.65026
 C598 C 0.50019 0.24981 0.63821
 C599 C 0.52025 0.25511 0.65029
 C600 C 0.52022 0.25512 0.67423
 C601 C 0.50014 0.24982 0.68607
 C602 C 0.48008 0.24449 0.67420
 C603 C 0.50021 0.24980 0.61302
 C604 C 0.49484 0.26985 0.60093
 C605 C 0.49487 0.26980 0.57700
 C606 C 0.50024 0.24977 0.56516
 C607 C 0.50561 0.22976 0.57703
 C608 C 0.50560 0.22974 0.60096
 H609 H 0.46459 0.24038 0.64103
 H610 H 0.53578 0.25921 0.64108
 H611 H 0.49067 0.28537 0.61012
 H612 H 0.50975 0.21422 0.61017
 H613 H 0.50012 0.24984 0.70458
 H614 H 0.50025 0.24975 0.54665
 C615 C 0.47975 0.75534 0.85023
 C616 C 0.49982 0.75004 0.86227
 C617 C 0.51990 0.74476 0.85022
 C618 C 0.51987 0.74476 0.82630
 C619 C 0.49983 0.75005 0.81444
 C620 C 0.47979 0.75534 0.82630
 C621 C 0.49983 0.75004 0.88742
 C622 C 0.49453 0.72995 0.89947
 C623 C 0.49457 0.72999 0.92339
 C624 C 0.49992 0.75002 0.93525
 C625 C 0.50524 0.77005 0.92339
 C626 C 0.50520 0.77010 0.89947
 H627 H 0.46424 0.75944 0.85945
 H628 H 0.53542 0.74068 0.85943
 H629 H 0.49041 0.71442 0.89026
 H630 H 0.50932 0.78564 0.89027
 H631 H 0.49984 0.75005 0.79593
 H632 H 0.49996 0.75000 0.95377
 C633 C 0.07591 0.22988 0.28787
 C634 C 0.08984 0.21110 0.29268
 C635 C 0.10847 0.20603 0.27861
 C636 C 0.11344 0.21970 0.25945
 C637 C 0.09918 0.23851 0.25475
 C638 C 0.08058 0.24352 0.26885
 C639 C 0.05651 0.23494 0.30211
 C640 C 0.03994 0.23933 0.31350
 H641 H 0.08627 0.20031 0.30727
 H642 H 0.11888 0.19139 0.28283
 H643 H 0.10226 0.24945 0.24022
 H644 H 0.06978 0.25801 0.26486
 C645 C 0.57622 0.72997 0.78795
 C646 C 0.59010 0.71110 0.79260
 C647 C 0.60871 0.70610 0.77849
 C648 C 0.61373 0.71990 0.75944
 C649 C 0.59956 0.73881 0.75491
 C650 C 0.58096 0.74377 0.76905
 C651 C 0.55682 0.73500 0.80221
 C652 C 0.54023 0.73937 0.81362
 H653 H 0.58650 0.70019 0.80710
 H654 H 0.61904 0.69136 0.78257
 H655 H 0.60266 0.74983 0.74044
 H656 H 0.57022 0.75834 0.76519
 C657 C 0.42346 0.77021 0.78792
 C658 C 0.41853 0.75634 0.76912
 C659 C 0.39987 0.76134 0.75507
 C660 C 0.38581 0.78035 0.75960
 C661 C 0.39109 0.79428 0.77849
 C662 C 0.40977 0.78923 0.79251
 C663 C 0.44286 0.76513 0.80217
 C664 C 0.45943 0.76074 0.81359
 H665 H 0.42916 0.74169 0.76527
 H666 H 0.39661 0.75023 0.74071
 H667 H 0.38088 0.80910 0.78254
 H668 H 0.41356 0.80022 0.80689
 C669 C -0.07669 0.27023 0.28785
 C670 C -0.08137 0.25648 0.26893
 C671 C -0.09989 0.26145 0.25473
 C672 C -0.11415 0.28040 0.25918
 C673 C -0.10909 0.29417 0.27832
 C674 C -0.09054 0.28910 0.29247
 C675 C -0.05734 0.26520 0.30213
 C676 C -0.04078 0.26082 0.31354
 H677 H -0.07061 0.24191 0.26509
 H678 H -0.10279 0.25032 0.24031
 H679 H -0.11930 0.30894 0.28256
 H680 H -0.08695 0.29999 0.30698
 C681 C -0.07624 0.73000 0.21195
 C682 C -0.08097 0.74385 0.23081
 C683 C -0.09959 0.73894 0.24494
 C684 C -0.11381 0.72004 0.24041
 C685 C -0.10875 0.70614 0.22145
 C686 C -0.09011 0.71110 0.20735
 C687 C -0.05688 0.73501 0.19765
 C688 C -0.04031 0.73936 0.18622
 H689 H -0.07021 0.75843 0.23465
 H690 H -0.10271 0.75002 0.25936
 H691 H -0.11909 0.69139 0.21740
 H692 H -0.08649 0.70014 0.19291
 C693 C 0.42344 0.22965 0.71245
 C694 C 0.41866 0.24338 0.73137
 C695 C 0.39999 0.23845 0.74546
 C696 C 0.38564 0.21957 0.74093
 C697 C 0.39077 0.20582 0.72178
 C698 C 0.40948 0.21084 0.70774
 C699 C 0.44297 0.23468 0.69824
 C700 C 0.45964 0.23907 0.68689
 H701 H 0.42942 0.25793 0.73529
 H702 H 0.39704 0.24955 0.75989
 H703 H 0.38050 0.19109 0.71747
 H704 H 0.41309 0.20000 0.69320
 C705 C 0.57677 0.27000 0.71255
 C706 C 0.59076 0.28877 0.70776
 C707 C 0.60944 0.29384 0.72181
 C708 C 0.61451 0.28020 0.74105
 C709 C 0.60015 0.26132 0.74562
 C710 C 0.58152 0.25633 0.73152
 C711 C 0.55727 0.26493 0.69832
 C712 C 0.54064 0.26053 0.68694
 H713 H 0.58719 0.29958 0.69319
 H714 H 0.61970 0.30856 0.71746
 H715 H 0.60307 0.25029 0.76010
 H716 H 0.57073 0.24181 0.73548
 C717 C 0.07639 0.77022 0.21197
 C718 C 0.08120 0.75636 0.23080
 C719 C 0.09979 0.76135 0.24494
 C720 C 0.11391 0.78035 0.24046
 C721 C 0.10879 0.79423 0.22151
 C722 C 0.09018 0.78919 0.20740
 C723 C 0.05703 0.76515 0.19767
 C724 C 0.04047 0.76076 0.18623
 H725 H 0.07052 0.74170 0.23460
 H726 H 0.10295 0.75028 0.25935
 H727 H 0.11906 0.80904 0.21747
 H728 H 0.08653 0.80015 0.19295
 C729 C 0.28765 0.07624 0.23024
 C730 C 0.26854 0.08096 0.24379
 C731 C 0.25446 0.09959 0.23870
 C732 C 0.25928 0.11382 0.21992
 C733 C 0.27847 0.10874 0.20631
 C734 C 0.29251 0.09011 0.21145
 C735 C 0.30190 0.05683 0.23534
 C736 C 0.31333 0.04024 0.23967
 H737 H 0.26450 0.07021 0.25828
 H738 H 0.23989 0.10278 0.24957
 H739 H 0.28281 0.11910 0.19168
 H740 H 0.30715 0.08650 0.20073
 C741 C 0.78783 0.57651 0.73006
 C742 C 0.76876 0.58127 0.74363
 C743 C 0.75468 0.59988 0.73851
 C744 C 0.75946 0.61404 0.71968
 C745 C 0.77865 0.60895 0.70607
 C746 C 0.79269 0.59034 0.71124
 C747 C 0.80209 0.55713 0.73517
 C748 C 0.81356 0.54057 0.73948
 H749 H 0.76472 0.57054 0.75815
 H750 H 0.74010 0.60305 0.74937
 H751 H 0.78294 0.61925 0.69139
 H752 H 0.80730 0.58668 0.70049
 C753 C 0.78783 0.42375 0.76985
 C754 C 0.76874 0.41904 0.75628
 C755 C 0.75463 0.40041 0.76135
 C756 C 0.75941 0.38617 0.78012
 C757 C 0.77862 0.39122 0.79372
 C758 C 0.79268 0.40985 0.78861
 C759 C 0.80211 0.44314 0.76476
 C760 C 0.81358 0.45971 0.76044
 H761 H 0.76473 0.42982 0.74180
 H762 H 0.74004 0.39727 0.75050
 H763 H 0.78291 0.38087 0.80836
 H764 H 0.80732 0.41344 0.79933
 C765 C 0.28744 -0.07670 0.27006
 C766 C 0.29219 -0.09043 0.28896
 C767 C 0.27817 -0.10909 0.29416
 C768 C 0.25899 -0.11441 0.28051
 C769 C 0.25439 -0.10027 0.26154
 C770 C 0.26847 -0.08163 0.25642
 C771 C 0.30171 -0.05728 0.26493
 C772 C 0.31321 -0.04070 0.26061
 H773 H 0.30674 -0.08667 0.29976
 H774 H 0.28253 -0.11917 0.30896
 H775 H 0.23993 -0.10339 0.25052
 H776 H 0.26451 -0.07099 0.24182
 C777 C 0.21218 -0.07676 0.72995
 C778 C 0.20756 -0.09046 0.71099
 C779 C 0.22159 -0.10912 0.70588
 C780 C 0.24064 -0.11449 0.71968
 C781 C 0.24514 -0.10036 0.73869
 C782 C 0.23104 -0.08170 0.74372
 C783 C 0.19787 -0.05736 0.73502
 C784 C 0.18637 -0.04078 0.73931
 H785 H 0.19311 -0.08669 0.70008
 H786 H 0.21731 -0.11917 0.69104
 H787 H 0.25952 -0.10349 0.74980
 H788 H 0.23491 -0.07106 0.75835
 C789 C 0.71277 0.42353 0.23043
 C790 C 0.73181 0.41879 0.24405
 C791 C 0.74592 0.40018 0.23896
 C792 C 0.74119 0.38601 0.22011
 C793 C 0.72204 0.39110 0.20646
 C794 C 0.70798 0.40970 0.21160
 C795 C 0.69846 0.44288 0.23551
 C796 C 0.68694 0.45941 0.23977
 H797 H 0.73580 0.42952 0.25858
 H798 H 0.76048 0.39701 0.24984
 H799 H 0.71780 0.38081 0.19176
 H800 H 0.69340 0.41334 0.20082
 C801 C 0.71248 0.57625 0.27002
 C802 C 0.73147 0.58114 0.25636
 C803 C 0.74547 0.59984 0.26143
 C804 C 0.74069 0.61396 0.28030
 C805 C 0.72161 0.60871 0.29401
 C806 C 0.70765 0.59001 0.28889
 C807 C 0.69826 0.55686 0.26488
 C808 C 0.68681 0.54028 0.26054
 H809 H 0.73548 0.57047 0.24180
 H810 H 0.76000 0.60311 0.25053
 H811 H 0.71735 0.61895 0.30874
 H812 H 0.69310 0.58626 0.29969
 C813 C 0.21199 0.07625 0.76962
 C814 C 0.23094 0.08114 0.75591
 C815 C 0.24505 0.09977 0.76098
 C816 C 0.24041 0.11385 0.77992
 C817 C 0.22132 0.10865 0.79365
 C818 C 0.20726 0.09001 0.78852
 C819 C 0.19773 0.05681 0.76454
 C820 C 0.18630 0.04020 0.76023
 H821 H 0.23484 0.07049 0.74130
 H822 H 0.25955 0.10303 0.75003
 H823 H 0.21714 0.11888 0.80841
 H824 H 0.19273 0.08632 0.79935
 C825 C 0.22967 0.28850 0.07603
 C826 C 0.21055 0.29294 0.08960
 C827 C 0.20550 0.27883 0.10817
 C828 C 0.21953 0.25999 0.11347
 C829 C 0.23867 0.25565 0.09957
 C830 C 0.24367 0.26980 0.08100
 C831 C 0.23469 0.30277 0.05670
 C832 C 0.23901 0.31421 0.04016
 H833 H 0.19950 0.30728 0.08577
 H834 H 0.19059 0.28279 0.11828
 H835 H 0.24986 0.24134 0.10288
 H836 H 0.25841 0.26610 0.07045
 C837 C 0.73013 0.78879 0.57614
 C838 C 0.71114 0.79338 0.58981
 C839 C 0.70606 0.77929 0.60838
 C840 C 0.71996 0.76034 0.61358
 C841 C 0.73895 0.75580 0.59953
 C842 C 0.74397 0.76993 0.58096
 C843 C 0.73518 0.80304 0.55682
 C844 C 0.73951 0.81446 0.54028
 H845 H 0.70021 0.80784 0.58607
 H846 H 0.69124 0.78338 0.61858
 H847 H 0.75002 0.74138 0.60275
 H848 H 0.75862 0.76613 0.57032
 C849 C 0.76997 0.78880 0.42381
 C850 C 0.78886 0.79353 0.41002
 C851 C 0.79394 0.77942 0.39147
 C852 C 0.78018 0.76030 0.38642
 C853 C 0.76126 0.75568 0.40054
 C854 C 0.75622 0.76983 0.41908
 C855 C 0.76492 0.80305 0.44313
 C856 C 0.76059 0.81446 0.45967
 H857 H 0.79970 0.80809 0.41367
 H858 H 0.80869 0.78359 0.38119
 H859 H 0.75027 0.74117 0.39742
 H860 H 0.74165 0.76594 0.42980
 C861 C 0.26953 0.28855 -0.07638
 C862 C 0.28849 0.29328 -0.09009
 C863 C 0.29368 0.27917 -0.10863
 C864 C 0.27997 0.26004 -0.11375
 C865 C 0.26096 0.25542 -0.09973
 C866 C 0.25582 0.26957 -0.08120
 C867 C 0.26441 0.30280 -0.05705
 C868 C 0.26007 0.31423 -0.04050
 H869 H 0.29931 0.30784 -0.08639
 H870 H 0.30848 0.28334 -0.11883
 H871 H 0.25000 0.24090 -0.10292
 H872 H 0.24119 0.26566 -0.07056
 C873 C 0.73055 0.21158 -0.07610
 C874 C 0.74446 0.23035 -0.08117
 C875 C 0.73936 0.24442 -0.09976
 C876 C 0.72020 0.23992 -0.11361
 C877 C 0.70626 0.22104 -0.10819
 C878 C 0.71141 0.20701 -0.08958
 C879 C 0.73569 0.19736 -0.05675
 C880 C 0.74005 0.18593 -0.04022
 H881 H 0.75923 0.23414 -0.07069
 H882 H 0.75048 0.25877 -0.10314
 H883 H 0.69133 0.21698 -0.11824
 H884 H 0.70044 0.19261 -0.08568
 C885 C 0.22973 0.71144 0.42392
 C886 C 0.21096 0.70669 0.40997
 C887 C 0.20600 0.72081 0.39138
 C888 C 0.21978 0.73995 0.38642
 C889 C 0.23854 0.74461 0.40073
 C890 C 0.24345 0.73046 0.41931
 C891 C 0.23472 0.69711 0.44324
 C892 C 0.23904 0.68565 0.45976
 H893 H 0.20012 0.69210 0.41351
 H894 H 0.19135 0.71661 0.38099
 H895 H 0.24952 0.75916 0.39769
 H896 H 0.25793 0.73438 0.43014
 C897 C 0.26949 0.71138 0.57629
 C898 C 0.25597 0.73055 0.58079
 C899 C 0.26101 0.74475 0.59930
 C900 C 0.27973 0.73999 0.61364
 C901 C 0.29327 0.72067 0.60883
 C902 C 0.28817 0.70650 0.59030
 C903 C 0.26446 0.69707 0.55696
 C904 C 0.26015 0.68562 0.54042
 H905 H 0.24157 0.73458 0.56990
 H906 H 0.25020 0.75942 0.60225
 H907 H 0.30786 0.71639 0.61926
 H908 H 0.29887 0.69181 0.58682
 C909 C 0.77068 0.21150 0.07631
 C910 C 0.75685 0.23034 0.08118
 C911 C 0.76182 0.24441 0.09981
 C912 C 0.78078 0.23982 0.11388
 C913 C 0.79467 0.22087 0.10865
 C914 C 0.78964 0.20684 0.09001
 C915 C 0.76563 0.19727 0.05695
 C916 C 0.76126 0.18587 0.04040
 H917 H 0.74222 0.23419 0.07053
 H918 H 0.75077 0.25883 0.10305
 H919 H 0.80946 0.21675 0.11886
 H920 H 0.80056 0.19238 0.08626
 C921 C 0.47990 0.32591 0.53829
 C922 C 0.49365 0.33064 0.51935
 C923 C 0.48863 0.34920 0.50518
 C924 C 0.46972 0.36338 0.50972
 C925 C 0.45591 0.35831 0.52875
 C926 C 0.46097 0.33973 0.54289
 C927 C 0.48503 0.30663 0.55270
 C928 C 0.48943 0.29013 0.56423
 H929 H 0.50827 0.31995 0.51551
 H930 H 0.49963 0.35230 0.49069
 H931 H 0.44114 0.36860 0.53281
 H932 H 0.45011 0.33613 0.55742
 C933 C -0.02037 0.82620 0.03804
 C934 C -0.00679 0.83080 0.01896
 C935 C -0.01180 0.84937 0.00483
 C936 C -0.03055 0.86369 0.00958
 C937 C -0.04421 0.85876 0.02876
 C938 C -0.03913 0.84016 0.04286
 C939 C -0.01525 0.80688 0.05233
 C940 C -0.01080 0.79036 0.06377
 H941 H 0.00768 0.81997 0.01496
 H942 H -0.00093 0.85238 -0.00976
 H943 H -0.05883 0.86919 0.03299
 H944 H -0.04988 0.83663 0.05748
 C945 C 0.02044 0.67381 0.03809
 C946 C 0.00665 0.66907 0.01920
 C947 C 0.01163 0.65050 0.00506
 C948 C 0.03054 0.63634 0.00959
 C949 C 0.04437 0.64139 0.02861
 C950 C 0.03934 0.65998 0.04272
 C951 C 0.01537 0.69315 0.05238
 C952 C 0.01095 0.70970 0.06381
 H953 H -0.00794 0.67978 0.01536
 H954 H 0.00059 0.64737 -0.00939
 H955 H 0.05911 0.63106 0.03268
 H956 H 0.05023 0.66361 0.05721
 C957 C 0.52055 0.17358 0.53843
 C958 C 0.50686 0.16897 0.51942
 C959 C 0.51182 0.15040 0.50525
 C960 C 0.53063 0.13612 0.50984
 C961 C 0.54437 0.14105 0.52895
 C962 C 0.53936 0.15964 0.54310
 C963 C 0.51549 0.19290 0.55280
 C964 C 0.51108 0.20942 0.56430
 H965 H 0.49237 0.17979 0.51551
 H966 H 0.50087 0.14738 0.49072
 H967 H 0.55906 0.13065 0.53307
 H968 H 0.55021 0.16318 0.55765
 C969 C -0.02084 0.17395 0.46168
 C970 C -0.00723 0.16941 0.48074
 C971 C -0.01219 0.15082 0.49487
 C972 C -0.03090 0.13643 0.49013
 C973 C -0.04459 0.14131 0.47099
 C974 C -0.03958 0.15993 0.45689
 C975 C -0.01575 0.19327 0.44737
 C976 C -0.01131 0.20980 0.43593
 H977 H 0.00723 0.18028 0.48471
 H978 H -0.00129 0.14784 0.50944
 H979 H -0.05920 0.13083 0.46678
 H980 H -0.05034 0.16341 0.44227
 C981 C 0.47980 0.67380 0.96200
 C982 C 0.46102 0.65980 0.95732
 C983 C 0.45615 0.64111 0.97137
 C984 C 0.47002 0.63610 0.99036
 C985 C 0.48874 0.65051 0.99503
 C986 C 0.49356 0.66920 0.98094
 C987 C 0.48481 0.69313 0.94763
 C988 C 0.48917 0.70965 0.93613
 H989 H 0.45012 0.66335 0.94282
 H990 H 0.44149 0.63067 0.96724
 H991 H 0.49973 0.64748 1.00952
 H992 H 0.50803 0.68008 0.98485
 C993 C 0.52026 0.82624 0.96189
 C994 C 0.50684 0.83066 0.98112
 C995 C 0.51190 0.84922 0.99528
 C996 C 0.53052 0.86369 0.99040
 C997 C 0.54400 0.85894 0.97107
 C998 C 0.53889 0.84036 0.95694
 C999 C 0.51513 0.80692 0.94756
 C1000 C 0.51070 0.79039 0.93610
 H1001 H 0.49247 0.81972 0.98522
 H1002 H 0.50114 0.85210 1.00998
 H1003 H 0.55853 0.86948 0.96674
 H1004 H 0.54951 0.83697 0.94219
 C1005 C 0.02005 0.32630 0.46163
 C1006 C 0.00626 0.33099 0.48054
 C1007 C 0.01121 0.34958 0.49468
 C1008 C 0.03010 0.36380 0.49012
 C1009 C 0.04393 0.35880 0.47110
 C1010 C 0.03893 0.34018 0.45699
 C1011 C 0.01498 0.30698 0.44732
 C1012 C 0.01054 0.29044 0.43588
 H1013 H -0.00829 0.32021 0.48440
 H1014 H 0.00019 0.35266 0.50916
 H1015 H 0.05867 0.36914 0.46702
 H1016 H 0.04984 0.33659 0.44250
 C1017 C 0.32602 0.53709 0.48016
 C1018 C 0.33074 0.51801 0.49375
 C1019 C 0.34937 0.50394 0.48867
 C1020 C 0.36356 0.50875 0.46987
 C1021 C 0.35843 0.52787 0.45619
 C1022 C 0.33981 0.54190 0.46132
 C1023 C 0.30676 0.55143 0.48529
 C1024 C 0.29028 0.56298 0.48959
 H1025 H 0.32002 0.51402 0.50828
 H1026 H 0.35255 0.48936 0.49954
 H1027 H 0.36870 0.53215 0.44148
 H1028 H 0.33616 0.55651 0.45057
 C1029 C 0.82639 0.03760 -0.01968
 C1030 C 0.83148 0.01894 -0.00566
 C1031 C 0.85003 0.00482 -0.01075
 C1032 C 0.86377 0.00917 -0.02998
 C1033 C 0.85831 0.02792 -0.04405
 C1034 C 0.83976 0.04200 -0.03891
 C1035 C 0.80713 0.05189 -0.01458
 C1036 C 0.79064 0.06337 -0.01027
 H1037 H 0.82106 0.01528 0.00918
 H1038 H 0.85349 -0.00946 0.00043
 H1039 H 0.86827 0.03185 -0.05906
 H1040 H 0.83582 0.05629 -0.04998
 C1041 C 0.67426 0.03737 0.02001
 C1042 C 0.66933 0.01851 0.00619
 C1043 C 0.65072 0.00440 0.01127
 C1044 C 0.63675 0.00897 0.03029
 C1045 C 0.64208 0.02791 0.04418
 C1046 C 0.66068 0.04196 0.03906
 C1047 C 0.69352 0.05173 0.01489
 C1048 C 0.70999 0.06330 0.01059
 H1049 H 0.67991 0.01469 -0.00849
 H1050 H 0.64738 -0.01002 0.00023
 H1051 H 0.63197 0.03200 0.05905
 H1052 H 0.66451 0.05640 0.04998
 C1053 C 0.17369 0.53738 0.51972
 C1054 C 0.16889 0.51836 0.50608
 C1055 C 0.15023 0.50435 0.51113
 C1056 C 0.13608 0.50917 0.52995
 C1057 C 0.14125 0.52828 0.54365
 C1058 C 0.15991 0.54225 0.53855
 C1059 C 0.19302 0.55160 0.51461
 C1060 C 0.20956 0.56305 0.51031
 H1061 H 0.17960 0.51433 0.49156
 H1062 H 0.14701 0.48979 0.50025
 H1063 H 0.13099 0.53256 0.55836
 H1064 H 0.16364 0.55683 0.54932
 C1065 C 0.17364 0.46247 -0.01979
 C1066 C 0.16001 0.45776 -0.03877
 C1067 C 0.14146 0.47184 -0.04395
 C1068 C 0.13627 0.49088 -0.03017
 C1069 C 0.15022 0.49549 -0.01116
 C1070 C 0.16877 0.48137 -0.00604
 C1071 C 0.19293 0.44822 -0.01470
 C1072 C 0.20946 0.43677 -0.01042
 H1073 H 0.16377 0.44326 -0.04963
 H1074 H 0.13131 0.46768 -0.05877
 H1075 H 0.14694 0.50997 -0.00019
 H1076 H 0.17936 0.48525 0.00861
 C1077 C 0.67398 0.96268 0.48013
 C1078 C 0.66930 0.98177 0.49370
 C1079 C 0.65069 0.99581 0.48863
 C1080 C 0.63649 0.99092 0.46986
 C1081 C 0.64160 0.97178 0.45619
 C1082 C 0.66021 0.95780 0.46131
 C1083 C 0.69320 0.94838 0.48526
 C1084 C 0.70966 0.93687 0.48955
 H1085 H 0.68006 0.98581 0.50819
 H1086 H 0.64751 1.01039 0.49948
 H1087 H 0.63131 0.96745 0.44152
 H1088 H 0.66388 0.94318 0.45058
 C1089 C 0.82588 0.96278 0.51970
 C1090 C 0.83089 0.98152 0.50576
 C1091 C 0.84945 0.99564 0.51085
 C1092 C 0.86326 0.99118 0.53000
 C1093 C 0.85784 0.97237 0.54400
 C1094 C 0.83929 0.95830 0.53886
 C1095 C 0.80667 0.94845 0.51459
 C1096 C 0.79021 0.93692 0.51030
 H1097 H 0.82042 0.98523 0.49098
 H1098 H 0.85289 1.00996 0.49972
 H1099 H 0.86785 0.96836 0.55895
 H1100 H 0.83537 0.94394 0.54986
 C1101 C 0.32595 0.46267 0.01995
 C1102 C 0.33976 0.45772 0.03873
 C1103 C 0.35845 0.47167 0.04388
 C1104 C 0.36362 0.49085 0.03027
 C1105 C 0.34942 0.49577 0.01151
 C1106 C 0.33073 0.48177 0.00642
 C1107 C 0.30665 0.44838 0.01477
 C1108 C 0.29015 0.43686 0.01042
 H1109 H 0.33607 0.44308 0.04943
 H1110 H 0.36874 0.46731 0.05853
 H1111 H 0.35263 0.51038 0.00069
 H1112 H 0.31999 0.48587 -0.00806
 C1113 C 0.53835 0.47987 0.32613
 C1114 C 0.54297 0.46088 0.33983
 C1115 C 0.52888 0.45579 0.35841
 C1116 C 0.50989 0.46965 0.36360
 C1117 C 0.50531 0.48862 0.34952
 C1118 C 0.51945 0.49365 0.33095
 C1119 C 0.55269 0.48496 0.30684
 C1120 C 0.56418 0.48929 0.29034
 H1121 H 0.55745 0.44998 0.33612
 H1122 H 0.53298 0.44099 0.36862
 H1123 H 0.49086 0.49964 0.35273
 H1124 H 0.51560 0.50829 0.32029
 C1125 C 0.03783 -0.01979 0.82590
 C1126 C 0.04276 -0.03853 0.83982
 C1127 C 0.02869 -0.04368 0.85840
 C1128 C 0.00941 -0.03016 0.86334
 C1129 C 0.00457 -0.01139 0.84908
 C1130 C 0.01868 -0.00628 0.83051
 C1131 C 0.05211 -0.01470 0.80659
 C1132 C 0.06361 -0.01040 0.79007
 H1133 H 0.05743 -0.04922 0.83626
 H1134 H 0.03301 -0.05832 0.86877
 H1135 H -0.01009 -0.00059 0.85212
 H1136 H 0.01459 0.00816 0.81968
 C1137 C 0.03769 0.01997 0.67372
 C1138 C 0.04251 0.03880 0.65987
 C1139 C 0.02844 0.04391 0.64130
 C1140 C 0.00926 0.03024 0.63629
 C1141 C 0.00449 0.01140 0.65050
 C1142 C 0.01861 0.00635 0.66906
 C1143 C 0.05203 0.01486 0.69298
 C1144 C 0.06356 0.01051 0.70945
 H1145 H 0.05712 0.04958 0.66346
 H1146 H 0.03269 0.05860 0.63098
 H1147 H -0.01010 0.00051 0.64740
 H1148 H 0.01461 -0.00817 0.67983
 C1149 C 0.53838 0.51991 0.17395
 C1150 C 0.51962 0.50597 0.16897
 C1151 C 0.50556 0.51094 0.15033
 C1152 C 0.51007 0.53001 0.13635
 C1153 C 0.52888 0.54405 0.14172
 C1154 C 0.54290 0.53902 0.16037
 C1155 C 0.55270 0.51481 0.19324
 C1156 C 0.56420 0.51044 0.20972
 H1157 H 0.51583 0.49124 0.17953
 H1158 H 0.49122 0.49979 0.14701
 H1159 H 0.53290 0.55896 0.13162
 H1160 H 0.55726 0.55005 0.16423
 C1161 C 0.46189 -0.01995 0.17400
 C1162 C 0.48072 -0.00605 0.16910
 C1163 C 0.49491 -0.01112 0.15058
 C1164 C 0.49049 -0.03025 0.13665
 C1165 C 0.47154 -0.04417 0.14188
 C1166 C 0.45739 -0.03904 0.16040
 C1167 C 0.44754 -0.01487 0.19327
 C1168 C 0.43601 -0.01056 0.20977
 H1169 H 0.48449 0.00866 0.17968
 H1170 H 0.50932 -0.00003 0.14733
 H1171 H 0.46753 -0.05907 0.13177
 H1172 H 0.44298 -0.05004 0.16418
 C1173 C 0.96195 0.48023 0.67381
 C1174 C 0.98086 0.49400 0.66894
 C1175 C 0.99494 0.48892 0.65035
 C1176 C 0.99030 0.46992 0.63633
 C1177 C 0.97129 0.45609 0.64157
 C1178 C 0.95726 0.46122 0.66016
 C1179 C 0.94766 0.48535 0.69309
 C1180 C 0.93618 0.48968 0.70959
 H1181 H 0.98475 0.50866 0.67956
 H1182 H 1.00940 0.49994 0.64710
 H1183 H 0.96714 0.44127 0.63139
 H1184 H 0.94276 0.45033 0.66392
 C1185 C 0.96200 0.51987 0.82602
 C1186 C 0.98105 0.50625 0.83068
 C1187 C 0.99518 0.51132 0.84924
 C1188 C 0.99044 0.53017 0.86343
 C1189 C 0.97127 0.54383 0.85842
 C1190 C 0.95720 0.53870 0.83986
 C1191 C 0.94771 0.51480 0.80673
 C1192 C 0.93622 0.51051 0.79023
 H1193 H 0.98503 0.49172 0.81992
 H1194 H 1.00975 0.50042 0.85234
 H1195 H 0.96703 0.55852 0.86874
 H1196 H 0.94259 0.54947 0.83626
 C1197 C 0.46197 0.01974 0.32617
 C1198 C 0.45750 0.03885 0.33974
 C1199 C 0.47162 0.04395 0.35829
 C1200 C 0.49049 0.03000 0.36357
 C1201 C 0.49490 0.01087 0.34964
 C1202 C 0.48075 0.00582 0.33109
 C1203 C 0.44762 0.01466 0.30690
 C1204 C 0.43608 0.01035 0.29042
 H1205 H 0.44313 0.04986 0.33595
 H1206 H 0.46763 0.05886 0.36840
 H1207 H 0.50926 -0.00026 0.35293
 H1208 H 0.48448 -0.00892 0.32054
   
