data_POSCAR
  _audit_creation_date              2014-09-24
  _audit_creation_method            'ToBaCCo'
  _symmetry_space_group_name_H-M    'P1'
  _symmetry_Int_Tables_number       1
  _symmetry_cell_setting            triclinic
  loop_
  _symmetry_equiv_pos_as_xyz
 x,y,z
_cell_length_a 35.5377
_cell_length_b 35.4282
_cell_length_c 19.5056
_cell_angle_alpha 89.912300
_cell_angle_beta 89.916000
_cell_angle_gamma 119.981500
loop_
  _atom_site_label
  _atom_site_type_symbol
  _atom_site_fract_x
  _atom_site_fract_y
  _atom_site_fract_z
C1 C 0.45456 0.90842 0.56319
 C2 C 0.44313 0.88616 0.50077
 C3 C 0.45408 0.90866 0.43847
 C4 C 0.47708 0.95471 0.43780
 C5 C 0.48893 0.97776 0.50077
 C6 C 0.47765 0.95456 0.56383
 C7 C 0.48974 0.97811 0.62563
 C8 C 0.51242 1.02347 0.62553
 C9 C 0.52395 1.04714 0.56363
 C10 C 0.51209 1.02407 0.50065
 C11 C 0.48856 0.97826 0.37591
 C12 C 0.51123 1.02362 0.37575
 C13 C 0.52334 1.04722 0.43754
 C14 C 0.54642 1.09335 0.43805
 C15 C 0.55790 1.11569 0.50040
 C16 C 0.54700 1.09327 0.56286
 H17 H 0.48174 0.96161 0.67476
 H18 H 0.52088 1.03987 0.67460
 H19 H 0.48006 0.96179 0.32689
 H20 H 0.51920 1.04008 0.32659
 H21 H 0.42543 0.85076 0.50053
 H22 H 0.57561 1.15112 0.50030
 C23 C -0.09281 0.45294 0.43833
 C24 C -0.11527 0.44202 0.50063
 C25 C -0.09310 0.45346 0.56308
 C26 C -0.04710 0.47652 0.56377
 C27 C -0.02398 0.48778 0.50071
 C28 C -0.04692 0.47595 0.43770
 C29 C -0.02337 0.48744 0.37582
 C30 C 0.02187 0.51013 0.37577
 C31 C 0.04525 0.52217 0.43759
 C32 C 0.02215 0.51091 0.50064
 C33 C -0.02360 0.48862 0.62559
 C34 C 0.02164 0.51129 0.62548
 C35 C 0.04514 0.52276 0.56359
 C36 C 0.09105 0.54576 0.56284
 C37 C 0.11341 0.55667 0.50046
 C38 C 0.09116 0.54520 0.43817
 H39 H -0.03975 0.47896 0.32678
 H40 H 0.03838 0.51815 0.32670
 H41 H -0.04006 0.48064 0.67472
 H42 H 0.03806 0.51979 0.67449
 H43 H -0.15056 0.42433 0.50036
 H44 H 0.14868 0.57435 0.50039
 C45 C 0.45381 0.54600 0.56415
 C46 C 0.44300 0.55745 0.50164
 C47 C 0.45449 0.54649 0.43941
 C48 C 0.47744 0.52346 0.43889
 C49 C 0.48861 0.51160 0.50195
 C50 C 0.47677 0.52288 0.56494
 C51 C 0.48822 0.51076 0.62682
 C52 C 0.51081 0.48804 0.62685
 C53 C 0.52288 0.47652 0.56500
 C54 C 0.51167 0.48842 0.50198
 C55 C 0.48947 0.51197 0.37706
 C56 C 0.51207 0.48926 0.37709
 C57 C 0.52350 0.47718 0.43895
 C58 C 0.54642 0.45413 0.43952
 C59 C 0.55729 0.44257 0.50178
 C60 C 0.54587 0.45343 0.56426
 H61 H 0.47976 0.51876 0.67590
 H62 H 0.51875 0.47955 0.67595
 H63 H 0.48152 0.52047 0.32799
 H64 H 0.52055 0.48126 0.32803
 H65 H 0.42537 0.57517 0.50129
 H66 H 0.57493 0.42485 0.50147
 O67 O 0.39706 0.66930 -0.07972
 O68 O 0.39914 0.74282 -0.05829
 C69 C 0.37190 0.74820 -0.09310
 O70 O 0.33163 0.72833 -0.07961
 O71 O 0.25833 0.65690 -0.05770
 C72 C 0.25294 0.62419 -0.09249
 O73 O 0.27282 0.60371 -0.07929
 O74 O 0.34403 0.60158 -0.05787
 C75 C 0.37663 0.62890 -0.09290
 O76 O 0.39903 0.65668 0.05675
 O77 O 0.39706 0.72816 0.07819
 C78 C 0.37665 0.74807 0.09161
 O79 O 0.34412 0.74283 0.05679
 O80 O 0.27285 0.66937 0.07865
 C81 C 0.25293 0.62896 0.09202
 O82 O 0.25825 0.60163 0.05715
 O83 O 0.33147 0.60359 0.07859
 C84 C 0.37173 0.62405 0.09184
 Cr85 Cr 0.39575 0.69808 -0.00076
 Cr86 Cr 0.30290 0.69820 -0.00047
 Cr87 Cr 0.30281 0.60496 -0.00037
 O88 O 0.33382 0.66708 -0.00054
 O89 O 0.60104 0.34316 -0.05768
 O90 O 0.60301 0.27168 -0.07918
 C91 C 0.62345 0.25181 -0.09272
 O92 O 0.65599 0.25702 -0.05792
 O93 O 0.72725 0.33046 -0.07979
 C94 C 0.74712 0.37085 -0.09328
 O95 O 0.74182 0.39821 -0.05843
 O96 O 0.66858 0.39627 -0.07963
 C97 C 0.62830 0.37583 -0.09274
 O98 O 0.60314 0.33055 0.07877
 O99 O 0.60102 0.25704 0.05733
 C100 C 0.62830 0.25176 0.09220
 O101 O 0.66854 0.27155 0.07852
 O102 O 0.74181 0.34293 0.05659
 C103 C 0.74712 0.37559 0.09145
 O104 O 0.72734 0.39614 0.07809
 O105 O 0.65615 0.39828 0.05689
 C106 C 0.62361 0.37093 0.09201
 Cr107 Cr 0.60437 0.30176 -0.00021
 Cr108 Cr 0.69723 0.30165 -0.00065
 Cr109 Cr 0.69731 0.39490 -0.00077
 O110 O 0.66631 0.33277 -0.00055
 C111 C 0.41689 0.83504 -0.26634
 C112 C 0.37303 0.81392 -0.24756
 C113 C 0.35851 0.78614 -0.19072
 C114 C 0.44246 0.88421 -0.37785
 C115 C 0.43193 0.80083 -0.17063
 C116 C 0.44636 0.82862 -0.22760
 C117 C 0.43120 0.86217 -0.32658
 C118 C 0.38775 0.77904 -0.15175
 H119 H 0.34992 0.81858 -0.27729
 H120 H 0.32430 0.76991 -0.17777
 H121 H 0.45528 0.79605 -0.14190
 H122 H 0.48038 0.84474 -0.24184
 C123 C 0.16576 0.58216 -0.26423
 C124 C 0.18699 0.55939 -0.24591
 C125 C 0.21492 0.57275 -0.18958
 C126 C 0.11647 0.55851 -0.37501
 C127 C 0.20016 0.63161 -0.16910
 C128 C 0.17223 0.61816 -0.22556
 C129 C 0.13852 0.56929 -0.32403
 C130 C 0.22206 0.60919 -0.15068
 H131 H 0.18231 0.53155 -0.27561
 H132 H 0.23122 0.55473 -0.17696
 H133 H 0.20496 0.65981 -0.14040
 H134 H 0.15603 0.63610 -0.23946
 C135 C 0.41828 0.58378 -0.26570
 C136 C 0.44103 0.62779 -0.24733
 C137 C 0.42782 0.64234 -0.19064
 C138 C 0.44177 0.55813 -0.37697
 C139 C 0.36914 0.56868 -0.16988
 C140 C 0.38245 0.55421 -0.22670
 C141 C 0.43105 0.56942 -0.32580
 C142 C 0.39154 0.61301 -0.15141
 H143 H 0.46875 0.65097 -0.27727
 H144 H 0.44581 0.67667 -0.17800
 H145 H 0.34106 0.54526 -0.14094
 H146 H 0.36454 0.52007 -0.24062
 C147 C 0.58229 0.16595 -0.26646
 C148 C 0.61806 0.17213 -0.22775
 C149 C 0.63118 0.19957 -0.17057
 C150 C 0.55902 0.11732 -0.37819
 C151 C 0.57243 0.21435 -0.19040
 C152 C 0.55940 0.18692 -0.24744
 C153 C 0.56967 0.13914 -0.32686
 C154 C 0.60866 0.22123 -0.15147
 H155 H 0.63607 0.15610 -0.24216
 H156 H 0.65924 0.20419 -0.14188
 H157 H 0.55435 0.23049 -0.17729
 H158 H 0.53172 0.18243 -0.27714
 C159 C 0.83369 0.41584 -0.26651
 C160 C 0.82737 0.44545 -0.22778
 C161 C 0.79966 0.43103 -0.17081
 C162 C 0.88275 0.44139 -0.37798
 C163 C 0.78484 0.35733 -0.19093
 C164 C 0.81254 0.37184 -0.24775
 C165 C 0.86076 0.43015 -0.32673
 C166 C 0.77784 0.38670 -0.15195
 H167 H 0.84351 0.47959 -0.24200
 H168 H 0.79496 0.45449 -0.14207
 H169 H 0.76859 0.32301 -0.17799
 H170 H 0.81712 0.34863 -0.27749
 C171 C 0.58338 0.41771 -0.26552
 C172 C 0.55388 0.38176 -0.22656
 C173 C 0.56828 0.36838 -0.16973
 C174 C 0.55789 0.44132 -0.37684
 C175 C 0.64173 0.42723 -0.19042
 C176 C 0.62725 0.44051 -0.24711
 C177 C 0.56911 0.43054 -0.32564
 C178 C 0.61247 0.39082 -0.15123
 H179 H 0.51985 0.36380 -0.24051
 H180 H 0.54492 0.34020 -0.14082
 H181 H 0.67595 0.44526 -0.17776
 H182 H 0.65037 0.46832 -0.27702
 C183 C 0.83320 0.41691 0.26457
 C184 C 0.81229 0.43991 0.24576
 C185 C 0.78478 0.42682 0.18893
 C186 C 0.88188 0.44023 0.37603
 C187 C 0.79934 0.36778 0.16889
 C188 C 0.82686 0.38097 0.22586
 C189 C 0.86006 0.42957 0.32480
 C190 C 0.77774 0.39042 0.15000
 H191 H 0.81689 0.46772 0.27546
 H192 H 0.76869 0.44499 0.17597
 H193 H 0.79460 0.33960 0.14019
 H194 H 0.84283 0.36287 0.24011
 C195 C 0.58376 0.16604 0.26682
 C196 C 0.62754 0.18692 0.24761
 C197 C 0.64189 0.21429 0.19029
 C198 C 0.55846 0.11745 0.37897
 C199 C 0.56846 0.19965 0.17052
 C200 C 0.55420 0.17227 0.22799
 C201 C 0.56961 0.13927 0.32746
 C202 C 0.61257 0.22122 0.15123
 H203 H 0.65071 0.18239 0.27739
 H204 H 0.67605 0.23036 0.17704
 H205 H 0.54506 0.20432 0.14175
 H206 H 0.52023 0.15632 0.24252
 C207 C 0.58241 0.41588 0.26559
 C208 C 0.55956 0.37191 0.24702
 C209 C 0.57261 0.35742 0.19006
 C210 C 0.55912 0.44140 0.37719
 C211 C 0.63134 0.43107 0.16941
 C212 C 0.61819 0.44548 0.22651
 C213 C 0.56977 0.43016 0.32590
 C214 C 0.60884 0.38678 0.15075
 H215 H 0.53188 0.34870 0.27701
 H216 H 0.55455 0.32312 0.17729
 H217 H 0.65938 0.45452 0.14043
 H218 H 0.63617 0.47959 0.24057
 C219 C 0.16595 0.58373 0.26471
 C220 C 0.18720 0.62778 0.24619
 C221 C 0.21506 0.64238 0.18955
 C222 C 0.11668 0.55799 0.37590
 C223 C 0.20018 0.56868 0.16914
 C224 C 0.17231 0.55417 0.22592
 C225 C 0.13874 0.56932 0.32476
 C226 C 0.22209 0.61305 0.15053
 H227 H 0.18259 0.65095 0.27598
 H228 H 0.23138 0.67673 0.17679
 H229 H 0.20490 0.54526 0.14036
 H230 H 0.15610 0.52000 0.23996
 C231 C 0.41802 0.83439 0.26477
 C232 C 0.38225 0.82816 0.22602
 C233 C 0.36905 0.80055 0.16905
 C234 C 0.44137 0.88325 0.37620
 C235 C 0.42772 0.78568 0.18917
 C236 C 0.44083 0.81328 0.24600
 C237 C 0.43070 0.86135 0.32499
 C238 C 0.39149 0.77876 0.15020
 H239 H 0.36430 0.84428 0.24024
 H240 H 0.34100 0.79590 0.14032
 H241 H 0.44574 0.76944 0.17624
 H242 H 0.46850 0.81780 0.27574
 C243 C 0.41642 0.58259 0.26540
 C244 C 0.37259 0.55970 0.24680
 C245 C 0.35818 0.57283 0.18984
 C246 C 0.44182 0.55921 0.37705
 C247 C 0.43164 0.63169 0.16924
 C248 C 0.44596 0.61846 0.22634
 C249 C 0.43063 0.56989 0.32574
 C250 C 0.38749 0.60917 0.15056
 H251 H 0.34943 0.53195 0.27678
 H252 H 0.32399 0.55475 0.17704
 H253 H 0.45504 0.65982 0.14027
 H254 H 0.47997 0.63647 0.24043
   
