data_POSCAR
  _audit_creation_date              2014-09-24
  _audit_creation_method            'ToBaCCo'
  _symmetry_space_group_name_H-M    'P1'
  _symmetry_Int_Tables_number       1
  _symmetry_cell_setting            triclinic
  loop_
  _symmetry_equiv_pos_as_xyz
 x,y,z
_cell_length_a 29.0780
_cell_length_b 29.1147
_cell_length_c 50.6394
_cell_angle_alpha 87.880700
_cell_angle_beta 91.072000
_cell_angle_gamma 120.094600
loop_
  _atom_site_label
  _atom_site_type_symbol
  _atom_site_fract_x
  _atom_site_fract_y
  _atom_site_fract_z
C1 C 0.02287 0.08507 0.53618
 H2 H 0.05971 0.08441 0.53570
 C3 C 0.01919 0.12220 0.55127
 H4 H 0.05321 0.15011 0.56257
 C5 C -0.06582 0.05092 0.52111
 H6 H -0.09830 0.02391 0.50882
 C7 C -0.07115 0.08760 0.53594
 H8 H -0.10795 0.08850 0.53523
 N9 N -0.01921 0.05048 0.52149
 C10 C 0.01667 -0.07466 0.50686
 H11 H 0.01827 -0.07245 0.48549
 C12 C 0.02059 -0.11493 0.52070
 H13 H 0.02570 -0.14361 0.50999
 C14 C 0.00469 -0.04205 0.54688
 H15 H -0.00337 -0.01477 0.55694
 C16 C 0.00839 -0.08175 0.56148
 H17 H 0.00386 -0.08448 0.58276
 Zn18 Zn -0.00660 0.00691 0.49953
 N19 N 0.00846 -0.03952 0.52005
 C20 C 0.09834 0.05402 0.47818
 N21 N 0.05127 0.05352 0.47767
 C22 C 0.04497 0.09007 0.46299
 C23 C 0.08708 0.12936 0.44808
 C24 C 0.14164 0.09282 0.46354
 C25 C -0.11116 -0.07386 0.49211
 C26 C -0.15447 -0.11257 0.47827
 C27 C -0.10620 -0.07394 0.43749
 C28 C -0.06379 -0.03593 0.45213
 N29 N -0.06686 -0.03689 0.47896
 H30 H 0.10284 0.02538 0.49047
 H31 H 0.00738 0.08926 0.46336
 H32 H 0.08191 0.15881 0.43680
 H33 H 0.17933 0.09373 0.46437
 H34 H -0.11199 -0.07439 0.51348
 H35 H -0.18893 -0.14267 0.48907
 H36 H -0.10268 -0.07371 0.41620
 H37 H -0.02770 -0.00720 0.44211
 C38 C 0.01569 -0.11892 0.54822
 C39 C -0.02805 0.12378 0.55099
 C40 C -0.15167 -0.11310 0.45072
 C41 C 0.13596 0.13104 0.44853
 C42 C 1.09813 0.03989 0.13012
 H43 H 1.09760 0.07678 0.13031
 C44 C 1.13608 0.03660 0.11516
 H45 H 1.16479 0.07096 0.10367
 C46 C 1.06264 -0.04936 0.14573
 H47 H 1.03475 -0.08225 0.15817
 C48 C 1.10012 -0.05432 0.13104
 H49 H 1.10075 -0.09123 0.13200
 N50 N 1.06246 -0.00266 0.14501
 C51 C 0.93606 0.03244 0.15874
 H52 H 0.93685 0.03320 0.18009
 C53 C 0.89650 0.03665 0.14468
 H54 H 0.86695 0.04113 0.15519
 C55 C 0.97148 0.02219 0.11899
 H56 H 0.99956 0.01466 0.10914
 C57 C 0.93255 0.02621 0.10418
 H58 H 0.93120 0.02244 0.08294
 Zn59 Zn 1.01743 0.00913 0.16665
 N60 N 0.97223 0.02491 0.14579
 C61 C 1.06277 0.11293 0.18758
 N62 N 1.06258 0.06604 0.18826
 C63 C 1.09827 0.05917 0.20311
 C64 C 1.13625 0.10044 0.21809
 C65 C 1.10027 0.15539 0.20229
 C66 C 0.93603 -0.09563 0.17464
 C67 C 0.89650 -0.13941 0.18874
 C68 C 0.93276 -0.09275 0.22920
 C69 C 0.97165 -0.04980 0.21434
 N70 N 0.97228 -0.05185 0.18754
 H71 H 1.03485 0.11790 0.17517
 H72 H 1.09773 0.02176 0.20289
 H73 H 1.16497 0.09481 0.22956
 H74 H 1.10090 0.19293 0.20137
 H75 H 0.93672 -0.09568 0.15329
 H76 H 0.86688 -0.17351 0.17826
 H77 H 0.93151 -0.09026 0.25044
 H78 H 0.99979 -0.01413 0.22416
 C79 C 0.89431 0.03275 0.11719
 C80 C 1.13735 -0.01076 0.11577
 C81 C 0.89443 -0.13761 0.21622
 C82 C 1.13752 0.14908 0.21753
 C83 C 0.04512 0.95459 0.87009
 H84 H 0.00755 0.91774 0.86968
 C85 C 0.08721 0.95749 0.88504
 H86 H 0.08204 0.92286 0.89631
 C87 C 0.09847 1.04414 0.85496
 H88 H 0.10297 1.07729 0.84268
 C89 C 0.14174 1.04871 0.86965
 H90 H 0.17941 1.08559 0.86885
 N91 N 0.05142 0.99746 0.85542
 C92 C -0.11101 0.96218 0.84100
 H93 H -0.11189 0.96188 0.81964
 C94 C -0.15426 0.95755 0.85488
 H95 H -0.18877 0.95318 0.84414
 C96 C -0.06356 0.97169 0.88097
 H97 H -0.02746 0.97910 0.89098
 C98 C -0.10594 0.96724 0.89562
 H99 H -0.10247 0.97056 0.91690
 Zn100 Zn -0.00645 0.98611 0.83356
 N101 N -0.06668 0.96956 0.85414
 C102 C -0.06570 0.88280 0.81196
 N103 N -0.01908 0.92991 0.81160
 C104 C 0.02299 0.93745 0.79691
 C105 C 0.01930 0.89664 0.78182
 C106 C -0.07105 0.84077 0.79713
 C107 C 0.01680 1.09098 0.82624
 C108 C 0.02071 1.13519 0.81240
 C109 C 0.00852 1.08979 0.77162
 C110 C 0.00483 1.04639 0.78621
 N111 N 0.00860 1.04763 0.81305
 H112 H -0.09818 0.87729 0.82425
 H113 H 0.05984 0.97501 0.79739
 H114 H 0.05331 0.90278 0.77052
 H115 H -0.10785 0.80302 0.79783
 H116 H 0.01840 1.09038 0.84760
 H117 H 0.02581 1.16898 0.82311
 H118 H 0.00399 1.08798 0.75033
 H119 H -0.00322 1.01104 0.77615
 C120 C -0.15139 0.96089 0.88241
 C121 C 0.13606 1.00480 0.88465
 C122 C 0.01581 1.13426 0.78488
 C123 C -0.02796 0.84775 0.78210
 C124 C 0.46317 -0.00532 -0.01444
 C125 C 0.46528 -0.00320 0.01332
 C126 C 0.50862 -0.00109 0.02695
 C127 C 0.54935 -0.00215 0.01315
 C128 C 0.54616 -0.00647 -0.01453
 C129 C 0.50334 -0.00750 -0.02821
 H130 H 0.50129 -0.00996 -0.04956
 H131 H 0.51066 0.00141 0.04830
 C132 C -0.01712 0.45018 0.65282
 C133 C -0.01599 0.44933 0.68065
 C134 C -0.01662 0.49006 0.69424
 C135 C -0.01711 0.53224 0.68027
 C136 C -0.01601 0.53420 0.65244
 C137 C -0.01664 0.49285 0.63886
 H138 H -0.01650 0.49401 0.61742
 H139 H -0.01645 0.48906 0.71567
 C140 C 0.54966 0.55235 0.32055
 C141 C 0.54652 0.55339 0.34823
 C142 C 0.50368 0.51154 0.36190
 C143 C 0.46344 0.46922 0.34811
 C144 C 0.46550 0.46930 0.32034
 C145 C 0.50885 0.51058 0.30673
 H146 H 0.51085 0.51018 0.28537
 H147 H 0.50167 0.51189 0.38325
 C148 C -0.04011 0.27149 0.62749
 C149 C -0.07666 0.24313 0.60374
 C150 C -0.02944 0.24417 0.59004
 C151 C 0.00706 0.27180 0.61358
 C152 C -0.02443 0.32536 0.61381
 C153 C 0.02276 0.32634 0.60014
 C154 C -0.06094 0.29774 0.59030
 C155 C -0.01376 0.29807 0.57641
 C156 C -0.03107 0.19981 0.57648
 C157 C -0.03077 0.16442 0.56502
 C158 C -0.02144 0.37056 0.62712
 C159 C -0.01918 0.40728 0.63846
 H160 H -0.05083 0.26116 0.64867
 H161 H -0.11754 0.20842 0.60509
 H162 H 0.03494 0.26060 0.62305
 H163 H 0.06365 0.36104 0.59879
 H164 H -0.08881 0.30898 0.58086
 H165 H -0.00298 0.30850 0.55524
 C166 C 0.71111 0.65880 0.25962
 C167 C 0.71386 0.70570 0.24285
 C168 C 0.76632 0.74362 0.25663
 C169 C 0.76431 0.69738 0.27320
 C170 C 0.68105 0.66907 0.28111
 C171 C 0.73348 0.70697 0.29493
 C172 C 0.68310 0.71533 0.26456
 C173 C 0.73626 0.75389 0.27814
 C174 C 0.81314 0.78534 0.24263
 C175 C 0.85078 0.82012 0.23077
 C176 C 0.63360 0.62752 0.29473
 C177 C 0.59499 0.59331 0.30621
 H178 H 0.70019 0.61923 0.25214
 H179 H 0.70632 0.70561 0.22127
 H180 H 0.79822 0.69048 0.27660
 H181 H 0.74092 0.70701 0.31652
 H182 H 0.64919 0.72224 0.26116
 H183 H 0.74715 0.79343 0.28564
 C184 C 0.30726 0.02066 -0.04055
 C185 C 0.31198 0.05324 -0.06630
 C186 C 0.26171 0.00506 -0.07683
 C187 C 0.25629 -0.02748 -0.05130
 C188 C 0.34068 0.00012 -0.05343
 C189 C 0.29039 -0.04804 -0.06394
 C190 C 0.34612 0.03266 -0.07894
 C191 C 0.29515 -0.01549 -0.08967
 C192 C 0.21749 0.00684 -0.09019
 C193 C 0.18067 0.00688 -0.10149
 C194 C 0.38454 -0.00258 -0.04026
 C195 C 0.42046 -0.00429 -0.02892
 H196 H 0.31276 0.03542 -0.02017
 H197 H 0.32034 0.09488 -0.06739
 H198 H 0.21891 -0.05210 -0.04003
 H199 H 0.28202 -0.08969 -0.06284
 H200 H 0.38354 0.05729 -0.09017
 H201 H 0.28970 -0.03031 -0.11003
 C202 C 0.03158 0.69262 0.58807
 C203 C -0.01448 0.69755 0.57510
 C204 C 0.00651 0.75134 0.58811
 C205 C 0.05265 0.74713 0.60088
 C206 C -0.00360 0.66538 0.61244
 C207 C 0.01739 0.71914 0.62549
 C208 C -0.04972 0.66961 0.59970
 C209 C -0.02866 0.72411 0.61250
 C210 C 0.01140 0.79864 0.57425
 C211 C 0.01421 0.83676 0.56255
 C212 C -0.00897 0.61773 0.62608
 C213 C -0.01271 0.57916 0.63772
 H214 H 0.05623 0.67908 0.57816
 H215 H -0.02750 0.68922 0.55422
 H216 H 0.09477 0.77953 0.60124
 H217 H 0.03035 0.72738 0.64639
 H218 H -0.09184 0.63721 0.59935
 H219 H -0.05331 0.73762 0.62244
 C220 C 0.34026 0.30065 0.26991
 C221 C 0.28452 0.26495 0.28227
 C222 C 0.25924 0.27225 0.25671
 C223 C 0.31432 0.30731 0.24416
 C224 C 0.34090 0.34958 0.28069
 C225 C 0.31562 0.35690 0.25515
 C226 C 0.28585 0.31455 0.29328
 C227 C 0.25984 0.32117 0.26751
 C228 C 0.21453 0.22894 0.24306
 C229 C 0.17875 0.19285 0.23156
 C230 C 0.38624 0.39251 0.29415
 C231 C 0.42290 0.42762 0.30568
 H232 H 0.37382 0.29272 0.27104
 H233 H 0.27119 0.22671 0.29332
 H234 H 0.32551 0.30386 0.22379
 H235 H 0.32898 0.39518 0.24414
 H236 H 0.27476 0.31804 0.31367
 H237 H 0.22627 0.32909 0.26639
 C238 C 0.70548 0.02362 -0.07069
 C239 C 0.74514 0.00960 -0.05700
 C240 C 0.73372 -0.03089 -0.07840
 C241 C 0.69467 -0.01692 -0.09229
 C242 C 0.66033 -0.02071 -0.05409
 C243 C 0.64890 -0.06120 -0.07546
 C244 C 0.69937 -0.03466 -0.04016
 C245 C 0.68860 -0.07523 -0.06177
 C246 C 0.77484 -0.03562 -0.09227
 C247 C 0.80916 -0.03811 -0.10400
 C248 C 0.61953 -0.01505 -0.04051
 C249 C 0.58605 -0.01077 -0.02899
 H250 H 0.71196 0.06430 -0.07421
 H251 H 0.78516 0.03860 -0.04951
 H252 H 0.69317 -0.00972 -0.11389
 H253 H 0.60886 -0.09019 -0.08292
 H254 H 0.70082 -0.04182 -0.01855
 H255 H 0.68213 -0.11591 -0.05825
 C256 C 0.31534 -0.04056 0.07838
 C257 C 0.31411 0.00777 0.08935
 C258 C 0.25910 -0.01221 0.07673
 C259 C 0.25963 -0.06056 0.06595
 C260 C 0.34077 -0.00792 0.05287
 C261 C 0.28579 -0.02790 0.04020
 C262 C 0.34020 0.04041 0.06363
 C263 C 0.28453 0.02042 0.05120
 C264 C 0.21438 -0.01360 0.09032
 C265 C 0.17860 -0.01328 0.10178
 C266 C 0.38610 -0.00555 0.03946
 C267 C 0.42274 -0.00404 0.02796
 H268 H 0.32858 -0.06554 0.08942
 H269 H 0.32525 0.02240 0.10973
 H270 H 0.22599 -0.10208 0.06704
 H271 H 0.27475 -0.04246 0.01981
 H272 H 0.37383 0.08194 0.06253
 H273 H 0.27133 0.04540 0.04012
 C274 C 0.65000 0.70955 0.41000
 C275 C 0.69705 0.71162 0.42585
 C276 C 0.73469 0.76535 0.41209
 C277 C 0.68829 0.76401 0.39644
 C278 C 0.66104 0.68178 0.38781
 C279 C 0.69866 0.73550 0.37402
 C280 C 0.70746 0.68317 0.40344
 C281 C 0.74571 0.73758 0.38989
 C282 C 0.77595 0.81120 0.42595
 C283 C 0.81039 0.84801 0.43769
 C284 C 0.62009 0.63532 0.37424
 C285 C 0.58652 0.59757 0.36272
 H286 H 0.61019 0.69745 0.41813
 H287 H 0.69683 0.70232 0.44732
 H288 H 0.68089 0.79777 0.39371
 H289 H 0.69884 0.74470 0.35253
 H290 H 0.71488 0.64943 0.40617
 H291 H 0.78550 0.74966 0.38173
 C292 C 0.01641 0.29713 0.70747
 C293 C 0.05253 0.30468 0.73174
 C294 C 0.00660 0.25480 0.74498
 C295 C -0.02944 0.24657 0.72093
 C296 C -0.00353 0.33062 0.72065
 C297 C -0.04945 0.28072 0.73388
 C298 C 0.03251 0.33885 0.74469
 C299 C -0.01335 0.28830 0.75813
 C300 C 0.01150 0.21240 0.75884
 C301 C 0.01432 0.17710 0.77055
 C302 C -0.00892 0.37289 0.70701
 C303 C -0.01268 0.40769 0.69537
 H304 H 0.02850 0.30125 0.68645
 H305 H 0.09449 0.31404 0.73099
 H306 H -0.05479 0.20819 0.71126
 H307 H -0.09142 0.27136 0.73461
 H308 H 0.05787 0.37726 0.75432
 H309 H -0.02549 0.28422 0.77913
 C310 C 0.70971 0.05148 0.07476
 C311 C 0.71303 0.00671 0.09062
 C312 C 0.76609 0.02333 0.07693
 C313 C 0.76350 0.06818 0.06127
 C314 C 0.68075 0.01258 0.05254
 C315 C 0.73378 0.02920 0.03882
 C316 C 0.68338 -0.03225 0.06818
 C317 C 0.73713 -0.01556 0.05470
 C318 C 0.81295 0.02845 0.09088
 C319 C 0.85061 0.03133 0.10269
 C320 C 0.63329 0.00667 0.03896
 C321 C 0.59467 0.00225 0.02750
 H322 H 0.69785 0.07892 0.08288
 H323 H 0.70503 -0.00245 0.11209
 H324 H 0.79696 0.10952 0.05858
 H325 H 0.74168 0.03831 0.01734
 H326 H 0.64992 -0.07359 0.07088
 H327 H 0.74897 -0.04300 0.04656
 C328 C 0.30734 0.28712 0.37397
 C329 C 0.31199 0.25902 0.39964
 C330 C 0.26176 0.25685 0.41022
 C331 C 0.25641 0.28421 0.38476
 C332 C 0.34083 0.34100 0.38696
 C333 C 0.29059 0.33880 0.39752
 C334 C 0.34619 0.31365 0.41240
 C335 C 0.29527 0.31076 0.42318
 C336 C 0.21748 0.21071 0.42350
 C337 C 0.18062 0.17373 0.43474
 C338 C 0.38475 0.38768 0.37386
 C339 C 0.42071 0.42540 0.36257
 H340 H 0.31282 0.27802 0.35356
 H341 H 0.32027 0.22569 0.40063
 H342 H 0.21905 0.27156 0.37350
 H343 H 0.28230 0.37212 0.39653
 H344 H 0.38360 0.32633 0.42363
 H345 H 0.28983 0.31997 0.44357
 C346 C 0.02253 0.69543 0.73344
 C347 C 0.00791 0.73496 0.71986
 C348 C -0.02938 0.72594 0.74304
 C349 C -0.01479 0.68704 0.75680
 C350 C -0.02439 0.64976 0.71928
 C351 C -0.06170 0.64072 0.74243
 C352 C -0.03898 0.68864 0.70547
 C353 C -0.07633 0.68030 0.72886
 C354 C -0.03099 0.76868 0.75660
 C355 C -0.03068 0.80438 0.76806
 C356 C -0.02141 0.60755 0.70597
 C357 C -0.01916 0.57308 0.69463
 H358 H 0.06318 0.70117 0.73518
 H359 H 0.03645 0.77415 0.71069
 H360 H -0.00489 0.68682 0.77807
 H361 H -0.09023 0.60149 0.75157
 H362 H -0.04882 0.68880 0.68419
 H363 H -0.11697 0.67459 0.72712
   
