data_POSCAR
  _audit_creation_date              2014-09-24
  _audit_creation_method            'ToBaCCo'
  _symmetry_space_group_name_H-M    'P1'
  _symmetry_Int_Tables_number       1
  _symmetry_cell_setting            triclinic
  loop_
  _symmetry_equiv_pos_as_xyz
 x,y,z
_cell_length_a 17.1430
_cell_length_b 16.3945
_cell_length_c 16.3097
_cell_angle_alpha 88.268100
_cell_angle_beta 92.194200
_cell_angle_gamma 93.107300
loop_
  _atom_site_label
  _atom_site_type_symbol
  _atom_site_fract_x
  _atom_site_fract_y
  _atom_site_fract_z
C1 C 0.68647 1.00132 -0.47247
 C2 C 0.70013 0.98739 -0.55556
 C3 C 0.64129 0.98810 -0.61871
 C4 C 0.56425 1.00463 -0.59647
 C5 C 0.54716 1.01190 -0.51229
 C6 C 0.60875 1.01507 -0.45102
 C7 C 0.59125 1.04094 -0.37278
 C8 C 0.51480 1.04716 -0.35027
 C9 C 0.45201 1.03223 -0.40632
 C10 C 0.46844 1.02167 -0.48983
 C11 C 0.50537 1.02329 -0.65542
 C12 C 0.42966 1.03570 -0.63311
 C13 C 0.40745 1.02587 -0.55132
 C14 C 0.32815 1.02883 -0.52809
 C15 C 0.31384 1.03245 -0.44346
 C16 C 0.37384 1.03433 -0.38228
 H17 H 0.63578 1.06150 -0.32884
 H18 H 0.50622 1.06839 -0.28941
 H19 H 0.51749 1.03463 -0.71917
 H20 H 0.39091 1.05882 -0.68062
 H21 H 0.75843 0.97243 -0.57032
 H22 H 0.25410 1.03142 -0.42418
 C23 C -0.65842 1.45033 0.05865
 C24 C -0.68439 1.53022 0.05447
 C25 C -0.63563 1.59803 0.03078
 C26 C -0.55941 1.58366 0.00390
 C27 C -0.53133 1.50355 0.00984
 C28 C -0.58037 1.43713 0.03900
 C29 C -0.54921 1.35980 0.04947
 C30 C -0.47454 1.34593 0.02461
 C31 C -0.42721 1.40902 -0.01095
 C32 C -0.45419 1.48951 -0.01466
 C33 C -0.51253 1.64550 -0.03485
 C34 C -0.43731 1.63194 -0.05800
 C35 C -0.40493 1.55567 -0.04436
 C36 C -0.32743 1.54161 -0.06665
 C37 C -0.30489 1.46038 -0.06828
 C38 C -0.35314 1.39418 -0.04144
 H39 H -0.58166 1.30895 0.07791
 H40 H -0.45409 1.28517 0.03501
 H41 H -0.53427 1.70434 -0.05203
 H42 H -0.40671 1.68116 -0.09097
 H43 H -0.74314 1.53960 0.07309
 H44 H -0.24753 1.44789 -0.08906
 C45 C -0.09101 0.39157 0.35894
 C46 C -0.09913 0.45710 0.30177
 C47 C -0.08671 0.53808 0.32577
 C48 C -0.05957 0.55536 0.40636
 C49 C -0.05297 0.49099 0.46456
 C50 C -0.07750 0.41027 0.44317
 C51 C -0.08621 0.35149 0.50720
 C52 C -0.05301 0.36588 0.58428
 C53 C -0.01477 0.44162 0.60164
 C54 C -0.02102 0.50692 0.54433
 C55 C -0.04011 0.63564 0.43073
 C56 C -0.00977 0.65129 0.50912
 C57 C 0.00550 0.58713 0.56604
 C58 C 0.04140 0.59993 0.64550
 C59 C 0.05143 0.53197 0.69933
 C60 C 0.02730 0.45322 0.67616
 H61 H -0.11926 0.29419 0.49949
 H62 H -0.05773 0.31725 0.63056
 H63 H -0.04752 0.68772 0.38945
 H64 H -0.00043 0.71474 0.52310
 H65 H -0.11484 0.44599 0.23803
 H66 H 0.08431 0.53934 0.75707
 O67 O -0.16671 0.98209 -0.16388
 O68 O 0.22606 1.02803 -0.05346
 O69 O 0.04300 1.12939 -0.19250
 O70 O 0.06530 0.91341 -0.20529
 O71 O 0.05536 0.80387 -0.11412
 O72 O 0.01094 1.21623 -0.09239
 O73 O 0.15054 1.03126 -0.17344
 O74 O -0.05090 1.00930 -0.22937
 Zr75 Zr 0.03610 1.01257 -0.13534
 O76 O 0.09855 0.94130 -0.05348
 O77 O -0.05586 1.06722 -0.08605
 C78 C -0.12615 0.99667 -0.22946
 C79 C 0.21701 1.03265 -0.13333
 C80 C 0.03298 1.20133 -0.16518
 C81 C 0.06923 0.83655 -0.18564
 H82 H 0.12127 1.12787 -0.06702
 O83 O 0.08398 1.08556 -0.04476
 H84 H -0.06026 0.88768 -0.13804
 O85 O -0.03987 0.92193 -0.09236
 O86 O 0.17884 1.01226 0.16694
 O87 O -0.21347 0.95623 0.05834
 O88 O 0.08630 1.21491 0.04817
 O89 O 0.12979 0.80216 0.01878
 O90 O -0.07274 0.77431 -0.04108
 O91 O -0.11714 1.18721 -0.01914
 O92 O -0.04488 1.07850 0.20942
 O93 O -0.04103 0.86020 0.19184
 O94 O -0.03745 1.18880 0.11886
 O95 O -0.00614 0.77359 0.09288
 O96 O 0.19179 1.13309 0.06412
 O97 O -0.20100 1.07667 -0.05064
 O98 O -0.17911 0.85475 -0.05703
 O99 O 0.21407 0.91242 0.04917
 O100 O 0.06345 0.98718 0.23364
 O101 O -0.13640 0.95857 0.17735
 Zr102 Zr 0.14217 1.01369 0.04054
 Zr103 Zr -0.12982 0.97528 -0.03688
 Zr104 Zr -0.00803 1.13608 0.00888
 Zr105 Zr 0.02110 0.85455 -0.00553
 Zr106 Zr -0.02278 0.97800 0.13863
 O107 O -0.07108 0.90409 0.04870
 O108 O 0.05321 1.06891 0.09604
 C109 C 0.13832 1.00301 0.23292
 C110 C -0.20339 0.95409 0.13845
 C111 C 0.15930 1.20310 0.06590
 C112 C 0.19857 0.83499 0.03737
 C113 C -0.14600 0.78498 -0.05789
 C114 C -0.18542 1.15430 -0.04038
 C115 C -0.04842 1.15557 0.19082
 C116 C -0.03561 0.78834 0.16234
 H117 H -0.12699 1.07519 0.08252
 O118 O -0.08471 1.04849 0.05598
 H119 H 0.09439 0.88745 0.13168
 O120 O 0.06820 0.92248 0.08975
 N121 N 0.14113 1.04016 0.37539
 N122 N 0.19038 1.04822 0.43932
 C123 C 0.26149 1.02732 0.41648
 C124 C 0.25242 1.00399 0.33455
 N125 N 0.17715 1.01437 0.31164
 H126 H 0.29338 0.97653 0.29644
 N127 N -0.34409 0.94205 0.16989
 N128 N -0.38701 0.95179 0.23491
 C129 C -0.33783 0.97107 0.29948
 C130 C -0.26304 0.97082 0.27089
 N131 N -0.26910 0.95296 0.19081
 H132 H -0.20851 0.98673 0.30358
 N133 N -0.12598 1.01722 -0.37665
 N134 N -0.17390 1.01854 -0.44196
 C135 C -0.24731 1.00220 -0.41656
 C136 C -0.24133 0.98821 -0.33126
 N137 N -0.16490 0.99978 -0.30933
 H138 H -0.28637 0.96780 -0.28954
 N139 N 0.35029 1.00145 -0.16434
 N140 N 0.39265 0.99850 -0.23055
 C141 C 0.35222 1.03358 -0.29394
 C142 C 0.28340 1.05787 -0.26360
 N143 N 0.28438 1.03722 -0.18298
 H144 H 0.23488 1.08393 -0.29768
 N145 N 0.18427 1.32625 0.14293
 N146 N 0.23103 1.39322 0.14220
 C147 C 0.28490 1.38357 0.08558
 C148 C 0.26889 1.30775 0.05109
 N149 N 0.20654 1.27375 0.08957
 H150 H 0.29573 1.28278 -0.00100
 N151 N 0.33675 0.80805 0.05296
 N152 N 0.38291 0.74608 0.04970
 C153 C 0.33682 0.67766 0.03754
 C154 C 0.25983 0.70036 0.03556
 N155 N 0.26263 0.78201 0.04426
 H156 H 0.20711 0.66222 0.02481
 N157 N -0.16005 0.65709 -0.12660
 N158 N -0.20671 0.59038 -0.12926
 C159 C -0.27029 0.60413 -0.08636
 C160 C -0.26022 0.68323 -0.05684
 N161 N -0.19095 0.71368 -0.08387
 H162 H -0.29454 0.71203 -0.01265
 N163 N -0.32121 1.18311 -0.07471
 N164 N -0.36801 1.24489 -0.07442
 C165 C -0.32428 1.31066 -0.04823
 C166 C -0.24850 1.28725 -0.03403
 N167 N -0.24920 1.20732 -0.05083
 H168 H -0.19819 1.32433 -0.01223
 N169 N -0.06133 1.18327 0.33342
 N170 N -0.07280 1.24528 0.38022
 C171 C -0.08597 1.31115 0.33089
 C172 C -0.08104 1.28667 0.25060
 N173 N -0.06544 1.20711 0.25555
 H174 H -0.08395 1.32320 0.19431
 N175 N 0.09573 1.26287 -0.28313
 N176 N 0.09986 1.33310 -0.32476
 C177 C 0.05962 1.38640 -0.28365
 C178 C 0.02917 1.34576 -0.21572
 N179 N 0.05269 1.26897 -0.21839
 H180 H -0.01295 1.36680 -0.17440
 N181 N 0.10011 0.80587 -0.32510
 N182 N 0.09149 0.74253 -0.37367
 C183 C 0.06836 0.67714 -0.32657
 C184 C 0.06658 0.70190 -0.24683
 N185 N 0.08479 0.78248 -0.24888
 H186 H 0.04432 0.66711 -0.19440
 N187 N -0.14203 0.72422 0.23713
 N188 N -0.16119 0.65427 0.27549
 C189 C -0.10174 0.60498 0.26687
 C190 C -0.04482 0.64734 0.22255
 N191 N -0.07206 0.72148 0.20629
 H192 H 0.01348 0.62931 0.21089
   
