data_POSCAR
  _audit_creation_date              2014-09-24
  _audit_creation_method            'ToBaCCo'
  _symmetry_space_group_name_H-M    'P1'
  _symmetry_Int_Tables_number       1
  _symmetry_cell_setting            triclinic
  loop_
  _symmetry_equiv_pos_as_xyz
 x,y,z
_cell_length_a 37.7963
_cell_length_b 37.4094
_cell_length_c 37.4658
_cell_angle_alpha 89.781100
_cell_angle_beta 89.875700
_cell_angle_gamma 89.908000
loop_
  _atom_site_label
  _atom_site_type_symbol
  _atom_site_fract_x
  _atom_site_fract_y
  _atom_site_fract_z
N1 N 0.19475 1.26880 0.16937
 N2 N 0.16978 1.26816 0.19391
 C3 C 0.14602 1.29411 0.18678
 C4 C 0.15697 1.31183 0.15639
 C5 C 0.18779 1.29519 0.14583
 H6 H 0.12185 1.29879 0.20156
 H7 H 0.20308 1.30076 0.12202
 Cu8 Cu 0.16909 1.23135 0.23073
 Cu9 Cu 0.23238 1.23322 0.16768
 Cu10 Cu 0.23144 1.16723 0.23300
 N11 N 0.16886 1.19434 0.26735
 N12 N 0.19338 1.16933 0.26809
 C13 C 0.18595 1.14596 0.29450
 C14 C 0.15528 1.15714 0.31102
 C15 C 0.14493 1.18771 0.29325
 H16 H 0.20093 1.12199 0.30033
 H17 H 0.12113 1.20310 0.29799
 N18 N 0.26776 1.16973 0.19521
 N19 N 0.26816 1.19493 0.17040
 C20 C 0.29457 1.18805 0.14720
 C21 C 0.31144 1.15725 0.15807
 C22 C 0.29391 1.14617 0.18840
 H23 H 0.30018 1.20332 0.12329
 H24 H 0.29890 1.12193 0.20340
 H25 H 0.20422 1.19254 0.19225
 H26 H 0.23216 1.22118 0.22152
 N27 N 0.81080 0.73727 0.17075
 N28 N 0.83716 0.73991 0.19345
 C29 C 0.86090 0.71389 0.18667
 C30 C 0.84861 0.69411 0.15836
 C31 C 0.81691 0.70956 0.14872
 H32 H 0.88576 0.71028 0.20046
 H33 H 0.80035 0.70216 0.12644
 Cu34 Cu 0.83914 0.77791 0.22867
 Cu35 Cu 0.77266 0.77217 0.16880
 Cu36 Cu 0.77736 0.84275 0.22810
 N37 N 0.83557 0.81280 0.26692
 N38 N 0.81124 0.83798 0.26671
 C39 C 0.81641 0.85988 0.29465
 C40 C 0.84534 0.84749 0.31330
 C41 C 0.85706 0.81776 0.29512
 H42 H 0.80130 0.88387 0.30000
 H43 H 0.88031 0.80195 0.30108
 N44 N 0.73917 0.83781 0.19290
 N45 N 0.73698 0.81054 0.17073
 C46 C 0.70916 0.81572 0.14885
 C47 C 0.69320 0.84754 0.15798
 C48 C 0.71274 0.86096 0.18585
 H49 H 0.70199 0.79857 0.12686
 H50 H 0.70877 0.88633 0.19902
 H51 H 0.80230 0.81340 0.18790
 H52 H 0.77592 0.78818 0.22184
 N53 N 0.80050 1.26767 -0.16906
 N54 N 0.82616 1.26707 -0.19285
 C55 C 0.84950 1.29314 -0.18527
 C56 C 0.83762 1.31088 -0.15537
 C57 C 0.80661 1.29413 -0.14561
 H58 H 0.87398 1.29800 -0.19947
 H59 H 0.79054 1.29983 -0.12239
 Cu60 Cu 0.82804 1.23034 -0.22945
 Cu61 Cu 0.76286 1.23216 -0.16832
 Cu62 Cu 0.76570 1.16654 -0.23343
 N63 N 0.82941 1.19338 -0.26583
 N64 N 0.80481 1.16857 -0.26731
 C65 C 0.81296 1.14525 -0.29337
 C66 C 0.84420 1.15622 -0.30891
 C67 C 0.85414 1.18665 -0.29092
 H68 H 0.79804 1.12145 -0.29963
 H69 H 0.87812 1.20188 -0.29496
 N70 N 0.72827 1.16899 -0.19682
 N71 N 0.72720 1.19397 -0.17199
 C72 C 0.70023 1.18689 -0.14947
 C73 C 0.68370 1.15621 -0.16084
 C74 C 0.70202 1.14540 -0.19072
 H75 H 0.69406 1.20189 -0.12564
 H76 H 0.69754 1.12124 -0.20580
 H77 H 0.79173 1.19155 -0.19191
 H78 H 0.76472 1.22049 -0.22207
 N79 N 0.19370 0.72837 -0.17227
 N80 N 0.16955 0.72948 -0.19750
 C81 C 0.14557 0.70353 -0.19141
 C82 C 0.15547 0.68534 -0.16096
 C83 C 0.18596 0.70169 -0.14935
 H84 H 0.12194 0.69908 -0.20698
 H85 H 0.20050 0.69563 -0.12524
 Cu86 Cu 0.17024 0.76667 -0.23394
 Cu87 Cu 0.23139 0.76364 -0.16904
 Cu88 Cu 0.23292 0.83029 -0.23366
 N89 N 0.17141 0.80408 -0.27015
 N90 N 0.19608 0.82887 -0.26990
 C91 C 0.18969 0.85256 -0.29628
 C92 C 0.15955 0.84184 -0.31384
 C93 C 0.14841 0.81119 -0.29670
 H94 H 0.20499 0.87646 -0.30140
 H95 H 0.12469 0.79610 -0.30230
 N96 N 0.26791 0.82713 -0.19482
 N97 N 0.26736 0.80169 -0.17025
 C98 C 0.29313 0.80803 -0.14631
 C99 C 0.31057 0.83872 -0.15645
 C100 C 0.29405 0.85030 -0.18711
 H101 H 0.29800 0.79237 -0.12250
 H102 H 0.29980 0.87453 -0.20184
 H103 H 0.20422 0.80478 -0.19401
 H104 H 0.23300 0.77621 -0.22274
 C105 C 0.49824 0.99743 0.00007
 C106 C -0.00224 0.49858 1.00011
 C107 C 1.00112 0.00096 0.50215
 C108 C 0.13847 0.33687 1.13778
 C109 C 0.12165 0.35845 1.12087
 C110 C 0.10104 0.38338 1.10020
 C111 C 0.07833 0.37068 1.07363
 C112 C 0.05798 0.39462 1.05359
 C113 C 0.06022 0.43141 1.06001
 C114 C 0.08298 0.44418 1.08653
 C115 C 0.10337 0.42019 1.10661
 C116 C 0.03889 0.45578 1.03944
 C117 C 0.02056 0.47551 1.02187
 H118 H 0.07630 0.34227 1.06847
 H119 H 0.04045 0.38446 1.03318
 H120 H 0.08489 0.47258 1.09172
 H121 H 0.12084 0.43029 1.12711
 C122 C -0.13278 0.66630 1.13979
 C123 C -0.11670 0.64360 1.12374
 C124 C -0.09698 0.61729 1.10403
 C125 C -0.06274 0.62527 1.09208
 C126 C -0.04379 0.60032 1.07196
 C127 C -0.05897 0.56724 1.06370
 C128 C -0.09312 0.55910 1.07587
 C129 C -0.11210 0.58409 1.09602
 C130 C -0.03969 0.54223 1.04198
 C131 C -0.02305 0.52206 1.02332
 H132 H -0.05083 0.65088 1.09804
 H133 H -0.01745 0.60693 1.06260
 H134 H -0.10513 0.53363 1.06955
 H135 H -0.13859 0.57768 1.10507
 C136 C -0.14381 0.33781 0.86433
 C137 C -0.12774 0.35976 0.88128
 C138 C -0.10798 0.38514 0.90198
 C139 C -0.09806 0.41808 0.88712
 C140 C -0.07767 0.44204 0.90696
 C141 C -0.06714 0.43311 0.94172
 C142 C -0.07736 0.40033 0.95667
 C143 C -0.09773 0.37641 0.93686
 C144 C -0.04499 0.45693 0.96179
 C145 C -0.02594 0.47615 0.97892
 H146 H -0.10577 0.42506 0.86014
 H147 H -0.06982 0.46728 0.89511
 H148 H -0.06928 0.39311 0.98348
 H149 H -0.10516 0.35098 0.94858
 C150 C 0.13550 0.65844 0.85764
 C151 C 0.11838 0.63654 0.87379
 C152 C 0.09752 0.61120 0.89370
 C153 C 0.11260 0.57909 0.90571
 C154 C 0.09254 0.55524 0.92627
 C155 C 0.05735 0.56343 0.93489
 C156 C 0.04222 0.59537 0.92259
 C157 C 0.06225 0.61919 0.90206
 C158 C 0.03698 0.53976 0.95720
 C159 C 0.01950 0.52070 0.97634
 H160 H 0.13989 0.57270 0.89950
 H161 H 0.10453 0.53065 0.93574
 H162 H 0.01508 0.60203 0.92921
 H163 H 0.05036 0.64400 0.89303
 C164 C 1.13671 0.13928 0.33655
 C165 C 1.11985 0.12313 0.35869
 C166 C 1.09929 0.10343 0.38444
 C167 C 1.06545 0.09129 0.37538
 C168 C 1.04567 0.07136 0.39993
 C169 C 1.05962 0.06348 0.43367
 C170 C 1.09337 0.07581 0.44285
 C171 C 1.11318 0.09576 0.41828
 C172 C 1.03950 0.04208 0.45840
 C173 C 1.02235 0.02373 0.47851
 H174 H 1.05448 0.09700 0.34928
 H175 H 1.01963 0.06189 0.39252
 H176 H 1.10443 0.06981 0.46885
 H177 H 1.13934 0.10498 0.42554
 C178 C 1.14192 -0.13979 0.66035
 C179 C 1.12587 -0.12314 0.63801
 C180 C 1.10616 -0.10281 0.61210
 C181 C 1.11574 -0.06743 0.60444
 C182 C 1.09539 -0.04697 0.58082
 C183 C 1.06540 -0.06181 0.56476
 C184 C 1.05612 -0.09736 0.57201
 C185 C 1.07646 -0.11782 0.59564
 C186 C 1.04335 -0.04013 0.54209
 C187 C 1.02448 -0.02170 0.52373
 H188 H 1.13857 -0.05552 0.61713
 H189 H 1.10273 -0.01948 0.57549
 H190 H 1.03291 -0.10905 0.55982
 H191 H 1.06875 -0.14511 0.60147
 C192 C 0.86231 -0.13555 0.34031
 C193 C 0.87794 -0.11999 0.36355
 C194 C 0.89731 -0.10080 0.39035
 C195 C 0.88522 -0.06741 0.40206
 C196 C 0.90532 -0.04760 0.42623
 C197 C 0.93759 -0.06112 0.43879
 C198 C 0.94939 -0.09477 0.42755
 C199 C 0.92929 -0.11458 0.40337
 C200 C 0.95935 -0.03977 0.46181
 C201 C 0.97800 -0.02154 0.48040
 H202 H 0.86063 -0.05642 0.39201
 H203 H 0.89603 -0.02154 0.43463
 H204 H 0.97438 -0.10540 0.43697
 H205 H 0.93898 -0.14028 0.39434
 C206 C 0.86335 0.13833 0.66612
 C207 C 0.88057 0.12207 0.64444
 C208 C 0.90142 0.10222 0.61915
 C209 C 0.93433 0.08829 0.62933
 C210 C 0.95441 0.06839 0.60511
 C211 C 0.94168 0.06230 0.57058
 C212 C 0.90882 0.07633 0.56032
 C213 C 0.88872 0.09625 0.58456
 C214 C 0.96218 0.04122 0.54601
 C215 C 0.97962 0.02323 0.52591
 H216 H 0.94437 0.09267 0.65603
 H217 H 0.97974 0.05760 0.61335
 H218 H 0.89870 0.07171 0.53370
 H219 H 0.86327 0.10683 0.57644
 C220 C 0.33808 1.13787 0.13874
 C221 C 0.35968 1.12119 0.12189
 C222 C 0.38454 1.10080 0.10110
 C223 C 0.37265 1.08159 0.07145
 C224 C 0.39644 1.06133 0.05131
 C225 C 0.43228 1.06016 0.06068
 C226 C 0.44427 1.07947 0.09026
 C227 C 0.42042 1.09977 0.11045
 C228 C 0.45639 1.03876 0.04003
 C229 C 0.47576 1.02035 0.02224
 H230 H 0.34497 1.08218 0.06399
 H231 H 0.38689 1.04648 0.02851
 H232 H 0.47193 1.07872 0.09775
 H233 H 0.42989 1.11452 0.13334
 C234 C 0.65691 1.13642 -0.14208
 C235 C 0.63525 1.11928 -0.12575
 C236 C 0.61040 1.09821 -0.10555
 C237 C 0.62220 1.06770 -0.08732
 C238 C 0.59854 1.04751 -0.06687
 C239 C 0.56295 1.05771 -0.06451
 C240 C 0.55103 1.08809 -0.08293
 C241 C 0.57474 1.10833 -0.10343
 C242 C 0.53911 1.03722 -0.04258
 C243 C 0.52009 1.01954 -0.02362
 H244 H 0.64972 1.05966 -0.08872
 H245 H 0.60805 1.02411 -0.05268
 H246 H 0.52356 1.09624 -0.08124
 H247 H 0.56535 1.13191 -0.11739
 C248 C 0.33719 0.85736 -0.13657
 C249 C 0.35890 0.87344 -0.11945
 C250 C 0.38404 0.89320 -0.09858
 C251 C 0.41887 0.89768 -0.11069
 C252 C 0.44285 0.91781 -0.09070
 C253 C 0.43207 0.93350 -0.05855
 C254 C 0.39733 0.92877 -0.04634
 C255 C 0.37338 0.90867 -0.06630
 C256 C 0.45618 0.95522 -0.03841
 C257 C 0.47562 0.97398 -0.02121
 H258 H 0.42736 0.88589 -0.13565
 H259 H 0.46964 0.92138 -0.10042
 H260 H 0.38869 0.94086 -0.02157
 H261 H 0.34650 0.90544 -0.05672
 C262 C 0.66551 0.86564 0.13891
 C263 C 0.64301 0.88143 0.12238
 C264 C 0.61708 0.90097 0.10207
 C265 C 0.58105 0.89253 0.10485
 C266 C 0.55611 0.91163 0.08479
 C267 C 0.56715 0.93918 0.06191
 C268 C 0.60315 0.94759 0.05921
 C269 C 0.62804 0.92855 0.07923
 C270 C 0.54186 0.95886 0.04094
 C271 C 0.52160 0.97594 0.02279
 H272 H 0.57230 0.87124 0.12243
 H273 H 0.52832 0.90489 0.08706
 H274 H 0.61197 0.96883 0.04159
 H275 H 0.65582 0.93528 0.07685
   
