data_POSCAR
  _audit_creation_date              2014-09-24
  _audit_creation_method            'ToBaCCo'
  _symmetry_space_group_name_H-M    'P1'
  _symmetry_Int_Tables_number       1
  _symmetry_cell_setting            triclinic
  loop_
  _symmetry_equiv_pos_as_xyz
 x,y,z
_cell_length_a 42.2328
_cell_length_b 42.5104
_cell_length_c 42.0771
_cell_angle_alpha 89.920300
_cell_angle_beta 90.027900
_cell_angle_gamma 90.010600
loop_
  _atom_site_label
  _atom_site_type_symbol
  _atom_site_fract_x
  _atom_site_fract_y
  _atom_site_fract_z
N1 N 0.36086 0.35874 1.35471
 N2 N 1.14171 0.64452 0.86197
 N3 N 0.63835 -0.13720 0.13894
 N4 N -0.14332 1.13819 -0.36217
 N5 N 0.63879 0.63917 0.63161
 N6 N 0.86288 0.36199 0.13987
 N7 N 0.36082 0.14288 0.86296
 N8 N 0.13206 0.85979 0.36404
 Zn9 Zn 0.00763 1.03975 -0.01942
 Zn10 Zn -0.02576 0.97757 -0.02513
 Zn11 Zn 0.03746 0.98196 0.00706
 Zn12 Zn -0.01901 1.00964 0.03834
 O13 O -0.00002 1.00215 0.00012
 O14 O -0.01038 1.04201 -0.05765
 O15 O -0.00762 0.94045 -0.03567
 O16 O 0.07110 1.00354 -0.00709
 O17 O -0.03570 0.99656 -0.06223
 O18 O 0.04890 1.04702 -0.02569
 O19 O 0.03891 0.94463 -0.01174
 O20 O 0.00311 0.99514 0.07161
 O21 O -0.06277 0.96801 -0.00584
 O22 O 0.04472 0.97382 0.04811
 O23 O -0.05688 0.99142 0.04087
 O24 O -0.02589 1.05046 0.04582
 O25 O -0.00712 1.07290 0.00228
 C26 C -0.02778 1.02326 -0.07329
 C27 C 0.01941 0.92931 -0.02857
 C28 C 0.07324 1.03043 -0.02006
 C29 C 0.02904 0.98018 0.07296
 C30 C -0.07304 0.97495 0.02168
 C31 C -0.02053 1.07475 0.02917
 Zn32 Zn 0.48670 -0.03844 0.48134
 Zn33 Zn 0.51439 -0.00776 0.53835
 Zn34 Zn 0.51897 0.02418 0.47498
 Zn35 Zn 0.45623 0.01845 0.50869
 O36 O 0.49412 -0.00080 0.50075
 O37 O 0.50080 -0.07152 0.50373
 O38 O 0.55160 0.01145 0.54016
 O39 O 0.52952 0.00503 0.43820
 O40 O 0.52270 -0.04840 0.54540
 O41 O 0.50569 -0.04109 0.44369
 O42 O 0.55588 0.03551 0.49365
 O43 O 0.45366 0.05605 0.48985
 O44 O 0.49282 0.00617 0.57217
 O45 O 0.49933 0.06023 0.46416
 O46 O 0.44935 0.02532 0.55007
 O47 O 0.42275 -0.00356 0.49471
 O48 O 0.44569 -0.04539 0.47359
 C49 C 0.51604 -0.07294 0.52967
 C50 C 0.56684 0.02869 0.52095
 C51 C 0.52271 -0.02220 0.42780
 C52 C 0.47240 0.07116 0.47186
 C53 C 0.46611 0.01961 0.57441
 C54 C 0.42109 -0.02955 0.48005
 Zn55 Zn 1.01003 0.45877 0.48411
 Zn56 Zn 1.04083 0.51586 0.51049
 Zn57 Zn 0.97787 0.52158 0.47782
 Zn58 Zn 0.98292 0.48992 0.54127
 O59 O 1.00285 0.49659 0.50336
 O60 O 1.05106 0.45122 0.47691
 O61 O 1.04303 0.55352 0.49204
 O62 O 0.96765 0.50265 0.44098
 O63 O 1.07404 0.49414 0.49560
 O64 O 0.99158 0.45649 0.44603
 O65 O 0.99686 0.55814 0.46742
 O66 O 0.94541 0.50889 0.54323
 O67 O 1.04834 0.52274 0.55173
 O68 O 0.94093 0.53220 0.49635
 O69 O 1.00501 0.50421 0.57470
 O70 O 0.97478 0.44927 0.54870
 O71 O 0.99538 0.42591 0.50650
 C72 C 1.07564 0.46756 0.48205
 C73 C 1.02389 0.56901 0.47485
 C74 C 0.97472 0.47564 0.43023
 C75 C 0.92997 0.52560 0.52365
 C76 C 1.03187 0.51748 0.57637
 C77 C 0.98075 0.42464 0.53280
 Zn78 Zn 0.51183 0.46511 1.01669
 Zn79 Zn 0.47885 0.52751 1.02171
 Zn80 Zn 0.54171 0.52233 0.98915
 Zn81 Zn 0.48456 0.49446 0.95874
 O82 O 0.50415 0.50242 0.99663
 O83 O 0.49416 0.46352 1.05506
 O84 O 0.49753 0.56433 1.03213
 O85 O 0.57540 0.50065 1.00306
 O86 O 0.46851 0.50884 1.05887
 O87 O 0.55309 0.45778 1.02286
 O88 O 0.54395 0.55957 1.00816
 O89 O 0.50645 0.50851 0.92509
 O90 O 0.44214 0.53761 1.00243
 O91 O 0.54836 0.53016 0.94791
 O92 O 0.44657 0.51278 0.95633
 O93 O 0.47763 0.45349 0.95188
 O94 O 0.49678 0.43168 0.99561
 C95 C 0.47661 0.48237 1.07036
 C96 C 0.52477 0.57504 1.02522
 C97 C 0.57747 0.47409 1.01668
 C98 C 0.53239 0.52345 0.92330
 C99 C 0.43116 0.53013 0.97535
 C100 C 0.48315 0.42943 0.96885
 C101 C 1.27725 0.39154 0.39471
 N102 N 1.28110 0.36052 0.38824
 N103 N 1.30789 0.35006 0.37537
 C104 C 1.33181 0.37025 0.36833
 N105 N 1.32791 0.40134 0.37465
 N106 N 1.30113 0.41179 0.38766
 C107 C 1.24766 0.40284 0.40900
 N108 N 1.24463 0.43318 0.41859
 N109 N 1.21765 0.44329 0.43145
 C110 C 1.19271 0.42344 0.43508
 N111 N 1.19576 0.39313 0.42549
 N112 N 1.22276 0.38299 0.41278
 C113 C 1.16264 0.43463 0.44843
 N114 N 1.13664 0.41585 0.44808
 N115 N 1.10904 0.42622 0.45921
 C116 C 1.10646 0.45570 0.47130
 N117 N 1.13252 0.47441 0.47191
 N118 N 1.16010 0.46409 0.46062
 C119 C 0.22550 0.60944 0.90056
 N120 N 0.20908 0.59280 0.87855
 N121 N 0.18216 0.60395 0.86655
 C122 C 0.17057 0.63231 0.87589
 N123 N 0.18708 0.64890 0.89800
 N124 N 0.21396 0.63767 0.91016
 C125 C 0.25560 0.59728 0.91305
 N126 N 0.27068 0.61181 0.93749
 N127 N 0.29827 0.60086 0.94829
 C128 C 0.31182 0.57512 0.93490
 N129 N 0.29671 0.56063 0.91049
 N130 N 0.26909 0.57145 0.89984
 C131 C 0.34261 0.56332 0.94598
 N132 N 0.35801 0.54079 0.92920
 N133 N 0.38615 0.53026 0.93869
 C134 C 0.39990 0.54171 0.96544
 N135 N 0.38446 0.56415 0.98238
 N136 N 0.35635 0.57484 0.97275
 C137 C -0.27867 0.89952 0.10054
 N138 N -0.29904 0.88287 0.08212
 N139 N -0.32582 0.87146 0.09431
 C140 C -0.33326 0.87619 0.12538
 N141 N -0.31286 0.89301 0.14368
 N142 N -0.28614 0.90447 0.13150
 C143 C -0.24866 0.91143 0.08760
 N144 N -0.22889 0.92854 0.10622
 N145 N -0.20133 0.93886 0.09497
 C146 C -0.19241 0.93242 0.06468
 N147 N -0.21219 0.91536 0.04596
 N148 N -0.23984 0.90506 0.05722
 C149 C -0.16164 0.94355 0.05286
 N150 N -0.15144 0.93647 0.02307
 N151 N -0.12323 0.94644 0.01290
 C152 C -0.10428 0.96384 0.03218
 N153 N -0.11458 0.97090 0.06187
 N154 N -0.14268 0.96095 0.07201
 C155 C 0.77181 0.10560 0.59989
 N156 N 0.79070 0.12521 0.58288
 N157 N 0.81796 0.13549 0.59501
 C158 C 0.82742 0.12652 0.62458
 N159 N 0.80840 0.10694 0.64151
 N160 N 0.78118 0.09667 0.62940
 C161 C 0.74157 0.09433 0.58692
 N162 N 0.72301 0.07493 0.60448
 N163 N 0.69545 0.06473 0.59315
 C164 C 0.68536 0.07350 0.56382
 N165 N 0.70392 0.09289 0.54615
 N166 N 0.73156 0.10313 0.55752
 C167 C 0.65473 0.06209 0.55195
 N168 N 0.64370 0.07023 0.52270
 N169 N 0.61570 0.05968 0.51251
 C170 C 0.59781 0.04065 0.53128
 N171 N 0.60893 0.03258 0.56042
 N172 N 0.63681 0.04308 0.57055
 C173 C 0.39825 0.27511 0.39035
 N174 N 0.40817 0.28659 0.36193
 N175 N 0.39637 0.31341 0.35052
 C176 C 0.37431 0.32991 0.36712
 N177 N 0.36462 0.31837 0.39565
 N178 N 0.37627 0.29151 0.40699
 C179 C 0.41045 0.24515 0.40274
 N180 N 0.39709 0.23180 0.42880
 N181 N 0.40757 0.20435 0.43985
 C182 C 0.43194 0.18929 0.42539
 N183 N 0.44546 0.20269 0.39940
 N184 N 0.43484 0.23010 0.38822
 C185 C 0.44293 0.15876 0.43750
 N186 N 0.46960 0.14507 0.42593
 N187 N 0.47922 0.11723 0.43697
 C188 C 0.46238 0.10203 0.45981
 N189 N 0.43572 0.11573 0.47129
 N190 N 0.42623 0.14360 0.46041
 C191 C 0.89493 0.22194 0.60480
 N192 N 0.91332 0.19590 0.60772
 N193 N 0.90102 0.16890 0.61811
 C194 C 0.86979 0.16691 0.62554
 N195 N 0.85135 0.19288 0.62236
 N196 N 0.86374 0.21993 0.61231
 C197 C 0.90854 0.25198 0.59435
 N198 N 0.89287 0.27932 0.59978
 N199 N 0.90523 0.30670 0.59066
 C200 C 0.93356 0.30774 0.57549
 N201 N 0.94918 0.28039 0.56989
 N202 N 0.93698 0.25300 0.57933
 C203 C 0.94676 0.33799 0.56509
 N204 N 0.96983 0.33921 0.54265
 N205 N 0.98093 0.36682 0.53251
 C206 C 0.96963 0.39414 0.54475
 N207 N 0.94681 0.39287 0.56742
 N208 N 0.93548 0.36531 0.57729
 C209 C 0.09650 0.72387 -0.10190
 N210 N 0.11876 0.70855 -0.08449
 N211 N 0.13281 0.68284 -0.09576
 C212 C 0.12538 0.67149 -0.12499
 N213 N 0.10281 0.68672 -0.14222
 N214 N 0.08862 0.71237 -0.13090
 C215 C 0.08250 0.75324 -0.09008
 N216 N 0.05854 0.76769 -0.10599
 N217 N 0.04698 0.79509 -0.09582
 C218 C 0.05913 0.80908 -0.06950
 N219 N 0.08295 0.79453 -0.05358
 N220 N 0.09436 0.76711 -0.06362
 C221 C 0.04788 0.84002 -0.05884
 N222 N 0.06437 0.85586 -0.03631
 N223 N 0.05510 0.88423 -0.02686
 C224 C 0.02885 0.89785 -0.03939
 N225 N 0.01212 0.88197 -0.06183
 N226 N 0.02157 0.85358 -0.07149
 C227 C 0.60107 0.77962 1.10262
 N228 N 0.63186 0.78734 1.09765
 N229 N 0.64368 0.81409 1.10902
 C230 C 0.62518 0.83429 1.12574
 N231 N 0.59428 0.82661 1.13052
 N232 N 0.58245 0.79978 1.11920
 C233 C 0.58853 0.74964 1.09068
 N234 N 0.55833 0.74056 1.09703
 N235 N 0.54742 0.71299 1.08660
 C236 C 0.56634 0.69356 1.06942
 N237 N 0.59645 0.70273 1.06303
 N238 N 0.60735 0.73022 1.07349
 C239 C 0.55490 0.66294 1.05800
 N240 N 0.57422 0.64449 1.04029
 N241 N 0.56441 0.61659 1.02994
 C242 C 0.53492 0.60599 1.03692
 N243 N 0.51548 0.62441 1.05466
 N244 N 0.52531 0.65243 1.06501
 C245 C 0.39922 0.40417 1.27586
 N246 N 0.41615 0.38208 1.29181
 N247 N 0.40415 0.36796 1.31738
 C248 C 0.37463 0.37514 1.32794
 N249 N 0.35787 0.39755 1.31209
 N250 N 0.36992 0.41180 1.28659
 C251 C 0.41186 0.41830 1.24662
 N252 N 0.39626 0.44200 1.23160
 N253 N 0.40717 0.45371 1.20429
 C254 C 0.43396 0.44198 1.19095
 N255 N 0.44958 0.41840 1.20608
 N256 N 0.43879 0.40685 1.23342
 C257 C 0.44536 0.45344 1.16005
 N258 N 0.46863 0.43763 1.14466
 N259 N 0.47854 0.44708 1.11619
 C260 C 0.46571 0.47281 1.10207
 N261 N 0.44256 0.48885 1.11753
 N262 N 0.43247 0.47925 1.14599
 C263 C 0.60157 -0.09975 0.22249
 N264 N 0.59681 -0.13042 0.21497
 N265 N 0.60834 -0.14230 0.18810
 C266 C 0.62504 -0.12399 0.16760
 N267 N 0.62961 -0.09321 0.17510
 N268 N 0.61813 -0.08132 0.20204
 C269 C 0.58940 -0.08710 0.25258
 N270 N 0.59549 -0.05697 0.26146
 N271 N 0.58483 -0.04594 0.28913
 C272 C 0.56767 -0.06465 0.30885
 N273 N 0.56154 -0.09470 0.29988
 N274 N 0.57222 -0.10572 0.27231
 C275 C 0.55601 -0.05303 0.33957
 N276 N 0.53831 -0.07210 0.35836
 N277 N 0.52777 -0.06208 0.38637
 C278 C 0.53455 -0.03263 0.39673
 N279 N 0.55227 -0.01345 0.37796
 N280 N 0.56281 -0.02349 0.34985
 C281 C -0.10383 1.09875 -0.28069
 N282 N -0.09583 1.12823 -0.29013
 N283 N -0.10811 1.14059 -0.31648
 C284 C -0.12895 1.12399 -0.33449
 N285 N -0.13657 1.09427 -0.32523
 N286 N -0.12430 1.08191 -0.29882
 C287 C -0.09138 1.08596 -0.25072
 N288 N -0.10036 1.05714 -0.24003
 N289 N -0.08984 1.04627 -0.21220
 C290 C -0.06998 1.06388 -0.19409
 N291 N -0.06091 1.09260 -0.20489
 N292 N -0.07142 1.10344 -0.23265
 C293 C -0.05886 1.05266 -0.16297
 N294 N -0.03966 1.07112 -0.14509
 N295 N -0.02982 1.06158 -0.11663
 C296 C -0.03879 1.03320 -0.10488
 N297 N -0.05797 1.01461 -0.12275
 N298 N -0.06785 1.02420 -0.15130
 C299 C 1.10878 0.60375 0.77861
 N300 N 1.14001 0.61020 0.78245
 N301 N 1.15052 0.62328 0.80918
 C302 C 1.13017 0.63055 0.83304
 N303 N 1.09887 0.62423 0.82915
 N304 N 1.08837 0.61101 0.80244
 C305 C 1.09740 0.58937 0.74902
 N306 N 1.06681 0.57997 0.74598
 N307 N 1.05661 0.56715 0.71896
 C308 C 1.07660 0.56337 0.69398
 N309 N 1.10717 0.57275 0.69706
 N310 N 1.11740 0.58542 0.72410
 C311 C 1.06528 0.55019 0.66381
 N312 N 1.08419 0.55049 0.63774
 N313 N 1.07367 0.53963 0.61001
 C314 C 1.04391 0.52785 0.60736
 N315 N 1.02506 0.52728 0.63350
 N316 N 1.03554 0.53830 0.66122
 C317 C 0.72257 0.60275 0.59520
 N318 N 0.71141 0.59304 0.62381
 N319 N 0.68438 0.60444 0.63528
 C320 C 0.66744 0.62604 0.61861
 N321 N 0.67855 0.63560 0.58985
 N322 N 0.70561 0.62417 0.57835
 C323 C 0.75293 0.59076 0.58327
 N324 N 0.76457 0.60018 0.55470
 N325 N 0.79252 0.58969 0.54446
 C326 C 0.80982 0.56947 0.56248
 N327 N 0.79810 0.56004 0.59096
 N328 N 0.77019 0.57047 0.60116
 C329 C 0.84090 0.55815 0.55186
 N330 N 0.85827 0.53917 0.57105
 N331 N 0.88660 0.52892 0.56192
 C332 C 0.89867 0.53723 0.53323
 N333 N 0.88131 0.55621 0.51393
 N334 N 0.85292 0.56653 0.52311
 C335 C 0.78137 0.39613 1.09663
 N336 N 0.80313 0.41632 1.10883
 N337 N 0.82940 0.40546 1.12259
 C338 C 0.83493 0.37402 1.12451
 N339 N 0.81328 0.35392 1.11198
 N340 N 0.78696 0.36475 1.09843
 C341 C 0.75179 0.40779 1.08258
 N342 N 0.72787 0.38752 1.07591
 N343 N 0.70057 0.39800 1.06410
 C344 C 0.69627 0.42912 1.05830
 N345 N 0.72028 0.44940 1.06472
 N346 N 0.74753 0.43893 1.07676
 C347 C 0.66574 0.44062 1.04631
 N348 N 0.66242 0.47078 1.03616
 N349 N 0.63441 0.48132 1.02616
 C350 C 0.60868 0.46215 1.02617
 N351 N 0.61203 0.43200 1.03628
 N352 N 0.64007 0.42140 1.04604
 C353 C 0.27880 1.10958 -0.09427
 N354 N 0.29976 1.08936 -0.10767
 N355 N 0.32624 1.10001 -0.12109
 C356 C 0.33288 1.13128 -0.12139
 N357 N 0.31205 1.15147 -0.10768
 N358 N 0.28545 1.14083 -0.09448
 C359 C 0.24891 1.09797 -0.08088
 N360 N 0.22516 1.11827 -0.07371
 N361 N 0.19754 1.10765 -0.06282
 C362 C 0.19273 1.07636 -0.05847
 N363 N 0.21658 1.05608 -0.06535
 N364 N 0.24413 1.06668 -0.07648
 C365 C 0.16193 1.06461 -0.04750
 N366 N 0.15835 1.03412 -0.03853
 N367 N 0.13017 1.02331 -0.02938
 C368 C 0.10450 1.04253 -0.02913
 N369 N 0.10809 1.07301 -0.03809
 N370 N 0.13631 1.08388 -0.04700
 C371 C 0.21571 -0.10413 0.40061
 N372 N 0.19124 -0.11128 0.42027
 N373 N 0.16422 -0.12267 0.40858
 C374 C 0.16062 -0.12693 0.37679
 N375 N 0.18496 -0.11937 0.35715
 N376 N 0.21206 -0.10836 0.36886
 C377 C 0.24603 -0.09292 0.41329
 N378 N 0.27276 -0.09556 0.39561
 N379 N 0.30050 -0.08589 0.40701
 C380 C 0.30249 -0.07288 0.43637
 N381 N 0.27573 -0.07001 0.45402
 N382 N 0.24800 -0.08007 0.44276
 C383 C 0.33318 -0.06212 0.44855
 N384 N 0.33491 -0.04064 0.47236
 N385 N 0.36292 -0.03029 0.48257
 C386 C 0.39017 -0.04138 0.46962
 N387 N 0.38841 -0.06307 0.44606
 N388 N 0.36043 -0.07311 0.43559
 C389 C 0.60143 -0.27661 0.59899
 N390 N 0.63315 -0.27997 0.60296
 N391 N 0.64526 -0.30723 0.61281
 C392 C 0.62602 -0.33201 0.61931
 N393 N 0.59428 -0.32858 0.61552
 N394 N 0.58222 -0.30144 0.60529
 C395 C 0.58810 -0.24639 0.58877
 N396 N 0.55847 -0.24475 0.57634
 N397 N 0.54638 -0.21722 0.56724
 C398 C 0.56334 -0.19030 0.57068
 N399 N 0.59289 -0.19193 0.58327
 N400 N 0.60512 -0.21950 0.59200
 C401 C 0.55018 -0.15991 0.56077
 N402 N 0.56269 -0.13271 0.57203
 N403 N 0.55128 -0.10503 0.56260
 C404 C 0.52718 -0.10353 0.54131
 N405 N 0.51466 -0.13073 0.53000
 N406 N 0.52582 -0.15844 0.53974
 C407 C 1.09573 0.77631 0.40040
 N408 N 1.12414 0.78743 0.41043
 N409 N 1.13558 0.81440 0.39910
 C410 C 1.11907 0.83131 0.37726
 N411 N 1.09049 0.82025 0.36742
 N412 N 1.07903 0.79327 0.37877
 C413 C 1.08383 0.74598 0.41212
 N414 N 1.05552 0.73444 0.40216
 N415 N 1.04530 0.70649 0.41229
 C416 C 1.06307 0.68909 0.43269
 N417 N 1.09130 0.70071 0.44268
 N418 N 1.10149 0.72862 0.43260
 C419 C 1.05241 0.65800 0.44356
 N420 N 1.07125 0.64052 0.46283
 N421 N 1.06204 0.61220 0.47265
 C422 C 1.03364 0.60025 0.46362
 N423 N 1.01470 0.61772 0.44436
 N424 N 1.02396 0.64610 0.43447
 C425 C -0.09923 1.27792 0.10713
 N426 N -0.10916 1.30032 0.08637
 N427 N -0.12131 1.32730 0.09689
 C428 C -0.12372 1.33296 0.12856
 N429 N -0.11380 1.31052 0.14930
 N430 N -0.10184 1.28348 0.13878
 C431 C -0.08623 1.24802 0.09562
 N432 N -0.08098 1.22386 0.11608
 N433 N -0.06965 1.19653 0.10563
 C434 C -0.06293 1.19243 0.07436
 N435 N -0.06801 1.21665 0.05391
 N436 N -0.07954 1.24392 0.06434
 C437 C -0.05104 1.16209 0.06281
 N438 N -0.04043 1.15899 0.03252
 N439 N -0.03026 1.13125 0.02191
 C440 C -0.03052 1.10559 0.04116
 N441 N -0.04110 1.10871 0.07145
 N442 N -0.05106 1.13648 0.08212
 C443 C 0.40286 0.22546 0.89455
 N444 N 0.38948 0.20511 0.91550
 N445 N 0.37613 0.17853 0.90540
 C446 C 0.37588 0.17120 0.87398
 N447 N 0.38950 0.19147 0.85308
 N448 N 0.40263 0.21815 0.86316
 C449 C 0.41663 0.25525 0.90551
 N450 N 0.42402 0.27827 0.88438
 N451 N 0.43565 0.30567 0.89433
 C452 C 0.44056 0.31097 0.92576
 N453 N 0.43340 0.28786 0.94688
 N454 N 0.42153 0.26054 0.93695
 C455 C 0.45258 0.34149 0.93675
 N456 N 0.46235 0.34534 0.96725
 N457 N 0.47255 0.37326 0.97736
 C458 C 0.47310 0.39838 0.95741
 N459 N 0.46334 0.39452 0.92692
 N460 N 0.45339 0.36656 0.91674
 C461 C 0.60347 0.60306 0.71605
 N462 N 0.61024 0.58359 0.69141
 N463 N 0.62130 0.59515 0.66411
 C464 C 0.62558 0.62661 0.66039
 N465 N 0.61836 0.64607 0.68489
 N466 N 0.60768 0.63448 0.71227
 C467 C 0.59276 0.59046 0.74669
 N468 N 0.59577 0.60797 0.77346
 N469 N 0.58666 0.59657 0.80148
 C470 C 0.57389 0.56736 0.80372
 N471 N 0.57066 0.54988 0.77692
 N472 N 0.58014 0.56115 0.74891
 C473 C 0.56369 0.55514 0.83469
 N474 N 0.54247 0.53122 0.83670
 N475 N 0.53257 0.52093 0.86495
 C476 C 0.54389 0.53392 0.89215
 N477 N 0.56535 0.55760 0.89011
 N478 N 0.57493 0.56813 0.86189
 C479 C 0.39223 0.10059 0.77985
 N480 N 0.41313 0.11410 0.80021
 N481 N 0.40309 0.12759 0.82694
 C482 C 0.37180 0.12784 0.83441
 N483 N 0.35095 0.11412 0.81411
 N484 N 0.36096 0.10086 0.78728
 C485 C 0.40310 0.08660 0.74991
 N486 N 0.38200 0.07903 0.72680
 N487 N 0.39185 0.06717 0.69924
 C488 C 0.42314 0.06217 0.69389
 N489 N 0.44423 0.06950 0.71710
 N490 N 0.43440 0.08161 0.74457
 C491 C 0.43403 0.04997 0.66316
 N492 N 0.46439 0.04020 0.65932
 N493 N 0.47447 0.02998 0.63116
 C494 C 0.45461 0.02939 0.60578
 N495 N 0.42424 0.03912 0.60964
 N496 N 0.41410 0.04909 0.63785
 C497 C 0.09967 0.89650 0.27870
 N498 N 0.10402 0.86504 0.28217
 N499 N 0.11385 0.85316 0.30977
 C500 C 0.11994 0.87235 0.33480
 N501 N 0.11579 0.90383 0.33127
 N502 N 0.10560 0.91568 0.30377
 C503 C 0.08935 0.90957 0.24814
 N504 N 0.07657 0.93883 0.24642
 N505 N 0.06727 0.95065 0.21858
 C506 C 0.07085 0.93378 0.19145
 N507 N 0.08380 0.90461 0.19316
 N508 N 0.09273 0.89265 0.22103
 C509 C 0.06067 0.94664 0.16074
 N510 N 0.07188 0.93427 0.13325
 N511 N 0.06224 0.94544 0.10529
 C512 C 0.04079 0.96916 0.10381
 N513 N 0.02952 0.98153 0.13131
 N514 N 0.03946 0.97060 0.15930
 C515 C 0.89865 0.40272 0.22227
 N516 N 0.91511 0.38005 0.20678
 N517 N 0.90388 0.36746 0.18012
 C518 C 0.87562 0.37686 0.16794
 N519 N 0.85927 0.39978 0.18337
 N520 N 0.87059 0.41251 0.21000
 C521 C 0.91057 0.41533 0.25247
 N522 N 0.89599 0.43985 0.26707
 N523 N 0.90647 0.45044 0.29498
 C524 C 0.93178 0.43673 0.30935
 N525 N 0.94634 0.41229 0.29468
 N526 N 0.93599 0.40184 0.26674
 C527 C 0.94294 0.44740 0.34058
 N528 N 0.96480 0.43025 0.35666
 N529 N 0.97480 0.43934 0.38521
 C530 C 0.96346 0.46602 0.39870
 N531 N 0.94167 0.48332 0.38258
 N532 N 0.93149 0.47410 0.35405
   
