data_POSCAR
  _audit_creation_date              2014-09-24
  _audit_creation_method            'ToBaCCo'
  _symmetry_space_group_name_H-M    'P1'
  _symmetry_Int_Tables_number       1
  _symmetry_cell_setting            triclinic
  loop_
  _symmetry_equiv_pos_as_xyz
 x,y,z
_cell_length_a 24.4151
_cell_length_b 25.0303
_cell_length_c 23.4885
_cell_angle_alpha 90.433400
_cell_angle_beta 90.019700
_cell_angle_gamma 89.624200
loop_
  _atom_site_label
  _atom_site_type_symbol
  _atom_site_fract_x
  _atom_site_fract_y
  _atom_site_fract_z
C1 C 0.32389 0.32755 0.22279
 H2 H 0.32156 0.33335 0.26841
 C3 C 0.35920 0.35872 0.19058
 H4 H 0.38370 0.38907 0.21137
 C5 C 0.29495 0.28069 0.14006
 H6 H 0.27115 0.24920 0.12074
 C7 C 0.32886 0.31183 0.10603
 H8 H 0.33017 0.30487 0.06049
 N9 N 0.29248 0.28964 0.19723
 C10 C 0.16486 0.32619 0.27026
 H11 H 0.15322 0.31993 0.22648
 C12 C 0.13503 0.36235 0.30369
 H13 H 0.09996 0.38252 0.28530
 C14 C 0.22390 0.30707 0.34755
 H15 H 0.25933 0.28638 0.36420
 C16 C 0.19533 0.34305 0.38246
 H17 H 0.20898 0.34925 0.42586
 Zn18 Zn 0.24732 0.24955 0.24600
 N19 N 0.20780 0.29863 0.29275
 C20 C 0.27229 0.17986 0.33746
 N21 N 0.29335 0.20598 0.29192
 C22 C 0.34746 0.20201 0.27862
 C23 C 0.38274 0.17117 0.31179
 C24 C 0.30615 0.14840 0.37175
 C25 C 0.16935 0.22819 0.15908
 C26 C 0.13380 0.19709 0.12629
 C27 C 0.15537 0.12164 0.18583
 C28 C 0.19142 0.15385 0.21672
 N29 N 0.19771 0.20625 0.20318
 H30 H 0.22911 0.18357 0.34717
 H31 H 0.36351 0.22264 0.24209
 H32 H 0.42577 0.16926 0.30080
 H33 H 0.28846 0.12733 0.40731
 H34 H 0.17533 0.26961 0.14824
 H35 H 0.11214 0.21496 0.09090
 H36 H 0.15108 0.07995 0.19694
 H37 H 0.21439 0.13669 0.25136
 C38 C 0.14983 0.37087 0.36079
 C39 C 0.36142 0.35128 0.13147
 C40 C 0.12644 0.14318 0.13975
 C41 C 0.36223 0.14374 0.35904
 C42 C 0.84080 0.80967 0.22554
 H43 H 0.84862 0.80548 0.27064
 C44 C 0.87564 0.84076 0.19227
 H45 H 0.90917 0.86095 0.21326
 C46 C 0.78603 0.78964 0.14529
 H47 H 0.75208 0.76871 0.12643
 C48 C 0.81882 0.82133 0.11074
 H49 H 0.80923 0.82294 0.06582
 N50 N 0.79641 0.78560 0.20196
 C51 C 0.66059 0.77345 0.32091
 H52 H 0.65061 0.73173 0.31508
 C53 C 0.62687 0.80624 0.35433
 H54 H 0.59105 0.78948 0.37447
 C55 C 0.71968 0.84596 0.30192
 H56 H 0.75560 0.86137 0.28105
 C57 C 0.68750 0.87999 0.33564
 H58 H 0.69884 0.92155 0.34028
 Zn59 Zn 0.74877 0.74647 0.25035
 N60 N 0.70598 0.79366 0.29556
 C61 C 0.78413 0.70287 0.35526
 N62 N 0.79167 0.70200 0.29789
 C63 C 0.82957 0.66918 0.27328
 C64 C 0.86132 0.63493 0.30666
 C65 C 0.81492 0.66924 0.39023
 C66 C 0.66324 0.72821 0.17185
 C67 C 0.62746 0.69773 0.13869
 C68 C 0.66411 0.61808 0.18249
 C69 C 0.70010 0.64992 0.21370
 N70 N 0.69978 0.70390 0.20715
 H71 H 0.75396 0.72936 0.37405
 H72 H 0.83495 0.66955 0.22756
 H73 H 0.89175 0.60960 0.28631
 H74 H 0.80765 0.66998 0.43569
 H75 H 0.66241 0.77133 0.16895
 H76 H 0.59946 0.71728 0.10964
 H77 H 0.66512 0.57510 0.18753
 H78 H 0.72810 0.63135 0.24324
 C79 C 0.64037 0.86018 0.36218
 C80 C 0.86429 0.84835 0.13391
 C81 C 0.62798 0.64204 0.14392
 C82 C 0.85417 0.63462 0.36602
 C83 C 0.83805 0.32394 0.72791
 H84 H 0.84413 0.32144 0.77344
 C85 C 0.87032 0.35837 0.69577
 H86 H 0.90141 0.38202 0.71682
 C87 C 0.79124 0.29505 0.64503
 H88 H 0.76082 0.27010 0.62509
 C89 C 0.82279 0.32865 0.61125
 H90 H 0.81550 0.32966 0.56580
 N91 N 0.79838 0.29417 0.70249
 C92 C 0.66148 0.27379 0.81832
 H93 H 0.65190 0.23243 0.80939
 C94 C 0.62650 0.30443 0.85268
 H95 H 0.59020 0.28639 0.87049
 C96 C 0.72030 0.34772 0.80591
 H97 H 0.75625 0.36497 0.78712
 C98 C 0.68691 0.37953 0.84060
 H99 H 0.69766 0.42091 0.84804
 Zn100 Zn 0.75259 0.25147 0.74928
 N101 N 0.70756 0.29564 0.79599
 C102 C 0.77972 0.19236 0.84790
 N103 N 0.79717 0.20703 0.79552
 C104 C 0.84597 0.18949 0.77481
 C105 C 0.87956 0.15604 0.80722
 C106 C 0.81170 0.15875 0.88177
 C107 C 0.66843 0.23282 0.66954
 C108 C 0.63318 0.20226 0.63581
 C109 C 0.67295 0.12242 0.67628
 C110 C 0.70838 0.15442 0.70816
 N111 N 0.70575 0.20857 0.70400
 H112 H 0.74034 0.20600 0.86331
 H113 H 0.85910 0.20179 0.73296
 H114 H 0.91885 0.14597 0.78895
 H115 H 0.79372 0.14663 0.92155
 H116 H 0.66640 0.27597 0.66800
 H117 H 0.60414 0.22187 0.60791
 H118 H 0.67537 0.07935 0.67980
 H119 H 0.73774 0.13597 0.73642
 C120 C 0.63941 0.35790 0.86446
 C121 C 0.86249 0.36139 0.63666
 C122 C 0.63526 0.14646 0.63929
 C123 C 0.86322 0.13930 0.86230
 C124 C 0.33921 0.82645 0.72620
 H125 H 0.34475 0.82594 0.77188
 C126 C 0.37335 0.85777 0.69271
 H127 H 0.40426 0.88223 0.71300
 C128 C 0.29263 0.79479 0.64425
 H129 H 0.26171 0.76966 0.62533
 C130 C 0.32552 0.82596 0.60919
 H131 H 0.31942 0.82461 0.56354
 N132 N 0.29949 0.79600 0.70175
 C133 C 0.16121 0.77435 0.81569
 H134 H 0.15152 0.73331 0.80533
 C135 C 0.12552 0.80442 0.84994
 H136 H 0.08865 0.78616 0.86616
 C137 C 0.22100 0.84802 0.80736
 H138 H 0.25778 0.86533 0.79041
 C139 C 0.18688 0.87924 0.84196
 H140 H 0.19785 0.92029 0.85101
 Zn141 Zn 0.25500 0.75302 0.74939
 N142 N 0.20805 0.79637 0.79529
 C143 C 0.27754 0.68493 0.84118
 N144 N 0.30049 0.71107 0.79673
 C145 C 0.35462 0.70535 0.78429
 C146 C 0.38809 0.67281 0.81757
 C147 C 0.30942 0.65152 0.87528
 C148 C 0.16981 0.72744 0.67315
 C149 C 0.13712 0.69404 0.63976
 C150 C 0.19001 0.61831 0.67247
 C151 C 0.22198 0.65318 0.70485
 N152 N 0.21148 0.70664 0.70457
 H153 H 0.23422 0.68925 0.84957
 H154 H 0.37188 0.72517 0.74784
 H155 H 0.43119 0.66947 0.80728
 H156 H 0.29004 0.63006 0.90959
 H157 H 0.16211 0.77005 0.67407
 H158 H 0.10393 0.71118 0.61518
 H159 H 0.19929 0.57595 0.67273
 H160 H 0.25543 0.63745 0.72990
 C161 C 0.13850 0.85747 0.86379
 C162 C 0.36642 0.85805 0.63344
 C163 C 0.14707 0.63870 0.63923
 C164 C 0.36552 0.64501 0.86357
 C165 C -0.00515 -0.00348 0.00101
 C166 C 0.00304 0.50210 0.50235
 C167 C 0.50106 0.00395 0.49886
 C168 C 0.49769 0.49821 0.00170
 C169 C 0.12407 -0.07817 -0.05555
 C170 C 0.10200 -0.10966 -0.09939
 C171 C 0.04518 -0.10894 -0.10812
 C172 C 0.01147 -0.07540 -0.07537
 C173 C 0.03364 -0.04078 -0.03362
 C174 C 0.09040 -0.04511 -0.02239
 H175 H 0.16756 -0.07958 -0.04649
 H176 H 0.02693 -0.13335 -0.14124
 H177 H -0.03216 -0.07535 -0.08365
 H178 H 0.10946 -0.02351 0.01222
 C179 C 0.09389 0.45442 0.37633
 C180 C 0.11663 0.40696 0.39780
 C181 C 0.10600 0.39339 0.45457
 C182 C 0.07104 0.42485 0.48795
 C183 C 0.04358 0.46957 0.46494
 C184 C 0.05872 0.48583 0.40975
 H185 H 0.10336 0.46735 0.33358
 H186 H 0.12338 0.35751 0.47286
 H187 H 0.06391 0.41304 0.53155
 H188 H 0.04318 0.52264 0.39193
 C189 C 0.54839 -0.10439 0.39167
 C190 C 0.60550 -0.10429 0.39777
 C191 C 0.62919 -0.07027 0.43838
 C192 C 0.59660 -0.03617 0.47158
 C193 C 0.53921 -0.03346 0.46352
 C194 C 0.51577 -0.06979 0.42425
 H195 H 0.52899 -0.13060 0.36093
 H196 H 0.67307 -0.07080 0.44522
 H197 H 0.61708 -0.01282 0.50389
 H198 H 0.47182 -0.07062 0.41812
 C199 C 0.54673 0.39219 -0.10713
 C200 C 0.60357 0.39141 -0.09894
 C201 C 0.62630 0.42343 -0.05595
 C202 C 0.59310 0.45691 -0.02280
 C203 C 0.53620 0.46103 -0.03327
 C204 C 0.51351 0.42618 -0.07450
 H205 H 0.52810 0.36742 -0.13971
 H206 H 0.66991 0.42206 -0.04751
 H207 H 0.61266 0.47886 0.01122
 H208 H 0.46980 0.42626 -0.08232
 C209 C -0.11361 0.09990 -0.04578
 C210 C -0.10478 0.10575 -0.10511
 C211 C -0.06102 0.07541 -0.12891
 C212 C -0.02926 0.04076 -0.09594
 C213 C -0.04036 0.03318 -0.03772
 C214 C -0.08188 0.06501 -0.01311
 H215 H -0.14316 0.12380 -0.02262
 H216 H -0.05139 0.07591 -0.17371
 H217 H 0.00449 0.02055 -0.11682
 H218 H -0.08979 0.06282 0.03219
 C219 C -0.09148 0.61822 0.45497
 C220 C -0.11141 0.59956 0.40247
 C221 C -0.09767 0.54741 0.38489
 C222 C -0.06241 0.51583 0.41760
 C223 C -0.03785 0.53632 0.46753
 C224 C -0.05631 0.58666 0.48757
 H225 H -0.10205 0.65781 0.47043
 H226 H -0.11431 0.53093 0.34585
 H227 H -0.05325 0.47565 0.40299
 H228 H -0.04289 0.60238 0.52823
 C229 C 0.39321 0.10847 0.45361
 C230 C 0.39896 0.10983 0.39421
 C231 C 0.44025 0.07865 0.36858
 C232 C 0.47388 0.04556 0.40126
 C233 C 0.46612 0.04125 0.46066
 C234 C 0.42675 0.07532 0.48633
 H235 H 0.36295 0.13331 0.47491
 H236 H 0.44622 0.07920 0.32292
 H237 H 0.50596 0.02389 0.37925
 H238 H 0.42111 0.07513 0.53207
 C239 C 0.44135 0.57741 -0.12742
 C240 C 0.39994 0.60848 -0.10180
 C241 C 0.39173 0.60441 -0.04289
 C242 C 0.42322 0.56910 -0.01067
 C243 C 0.46336 0.53596 -0.03637
 C244 C 0.47322 0.54243 -0.09515
 H245 H 0.44899 0.57971 -0.17272
 H246 H 0.36131 0.62895 -0.02145
 H247 H 0.41595 0.56712 0.03475
 H248 H 0.50588 0.52130 -0.11683
 C249 C -0.04763 -0.10842 0.11212
 C250 C -0.10346 -0.11711 0.10003
 C251 C -0.12641 -0.08997 0.05320
 C252 C -0.09573 -0.05369 0.02175
 C253 C -0.04077 -0.04257 0.03590
 C254 C -0.01660 -0.07328 0.07945
 H255 H -0.02687 -0.13027 0.14542
 H256 H -0.16904 -0.09457 0.04178
 H257 H -0.11561 -0.03500 -0.01413
 H258 H 0.02654 -0.06906 0.08908
 C259 C -0.09265 0.45002 0.62049
 C260 C -0.10388 0.39785 0.60166
 C261 C -0.08317 0.38088 0.54882
 C262 C -0.04992 0.41437 0.51677
 C263 C -0.03453 0.46525 0.53751
 C264 C -0.05960 0.48369 0.58817
 H265 H -0.10996 0.46500 0.65999
 H266 H -0.09197 0.34127 0.53252
 H267 H -0.03589 0.39990 0.47575
 H268 H -0.05283 0.52402 0.60341
 C269 C 0.37662 -0.07661 0.55427
 C270 C 0.40067 -0.10719 0.59740
 C271 C 0.45736 -0.10378 0.60621
 C272 C 0.48901 -0.06908 0.57372
 C273 C 0.46460 -0.03479 0.53332
 C274 C 0.40806 -0.04150 0.52225
 H275 H 0.33310 -0.07922 0.54581
 H276 H 0.47727 -0.12822 0.63806
 H277 H 0.53276 -0.06779 0.58118
 H278 H 0.38739 -0.02042 0.48847
 C279 C 0.45214 0.39132 0.10878
 C280 C 0.39631 0.38589 0.09651
 C281 C 0.37349 0.41468 0.05143
 C282 C 0.40529 0.45056 0.02085
 C283 C 0.46088 0.45922 0.03511
 C284 C 0.48434 0.42629 0.07732
 H285 H 0.47083 0.36828 0.14256
 H286 H 0.33065 0.41008 0.04052
 H287 H 0.38588 0.47074 -0.01436
 H288 H 0.52760 0.42895 0.08706
 C289 C 0.05014 0.07752 0.13072
 C290 C 0.09024 0.10891 0.10487
 C291 C 0.09631 0.10663 0.04562
 C292 C 0.06495 0.07126 0.01315
 C293 C 0.02705 0.03651 0.03900
 C294 C 0.01790 0.04292 0.09813
 H295 H 0.04342 0.08019 0.17625
 H296 H 0.12650 0.13110 0.02459
 H297 H 0.07146 0.06971 -0.03244
 H298 H -0.01413 0.02172 0.11991
 C299 C 0.09369 0.55412 0.62618
 C300 C 0.11271 0.60258 0.60420
 C301 C 0.09894 0.61630 0.54824
 C302 C 0.06499 0.58340 0.51579
 C303 C 0.04143 0.53709 0.53921
 C304 C 0.05925 0.52138 0.59383
 H305 H 0.10478 0.54188 0.66880
 H306 H 0.11487 0.65235 0.52937
 H307 H 0.05613 0.59486 0.47239
 H308 H 0.04664 0.48382 0.61191
 C309 C 0.60198 0.11412 0.54486
 C310 C 0.59860 0.11311 0.60429
 C311 C 0.56079 0.07936 0.63028
 C312 C 0.52779 0.04575 0.59738
 C313 C 0.53403 0.04279 0.53753
 C314 C 0.57005 0.07958 0.51193
 H315 H 0.63046 0.14059 0.52401
 H316 H 0.55647 0.07941 0.67618
 H317 H 0.49756 0.02265 0.61964
 H318 H 0.57453 0.08040 0.46608
 C319 C 0.55296 0.57573 0.13367
 C320 C 0.59205 0.60858 0.10842
 C321 C 0.59804 0.60802 0.04922
 C322 C 0.56732 0.57287 0.01589
 C323 C 0.53000 0.53698 0.04089
 C324 C 0.52117 0.54149 0.10027
 H325 H 0.54677 0.57695 0.17934
 H326 H 0.62764 0.63371 0.02895
 H327 H 0.57362 0.57263 -0.02975
 H328 H 0.48970 0.51920 0.12166
   
