data_POSCAR
  _audit_creation_date              2014-09-24
  _audit_creation_method            'ToBaCCo'
  _symmetry_space_group_name_H-M    'P1'
  _symmetry_Int_Tables_number       1
  _symmetry_cell_setting            triclinic
  loop_
  _symmetry_equiv_pos_as_xyz
 x,y,z
_cell_length_a 38.2180
_cell_length_b 40.2014
_cell_length_c 41.4773
_cell_angle_alpha 90.396700
_cell_angle_beta 89.674400
_cell_angle_gamma 90.050200
loop_
  _atom_site_label
  _atom_site_type_symbol
  _atom_site_fract_x
  _atom_site_fract_y
  _atom_site_fract_z
O1 O 0.33645 0.39199 0.04122
 O2 O 0.38775 0.34770 -0.02072
 O3 O 0.34225 0.39657 -0.02169
 O4 O 0.38104 0.34308 0.04042
 O5 O 0.33734 0.30746 0.03461
 O6 O 0.29848 0.36113 -0.02688
 O7 O 0.34389 0.31258 -0.02797
 O8 O 0.29282 0.35655 0.03460
 Cu9 Cu 0.36611 0.37366 0.01036
 Cu10 Cu 0.31386 0.33072 0.00292
 C11 C 0.30590 0.38193 0.04836
 C12 C 0.37474 0.32233 -0.03448
 C13 C 0.31339 0.38818 -0.03459
 C14 C 0.36589 0.31606 0.04774
 O15 O 0.60579 0.64561 -0.03767
 O16 O 0.65060 0.59614 0.02287
 O17 O 0.60587 0.64477 0.02522
 O18 O 0.65494 0.60174 -0.04003
 O19 O 0.69664 0.63943 -0.03564
 O20 O 0.64739 0.68290 0.02796
 O21 O 0.69237 0.63390 0.02678
 O22 O 0.64673 0.68430 -0.03453
 Cu23 Cu 0.62525 0.61824 -0.00764
 Cu24 Cu 0.67499 0.66386 -0.00358
 C25 C 0.61838 0.67325 -0.04651
 C26 C 0.67885 0.60637 0.03535
 C27 C 0.61829 0.67137 0.03751
 C28 C 0.68437 0.61346 -0.04898
 O29 O 0.62312 0.32512 1.03132
 O30 O 0.66098 0.38210 0.97158
 O31 O 0.61634 0.33247 0.96882
 O32 O 0.66847 0.37348 1.03326
 O33 O 0.71263 0.34015 1.02159
 O34 O 0.65853 0.29554 0.96230
 O35 O 0.70193 0.34504 0.95998
 O36 O 0.66731 0.29053 1.02388
 Cu37 Cu 0.63784 0.35679 1.00213
 Cu38 Cu 0.68947 0.31429 0.99123
 C39 C 0.63875 0.29820 1.03793
 C40 C 0.68766 0.37311 0.95543
 C41 C 0.62847 0.30650 0.95503
 C42 C 0.69995 0.36437 1.03769
 O43 O 0.36187 0.59370 0.96762
 O44 O 0.41218 0.63826 1.02961
 O45 O 0.36426 0.59317 1.03073
 O46 O 0.40925 0.64032 0.96692
 O47 O 0.36782 0.67854 0.96906
 O48 O 0.32341 0.63186 1.03361
 O49 O 0.37162 0.67742 1.03106
 O50 O 0.32022 0.63164 0.97120
 Cu51 Cu 0.39096 0.61239 0.99830
 Cu52 Cu 0.34156 0.65869 1.00139
 C53 C 0.33231 0.60492 0.95914
 C54 C 0.40043 0.66555 1.04072
 C55 C 0.33639 0.60469 1.04344
 C56 C 0.39639 0.66765 0.95734
 O57 O -0.03495 0.40347 0.36170
 O58 O 0.03377 0.36072 0.40721
 O59 O 0.03316 0.40821 0.36463
 O60 O -0.03446 0.35349 0.40075
 O61 O -0.02605 0.31746 0.36111
 O62 O 0.03928 0.37213 0.32461
 O63 O 0.04089 0.32455 0.36742
 O64 O -0.02823 0.36759 0.32160
 Cu65 Cu -0.00121 0.38498 0.38767
 Cu66 Cu 0.00722 0.34188 0.33973
 C67 C -0.04337 0.39288 0.33392
 C68 C 0.04908 0.33546 0.39522
 C69 C 0.04738 0.39944 0.33809
 C70 C -0.04176 0.32600 0.38688
 O71 O 0.02967 0.65706 0.61198
 O72 O -0.03926 0.60835 0.65371
 O73 O -0.03788 0.64960 0.60575
 O74 O 0.02914 0.60858 0.65349
 O75 O 0.02265 0.64626 0.69195
 O76 O -0.04224 0.69032 0.64150
 O77 O -0.04747 0.65045 0.68751
 O78 O 0.02282 0.69683 0.64847
 Cu79 Cu -0.00393 0.62695 0.62768
 Cu80 Cu -0.01027 0.67409 0.67170
 C81 C 0.03733 0.68577 0.62303
 C82 C -0.05571 0.62182 0.67719
 C83 C -0.05151 0.67683 0.61499
 C84 C 0.03696 0.61981 0.68108
 O85 O 0.95451 0.63354 0.41171
 O86 O 1.03033 0.59510 0.37040
 O87 O 1.02502 0.63571 0.41567
 O88 O 0.96594 0.58755 0.36373
 O89 O 0.96008 0.63069 0.33150
 O90 O 1.02479 0.67675 0.38060
 O91 O 1.02776 0.63430 0.33337
 O92 O 0.95681 0.67587 0.37826
 Cu93 Cu 0.99228 0.60965 0.39457
 Cu94 Cu 0.99188 0.65860 0.35248
 C95 C 0.94367 0.66188 0.40279
 C96 C 1.04162 0.60809 0.34449
 C97 C 1.03639 0.66379 0.40632
 C98 C 0.95384 0.60046 0.33827
 O99 O 1.03011 0.40526 0.64552
 O100 O 0.97211 0.35356 0.59607
 O101 O 0.96274 0.39352 0.64553
 O102 O 1.03905 0.36248 0.59875
 O103 O 1.04214 0.32007 0.63212
 O104 O 0.96975 0.35276 0.68031
 O105 O 0.97511 0.31302 0.63176
 O106 O 1.03606 0.36375 0.67968
 Cu107 Cu 1.00042 0.38298 0.61808
 Cu108 Cu 1.00669 0.33326 0.65942
 C109 C 1.04287 0.39336 0.67110
 C110 C 0.96376 0.32468 0.60547
 C111 C 0.95354 0.37843 0.67113
 C112 C 1.05274 0.33503 0.60707
 O113 O 0.39345 0.02778 0.34377
 O114 O 0.34263 -0.03564 0.38806
 O115 O 0.39408 -0.03686 0.34653
 O116 O 0.34337 0.02947 0.38646
 O117 O 0.30426 0.02748 0.34746
 O118 O 0.35537 -0.03837 0.30722
 O119 O 0.30361 -0.03639 0.34895
 O120 O 0.35462 0.02605 0.30457
 Cu121 Cu 0.37223 -0.00368 0.37020
 Cu122 Cu 0.32566 -0.00553 0.32304
 C123 C 0.38272 0.03754 0.31646
 C124 C 0.31416 -0.04638 0.37617
 C125 C 0.38356 -0.04863 0.31982
 C126 C 0.31507 0.03952 0.37397
 O127 O 0.61092 0.04765 0.66511
 O128 O 0.65287 -0.02273 0.62091
 O129 O 0.60355 -0.01632 0.66582
 O130 O 0.65561 0.04187 0.61780
 O131 O 0.69531 0.04392 0.65636
 O132 O 0.64693 -0.02110 0.70049
 O133 O 0.69618 -0.02086 0.65586
 O134 O 0.65077 0.04283 0.70317
 Cu135 Cu 0.62655 0.01247 0.63866
 Cu136 Cu 0.67663 0.01071 0.68247
 C137 C 0.62350 0.05656 0.69222
 C138 C 0.68266 -0.03273 0.63042
 C139 C 0.61613 -0.02832 0.69142
 C140 C 0.68361 0.05366 0.62940
 O141 O 0.41610 0.96476 0.64177
 O142 O 0.37549 1.03164 0.59481
 O143 O 0.41724 1.02897 0.64491
 O144 O 0.37245 0.96631 0.59433
 O145 O 0.32817 0.96604 0.62872
 O146 O 0.37061 1.03212 0.67652
 O147 O 0.32927 1.03093 0.62694
 O148 O 0.37241 0.96723 0.67677
 Cu149 Cu 0.39969 0.99803 0.61544
 Cu150 Cu 0.34556 0.99910 0.65553
 C151 C 0.40154 0.95500 0.66760
 C152 C 0.34538 1.04251 0.60259
 C153 C 0.40145 1.04121 0.66930
 C154 C 0.34290 0.95500 0.60331
 O155 O 0.63792 1.03723 0.38942
 O156 O 0.60343 0.97073 0.33676
 O157 O 0.63687 0.97210 0.39138
 O158 O 0.60320 1.03459 0.33529
 O159 O 0.65323 1.03353 0.30823
 O160 O 0.68723 0.97167 0.36500
 O161 O 0.65407 0.96854 0.31076
 O162 O 0.68754 1.03607 0.36197
 Cu163 Cu 0.61537 1.00383 0.36608
 Cu164 Cu 0.67556 1.00236 0.33379
 C165 C 0.66874 1.04812 0.38451
 C166 C 0.62295 0.95839 0.31489
 C167 C 0.66778 0.96114 0.38767
 C168 C 0.62230 1.04436 0.31212
 C169 C 0.81578 0.78527 0.49128
 C170 C 0.81278 0.78628 0.52542
 C171 C 0.78701 0.80684 0.53953
 C172 C 0.76660 0.82848 0.52106
 C173 C 0.77152 0.82917 0.48725
 C174 C 0.79469 0.80634 0.47287
 H175 H 0.79783 0.80624 0.44686
 H176 H 0.78379 0.80722 0.56552
 C177 C 0.18385 0.21937 0.48224
 C178 C 0.18351 0.21937 0.51651
 C179 C 0.20694 0.19857 0.53290
 C180 C 0.22922 0.17640 0.51654
 C181 C 0.23081 0.17773 0.48247
 C182 C 0.20831 0.19917 0.46592
 H183 H 0.20895 0.19915 0.43977
 H184 H 0.20667 0.19845 0.55904
 C185 C 0.17960 0.77596 0.51867
 C186 C 0.17824 0.77769 0.48453
 C187 C 0.20201 0.79882 0.46863
 C188 C 0.22478 0.81987 0.48568
 C189 C 0.22342 0.82060 0.51988
 C190 C 0.20164 0.79764 0.53575
 H191 H 0.20128 0.79700 0.56188
 H192 H 0.20258 0.79936 0.44251
 C193 C 0.81939 0.22211 0.51679
 C194 C 0.81915 0.22619 0.48288
 C195 C 0.79961 0.20404 0.46391
 C196 C 0.78050 0.17776 0.47762
 C197 C 0.78038 0.17399 0.51159
 C198 C 0.79940 0.19661 0.53054
 H199 H 0.80052 0.19288 0.55637
 H200 H 0.79957 0.20713 0.43795
 C201 C 0.48386 0.83961 0.79876
 C202 C 0.52106 0.83922 0.79862
 C203 C 0.53847 0.81924 0.82109
 C204 C 0.52029 0.79897 0.84273
 C205 C 0.48326 0.79842 0.84226
 C206 C 0.46566 0.81894 0.82040
 H207 H 0.43731 0.81847 0.81991
 H208 H 0.56679 0.81983 0.82229
 C209 C 0.47659 0.15249 0.19068
 C210 C 0.51366 0.15100 0.19213
 C211 C 0.53370 0.17385 0.17439
 C212 C 0.51786 0.19711 0.15413
 C213 C 0.48097 0.19667 0.15055
 C214 C 0.46088 0.17516 0.16964
 H215 H 0.43261 0.17595 0.16787
 H216 H 0.56199 0.17342 0.17624
 C217 C 0.50752 0.19136 0.77728
 C218 C 0.47057 0.18781 0.77805
 C219 C 0.45140 0.20687 0.80055
 C220 C 0.46769 0.22893 0.82236
 C221 C 0.50480 0.23144 0.82209
 C222 C 0.52398 0.21253 0.79956
 H223 H 0.55231 0.21428 0.79935
 H224 H 0.42344 0.20304 0.80248
 C225 C 0.52080 0.83988 0.19859
 C226 C 0.48395 0.83574 0.19822
 C227 C 0.46933 0.81182 0.17774
 C228 C 0.49009 0.79234 0.15722
 C229 C 0.52705 0.79523 0.15829
 C230 C 0.54188 0.81884 0.17943
 H231 H 0.57006 0.82175 0.18014
 H232 H 0.44114 0.80876 0.17710
 C233 C 0.76500 0.47156 0.80912
 C234 C 0.76614 0.50676 0.81283
 C235 C 0.79001 0.52519 0.79409
 C236 C 0.81205 0.50954 0.77153
 C237 C 0.80803 0.47512 0.76537
 C238 C 0.78518 0.45652 0.78460
 H239 H 0.78466 0.42976 0.78141
 H240 H 0.79253 0.55177 0.79803
 C241 C 0.22319 0.49481 0.18256
 C242 C 0.22067 0.52994 0.18030
 C243 C 0.19821 0.54674 0.20195
 C244 C 0.17628 0.52949 0.22345
 C245 C 0.17761 0.49426 0.22419
 C246 C 0.20189 0.47767 0.20440
 H247 H 0.20317 0.45071 0.20495
 H248 H 0.19697 0.57365 0.20165
 C249 C 0.79288 0.51378 0.16350
 C250 C 0.79020 0.47863 0.16484
 C251 C 0.81072 0.46138 0.18711
 C252 C 0.83214 0.47808 0.20953
 C253 C 0.83178 0.51347 0.21069
 C254 C 0.81293 0.53048 0.18684
 H255 H 0.81425 0.55737 0.18598
 H256 H 0.80993 0.43440 0.18705
 C257 C 0.19307 0.51934 0.84923
 C258 C 0.19261 0.48409 0.84761
 C259 C 0.17123 0.46867 0.82453
 C260 C 0.14895 0.48694 0.80456
 C261 C 0.14890 0.52209 0.80679
 C262 C 0.17123 0.53772 0.82892
 H263 H 0.17151 0.56467 0.83046
 H264 H 0.17149 0.44179 0.82233
 C265 C 0.28308 0.43636 0.11778
 C266 C 0.24643 0.43743 0.11565
 N267 N 0.22994 0.41945 0.09248
 C268 C 0.24845 0.40065 0.07105
 C269 C 0.28519 0.40036 0.07244
 N270 N 0.30165 0.41824 0.09589
 N271 N 0.29944 0.45338 0.14175
 C272 C 0.28080 0.47190 0.16337
 C273 C 0.24433 0.47445 0.16014
 N274 N 0.22795 0.45657 0.13670
 H275 H 0.23467 0.38677 0.05262
 H276 H 0.29429 0.48518 0.18239
 C277 C 0.74561 0.57296 0.09127
 C278 C 0.72682 0.54748 0.10653
 N279 N 0.69311 0.54162 0.09826
 C280 C 0.67723 0.56013 0.07534
 C281 C 0.69577 0.58598 0.06014
 N282 N 0.72966 0.59180 0.06858
 N283 N 0.77954 0.57830 0.09932
 C284 C 0.79544 0.55937 0.12202
 C285 C 0.77656 0.53394 0.13764
 N286 N 0.74259 0.52894 0.12939
 H287 H 0.65027 0.55487 0.06928
 H288 H 0.82260 0.56405 0.12777
 C289 C 0.71696 0.40743 0.87728
 C290 C 0.73212 0.43765 0.88700
 N291 N 0.73161 0.44652 0.91864
 C292 C 0.71677 0.42636 0.94108
 C293 C 0.70254 0.39568 0.93152
 N294 N 0.70294 0.38688 0.89978
 N295 N 0.71640 0.39920 0.84551
 C296 C 0.73063 0.41967 0.82299
 C297 C 0.74678 0.44963 0.83266
 N298 N 0.74711 0.45765 0.86464
 H299 H 0.71669 0.43385 0.96621
 H300 H 0.72934 0.41257 0.79782
 C301 C 0.25541 0.57395 0.91457
 C302 C 0.27086 0.55233 0.89194
 N303 N 0.30610 0.54815 0.89168
 C304 C 0.32665 0.56464 0.91315
 C305 C 0.31127 0.58666 0.93553
 N306 N 0.27594 0.59083 0.93558
 N307 N 0.22009 0.57735 0.91548
 C308 C 0.19945 0.55983 0.89488
 C309 C 0.21484 0.53800 0.87234
 N310 N 0.25030 0.53534 0.87102
 H311 H 0.35469 0.56085 0.91253
 H312 H 0.17132 0.56279 0.89611
 C313 C 0.10844 0.26956 0.42539
 C314 C 0.12687 0.28662 0.44955
 N315 N 0.11968 0.31915 0.45549
 C316 C 0.09478 0.33541 0.43840
 C317 C 0.07648 0.31854 0.41389
 N318 N 0.08394 0.28591 0.40793
 N319 N 0.11490 0.23676 0.42019
 C320 C 0.13882 0.22020 0.43819
 C321 C 0.15737 0.23715 0.46255
 N322 N 0.15115 0.27019 0.46715
 H323 H 0.08953 0.36133 0.44374
 H324 H 0.14312 0.19395 0.43373
 C325 C 0.11212 0.71318 0.57199
 C326 C 0.10751 0.74787 0.57227
 N327 N 0.08094 0.76144 0.58968
 C328 C 0.05853 0.74193 0.60668
 C329 C 0.06237 0.70714 0.60575
 N330 N 0.08920 0.69355 0.58836
 N331 N 0.13958 0.69979 0.55554
 C332 C 0.16224 0.71948 0.53888
 C333 C 0.15647 0.75399 0.53766
 N334 N 0.12957 0.76741 0.55498
 H335 H 0.03743 0.75344 0.62021
 H336 H 0.18397 0.70830 0.52595
 C337 C 0.89150 0.73108 0.43755
 C338 C 0.86725 0.71429 0.45708
 N339 N 0.86836 0.68055 0.45865
 C340 C 0.89264 0.66285 0.44154
 C341 C 0.91653 0.67962 0.42149
 N342 N 0.91524 0.71342 0.42006
 N343 N 0.89117 0.76479 0.43658
 C344 C 0.86763 0.78258 0.45428
 C345 C 0.84304 0.76598 0.47373
 N346 N 0.84320 0.73205 0.47430
 H347 H 0.89307 0.63601 0.44333
 H348 H 0.86787 0.80947 0.45302
 C349 C 0.88657 0.27782 0.57754
 C350 C 0.89802 0.26651 0.54717
 N351 N 0.93053 0.27457 0.53647
 C352 C 0.95218 0.29353 0.55485
 C353 C 0.94098 0.30433 0.58542
 N354 N 0.90844 0.29618 0.59617
 N355 N 0.85354 0.27088 0.58759
 C356 C 0.83133 0.25318 0.56857
 C357 C 0.84276 0.24163 0.53817
 N358 N 0.87612 0.24832 0.52852
 H359 H 0.97799 0.29984 0.54587
 H360 H 0.80493 0.24852 0.57696
 C361 C 0.41322 0.08935 0.24821
 C362 C 0.44235 0.10558 0.26143
 N363 N 0.45124 0.09978 0.29254
 C364 C 0.43238 0.07832 0.31102
 C365 C 0.40320 0.06190 0.29781
 N366 N 0.39433 0.06803 0.26664
 N367 N 0.40475 0.09454 0.21693
 C368 C 0.42425 0.11509 0.19812
 C369 C 0.45373 0.13123 0.21111
 N370 N 0.46179 0.12620 0.24270
 H371 H 0.44020 0.07404 0.33568
 H372 H 0.41728 0.11814 0.17306
 C373 C 0.56627 0.12734 0.71656
 C374 C 0.57241 0.12887 0.74990
 N375 N 0.59570 0.10780 0.76335
 C376 C 0.61296 0.08493 0.74508
 C377 C 0.60618 0.08249 0.71182
 N378 N 0.58300 0.10397 0.69828
 N379 N 0.54321 0.14885 0.70319
 C380 C 0.52536 0.17121 0.72181
 C381 C 0.53001 0.17135 0.75546
 N382 N 0.55402 0.15055 0.76852
 H383 H 0.63119 0.06827 0.75661
 H384 H 0.50659 0.18767 0.71076
 C385 C 0.42615 0.90390 0.73816
 C386 C 0.45399 0.88494 0.72566
 N387 N 0.46366 0.88863 0.69436
 C388 C 0.44692 0.91061 0.67502
 C389 C 0.41905 0.92975 0.68745
 N390 N 0.40926 0.92571 0.71881
 N391 N 0.41714 0.90094 0.76968
 C392 C 0.43489 0.88011 0.78941
 C393 C 0.46311 0.86129 0.77715
 N394 N 0.47160 0.86393 0.74530
 H395 H 0.45541 0.91320 0.65022
 H396 H 0.42755 0.87880 0.81461
 C397 C 0.56708 0.91601 0.25508
 C398 C 0.58111 0.88373 0.25474
 N399 N 0.60929 0.87679 0.27335
 C400 C 0.62382 0.90063 0.29252
 C401 C 0.60895 0.93253 0.29368
 N402 N 0.58097 0.93950 0.27482
 N403 N 0.53989 0.92341 0.23555
 C404 C 0.52545 0.89974 0.21627
 C405 C 0.53785 0.86679 0.21740
 N406 N 0.56605 0.85980 0.23615
 H407 H 0.64620 0.89459 0.30723
 H408 H 0.50406 0.90645 0.20062
 C409 C 0.40346 0.28029 0.89027
 C410 C 0.43676 0.26879 0.89891
 N411 N 0.44917 0.27527 0.92889
 C412 C 0.42972 0.29277 0.95067
 C413 C 0.39609 0.30366 0.94230
 N414 N 0.38364 0.29705 0.91226
 N415 N 0.39184 0.27522 0.85981
 C416 C 0.41198 0.25914 0.83754
 C417 C 0.44524 0.24702 0.84617
 N418 N 0.45650 0.25202 0.87693
 H419 H 0.44015 0.29775 0.97443
 H420 H 0.40221 0.25622 0.81326
 C421 C 0.58205 0.74446 0.90820
 C422 C 0.56057 0.72807 0.88577
 N423 N 0.55898 0.69439 0.88547
 C424 C 0.57773 0.67626 0.90678
 C425 C 0.59941 0.69250 0.92922
 N426 N 0.60120 0.72635 0.92928
 N427 N 0.58281 0.77823 0.90895
 C428 C 0.56287 0.79631 0.88841
 C429 C 0.54114 0.77991 0.86613
 N430 N 0.54110 0.74611 0.86503
 H431 H 0.57575 0.64940 0.90618
 H432 H 0.56387 0.82321 0.88943
 C433 C 0.43477 0.73622 0.08791
 C434 C 0.45617 0.72024 0.11042
 N435 N 0.45959 0.68663 0.10934
 C436 C 0.44244 0.66826 0.08676
 C437 C 0.42035 0.68422 0.06476
 N438 N 0.41706 0.71786 0.06595
 N439 N 0.43221 0.76985 0.08823
 C440 C 0.45026 0.78832 0.11002
 C441 C 0.47162 0.77244 0.13267
 N442 N 0.47353 0.73865 0.13268
 H443 H 0.44546 0.64149 0.08637
 H444 H 0.44792 0.81516 0.10981
 C445 C 0.57817 0.26564 0.10026
 C446 C 0.58775 0.23198 0.10149
 N447 N 0.61520 0.22099 0.08342
 C448 C 0.63313 0.24201 0.06372
 C449 C 0.62271 0.27547 0.06150
 N450 N 0.59556 0.28645 0.08013
 N451 N 0.55095 0.27678 0.11846
 C452 C 0.53222 0.25558 0.13724
 C453 C 0.54042 0.22146 0.13713
 N454 N 0.56859 0.21063 0.11971
 H455 H 0.65451 0.23243 0.04919
 H456 H 0.51045 0.26505 0.15135
 C457 C 0.27855 0.10106 0.57164
 C458 C 0.29728 0.11808 0.54770
 N459 N 0.33126 0.11006 0.54192
 C460 C 0.34738 0.08578 0.55904
 C461 C 0.32877 0.06880 0.58328
 N462 N 0.29468 0.07700 0.58892
 N463 N 0.24447 0.10870 0.57709
 C464 C 0.22822 0.13265 0.55969
 C465 C 0.24686 0.15002 0.53568
 N466 N 0.28112 0.14220 0.53049
 H467 H 0.37450 0.07997 0.55391
 H468 H 0.20086 0.13784 0.56435
 C469 C 0.73134 0.10763 0.41632
 C470 C 0.71284 0.12169 0.44234
 N471 N 0.67957 0.11149 0.44847
 C472 C 0.66403 0.08772 0.42984
 C473 C 0.68275 0.07329 0.40390
 N474 N 0.71596 0.08393 0.39788
 N475 N 0.76465 0.11738 0.41021
 C476 C 0.78056 0.14043 0.42916
 C477 C 0.76244 0.15430 0.45562
 N478 N 0.72875 0.14471 0.46144
 H479 H 0.63755 0.08003 0.43546
 H480 H 0.80744 0.14723 0.42411
 C481 C 0.70526 0.89830 0.57348
 C482 C 0.74182 0.89722 0.57661
 N483 N 0.75799 0.91840 0.59724
 C484 C 0.73934 0.94077 0.61492
 C485 C 0.70274 0.94244 0.61162
 N486 N 0.68650 0.92109 0.59081
 N487 N 0.68918 0.87614 0.55357
 C488 C 0.70807 0.85328 0.53642
 C489 C 0.74478 0.85308 0.53863
 N490 N 0.76061 0.87482 0.55915
 H491 H 0.75308 0.95744 0.63109
 H492 H 0.69463 0.83543 0.52125
 C493 C 0.28823 0.88483 0.43064
 C494 C 0.25157 0.88710 0.42982
 N495 N 0.23622 0.91022 0.41090
 C496 C 0.25587 0.93141 0.39291
 C497 C 0.29258 0.92993 0.39441
 N498 N 0.30793 0.90658 0.41331
 N499 N 0.30348 0.86066 0.44842
 C500 C 0.28372 0.83905 0.46589
 C501 C 0.24712 0.84256 0.46664
 N502 N 0.23191 0.86611 0.44793
 H503 H 0.24296 0.94975 0.37815
 H504 H 0.29640 0.81968 0.47954
 C505 C 0.08535 0.42781 0.74384
 C506 C 0.10441 0.45463 0.73119
 N507 N 0.10305 0.46099 0.69913
 C508 C 0.08346 0.44167 0.67911
 C509 C 0.06490 0.41440 0.69167
 N510 N 0.06633 0.40819 0.72382
 N511 N 0.08601 0.42189 0.77596
 C512 C 0.10520 0.44140 0.79603
 C513 C 0.12501 0.46788 0.78343
 N514 N 0.12416 0.47371 0.75116
 H515 H 0.08266 0.44733 0.65365
 H516 H 0.10542 0.43602 0.82157
 C517 C 0.10018 0.58300 0.27722
 C518 C 0.12309 0.56100 0.29253
 N519 N 0.11938 0.55515 0.32455
 C520 C 0.09355 0.57016 0.34198
 C521 C 0.07058 0.59229 0.32674
 N522 N 0.07466 0.59831 0.29466
 N523 N 0.10314 0.58790 0.24498
 C524 C 0.12772 0.57140 0.22725
 C525 C 0.15035 0.54888 0.24243
 N526 N 0.14784 0.54485 0.27490
 H527 H 0.09101 0.56489 0.36744
 H528 H 0.12916 0.57530 0.20148
 C529 C 0.90233 0.42110 0.26548
 C530 C 0.88024 0.44457 0.28039
 N531 N 0.88310 0.45035 0.31254
 C532 C 0.90718 0.43389 0.33044
 C533 C 0.92940 0.41036 0.31556
 N534 N 0.92618 0.40447 0.28335
 N535 N 0.90027 0.41598 0.23320
 C536 C 0.87744 0.43356 0.21503
 C537 C 0.85561 0.45753 0.22969
 N538 N 0.85718 0.46202 0.26226
 H539 H 0.90900 0.43917 0.35600
 H540 H 0.87687 0.42942 0.18922
 C541 C 0.89545 0.56040 0.72578
 C542 C 0.86126 0.57326 0.72485
 N543 N 0.85500 0.60162 0.70826
 C544 C 0.88134 0.61762 0.69251
 C545 C 0.91530 0.60430 0.69280
 N546 N 0.92160 0.57602 0.70956
 N547 N 0.90206 0.53277 0.74324
 C548 C 0.87591 0.51692 0.75926
 C549 C 0.84130 0.52865 0.75704
 N550 N 0.83490 0.55701 0.74029
 H551 H 0.87586 0.64038 0.67969
 H552 H 0.88190 0.49488 0.77301
 C553 C 0.70630 0.55711 0.88460
 C554 C 0.74100 0.56634 0.87800
 N555 N 0.75596 0.59136 0.89514
 C556 C 0.73790 0.60751 0.91881
 C557 C 0.70334 0.59775 0.92631
 N558 N 0.68843 0.57267 0.90879
 N559 N 0.69096 0.53296 0.86652
 C560 C 0.70903 0.51711 0.84258
 C561 C 0.74451 0.52496 0.83711
 N562 N 0.75930 0.54996 0.85471
 H563 H 0.75074 0.62735 0.93199
 H564 H 0.69602 0.49820 0.82834
 C565 C 0.24657 0.42099 0.91244
 C566 C 0.26278 0.44962 0.90039
 N567 N 0.29571 0.45746 0.91001
 C568 C 0.31316 0.43792 0.93124
 C569 C 0.29711 0.40884 0.94309
 N570 N 0.26412 0.40122 0.93315
 N571 N 0.21326 0.41374 0.90380
 C572 C 0.19539 0.43380 0.88346
 C573 C 0.21162 0.46239 0.87073
 N574 N 0.24513 0.46934 0.87959
 H575 H 0.33929 0.44498 0.93859
 H576 H 0.16863 0.42756 0.87751
 C577 C 0.27222 0.58310 0.10517
 C578 C 0.28741 0.55479 0.11867
 N579 N 0.31828 0.54324 0.10684
 C580 C 0.33478 0.55880 0.08203
 C581 C 0.31990 0.58759 0.06856
 N582 N 0.28884 0.59897 0.08067
 N583 N 0.24079 0.59392 0.11641
 C584 C 0.22383 0.57767 0.14059
 C585 C 0.23909 0.54925 0.15453
 N586 N 0.27070 0.53887 0.14301
 H587 H 0.35940 0.54890 0.07323
 H588 H 0.19835 0.58649 0.14817
 C589 C 0.72612 0.42184 0.10182
 C590 C 0.76255 0.41753 0.10193
 N591 N 0.77732 0.39469 0.08183
 C592 C 0.75740 0.37623 0.06130
 C593 C 0.72092 0.38146 0.06001
 N594 N 0.70626 0.40422 0.08058
 N595 N 0.71115 0.44326 0.12324
 C596 C 0.73107 0.46118 0.14420
 C597 C 0.76777 0.45883 0.14275
 N598 N 0.78256 0.43624 0.12214
 H599 H 0.77016 0.35841 0.04550
 H600 H 0.71844 0.47750 0.16155
 C601 C 0.88619 0.73807 0.58593
 C602 C 0.87370 0.72238 0.55797
 N603 N 0.88618 0.69201 0.54941
 C604 C 0.91070 0.67655 0.56754
 C605 C 0.92323 0.69205 0.59585
 N606 N 0.91041 0.72254 0.60431
 N607 N 0.87440 0.76888 0.59388
 C608 C 0.85072 0.78474 0.57507
 C609 C 0.83794 0.76905 0.54696
 N610 N 0.84982 0.73806 0.53943
 H611 H 0.92010 0.65234 0.55991
 H612 H 0.84255 0.80964 0.58171
 C613 C 0.88774 0.29489 0.43816
 C614 C 0.88416 0.26227 0.42638
 N615 N 0.90419 0.25185 0.40124
 C616 C 0.92804 0.27243 0.38746
 C617 C 0.93287 0.30485 0.39993
 N618 N 0.91229 0.31529 0.42501
 N619 N 0.86670 0.30553 0.46263
 C620 C 0.84294 0.28467 0.47643
 C621 C 0.84107 0.25125 0.46613
 N622 N 0.86129 0.24123 0.44077
 H623 H 0.94364 0.26315 0.36748
 H624 H 0.82656 0.29370 0.49598
 C625 C 0.11049 0.27102 0.57563
 C626 C 0.12722 0.28736 0.55010
 N627 N 0.11921 0.31962 0.54395
 C628 C 0.09505 0.33623 0.56217
 C629 C 0.07870 0.32001 0.58824
 N630 N 0.08717 0.28777 0.59425
 N631 N 0.11698 0.23839 0.58087
 C632 C 0.13963 0.22125 0.56172
 C633 C 0.15716 0.23755 0.53636
 N634 N 0.15065 0.27045 0.53149
 H635 H 0.08891 0.36180 0.55646
 H636 H 0.14394 0.19509 0.56627
 C637 C 0.09942 0.72722 0.43070
 C638 C 0.11443 0.71254 0.45783
 N639 N 0.10302 0.68231 0.46774
 C640 C 0.07725 0.66595 0.45165
 C641 C 0.06225 0.68035 0.42406
 N642 N 0.07388 0.71081 0.41436
 N643 N 0.11042 0.75778 0.42131
 C644 C 0.13578 0.77434 0.43786
 C645 C 0.15118 0.75966 0.46514
 N646 N 0.13990 0.72894 0.47414
 H647 H 0.06890 0.64182 0.46021
 H648 H 0.14322 0.79901 0.43013
 C649 C 0.58470 0.89942 0.73821
 C650 C 0.55269 0.91141 0.75035
 N651 N 0.54177 0.94234 0.74230
 C652 C 0.56155 0.96191 0.72277
 C653 C 0.59406 0.95033 0.71144
 N654 N 0.60496 0.91929 0.71945
 N655 N 0.59480 0.86795 0.74505
 C656 C 0.57451 0.84797 0.76370
 C657 C 0.54280 0.86012 0.77676
 N658 N 0.53290 0.89180 0.76975
 H659 H 0.55238 0.98655 0.71669
 H660 H 0.58306 0.82278 0.76818
 C661 C 0.41671 0.89745 0.25382
 C662 C 0.44641 0.88307 0.26777
 N663 N 0.45447 0.89040 0.29886
 C664 C 0.43432 0.91172 0.31654
 C665 C 0.40473 0.92641 0.30249
 N666 N 0.39663 0.91866 0.27143
 N667 N 0.40903 0.89084 0.22257
 C668 C 0.42985 0.87063 0.20446
 C669 C 0.45988 0.85637 0.21816
 N670 N 0.46724 0.86281 0.24972
 H671 H 0.44158 0.91741 0.34116
 H672 H 0.42348 0.86643 0.17936
 C673 C 0.56529 0.08003 0.24988
 C674 C 0.57670 0.11322 0.24917
 N675 N 0.60400 0.12284 0.26791
 C676 C 0.62010 0.10079 0.28767
 C677 C 0.60780 0.06795 0.28922
 N678 N 0.58073 0.05830 0.27019
 N679 N 0.53881 0.07010 0.23042
 C680 C 0.52258 0.09209 0.21081
 C681 C 0.53237 0.12586 0.21151
 N682 N 0.55986 0.13540 0.23023
 H683 H 0.64155 0.10900 0.30269
 H684 H 0.50183 0.08340 0.19523
 C685 C 0.41784 0.11667 0.71895
 C686 C 0.45195 0.11088 0.72978
 N687 N 0.46919 0.08303 0.72004
 C688 C 0.45375 0.06058 0.69997
 C689 C 0.41921 0.06582 0.68979
 N690 N 0.40198 0.09380 0.69966
 N691 N 0.40142 0.14540 0.72737
 C692 C 0.41758 0.16866 0.74610
 C693 C 0.45172 0.16283 0.75752
 N694 N 0.46766 0.13364 0.74918
 H695 H 0.46797 0.03850 0.69259
 H696 H 0.40402 0.19165 0.75151
 C697 C 0.58956 0.73961 0.09224
 C698 C 0.56210 0.72455 0.10922
 N699 N 0.55355 0.69240 0.10278
 C700 C 0.57117 0.67459 0.07991
 C701 C 0.59882 0.68954 0.06283
 N702 N 0.60743 0.72177 0.06963
 N703 N 0.59722 0.77212 0.09798
 C704 C 0.57826 0.79039 0.11963
 C705 C 0.55021 0.77553 0.13635
 N706 N 0.54347 0.74270 0.13096
 H707 H 0.56371 0.64905 0.07519
 H708 H 0.58440 0.81645 0.12303
 C709 C 0.42883 0.25730 0.08289
 C710 C 0.41535 0.25329 0.11418
 N711 N 0.38539 0.26924 0.12289
 C712 C 0.36844 0.28924 0.10173
 C713 C 0.38249 0.29391 0.07077
 N714 N 0.41234 0.27774 0.06204
 N715 N 0.45804 0.24050 0.07376
 C716 C 0.47486 0.22032 0.09472
 C717 C 0.46253 0.21751 0.12665
 N718 N 0.43256 0.23368 0.13536
 H719 H 0.34466 0.30182 0.10913
 H720 H 0.49774 0.20676 0.08659
 C721 C 0.56265 0.28698 0.89136
 C722 C 0.57022 0.25345 0.88479
 N723 N 0.59637 0.23817 0.90090
 C724 C 0.61538 0.25483 0.92339
 C725 C 0.60773 0.28834 0.93054
 N726 N 0.58136 0.30366 0.91425
 N727 N 0.53698 0.30232 0.87444
 C728 C 0.51829 0.28551 0.85161
 C729 C 0.52497 0.25151 0.84589
 N730 N 0.55126 0.23660 0.86244
 H731 H 0.63606 0.24187 0.93584
 H732 H 0.49814 0.29836 0.83837
 C733 C 0.42390 0.73910 0.90691
 C734 C 0.45187 0.72544 0.88928
 N735 N 0.46085 0.69315 0.89368
 C736 C 0.44322 0.67385 0.91512
 C737 C 0.41514 0.68740 0.93291
 N738 N 0.40611 0.71980 0.92820
 N739 N 0.41548 0.77162 0.90294
 C740 C 0.43395 0.79117 0.88227
 C741 C 0.46229 0.77766 0.86476
 N742 N 0.47010 0.74490 0.86853
 H743 H 0.45113 0.64824 0.91827
 H744 H 0.42693 0.81711 0.87986
 C745 C 0.72988 0.90408 0.42718
 C746 C 0.70825 0.88748 0.44928
 N747 N 0.67381 0.89557 0.45131
 C748 C 0.66001 0.91947 0.43210
 C749 C 0.68159 0.93584 0.40963
 N750 N 0.71609 0.92765 0.40784
 N751 N 0.76435 0.89637 0.42536
 C752 C 0.77822 0.87264 0.44459
 C753 C 0.75663 0.85559 0.46662
 N754 N 0.72204 0.86353 0.46830
 H755 H 0.63245 0.92533 0.43412
 H756 H 0.80591 0.86724 0.44282
 C757 C 0.27534 0.89510 0.57525
 C758 C 0.29236 0.87944 0.54928
 N759 N 0.32542 0.88873 0.54124
 C760 C 0.34229 0.91304 0.55805
 C761 C 0.32539 0.92875 0.58426
 N762 N 0.29221 0.91924 0.59219
 N763 N 0.24210 0.88613 0.58292
 C764 C 0.22506 0.86222 0.56573
 C765 C 0.24196 0.84633 0.53955
 N766 N 0.27540 0.85545 0.53225
 H767 H 0.36865 0.91988 0.55110
 H768 H 0.19834 0.85611 0.57213
 C769 C 0.29171 0.11050 0.42719
 C770 C 0.25504 0.11024 0.42538
 N771 N 0.23883 0.08794 0.40581
 C772 C 0.25766 0.06556 0.38820
 C773 C 0.29430 0.06495 0.39085
 N774 N 0.31047 0.08758 0.41028
 N775 N 0.30793 0.13368 0.44580
 C776 C 0.28905 0.15618 0.46326
 C777 C 0.25233 0.15461 0.46305
 N778 N 0.23621 0.13210 0.44347
 H779 H 0.24409 0.04779 0.37302
 H780 H 0.30250 0.17475 0.47759
 C781 C 0.73215 0.09634 0.56449
 C782 C 0.73203 0.12927 0.57589
 N783 N 0.71758 0.13649 0.60507
 C784 C 0.70289 0.11221 0.62332
 C785 C 0.70207 0.07944 0.61154
 N786 N 0.71667 0.07220 0.58232
 N787 N 0.74823 0.08900 0.53607
 C788 C 0.76386 0.11320 0.51829
 C789 C 0.76239 0.14655 0.52888
 N790 N 0.74683 0.15346 0.55780
 H791 H 0.69113 0.11851 0.64637
 H792 H 0.77780 0.10627 0.49651
 C793 C 0.88592 0.57227 0.28049
 C794 C 0.89980 0.54178 0.26981
 N795 N 0.93013 0.53054 0.28265
 C796 C 0.94732 0.54854 0.30552
 C797 C 0.93411 0.57963 0.31544
 N798 N 0.90365 0.59081 0.30256
 N799 N 0.85471 0.58263 0.26893
 C800 C 0.83678 0.56404 0.24706
 C801 C 0.85094 0.53379 0.23540
 N802 N 0.88243 0.52369 0.24715
 H803 H 0.97161 0.53916 0.31521
 H804 H 0.81150 0.57275 0.23914
 C805 C 0.87856 0.42963 0.69986
 C806 C 0.87262 0.41624 0.73061
 N807 N 0.89198 0.39012 0.74063
 C808 C 0.91744 0.37699 0.72152
 C809 C 0.92434 0.39094 0.69108
 N810 N 0.90442 0.41687 0.68086
 N811 N 0.85906 0.45581 0.68995
 C812 C 0.83457 0.46976 0.70976
 C813 C 0.82996 0.45747 0.74121
 N814 N 0.84872 0.43053 0.75056
 H815 H 0.93267 0.35634 0.73041
 H816 H 0.81976 0.49098 0.70155
 C817 C 0.08317 0.58445 0.75165
 C818 C 0.10602 0.56176 0.73655
 N819 N 0.10677 0.55941 0.70395
 C820 C 0.08543 0.57847 0.68566
 C821 C 0.06228 0.60113 0.70058
 N822 N 0.06188 0.60370 0.73337
 N823 N 0.08212 0.58626 0.78434
 C824 C 0.10274 0.56631 0.80259
 C825 C 0.12537 0.54331 0.78751
 N826 N 0.12671 0.54204 0.75475
 H827 H 0.08635 0.57575 0.65969
 H828 H 0.10141 0.56821 0.82861
 C829 C 0.10379 0.43439 0.27396
 C830 C 0.12197 0.45956 0.29038
 N831 N 0.11517 0.46511 0.32216
 C832 C 0.09101 0.44652 0.33829
 C833 C 0.07322 0.42089 0.32195
 N834 N 0.08019 0.41555 0.29011
 N835 N 0.10978 0.42933 0.24205
 C836 C 0.13315 0.44839 0.22570
 C837 C 0.15168 0.47364 0.24197
 N838 N 0.14580 0.47826 0.27414
 H839 H 0.08611 0.45140 0.36360
 H840 H 0.13713 0.44401 0.20016
   
