data_POSCAR
  _audit_creation_date              2014-09-24
  _audit_creation_method            'ToBaCCo'
  _symmetry_space_group_name_H-M    'P1'
  _symmetry_Int_Tables_number       1
  _symmetry_cell_setting            triclinic
  loop_
  _symmetry_equiv_pos_as_xyz
 x,y,z
_cell_length_a 43.8059
_cell_length_b 43.8699
_cell_length_c 43.8894
_cell_angle_alpha 90.001200
_cell_angle_beta 90.094500
_cell_angle_gamma 90.011500
loop_
  _atom_site_label
  _atom_site_type_symbol
  _atom_site_fract_x
  _atom_site_fract_y
  _atom_site_fract_z
C1 C 0.17014 0.17093 0.20714
 N2 N 0.15759 0.19600 0.19394
 C3 C 0.17014 0.20825 0.16845
 N4 N 0.19540 0.19528 0.15610
 C5 C 0.20817 0.17020 0.16908
 N6 N 0.19543 0.15812 0.19460
 C7 C -0.16771 0.83111 0.20922
 N8 N -0.15541 0.80578 0.19632
 C9 C -0.16848 0.79300 0.17132
 N10 N -0.19401 0.80570 0.15914
 C11 C -0.20653 0.83104 0.17184
 N12 N -0.19327 0.84364 0.19688
 C13 C -0.17229 0.16781 -0.20792
 N14 N -0.19722 0.15469 -0.19505
 C15 C -0.21007 0.16699 -0.16971
 N16 N -0.19776 0.19257 -0.15726
 C17 C -0.17283 0.20583 -0.17000
 N18 N -0.16014 0.19335 -0.19531
 C19 C 0.17009 0.83173 -0.20799
 N20 N 0.15696 0.80642 -0.19588
 C21 C 0.16894 0.79313 -0.17060
 N22 N 0.19418 0.80531 -0.15735
 C23 C 0.20752 0.83062 -0.16924
 N24 N 0.19537 0.84373 -0.19456
 C25 C 0.17052 1.17042 0.79302
 N26 N 0.15776 1.19572 0.80556
 C27 C 0.16985 1.20838 0.83115
 N28 N 0.19489 1.19553 0.84420
 C29 C 0.20781 1.17027 0.83185
 N30 N 0.19556 1.15778 0.80629
 C31 C 0.83072 0.83286 0.78978
 N32 N 0.84315 0.80728 0.80211
 C33 C 0.83044 0.79415 0.82708
 N34 N 0.80516 0.80674 0.83979
 C35 C 0.79256 0.83228 0.82764
 N36 N 0.80541 0.84527 0.80266
 C37 C 0.16756 0.82815 1.20857
 N38 N 0.15456 0.80312 1.19571
 C39 C 0.16693 0.79022 1.17042
 N40 N 0.19250 0.80255 1.15800
 C41 C 0.20568 0.82755 1.17068
 N42 N 0.19313 0.84029 1.19593
 C43 C 0.83248 1.17056 1.20775
 N44 N 0.84434 1.19587 1.19441
 C45 C 0.83102 1.20806 1.16921
 N46 N 0.80564 1.19472 1.15736
 C47 C 0.79360 1.16943 1.17053
 N48 N 0.80709 1.15742 1.19569
 O49 O 0.45702 1.05321 1.05590
 O50 O 0.42345 1.02366 1.02861
 C51 C 0.42961 1.04492 1.04818
 O52 O 0.54257 1.05080 0.94693
 O53 O 0.57612 1.02300 0.97604
 C54 C 0.56997 1.04273 0.95492
 O55 O 0.45677 1.05369 0.94969
 O56 O 0.42332 1.02395 0.97682
 C57 C 0.42939 1.04535 0.95738
 O58 O 0.54276 1.05066 1.05837
 O59 O 0.57610 1.02360 1.02848
 C60 C 0.57011 1.04299 1.04994
 Zr61 Zr 0.49986 1.03624 1.04113
 O62 O 0.50324 1.08438 1.04080
 O63 O 0.49669 1.03621 1.08926
 Zr64 Zr 0.49966 1.03659 0.96425
 O65 O 0.50316 1.08473 0.96512
 O66 O 0.49619 1.03725 0.91614
 O67 O 0.47241 1.04235 1.00274
 O68 O 0.52631 1.04191 1.00266
 O69 O 0.54285 0.94471 1.05804
 O70 O 0.57623 0.97250 1.02883
 C71 C 0.57022 0.95278 1.04997
 O72 O 0.45668 0.94244 0.94913
 O73 O 0.42329 0.97193 0.97658
 C74 C 0.42932 0.95073 0.95692
 O75 O 0.54249 0.94525 0.94639
 O76 O 0.57607 0.97260 0.97591
 C77 C 0.56991 0.95316 0.95452
 O78 O 0.45700 0.94190 1.05544
 O79 O 0.42346 0.97167 1.02836
 C80 C 0.42960 0.95027 1.04779
 Zr81 Zr 0.49987 0.95895 1.04077
 O82 O 0.50331 0.91082 1.03977
 O83 O 0.49668 0.95820 1.08888
 Zr84 Zr 0.49961 0.95937 0.96385
 O85 O 0.50303 0.91123 0.96424
 O86 O 0.49614 0.95920 0.91574
 Zr87 Zr 0.45431 0.99780 1.00255
 Zr88 Zr 0.54508 0.99775 1.00247
 O89 O 0.52631 0.95360 1.00225
 O90 O 0.47239 0.95324 1.00231
 O91 O 0.52704 0.99757 1.04696
 O92 O 0.47322 0.99802 0.95848
 O93 O 0.47349 0.99757 1.04658
 O94 O 0.52676 0.99799 0.95802
 H95 H 0.54014 1.05978 1.00263
 H96 H 0.45953 0.99811 0.94049
 H97 H 0.54024 0.93581 1.00216
 H98 H 0.45989 0.99749 1.06459
 H99 H 0.51269 1.02419 0.90804
 H100 H 0.51270 0.97228 0.90777
 H101 H 0.48547 0.90326 0.97594
 H102 H 0.48556 0.90297 1.02822
 H103 H 0.51303 0.97151 1.09693
 H104 H 0.51357 1.02348 1.09715
 H105 H 0.48570 1.09234 1.02902
 H106 H 0.48555 1.09261 0.97679
 O107 O 0.05369 0.45720 -0.05507
 O108 O 0.02396 0.42373 -0.02796
 C109 C 0.04534 0.42984 -0.04740
 O110 O 0.05089 0.54268 0.05382
 O111 O 0.02384 0.57612 0.02396
 C112 C 0.04323 0.57003 0.04545
 O113 O 0.05350 0.45711 0.05115
 O114 O 0.02382 0.42367 0.02386
 C115 C 0.04517 0.42976 0.04341
 O116 O 0.05082 0.54293 -0.05766
 O117 O 0.02298 0.57633 -0.02852
 C118 C 0.04274 0.57027 -0.04962
 Zr119 Zr 0.03660 0.50001 -0.04043
 O120 O 0.08481 0.50346 -0.03965
 O121 O 0.03708 0.49672 -0.08854
 Zr122 Zr 0.03641 0.49991 0.03650
 O123 O 0.08463 0.50329 0.03623
 O124 O 0.03644 0.49656 0.08462
 O125 O 0.04247 0.47266 -0.00196
 O126 O 0.04205 0.52645 -0.00194
 O127 O -0.05520 0.54275 -0.05797
 O128 O -0.02813 0.57614 -0.02804
 C129 C -0.04753 0.57009 -0.04955
 O130 O -0.05794 0.45709 0.05086
 O131 O -0.02823 0.42368 0.02366
 C132 C -0.04958 0.42975 0.04316
 O133 O -0.05509 0.54283 0.05354
 O134 O -0.02726 0.57628 0.02443
 C135 C -0.04699 0.57018 0.04556
 O136 O -0.05781 0.45712 -0.05539
 O137 O -0.02810 0.42369 -0.02814
 C138 C -0.04947 0.42977 -0.04767
 Zr139 Zr -0.04072 0.49994 -0.04072
 O140 O -0.08893 0.50328 -0.04047
 O141 O -0.04071 0.49664 -0.08884
 Zr142 Zr -0.04091 0.49994 0.03622
 O143 O -0.08912 0.50337 0.03536
 O144 O -0.04148 0.49660 0.08433
 Zr145 Zr -0.00214 0.45457 -0.00213
 Zr146 Zr -0.00215 0.54524 -0.00207
 O147 O -0.04636 0.52644 -0.00223
 O148 O -0.04676 0.47264 -0.00228
 O149 O -0.00207 0.52713 -0.04656
 O150 O -0.00226 0.47355 0.04193
 O151 O -0.00204 0.47360 -0.04617
 O152 O -0.00224 0.52706 0.04239
 H153 H 0.05995 0.54026 -0.00196
 H154 H -0.00228 0.45992 0.05993
 H155 H -0.06425 0.54024 -0.00219
 H156 H -0.00201 0.45997 -0.06417
 H157 H 0.02378 0.51343 0.09256
 H158 H -0.02826 0.51301 0.09239
 H159 H -0.09702 0.48568 0.02380
 H160 H -0.09687 0.48596 -0.02842
 H161 H -0.02809 0.51357 -0.09675
 H162 H 0.02398 0.51323 -0.09658
 H163 H 0.09273 0.48587 -0.02797
 H164 H 0.09257 0.48594 0.02424
 O165 O 1.05545 -0.05386 0.45712
 O166 O 1.02785 -0.02459 0.42357
 C167 C 1.04746 -0.04584 0.42974
 O168 O 0.94673 -0.05095 0.54241
 O169 O 0.97640 -0.02366 0.57586
 C170 C 0.95504 -0.04319 0.56975
 O171 O 0.94940 -0.05366 0.45686
 O172 O 0.97670 -0.02401 0.42352
 C173 C 0.95717 -0.04536 0.42955
 O174 O 1.05819 -0.05098 0.54278
 O175 O 1.02846 -0.02363 0.57602
 C176 C 1.04981 -0.04319 0.57006
 Zr177 Zr 1.04119 -0.03643 0.49990
 O178 O 1.04147 -0.08455 0.50336
 O179 O 1.08940 -0.03589 0.49660
 Zr180 Zr 0.96385 -0.03636 0.49964
 O181 O 0.96365 -0.08450 0.50302
 O182 O 0.91564 -0.03582 0.49611
 O183 O 1.00255 -0.04247 0.47265
 O184 O 1.00247 -0.04191 0.52613
 O185 O 1.05819 0.05539 0.54261
 O186 O 1.02844 0.02817 0.57594
 C187 C 1.04979 0.04771 0.56993
 O188 O 0.94974 0.05782 0.45656
 O189 O 0.97753 0.02847 0.42330
 C190 C 0.95783 0.04970 0.42926
 O191 O 0.94659 0.05498 0.54233
 O192 O 0.97587 0.02741 0.57591
 C193 C 0.95462 0.04702 0.56971
 O194 O 1.05562 0.05779 0.45696
 O195 O 1.02807 0.02833 0.42352
 C196 C 1.04771 0.04959 0.42961
 Zr197 Zr 1.04118 0.04063 0.49979
 O198 O 1.04131 0.08878 0.50301
 O199 O 1.08940 0.04019 0.49657
 Zr200 Zr 0.96386 0.04059 0.49951
 O201 O 0.96366 0.08873 0.50287
 O202 O 0.91567 0.04027 0.49585
 Zr203 Zr 1.00265 0.00200 0.45446
 Zr204 Zr 1.00247 0.00222 0.54502
 O205 O 1.00245 0.04627 0.52604
 O206 O 1.00258 0.04654 0.47253
 O207 O 1.04711 0.00216 0.52712
 O208 O 0.95839 0.00209 0.47307
 O209 O 1.04681 0.00204 0.47338
 O210 O 0.95788 0.00215 0.52680
 H211 H 1.00245 -0.05988 0.53980
 H212 H 0.94051 0.00215 0.45922
 H213 H 1.00233 0.06421 0.53976
 H214 H 1.06467 0.00199 0.45955
 H215 H 0.90769 -0.02405 0.51361
 H216 H 0.90765 0.02812 0.51305
 H217 H 0.97651 0.09672 0.48617
 H218 H 1.02860 0.09671 0.48614
 H219 H 1.09729 0.02825 0.51400
 H220 H 1.09731 -0.02400 0.51406
 H221 H 1.02843 -0.09258 0.48678
 H222 H 0.97636 -0.09251 0.48623
 N223 N 1.11849 0.15826 0.26997
 C224 C 1.13065 0.13297 0.28293
 N225 N 1.15615 0.12050 0.27068
 N226 N 1.16907 0.13291 0.24618
 C227 C 1.15692 0.15822 0.23305
 N228 N 1.13141 0.17068 0.24547
 C229 C 1.11634 0.11919 0.30889
 C230 C 1.10417 0.10735 0.33048
 C231 C 1.08953 0.09291 0.35589
 N232 N 1.09685 0.10090 0.38485
 N233 N 1.08343 0.08721 0.40840
 C234 C 1.06223 0.06507 0.40376
 N235 N 1.05494 0.05717 0.37472
 N236 N 1.06836 0.07086 0.35120
 N237 N 0.84746 -0.11725 0.27155
 C238 C 0.87318 -0.12949 0.28364
 N239 N 0.88512 -0.15500 0.27097
 N240 N 0.87177 -0.16787 0.24689
 C241 C 0.84602 -0.15566 0.23464
 N242 N 0.83410 -0.13011 0.24747
 C243 C 0.88782 -0.11536 0.30927
 C244 C 0.90021 -0.10333 0.33066
 C245 C 0.91499 -0.08878 0.35598
 N246 N 0.90795 -0.09683 0.38495
 N247 N 0.92149 -0.08308 0.40844
 C248 C 0.94254 -0.06084 0.40372
 N249 N 0.94956 -0.05288 0.37466
 N250 N 0.93601 -0.06662 0.35118
 N251 N 0.88007 0.15410 0.72797
 C252 C 0.86834 0.12830 0.71561
 N253 N 0.84314 0.11560 0.72823
 N254 N 0.83008 0.12829 0.75251
 C255 C 0.84179 0.15411 0.76499
 N256 N 0.86701 0.16680 0.75225
 C257 C 0.88278 0.11429 0.68985
 C258 C 0.89513 0.10240 0.66840
 C259 C 0.91011 0.08811 0.64311
 N260 N 0.90243 0.09553 0.61410
 N261 N 0.91655 0.08237 0.59065
 C262 C 0.93882 0.06136 0.59546
 N263 N 0.94642 0.05398 0.62455
 N264 N 0.93231 0.06714 0.64797
 N265 N 1.15793 -0.11556 0.72991
 C266 C 1.13247 -0.12725 0.71675
 N267 N 1.11971 -0.15275 0.72864
 N268 N 1.13201 -0.16615 0.75298
 C269 C 1.15749 -0.15449 0.76630
 N270 N 1.17024 -0.12895 0.75425
 C271 C 1.11886 -0.11252 0.69090
 C272 C 1.10714 -0.10009 0.66935
 C273 C 1.09284 -0.08527 0.64392
 N274 N 1.10102 -0.09239 0.61500
 N275 N 1.08741 -0.07888 0.59141
 C276 C 1.06517 -0.05780 0.59598
 N277 N 1.05709 -0.05070 0.62499
 N278 N 1.07069 -0.06421 0.64856
 N279 N 0.27078 1.15540 1.11769
 C280 C 0.28332 1.13011 1.13029
 N281 N 0.27086 1.11833 1.15598
 N282 N 0.24655 1.13143 1.16867
 C283 C 0.23385 1.15675 1.15609
 N284 N 0.24648 1.16850 1.13037
 C285 C 0.30912 1.11568 1.11629
 C286 C 0.33062 1.10340 1.10435
 C287 C 0.35598 1.08858 1.08996
 N288 N 0.35114 1.06635 1.06905
 N289 N 0.37464 1.05248 1.05570
 C290 C 0.40377 1.06038 1.06281
 N291 N 0.40854 1.08268 1.08376
 N292 N 0.38503 1.09655 1.09711
 N293 N 0.26960 0.84284 0.88368
 C294 C 0.28268 0.86833 0.87211
 N295 N 0.27075 0.88110 0.84661
 N296 N 0.24644 0.86877 0.83310
 C297 C 0.23320 0.84326 0.84465
 N298 N 0.24529 0.83051 0.87018
 C299 C 0.30851 0.88196 0.88695
 C300 C 0.33004 0.89365 0.89947
 C301 C 0.35547 0.90790 0.91441
 N302 N 0.38448 0.89982 0.90733
 N303 N 0.40806 0.91335 0.92098
 C304 C 0.40340 0.93544 0.94217
 N305 N 0.37431 0.94344 0.94923
 N306 N 0.35075 0.92990 0.93558
 N307 N 0.72976 0.84492 1.12133
 C308 C 0.71749 0.87044 1.13371
 N309 N 0.73051 0.88267 1.15894
 N310 N 0.75508 0.86979 1.17142
 C311 C 0.76751 0.84424 1.15906
 N312 N 0.75432 0.83203 1.13380
 C313 C 0.69144 0.88469 1.11988
 C314 C 0.66977 0.89678 1.10800
 C315 C 0.64424 0.91131 1.09349
 N316 N 0.64887 0.93254 1.07154
 N317 N 0.62524 0.94584 1.05778
 C318 C 0.59618 0.93837 1.06552
 N319 N 0.59162 0.91713 1.08757
 N320 N 0.61526 0.90382 1.10133
 N321 N 0.72835 1.11409 0.84449
 C322 C 0.71572 1.12605 0.87000
 N323 N 0.72778 1.15179 0.88214
 N324 N 0.75179 1.16516 0.86918
 C325 C 0.76458 1.15324 0.84363
 N326 N 0.75236 1.12745 0.83152
 C327 C 0.69015 1.11142 0.88422
 C328 C 0.66878 1.09909 0.89634
 C329 C 0.64349 1.08442 0.91101
 N330 N 0.61442 1.09179 0.90334
 N331 N 0.59095 1.07840 0.91724
 C332 C 0.59578 1.05719 0.93926
 N333 N 0.62494 1.04983 0.94685
 N334 N 0.64840 1.06323 0.93296
 N335 N 0.11774 0.27198 0.15273
 C336 C 0.12989 0.28401 0.12700
 N337 N 0.15537 0.27127 0.11500
 N338 N 0.16831 0.24721 0.12830
 C339 C 0.15618 0.23507 0.15405
 N340 N 0.13067 0.24791 0.16603
 C341 C 0.11567 0.30961 0.11242
 C342 C 0.10353 0.33099 0.10012
 C343 C 0.08885 0.35627 0.08544
 N344 N 0.06659 0.35142 0.06449
 N345 N 0.05274 0.37487 0.05102
 C346 C 0.06068 0.40396 0.05806
 N347 N 0.08301 0.40874 0.07903
 N348 N 0.09686 0.38528 0.09250
 N349 N -0.15893 0.27005 -0.11772
 C350 C -0.13373 0.28303 -0.13007
 N351 N -0.12152 0.27078 -0.15566
 N352 N -0.13410 0.24628 -0.16850
 C353 C -0.15931 0.23318 -0.15615
 N354 N -0.17152 0.24554 -0.13055
 C355 C -0.11976 0.30899 -0.11588
 C356 C -0.10774 0.33059 -0.10383
 C357 C -0.09309 0.35602 -0.08935
 N358 N -0.07080 0.35132 -0.06842
 N359 N -0.05697 0.37486 -0.05508
 C360 C -0.06497 0.40390 -0.06223
 N361 N -0.08734 0.40854 -0.08319
 N362 N -0.10117 0.38498 -0.09653
 N363 N 0.15243 0.72860 -0.11957
 C364 C 0.12693 0.71666 -0.13241
 N365 N 0.11533 0.72972 -0.15792
 N366 N 0.12882 0.75400 -0.17020
 C367 C 0.15435 0.76605 -0.15737
 N368 N 0.16593 0.75288 -0.13184
 C369 C 0.11210 0.69086 -0.11884
 C370 C 0.09961 0.66936 -0.10715
 C371 C 0.08472 0.64398 -0.09287
 N372 N 0.06338 0.64871 -0.07105
 N373 N 0.04987 0.62519 -0.05741
 C374 C 0.05724 0.59613 -0.06513
 N375 N 0.07859 0.59146 -0.08705
 N376 N 0.09211 0.61500 -0.10070
 N377 N -0.11622 0.72909 0.15608
 C378 C -0.12882 0.71649 0.13081
 N379 N -0.15458 0.72890 0.11896
 N380 N -0.16734 0.75319 0.13197
 C381 C -0.15475 0.76590 0.15725
 N382 N -0.12897 0.75338 0.16909
 C383 C -0.11474 0.69069 0.11647
 C384 C -0.10276 0.66919 0.10426
 C385 C -0.08835 0.64382 0.08950
 N386 N -0.09583 0.61484 0.09719
 N387 N -0.08257 0.59132 0.08328
 C388 C -0.06137 0.59602 0.06122
 N389 N -0.05391 0.62509 0.05361
 N390 N -0.06718 0.64859 0.06752
 N391 N 1.15782 0.11890 0.73003
 C392 C 1.13258 0.13114 0.71697
 N393 N 1.12014 0.15663 0.72921
 N394 N 1.13254 0.16949 0.75380
 C395 C 1.15781 0.15727 0.76703
 N396 N 1.17023 0.13175 0.75462
 C397 C 1.11881 0.11688 0.69092
 C398 C 1.10702 0.10470 0.66927
 C399 C 1.09266 0.08999 0.64379
 N400 N 1.07051 0.06893 0.64841
 N401 N 1.05695 0.05538 0.62483
 C402 C 1.06510 0.06242 0.59583
 N403 N 1.08734 0.08352 0.59128
 N404 N 1.10090 0.09707 0.61487
 N405 N 0.88251 -0.15232 0.72753
 C406 C 0.87039 -0.12657 0.71545
 N407 N 0.84491 -0.11449 0.72810
 N408 N 0.83195 -0.12773 0.75215
 C409 C 0.84404 -0.15351 0.76439
 N410 N 0.86956 -0.16557 0.75158
 C411 C 0.88462 -0.11206 0.68985
 C412 C 0.89675 -0.09979 0.66848
 C413 C 0.91141 -0.08514 0.64320
 N414 N 0.90339 -0.09222 0.61420
 N415 N 0.91722 -0.07877 0.59075
 C416 C 0.93953 -0.05779 0.59554
 N417 N 0.94746 -0.05073 0.62462
 N418 N 0.93363 -0.06418 0.64806
 N419 N 1.15444 -0.12020 0.27132
 C420 C 1.12869 -0.13199 0.28370
 N421 N 1.11604 -0.15722 0.27109
 N422 N 1.12874 -0.17025 0.24679
 C423 C 1.15453 -0.15848 0.23424
 N424 N 1.16715 -0.13322 0.24703
 C425 C 1.11467 -0.11760 0.30949
 C426 C 1.10278 -0.10529 0.33097
 C427 C 1.08849 -0.09033 0.35628
 N428 N 1.09594 -0.09801 0.38528
 N429 N 1.08280 -0.08391 0.40874
 C430 C 1.06177 -0.06165 0.40397
 N431 N 1.05435 -0.05405 0.37489
 N432 N 1.06749 -0.06815 0.35144
 N433 N 0.88563 0.15835 0.26962
 C434 C 0.87404 0.13286 0.28270
 N435 N 0.84847 0.12009 0.27083
 N436 N 0.83491 0.13241 0.24659
 C437 C 0.84645 0.15792 0.23335
 N438 N 0.87206 0.17068 0.24538
 C439 C 0.88890 0.11925 0.30849
 C440 C 0.90137 0.10752 0.33000
 C441 C 0.91618 0.09318 0.35542
 N442 N 0.93741 0.07120 0.35077
 N443 N 0.95082 0.05748 0.37433
 C444 C 0.94343 0.06527 0.40335
 N445 N 0.92219 0.08734 0.40794
 N446 N 0.90878 0.10106 0.38436
 N447 N 0.11817 0.27120 -0.15569
 C448 C 0.13000 0.28355 -0.12993
 N449 N 0.15526 0.27089 -0.11731
 N450 N 0.16827 0.24659 -0.13004
 C451 C 0.15647 0.23407 -0.15582
 N452 N 0.13118 0.24689 -0.16843
 C453 C 0.11567 0.30936 -0.11587
 C454 C 0.10350 0.33086 -0.10385
 C455 C 0.08881 0.35622 -0.08934
 N456 N 0.06656 0.35144 -0.06845
 N457 N 0.05278 0.37494 -0.05502
 C458 C 0.06081 0.40401 -0.06202
 N459 N 0.08315 0.40872 -0.08293
 N460 N 0.09692 0.38521 -0.09636
 N461 N -0.11868 0.27137 0.15338
 C462 C -0.13166 0.28331 0.12800
 N463 N -0.15723 0.27022 0.11649
 N464 N -0.16944 0.24588 0.12996
 C465 C -0.15648 0.23378 0.15538
 N466 N -0.13088 0.24703 0.16685
 C467 C -0.11816 0.30915 0.11317
 C468 C -0.10655 0.33067 0.10064
 C469 C -0.09237 0.35606 0.08566
 N470 N -0.07029 0.35132 0.06458
 N471 N -0.05678 0.37484 0.05092
 C472 C -0.06491 0.40389 0.05787
 N473 N -0.08708 0.40856 0.07896
 N474 N -0.10059 0.38503 0.09263
 N475 N -0.15519 0.72930 -0.12158
 C476 C -0.12964 0.71695 -0.13385
 N477 N -0.11732 0.72983 -0.15907
 N478 N -0.13015 0.75434 -0.17165
 C479 C -0.15572 0.76680 -0.15940
 N480 N -0.16802 0.75381 -0.13415
 C481 C -0.11546 0.69096 -0.11990
 C482 C -0.10344 0.66935 -0.10790
 C483 C -0.08900 0.64390 -0.09325
 N484 N -0.06817 0.64857 -0.07085
 N485 N -0.05490 0.62501 -0.05700
 C486 C -0.06201 0.59597 -0.06508
 N487 N -0.08286 0.59137 -0.08756
 N488 N -0.09614 0.61495 -0.10141
 N489 N 0.11421 0.72847 0.15616
 C490 C 0.12628 0.71582 0.13071
 N491 N 0.15204 0.72793 0.11864
 N492 N 0.16531 0.75200 0.13161
 C493 C 0.15327 0.76481 0.15710
 N494 N 0.12748 0.75254 0.16914
 C495 C 0.11175 0.69021 0.11644
 C496 C 0.09952 0.66882 0.10424
 C497 C 0.08494 0.64353 0.08945
 N498 N 0.09196 0.61452 0.09748
 N499 N 0.07860 0.59106 0.08353
 C500 C 0.05777 0.59583 0.06107
 N501 N 0.05077 0.62493 0.05311
 N502 N 0.06414 0.64838 0.06707
 N503 N 0.27073 1.15536 0.88556
 C504 C 0.28345 1.12987 0.87358
 N505 N 0.27143 1.11776 0.84780
 N506 N 0.24740 1.13072 0.83440
 C507 C 0.23458 1.15624 0.84635
 N508 N 0.24670 1.16833 0.87216
 C509 C 0.30905 1.11565 0.88824
 C510 C 0.33043 1.10354 0.90060
 C511 C 0.35576 1.08892 0.91533
 N512 N 0.35091 1.06668 0.93621
 N513 N 0.37441 1.05287 0.94971
 C514 C 0.40354 1.06086 0.94278
 N515 N 0.40831 1.08319 0.92188
 N516 N 0.38480 1.09699 0.90838
 N517 N 0.27058 0.87889 1.15617
 C518 C 0.28286 0.86656 1.13065
 N519 N 0.26992 0.84128 1.11841
 N520 N 0.24542 0.82874 1.13129
 C521 C 0.23303 0.84106 1.15682
 N522 N 0.24608 0.86635 1.16905
 C523 C 0.30882 0.88047 1.11640
 C524 C 0.33042 0.89240 1.10428
 C525 C 0.35584 0.90692 1.08969
 N526 N 0.38486 0.89876 1.09674
 N527 N 0.40843 0.91249 1.08330
 C528 C 0.40373 0.93482 1.06238
 N529 N 0.37462 0.94290 1.05537
 N530 N 0.35108 0.92918 1.06879
 N531 N 0.72872 1.15295 1.11966
 C532 C 0.71691 1.12740 1.13241
 N533 N 0.73017 1.11576 1.15781
 N534 N 0.75452 1.12926 1.17007
 C535 C 0.76644 1.15483 1.15733
 N536 N 0.75308 1.16645 1.13192
 C537 C 0.69104 1.11258 1.11886
 C538 C 0.66948 1.10008 1.10719
 C539 C 0.64403 1.08518 1.09294
 N540 N 0.64871 1.06422 1.07074
 N541 N 0.62512 1.05066 1.05716
 C542 C 0.59605 1.05760 1.06532
 N543 N 0.59144 1.07857 1.08762
 N544 N 0.61504 1.09214 1.10120
 N545 N 0.72852 0.84631 0.88005
 C546 C 0.71616 0.87210 0.86830
 N547 N 0.72877 0.88470 0.84307
 N548 N 0.75303 0.87191 0.83001
 C549 C 0.76551 0.84610 0.84174
 N550 N 0.75278 0.83352 0.86699
 C551 C 0.69037 0.88616 0.88270
 C552 C 0.66888 0.89806 0.89503
 C553 C 0.64352 0.91232 0.90998
 N554 N 0.64837 0.93316 0.93227
 N555 N 0.62487 0.94625 0.94639
 C556 C 0.59574 0.93893 0.93869
 N557 N 0.59096 0.91807 0.91631
 N558 N 0.61447 0.90498 0.90219
   
