data_POSCAR
  _audit_creation_date              2014-09-24
  _audit_creation_method            'ToBaCCo'
  _symmetry_space_group_name_H-M    'P1'
  _symmetry_Int_Tables_number       1
  _symmetry_cell_setting            triclinic
  loop_
  _symmetry_equiv_pos_as_xyz
 x,y,z
_cell_length_a 26.8593
_cell_length_b 27.0752
_cell_length_c 19.8941
_cell_angle_alpha 105.284000
_cell_angle_beta 78.991600
_cell_angle_gamma 81.729900
loop_
  _atom_site_label
  _atom_site_type_symbol
  _atom_site_fract_x
  _atom_site_fract_y
  _atom_site_fract_z
N1 N 0.54631 0.64461 0.65883
 N2 N 0.53301 0.59879 0.64828
 C3 C 0.48181 0.60518 0.65164
 C4 C 0.46227 0.65798 0.66541
 C5 C 0.50406 0.68182 0.67039
 H6 H 0.46094 0.57370 0.64201
 H7 H 0.50437 0.72277 0.67727
 Cu8 Cu 0.58478 0.53541 0.62795
 Cu9 Cu 0.61827 0.65186 0.64807
 Cu10 Cu 0.70810 0.53726 0.55879
 N11 N 0.64144 0.48117 0.62616
 N12 N 0.68999 0.48216 0.59982
 C13 C 0.72128 0.44280 0.61036
 C14 C 0.69047 0.41591 0.64532
 C15 C 0.64004 0.44095 0.65381
 H16 H 0.76316 0.43546 0.59558
 H17 H 0.60506 0.43214 0.68105
 N18 N 0.72248 0.60632 0.55871
 N19 N 0.68988 0.65008 0.59878
 C20 C 0.70970 0.69098 0.58791
 C21 C 0.75643 0.67194 0.53752
 C22 C 0.76342 0.61810 0.51988
 H23 H 0.68942 0.73139 0.60985
 H24 H 0.79500 0.58968 0.48022
 H25 H 0.63603 0.58447 0.56584
 H26 H 0.65599 0.57999 0.64922
 N27 N 0.92153 0.29445 0.13548
 N28 N 0.94579 0.33247 0.15654
 C29 C 0.98704 0.31384 0.17849
 C30 C 0.98828 0.26146 0.17147
 C31 C 0.94595 0.25044 0.14441
 H32 H 1.01383 0.33671 0.19869
 H33 H 0.93410 0.21322 0.13115
 Cu34 Cu 0.91982 0.40306 0.15581
 Cu35 Cu 0.86042 0.30508 0.09730
 Cu36 Cu 0.84134 0.41891 0.04829
 N37 N 0.88420 0.47238 0.16132
 N38 N 0.85405 0.47843 0.11800
 C39 C 0.83515 0.52975 0.13137
 C40 C 0.85420 0.55724 0.18650
 C41 C 0.88524 0.51970 0.20426
 H42 H 0.80906 0.54566 0.10356
 H43 H 0.90679 0.52636 0.24539
 N44 N 0.81155 0.35842 0.00996
 N45 N 0.81655 0.31610 0.03123
 C46 C 0.79056 0.28258 -0.00316
 C47 C 0.76838 0.30507 -0.04816
 C48 C 0.78247 0.35303 -0.03855
 H49 H 0.78912 0.24416 0.00262
 H50 H 0.77222 0.38191 -0.06487
 H51 H 0.89411 0.35394 0.05064
 H52 H 0.83774 0.38651 0.12878
 N53 N 0.46566 0.18109 -0.18264
 N54 N 0.47450 0.14938 -0.24828
 C55 C 0.51575 0.15848 -0.28977
 C56 C 0.53427 0.19746 -0.24760
 C57 C 0.50186 0.21079 -0.17978
 H58 H 0.53194 0.13738 -0.34591
 H59 H 0.50412 0.24016 -0.13222
 Cu60 Cu 0.43402 0.09643 -0.27240
 Cu61 Cu 0.40776 0.18074 -0.10655
 Cu62 Cu 0.31921 0.10785 -0.16382
 N63 N 0.39905 0.03783 -0.28044
 N64 N 0.35303 0.04292 -0.23906
 C65 C 0.33800 -0.00327 -0.25429
 C66 C 0.37708 -0.03932 -0.30730
 C67 C 0.41526 -0.01197 -0.32297
 H68 H 0.30243 -0.01063 -0.22642
 H69 H 0.45257 -0.02737 -0.36073
 N70 N 0.30363 0.16114 -0.07011
 N71 N 0.33764 0.18773 -0.04671
 C72 C 0.31702 0.21641 0.02233
 C73 C 0.26807 0.20669 0.04300
 C74 C 0.26083 0.17175 -0.01688
 H75 H 0.33710 0.24031 0.05607
 H76 H 0.22817 0.15281 -0.02010
 H77 H 0.39129 0.10777 -0.14829
 H78 H 0.36545 0.16276 -0.18036
 N79 N 0.00053 0.89013 0.45992
 N80 N 0.00062 0.91579 0.41223
 C81 C -0.02782 0.89618 0.36674
 C82 C -0.04716 0.85645 0.38780
 C83 C -0.02897 0.85409 0.44758
 H84 H -0.03365 0.90966 0.32170
 H85 H -0.03477 0.82669 0.47789
 Cu86 Cu 0.03751 0.97276 0.41475
 Cu87 Cu 0.04333 0.90199 0.52920
 Cu88 Cu 0.14545 0.95854 0.47396
 N89 N 0.08528 1.01975 0.40843
 N90 N 0.12772 1.01382 0.43172
 C91 C 0.15612 1.04809 0.41595
 C92 C 0.12991 1.07722 0.38115
 C93 C 0.08503 1.05834 0.37732
 H94 H 0.19383 1.05028 0.42677
 H95 H 0.05571 1.07016 0.35101
 N96 N 0.14670 0.91631 0.54063
 N97 N 0.10696 0.89681 0.56444
 C98 C 0.12056 0.86849 0.60697
 C99 C 0.17138 0.87022 0.60947
 C100 C 0.18662 0.90100 0.56726
 H101 H 0.09641 0.84573 0.63047
 H102 H 0.22464 0.91000 0.55490
 H103 H 0.06948 0.97089 0.52185
 H104 H 0.09514 0.90917 0.44622
 N105 N 0.13913 0.19781 0.24006
 N106 N 0.32737 0.79326 0.66017
 N107 N 0.85147 0.72603 0.34800
 N108 N 0.68072 0.28249 -0.24103
 C109 C 0.02484 0.22754 0.18820
 C110 C 0.02344 0.17600 0.18389
 C111 C 0.06619 0.15781 0.20479
 C112 C 0.09036 0.19970 0.22024
 O113 O 0.06566 0.24185 0.20972
 H114 H -0.00504 0.15412 0.16710
 H115 H 0.07889 0.11844 0.20629
 C116 C 0.41061 0.68376 0.66429
 C117 C 0.37179 0.65869 0.64578
 C118 C 0.33369 0.69712 0.64347
 C119 C 0.35217 0.74274 0.66153
 O120 O 0.39878 0.73453 0.67389
 H121 H 0.37221 0.61720 0.63234
 H122 H 0.29814 0.69185 0.62726
 C123 C 0.92312 0.82387 0.35491
 C124 C 0.91035 0.82328 0.29074
 C125 C 0.88231 0.78504 0.27814
 C126 C 0.87933 0.76590 0.33638
 O127 O 0.90447 0.78905 0.38255
 H128 H 0.92066 0.84732 0.25671
 H129 H 0.86573 0.77341 0.23248
 C130 C 0.57933 0.21932 -0.27044
 C131 C 0.60073 0.21541 -0.34091
 C132 C 0.64146 0.24000 -0.33885
 C133 C 0.64212 0.25647 -0.26730
 O134 O 0.60437 0.24422 -0.22544
 H135 H 0.58806 0.19692 -0.38809
 H136 H 0.66811 0.24447 -0.38401
 C137 C 0.14857 0.11557 0.34765
 C138 C 0.19735 0.12672 0.34349
 C139 C 0.20024 0.16018 0.30306
 C140 C 0.15270 0.16729 0.28594
 O141 O 0.12129 0.14029 0.31318
 H142 H 0.22781 0.11103 0.36528
 H143 H 0.23362 0.17609 0.28677
 C144 C 0.70609 0.37486 -0.32837
 C145 C 0.75676 0.35495 -0.32968
 C146 C 0.75390 0.31759 -0.29534
 C147 C 0.70182 0.31734 -0.27651
 O148 O 0.67272 0.35177 -0.29655
 H149 H 0.79153 0.36671 -0.35190
 H150 H 0.78576 0.29310 -0.28589
 C151 C 0.37916 0.90429 0.66511
 C152 C 0.42168 0.86825 0.61907
 C153 C 0.40789 0.82084 0.61085
 C154 C 0.35797 0.83178 0.65264
 O155 O 0.34032 0.88231 0.68524
 H156 H 0.45850 0.87556 0.59510
 H157 H 0.43119 0.78307 0.57812
 C158 C 0.84326 0.61419 0.22009
 C159 C 0.81148 0.64989 0.20040
 C160 C 0.81118 0.69755 0.24569
 C161 C 0.84334 0.68717 0.28873
 O162 O 0.86230 0.63671 0.27427
 H163 H 0.79035 0.64207 0.15888
 H164 H 0.78924 0.73508 0.24832
 C165 C 0.23415 0.22179 0.11550
 C166 C 0.24168 0.25631 0.17573
 C167 C 0.20466 0.25383 0.23173
 C168 C 0.17780 0.21787 0.20095
 O169 O 0.19525 0.19865 0.13073
 H170 H 0.27158 0.27910 0.17874
 H171 H 0.19914 0.27405 0.28814
 C172 C 0.78678 0.70266 0.50162
 C173 C 0.78737 0.75445 0.53238
 C174 C 0.81477 0.76964 0.47906
 C175 C 0.82863 0.72586 0.41952
 O176 O 0.81150 0.68519 0.43310
 H177 H 0.76841 0.77870 0.58650
 H178 H 0.82101 0.80871 0.48237
 C179 C 0.73797 0.28273 -0.09824
 C180 C 0.72114 0.23638 -0.10322
 C181 C 0.69588 0.23030 -0.15737
 C182 C 0.69939 0.27349 -0.18121
 O183 O 0.72491 0.30524 -0.14549
 H184 H 0.72706 0.20995 -0.07177
 H185 H 0.67838 0.19772 -0.17802
 C186 C 0.20524 0.84054 0.64137
 C187 C 0.18979 0.81037 0.68445
 C188 C 0.23421 0.78827 0.69849
 C189 C 0.27321 0.80636 0.66208
 O190 O 0.25566 0.83842 0.62820
 H191 H 0.15096 0.80502 0.70311
 H192 H 0.23761 0.76245 0.73136
   
