data_POSCAR
  _audit_creation_date              2014-09-24
  _audit_creation_method            'ToBaCCo'
  _symmetry_space_group_name_H-M    'P1'
  _symmetry_Int_Tables_number       1
  _symmetry_cell_setting            triclinic
  loop_
  _symmetry_equiv_pos_as_xyz
 x,y,z
_cell_length_a 50.6642
_cell_length_b 50.7863
_cell_length_c 50.7948
_cell_angle_alpha 89.936000
_cell_angle_beta 89.573900
_cell_angle_gamma 90.132000
loop_
  _atom_site_label
  _atom_site_type_symbol
  _atom_site_fract_x
  _atom_site_fract_y
  _atom_site_fract_z
C1 C 0.72676 0.66628 0.96870
 H2 H 0.74567 0.66641 0.95865
 C3 C 0.70529 0.67953 0.95777
 H4 H 0.70788 0.68983 0.93926
 C5 C 0.69999 0.65089 1.00396
 H6 H 0.69769 0.63911 1.02152
 C7 C 0.67809 0.66391 0.99381
 H8 H 0.65937 0.66246 1.00414
 N9 N 0.72366 0.65199 0.99118
 C10 C 0.80047 0.63455 1.02491
 H11 H 0.79792 0.61347 1.02665
 C12 C 0.82331 0.64641 1.03430
 H13 H 0.83842 0.63422 1.04304
 C14 C 0.78381 0.67582 1.01095
 H15 H 0.76819 0.68713 1.00201
 C16 C 0.80653 0.68856 1.02006
 H17 H 0.80821 0.70973 1.01820
 Zn18 Zn 0.75154 0.62992 1.00227
 N19 N 0.78135 0.64925 1.01342
 C20 C 0.78599 0.61066 0.96317
 N21 N 0.76112 0.60857 0.97320
 C22 C 0.74252 0.59351 0.96116
 C23 C 0.74867 0.57994 0.93795
 C24 C 0.79292 0.59758 0.94006
 C25 C 0.73696 0.62340 1.05423
 C26 C 0.72846 0.61080 1.07713
 C27 C 0.72731 0.56983 1.05313
 C28 C 0.73607 0.58335 1.03067
 N29 N 0.74028 0.60972 1.03156
 H30 H 0.80038 0.62315 0.97256
 H31 H 0.72270 0.59265 0.96919
 H32 H 0.73351 0.56855 0.92822
 H33 H 0.81280 0.59968 0.93235
 H34 H 0.74048 0.64442 1.05435
 H35 H 0.72474 0.62330 1.09392
 H36 H 0.72515 0.54875 1.05141
 H37 H 0.73955 0.57269 1.01258
 C38 C 0.82657 0.67376 1.03205
 C39 C 0.68038 0.67793 0.97007
 C40 C 0.72306 0.58339 1.07722
 C41 C 0.77406 0.58232 0.92691
 C42 C 0.73005 0.33579 0.52280
 H43 H 0.74913 0.33462 0.53215
 C44 C 0.70870 0.32145 0.53299
 H45 H 0.71163 0.30890 0.54995
 C46 C 0.70290 0.35423 0.48982
 H47 H 0.70042 0.36764 0.47353
 C48 C 0.68108 0.34026 0.49931
 H49 H 0.66210 0.34315 0.49011
 N50 N 0.72678 0.35188 0.50166
 C51 C 0.80445 0.36843 0.46776
 H52 H 0.80291 0.38965 0.46672
 C53 C 0.82705 0.35594 0.45831
 H54 H 0.84275 0.36772 0.44972
 C55 C 0.78536 0.32742 0.47967
 H56 H 0.76898 0.31643 0.48790
 C57 C 0.80767 0.31406 0.47033
 H58 H 0.80840 0.29280 0.47175
 Zn59 Zn 0.75514 0.37385 0.49090
 N60 N 0.78435 0.35416 0.47852
 C61 C 0.79042 0.39285 0.52937
 N62 N 0.76522 0.39417 0.52045
 C63 C 0.74656 0.40852 0.53339
 C64 C 0.75308 0.42250 0.55615
 C65 C 0.79780 0.40660 0.55189
 C66 C 0.73946 0.38303 0.43958
 C67 C 0.73067 0.39714 0.41781
 C68 C 0.73254 0.43694 0.44377
 C69 C 0.74140 0.42203 0.46510
 N70 N 0.74424 0.39550 0.46273
 H71 H 0.80481 0.38072 0.51941
 H72 H 0.72653 0.40885 0.52616
 H73 H 0.73804 0.43389 0.56619
 H74 H 0.81786 0.40488 0.55889
 H75 H 0.74207 0.36193 0.43824
 H76 H 0.72624 0.38666 0.39983
 H77 H 0.73019 0.45801 0.44598
 H78 H 0.74579 0.43163 0.48352
 C79 C 0.82899 0.32841 0.45968
 C80 C 0.68371 0.32385 0.52139
 C81 C 0.72688 0.42444 0.41979
 C82 C 0.77904 0.42163 0.56564
 C83 C 0.23321 -0.16494 0.02406
 H84 H 0.25226 -0.16499 0.03353
 C85 C 0.21228 -0.17945 0.03487
 H86 H 0.21552 -0.19100 0.05247
 C87 C 0.20564 -0.14912 -0.00992
 H88 H 0.20280 -0.13665 -0.02688
 C89 C 0.18425 -0.16331 0.00018
 H90 H 0.16523 -0.16152 -0.00923
 N91 N 0.22951 -0.15004 0.00213
 C92 C 0.30658 -0.13256 -0.03268
 H93 H 0.30457 -0.11143 -0.03445
 C94 C 0.32931 -0.14491 -0.04206
 H95 H 0.34463 -0.13312 -0.05128
 C96 C 0.28848 -0.17353 -0.01921
 H97 H 0.27241 -0.18458 -0.01046
 C98 C 0.31092 -0.18675 -0.02844
 H99 H 0.31206 -0.20794 -0.02639
 Zn100 Zn 0.25711 -0.12760 -0.00961
 N101 N 0.28689 -0.14687 -0.02125
 C102 C 0.29172 -0.10560 0.02793
 N103 N 0.26647 -0.10570 0.01905
 C104 C 0.24721 -0.09179 0.03159
 C105 C 0.25309 -0.07693 0.05396
 C106 C 0.29849 -0.09093 0.05007
 C107 C 0.24144 -0.12122 -0.06125
 C108 C 0.23160 -0.10868 -0.08349
 C109 C 0.23086 -0.06789 -0.05919
 C110 C 0.24083 -0.08135 -0.03739
 N111 N 0.24532 -0.10764 -0.03865
 H112 H 0.30662 -0.11736 0.01828
 H113 H 0.22717 -0.09260 0.02442
 H114 H 0.23754 -0.06600 0.06374
 H115 H 0.31860 -0.09159 0.05710
 H116 H 0.24586 -0.14204 -0.06189
 H117 H 0.23002 -0.12055 -0.10102
 H118 H 0.22622 -0.04736 -0.05631
 H119 H 0.24435 -0.07082 -0.01928
 C120 C 0.33177 -0.17235 -0.03991
 C121 C 0.18729 -0.17846 0.02308
 C122 C 0.22533 -0.08148 -0.08296
 C123 C 0.27905 -0.07644 0.06348
 C124 C 0.22403 0.16217 0.46668
 H125 H 0.24275 0.16137 0.45632
 C126 C 0.20272 0.17552 0.45554
 H127 H 0.20524 0.18495 0.43656
 C128 C 0.19751 0.14915 0.50305
 H129 H 0.19523 0.13829 0.52120
 C130 C 0.17580 0.16229 0.49272
 H131 H 0.15726 0.16186 0.50345
 N132 N 0.22098 0.14906 0.48987
 C133 C 0.29799 0.13282 0.52403
 H134 H 0.29531 0.11197 0.52754
 C135 C 0.32129 0.14515 0.53168
 H136 H 0.33634 0.13367 0.54139
 C137 C 0.28118 0.17307 0.50756
 H138 H 0.26544 0.18380 0.49816
 C139 C 0.30423 0.18628 0.51502
 H140 H 0.30616 0.20716 0.51109
 Zn141 Zn 0.24863 0.12712 0.50184
 N142 N 0.27871 0.14673 0.51186
 C143 C 0.28307 0.10338 0.46494
 N144 N 0.25769 0.10415 0.47382
 C145 C 0.23827 0.09045 0.46147
 C146 C 0.24408 0.07536 0.43914
 C147 C 0.28977 0.08840 0.44294
 C148 C 0.23390 0.12272 0.55426
 C149 C 0.22414 0.11101 0.57717
 C150 C 0.22188 0.06949 0.55409
 C151 C 0.23175 0.08205 0.53153
 N152 N 0.23702 0.10832 0.53193
 H153 H 0.29815 0.11494 0.47441
 H154 H 0.21815 0.09178 0.46862
 H155 H 0.22838 0.06479 0.42935
 H156 H 0.30998 0.08862 0.43586
 H157 H 0.23856 0.14351 0.55408
 H158 H 0.22165 0.12291 0.59468
 H159 H 0.21697 0.04875 0.55324
 H160 H 0.23467 0.07092 0.51363
 C161 C 0.32476 0.17218 0.52700
 C162 C 0.17804 0.17522 0.46837
 C163 C 0.21757 0.08414 0.57719
 C164 C 0.27014 0.07433 0.42958
 C165 C 0.16836 0.47321 0.22908
 H166 H 0.16902 0.46298 0.24776
 C167 C 0.18159 0.46288 0.20716
 H168 H 0.19241 0.44465 0.20918
 C169 C 0.15162 0.50825 0.20334
 H170 H 0.13931 0.52546 0.20161
 C171 C 0.16459 0.49870 0.18102
 H172 H 0.16258 0.50915 0.16255
 N173 N 0.15341 0.49529 0.22670
 C174 C 0.13619 0.52757 0.30439
 H175 H 0.11497 0.52870 0.30247
 C176 C 0.14825 0.53698 0.32704
 H177 H 0.13609 0.54512 0.34264
 C178 C 0.17758 0.51511 0.28632
 H179 H 0.18886 0.50675 0.27025
 C180 C 0.19053 0.52428 0.30881
 H181 H 0.21183 0.52303 0.30984
 Zn182 Zn 0.13136 0.50534 0.25522
 N183 N 0.15085 0.51680 0.28467
 C184 C 0.11342 0.46524 0.28931
 N185 N 0.11098 0.47544 0.26468
 C186 C 0.09625 0.46307 0.24609
 C187 C 0.08336 0.43937 0.25199
 C188 C 0.10100 0.44164 0.29598
 C189 C 0.12292 0.55723 0.24134
 C190 C 0.10934 0.57950 0.23298
 C191 C 0.06911 0.55384 0.23276
 C192 C 0.08351 0.53199 0.24127
 N193 N 0.11002 0.53400 0.24491
 H194 H 0.12566 0.47492 0.30367
 H195 H 0.09513 0.47126 0.22646
 H196 H 0.07222 0.42943 0.23683
 H197 H 0.10333 0.43383 0.31567
 H198 H 0.14399 0.55827 0.24455
 H199 H 0.12022 0.59756 0.22947
 H200 H 0.04807 0.55194 0.22969
 H201 H 0.07356 0.51346 0.24469
 C202 C 0.17578 0.53550 0.32948
 C203 C 0.17928 0.47536 0.18257
 C204 C 0.08212 0.57795 0.22833
 C205 C 0.08605 0.42818 0.27712
 C206 C -0.16825 0.02447 0.22806
 H207 H -0.16925 0.03399 0.24708
 C208 C -0.18329 0.03416 0.20724
 H209 H -0.19656 0.05029 0.21134
 C210 C -0.14959 -0.00808 0.20047
 H211 H -0.13578 -0.02398 0.19752
 C212 C -0.16429 0.00084 0.17914
 H213 H -0.16073 -0.00849 0.16035
 N214 N -0.15147 0.00397 0.22427
 C215 C -0.13146 -0.03176 0.29966
 H216 H -0.11080 -0.03537 0.29573
 C217 C -0.14305 -0.04208 0.32239
 H218 H -0.13090 -0.05282 0.33616
 C219 C -0.17242 -0.01425 0.28600
 H220 H -0.18395 -0.00390 0.27154
 C221 C -0.18486 -0.02423 0.30862
 H222 H -0.20589 -0.02140 0.31130
 Zn223 Zn -0.12780 -0.00624 0.25138
 N224 N -0.14607 -0.01796 0.28207
 C225 C -0.08896 0.02095 0.28072
 N226 N -0.10557 0.02278 0.25988
 C227 C -0.10711 0.04538 0.24555
 C228 C -0.09270 0.06764 0.25283
 C229 C -0.07415 0.04272 0.28867
 C230 C -0.12020 -0.05825 0.23673
 C231 C -0.10697 -0.08020 0.22693
 C232 C -0.06734 -0.05383 0.22304
 C233 C -0.08139 -0.03230 0.23297
 N234 N -0.10740 -0.03486 0.23927
 H235 H -0.08741 0.00274 0.29152
 H236 H -0.11981 0.04641 0.22862
 H237 H -0.09505 0.08569 0.24173
 H238 H -0.06131 0.04090 0.30551
 H239 H -0.14087 -0.05970 0.24206
 H240 H -0.11756 -0.09864 0.22506
 H241 H -0.04683 -0.05135 0.21743
 H242 H -0.07169 -0.01345 0.23513
 C243 C -0.17012 -0.03848 0.32710
 C244 C -0.18114 0.02280 0.18191
 C245 C -0.08027 -0.07810 0.21961
 C246 C -0.07633 0.06665 0.27498
 C247 C 0.33963 0.52384 0.73207
 H248 H 0.33907 0.53302 0.75127
 C249 C 0.32539 0.53474 0.71127
 H250 H 0.31350 0.55209 0.71476
 C251 C 0.35651 0.49054 0.70403
 H252 H 0.36931 0.47385 0.70098
 C253 C 0.34260 0.50075 0.68275
 H254 H 0.34491 0.49166 0.66360
 N255 N 0.35492 0.50221 0.72808
 C256 C 0.37146 0.46663 0.80433
 H257 H 0.39267 0.46514 0.80230
 C258 C 0.35892 0.45664 0.82672
 H259 H 0.37072 0.44774 0.84201
 C260 C 0.33051 0.48040 0.78680
 H261 H 0.31954 0.48939 0.77102
 C262 C 0.31712 0.47067 0.80898
 H263 H 0.29582 0.47220 0.81004
 Zn264 Zn 0.37696 0.49049 0.75565
 N265 N 0.35724 0.47838 0.78504
 C266 C 0.39796 0.52799 0.79093
 N267 N 0.39848 0.51929 0.76562
 C268 C 0.41281 0.53205 0.74676
 C269 C 0.42748 0.55448 0.75312
 C270 C 0.41242 0.55019 0.79816
 C271 C 0.38416 0.43906 0.73901
 C272 C 0.39746 0.41687 0.72984
 C273 C 0.43829 0.44151 0.73139
 C274 C 0.42416 0.46328 0.74063
 N275 N 0.39752 0.46176 0.74385
 H276 H 0.38589 0.51813 0.80551
 H277 H 0.41251 0.52498 0.72668
 H278 H 0.43877 0.56443 0.73789
 H279 H 0.41128 0.55707 0.81830
 H280 H 0.36299 0.43839 0.74194
 H281 H 0.38629 0.39925 0.72541
 H282 H 0.45947 0.44302 0.72880
 H283 H 0.43446 0.48137 0.74507
 C284 C 0.33139 0.45853 0.82926
 C285 C 0.32705 0.52335 0.68611
 C286 C 0.42487 0.41795 0.72572
 C287 C 0.42734 0.56383 0.77914
 C288 C 0.67225 0.96871 0.72689
 H289 H 0.67248 0.96006 0.74636
 C290 C 0.68659 0.95704 0.70638
 H291 H 0.69824 0.93967 0.71035
 C292 C 0.65578 1.00116 0.69781
 H293 H 0.64299 1.01771 0.69420
 C294 C 0.66981 0.99020 0.67682
 H295 H 0.66763 0.99863 0.65737
 N296 N 0.65700 0.99020 0.72222
 C297 C 0.63625 1.02689 0.79706
 H298 H 0.61519 1.02802 0.79389
 C299 C 0.64701 1.03700 0.82006
 H300 H 0.63345 1.04500 0.83447
 C301 C 0.67834 1.01317 0.78210
 H302 H 0.69044 1.00410 0.76705
 C303 C 0.69005 1.02298 0.80499
 H304 H 0.71127 1.02169 0.80655
 Zn305 Zn 0.63375 1.00213 0.74902
 N306 N 0.65184 1.01508 0.77876
 C307 C 0.61407 0.96402 0.78435
 N308 N 0.61261 0.97299 0.75917
 C309 C 0.59852 0.95978 0.74067
 C310 C 0.58542 0.93634 0.74721
 C311 C 0.60140 0.94075 0.79168
 C312 C 0.62699 1.05291 0.73113
 C313 C 0.61425 1.07484 0.72083
 C314 C 0.57327 1.05039 0.72170
 C315 C 0.58688 1.02879 0.73201
 N316 N 0.61335 1.03035 0.73605
 H317 H 0.62581 0.97435 0.79868
 H318 H 0.59816 0.96701 0.72064
 H319 H 0.57489 0.92565 0.73213
 H320 H 0.60302 0.93386 0.81179
 H321 H 0.64796 1.05369 0.73493
 H322 H 0.62555 1.09258 0.71700
 H323 H 0.55233 1.04870 0.71794
 H324 H 0.57635 1.01079 0.73648
 C325 C 0.67442 1.03527 0.82464
 C326 C 0.68509 0.96755 0.68082
 C327 C 0.58711 1.07368 0.71564
 C328 C 0.58724 0.92634 0.77292
 C329 C 0.02419 0.22861 -0.16035
 H330 H 0.03479 0.24701 -0.16144
 C331 C 0.03374 0.20686 -0.17422
 H332 H 0.05158 0.20890 -0.18591
 C333 C -0.01192 0.20361 -0.14415
 H334 H -0.02978 0.20233 -0.13251
 C335 C -0.00306 0.18135 -0.15767
 H336 H -0.01395 0.16308 -0.15571
 N337 N 0.00219 0.22645 -0.14497
 C338 C -0.02086 0.30773 -0.13028
 H339 H -0.01675 0.30883 -0.10944
 C340 C -0.02958 0.33001 -0.14367
 H341 H -0.03239 0.34817 -0.13287
 C342 C -0.02312 0.28225 -0.16927
 H343 H -0.02072 0.26349 -0.17903
 C344 C -0.03197 0.30410 -0.18346
 H345 H -0.03607 0.30204 -0.20425
 Zn346 Zn -0.00759 0.25514 -0.12278
 N347 N -0.01806 0.28443 -0.14311
 C348 C 0.04154 0.27889 -0.11584
 N349 N 0.02215 0.26564 -0.10269
 C350 C 0.02414 0.26065 -0.07644
 C351 C 0.04678 0.26813 -0.06271
 C352 C 0.06445 0.28664 -0.10295
 C353 C -0.05959 0.25743 -0.10239
 C354 C -0.08159 0.24880 -0.08810
 C355 C -0.05494 0.21420 -0.06965
 C356 C -0.03348 0.22360 -0.08433
 N357 N -0.03618 0.24466 -0.10056
 H358 H 0.03907 0.28378 -0.13638
 H359 H 0.00834 0.25077 -0.06604
 H360 H 0.04827 0.26351 -0.04196
 H361 H 0.07954 0.29727 -0.11383
 H362 H -0.06149 0.27420 -0.11532
 H363 H -0.09923 0.26053 -0.08979
 H364 H -0.05169 0.19640 -0.05854
 H365 H -0.01481 0.21333 -0.08362
 C366 C -0.03548 0.32835 -0.17059
 C367 C 0.02046 0.18262 -0.17241
 C368 C -0.08007 0.22632 -0.07159
 C369 C 0.06745 0.28102 -0.07609
 C370 C 0.46352 0.22913 0.17060
 H371 H 0.45448 0.24841 0.17088
 C372 C 0.45168 0.20825 0.18424
 H373 H 0.43376 0.21174 0.19543
 C374 C 0.49730 0.20096 0.15478
 H375 H 0.51453 0.19790 0.14256
 C376 C 0.48616 0.17959 0.16813
 H377 H 0.49511 0.16036 0.16598
 N378 N 0.48579 0.22511 0.15604
 C379 C 0.52216 0.30129 0.13919
 H380 H 0.52490 0.29868 0.11821
 C381 C 0.53066 0.32441 0.15118
 H382 H 0.54027 0.33939 0.13932
 C383 C 0.50663 0.28454 0.18005
 H384 H 0.49724 0.26892 0.19115
 C385 C 0.51496 0.30744 0.19293
 H386 H 0.51170 0.30935 0.21393
 Zn387 Zn 0.49834 0.25265 0.13407
 N388 N 0.50999 0.28214 0.15356
 C389 C 0.46161 0.28822 0.11242
 N390 N 0.47002 0.26281 0.11214
 C391 C 0.45718 0.24411 0.09794
 C392 C 0.43492 0.25075 0.08321
 C393 C 0.43969 0.29573 0.09786
 C394 C 0.55002 0.23584 0.12761
 C395 C 0.57263 0.22706 0.11456
 C396 C 0.54887 0.22913 0.07353
 C397 C 0.52665 0.23795 0.08742
 N398 N 0.52757 0.24080 0.11402
 H399 H 0.47145 0.30269 0.12442
 H400 H 0.46397 0.22394 0.09844
 H401 H 0.42482 0.23565 0.07209
 H402 H 0.43304 0.31596 0.09881
 H403 H 0.55022 0.23849 0.14874
 H404 H 0.59009 0.22263 0.12588
 H405 H 0.54786 0.22696 0.05236
 H406 H 0.50875 0.24249 0.07694
 C407 C 0.52684 0.32788 0.17835
 C408 C 0.46279 0.18295 0.18275
 C409 C 0.57224 0.22349 0.08716
 C410 C 0.42594 0.27689 0.08311
 C411 C 0.96465 0.72449 0.66773
 H412 H 0.95518 0.74357 0.66777
 C413 C 0.95309 0.70344 0.68136
 H414 H 0.93495 0.70661 0.69229
 C415 C 0.99930 0.69700 0.65264
 H416 H 1.01681 0.69426 0.64072
 C417 C 0.98847 0.67547 0.66598
 H418 H 0.99790 0.65644 0.66414
 N419 N 0.98724 0.72089 0.65358
 C420 C 1.02255 0.79772 0.63769
 H421 H 1.02582 0.79522 0.61677
 C422 C 1.03040 0.82093 0.64996
 H423 H 1.04007 0.83609 0.63836
 C424 C 1.00635 0.78059 0.67814
 H425 H 0.99698 0.76477 0.68898
 C426 C 1.01403 0.80355 0.69128
 H427 H 1.01028 0.80533 0.71222
 Zn428 Zn 0.99975 0.74868 0.63191
 N429 N 1.01036 0.77834 0.65172
 C430 C 0.96308 0.78363 0.60923
 N431 N 0.97185 0.75834 0.60924
 C432 C 0.95970 0.73944 0.59468
 C433 C 0.93781 0.74576 0.57929
 C434 C 0.94152 0.79082 0.59400
 C435 C 1.05188 0.73294 0.62685
 C436 C 1.07502 0.72467 0.61441
 C437 C 1.05235 0.72628 0.57274
 C438 C 1.02959 0.73461 0.58602
 N439 N 1.02971 0.73745 0.61264
 H440 H 0.97234 0.79825 0.62149
 H441 H 0.96677 0.71937 0.59540
 H442 H 0.92824 0.73051 0.56790
 H443 H 0.93457 0.81096 0.59471
 H444 H 1.05144 0.73558 0.64798
 H445 H 1.09224 0.72059 0.62621
 H446 H 1.05198 0.72411 0.55155
 H447 H 1.01189 0.73878 0.57506
 C448 C 1.02592 0.82422 0.67704
 C449 C 0.96484 0.67841 0.68027
 C450 C 1.07545 0.72112 0.58701
 C451 C 0.92849 0.77177 0.57887
 C452 C 0.52519 0.73401 0.33183
 H453 H 0.53444 0.75319 0.33041
 C454 C 0.53557 0.71277 0.31766
 H455 H 0.55257 0.71588 0.30498
 C456 C 0.49238 0.70647 0.35083
 H457 H 0.47615 0.70377 0.36445
 C458 C 0.50205 0.68478 0.33703
 H459 H 0.49301 0.66570 0.34023
 N460 N 0.50408 0.73048 0.34816
 C461 C 0.47072 0.80771 0.36550
 H462 H 0.47010 0.80599 0.38673
 C463 C 0.46096 0.83026 0.35341
 H464 H 0.45221 0.84508 0.36597
 C465 C 0.48138 0.78895 0.32420
 H466 H 0.48935 0.77273 0.31294
 C467 C 0.47164 0.81116 0.31115
 H468 H 0.47324 0.81165 0.28993
 Zn469 Zn 0.49332 0.75854 0.37031
 N470 N 0.48096 0.78779 0.35091
 C471 C 0.53279 0.79345 0.38808
 N472 N 0.52301 0.76859 0.39045
 C473 C 0.53541 0.75020 0.40540
 C474 C 0.55856 0.75661 0.41881
 C475 C 0.55585 0.80065 0.40105
 C476 C 0.44197 0.74227 0.37910
 C477 C 0.42014 0.73242 0.39275
 C478 C 0.44547 0.73392 0.43285
 C479 C 0.46691 0.74380 0.41837
 N480 N 0.46492 0.74718 0.39188
 H481 H 0.52314 0.80764 0.37563
 H482 H 0.52757 0.73039 0.40647
 H483 H 0.56846 0.74162 0.43023
 H484 H 0.56324 0.82056 0.39890
 H485 H 0.44086 0.74552 0.35808
 H486 H 0.40214 0.72843 0.38210
 H487 H 0.44759 0.73048 0.45377
 H488 H 0.48519 0.74827 0.42822
 C489 C 0.46130 0.83259 0.32569
 C490 C 0.52417 0.68765 0.32046
 C491 C 0.42185 0.72765 0.41990
 C492 C 0.56921 0.78207 0.41645
 C493 C 0.35785 0.00366 0.24670
 C494 C 0.11757 1.00391 0.75284
 C495 C 0.62189 0.50717 0.25105
 C496 C 0.86130 0.49989 0.74837
 C497 C 0.24678 0.36725 0.00709
 C498 C 0.74704 0.12411 1.00652
 C499 C 0.25328 0.62445 0.50988
 C500 C 0.74994 0.86208 0.50272
 C501 C 0.00450 0.24739 0.36121
 C502 C 1.00740 0.74980 0.12215
 C503 C 0.50434 0.24807 0.61860
 C504 C 0.50686 0.74664 0.86064
 C505 C 0.43875 -0.09795 0.31482
 C506 C 0.42848 -0.09945 0.28946
 C507 C 0.43007 -0.12310 0.27550
 C508 C 0.44142 -0.14536 0.28708
 C509 C 0.45119 -0.14451 0.31312
 C510 C 0.45001 -0.12009 0.32651
 C511 C 0.41507 -0.07704 0.27851
 C512 C 0.40318 -0.05828 0.27021
 C513 C 0.38845 -0.03647 0.26138
 C514 C 0.37510 -0.01811 0.25446
 H515 H 0.43783 -0.07965 0.32575
 H516 H 0.42197 -0.12454 0.25588
 H517 H 0.44104 -0.16346 0.27591
 H518 H 0.45831 -0.11758 0.34589
 C519 C 0.92123 0.37068 0.78588
 C520 C 0.93054 0.39596 0.79173
 C521 C 0.95183 0.39906 0.80884
 C522 C 0.96340 0.37703 0.82053
 C523 C 0.95375 0.35156 0.81530
 C524 C 0.93278 0.34861 0.79754
 C525 C 0.91728 0.41873 0.78136
 C526 C 0.90555 0.43767 0.77322
 C527 C 0.89109 0.45959 0.76423
 C528 C 0.87805 0.47801 0.75691
 H529 H 0.90465 0.36806 0.77278
 H530 H 0.95920 0.41854 0.81352
 H531 H 0.97973 0.37992 0.83385
 H532 H 0.92468 0.32932 0.79336
 C533 C 0.02645 1.11610 0.79373
 C534 C 0.05367 1.11173 0.79517
 C535 C 0.07001 1.13079 0.80646
 C536 C 0.05923 1.15399 0.81655
 C537 C 0.03186 1.15852 0.81549
 C538 C 0.01558 1.13935 0.80383
 C539 C 0.06507 1.08762 0.78553
 C540 C 0.07555 1.06775 0.77783
 C541 C 0.08892 1.04498 0.76911
 C542 C 0.10130 1.02607 0.76176
 H543 H 0.01362 1.10149 0.78497
 H544 H 0.09110 1.12758 0.80777
 H545 H 0.07226 1.16809 0.82580
 H546 H -0.00551 1.14235 0.80250
 C547 C 0.57504 0.63798 0.29721
 C548 C 0.55896 0.61767 0.28782
 C549 C 0.53152 0.62079 0.28777
 C550 C 0.52019 0.64389 0.29763
 C551 C 0.53618 0.66417 0.30772
 C552 C 0.56377 0.66108 0.30707
 C553 C 0.57068 0.59333 0.27917
 C554 C 0.58108 0.57307 0.27242
 C555 C 0.59408 0.54967 0.26490
 C556 C 0.60606 0.53012 0.25863
 H557 H 0.59630 0.63574 0.29741
 H558 H 0.51888 0.60523 0.28049
 H559 H 0.49891 0.64580 0.29759
 H560 H 0.57661 0.67611 0.31504
 C561 C 0.55837 0.37573 0.22622
 C562 C 0.55496 0.39970 0.21301
 C563 C 0.54118 0.40032 0.18927
 C564 C 0.53142 0.37703 0.17840
 C565 C 0.53539 0.35273 0.19111
 C566 C 0.54856 0.35237 0.21538
 C567 C 0.56713 0.42338 0.22273
 C568 C 0.57812 0.44312 0.23004
 C569 C 0.59202 0.46590 0.23782
 C570 C 0.60488 0.48490 0.24399
 H571 H 0.56917 0.37500 0.24453
 H572 H 0.53845 0.41873 0.17886
 H573 H 0.52100 0.37799 0.15990
 H574 H 0.55209 0.33394 0.22550
 C575 C 0.05588 0.87219 0.72577
 C576 C 0.05246 0.89618 0.71260
 C577 C 0.03915 0.89676 0.68859
 C578 C 0.02988 0.87342 0.67743
 C579 C 0.03388 0.84911 0.69010
 C580 C 0.04656 0.84877 0.71464
 C581 C 0.06420 0.91992 0.72266
 C582 C 0.07486 0.93971 0.73030
 C583 C 0.08838 0.96254 0.73853
 C584 C 0.10095 0.98159 0.74514
 H585 H 0.06632 0.87150 0.74429
 H586 H 0.03643 0.91519 0.67821
 H587 H 0.01983 0.87434 0.65871
 H588 H 0.05010 0.83034 0.72473
 C589 C 0.91214 0.62893 0.70021
 C590 C 0.92728 0.60908 0.71178
 C591 C 0.95459 0.61240 0.71417
 C592 C 0.96677 0.63526 0.70458
 C593 C 0.95177 0.65510 0.69242
 C594 C 0.92426 0.65178 0.69062
 C595 C 0.91477 0.58505 0.72039
 C596 C 0.90374 0.56506 0.72714
 C597 C 0.89007 0.54196 0.73464
 C598 C 0.87760 0.52264 0.74088
 H599 H 0.89100 0.62653 0.69818
 H600 H 0.96649 0.59719 0.72315
 H601 H 0.98794 0.63736 0.70652
 H602 H 0.91221 0.66646 0.68101
 C603 C 0.45124 0.11666 0.21568
 C604 C 0.42385 0.11400 0.21342
 C605 C 0.40908 0.13443 0.20239
 C606 C 0.42166 0.15718 0.19314
 C607 C 0.44926 0.15981 0.19475
 C608 C 0.46388 0.13941 0.20643
 C609 C 0.41091 0.08999 0.22145
 C610 C 0.39968 0.06993 0.22765
 C611 C 0.38596 0.04663 0.23446
 C612 C 0.37366 0.02701 0.24004
 H613 H 0.46287 0.10099 0.22423
 H614 H 0.38788 0.13254 0.20045
 H615 H 0.40988 0.17230 0.18390
 H616 H 0.48511 0.14096 0.20821
 C617 C 0.28524 0.45145 -0.11178
 C618 C 0.29387 0.42758 -0.10106
 C619 C 0.31417 0.41359 -0.11349
 C620 C 0.32607 0.42350 -0.13631
 C621 C 0.31785 0.44763 -0.14708
 C622 C 0.29713 0.46142 -0.13470
 C623 C 0.28222 0.41721 -0.07727
 C624 C 0.27322 0.40753 -0.05746
 C625 C 0.26346 0.39497 -0.03457
 C626 C 0.25567 0.38312 -0.01544
 H627 H 0.26952 0.46243 -0.10231
 H628 H 0.32090 0.39502 -0.10546
 H629 H 0.34166 0.41221 -0.14561
 H630 H 0.29054 0.48015 -0.14241
 C631 C 0.78712 0.95297 0.38838
 C632 C 0.79475 0.92785 0.39677
 C633 C 0.81331 0.91363 0.38210
 C634 C 0.82445 0.92448 0.35933
 C635 C 0.81722 0.94983 0.35086
 C636 C 0.79825 0.96390 0.36551
 C637 C 0.78381 0.91637 0.42039
 C638 C 0.77534 0.90568 0.43991
 C639 C 0.76608 0.89192 0.46231
 C640 C 0.75861 0.87907 0.48093
 H641 H 0.77274 0.96415 0.39959
 H642 H 0.81925 0.89411 0.38831
 H643 H 0.83863 0.91296 0.34825
 H644 H 0.79244 0.98352 0.35958
 C645 C 0.78794 0.07205 1.13654
 C646 C 0.78411 0.05691 1.11395
 C647 C 0.79020 0.03012 1.11429
 C648 C 0.80083 0.01864 1.13688
 C649 C 0.80581 0.03380 1.15973
 C650 C 0.79853 0.06070 1.15919
 C651 C 0.77515 0.06927 1.09012
 C652 C 0.76823 0.08034 1.07034
 C653 C 0.76065 0.09428 1.04757
 C654 C 0.75443 0.10715 1.02864
 H655 H 0.78341 0.09290 1.13643
 H656 H 0.78703 0.01812 1.09697
 H657 H 0.80463 -0.00228 1.13629
 H658 H 0.80241 0.07372 1.17552
 C659 C 0.30401 0.57495 0.63742
 C660 C 0.29317 0.55929 0.61758
 C661 C 0.29226 0.53191 0.62066
 C662 C 0.30263 0.52021 0.64327
 C663 C 0.31408 0.53577 0.66309
 C664 C 0.31438 0.56331 0.66003
 C665 C 0.28380 0.57140 0.59379
 C666 C 0.27643 0.58217 0.57401
 C667 C 0.26822 0.59566 0.55119
 C668 C 0.26142 0.60809 0.53217
 H669 H 0.30489 0.59616 0.63520
 H670 H 0.28386 0.51960 0.60545
 H671 H 0.30185 0.49899 0.64518
 H672 H 0.32340 0.57582 0.67470
 C673 C 0.22032 0.54124 0.38913
 C674 C 0.21102 0.56460 0.40049
 C675 C 0.19095 0.57878 0.38817
 C676 C 0.17989 0.56952 0.36486
 C677 C 0.18872 0.54585 0.35348
 C678 C 0.20926 0.53192 0.36570
 C679 C 0.22171 0.57433 0.42480
 C680 C 0.22980 0.58369 0.44500
 C681 C 0.23847 0.59613 0.46823
 C682 C 0.24536 0.60811 0.48749
 H683 H 0.23588 0.53014 0.39849
 H684 H 0.18372 0.59697 0.39667
 H685 H 0.16442 0.58091 0.35570
 H686 H 0.21631 0.51355 0.35750
 C687 C 0.68314 0.07497 0.88620
 C688 C 0.70662 0.06472 0.89601
 C689 C 0.71995 0.04512 0.88197
 C690 C 0.70965 0.03559 0.85828
 C691 C 0.68559 0.04540 0.84821
 C692 C 0.67275 0.06554 0.86266
 C693 C 0.71687 0.07481 0.92037
 C694 C 0.72459 0.08428 0.94066
 C695 C 0.73284 0.09663 0.96410
 C696 C 0.73941 0.10834 0.98363
 H697 H 0.67285 0.09047 0.89670
 H698 H 0.73819 0.03702 0.88942
 H699 H 0.72016 0.01973 0.84871
 H700 H 0.65507 0.07495 0.85556
 C701 C 0.71828 0.95580 0.61459
 C702 C 0.71636 0.92840 0.61245
 C703 C 0.70571 0.91370 0.63330
 C704 C 0.69639 0.92636 0.65594
 C705 C 0.69755 0.95397 0.65801
 C706 C 0.70896 0.96852 0.63723
 C707 C 0.72427 0.91537 0.58850
 C708 C 0.73039 0.90409 0.56850
 C709 C 0.73718 0.89033 0.54529
 C710 C 0.74289 0.87798 0.52580
 H711 H 0.72655 0.96737 0.59860
 H712 H 0.70405 0.89248 0.63182
 H713 H 0.68736 0.91462 0.67138
 H714 H 0.71039 0.98977 0.63834
 C715 C 0.22487 0.43814 0.13592
 C716 C 0.21005 0.43821 0.11275
 C717 C 0.18563 0.45096 0.11225
 C718 C 0.17589 0.46335 0.13483
 C719 C 0.19046 0.46320 0.15834
 C720 C 0.21515 0.45055 0.15859
 C721 C 0.21917 0.42429 0.08977
 C722 C 0.22611 0.41221 0.07051
 C723 C 0.23360 0.39747 0.04814
 C724 C 0.23965 0.38424 0.02934
 H725 H 0.24378 0.42826 0.13654
 H726 H 0.17389 0.45096 0.09451
 H727 H 0.15660 0.47243 0.13407
 H728 H 0.22691 0.45027 0.17630
 C729 C -0.12620 0.28020 0.42393
 C730 C -0.10138 0.29159 0.42807
 C731 C -0.09924 0.31429 0.44348
 C732 C -0.12183 0.32589 0.45426
 C733 C -0.14694 0.31497 0.44971
 C734 C -0.14886 0.29176 0.43474
 C735 C -0.07828 0.28094 0.41535
 C736 C -0.05899 0.27265 0.40410
 C737 C -0.03660 0.26353 0.39018
 C738 C -0.01779 0.25611 0.37756
 H739 H -0.12810 0.26270 0.41190
 H740 H -0.08014 0.32328 0.44681
 H741 H -0.11968 0.34352 0.46603
 H742 H -0.16792 0.28305 0.43069
 C743 C 0.37648 0.77911 0.92466
 C744 C 0.40121 0.79101 0.92783
 C745 C 0.40337 0.81419 0.94250
 C746 C 0.38086 0.82576 0.95351
 C747 C 0.35582 0.81431 0.94993
 C748 C 0.35391 0.79064 0.93569
 C749 C 0.42417 0.78031 0.91490
 C750 C 0.44335 0.77196 0.90350
 C751 C 0.46564 0.76278 0.88947
 C752 C 0.48445 0.75533 0.87684
 H753 H 0.37456 0.76123 0.91321
 H754 H 0.42240 0.82358 0.94508
 H755 H 0.38302 0.84376 0.96469
 H756 H 0.33489 0.78150 0.93238
 C757 C 1.12169 0.78596 0.03119
 C758 C 1.11792 0.78731 0.05847
 C759 C 1.13742 0.79860 0.07427
 C760 C 1.16034 0.80902 0.06283
 C761 C 1.16407 0.80834 0.03537
 C762 C 1.14462 0.79637 0.01970
 C763 C 1.09367 0.77814 0.07030
 C764 C 1.07345 0.77105 0.08080
 C765 C 1.05004 0.76332 0.09395
 C766 C 1.03046 0.75707 0.10610
 H767 H 1.10675 0.77722 0.01878
 H768 H 1.13465 0.79984 0.09541
 H769 H 1.17471 0.81843 0.07541
 H770 H 1.14705 0.79528 -0.00147
 C771 C 0.61725 0.28956 0.52797
 C772 C 0.61370 0.28939 0.55532
 C773 C 0.63353 0.29937 0.57158
 C774 C 0.65659 0.30994 0.56057
 C775 C 0.66015 0.31071 0.53308
 C776 C 0.64032 0.30013 0.51690
 C777 C 0.58948 0.27978 0.56683
 C778 C 0.56936 0.27218 0.57718
 C779 C 0.54619 0.26366 0.59026
 C780 C 0.52690 0.25657 0.60242
 H781 H 0.60206 0.28183 0.51520
 H782 H 0.63096 0.29941 0.59277
 H783 H 0.67126 0.31827 0.57355
 H784 H 0.64260 0.30017 0.49569
 C785 C 0.37260 0.22135 0.55669
 C786 C 0.39665 0.20813 0.55351
 C787 C 0.39734 0.18393 0.54041
 C788 C 0.37404 0.17263 0.53115
 C789 C 0.34965 0.18536 0.53492
 C790 C 0.34923 0.21008 0.54737
 C791 C 0.42033 0.21833 0.56527
 C792 C 0.44006 0.22604 0.57595
 C793 C 0.46287 0.23425 0.58948
 C794 C 0.48193 0.24073 0.60203
 H795 H 0.37182 0.24001 0.56697
 H796 H 0.41582 0.17351 0.53787
 H797 H 0.37504 0.15377 0.52127
 H798 H 0.33074 0.22023 0.55075
 C799 C 0.88763 0.71704 0.03751
 C800 C 0.89815 0.70815 0.06134
 C801 C 0.88480 0.68884 0.07591
 C802 C 0.86130 0.67809 0.06658
 C803 C 0.85075 0.68648 0.04245
 C804 C 0.86400 0.70629 0.02812
 C805 C 0.92263 0.71851 0.07118
 C806 C 0.94290 0.72638 0.08069
 C807 C 0.96611 0.73486 0.09335
 C808 C 0.98526 0.74172 0.10555
 H809 H 0.89778 0.73203 0.02610
 H810 H 0.89265 0.68195 0.09447
 H811 H 0.85134 0.66319 0.07828
 H812 H 0.85644 0.71298 0.00939
 C813 C 0.63537 0.72337 0.93137
 C814 C 0.61172 0.70903 0.93170
 C815 C 0.61039 0.68496 0.94503
 C816 C 0.63261 0.67510 0.95776
 C817 C 0.65658 0.68920 0.95740
 C818 C 0.65768 0.71353 0.94414
 C819 C 0.58904 0.71833 0.91757
 C820 C 0.56998 0.72543 0.90540
 C821 C 0.54778 0.73311 0.89064
 C822 C 0.52908 0.73933 0.87748
 H823 H 0.63663 0.74202 0.92106
 H824 H 0.59227 0.67359 0.94523
 H825 H 0.63120 0.65608 0.96733
 H826 H 0.67576 0.72494 0.94367
 C827 C 0.13371 0.22095 0.42924
 C828 C 0.10956 0.20752 0.43069
 C829 C 0.10772 0.18393 0.44479
 C830 C 0.12992 0.17364 0.45723
 C831 C 0.15436 0.18684 0.45579
 C832 C 0.15600 0.21067 0.44170
 C833 C 0.08682 0.21729 0.41696
 C834 C 0.06771 0.22480 0.40514
 C835 C 0.04544 0.23298 0.39076
 C836 C 0.02670 0.23961 0.37785
 H837 H 0.13536 0.23921 0.41831
 H838 H 0.08919 0.17326 0.44586
 H839 H 0.12807 0.15501 0.46746
 H840 H 0.17446 0.22139 0.44040
 C841 C 0.53646 0.12673 0.70097
 C842 C 0.54944 0.14098 0.68110
 C843 C 0.57432 0.13290 0.67222
 C844 C 0.58635 0.11087 0.68328
 C845 C 0.57368 0.09656 0.70348
 C846 C 0.54849 0.10458 0.71209
 C847 C 0.53763 0.16400 0.66965
 C848 C 0.52876 0.18337 0.65928
 C849 C 0.51945 0.20601 0.64621
 C850 C 0.51227 0.22517 0.63422
 H851 H 0.51717 0.13283 0.70798
 H852 H 0.58448 0.14368 0.65674
 H853 H 0.60553 0.10492 0.67591
 H854 H 0.53835 0.09407 0.72774
 C855 C 1.06242 0.64871 0.21516
 C856 C 1.04494 0.64562 0.19420
 C857 C 1.03822 0.62033 0.18557
 C858 C 1.04954 0.59820 0.19735
 C859 C 1.06785 0.60115 0.21783
 C860 C 1.07378 0.62663 0.22694
 C861 C 1.03544 0.66839 0.18034
 C862 C 1.02825 0.68738 0.16810
 C863 C 1.02057 0.70937 0.15302
 C864 C 1.01446 0.72785 0.13947
 H865 H 1.06778 0.66819 0.22199
 H866 H 1.02482 0.61773 0.16925
 H867 H 1.04482 0.57888 0.18971
 H868 H 1.08753 0.62950 0.24290
 C869 C 0.97249 0.87122 0.20340
 C870 C 0.95916 0.85523 0.18540
 C871 C 0.93319 0.86118 0.17845
 C872 C 0.92050 0.88291 0.18951
 C873 C 0.93359 0.89904 0.20776
 C874 C 0.95980 0.89306 0.21451
 C875 C 0.97182 0.83273 0.17373
 C876 C 0.98139 0.81373 0.16320
 C877 C 0.99143 0.79147 0.14997
 C878 C 0.99911 0.77254 0.13787
 H879 H 0.99262 0.86678 0.20890
 H880 H 0.92274 0.84903 0.16442
 H881 H 0.90050 0.88726 0.18354
 H882 H 0.97030 0.90500 0.22866
 C883 C 0.47014 0.37624 0.68313
 C884 C 0.46270 0.35078 0.69081
 C885 C 0.44399 0.34730 0.71092
 C886 C 0.43225 0.36917 0.72285
 C887 C 0.43904 0.39483 0.71475
 C888 C 0.45844 0.39814 0.69506
 C889 C 0.47297 0.32831 0.67693
 C890 C 0.48089 0.30959 0.66467
 C891 C 0.48950 0.28792 0.64956
 C892 C 0.49641 0.26971 0.63597
 H893 H 0.48449 0.37915 0.66747
 H894 H 0.43807 0.32769 0.71700
 H895 H 0.41765 0.36600 0.73820
 H896 H 0.46385 0.41763 0.68819
 C897 C 0.46690 0.61320 0.81854
 C898 C 0.46535 0.63564 0.80262
 C899 C 0.45265 0.63424 0.77828
 C900 C 0.44098 0.61061 0.77017
 C901 C 0.44176 0.58818 0.78644
 C902 C 0.45522 0.58964 0.81052
 C903 C 0.47537 0.66034 0.81223
 C904 C 0.48323 0.68073 0.82146
 C905 C 0.49188 0.70414 0.83362
 C906 C 0.49885 0.72366 0.84517
 H907 H 0.47666 0.61407 0.83742
 H908 H 0.45120 0.65153 0.76587
 H909 H 0.43052 0.61016 0.75167
 H910 H 0.45643 0.57261 0.82330
 C911 C -0.05005 0.11931 0.32073
 C912 C -0.03951 0.13759 0.30288
 C913 C -0.04020 0.13235 0.27585
 C914 C -0.05172 0.10905 0.26669
 C915 C -0.06270 0.09071 0.28451
 C916 C -0.06155 0.09606 0.31165
 C917 C -0.02878 0.16194 0.31258
 C918 C -0.02038 0.18212 0.32180
 C919 C -0.01119 0.20533 0.33394
 C920 C -0.00383 0.22468 0.34554
 H921 H -0.04973 0.12323 0.34169
 H922 H -0.03208 0.14636 0.26186
 H923 H -0.05205 0.10538 0.24570
 H924 H -0.07020 0.08261 0.32586
 C925 C 0.03692 0.37186 0.28380
 C926 C 0.05146 0.35388 0.29874
 C927 C 0.07749 0.35975 0.30558
 C928 C 0.08882 0.38369 0.29808
 C929 C 0.07424 0.40220 0.28363
 C930 C 0.04830 0.39589 0.27616
 C931 C 0.03951 0.33010 0.30868
 C932 C 0.03037 0.31044 0.31848
 C933 C 0.02062 0.28789 0.33160
 C934 C 0.01299 0.26920 0.34420
 H935 H 0.01669 0.36757 0.27853
 H936 H 0.08892 0.34600 0.31716
 H937 H 0.10899 0.38781 0.30371
 H938 H 0.03659 0.40983 0.26514
 C939 C 0.53869 0.86959 0.78028
 C940 C 0.55298 0.85245 0.79641
 C941 C 0.57866 0.85903 0.80389
 C942 C 0.58987 0.88284 0.79581
 C943 C 0.57552 0.90051 0.78014
 C944 C 0.54995 0.89348 0.77206
 C945 C 0.54114 0.82881 0.80679
 C946 C 0.53215 0.80927 0.81696
 C947 C 0.52260 0.78689 0.83049
 C948 C 0.51515 0.76832 0.84339
 H949 H 0.51872 0.86474 0.77450
 H950 H 0.58989 0.84593 0.81636
 H951 H 0.60977 0.88749 0.80193
 H952 H 0.53844 0.90678 0.76008
 C953 C 0.68889 0.53484 0.12054
 C954 C 0.69105 0.54712 0.14499
 C955 C 0.70512 0.57061 0.14711
 C956 C 0.71634 0.58231 0.12480
 C957 C 0.71365 0.57091 0.09941
 C958 C 0.70014 0.54638 0.09807
 C959 C 0.67761 0.53660 0.16775
 C960 C 0.66581 0.52876 0.18690
 C961 C 0.65134 0.52056 0.20929
 C962 C 0.63839 0.51422 0.22829
 H963 H 0.67782 0.51667 0.11867
 H964 H 0.70724 0.58012 0.16607
 H965 H 0.72781 0.59991 0.12814
 H966 H 0.69637 0.53658 0.07963
 C967 C 0.17514 1.07449 0.63823
 C968 C 0.18241 1.04918 0.64619
 C969 C 0.20116 1.03509 0.63155
 C970 C 0.21264 1.04635 0.60903
 C971 C 0.20551 1.07187 0.60096
 C972 C 0.18656 1.08576 0.61580
 C973 C 0.17024 1.03786 0.66927
 C974 C 0.15933 1.02917 0.68858
 C975 C 0.14574 1.01981 0.71107
 C976 C 0.13342 1.01238 0.73009
 H977 H 0.16053 1.08551 0.64931
 H978 H 0.20691 1.01546 0.63755
 H979 H 0.22731 1.03526 0.59813
 H980 H 0.18029 1.10523 0.60986
 C981 C 0.20178 0.97104 0.87174
 C982 C 0.18931 0.95604 0.85248
 C983 C 0.18930 0.92869 0.85441
 C984 C 0.20143 0.91623 0.87560
 C985 C 0.21409 0.93085 0.89577
 C986 C 0.21401 0.95873 0.89307
 C987 C 0.17563 0.96845 0.83108
 C988 C 0.16346 0.97786 0.81310
 C989 C 0.14840 0.98782 0.79209
 C990 C 0.13485 0.99551 0.77426
 H991 H 0.20206 0.99233 0.87031
 H992 H 0.17936 0.91686 0.83974
 H993 H 0.19915 0.89511 0.87643
 H994 H 0.22417 0.97150 0.90664
 C995 C 0.71259 0.44601 0.34984
 C996 C 0.69250 0.46444 0.35393
 C997 C 0.68472 0.47095 0.37960
 C998 C 0.69651 0.45857 0.40111
 C999 C 0.71616 0.43942 0.39717
 C1000 C 0.72438 0.43359 0.37130
 C1001 C 0.67871 0.47529 0.33178
 C1002 C 0.66659 0.48358 0.31321
 C1003 C 0.65178 0.49244 0.29154
 C1004 C 0.63859 0.49939 0.27315
 H1005 H 0.71874 0.44080 0.33005
 H1006 H 0.66907 0.48508 0.38298
 H1007 H 0.68956 0.46325 0.42076
 H1008 H 0.73970 0.41919 0.36766
 C1009 C 0.77830 0.44605 0.63626
 C1010 C 0.80304 0.45828 0.63779
 C1011 C 0.81923 0.45975 0.61540
 C1012 C 0.81107 0.44849 0.59175
 C1013 C 0.78657 0.43553 0.59015
 C1014 C 0.77005 0.43481 0.61254
 C1015 C 0.81270 0.46803 0.66251
 C1016 C 0.82200 0.47578 0.68286
 C1017 C 0.83423 0.48443 0.70618
 C1018 C 0.84583 0.49153 0.72558
 H1019 H 0.76567 0.44469 0.65351
 H1020 H 0.83841 0.46917 0.61635
 H1021 H 0.82405 0.44966 0.57475
 H1022 H 0.75120 0.42474 0.61197
 C1023 C 0.31741 -0.03611 0.11298
 C1024 C 0.30121 -0.03803 0.13532
 C1025 C 0.27697 -0.05122 0.13380
 C1026 C 0.26928 -0.06300 0.11015
 C1027 C 0.28586 -0.06186 0.08782
 C1028 C 0.30981 -0.04791 0.08939
 C1029 C 0.31045 -0.02793 0.16007
 C1030 C 0.31940 -0.02001 0.18052
 C1031 C 0.33126 -0.01132 0.20402
 C1032 C 0.34259 -0.00433 0.22362
 H1033 H 0.33622 -0.02597 0.11394
 H1034 H 0.26434 -0.05297 0.15102
 H1035 H 0.25086 -0.07384 0.10962
 H1036 H 0.32282 -0.04640 0.07244
 C1037 C 0.26942 0.05147 0.35852
 C1038 C 0.29337 0.03784 0.35692
 C1039 C 0.30858 0.03440 0.37953
 C1040 C 0.30044 0.04534 0.40344
 C1041 C 0.27693 0.05993 0.40507
 C1042 C 0.26116 0.06237 0.38251
 C1043 C 0.30368 0.02925 0.33189
 C1044 C 0.31381 0.02269 0.31138
 C1045 C 0.32736 0.01563 0.28807
 C1046 C 0.34035 0.01004 0.26889
 H1047 H 0.25757 0.05439 0.34110
 H1048 H 0.32718 0.02394 0.37851
 H1049 H 0.31282 0.04290 0.42056
 H1050 H 0.24310 0.07372 0.38313
 C1051 C 0.80346 0.57236 0.85899
 C1052 C 0.79676 0.54616 0.85383
 C1053 C 0.78153 0.53195 0.87210
 C1054 C 0.77348 0.54383 0.89572
 C1055 C 0.78085 0.56995 0.90132
 C1056 C 0.79557 0.58418 0.88251
 C1057 C 0.80713 0.53380 0.83049
 C1058 C 0.81734 0.52455 0.81110
 C1059 C 0.83094 0.51493 0.78879
 C1060 C 0.84393 0.50765 0.77020
 H1061 H 0.81525 0.58354 0.84500
 H1062 H 0.77635 0.51159 0.86836
 H1063 H 0.76225 0.53240 0.90992
 H1064 H 0.80114 0.60446 0.88608
 C1065 C 0.14768 0.70993 0.57039
 C1066 C 0.14595 0.69035 0.55113
 C1067 C 0.12116 0.68175 0.54264
 C1068 C 0.09817 0.69227 0.55378
 C1069 C 0.09972 0.71147 0.57366
 C1070 C 0.12474 0.72046 0.58156
 C1071 C 0.16953 0.67799 0.54123
 C1072 C 0.18914 0.66696 0.53349
 C1073 C 0.21180 0.65322 0.52497
 C1074 C 0.23080 0.64070 0.51802
 H1075 H 0.16677 0.71672 0.57711
 H1076 H 0.11960 0.66648 0.52785
 H1077 H 0.07923 0.68474 0.54750
 H1078 H 0.12657 0.73548 0.59656
 C1079 C 0.64376 0.21090 1.06854
 C1080 C 0.64112 0.19137 1.04933
 C1081 C 0.61594 0.18324 1.04155
 C1082 C 0.59347 0.19420 1.05333
 C1083 C 0.59595 0.21335 1.07316
 C1084 C 0.62135 0.22185 1.08036
 C1085 C 0.66420 0.17858 1.03879
 C1086 C 0.68347 0.16725 1.03062
 C1087 C 0.70582 0.15322 1.02173
 C1088 C 0.72464 0.14051 1.01462
 H1089 H 0.66316 0.21732 1.07472
 H1090 H 0.61367 0.16802 1.02681
 H1091 H 0.57422 0.18704 1.04757
 H1092 H 0.62389 0.23682 1.09529
 C1093 C 0.87788 0.18692 0.97419
 C1094 C 0.85272 0.19315 0.96521
 C1095 C 0.84985 0.21132 0.94486
 C1096 C 0.87204 0.22281 0.93303
 C1097 C 0.89803 0.21630 0.94114
 C1098 C 0.90021 0.19831 0.96247
 C1099 C 0.82989 0.17982 0.97578
 C1100 C 0.81076 0.16810 0.98385
 C1101 C 0.78847 0.15370 0.99246
 C1102 C 0.76960 0.14073 0.99915
 H1103 H 0.88032 0.17301 0.99018
 H1104 H 0.83040 0.21608 0.93753
 H1105 H 0.86820 0.23539 0.91636
 H1106 H 0.91896 0.19330 0.97108
 C1107 C 0.36365 0.68322 0.43550
 C1108 C 0.35633 0.69181 0.46065
 C1109 C 0.37057 0.71207 0.47276
 C1110 C 0.39202 0.72376 0.45964
 C1111 C 0.39935 0.71534 0.43423
 C1112 C 0.38498 0.69485 0.42240
 C1113 C 0.33423 0.67951 0.47371
 C1114 C 0.31562 0.66830 0.48352
 C1115 C 0.29386 0.65416 0.49378
 C1116 C 0.27540 0.64121 0.50156
 H1117 H 0.35287 0.66746 0.42602
 H1118 H 0.36506 0.71886 0.49225
 H1119 H 0.40259 0.73962 0.46917
 H1120 H 0.39042 0.68757 0.40308
 C1121 C 0.63656 0.81236 0.42777
 C1122 C 0.64162 0.80482 0.45373
 C1123 C 0.62336 0.78909 0.46739
 C1124 C 0.59992 0.78123 0.45518
 C1125 C 0.59447 0.78922 0.42925
 C1126 C 0.61320 0.80462 0.41560
 C1127 C 0.66511 0.81435 0.46637
 C1128 C 0.68475 0.82350 0.47603
 C1129 C 0.70759 0.83553 0.48630
 C1130 C 0.72689 0.84691 0.49420
 H1131 H 0.65056 0.82451 0.41701
 H1132 H 0.62704 0.78323 0.48754
 H1133 H 0.58579 0.76951 0.46621
 H1134 H 0.60979 0.81069 0.39547
 C1135 C 0.11384 0.30882 -0.02467
 C1136 C 0.13825 0.30653 -0.03756
 C1137 C 0.13962 0.29495 -0.06250
 C1138 C 0.11665 0.28617 -0.07477
 C1139 C 0.09193 0.28891 -0.06226
 C1140 C 0.09080 0.29999 -0.03690
 C1141 C 0.16170 0.31753 -0.02609
 C1142 C 0.18137 0.32750 -0.01732
 C1143 C 0.20429 0.34012 -0.00799
 C1144 C 0.22367 0.35182 -0.00077
 H1145 H 0.11254 0.31793 -0.00543
 H1146 H 0.15839 0.29313 -0.07268
 H1147 H 0.11819 0.27736 -0.09412
 H1148 H 0.07205 0.30258 -0.02689
 C1149 C 0.37749 0.31730 0.04375
 C1150 C 0.35446 0.30221 0.04617
 C1151 C 0.35521 0.27787 0.05911
 C1152 C 0.37878 0.26902 0.07027
 C1153 C 0.40177 0.28458 0.06875
 C1154 C 0.40098 0.30857 0.05494
 C1155 C 0.32991 0.31285 0.03694
 C1156 C 0.30984 0.32318 0.02968
 C1157 C 0.28709 0.33688 0.02163
 C1158 C 0.26840 0.34989 0.01498
 H1159 H 0.37713 0.33617 0.03379
 H1160 H 0.33746 0.26610 0.06121
 H1161 H 0.37876 0.25059 0.08101
 H1162 H 0.41845 0.32079 0.05320
 C1163 C 0.88073 0.81162 0.53817
 C1164 C 0.85773 0.79643 0.54023
 C1165 C 0.85837 0.77211 0.55323
 C1166 C 0.88177 0.76344 0.56487
 C1167 C 0.90467 0.77914 0.56380
 C1168 C 0.90403 0.80305 0.54985
 C1169 C 0.83324 0.80707 0.53085
 C1170 C 0.81320 0.81748 0.52364
 C1171 C 0.79043 0.83132 0.51588
 C1172 C 0.77168 0.84448 0.50972
 H1173 H 0.88045 0.83049 0.52819
 H1174 H 0.84064 0.76028 0.55509
 H1175 H 0.88164 0.74506 0.57571
 H1176 H 0.92145 0.81539 0.54845
   
