data_POSCAR
  _audit_creation_date              2014-09-24
  _audit_creation_method            'ToBaCCo'
  _symmetry_space_group_name_H-M    'P1'
  _symmetry_Int_Tables_number       1
  _symmetry_cell_setting            triclinic
  loop_
  _symmetry_equiv_pos_as_xyz
 x,y,z
_cell_length_a 40.8932
_cell_length_b 40.8543
_cell_length_c 13.9563
_cell_angle_alpha 89.923700
_cell_angle_beta 90.045200
_cell_angle_gamma 119.935900
loop_
  _atom_site_label
  _atom_site_type_symbol
  _atom_site_fract_x
  _atom_site_fract_y
  _atom_site_fract_z
O1 O 0.19879 0.46273 0.40888
 O2 O 0.26329 0.46207 0.59104
 O3 O 0.19925 0.46249 0.59303
 O4 O 0.26268 0.46259 0.40751
 O5 O 0.29434 0.52493 0.40802
 O6 O 0.22996 0.52483 0.59338
 O7 O 0.29371 0.52430 0.59495
 O8 O 0.23023 0.52505 0.40734
 Cu9 Cu 0.22787 0.45627 0.50014
 Cu10 Cu 0.26526 0.53106 0.50095
 C11 C 0.20299 0.49386 0.37803
 C12 C 0.29000 0.49299 0.62325
 C13 C 0.20307 0.49352 0.62323
 C14 C 0.28986 0.49364 0.37762
 O15 O 0.53783 -0.26538 0.40674
 O16 O 0.53956 -0.20018 0.59055
 O17 O 0.53842 -0.26489 0.59029
 O18 O 0.53948 -0.20054 0.40541
 O19 O 0.47723 -0.23074 0.40458
 O20 O 0.47626 -0.29446 0.59352
 O21 O 0.47732 -0.23003 0.59132
 O22 O 0.47565 -0.29554 0.40690
 Cu23 Cu 0.54502 -0.22966 0.49821
 Cu24 Cu 0.47036 -0.26569 0.49911
 C25 C 0.50652 -0.29217 0.37659
 C26 C 0.50880 -0.20358 0.62154
 C27 C 0.50725 -0.29117 0.62254
 C28 C 0.50865 -0.20429 0.37400
 O29 O 1.20025 0.73725 0.58792
 O30 O 1.26505 0.80176 0.40512
 O31 O 1.20086 0.73787 0.40412
 O32 O 1.26414 0.80112 0.59002
 O33 O 1.29541 0.77006 0.59071
 O34 O 1.23144 0.70609 0.40416
 O35 O 1.29557 0.77003 0.40351
 O36 O 1.23132 0.70597 0.59003
 Cu37 Cu 1.22958 0.77270 0.49668
 Cu38 Cu 1.26667 0.73498 0.49714
 C39 C 1.20416 0.71015 0.61890
 C40 C 1.29173 0.79734 0.37349
 C41 C 1.20461 0.71060 0.37411
 C42 C 1.29092 0.79684 0.62132
 O43 O 0.80110 0.54065 0.40905
 O44 O 0.73579 0.53979 0.59147
 O45 O 0.80044 0.54104 0.59387
 O46 O 0.73694 0.53994 0.40665
 O47 O 0.70618 0.47762 0.40698
 O48 O 0.77031 0.47872 0.59464
 O49 O 0.70584 0.47757 0.59384
 O50 O 0.77047 0.47833 0.40799
 Cu51 Cu 0.77158 0.54656 0.50030
 Cu52 Cu 0.73513 0.47179 0.50093
 C53 C 0.79724 0.50970 0.37792
 C54 C 0.70930 0.50860 0.62335
 C55 C 0.79672 0.51018 0.62518
 C56 C 0.71039 0.50872 0.37565
 O57 O 0.46158 0.26160 0.40901
 O58 O 0.46261 0.19734 0.59216
 O59 O 0.46108 0.26073 0.59401
 O60 O 0.46233 0.19801 0.40841
 O61 O 0.52461 0.22953 0.40829
 O62 O 0.52333 0.29289 0.59468
 O63 O 0.52478 0.22953 0.59442
 O64 O 0.52382 0.29328 0.40779
 Cu65 Cu 0.45571 0.22632 0.50095
 Cu66 Cu 0.53040 0.26459 0.50133
 C67 C 0.49245 0.28866 0.37768
 C68 C 0.49380 0.20182 0.62343
 C69 C 0.49187 0.28791 0.62506
 C70 C 0.49353 0.20237 0.37818
 O71 O 0.73725 0.19998 0.41091
 O72 O 0.80193 0.26502 0.59299
 O73 O 0.73822 0.20076 0.59460
 O74 O 0.80104 0.26395 0.40805
 O75 O 0.76998 0.29524 0.40766
 O76 O 0.70646 0.23138 0.59519
 O77 O 0.77022 0.29556 0.59486
 O78 O 0.70595 0.23104 0.40916
 Cu79 Cu 0.77282 0.22944 0.50168
 Cu80 Cu 0.73509 0.26653 0.50166
 C81 C 0.71010 0.20384 0.38026
 C82 C 0.79753 0.29172 0.62471
 C83 C 0.71106 0.20456 0.62510
 C84 C 0.79671 0.29073 0.37679
 O85 O 1.05253 0.58443 0.17235
 O86 O 1.09422 0.57528 0.08239
 C87 C 1.08649 0.59287 0.14806
 O88 O 0.94638 0.41474 0.16494
 O89 O 0.90458 0.42563 0.08053
 C90 C 0.91238 0.40664 0.14197
 O91 O 1.05170 0.46944 0.17280
 O92 O 1.09382 0.52009 0.08294
 C93 C 1.08580 0.49470 0.14878
 O94 O 0.94720 0.53525 0.16452
 O95 O 0.90496 0.48273 0.08050
 C96 C 0.91306 0.50956 0.14199
 Zr97 Zr 0.99969 0.54247 0.11880
 O98 O 0.99627 0.54200 0.27020
 O99 O 1.00170 0.59508 0.10926
 Zr100 Zr 0.99915 0.45965 0.11975
 O101 O 0.99515 0.45860 0.27114
 O102 O 1.00290 0.40981 0.12179
 O103 O 1.03322 0.51777 0.13812
 O104 O 0.96658 0.48482 0.13730
 O105 O 0.94703 0.53556 -0.16536
 O106 O 0.90495 0.48291 -0.08134
 C107 C 0.91294 0.50991 -0.14229
 O108 O 1.05137 0.46907 -0.17465
 O109 O 1.09363 0.51990 -0.08558
 C110 C 1.08550 0.49435 -0.15084
 O111 O 0.94589 0.41430 -0.16580
 O112 O 0.90430 0.42554 -0.08156
 C113 C 0.91194 0.40640 -0.14283
 O114 O 1.05220 0.58449 -0.17553
 O115 O 1.09405 0.57514 -0.08659
 C116 C 1.08622 0.59279 -0.15212
 Zr117 Zr 0.99952 0.54219 -0.12199
 O118 O 0.99520 0.53905 -0.27332
 O119 O 1.00324 0.59574 -0.12371
 Zr120 Zr 0.99884 0.45938 -0.12164
 O121 O 0.99458 0.45824 -0.27298
 O122 O 1.00254 0.40951 -0.12337
 Zr123 Zr 1.05596 0.52887 -0.00152
 Zr124 Zr 0.94278 0.47293 -0.00081
 O125 O 0.96622 0.48453 -0.13934
 O126 O 1.03301 0.51748 -0.14101
 O127 O 0.96580 0.53196 -0.00132
 O128 O 1.03185 0.46973 -0.00108
 O129 O 1.03273 0.56466 -0.00173
 O130 O 0.96518 0.43629 -0.00065
 H131 H 0.94972 0.47654 0.19394
 H132 H 1.04854 0.45861 -0.00093
 H133 H 0.94908 0.47613 -0.19545
 H134 H 1.04978 0.59240 -0.00197
 H135 H 0.98241 0.39097 0.08085
 H136 H 0.98230 0.39083 -0.08150
 H137 H 1.01682 0.48126 -0.29790
 H138 H 1.01717 0.53773 -0.29813
 H139 H 0.98712 0.59587 -0.07104
 H140 H 1.00173 0.60330 0.17606
 H141 H 1.01588 0.53685 0.29528
 H142 H 1.01738 0.48166 0.29579
 O143 O 0.41608 0.46843 0.17299
 O144 O 0.42440 0.51898 0.08265
 C145 C 0.40720 0.49370 0.14875
 O146 O 0.58567 0.53287 0.16299
 O147 O 0.57514 0.48027 0.07889
 C148 C 0.59403 0.50714 0.14001
 O149 O 0.53058 0.58314 0.17129
 O150 O 0.47927 0.57385 0.08300
 C151 C 0.50489 0.59151 0.14796
 O152 O 0.46587 0.41279 0.16454
 O153 O 0.51859 0.42362 0.08070
 C154 C 0.49181 0.40465 0.14212
 Zr155 Zr 0.45810 0.45778 0.11867
 O156 O 0.45872 0.45475 0.27004
 O157 O 0.40576 0.40701 0.10961
 Zr158 Zr 0.54047 0.54039 0.11839
 O159 O 0.54172 0.53750 0.26978
 O160 O 0.59003 0.59409 0.11964
 O161 O 0.48237 0.51598 0.13764
 O162 O 0.51576 0.48269 0.13642
 O163 O 0.46514 0.41231 -0.16584
 O164 O 0.51840 0.42361 -0.08367
 C165 C 0.49125 0.40432 -0.14379
 O166 O 0.53048 0.58326 -0.17457
 O167 O 0.47927 0.57404 -0.08598
 C168 C 0.50502 0.59186 -0.15061
 O169 O 0.58564 0.53288 -0.16719
 O170 O 0.57502 0.48016 -0.08296
 C171 C 0.59390 0.50702 -0.14432
 O172 O 0.41482 0.46746 -0.17418
 O173 O 0.42423 0.51887 -0.08609
 C174 C 0.40636 0.49311 -0.15067
 Zr175 Zr 0.45793 0.45784 -0.12212
 O176 O 0.46096 0.45707 -0.27352
 O177 O 0.40478 0.40771 -0.12364
 Zr178 Zr 0.54028 0.54028 -0.12271
 O179 O 0.54075 0.53690 -0.27408
 O180 O 0.58990 0.59389 -0.12611
 Zr181 Zr 0.47082 0.52745 -0.00180
 Zr182 Zr 0.52755 0.47080 -0.00179
 O183 O 0.51558 0.48257 -0.14014
 O184 O 0.48212 0.51602 -0.14144
 O185 O 0.46865 0.43449 -0.00160
 O186 O 0.52985 0.56278 -0.00213
 O187 O 0.43551 0.46840 -0.00148
 O188 O 0.56376 0.52988 -0.00217
 H189 H 0.52427 0.47427 0.19304
 H190 H 0.54082 0.59057 -0.00198
 H191 H 0.52406 0.47404 -0.19647
 H192 H 0.40775 0.45750 -0.00113
 H193 H 0.60896 0.59249 0.07891
 H194 H 0.60851 0.59273 -0.08305
 H195 H 0.51793 0.53671 -0.29842
 H196 H 0.46152 0.48008 -0.29798
 H197 H 0.40483 0.39162 -0.07064
 H198 H 0.39763 0.39883 0.17649
 H199 H 0.46417 0.47960 0.29508
 H200 H 0.51871 0.53674 0.29465
 O201 O 0.46950 0.05147 0.17345
 O202 O 0.52034 0.09375 0.08441
 C203 C 0.49484 0.08561 0.14979
 O204 O 0.53439 -0.05385 0.16404
 O205 O 0.48193 -0.09578 0.07923
 C206 C 0.50873 -0.08793 0.14059
 O207 O 0.58427 0.05179 0.17461
 O208 O 0.57539 0.09390 0.08527
 C209 C 0.59280 0.08591 0.15110
 O210 O 0.41442 -0.05403 0.16435
 O211 O 0.42579 -0.09565 0.08063
 C212 C 0.40657 -0.08800 0.14162
 Zr213 Zr 0.45954 -0.00109 0.11999
 O214 O 0.45805 -0.00548 0.27133
 O215 O 0.40986 0.00289 0.12105
 Zr216 Zr 0.54211 -0.00082 0.12033
 O217 O 0.53933 -0.00532 0.27163
 O218 O 0.59589 0.00348 0.12173
 O219 O 0.51759 0.03287 0.13947
 O220 O 0.48451 -0.03386 0.13760
 O221 O 0.41484 -0.05330 -0.16669
 O222 O 0.42563 -0.09525 -0.08250
 C223 C 0.40669 -0.08736 -0.14387
 O224 O 0.58479 0.05252 -0.17310
 O225 O 0.57574 0.09431 -0.08319
 C226 C 0.59338 0.08654 -0.14863
 O227 O 0.53510 -0.05293 -0.16664
 O228 O 0.48265 -0.09509 -0.08239
 C229 C 0.50941 -0.08707 -0.14393
 O230 O 0.46956 0.05213 -0.17373
 O231 O 0.52060 0.09402 -0.08461
 C232 C 0.49508 0.08616 -0.14989
 Zr233 Zr 0.45979 -0.00061 -0.12124
 O234 O 0.45888 -0.00434 -0.27266
 O235 O 0.41005 0.00326 -0.12275
 Zr236 Zr 0.54240 -0.00034 -0.12087
 O237 O 0.53985 -0.00405 -0.27230
 O238 O 0.59615 0.00387 -0.12185
 Zr239 Zr 0.52912 0.05600 0.00009
 Zr240 Zr 0.47295 -0.05723 -0.00101
 O241 O 0.48479 -0.03334 -0.13913
 O242 O 0.51793 0.03343 -0.13973
 O243 O 0.43641 -0.03473 -0.00097
 O244 O 0.56461 0.03240 0.00012
 O245 O 0.47006 0.03211 -0.00032
 O246 O 0.53197 -0.03438 -0.00059
 H247 H 0.47605 -0.05095 0.19387
 H248 H 0.59235 0.04932 0.00056
 H249 H 0.47641 -0.05026 -0.19564
 H250 H 0.45906 0.04892 -0.00024
 H251 H 0.59432 -0.01717 0.08151
 H252 H 0.59455 -0.01672 -0.08117
 H253 H 0.53829 0.01786 -0.29682
 H254 H 0.48207 0.01785 -0.29704
 H255 H 0.39120 -0.01732 -0.08195
 H256 H 0.39098 -0.01770 0.08041
 H257 H 0.48127 0.01646 0.29640
 H258 H 0.53722 0.01618 0.29670
 C259 C 1.18187 0.52583 0.25907
 C260 C 1.17464 0.49349 0.31147
 C261 C 1.13881 0.46108 0.30504
 C262 C 1.11033 0.46143 0.25082
 C263 C 1.11711 0.49401 0.20032
 C264 C 1.15347 0.52591 0.20297
 H265 H 1.20929 0.55118 0.26240
 H266 H 1.13229 0.43574 0.34478
 H267 H 1.08277 0.43621 0.24944
 H268 H 1.15965 0.55124 0.16394
 C269 C 0.54001 0.68166 0.28954
 C270 C 0.50620 0.68115 0.31246
 C271 C 0.47211 0.65209 0.27411
 C272 C 0.47183 0.62379 0.21708
 C273 C 0.50535 0.62335 0.19916
 C274 C 0.53948 0.65285 0.23474
 H275 H 0.56691 0.70352 0.31696
 H276 H 0.44551 0.65079 0.28928
 H277 H 0.44523 0.60148 0.19006
 H278 H 0.56584 0.65344 0.22098
 C279 C 0.31671 -0.14340 0.28438
 C280 C 0.31776 -0.17643 0.30786
 C281 C 0.34670 -0.18138 0.26824
 C282 C 0.37450 -0.15346 0.20996
 C283 C 0.37452 -0.11966 0.19170
 C284 C 0.34500 -0.11520 0.22810
 H285 H 0.29488 -0.13846 0.31264
 H286 H 0.34841 -0.20648 0.28366
 H287 H 0.39687 -0.15764 0.18260
 H288 H 0.34413 -0.08954 0.21440
 C289 C 0.81814 0.47769 0.25901
 C290 C 0.82513 0.51039 0.30913
 C291 C 0.86015 0.54349 0.29742
 C292 C 0.88822 0.54345 0.24064
 C293 C 0.88177 0.51046 0.19300
 C294 C 0.84608 0.47785 0.20069
 H295 H 0.79133 0.45181 0.26621
 H296 H 0.86644 0.56915 0.33504
 H297 H 0.91532 0.56914 0.23561
 H298 H 0.84020 0.45207 0.16455
 C299 C 0.52431 0.34186 0.25913
 C300 C 0.49164 0.31587 0.30882
 C301 C 0.45840 0.31758 0.29686
 C302 C 0.45827 0.34572 0.24029
 C303 C 0.49122 0.37252 0.19310
 C304 C 0.52399 0.36968 0.20101
 H305 H 0.55030 0.34112 0.26656
 H306 H 0.43276 0.29801 0.33414
 H307 H 0.43246 0.34692 0.23505
 H308 H 0.54974 0.38979 0.16517
 C309 C 0.65710 0.18225 0.26114
 C310 C 0.68217 0.17519 0.31425
 C311 C 0.67882 0.13932 0.30880
 C312 C 0.65017 0.11068 0.25462
 C313 C 0.62449 0.11733 0.20318
 C314 C 0.62882 0.15369 0.20509
 H315 H 0.65911 0.20969 0.26371
 H316 H 0.69759 0.13293 0.34914
 H317 H 0.64793 0.08312 0.25391
 H318 H 0.60978 0.15980 0.16535
 C319 C 0.46014 0.14155 -0.29179
 C320 C 0.49392 0.17516 -0.31284
 C321 C 0.52786 0.18018 -0.27330
 C322 C 0.52806 0.15191 -0.21692
 C323 C 0.49461 0.11767 -0.20083
 C324 C 0.46060 0.11301 -0.23766
 H325 H 0.43335 0.13648 -0.32024
 H326 H 0.55444 0.20570 -0.28701
 H327 H 0.55457 0.15626 -0.18889
 H328 H 0.43428 0.08704 -0.22534
 C329 C 0.68371 0.54237 -0.28790
 C330 C 0.68311 0.50850 -0.31111
 C331 C 0.65449 0.47448 -0.27111
 C332 C 0.62658 0.47426 -0.21265
 C333 C 0.62611 0.50781 -0.19458
 C334 C 0.65530 0.54192 -0.23143
 H335 H 0.70528 0.56921 -0.31647
 H336 H 0.65314 0.44784 -0.28630
 H337 H 0.60445 0.44761 -0.18501
 H338 H 0.65582 0.56828 -0.21790
 C339 C 0.85668 0.31662 -0.28608
 C340 C 0.82372 0.31774 -0.30962
 C341 C 0.81876 0.34668 -0.26988
 C342 C 0.84660 0.37441 -0.21137
 C343 C 0.88033 0.37437 -0.19299
 C344 C 0.88479 0.34485 -0.22956
 H345 H 0.86162 0.29479 -0.31442
 H346 H 0.79371 0.34843 -0.28535
 H347 H 0.84243 0.39681 -0.18397
 H348 H 0.91040 0.34393 -0.21580
 C349 C 0.54294 -0.14048 -0.29883
 C350 C 0.50980 -0.17552 -0.30980
 C351 C 0.47724 -0.18232 -0.25940
 C352 C 0.47756 -0.15419 -0.20155
 C353 C 0.51020 -0.11848 -0.19463
 C354 C 0.54306 -0.11220 -0.24251
 H355 H 0.56848 -0.13436 -0.33676
 H356 H 0.45133 -0.20914 -0.26606
 H357 H 0.45188 -0.15994 -0.16518
 H358 H 0.56876 -0.08510 -0.23801
 C359 C 0.34386 0.52576 -0.26783
 C360 C 0.31635 0.49246 -0.31288
 C361 C 0.31719 0.45881 -0.29703
 C362 C 0.34613 0.45902 -0.24333
 C363 C 0.37421 0.49252 -0.20111
 C364 C 0.37193 0.52551 -0.21095
 H365 H 0.34391 0.55212 -0.27686
 H366 H 0.29651 0.43249 -0.32980
 H367 H 0.34673 0.43294 -0.23563
 H368 H 0.39250 0.55139 -0.17703
 C369 C 1.13996 0.67934 -0.30816
 C370 C 1.17559 0.68227 -0.31481
 C371 C 1.18242 0.65677 -0.26284
 C372 C 1.15384 0.62844 -0.20690
 C373 C 1.11770 0.62454 -0.20389
 C374 C 1.11130 0.65067 -0.25403
 H375 H 1.13374 0.69845 -0.34757
 H376 H 1.20967 0.65845 -0.26638
 H377 H 1.15973 0.60901 -0.16823
 H378 H 1.08391 0.64875 -0.25239
 C379 C 0.81740 0.47862 -0.25417
 C380 C 0.82455 0.51108 -0.30578
 C381 C 0.85983 0.54401 -0.29617
 C382 C 0.88809 0.54393 -0.24036
 C383 C 0.88153 0.51107 -0.19169
 C384 C 0.84552 0.47876 -0.19669
 H385 H 0.79035 0.45292 -0.25973
 H386 H 0.86619 0.56948 -0.33504
 H387 H 0.91541 0.56941 -0.23715
 H388 H 0.83951 0.45317 -0.15917
 C389 C 0.45778 0.31712 -0.29698
 C390 C 0.49083 0.31494 -0.30651
 C391 C 0.52324 0.34048 -0.25541
 C392 C 0.52289 0.36846 -0.19841
 C393 C 0.49042 0.37194 -0.19334
 C394 C 0.45766 0.34547 -0.24165
 H395 H 0.43235 0.29785 -0.33549
 H396 H 0.54904 0.33929 -0.26094
 H397 H 0.54842 0.38817 -0.16116
 H398 H 0.43206 0.34711 -0.23839
 C399 C 0.67923 0.13979 -0.30609
 C400 C 0.68345 0.17604 -0.30851
 C401 C 0.65934 0.18352 -0.25272
 C402 C 0.63094 0.15487 -0.19717
 C403 C 0.62547 0.11806 -0.19904
 C404 C 0.65040 0.11108 -0.25271
 H405 H 0.69731 0.13315 -0.34859
 H406 H 0.66218 0.21133 -0.25289
 H407 H 0.61274 0.16130 -0.15484
 H408 H 0.64737 0.08319 -0.25466
 C409 C 1.18173 0.52531 -0.25872
 C410 C 1.17462 0.49296 -0.31062
 C411 C 1.13878 0.46055 -0.30473
 C412 C 1.11013 0.46094 -0.25154
 C413 C 1.11682 0.49355 -0.20165
 C414 C 1.15318 0.52543 -0.20369
 H415 H 1.20916 0.55065 -0.26175
 H416 H 1.13239 0.43524 -0.34424
 H417 H 1.08254 0.43575 -0.25049
 H418 H 1.15928 0.55077 -0.16504
 C419 C 0.54063 0.68152 -0.29505
 C420 C 0.50719 0.68246 -0.31274
 C421 C 0.47355 0.65501 -0.26887
 C422 C 0.47323 0.62669 -0.21178
 C423 C 0.50603 0.62427 -0.20047
 C424 C 0.53989 0.65241 -0.24100
 H425 H 0.56721 0.70220 -0.32672
 H426 H 0.44734 0.65510 -0.27934
 H427 H 0.44708 0.60601 -0.17915
 H428 H 0.56583 0.65169 -0.23191
 C429 C 0.34435 -0.18219 -0.26148
 C430 C 0.31798 -0.17553 -0.30944
 C431 C 0.31922 -0.14087 -0.29572
 C432 C 0.34734 -0.11274 -0.23931
 C433 C 0.37457 -0.11880 -0.19413
 C434 C 0.37218 -0.15418 -0.20354
 H435 H 0.34395 -0.20872 -0.27033
 H436 H 0.29931 -0.13485 -0.33160
 H437 H 0.34822 -0.08590 -0.23270
 H438 H 0.39269 -0.15969 -0.16924
 C439 C 0.47727 -0.18364 0.25265
 C440 C 0.50959 -0.17644 0.30480
 C441 C 0.54248 -0.14110 0.29544
 C442 C 0.54247 -0.11283 0.23938
 C443 C 0.50975 -0.11942 0.19018
 C444 C 0.47751 -0.15550 0.19484
 H445 H 0.45162 -0.21075 0.25796
 H446 H 0.56784 -0.13471 0.33468
 H447 H 0.56793 -0.08547 0.23639
 H448 H 0.45207 -0.16156 0.15672
 C449 C 0.34124 0.52443 0.25449
 C450 C 0.31758 0.49296 0.31124
 C451 C 0.32217 0.46114 0.30929
 C452 C 0.35087 0.46132 0.25522
 C453 C 0.37530 0.49310 0.20031
 C454 C 0.36949 0.52423 0.19818
 H455 H 0.33809 0.54923 0.25427
 H456 H 0.30443 0.43652 0.35256
 H457 H 0.35417 0.43663 0.25747
 H458 H 0.38727 0.54873 0.15486
 C459 C 1.14047 0.67987 0.30144
 C460 C 1.17610 0.68279 0.30793
 C461 C 1.18288 0.65721 0.25652
 C462 C 1.15420 0.62873 0.20137
 C463 C 1.11804 0.62476 0.19880
 C464 C 1.11170 0.65102 0.24819
 H465 H 1.13431 0.69905 0.34050
 H466 H 1.21015 0.65892 0.26001
 H467 H 1.16001 0.60921 0.16306
 H468 H 1.08429 0.64905 0.24669
 C469 C 0.46079 0.13857 0.30359
 C470 C 0.49333 0.17424 0.31151
 C471 C 0.52594 0.18143 0.26080
 C472 C 0.52614 0.15308 0.20498
 C473 C 0.49409 0.11687 0.20098
 C474 C 0.46125 0.11014 0.24962
 H475 H 0.43525 0.13211 0.34201
 H476 H 0.55138 0.20874 0.26538
 H477 H 0.55167 0.15917 0.16734
 H478 H 0.43592 0.08268 0.24700
 C479 C 0.68189 0.54214 0.29055
 C480 C 0.68328 0.50887 0.30580
 C481 C 0.65699 0.47559 0.25881
 C482 C 0.62901 0.47537 0.20052
 C483 C 0.62642 0.50821 0.18985
 C484 C 0.65364 0.54175 0.23379
 H485 H 0.70176 0.56826 0.32557
 H486 H 0.65753 0.44957 0.26881
 H487 H 0.60851 0.44918 0.16712
 H488 H 0.65261 0.56761 0.22609
 C489 C 0.85882 0.31894 0.29325
 C490 C 0.82425 0.31779 0.30736
 C491 C 0.81764 0.34428 0.25970
 C492 C 0.84563 0.37216 0.20175
 C493 C 0.88093 0.37447 0.19207
 C494 C 0.88692 0.34710 0.23685
 H495 H 0.86479 0.29893 0.32887
 H496 H 0.79118 0.34395 0.26886
 H497 H 0.84019 0.39277 0.16771
 H498 H 0.91369 0.34791 0.22997
   
