data_POSCAR
  _audit_creation_date              2014-09-24
  _audit_creation_method            'ToBaCCo'
  _symmetry_space_group_name_H-M    'P1'
  _symmetry_Int_Tables_number       1
  _symmetry_cell_setting            triclinic
  loop_
  _symmetry_equiv_pos_as_xyz
 x,y,z
_cell_length_a 56.5875
_cell_length_b 55.5128
_cell_length_c 55.8522
_cell_angle_alpha 90.548100
_cell_angle_beta 90.246100
_cell_angle_gamma 90.617900
loop_
  _atom_site_label
  _atom_site_type_symbol
  _atom_site_fract_x
  _atom_site_fract_y
  _atom_site_fract_z
C1 C 0.60099 0.61905 0.63945
 C2 C 0.58383 0.63701 0.63748
 C3 C 0.58498 0.65402 0.61901
 C4 C 0.60358 0.65297 0.60246
 C5 C 0.62095 0.63526 0.60431
 C6 C 0.61968 0.61824 0.62288
 C7 C 0.59974 0.60196 0.65777
 C8 C 0.61710 0.58397 0.66012
 C9 C 0.63576 0.58357 0.64336
 C10 C 0.63707 0.60039 0.62483
 C11 C 0.65543 0.59947 0.60804
 C12 C 0.65677 0.61634 0.58948
 C13 C 0.63953 0.63426 0.58781
 H14 H 0.56936 0.63757 0.65013
 H15 H 0.60471 0.66617 0.58832
 H16 H 0.58565 0.60347 0.67073
 H17 H 0.64887 0.56951 0.64389
 H18 H 0.66883 0.58574 0.60951
 H19 H 0.64033 0.64716 0.57338
 C20 C 0.90066 0.37882 0.13837
 C21 C 0.91776 0.36081 0.13661
 C22 C 0.91743 0.34389 0.11751
 C23 C 0.89920 0.34551 0.10021
 C24 C 0.88181 0.36326 0.10195
 C25 C 0.88257 0.38003 0.12104
 C26 C 0.90155 0.39582 0.15713
 C27 C 0.88446 0.41392 0.15890
 C28 C 0.86630 0.41484 0.14169
 C29 C 0.86528 0.39810 0.12276
 C30 C 0.84735 0.39923 0.10542
 C31 C 0.84639 0.38249 0.08641
 C32 C 0.86364 0.36451 0.08483
 H33 H 0.93194 0.36086 0.14968
 H34 H 0.89779 0.33239 0.08579
 H35 H 0.91545 0.39486 0.17050
 H36 H 0.85320 0.42892 0.14280
 H37 H 0.83396 0.41299 0.10684
 H38 H 0.86311 0.35174 0.07002
 C39 C 0.38303 0.13015 -0.14784
 C40 C 0.40095 0.14775 -0.14921
 C41 C 0.40236 0.16659 -0.13226
 C42 C 0.38559 0.16769 -0.11379
 C43 C 0.36750 0.15032 -0.11229
 C44 C 0.36617 0.13149 -0.12941
 C45 C 0.38168 0.11139 -0.16477
 C46 C 0.36344 0.09380 -0.16393
 C47 C 0.34660 0.09553 -0.14537
 C48 C 0.34795 0.11406 -0.12814
 C49 C 0.33129 0.11544 -0.10964
 C50 C 0.33247 0.13416 -0.09251
 C51 C 0.35065 0.15154 -0.09399
 H52 H 0.41402 0.14662 -0.16331
 H53 H 0.38644 0.18229 -0.10078
 H54 H 0.39435 0.11131 -0.17924
 H55 H 0.33288 0.08193 -0.14355
 H56 H 0.31713 0.10217 -0.10878
 H57 H 0.35181 0.16589 -0.08072
 C58 C 0.11268 0.87210 0.35495
 C59 C 0.09519 0.85404 0.35355
 C60 C 0.09281 0.83659 0.37168
 C61 C 0.10844 0.83800 0.39151
 C62 C 0.12611 0.85586 0.39302
 C63 C 0.12840 0.87284 0.37457
 C64 C 0.11463 0.88952 0.33701
 C65 C 0.13236 0.90742 0.33822
 C66 C 0.14838 0.90768 0.35751
 C67 C 0.14647 0.89057 0.37573
 C68 C 0.16227 0.89095 0.39512
 C69 C 0.15998 0.87415 0.41362
 C70 C 0.14179 0.85676 0.41256
 H71 H 0.08292 0.85432 0.33863
 H72 H 0.10783 0.82452 0.40538
 H73 H 0.10247 0.88906 0.32196
 H74 H 0.16200 0.92153 0.35860
 H75 H 0.17625 0.90445 0.39602
 H76 H 0.14021 0.84365 0.42675
 N77 N 0.09715 0.16428 0.11657
 N78 N 0.08845 0.15534 0.13642
 C79 C 0.07049 0.16917 0.14390
 C80 C 0.06770 0.18778 0.12790
 C81 C 0.08488 0.18406 0.11068
 H82 H 0.05999 0.16583 0.15968
 H83 H 0.08850 0.19521 0.09532
 Cu84 Cu 0.10118 0.12637 0.15048
 Cu85 Cu 0.12449 0.15010 0.10066
 Cu86 Cu 0.14778 0.09868 0.12646
 N87 N 0.11392 0.09739 0.16455
 N88 N 0.13236 0.08673 0.15520
 C89 C 0.13757 0.06720 0.16822
 C90 C 0.12139 0.06539 0.18668
 C91 C 0.10662 0.08487 0.18375
 H92 H 0.15178 0.05494 0.16422
 H93 H 0.09175 0.08962 0.19487
 N94 N 0.16090 0.11345 0.09739
 N95 N 0.15217 0.13299 0.08756
 C96 C 0.16520 0.13859 0.06820
 C97 C 0.18288 0.12170 0.06566
 C98 C 0.17954 0.10605 0.08449
 H99 H 0.16195 0.15374 0.05667
 H100 H 0.19018 0.09060 0.08871
 H101 H 0.11853 0.11544 0.11202
 H102 H 0.13878 0.13462 0.13065
 N103 N 0.40672 0.83593 0.61506
 N104 N 0.41504 0.84592 0.63481
 C105 C 0.43380 0.83339 0.64242
 C106 C 0.43754 0.81449 0.62660
 C107 C 0.42000 0.81673 0.60937
 H108 H 0.44395 0.83768 0.65835
 H109 H 0.41673 0.80491 0.59419
 Cu110 Cu 0.40033 0.87401 0.64903
 Cu111 Cu 0.37847 0.84783 0.59917
 Cu112 Cu 0.34998 0.89602 0.62629
 N113 N 0.38496 0.90163 0.66336
 N114 N 0.36489 0.90980 0.65494
 C115 C 0.35844 0.92913 0.66804
 C116 C 0.37553 0.93340 0.68545
 C117 C 0.39203 0.91554 0.68195
 H118 H 0.34298 0.93986 0.66458
 H119 H 0.40805 0.91296 0.69215
 N120 N 0.33803 0.87979 0.59699
 N121 N 0.34954 0.86230 0.58607
 C122 C 0.33805 0.85635 0.56566
 C123 C 0.31827 0.87060 0.56372
 C124 C 0.31874 0.88519 0.58393
 H125 H 0.34356 0.84257 0.55313
 H126 H 0.30637 0.89926 0.58829
 H127 H 0.38069 0.88320 0.61131
 H128 H 0.36331 0.86166 0.62991
 N129 N 0.90423 0.66290 0.39044
 N130 N 0.91240 0.65373 0.37038
 C131 C 0.93248 0.66555 0.36451
 C132 C 0.93714 0.68289 0.38198
 C133 C 0.91881 0.68064 0.39810
 H134 H 0.94313 0.66159 0.34897
 H135 H 0.91611 0.69132 0.41412
 Cu136 Cu 0.89633 0.62674 0.35443
 Cu137 Cu 0.87535 0.65148 0.40530
 Cu138 Cu 0.84703 0.60259 0.37880
 N139 N 0.88067 0.59839 0.34059
 N140 N 0.86142 0.58921 0.35011
 C141 C 0.85426 0.56999 0.33703
 C142 C 0.86989 0.56679 0.31830
 C143 C 0.88649 0.58516 0.32117
 H144 H 0.83898 0.55895 0.34109
 H145 H 0.90152 0.58876 0.30983
 N146 N 0.83518 0.61868 0.40789
 N147 N 0.84591 0.63750 0.41782
 C148 C 0.83352 0.64468 0.43708
 C149 C 0.81406 0.62964 0.43950
 C150 C 0.81570 0.61332 0.42068
 H151 H 0.83846 0.65959 0.44870
 H152 H 0.80342 0.59885 0.41642
 H153 H 0.87827 0.61650 0.39258
 H154 H 0.85960 0.63731 0.37459
 N155 N 0.59602 0.33675 -0.11177
 N156 N 0.58695 0.34648 -0.13105
 C157 C 0.56682 0.33454 -0.13693
 C158 C 0.56306 0.31654 -0.12026
 C159 C 0.58201 0.31853 -0.10463
 H160 H 0.55555 0.33882 -0.15194
 H161 H 0.58551 0.30735 -0.08931
 Cu162 Cu 0.60242 0.37407 -0.14603
 Cu163 Cu 0.62533 0.34808 -0.09714
 Cu164 Cu 0.65338 0.39676 -0.12335
 N165 N 0.61840 0.40162 -0.16049
 N166 N 0.63843 0.41008 -0.15165
 C167 C 0.64598 0.42859 -0.16507
 C168 C 0.62979 0.43209 -0.18331
 C169 C 0.61245 0.41466 -0.17981
 H170 H 0.66195 0.43894 -0.16163
 H171 H 0.59691 0.41150 -0.19077
 N172 N 0.66571 0.38076 -0.09460
 N173 N 0.65511 0.36201 -0.08483
 C174 C 0.66786 0.35487 -0.06584
 C175 C 0.68741 0.36987 -0.06341
 C176 C 0.68543 0.38612 -0.08195
 H177 H 0.66312 0.34001 -0.05439
 H178 H 0.69766 0.40056 -0.08611
 H179 H 0.62274 0.38338 -0.10839
 H180 H 0.63984 0.36242 -0.12791
 C181 C -0.04034 0.29906 0.09176
 C182 C -0.02894 0.29017 0.11241
 C183 C -0.03656 0.29902 0.13492
 C184 C -0.05402 0.31673 0.13644
 C185 C -0.06500 0.32583 0.11579
 C186 C -0.05801 0.31637 0.09346
 C187 C -0.02679 0.29010 0.15596
 C188 C -0.00983 0.27227 0.15527
 C189 C -0.00152 0.26285 0.13333
 C190 C -0.01058 0.27259 0.11154
 C191 C -0.00074 0.26471 0.08967
 C192 C 0.01686 0.24745 0.08902
 C193 C 0.02505 0.23694 0.11000
 C194 C 0.01580 0.24424 0.13247
 C195 C 0.02404 0.23229 0.15313
 C196 C 0.04085 0.21417 0.15145
 C197 C 0.05019 0.20735 0.12929
 C198 C 0.04231 0.21894 0.10860
 H199 H -0.03623 0.29284 0.07395
 H200 H -0.05972 0.32255 0.15404
 H201 H -0.06538 0.32301 0.07691
 H202 H -0.03245 0.29690 0.17325
 H203 H -0.00318 0.26662 0.17238
 H204 H -0.00593 0.27190 0.07263
 H205 H 0.02394 0.24207 0.07179
 H206 H 0.01758 0.23610 0.17085
 H207 H 0.04669 0.20561 0.16775
 H208 H 0.04915 0.21351 0.09130
 C209 C 0.53976 0.69627 0.59276
 C210 C 0.53191 0.70928 0.61313
 C211 C 0.54237 0.70381 0.63553
 C212 C 0.55943 0.68572 0.63733
 C213 C 0.56679 0.67294 0.61701
 C214 C 0.55689 0.67848 0.59475
 C215 C 0.53588 0.71646 0.65608
 C216 C 0.51926 0.73460 0.65503
 C217 C 0.50810 0.74070 0.63328
 C218 C 0.51422 0.72753 0.61204
 C219 C 0.50223 0.73284 0.59052
 C220 C 0.48509 0.75051 0.58963
 C221 C 0.47928 0.76382 0.61000
 C222 C 0.49082 0.75933 0.63209
 C223 C 0.48457 0.77382 0.65203
 C224 C 0.46743 0.79157 0.65011
 C225 C 0.45585 0.79565 0.62834
 C226 C 0.46193 0.78167 0.60833
 H227 H 0.53325 0.69949 0.57495
 H228 H 0.56734 0.68184 0.65457
 H229 H 0.56225 0.66880 0.57877
 H230 H 0.54383 0.71235 0.67325
 H231 H 0.51532 0.74327 0.67183
 H232 H 0.50539 0.72338 0.57396
 H233 H 0.47630 0.75382 0.57271
 H234 H 0.49267 0.77213 0.66939
 H235 H 0.46310 0.80195 0.66596
 H236 H 0.45335 0.78482 0.59128
 C237 C 1.05014 0.79099 0.34596
 C238 C 1.04050 0.78029 0.36667
 C239 C 1.04836 0.78929 0.38918
 C240 C 1.06556 0.80765 0.39069
 C241 C 1.07528 0.81807 0.37000
 C242 C 1.06703 0.80947 0.34763
 C243 C 1.03888 0.78010 0.41023
 C244 C 1.02140 0.76242 0.40954
 C245 C 1.01280 0.75288 0.38762
 C246 C 1.02309 0.76135 0.36584
 C247 C 1.01575 0.75048 0.34404
 C248 C 0.99837 0.73262 0.34338
 C249 C 0.98737 0.72500 0.36431
 C250 C 0.99433 0.73505 0.38674
 C251 C 0.98214 0.72711 0.40735
 C252 C 0.96394 0.71007 0.40564
 C253 C 0.95718 0.70021 0.38347
 C254 C 0.96918 0.70756 0.36286
 H255 H 1.04488 0.78570 0.32811
 H256 H 1.07046 0.81453 0.40825
 H257 H 1.07424 0.81624 0.33106
 H258 H 1.04492 0.78682 0.42752
 H259 H 1.01526 0.75637 0.42670
 H260 H 1.02335 0.75513 0.32704
 H261 H 0.99330 0.72487 0.32620
 H262 H 0.98582 0.73401 0.42506
 H263 H 0.95515 0.70458 0.42191
 H264 H 0.96391 0.70024 0.34556
 C265 C 0.44499 0.21298 -0.15734
 C266 C 0.45743 0.22114 -0.13666
 C267 C 0.45146 0.21043 -0.11450
 C268 C 0.43359 0.19276 -0.11324
 C269 C 0.42135 0.18513 -0.13383
 C270 C 0.42732 0.19531 -0.15586
 C271 C 0.46336 0.21730 -0.09363
 C272 C 0.48123 0.23457 -0.09410
 C273 C 0.48787 0.24597 -0.11560
 C274 C 0.47558 0.23935 -0.13720
 C275 C 0.48177 0.25126 -0.15856
 C276 C 0.49953 0.26871 -0.15897
 C277 C 0.51196 0.27503 -0.13821
 C278 C 0.50637 0.26378 -0.11621
 C279 C 0.51970 0.27080 -0.09574
 C280 C 0.53777 0.28797 -0.09722
 C281 C 0.54328 0.29891 -0.11900
 C282 C 0.53012 0.29249 -0.13942
 H283 H 0.44848 0.21975 -0.17498
 H284 H 0.42937 0.18466 -0.09617
 H285 H 0.41803 0.18979 -0.17203
 H286 H 0.45886 0.20916 -0.07665
 H287 H 0.48938 0.23864 -0.07709
 H288 H 0.47310 0.24766 -0.17542
 H289 H 0.50364 0.27731 -0.17582
 H290 H 0.51682 0.26335 -0.07827
 H291 H 0.54737 0.29280 -0.08103
 H292 H 0.53433 0.30070 -0.15643
 C293 C 0.15722 -0.05029 0.29159
 C294 C 0.13679 -0.03839 0.28323
 C295 C 0.11488 -0.04443 0.29401
 C296 C 0.11358 -0.06219 0.31168
 C297 C 0.13393 -0.07397 0.31944
 C298 C 0.15574 -0.06772 0.30939
 C299 C 0.09434 -0.03266 0.28723
 C300 C 0.09495 -0.01476 0.27008
 C301 C 0.11621 -0.00813 0.25861
 C302 C 0.13736 -0.02060 0.26483
 C303 C 0.15827 -0.01515 0.25217
 C304 C 0.15871 0.00221 0.23446
 C305 C 0.13849 0.01511 0.22881
 C306 C 0.11697 0.01034 0.24089
 C307 C 0.09716 0.02446 0.23480
 C308 C 0.09870 0.04220 0.21733
 C309 C 0.11991 0.04654 0.20523
 C310 C 0.13974 0.03286 0.21108
 H311 H 0.17469 -0.04634 0.28504
 H312 H 0.09670 -0.06659 0.31977
 H313 H 0.17173 -0.07656 0.31517
 H314 H 0.07755 -0.03719 0.29541
 H315 H 0.07821 -0.00676 0.26593
 H316 H 0.17464 -0.02440 0.25514
 H317 H 0.17514 0.00562 0.22512
 H318 H 0.08026 0.02254 0.24337
 H319 H 0.08304 0.05241 0.21319
 H320 H 0.15637 0.03630 0.20213
 C321 C 0.59257 0.54168 -0.29408
 C322 C 0.61314 0.53077 -0.28489
 C323 C 0.63521 0.53891 -0.29371
 C324 C 0.63638 0.55629 -0.31179
 C325 C 0.61579 0.56666 -0.32130
 C326 C 0.59392 0.55925 -0.31177
 C327 C 0.65614 0.52976 -0.28442
 C328 C 0.65574 0.51273 -0.26639
 C329 C 0.63423 0.50369 -0.25720
 C330 C 0.61257 0.51231 -0.26713
 C331 C 0.59112 0.50184 -0.25933
 C332 C 0.59074 0.48398 -0.24210
 C333 C 0.61160 0.47607 -0.23158
 C334 C 0.63365 0.48600 -0.23869
 C335 C 0.65418 0.47794 -0.22674
 C336 C 0.65279 0.46054 -0.20891
 C337 C 0.63101 0.45045 -0.20236
 C338 C 0.61047 0.45829 -0.21384
 H339 H 0.57509 0.53723 -0.28786
 H340 H 0.65364 0.56241 -0.31765
 H341 H 0.57744 0.56615 -0.31863
 H342 H 0.67310 0.53591 -0.29108
 H343 H 0.67274 0.50658 -0.26046
 H344 H 0.57419 0.50665 -0.26664
 H345 H 0.57384 0.47637 -0.23684
 H346 H 0.67160 0.48494 -0.23040
 H347 H 0.66898 0.45483 -0.20038
 H348 H 0.59346 0.45091 -0.20864
 C349 C 0.33875 1.04668 0.79421
 C350 C 0.35921 1.03806 0.78263
 C351 C 0.38130 1.04780 0.79010
 C352 C 0.38255 1.06618 0.80752
 C353 C 0.36205 1.07503 0.81863
 C354 C 0.34019 1.06464 0.81185
 C355 C 0.40216 1.03910 0.78026
 C356 C 0.40169 1.02063 0.76335
 C357 C 0.38016 1.01039 0.75512
 C358 C 0.35853 1.01989 0.76425
 C359 C 0.33701 1.01122 0.75439
 C360 C 0.33653 0.99340 0.73677
 C361 C 0.35739 0.98312 0.72856
 C362 C 0.37951 0.99122 0.73780
 C363 C 0.40005 0.97949 0.72953
 C364 C 0.39860 0.96086 0.71265
 C365 C 0.37675 0.95330 0.70325
 C366 C 0.35619 0.96462 0.71122
 H367 H 0.32131 1.03972 0.79030
 H368 H 0.39983 1.07274 0.81311
 H369 H 0.32378 1.07100 0.81935
 H370 H 0.41913 1.04653 0.78583
 H371 H 0.41864 1.01518 0.75663
 H372 H 0.32009 1.01827 0.75953
 H373 H 0.31958 0.98742 0.72967
 H374 H 0.41752 0.98389 0.73603
 H375 H 0.41480 0.95251 0.70678
 H376 H 0.33915 0.95864 0.70433
 C377 C 0.90846 0.46090 0.20254
 C378 C 0.88791 0.46836 0.21488
 C379 C 0.86626 0.45661 0.20890
 C380 C 0.86531 0.43883 0.19085
 C381 C 0.88573 0.43213 0.17849
 C382 C 0.90729 0.44313 0.18470
 C383 C 0.84559 0.46267 0.22086
 C384 C 0.84575 0.48023 0.23869
 C385 C 0.86670 0.49276 0.24520
 C386 C 0.88809 0.48695 0.23287
 C387 C 0.90884 0.50015 0.23871
 C388 C 0.90886 0.51817 0.25611
 C389 C 0.88833 0.52373 0.26858
 C390 C 0.86696 0.51106 0.26349
 C391 C 0.84678 0.51726 0.27704
 C392 C 0.84785 0.53525 0.29465
 C393 C 0.86896 0.54781 0.29944
 C394 C 0.88914 0.54195 0.28624
 H395 H 0.92576 0.46831 0.20623
 H396 H 0.84862 0.43003 0.18648
 H397 H 0.92334 0.43828 0.17539
 H398 H 0.82901 0.45370 0.21638
 H399 H 0.82892 0.48374 0.24682
 H400 H 0.92546 0.49726 0.22991
 H401 H 0.92522 0.52784 0.25988
 H402 H 0.82985 0.50851 0.27469
 H403 H 0.83190 0.53945 0.30437
 H404 H 0.90568 0.55130 0.28992
 C405 C 0.28711 0.15928 -0.04951
 C406 C 0.27943 0.13854 -0.03699
 C407 C 0.29035 0.11635 -0.04276
 C408 C 0.30757 0.11507 -0.06076
 C409 C 0.31457 0.13570 -0.07323
 C410 C 0.30433 0.15779 -0.06728
 C411 C 0.28404 0.09548 -0.03061
 C412 C 0.26703 0.09595 -0.01281
 C413 C 0.25529 0.11742 -0.00656
 C414 C 0.26140 0.13903 -0.01904
 C415 C 0.24904 0.16031 -0.01341
 C416 C 0.23145 0.16059 0.00382
 C417 C 0.22552 0.13983 0.01637
 C418 C 0.23744 0.11797 0.01158
 C419 C 0.23095 0.09759 0.02523
 C420 C 0.21335 0.09894 0.04260
 C421 C 0.20148 0.12051 0.04705
 C422 C 0.20768 0.14090 0.03379
 H423 H 0.28030 0.17699 -0.04601
 H424 H 0.31575 0.09797 -0.06494
 H425 H 0.30942 0.17400 -0.07668
 H426 H 0.29237 0.07849 -0.03491
 H427 H 0.26328 0.07893 -0.00451
 H428 H 0.25228 0.17715 -0.02226
 H429 H 0.22238 0.17735 0.00739
 H430 H 0.23914 0.08030 0.02314
 H431 H 0.20890 0.08280 0.05241
 H432 H 0.19888 0.15782 0.03723
 C433 C 0.69941 0.59163 0.54356
 C434 C 0.71163 0.61257 0.53588
 C435 C 0.70602 0.63475 0.54723
 C436 C 0.68823 0.63584 0.56465
 C437 C 0.67596 0.61501 0.57153
 C438 C 0.68191 0.59291 0.56105
 C439 C 0.71816 0.65576 0.54114
 C440 C 0.73590 0.65539 0.52407
 C441 C 0.74197 0.63390 0.51193
 C442 C 0.72923 0.61225 0.51753
 C443 C 0.73418 0.59112 0.50428
 C444 C 0.75126 0.59093 0.48653
 C445 C 0.76434 0.61163 0.48138
 C446 C 0.76011 0.63338 0.49411
 C447 C 0.77439 0.65366 0.48849
 C448 C 0.79177 0.65232 0.47089
 C449 C 0.79556 0.63087 0.45816
 C450 C 0.78171 0.61059 0.46352
 H451 H 0.70305 0.57389 0.53663
 H452 H 0.68404 0.65295 0.57308
 H453 H 0.67270 0.57655 0.56614
 H454 H 0.71396 0.67276 0.54978
 H455 H 0.74421 0.67249 0.52046
 H456 H 0.72478 0.57439 0.50681
 H457 H 0.75431 0.57429 0.47676
 H458 H 0.77284 0.67079 0.49751
 H459 H 0.80213 0.66833 0.46711
 H460 H 0.78470 0.59377 0.45407
 C461 C 0.80409 0.40736 0.04031
 C462 C 0.79161 0.38650 0.03233
 C463 C 0.79715 0.36431 0.04331
 C464 C 0.81504 0.36312 0.06075
 C465 C 0.82744 0.38389 0.06807
 C466 C 0.82163 0.40599 0.05789
 C467 C 0.78480 0.34337 0.03690
 C468 C 0.76688 0.34384 0.01990
 C469 C 0.76078 0.36536 0.00819
 C470 C 0.77376 0.38692 0.01406
 C471 C 0.76874 0.40806 0.00121
 C472 C 0.75140 0.40832 -0.01643
 C473 C 0.73809 0.38771 -0.02182
 C474 C 0.74235 0.36597 -0.00946
 C475 C 0.72778 0.34580 -0.01520
 C476 C 0.71012 0.34719 -0.03261
 C477 C 0.70628 0.36861 -0.04500
 C478 C 0.72041 0.38880 -0.03951
 H479 H 0.80059 0.42509 0.03360
 H480 H 0.81913 0.34601 0.06892
 H481 H 0.83094 0.42231 0.06333
 H482 H 0.78894 0.32636 0.04525
 H483 H 0.75842 0.32679 0.01602
 H484 H 0.77825 0.42476 0.00401
 H485 H 0.74829 0.42496 -0.02590
 H486 H 0.72929 0.32871 -0.00640
 H487 H 0.69956 0.33124 -0.03648
 H488 H 0.71740 0.40560 -0.04871
 C489 C 0.18498 0.87600 0.47657
 C490 C 0.20969 0.87551 0.47253
 C491 C 0.21750 0.87371 0.44848
 C492 C 0.20122 0.87373 0.42945
 C493 C 0.17693 0.87452 0.43383
 C494 C 0.16894 0.87534 0.45748
 C495 C 0.24151 0.87177 0.44349
 C496 C 0.25805 0.87094 0.46186
 C497 C 0.25126 0.87275 0.48610
 C498 C 0.22683 0.87629 0.49146
 C499 C 0.22046 0.88106 0.51545
 C500 C 0.23727 0.88174 0.53367
 C501 C 0.26093 0.87687 0.52890
 C502 C 0.26819 0.87171 0.50514
 C503 C 0.29206 0.86528 0.50151
 C504 C 0.30806 0.86475 0.52056
 C505 C 0.30100 0.87086 0.54379
 C506 C 0.27738 0.87694 0.54785
 H507 H 0.17748 0.87628 0.49427
 H508 H 0.20742 0.87260 0.41112
 H509 H 0.15016 0.87573 0.46118
 H510 H 0.24759 0.87057 0.42514
 H511 H 0.27623 0.86964 0.45642
 H512 H 0.20262 0.88513 0.52065
 H513 H 0.23161 0.88581 0.55177
 H514 H 0.29881 0.85995 0.48427
 H515 H 0.32618 0.85983 0.51698
 H516 H 0.27166 0.88117 0.56589
   
