data_POSCAR
  _audit_creation_date              2014-09-24
  _audit_creation_method            'ToBaCCo'
  _symmetry_space_group_name_H-M    'P1'
  _symmetry_Int_Tables_number       1
  _symmetry_cell_setting            triclinic
  loop_
  _symmetry_equiv_pos_as_xyz
 x,y,z
_cell_length_a 31.8895
_cell_length_b 31.8905
_cell_length_c 31.9470
_cell_angle_alpha 97.088700
_cell_angle_beta 82.802400
_cell_angle_gamma 100.095600
loop_
  _atom_site_label
  _atom_site_type_symbol
  _atom_site_fract_x
  _atom_site_fract_y
  _atom_site_fract_z
O1 O 0.57017 0.53065 0.03910
 O2 O 0.45454 0.51996 0.03199
 O3 O 0.50691 0.46706 0.03860
 O4 O 0.51844 0.58293 0.03014
 O5 O 0.52991 0.57059 -0.03968
 O6 O 0.51818 0.45516 -0.03125
 O7 O 0.46572 0.50797 -0.03785
 O8 O 0.58177 0.51845 -0.03071
 Cu9 Cu 0.51132 0.52631 0.04200
 Cu10 Cu 0.52498 0.51177 -0.04192
 C11 C 0.59547 0.52622 0.00554
 C12 C 0.44059 0.51259 -0.00409
 C13 C 0.51099 0.44161 0.00505
 C14 C 0.52602 0.59623 -0.00633
 O15 O -0.04891 0.53878 0.52412
 O16 O -0.03999 0.42452 0.51570
 O17 O -0.03971 0.48559 0.57720
 O18 O -0.04694 0.47763 0.46202
 O19 O 0.02357 0.49413 0.45086
 O20 O 0.03076 0.50231 0.56553
 O21 O 0.03054 0.44092 0.50441
 O22 O 0.02154 0.55551 0.51261
 Cu23 Cu -0.05101 0.48009 0.52087
 Cu24 Cu 0.03369 0.49998 0.50718
 C25 C -0.01532 0.56644 0.51961
 C26 C -0.00324 0.41344 0.50906
 C27 C -0.00307 0.49476 0.59067
 C28 C -0.01282 0.48453 0.43702
 O29 O 0.49477 0.02450 0.54934
 O30 O 0.50215 0.03020 0.43436
 O31 O 0.44133 0.03146 0.49609
 O32 O 0.55559 0.02108 0.48702
 O33 O 0.53799 -0.04934 0.47664
 O34 O 0.42405 -0.03903 0.48591
 O35 O 0.48456 -0.04023 0.42383
 O36 O 0.47740 -0.04596 0.53928
 Cu37 Cu 0.50032 0.03390 0.49276
 Cu38 Cu 0.47937 -0.05076 0.48042
 C39 C 0.48487 -0.01162 0.56378
 C40 C 0.49402 -0.00386 0.40973
 C41 C 0.41346 -0.00208 0.49213
 C42 C 0.56602 -0.01599 0.48044
 C43 C 0.50770 -0.07090 -0.09771
 C44 C 0.49741 -0.03180 -0.10497
 C45 C 0.49435 0.00072 -0.07143
 C46 C 0.50341 -0.00491 -0.03042
 C47 C 0.51518 -0.04427 -0.02433
 C48 C 0.51612 -0.07730 -0.05738
 C49 C 0.50047 0.02958 0.00588
 C50 C 0.49353 0.01930 0.04828
 C51 C 0.49298 0.05143 0.08228
 C52 C 0.49686 0.09414 0.07464
 C53 C 0.50228 0.10499 0.03304
 C54 C 0.50502 0.07313 -0.00115
 H55 H 0.50900 -0.09642 -0.12342
 H56 H 0.48453 0.02994 -0.07766
 H57 H 0.52372 -0.04984 0.00598
 H58 H 0.48848 -0.01356 0.05549
 H59 H 0.49586 0.11897 0.10105
 H60 H 0.51120 0.08281 -0.03291
 C61 C -0.07189 0.50752 1.09574
 C62 C -0.07762 0.51622 1.05531
 C63 C -0.04394 0.51595 1.02277
 C64 C -0.00457 0.50459 1.02951
 C65 C 0.00035 0.49524 1.07059
 C66 C -0.03284 0.49762 1.10360
 C67 C 0.03064 0.50220 0.99378
 C68 C 0.07403 0.50704 1.00153
 C69 C 0.10649 0.50460 0.96778
 C70 C 0.09639 0.49922 0.92595
 C71 C 0.05387 0.49505 0.91766
 C72 C 0.02118 0.49529 0.95118
 H73 H -0.09788 0.50832 1.12108
 H74 H -0.04900 0.52469 0.99237
 H75 H 0.02954 0.48570 1.07728
 H76 H 0.08309 0.51315 1.03350
 H77 H 0.12164 0.49843 0.89987
 H78 H -0.01151 0.48999 0.94344
 C79 C -0.10105 -0.10301 0.49999
 C80 C -0.06069 -0.10890 0.50854
 C81 C -0.02702 -0.07420 0.50994
 C82 C -0.03256 -0.03342 0.50063
 C83 C -0.07339 -0.02854 0.49098
 C84 C -0.10755 -0.06275 0.49176
 C85 C 0.00385 0.00361 0.50090
 C86 C -0.00389 0.04642 0.50680
 C87 C 0.03015 0.08077 0.50585
 C88 C 0.07231 0.07314 0.50121
 C89 C 0.08072 0.03124 0.49643
 C90 C 0.04691 -0.00330 0.49518
 H91 H -0.12733 -0.12969 0.49977
 H92 H 0.00320 -0.07953 0.51854
 H93 H -0.07918 0.00161 0.48259
 H94 H -0.03612 0.05365 0.51239
 H95 H 0.09861 0.09982 0.50131
 H96 H 0.05477 -0.03528 0.48944
 C97 C -0.21967 0.56951 1.04087
 C98 C -0.23819 0.55818 0.99747
 C99 C -0.27760 0.53101 1.01921
 C100 C -0.25983 0.54236 1.06245
 C101 C -0.19805 0.52944 1.03204
 C102 C -0.23753 0.50232 1.05371
 C103 C -0.21578 0.51808 0.98879
 C104 C -0.25589 0.49098 1.01041
 C105 C -0.32240 0.53059 1.01301
 C106 C -0.35970 0.52911 1.00898
 C107 C -0.15433 0.52692 1.03983
 C108 C -0.11899 0.52305 1.04672
 H109 H -0.20426 0.60177 1.05349
 H110 H -0.23901 0.58113 0.97425
 H111 H -0.27844 0.55233 1.09267
 H112 H -0.23682 0.47935 1.07694
 H113 H -0.19715 0.50809 0.95859
 H114 H -0.27125 0.45869 0.99782
 C115 C 0.25081 0.49520 1.02202
 C116 C 0.28000 0.46896 0.99066
 C117 C 0.31471 0.50894 0.98909
 C118 C 0.28626 0.53520 1.02052
 C119 C 0.23292 0.50869 0.98418
 C120 C 0.26763 0.54866 0.98261
 C121 C 0.26140 0.48245 0.95278
 C122 C 0.29676 0.52243 0.95127
 C123 C 0.36039 0.50942 0.99147
 C124 C 0.39808 0.51047 0.99341
 C125 C 0.18752 0.50817 0.98027
 C126 C 0.15042 0.50705 0.97553
 H127 H 0.23141 0.48405 1.05110
 H128 H 0.28559 0.43619 0.99394
 H129 H 0.29701 0.55691 1.04842
 H130 H 0.26205 0.58144 0.97932
 H131 H 0.25068 0.46074 0.92486
 H132 H 0.31612 0.53358 0.92218
 C133 C -0.02694 -0.24754 0.55844
 C134 C -0.06169 -0.28780 0.55259
 C135 C -0.02906 -0.31002 0.52223
 C136 C 0.00580 -0.27051 0.52808
 C137 C -0.04071 -0.23065 0.52013
 C138 C -0.00809 -0.25290 0.48978
 C139 C -0.07552 -0.27019 0.51428
 C140 C -0.04282 -0.29304 0.48396
 C141 C -0.02319 -0.35459 0.52235
 C142 C -0.01910 -0.39159 0.52148
 C143 C -0.04757 -0.18678 0.51769
 C144 C -0.05348 -0.15108 0.51431
 H145 H -0.02050 -0.22833 0.58905
 H146 H -0.08367 -0.30264 0.57844
 H147 H 0.03931 -0.27113 0.53375
 H148 H 0.01389 -0.23809 0.46391
 H149 H -0.10904 -0.26962 0.50859
 H150 H -0.04928 -0.31218 0.45332
 C151 C 0.04977 0.24309 0.51335
 C152 C 0.03565 0.26213 0.47608
 C153 C 0.00601 0.28658 0.50793
 C154 C 0.02007 0.26820 0.54521
 C155 C 0.01248 0.20565 0.50909
 C156 C -0.01718 0.23006 0.54096
 C157 C -0.00158 0.22402 0.47180
 C158 C -0.03132 0.24917 0.50367
 C159 C 0.00275 0.33177 0.50751
 C160 C 0.00013 0.36904 0.50774
 C161 C 0.01712 0.16078 0.50916
 C162 C 0.02224 0.12412 0.50829
 H163 H 0.08316 0.24010 0.51738
 H164 H 0.05733 0.27579 0.44940
 H165 H 0.02899 0.28689 0.57538
 H166 H -0.03884 0.21638 0.56763
 H167 H -0.01049 0.20533 0.44164
 H168 H -0.06470 0.25219 0.49964
 C169 C 0.51842 -0.03308 -0.26382
 C170 C 0.48213 -0.05719 -0.28986
 C171 C 0.48218 -0.01611 -0.31043
 C172 C 0.51847 0.00803 -0.28500
 C173 C 0.48455 -0.01901 -0.22882
 C174 C 0.48461 0.02210 -0.24934
 C175 C 0.44823 -0.04318 -0.25421
 C176 C 0.44824 -0.00201 -0.27551
 C177 C 0.48200 -0.01474 -0.35610
 C178 C 0.48290 -0.01349 -0.39378
 C179 C 0.48728 -0.02171 -0.18380
 C180 C 0.49105 -0.02539 -0.14741
 H181 H 0.54735 -0.04586 -0.25857
 H182 H 0.48112 -0.08977 -0.30697
 H183 H 0.54739 0.02906 -0.29815
 H184 H 0.48564 0.05466 -0.23218
 H185 H 0.41934 -0.06421 -0.24103
 H186 H 0.41934 0.01075 -0.28086
 C187 C 0.53058 0.01669 0.22319
 C188 C 0.51973 0.04778 0.26269
 C189 C 0.49268 0.00984 0.28395
 C190 C 0.50352 -0.02141 0.24512
 C191 C 0.49036 0.02386 0.20491
 C192 C 0.46327 -0.01412 0.22610
 C193 C 0.47953 0.05505 0.24378
 C194 C 0.45245 0.01700 0.26567
 C195 C 0.49387 0.00328 0.32835
 C196 C 0.49438 -0.00074 0.36529
 C197 C 0.48982 0.03267 0.16107
 C198 C 0.49050 0.04082 0.12512
 H199 H 0.56272 0.01667 0.20522
 H200 H 0.54300 0.07314 0.27818
 H201 H 0.51344 -0.05290 0.24617
 H202 H 0.44001 -0.03944 0.21055
 H203 H 0.46961 0.08656 0.24278
 H204 H 0.42032 0.01703 0.28364
 C205 C 0.54117 -0.21101 0.00658
 C206 C 0.50245 -0.24790 0.00541
 C207 C 0.53144 -0.27710 -0.02131
 C208 C 0.57024 -0.24098 -0.02005
 C209 C 0.52989 -0.19772 -0.03472
 C210 C 0.55890 -0.22689 -0.06146
 C211 C 0.49118 -0.23393 -0.03595
 C212 C 0.52017 -0.26371 -0.06257
 C213 C 0.53091 -0.32180 -0.01470
 C214 C 0.52924 -0.35903 -0.01027
 C215 C 0.52727 -0.15407 -0.04261
 C216 C 0.52323 -0.11874 -0.04933
 H217 H 0.54981 -0.18879 0.03490
 H218 H 0.47924 -0.25703 0.03297
 H219 H 0.60273 -0.24443 -0.01339
 H220 H 0.58208 -0.21774 -0.08903
 H221 H 0.45864 -0.23058 -0.04260
 H222 H 0.51150 -0.28587 -0.09092
 C223 C 0.54607 0.26638 0.02004
 C224 C 0.53344 0.28518 -0.01818
 C225 C 0.50659 0.31342 0.01281
 C226 C 0.51924 0.29531 0.05096
 C227 C 0.50620 0.23163 0.01775
 C228 C 0.47936 0.25990 0.04872
 C229 C 0.49354 0.24969 -0.02042
 C230 C 0.46671 0.27868 0.01051
 C231 C 0.50720 0.35908 0.01029
 C232 C 0.50841 0.39673 0.00811
 C233 C 0.50566 0.18622 0.02150
 C234 C 0.50459 0.14906 0.02592
 H235 H 0.57869 0.26083 0.02395
 H236 H 0.55569 0.29612 -0.04573
 H237 H 0.52976 0.31455 0.08030
 H238 H 0.45711 0.24898 0.07628
 H239 H 0.48302 0.23042 -0.04975
 H240 H 0.43408 0.28424 0.00662
 C241 C -0.24551 -0.00075 0.49373
 C242 C -0.26894 -0.00668 0.45320
 C243 C -0.30847 -0.03131 0.47737
 C244 C -0.28570 -0.02527 0.51784
 C245 C -0.22931 -0.04345 0.47960
 C246 C -0.26889 -0.06803 0.50374
 C247 C -0.25200 -0.04952 0.43908
 C248 C -0.29228 -0.07401 0.46324
 C249 C -0.35290 -0.02503 0.47725
 C250 C -0.38976 -0.02050 0.47820
 C251 C -0.18552 -0.05039 0.48218
 C252 C -0.14981 -0.05609 0.48574
 H253 H -0.22578 0.02930 0.50629
 H254 H -0.26946 0.01863 0.43243
 H255 H -0.30000 -0.01522 0.55023
 H256 H -0.26843 -0.09335 0.52453
 H257 H -0.23764 -0.05958 0.40673
 H258 H -0.31200 -0.10408 0.45069
 C259 C 0.22429 0.00050 0.53024
 C260 C 0.24940 -0.02914 0.49823
 C261 C 0.28684 0.00817 0.49396
 C262 C 0.26243 0.03772 0.52595
 C263 C 0.20593 0.01477 0.49307
 C264 C 0.24339 0.05205 0.48880
 C265 C 0.23031 -0.01479 0.46107
 C266 C 0.26847 0.02244 0.45679
 C267 C 0.33198 0.00470 0.49419
 C268 C 0.36918 0.00177 0.49375
 C269 C 0.16103 0.01926 0.49310
 C270 C 0.12428 0.02405 0.49400
 H271 H 0.20558 -0.00852 0.56042
 H272 H 0.25240 -0.06255 0.50217
 H273 H 0.27613 0.05926 0.55262
 H274 H 0.24041 0.08547 0.48486
 H275 H 0.21659 -0.03632 0.43440
 H276 H 0.28717 0.03147 0.42661
 C277 C 0.01983 0.48353 1.24784
 C278 C 0.00630 0.51759 1.28350
 C279 C -0.01831 0.48151 1.30905
 C280 C -0.00475 0.44737 1.27413
 C281 C -0.02119 0.48413 1.22751
 C282 C -0.04583 0.44803 1.25301
 C283 C -0.03472 0.51822 1.26251
 C284 C -0.05930 0.48213 1.28867
 C285 C -0.01680 0.48128 1.35466
 C286 C -0.01529 0.48222 1.39227
 C287 C -0.02371 0.48706 1.18253
 C288 C -0.02706 0.49102 1.14612
 H289 H 0.05234 0.48411 1.23054
 H290 H 0.02772 0.54623 1.29653
 H291 H 0.00756 0.41820 1.27946
 H292 H -0.06725 0.41943 1.23994
 H293 H -0.04704 0.54741 1.25727
 H294 H -0.09182 0.48157 1.30594
 C295 C 0.05751 0.48048 0.75578
 C296 C 0.01886 0.45384 0.73462
 C297 C 0.01216 0.49412 0.71608
 C298 C 0.05070 0.52074 0.73660
 C299 C 0.02691 0.49211 0.79490
 C300 C 0.02021 0.53239 0.77637
 C301 C -0.01165 0.46546 0.77444
 C302 C -0.01848 0.50576 0.75517
 C303 C 0.00510 0.49511 0.67183
 C304 C 0.00061 0.49540 0.63500
 C305 C 0.03590 0.49172 0.83866
 C306 C 0.04388 0.49249 0.87464
 H307 H 0.08882 0.47005 0.75650
 H308 H 0.01819 0.42154 0.71693
 H309 H 0.07622 0.54353 0.72059
 H310 H 0.02089 0.56469 0.79405
 H311 H -0.03714 0.44269 0.79051
 H312 H -0.04978 0.51620 0.75441
   
