data_POSCAR
  _audit_creation_date              2014-09-24
  _audit_creation_method            'ToBaCCo'
  _symmetry_space_group_name_H-M    'P1'
  _symmetry_Int_Tables_number       1
  _symmetry_cell_setting            triclinic
  loop_
  _symmetry_equiv_pos_as_xyz
 x,y,z
_cell_length_a 61.6812
_cell_length_b 61.8774
_cell_length_c 61.2224
_cell_angle_alpha 90.538400
_cell_angle_beta 90.238200
_cell_angle_gamma 88.561200
loop_
  _atom_site_label
  _atom_site_type_symbol
  _atom_site_fract_x
  _atom_site_fract_y
  _atom_site_fract_z
C1 C 0.21719 0.53056 1.02671
 H2 H 0.21796 0.54302 1.01446
 C3 C 0.20241 0.53272 1.04385
 H4 H 0.19266 0.54746 1.04472
 C5 C 0.22982 0.49680 1.04010
 H6 H 0.23996 0.48244 1.03817
 C7 C 0.21532 0.49826 1.05753
 H8 H 0.21470 0.48458 1.06833
 N9 N 0.23054 0.51284 1.02515
 C10 C 0.28170 0.53308 0.98145
 H11 H 0.28051 0.52061 0.96903
 C12 C 0.29756 0.54863 0.97982
 H13 H 0.30809 0.54826 0.96572
 C14 C 0.26932 0.54840 1.01488
 H15 H 0.25864 0.54788 1.02880
 C16 C 0.28523 0.56408 1.01410
 H17 H 0.28657 0.57545 1.02754
 Zn18 Zn 0.24856 0.51012 1.00028
 N19 N 0.26788 0.53330 0.99868
 C20 C 0.23145 0.52388 0.95910
 N21 N 0.23007 0.50936 0.97554
 C22 C 0.21434 0.49438 0.97560
 C23 C 0.19905 0.49369 0.95875
 C24 C 0.21672 0.52353 0.94171
 C25 C 0.27985 0.48322 1.01917
 C26 C 0.29475 0.46600 1.02070
 C27 C 0.28147 0.45227 0.98621
 C28 C 0.26651 0.46963 0.98553
 N29 N 0.26611 0.48473 1.00183
 H30 H 0.24373 0.53600 0.95952
 H31 H 0.21339 0.48326 0.98908
 H32 H 0.18626 0.48209 0.95964
 H33 H 0.21838 0.53505 0.92867
 H34 H 0.27937 0.49563 1.03174
 H35 H 0.30531 0.46509 1.03484
 H36 H 0.28210 0.44091 0.97267
 H37 H 0.25578 0.47145 0.97163
 C38 C 0.29977 0.56424 0.99646
 C39 C 0.20098 0.51633 1.05967
 C40 C 0.29607 0.45042 1.00386
 C41 C 0.20003 0.50845 0.94147
 C42 C 0.78314 0.50140 -0.02223
 H43 H 0.78460 0.51231 -0.00842
 C44 C 0.79826 0.50182 -0.03911
 H45 H 0.81145 0.51298 -0.03790
 C46 C 0.76484 0.47275 -0.03964
 H47 H 0.75205 0.46117 -0.03964
 C48 C 0.77938 0.47286 -0.05707
 H49 H 0.77715 0.46164 -0.07050
 N50 N 0.76689 0.48697 -0.02273
 C51 C 0.71421 0.51255 0.01781
 H52 H 0.71309 0.49972 0.02961
 C53 C 0.69917 0.52976 0.01822
 H54 H 0.68686 0.53024 0.03078
 C55 C 0.73156 0.52715 -0.01298
 H56 H 0.74393 0.52581 -0.02539
 C57 C 0.71667 0.54456 -0.01332
 H58 H 0.71775 0.55640 -0.02615
 Zn59 Zn 0.74830 0.48654 0.00182
 N60 N 0.73005 0.51158 0.00244
 C61 C 0.76249 0.49844 0.04461
 N62 N 0.76608 0.48514 0.02712
 C63 C 0.78353 0.47130 0.02649
 C64 C 0.79860 0.47096 0.04357
 C65 C 0.77684 0.49824 0.06230
 C66 C 0.71491 0.46245 -0.01592
 C67 C 0.69934 0.44651 -0.01674
 C68 C 0.71475 0.43122 0.01620
 C69 C 0.73022 0.44736 0.01624
 N70 N 0.72989 0.46264 0.00041
 H71 H 0.74868 0.50949 0.04482
 H72 H 0.78615 0.46106 0.01228
 H73 H 0.81288 0.46055 0.04206
 H74 H 0.77339 0.50880 0.07610
 H75 H 0.71480 0.47501 -0.02809
 H76 H 0.68764 0.44668 -0.02996
 H77 H 0.71477 0.41971 0.02940
 H78 H 0.74202 0.44810 0.02932
 C79 C 0.70005 0.54594 0.00232
 C80 C 0.79656 0.48739 -0.05690
 C81 C 0.69881 0.43083 -0.00029
 C82 C 0.79553 0.48472 0.06179
 C83 C -0.01828 0.28400 0.46968
 H84 H -0.02928 0.28567 0.48335
 C85 C -0.01960 0.29872 0.45257
 H86 H -0.03146 0.31176 0.45412
 C87 C 0.01158 0.26579 0.45311
 H88 H 0.02397 0.25317 0.45352
 C89 C 0.01068 0.27993 0.43546
 H90 H 0.02200 0.27684 0.42233
 N91 N -0.00278 0.26805 0.46977
 C92 C -0.02677 0.22027 0.51483
 H93 H -0.01433 0.22101 0.52731
 C94 C -0.04327 0.20540 0.51656
 H95 H -0.04363 0.19507 0.53071
 C96 C -0.04103 0.23276 0.48111
 H97 H -0.03972 0.24309 0.46706
 C98 C -0.05773 0.21793 0.48206
 H99 H -0.06911 0.21699 0.46859
 Zn100 Zn -0.00111 0.25064 0.49499
 N101 N -0.02587 0.23348 0.49727
 C102 C -0.01526 0.27155 0.53415
 N103 N 0.00100 0.26965 0.51927
 C104 C 0.01856 0.28245 0.52043
 C105 C 0.02046 0.29766 0.53726
 C106 C -0.01415 0.28674 0.55112
 C107 C 0.02333 0.21637 0.47716
 C108 C 0.03977 0.20052 0.47594
 C109 C 0.05515 0.21498 0.50918
 C110 C 0.03849 0.23070 0.50965
 N111 N 0.02303 0.23114 0.49374
 H112 H -0.02943 0.26173 0.53255
 H113 H 0.03108 0.28087 0.50815
 H114 H 0.03479 0.30740 0.53802
 H115 H -0.02759 0.28838 0.56238
 H116 H 0.01057 0.21678 0.46497
 H117 H 0.03976 0.18909 0.46245
 H118 H 0.06690 0.21452 0.52236
 H119 H 0.03758 0.24207 0.52312
 C120 C -0.05880 0.20373 0.49980
 C121 C -0.00484 0.29717 0.43495
 C122 C 0.05587 0.19949 0.49223
 C123 C 0.00387 0.30013 0.55283
 C124 C 0.98333 0.72110 0.53179
 H125 H 0.97038 0.72251 0.51987
 C126 C 0.98176 0.70651 0.54893
 H127 H 0.96755 0.69667 0.55011
 C128 C 1.01808 0.73147 0.54405
 H129 H 1.03244 0.74082 0.54177
 C130 C 1.01730 0.71690 0.56130
 H131 H 1.03092 0.71549 0.57246
 N132 N 1.00120 0.73334 0.52976
 C133 C 0.97663 0.78212 0.48448
 H134 H 0.98867 0.78010 0.47177
 C135 C 0.95973 0.79729 0.48204
 H136 H 0.95867 0.80651 0.46713
 C137 C 0.96361 0.77235 0.51927
 H138 H 0.96554 0.76299 0.53399
 C139 C 0.94657 0.78759 0.51765
 H140 H 0.93555 0.78974 0.53126
 Zn141 Zn 1.00282 0.75123 0.50496
 N142 N 0.97819 0.76990 0.50276
 C143 C 0.98804 0.73084 0.46603
 N144 N 1.00484 0.73260 0.48034
 C145 C 1.02301 0.71984 0.47841
 C146 C 1.02495 0.70480 0.46136
 C147 C 0.98921 0.71585 0.44884
 C148 C 1.02839 0.78201 0.52506
 C149 C 1.04482 0.79697 0.52714
 C150 C 1.05797 0.78595 0.49153
 C151 C 1.04142 0.77095 0.49027
 N152 N 1.02704 0.76929 0.50692
 H153 H 0.97341 0.74055 0.46829
 H154 H 1.03596 0.72129 0.49026
 H155 H 1.03970 0.69504 0.46000
 H156 H 0.97539 0.71430 0.43804
 H157 H 1.01651 0.78062 0.53789
 H158 H 1.04567 0.80667 0.54190
 H159 H 1.06876 0.78753 0.47777
 H160 H 1.03964 0.76121 0.47566
 C161 C 0.94451 0.80043 0.49888
 C162 C 0.99899 0.70415 0.56384
 C163 C 1.05973 0.79938 0.51009
 C164 C 1.00782 0.70248 0.44637
 C165 C 0.47343 -0.01743 0.28559
 H166 H 0.48750 -0.02797 0.28790
 C167 C 0.45666 -0.01725 0.30085
 H168 H 0.45818 -0.02760 0.31495
 C169 C 0.45527 0.00981 0.26508
 H170 H 0.45492 0.02069 0.25141
 C171 C 0.43797 0.01026 0.27972
 H172 H 0.42430 0.02113 0.27665
 N173 N 0.47252 -0.00397 0.26818
 C174 C 0.51258 -0.02955 0.21523
 H175 H 0.52246 -0.01565 0.21241
 C176 C 0.51390 -0.04727 0.20103
 H177 H 0.52454 -0.04603 0.18716
 C178 C 0.48556 -0.04626 0.23597
 H179 H 0.47446 -0.04573 0.24957
 C180 C 0.48642 -0.06445 0.22226
 H181 H 0.47631 -0.07780 0.22640
 Zn182 Zn 0.49697 -0.00381 0.24950
 N183 N 0.49856 -0.02931 0.23225
 C184 C 0.53936 -0.01540 0.26450
 N185 N 0.52194 -0.00179 0.26737
 C186 C 0.52125 0.01284 0.28406
 C187 C 0.53834 0.01386 0.29902
 C188 C 0.55699 -0.01468 0.27886
 C189 C 0.47892 0.01995 0.21500
 C190 C 0.47731 0.03640 0.19962
 C191 C 0.50954 0.05192 0.21510
 C192 C 0.51032 0.03532 0.23043
 N193 N 0.49511 0.01980 0.23012
 H194 H 0.53956 -0.02701 0.25122
 H195 H 0.50708 0.02331 0.28610
 H196 H 0.53695 0.02504 0.31267
 H197 H 0.57076 -0.02552 0.27607
 H198 H 0.46726 0.00717 0.21486
 H199 H 0.46397 0.03637 0.18808
 H200 H 0.52217 0.06374 0.21529
 H201 H 0.52335 0.03462 0.24228
 C202 C 0.50063 -0.06529 0.20416
 C203 C 0.43858 -0.00321 0.29809
 C204 C 0.49287 0.05262 0.19934
 C205 C 0.55652 -0.00015 0.29667
 C206 C 0.53307 -0.01437 0.71630
 H207 H 0.51947 -0.02467 0.71314
 C208 C 0.55046 -0.01437 0.70178
 H209 H 0.54985 -0.02459 0.68737
 C210 C 0.54936 0.01255 0.73819
 H211 H 0.54869 0.02324 0.75223
 C212 C 0.56726 0.01281 0.72430
 H213 H 0.58039 0.02349 0.72815
 N214 N 0.53266 -0.00078 0.73386
 C215 C 0.49008 -0.02309 0.78500
 H216 H 0.47775 -0.01035 0.78485
 C217 C 0.48917 -0.03948 0.80041
 H218 H 0.47569 -0.03944 0.81167
 C219 C 0.52247 -0.03843 0.77025
 H220 H 0.53556 -0.03773 0.75861
 C221 C 0.52238 -0.05498 0.78564
 H222 H 0.53561 -0.06680 0.78574
 Zn223 Zn 0.50715 0.00067 0.75084
 N224 N 0.50644 -0.02293 0.77022
 C225 C 0.46660 -0.01359 0.73441
 N226 N 0.48306 0.00030 0.73144
 C227 C 0.48340 0.01344 0.71378
 C228 C 0.46680 0.01289 0.69822
 C229 C 0.44950 -0.01442 0.71946
 C230 C 0.51825 0.02583 0.78690
 C231 C 0.51787 0.04364 0.80103
 C232 C 0.49408 0.06241 0.77570
 C233 C 0.49468 0.04407 0.76218
 N234 N 0.50666 0.02627 0.76799
 H235 H 0.46671 -0.02423 0.74826
 H236 H 0.49689 0.02404 0.71153
 H237 H 0.46783 0.02304 0.68397
 H238 H 0.43642 -0.02533 0.72246
 H239 H 0.52753 0.01142 0.79121
 H240 H 0.52665 0.04252 0.81633
 H241 H 0.48467 0.07649 0.77062
 H242 H 0.48552 0.04409 0.74711
 C243 C 0.50559 -0.05564 0.80108
 C244 C 0.56781 -0.00045 0.70550
 C245 C 0.50563 0.06231 0.79557
 C246 C 0.44950 -0.00122 0.70090
 C247 C 0.22766 -0.02264 0.50820
 C248 C 0.23863 -0.00338 0.50474
 C249 C 0.22691 0.01627 0.50305
 C250 C 0.20429 0.01681 0.50528
 C251 C 0.19347 -0.00258 0.50842
 C252 C 0.20494 -0.02242 0.50987
 C253 C 0.26247 -0.00365 0.50363
 C254 C 0.27288 -0.00011 0.48372
 C255 C 0.29564 -0.00028 0.48259
 C256 C 0.30775 -0.00356 0.50185
 C257 C 0.29752 -0.00683 0.52198
 C258 C 0.27477 -0.00714 0.52263
 H259 H 0.23685 -0.03771 0.50968
 H260 H 0.23548 0.03115 0.50073
 H261 H 0.26320 0.00280 0.46918
 H262 H 0.26653 -0.00996 0.53790
 H263 H 0.17592 -0.00220 0.50925
 H264 H 0.32527 -0.00349 0.50116
 C265 C 0.77508 -0.01526 0.49405
 C266 C 0.76393 0.00468 0.49608
 C267 C 0.77546 0.02392 0.49651
 C268 C 0.79812 0.02334 0.49456
 C269 C 0.80914 0.00326 0.49284
 C270 C 0.79781 -0.01617 0.49260
 C271 C 0.74012 0.00538 0.49722
 C272 C 0.72974 0.00831 0.51737
 C273 C 0.70699 0.00839 0.51867
 C274 C 0.69484 0.00603 0.49931
 C275 C 0.70506 0.00329 0.47893
 C276 C 0.72783 0.00276 0.47813
 H277 H 0.76597 -0.03000 0.49345
 H278 H 0.76672 0.03930 0.49775
 H279 H 0.73945 0.01044 0.53197
 H280 H 0.73611 0.00016 0.46272
 H281 H 0.82670 0.00282 0.49220
 H282 H 0.67732 0.00623 0.50013
 C283 C 0.51330 0.27126 1.00527
 C284 C 0.49328 0.26104 1.00478
 C285 C 0.47393 0.27336 1.00624
 C286 C 0.47444 0.29600 1.00815
 C287 C 0.49466 0.30600 1.00876
 C288 C 0.51409 0.29379 1.00752
 C289 C 0.49266 0.23735 1.00322
 C290 C 0.49174 0.22505 1.02227
 C291 C 0.49164 0.20237 1.02106
 C292 C 0.49256 0.19226 1.00040
 C293 C 0.49286 0.20441 0.98111
 C294 C 0.49306 0.22708 0.98272
 H295 H 0.52821 0.26165 1.00437
 H296 H 0.45857 0.26524 1.00612
 H297 H 0.49089 0.23325 1.03797
 H298 H 0.49320 0.23682 0.96812
 H299 H 0.49537 0.32346 1.00964
 H300 H 0.49344 0.17479 0.99935
 C301 C 0.52342 0.72430 -0.00493
 C302 C 0.50372 0.73609 -0.00430
 C303 C 0.48402 0.72531 -0.00575
 C304 C 0.48384 0.70267 -0.00783
 C305 C 0.50373 0.69109 -0.00855
 C306 C 0.52351 0.70174 -0.00728
 C307 C 0.50371 0.75980 -0.00268
 C308 C 0.50384 0.77218 -0.02173
 C309 C 0.50356 0.79487 -0.02046
 C310 C 0.50334 0.80490 0.00024
 C311 C 0.50268 0.79269 0.01947
 C312 C 0.50303 0.77003 0.01784
 H313 H 0.53861 0.73271 -0.00399
 H314 H 0.46892 0.73464 -0.00555
 H315 H 0.50372 0.76406 -0.03749
 H316 H 0.50233 0.76029 0.03243
 H317 H 0.50393 0.67360 -0.00955
 H318 H 0.50395 0.82234 0.00144
 C319 C 1.00282 0.52218 0.27452
 C320 C 1.00080 0.50283 0.26270
 C321 C 0.99917 0.48321 0.27376
 C322 C 0.99946 0.48276 0.29671
 C323 C 1.00084 0.50238 0.30834
 C324 C 1.00282 0.52213 0.29746
 C325 C 1.00099 0.50302 0.23867
 C326 C 1.02049 0.50588 0.22754
 C327 C 1.02084 0.50606 0.20463
 C328 C 1.00140 0.50332 0.19303
 C329 C 0.98158 0.50098 0.20395
 C330 C 0.98162 0.50065 0.22692
 H331 H 1.00460 0.53718 0.26580
 H332 H 0.99836 0.46830 0.26440
 H333 H 1.03531 0.50813 0.23677
 H334 H 0.96659 0.49914 0.23580
 H335 H 1.00012 0.50233 0.32601
 H336 H 1.00182 0.50267 0.17535
 C337 C -0.00503 0.51899 0.72704
 C338 C -0.00341 0.49910 0.73775
 C339 C -0.00155 0.47985 0.72560
 C340 C -0.00118 0.48032 0.70266
 C341 C -0.00296 0.50039 0.69212
 C342 C -0.00491 0.51982 0.70412
 C343 C -0.00335 0.49847 0.76175
 C344 C -0.02246 0.49418 0.77302
 C345 C -0.02262 0.49384 0.79598
 C346 C -0.00317 0.49744 0.80738
 C347 C 0.01619 0.50156 0.79626
 C348 C 0.01584 0.50224 0.77333
 H349 H -0.00668 0.53375 0.73663
 H350 H 0.00008 0.46461 0.73408
 H351 H -0.03712 0.49109 0.76384
 H352 H 0.03042 0.50580 0.76438
 H353 H -0.00273 0.50089 0.67445
 H354 H -0.00310 0.49707 0.82504
 C355 C 0.10372 0.14738 0.49379
 C356 C 0.10930 0.16843 0.50012
 C357 C 0.09394 0.18543 0.49927
 C358 C 0.07262 0.18176 0.49213
 C359 C 0.06720 0.16077 0.48545
 C360 C 0.08256 0.14385 0.48617
 C361 C 0.11957 0.12899 0.49579
 C362 C 0.11266 0.10876 0.50286
 C363 C 0.12733 0.09136 0.50478
 C364 C 0.14939 0.09374 0.49990
 C365 C 0.15637 0.11396 0.49284
 C366 C 0.14162 0.13141 0.49081
 C367 C 0.16481 0.07502 0.50211
 C368 C 0.18132 0.07107 0.48667
 C369 C 0.19470 0.05249 0.48802
 C370 C 0.19168 0.03749 0.50473
 C371 C 0.17572 0.04182 0.52056
 C372 C 0.16253 0.06040 0.51934
 H373 H 0.12540 0.17168 0.50623
 H374 H 0.09874 0.20145 0.50427
 H375 H 0.05090 0.15725 0.48013
 H376 H 0.07780 0.12792 0.48084
 H377 H 0.09588 0.10639 0.50715
 H378 H 0.12130 0.07594 0.50991
 H379 H 0.17327 0.11637 0.48910
 H380 H 0.14743 0.14673 0.48513
 H381 H 0.18341 0.08192 0.47311
 H382 H 0.20685 0.04944 0.47558
 H383 H 0.17335 0.03068 0.53384
 H384 H 0.15039 0.06322 0.53183
 C385 C 0.65045 0.59633 -0.00145
 C386 C 0.67214 0.60078 -0.00636
 C387 C 0.68830 0.58457 -0.00488
 C388 C 0.68315 0.56352 0.00147
 C389 C 0.66150 0.55919 0.00658
 C390 C 0.64542 0.57539 0.00527
 C391 C 0.63300 0.61322 -0.00367
 C392 C 0.61242 0.60765 -0.01152
 C393 C 0.59572 0.62318 -0.01307
 C394 C 0.59917 0.64482 -0.00709
 C395 C 0.61985 0.65052 0.00047
 C396 C 0.63657 0.63488 0.00219
 C397 C 0.58100 0.66106 -0.00828
 C398 C 0.57830 0.67717 0.00795
 C399 C 0.56004 0.69108 0.00781
 C400 C 0.54406 0.68896 -0.00839
 C401 C 0.54713 0.67349 -0.02505
 C402 C 0.56546 0.65981 -0.02510
 H403 H 0.67656 0.61668 -0.01176
 H404 H 0.70485 0.58854 -0.00868
 H405 H 0.65682 0.54313 0.01121
 H406 H 0.62898 0.57147 0.00956
 H407 H 0.60917 0.59122 -0.01655
 H408 H 0.57995 0.61807 -0.01860
 H409 H 0.62313 0.66706 0.00502
 H410 H 0.65217 0.63970 0.00847
 H411 H 0.58981 0.67847 0.02126
 H412 H 0.55792 0.70285 0.02089
 H413 H 0.53514 0.67179 -0.03789
 H414 H 0.56729 0.64803 -0.03819
 C415 C 0.89452 -0.14975 0.49393
 C416 C 0.91508 -0.14682 0.48488
 C417 C 0.93123 -0.16293 0.48656
 C418 C 0.92713 -0.18251 0.49710
 C419 C 0.90645 -0.18546 0.50607
 C420 C 0.89035 -0.16918 0.50462
 C421 C 0.87775 -0.13224 0.49260
 C422 C 0.86618 -0.12553 0.51126
 C423 C 0.85176 -0.10775 0.51039
 C424 C 0.84845 -0.09645 0.49076
 C425 C 0.85943 -0.10379 0.47190
 C426 C 0.87401 -0.12139 0.47285
 C427 C 0.83456 -0.07643 0.49022
 C428 C 0.84065 -0.05874 0.47757
 C429 C 0.82840 -0.03947 0.47790
 C430 C 0.80987 -0.03725 0.49109
 C431 C 0.80347 -0.05506 0.50339
 C432 C 0.81565 -0.07444 0.50292
 H433 H 0.91883 -0.13182 0.47690
 H434 H 0.94708 -0.15980 0.47995
 H435 H 0.90260 -0.20043 0.51402
 H436 H 0.87455 -0.17185 0.51162
 H437 H 0.86893 -0.13351 0.52673
 H438 H 0.84384 -0.10238 0.52529
 H439 H 0.85691 -0.09581 0.45640
 H440 H 0.88251 -0.12647 0.45815
 H441 H 0.85524 -0.05954 0.46781
 H442 H 0.83359 -0.02621 0.46794
 H443 H 0.78937 -0.05386 0.51384
 H444 H 0.81033 -0.08783 0.51263
 C445 C 0.34665 0.40077 1.00453
 C446 C 0.35021 0.42145 1.01333
 C447 C 0.33386 0.43742 1.01302
 C448 C 0.31328 0.43310 1.00429
 C449 C 0.30956 0.41232 0.99574
 C450 C 0.32608 0.39636 0.99579
 C451 C 0.36449 0.38410 1.00443
 C452 C 0.36032 0.36213 1.00792
 C453 C 0.37737 0.34677 1.00870
 C454 C 0.39890 0.35316 1.00632
 C455 C 0.40306 0.37496 1.00243
 C456 C 0.38607 0.39021 1.00131
 C457 C 0.41722 0.33738 1.00818
 C458 C 0.43497 0.34210 1.02164
 C459 C 0.45312 0.32822 1.02226
 C460 C 0.45411 0.30943 1.00915
 C461 C 0.43597 0.30432 0.99625
 C462 C 0.41763 0.31812 0.99587
 H463 H 0.36567 0.42537 1.02059
 H464 H 0.33753 0.45329 1.01938
 H465 H 0.29386 0.40833 0.98908
 H466 H 0.32280 0.38069 0.98870
 H467 H 0.34395 0.35686 1.01060
 H468 H 0.37382 0.33002 1.01178
 H469 H 0.41952 0.38019 1.00013
 H470 H 0.38989 0.40683 0.99795
 H471 H 0.43485 0.35669 1.03156
 H472 H 0.46652 0.33236 1.03286
 H473 H 0.43624 0.29009 0.98582
 H474 H 0.40412 0.31421 0.98531
 C475 C 0.89488 0.15253 0.49926
 C476 C 0.88892 0.17320 0.49157
 C477 C 0.90376 0.18995 0.49206
 C478 C 0.92489 0.18640 0.50023
 C479 C 0.93067 0.16581 0.50821
 C480 C 0.91584 0.14916 0.50784
 C481 C 0.87963 0.13432 0.49784
 C482 C 0.88737 0.11343 0.49233
 C483 C 0.87332 0.09614 0.49126
 C484 C 0.85107 0.09927 0.49545
 C485 C 0.84323 0.12018 0.50082
 C486 C 0.85736 0.13753 0.50200
 C487 C 0.83633 0.08062 0.49439
 C488 C 0.81954 0.07849 0.50966
 C489 C 0.80669 0.06015 0.50942
 C490 C 0.81051 0.04354 0.49402
 C491 C 0.82683 0.04595 0.47839
 C492 C 0.83951 0.06430 0.47850
 H493 H 0.87295 0.17630 0.48471
 H494 H 0.89869 0.20567 0.48600
 H495 H 0.94687 0.16234 0.51431
 H496 H 0.92087 0.13356 0.51424
 H497 H 0.90435 0.11042 0.48868
 H498 H 0.88000 0.08021 0.48742
 H499 H 0.82616 0.12318 0.50395
 H500 H 0.85090 0.15338 0.50646
 H501 H 0.81679 0.09064 0.52225
 H502 H 0.79426 0.05860 0.52171
 H503 H 0.82982 0.03355 0.46608
 H504 H 0.85190 0.06566 0.46615
 C505 C 0.35242 0.60905 -0.00480
 C506 C 0.33217 0.61542 0.00395
 C507 C 0.31500 0.60104 0.00417
 C508 C 0.31773 0.57989 -0.00418
 C509 C 0.33798 0.57359 -0.01294
 C510 C 0.35499 0.58801 -0.01343
 C511 C 0.37093 0.62405 -0.00485
 C512 C 0.39225 0.61601 -0.00177
 C513 C 0.40980 0.62973 -0.00283
 C514 C 0.40648 0.65188 -0.00662
 C515 C 0.38523 0.66017 -0.00904
 C516 C 0.36761 0.64636 -0.00832
 C517 C 0.42535 0.66606 -0.00825
 C518 C 0.42645 0.68518 0.00418
 C519 C 0.44522 0.69743 0.00396
 C520 C 0.46312 0.69089 -0.00891
 C521 C 0.46147 0.67227 -0.02212
 C522 C 0.44288 0.65991 -0.02165
 H523 H 0.32964 0.63142 0.01093
 H524 H 0.29958 0.60656 0.01081
 H525 H 0.34090 0.55736 -0.01917
 H526 H 0.37018 0.58261 -0.02069
 H527 H 0.39544 0.59908 0.00157
 H528 H 0.42604 0.62304 -0.00052
 H529 H 0.38232 0.67722 -0.01206
 H530 H 0.35146 0.65309 -0.01100
 H531 H 0.41312 0.69016 0.01470
 H532 H 0.44600 0.71156 0.01447
 H533 H 0.47467 0.66708 -0.03269
 H534 H 0.44224 0.64541 -0.03166
 C535 C 0.10695 -0.15021 0.51244
 C536 C 0.08640 -0.14713 0.52197
 C537 C 0.07123 -0.16347 0.52125
 C538 C 0.07627 -0.18351 0.51126
 C539 C 0.09698 -0.18679 0.50208
 C540 C 0.11212 -0.17031 0.50261
 C541 C 0.12262 -0.13230 0.51247
 C542 C 0.14504 -0.13638 0.51513
 C543 C 0.15954 -0.11932 0.51552
 C544 C 0.15188 -0.09787 0.51351
 C545 C 0.12957 -0.09382 0.51061
 C546 C 0.11515 -0.11081 0.50997
 C547 C 0.16689 -0.07956 0.51431
 C548 C 0.16159 -0.06108 0.52684
 C549 C 0.17449 -0.04292 0.52611
 C550 C 0.19290 -0.04271 0.51265
 C551 C 0.19876 -0.06157 0.50085
 C552 C 0.18589 -0.07987 0.50173
 H553 H 0.08196 -0.13203 0.53004
 H554 H 0.05537 -0.16017 0.52819
 H555 H 0.10153 -0.20210 0.49449
 H556 H 0.12773 -0.17319 0.49495
 H557 H 0.15134 -0.15271 0.51733
 H558 H 0.17668 -0.12284 0.51785
 H559 H 0.12329 -0.07745 0.50856
 H560 H 0.09811 -0.10707 0.50729
 H561 H 0.14724 -0.06059 0.53699
 H562 H 0.16984 -0.02886 0.53583
 H563 H 0.21274 -0.06187 0.49021
 H564 H 0.19027 -0.09391 0.49186
 C565 C 0.64649 0.38587 1.00283
 C566 C 0.64289 0.40700 0.99516
 C567 C 0.65986 0.42141 0.99403
 C568 C 0.68101 0.41505 1.00029
 C569 C 0.68475 0.39378 1.00759
 C570 C 0.66767 0.37936 1.00887
 C571 C 0.62806 0.37098 1.00487
 C572 C 0.63051 0.34885 0.99978
 C573 C 0.61287 0.33512 1.00127
 C574 C 0.59239 0.34325 1.00784
 C575 C 0.59005 0.36535 1.01306
 C576 C 0.60765 0.37899 1.01173
 C577 C 0.57331 0.32904 1.00882
 C578 C 0.55752 0.33235 1.02511
 C579 C 0.53857 0.32051 1.02492
 C580 C 0.53506 0.30487 1.00863
 C581 C 0.55119 0.30076 0.99292
 C582 C 0.57010 0.31282 0.99293
 H583 H 0.62687 0.41246 0.99001
 H584 H 0.65625 0.43773 0.98866
 H585 H 0.70087 0.38826 1.01231
 H586 H 0.67099 0.36326 1.01501
 H587 H 0.64596 0.34218 0.99428
 H588 H 0.61530 0.31814 0.99733
 H589 H 0.57448 0.37229 1.01784
 H590 H 0.60524 0.39586 1.01615
 H591 H 0.55970 0.34428 1.03792
 H592 H 0.52650 0.32371 1.03742
 H593 H 0.54877 0.28884 0.98013
 H594 H 0.58180 0.30998 0.98003
 C595 C 0.49033 0.10208 1.15007
 C596 C 0.48349 0.08111 1.14528
 C597 C 0.48447 0.06510 1.16119
 C598 C 0.49198 0.06977 1.18241
 C599 C 0.49874 0.09088 1.18718
 C600 C 0.49808 0.10682 1.17111
 C601 C 0.48957 0.11880 1.13293
 C602 C 0.50783 0.13110 1.12858
 C603 C 0.50758 0.14570 1.11127
 C604 C 0.48893 0.14850 1.09815
 C605 C 0.47041 0.13671 1.10315
 C606 C 0.47079 0.12191 1.12023
 C607 C 0.48907 0.16287 1.07877
 C608 C 0.47792 0.15707 1.05960
 C609 C 0.47846 0.17008 1.04113
 C610 C 0.49044 0.18911 1.04116
 C611 C 0.50145 0.19507 1.06037
 C612 C 0.50071 0.18215 1.07898
 H613 H 0.47777 0.07699 1.12905
 H614 H 0.47965 0.04896 1.15668
 H615 H 0.50429 0.09520 1.20340
 H616 H 0.50331 0.12294 1.17520
 H617 H 0.52256 0.12884 1.13807
 H618 H 0.52224 0.15424 1.10774
 H619 H 0.45559 0.13882 1.09380
 H620 H 0.45640 0.11281 1.12350
 H621 H 0.46906 0.14221 1.05865
 H622 H 0.46945 0.16518 1.02678
 H623 H 0.51099 0.20952 1.06093
 H624 H 0.50925 0.18728 1.09353
 C625 C -0.00382 0.65480 0.61286
 C626 C 0.01522 0.65766 0.60075
 C627 C 0.01627 0.67399 0.58522
 C628 C -0.00176 0.68773 0.58127
 C629 C -0.02070 0.68512 0.59352
 C630 C -0.02168 0.66892 0.60922
 C631 C -0.00524 0.63664 0.62852
 C632 C -0.02452 0.62516 0.63046
 C633 C -0.02548 0.60724 0.64411
 C634 C -0.00713 0.60021 0.65604
 C635 C 0.01199 0.61201 0.65453
 C636 C 0.01289 0.63005 0.64101
 C637 C -0.00760 0.58010 0.66916
 C638 C 0.00390 0.57837 0.68898
 C639 C 0.00449 0.55897 0.70053
 C640 C -0.00651 0.54086 0.69259
 C641 C -0.01850 0.54279 0.67310
 C642 C -0.01895 0.56210 0.66149
 H643 H 0.02914 0.64685 0.60278
 H644 H 0.03096 0.67543 0.57579
 H645 H -0.03474 0.69567 0.59097
 H646 H -0.03646 0.66745 0.61851
 H647 H -0.03874 0.62961 0.62094
 H648 H -0.04057 0.59876 0.64515
 H649 H 0.02650 0.60696 0.66329
 H650 H 0.02789 0.63871 0.64021
 H651 H 0.01257 0.59200 0.69553
 H652 H 0.01401 0.55800 0.71540
 H653 H -0.02746 0.52929 0.66671
 H654 H -0.02776 0.56272 0.64617
 C655 C 0.50428 0.89503 -0.14958
 C656 C 0.49662 0.91611 -0.14500
 C657 C 0.49731 0.93209 -0.16089
 C658 C 0.50534 0.92729 -0.18192
 C659 C 0.51307 0.90611 -0.18644
 C660 C 0.51269 0.89019 -0.17037
 C661 C 0.50348 0.87829 -0.13252
 C662 C 0.52196 0.86562 -0.12739
 C663 C 0.52158 0.85105 -0.11006
 C664 C 0.50259 0.84867 -0.09772
 C665 C 0.48388 0.86079 -0.10355
 C666 C 0.48438 0.87555 -0.12062
 C667 C 0.50249 0.83441 -0.07826
 C668 C 0.49057 0.84060 -0.05961
 C669 C 0.49070 0.82762 -0.04111
 C670 C 0.50303 0.80822 -0.04056
 C671 C 0.51489 0.80190 -0.05923
 C672 C 0.51457 0.81482 -0.07789
 H673 H 0.49040 0.92032 -0.12895
 H674 H 0.49177 0.94830 -0.15656
 H675 H 0.51909 0.90172 -0.20250
 H676 H 0.51858 0.87398 -0.17429
 H677 H 0.53693 0.86758 -0.13628
 H678 H 0.53636 0.84221 -0.10590
 H679 H 0.46882 0.85899 -0.09481
 H680 H 0.46983 0.88492 -0.12452
 H681 H 0.48136 0.85572 -0.05910
 H682 H 0.48105 0.83281 -0.02720
 H683 H 0.52470 0.78715 -0.05932
 H684 H 0.52375 0.80941 -0.09204
 C685 C 0.99547 0.34615 0.38604
 C686 C 0.97683 0.34275 0.39847
 C687 C 0.97645 0.32630 0.41394
 C688 C 0.99489 0.31280 0.41790
 C689 C 1.01332 0.31595 0.40470
 C690 C 1.01352 0.33221 0.38902
 C691 C 0.99647 0.36479 0.37086
 C692 C 1.01581 0.37611 0.36860
 C693 C 1.01656 0.39437 0.35545
 C694 C 0.99791 0.40208 0.34444
 C695 C 0.97867 0.39051 0.34628
 C696 C 0.97800 0.37203 0.35924
 C697 C 0.99840 0.42254 0.33185
 C698 C 0.98624 0.42520 0.31251
 C699 C 0.98651 0.44468 0.30108
 C700 C 0.99904 0.46192 0.30864
 C701 C 1.01135 0.45913 0.32783
 C702 C 1.01090 0.43981 0.33935
 H703 H 0.96258 0.35316 0.39670
 H704 H 0.96135 0.32425 0.42246
 H705 H 1.02827 0.30677 0.40693
 H706 H 1.02806 0.33404 0.37945
 H707 H 1.03031 0.37126 0.37749
 H708 H 1.03178 0.40258 0.35408
 H709 H 0.96394 0.39604 0.33819
 H710 H 0.96291 0.36354 0.36026
 H711 H 0.97662 0.41217 0.30611
 H712 H 0.97669 0.44631 0.28646
 H713 H 1.02152 0.47186 0.33395
 H714 H 1.02017 0.43856 0.35435
 C715 C 0.50105 0.88301 0.15734
 C716 C 0.48335 0.88637 0.17140
 C717 C 0.48335 0.90296 0.18706
 C718 C 0.50115 0.91682 0.18928
 C719 C 0.51926 0.91261 0.17563
 C720 C 0.51913 0.89613 0.15990
 C721 C 0.50024 0.86678 0.13926
 C722 C 0.51903 0.85514 0.13271
 C723 C 0.51867 0.84152 0.11436
 C724 C 0.49947 0.83910 0.10220
 C725 C 0.48048 0.85000 0.10934
 C726 C 0.48088 0.86374 0.12756
 C727 C 0.49953 0.82638 0.08146
 C728 C 0.48751 0.83386 0.06337
 C729 C 0.48826 0.82268 0.04350
 C730 C 0.50122 0.80382 0.04106
 C731 C 0.51297 0.79606 0.05921
 C732 C 0.51214 0.80723 0.07920
 H733 H 0.46925 0.87636 0.17009
 H734 H 0.46870 0.90538 0.19648
 H735 H 0.53392 0.92171 0.17709
 H736 H 0.53307 0.89408 0.14933
 H737 H 0.53413 0.85680 0.14156
 H738 H 0.53363 0.83350 0.10926
 H739 H 0.46533 0.84821 0.10061
 H740 H 0.46615 0.87257 0.13196
 H741 H 0.47787 0.84870 0.06439
 H742 H 0.47870 0.82890 0.02996
 H743 H 0.52320 0.78164 0.05783
 H744 H 0.52141 0.80089 0.09287
 C745 C 0.00611 0.34973 0.60279
 C746 C 0.01483 0.35323 0.58201
 C747 C 0.01417 0.33714 0.56589
 C748 C 0.00499 0.31705 0.57023
 C749 C -0.00348 0.31348 0.59118
 C750 C -0.00304 0.32970 0.60723
 C751 C 0.00610 0.36722 0.61949
 C752 C -0.01278 0.37246 0.63134
 C753 C -0.01323 0.38996 0.64596
 C754 C 0.00527 0.40247 0.64920
 C755 C 0.02436 0.39671 0.63783
 C756 C 0.02473 0.37936 0.62306
 C757 C 0.00438 0.42201 0.66357
 C758 C 0.01536 0.44071 0.65768
 C759 C 0.01388 0.45940 0.67058
 C760 C 0.00119 0.46000 0.68961
 C761 C -0.00954 0.44123 0.69572
 C762 C -0.00793 0.42243 0.68288
 H763 H 0.02167 0.36865 0.57806
 H764 H 0.02041 0.34068 0.54986
 H765 H -0.01034 0.29811 0.59523
 H766 H -0.00969 0.32654 0.62320
 H767 H -0.02743 0.36348 0.62872
 H768 H -0.02830 0.39411 0.65417
 H769 H 0.03904 0.40567 0.64027
 H770 H 0.03959 0.37544 0.61435
 H771 H 0.02475 0.44111 0.64280
 H772 H 0.02268 0.47343 0.66559
 H773 H -0.01957 0.44118 0.71019
 H774 H -0.01637 0.40825 0.68806
 C775 C 0.50095 0.11456 0.84279
 C776 C 0.52050 0.10268 0.83998
 C777 C 0.52224 0.08633 0.82416
 C778 C 0.50439 0.08112 0.81093
 C779 C 0.48504 0.09343 0.81327
 C780 C 0.48340 0.11003 0.82888
 C781 C 0.49856 0.13063 0.86097
 C782 C 0.47884 0.13293 0.87232
 C783 C 0.47705 0.14658 0.89055
 C784 C 0.49500 0.15804 0.89819
 C785 C 0.51452 0.15632 0.88643
 C786 C 0.51623 0.14290 0.86798
 C787 C 0.49370 0.17071 0.91898
 C788 C 0.50527 0.18986 0.92184
 C789 C 0.50487 0.20096 0.94187
 C790 C 0.49278 0.19325 0.95946
 C791 C 0.48079 0.17444 0.95638
 C792 C 0.48138 0.16324 0.93651
 H793 H 0.53432 0.10547 0.85049
 H794 H 0.53756 0.07756 0.82254
 H795 H 0.47087 0.08984 0.80354
 H796 H 0.46822 0.11909 0.83023
 H797 H 0.46493 0.12361 0.86764
 H798 H 0.46161 0.14785 0.89888
 H799 H 0.52875 0.16475 0.89188
 H800 H 0.53154 0.14191 0.85942
 H801 H 0.51469 0.19627 0.90862
 H802 H 0.51442 0.21531 0.94370
 H803 H 0.47094 0.16825 0.96940
 H804 H 0.47254 0.14840 0.93512
 C805 C 1.01014 0.65314 0.39609
 C806 C 1.00016 0.67336 0.39199
 C807 C 0.99969 0.68950 0.40815
 C808 C 1.00900 0.68569 0.42883
 C809 C 1.01904 0.66544 0.43282
 C810 C 1.01969 0.64941 0.41662
 C811 C 1.01012 0.63569 0.37933
 C812 C 1.02887 0.62289 0.37558
 C813 C 1.02847 0.60548 0.36091
 C814 C 1.00925 0.60035 0.34979
 C815 C 0.99064 0.61357 0.35311
 C816 C 0.99110 0.63110 0.36767
 C817 C 1.00834 0.58069 0.33568
 C818 C 0.99599 0.58062 0.31630
 C819 C 0.99440 0.56173 0.30370
 C820 C 1.00512 0.54251 0.31020
 C821 C 1.01781 0.54274 0.32933
 C822 C 1.01932 0.56155 0.34193
 H823 H 0.99287 0.67672 0.37623
 H824 H 0.99213 0.70500 0.40439
 H825 H 1.02596 0.66174 0.44867
 H826 H 1.02716 0.63384 0.42035
 H827 H 1.04385 0.62630 0.38409
 H828 H 1.04321 0.59593 0.35838
 H829 H 0.97549 0.60992 0.34505
 H830 H 0.97635 0.64058 0.37042
 H831 H 0.98753 0.59515 0.31089
 H832 H 0.98440 0.56205 0.28913
 H833 H 1.02656 0.52832 0.33461
 H834 H 1.02874 0.56092 0.35689
 C835 C 1.15275 0.51817 0.10951
 C836 C 1.17210 0.50614 0.11234
 C837 C 1.18811 0.50584 0.09624
 C838 C 1.18526 0.51756 0.07665
 C839 C 1.16590 0.53008 0.07430
 C840 C 1.14995 0.53032 0.09043
 C841 C 1.13513 0.51743 0.12593
 C842 C 1.12282 0.53614 0.13127
 C843 C 1.10524 0.53509 0.14551
 C844 C 1.09957 0.51531 0.15473
 C845 C 1.11227 0.49672 0.14990
 C846 C 1.12986 0.49777 0.13566
 C847 C 1.07982 0.51382 0.16837
 C848 C 1.07969 0.50068 0.18698
 C849 C 1.06067 0.49844 0.19904
 C850 C 1.04137 0.50921 0.19264
 C851 C 1.04163 0.52267 0.17429
 C852 C 1.06062 0.52495 0.16230
 H853 H 1.17495 0.49700 0.12712
 H854 H 1.20292 0.49677 0.09965
 H855 H 1.16220 0.53883 0.05950
 H856 H 1.13501 0.53944 0.08757
 H857 H 1.12672 0.55160 0.12433
 H858 H 1.09598 0.54976 0.14921
 H859 H 1.10814 0.48118 0.15650
 H860 H 1.13884 0.48301 0.13165
 H861 H 1.09428 0.49206 0.19217
 H862 H 1.06091 0.48788 0.21304
 H863 H 1.02708 0.53139 0.16914
 H864 H 1.06011 0.53500 0.14792
 C865 C 0.61742 0.00452 0.65623
 C866 C 0.60806 -0.01548 0.66063
 C867 C 0.59256 -0.01725 0.67706
 C868 C 0.58571 0.00099 0.68932
 C869 C 0.59542 0.02088 0.68524
 C870 C 0.61118 0.02257 0.66906
 C871 C 0.63283 0.00670 0.63771
 C872 C 0.63271 0.02563 0.62516
 C873 C 0.64618 0.02723 0.60699
 C874 C 0.65989 0.00982 0.60061
 C875 C 0.66037 -0.00893 0.61345
 C876 C 0.64715 -0.01041 0.63183
 C877 C 0.67281 0.01080 0.58013
 C878 C 0.69322 0.00026 0.57846
 C879 C 0.70452 -0.00013 0.55870
 C880 C 0.69582 0.01021 0.54015
 C881 C 0.67581 0.02145 0.54207
 C882 C 0.66439 0.02159 0.56171
 H883 H 0.61221 -0.02971 0.65098
 H884 H 0.58580 -0.03293 0.67997
 H885 H 0.59044 0.03537 0.69410
 H886 H 0.61830 0.03815 0.66647
 H887 H 0.62175 0.03906 0.62894
 H888 H 0.64564 0.04210 0.59780
 H889 H 0.67051 -0.02279 0.60897
 H890 H 0.64802 -0.02509 0.64131
 H891 H 0.70043 -0.00789 0.59238
 H892 H 0.71979 -0.00910 0.55781
 H893 H 0.66879 0.02998 0.52829
 H894 H 0.64862 0.02966 0.56221
 C895 C -0.15454 0.48632 0.89262
 C896 C -0.16489 0.46726 0.89858
 C897 C -0.18079 0.46763 0.91478
 C898 C -0.18708 0.48713 0.92524
 C899 C -0.17716 0.50627 0.91884
 C900 C -0.16100 0.50585 0.90291
 C901 C -0.13661 0.48576 0.87634
 C902 C -0.13343 0.50332 0.86238
 C903 C -0.11574 0.50338 0.84818
 C904 C -0.10093 0.48574 0.84729
 C905 C -0.10456 0.46785 0.86067
 C906 C -0.12203 0.46794 0.87513
 C907 C -0.08127 0.48644 0.83324
 C908 C -0.06148 0.47706 0.84032
 C909 C -0.04271 0.47879 0.82787
 C910 C -0.04306 0.49029 0.80817
 C911 C -0.06293 0.49922 0.80078
 C912 C -0.08182 0.49720 0.81309
 H913 H -0.16066 0.45197 0.89079
 H914 H -0.18780 0.45249 0.91940
 H915 H -0.18180 0.52167 0.92619
 H916 H -0.15325 0.52083 0.89904
 H917 H -0.14451 0.51715 0.86250
 H918 H -0.11340 0.51757 0.83835
 H919 H -0.09378 0.45378 0.86017
 H920 H -0.12372 0.45421 0.88576
 H921 H -0.06028 0.46887 0.85584
 H922 H -0.02783 0.47129 0.83387
 H923 H -0.06382 0.50833 0.78579
 H924 H -0.09681 0.50428 0.80688
 C925 C 0.38864 0.00050 0.34747
 C926 C 0.39924 -0.01931 0.34242
 C927 C 0.41503 -0.02062 0.32612
 C928 C 0.42090 -0.00209 0.31463
 C929 C 0.41010 0.01766 0.31949
 C930 C 0.39408 0.01890 0.33554
 C931 C 0.37262 0.00211 0.36561
 C932 C 0.37128 0.02071 0.37897
 C933 C 0.35715 0.02180 0.39673
 C934 C 0.34421 0.00418 0.40189
 C935 C 0.34517 -0.01424 0.38825
 C936 C 0.35907 -0.01520 0.37027
 C937 C 0.33071 0.00454 0.42203
 C938 C 0.31082 -0.00608 0.42268
 C939 C 0.29913 -0.00717 0.44215
 C940 C 0.30695 0.00250 0.46141
 C941 C 0.32635 0.01389 0.46052
 C942 C 0.33816 0.01474 0.44117
 H943 H 0.39575 -0.03378 0.35141
 H944 H 0.42268 -0.03619 0.32261
 H945 H 0.41433 0.03236 0.31126
 H946 H 0.38603 0.03436 0.33866
 H947 H 0.38160 0.03429 0.37612
 H948 H 0.35657 0.03642 0.40658
 H949 H 0.33566 -0.02823 0.39179
 H950 H 0.35931 -0.02963 0.36014
 H951 H 0.30436 -0.01378 0.40818
 H952 H 0.28431 -0.01618 0.44227
 H953 H 0.33264 0.02193 0.47490
 H954 H 0.35350 0.02286 0.44146
 C955 C 0.14995 0.50911 0.89179
 C956 C 0.15994 0.52833 0.89829
 C957 C 0.17625 0.52810 0.91419
 C958 C 0.18332 0.50857 0.92379
 C959 C 0.17379 0.48927 0.91681
 C960 C 0.15722 0.48956 0.90118
 C961 C 0.13154 0.50952 0.87592
 C962 C 0.12843 0.49218 0.86131
 C963 C 0.11038 0.49197 0.84743
 C964 C 0.09512 0.50925 0.84753
 C965 C 0.09863 0.52692 0.86162
 C966 C 0.11647 0.52697 0.87574
 C967 C 0.07520 0.50844 0.83370
 C968 C 0.05537 0.51718 0.84142
 C969 C 0.03644 0.51553 0.82900
 C970 C 0.03669 0.50477 0.80867
 C971 C 0.05658 0.49639 0.80073
 C972 C 0.07561 0.49832 0.81302
 H973 H 0.15509 0.54367 0.89117
 H974 H 0.18294 0.54335 0.91929
 H975 H 0.17904 0.47387 0.92349
 H976 H 0.14978 0.47444 0.89686
 H977 H 0.13987 0.47864 0.86065
 H978 H 0.10815 0.47796 0.83703
 H979 H 0.08749 0.54071 0.86189
 H980 H 0.11810 0.54049 0.88691
 H981 H 0.05428 0.52484 0.85735
 H982 H 0.02154 0.52259 0.83547
 H983 H 0.05739 0.48784 0.78524
 H984 H 0.09062 0.49174 0.80633
 C985 C 0.60662 -0.00073 0.34631
 C986 C 0.60136 -0.01979 0.33500
 C987 C 0.58535 -0.01955 0.31879
 C988 C 0.57438 -0.00017 0.31316
 C989 C 0.58013 0.01901 0.32399
 C990 C 0.59590 0.01871 0.34045
 C991 C 0.62264 -0.00124 0.36462
 C992 C 0.63608 0.01639 0.36873
 C993 C 0.65020 0.01636 0.38665
 C994 C 0.65152 -0.00143 0.40078
 C995 C 0.63854 -0.01931 0.39628
 C996 C 0.62418 -0.01915 0.37858
 C997 C 0.66579 -0.00105 0.42048
 C998 C 0.65928 -0.01076 0.43999
 C999 C 0.67224 -0.00982 0.45871
 C1000 C 0.69191 0.00119 0.45859
 C1001 C 0.69858 0.01067 0.43903
 C1002 C 0.68575 0.00945 0.42018
 H1003 H 0.60953 -0.03501 0.33873
 H1004 H 0.58123 -0.03472 0.31108
 H1005 H 0.57236 0.03432 0.31987
 H1006 H 0.59926 0.03368 0.34893
 H1007 H 0.63566 0.03031 0.35816
 H1008 H 0.65972 0.03055 0.38968
 H1009 H 0.63936 -0.03348 0.40651
 H1010 H 0.61393 -0.03291 0.37618
 H1011 H 0.64391 -0.01875 0.44101
 H1012 H 0.66676 -0.01770 0.47333
 H1013 H 0.71351 0.01946 0.43835
 H1014 H 0.69150 0.01681 0.40539
 C1015 C 0.84597 0.48882 0.11094
 C1016 C 0.84198 0.46911 0.10019
 C1017 C 0.82520 0.46757 0.08485
 C1018 C 0.81221 0.48579 0.07949
 C1019 C 0.81594 0.50537 0.09060
 C1020 C 0.83237 0.50679 0.10627
 C1021 C 0.86477 0.49093 0.12617
 C1022 C 0.87605 0.51039 0.12749
 C1023 C 0.89415 0.51226 0.14105
 C1024 C 0.90191 0.49458 0.15334
 C1025 C 0.89051 0.47518 0.15228
 C1026 C 0.87209 0.47344 0.13901
 C1027 C 0.92214 0.49627 0.16661
 C1028 C 0.92478 0.48504 0.18637
 C1029 C 0.94401 0.48646 0.19847
 C1030 C 0.96098 0.49936 0.19127
 C1031 C 0.95817 0.51080 0.17168
 C1032 C 0.93917 0.50909 0.15943
 H1033 H 0.85218 0.45494 0.10311
 H1034 H 0.82261 0.45207 0.07706
 H1035 H 0.80659 0.51990 0.08683
 H1036 H 0.83452 0.52212 0.11453
 H1037 H 0.87124 0.52415 0.11766
 H1038 H 0.90213 0.52763 0.14176
 H1039 H 0.89605 0.46113 0.16130
 H1040 H 0.86366 0.45831 0.13878
 H1041 H 0.91195 0.47524 0.19261
 H1042 H 0.94564 0.47722 0.21334
 H1043 H 0.97062 0.52127 0.16578
 H1044 H 0.93802 0.51767 0.14413
 C1045 C 0.39928 -0.00550 0.65166
 C1046 C 0.40891 0.01437 0.65646
 C1047 C 0.42490 0.01583 0.67262
 C1048 C 0.43192 -0.00259 0.68420
 C1049 C 0.42222 -0.02243 0.67945
 C1050 C 0.40601 -0.02383 0.66353
 C1051 C 0.38269 -0.00718 0.63399
 C1052 C 0.38183 -0.02581 0.62069
 C1053 C 0.36683 -0.02710 0.60361
 C1054 C 0.35247 -0.00967 0.59911
 C1055 C 0.35311 0.00883 0.61261
 C1056 C 0.36791 0.00999 0.62990
 C1057 C 0.33759 -0.01038 0.57990
 C1058 C 0.31699 -0.00011 0.58057
 C1059 C 0.30376 0.00058 0.56197
 C1060 C 0.31071 -0.00917 0.54229
 C1061 C 0.33092 -0.02019 0.54188
 C1062 C 0.34425 -0.02064 0.56036
 H1063 H 0.40442 0.02879 0.64747
 H1064 H 0.43172 0.03146 0.67602
 H1065 H 0.42738 -0.03706 0.68775
 H1066 H 0.39876 -0.03934 0.66057
 H1067 H 0.39310 -0.03927 0.62312
 H1068 H 0.36659 -0.04176 0.59383
 H1069 H 0.34254 0.02270 0.60952
 H1070 H 0.36780 0.02444 0.64001
 H1071 H 0.31113 0.00761 0.59542
 H1072 H 0.28838 0.00935 0.56285
 H1073 H 0.33662 -0.02826 0.52715
 H1074 H 0.36007 -0.02850 0.55908
   
