data_POSCAR
  _audit_creation_date              2014-09-24
  _audit_creation_method            'ToBaCCo'
  _symmetry_space_group_name_H-M    'P1'
  _symmetry_Int_Tables_number       1
  _symmetry_cell_setting            triclinic
  loop_
  _symmetry_equiv_pos_as_xyz
 x,y,z
_cell_length_a 31.1893
_cell_length_b 29.6977
_cell_length_c 29.6957
_cell_angle_alpha 89.959500
_cell_angle_beta 90.019400
_cell_angle_gamma 89.973100
loop_
  _atom_site_label
  _atom_site_type_symbol
  _atom_site_fract_x
  _atom_site_fract_y
  _atom_site_fract_z
C1 C 0.31558 0.31187 0.23237
 H2 H 0.31735 0.31297 0.26874
 C3 C 0.34317 0.33840 0.20655
 H4 H 0.36576 0.36037 0.22338
 C5 C 0.28353 0.28211 0.16645
 H6 H 0.26079 0.25956 0.15089
 C7 C 0.31048 0.30808 0.13934
 H8 H 0.30810 0.30518 0.10309
 N9 N 0.28611 0.28491 0.21209
 C10 C 0.18462 0.26722 0.31160
 H11 H 0.18280 0.23086 0.31272
 C12 C 0.15709 0.29307 0.33815
 H13 H 0.13449 0.27629 0.36015
 C14 C 0.21675 0.33309 0.28179
 H15 H 0.23950 0.34861 0.25922
 C16 C 0.18986 0.36023 0.30778
 H17 H 0.19229 0.39648 0.30487
 Zn18 Zn 0.25009 0.24988 0.24961
 N19 N 0.21411 0.28745 0.28462
 C20 C 0.28344 0.21774 0.33286
 N21 N 0.28604 0.21481 0.28723
 C22 C 0.31549 0.18774 0.26706
 C23 C 0.34305 0.16122 0.29298
 C24 C 0.31035 0.19180 0.36007
 C25 C 0.18466 0.23266 0.18750
 C26 C 0.15706 0.20686 0.16098
 C27 C 0.18970 0.13964 0.19149
 C28 C 0.21666 0.16674 0.21744
 N29 N 0.21410 0.21238 0.21454
 H30 H 0.26072 0.24039 0.34833
 H31 H 0.31729 0.18654 0.23069
 H32 H 0.36563 0.13917 0.27625
 H33 H 0.30797 0.19481 0.39631
 H34 H 0.18290 0.26903 0.18633
 H35 H 0.13449 0.22369 0.13896
 H36 H 0.19204 0.10339 0.19447
 H37 H 0.23937 0.15118 0.24005
 C38 C 0.15966 0.34027 0.33663
 C39 C 0.34067 0.33689 0.15935
 C40 C 0.15952 0.15966 0.16260
 C41 C 0.34053 0.16287 0.34018
 C42 C 0.81507 0.81271 0.23263
 H43 H 0.81670 0.81393 0.26901
 C44 C 0.84261 0.83937 0.20689
 H45 H 0.86397 0.86179 0.22470
 C46 C 0.78320 0.78294 0.16685
 H47 H 0.76073 0.76009 0.15130
 C48 C 0.81002 0.80903 0.13972
 H49 H 0.80768 0.80447 0.10370
 N50 N 0.78573 0.78569 0.21242
 C51 C 0.68434 0.76704 0.31187
 H52 H 0.68258 0.73066 0.31264
 C53 C 0.65664 0.79258 0.33852
 H54 H 0.63339 0.77557 0.35957
 C55 C 0.71608 0.83325 0.28237
 H56 H 0.73894 0.84902 0.26009
 C57 C 0.68896 0.86010 0.30841
 H58 H 0.69192 0.89637 0.30650
 Zn59 Zn 0.74989 0.75036 0.24985
 N60 N 0.71371 0.78759 0.28500
 C61 C 0.78332 0.71798 0.33298
 N62 N 0.78600 0.71532 0.28734
 C63 C 0.81558 0.68848 0.26707
 C64 C 0.84317 0.66190 0.29288
 C65 C 0.81026 0.69196 0.36009
 C66 C 0.68456 0.73297 0.18767
 C67 C 0.65709 0.70708 0.16108
 C68 C 0.69004 0.63996 0.19144
 C69 C 0.71686 0.66714 0.21746
 N70 N 0.71409 0.71277 0.21468
 H71 H 0.76050 0.74044 0.34854
 H72 H 0.81742 0.68749 0.23070
 H73 H 0.86584 0.64001 0.27606
 H74 H 0.80780 0.69473 0.39635
 H75 H 0.68264 0.76933 0.18659
 H76 H 0.63444 0.72384 0.13909
 H77 H 0.69255 0.60371 0.19433
 H78 H 0.73964 0.65164 0.24005
 C79 C 0.65887 0.83980 0.33716
 C80 C 0.84047 0.83830 0.15935
 C81 C 0.65978 0.65989 0.16259
 C82 C 0.84055 0.66324 0.34008
 C83 C 0.81611 0.31173 0.73283
 H84 H 0.81793 0.31288 0.76919
 C85 C 0.84361 0.33831 0.70695
 H86 H 0.86617 0.36036 0.72372
 C87 C 0.78405 0.28182 0.66698
 H88 H 0.76135 0.25920 0.65148
 C89 C 0.81091 0.30783 0.63981
 H90 H 0.80850 0.30489 0.60356
 N91 N 0.78668 0.28468 0.71262
 C92 C 0.68535 0.26697 0.81231
 H93 H 0.68362 0.23061 0.81354
 C94 C 0.65778 0.29283 0.83882
 H95 H 0.63524 0.27605 0.86088
 C96 C 0.71728 0.33283 0.78225
 H97 H 0.73996 0.34835 0.75960
 C98 C 0.69035 0.35998 0.80818
 H99 H 0.69267 0.39623 0.80515
 Zn100 Zn 0.75073 0.24964 0.75020
 N101 N 0.71475 0.28720 0.78522
 C102 C 0.78424 0.21748 0.83330
 N103 N 0.78672 0.21458 0.78779
 C104 C 0.81613 0.18759 0.76773
 C105 C 0.84376 0.16106 0.79354
 C106 C 0.81113 0.19158 0.86056
 C107 C 0.68526 0.23241 0.68817
 C108 C 0.65767 0.20662 0.66163
 C109 C 0.69037 0.13939 0.69202
 C110 C 0.71732 0.16648 0.71800
 N111 N 0.71473 0.21212 0.71517
 H112 H 0.76177 0.24043 0.84874
 H113 H 0.81769 0.18619 0.73135
 H114 H 0.86460 0.13857 0.77523
 H115 H 0.80865 0.19709 0.89639
 H116 H 0.68347 0.26878 0.68705
 H117 H 0.63508 0.22346 0.63963
 H118 H 0.69275 0.10314 0.69495
 H119 H 0.74006 0.15091 0.74058
 C120 C 0.66022 0.34003 0.83713
 C121 C 0.84105 0.33676 0.65975
 C122 C 0.66017 0.15942 0.66317
 C123 C 0.84184 0.16204 0.84129
 C124 C 0.31483 0.81257 0.73326
 H125 H 0.31659 0.81359 0.76963
 C126 C 0.34238 0.83922 0.70751
 H127 H 0.36492 0.86120 0.72438
 C128 C 0.28290 0.78283 0.66726
 H129 H 0.26025 0.76023 0.65164
 C130 C 0.30981 0.80892 0.64022
 H131 H 0.30749 0.80606 0.60396
 N132 N 0.28546 0.78555 0.71291
 C133 C 0.18402 0.76691 0.81231
 H134 H 0.18227 0.73053 0.81314
 C135 C 0.15626 0.79248 0.83888
 H136 H 0.13299 0.77549 0.85992
 C137 C 0.21576 0.83309 0.78275
 H138 H 0.23862 0.84885 0.76047
 C139 C 0.18858 0.85997 0.80869
 H140 H 0.19151 0.89624 0.80672
 Zn141 Zn 0.24959 0.75020 0.75030
 N142 N 0.21341 0.78743 0.78544
 C143 C 0.28301 0.71769 0.83339
 N144 N 0.28569 0.71512 0.78775
 C145 C 0.31531 0.68838 0.76741
 C146 C 0.34295 0.66180 0.79316
 C147 C 0.31001 0.69166 0.86044
 C148 C 0.18425 0.73288 0.68812
 C149 C 0.15680 0.70703 0.66147
 C150 C 0.18980 0.63988 0.69167
 C151 C 0.21660 0.66702 0.71776
 N152 N 0.21379 0.71265 0.71507
 H153 H 0.26015 0.74007 0.84900
 H154 H 0.31715 0.68747 0.73104
 H155 H 0.36566 0.64000 0.77628
 H156 H 0.30756 0.69435 0.89670
 H157 H 0.18229 0.76925 0.68711
 H158 H 0.13413 0.72382 0.63952
 H159 H 0.19234 0.60363 0.69449
 H160 H 0.23940 0.65149 0.74030
 C161 C 0.15845 0.83970 0.83742
 C162 C 0.33993 0.83776 0.66030
 C163 C 0.15952 0.65984 0.66287
 C164 C 0.34035 0.66305 0.84036
 C165 C -0.00070 0.00019 0.00009
 C166 C 0.00022 0.49999 0.49976
 C167 C 0.50007 0.00005 0.50043
 C168 C 0.50039 0.49988 -0.00028
 C169 C 0.07576 -0.07895 -0.08011
 C170 C 0.09369 -0.11853 -0.06276
 C171 C 0.12041 -0.14510 -0.08961
 C172 C 0.12961 -0.13238 -0.13424
 C173 C 0.11129 -0.09259 -0.15141
 C174 C 0.08454 -0.06608 -0.12449
 C175 C 0.04874 -0.05135 -0.05222
 C176 C 0.02629 -0.02812 -0.02868
 H177 H 0.08722 -0.12871 -0.02838
 H178 H 0.13446 -0.17520 -0.07523
 H179 H 0.11728 -0.08220 -0.18579
 H180 H 0.07075 -0.03555 -0.13829
 C181 C 0.07739 0.42184 0.41933
 C182 C 0.06116 0.38332 0.39826
 C183 C 0.08784 0.35678 0.37129
 C184 C 0.13116 0.36851 0.36504
 C185 C 0.14711 0.40737 0.38633
 C186 C 0.12039 0.43381 0.41330
 C187 C 0.05006 0.44903 0.44731
 C188 C 0.02741 0.47195 0.47091
 H189 H 0.02788 0.37381 0.40264
 H190 H 0.07447 0.32741 0.35491
 H191 H 0.18042 0.41695 0.38268
 H192 H 0.13331 0.46349 0.42959
 C193 C 0.57643 -0.07898 0.42002
 C194 C 0.59436 -0.11861 0.43723
 C195 C 0.62101 -0.14514 0.41025
 C196 C 0.63012 -0.13232 0.36563
 C197 C 0.61180 -0.09247 0.34860
 C198 C 0.58513 -0.06601 0.37564
 C199 C 0.54946 -0.05143 0.44802
 C200 C 0.52705 -0.02824 0.47162
 H201 H 0.58795 -0.12887 0.47160
 H202 H 0.63506 -0.17529 0.42453
 H203 H 0.61773 -0.08200 0.31423
 H204 H 0.57133 -0.03543 0.36196
 C205 C 0.57771 0.42168 -0.08050
 C206 C 0.56159 0.38301 -0.10141
 C207 C 0.58835 0.35645 -0.12827
 C208 C 0.63164 0.36828 -0.13457
 C209 C 0.64748 0.40728 -0.11344
 C210 C 0.62067 0.43376 -0.08658
 C211 C 0.55030 0.44889 -0.05263
 C212 C 0.52760 0.47183 -0.02909
 H213 H 0.52834 0.37342 -0.09700
 H214 H 0.57507 0.32697 -0.14453
 H215 H 0.68076 0.41696 -0.11712
 H216 H 0.63351 0.46355 -0.07042
 C217 C -0.07747 0.08090 -0.07839
 C218 C -0.06695 0.08939 -0.12321
 C219 C -0.09351 0.11632 -0.14995
 C220 C -0.13172 0.13577 -0.13250
 C221 C -0.14138 0.12653 -0.08662
 C222 C -0.11464 0.09953 -0.06019
 C223 C -0.05030 0.05280 -0.05107
 C224 C -0.02777 0.02912 -0.02804
 H225 H -0.03789 0.07544 -0.13755
 H226 H -0.08220 0.12311 -0.18362
 H227 H -0.17064 0.13779 -0.07082
 H228 H -0.12335 0.09272 -0.02551
 C229 C -0.07707 0.58042 0.42159
 C230 C -0.06084 0.60164 0.38311
 C231 C -0.08757 0.62864 0.35660
 C232 C -0.13091 0.63478 0.36828
 C233 C -0.14686 0.61332 0.40709
 C234 C -0.12009 0.58632 0.43351
 C235 C -0.04969 0.55243 0.44877
 C236 C -0.02700 0.52883 0.47171
 H237 H -0.02754 0.59737 0.37365
 H238 H -0.07420 0.64515 0.32727
 H239 H -0.18019 0.61687 0.41664
 H240 H -0.13301 0.56992 0.46315
 C241 C 0.42295 0.08045 0.42204
 C242 C 0.43912 0.10136 0.38337
 C243 C 0.41239 0.12823 0.35674
 C244 C 0.36909 0.13454 0.36850
 C245 C 0.35319 0.11340 0.40749
 C246 C 0.37997 0.08653 0.43404
 C247 C 0.45032 0.05254 0.44931
 C248 C 0.47296 0.02895 0.47232
 H249 H 0.47239 0.09694 0.37384
 H250 H 0.42572 0.14450 0.32726
 H251 H 0.31989 0.11708 0.41711
 H252 H 0.36709 0.07035 0.46382
 C253 C 0.42299 0.58028 -0.07837
 C254 C 0.43914 0.60162 -0.11680
 C255 C 0.41233 0.62861 -0.14324
 C256 C 0.36898 0.63461 -0.13151
 C257 C 0.35311 0.61303 -0.09274
 C258 C 0.37996 0.58605 -0.06639
 C259 C 0.45045 0.55230 -0.05125
 C260 C 0.47317 0.52871 -0.02834
 H261 H 0.47244 0.59746 -0.12631
 H262 H 0.42564 0.64521 -0.17254
 H263 H 0.31978 0.61648 -0.08316
 H264 H 0.36710 0.56955 -0.03678
 C265 C -0.07800 -0.07985 0.07857
 C266 C -0.11703 -0.09518 0.06147
 C267 C -0.14381 -0.12214 0.08786
 C268 C -0.13215 -0.13444 0.13230
 C269 C -0.09237 -0.11847 0.14886
 C270 C -0.06571 -0.09157 0.12224
 C271 C -0.05067 -0.05192 0.05130
 C272 C -0.02798 -0.02844 0.02827
 H273 H -0.12704 -0.08594 0.02775
 H274 H -0.17439 -0.13152 0.07354
 H275 H -0.08053 -0.12789 0.18175
 H276 H -0.03531 -0.08014 0.13570
 C277 C -0.07682 0.41952 0.57805
 C278 C -0.11980 0.41340 0.56606
 C279 C -0.14648 0.38642 0.59255
 C280 C -0.13049 0.36519 0.63148
 C281 C -0.08719 0.37154 0.64323
 C282 C -0.06055 0.39853 0.61665
 C283 C -0.04953 0.44751 0.55082
 C284 C -0.02691 0.47112 0.52785
 H285 H -0.13275 0.42963 0.53632
 H286 H -0.17979 0.38270 0.58294
 H287 H -0.07379 0.35522 0.67266
 H288 H -0.02729 0.40297 0.62618
 C289 C 0.42256 -0.07977 0.57886
 C290 C 0.37957 -0.08568 0.56677
 C291 C 0.35272 -0.11253 0.59320
 C292 C 0.36854 -0.13384 0.63216
 C293 C 0.41183 -0.12767 0.64403
 C294 C 0.43864 -0.10082 0.61751
 C295 C 0.45004 -0.05199 0.55163
 C296 C 0.47280 -0.02857 0.52862
 H297 H 0.36676 -0.06941 0.53699
 H298 H 0.31942 -0.11611 0.58350
 H299 H 0.42510 -0.14407 0.67348
 H300 H 0.47191 -0.09654 0.62711
 C301 C 0.42316 0.41950 0.07788
 C302 C 0.38017 0.41351 0.06581
 C303 C 0.35338 0.38658 0.09222
 C304 C 0.36925 0.36527 0.13115
 C305 C 0.41255 0.37147 0.14298
 C306 C 0.43930 0.39840 0.11648
 C307 C 0.45055 0.44744 0.05072
 C308 C 0.47323 0.47103 0.02779
 H309 H 0.36731 0.42982 0.03607
 H310 H 0.32008 0.38298 0.08255
 H311 H 0.42586 0.35507 0.17241
 H312 H 0.47257 0.40274 0.12606
 C313 C 0.07689 0.07819 0.08020
 C314 C 0.11986 0.06606 0.08624
 C315 C 0.14670 0.09247 0.11310
 C316 C 0.13090 0.13147 0.13429
 C317 C 0.08761 0.14336 0.12803
 C318 C 0.06081 0.11686 0.10117
 C319 C 0.04942 0.05105 0.05233
 C320 C 0.02665 0.02816 0.02883
 H321 H 0.13266 0.03627 0.07003
 H322 H 0.17999 0.08275 0.11674
 H323 H 0.07435 0.17283 0.14434
 H324 H 0.02755 0.12649 0.09680
 C325 C 0.07736 0.57822 0.58012
 C326 C 0.06105 0.61668 0.60126
 C327 C 0.08771 0.64324 0.62823
 C328 C 0.13107 0.63160 0.63442
 C329 C 0.14710 0.59282 0.61304
 C330 C 0.12041 0.56635 0.58607
 C331 C 0.05005 0.55100 0.55216
 C332 C 0.02741 0.52804 0.52858
 H333 H 0.02774 0.62610 0.59695
 H334 H 0.07427 0.67254 0.64468
 H335 H 0.18045 0.58331 0.61663
 H336 H 0.13339 0.53672 0.56972
 C337 C 0.57763 0.07804 0.58059
 C338 C 0.56151 0.11664 0.60164
 C339 C 0.58828 0.14311 0.62856
 C340 C 0.63158 0.13125 0.63481
 C341 C 0.64743 0.09232 0.61354
 C342 C 0.62061 0.06593 0.58662
 C343 C 0.55019 0.05091 0.55268
 C344 C 0.52743 0.02803 0.52916
 H345 H 0.52825 0.12625 0.59728
 H346 H 0.57499 0.17254 0.64493
 H347 H 0.68072 0.08263 0.61717
 H348 H 0.63345 0.03619 0.57035
 C349 C 0.57753 0.57816 0.08003
 C350 C 0.62057 0.56626 0.08601
 C351 C 0.64729 0.59276 0.11291
 C352 C 0.63129 0.63162 0.13420
 C353 C 0.58794 0.64328 0.12800
 C354 C 0.56126 0.61669 0.10109
 C355 C 0.55020 0.55092 0.05211
 C356 C 0.52756 0.52795 0.02855
 H357 H 0.63352 0.53659 0.06972
 H358 H 0.68063 0.58323 0.11653
 H359 H 0.57453 0.67264 0.14438
 H360 H 0.52796 0.62614 0.09675
   
