data_POSCAR
  _audit_creation_date              2014-09-24
  _audit_creation_method            'ToBaCCo'
  _symmetry_space_group_name_H-M    'P1'
  _symmetry_Int_Tables_number       1
  _symmetry_cell_setting            triclinic
  loop_
  _symmetry_equiv_pos_as_xyz
 x,y,z
_cell_length_a 27.9574
_cell_length_b 28.0784
_cell_length_c 70.9323
_cell_angle_alpha 83.599900
_cell_angle_beta 93.246400
_cell_angle_gamma 120.167200
loop_
  _atom_site_label
  _atom_site_type_symbol
  _atom_site_fract_x
  _atom_site_fract_y
  _atom_site_fract_z
C1 C 0.00279 0.11110 0.52482
 H2 H 0.04314 0.11517 0.52370
 C3 C -0.00521 0.14143 0.53726
 H4 H 0.02947 0.16935 0.54552
 C5 C -0.09113 0.06982 0.51518
 H6 H -0.12438 0.04157 0.50657
 C7 C -0.10102 0.09961 0.52750
 H8 H -0.14221 0.09369 0.52844
 N9 N -0.04001 0.07546 0.51435
 C10 C -0.00769 -0.05726 0.50651
 H11 H -0.00565 -0.05482 0.49123
 C12 C -0.00702 -0.10123 0.51771
 H13 H -0.00356 -0.13212 0.51097
 C14 C -0.01697 -0.02122 0.53387
 H15 H -0.02269 0.00881 0.54017
 C16 C -0.01596 -0.06401 0.54556
 H17 H -0.02079 -0.06611 0.56072
 Zn18 Zn -0.02281 0.03516 0.49906
 N19 N -0.01300 -0.01859 0.51472
 C20 C 0.08706 0.07972 0.48500
 N21 N 0.04259 0.08690 0.48567
 C22 C 0.04296 0.13245 0.47670
 C23 C 0.08861 0.17230 0.46601
 C24 C 0.13372 0.11862 0.47438
 C25 C -0.12731 -0.04891 0.48808
 C26 C -0.16578 -0.08392 0.47539
 C27 C -0.10741 -0.02212 0.44956
 C28 C -0.07013 0.01117 0.46275
 N29 N -0.07996 -0.00317 0.48161
 H30 H 0.08620 0.04360 0.49248
 H31 H 0.00711 0.13722 0.47759
 H32 H 0.08718 0.20730 0.45849
 H33 H 0.16866 0.11217 0.47382
 H34 H -0.13376 -0.05995 0.50321
 H35 H -0.20043 -0.12153 0.48160
 H36 H -0.09772 -0.00701 0.43482
 H37 H -0.03243 0.04775 0.45777
 C38 C -0.01163 -0.10513 0.53751
 C39 C -0.05782 0.13530 0.53896
 C40 C -0.15564 -0.07247 0.45554
 C41 C 0.13464 0.16546 0.46459
 C42 C 1.15528 0.06895 0.14206
 H43 H 1.15972 0.10878 0.14379
 C44 C 1.19061 0.06548 0.12991
 H45 H 1.22261 0.10304 0.12248
 C46 C 1.10832 -0.02816 0.14996
 H47 H 1.07605 -0.06445 0.15780
 C48 C 1.14286 -0.03358 0.13789
 H49 H 1.13637 -0.07434 0.13634
 N50 N 1.11459 0.02251 0.15153
 C51 C 0.97926 0.05282 0.15915
 H52 H 0.97582 0.04818 0.17444
 C53 C 0.93879 0.05724 0.14782
 H54 H 0.90476 0.05699 0.15449
 C55 C 1.02620 0.05582 0.13187
 H56 H 1.05902 0.05318 0.12564
 C57 C 0.98704 0.06075 0.12005
 H58 H 0.99050 0.06196 0.10485
 Zn59 Zn 1.06818 0.03329 0.16677
 N60 N 1.02142 0.05139 0.15104
 C61 C 1.10844 0.13495 0.18359
 N62 N 1.11472 0.09057 0.18200
 C63 C 1.15549 0.08488 0.19145
 C64 C 1.19091 0.12374 0.20359
 C65 C 1.14305 0.17495 0.19566
 C66 C 0.97929 -0.07518 0.17443
 C67 C 0.93886 -0.12002 0.18578
 C68 C 0.98727 -0.07508 0.21353
 C69 C 1.02640 -0.03106 0.20170
 N70 N 1.02151 -0.03152 0.18252
 H71 H 1.07609 0.13890 0.17578
 H72 H 1.15992 0.04950 0.18971
 H73 H 1.22299 0.11825 0.21100
 H74 H 1.13655 0.20920 0.19722
 H75 H 0.97578 -0.07408 0.15914
 H76 H 0.90478 -0.15385 0.17912
 H77 H 0.99082 -0.07272 0.22872
 H78 H 1.05927 0.00446 0.20791
 C79 C 0.94199 0.06039 0.12799
 C80 C 1.18418 0.01365 0.12747
 C81 C 0.94215 -0.11984 0.20561
 C82 C 1.18448 0.16913 0.20605
 C83 C 0.04380 0.91149 0.85648
 H84 H 0.00780 0.87092 0.85562
 C85 C 0.08938 0.91718 0.86720
 H86 H 0.08777 0.88072 0.87477
 C87 C 0.08829 1.00833 0.84810
 H88 H 0.08760 1.04362 0.84057
 C89 C 0.13490 1.01597 0.85875
 H90 H 0.16997 1.05731 0.85929
 N91 N 0.04365 0.95673 0.84745
 C92 C -0.12628 0.92265 0.84502
 H93 H -0.13302 0.92672 0.82990
 C94 C -0.16457 0.91946 0.85771
 H95 H -0.19987 0.92177 0.85177
 C96 C -0.06846 0.92088 0.87040
 H97 H -0.03050 0.92261 0.87539
 C98 C -0.10555 0.91727 0.88356
 H99 H -0.09580 0.91331 0.89841
 Zn100 Zn -0.02174 0.94319 0.83406
 N101 N -0.07872 0.92462 0.85152
 C102 C -0.09034 0.84007 0.81799
 N103 N -0.03918 0.88557 0.81878
 C104 C 0.00350 0.89266 0.80829
 C105 C -0.00467 0.85425 0.79586
 C106 C -0.10039 0.80031 0.80567
 C107 C -0.00628 1.05084 0.82659
 C108 C -0.00557 1.09551 0.81540
 C109 C -0.01491 1.04918 0.78756
 C110 C -0.01597 1.00535 0.79924
 N111 N -0.01183 1.00676 0.81839
 H112 H -0.12350 0.83510 0.82662
 H113 H 0.04388 0.92894 0.80940
 H114 H 0.02992 0.86097 0.78757
 H115 H -0.14160 0.76502 0.80476
 H116 H -0.00411 1.05050 0.84188
 H117 H -0.00194 1.12994 0.82214
 H118 H -0.01988 1.04639 0.77240
 H119 H -0.02188 0.96951 0.79295
 C120 C -0.15381 0.91874 0.87745
 C121 C 0.13558 0.96999 0.86860
 C122 C -0.01035 1.09473 0.79561
 C123 C -0.05732 0.80776 0.79418
 C124 C 0.61954 -0.02435 -0.01504
 C125 C 0.64942 -0.01628 0.00191
 C126 C 0.63032 -0.00794 0.01832
 C127 C 0.57929 -0.00888 0.01805
 C128 C 0.54914 -0.01582 0.00082
 C129 C 0.56962 -0.02300 -0.01587
 C130 C 0.53976 -0.02844 -0.03290
 C131 C 0.49089 -0.02644 -0.03357
 C132 C 0.46956 -0.02003 -0.01715
 C133 C 0.49856 -0.01536 0.00025
 C134 C 0.55766 -0.00299 0.03450
 C135 C 0.50723 -0.00411 0.03406
 C136 C 0.47716 -0.01002 0.01707
 C137 C 0.42628 -0.01059 0.01637
 C138 C 0.39875 -0.01402 -0.00091
 C139 C 0.41999 -0.01806 -0.01762
 H140 H 0.55426 -0.03378 -0.04590
 H141 H 0.46969 -0.03040 -0.04705
 H142 H 0.57941 0.00208 0.04791
 H143 H 0.49222 0.00025 0.04713
 H144 H 0.68830 -0.01626 0.00232
 H145 H 0.36020 -0.01334 -0.00137
 C146 C -0.08506 0.36010 0.65065
 C147 C -0.08223 0.33362 0.66819
 C148 C -0.08009 0.35574 0.68511
 C149 C -0.08249 0.40491 0.68467
 C150 C -0.08418 0.43286 0.66691
 C151 C -0.08486 0.41070 0.64980
 C152 C -0.08471 0.43999 0.63236
 C153 C -0.08310 0.49055 0.63172
 C154 C -0.08280 0.51303 0.64851
 C155 C -0.08427 0.48350 0.66626
 C156 C -0.08275 0.42711 0.70145
 C157 C -0.08453 0.47597 0.70082
 C158 C -0.08490 0.50500 0.68338
 C159 C -0.08528 0.55531 0.68253
 C160 C -0.08267 0.58453 0.66498
 C161 C -0.08058 0.56452 0.64807
 H162 H -0.08512 0.42435 0.61903
 H163 H -0.08242 0.51179 0.61794
 H164 H -0.08192 0.40663 0.71524
 H165 H -0.08489 0.49122 0.71414
 H166 H -0.08073 0.29560 0.66868
 H167 H -0.08130 0.62398 0.66450
 C168 C 0.42645 0.43618 0.31716
 C169 C 0.39882 0.41224 0.33441
 C170 C 0.41998 0.43770 0.35111
 C171 C 0.46955 0.48925 0.35065
 C172 C 0.49866 0.51343 0.33327
 C173 C 0.47735 0.48651 0.31647
 C174 C 0.50752 0.51050 0.29950
 C175 C 0.55796 0.55985 0.29907
 C176 C 0.57948 0.58755 0.31550
 C177 C 0.54925 0.56451 0.33271
 C178 C 0.49080 0.51719 0.36704
 C179 C 0.53966 0.56810 0.36637
 C180 C 0.56961 0.59235 0.34937
 C181 C 0.61952 0.64366 0.34854
 C182 C 0.64950 0.66532 0.33162
 C183 C 0.63051 0.63769 0.31524
 H184 H 0.49259 0.49099 0.28644
 H185 H 0.57977 0.57639 0.28568
 H186 H 0.46952 0.50007 0.38051
 H187 H 0.55409 0.58808 0.37936
 H188 H 0.36026 0.37301 0.33486
 H189 H 0.68837 0.70424 0.33121
 C190 C -0.04910 0.19891 0.58427
 C191 C -0.08003 0.22517 0.57962
 C192 C -0.10537 0.22079 0.56178
 C193 C -0.09911 0.19076 0.54856
 C194 C -0.06716 0.16511 0.55305
 C195 C -0.04274 0.16909 0.57112
 C196 C -0.08470 0.25679 0.59331
 C197 C -0.08665 0.28248 0.60548
 C198 C -0.08715 0.31128 0.62048
 C199 C -0.08654 0.33444 0.63389
 H200 H -0.02960 0.20173 0.59806
 H201 H -0.12946 0.24095 0.55805
 H202 H -0.11810 0.18864 0.53471
 H203 H -0.01875 0.14898 0.57513
 C204 C 0.86677 0.78115 0.24846
 C205 C 0.81167 0.76479 0.24379
 C206 C 0.79891 0.78257 0.22598
 C207 C 0.84125 0.81812 0.21315
 C208 C 0.89694 0.83658 0.21805
 C209 C 0.90913 0.81675 0.23569
 C210 C 0.76913 0.73352 0.25787
 C211 C 0.73487 0.70926 0.27021
 C212 C 0.69655 0.68282 0.28527
 C213 C 0.66549 0.66163 0.29863
 H214 H 0.87715 0.76770 0.26221
 H215 H 0.75643 0.77045 0.22226
 H216 H 0.83061 0.83323 0.19979
 H217 H 0.95155 0.82978 0.23977
 C218 C 0.24138 -0.05890 -0.10485
 C219 C 0.26435 -0.01695 -0.09262
 C220 C 0.24794 0.02290 -0.09396
 C221 C 0.20749 0.01990 -0.10708
 C222 C 0.18276 -0.02323 -0.11899
 C223 C 0.20093 -0.06199 -0.11798
 C224 C 0.30156 -0.01709 -0.07778
 C225 C 0.33102 -0.01772 -0.06479
 C226 C 0.36364 -0.01853 -0.04897
 C227 C 0.39004 -0.01880 -0.03497
 H228 H 0.25374 -0.09000 -0.10393
 H229 H 0.26520 0.05534 -0.08447
 H230 H 0.19395 0.04995 -0.10734
 H231 H 0.18319 -0.09523 -0.12714
 C232 C 0.00395 0.80938 0.58003
 C233 C -0.03146 0.75551 0.57519
 C234 C -0.05729 0.74718 0.55740
 C235 C -0.04902 0.79264 0.54474
 C236 C -0.01511 0.84689 0.54981
 C237 C 0.01211 0.85475 0.56744
 C238 C -0.04372 0.70943 0.58909
 C239 C -0.05375 0.67270 0.60151
 C240 C -0.06468 0.63216 0.61690
 C241 C -0.07282 0.59992 0.63073
 H242 H 0.02417 0.81632 0.59375
 H243 H -0.08499 0.70566 0.55355
 H244 H -0.07099 0.78533 0.53134
 H245 H 0.03893 0.89604 0.57164
 C246 C 0.26668 0.22667 0.25039
 C247 C 0.28721 0.28346 0.24616
 C248 C 0.27409 0.30321 0.22879
 C249 C 0.24056 0.26617 0.21568
 C250 C 0.21989 0.20896 0.21982
 C251 C 0.23327 0.18969 0.23736
 C252 C 0.32053 0.32071 0.26000
 C253 C 0.34734 0.34996 0.27221
 C254 C 0.37708 0.38200 0.28718
 C255 C 0.40072 0.40760 0.30053
 H256 H 0.27619 0.21088 0.26386
 H257 H 0.28967 0.34711 0.22540
 H258 H 0.23135 0.28228 0.20225
 H259 H 0.21723 0.14587 0.24113
 C260 C 0.79997 -0.05065 -0.07910
 C261 C 0.74514 -0.06622 -0.08357
 C262 C 0.72289 -0.08801 -0.10080
 C263 C 0.75565 -0.09374 -0.11361
 C264 C 0.81158 -0.07781 -0.10940
 C265 C 0.83280 -0.05626 -0.09176
 C266 C 0.71266 -0.05898 -0.07033
 C267 C 0.68803 -0.05175 -0.05857
 C268 C 0.66193 -0.04240 -0.04410
 C269 C 0.64166 -0.03413 -0.03118
 H270 H 0.81781 -0.03324 -0.06585
 H271 H 0.68021 -0.10065 -0.10435
 H272 H 0.73610 -0.11220 -0.12650
 H273 H 0.87565 -0.04080 -0.08786
 C274 C 0.27380 -0.03068 0.10474
 C275 C 0.28673 0.00207 0.08735
 C276 C 0.26602 0.03815 0.08310
 C277 C 0.23265 0.04170 0.09613
 C278 C 0.21949 0.00920 0.11369
 C279 C 0.24031 -0.02720 0.11785
 C280 C 0.32009 -0.00177 0.07353
 C281 C 0.34695 -0.00409 0.06133
 C282 C 0.37676 -0.00621 0.04635
 C283 C 0.40046 -0.00799 0.03301
 H284 H 0.28953 -0.05888 0.10815
 H285 H 0.27538 0.06335 0.06962
 H286 H 0.21648 0.06936 0.09235
 H287 H 0.23128 -0.05239 0.13130
 C288 C 0.79671 0.85539 0.41163
 C289 C 0.74392 0.81261 0.41684
 C290 C 0.72354 0.80884 0.43479
 C291 C 0.75623 0.84736 0.44760
 C292 C 0.81066 0.89098 0.44280
 C293 C 0.82958 0.89391 0.42429
 C294 C 0.71178 0.77250 0.40366
 C295 C 0.68740 0.74035 0.39195
 C296 C 0.66156 0.70460 0.37753
 C297 C 0.64147 0.67582 0.36464
 H298 H 0.81316 0.85842 0.39779
 H299 H 0.68228 0.77609 0.43891
 H300 H 0.73709 0.84314 0.46095
 H301 H 0.87108 0.92351 0.41951
 C302 C 0.00503 0.19573 0.75309
 C303 C -0.03029 0.21424 0.75795
 C304 C -0.05598 0.19680 0.77575
 C305 C -0.04766 0.15963 0.78841
 C306 C -0.01385 0.13923 0.78331
 C307 C 0.01323 0.15853 0.76567
 C308 C -0.04264 0.24801 0.74406
 C309 C -0.05276 0.27467 0.73164
 C310 C -0.06385 0.30420 0.71626
 C311 C -0.07214 0.32822 0.70245
 H312 H 0.02513 0.20896 0.73936
 H313 H -0.08362 0.21065 0.77962
 H314 H -0.06952 0.14501 0.80181
 H315 H 0.03997 0.14401 0.76146
 C316 C 0.79870 0.01487 0.10762
 C317 C 0.81143 0.04553 0.08984
 C318 C 0.86652 0.08429 0.08519
 C319 C 0.90891 0.09097 0.09795
 C320 C 0.89676 0.05884 0.11556
 C321 C 0.84107 0.02158 0.12044
 C322 C 0.76885 0.03433 0.07576
 C323 C 0.73459 0.02443 0.06341
 C324 C 0.69627 0.01267 0.04834
 C325 C 0.66524 0.00292 0.03496
 H326 H 0.75623 -0.01550 0.11133
 H327 H 0.87688 0.10821 0.07145
 H328 H 0.95133 0.12037 0.09389
 H329 H 0.83045 -0.00425 0.13379
 C330 C 0.24699 0.22481 0.42720
 C331 C 0.26369 0.28115 0.42594
 C332 C 0.24088 0.30019 0.43819
 C333 C 0.20032 0.26282 0.45127
 C334 C 0.18188 0.20582 0.45221
 C335 C 0.20645 0.18736 0.44028
 C336 C 0.30105 0.31853 0.41115
 C337 C 0.33063 0.34862 0.39820
 C338 C 0.36340 0.38202 0.38242
 C339 C 0.38992 0.40862 0.36844
 H340 H 0.26413 0.20958 0.41769
 H341 H 0.25345 0.34369 0.43732
 H342 H 0.18272 0.27838 0.46045
 H343 H 0.19270 0.14372 0.44049
 C344 C -0.10511 0.67456 0.77140
 C345 C -0.07996 0.69546 0.75354
 C346 C -0.04910 0.75265 0.74887
 C347 C -0.04260 0.78890 0.76201
 C348 C -0.06682 0.76853 0.78010
 C349 C -0.09871 0.71093 0.78462
 C350 C -0.08472 0.65911 0.73986
 C351 C -0.08673 0.63142 0.72769
 C352 C -0.08728 0.60209 0.71269
 C353 C -0.08672 0.57951 0.69928
 H354 H -0.12913 0.63031 0.77515
 H355 H -0.02974 0.76929 0.73506
 H356 H -0.01866 0.83301 0.75798
 H357 H -0.11755 0.69410 0.79848
   
