data_POSCAR
  _audit_creation_date              2014-09-24
  _audit_creation_method            'ToBaCCo'
  _symmetry_space_group_name_H-M    'P1'
  _symmetry_Int_Tables_number       1
  _symmetry_cell_setting            triclinic
  loop_
  _symmetry_equiv_pos_as_xyz
 x,y,z
_cell_length_a 24.7087
_cell_length_b 24.7307
_cell_length_c 24.6367
_cell_angle_alpha 90.003000
_cell_angle_beta 90.105400
_cell_angle_gamma 90.037400
loop_
  _atom_site_label
  _atom_site_type_symbol
  _atom_site_fract_x
  _atom_site_fract_y
  _atom_site_fract_z
C1 C 0.17737 0.17466 0.24438
 N2 N 0.15504 0.21955 0.22199
 C3 C 0.17746 0.24208 0.17714
 N4 N 0.22229 0.21972 0.15466
 C5 C 0.24467 0.17481 0.17702
 N6 N 0.22220 0.15229 0.22191
 C7 C -0.17650 0.82523 0.24327
 N8 N -0.15424 0.78037 0.22090
 C9 C -0.17677 0.75784 0.17605
 N10 N -0.22167 0.78016 0.15350
 C11 C -0.24401 0.82507 0.17584
 N12 N -0.22142 0.84760 0.22076
 C13 C -0.17814 0.17550 -0.24320
 N14 N -0.22308 0.15314 -0.22088
 C15 C -0.24552 0.17559 -0.17596
 N16 N -0.22301 0.22038 -0.15343
 C17 C -0.17809 0.24267 -0.17580
 N18 N -0.15569 0.22024 -0.22066
 C19 C 0.17632 0.82491 -0.24384
 N20 N 0.15408 0.78000 -0.22140
 C21 C 0.17665 0.75759 -0.17649
 N22 N 0.22151 0.78006 -0.15399
 C23 C 0.24380 0.82497 -0.17638
 N24 N 0.22121 0.84740 -0.22134
 C25 C 0.17405 1.17695 0.75618
 N26 N 0.21887 1.15463 0.77878
 C27 C 0.24131 1.17706 0.82374
 N28 N 0.21897 1.22189 0.84614
 C29 C 0.17413 1.24431 0.82362
 N30 N 0.15165 1.22184 0.77858
 C31 C 0.82419 0.82452 0.75481
 N32 N 0.77934 0.84691 0.77719
 C33 C 0.75690 0.82452 0.82212
 N34 N 0.77927 0.77974 0.84466
 C35 C 0.82410 0.75733 0.82232
 N36 N 0.84657 0.77970 0.77737
 C37 C 0.17541 0.82283 1.24448
 N38 N 0.15301 0.77790 1.22204
 C39 C 0.17547 0.75540 1.17712
 N40 N 0.22031 0.77784 1.15472
 C41 C 0.24268 0.82273 1.17715
 N42 N 0.22024 0.84519 1.22201
 C43 C 0.82571 1.17685 1.24344
 N44 N 0.78075 1.15461 1.22099
 C45 C 0.75810 1.17722 1.17624
 N46 N 0.78040 1.22216 1.15391
 C47 C 0.82540 1.24446 1.17634
 N48 N 0.84805 1.22181 1.22114
 N49 N 0.55617 1.09623 0.94165
 N50 N 0.59710 1.12986 0.93462
 N51 N 0.44216 1.05853 0.90426
 N52 N 0.40113 1.06559 0.87061
 N53 N 0.44230 1.09599 0.94206
 N54 N 0.40139 1.12961 0.93522
 N55 N 0.55603 1.05873 0.90389
 N56 N 0.59684 1.06577 0.87010
 C57 C 0.62188 1.11022 0.88988
 C58 C 0.37629 1.11001 0.89058
 N59 N 0.44248 0.90440 0.94154
 N60 N 0.40158 0.87071 0.93444
 N61 N 0.55614 0.94229 0.90363
 N62 N 0.59690 0.93549 0.86974
 N63 N 0.55641 0.90466 0.94125
 N64 N 0.59736 0.87118 0.93404
 N65 N 0.44228 0.94208 0.90396
 N66 N 0.40127 0.93511 0.87025
 Mn67 Mn 0.49915 1.00041 0.90330
 C68 C 0.37643 0.89052 0.88988
 C69 C 0.62203 0.89104 0.88935
 N70 N 0.44276 1.09575 1.05895
 N71 N 0.40181 1.12926 1.06617
 N72 N 0.55693 1.05844 1.09620
 N73 N 0.59805 1.06552 1.12975
 N74 N 0.55662 1.09603 1.05854
 N75 N 0.59750 1.12976 1.06538
 N76 N 0.44300 1.05811 1.09658
 N77 N 0.40222 1.06495 1.13046
 Mn78 Mn 0.49946 1.09663 1.00031
 C79 C 0.37709 1.10942 1.11086
 C80 C 0.62276 1.11010 1.10988
 N81 N 0.55711 0.90440 1.05823
 N82 N 0.59810 0.87084 1.06517
 N83 N 0.44328 0.94158 1.09632
 N84 N 0.40249 0.93442 1.13012
 N85 N 0.44318 0.90412 1.05852
 N86 N 0.40234 0.87041 1.06551
 N87 N 0.55720 0.94190 1.09600
 N88 N 0.59824 0.93492 1.12968
 Mn89 Mn 0.49980 0.90374 0.99989
 Mn90 Mn 0.50011 1.00001 1.09693
 Cl91 Cl 0.49963 1.00019 1.00011
 C92 C 0.62320 0.89051 1.10983
 C93 C 0.37754 0.88993 1.11026
 N94 N -0.09555 0.44307 0.05905
 N95 N -0.12917 0.40214 0.06606
 N96 N -0.05786 0.55691 0.09658
 N97 N -0.06489 0.59792 0.13017
 N98 N -0.09543 0.55681 0.05879
 N99 N -0.12908 0.59766 0.06556
 N100 N -0.05786 0.44307 0.09672
 N101 N -0.06476 0.40215 0.13044
 C102 C -0.10934 0.37720 0.11069
 C103 C -0.10943 0.62273 0.11015
 N104 N 0.09636 0.55687 0.05900
 N105 N 0.12998 0.59782 0.06611
 N106 N 0.05878 0.44303 0.09671
 N107 N 0.06586 0.40212 0.13042
 N108 N 0.09627 0.44302 0.05896
 N109 N 0.12989 0.40213 0.06590
 N110 N 0.05878 0.55685 0.09666
 N111 N 0.06575 0.59773 0.13042
 Mn112 Mn 0.00046 0.49996 0.09732
 C113 C 0.11025 0.62274 0.11077
 C114 C 0.11031 0.37719 0.11056
 N115 N -0.09559 0.55681 -0.05806
 N116 N -0.12916 0.59772 -0.06522
 N117 N -0.05834 0.44293 -0.09555
 N118 N -0.06563 0.40202 -0.12922
 N119 N -0.09579 0.44308 -0.05779
 N120 N -0.12964 0.40234 -0.06466
 N121 N -0.05803 0.55669 -0.09573
 N122 N -0.06497 0.59747 -0.12958
 Mn123 Mn -0.09621 0.49994 0.00050
 C124 C -0.10942 0.62250 -0.10993
 C125 C -0.11019 0.37730 -0.10928
 N126 N 0.09598 0.44276 -0.05806
 N127 N 0.12947 0.40177 -0.06523
 N128 N 0.05850 0.55659 -0.09576
 N129 N 0.06544 0.59749 -0.12948
 N130 N 0.09614 0.55663 -0.05803
 N131 N 0.12977 0.59754 -0.06501
 N132 N 0.05822 0.44282 -0.09567
 N133 N 0.06493 0.40195 -0.12946
 Mn134 Mn 0.09685 0.49982 0.00047
 Mn135 Mn 0.00009 0.49975 -0.09631
 Cl136 Cl 0.00031 0.49987 0.00051
 C137 C 0.10945 0.37689 -0.10987
 C138 C 0.10999 0.62244 -0.10967
 N139 N 1.05836 0.09570 0.55682
 N140 N 1.06506 0.12952 0.59773
 N141 N 1.09654 0.05789 0.44290
 N142 N 1.13041 0.06476 0.40210
 N143 N 1.05904 0.09552 0.44263
 N144 N 1.06634 0.12907 0.40159
 N145 N 1.09601 0.05822 0.55720
 N146 N 1.12942 0.06551 0.59848
 C147 C 1.10945 0.11008 0.62318
 C148 C 1.11095 0.10925 0.37690
 N149 N 1.05860 -0.09616 0.44285
 N150 N 1.06555 -0.12992 0.40196
 N151 N 1.09593 -0.05836 0.55722
 N152 N 1.12958 -0.06531 0.59831
 N153 N 1.05835 -0.09596 0.55710
 N154 N 1.06537 -0.12957 0.59818
 N155 N 1.09633 -0.05870 0.44294
 N156 N 1.13004 -0.06596 0.40203
 Mn157 Mn 1.09686 -0.00024 0.50007
 C158 C 1.11019 -0.11049 0.37704
 C159 C 1.10989 -0.10979 0.62331
 N160 N 0.94250 0.09562 0.44196
 N161 N 0.93568 0.12945 0.40107
 N162 N 0.90425 0.05806 0.55586
 N163 N 0.87035 0.06492 0.59660
 N164 N 0.94181 0.09567 0.55615
 N165 N 0.93452 0.12922 0.59718
 N166 N 0.90480 0.05816 0.44170
 N167 N 0.87123 0.06543 0.40058
 Mn168 Mn 1.00043 0.09626 0.49939
 C169 C 0.89117 0.10997 0.37581
 C170 C 0.88984 0.10938 0.62181
 N171 N 0.94169 -0.09586 0.55636
 N172 N 0.93455 -0.12944 0.59738
 N173 N 0.90455 -0.05826 0.44192
 N174 N 0.87085 -0.06513 0.40087
 N175 N 0.94197 -0.09596 0.44209
 N176 N 0.93477 -0.12960 0.40106
 N177 N 0.90411 -0.05833 0.55608
 N178 N 0.87031 -0.06530 0.59695
 Mn179 Mn 1.00015 -0.09663 0.49960
 Mn180 Mn 0.90380 -0.00009 0.49888
 Cl181 Cl 1.00033 -0.00019 0.49949
 C182 C 0.88994 -0.10975 0.62213
 C183 C 0.89032 -0.10969 0.37594
 C184 C 1.15490 0.15230 0.28936
 C185 C 1.13484 0.13262 0.32931
 C186 C 0.84614 -0.15252 0.28828
 C187 C 0.86642 -0.13303 0.32828
 C188 C 0.84567 0.15205 0.70929
 C189 C 0.86589 0.13261 0.66936
 C190 C 1.15373 -0.15285 0.71109
 C191 C 1.13363 -0.13324 0.67104
 C192 C 0.28961 1.15252 1.15458
 C193 C 0.32954 1.13281 1.13464
 C194 C 0.28881 0.84731 0.84612
 C195 C 0.32880 0.86702 0.86614
 C196 C 0.71093 0.84732 1.15336
 C197 C 0.67090 0.86702 1.13344
 C198 C 0.70946 1.15335 0.84639
 C199 C 0.66948 1.13368 0.86625
 C200 C 0.15383 0.28963 0.15364
 C201 C 0.13392 0.32960 0.13400
 C202 C -0.15427 0.29004 -0.15223
 C203 C -0.13411 0.32987 -0.13264
 C204 C 0.15317 0.71003 -0.15291
 C205 C 0.13345 0.67005 -0.13318
 C206 C -0.15313 0.71030 0.15271
 C207 C -0.13310 0.67033 0.13334
 C208 C 1.15189 0.15438 0.71105
 C209 C 1.13255 0.13409 0.67095
 C210 C 0.84653 -0.15312 0.70978
 C211 C 0.86632 -0.13327 0.66977
 C212 C 1.15315 -0.15458 0.28948
 C213 C 1.13359 -0.13438 0.32944
 C214 C 0.84812 0.15420 0.28833
 C215 C 0.86778 0.13396 0.32825
 C216 C 0.15200 0.28930 -0.15389
 C217 C 0.13261 0.32927 -0.13374
 C218 C -0.15239 0.28952 0.15407
 C219 C -0.13275 0.32955 0.13426
 C220 C -0.15241 0.70989 -0.15384
 C221 C -0.13281 0.67001 -0.13375
 C222 C 0.15323 0.71037 0.15462
 C223 C 0.13366 0.67037 0.13455
 C224 C 0.28878 1.15348 0.84740
 C225 C 0.32872 1.13362 0.86714
 C226 C 0.29015 0.84638 1.15355
 C227 C 0.33004 0.86628 1.13379
 C228 C 0.71048 1.15367 1.15273
 C229 C 0.67044 1.13376 1.13317
 C230 C 0.70944 0.84808 0.84571
 C231 C 0.66954 0.86774 0.86560
   
