data_POSCAR
  _audit_creation_date              2014-09-24
  _audit_creation_method            'ToBaCCo'
  _symmetry_space_group_name_H-M    'P1'
  _symmetry_Int_Tables_number       1
  _symmetry_cell_setting            triclinic
  loop_
  _symmetry_equiv_pos_as_xyz
 x,y,z
_cell_length_a 41.3108
_cell_length_b 41.3315
_cell_length_c 56.4202
_cell_angle_alpha 89.965100
_cell_angle_beta 90.056800
_cell_angle_gamma 120.263800
loop_
  _atom_site_label
  _atom_site_type_symbol
  _atom_site_fract_x
  _atom_site_fract_y
  _atom_site_fract_z
C1 C -0.01754 0.48931 1.25038
 C2 C 0.02065 0.50832 1.25046
 C3 C 0.04252 0.52105 1.27286
 C4 C 0.04260 0.51740 1.22815
 C5 C -0.03939 0.48014 1.22798
 C6 C -0.03952 0.47666 1.27270
 C7 C 0.03693 0.54355 1.28911
 C8 C 0.05790 0.55549 1.31004
 C9 C 0.08491 0.54533 1.31485
 C10 C 0.09087 0.52327 1.29855
 C11 C 0.06990 0.51133 1.27766
 C12 C 0.07029 0.55460 1.22340
 C13 C 0.09123 0.56355 1.20253
 C14 C 0.08491 0.53539 1.18626
 C15 C 0.05765 0.49816 1.19100
 C16 C 0.03669 0.48915 1.21190
 C17 C -0.06718 0.44294 1.22330
 C18 C -0.08824 0.43393 1.20245
 C19 C -0.08195 0.46202 1.18612
 C20 C -0.05453 0.49924 1.19075
 C21 C -0.03344 0.50831 1.21163
 C22 C -0.03408 0.45413 1.28904
 C23 C -0.05520 0.44226 1.30989
 C24 C -0.08214 0.45250 1.31448
 C25 C -0.08797 0.47455 1.29814
 C26 C -0.06688 0.48646 1.27732
 H27 H 0.01647 0.55197 1.28551
 H28 H 0.05307 0.57274 1.32237
 H29 H 0.11174 0.51525 1.30192
 H30 H 0.07478 0.49421 1.26529
 H31 H 0.07541 0.57672 1.23577
 H32 H 0.11234 0.59243 1.19907
 H33 H 0.01597 0.46019 1.21546
 H34 H -0.07235 0.42087 1.23574
 H35 H -0.10948 0.40507 1.19908
 H36 H -0.04959 0.52123 1.17830
 H37 H -0.01265 0.53727 1.21513
 H38 H -0.01363 0.44566 1.28558
 H39 H -0.05063 0.42500 1.32236
 H40 H -0.10885 0.48251 1.30148
 H41 H -0.07165 0.50359 1.26487
 H42 H 0.05271 0.47613 1.17860
 C43 C 0.51167 0.49311 1.24999
 C44 C 0.49269 0.51216 1.25004
 C45 C 0.48002 0.52128 1.27241
 C46 C 0.48356 0.52491 1.22770
 C47 C 0.52077 0.48046 1.22761
 C48 C 0.52432 0.48387 1.27233
 C49 C 0.45748 0.49307 1.28870
 C50 C 0.44546 0.50210 1.30954
 C51 C 0.45558 0.53931 1.31419
 C52 C 0.47770 0.56744 1.29791
 C53 C 0.48974 0.55847 1.27710
 C54 C 0.44635 0.51514 1.22297
 C55 C 0.43736 0.52713 1.20212
 C56 C 0.46551 0.54923 1.18586
 C57 C 0.50276 0.55944 1.19056
 C58 C 0.51180 0.54748 1.21143
 C59 C 0.55796 0.49012 1.22293
 C60 C 0.56690 0.47807 1.20211
 C61 C 0.53875 0.45600 1.18582
 C62 C 0.50153 0.44593 1.19046
 C63 C 0.49253 0.45796 1.21131
 C64 C 0.54688 0.51199 1.28867
 C65 C 0.55877 0.50283 1.30953
 C66 C 0.54849 0.46556 1.31414
 C67 C 0.52639 0.43753 1.29781
 C68 C 0.51448 0.44664 1.27698
 H69 H 0.44906 0.46412 1.28519
 H70 H 0.42816 0.48008 1.32195
 H71 H 0.48558 0.59630 1.30129
 H72 H 0.50689 0.58057 1.26471
 H73 H 0.42424 0.49796 1.23535
 H74 H 0.40848 0.51919 1.19870
 H75 H 0.54077 0.55593 1.21498
 H76 H 0.58008 0.50723 1.23534
 H77 H 0.59577 0.48589 1.19874
 H78 H 0.47949 0.42866 1.17805
 H79 H 0.46357 0.44958 1.21481
 H80 H 0.55538 0.54098 1.28519
 H81 H 0.57606 0.52477 1.32199
 H82 H 0.51840 0.40863 1.30116
 H83 H 0.49731 0.42460 1.26454
 H84 H 0.52478 0.57674 1.17815
 C85 C 0.50735 1.01951 1.25031
 C86 C 0.48820 0.98133 1.25037
 C87 C 0.47889 0.95947 1.27277
 C88 C 0.47552 0.95936 1.22804
 C89 C 0.52005 1.04137 1.22791
 C90 C 0.51665 1.04149 1.27263
 C91 C 0.50698 0.96527 1.28917
 C92 C 0.49777 0.94419 1.31005
 C93 C 0.46045 0.91688 1.31465
 C94 C 0.43244 0.91073 1.29824
 C95 C 0.44162 0.93181 1.27740
 C96 C 0.48527 0.93198 1.22341
 C97 C 0.47339 0.91094 1.20255
 C98 C 0.45142 0.91686 1.18618
 C99 C 0.44122 0.94382 1.19078
 C100 C 0.45307 0.96488 1.21167
 C101 C 0.51041 1.06882 1.22317
 C102 C 0.52242 1.08986 1.20231
 C103 C 0.54444 1.08390 1.18601
 C104 C 0.55450 1.05681 1.19073
 C105 C 0.54250 1.03576 1.21162
 C106 C 0.48854 1.03579 1.28893
 C107 C 0.49774 1.05688 1.30980
 C108 C 0.53509 1.08407 1.31446
 C109 C 0.56312 1.09014 1.29813
 C110 C 0.55393 1.06907 1.27730
 H111 H 0.53599 0.98595 1.28571
 H112 H 0.51978 0.94910 1.32250
 H113 H 0.40347 0.88962 1.30150
 H114 H 0.41961 0.92674 1.26492
 H115 H 0.50235 0.92714 1.23587
 H116 H 0.48132 0.89005 1.19921
 H117 H 0.44464 0.98536 1.21512
 H118 H 0.49334 1.07373 1.23557
 H119 H 0.51453 1.11080 1.19896
 H120 H 0.57172 1.05205 1.17835
 H121 H 0.55086 1.01525 1.21516
 H122 H 0.45951 1.01516 1.28544
 H123 H 0.47573 1.05203 1.32221
 H124 H 0.59211 1.11117 1.30145
 H125 H 0.57596 1.07403 1.26489
 H126 H 0.42403 0.94846 1.17829
 C127 C 1.02036 0.50774 0.74999
 C128 C 0.98216 0.48847 0.75011
 C129 C 0.96007 0.47566 0.72781
 C130 C 0.96039 0.47917 0.77253
 C131 C 1.04245 0.51710 0.77229
 C132 C 1.04210 0.52051 0.72756
 C133 C 0.93249 0.48517 0.72321
 C134 C 0.91128 0.47309 0.70242
 C135 C 0.91721 0.45113 0.68608
 C136 C 0.94439 0.44118 0.69065
 C137 C 0.96563 0.45324 0.71147
 C138 C 0.96616 0.50727 0.78887
 C139 C 0.94508 0.49807 0.80974
 C140 C 0.91786 0.46078 0.81438
 C141 C 0.91175 0.43276 0.79806
 C142 C 0.93280 0.44190 0.77722
 C143 C 1.03689 0.48903 0.78860
 C144 C 1.05803 0.49830 0.80947
 C145 C 1.08514 0.53566 0.81411
 C146 C 1.09109 0.56365 0.79776
 C147 C 1.06997 0.55440 0.77693
 C148 C 1.06968 0.51107 0.72277
 C149 C 1.09059 0.52313 0.70188
 C150 C 1.08438 0.54503 0.68558
 C151 C 1.05717 0.55489 0.69035
 C152 C 1.03625 0.54284 0.71128
 H153 H 0.92762 0.50222 0.73565
 H154 H 0.89023 0.48083 0.69910
 H155 H 0.94904 0.42400 0.67819
 H156 H 0.98625 0.44498 0.71491
 H157 H 0.98678 0.53628 0.78537
 H158 H 0.94988 0.52001 0.82218
 H159 H 0.92776 0.41988 0.76479
 H160 H 1.01632 0.46000 0.78512
 H161 H 1.05327 0.47632 0.82189
 H162 H 1.11206 0.59265 0.80107
 H163 H 1.07482 0.57639 0.76450
 H164 H 1.07477 0.49409 0.73516
 H165 H 1.11163 0.51539 0.69849
 H166 H 1.05221 0.57201 0.67799
 H167 H 1.01563 0.55105 0.71486
 H168 H 0.89067 0.40384 0.80143
 C169 C 0.49245 0.51140 0.74976
 C170 C 0.51127 0.49218 0.74983
 C171 C 0.52382 0.48286 0.72751
 C172 C 0.52036 0.47949 0.77223
 C173 C 0.48340 0.52420 0.77208
 C174 C 0.47986 0.52062 0.72736
 C175 C 0.51383 0.44558 0.72287
 C176 C 0.52570 0.43641 0.70206
 C177 C 0.54790 0.46443 0.68575
 C178 C 0.55832 0.50173 0.69036
 C179 C 0.54648 0.51095 0.71119
 C180 C 0.49214 0.45713 0.78857
 C181 C 0.50114 0.44511 0.80944
 C182 C 0.53834 0.45503 0.81408
 C183 C 0.56646 0.47695 0.79775
 C184 C 0.55752 0.48900 0.77691
 C185 C 0.51165 0.54667 0.78838
 C186 C 0.50267 0.55871 0.80923
 C187 C 0.46546 0.54866 0.81386
 C188 C 0.43730 0.52666 0.79756
 C189 C 0.44622 0.51460 0.77674
 C190 C 0.48974 0.55786 0.72266
 C191 C 0.47772 0.56692 0.70185
 C192 C 0.45547 0.53884 0.68557
 C193 C 0.44521 0.50158 0.69023
 C194 C 0.45720 0.49246 0.71107
 H195 H 0.49659 0.42357 0.73529
 H196 H 0.51760 0.40749 0.69872
 H197 H 0.57570 0.52366 0.67792
 H198 H 0.55511 0.53997 0.71467
 H199 H 0.46320 0.44887 0.78507
 H200 H 0.47912 0.42796 0.82189
 H201 H 0.57962 0.50600 0.76448
 H202 H 0.54060 0.55499 0.78489
 H203 H 0.52471 0.57592 0.82166
 H204 H 0.40844 0.51884 0.80093
 H205 H 0.42410 0.49750 0.76433
 H206 H 0.50698 0.57992 0.73506
 H207 H 0.48571 0.59581 0.69847
 H208 H 0.42780 0.47959 0.67782
 H209 H 0.44865 0.46347 0.71458
 H210 H 0.59531 0.48468 0.80112
 C211 C 0.48724 -0.02054 0.74980
 C212 C 0.50626 0.01763 0.74989
 C213 C 0.51540 0.03963 0.72759
 C214 C 0.51891 0.03944 0.77230
 C215 C 0.47457 -0.04254 0.77211
 C216 C 0.47813 -0.04231 0.72739
 C217 C 0.55263 0.06732 0.72290
 C218 C 0.56165 0.08836 0.70206
 C219 C 0.53352 0.08213 0.68576
 C220 C 0.49626 0.05485 0.69042
 C221 C 0.48719 0.03379 0.71129
 C222 C 0.54143 0.03387 0.78859
 C223 C 0.55333 0.05483 0.80952
 C224 C 0.54310 0.08175 0.81425
 C225 C 0.52105 0.08770 0.79795
 C226 C 0.50913 0.06676 0.77706
 C227 C 0.45202 -0.03713 0.78841
 C228 C 0.44028 -0.05812 0.80933
 C229 C 0.45070 -0.08493 0.81403
 C230 C 0.47276 -0.09075 0.79768
 C231 C 0.48451 -0.06978 0.77680
 C232 C 0.44093 -0.07004 0.72263
 C233 C 0.43194 -0.09094 0.70174
 C234 C 0.46009 -0.08455 0.68541
 C235 C 0.49735 -0.05719 0.69015
 C236 C 0.50636 -0.03629 0.71109
 H237 H 0.57473 0.07239 0.73531
 H238 H 0.59055 0.10949 0.69867
 H239 H 0.47425 0.04998 0.67799
 H240 H 0.45821 0.01307 0.71480
 H241 H 0.54990 0.01345 0.78504
 H242 H 0.57059 0.05017 0.82194
 H243 H 0.49199 0.07164 0.76466
 H244 H 0.44345 -0.01677 0.78489
 H245 H 0.42303 -0.05347 0.82175
 H246 H 0.48092 -0.11149 0.80104
 H247 H 0.50168 -0.07451 0.76438
 H248 H 0.41882 -0.07526 0.73504
 H249 H 0.40302 -0.11210 0.69836
 H250 H 0.51946 -0.05210 0.67776
 H251 H 0.53532 -0.01554 0.71464
 H252 H 0.51310 0.10855 0.80139
 O253 O 0.39355 0.66444 0.97962
 O254 O 0.38657 0.72290 0.97259
 C255 C 0.36636 0.73706 0.96797
 O256 O 0.33714 0.72976 0.97958
 O257 O 0.27848 0.66404 0.97244
 C258 C 0.26416 0.62956 0.96780
 O259 O 0.27130 0.60757 0.97943
 O260 O 0.33698 0.61491 0.97246
 C261 C 0.37152 0.63522 0.96794
 O262 O 0.39090 0.67372 1.02686
 O263 O 0.38716 0.73402 1.01983
 C264 C 0.36223 0.73656 1.03146
 O265 O 0.32759 0.71763 1.02682
 O266 O 0.26712 0.65329 1.01966
 C267 C 0.26440 0.62571 1.03129
 O268 O 0.28320 0.61002 1.02669
 O269 O 0.34747 0.61414 1.01970
 C270 C 0.37507 0.63908 1.03140
 Cr271 Cr 0.38747 0.69759 0.99972
 Cr272 Cr 0.30375 0.69028 0.99963
 Cr273 Cr 0.31064 0.61373 0.99957
 O274 O 0.33395 0.66720 0.99965
 O275 O 0.60765 0.33712 0.98011
 O276 O 0.61262 0.27745 0.97336
 C277 C 0.63208 0.26246 0.96877
 O278 O 0.66115 0.26909 0.98036
 O279 O 0.72098 0.33397 0.97323
 C280 C 0.73610 0.36850 0.96849
 O281 O 0.72969 0.39109 0.97998
 O282 O 0.66483 0.38571 0.97301
 C283 C 0.63022 0.36611 0.96843
 O284 O 0.61002 0.32796 1.02741
 O285 O 0.61179 0.26654 1.02067
 C286 C 0.63624 0.26314 1.03229
 O287 O 0.67090 0.28117 1.02761
 O288 O 0.73243 0.34461 1.02046
 C289 C 0.73612 0.37268 1.03196
 O290 O 0.71816 0.38923 1.02726
 O291 O 0.65476 0.38704 1.02026
 C292 C 0.62676 0.36265 1.03193
 Cr293 Cr 0.61262 0.30341 1.00038
 Cr294 Cr 0.69523 0.30817 1.00041
 Cr295 Cr 0.69089 0.38617 1.00013
 O296 O 0.66625 0.33258 1.00031
 O297 O 0.67258 0.38954 0.52721
 O298 O 0.73300 0.38594 0.52026
 C299 C 0.73558 0.36099 0.53185
 O300 O 0.71668 0.32639 0.52716
 O301 O 0.65236 0.26593 0.51985
 C302 C 0.62469 0.26309 0.53143
 O303 O 0.60898 0.28188 0.52684
 O304 O 0.61302 0.34611 0.51993
 C305 C 0.63790 0.37365 0.53168
 O306 O 0.66346 0.39245 0.47996
 O307 O 0.72204 0.38562 0.47301
 C308 C 0.73630 0.36552 0.46841
 O309 O 0.72897 0.33622 0.47996
 O310 O 0.66326 0.27757 0.47266
 C311 C 0.62878 0.26323 0.46797
 O312 O 0.60671 0.27027 0.47956
 O313 O 0.61398 0.33592 0.47268
 C314 C 0.63428 0.37047 0.46822
 Cr315 Cr 0.69659 0.38631 0.50011
 Cr316 Cr 0.68941 0.30270 0.49991
 Cr317 Cr 0.61275 0.30945 0.49976
 O318 O 0.66625 0.33282 0.49993
 O319 O 0.32779 0.61087 0.52701
 O320 O 0.26638 0.61266 0.52006
 C321 C 0.26294 0.63710 0.53164
 O322 O 0.28097 0.67173 0.52694
 O323 O 0.34448 0.73323 0.51993
 C324 C 0.37248 0.73686 0.53153
 O325 O 0.38908 0.71894 0.52689
 O326 O 0.38693 0.65560 0.51999
 C327 C 0.36247 0.62758 0.53161
 O328 O 0.33717 0.60859 0.47973
 O329 O 0.27751 0.61357 0.47278
 C330 C 0.26256 0.63305 0.46809
 O331 O 0.26913 0.66209 0.47966
 O332 O 0.33409 0.72189 0.47266
 C333 C 0.36865 0.73698 0.46800
 O334 O 0.39119 0.73057 0.47960
 O335 O 0.38584 0.66575 0.47271
 C336 C 0.36624 0.63116 0.46812
 Cr337 Cr 0.30335 0.61352 0.49989
 Cr338 Cr 0.30812 0.69610 0.49980
 Cr339 Cr 0.38616 0.69175 0.49980
 O340 O 0.33254 0.66712 0.49983
 C341 C 0.42077 0.56848 0.37393
 N342 N 0.44589 0.58956 0.39089
 N343 N 0.43500 0.60095 0.40980
 C344 C 0.39865 0.59161 0.41230
 N345 N 0.37352 0.57048 0.39536
 N346 N 0.38441 0.55909 0.37646
 C347 C 0.43278 0.55743 0.35315
 C348 C 0.44305 0.54880 0.33549
 C349 C 0.38717 0.60497 0.43223
 C350 C 0.37760 0.61668 0.44875
 C351 C 0.43145 0.85410 0.37343
 N352 N 0.41035 0.85808 0.39030
 N353 N 0.39892 0.83584 0.40928
 C354 C 0.40825 0.80893 0.41196
 N355 N 0.42939 0.80498 0.39510
 N356 N 0.44082 0.82722 0.37612
 C357 C 0.44258 0.87712 0.35257
 C358 C 0.45129 0.89601 0.33485
 C359 C 0.39485 0.78412 0.43197
 C360 C 0.38313 0.76284 0.44856
 C361 C 0.14621 0.57864 0.37312
 N362 N 0.14213 0.55334 0.38990
 N363 N 0.16415 0.56416 0.40899
 C364 C 0.19093 0.60060 0.41187
 N365 N 0.19497 0.62591 0.39511
 N366 N 0.17295 0.61509 0.37602
 C367 C 0.12345 0.56674 0.35214
 C368 C 0.10477 0.55657 0.33432
 C369 C 0.21557 0.61203 0.43198
 C370 C 0.23675 0.62161 0.44862
 C371 C 0.58241 0.43572 0.37401
 N372 N 0.61830 0.44343 0.37627
 N373 N 0.62875 0.43163 0.39520
 C374 C 0.60363 0.41177 0.41244
 N375 N 0.56776 0.40412 0.41020
 N376 N 0.55731 0.41591 0.39127
 C377 C 0.57079 0.44707 0.35318
 C378 C 0.56077 0.45590 0.33549
 C379 C 0.61454 0.39785 0.43237
 C380 C 0.62359 0.38562 0.44887
 C381 C 0.56430 0.14656 0.37331
 N382 N 0.55655 0.17463 0.37562
 N383 N 0.56822 0.19679 0.39462
 C384 C 0.58800 0.19156 0.41189
 N385 N 0.59570 0.16346 0.40961
 N386 N 0.58403 0.14130 0.39060
 C387 C 0.55304 0.12366 0.35243
 C388 C 0.54427 0.10485 0.33469
 C389 C 0.60175 0.21629 0.43191
 C390 C 0.61382 0.23749 0.44851
 C391 C 0.85389 0.41843 0.37431
 N392 N 0.85871 0.44365 0.39133
 N393 N 0.83639 0.43306 0.41025
 C394 C 0.80858 0.39694 0.41271
 N395 N 0.80380 0.37171 0.39571
 N396 N 0.82612 0.38230 0.37679
 C397 C 0.87694 0.43015 0.35350
 C398 C 0.89584 0.44021 0.33581
 C399 C 0.78366 0.38583 0.43262
 C400 C 0.76228 0.37655 0.44910
 C401 C 0.56750 0.42074 1.12610
 N402 N 0.59328 0.44611 1.11095
 N403 N 0.60422 0.43475 1.09205
 C404 C 0.58971 0.39769 1.08774
 N405 N 0.56389 0.37233 1.10288
 N406 N 0.55296 0.38368 1.12178
 C407 C 0.55669 0.43299 1.14688
 C408 C 0.54818 0.44340 1.16453
 C409 C 0.60236 0.38547 1.06782
 C410 C 0.61333 0.37512 1.05130
 C411 C 0.85391 0.43298 1.12628
 N412 N 0.83107 0.44705 1.12199
 N413 N 0.80870 0.43595 1.10306
 C414 C 0.80850 0.41046 1.08785
 N415 N 0.83138 0.39643 1.09212
 N416 N 0.85374 0.40752 1.11105
 C417 C 0.87702 0.44391 1.14710
 C418 C 0.89598 0.45250 1.16479
 C419 C 0.78353 0.39761 1.06790
 C420 C 0.76212 0.38642 1.05136
 C421 C 0.57872 0.14649 1.12715
 N422 N 0.55325 0.14668 1.11204
 N423 N 0.56449 0.16883 1.09302
 C424 C 0.60154 0.19148 1.08854
 N425 N 0.62701 0.19126 1.10363
 N426 N 0.61577 0.16911 1.12265
 C427 C 0.56659 0.12356 1.14805
 C428 C 0.55627 0.10473 1.16579
 C429 C 0.61365 0.21619 1.06846
 C430 C 0.62390 0.23739 1.05182
 C431 C 0.43644 0.58373 1.12592
 N432 N 0.44806 0.62047 1.12251
 N433 N 0.43683 0.63140 1.10352
 C434 C 0.41363 0.60590 1.08739
 N435 N 0.40205 0.56916 1.09078
 N436 N 0.41328 0.55823 1.10976
 C437 C 0.44741 0.57181 1.14678
 C438 C 0.45601 0.56162 1.16450
 C439 C 0.40053 0.61752 1.06739
 C440 C 0.38910 0.62732 1.05082
 C441 C 0.14805 0.56434 1.12610
 N442 N 0.17256 0.55215 1.12233
 N443 N 0.19458 0.56333 1.10326
 C444 C 0.19275 0.58703 1.08740
 N445 N 0.16820 0.59918 1.09116
 N446 N 0.14618 0.58800 1.11023
 C447 C 0.12533 0.55343 1.14706
 C448 C 0.10668 0.54486 1.16484
 C449 C 0.21740 0.60012 1.06734
 C450 C 0.23860 0.61157 1.05073
 C451 C 0.41729 0.85321 1.12617
 N452 N 0.44292 0.85556 1.11021
 N453 N 0.43209 0.83342 1.09119
 C454 C 0.39530 0.80826 1.08757
 N455 N 0.36967 0.80594 1.10352
 N456 N 0.38050 0.82808 1.12254
 C457 C 0.42909 0.87611 1.14706
 C458 C 0.43916 0.89492 1.16480
 C459 C 0.38375 0.78355 1.06753
 C460 C 0.37398 0.76235 1.05092
 C461 C 0.58222 0.43490 0.62599
 N462 N 0.55656 0.41018 0.61049
 N463 N 0.56751 0.39890 0.59156
 C464 C 0.60443 0.41200 0.58757
 N465 N 0.63009 0.43676 0.60305
 N466 N 0.61915 0.44804 0.62198
 C467 C 0.57035 0.44601 0.64679
 C468 C 0.56022 0.45475 0.66445
 C469 C 0.61615 0.39894 0.56762
 C470 C 0.62604 0.38758 0.55109
 C471 C 0.56273 0.14579 0.62580
 N472 N 0.55087 0.17061 0.62222
 N473 N 0.56218 0.19283 0.60324
 C474 C 0.58568 0.19091 0.58728
 N475 N 0.59750 0.16605 0.59085
 N476 N 0.58619 0.14382 0.60983
 C477 C 0.55170 0.12286 0.64667
 C478 C 0.54306 0.10405 0.66440
 C479 C 0.59891 0.21576 0.56732
 C480 C 0.61046 0.23712 0.55079
 C481 C 0.85294 0.41636 0.62631
 N482 N 0.85612 0.44168 0.60981
 N483 N 0.83378 0.43072 0.59087
 C484 C 0.80758 0.39410 0.58786
 N485 N 0.80444 0.36877 0.60434
 N486 N 0.82678 0.37973 0.62328
 C487 C 0.87607 0.42836 0.64711
 C488 C 0.89506 0.43863 0.66478
 C489 C 0.78272 0.38246 0.56788
 C490 C 0.76141 0.37268 0.55130
 C491 C 0.42028 0.56792 0.62588
 N492 N 0.44568 0.59332 0.61057
 N493 N 0.43437 0.60435 0.59167
 C494 C 0.39731 0.59032 0.58751
 N495 N 0.37191 0.56489 0.60281
 N496 N 0.38322 0.55386 0.62171
 C497 C 0.43251 0.55700 0.64665
 C498 C 0.44290 0.54839 0.66429
 C499 C 0.38514 0.60305 0.56757
 C500 C 0.37485 0.61409 0.55103
 C501 C 0.43193 0.85335 0.62639
 N502 N 0.40641 0.85324 0.61119
 N503 N 0.39550 0.83119 0.59213
 C504 C 0.40978 0.80859 0.58769
 N505 N 0.43534 0.80874 0.60287
 N506 N 0.44625 0.83079 0.62193
 C507 C 0.44268 0.87612 0.64734
 C508 C 0.45114 0.89480 0.66513
 C509 C 0.39709 0.78391 0.56762
 C510 C 0.38605 0.76269 0.55100
 C511 C 0.14662 0.57952 0.62661
 N512 N 0.14553 0.55413 0.61091
 N513 N 0.16757 0.56541 0.59185
 C514 C 0.19138 0.60241 0.58790
 N515 N 0.19243 0.62779 0.60358
 N516 N 0.17039 0.61652 0.62264
 C517 C 0.12381 0.56731 0.64755
 C518 C 0.10508 0.55692 0.66532
 C519 C 0.21601 0.61450 0.56780
 C520 C 0.23717 0.62475 0.55115
 C521 C 0.43617 0.58303 0.87370
 N522 N 0.44291 0.61862 0.87553
 N523 N 0.43127 0.62918 0.89447
 C524 C 0.41252 0.60445 0.91213
 N525 N 0.40583 0.56888 0.91031
 N526 N 0.41747 0.55833 0.89137
 C527 C 0.44733 0.57125 0.85288
 C528 C 0.45599 0.56110 0.83519
 C529 C 0.39873 0.61542 0.93207
 C530 C 0.38658 0.62451 0.94858
 C531 C 0.14757 0.56498 0.87304
 N532 N 0.17551 0.55707 0.87550
 N533 N 0.19763 0.56873 0.89454
 C534 C 0.19247 0.58867 0.91170
 N535 N 0.16448 0.59653 0.90926
 N536 N 0.14237 0.58487 0.89022
 C537 C 0.12470 0.55371 0.85212
 C538 C 0.10592 0.54490 0.83435
 C539 C 0.21717 0.60244 0.93175
 C540 C 0.23838 0.61455 0.94835
 C541 C 0.41802 0.85316 0.87312
 N542 N 0.38194 0.82535 0.87580
 N543 N 0.37160 0.80337 0.89488
 C544 C 0.39704 0.80854 0.91186
 N545 N 0.43311 0.83638 0.90920
 N546 N 0.44345 0.85836 0.89011
 C547 C 0.42946 0.87584 0.85214
 C548 C 0.43931 0.89447 0.83433
 C549 C 0.38621 0.78395 0.93193
 C550 C 0.37715 0.76281 0.94854
 C551 C 0.56747 0.42030 0.87395
 N552 N 0.58825 0.44539 0.89100
 N553 N 0.59964 0.43455 0.90996
 C554 C 0.59060 0.39830 0.91243
 N555 N 0.56978 0.37321 0.89540
 N556 N 0.55839 0.38404 0.87644
 C557 C 0.55643 0.43227 0.85312
 C558 C 0.54781 0.44252 0.83542
 C559 C 0.60398 0.38689 0.93242
 C560 C 0.61570 0.37738 0.94899
 C561 C 0.85367 0.43116 0.87417
 N562 N 0.85659 0.40883 0.89063
 N563 N 0.83424 0.39738 0.90955
 C564 C 0.80827 0.40791 0.91257
 N565 N 0.80538 0.43027 0.89613
 N566 N 0.82773 0.44172 0.87721
 C567 C 0.87680 0.44234 0.85337
 C568 C 0.89577 0.45111 0.83570
 C569 C 0.78335 0.39456 0.93253
 C570 C 0.76200 0.38289 0.94907
 C571 C 0.57740 0.14531 0.87430
 N572 N 0.61417 0.17055 0.87788
 N573 N 0.62501 0.19274 0.89688
 C574 C 0.59940 0.19036 0.91287
 N575 N 0.56262 0.16508 0.90930
 N576 N 0.55179 0.14289 0.89031
 C577 C 0.56557 0.12242 0.85340
 C578 C 0.55544 0.10363 0.83565
 C579 C 0.61092 0.21519 0.93285
 C580 C 0.62057 0.23651 0.94940
   
