data_POSCAR
  _audit_creation_date              2014-09-24
  _audit_creation_method            'ToBaCCo'
  _symmetry_space_group_name_H-M    'P1'
  _symmetry_Int_Tables_number       1
  _symmetry_cell_setting            triclinic
  loop_
  _symmetry_equiv_pos_as_xyz
 x,y,z
_cell_length_a 33.7396
_cell_length_b 33.6271
_cell_length_c 33.6498
_cell_angle_alpha 89.679200
_cell_angle_beta 89.678100
_cell_angle_gamma 89.800200
loop_
  _atom_site_label
  _atom_site_type_symbol
  _atom_site_fract_x
  _atom_site_fract_y
  _atom_site_fract_z
N1 N 0.30085 0.41082 1.38911
 N2 N 0.30455 0.38250 1.41586
 C3 C 0.27159 0.38135 1.43856
 C4 C 0.24521 0.41019 1.42494
 C5 C 0.26556 0.42889 1.39404
 H6 H 0.26802 0.36195 1.46405
 H7 H 0.25493 0.45289 1.37535
 Cu8 Cu 0.35172 0.34916 1.41791
 Cu9 Cu 0.34188 0.42163 1.34953
 Cu10 Cu 0.40867 0.34424 1.33592
 N11 N 0.38865 0.30543 1.40964
 N12 N 0.41057 0.30376 1.37734
 C13 C 0.43104 0.26945 1.37721
 C14 C 0.42054 0.24742 1.41062
 C15 C 0.39436 0.27200 1.43118
 H16 H 0.45246 0.26152 1.35457
 H17 H 0.37869 0.26506 1.45847
 N18 N 0.40243 0.38822 1.29761
 N19 N 0.37749 0.41807 1.30297
 C20 C 0.37929 0.44248 1.27109
 C21 C 0.40628 0.42682 1.24421
 C22 C 0.42071 0.39281 1.26226
 H23 H 0.36188 0.46931 1.26743
 H24 H 0.44237 0.37251 1.24993
 H25 H 0.35051 0.36167 1.34678
 H26 H 0.39071 0.39029 1.37120
 N27 N 1.20402 0.59546 0.87847
 N28 N 1.20399 0.62440 0.90458
 C29 C 1.23749 0.62223 0.92613
 C30 C 1.25972 0.59063 0.91229
 C31 C 1.23754 0.57405 0.88232
 H32 H 1.24591 0.64285 0.94911
 H33 H 1.24580 0.54900 0.86399
 Cu34 Cu 1.16139 0.66345 0.90592
 Cu35 Cu 1.16213 0.58923 0.83956
 Cu36 Cu 1.08569 0.65848 0.84158
 N37 N 1.11845 0.70213 0.90669
 N38 N 1.08825 0.69926 0.88242
 C39 C 1.06258 0.72911 0.88974
 C40 C 1.07735 0.75202 0.92047
 C41 C 1.11333 0.73428 0.92982
 H42 H 1.03629 0.73498 0.87240
 H43 H 1.13385 0.74370 0.95243
 N44 N 1.08860 0.61491 0.80263
 N45 N 1.11719 0.58800 0.80256
 C46 C 1.11167 0.56309 0.77190
 C47 C 1.07805 0.57486 0.75181
 C48 C 1.06439 0.60803 0.77173
 H49 H 1.13159 0.53928 0.76350
 H50 H 1.03928 0.62632 0.76353
 H51 H 1.14604 0.64873 0.83684
 H52 H 1.11801 0.61659 0.87253
 N53 N 0.70711 -0.10035 0.12216
 N54 N 0.70707 -0.12933 0.09612
 C55 C 0.74024 -0.12705 0.07379
 C56 C 0.76260 -0.09549 0.08716
 C57 C 0.74039 -0.07884 0.11748
 H58 H 0.74773 -0.14683 0.04964
 H59 H 0.74824 -0.05331 0.13515
 Cu60 Cu 0.66432 -0.16788 0.09457
 Cu61 Cu 0.66443 -0.09316 0.16057
 Cu62 Cu 0.58564 -0.15889 0.15589
 N63 N 0.61975 -0.20426 0.09232
 N64 N 0.58837 -0.19969 0.11513
 C65 C 0.56203 -0.22849 0.10705
 C66 C 0.57765 -0.25253 0.07738
 C67 C 0.61469 -0.23647 0.06939
 H68 H 0.53474 -0.23309 0.12342
 H69 H 0.63611 -0.24718 0.04793
 N70 N 0.58854 -0.11572 0.19513
 N71 N 0.61854 -0.09071 0.19683
 C72 C 0.61308 -0.06630 0.22797
 C73 C 0.57785 -0.07619 0.24658
 C74 C 0.56330 -0.10793 0.22529
 H75 H 0.63402 -0.04415 0.23766
 H76 H 0.53689 -0.12480 0.23216
 H77 H 0.64604 -0.15188 0.16288
 H78 H 0.62118 -0.11876 0.12579
 N79 N -0.20246 1.08789 -0.38229
 N80 N -0.19986 1.11444 -0.41099
 C81 C -0.22976 1.10892 -0.43670
 C82 C -0.25203 1.07684 -0.42368
 C83 C -0.23417 1.06470 -0.38868
 H84 H -0.23523 1.12708 -0.46274
 H85 H -0.24403 1.04125 -0.36890
 Cu86 Cu -0.15840 1.15438 -0.41155
 Cu87 Cu -0.16444 1.08508 -0.33902
 Cu88 Cu -0.09580 1.16111 -0.33435
 N89 N -0.12502 1.20068 -0.40406
 N90 N -0.09957 1.20248 -0.37476
 C91 C -0.07961 1.23696 -0.37725
 C92 C -0.09412 1.25875 -0.40918
 C93 C -0.12254 1.23426 -0.42589
 H94 H -0.05725 1.24623 -0.35637
 H95 H -0.13906 1.23962 -0.45285
 N96 N -0.09704 1.11657 -0.29620
 N97 N -0.12326 1.08760 -0.29778
 C98 C -0.11663 1.06207 -0.26749
 C99 C -0.08442 1.07541 -0.24618
 C100 C -0.07319 1.11034 -0.26485
 H101 H -0.13388 1.03571 -0.26125
 H102 H -0.04977 1.13009 -0.25570
 H103 H -0.15491 1.14572 -0.33990
 H104 H -0.11797 1.11396 -0.36677
 N105 N 0.69720 0.58980 0.60854
 N106 N 0.69523 0.61849 0.58190
 C107 C 0.72685 0.61582 0.55736
 C108 C 0.74956 0.58366 0.56932
 C109 C 0.73011 0.56809 0.60204
 H110 H 0.73378 0.63646 0.53358
 H111 H 0.73981 0.54338 0.62030
 Cu112 Cu 0.65301 0.65794 0.58437
 Cu113 Cu 0.65845 0.58390 0.65124
 Cu114 Cu 0.58326 0.65448 0.65580
 N115 N 0.61074 0.69734 0.58682
 N116 N 0.58340 0.69568 0.61479
 C117 C 0.55865 0.72692 0.61069
 C118 C 0.57100 0.74915 0.57827
 C119 C 0.60438 0.72981 0.56412
 H120 H 0.53430 0.73377 0.63058
 H121 H 0.62298 0.73929 0.53959
 N122 N 0.58833 0.61036 0.69436
 N123 N 0.61652 0.58309 0.69217
 C124 C 0.61281 0.55792 0.72323
 C125 C 0.58074 0.56984 0.74591
 C126 C 0.56617 0.60337 0.72706
 H127 H 0.63292 0.53375 0.73002
 H128 H 0.54185 0.62182 0.73716
 H129 H 0.61204 0.61186 0.62249
 H130 H 0.64354 0.64350 0.65485
 N131 N 0.80149 0.40998 0.12038
 N132 N 0.80244 0.38271 0.09255
 C133 C 0.77115 0.38810 0.06833
 C134 C 0.74977 0.42074 0.08148
 C135 C 0.76955 0.43339 0.11499
 H136 H 0.76415 0.36961 0.04315
 H137 H 0.76086 0.45740 0.13447
 Cu138 Cu 0.84401 0.34237 0.09164
 Cu139 Cu 0.84138 0.41317 0.16179
 Cu140 Cu 0.91563 0.34172 0.16078
 N141 N 0.88593 0.30240 0.09146
 N142 N 0.91413 0.30275 0.11828
 C143 C 0.93890 0.27198 0.11183
 C144 C 0.92567 0.25134 0.07913
 C145 C 0.89170 0.27111 0.06722
 H146 H 0.96394 0.26430 0.13031
 H147 H 0.87244 0.26281 0.04309
 N148 N 0.91212 0.38370 0.20126
 N149 N 0.88435 0.41143 0.20115
 C150 C 0.89013 0.43580 0.23221
 C151 C 0.92324 0.42298 0.25273
 C152 C 0.93598 0.38946 0.23264
 H153 H 0.87140 0.46081 0.23978
 H154 H 0.96027 0.37014 0.24094
 H155 H 0.88645 0.38620 0.12996
 H156 H 0.85540 0.35326 0.16226
 N157 N 0.30381 0.09040 0.88322
 N158 N 0.30535 0.11701 0.91162
 C159 C 0.27439 0.11145 0.93654
 C160 C 0.25271 0.07931 0.92325
 C161 C 0.27191 0.06720 0.88896
 H162 H 0.26784 0.12946 0.96229
 H163 H 0.26281 0.04371 0.86921
 Cu164 Cu 0.34727 0.15670 0.91242
 Cu165 Cu 0.34286 0.08772 0.84061
 Cu166 Cu 0.41700 0.15871 0.84041
 N167 N 0.38852 0.19707 0.91122
 N168 N 0.41610 0.19716 0.88345
 C169 C 0.44055 0.22810 0.88929
 C170 C 0.42767 0.24842 0.92254
 C171 C 0.39430 0.22828 0.93544
 H172 H 0.46502 0.23617 0.87001
 H173 H 0.37540 0.23629 0.96021
 N174 N 0.41283 0.11724 0.79949
 N175 N 0.38497 0.08980 0.79998
 C176 C 0.39009 0.06583 0.76843
 C177 C 0.42290 0.07855 0.74719
 C178 C 0.43617 0.11163 0.76739
 H179 H 0.37118 0.04108 0.76106
 H180 H 0.46051 0.13068 0.75874
 H181 H 0.38879 0.11377 0.87127
 H182 H 0.35676 0.14769 0.84112
 N183 N 0.19848 0.91093 0.38809
 N184 N 0.19843 0.88153 0.41399
 C185 C 0.22887 0.88640 0.43925
 C186 C 0.24880 0.92086 0.42879
 C187 C 0.22901 0.93524 0.39577
 H188 H 0.23649 0.86615 0.46311
 H189 H 0.23700 0.96086 0.37792
 Cu190 Cu 0.15966 0.83895 0.41076
 Cu191 Cu 0.15967 0.91523 0.34573
 Cu192 Cu 0.08922 0.84072 0.34042
 N193 N 0.11950 0.79768 0.40780
 N194 N 0.09186 0.79877 0.38041
 C195 C 0.06797 0.76709 0.38503
 C196 C 0.08116 0.74518 0.41723
 C197 C 0.11419 0.76511 0.43068
 H198 H 0.04314 0.76015 0.36613
 H199 H 0.13276 0.75643 0.45535
 N200 N 0.09146 0.88571 0.30273
 N201 N 0.11797 0.91437 0.30506
 C202 C 0.11247 0.94003 0.27468
 C203 C 0.08091 0.92697 0.25236
 C204 C 0.06860 0.89226 0.27067
 H205 H 0.13098 0.96546 0.26818
 H206 H 0.04528 0.87282 0.26065
 H207 H 0.11554 0.88379 0.37479
 H208 H 0.14874 0.85498 0.34085
 Zn209 Zn 0.01595 1.04579 -0.02627
 Zn210 Zn -0.02870 0.96927 -0.02937
 Zn211 Zn 0.04750 0.97370 0.01478
 Zn212 Zn -0.02408 1.01469 0.04673
 O213 O 0.00262 1.00088 0.00144
 O214 O -0.00550 1.04704 -0.07466
 O215 O -0.00630 0.92206 -0.03988
 O216 O 0.09151 0.99689 -0.00369
 O217 O -0.04005 0.99119 -0.07675
 O218 O 0.06832 1.05026 -0.03447
 O219 O 0.04838 0.92427 -0.00441
 O220 O 0.00122 0.99987 0.09116
 O221 O -0.07480 0.95726 -0.00554
 O222 O 0.05375 0.96844 0.06715
 O223 O -0.07154 0.99156 0.05043
 O224 O -0.03214 1.06708 0.05063
 O225 O -0.00044 1.09054 -0.00230
 C226 C -0.02806 1.02323 -0.09283
 C227 C 0.02496 0.90557 -0.02696
 C228 C 0.09707 1.02794 -0.02452
 C229 C 0.03310 0.98046 0.09632
 C230 C -0.08923 0.96746 0.02781
 C231 C -0.02061 1.09601 0.02918
 Zn232 Zn 0.47178 0.01278 0.45149
 Zn233 Zn 0.51292 0.04718 0.52139
 Zn234 Zn 0.46779 -0.02935 0.52981
 Zn235 Zn 0.54355 -0.02708 0.48350
 O236 O 0.49896 0.00089 0.49664
 O237 O 0.46566 0.06482 0.44431
 O238 O 0.49257 0.05040 0.57034
 O239 O 0.41951 -0.03842 0.50978
 O240 O 0.49686 0.09145 0.49521
 O241 O 0.42278 -0.00704 0.45177
 O242 O 0.45981 -0.00629 0.57719
 O243 O 0.54410 -0.07577 0.50466
 O244 O 0.56537 0.05099 0.52871
 O245 O 0.48866 -0.07757 0.53990
 O246 O 0.58787 -0.00392 0.50055
 O247 O 0.54932 -0.03440 0.43121
 O248 O 0.49564 -0.00503 0.40720
 C249 C 0.47722 0.09507 0.46325
 C250 C 0.47168 0.02664 0.59095
 C251 C 0.40386 -0.02748 0.47729
 C252 C 0.52018 -0.09412 0.52738
 C253 C 0.59377 0.02767 0.52003
 C254 C 0.52774 -0.02417 0.40218
 Zn255 Zn 0.97190 0.48813 0.54800
 Zn256 Zn 1.01149 0.45037 0.47848
 Zn257 Zn 0.97119 0.52945 0.46939
 Zn258 Zn 1.04664 0.52260 0.51531
 O259 O 1.00032 0.49765 0.50274
 O260 O 0.96081 0.43689 0.55507
 O261 O 0.99328 0.44880 0.42877
 O262 O 0.92310 0.54150 0.48905
 O263 O 0.99009 0.40817 0.50353
 O264 O 0.92456 0.51179 0.54772
 O265 O 0.96285 0.50694 0.42202
 O266 O 1.05033 0.57108 0.49349
 O267 O 1.06347 0.44110 0.47408
 O268 O 0.99468 0.57618 0.45939
 O269 O 1.08990 0.49546 0.49944
 O270 O 1.05181 0.53022 0.56765
 O271 O 0.99644 0.50430 0.59202
 C272 C 0.96899 0.40630 0.53481
 C273 C 0.97371 0.47361 0.40814
 C274 C 0.90656 0.53241 0.52178
 C275 C 1.02708 0.59085 0.47133
 C276 C 1.09353 0.46170 0.48303
 C277 C 1.02946 0.52150 0.59685
 Zn278 Zn 0.47678 0.48496 0.95248
 Zn279 Zn 0.54721 0.52571 0.98518
 Zn280 Zn 0.46926 0.53249 1.02700
 Zn281 Zn 0.51351 0.45517 1.02725
 O282 O 0.50166 0.49957 0.99805
 O283 O 0.50348 0.49865 0.90846
 O284 O 0.54792 0.57526 1.00372
 O285 O 0.42444 0.54502 1.00122
 O286 O 0.55525 0.53023 0.93280
 O287 O 0.42982 0.50851 0.94693
 O288 O 0.49201 0.57933 1.03786
 O289 O 0.48841 0.45458 1.07422
 O290 O 0.59029 0.50225 1.00530
 O291 O 0.45448 0.51112 1.07374
 O292 O 0.56544 0.45070 1.03792
 O293 O 0.49877 0.40995 1.00333
 O294 O 0.46872 0.43266 0.94938
 C295 C 0.53539 0.51788 0.90351
 C296 C 0.52407 0.59478 1.02550
 C297 C 0.41138 0.53390 0.96778
 C298 C 0.46407 0.47851 1.09034
 C299 C 0.59477 0.47210 1.02768
 C300 C 0.47968 0.40405 0.97150
 C301 C 1.15886 0.47321 0.45218
 C302 C 1.19476 0.46024 0.43633
 C303 C 1.20713 0.42033 0.43983
 C304 C 1.18097 0.39273 0.45897
 C305 C 1.14499 0.40658 0.47650
 C306 C 1.13347 0.44692 0.47196
 C307 C 1.12140 0.37931 0.49785
 N308 N 1.13119 0.34023 0.49843
 N309 N 1.16276 0.32659 0.47890
 C310 C 1.18756 0.35127 0.45882
 H311 H 1.15043 0.50409 0.44810
 H312 H 1.21344 0.48230 0.42213
 H313 H 1.09535 0.38862 0.51420
 H314 H 1.21099 0.33778 0.44168
 C315 C 0.34172 0.55449 0.97858
 C316 C 0.30513 0.56819 0.96515
 C317 C 0.29973 0.57859 0.92520
 C318 C 0.33245 0.57730 0.89863
 C319 C 0.36987 0.56380 0.91235
 C320 C 0.37404 0.55104 0.95247
 C321 C 0.40220 0.56497 0.88562
 N322 N 0.39691 0.57780 0.84776
 N323 N 0.36170 0.59004 0.83483
 C324 C 0.32940 0.59045 0.85895
 H325 H 0.34455 0.54551 1.00942
 H326 H 0.28049 0.56967 0.98589
 H327 H 0.43185 0.55684 0.89446
 H328 H 0.30196 0.60185 0.84698
 C329 C -0.15860 0.97478 0.05028
 C330 C -0.19409 0.95948 0.06499
 C331 C -0.19862 0.91857 0.07187
 C332 C -0.16606 0.89262 0.06468
 C333 C -0.13007 0.90823 0.04918
 C334 C -0.12667 0.94960 0.04165
 C335 C -0.09794 0.88203 0.04340
 N336 N -0.10176 0.84292 0.05247
 N337 N -0.13531 0.82833 0.06746
 C338 C -0.16738 0.85179 0.07419
 H339 H -0.15608 1.00655 0.04538
 H340 H -0.21842 0.97980 0.07076
 H341 H -0.06957 0.89229 0.03249
 H342 H -0.19305 0.83829 0.08783
 C343 C 0.64541 0.07786 0.53292
 C344 C 0.68268 0.08969 0.54571
 C345 C 0.71056 0.06176 0.55904
 C346 C 0.70094 0.02072 0.55797
 C347 C 0.66226 0.00868 0.54666
 C348 C 0.63443 0.03769 0.53326
 C349 C 0.65273 -0.03200 0.55034
 N350 N 0.68092 -0.05873 0.56106
 N351 N 0.71790 -0.04768 0.56874
 C352 C 0.72889 -0.00899 0.56744
 H353 H 0.62475 0.10051 0.52294
 H354 H 0.68937 0.12117 0.54618
 H355 H 0.62322 -0.04309 0.54557
 H356 H 0.75952 -0.00204 0.57324
 C357 C 0.45219 0.16332 0.47524
 C358 C 0.43624 0.19942 0.46232
 C359 C 0.43362 0.20886 0.42160
 C360 C 0.44581 0.17955 0.39344
 C361 C 0.46420 0.14387 0.40680
 C362 C 0.46607 0.13510 0.44807
 C363 C 0.47986 0.11777 0.37812
 N364 N 0.47341 0.12453 0.33898
 N365 N 0.45223 0.15558 0.32662
 C366 C 0.43773 0.18288 0.35243
 H367 H 0.45297 0.15710 0.50685
 H368 H 0.42699 0.22057 0.48471
 H369 H 0.49725 0.09215 0.38637
 H370 H 0.41874 0.20582 0.34055
 C371 C 0.97546 0.34085 0.56747
 C372 C 0.95947 0.30577 0.58265
 C373 C 0.91915 0.29636 0.57749
 C374 C 0.89409 0.32493 0.55847
 C375 C 0.91078 0.36039 0.54257
 C376 C 0.95166 0.36814 0.54726
 C377 C 0.88570 0.38772 0.52312
 N378 N 0.84618 0.38103 0.52173
 N379 N 0.83007 0.34914 0.53880
 C380 C 0.85245 0.32125 0.55748
 H381 H 1.00666 0.34691 0.57186
 H382 H 0.97946 0.28512 0.59719
 H383 H 0.89708 0.41454 0.50936
 H384 H 0.83706 0.29758 0.57269
 C385 C 0.07580 0.85452 -0.04045
 C386 C 0.08865 0.81712 -0.05216
 C387 C 0.06174 0.78769 -0.06375
 C388 C 0.02034 0.79563 -0.05959
 C389 C 0.00710 0.83403 -0.04726
 C390 C 0.03539 0.86419 -0.03879
 C391 C -0.03400 0.83997 -0.04188
 N392 N -0.05971 0.80982 -0.04806
 N393 N -0.04730 0.77380 -0.05849
 C394 C -0.00835 0.76554 -0.06389
 H395 H 0.09805 0.87657 -0.03356
 H396 H 0.12034 0.81225 -0.05438
 H397 H -0.04638 0.86757 -0.03162
 H398 H -0.00040 0.73504 -0.06963
 C399 C 0.57549 0.64411 1.04078
 C400 C 0.58867 0.68130 1.05233
 C401 C 0.56194 0.71196 1.06181
 C402 C 0.52064 0.70536 1.05575
 C403 C 0.50715 0.66724 1.04328
 C404 C 0.53500 0.63593 1.03707
 C405 C 0.46641 0.66264 1.03538
 N406 N 0.44116 0.69371 1.03980
 N407 N 0.45380 0.72940 1.05068
 C408 C 0.49253 0.73642 1.05820
 H409 H 0.59745 0.62109 1.03559
 H410 H 0.62029 0.68508 1.05611
 H411 H 0.45416 0.63535 1.02436
 H412 H 0.50087 0.76670 1.06416
 C413 C 0.47320 0.45616 1.15947
 C414 C 0.45922 0.44383 1.19646
 C415 C 0.41850 0.44245 1.20475
 C416 C 0.39120 0.45362 1.17463
 C417 C 0.40556 0.46670 1.13693
 C418 C 0.44700 0.46788 1.12949
 C419 C 0.37775 0.47628 1.10731
 N420 N 0.33843 0.47303 1.11503
 N421 N 0.32499 0.46041 1.15014
 C422 C 0.34993 0.45033 1.18002
 H423 H 0.50492 0.45653 1.15417
 H424 H 0.48051 0.43507 1.21888
 H425 H 0.38668 0.48568 1.07787
 H426 H 0.33706 0.43911 1.20724
 C427 C 0.54163 -0.07592 0.35247
 C428 C 0.55268 -0.08840 0.31460
 C429 C 0.56278 -0.06076 0.28491
 C430 C 0.56051 -0.01953 0.29341
 C431 C 0.54979 -0.00691 0.33219
 C432 C 0.54004 -0.03544 0.36170
 C433 C 0.54998 0.03401 0.34037
 N434 N 0.55836 0.06054 0.31105
 N435 N 0.56674 0.04883 0.27420
 C436 C 0.56803 0.00979 0.26435
 H437 H 0.53423 -0.09807 0.37480
 H438 H 0.55434 -0.12002 0.30875
 H439 H 0.54401 0.04502 0.36988
 H440 H 0.57444 0.00219 0.23383
 C441 C -0.08097 1.03319 -0.14238
 C442 C -0.09451 1.04570 -0.17946
 C443 C -0.06791 1.05823 -0.20911
 C444 C -0.02655 1.05561 -0.20192
 C445 C -0.01279 1.04345 -0.16393
 C446 C -0.04045 1.03318 -0.13371
 C447 C 0.02841 1.04079 -0.15789
 N448 N 0.05386 1.04959 -0.18794
 N449 N 0.04098 1.06046 -0.22371
 C450 C 0.00177 1.06350 -0.23181
 H451 H -0.10243 1.02491 -0.11975
 H452 H -0.12618 1.04700 -0.18449
 H453 H 0.04074 1.03101 -0.12991
 H454 H -0.00669 1.07103 -0.26182
 C455 C 1.05049 0.57298 0.64386
 C456 C 1.06108 0.58608 0.68147
 C457 C 1.06390 0.55940 0.71343
 C458 C 1.05498 0.51870 0.70748
 C459 C 1.04393 0.50536 0.66915
 C460 C 1.04165 0.53292 0.63721
 C461 C 1.03634 0.46460 0.66401
 N462 N 1.03855 0.43934 0.69548
 N463 N 1.04790 0.45202 0.73164
 C464 C 1.05612 0.49077 0.73874
 H465 H 1.04876 0.59442 0.61976
 H466 H 1.06797 0.61725 0.68548
 H467 H 1.02898 0.45246 0.63532
 H468 H 1.06312 0.49935 0.76879
 C469 C 0.85766 0.55748 0.57017
 C470 C 0.81997 0.56965 0.58173
 C471 C 0.78901 0.57154 0.55435
 C472 C 0.79610 0.56034 0.51439
 C473 C 0.83452 0.54717 0.50258
 C474 C 0.86575 0.54629 0.53086
 C475 C 0.83957 0.53369 0.46328
 N476 N 0.80872 0.53461 0.43764
 N477 N 0.77300 0.54752 0.44862
 C478 C 0.76557 0.56016 0.48610
 H479 H 0.88085 0.55683 0.59233
 H480 H 0.81498 0.57793 0.61244
 H481 H 0.86725 0.52160 0.45262
 H482 H 0.73572 0.56934 0.49345
 C483 C 0.64503 0.42080 1.04341
 C484 C 0.68260 0.40846 1.05527
 C485 C 0.71164 0.43612 1.06570
 C486 C 0.70269 0.47736 1.06306
 C487 C 0.66385 0.48996 1.05257
 C488 C 0.63501 0.46126 1.04174
 C489 C 0.65518 0.53098 1.05424
 N490 N 0.68420 0.55739 1.06253
 N491 N 0.72122 0.54569 1.06955
 C492 C 0.73149 0.50670 1.06995
 H493 H 0.62356 0.39840 1.03531
 H494 H 0.68875 0.37686 1.05705
 H495 H 0.62568 0.54254 1.04977
 H496 H 0.76218 0.49922 1.07503
 C497 C 0.14799 1.07912 -0.03767
 C498 C 0.18570 1.09148 -0.04917
 C499 C 0.21475 1.06389 -0.06052
 C500 C 0.20580 1.02268 -0.05886
 C501 C 0.16683 1.01007 -0.04879
 C502 C 0.13783 1.03871 -0.03732
 C503 C 0.15822 0.96917 -0.05166
 N504 N 0.18739 0.94282 -0.06058
 N505 N 0.22450 0.95446 -0.06718
 C506 C 0.23472 0.99338 -0.06649
 H507 H 0.12642 1.10147 -0.02906
 H508 H 0.19188 1.12307 -0.05018
 H509 H 0.12869 0.95764 -0.04766
 H510 H 0.26547 1.00083 -0.07135
 C511 C 0.35332 -0.07926 0.46751
 C512 C 0.31580 -0.09167 0.45590
 C513 C 0.28631 -0.06396 0.44572
 C514 C 0.29428 -0.02273 0.44992
 C515 C 0.33284 -0.01015 0.46073
 C516 C 0.36266 -0.03880 0.46872
 C517 C 0.34000 0.03090 0.46424
 N518 N 0.31025 0.05735 0.45799
 N519 N 0.27383 0.04555 0.44881
 C520 C 0.26476 0.00653 0.44485
 H521 H 0.37575 -0.10148 0.47399
 H522 H 0.31032 -0.12327 0.45335
 H523 H 0.36870 0.04224 0.47258
 H524 H 0.23434 -0.00110 0.43885
 C525 C 0.57038 -0.14318 0.54823
 C526 C 0.58270 -0.18081 0.56023
 C527 C 0.55553 -0.21185 0.56479
 C528 C 0.51500 -0.20495 0.55594
 C529 C 0.50236 -0.16652 0.54325
 C530 C 0.53042 -0.13517 0.54007
 C531 C 0.46232 -0.16150 0.53259
 N532 N 0.43683 -0.19248 0.53542
 N533 N 0.44864 -0.22829 0.54762
 C534 C 0.48681 -0.23566 0.55771
 H535 H 0.59238 -0.11988 0.54572
 H536 H 0.61380 -0.18557 0.56664
 H537 H 0.45094 -0.13372 0.52116
 H538 H 0.49473 -0.26564 0.56623
 C539 C 1.07867 0.63805 0.44932
 C540 C 1.09176 0.67515 0.43648
 C541 C 1.06530 0.70702 0.43236
 C542 C 1.02491 0.70173 0.44300
 C543 C 1.01153 0.66394 0.45659
 C544 C 1.03868 0.63153 0.45879
 C545 C 0.97173 0.66053 0.46905
 N546 N 0.94712 0.69242 0.46700
 N547 N 0.95959 0.72765 0.45391
 C548 C 0.99760 0.73347 0.44211
 H549 H 1.09998 0.61394 0.45123
 H550 H 1.12279 0.67880 0.42887
 H551 H 0.95991 0.63334 0.48135
 H552 H 1.00614 0.76307 0.43299
 C553 C -0.07214 1.14377 0.04974
 C554 C -0.08531 1.18138 0.06080
 C555 C -0.05880 1.21312 0.06392
 C556 C -0.01821 1.20699 0.05445
 C557 C -0.00471 1.16856 0.04323
 C558 C -0.03212 1.13676 0.04082
 C559 C 0.03604 1.16320 0.03575
 N560 N 0.06105 1.19458 0.03778
 N561 N 0.04816 1.23088 0.04693
 C562 C 0.00946 1.23818 0.05525
 H563 H -0.09350 1.11985 0.04798
 H564 H -0.11640 1.18550 0.06796
 H565 H 0.04844 1.13443 0.02863
 H566 H 0.00073 1.26835 0.06200
 C567 C 0.42870 0.35608 0.95156
 C568 C 0.41594 0.31841 0.94066
 C569 C 0.44279 0.28676 0.93740
 C570 C 0.48328 0.29303 0.94653
 C571 C 0.49631 0.33149 0.95777
 C572 C 0.46859 0.36320 0.96027
 C573 C 0.53693 0.33697 0.96518
 N574 N 0.56230 0.30569 0.96290
 N575 N 0.54987 0.26940 0.95357
 C576 C 0.51130 0.26199 0.94538
 H577 H 0.40711 0.37996 0.95337
 H578 H 0.38492 0.31418 0.93372
 H579 H 0.54892 0.36576 0.97246
 H580 H 0.50295 0.23184 0.93842
 C581 C 0.55744 0.56829 0.85512
 C582 C 0.56713 0.58108 0.81694
 C583 C 0.56879 0.55426 0.78532
 C584 C 0.56014 0.51357 0.79237
 C585 C 0.55019 0.50049 0.83138
 C586 C 0.54847 0.52834 0.86285
 C587 C 0.54297 0.45973 0.83759
 N588 N 0.54427 0.43426 0.80650
 N589 N 0.55237 0.44673 0.76973
 C590 C 0.56025 0.48544 0.76158
 H591 H 0.55608 0.59002 0.87876
 H592 H 0.57382 0.61224 0.81212
 H593 H 0.53674 0.44772 0.86680
 H594 H 0.56620 0.49382 0.73109
 C595 C 0.42113 0.03921 0.64263
 C596 C 0.40950 0.05177 0.68030
 C597 C 0.43764 0.06262 0.70879
 C598 C 0.47859 0.05873 0.69947
 C599 C 0.49038 0.04678 0.66073
 C600 C 0.46123 0.03762 0.63205
 C601 C 0.53117 0.04309 0.65240
 N602 N 0.55813 0.05047 0.68112
 N603 N 0.54710 0.06086 0.71766
 C604 C 0.50838 0.06493 0.72790
 H605 H 0.39855 0.03188 0.62112
 H606 H 0.37811 0.05408 0.68684
 H607 H 0.54197 0.03371 0.62363
 H608 H 0.50147 0.07192 0.75841
 C609 C 0.05579 0.92964 0.14387
 C610 C 0.06630 0.91649 0.18160
 C611 C 0.06753 0.94283 0.21362
 C612 C 0.05727 0.98334 0.20747
 C613 C 0.04658 0.99683 0.16887
 C614 C 0.04558 0.96948 0.13694
 C615 C 0.03806 1.03750 0.16354
 N616 N 0.03870 1.06243 0.19507
 N617 N 0.04740 1.04951 0.23147
 C618 C 0.05661 1.01089 0.23878
 H619 H 0.05510 0.90829 0.11987
 H620 H 0.07417 0.88547 0.18570
 H621 H 0.03129 1.04990 0.13468
 H622 H 0.06296 1.00213 0.26902
 C623 C 0.92289 0.46325 0.35697
 C624 C 0.91082 0.45104 0.31949
 C625 C 0.93854 0.43897 0.29070
 C626 C 0.97963 0.44134 0.29952
 C627 C 0.99183 0.45276 0.33814
 C628 C 0.96302 0.46317 0.36710
 C629 C 1.03270 0.45465 0.34608
 N630 N 1.05939 0.44623 0.31705
 N631 N 1.04802 0.43646 0.28059
 C632 C 1.00919 0.43404 0.27075
 H633 H 0.90058 0.47152 0.37873
 H634 H 0.87936 0.44989 0.31340
 H635 H 1.04377 0.46342 0.37480
 H636 H 1.00204 0.42752 0.24027
   
