data_POSCAR
  _audit_creation_date              2014-09-24
  _audit_creation_method            'ToBaCCo'
  _symmetry_space_group_name_H-M    'P1'
  _symmetry_Int_Tables_number       1
  _symmetry_cell_setting            triclinic
  loop_
  _symmetry_equiv_pos_as_xyz
 x,y,z
_cell_length_a 61.5921
_cell_length_b 61.5314
_cell_length_c 17.6789
_cell_angle_alpha 90.064600
_cell_angle_beta 90.016500
_cell_angle_gamma 119.849100
loop_
  _atom_site_label
  _atom_site_type_symbol
  _atom_site_fract_x
  _atom_site_fract_y
  _atom_site_fract_z
C1 C 0.23212 0.50490 0.46577
 C2 C 0.23392 0.50621 0.54671
 C3 C 0.25532 0.50798 0.58171
 C4 C 0.27461 0.50772 0.54025
 C5 C 0.27210 0.50499 0.46061
 C6 C 0.25125 0.50384 0.42480
 H7 H 0.25048 0.50277 0.36359
 H8 H 0.25684 0.50915 0.64285
 C9 C 0.49198 -0.27532 0.46043
 C10 C 0.48920 -0.27590 0.54055
 C11 C 0.48725 -0.25675 0.57738
 C12 C 0.48921 -0.23597 0.53821
 C13 C 0.49264 -0.23500 0.45853
 C14 C 0.49426 -0.25432 0.42132
 H15 H 0.49543 -0.25369 0.36012
 H16 H 0.48608 -0.25725 0.63861
 C17 C 1.27301 0.76755 0.45751
 C18 C 1.27549 0.76448 0.53631
 C19 C 1.25648 0.74372 0.57444
 C20 C 1.23456 0.72630 0.53727
 C21 C 1.23151 0.72984 0.45989
 C22 C 1.25047 0.75047 0.42133
 H23 H 1.24820 0.75207 0.36114
 H24 H 1.25824 0.74173 0.63473
 C25 C 0.76890 0.49665 0.46454
 C26 C 0.76609 0.49248 0.54390
 C27 C 0.74466 0.49058 0.57898
 C28 C 0.72664 0.49371 0.53859
 C29 C 0.73064 0.49934 0.45992
 C30 C 0.75140 0.50030 0.42425
 H31 H 0.75397 0.50390 0.36393
 H32 H 0.74207 0.48678 0.63906
 C33 C 0.51322 0.27661 0.46706
 C34 C 0.50980 0.27413 0.54668
 C35 C 0.50719 0.25237 0.58174
 C36 C 0.50945 0.23385 0.54074
 C37 C 0.51232 0.23651 0.46070
 C38 C 0.51444 0.25786 0.42575
 H39 H 0.51579 0.25930 0.36457
 H40 H 0.50593 0.25119 0.64287
 C41 C 0.72225 0.23816 0.46274
 C42 C 0.72286 0.23657 0.54214
 C43 C 0.74316 0.25516 0.58255
 C44 C 0.76306 0.27606 0.54642
 C45 C 0.76209 0.27776 0.46594
 C46 C 0.74162 0.25888 0.42587
 H47 H 0.74133 0.25974 0.36462
 H48 H 0.74250 0.25383 0.64371
 O49 O 0.96643 0.44578 0.14462
 O50 O 0.93823 0.45134 0.07463
 C51 C 0.94373 0.44026 0.12758
 O52 O 1.03835 0.55693 0.12884
 O53 O 1.06442 0.54850 0.05733
 C54 C 1.06045 0.56152 0.10751
 O55 O 0.96826 0.52203 0.14237
 O56 O 0.93923 0.48816 0.07451
 C57 C 0.94536 0.50531 0.12588
 O58 O 1.03620 0.47733 0.13084
 O59 O 1.06324 0.51031 0.05636
 C60 C 1.05853 0.49349 0.10757
 Zr61 Zr 1.00093 0.47192 0.09488
 O62 O 1.00295 0.46952 0.21372
 O63 O 0.99914 0.43696 0.08117
 Zr64 Zr 1.00241 0.52767 0.09599
 O65 O 1.00621 0.52941 0.21522
 O66 O 1.00075 0.56123 0.09537
 O67 O 0.97964 0.48926 0.11310
 O68 O 1.02354 0.51026 0.10695
 O69 O 1.03259 0.47516 -0.13592
 O70 O 1.06163 0.50967 -0.07071
 C71 C 1.05550 0.49170 -0.11920
 O72 O 0.96488 0.51994 -0.13385
 O73 O 0.93744 0.48737 -0.05915
 C74 C 0.94239 0.50355 -0.11287
 O75 O 1.03479 0.55552 -0.13461
 O76 O 1.06279 0.54809 -0.07053
 C77 C 1.05744 0.56065 -0.11863
 O78 O 0.96295 0.44582 -0.14050
 O79 O 0.93650 0.45081 -0.06008
 C80 C 0.94080 0.44039 -0.11759
 Zr81 Zr 0.99848 0.47093 -0.09454
 O82 O 0.99986 0.46896 -0.21366
 O83 O 0.99429 0.43467 -0.08730
 Zr84 Zr 1.00001 0.52665 -0.09399
 O85 O 1.00137 0.52790 -0.21371
 O86 O 0.99801 0.56002 -0.09087
 Zr87 Zr 0.96294 0.48135 0.00488
 Zr88 Zr 1.03785 0.51723 -0.00392
 O89 O 1.02073 0.50907 -0.11111
 O90 O 0.97691 0.48818 -0.10678
 O91 O 1.02214 0.47797 -0.00240
 O92 O 0.97939 0.52064 0.00344
 O93 O 0.97743 0.45680 0.00260
 O94 O 1.02380 0.54224 -0.00153
 H95 H 1.03527 0.51593 0.15037
 H96 H 0.96840 0.52813 0.00453
 H97 H 1.03131 0.51414 -0.15712
 H98 H 0.96539 0.43854 0.00322
 H99 H 1.01495 0.57366 0.06475
 H100 H 1.01319 0.57294 -0.06476
 H101 H 0.98696 0.51224 -0.23282
 H102 H 0.99273 0.47899 -0.23415
 H103 H 1.00947 0.43639 -0.06237
 H104 H 0.99917 0.43082 0.13291
 H105 H 1.00666 0.48592 0.23452
 H106 H 0.99219 0.51377 0.23593
 O107 O 0.52124 0.55160 -0.14965
 O108 O 0.48882 0.54862 -0.07826
 C109 C 0.50516 0.55859 -0.13199
 O110 O 0.47535 0.43870 -0.11977
 O111 O 0.51036 0.44646 -0.05253
 C112 C 0.49232 0.43320 -0.09930
 O113 O 0.44375 0.47716 -0.13682
 O114 O 0.45173 0.51300 -0.07382
 C115 C 0.43926 0.49523 -0.12223
 O116 O 0.55582 0.51588 -0.13312
 O117 O 0.54840 0.48292 -0.05572
 C118 C 0.56086 0.49898 -0.10837
 Zr119 Zr 0.52737 0.52376 -0.09980
 O120 O 0.52891 0.52112 -0.21885
 O121 O 0.56180 0.55782 -0.09710
 Zr122 Zr 0.47153 0.47019 -0.09147
 O123 O 0.47262 0.46667 -0.21039
 O124 O 0.43542 0.43808 -0.08724
 O125 O 0.48885 0.50851 -0.11393
 O126 O 0.50958 0.48518 -0.10645
 O127 O 0.55802 0.52245 0.12929
 O128 O 0.54880 0.48584 0.06930
 C129 C 0.56249 0.50437 0.11405
 O130 O 0.44560 0.48357 0.13768
 O131 O 0.45229 0.51575 0.05831
 C132 C 0.44058 0.50053 0.11349
 O133 O 0.47699 0.44454 0.14202
 O134 O 0.51063 0.44883 0.07423
 C135 C 0.49336 0.43785 0.12501
 O136 O 0.52208 0.55706 0.12842
 O137 O 0.48961 0.55162 0.05206
 C138 C 0.50599 0.56334 0.10467
 Zr139 Zr 0.52836 0.52785 0.09071
 O140 O 0.53051 0.52883 0.21029
 O141 O 0.56197 0.56270 0.08391
 Zr142 Zr 0.47261 0.47432 0.09909
 O143 O 0.47487 0.47572 0.21868
 O144 O 0.43646 0.44228 0.10414
 Zr145 Zr 0.48237 0.51889 -0.00622
 Zr146 Zr 0.51745 0.47927 0.00494
 O147 O 0.51083 0.48985 0.11189
 O148 O 0.49000 0.51327 0.10623
 O149 O 0.54264 0.51805 -0.00199
 O150 O 0.45782 0.47997 0.00114
 O151 O 0.52162 0.54127 -0.00845
 O152 O 0.47822 0.45620 0.00777
 H153 H 0.51466 0.47829 -0.14925
 H154 H 0.43951 0.47342 0.00145
 H155 H 0.51648 0.48485 0.15780
 H156 H 0.52929 0.55972 -0.01185
 H157 H 0.43626 0.42600 -0.05222
 H158 H 0.43712 0.42863 0.07656
 H159 H 0.47646 0.49183 0.23500
 H160 H 0.51472 0.52721 0.22971
 H161 H 0.57284 0.56073 0.04658
 H162 H 0.56716 0.56198 -0.15048
 H163 H 0.51232 0.51707 -0.23890
 H164 H 0.47377 0.48186 -0.23333
 O165 O 0.55673 0.03589 -0.13066
 O166 O 0.54981 0.06278 -0.05806
 C167 C 0.56190 0.05820 -0.10997
 O168 O 0.44461 -0.03410 -0.13671
 O169 O 0.45087 -0.06251 -0.07032
 C170 C 0.43892 -0.05687 -0.11980
 O171 O 0.48166 0.03635 -0.13555
 O172 O 0.51360 0.06297 -0.05689
 C173 C 0.49785 0.05859 -0.11126
 O174 O 0.52364 -0.03404 -0.13223
 O175 O 0.48850 -0.06249 -0.06839
 C176 C 0.50642 -0.05683 -0.11659
 Zr177 Zr 0.52854 0.00050 -0.09166
 O178 O 0.52986 -0.00037 -0.21120
 O179 O 0.56316 0.00142 -0.08085
 Zr180 Zr 0.47372 0.00058 -0.09537
 O181 O 0.47331 -0.00079 -0.21506
 O182 O 0.44084 0.00343 -0.09564
 O183 O 0.51238 0.02306 -0.10601
 O184 O 0.49049 -0.02102 -0.10992
 O185 O 0.52170 -0.03698 0.12924
 O186 O 0.48698 -0.06399 0.06048
 C187 C 0.50469 -0.05935 0.10868
 O188 O 0.47798 0.03275 0.14091
 O189 O 0.51213 0.06121 0.07350
 C190 C 0.49497 0.05554 0.12434
 O191 O 0.44095 -0.03706 0.12415
 O192 O 0.44928 -0.06403 0.05707
 C193 C 0.43583 -0.05940 0.10384
 O194 O 0.55384 0.03290 0.14619
 O195 O 0.54863 0.06123 0.07583
 C196 C 0.55954 0.05566 0.12895
 Zr197 Zr 0.52653 -0.00163 0.09837
 O198 O 0.52344 -0.00604 0.21733
 O199 O 0.56211 0.00099 0.10077
 Zr200 Zr 0.47171 -0.00175 0.09527
 O201 O 0.46985 -0.00626 0.21428
 O202 O 0.43885 0.00109 0.09665
 Zr203 Zr 0.51864 0.03690 0.00576
 Zr204 Zr 0.48150 -0.03804 -0.00261
 O205 O 0.48812 -0.02371 0.10834
 O206 O 0.51004 0.02054 0.11426
 O207 O 0.52059 -0.02304 0.00099
 O208 O 0.47950 0.02119 0.00218
 O209 O 0.54237 0.02143 0.00591
 O210 O 0.45733 -0.02297 -0.00293
 H211 H 0.48547 -0.03161 -0.15600
 H212 H 0.47225 0.03240 0.00266
 H213 H 0.48196 -0.03563 0.15126
 H214 H 0.56073 0.03280 0.00790
 H215 H 0.42744 -0.01175 -0.07088
 H216 H 0.42746 -0.01051 0.05768
 H217 H 0.48461 0.00849 0.23624
 H218 H 0.52154 0.00783 0.23824
 H219 H 0.56223 -0.01004 0.06021
 H220 H 0.56925 0.00194 -0.13305
 H221 H 0.52589 0.01233 -0.23046
 H222 H 0.48948 0.01313 -0.23301
 C223 C 1.20321 0.52153 0.44852
 C224 C 1.18300 0.52112 0.41117
 C225 C 1.17263 0.50624 0.34694
 C226 C 1.18292 0.49191 0.31962
 C227 C 1.20272 0.49177 0.35799
 C228 C 1.21282 0.50605 0.42459
 N229 N 1.15121 0.50535 0.31201
 N230 N 1.14496 0.49811 0.24399
 C231 C 1.12291 0.49632 0.21068
 C232 C 1.12191 0.49870 0.13221
 C233 C 1.10088 0.49770 0.09853
 C234 C 1.08016 0.49336 0.14273
 C235 C 1.08083 0.49016 0.22114
 C236 C 1.10221 0.49198 0.25509
 H237 H 1.21130 0.53408 0.49624
 H238 H 1.17550 0.53259 0.43210
 H239 H 1.17510 0.48016 0.27013
 H240 H 1.20916 0.47938 0.33734
 H241 H 1.13769 0.50191 0.09738
 H242 H 1.10073 0.50017 0.03791
 H243 H 1.06511 0.48698 0.25629
 H244 H 1.10252 0.48981 0.31577
 C245 C 0.47630 0.67947 0.44097
 C246 C 0.47750 0.66007 0.40381
 C247 C 0.49310 0.66506 0.34130
 C248 C 0.50741 0.68980 0.31549
 C249 C 0.50678 0.70940 0.35389
 C250 C 0.49172 0.70469 0.41892
 N251 N 0.49447 0.64478 0.30637
 N252 N 0.50202 0.64589 0.23874
 C253 C 0.50390 0.62560 0.20591
 C254 C 0.50138 0.62197 0.12756
 C255 C 0.50206 0.60166 0.09455
 C256 C 0.50620 0.58522 0.13934
 C257 C 0.50960 0.58936 0.21762
 C258 C 0.50810 0.60922 0.25089
 H259 H 0.46292 0.67451 0.48644
 H260 H 0.46596 0.64098 0.42329
 H261 H 0.51968 0.69407 0.26721
 H262 H 0.51911 0.72834 0.33454
 H263 H 0.49823 0.63452 0.09231
 H264 H 0.49948 0.59884 0.03397
 H265 H 0.51270 0.57683 0.25319
 H266 H 0.51034 0.61187 0.31153
 C267 C 0.31776 -0.20787 0.42575
 C268 C 0.33724 -0.18946 0.38274
 C269 C 0.33241 -0.17608 0.32793
 C270 C 0.30762 -0.18184 0.31478
 C271 C 0.28798 -0.20071 0.35647
 C272 C 0.29278 -0.21365 0.41400
 N273 N 0.35298 -0.15676 0.28677
 N274 N 0.35123 -0.13972 0.25120
 C275 C 0.37196 -0.12043 0.21045
 C276 C 0.37221 -0.09802 0.19476
 C277 C 0.39291 -0.07822 0.15948
 C278 C 0.41342 -0.08081 0.13734
 C279 C 0.41269 -0.10369 0.15032
 C280 C 0.39227 -0.12325 0.18747
 H281 H 0.32224 -0.21815 0.46660
 H282 H 0.35624 -0.18542 0.39271
 H283 H 0.30344 -0.17183 0.27217
 H284 H 0.26913 -0.20438 0.34571
 H285 H 0.35663 -0.09566 0.21190
 H286 H 0.39290 -0.06085 0.14960
 H287 H 0.42823 -0.10617 0.13379
 H288 H 0.39236 -0.14052 0.19841
 C289 C 0.78966 0.47269 0.42146
 C290 C 0.80855 0.47125 0.38194
 C291 C 0.82669 0.49203 0.34214
 C292 C 0.82530 0.51415 0.34024
 C293 C 0.80611 0.51544 0.37849
 C294 C 0.78845 0.49487 0.42056
 N295 N 0.84632 0.49025 0.30440
 N296 N 0.86628 0.50962 0.28290
 C297 C 0.88583 0.50798 0.24415
 C298 C 0.90929 0.52956 0.23710
 C299 C 0.92880 0.52863 0.19973
 C300 C 0.92495 0.50611 0.16730
 C301 C 0.90129 0.48449 0.17385
 C302 C 0.88194 0.48535 0.21255
 H303 H 0.77604 0.45657 0.45308
 H304 H 0.80936 0.45407 0.38346
 H305 H 0.83898 0.53036 0.30917
 H306 H 0.80538 0.53267 0.37702
 H307 H 0.91248 0.54712 0.26106
 H308 H 0.94677 0.54562 0.19508
 H309 H 0.89782 0.46687 0.14958
 H310 H 0.86390 0.46845 0.21698
 C311 C 0.53171 0.31127 0.37196
 C312 C 0.53083 0.32992 0.32946
 C313 C 0.51075 0.33434 0.33734
 C314 C 0.49142 0.31985 0.38852
 C315 C 0.49227 0.30115 0.43098
 C316 C 0.51251 0.29682 0.42337
 N317 N 0.51045 0.35354 0.29257
 N318 N 0.49292 0.35876 0.29699
 C319 C 0.49294 0.37809 0.25195
 C320 C 0.47381 0.38381 0.26186
 C321 C 0.47369 0.40303 0.22007
 C322 C 0.49277 0.41681 0.16731
 C323 C 0.51176 0.41072 0.15677
 C324 C 0.51188 0.39158 0.19874
 H325 H 0.54743 0.30815 0.36509
 H326 H 0.54580 0.34096 0.29015
 H327 H 0.47566 0.32288 0.39537
 H328 H 0.47707 0.28994 0.46946
 H329 H 0.45909 0.37350 0.30262
 H330 H 0.45877 0.40719 0.22949
 H331 H 0.52677 0.42095 0.11676
 H332 H 0.52686 0.38747 0.18989
 C333 C 0.68823 0.22284 0.36492
 C334 C 0.66918 0.20340 0.32296
 C335 C 0.66402 0.17867 0.33218
 C336 C 0.67837 0.17359 0.38345
 C337 C 0.69743 0.19299 0.42516
 C338 C 0.70232 0.21773 0.41699
 N339 N 0.64419 0.15910 0.28914
 N340 N 0.63825 0.13622 0.29677
 C341 C 0.61849 0.11645 0.25419
 C342 C 0.61290 0.09177 0.26689
 C343 C 0.59375 0.07198 0.22641
 C344 C 0.57983 0.07660 0.17212
 C345 C 0.58550 0.10147 0.15955
 C346 C 0.60463 0.12122 0.20023
 H347 H 0.69177 0.24180 0.35757
 H348 H 0.65831 0.20757 0.28348
 H349 H 0.67489 0.15467 0.39127
 H350 H 0.70840 0.18870 0.46388
 H351 H 0.62345 0.08787 0.30837
 H352 H 0.58992 0.05310 0.23756
 H353 H 0.57512 0.10572 0.11841
 H354 H 0.60859 0.14016 0.18945
 C355 C 0.52559 0.20459 -0.44300
 C356 C 0.52478 0.18398 -0.40738
 C357 C 0.50927 0.17295 -0.34506
 C358 C 0.49459 0.18288 -0.31797
 C359 C 0.49484 0.20312 -0.35486
 C360 C 0.50987 0.21395 -0.41956
 N361 N 0.50846 0.15144 -0.31130
 N362 N 0.50117 0.14484 -0.24364
 C363 C 0.49986 0.12288 -0.21163
 C364 C 0.49636 0.10265 -0.25728
 C365 C 0.49514 0.08137 -0.22455
 C366 C 0.49814 0.08041 -0.14617
 C367 C 0.50171 0.10070 -0.10081
 C368 C 0.50213 0.12158 -0.13329
 H369 H 0.53897 0.21340 -0.48824
 H370 H 0.53659 0.17681 -0.42775
 H371 H 0.48239 0.17452 -0.26978
 H372 H 0.48231 0.20941 -0.33457
 H373 H 0.49434 0.10322 -0.31796
 H374 H 0.49241 0.06593 -0.26046
 H375 H 0.50388 0.10024 -0.04010
 H376 H 0.50474 0.13701 -0.09758
 C377 C 0.70763 0.50071 -0.34816
 C378 C 0.68703 0.49952 -0.31112
 C379 C 0.66370 0.48891 -0.34736
 C380 C 0.66099 0.47868 -0.41958
 C381 C 0.68139 0.47931 -0.45604
 C382 C 0.70536 0.49124 -0.42234
 N383 N 0.64280 0.48921 -0.31327
 N384 N 0.64185 0.49258 -0.24262
 C385 C 0.62145 0.49417 -0.20995
 C386 C 0.61633 0.48919 -0.13284
 C387 C 0.59644 0.49054 -0.09975
 C388 C 0.58190 0.49768 -0.14307
 C389 C 0.58739 0.50319 -0.22007
 C390 C 0.60684 0.50117 -0.25354
 H391 H 0.72559 0.51030 -0.31986
 H392 H 0.68955 0.50769 -0.25528
 H393 H 0.64294 0.47005 -0.44754
 H394 H 0.67818 0.47008 -0.51032
 H395 H 0.62758 0.48394 -0.09863
 H396 H 0.59262 0.48635 -0.04017
 H397 H 0.57635 0.50863 -0.25460
 H398 H 0.61069 0.50536 -0.31312
 C399 C 0.79057 0.28742 -0.34202
 C400 C 0.80955 0.30528 -0.29624
 C401 C 0.82149 0.33059 -0.31557
 C402 C 0.81365 0.33809 -0.38002
 C403 C 0.79414 0.32033 -0.42480
 C404 C 0.78262 0.29451 -0.40794
 N405 N 0.84161 0.34828 -0.26922
 N406 N 0.85842 0.36921 -0.29529
 C407 C 0.87857 0.38701 -0.24930
 C408 C 0.90085 0.40439 -0.28438
 C409 C 0.92121 0.42146 -0.24112
 C410 C 0.91929 0.42188 -0.16204
 C411 C 0.89669 0.40491 -0.12681
 C412 C 0.87654 0.38729 -0.17011
 H413 H 0.78282 0.26790 -0.32681
 H414 H 0.81548 0.29928 -0.24663
 H415 H 0.82226 0.35772 -0.39482
 H416 H 0.78765 0.32709 -0.47108
 H417 H 0.90257 0.40439 -0.34534
 H418 H 0.93836 0.43461 -0.26954
 H419 H 0.89481 0.40501 -0.06590
 H420 H 0.85935 0.37409 -0.14203
 C421 C 0.47270 -0.22207 -0.35708
 C422 C 0.47296 -0.20298 -0.31350
 C423 C 0.48958 -0.17786 -0.33027
 C424 C 0.50583 -0.17196 -0.39220
 C425 C 0.50549 -0.19100 -0.43630
 C426 C 0.48886 -0.21646 -0.41972
 N427 N 0.48976 -0.15880 -0.28318
 N428 N 0.50583 -0.13571 -0.29150
 C429 C 0.50605 -0.11651 -0.24501
 C430 C 0.52476 -0.09166 -0.25652
 C431 C 0.52522 -0.07234 -0.21373
 C432 C 0.50681 -0.07754 -0.15849
 C433 C 0.48820 -0.10262 -0.14628
 C434 C 0.48782 -0.12195 -0.18911
 H435 H 0.45934 -0.24129 -0.34265
 H436 H 0.46027 -0.20779 -0.26606
 H437 H 0.51904 -0.15264 -0.40594
 H438 H 0.51923 -0.18566 -0.48087
 H439 H 0.53893 -0.08725 -0.29934
 H440 H 0.53981 -0.05328 -0.22480
 H441 H 0.47372 -0.10732 -0.10436
 H442 H 0.47315 -0.14104 -0.17912
 C443 C 0.32020 0.52589 -0.44695
 C444 C 0.34083 0.52722 -0.40956
 C445 C 0.33741 0.51221 -0.34641
 C446 C 0.31314 0.49658 -0.31875
 C447 C 0.29252 0.49574 -0.35468
 C448 C 0.29566 0.50982 -0.42075
 N449 N 0.35876 0.51301 -0.31139
 N450 N 0.35680 0.49463 -0.27304
 C451 C 0.37782 0.49529 -0.23631
 C452 C 0.37661 0.47267 -0.21693
 C453 C 0.39683 0.47263 -0.18118
 C454 C 0.41830 0.49533 -0.16221
 C455 C 0.41938 0.51805 -0.18067
 C456 C 0.39940 0.51805 -0.21833
 H457 H 0.32350 0.53785 -0.49549
 H458 H 0.35950 0.53963 -0.43075
 H459 H 0.31013 0.48503 -0.26935
 H460 H 0.27400 0.48305 -0.33286
 H461 H 0.36003 0.45503 -0.23027
 H462 H 0.39548 0.45489 -0.16695
 H463 H 0.43577 0.53578 -0.16671
 H464 H 0.40063 0.53575 -0.23231
 C465 C 1.22034 0.68950 -0.37585
 C466 C 1.20177 0.67001 -0.33303
 C467 C 1.17735 0.66610 -0.33173
 C468 C 1.17170 0.68202 -0.37393
 C469 C 1.19026 0.70153 -0.41659
 C470 C 1.21471 0.70535 -0.41837
 N471 N 1.15870 0.64599 -0.28722
 N472 N 1.13618 0.64148 -0.28484
 C473 C 1.11713 0.62149 -0.24114
 C474 C 1.09271 0.61738 -0.24497
 C475 C 1.07343 0.59780 -0.20464
 C476 C 1.07824 0.58191 -0.15916
 C477 C 1.10292 0.58627 -0.15455
 C478 C 1.12221 0.60588 -0.19536
 H479 H 1.23910 0.69217 -0.37620
 H480 H 1.20639 0.65791 -0.30074
 H481 H 1.15300 0.67950 -0.37363
 H482 H 1.18559 0.71382 -0.44763
 H483 H 1.08857 0.62932 -0.27991
 H484 H 1.05471 0.59510 -0.20939
 H485 H 1.10726 0.57436 -0.12025
 H486 H 1.14100 0.60873 -0.19143
 C487 C 0.77754 0.47403 -0.35025
 C488 C 0.79576 0.47305 -0.30536
 C489 C 0.82119 0.48931 -0.31906
 C490 C 0.82826 0.50667 -0.37844
 C491 C 0.81016 0.50763 -0.42344
 C492 C 0.78444 0.49113 -0.41095
 N493 N 0.83955 0.48810 -0.27207
 N494 N 0.86278 0.50337 -0.28126
 C495 C 0.88199 0.50303 -0.23663
 C496 C 0.90681 0.52105 -0.25143
 C497 C 0.92629 0.52133 -0.21060
 C498 C 0.92133 0.50345 -0.15377
 C499 C 0.89628 0.48539 -0.13846
 C500 C 0.87671 0.48517 -0.17962
 H501 H 0.75806 0.46077 -0.33884
 H502 H 0.79004 0.45956 -0.25978
 H503 H 0.84780 0.51973 -0.38971
 H504 H 0.81643 0.52212 -0.46600
 H505 H 0.91106 0.53489 -0.29525
 H506 H 0.94529 0.53552 -0.22412
 H507 H 0.89182 0.47131 -0.09529
 H508 H 0.85759 0.47103 -0.16732
 C509 C 0.52804 0.31868 -0.42062
 C510 C 0.52799 0.33763 -0.37731
 C511 C 0.50989 0.33183 -0.32147
 C512 C 0.49232 0.30664 -0.30694
 C513 C 0.49277 0.28752 -0.34880
 C514 C 0.51015 0.29331 -0.40802
 N515 N 0.50985 0.35190 -0.28060
 N516 N 0.49056 0.34941 -0.24638
 C517 C 0.49113 0.36989 -0.20597
 C518 C 0.46870 0.36982 -0.19234
 C519 C 0.46895 0.39036 -0.15731
 C520 C 0.49166 0.41096 -0.13343
 C521 C 0.51405 0.41059 -0.14483
 C522 C 0.51383 0.39036 -0.18152
 H523 H 0.54252 0.32390 -0.46285
 H524 H 0.54189 0.35698 -0.38815
 H525 H 0.47834 0.30176 -0.26324
 H526 H 0.47873 0.26828 -0.33717
 H527 H 0.45108 0.35414 -0.21082
 H528 H 0.45143 0.39016 -0.14886
 H529 H 0.53183 0.42628 -0.12735
 H530 H 0.53138 0.39074 -0.19098
 C531 C 0.67795 0.21340 -0.41784
 C532 C 0.65832 0.19429 -0.37691
 C533 C 0.66236 0.17757 -0.33373
 C534 C 0.68646 0.18041 -0.33086
 C535 C 0.70619 0.19978 -0.37072
 C536 C 0.70200 0.21623 -0.41504
 N537 N 0.64179 0.15789 -0.29352
 N538 N 0.64297 0.13935 -0.26646
 C539 C 0.62269 0.11961 -0.22563
 C540 C 0.62275 0.09715 -0.21449
 C541 C 0.60296 0.07720 -0.17686
 C542 C 0.58301 0.07962 -0.14804
 C543 C 0.58323 0.10241 -0.15755
 C544 C 0.60283 0.12221 -0.19678
 H545 H 0.67446 0.22607 -0.45138
 H546 H 0.63986 0.19233 -0.37947
 H547 H 0.69007 0.16781 -0.29750
 H548 H 0.72466 0.20176 -0.36786
 H549 H 0.63801 0.09498 -0.23620
 H550 H 0.60333 0.05989 -0.16986
 H551 H 0.56801 0.10469 -0.13614
 H552 H 0.60250 0.13950 -0.20435
 C553 C 1.21994 0.51950 -0.34140
 C554 C 1.20078 0.51822 -0.29614
 C555 C 1.17579 0.50121 -0.31299
 C556 C 1.17007 0.48484 -0.37473
 C557 C 1.18920 0.48609 -0.42020
 C558 C 1.21443 0.50395 -0.40554
 N559 N 1.15664 0.50156 -0.26818
 N560 N 1.13350 0.48675 -0.28071
 C561 C 1.11440 0.48777 -0.23750
 C562 C 1.08935 0.47060 -0.25343
 C563 C 1.07020 0.47168 -0.21447
 C564 C 1.07583 0.49013 -0.15886
 C565 C 1.10107 0.50724 -0.14245
 C566 C 1.12020 0.50606 -0.18136
 H567 H 1.23903 0.53361 -0.32822
 H568 H 1.20540 0.53091 -0.24865
 H569 H 1.15084 0.47130 -0.38834
 H570 H 1.18424 0.47303 -0.46684
 H571 H 1.08468 0.45647 -0.29669
 H572 H 1.05099 0.45821 -0.22856
 H573 H 1.10609 0.52167 -0.09998
 H574 H 1.13947 0.51960 -0.16818
 C575 C 0.47203 0.69138 -0.35820
 C576 C 0.47288 0.67273 -0.31559
 C577 C 0.49258 0.66781 -0.32490
 C578 C 0.51202 0.68237 -0.37566
 C579 C 0.51131 0.70118 -0.41784
 C580 C 0.49098 0.70540 -0.41083
 N581 N 0.49207 0.64761 -0.28349
 N582 N 0.50805 0.64056 -0.29414
 C583 C 0.50709 0.62008 -0.25299
 C584 C 0.52449 0.61243 -0.26945
 C585 C 0.52383 0.59231 -0.23070
 C586 C 0.50571 0.57957 -0.17450
 C587 C 0.48828 0.58737 -0.15811
 C588 C 0.48892 0.60739 -0.19704
 H589 H 0.45627 0.69443 -0.35170
 H590 H 0.45787 0.66169 -0.27638
 H591 H 0.52757 0.67905 -0.38325
 H592 H 0.52632 0.71210 -0.45719
 H593 H 0.53856 0.62207 -0.31253
 H594 H 0.53757 0.58685 -0.24454
 H595 H 0.47412 0.57807 -0.11503
 H596 H 0.47526 0.61295 -0.18325
 C597 C 0.31010 -0.22145 -0.36809
 C598 C 0.32911 -0.20263 -0.32438
 C599 C 0.33394 -0.17789 -0.32889
 C600 C 0.31945 -0.17215 -0.37753
 C601 C 0.30047 -0.19092 -0.42109
 C602 C 0.29580 -0.21568 -0.41735
 N603 N 0.35364 -0.15894 -0.28397
 N604 N 0.35888 -0.13617 -0.28660
 C605 C 0.37858 -0.11686 -0.24277
 C606 C 0.38352 -0.09223 -0.25105
 C607 C 0.40295 -0.07276 -0.21061
 C608 C 0.41781 -0.07765 -0.16077
 C609 C 0.41260 -0.10253 -0.15189
 C610 C 0.39318 -0.12198 -0.19263
 H611 H 0.30672 -0.24045 -0.36416
 H612 H 0.34012 -0.20729 -0.28704
 H613 H 0.32273 -0.15320 -0.38183
 H614 H 0.28936 -0.18614 -0.45769
 H615 H 0.37236 -0.08809 -0.28950
 H616 H 0.40638 -0.05387 -0.21873
 H617 H 0.42371 -0.10696 -0.11415
 H618 H 0.38968 -0.14092 -0.18529
 C619 C 0.46964 -0.21386 0.41035
 C620 C 0.46860 -0.19553 0.36646
 C621 C 0.48932 -0.17879 0.32353
 C622 C 0.51093 -0.18107 0.32300
 C623 C 0.51179 -0.19973 0.36568
 C624 C 0.49134 -0.21591 0.41080
 N625 N 0.48813 -0.15940 0.28226
 N626 N 0.50776 -0.14028 0.25775
 C627 C 0.50674 -0.12073 0.21698
 C628 C 0.52850 -0.09740 0.21084
 C629 C 0.52787 -0.07748 0.17520
 C630 C 0.50549 -0.08077 0.14345
 C631 C 0.48386 -0.10451 0.14713
 C632 C 0.48438 -0.12428 0.18441
 H633 H 0.45359 -0.22640 0.44424
 H634 H 0.45183 -0.19400 0.36709
 H635 H 0.52709 -0.16845 0.28971
 H636 H 0.52861 -0.20118 0.36509
 H637 H 0.54585 -0.09450 0.23543
 H638 H 0.54491 -0.05948 0.17256
 H639 H 0.46643 -0.10764 0.12271
 H640 H 0.46738 -0.14227 0.18786
 C641 C 0.29359 0.48064 0.43053
 C642 C 0.31174 0.47785 0.39145
 C643 C 0.32612 0.49497 0.33525
 C644 C 0.32159 0.51459 0.31661
 C645 C 0.30336 0.51737 0.35562
 C646 C 0.28968 0.50076 0.41407
 N647 N 0.34566 0.49246 0.29998
 N648 N 0.36023 0.50796 0.25090
 C649 C 0.38012 0.50565 0.21723
 C650 C 0.39509 0.52303 0.16244
 C651 C 0.41480 0.52145 0.12896
 C652 C 0.41993 0.50240 0.15001
 C653 C 0.40490 0.48501 0.20542
 C654 C 0.38515 0.48660 0.23869
 H655 H 0.28300 0.46749 0.47493
 H656 H 0.31499 0.46262 0.40605
 H657 H 0.33241 0.52800 0.27307
 H658 H 0.30053 0.53295 0.34210
 H659 H 0.39145 0.53784 0.14566
 H660 H 0.42601 0.53520 0.08661
 H661 H 0.40829 0.47010 0.22287
 H662 H 0.37387 0.47297 0.28119
 C663 C 1.19296 0.71803 0.38386
 C664 C 1.17222 0.70041 0.34268
 C665 C 1.16821 0.67613 0.33197
 C666 C 1.18494 0.66946 0.36422
 C667 C 1.20539 0.68690 0.40650
 C668 C 1.20956 0.71130 0.41639
 N669 N 1.14704 0.65854 0.28869
 N670 N 1.14553 0.63846 0.26339
 C671 C 1.12428 0.62018 0.22199
 C672 C 1.12600 0.60106 0.18465
 C673 C 1.10543 0.58238 0.14573
 C674 C 1.08254 0.58228 0.14471
 C675 C 1.08085 0.60156 0.18209
 C676 C 1.10163 0.62050 0.22001
 H677 H 1.19596 0.73681 0.39110
 H678 H 1.15943 0.70576 0.31829
 H679 H 1.18211 0.65074 0.35719
 H680 H 1.21810 0.68147 0.43108
 H681 H 1.14333 0.60057 0.18606
 H682 H 1.10727 0.56766 0.11809
 H683 H 1.06347 0.60196 0.18217
 H684 H 1.09986 0.63507 0.24891
 C685 C 0.52959 0.22155 0.35756
 C686 C 0.52877 0.20234 0.31327
 C687 C 0.50899 0.17775 0.32086
 C688 C 0.48951 0.17263 0.37188
 C689 C 0.49023 0.19185 0.41590
 C690 C 0.51058 0.21636 0.41036
 N691 N 0.50949 0.15829 0.27777
 N692 N 0.49292 0.13536 0.28556
 C693 C 0.49364 0.11581 0.24369
 C694 C 0.47515 0.09098 0.25684
 C695 C 0.47555 0.07137 0.21817
 C696 C 0.49454 0.07632 0.16534
 C697 C 0.51306 0.10135 0.15200
 C698 C 0.51264 0.12092 0.19087
 H699 H 0.54539 0.24034 0.35222
 H700 H 0.54384 0.20651 0.27400
 H701 H 0.47392 0.15379 0.37834
 H702 H 0.47519 0.18754 0.45543
 H703 H 0.46044 0.08682 0.29750
 H704 H 0.46097 0.05235 0.22976
 H705 H 0.52795 0.10585 0.11173
 H706 H 0.52718 0.13999 0.17980
 C707 C 0.71037 0.52540 0.43524
 C708 C 0.69294 0.52949 0.39629
 C709 C 0.67945 0.51407 0.33544
 C710 C 0.68441 0.49513 0.31174
 C711 C 0.70188 0.49110 0.35038
 C712 C 0.71444 0.50571 0.41380
 N713 N 0.66005 0.51712 0.30096
 N714 N 0.64560 0.50178 0.25116
 C715 C 0.62548 0.50354 0.21678
 C716 C 0.60996 0.48481 0.16600
 C717 C 0.58958 0.48514 0.13295
 C718 C 0.58435 0.50446 0.14966
 C719 C 0.60013 0.52346 0.20040
 C720 C 0.62053 0.52298 0.23392
 H721 H 0.72009 0.53703 0.48359
 H722 H 0.68940 0.54421 0.41494
 H723 H 0.67438 0.48305 0.26453
 H724 H 0.70483 0.47589 0.33285
 H725 H 0.61353 0.46969 0.15259
 H726 H 0.57785 0.47012 0.09447
 H727 H 0.59665 0.53858 0.21452
 H728 H 0.63230 0.53767 0.27325
 C729 C 0.77785 0.31188 0.36897
 C730 C 0.79720 0.33068 0.32647
 C731 C 0.82177 0.33536 0.33415
 C732 C 0.82675 0.32064 0.38436
 C733 C 0.80736 0.30170 0.42663
 C734 C 0.78279 0.29742 0.42015
 N735 N 0.84119 0.35514 0.29065
 N736 N 0.86413 0.36132 0.29770
 C737 C 0.88359 0.38113 0.25436
 C738 C 0.90842 0.38743 0.26769
 C739 C 0.92792 0.40666 0.22676
 C740 C 0.92292 0.41996 0.17119
 C741 C 0.89789 0.41353 0.15775
 C742 C 0.87840 0.39433 0.19906
 H743 H 0.75903 0.30882 0.36280
 H744 H 0.79309 0.34181 0.28784
 H745 H 0.84557 0.32377 0.39094
 H746 H 0.81152 0.29051 0.46489
 H747 H 0.91268 0.37742 0.31011
 H748 H 0.94692 0.41102 0.23864
 H749 H 0.89333 0.42331 0.11533
 H750 H 0.85932 0.38978 0.18762
   
