data_POSCAR
  _audit_creation_date              2014-09-24
  _audit_creation_method            'ToBaCCo'
  _symmetry_space_group_name_H-M    'P1'
  _symmetry_Int_Tables_number       1
  _symmetry_cell_setting            triclinic
  loop_
  _symmetry_equiv_pos_as_xyz
 x,y,z
_cell_length_a 35.5035
_cell_length_b 36.2307
_cell_length_c 35.1131
_cell_angle_alpha 90.584800
_cell_angle_beta 90.149500
_cell_angle_gamma 90.014700
loop_
  _atom_site_label
  _atom_site_type_symbol
  _atom_site_fract_x
  _atom_site_fract_y
  _atom_site_fract_z
C1 C 1.19243 0.26404 0.29843
 H2 H 1.18600 0.23509 0.29573
 C3 C 1.16983 0.28636 0.32153
 H4 H 1.14581 0.27420 0.33562
 C5 C 1.23113 0.31503 0.28345
 H6 H 1.25558 0.32604 0.26930
 C7 C 1.20920 0.33838 0.30626
 H8 H 1.21724 0.36699 0.30911
 N9 N 1.22230 0.27860 0.27962
 C10 C 1.22355 0.22047 0.17810
 H11 H 1.24054 0.24152 0.16507
 C12 C 1.20176 0.19722 0.15495
 H13 H 1.20261 0.20133 0.12463
 C14 C 1.20373 0.18892 0.23312
 H15 H 1.20555 0.18491 0.26351
 C16 C 1.18125 0.16533 0.21113
 H17 H 1.16463 0.14480 0.22560
 Zn18 Zn 1.25331 0.24757 0.24869
 N19 N 1.22359 0.21650 0.21658
 C20 C 1.30435 0.19075 0.26277
 N21 N 1.28254 0.21673 0.27991
 C22 C 1.28128 0.22021 0.31839
 C23 C 1.30244 0.19678 0.34135
 C24 C 1.32662 0.16724 0.28448
 C25 C 1.26941 0.30287 0.19562
 C26 C 1.29187 0.32555 0.17322
 C27 C 1.34693 0.29597 0.19936
 C28 C 1.32345 0.27408 0.22150
 N29 N 1.28539 0.27751 0.21892
 H30 H 1.30442 0.18834 0.23203
 H31 H 1.26397 0.24136 0.33140
 H32 H 1.30127 0.20170 0.37171
 H33 H 1.34279 0.14647 0.26942
 H34 H 1.23908 0.30560 0.19467
 H35 H 1.27827 0.34588 0.15578
 H36 H 1.37712 0.29215 0.20129
 H37 H 1.33581 0.25442 0.24072
 C38 C 1.17984 0.16919 0.17129
 C39 C 1.17801 0.32412 0.32569
 C40 C 1.33125 0.32212 0.17469
 C41 C 1.32585 0.16937 0.32475
 C42 C 0.69671 -0.23614 0.30890
 H43 H 0.69060 -0.26533 0.30662
 C44 C 0.67427 -0.21340 0.33189
 H45 H 0.65110 -0.22523 0.34757
 C46 C 0.73454 -0.18517 0.29146
 H47 H 0.75829 -0.17425 0.27611
 C48 C 0.71326 -0.16161 0.31455
 H49 H 0.72038 -0.13257 0.31626
 N50 N 0.72526 -0.22150 0.28809
 C51 C 0.73279 -0.30130 0.19429
 H52 H 0.76277 -0.30665 0.19419
 C53 C 0.70928 -0.31987 0.16854
 H54 H 0.72141 -0.34001 0.14918
 C55 C 0.68076 -0.26879 0.22009
 H56 H 0.66975 -0.24812 0.23938
 C57 C 0.65624 -0.28674 0.19490
 H58 H 0.62654 -0.27998 0.19557
 Zn59 Zn 0.75203 -0.25281 0.25388
 N60 N 0.71818 -0.27687 0.21992
 C61 C 0.77239 -0.32444 0.28088
 N62 N 0.77909 -0.28751 0.28359
 C63 C 0.80441 -0.27371 0.30913
 C64 C 0.82434 -0.29730 0.33310
 C65 C 0.79185 -0.34906 0.30422
 C66 C 0.77012 -0.19603 0.20369
 C67 C 0.79312 -0.17325 0.18188
 C68 C 0.84634 -0.21141 0.19859
 C69 C 0.82249 -0.23288 0.22098
 N70 N 0.78522 -0.22451 0.22357
 H71 H 0.75151 -0.33490 0.26113
 H72 H 0.80899 -0.24422 0.31094
 H73 H 0.84465 -0.28564 0.35287
 H74 H 0.78583 -0.37830 0.30194
 H75 H 0.74023 -0.19052 0.20553
 H76 H 0.78089 -0.15013 0.16696
 H77 H 0.87604 -0.21807 0.19702
 H78 H 0.83375 -0.25622 0.23618
 C79 C 0.67036 -0.31285 0.16882
 C80 C 0.68220 -0.17557 0.33429
 C81 C 0.83173 -0.18081 0.17934
 C82 C 0.81805 -0.33557 0.33101
 C83 C 0.69561 0.26468 -0.19335
 H84 H 0.68940 0.23571 -0.19774
 C85 C 0.67274 0.28604 -0.16944
 H86 H 0.64910 0.27339 -0.15523
 C87 C 0.73425 0.31639 -0.20619
 H88 H 0.75858 0.32805 -0.22000
 C89 C 0.71255 0.33856 -0.18208
 H90 H 0.71986 0.36738 -0.17810
 N91 N 0.72474 0.28045 -0.21240
 C92 C 0.73355 0.20223 -0.30723
 H93 H 0.76356 0.19704 -0.30697
 C94 C 0.71022 0.18224 -0.33194
 H95 H 0.72249 0.16114 -0.34999
 C96 C 0.68116 0.23509 -0.28267
 H97 H 0.66995 0.25630 -0.26412
 C98 C 0.65682 0.21582 -0.30699
 H99 H 0.62701 0.22214 -0.30650
 Zn100 Zn 0.75203 0.25087 -0.24778
 N101 N 0.71862 0.22718 -0.28234
 C102 C 0.77172 0.17889 -0.22158
 N103 N 0.77944 0.21565 -0.21915
 C104 C 0.80566 0.22887 -0.19423
 C105 C 0.82534 0.20486 -0.17050
 C106 C 0.79093 0.15386 -0.19854
 C107 C 0.77027 0.31111 -0.29355
 C108 C 0.79314 0.33457 -0.31468
 C109 C 0.84473 0.29212 -0.30561
 C110 C 0.82114 0.27032 -0.28327
 N111 N 0.78481 0.28042 -0.27721
 H112 H 0.75002 0.16890 -0.24065
 H113 H 0.81100 0.25825 -0.19258
 H114 H 0.84624 0.21602 -0.15106
 H115 H 0.78402 0.12479 -0.20049
 H116 H 0.74080 0.31769 -0.28966
 H117 H 0.77995 0.35844 -0.32722
 H118 H 0.87371 0.28345 -0.30879
 H119 H 0.83187 0.24521 -0.27090
 C120 C 0.67121 0.18853 -0.33158
 C121 C 0.68088 0.32358 -0.16421
 C122 C 0.83140 0.32565 -0.32110
 C123 C 0.81788 0.16678 -0.17225
 C124 C 1.19678 -0.23475 -0.19814
 H125 H 1.19174 -0.26403 -0.19956
 C126 C 1.17343 -0.21263 -0.17560
 H127 H 1.15020 -0.22538 -0.16075
 C128 C 1.23269 -0.18269 -0.21580
 H129 H 1.25633 -0.17108 -0.23081
 C130 C 1.20999 -0.15952 -0.19356
 H131 H 1.21666 -0.13050 -0.19206
 N132 N 1.22552 -0.21957 -0.21818
 C133 C 1.22694 -0.27808 -0.31965
 H134 H 1.24406 -0.25719 -0.33276
 C135 C 1.20516 -0.30135 -0.34278
 H136 H 1.20615 -0.29738 -0.37311
 C137 C 1.20686 -0.30932 -0.26455
 H138 H 1.20859 -0.31326 -0.23416
 C139 C 1.18438 -0.33295 -0.28653
 H140 H 1.16767 -0.35341 -0.27206
 Zn141 Zn 1.25664 -0.25043 -0.24932
 N142 N 1.22684 -0.28185 -0.28114
 C143 C 1.30673 -0.30814 -0.23570
 N144 N 1.28665 -0.28085 -0.21836
 C145 C 1.28747 -0.27599 -0.17992
 C146 C 1.30895 -0.29947 -0.15725
 C147 C 1.32878 -0.33203 -0.21418
 C148 C 1.27133 -0.19532 -0.30284
 C149 C 1.29313 -0.17259 -0.32576
 C150 C 1.34901 -0.20163 -0.30075
 C151 C 1.32611 -0.22368 -0.27809
 N152 N 1.28799 -0.22042 -0.27976
 H153 H 1.30538 -0.31141 -0.26634
 H154 H 1.27140 -0.25396 -0.16681
 H155 H 1.30936 -0.29515 -0.12669
 H156 H 1.34415 -0.35394 -0.22846
 H157 H 1.24096 -0.19283 -0.30320
 H158 H 1.27907 -0.15226 -0.34313
 H159 H 1.37908 -0.20537 -0.29910
 H160 H 1.33894 -0.24337 -0.25917
 C161 C 1.18310 -0.32923 -0.32640
 C162 C 1.17973 -0.17439 -0.17312
 C163 C 1.33262 -0.17569 -0.32525
 C164 C 1.32977 -0.32810 -0.17436
 C165 C 0.26261 0.19314 0.70059
 H166 H 0.23255 0.18943 0.70143
 C167 C 0.28404 0.17049 0.67667
 H168 H 0.27011 0.14905 0.66016
 C169 C 0.31720 0.22557 0.72043
 H170 H 0.33007 0.24774 0.73658
 C171 C 0.33974 0.20339 0.69706
 H172 H 0.36975 0.20855 0.69598
 N173 N 0.27942 0.21948 0.72273
 C174 C 0.22413 0.21585 0.82557
 H175 H 0.24532 0.23294 0.83899
 C176 C 0.20294 0.19189 0.84798
 H177 H 0.20924 0.19069 0.87810
 C178 C 0.19088 0.19695 0.77038
 H179 H 0.18491 0.20025 0.74046
 C180 C 0.16959 0.17200 0.79150
 H181 H 0.14773 0.15666 0.77683
 Zn182 Zn 0.24932 0.24867 0.75668
 N183 N 0.21851 0.21736 0.78727
 C184 C 0.18951 0.29894 0.74475
 N185 N 0.21785 0.27992 0.72748
 C186 C 0.22376 0.28240 0.68933
 C187 C 0.20032 0.30419 0.66686
 C188 C 0.16555 0.32136 0.72335
 C189 C 0.30926 0.25949 0.80845
 C190 C 0.33377 0.27916 0.83228
 C191 C 0.30003 0.33500 0.81701
 C192 C 0.27679 0.31443 0.79258
 N193 N 0.28155 0.27727 0.78897
 H194 H 0.18536 0.29644 0.77512
 H195 H 0.24669 0.26744 0.67618
 H196 H 0.20561 0.30580 0.63657
 H197 H 0.14279 0.33590 0.73746
 H198 H 0.31235 0.22991 0.80531
 H199 H 0.35571 0.26471 0.84757
 H200 H 0.29570 0.36447 0.82011
 H201 H 0.25479 0.32815 0.77685
 C202 C 0.17565 0.16859 0.83105
 C203 C 0.32327 0.17494 0.67529
 C204 C 0.32894 0.31727 0.83698
 C205 C 0.17053 0.32381 0.68375
 C206 C 0.76685 0.70746 0.68194
 H207 H 0.74175 0.71876 0.66907
 C208 C 0.79121 0.68578 0.66003
 H209 H 0.78471 0.68068 0.63030
 C210 C 0.80544 0.69969 0.73648
 H211 H 0.81080 0.70550 0.76628
 C212 C 0.83028 0.67746 0.71575
 H213 H 0.85501 0.66642 0.72972
 N214 N 0.77464 0.71442 0.71928
 C215 C 0.68570 0.73144 0.80331
 H216 H 0.68215 0.76110 0.80357
 C217 C 0.66309 0.70969 0.82656
 H218 H 0.64228 0.72312 0.84442
 C219 C 0.71829 0.67861 0.78085
 H220 H 0.73936 0.66640 0.76254
 C221 C 0.69768 0.65604 0.80504
 H222 H 0.70309 0.62665 0.80423
 Zn223 Zn 0.74280 0.74530 0.74861
 N224 N 0.71231 0.71565 0.78059
 C225 C 0.67469 0.77683 0.72012
 N226 N 0.71261 0.77434 0.71546
 C227 C 0.73019 0.79333 0.68741
 C228 C 0.70991 0.81708 0.66400
 C229 C 0.65357 0.80126 0.69835
 C230 C 0.77093 0.77657 0.81768
 C231 C 0.79442 0.79885 0.84012
 C232 C 0.82329 0.82154 0.78278
 C233 C 0.79933 0.79877 0.76145
 N234 N 0.77365 0.77693 0.77902
 H235 H 0.66055 0.76056 0.74117
 H236 H 0.76003 0.78981 0.68285
 H237 H 0.72491 0.83105 0.64164
 H238 H 0.62389 0.80401 0.70449
 H239 H 0.75095 0.75864 0.83136
 H240 H 0.79156 0.79821 0.87079
 H241 H 0.84397 0.83816 0.76817
 H242 H 0.80195 0.79794 0.73086
 C243 C 0.66944 0.67139 0.82844
 C244 C 0.82357 0.67074 0.67687
 C245 C 0.82126 0.82157 0.82271
 C246 C 0.67113 0.82246 0.67012
 C247 C 0.77118 0.21611 0.17882
 H248 H 0.75352 0.23741 0.16704
 C249 C 0.78990 0.19181 0.15426
 H250 H 0.78631 0.19484 0.12382
 C251 C 0.79611 0.18547 0.23252
 H252 H 0.79789 0.18279 0.26312
 C253 C 0.81548 0.16065 0.20898
 H254 H 0.83291 0.13971 0.22192
 N255 N 0.77483 0.21283 0.21721
 C256 C 0.70031 0.23723 0.31271
 H257 H 0.70653 0.26598 0.31807
 C258 C 0.67536 0.21879 0.33653
 H259 H 0.66269 0.23333 0.36037
 C260 C 0.70856 0.18320 0.27499
 H261 H 0.72119 0.16957 0.25068
 C262 C 0.68368 0.16375 0.29806
 H263 H 0.67830 0.13488 0.29207
 Zn264 Zn 0.74846 0.24602 0.24999
 N265 N 0.71641 0.21928 0.28268
 C266 C 0.68051 0.27556 0.22149
 N267 N 0.71870 0.27822 0.22072
 C268 C 0.73633 0.30463 0.20013
 C269 C 0.71532 0.33000 0.17937
 C270 C 0.65839 0.30046 0.20125
 C271 C 0.81854 0.26514 0.28562
 C272 C 0.84237 0.28723 0.30787
 C273 C 0.79151 0.33073 0.31634
 C274 C 0.76854 0.30768 0.29420
 N275 N 0.78217 0.27543 0.27954
 H276 H 0.66712 0.25417 0.23788
 H277 H 0.76676 0.30617 0.20024
 H278 H 0.72983 0.35121 0.16361
 H279 H 0.62803 0.29777 0.20202
 H280 H 0.82925 0.23986 0.27337
 H281 H 0.87121 0.27866 0.31264
 H282 H 0.77991 0.35584 0.32833
 H283 H 0.73970 0.31561 0.28863
 C284 C 0.66660 0.18176 0.32898
 C285 C 0.81257 0.16364 0.16919
 C286 C 0.82888 0.32047 0.32340
 C287 C 0.67578 0.32832 0.18007
 C288 C 0.26215 0.69179 0.20350
 H289 H 0.23285 0.68513 0.20757
 C290 C 0.28419 0.66913 0.18020
 H291 H 0.27162 0.64491 0.16706
 C292 C 0.31415 0.73116 0.21557
 H293 H 0.32557 0.75592 0.22849
 C294 C 0.33735 0.70900 0.19284
 H295 H 0.36654 0.71672 0.18896
 N296 N 0.27752 0.72167 0.22144
 C297 C 0.22852 0.71474 0.32423
 H298 H 0.25156 0.73063 0.33601
 C299 C 0.20926 0.69006 0.34748
 H300 H 0.21793 0.68710 0.37688
 C301 C 0.18928 0.69909 0.27188
 H302 H 0.18104 0.70337 0.24260
 C303 C 0.16947 0.67385 0.29403
 H304 H 0.14615 0.65877 0.28144
 Zn305 Zn 0.24675 0.75032 0.25488
 N306 N 0.21878 0.71834 0.28693
 C307 C 0.18377 0.79666 0.24231
 N308 N 0.21305 0.77885 0.22529
 C309 C 0.21892 0.78123 0.18713
 C310 C 0.19488 0.80221 0.16448
 C311 C 0.15921 0.81827 0.22075
 C312 C 0.30911 0.76750 0.30193
 C313 C 0.33386 0.79017 0.32246
 C314 C 0.29202 0.84144 0.31125
 C315 C 0.26895 0.81803 0.28971
 N316 N 0.27783 0.78180 0.28527
 H317 H 0.17962 0.79417 0.27269
 H318 H 0.24251 0.76709 0.17418
 H319 H 0.20034 0.80404 0.13424
 H320 H 0.13596 0.83217 0.23471
 H321 H 0.31522 0.73839 0.29871
 H322 H 0.35806 0.77720 0.33541
 H323 H 0.28418 0.87026 0.31299
 H324 H 0.24408 0.82908 0.27627
 C325 C 0.17967 0.66876 0.33229
 C326 C 0.32253 0.67718 0.17532
 C327 C 0.32585 0.82814 0.32753
 C328 C 0.16452 0.82107 0.18123
 N329 N 0.95704 0.03590 -0.06834
 N330 N 0.93083 0.04287 -0.09409
 N331 N 1.03665 0.06183 -0.04182
 N332 N 1.06239 0.08709 -0.04910
 N333 N 1.03620 0.03634 -0.06868
 N334 N 1.06141 0.04379 -0.09510
 N335 N 0.95740 0.06172 -0.04184
 N336 N 0.93148 0.08686 -0.04876
 C337 C 0.91491 0.07466 -0.08129
 C338 C 1.07780 0.07536 -0.08234
 N339 N 1.03674 0.03715 0.06678
 N340 N 1.06123 0.04566 0.09384
 N341 N 0.95751 0.06232 0.04013
 N342 N 0.93076 0.08685 0.04665
 N343 N 0.95750 0.03691 0.06651
 N344 N 0.93072 0.04346 0.09170
 N345 N 1.03653 0.06258 0.04038
 N346 N 1.06069 0.08909 0.04892
 Mn347 Mn 0.99706 0.06243 -0.00079
 C348 C 1.07633 0.07790 0.08203
 C349 C 0.91415 0.07462 0.07883
 N350 N 1.03663 -0.04353 -0.06866
 N351 N 1.06063 -0.05237 -0.09597
 N352 N 0.95789 -0.06924 -0.04179
 N353 N 0.93483 -0.09655 -0.05079
 N354 N 0.95759 -0.04404 -0.06845
 N355 N 0.93437 -0.05371 -0.09626
 N356 N 1.03697 -0.06863 -0.04190
 N357 N 1.06122 -0.09504 -0.05029
 Mn358 Mn 0.99683 -0.00382 -0.06888
 C359 C 1.07619 -0.08431 -0.08379
 C360 C 0.91988 -0.08624 -0.08452
 N361 N 0.95770 -0.04272 0.06672
 N362 N 0.93545 -0.05206 0.09512
 N363 N 1.03725 -0.06821 0.04033
 N364 N 1.05907 -0.09597 0.05032
 N365 N 1.03681 -0.04270 0.06722
 N366 N 1.05825 -0.05270 0.09616
 N367 N 0.95835 -0.06896 0.04060
 N368 N 0.93695 -0.09694 0.05094
 Mn369 Mn 0.99719 -0.00276 0.06708
 Mn370 Mn 0.99763 -0.06893 -0.00076
 Cl371 Cl 0.99720 -0.00331 -0.00083
 C372 C 0.92217 -0.08566 0.08458
 C373 C 1.07257 -0.08567 0.08488
 N374 N 0.96064 0.53624 0.43409
 N375 N 0.93408 0.54276 0.40858
 N376 N 1.04021 0.56221 0.46043
 N377 N 1.06628 0.58717 0.45338
 N378 N 1.03987 0.53657 0.43376
 N379 N 1.06561 0.54353 0.40770
 N380 N 0.96097 0.56220 0.46043
 N381 N 0.93467 0.58702 0.45363
 C382 C 0.91794 0.57446 0.42131
 C383 C 1.08207 0.57507 0.42050
 N384 N 1.04069 0.53814 0.56901
 N385 N 1.06510 0.54683 0.59607
 N386 N 0.96135 0.56340 0.54235
 N387 N 0.93791 0.59041 0.55108
 N388 N 0.96160 0.53842 0.56919
 N389 N 0.93849 0.54801 0.59699
 N390 N 1.04036 0.56349 0.54253
 N391 N 1.06440 0.59013 0.55100
 Mn392 Mn 1.00075 0.56310 0.50140
 C393 C 1.08008 0.57908 0.58417
 C394 C 0.92340 0.58018 0.58496
 N395 N 1.04012 0.45681 0.43415
 N396 N 1.06352 0.44762 0.40647
 N397 N 0.96152 0.43113 0.46108
 N398 N 0.93918 0.40339 0.45156
 N399 N 0.96111 0.45642 0.43449
 N400 N 0.93838 0.44649 0.40639
 N401 N 1.04051 0.43171 0.46092
 N402 N 1.06417 0.40490 0.45208
 Mn403 Mn 1.00041 0.49653 0.43379
 C404 C 1.07877 0.41546 0.41835
 C405 C 0.92440 0.41365 0.41772
 N406 N 0.96131 0.45869 0.56941
 N407 N 0.93803 0.45034 0.59728
 N408 N 1.04091 0.43265 0.54323
 N409 N 1.06305 0.40512 0.55322
 N410 N 1.04053 0.45834 0.56992
 N411 N 1.06235 0.44875 0.59871
 N412 N 0.96206 0.43206 0.54371
 N413 N 0.93987 0.40463 0.55393
 Mn414 Mn 1.00102 0.49842 0.56963
 Mn415 Mn 1.00126 0.43170 0.50220
 Cl416 Cl 1.00085 0.49739 0.50177
 C417 C 0.92441 0.41684 0.58691
 C418 C 1.07681 0.41579 0.58757
 N419 N 0.56640 0.04453 0.54033
 N420 N 0.59122 0.07083 0.54736
 N421 N 0.54275 -0.03375 0.56754
 N422 N 0.55075 -0.05801 0.59410
 N423 N 0.56965 -0.03265 0.54199
 N424 N 0.59698 -0.05573 0.55078
 N425 N 0.54052 0.04388 0.56693
 N426 N 0.54704 0.06980 0.59281
 C427 C 0.57855 0.08663 0.57997
 C428 C 0.58445 -0.07172 0.58302
 N429 N 0.43565 -0.03723 0.54072
 N430 N 0.40925 -0.06133 0.54933
 N431 N 0.45967 0.04138 0.56658
 N432 N 0.45030 0.06469 0.59404
 N433 N 0.43344 0.04020 0.54016
 N434 N 0.40541 0.06261 0.54918
 N435 N 0.46162 -0.03599 0.56740
 N436 N 0.45344 -0.05916 0.59495
 Mn437 Mn 0.50118 0.00382 0.56744
 C438 C 0.42099 -0.07518 0.58296
 C439 C 0.41667 0.07818 0.58256
 N440 N 0.57006 -0.03500 0.46003
 N441 N 0.59816 -0.05765 0.45232
 N442 N 0.54083 0.04038 0.43173
 N443 N 0.54619 0.06638 0.40625
 N444 N 0.56666 0.04228 0.45849
 N445 N 0.59030 0.06955 0.45199
 N446 N 0.54402 -0.03719 0.43347
 N447 N 0.55376 -0.06156 0.40703
 Mn448 Mn 0.56852 0.00484 0.50019
 C449 C 0.58739 -0.07446 0.41950
 C450 C 0.57708 0.08445 0.41940
 N451 N 0.43410 0.03824 0.45795
 N452 N 0.40664 0.06114 0.44922
 N453 N 0.46259 -0.04000 0.43302
 N454 N 0.45439 -0.06411 0.40577
 N455 N 0.43568 -0.03900 0.45864
 N456 N 0.40829 -0.06195 0.44912
 N457 N 0.45966 0.03745 0.43097
 N458 N 0.45003 0.05970 0.40303
 Mn459 Mn 0.43445 0.00060 0.49936
 Mn460 Mn 0.50181 0.00008 0.43191
 Cl461 Cl 0.50145 0.00229 0.49970
 C462 C 0.41720 0.07473 0.41516
 C463 C 0.42078 -0.07804 0.41662
 N464 N 0.56757 0.54097 0.04430
 N465 N 0.59252 0.56753 0.04960
 N466 N 0.54178 0.46489 0.07413
 N467 N 0.55074 0.44287 0.10249
 N468 N 0.56775 0.46363 0.04761
 N469 N 0.59500 0.44082 0.05720
 N470 N 0.54151 0.54233 0.07071
 N471 N 0.54796 0.56992 0.09468
 C472 C 0.57982 0.58550 0.08102
 C473 C 0.58375 0.42762 0.09121
 N474 N 0.43473 0.46325 0.04696
 N475 N 0.41020 0.43686 0.05385
 N476 N 0.46043 0.54212 0.07069
 N477 N 0.45140 0.56632 0.09747
 N478 N 0.43416 0.54065 0.04432
 N479 N 0.40651 0.56367 0.05266
 N480 N 0.46056 0.46473 0.07374
 N481 N 0.45413 0.43951 0.09979
 Mn482 Mn 0.50107 0.50353 0.07269
 C483 C 0.42270 0.42222 0.08684
 C484 C 0.41798 0.58000 0.08554
 N485 N 0.56786 0.45955 -0.03426
 N486 N 0.59564 0.43660 -0.04217
 N487 N 0.54152 0.53593 -0.06393
 N488 N 0.54927 0.56011 -0.09076
 N489 N 0.56771 0.53655 -0.03745
 N490 N 0.59418 0.56059 -0.04571
 N491 N 0.54200 0.45820 -0.06107
 N492 N 0.55159 0.43412 -0.08784
 Mn493 Mn 0.56797 0.50015 0.00506
 C494 C 0.58486 0.42044 -0.07530
 C495 C 0.58203 0.57547 -0.07859
 N496 N 0.43431 0.53685 -0.03775
 N497 N 0.40738 0.56018 -0.04701
 N498 N 0.46045 0.45784 -0.06117
 N499 N 0.45279 0.43115 -0.08597
 N500 N 0.43430 0.45962 -0.03484
 N501 N 0.40810 0.43449 -0.04112
 N502 N 0.46016 0.53543 -0.06441
 N503 N 0.45141 0.55779 -0.09254
 Mn504 Mn 0.43408 0.50012 0.00468
 Mn505 Mn 0.50103 0.49682 -0.06308
 Cl506 Cl 0.50102 0.50014 0.00479
 C507 C 0.41868 0.57345 -0.08099
 C508 C 0.42010 0.41668 -0.07286
 C509 C 1.13594 0.15859 0.11522
 C510 C 1.15440 0.14515 0.14774
 C511 C 1.14421 0.10933 0.15986
 C512 C 1.11846 0.08754 0.13893
 C513 C 1.10240 0.10069 0.10502
 C514 C 1.11048 0.13696 0.09470
 C515 C 1.12287 0.15143 0.05727
 C516 C 1.15124 0.17463 0.07921
 H517 H 1.15695 0.09739 0.18488
 H518 H 1.11210 0.05998 0.14870
 H519 H 1.10059 0.16809 0.04329
 H520 H 1.13605 0.12986 0.03890
 H521 H 1.14573 0.20475 0.07721
 H522 H 1.18078 0.16612 0.07337
 C523 C 1.13924 0.66006 0.61749
 C524 C 1.15773 0.64669 0.65004
 C525 C 1.14764 0.61084 0.66215
 C526 C 1.12204 0.58894 0.64114
 C527 C 1.10600 0.60203 0.60718
 C528 C 1.11391 0.63835 0.59692
 C529 C 1.12615 0.65302 0.55952
 C530 C 1.15443 0.67629 0.58152
 H531 H 1.16037 0.59896 0.68720
 H532 H 1.11579 0.56136 0.65089
 H533 H 1.10375 0.66963 0.54566
 H534 H 1.13940 0.63161 0.54101
 H535 H 1.14877 0.70639 0.57963
 H536 H 1.18400 0.66793 0.57561
 C537 C 0.65445 0.15401 0.60796
 C538 C 0.64546 0.16561 0.64483
 C539 C 0.61069 0.15248 0.65931
 C540 C 0.58788 0.12771 0.63777
 C541 C 0.59909 0.11558 0.60108
 C542 C 0.63228 0.13069 0.58721
 C543 C 0.65918 0.12835 0.55486
 C544 C 0.68429 0.15495 0.57812
 H545 H 0.60184 0.15999 0.68783
 H546 H 0.56228 0.11720 0.65038
 H547 H 0.64755 0.14065 0.52845
 H548 H 0.67144 0.10028 0.55149
 H549 H 0.68713 0.18270 0.56523
 H550 H 0.71108 0.14196 0.58737
 C551 C 0.60805 0.65729 0.15421
 C552 C 0.64444 0.66703 0.14265
 C553 C 0.65569 0.65560 0.10582
 C554 C 0.63339 0.63077 0.08434
 C555 C 0.59946 0.61687 0.09930
 C556 C 0.58618 0.63274 0.13317
 C557 C 0.57073 0.61519 0.16810
 C558 C 0.59467 0.64213 0.19117
 H559 H 0.68258 0.66415 0.09443
 H560 H 0.64400 0.62063 0.05732
 H561 H 0.57974 0.58597 0.17114
 H562 H 0.53999 0.62009 0.17126
 H563 H 0.61754 0.62856 0.20758
 H564 H 0.57767 0.66254 0.20756
 C565 C 0.88181 -0.17097 0.13041
 C566 C 0.85684 -0.15647 0.15741
 C567 C 0.85691 -0.11791 0.16339
 C568 C 0.87884 -0.09472 0.14023
 C569 C 0.90025 -0.10961 0.11001
 C570 C 0.90265 -0.14809 0.10700
 C571 C 0.89757 -0.17305 0.07331
 C572 C 0.87482 -0.19817 0.09899
 H573 H 0.83929 -0.10567 0.18525
 H574 H 0.87764 -0.06515 0.14486
 H575 H 0.92461 -0.18553 0.06386
 H576 H 0.88050 -0.16026 0.05036
 H577 H 0.88881 -0.22507 0.10435
 H578 H 0.84456 -0.20003 0.09090
 C579 C 0.88865 0.33557 0.64284
 C580 C 0.85472 0.34847 0.65901
 C581 C 0.84706 0.38677 0.65431
 C582 C 0.87035 0.40928 0.63183
 C583 C 0.90101 0.39410 0.61198
 C584 C 0.91063 0.35758 0.61953
 C585 C 0.91976 0.32667 0.59288
 C586 C 0.89575 0.30235 0.61808
 H587 H 0.82362 0.40009 0.66842
 H588 H 0.86337 0.43819 0.62866
 H589 H 0.95017 0.31942 0.59360
 H590 H 0.90764 0.33058 0.56397
 H591 H 0.91246 0.28089 0.63294
 H592 H 0.86976 0.29206 0.60376
 C593 C 0.38936 -0.13479 0.66459
 C594 C 0.35591 -0.15089 0.65081
 C595 C 0.34262 -0.13897 0.61499
 C596 C 0.36351 -0.11406 0.59302
 C597 C 0.39831 -0.10036 0.60621
 C598 C 0.40974 -0.10988 0.64291
 C599 C 0.44677 -0.12428 0.65597
 C600 C 0.42489 -0.15202 0.67919
 H601 H 0.31661 -0.14976 0.60322
 H602 H 0.35285 -0.10637 0.56529
 H603 H 0.46236 -0.10379 0.67374
 H604 H 0.46324 -0.13710 0.63243
 H605 H 0.42841 -0.14796 0.71042
 H606 H 0.42910 -0.18079 0.66871
 C607 C 0.34935 0.35153 0.11229
 C608 C 0.35632 0.34537 0.15108
 C609 C 0.39038 0.35959 0.16622
 C610 C 0.41349 0.38298 0.14457
 C611 C 0.40320 0.39251 0.10717
 C612 C 0.37244 0.37406 0.09091
 C613 C 0.34080 0.38742 0.06676
 C614 C 0.31512 0.36327 0.09050
 H615 H 0.39809 0.35452 0.19556
 H616 H 0.43797 0.39538 0.15797
 H617 H 0.34335 0.37779 0.03672
 H618 H 0.33526 0.41744 0.07058
 H619 H 0.30232 0.34013 0.07395
 H620 H 0.29509 0.38022 0.10746
 C621 C 0.84722 0.10501 -0.15825
 C622 C 0.83742 0.14078 -0.14632
 C623 C 0.84722 0.15113 -0.10869
 C624 C 0.87063 0.12846 -0.08644
 C625 C 0.88483 0.09494 -0.10132
 C626 C 0.87045 0.08274 -0.13640
 C627 C 0.89009 0.06754 -0.17066
 C628 C 0.86463 0.09192 -0.19459
 H629 H 0.83835 0.17750 -0.09704
 H630 H 0.87946 0.13833 -0.05860
 H631 H 0.88453 0.03758 -0.17486
 H632 H 0.92028 0.07567 -0.17182
 H633 H 0.84443 0.07595 -0.21252
 H634 H 0.88002 0.11417 -0.20961
 C635 C 0.84889 0.60329 0.34489
 C636 C 0.83825 0.63881 0.35689
 C637 C 0.84811 0.64936 0.39447
 C638 C 0.87233 0.62727 0.41651
 C639 C 0.88725 0.59412 0.40151
 C640 C 0.87286 0.58158 0.36656
 C641 C 0.89257 0.56683 0.33213
 C642 C 0.86632 0.59059 0.30841
 H643 H 0.83866 0.67548 0.40625
 H644 H 0.88113 0.63734 0.44428
 H645 H 0.88770 0.53674 0.32800
 H646 H 0.92254 0.57565 0.33073
 H647 H 0.84638 0.57414 0.29064
 H648 H 0.88104 0.61319 0.29326
 C649 C 0.37621 0.12454 0.33068
 C650 C 0.34634 0.14541 0.34636
 C651 C 0.33822 0.13891 0.38540
 C652 C 0.36088 0.11555 0.40752
 C653 C 0.39285 0.09839 0.39186
 C654 C 0.39887 0.10201 0.35287
 C655 C 0.43389 0.11223 0.33223
 C656 C 0.40945 0.13701 0.30790
 H657 H 0.31402 0.15094 0.39936
 H658 H 0.35388 0.11181 0.43724
 H659 H 0.44596 0.08847 0.31614
 H660 H 0.45423 0.12768 0.35051
 H661 H 0.40795 0.12758 0.27771
 H662 H 0.41563 0.16689 0.31196
 C663 C 0.38500 0.62981 -0.16429
 C664 C 0.35131 0.64533 -0.15099
 C665 C 0.33779 0.63326 -0.11545
 C666 C 0.35953 0.60957 -0.09271
 C667 C 0.39527 0.59745 -0.10496
 C668 C 0.40647 0.60654 -0.14183
 C669 C 0.44259 0.62278 -0.15544
 C670 C 0.41907 0.64824 -0.18011
 H671 H 0.31080 0.64263 -0.10485
 H672 H 0.34877 0.60164 -0.06515
 H673 H 0.45949 0.60261 -0.17226
 H674 H 0.45832 0.63753 -0.13247
 H675 H 0.42240 0.64268 -0.21111
 H676 H 0.42115 0.67780 -0.17150
 C677 C 1.13948 -0.11746 -0.16375
 C678 C 1.15412 -0.15077 -0.14988
 C679 C 1.13957 -0.16356 -0.11500
 C680 C 1.11400 -0.14215 -0.09363
 C681 C 1.10202 -0.10742 -0.10664
 C682 C 1.11378 -0.09663 -0.14282
 C683 C 1.13001 -0.06090 -0.15539
 C684 C 1.15864 -0.08339 -0.17777
 H685 H 1.14885 -0.18966 -0.10352
 H686 H 1.10442 -0.15245 -0.06648
 H687 H 1.14261 -0.04467 -0.13150
 H688 H 1.11022 -0.04535 -0.17383
 H689 H 1.18766 -0.07988 -0.16635
 H690 H 1.15580 -0.08025 -0.20910
 C691 C 1.13968 0.38189 0.33682
 C692 C 1.15346 0.34792 0.34977
 C693 C 1.13900 0.33481 0.38457
 C694 C 1.11454 0.35661 0.40685
 C695 C 1.10354 0.39197 0.39477
 C696 C 1.11501 0.40306 0.35859
 C697 C 1.13206 0.43854 0.34632
 C698 C 1.15959 0.41561 0.32298
 H699 H 1.14755 0.30815 0.39522
 H700 H 1.10500 0.34607 0.43392
 H701 H 1.14558 0.45400 0.37023
 H702 H 1.11240 0.45495 0.32855
 H703 H 1.18890 0.41814 0.33387
 H704 H 1.15623 0.41934 0.29177
 C705 C 0.62087 -0.14320 0.34529
 C706 C 0.65809 -0.15012 0.35639
 C707 C 0.67337 -0.12811 0.38589
 C708 C 0.65040 -0.10334 0.40649
 C709 C 0.61189 -0.09943 0.39734
 C710 C 0.59843 -0.11822 0.36509
 C711 C 0.56403 -0.14139 0.36005
 C712 C 0.58858 -0.16890 0.33851
 H713 H 0.70272 -0.13099 0.39383
 H714 H 0.66264 -0.08783 0.42996
 H715 H 0.54265 -0.12787 0.34170
 H716 H 0.55313 -0.15213 0.38747
 H717 H 0.58120 -0.17133 0.30781
 H718 H 0.59166 -0.19555 0.35358
 C719 C 0.61957 0.35574 -0.15271
 C720 C 0.65637 0.34767 -0.14103
 C721 C 0.67098 0.36745 -0.10958
 C722 C 0.64769 0.39110 -0.08801
 C723 C 0.60952 0.39611 -0.09803
 C724 C 0.59682 0.37964 -0.13188
 C725 C 0.56232 0.35728 -0.13960
 C726 C 0.58721 0.33092 -0.16224
 H727 H 0.70005 0.36370 -0.10101
 H728 H 0.65942 0.40492 -0.06320
 H729 H 0.54172 0.37229 -0.15761
 H730 H 0.55042 0.34491 -0.11339
 H731 H 0.58074 0.33061 -0.19323
 H732 H 0.58955 0.30330 -0.14900
 C733 C 1.15137 0.14689 -0.10721
 C734 C 1.15530 0.14266 -0.14691
 C735 C 1.13833 0.11075 -0.16336
 C736 C 1.11496 0.08747 -0.14178
 C737 C 1.10716 0.09567 -0.10332
 C738 C 1.12759 0.12441 -0.08625
 C739 C 1.11485 0.15546 -0.06127
 C740 C 1.14074 0.18020 -0.08406
 H741 H 1.14250 0.10362 -0.19303
 H742 H 1.10125 0.06438 -0.15590
 H743 H 1.12415 0.15200 -0.03129
 H744 H 1.08450 0.16210 -0.06508
 H745 H 1.16474 0.19110 -0.06695
 H746 H 1.12542 0.20119 -0.10103
 C747 C 1.15297 0.64855 0.39497
 C748 C 1.15971 0.64149 0.35630
 C749 C 1.14646 0.60757 0.34121
 C750 C 1.12297 0.58450 0.36293
 C751 C 1.11197 0.59506 0.40004
 C752 C 1.12950 0.62612 0.41618
 C753 C 1.11349 0.65820 0.43770
 C754 C 1.13928 0.68277 0.41449
 H755 H 1.15276 0.59965 0.31210
 H756 H 1.11150 0.55979 0.34974
 H757 H 1.12109 0.65757 0.46842
 H758 H 1.08309 0.66266 0.43159
 H759 H 1.16171 0.69622 0.43187
 H760 H 1.12384 0.70144 0.39493
 C761 C 0.60561 0.14894 0.34120
 C762 C 0.64053 0.16200 0.35412
 C763 C 0.64985 0.15613 0.39261
 C764 C 0.62770 0.13257 0.41509
 C765 C 0.59559 0.11503 0.39950
 C766 C 0.58354 0.12628 0.36347
 C767 C 0.56945 0.10489 0.32980
 C768 C 0.59366 0.12984 0.30525
 H769 H 0.67568 0.16741 0.40438
 H770 H 0.63718 0.12619 0.44361
 H771 H 0.53874 0.10885 0.32516
 H772 H 0.57906 0.07567 0.32975
 H773 H 0.57682 0.14814 0.28655
 H774 H 0.61680 0.11464 0.29081
 C775 C 0.61206 0.65867 -0.13478
 C776 C 0.64887 0.64930 -0.14608
 C777 C 0.66474 0.61722 -0.12982
 C778 C 0.64313 0.59402 -0.10669
 C779 C 0.60479 0.60138 -0.10042
 C780 C 0.59037 0.63492 -0.11306
 C781 C 0.55527 0.64306 -0.13471
 C782 C 0.57879 0.66912 -0.15860
 H783 H 0.69387 0.60983 -0.13474
 H784 H 0.65590 0.56928 -0.09537
 H785 H 0.53398 0.65755 -0.11686
 H786 H 0.54454 0.61874 -0.15100
 H787 H 0.57090 0.69858 -0.15457
 H788 H 0.58163 0.65999 -0.18880
 C789 C 0.86203 -0.12233 -0.16742
 C790 C 0.84812 -0.15604 -0.15417
 C791 C 0.86207 -0.16857 -0.11888
 C792 C 0.88569 -0.14603 -0.09626
 C793 C 0.89595 -0.11044 -0.10838
 C794 C 0.88528 -0.10011 -0.14512
 C795 C 0.86684 -0.06558 -0.15853
 C796 C 0.84137 -0.08992 -0.18300
 H797 H 0.85425 -0.19545 -0.10832
 H798 H 0.89501 -0.15610 -0.06888
 H799 H 0.88630 -0.04826 -0.17551
 H800 H 0.85161 -0.05068 -0.13540
 H801 H 0.84622 -0.08660 -0.21404
 H802 H 0.81134 -0.08916 -0.17410
 C803 C 0.86387 0.37961 0.33598
 C804 C 0.85398 0.34385 0.34697
 C805 C 0.87182 0.32946 0.37952
 C806 C 0.89494 0.35206 0.40266
 C807 C 0.90133 0.38928 0.39321
 C808 C 0.88729 0.40156 0.35831
 C809 C 0.86649 0.43596 0.34862
 C810 C 0.84057 0.41194 0.32426
 H811 H 0.86659 0.30124 0.38793
 H812 H 0.90698 0.34063 0.42833
 H813 H 0.88395 0.45520 0.33164
 H814 H 0.85224 0.44864 0.37370
 H815 H 0.84296 0.41755 0.29330
 H816 H 0.81135 0.41117 0.33544
 C817 C 0.33746 -0.11428 0.36116
 C818 C 0.34980 -0.14866 0.34671
 C819 C 0.38869 -0.15683 0.35226
 C820 C 0.41225 -0.13325 0.37389
 C821 C 0.39745 -0.10178 0.39204
 C822 C 0.36042 -0.09198 0.38364
 C823 C 0.32917 -0.08078 0.40946
 C824 C 0.30376 -0.10517 0.38514
 H825 H 0.40165 -0.18092 0.33948
 H826 H 0.44158 -0.14055 0.37785
 H827 H 0.32248 -0.05092 0.40721
 H828 H 0.33292 -0.09107 0.43896
 H829 H 0.28221 -0.08919 0.36927
 H830 H 0.29270 -0.12954 0.40054
 C831 C 0.39224 0.34011 -0.14160
 C832 C 0.35323 0.33819 -0.13641
 C833 C 0.33772 0.35733 -0.10509
 C834 C 0.36023 0.38116 -0.08273
 C835 C 0.39844 0.38701 -0.09191
 C836 C 0.41426 0.36434 -0.12017
 C837 C 0.43845 0.37355 -0.15344
 C838 C 0.41438 0.34697 -0.17690
 H839 H 0.30790 0.35523 -0.09908
 H840 H 0.34700 0.39693 -0.06007
 H841 H 0.46790 0.36386 -0.14962
 H842 H 0.43550 0.40279 -0.16233
 H843 H 0.43000 0.32200 -0.18652
 H844 H 0.39751 0.36078 -0.19936
 C845 C 1.12245 -0.12396 0.17132
 C846 C 1.13821 -0.15694 0.15760
 C847 C 1.12781 -0.16852 0.12051
 C848 C 1.10600 -0.14559 0.09696
 C849 C 1.09422 -0.11046 0.10985
 C850 C 1.10111 -0.10127 0.14803
 C851 C 1.11754 -0.06703 0.16523
 C852 C 1.14087 -0.09188 0.19077
 H853 H 1.13740 -0.19480 0.10924
 H854 H 1.09956 -0.15485 0.06825
 H855 H 1.09619 -0.05058 0.18108
 H856 H 1.13475 -0.05114 0.14465
 H857 H 1.13289 -0.08974 0.22130
 H858 H 1.17163 -0.09041 0.18507
 C859 C 1.12848 0.37883 0.67364
 C860 C 1.14414 0.34574 0.66010
 C861 C 1.13315 0.33368 0.62334
 C862 C 1.11083 0.35622 0.59986
 C863 C 1.09907 0.39143 0.61249
 C864 C 1.10663 0.40114 0.65042
 C865 C 1.12323 0.43566 0.66683
 C866 C 1.14712 0.41124 0.69229
 H867 H 1.14256 0.30726 0.61227
 H868 H 1.10391 0.34655 0.57141
 H869 H 1.10210 0.45224 0.68285
 H870 H 1.14000 0.45132 0.64571
 H871 H 1.13969 0.41376 0.72294
 H872 H 1.17776 0.41273 0.68599
 C873 C 0.60974 -0.14884 0.64925
 C874 C 0.64932 -0.14922 0.64865
 C875 C 0.66721 -0.11998 0.62921
 C876 C 0.64616 -0.09473 0.60768
 C877 C 0.60670 -0.09726 0.60604
 C878 C 0.58900 -0.12320 0.62894
 C879 C 0.55949 -0.15075 0.61836
 C880 C 0.58218 -0.17896 0.64036
 H881 H 0.69741 -0.11651 0.62987
 H882 H 0.66078 -0.07346 0.59208
 H883 H 0.55832 -0.15650 0.58721
 H884 H 0.53198 -0.14418 0.63180
 H885 H 0.59441 -0.20107 0.62200
 H886 H 0.56730 -0.18882 0.66614
 C887 C 0.66590 0.37070 0.12501
 C888 C 0.65308 0.35595 0.15930
 C889 C 0.61840 0.36920 0.17360
 C890 C 0.59584 0.39310 0.15182
 C891 C 0.60747 0.40410 0.11532
 C892 C 0.64366 0.39406 0.10356
 C893 C 0.65665 0.37722 0.06690
 C894 C 0.68110 0.35161 0.09046
 H895 H 0.60822 0.36044 0.20109
 H896 H 0.56885 0.40184 0.16300
 H897 H 0.67325 0.39694 0.04964
 H898 H 0.63367 0.36267 0.05125
 H899 H 0.71175 0.35663 0.08677
 H900 H 0.67234 0.32217 0.08850
 C901 C 0.84574 0.14949 0.10751
 C902 C 0.83316 0.13794 0.14328
 C903 C 0.84166 0.10127 0.15369
 C904 C 0.86645 0.07955 0.13154
 C905 C 0.88309 0.09396 0.09844
 C906 C 0.87006 0.12811 0.08571
 C907 C 0.89131 0.16108 0.07233
 C908 C 0.86465 0.18452 0.09622
 H909 H 0.83073 0.08988 0.17980
 H910 H 0.87426 0.05244 0.14158
 H911 H 0.88790 0.16536 0.04121
 H912 H 0.92087 0.16172 0.08286
 H913 H 0.84595 0.20229 0.07880
 H914 H 0.87872 0.19874 0.12061
 C915 C 0.86936 0.61850 0.66907
 C916 C 0.85086 0.64916 0.65390
 C917 C 0.86026 0.65948 0.61646
 C918 C 0.88431 0.63732 0.59406
 C919 C 0.89919 0.60419 0.60851
 C920 C 0.89276 0.59647 0.64689
 C921 C 0.87917 0.56192 0.66512
 C922 C 0.85358 0.58608 0.68949
 H923 H 0.84839 0.68418 0.60416
 H924 H 0.89013 0.64547 0.56509
 H925 H 0.90172 0.54815 0.68178
 H926 H 0.86357 0.54360 0.64495
 H927 H 0.86145 0.58624 0.72015
 H928 H 0.82311 0.58177 0.68352
 C929 C 0.33333 0.13325 0.61851
 C930 C 0.34676 0.14906 0.65251
 C931 C 0.38257 0.13763 0.66539
 C932 C 0.40526 0.11436 0.64277
 C933 C 0.39274 0.10197 0.60670
 C934 C 0.35575 0.11037 0.59614
 C935 C 0.34092 0.12628 0.56006
 C936 C 0.31632 0.15131 0.58455
 H937 H 0.39339 0.14710 0.69264
 H938 H 0.43296 0.10691 0.65313
 H939 H 0.32450 0.10575 0.54312
 H940 H 0.36280 0.14143 0.54387
 H941 H 0.28576 0.14515 0.58170
 H942 H 0.32388 0.18101 0.58258
 C943 C 0.33315 0.63262 0.12129
 C944 C 0.34696 0.65163 0.15331
 C945 C 0.38408 0.64364 0.16517
 C946 C 0.40730 0.62016 0.14328
 C947 C 0.39402 0.60441 0.10892
 C948 C 0.35612 0.60976 0.09957
 C949 C 0.33862 0.62207 0.06315
 C950 C 0.31339 0.64708 0.08698
 H951 H 0.39537 0.65590 0.19103
 H952 H 0.43589 0.61520 0.15275
 H953 H 0.32299 0.59940 0.04854
 H954 H 0.35864 0.63743 0.04485
 H955 H 0.28326 0.63876 0.08611
 H956 H 0.31871 0.67697 0.08251
   
