data_POSCAR
  _audit_creation_date              2014-09-24
  _audit_creation_method            'ToBaCCo'
  _symmetry_space_group_name_H-M    'P1'
  _symmetry_Int_Tables_number       1
  _symmetry_cell_setting            triclinic
  loop_
  _symmetry_equiv_pos_as_xyz
 x,y,z
_cell_length_a 18.5411
_cell_length_b 18.3780
_cell_length_c 47.2508
_cell_angle_alpha 92.172900
_cell_angle_beta 89.332800
_cell_angle_gamma 119.469200
loop_
  _atom_site_label
  _atom_site_type_symbol
  _atom_site_fract_x
  _atom_site_fract_y
  _atom_site_fract_z
C1 C 0.03050 0.04144 0.51770
 C2 C -0.03678 -0.01636 0.49587
 C3 C -0.01493 -0.06481 0.47903
 C4 C 0.07256 -0.05023 0.48563
 C5 C 0.04838 -0.01833 0.53393
 C6 C 0.06976 -0.06658 0.51743
 C7 C 0.10749 0.09147 0.50005
 C8 C 0.13005 0.04469 0.48332
 H9 H -0.09857 -0.02468 0.49551
 H10 H 0.09313 -0.08741 0.47226
 H11 H 0.03457 -0.02924 0.55624
 H12 H 0.13842 0.15911 0.49948
 C13 C 0.92283 -0.05213 0.18528
 C14 C 0.98494 -0.05869 0.16455
 C15 C 1.03637 0.01457 0.15157
 C16 C 1.01985 0.08664 0.16044
 C17 C 0.97358 0.01726 0.20455
 C18 C 1.02900 0.09342 0.19129
 C19 C 0.87699 -0.02089 0.16711
 C20 C 0.92672 0.05166 0.15429
 H21 H 0.98761 -0.11534 0.16006
 H22 H 1.05861 0.14641 0.14989
 H23 H 0.97989 0.00689 0.22659
 H24 H 0.81062 -0.05592 0.16344
 C25 C 0.03605 1.00515 0.85603
 C26 C 0.04759 1.07225 0.83489
 C27 C -0.02018 1.04964 0.81785
 C28 C -0.09273 0.96175 0.82354
 C29 C -0.04241 0.98818 0.87207
 C30 C -0.10947 0.96604 0.85535
 C31 C 0.01143 0.92658 0.83757
 C32 C -0.05530 0.90338 0.82060
 H33 H 0.10057 1.13436 0.83503
 H34 H -0.14841 0.94057 0.80998
 H35 H -0.04205 1.00285 0.89454
 H36 H 0.04794 0.89517 0.83664
 O37 O 0.39884 -0.00862 -0.02026
 O38 O 0.55581 0.01037 0.03138
 O39 O 0.40888 -0.00206 0.03467
 O40 O 0.53361 -0.01790 -0.02303
 O41 O 0.59947 0.11941 -0.02694
 O42 O 0.47155 0.13534 0.03143
 O43 O 0.61976 0.14778 0.02813
 O44 O 0.46475 0.12899 -0.02341
 Cu45 Cu 0.46794 -0.01808 0.00617
 Cu46 Cu 0.54591 0.14668 0.00220
 C47 C 0.40582 0.05742 -0.03060
 C48 C 0.61490 0.08276 0.03826
 C49 C 0.41705 0.06824 0.04242
 C50 C 0.58665 0.04710 -0.03502
 O51 O -0.10976 0.36507 0.69145
 O52 O -0.08856 0.50555 0.63372
 O53 O -0.09748 0.36120 0.63689
 O54 O -0.12200 0.50208 0.68813
 O55 O 0.01345 0.57341 0.69521
 O56 O 0.03827 0.43095 0.64375
 O57 O 0.04674 0.57538 0.64144
 O58 O 0.02571 0.43768 0.69847
 Cu59 Cu -0.11811 0.42703 0.66210
 Cu60 Cu 0.04441 0.51146 0.67057
 C61 C -0.04451 0.37695 0.70420
 C62 C -0.01635 0.56337 0.62758
 C63 C -0.02587 0.37212 0.63157
 C64 C -0.05894 0.56182 0.70018
 O65 O 0.56669 0.58047 0.30944
 O66 O 0.44276 0.42550 0.36248
 O67 O 0.57797 0.57249 0.36391
 O68 O 0.42369 0.44661 0.30965
 O69 O 0.49029 0.37709 0.29916
 O70 O 0.64817 0.50639 0.35400
 O71 O 0.51176 0.35813 0.35271
 O72 O 0.63391 0.51110 0.29971
 Cu73 Cu 0.49619 0.51306 0.33755
 Cu74 Cu 0.57745 0.43080 0.32567
 C75 C 0.62087 0.57123 0.29548
 C76 C 0.45583 0.36478 0.36622
 C77 C 0.64016 0.56295 0.36772
 C78 C 0.43088 0.39159 0.29498
 C79 C -0.00322 0.21143 0.57532
 C80 C 0.06689 0.20223 0.57701
 C81 C 0.07603 0.14689 0.55837
 C82 C 0.01500 0.09909 0.53768
 C83 C -0.05540 0.10921 0.53604
 C84 C -0.06438 0.16497 0.55484
 C85 C -0.01168 0.26859 0.59481
 C86 C -0.01771 0.31636 0.61151
 H87 H 0.11470 0.23800 0.59273
 H88 H 0.13140 0.14143 0.55999
 H89 H -0.10323 0.07553 0.52030
 H90 H -0.11885 0.17208 0.55334
 C91 C 0.75953 0.74254 0.23751
 C92 C 0.74954 0.81251 0.23535
 C93 C 0.80099 0.87651 0.21776
 C94 C 0.86327 0.87171 0.20170
 C95 C 0.87209 0.80014 0.20375
 C96 C 0.82030 0.73594 0.22155
 C97 C 0.71004 0.68032 0.25739
 C98 C 0.66887 0.63014 0.27464
 H99 H 0.70322 0.81862 0.24781
 H100 H 0.79363 0.93139 0.21725
 H101 H 0.92012 0.79417 0.19260
 H102 H 0.82894 0.68212 0.22336
 C103 C 0.23157 0.03890 -0.08646
 C104 C 0.15269 -0.03083 -0.08529
 C105 C 0.09079 -0.03977 -0.10381
 C106 C 0.10621 0.02110 -0.12385
 C107 C 0.18619 0.09128 -0.12492
 C108 C 0.24839 0.10006 -0.10624
 C109 C 0.29454 0.04664 -0.06721
 C110 C 0.34564 0.05140 -0.05063
 H111 H 0.13903 -0.07864 -0.07012
 H112 H 0.03033 -0.09503 -0.10265
 H113 H 0.20187 0.13893 -0.14018
 H114 H 0.30963 0.15425 -0.10734
 C115 C 0.03219 0.72695 0.56488
 C116 C 0.10753 0.80202 0.56725
 C117 C 0.12367 0.86768 0.54964
 C118 C 0.06493 0.85847 0.52934
 C119 C -0.00858 0.78157 0.52603
 C120 C -0.02482 0.71595 0.54370
 C121 C 0.01081 0.66527 0.58597
 C122 C -0.00432 0.61696 0.60463
 H123 H 0.15184 0.81140 0.58370
 H124 H 0.17950 0.92736 0.55304
 H125 H -0.05633 0.77455 0.51146
 H126 H -0.08365 0.65851 0.54189
 C127 C 0.24046 0.26024 0.23947
 C128 C 0.16316 0.21805 0.25231
 C129 C 0.09264 0.16731 0.23608
 C130 C 0.09783 0.15696 0.20650
 C131 C 0.17540 0.20500 0.19349
 C132 C 0.24637 0.25562 0.20996
 C133 C 0.31260 0.30667 0.25721
 C134 C 0.36897 0.34472 0.27376
 H135 H 0.15755 0.22280 0.27508
 H136 H 0.03400 0.13534 0.24693
 H137 H 0.18328 0.19918 0.17095
 H138 H 0.30603 0.28896 0.19978
 C139 C 0.71424 0.00229 -0.09751
 C140 C 0.76220 0.05984 -0.11778
 C141 C 0.81470 0.04411 -0.13531
 C142 C 0.81927 -0.02940 -0.13274
 C143 C 0.76820 -0.08860 -0.11331
 C144 C 0.71558 -0.07299 -0.09587
 C145 C 0.66968 0.02299 -0.07655
 C146 C 0.63269 0.03704 -0.05795
 H147 H 0.76234 0.11865 -0.11902
 H148 H 0.85635 0.09221 -0.14921
 H149 H 0.77278 -0.14442 -0.11050
 H150 H 0.67914 -0.11769 -0.08011
 C151 C 0.24187 0.05445 0.09828
 C152 C 0.21559 -0.00461 0.11939
 C153 C 0.14815 -0.01854 0.13649
 C154 C 0.10574 0.02630 0.13266
 C155 C 0.13284 0.08557 0.11138
 C156 C 0.20019 0.09934 0.09431
 C157 C 0.30802 0.06501 0.07954
 C158 C 0.36033 0.06980 0.06308
 H159 H 0.24702 -0.04019 0.12256
 H160 H 0.13028 -0.06338 0.15300
 H161 H 0.10167 0.12086 0.10758
 H162 H 0.21921 0.14445 0.07782
 C163 C 0.81349 0.73916 0.42166
 C164 C 0.87833 0.73297 0.43398
 C165 C 0.93469 0.79712 0.45223
 C166 C 0.92693 0.86855 0.45863
 C167 C 0.86208 0.87458 0.44573
 C168 C 0.80588 0.81038 0.42745
 C169 C 0.75453 0.67302 0.40304
 C170 C 0.70341 0.62031 0.38716
 H171 H 0.88502 0.67828 0.42965
 H172 H 0.98289 0.78911 0.46176
 H173 H 0.85488 0.92907 0.44957
 H174 H 0.75628 0.81624 0.41785
 C175 C -0.03978 0.21655 0.76056
 C176 C 0.03777 0.22496 0.76667
 C177 C 0.04438 0.17067 0.78512
 C178 C -0.02666 0.10697 0.79781
 C179 C -0.10438 0.09888 0.79129
 C180 C -0.11077 0.15327 0.77288
 C181 C -0.04617 0.27212 0.74128
 C182 C -0.04830 0.31939 0.72469
 H183 H 0.09321 0.27337 0.75706
 H184 H 0.10502 0.17808 0.78913
 H185 H -0.16062 0.05167 0.80072
 H186 H -0.17115 0.14599 0.76831
 C187 C 0.78982 0.10295 0.09451
 C188 C 0.77420 0.10546 0.12346
 C189 C 0.82427 0.09646 0.14327
 C190 C 0.89076 0.08514 0.13436
 C191 C 0.90963 0.08822 0.10544
 C192 C 0.85912 0.09688 0.08555
 C193 C 0.72996 0.09808 0.07426
 C194 C 0.67769 0.09139 0.05776
 H195 H 0.72075 0.10991 0.13066
 H196 H 0.80812 0.09312 0.16547
 H197 H 0.95908 0.07729 0.09808
 H198 H 0.87150 0.09438 0.06317
 C199 C 0.31133 0.18896 0.42259
 C200 C 0.24051 0.11458 0.41378
 C201 C 0.18409 0.06261 0.43384
 C202 C 0.19784 0.08536 0.46278
 C203 C 0.27165 0.15717 0.47147
 C204 C 0.32795 0.20857 0.45150
 C205 C 0.36308 0.24923 0.40232
 C206 C 0.40574 0.30183 0.38584
 H207 H 0.22696 0.09884 0.39143
 H208 H 0.12714 0.00817 0.42668
 H209 H 0.28349 0.17583 0.49370
 H210 H 0.38247 0.26574 0.45860
 C211 C -0.08729 0.71725 0.75767
 C212 C -0.08575 0.70199 0.78636
 C213 C -0.08201 0.76003 0.80703
 C214 C -0.07978 0.83422 0.79928
 C215 C -0.08696 0.84677 0.77056
 C216 C -0.09023 0.78859 0.74978
 C217 C -0.07904 0.66282 0.73671
 C218 C -0.06996 0.61701 0.71986
 H219 H -0.08369 0.64702 0.79274
 H220 H -0.07667 0.74904 0.82907
 H221 H -0.08430 0.90398 0.76412
 H222 H -0.09139 0.80104 0.72762
   
