data_POSCAR
  _audit_creation_date              2014-09-24
  _audit_creation_method            'ToBaCCo'
  _symmetry_space_group_name_H-M    'P1'
  _symmetry_Int_Tables_number       1
  _symmetry_cell_setting            triclinic
  loop_
  _symmetry_equiv_pos_as_xyz
 x,y,z
_cell_length_a 43.3981
_cell_length_b 43.4705
_cell_length_c 43.3719
_cell_angle_alpha 89.999600
_cell_angle_beta 90.001000
_cell_angle_gamma 90.127900
loop_
  _atom_site_label
  _atom_site_type_symbol
  _atom_site_fract_x
  _atom_site_fract_y
  _atom_site_fract_z
C1 C 0.12583 0.14828 0.17144
 C2 C 0.12605 0.17131 0.14881
 C3 C 0.14964 0.17254 0.12747
 C4 C 0.17317 0.15045 0.12821
 C5 C 0.17284 0.12776 0.15042
 C6 C 0.14899 0.12668 0.17224
 C7 C 0.10785 0.14379 0.19713
 N8 N 0.11951 0.11995 0.21402
 C9 C 0.14469 0.10933 0.19840
 C10 C 0.19955 0.11116 0.14720
 N11 N 0.21648 0.12304 0.12343
 C12 C 0.20009 0.14722 0.11179
 C13 C 0.14568 0.19904 0.11057
 N14 N 0.12020 0.21400 0.12107
 C15 C 0.10805 0.19692 0.14443
 H16 H 0.08820 0.15780 0.20300
 H17 H 0.16037 0.09166 0.20611
 H18 H 0.20575 0.09188 0.16161
 H19 H 0.20741 0.16262 0.09365
 H20 H 0.16133 0.20750 0.09310
 H21 H 0.08799 0.20282 0.15795
 C22 C -0.12582 0.85173 0.17142
 C23 C -0.12604 0.82869 0.14880
 C24 C -0.14963 0.82746 0.12746
 C25 C -0.17316 0.84955 0.12820
 C26 C -0.17283 0.87224 0.15040
 C27 C -0.14898 0.87332 0.17223
 C28 C -0.10784 0.85622 0.19712
 N29 N -0.11950 0.88005 0.21401
 C30 C -0.14468 0.89067 0.19839
 C31 C -0.19955 0.88884 0.14719
 N32 N -0.21647 0.87696 0.12342
 C33 C -0.20008 0.85279 0.11178
 C34 C -0.14567 0.80096 0.11056
 N35 N -0.12019 0.78600 0.12106
 C36 C -0.10804 0.80309 0.14441
 H37 H -0.08819 0.84220 0.20299
 H38 H -0.16036 0.90834 0.20609
 H39 H -0.20574 0.90812 0.16160
 H40 H -0.20741 0.83739 0.09364
 H41 H -0.16132 0.79251 0.09309
 H42 H -0.08798 0.79718 0.15794
 C43 C -0.12447 0.14703 -0.17047
 C44 C -0.12450 0.16991 -0.14768
 C45 C -0.14800 0.17100 -0.12625
 C46 C -0.17164 0.14892 -0.12706
 C47 C -0.17150 0.12637 -0.14940
 C48 C -0.14773 0.12543 -0.17131
 C49 C -0.10665 0.14274 -0.19630
 N50 N -0.11849 0.11902 -0.21329
 C51 C -0.14363 0.10827 -0.19763
 C52 C -0.19832 0.10980 -0.14623
 N53 N -0.21513 0.12158 -0.12236
 C54 C -0.19855 0.14565 -0.11061
 C55 C -0.14392 0.19743 -0.10924
 N56 N -0.11845 0.21249 -0.11975
 C57 C -0.10642 0.19553 -0.14322
 H58 H -0.08695 0.15678 -0.20217
 H59 H -0.15943 0.09067 -0.20541
 H60 H -0.20469 0.09066 -0.16078
 H61 H -0.20573 0.16097 -0.09239
 H62 H -0.15953 0.20578 -0.09171
 H63 H -0.08642 0.20155 -0.15682
 C64 C 0.12445 0.85299 -0.17044
 C65 C 0.12448 0.83010 -0.14765
 C66 C 0.14798 0.82902 -0.12622
 C67 C 0.17162 0.85109 -0.12703
 C68 C 0.17147 0.87365 -0.14937
 C69 C 0.14771 0.87459 -0.17129
 C70 C 0.10663 0.85727 -0.19627
 N71 N 0.11846 0.88099 -0.21327
 C72 C 0.14360 0.89175 -0.19760
 C73 C 0.19829 0.89021 -0.14621
 N74 N 0.21510 0.87844 -0.12234
 C75 C 0.19852 0.85437 -0.11059
 C76 C 0.14390 0.80259 -0.10921
 N77 N 0.11842 0.78752 -0.11972
 C78 C 0.10640 0.80449 -0.14320
 H79 H 0.08693 0.84323 -0.20215
 H80 H 0.15941 0.90934 -0.20539
 H81 H 0.20466 0.90936 -0.16076
 H82 H 0.20571 0.83904 -0.09236
 H83 H 0.15950 0.79423 -0.09168
 H84 H 0.08639 0.79847 -0.15679
 C85 C 0.15037 1.12877 0.82767
 C86 C 0.17216 1.12791 0.85153
 C87 C 0.17106 1.14944 0.87489
 C88 C 0.14837 1.17234 0.87457
 C89 C 0.12694 1.17318 0.85112
 C90 C 0.12792 1.15114 0.82749
 C91 C 0.14732 1.11220 0.80086
 N92 N 0.12344 1.12383 0.78396
 C93 C 0.11158 1.14781 0.80053
 C94 C 0.10979 1.19947 0.85509
 N95 N 0.12046 1.21511 0.88027
 C96 C 0.14405 1.19817 0.89229
 C97 C 0.19649 1.14487 0.89322
 N98 N 0.21335 1.12122 0.88146
 C99 C 0.19839 1.11075 0.85591
 H100 H 0.16206 1.09326 0.79451
 H101 H 0.09323 1.16298 0.79342
 H102 H 0.09230 1.20732 0.83921
 H103 H 0.15783 1.20400 0.91220
 H104 H 0.20248 1.15851 0.91320
 H105 H 0.20672 1.09312 0.84042
 C106 C 0.84963 0.87123 0.82767
 C107 C 0.82783 0.87209 0.85153
 C108 C 0.82893 0.85057 0.87489
 C109 C 0.85163 0.82766 0.87457
 C110 C 0.87306 0.82682 0.85112
 C111 C 0.87208 0.84887 0.82749
 C112 C 0.85267 0.88780 0.80086
 N113 N 0.87656 0.87617 0.78396
 C114 C 0.88842 0.85220 0.80054
 C115 C 0.89020 0.80053 0.85509
 N116 N 0.87954 0.78490 0.88027
 C117 C 0.85594 0.80183 0.89229
 C118 C 0.80349 0.85513 0.89322
 N119 N 0.78664 0.87878 0.88146
 C120 C 0.80160 0.88925 0.85590
 H121 H 0.83793 0.90674 0.79451
 H122 H 0.90676 0.83703 0.79343
 H123 H 0.90769 0.79269 0.83921
 H124 H 0.84216 0.79600 0.91220
 H125 H 0.79751 0.84149 0.91319
 H126 H 0.79327 0.90688 0.84041
 C127 C 0.14928 0.87282 1.17186
 C128 C 0.17035 0.87459 1.14739
 C129 C 0.16850 0.85389 1.12331
 C130 C 0.14578 0.83090 1.12350
 C131 C 0.12525 0.82898 1.14777
 C132 C 0.12693 0.85026 1.17205
 C133 C 0.14684 0.88869 1.19916
 N134 N 0.12336 0.87652 1.21630
 C135 C 0.11125 0.85279 1.19947
 C136 C 0.10826 0.80252 1.14365
 N137 N 0.11798 0.78821 1.11748
 C138 C 0.14085 0.80570 1.10498
 C139 C 0.19359 0.85895 1.10460
 N140 N 0.21095 0.88205 1.11684
 C141 C 0.19664 0.89178 1.14301
 H142 H 0.16160 0.90767 1.20556
 H143 H 0.09302 0.83740 1.20657
 H144 H 0.09144 0.79348 1.15971
 H145 H 0.15381 0.80018 1.08443
 H146 H 0.19914 0.84587 1.08414
 H147 H 0.20561 0.90871 1.15896
 C148 C 0.85072 1.12717 1.17185
 C149 C 0.82965 1.12540 1.14738
 C150 C 0.83150 1.14610 1.12330
 C151 C 0.85422 1.16909 1.12349
 C152 C 0.87475 1.17102 1.14777
 C153 C 0.87307 1.14973 1.17204
 C154 C 0.85316 1.11130 1.19915
 N155 N 0.87665 1.12348 1.21629
 C156 C 0.88875 1.14721 1.19947
 C157 C 0.89174 1.19747 1.14364
 N158 N 0.88202 1.21179 1.11748
 C159 C 0.85915 1.19430 1.10498
 C160 C 0.80642 1.14104 1.10459
 N161 N 0.78905 1.11794 1.11682
 C162 C 0.80336 1.10821 1.14300
 H163 H 0.83840 1.09232 1.20555
 H164 H 0.90698 1.16260 1.20657
 H165 H 0.90855 1.20652 1.15970
 H166 H 0.84619 1.19982 1.08442
 H167 H 0.80086 1.15412 1.08413
 H168 H 0.79440 1.09128 1.15895
 N169 N 0.46714 0.96718 1.05475
 N170 N 0.44109 0.96646 1.07048
 N171 N 0.53221 0.94545 1.03339
 N172 N 0.55763 0.92890 1.03481
 N173 N 0.53222 0.96668 1.05492
 N174 N 0.55761 0.96501 1.07159
 N175 N 0.46725 0.94564 1.03352
 N176 N 0.44140 0.92962 1.03444
 C177 C 0.42541 0.94267 1.05778
 C178 C 0.57315 0.94118 1.05893
 N179 N 0.53246 0.96695 0.94590
 N180 N 0.55840 0.96594 0.93004
 N181 N 0.46718 0.94567 0.96727
 N182 N 0.44158 0.92929 0.96585
 N183 N 0.46739 0.96691 0.94575
 N184 N 0.44197 0.96542 0.92909
 N185 N 0.53213 0.94542 0.96714
 N186 N 0.55772 0.92912 0.96610
 Mn187 Mn 0.49969 0.94514 1.00033
 C188 C 0.57379 0.94200 0.94268
 C189 C 0.42618 0.94169 0.94175
 N190 N 0.53286 1.03282 1.05475
 N191 N 0.55891 1.03354 1.07047
 N192 N 0.46779 1.05455 1.03339
 N193 N 0.44237 1.07110 1.03481
 N194 N 0.46778 1.03332 1.05492
 N195 N 0.44239 1.03499 1.07160
 N196 N 0.53275 1.05436 1.03352
 N197 N 0.55860 1.07038 1.03444
 Mn198 Mn 0.50000 1.00000 1.05527
 C199 C 0.57459 1.05732 1.05777
 C200 C 0.42685 1.05882 1.05893
 N201 N 0.46753 1.03305 0.94590
 N202 N 0.44159 1.03405 0.93004
 N203 N 0.53281 1.05432 0.96726
 N204 N 0.55841 1.07071 0.96585
 N205 N 0.53260 1.03308 0.94575
 N206 N 0.55802 1.03457 0.92909
 N207 N 0.46786 1.05458 0.96715
 N208 N 0.44227 1.07088 0.96610
 Mn209 Mn 0.50000 1.00000 0.94539
 Mn210 Mn 0.50030 1.05485 1.00033
 Cl211 Cl 0.50000 1.00000 1.00033
 C212 C 0.42620 1.05799 0.94268
 C213 C 0.57381 1.05831 0.94175
 N214 N -0.05453 0.46746 0.03321
 N215 N -0.07066 0.44170 0.03425
 N216 N -0.03328 0.53224 0.05457
 N217 N -0.03457 0.55776 0.07101
 N218 N -0.05447 0.53239 0.03296
 N219 N -0.07055 0.55811 0.03405
 N220 N -0.03293 0.46733 0.05442
 N221 N -0.03372 0.44139 0.07024
 C222 C -0.05760 0.42577 0.05763
 C223 C -0.05809 0.57358 0.05811
 N224 N 0.05452 0.53254 0.03321
 N225 N 0.07066 0.55830 0.03425
 N226 N 0.03327 0.46776 0.05457
 N227 N 0.03457 0.44224 0.07101
 N228 N 0.05447 0.46761 0.03297
 N229 N 0.07055 0.44189 0.03405
 N230 N 0.03293 0.53267 0.05442
 N231 N 0.03372 0.55861 0.07024
 Mn232 Mn -0.00000 0.50000 0.05491
 C233 C 0.05759 0.57423 0.05763
 C234 C 0.05808 0.42642 0.05811
 N235 N -0.05456 0.53223 -0.03331
 N236 N -0.07099 0.55771 -0.03466
 N237 N -0.03317 0.46752 -0.05465
 N238 N -0.03423 0.44185 -0.07087
 N239 N -0.05440 0.46728 -0.03307
 N240 N -0.07027 0.44135 -0.03397
 N241 N -0.03305 0.53239 -0.05459
 N242 N -0.03423 0.55803 -0.07085
 Mn243 Mn -0.05492 0.49985 -0.00005
 C244 C -0.05821 0.57348 -0.05836
 C245 C -0.05765 0.42585 -0.05787
 N246 N 0.05456 0.46778 -0.03331
 N247 N 0.07099 0.44229 -0.03466
 N248 N 0.03317 0.53248 -0.05465
 N249 N 0.03423 0.55816 -0.07086
 N250 N 0.05440 0.53272 -0.03306
 N251 N 0.07026 0.55865 -0.03396
 N252 N 0.03304 0.46761 -0.05459
 N253 N 0.03423 0.44197 -0.07085
 Mn254 Mn 0.05491 0.50016 -0.00005
 Mn255 Mn -0.00000 0.50000 -0.05503
 Cl256 Cl -0.00000 0.50000 -0.00005
 C257 C 0.05821 0.42652 -0.05836
 C258 C 0.05764 0.57416 -0.05787
 N259 N 1.03307 -0.05440 0.46764
 N260 N 1.03477 -0.07119 0.44235
 N261 N 1.05443 -0.03291 0.53276
 N262 N 1.07055 -0.03398 0.55854
 N263 N 1.03310 -0.05439 0.53266
 N264 N 1.03427 -0.07065 0.55834
 N265 N 1.05455 -0.03310 0.46770
 N266 N 1.07145 -0.03490 0.44246
 C267 C 1.05899 -0.05893 0.42695
 C268 C 1.05793 -0.05784 0.57415
 N269 N 1.03315 0.05447 0.53264
 N270 N 1.03478 0.07116 0.55801
 N271 N 1.05449 0.03304 0.46754
 N272 N 1.07062 0.03415 0.44176
 N273 N 1.03318 0.05445 0.46761
 N274 N 1.03438 0.07070 0.44194
 N275 N 1.05460 0.03322 0.53258
 N276 N 1.07141 0.03498 0.55789
 Mn277 Mn 1.05493 0.00006 0.50014
 C278 C 1.05893 0.05891 0.57344
 C279 C 1.05803 0.05796 0.42613
 N280 N 0.96685 -0.05448 0.53264
 N281 N 0.96522 -0.07117 0.55801
 N282 N 0.94551 -0.03305 0.46753
 N283 N 0.92938 -0.03416 0.44175
 N284 N 0.96682 -0.05446 0.46761
 N285 N 0.96562 -0.07071 0.44193
 N286 N 0.94540 -0.03323 0.53258
 N287 N 0.92858 -0.03499 0.55789
 Mn288 Mn 0.99995 -0.05484 0.50014
 C289 C 0.94107 -0.05892 0.57344
 C290 C 0.94197 -0.05797 0.42613
 N291 N 0.96693 0.05439 0.46764
 N292 N 0.96523 0.07118 0.44234
 N293 N 0.94557 0.03290 0.53275
 N294 N 0.92944 0.03397 0.55853
 N295 N 0.96690 0.05438 0.53266
 N296 N 0.96573 0.07064 0.55833
 N297 N 0.94545 0.03309 0.46769
 N298 N 0.92855 0.03489 0.44245
 Mn299 Mn 1.00004 0.05483 0.50014
 Mn300 Mn 0.94506 -0.00007 0.50014
 Cl301 Cl 1.00000 -0.00001 0.50014
 C302 C 0.94101 0.05892 0.42694
 C303 C 0.94207 0.05784 0.57415
 C304 C 1.09130 0.09199 0.30233
 C305 C 1.11305 0.07441 0.28626
 C306 C 1.12182 0.08336 0.25644
 C307 C 1.10933 0.11007 0.24245
 C308 C 1.08675 0.12682 0.25906
 C309 C 1.07788 0.11802 0.28888
 C310 C 1.08267 0.08317 0.33403
 C311 C 1.06113 0.10100 0.35023
 C312 C 1.05321 0.09269 0.38045
 C313 C 1.06687 0.06691 0.39450
 C314 C 1.08844 0.04926 0.37793
 C315 C 1.09638 0.05729 0.34763
 C316 C 1.05624 0.13517 0.30575
 C317 C 1.04807 0.12685 0.33593
 C318 C 1.12597 0.04839 0.30050
 C319 C 1.11781 0.04002 0.33067
 H320 H 1.04571 0.15538 0.29565
 H321 H 1.03163 0.14093 0.34827
 H322 H 1.14275 0.03454 0.28832
 H323 H 1.12852 0.02000 0.34089
 H324 H 1.13834 0.06919 0.24445
 H325 H 1.07652 0.14739 0.24966
 H326 H 1.03650 0.10631 0.39301
 H327 H 1.09888 0.02923 0.38850
 C328 C 0.90871 -0.09199 0.30232
 C329 C 0.88696 -0.07442 0.28625
 C330 C 0.87819 -0.08336 0.25643
 C331 C 0.89068 -0.11007 0.24244
 C332 C 0.91326 -0.12682 0.25905
 C333 C 0.92213 -0.11802 0.28887
 C334 C 0.91733 -0.08318 0.33402
 C335 C 0.93887 -0.10101 0.35023
 C336 C 0.94679 -0.09270 0.38045
 C337 C 0.93313 -0.06691 0.39450
 C338 C 0.91156 -0.04927 0.37792
 C339 C 0.90362 -0.05729 0.34762
 C340 C 0.94377 -0.13518 0.30575
 C341 C 0.95193 -0.12686 0.33593
 C342 C 0.87404 -0.04840 0.30049
 C343 C 0.88219 -0.04003 0.33067
 H344 H 0.95430 -0.15539 0.29565
 H345 H 0.96838 -0.14094 0.34826
 H346 H 0.85725 -0.03454 0.28832
 H347 H 0.87148 -0.02001 0.34089
 H348 H 0.86167 -0.06919 0.24444
 H349 H 0.92349 -0.14739 0.24965
 H350 H 0.96350 -0.10632 0.39300
 H351 H 0.90112 -0.02924 0.38849
 C352 C 0.90919 0.09156 0.69812
 C353 C 0.92250 0.11774 0.71149
 C354 C 0.91381 0.12640 0.74139
 C355 C 0.89150 0.10934 0.75817
 C356 C 0.87909 0.08251 0.74422
 C357 C 0.88769 0.07370 0.71433
 C358 C 0.91767 0.08286 0.66635
 C359 C 0.90409 0.05680 0.65284
 C360 C 0.91193 0.04886 0.62250
 C361 C 0.93327 0.06674 0.60580
 C362 C 0.94678 0.09272 0.61975
 C363 C 0.93896 0.10096 0.65001
 C364 C 0.87489 0.04753 0.70017
 C365 C 0.88291 0.03927 0.66993
 C366 C 0.94386 0.13519 0.69446
 C367 C 0.95187 0.12699 0.66421
 H368 H 0.85830 0.03346 0.71245
 H369 H 0.87230 0.01912 0.65978
 H370 H 0.95429 0.15553 0.70449
 H371 H 0.96809 0.14130 0.65176
 H372 H 0.92391 0.14710 0.75074
 H373 H 0.86278 0.06813 0.75634
 H374 H 0.90160 0.02868 0.61201
 H375 H 0.96332 0.10654 0.60709
 C376 C 1.09079 -0.09155 0.69813
 C377 C 1.11228 -0.07370 0.71435
 C378 C 1.12089 -0.08250 0.74424
 C379 C 1.10848 -0.10933 0.75819
 C380 C 1.08617 -0.12639 0.74141
 C381 C 1.07748 -0.11774 0.71151
 C382 C 1.08231 -0.08286 0.66636
 C383 C 1.06103 -0.10096 0.65002
 C384 C 1.05321 -0.09273 0.61976
 C385 C 1.06672 -0.06674 0.60581
 C386 C 1.08806 -0.04886 0.62251
 C387 C 1.09589 -0.05680 0.65285
 C388 C 1.05613 -0.13519 0.69447
 C389 C 1.04812 -0.12699 0.66423
 C390 C 1.12509 -0.04753 0.70018
 C391 C 1.11707 -0.03926 0.66995
 H392 H 1.04570 -0.15553 0.70450
 H393 H 1.03190 -0.14131 0.65177
 H394 H 1.14168 -0.03345 0.71247
 H395 H 1.12768 -0.01911 0.65980
 H396 H 1.13720 -0.06812 0.75636
 H397 H 1.07607 -0.14709 0.75076
 H398 H 1.03668 -0.10655 0.60710
 H399 H 1.09839 -0.02868 0.61202
 C400 C 0.30459 1.09472 1.09522
 C401 C 0.28822 1.11582 1.07714
 C402 C 0.25864 1.12496 1.08642
 C403 C 0.24511 1.11330 1.11383
 C404 C 0.26216 1.09161 1.13129
 C405 C 0.29173 1.08242 1.12217
 C406 C 0.33591 1.08548 1.08585
 C407 C 0.35236 1.06448 1.10411
 C408 C 0.38217 1.05586 1.09520
 C409 C 0.39561 1.06832 1.06841
 C410 C 0.37881 1.08936 1.05035
 C411 C 0.34888 1.09795 1.05894
 C412 C 0.30888 1.06138 1.13980
 C413 C 0.33870 1.05263 1.13096
 C414 C 0.30183 1.12755 1.05014
 C415 C 0.33164 1.11878 1.04121
 H416 H 0.29923 1.05170 1.16070
 H417 H 0.35119 1.03652 1.14531
 H418 H 0.28940 1.14379 1.03587
 H419 H 0.34132 1.12848 1.02033
 H420 H 0.24635 1.14088 1.07183
 H421 H 0.25320 1.08224 1.15253
 H422 H 0.39491 1.03956 1.10914
 H423 H 0.38889 1.09885 1.02954
 C424 C 0.30347 0.90647 0.90574
 C425 C 0.29066 0.91887 0.87883
 C426 C 0.26099 0.90979 0.86976
 C427 C 0.24381 0.88813 0.88723
 C428 C 0.25730 0.87642 0.91461
 C429 C 0.28697 0.88542 0.92383
 C430 C 0.33491 0.91556 0.91502
 C431 C 0.34784 0.90297 0.94187
 C432 C 0.37787 0.91139 0.95039
 C433 C 0.39482 0.93239 0.93233
 C434 C 0.38142 0.94498 0.90561
 C435 C 0.35150 0.93651 0.89676
 C436 C 0.30055 0.87357 0.95076
 C437 C 0.33048 0.88218 0.95960
 C438 C 0.30794 0.93987 0.86120
 C439 C 0.33786 0.94848 0.86998
 H440 H 0.28803 0.85736 0.96504
 H441 H 0.34015 0.87237 0.98041
 H442 H 0.29832 0.94962 0.84033
 H443 H 0.35046 0.96455 0.85560
 H444 H 0.25205 0.91923 0.84857
 H445 H 0.24493 0.86052 0.92923
 H446 H 0.38792 0.90180 0.97114
 H447 H 0.39427 0.96124 0.89166
 C448 C 0.69542 0.90528 1.09521
 C449 C 0.71179 0.88418 1.07713
 C450 C 0.74136 0.87505 1.08641
 C451 C 0.75489 0.88670 1.11382
 C452 C 0.73784 0.90839 1.13128
 C453 C 0.70827 0.91758 1.12217
 C454 C 0.66409 0.91452 1.08585
 C455 C 0.64764 0.93551 1.10410
 C456 C 0.61783 0.94414 1.09519
 C457 C 0.60439 0.93168 1.06841
 C458 C 0.62119 0.91064 1.05035
 C459 C 0.65112 0.90205 1.05893
 C460 C 0.69113 0.93862 1.13979
 C461 C 0.66130 0.94737 1.13095
 C462 C 0.69817 0.87245 1.05013
 C463 C 0.66836 0.88122 1.04120
 H464 H 0.70078 0.94830 1.16070
 H465 H 0.64881 0.96348 1.14531
 H466 H 0.71060 0.85621 1.03586
 H467 H 0.65868 0.87152 1.02032
 H468 H 0.75365 0.85912 1.07181
 H469 H 0.74681 0.91776 1.15252
 H470 H 0.60509 0.96043 1.10914
 H471 H 0.61111 0.90115 1.02954
 C472 C 0.69651 1.09353 0.90572
 C473 C 0.71301 1.11459 0.92381
 C474 C 0.74268 1.12359 0.91459
 C475 C 0.75617 1.11188 0.88721
 C476 C 0.73899 1.09022 0.86975
 C477 C 0.70932 1.08114 0.87881
 C478 C 0.66507 1.08444 0.91501
 C479 C 0.64849 1.06349 0.89675
 C480 C 0.61857 1.05502 0.90560
 C481 C 0.60517 1.06761 0.93232
 C482 C 0.62212 1.08861 0.95038
 C483 C 0.65215 1.09704 0.94186
 C484 C 0.69204 1.06013 0.86119
 C485 C 0.66212 1.05152 0.86997
 C486 C 0.69943 1.12644 0.95074
 C487 C 0.66951 1.11783 0.95959
 H488 H 0.70166 1.05038 0.84032
 H489 H 0.64952 1.03545 0.85560
 H490 H 0.71196 1.14265 0.96502
 H491 H 0.65984 1.12764 0.98039
 H492 H 0.75505 1.13949 0.92920
 H493 H 0.74793 1.08077 0.84855
 H494 H 0.60571 1.03876 0.89166
 H495 H 0.61207 1.09820 0.97113
 C496 C 0.09147 0.30329 0.09297
 C497 C 0.08140 0.29153 0.12136
 C498 C 0.09063 0.26198 0.13034
 C499 C 0.10959 0.24392 0.11106
 C500 C 0.11880 0.25598 0.08225
 C501 C 0.11008 0.28571 0.07326
 C502 C 0.08272 0.33478 0.08392
 C503 C 0.09345 0.34685 0.05587
 C504 C 0.08562 0.37704 0.04767
 C505 C 0.06687 0.39492 0.06716
 C506 C 0.05595 0.38232 0.09500
 C507 C 0.06404 0.35232 0.10363
 C508 C 0.11992 0.29839 0.04511
 C509 C 0.11185 0.32849 0.03664
 C510 C 0.06263 0.30973 0.14042
 C511 C 0.05403 0.33958 0.13167
 H512 H 0.13425 0.28508 0.02963
 H513 H 0.12017 0.33751 0.01493
 H514 H 0.05461 0.30087 0.16236
 H515 H 0.03960 0.35287 0.14707
 H516 H 0.08357 0.25354 0.15271
 H517 H 0.13284 0.24238 0.06681
 H518 H 0.09382 0.38648 0.02602
 H519 H 0.04143 0.39593 0.11006
 C520 C -0.08994 0.30203 -0.09181
 C521 C -0.07973 0.29022 -0.12011
 C522 C -0.08885 0.26058 -0.12901
 C523 C -0.10783 0.24246 -0.10973
 C524 C -0.11712 0.25454 -0.08096
 C525 C -0.10852 0.28439 -0.07206
 C526 C -0.08140 0.33367 -0.08292
 C527 C -0.09229 0.34580 -0.05498
 C528 C -0.08473 0.37616 -0.04700
 C529 C -0.06611 0.39413 -0.06662
 C530 C -0.05498 0.38144 -0.09431
 C531 C -0.06278 0.35128 -0.10271
 C532 C -0.11847 0.29712 -0.04398
 C533 C -0.11059 0.32735 -0.03565
 C534 C -0.06098 0.30848 -0.13922
 C535 C -0.05257 0.33846 -0.13061
 H536 H -0.13276 0.28374 -0.02847
 H537 H -0.11900 0.33640 -0.01398
 H538 H -0.05286 0.29958 -0.16108
 H539 H -0.03820 0.35182 -0.14607
 H540 H -0.08172 0.25213 -0.15134
 H541 H -0.13116 0.24090 -0.06552
 H542 H -0.09306 0.38567 -0.02546
 H543 H -0.04054 0.39512 -0.10944
 C544 C 0.08992 0.69798 -0.09180
 C545 C 0.07972 0.70979 -0.12010
 C546 C 0.08883 0.73943 -0.12899
 C547 C 0.10781 0.75755 -0.10971
 C548 C 0.11709 0.74547 -0.08094
 C549 C 0.10850 0.71562 -0.07204
 C550 C 0.08138 0.66634 -0.08291
 C551 C 0.09228 0.65421 -0.05496
 C552 C 0.08472 0.62384 -0.04699
 C553 C 0.06610 0.60587 -0.06661
 C554 C 0.05497 0.61856 -0.09430
 C555 C 0.06277 0.64873 -0.10270
 C556 C 0.11845 0.70289 -0.04396
 C557 C 0.11057 0.67266 -0.03563
 C558 C 0.06097 0.69153 -0.13920
 C559 C 0.05256 0.66154 -0.13060
 H560 H 0.13274 0.71628 -0.02845
 H561 H 0.11898 0.66361 -0.01396
 H562 H 0.05285 0.70043 -0.16107
 H563 H 0.03819 0.64819 -0.14606
 H564 H 0.08170 0.74788 -0.15132
 H565 H 0.13114 0.75911 -0.06549
 H566 H 0.09305 0.61434 -0.02544
 H567 H 0.04053 0.60489 -0.10943
 C568 C -0.09147 0.69672 0.09296
 C569 C -0.08139 0.70848 0.12135
 C570 C -0.09062 0.73802 0.13034
 C571 C -0.10958 0.75608 0.11104
 C572 C -0.11879 0.74403 0.08224
 C573 C -0.11007 0.71429 0.07325
 C574 C -0.08272 0.66522 0.08391
 C575 C -0.09345 0.65315 0.05586
 C576 C -0.08562 0.62296 0.04766
 C577 C -0.06688 0.60508 0.06716
 C578 C -0.05595 0.61768 0.09500
 C579 C -0.06404 0.64768 0.10363
 C580 C -0.11991 0.70161 0.04510
 C581 C -0.11184 0.67152 0.03663
 C582 C -0.06263 0.69027 0.14042
 C583 C -0.05403 0.66042 0.13166
 H584 H -0.13424 0.71493 0.02962
 H585 H -0.12016 0.66249 0.01492
 H586 H -0.05461 0.69913 0.16235
 H587 H -0.03961 0.64713 0.14707
 H588 H -0.08357 0.74646 0.15270
 H589 H -0.13283 0.75763 0.06680
 H590 H -0.09382 0.61353 0.02601
 H591 H -0.04143 0.60407 0.11005
 C592 C 1.09547 0.09542 0.69563
 C593 C 1.12164 0.08220 0.70905
 C594 C 1.13069 0.09145 0.73869
 C595 C 1.11392 0.11407 0.75525
 C596 C 1.08726 0.12661 0.74111
 C597 C 1.07811 0.11750 0.71146
 C598 C 1.08615 0.08610 0.66426
 C599 C 1.06006 0.09954 0.65073
 C600 C 1.05142 0.09077 0.62084
 C601 C 1.06863 0.06863 0.60460
 C602 C 1.09469 0.05531 0.61854
 C603 C 1.10363 0.06407 0.64835
 C604 C 1.05197 0.13026 0.69724
 C605 C 1.04317 0.12148 0.66737
 C606 C 1.13853 0.06017 0.69243
 C607 C 1.12971 0.05132 0.66257
 H608 H 1.03831 0.14733 0.70922
 H609 H 1.02306 0.13207 0.65715
 H610 H 1.15885 0.04979 0.70250
 H611 H 1.14354 0.03449 0.65046
 H612 H 1.15124 0.08120 0.74814
 H613 H 1.07320 0.14336 0.75286
 H614 H 1.03120 0.10098 0.61037
 H615 H 1.10800 0.03819 0.60622
 C616 C 0.90453 -0.09542 0.69563
 C617 C 0.92188 -0.11750 0.71147
 C618 C 0.91273 -0.12660 0.74111
 C619 C 0.88607 -0.11406 0.75525
 C620 C 0.86931 -0.09145 0.73869
 C621 C 0.87836 -0.08220 0.70905
 C622 C 0.91384 -0.08610 0.66426
 C623 C 0.89637 -0.06407 0.64835
 C624 C 0.90530 -0.05532 0.61853
 C625 C 0.93137 -0.06863 0.60460
 C626 C 0.94858 -0.09077 0.62085
 C627 C 0.93993 -0.09954 0.65073
 C628 C 0.86147 -0.06017 0.69242
 C629 C 0.87028 -0.05132 0.66257
 C630 C 0.94802 -0.13026 0.69725
 C631 C 0.95683 -0.12149 0.66737
 H632 H 0.84115 -0.04978 0.70250
 H633 H 0.85645 -0.03449 0.65046
 H634 H 0.96168 -0.14733 0.70922
 H635 H 0.97693 -0.13208 0.65716
 H636 H 0.92680 -0.14335 0.75286
 H637 H 0.84876 -0.08119 0.74814
 H638 H 0.89199 -0.03819 0.60622
 H639 H 0.96880 -0.10099 0.61037
 C640 C 1.09586 -0.09576 0.30499
 C641 C 1.07866 -0.11811 0.28927
 C642 C 1.08775 -0.12712 0.25958
 C643 C 1.11415 -0.11414 0.24525
 C644 C 1.13086 -0.09137 0.26176
 C645 C 1.12186 -0.08222 0.29144
 C646 C 1.08652 -0.08642 0.33633
 C647 C 1.10380 -0.06406 0.35209
 C648 C 1.09479 -0.05522 0.38186
 C649 C 1.06881 -0.06877 0.39588
 C650 C 1.05181 -0.09125 0.37978
 C651 C 1.06055 -0.10012 0.34995
 C652 C 1.13860 -0.05991 0.30795
 C653 C 1.12975 -0.05103 0.33777
 C654 C 1.05268 -0.13118 0.30361
 C655 C 1.04384 -0.12239 0.33345
 H656 H 1.15878 -0.04927 0.29777
 H657 H 1.14343 -0.03394 0.34977
 H658 H 1.03914 -0.14847 0.29173
 H659 H 1.02383 -0.13319 0.34374
 H660 H 1.07378 -0.14408 0.24793
 H661 H 1.15125 -0.08083 0.25219
 H662 H 1.10794 -0.03784 0.39405
 H663 H 1.03168 -0.10166 0.39032
 C664 C 0.90414 0.09575 0.30498
 C665 C 0.87814 0.08222 0.29143
 C666 C 0.86914 0.09137 0.26175
 C667 C 0.88585 0.11414 0.24524
 C668 C 0.91225 0.12711 0.25957
 C669 C 0.92134 0.11811 0.28926
 C670 C 0.91349 0.08641 0.33632
 C671 C 0.93946 0.10010 0.34994
 C672 C 0.94819 0.09124 0.37977
 C673 C 0.93119 0.06876 0.39587
 C674 C 0.90522 0.05521 0.38185
 C675 C 0.89620 0.06405 0.35209
 C676 C 0.94732 0.13117 0.30360
 C677 C 0.95617 0.12237 0.33345
 C678 C 0.86140 0.05990 0.30794
 C679 C 0.87025 0.05102 0.33776
 H680 H 0.96086 0.14846 0.29172
 H681 H 0.97617 0.13317 0.34374
 H682 H 0.84122 0.04927 0.29776
 H683 H 0.85657 0.03394 0.34976
 H684 H 0.84875 0.08082 0.25218
 H685 H 0.92623 0.14407 0.24793
 H686 H 0.96832 0.10164 0.39031
 H687 H 0.89206 0.03783 0.39404
 C688 C 0.09271 0.30330 -0.09193
 C689 C 0.07429 0.28663 -0.11260
 C690 C 0.08331 0.25691 -0.12138
 C691 C 0.11076 0.24356 -0.10978
 C692 C 0.12841 0.26078 -0.08832
 C693 C 0.11964 0.29054 -0.07958
 C694 C 0.08380 0.33487 -0.08329
 C695 C 0.10249 0.35168 -0.06288
 C696 C 0.09403 0.38173 -0.05485
 C697 C 0.06726 0.39506 -0.06733
 C698 C 0.04878 0.37792 -0.08782
 C699 C 0.05692 0.34774 -0.09581
 C700 C 0.13769 0.30803 -0.05912
 C701 C 0.12933 0.33812 -0.05102
 C702 C 0.04733 0.30015 -0.12436
 C703 C 0.03880 0.33019 -0.11611
 H704 H 0.15861 0.29847 -0.04946
 H705 H 0.14407 0.35092 -0.03544
 H706 H 0.03279 0.28750 -0.14025
 H707 H 0.01795 0.33980 -0.12584
 H708 H 0.06855 0.24435 -0.13702
 H709 H 0.14971 0.25191 -0.07907
 H710 H 0.10830 0.39474 -0.03899
 H711 H 0.02799 0.38793 -0.09733
 C712 C -0.09069 0.30156 0.08932
 C713 C -0.11903 0.28962 0.07928
 C714 C -0.12766 0.25983 0.08818
 C715 C -0.10813 0.24177 0.10686
 C716 C -0.07937 0.25398 0.11602
 C717 C -0.07067 0.28393 0.10755
 C718 C -0.08205 0.33332 0.08098
 C719 C -0.05404 0.34555 0.09165
 C720 C -0.04628 0.37601 0.08424
 C721 C -0.06616 0.39398 0.06600
 C722 C -0.09394 0.38120 0.05512
 C723 C -0.10213 0.35094 0.06278
 C724 C -0.04256 0.29678 0.11732
 C725 C -0.03443 0.32710 0.10957
 C726 C -0.13844 0.30790 0.06098
 C727 C -0.13011 0.33803 0.05282
 H728 H -0.02685 0.28341 0.13133
 H729 H -0.01270 0.33623 0.11780
 H730 H -0.16034 0.29891 0.05301
 H731 H -0.14580 0.35140 0.03878
 H732 H -0.15000 0.25120 0.08123
 H733 H -0.06382 0.24033 0.12989
 H734 H -0.02467 0.38559 0.09239
 H735 H -0.10928 0.39488 0.04097
 C736 C -0.09271 0.69671 -0.09192
 C737 C -0.07430 0.71338 -0.11259
 C738 C -0.08331 0.74310 -0.12137
 C739 C -0.11076 0.75644 -0.10978
 C740 C -0.12842 0.73922 -0.08832
 C741 C -0.11965 0.70946 -0.07958
 C742 C -0.08381 0.66513 -0.08329
 C743 C -0.10250 0.64832 -0.06289
 C744 C -0.09404 0.61828 -0.05485
 C745 C -0.06727 0.60495 -0.06733
 C746 C -0.04879 0.62209 -0.08782
 C747 C -0.05693 0.65226 -0.09581
 C748 C -0.13770 0.69197 -0.05912
 C749 C -0.12934 0.66188 -0.05103
 C750 C -0.04733 0.69986 -0.12435
 C751 C -0.03880 0.66982 -0.11610
 H752 H -0.15862 0.70152 -0.04947
 H753 H -0.14408 0.64908 -0.03545
 H754 H -0.03279 0.71251 -0.14024
 H755 H -0.01795 0.66021 -0.12583
 H756 H -0.06855 0.75566 -0.13701
 H757 H -0.14972 0.74809 -0.07908
 H758 H -0.10831 0.60526 -0.03900
 H759 H -0.02799 0.61208 -0.09732
 C760 C 0.09069 0.69844 0.08932
 C761 C 0.11902 0.71038 0.07929
 C762 C 0.12766 0.74017 0.08819
 C763 C 0.10812 0.75822 0.10686
 C764 C 0.07937 0.74602 0.11602
 C765 C 0.07067 0.71607 0.10756
 C766 C 0.08205 0.66668 0.08098
 C767 C 0.05404 0.65444 0.09166
 C768 C 0.04627 0.62399 0.08425
 C769 C 0.06616 0.60602 0.06600
 C770 C 0.09393 0.61880 0.05513
 C771 C 0.10213 0.64906 0.06279
 C772 C 0.04256 0.70322 0.11732
 C773 C 0.03443 0.67290 0.10958
 C774 C 0.13844 0.69209 0.06098
 C775 C 0.13010 0.66197 0.05283
 H776 H 0.02685 0.71659 0.13134
 H777 H 0.01270 0.66377 0.11781
 H778 H 0.16034 0.70109 0.05302
 H779 H 0.14580 0.64860 0.03879
 H780 H 0.15000 0.74879 0.08123
 H781 H 0.06382 0.75967 0.12989
 H782 H 0.02467 0.61441 0.09240
 H783 H 0.10928 0.60512 0.04098
 C784 C 0.30256 1.09266 0.91038
 C785 C 0.28486 1.07317 0.89159
 C786 C 0.25509 1.08225 0.88294
 C787 C 0.24315 1.11096 0.89232
 C788 C 0.26129 1.12997 0.91157
 C789 C 0.29086 1.12087 0.92077
 C790 C 0.33414 1.08358 0.91894
 C791 C 0.35182 1.10309 0.93777
 C792 C 0.38195 1.09452 0.94556
 C793 C 0.39454 1.06693 0.93421
 C794 C 0.37650 1.04760 0.91539
 C795 C 0.34617 1.05575 0.90782
 C796 C 0.30917 1.13968 0.93976
 C797 C 0.33910 1.13089 0.94821
 C798 C 0.29748 1.04519 0.88143
 C799 C 0.32766 1.03669 0.88932
 H800 H 0.30035 1.16147 0.94804
 H801 H 0.35249 1.14612 0.96277
 H802 H 0.28405 1.02988 0.86697
 H803 H 0.33663 1.01512 0.88074
 H804 H 0.24143 1.06698 0.86873
 H805 H 0.25293 1.15223 0.91883
 H806 H 0.39568 1.10943 0.96018
 H807 H 0.38592 1.02613 0.90688
 C808 C 0.30079 0.90964 1.08869
 C809 C 0.28870 0.88161 1.07810
 C810 C 0.25886 0.87290 1.08693
 C811 C 0.24090 0.89207 1.10609
 C812 C 0.25324 0.92060 1.11569
 C813 C 0.28325 0.92932 1.10735
 C814 C 0.33265 0.91828 1.08054
 C815 C 0.34506 0.94593 1.09184
 C816 C 0.37562 0.95368 1.08463
 C817 C 0.39352 0.93412 1.06598
 C818 C 0.38057 0.90671 1.05449
 C819 C 0.35020 0.89854 1.06191
 C820 C 0.29626 0.95710 1.11771
 C821 C 0.32668 0.96520 1.11017
 C822 C 0.30690 0.86256 1.05933
 C823 C 0.33710 0.87092 1.05131
 H824 H 0.28295 0.97255 1.13207
 H825 H 0.33595 0.98663 1.11889
 H826 H 0.29779 0.84090 1.05092
 H827 H 0.35042 0.85549 1.03694
 H828 H 0.25016 0.85076 1.07956
 H829 H 0.23968 0.93594 1.12987
 H830 H 0.38533 0.97501 1.09326
 H831 H 0.39419 0.89162 1.04002
 C832 C 0.69921 1.09035 1.08868
 C833 C 0.71676 1.07067 1.10733
 C834 C 0.74677 1.07939 1.11567
 C835 C 0.75911 1.10792 1.10607
 C836 C 0.74115 1.12709 1.08691
 C837 C 0.71131 1.11838 1.07808
 C838 C 0.66736 1.08171 1.08053
 C839 C 0.64980 1.10145 1.06190
 C840 C 0.61943 1.09328 1.05448
 C841 C 0.60648 1.06587 1.06597
 C842 C 0.62439 1.04631 1.08462
 C843 C 0.65494 1.05406 1.09183
 C844 C 0.69311 1.13743 1.05931
 C845 C 0.66290 1.12907 1.05129
 C846 C 0.70375 1.04289 1.11770
 C847 C 0.67333 1.03479 1.11016
 H848 H 0.70222 1.15908 1.05090
 H849 H 0.64959 1.14450 1.03693
 H850 H 0.71705 1.02744 1.13206
 H851 H 0.66406 1.01336 1.11888
 H852 H 0.76032 1.06405 1.12985
 H853 H 0.74984 1.14923 1.07955
 H854 H 0.60581 1.10838 1.04001
 H855 H 0.61467 1.02498 1.09325
 C856 C 0.69743 0.90734 0.91037
 C857 C 0.70913 0.87913 0.92076
 C858 C 0.73870 0.87003 0.91156
 C859 C 0.75684 0.88903 0.89231
 C860 C 0.74489 0.91775 0.88293
 C861 C 0.71513 0.92683 0.89158
 C862 C 0.66585 0.91641 0.91893
 C863 C 0.65381 0.94425 0.90782
 C864 C 0.62349 0.95240 0.91538
 C865 C 0.60545 0.93307 0.93421
 C866 C 0.61804 0.90548 0.94556
 C867 C 0.64817 0.89690 0.93777
 C868 C 0.70251 0.95481 0.88143
 C869 C 0.67233 0.96330 0.88931
 C870 C 0.69082 0.86031 0.93975
 C871 C 0.66089 0.86911 0.94820
 H872 H 0.71594 0.97011 0.86696
 H873 H 0.66336 0.98488 0.88074
 H874 H 0.69964 0.83852 0.94803
 H875 H 0.64750 0.85387 0.96277
 H876 H 0.74706 0.84777 0.91882
 H877 H 0.75856 0.93302 0.86873
 H878 H 0.61407 0.97386 0.90688
 H879 H 0.60431 0.89056 0.96017
   
