data_POSCAR
  _audit_creation_date              2014-09-24
  _audit_creation_method            'ToBaCCo'
  _symmetry_space_group_name_H-M    'P1'
  _symmetry_Int_Tables_number       1
  _symmetry_cell_setting            triclinic
  loop_
  _symmetry_equiv_pos_as_xyz
 x,y,z
_cell_length_a 51.5158
_cell_length_b 50.3797
_cell_length_c 19.2053
_cell_angle_alpha 90.089300
_cell_angle_beta 90.453300
_cell_angle_gamma 120.291300
loop_
  _atom_site_label
  _atom_site_type_symbol
  _atom_site_fract_x
  _atom_site_fract_y
  _atom_site_fract_z
O1 O 0.21510 0.46475 0.44190
 O2 O 0.27048 0.46569 0.56542
 O3 O 0.21796 0.46271 0.57522
 O4 O 0.26750 0.46852 0.43095
 O5 O 0.28961 0.51914 0.43631
 O6 O 0.24170 0.51340 0.58332
 O7 O 0.29304 0.51631 0.57183
 O8 O 0.23737 0.51535 0.44977
 Cu9 Cu 0.24059 0.46030 0.50282
 Cu10 Cu 0.26788 0.52115 0.51062
 C11 C 0.21638 0.48987 0.42636
 C12 C 0.29128 0.49120 0.58949
 C13 C 0.22117 0.48713 0.60298
 C14 C 0.28701 0.49492 0.40914
 O15 O 0.52831 -0.20532 0.57189
 O16 O 0.53134 -0.24848 0.41895
 O17 O 0.53226 -0.19659 0.43777
 O18 O 0.53181 -0.25487 0.55476
 O19 O 0.48223 -0.28145 0.54910
 O20 O 0.48261 -0.22237 0.43538
 O21 O 0.48170 -0.27407 0.41446
 O22 O 0.47870 -0.23265 0.56748
 Cu23 Cu 0.53594 -0.22377 0.49617
 Cu24 Cu 0.47641 -0.25539 0.49071
 C25 C 0.50275 -0.21178 0.59551
 C26 C 0.50676 -0.26857 0.39056
 C27 C 0.50750 -0.19927 0.41778
 C28 C 0.50694 -0.27791 0.57258
 O29 O 1.18235 0.76008 0.57529
 O30 O 1.23788 0.80922 0.44674
 O31 O 1.18679 0.75765 0.43992
 O32 O 1.23706 0.80857 0.58166
 O33 O 1.25731 0.77906 0.58896
 O34 O 1.20951 0.73050 0.44675
 O35 O 1.26052 0.78201 0.45520
 O36 O 1.20328 0.73119 0.58128
 Cu37 Cu 1.20871 0.78655 0.51055
 Cu38 Cu 1.23464 0.75276 0.51884
 C39 C 1.18303 0.73710 0.59964
 C40 C 1.25895 0.80451 0.42987
 C41 C 1.19011 0.73558 0.41871
 C42 C 1.25627 0.80254 0.60810
 O43 O 0.74995 0.53445 0.53958
 O44 O 0.80048 0.53205 0.40760
 O45 O 0.75141 0.53577 0.40403
 O46 O 0.79891 0.53177 0.54371
 O47 O 0.77265 0.48103 0.53882
 O48 O 0.72353 0.48511 0.40427
 O49 O 0.77252 0.48140 0.40444
 O50 O 0.72352 0.48372 0.53908
 Cu51 Cu 0.77797 0.53863 0.47354
 Cu52 Cu 0.74531 0.47775 0.47104
 C53 C 0.72824 0.50944 0.56221
 C54 C 0.79520 0.50614 0.38434
 C55 C 0.72887 0.51106 0.38181
 C56 C 0.79398 0.50575 0.56462
 O57 O 0.43016 0.19696 0.56528
 O58 O 0.43790 0.24766 0.41803
 O59 O 0.43831 0.19651 0.43092
 O60 O 0.42667 0.24700 0.54970
 O61 O 0.47556 0.27422 0.57015
 O62 O 0.48724 0.22392 0.45073
 O63 O 0.48680 0.27481 0.43857
 O64 O 0.47905 0.22477 0.58444
 Cu65 Cu 0.42830 0.21917 0.48934
 Cu66 Cu 0.48701 0.25207 0.51322
 C67 C 0.45347 0.20228 0.59990
 C68 C 0.46383 0.26991 0.40340
 C69 C 0.46479 0.20191 0.41977
 C70 C 0.44912 0.26941 0.57942
 O71 O 0.75146 0.19239 0.45078
 O72 O 0.80883 0.25217 0.56481
 O73 O 0.75982 0.19905 0.58532
 O74 O 0.79771 0.24696 0.43101
 O75 O 0.76925 0.26806 0.43937
 O76 O 0.73305 0.22197 0.59334
 O77 O 0.78177 0.27485 0.57115
 O78 O 0.72327 0.21375 0.46008
 Cu79 Cu 0.78226 0.22046 0.50737
 Cu80 Cu 0.74906 0.24679 0.51717
 C81 C 0.72763 0.19278 0.43608
 C82 C 0.80543 0.27405 0.58634
 C83 C 0.73961 0.20230 0.61507
 C84 C 0.78970 0.26563 0.40907
 O85 O 0.96794 0.50068 -0.10188
 O86 O 1.02646 0.52836 0.13644
 O87 O 0.95847 0.49988 0.01906
 O88 O 1.06237 0.54130 -0.05274
 O89 O 0.97037 0.49412 0.12300
 O90 O 1.02171 0.54042 -0.09015
 O91 O 1.06508 0.53505 0.07341
 O92 O 0.92934 0.45768 -0.06656
 C93 C 0.94088 0.47950 -0.11325
 C94 C 1.05375 0.54403 0.12024
 C95 C 0.95798 0.50399 0.08264
 C96 C 1.04932 0.55500 -0.07621
 O97 O 1.03725 0.50310 -0.14422
 O98 O 0.97901 0.44576 0.11595
 O99 O 0.96169 0.43374 -0.04657
 O100 O 1.05399 0.47702 0.04969
 O101 O 1.03289 0.48118 0.14146
 O102 O 0.98442 0.45948 -0.13761
 O103 O 1.04828 0.48037 -0.06925
 O104 O 0.94174 0.44362 0.06027
 Co105 Co 1.00299 0.49957 -0.10701
 Co106 Co 1.00211 0.48740 0.11728
 Co107 Co 0.96226 0.46777 -0.01408
 Co108 Co 1.05336 0.50712 -0.00053
 O109 O 1.00691 0.49042 0.00410
 C110 C 1.04904 0.48762 -0.13023
 C111 C 0.95171 0.43169 0.10185
 C112 C 0.96923 0.43404 -0.10791
 C113 C 1.04940 0.47311 0.11269
 O114 O 0.50077 0.47387 -0.12945
 O115 O 0.48060 0.50834 0.13942
 O116 O 0.53569 0.47133 0.07033
 O117 O 0.45807 0.49907 -0.06917
 O118 O 0.50061 0.47404 0.12187
 O119 O 0.48923 0.51546 -0.15029
 O120 O 0.45343 0.50425 0.05014
 O121 O 0.50128 0.45475 -0.03020
 C122 C 0.49190 0.45077 -0.09109
 C123 C 0.45584 0.50157 0.11343
 C124 C 0.51482 0.46048 0.11320
 C125 C 0.46273 0.50099 -0.13183
 O126 O 0.54312 0.55709 -0.10811
 O127 O 0.55644 0.52427 0.11800
 O128 O 0.55664 0.47809 -0.05908
 O129 O 0.50043 0.56180 0.05414
 O130 O 0.53229 0.55677 0.12359
 O131 O 0.55877 0.51848 -0.10634
 O132 O 0.50423 0.55979 -0.07451
 O133 O 0.57099 0.52487 0.01349
 Co134 Co 0.52182 0.51555 -0.11160
 Co135 Co 0.51734 0.51542 0.11394
 Co136 Co 0.53491 0.49058 -0.00969
 Co137 Co 0.48204 0.52985 -0.01002
 O138 O 0.51233 0.51321 0.00113
 C139 C 0.52969 0.57189 -0.10308
 C140 C 0.57740 0.53196 0.07573
 C141 C 0.56557 0.49754 -0.11075
 C142 C 0.52058 0.57197 0.10168
 O143 O 0.52862 0.03651 -0.13345
 O144 O 0.50169 -0.02334 0.13215
 O145 O 0.54367 0.04574 0.08016
 O146 O 0.47702 -0.05904 -0.07403
 O147 O 0.50888 0.02872 0.15260
 O148 O 0.51160 -0.01839 -0.12176
 O149 O 0.50697 -0.04104 0.03495
 O150 O 0.55335 0.05726 -0.03900
 C151 C 0.55268 0.05432 -0.10311
 C152 C 0.51320 -0.03602 0.09798
 C153 C 0.53613 0.04285 0.14128
 C154 C 0.49919 -0.04656 -0.11319
 O155 O 0.45421 -0.03008 -0.12701
 O156 O 0.45653 0.01207 0.09764
 O157 O 0.50538 0.06489 -0.05491
 O158 O 0.45125 -0.07771 0.04949
 O159 O 0.44401 -0.04245 0.09710
 O160 O 0.47513 0.02730 -0.12716
 O161 O 0.43707 -0.04644 -0.02491
 O162 O 0.49560 0.05648 0.07140
 Co163 Co 0.49219 0.00325 -0.11558
 Co164 Co 0.47947 -0.00545 0.10801
 Co165 Co 0.52183 0.05177 0.01426
 Co166 Co 0.47313 -0.04166 0.00568
 O167 O 0.49353 0.00409 -0.00197
 C168 C 0.43223 -0.04447 -0.08755
 C169 C 0.46890 0.04076 0.09342
 C170 C 0.48604 0.05439 -0.10440
 C171 C 0.43909 -0.06993 0.09912
 C172 C 1.19266 0.48974 0.38356
 C173 C 1.16759 0.46255 0.36072
 C174 C 1.14142 0.46229 0.32839
 C175 C 1.12461 0.44033 0.27699
 C176 C 1.10043 0.44053 0.24399
 C177 C 1.09245 0.46243 0.26296
 C178 C 1.10817 0.48318 0.31718
 C179 C 1.13257 0.48328 0.34939
 C180 C 1.06904 0.46534 0.22507
 C181 C 1.06532 0.46103 0.15328
 H182 H 1.16722 0.44095 0.36591
 H183 H 1.13068 0.42353 0.26119
 H184 H 1.08813 0.42369 0.20356
 H185 H 1.10216 0.50001 0.33312
 H186 H 1.14442 0.49972 0.39080
 H187 H 1.05821 0.47608 0.25180
 H188 H 1.19410 0.51159 0.37350
 H189 H 1.07798 0.45277 0.12495
 C190 C 0.50647 0.71365 0.32972
 C191 C 0.53243 0.71642 0.30075
 C192 C 0.53098 0.69502 0.24593
 C193 C 0.55381 0.68766 0.24278
 C194 C 0.55112 0.66459 0.19766
 C195 C 0.52545 0.64847 0.15478
 C196 C 0.50390 0.65765 0.15382
 C197 C 0.50660 0.68071 0.19888
 C198 C 0.51958 0.62110 0.11357
 C199 C 0.53112 0.60238 0.13288
 H200 H 0.55407 0.73231 0.32404
 H201 H 0.57317 0.69890 0.27730
 H202 H 0.56893 0.65917 0.19754
 H203 H 0.48429 0.64611 0.12010
 H204 H 0.48926 0.68683 0.19753
 H205 H 0.50287 0.61340 0.07216
 H206 H 0.48464 0.69638 0.30997
 H207 H 0.54679 0.60891 0.17610
 C208 C 0.28063 -0.17508 0.38421
 C209 C 0.30589 -0.17685 0.36598
 C210 C 0.33028 -0.15347 0.32244
 C211 C 0.34966 -0.16118 0.28881
 C212 C 0.37293 -0.13974 0.24722
 C213 C 0.37723 -0.11004 0.23838
 C214 C 0.35844 -0.10206 0.27382
 C215 C 0.33527 -0.12344 0.31554
 C216 C 0.40116 -0.08664 0.19390
 C217 C 0.41598 -0.09365 0.14320
 H218 H 0.30780 -0.19625 0.38347
 H219 H 0.34672 -0.18393 0.29450
 H220 H 0.38754 -0.14659 0.22312
 H221 H 0.36162 -0.07918 0.26904
 H222 H 0.32176 -0.11604 0.34295
 H223 H 0.40646 -0.06300 0.19932
 H224 H 0.27766 -0.15680 0.36363
 H225 H 0.41050 -0.11709 0.13407
 C226 C 0.81611 0.50397 0.33646
 C227 C 0.84112 0.52954 0.30873
 C228 C 0.86524 0.52648 0.27550
 C229 C 0.88004 0.54393 0.21670
 C230 C 0.90273 0.54067 0.18503
 C231 C 0.91133 0.52044 0.21312
 C232 C 0.89721 0.50393 0.27332
 C233 C 0.87426 0.50670 0.30389
 C234 C 0.93488 0.51581 0.18212
 C235 C 0.94023 0.51698 0.11075
 H236 H 0.84331 0.55204 0.31236
 H237 H 0.87372 0.55969 0.19475
 H238 H 0.91372 0.55420 0.13947
 H239 H 0.90368 0.48845 0.29629
 H240 H 0.86384 0.49364 0.35044
 H241 H 0.94568 0.50705 0.21619
 H242 H 0.81276 0.48127 0.32633
 H243 H 0.92862 0.52406 0.07480
 C244 C 0.46715 0.29054 0.34581
 C245 C 0.49549 0.31402 0.32537
 C246 C 0.50053 0.33819 0.27454
 C247 C 0.52950 0.35657 0.24759
 C248 C 0.53592 0.38131 0.20407
 C249 C 0.51361 0.38846 0.18757
 C250 C 0.48431 0.36944 0.21250
 C251 C 0.47787 0.34468 0.25586
 C252 C 0.52159 0.41608 0.14560
 C253 C 0.50664 0.43252 0.15269
 H254 H 0.51522 0.31515 0.34886
 H255 H 0.54738 0.35208 0.26118
 H256 H 0.55859 0.39545 0.18498
 H257 H 0.46629 0.37367 0.19901
 H258 H 0.45535 0.33142 0.27601
 H259 H 0.54096 0.42490 0.11198
 H260 H 0.44697 0.28721 0.32015
 H261 H 0.48862 0.42521 0.18975
 C262 C 0.70518 0.16860 0.39012
 C263 C 0.67691 0.16511 0.37788
 C264 C 0.65447 0.14154 0.32988
 C265 C 0.62390 0.13132 0.33944
 C266 C 0.60218 0.10984 0.29370
 C267 C 0.61071 0.09832 0.23696
 C268 C 0.64132 0.10881 0.22697
 C269 C 0.66301 0.13010 0.27301
 C270 C 0.58865 0.07736 0.18447
 C271 C 0.55805 0.05870 0.19773
 H272 H 0.67053 0.17950 0.40638
 H273 H 0.61681 0.14015 0.38223
 H274 H 0.57892 0.10315 0.30182
 H275 H 0.64850 0.10073 0.18292
 H276 H 0.68643 0.13817 0.26260
 H277 H 0.59680 0.07708 0.13277
 H278 H 0.71100 0.15275 0.36675
 H279 H 0.54960 0.05686 0.24995
 C280 C 0.45095 0.18291 -0.34543
 C281 C 0.47597 0.18843 -0.30498
 C282 C 0.47630 0.16691 -0.25291
 C283 C 0.50154 0.17749 -0.20889
 C284 C 0.50456 0.15737 -0.16411
 C285 C 0.48258 0.12611 -0.16295
 C286 C 0.45655 0.11571 -0.20453
 C287 C 0.45351 0.13586 -0.24935
 C288 C 0.48826 0.10499 -0.12053
 C289 C 0.47601 0.07399 -0.13756
 H290 H 0.49707 0.20959 -0.31302
 H291 H 0.51942 0.20130 -0.21039
 H292 H 0.52469 0.16605 -0.13222
 H293 H 0.43863 0.09197 -0.20339
 H294 H 0.43377 0.12664 -0.28250
 H295 H 0.50521 0.11482 -0.07968
 H296 H 0.42909 0.16318 -0.33528
 H297 H 0.46029 0.06408 -0.18063
 C298 C 0.70946 0.51060 -0.38747
 C299 C 0.68499 0.48403 -0.36040
 C300 C 0.66371 0.48414 -0.30898
 C301 C 0.64442 0.45675 -0.27405
 C302 C 0.62347 0.45555 -0.22643
 C303 C 0.62106 0.48161 -0.21326
 C304 C 0.64059 0.50918 -0.24764
 C305 C 0.66150 0.51038 -0.29532
 C306 C 0.59837 0.47933 -0.16290
 C307 C 0.58766 0.49981 -0.16168
 H308 H 0.68135 0.46180 -0.37694
 H309 H 0.64554 0.43616 -0.28365
 H310 H 0.60886 0.43407 -0.20036
 H311 H 0.64013 0.53005 -0.23766
 H312 H 0.67545 0.53184 -0.32176
 H313 H 0.58897 0.46019 -0.12705
 H314 H 0.71448 0.53303 -0.36927
 H315 H 0.59514 0.51797 -0.19965
 C316 C 0.82802 0.29800 -0.37450
 C317 C 0.85438 0.29849 -0.35400
 C318 C 0.87973 0.32562 -0.32000
 C319 C 0.89765 0.32162 -0.27049
 C320 C 0.92159 0.34711 -0.23737
 C321 C 0.92833 0.37701 -0.25463
 C322 C 0.91118 0.38097 -0.30624
 C323 C 0.88696 0.35555 -0.33825
 C324 C 0.95215 0.40453 -0.21838
 C325 C 0.95729 0.40503 -0.14684
 H326 H 0.85632 0.27824 -0.36153
 H327 H 0.89277 0.29874 -0.25658
 H328 H 0.93482 0.34343 -0.19865
 H329 H 0.91609 0.40382 -0.32064
 H330 H 0.87414 0.35939 -0.37782
 H331 H 0.96128 0.42626 -0.24541
 H332 H 0.82503 0.31712 -0.36043
 H333 H 0.94638 0.38381 -0.11771
 C334 C 0.50025 -0.19594 -0.34807
 C335 C 0.52476 -0.17104 -0.31552
 C336 C 0.52031 -0.15225 -0.26295
 C337 C 0.54058 -0.12054 -0.25960
 C338 C 0.53480 -0.10168 -0.21676
 C339 C 0.50856 -0.11437 -0.17634
 C340 C 0.48955 -0.14636 -0.17584
 C341 C 0.49533 -0.16516 -0.21863
 C342 C 0.49979 -0.09519 -0.13569
 C343 C 0.51037 -0.06429 -0.14991
 H344 H 0.54724 -0.16294 -0.33478
 H345 H 0.56032 -0.11017 -0.29219
 H346 H 0.55079 -0.07729 -0.21627
 H347 H 0.46961 -0.15679 -0.14391
 H348 H 0.47993 -0.18973 -0.21767
 H349 H 0.48262 -0.10639 -0.09654
 H350 H 0.47772 -0.20248 -0.33179
 H351 H 0.52689 -0.05257 -0.18992
 C352 C 0.31260 0.49218 -0.36417
 C353 C 0.31545 0.46666 -0.34950
 C354 C 0.33858 0.46918 -0.30010
 C355 C 0.35690 0.45700 -0.31743
 C356 C 0.38011 0.46101 -0.27233
 C357 C 0.38460 0.47652 -0.20855
 C358 C 0.36537 0.48744 -0.19008
 C359 C 0.34278 0.48416 -0.23583
 C360 C 0.40902 0.48177 -0.16002
 C361 C 0.43773 0.48964 -0.18218
 H362 H 0.30242 0.44544 -0.37862
 H363 H 0.35376 0.44515 -0.36662
 H364 H 0.39432 0.45185 -0.28700
 H365 H 0.36832 0.49920 -0.14083
 H366 H 0.32852 0.49326 -0.22098
 H367 H 0.40541 0.48357 -0.10509
 H368 H 0.32847 0.51415 -0.34069
 H369 H 0.44253 0.49054 -0.23720
 C370 C 1.15950 0.71701 -0.35153
 C371 C 1.15934 0.69207 -0.32004
 C372 C 1.13480 0.67018 -0.27471
 C373 C 1.14093 0.65309 -0.22679
 C374 C 1.11809 0.63088 -0.18581
 C375 C 1.08843 0.62515 -0.19209
 C376 C 1.08223 0.64215 -0.24027
 C377 C 1.10520 0.66460 -0.28103
 C378 C 1.06336 0.59944 -0.15462
 C379 C 1.06814 0.58751 -0.09370
 H380 H 1.17834 0.68875 -0.32772
 H381 H 1.16342 0.65661 -0.22177
 H382 H 1.12365 0.61742 -0.15154
 H383 H 1.05948 0.63768 -0.24722
 H384 H 1.09943 0.67665 -0.31903
 H385 H 1.04147 0.58750 -0.17982
 H386 H 1.14191 0.72212 -0.34043
 H387 H 1.08953 0.60011 -0.06663
 C388 C 0.81318 0.50438 -0.38025
 C389 C 0.81821 0.47975 -0.37551
 C390 C 0.83739 0.47806 -0.32038
 C391 C 0.85797 0.46865 -0.33731
 C392 C 0.87615 0.46665 -0.28558
 C393 C 0.87326 0.47306 -0.21581
 C394 C 0.85211 0.48166 -0.19858
 C395 C 0.83463 0.48465 -0.25065
 C396 C 0.89157 0.47004 -0.16050
 C397 C 0.92246 0.48271 -0.16746
 H398 H 0.80963 0.46235 -0.41616
 H399 H 0.86019 0.46319 -0.39072
 H400 H 0.89202 0.45949 -0.29977
 H401 H 0.84941 0.48643 -0.14493
 H402 H 0.81849 0.49143 -0.23633
 H403 H 0.88098 0.45965 -0.11163
 H404 H 0.82484 0.52379 -0.34501
 H405 H 0.93365 0.49647 -0.21268
 C406 C 0.44433 0.29045 -0.37653
 C407 C 0.46660 0.31128 -0.33124
 C408 C 0.46398 0.33512 -0.29222
 C409 C 0.47917 0.34553 -0.22830
 C410 C 0.47947 0.36992 -0.19292
 C411 C 0.46498 0.38480 -0.22150
 C412 C 0.44965 0.37432 -0.28535
 C413 C 0.44884 0.34945 -0.32014
 C414 C 0.46888 0.41339 -0.18978
 C415 C 0.47391 0.41933 -0.11858
 H416 H 0.48666 0.30979 -0.32306
 H417 H 0.49134 0.33512 -0.20632
 H418 H 0.49236 0.37804 -0.14497
 H419 H 0.43883 0.38580 -0.30898
 H420 H 0.43757 0.34244 -0.37026
 H421 H 0.47111 0.43142 -0.22425
 H422 H 0.42290 0.28952 -0.37999
 H423 H 0.46925 0.40065 -0.08352
 C424 C 0.72273 0.18236 -0.32619
 C425 C 0.69789 0.18306 -0.29975
 C426 C 0.67583 0.16001 -0.25167
 C427 C 0.64613 0.15391 -0.25559
 C428 C 0.62414 0.13211 -0.21245
 C429 C 0.63146 0.11621 -0.16344
 C430 C 0.66137 0.12298 -0.15746
 C431 C 0.68342 0.14450 -0.20194
 C432 C 0.60783 0.09303 -0.11829
 C433 C 0.57932 0.07299 -0.14562
 H434 H 0.69229 0.19942 -0.32145
 H435 H 0.63980 0.16580 -0.29293
 H436 H 0.60141 0.12794 -0.21691
 H437 H 0.66752 0.11125 -0.11930
 H438 H 0.70632 0.14927 -0.19671
 H439 H 0.61271 0.09201 -0.06372
 H440 H 0.72811 0.16531 -0.30835
 H441 H 0.57586 0.07234 -0.20149
 C442 C 1.20061 0.48547 -0.34249
 C443 C 1.17010 0.46340 -0.34465
 C444 C 1.14840 0.46479 -0.29707
 C445 C 1.11973 0.45711 -0.32199
 C446 C 1.09935 0.45960 -0.27853
 C447 C 1.10716 0.46918 -0.20893
 C448 C 1.13541 0.47575 -0.18346
 C449 C 1.15598 0.47389 -0.22722
 C450 C 1.08636 0.47201 -0.16102
 C451 C 1.06589 0.48096 -0.18214
 H452 H 1.16149 0.44699 -0.38736
 H453 H 1.11335 0.44976 -0.37554
 H454 H 1.07744 0.45367 -0.29913
 H455 H 1.14177 0.48282 -0.12975
 H456 H 1.17769 0.47930 -0.20623
 H457 H 1.08940 0.46993 -0.10578
 H458 H 1.20870 0.50442 -0.30583
 H459 H 1.06422 0.48580 -0.23635
 C460 C 0.50613 0.70053 -0.38058
 C461 C 0.53195 0.70257 -0.35057
 C462 C 0.53054 0.68117 -0.29574
 C463 C 0.55439 0.67542 -0.28763
 C464 C 0.55328 0.65487 -0.23691
 C465 C 0.52833 0.63996 -0.19269
 C466 C 0.50512 0.64675 -0.19921
 C467 C 0.50615 0.66705 -0.24999
 C468 C 0.52455 0.61634 -0.14116
 C469 C 0.54145 0.60163 -0.13885
 H470 H 0.55390 0.71994 -0.36867
 H471 H 0.57370 0.68647 -0.32142
 H472 H 0.57192 0.65080 -0.23299
 H473 H 0.48577 0.63591 -0.16547
 H474 H 0.48791 0.67181 -0.25267
 H475 H 0.50502 0.60755 -0.10799
 H476 H 0.48425 0.68164 -0.36651
 H477 H 0.56132 0.60957 -0.17019
 C478 C 0.27929 -0.17666 -0.34174
 C479 C 0.28252 -0.14902 -0.31802
 C480 C 0.31116 -0.12605 -0.28479
 C481 C 0.31159 -0.11165 -0.22183
 C482 C 0.33908 -0.09128 -0.18903
 C483 C 0.36641 -0.08454 -0.21999
 C484 C 0.36579 -0.09796 -0.28441
 C485 C 0.33850 -0.11873 -0.31612
 C486 C 0.39603 -0.06363 -0.18762
 C487 C 0.40132 -0.06106 -0.11585
 H488 H 0.26466 -0.14387 -0.32545
 H489 H 0.29073 -0.11678 -0.19727
 H490 H 0.33892 -0.08070 -0.14008
 H491 H 0.38653 -0.09288 -0.30961
 H492 H 0.33873 -0.12911 -0.36539
 H493 H 0.41515 -0.05255 -0.22203
 H494 H 0.29657 -0.18203 -0.32786
 H495 H 0.38288 -0.07345 -0.08027
 C496 C 0.50712 -0.17510 0.37564
 C497 C 0.53294 -0.15102 0.34604
 C498 C 0.53258 -0.12511 0.31074
 C499 C 0.55114 -0.11098 0.25323
 C500 C 0.55045 -0.08683 0.21862
 C501 C 0.53163 -0.07604 0.24218
 C502 C 0.51413 -0.08935 0.30150
 C503 C 0.51439 -0.11374 0.33513
 C504 C 0.52857 -0.05189 0.20570
 C505 C 0.53028 -0.04838 0.13342
 H506 H 0.55370 -0.15157 0.34710
 H507 H 0.56572 -0.11904 0.23429
 H508 H 0.56468 -0.07663 0.17388
 H509 H 0.49960 -0.08131 0.32102
 H510 H 0.50055 -0.12350 0.38065
 H511 H 0.51891 -0.04065 0.23512
 H512 H 0.48574 -0.17616 0.36839
 H513 H 0.53861 -0.06032 0.10210
 C514 C 0.30729 0.49792 0.35236
 C515 C 0.31172 0.47381 0.33281
 C516 C 0.33444 0.47763 0.28100
 C517 C 0.34920 0.46079 0.28846
 C518 C 0.37175 0.46496 0.24210
 C519 C 0.37958 0.48574 0.18667
 C520 C 0.36385 0.50152 0.17737
 C521 C 0.34164 0.49772 0.22435
 C522 C 0.40403 0.49160 0.13810
 C523 C 0.42963 0.49078 0.15897
 H524 H 0.30023 0.45236 0.36108
 H525 H 0.34371 0.44485 0.33115
 H526 H 0.38288 0.45179 0.24950
 H527 H 0.36921 0.51734 0.13448
 H528 H 0.33002 0.51035 0.21597
 H529 H 0.40344 0.50012 0.08666
 H530 H 0.32082 0.52039 0.32939
 H531 H 0.43185 0.48515 0.21225
 C532 C 1.17107 0.71530 0.36161
 C533 C 1.17754 0.69408 0.33100
 C534 C 1.15826 0.67024 0.27910
 C535 C 1.17034 0.65463 0.24341
 C536 C 1.15240 0.63005 0.19876
 C537 C 1.12183 0.62016 0.18957
 C538 C 1.10990 0.63649 0.22318
 C539 C 1.12790 0.66120 0.26772
 C540 C 1.10299 0.59238 0.14637
 C541 C 1.07229 0.57328 0.15757
 H542 H 1.19807 0.69465 0.34674
 H543 H 1.19366 0.66111 0.25111
 H544 H 1.16222 0.61808 0.17308
 H545 H 1.08665 0.63018 0.21567
 H546 H 1.11764 0.67243 0.29450
 H547 H 1.11402 0.58532 0.10901
 H548 H 1.15211 0.71723 0.34397
 H549 H 1.06134 0.57905 0.19777
 C550 C 0.47003 0.18308 0.36952
 C551 C 0.44670 0.15899 0.33183
 C552 C 0.45202 0.14138 0.27755
 C553 C 0.42936 0.11120 0.26158
 C554 C 0.43410 0.09378 0.21172
 C555 C 0.46162 0.10647 0.17638
 C556 C 0.48368 0.13712 0.19028
 C557 C 0.47901 0.15439 0.24023
 C558 C 0.46912 0.08865 0.12725
 C559 C 0.45399 0.05655 0.12317
 H560 H 0.42366 0.15220 0.34385
 H561 H 0.40813 0.10087 0.28866
 H562 H 0.41621 0.07053 0.20150
 H563 H 0.50495 0.14764 0.16330
 H564 H 0.49655 0.17798 0.24897
 H565 H 0.49004 0.10139 0.09920
 H566 H 0.49303 0.18873 0.36170
 H567 H 0.43300 0.04272 0.14985
 C568 C 0.70743 0.51204 0.33249
 C569 C 0.71239 0.53902 0.30041
 C570 C 0.68751 0.54083 0.26641
 C571 C 0.69241 0.55805 0.20546
 C572 C 0.66869 0.55982 0.17372
 C573 C 0.64003 0.54509 0.20395
 C574 C 0.63555 0.52878 0.26603
 C575 C 0.65891 0.52641 0.29660
 C576 C 0.61401 0.54571 0.17302
 C577 C 0.60849 0.54455 0.10143
 H578 H 0.73460 0.55929 0.30166
 H579 H 0.71445 0.56974 0.18201
 H580 H 0.67287 0.57298 0.12644
 H581 H 0.61371 0.51740 0.29051
 H582 H 0.65469 0.51372 0.34466
 H583 H 0.59591 0.54133 0.20812
 H584 H 0.68603 0.49110 0.32478
 H585 H 0.62569 0.54775 0.06478
 C586 C 0.80422 0.28550 0.34890
 C587 C 0.82768 0.28577 0.31262
 C588 C 0.84506 0.30910 0.25896
 C589 C 0.87452 0.31607 0.24517
 C590 C 0.89268 0.34000 0.20017
 C591 C 0.88172 0.35758 0.16812
 C592 C 0.85161 0.34921 0.17805
 C593 C 0.83340 0.32520 0.22290
 C594 C 0.90121 0.38518 0.12614
 C595 C 0.93224 0.40233 0.13647
 H596 H 0.83542 0.27030 0.32874
 H597 H 0.88384 0.30357 0.27090
 H598 H 0.91532 0.34472 0.19129
 H599 H 0.84238 0.36187 0.15269
 H600 H 0.81038 0.31963 0.22940
 H601 H 0.89067 0.39384 0.09099
 H602 H 0.79716 0.30182 0.33612
 H603 H 0.94294 0.39502 0.17441
   
