data_POSCAR
  _audit_creation_date              2014-09-24
  _audit_creation_method            'ToBaCCo'
  _symmetry_space_group_name_H-M    'P1'
  _symmetry_Int_Tables_number       1
  _symmetry_cell_setting            triclinic
  loop_
  _symmetry_equiv_pos_as_xyz
 x,y,z
_cell_length_a 51.6742
_cell_length_b 52.5167
_cell_length_c 8.8487
_cell_angle_alpha 90.001000
_cell_angle_beta 90.029000
_cell_angle_gamma 89.998500
loop_
  _atom_site_label
  _atom_site_type_symbol
  _atom_site_fract_x
  _atom_site_fract_y
  _atom_site_fract_z
C1 C 0.32964 0.26325 0.25155
 C2 C 0.32975 0.23715 0.24858
 C3 C 0.30480 0.22933 0.28365
 N4 N 0.28936 0.24980 0.30473
 C5 C 0.30456 0.27051 0.28544
 C6 C 0.29661 0.20375 0.30177
 C7 C 0.26991 0.19741 0.30192
 C8 C 0.25948 0.17582 0.36857
 C9 C 0.23349 0.17588 0.33651
 C10 C 0.22865 0.19748 0.25073
 N11 N 0.25090 0.21081 0.23257
 C12 C 0.20425 0.20401 0.18783
 C13 C 0.19828 0.22961 0.15125
 C14 C 0.17786 0.23759 0.06082
 C15 C 0.17782 0.26370 0.06503
 C16 C 0.19848 0.27078 0.15536
 N17 N 0.21103 0.24997 0.20758
 C18 C 0.20453 0.29600 0.19677
 C19 C 0.22867 0.30274 0.25973
 C20 C 0.23415 0.32573 0.32988
 C21 C 0.26024 0.32568 0.36093
 C22 C 0.26989 0.30265 0.30915
 N23 N 0.25052 0.28872 0.24839
 C24 C 0.29629 0.29585 0.30641
 H25 H 0.34608 0.27548 0.22987
 H26 H 0.34631 0.22533 0.22272
 H27 H 0.25270 0.27206 0.18596
 H28 H 0.26953 0.16155 0.43447
 H29 H 0.21968 0.16168 0.37336
 H30 H 0.16436 0.22586 -0.00158
 H31 H 0.16424 0.27606 0.00766
 H32 H 0.27096 0.34104 0.41325
 H33 H 0.25344 0.22673 0.16371
 H34 H 0.22085 0.34112 0.35379
 C35 C 0.82344 0.26249 0.07285
 C36 C 0.82335 0.23639 0.07549
 C37 C 0.80214 0.22922 0.16098
 N38 N 0.78936 0.25001 0.21178
 C39 C 0.80251 0.27043 0.15911
 C40 C 0.79576 0.20389 0.19868
 C41 C 0.77132 0.19698 0.25695
 C42 C 0.76558 0.17379 0.32401
 C43 C 0.73939 0.17372 0.35156
 C44 C 0.72989 0.19689 0.30084
 N45 N 0.74948 0.21097 0.24361
 C46 C 0.70347 0.20380 0.29886
 C47 C 0.69512 0.22918 0.28021
 C48 C 0.66969 0.23670 0.25784
 C49 C 0.66974 0.26283 0.25600
 C50 C 0.69520 0.27033 0.27726
 N51 N 0.71066 0.24977 0.29230
 C52 C 0.70362 0.29571 0.29410
 C53 C 0.73005 0.30253 0.29591
 C54 C 0.73958 0.32520 0.35341
 C55 C 0.76574 0.32529 0.32603
 C56 C 0.77145 0.30284 0.24987
 N57 N 0.74958 0.28891 0.23375
 C58 C 0.79624 0.29611 0.19294
 H59 H 0.83730 0.27423 0.01338
 H60 H 0.83719 0.22408 0.01990
 H61 H 0.74757 0.27240 0.16961
 H62 H 0.77883 0.15836 0.34841
 H63 H 0.72854 0.15826 0.40177
 H64 H 0.65285 0.22463 0.24516
 H65 H 0.65294 0.27490 0.24193
 H66 H 0.77902 0.34022 0.35891
 H67 H 0.74760 0.22777 0.18229
 H68 H 0.72881 0.34009 0.41000
 C69 C 0.67664 0.76370 0.57020
 C70 C 0.67648 0.73756 0.57083
 C71 C 0.69830 0.72999 0.65015
 N72 N 0.71174 0.75052 0.69790
 C73 C 0.69854 0.77113 0.64924
 C74 C 0.70456 0.70461 0.68746
 C75 C 0.72880 0.69764 0.74884
 C76 C 0.73419 0.67446 0.81705
 C77 C 0.76018 0.67448 0.85057
 C78 C 0.76990 0.69769 0.80221
 N79 N 0.75068 0.71171 0.74063
 C80 C 0.79630 0.70457 0.80384
 C81 C 0.80471 0.72995 0.78620
 C82 C 0.82995 0.73716 0.75604
 C83 C 0.83020 0.76325 0.75478
 C84 C 0.80516 0.77117 0.78688
 N85 N 0.78954 0.75071 0.80483
 C86 C 0.79706 0.79684 0.80314
 C87 C 0.77041 0.80348 0.80062
 C88 C 0.76007 0.82581 0.85913
 C89 C 0.73412 0.82572 0.82551
 C90 C 0.72918 0.80320 0.74926
 N91 N 0.75134 0.78962 0.73540
 C92 C 0.70495 0.79643 0.68709
 H93 H 0.66214 0.77583 0.51907
 H94 H 0.66187 0.72553 0.51998
 H95 H 0.75382 0.77325 0.67059
 H96 H 0.72085 0.65900 0.83879
 H97 H 0.77077 0.65903 0.90287
 H98 H 0.84641 0.72489 0.73562
 H99 H 0.84691 0.77500 0.73114
 H100 H 0.72043 0.84055 0.85426
 H101 H 0.75305 0.72856 0.68035
 H102 H 0.77018 0.84069 0.91974
 C103 C 0.17761 0.73670 0.93684
 C104 C 0.17768 0.76278 0.93704
 C105 C 0.19712 0.77032 0.83877
 N106 N 0.20919 0.74969 0.78005
 C107 C 0.19701 0.72910 0.83842
 C108 C 0.20308 0.79587 0.80081
 C109 C 0.22766 0.80233 0.74046
 C110 C 0.23334 0.82444 0.66090
 C111 C 0.25955 0.82436 0.63483
 C112 C 0.26909 0.80200 0.69641
 N113 N 0.24953 0.78855 0.75929
 C114 C 0.29552 0.79532 0.70219
 C115 C 0.30377 0.76999 0.72294
 C116 C 0.32907 0.76240 0.74912
 C117 C 0.32898 0.73625 0.74840
 C118 C 0.30363 0.72886 0.72172
 N119 N 0.28828 0.74949 0.70627
 C120 C 0.29520 0.70363 0.69952
 C121 C 0.26872 0.69713 0.69365
 C122 C 0.25901 0.67491 0.63134
 C123 C 0.23281 0.67496 0.65803
 C124 C 0.22731 0.69701 0.73861
 N125 N 0.24929 0.71065 0.75739
 C126 C 0.20283 0.70353 0.79998
 H127 H 0.16497 0.72471 1.00349
 H128 H 0.16511 0.77483 1.00384
 H129 H 0.25134 0.72677 0.82492
 H130 H 0.22003 0.83920 0.62584
 H131 H 0.27036 0.83908 0.57710
 H132 H 0.34585 0.77441 0.76542
 H133 H 0.34568 0.72410 0.76401
 H134 H 0.21938 0.66031 0.62275
 H135 H 0.25145 0.77233 0.82621
 H136 H 0.26969 0.66020 0.57269
 O137 O 1.02577 0.02810 -0.09779
 O138 O 0.97526 -0.02065 -0.14665
 O139 O 0.97540 0.02820 -0.09639
 O140 O 1.02564 -0.02078 -0.14757
 O141 O 1.02580 -0.02759 0.09828
 O142 O 0.97556 0.02136 0.14946
 O143 O 0.97545 -0.02750 0.09918
 O144 O 1.02597 0.02129 0.14806
 Cu145 Cu 1.00051 0.00446 -0.14626
 Cu146 Cu 1.00072 -0.00384 0.14792
 C147 C 1.03452 0.03308 0.03306
 C148 C 0.96670 -0.03246 -0.03175
 C149 C 0.96686 0.03318 0.03490
 C150 C 1.03431 -0.03261 -0.03298
 O151 O 0.52530 0.52819 0.40339
 O152 O 0.47511 0.47918 0.35348
 O153 O 0.47494 0.52801 0.40327
 O154 O 0.52547 0.47934 0.35318
 O155 O 0.52554 0.47251 0.59902
 O156 O 0.47496 0.52120 0.64914
 O157 O 0.47519 0.47233 0.59932
 O158 O 0.52540 0.52140 0.64928
 Cu159 Cu 0.50021 0.50442 0.35420
 Cu160 Cu 0.50028 0.49614 0.64839
 C161 C 0.53395 0.53322 0.53440
 C162 C 0.46655 0.46733 0.46822
 C163 C 0.46627 0.53296 0.53429
 C164 C 0.53415 0.46754 0.46785
 O165 O 0.02498 0.52079 -0.14146
 O166 O -0.02539 0.47197 -0.09154
 O167 O -0.02537 0.52080 -0.14186
 O168 O 0.02497 0.47196 -0.09072
 O169 O 0.02496 0.47885 0.15507
 O170 O -0.02541 0.52772 0.10391
 O171 O -0.02547 0.47885 0.15426
 O172 O 0.02494 0.52772 0.10430
 Cu173 Cu -0.00019 0.49563 -0.14057
 Cu174 Cu -0.00025 0.50402 0.15361
 C175 C 0.03357 0.53267 -0.02685
 C176 C -0.03407 0.46703 0.03945
 C177 C -0.03400 0.53267 -0.02736
 C178 C 0.03360 0.46702 0.04046
 O179 O 0.52445 1.02076 0.35241
 O180 O 0.47434 0.97167 0.40317
 O181 O 0.47405 1.02057 0.35433
 O182 O 0.52471 0.97193 0.40293
 O183 O 0.52484 0.97872 0.64879
 O184 O 0.47420 1.02736 0.60022
 O185 O 0.47442 0.97846 0.64905
 O186 O 0.52456 1.02757 0.59828
 Cu187 Cu 0.49937 0.99550 0.35403
 Cu188 Cu 0.49952 1.00375 0.64825
 C189 C 0.53310 1.03260 0.46704
 C190 C 0.46579 0.96664 0.53432
 C191 C 0.46546 1.03234 0.46934
 C192 C 0.53346 0.96698 0.53384
 C193 C 1.14772 0.14606 0.13348
 C194 C 1.14067 0.16976 0.19239
 C195 C 1.15921 0.18890 0.20990
 C196 C 1.18523 0.18472 0.16817
 C197 C 1.19201 0.16066 0.10895
 C198 C 1.17341 0.14155 0.09177
 C199 C 1.12858 0.12638 0.11631
 C200 C 1.11243 0.10998 0.10206
 C201 C 1.09305 0.09052 0.08486
 C202 C 1.08343 0.08463 -0.05876
 C203 C 1.06443 0.06590 -0.07566
 C204 C 1.05477 0.05280 0.05116
 C205 C 1.06459 0.05885 0.19514
 C206 C 1.08361 0.07759 0.21171
 H207 H 1.12085 0.17339 0.22598
 H208 H 1.15328 0.20675 0.26047
 H209 H 1.21166 0.15678 0.07300
 H210 H 1.17907 0.12328 0.04565
 H211 H 1.09056 0.09455 -0.15768
 H212 H 1.05729 0.06172 -0.18801
 H213 H 1.05755 0.04917 0.29502
 H214 H 1.09090 0.08204 0.32348
 C215 C 0.64700 0.64633 0.63458
 C216 C 0.64242 0.66698 0.73100
 C217 C 0.66110 0.68601 0.74771
 C218 C 0.68453 0.68459 0.66772
 C219 C 0.68901 0.66386 0.57095
 C220 C 0.67032 0.64481 0.55457
 C221 C 0.62776 0.62673 0.61784
 C222 C 0.61159 0.61036 0.60378
 C223 C 0.59222 0.59089 0.58657
 C224 C 0.58272 0.58489 0.44283
 C225 C 0.56378 0.56610 0.42589
 C226 C 0.55410 0.55303 0.55273
 C227 C 0.56383 0.55916 0.69679
 C228 C 0.58275 0.57799 0.71343
 H229 H 0.62444 0.66834 0.79343
 H230 H 0.65739 0.70180 0.82340
 H231 H 0.70698 0.66247 0.50852
 H232 H 0.67406 0.62891 0.47971
 H233 H 0.58992 0.59475 0.34384
 H234 H 0.55672 0.56185 0.31346
 H235 H 0.55679 0.54946 0.79667
 H236 H 0.58997 0.58251 0.82520
 C237 C -0.14705 0.35388 0.14028
 C238 C -0.14041 0.33063 0.20669
 C239 C -0.15902 0.31154 0.22361
 C240 C -0.18470 0.31536 0.17401
 C241 C -0.19105 0.33893 0.10688
 C242 C -0.17238 0.35798 0.09030
 C243 C -0.12787 0.37354 0.12354
 C244 C -0.11175 0.38996 0.10944
 C245 C -0.09245 0.40949 0.09212
 C246 C -0.08298 0.42244 0.21881
 C247 C -0.06403 0.44125 0.20194
 C248 C -0.05431 0.44731 0.05787
 C249 C -0.06405 0.43424 -0.06883
 C250 C -0.08299 0.41546 -0.05165
 H251 H -0.12086 0.32731 0.24648
 H252 H -0.15347 0.29403 0.27955
 H253 H -0.21039 0.34246 0.06449
 H254 H -0.17770 0.37589 0.03803
 H255 H -0.09019 0.41797 0.33060
 H256 H -0.05696 0.45098 0.30158
 H257 H -0.05702 0.43847 -0.18131
 H258 H -0.09021 0.40556 -0.15046
 C259 C 0.35247 0.85393 0.64013
 C260 C 0.35127 0.83344 0.53905
 C261 C 0.33269 0.81437 0.55866
 C262 C 0.31520 0.81559 0.67999
 C263 C 0.31638 0.83628 0.78029
 C264 C 0.33495 0.85534 0.76052
 C265 C 0.37178 0.87341 0.62121
 C266 C 0.38800 0.88970 0.60603
 C267 C 0.40742 0.90910 0.58814
 C268 C 0.41691 0.91495 0.44421
 C269 C 0.43590 0.93368 0.42666
 C270 C 0.44564 0.94684 0.55310
 C271 C 0.43592 0.94085 0.69734
 C272 C 0.41695 0.92209 0.71459
 H273 H 0.36471 0.83218 0.44544
 H274 H 0.33193 0.79863 0.47968
 H275 H 0.30302 0.83755 0.87426
 H276 H 0.33569 0.87114 0.83915
 H277 H 0.40966 0.90503 0.34552
 H278 H 0.44294 0.93782 0.31403
 H279 H 0.44300 0.95062 0.79687
 H280 H 0.40972 0.91770 0.82651
 C281 C -0.14673 0.64588 -0.13691
 C282 C -0.14859 0.66573 -0.03180
 C283 C -0.16716 0.68483 -0.05082
 C284 C -0.18402 0.68425 -0.17532
 C285 C -0.18210 0.66426 -0.28021
 C286 C -0.16353 0.64517 -0.26104
 C287 C -0.12751 0.62631 -0.11785
 C288 C -0.11139 0.60993 -0.10207
 C289 C -0.09210 0.59042 -0.08333
 C290 C -0.08266 0.58463 0.06087
 C291 C -0.06381 0.56578 0.07920
 C292 C -0.05413 0.55247 -0.04676
 C293 C -0.06379 0.55840 -0.19128
 C294 C -0.08264 0.57726 -0.20929
 H295 H -0.13569 0.66645 0.06464
 H296 H -0.16845 0.70004 0.03152
 H297 H -0.19491 0.66356 -0.37703
 H298 H -0.16224 0.62992 -0.34314
 H299 H -0.08985 0.59471 0.15912
 H300 H -0.05680 0.56169 0.19195
 H301 H -0.05675 0.54852 -0.29053
 H302 H -0.08981 0.58161 -0.32148
 C303 C 0.35231 1.14531 0.36568
 C304 C 0.35489 1.16847 0.44220
 C305 C 0.33654 1.18772 0.42199
 C306 C 0.31523 1.18418 0.32423
 C307 C 0.31276 1.16055 0.24952
 C308 C 0.33117 1.14136 0.26987
 C309 C 0.37148 1.12568 0.38431
 C310 C 0.38762 1.10929 0.39922
 C311 C 0.40697 1.08980 0.41679
 C312 C 0.41655 1.08392 0.56054
 C313 C 0.43552 1.06517 0.57773
 C314 C 0.44519 1.05203 0.45107
 C315 C 0.43538 1.05803 0.30701
 C316 C 0.41639 1.07681 0.29015
 H317 H 0.37106 1.17164 0.51784
 H318 H 0.33871 1.20520 0.48575
 H319 H 0.29693 1.15714 0.17178
 H320 H 0.32901 1.12350 0.20991
 H321 H 0.40940 1.09387 0.65935
 H322 H 0.44265 1.06101 0.69019
 H323 H 0.44240 1.04829 0.20726
 H324 H 0.40911 1.08122 0.17832
 C325 C 1.14660 -0.14628 -0.13956
 C326 C 1.13943 -0.17002 -0.19747
 C327 C 1.15797 -0.18911 -0.21661
 C328 C 1.18413 -0.18482 -0.17797
 C329 C 1.19097 -0.16078 -0.11851
 C330 C 1.17237 -0.14172 -0.09987
 C331 C 1.12750 -0.12658 -0.12133
 C332 C 1.11147 -0.11011 -0.10621
 C333 C 1.09227 -0.09051 -0.08796
 C334 C 1.08272 -0.07750 -0.21429
 C335 C 1.06389 -0.05860 -0.19664
 C336 C 1.05440 -0.05246 -0.05211
 C337 C 1.06421 -0.06560 0.07420
 C338 C 1.08300 -0.08450 0.05622
 H339 H 1.11952 -0.17371 -0.22912
 H340 H 1.15194 -0.20703 -0.26588
 H341 H 1.21065 -0.15687 -0.08333
 H342 H 1.17810 -0.12344 -0.05397
 H343 H 1.08977 -0.08201 -0.32645
 H344 H 1.05674 -0.04885 -0.29608
 H345 H 1.05733 -0.06134 0.18697
 H346 H 1.09025 -0.09446 0.15476
 C347 C 0.64702 0.35456 0.35806
 C348 C 0.66363 0.35529 0.23314
 C349 C 0.68206 0.33613 0.21254
 C350 C 0.68401 0.31603 0.31661
 C351 C 0.66742 0.31548 0.44232
 C352 C 0.64898 0.33465 0.46276
 C353 C 0.62787 0.37414 0.37802
 C354 C 0.61176 0.39052 0.39405
 C355 C 0.59245 0.41000 0.41268
 C356 C 0.58295 0.42309 0.28658
 C357 C 0.56403 0.44189 0.30435
 C358 C 0.55435 0.44781 0.44878
 C359 C 0.56409 0.43456 0.57490
 C360 C 0.58302 0.41579 0.55681
 H361 H 0.66230 0.37064 0.15176
 H362 H 0.69477 0.33688 0.11536
 H363 H 0.66879 0.30020 0.52412
 H364 H 0.63622 0.33392 0.55976
 H365 H 0.59011 0.41873 0.17445
 H366 H 0.55696 0.45172 0.20500
 H367 H 0.55706 0.43864 0.68759
 H368 H 0.59025 0.40576 0.65515
 C369 C 0.85330 -0.14517 -0.13581
 C370 C 0.85523 -0.16795 -0.05483
 C371 C 0.83667 -0.18705 -0.07408
 C372 C 0.81582 -0.18371 -0.17534
 C373 C 0.81404 -0.16049 -0.25500
 C374 C 0.83264 -0.14145 -0.23550
 C375 C 0.87260 -0.12566 -0.11745
 C376 C 0.88881 -0.10934 -0.10262
 C377 C 0.90822 -0.08992 -0.08491
 C378 C 0.91785 -0.08412 0.05887
 C379 C 0.93683 -0.06538 0.07625
 C380 C 0.94645 -0.05217 -0.05022
 C381 C 0.93659 -0.05808 -0.19430
 C382 C 0.91761 -0.07685 -0.21137
 H383 H 0.87104 -0.17095 0.02361
 H384 H 0.83833 -0.20424 -0.00713
 H385 H 0.79861 -0.15730 -0.33572
 H386 H 0.83100 -0.12389 -0.29902
 H387 H 0.91072 -0.09412 0.15757
 H388 H 0.94398 -0.06128 0.18872
 H389 H 0.94357 -0.04826 -0.29390
 H390 H 0.91028 -0.08118 -0.32318
 C391 C 0.35351 0.35435 0.36302
 C392 C 0.33610 0.35546 0.24191
 C393 C 0.31743 0.33646 0.22381
 C394 C 0.31603 0.31612 0.32660
 C395 C 0.33351 0.31512 0.44807
 C396 C 0.35216 0.33416 0.46620
 C397 C 0.37281 0.37386 0.38105
 C398 C 0.38900 0.39020 0.39594
 C399 C 0.40835 0.40966 0.41392
 C400 C 0.41781 0.42270 0.28757
 C401 C 0.43673 0.44151 0.30500
 C402 C 0.44643 0.44751 0.44933
 C403 C 0.43675 0.43430 0.57564
 C404 C 0.41785 0.41550 0.55788
 H405 H 0.33698 0.37099 0.16150
 H406 H 0.30413 0.33749 0.12933
 H407 H 0.33266 0.29959 0.52849
 H408 H 0.36553 0.33313 0.56037
 H409 H 0.41058 0.41831 0.17560
 H410 H 0.44378 0.45132 0.20555
 H411 H 0.44379 0.43846 0.68828
 H412 H 0.41066 0.40552 0.65647
 C413 C 0.14626 0.64585 -0.13709
 C414 C 0.13907 0.66960 -0.19475
 C415 C 0.15765 0.68863 -0.21526
 C416 C 0.18386 0.68425 -0.17822
 C417 C 0.19073 0.66019 -0.11937
 C418 C 0.17210 0.64120 -0.09926
 C419 C 0.12712 0.62623 -0.11737
 C420 C 0.11103 0.60984 -0.10128
 C421 C 0.09175 0.59033 -0.08247
 C422 C 0.08223 0.57722 -0.20849
 C423 C 0.06334 0.55840 -0.19056
 C424 C 0.05372 0.55245 -0.04604
 C425 C 0.06346 0.56571 0.08001
 C426 C 0.08235 0.58453 0.06174
 H427 H 0.11912 0.67336 -0.22503
 H428 H 0.15157 0.70657 -0.26413
 H429 H 0.21046 0.65621 -0.08541
 H430 H 0.17786 0.62290 -0.05378
 H431 H 0.08937 0.58158 -0.32068
 H432 H 0.05625 0.54857 -0.28986
 H433 H 0.05648 0.56161 0.19278
 H434 H 0.08958 0.59457 0.16003
 C435 C 0.64641 1.14528 0.35966
 C436 C 0.64867 1.16492 0.46599
 C437 C 0.66729 1.18396 0.44661
 C438 C 0.68376 1.18355 0.32040
 C439 C 0.68148 1.16376 0.21451
 C440 C 0.66288 1.14472 0.23408
 C441 C 0.62709 1.12582 0.37873
 C442 C 0.61085 1.10954 0.39418
 C443 C 0.59142 1.09016 0.41235
 C444 C 0.58195 1.08435 0.55635
 C445 C 0.56299 1.06560 0.57419
 C446 C 0.55324 1.05240 0.44795
 C447 C 0.56291 1.05837 0.30355
 C448 C 0.58187 1.07714 0.28604
 H449 H 0.63604 1.16552 0.56359
 H450 H 0.66888 1.19903 0.52968
 H451 H 0.69404 1.16317 0.11662
 H452 H 0.66130 1.12961 0.15128
 H453 H 0.58920 1.09432 0.65486
 H454 H 0.55597 1.06148 0.68685
 H455 H 0.55582 1.04858 0.20410
 H456 H 0.58907 1.08150 0.17400
 C457 C 0.14691 0.35422 0.14280
 C458 C 0.17074 0.35637 0.06854
 C459 C 0.18947 0.33737 0.08534
 C460 C 0.18454 0.31606 0.17686
 C461 C 0.16057 0.31398 0.25068
 C462 C 0.14185 0.33297 0.23357
 C463 C 0.12765 0.37380 0.12601
 C464 C 0.11145 0.39014 0.11182
 C465 C 0.09205 0.40956 0.09423
 C466 C 0.08257 0.41546 -0.04968
 C467 C 0.06358 0.43418 -0.06718
 C468 C 0.05382 0.44728 0.05932
 C469 C 0.06352 0.44125 0.20359
 C470 C 0.08250 0.42249 0.22079
 H471 H 0.17484 0.37274 -0.00204
 H472 H 0.20782 0.33924 0.02726
 H473 H 0.15647 0.29772 0.32205
 H474 H 0.12347 0.33112 0.29147
 H475 H 0.08982 0.40556 -0.14837
 H476 H 0.05655 0.43836 -0.17976
 H477 H 0.05641 0.45098 0.30321
 H478 H 0.08970 0.41805 0.33277
 C479 C 0.64745 0.85485 0.63599
 C480 C 0.67109 0.85678 0.55953
 C481 C 0.68978 0.83772 0.57578
 C482 C 0.68498 0.81657 0.66875
 C483 C 0.66129 0.81482 0.74587
 C484 C 0.64260 0.83385 0.72923
 C485 C 0.62813 0.87436 0.61862
 C486 C 0.61186 0.89062 0.60399
 C487 C 0.59234 0.90993 0.58639
 C488 C 0.58275 0.92277 0.71310
 C489 C 0.56362 0.94140 0.69625
 C490 C 0.55382 0.94738 0.55215
 C491 C 0.56363 0.93436 0.42544
 C492 C 0.58277 0.91578 0.44259
 H493 H 0.67505 0.87299 0.48748
 H494 H 0.70797 0.83941 0.51592
 H495 H 0.65735 0.79875 0.81906
 H496 H 0.62440 0.83221 0.78921
 H497 H 0.59002 0.91837 0.82494
 H498 H 0.55648 0.95105 0.79603
 H499 H 0.55651 0.93851 0.31300
 H500 H 0.59006 0.90594 0.34374
 C501 C 0.85334 0.14567 0.14240
 C502 C 0.85810 0.16639 0.23803
 C503 C 0.83937 0.18535 0.25623
 C504 C 0.81570 0.18378 0.17866
 C505 C 0.81105 0.16297 0.08262
 C506 C 0.82978 0.14400 0.06473
 C507 C 0.87265 0.12617 0.12399
 C508 C 0.88889 0.10989 0.10873
 C509 C 0.90835 0.09054 0.09031
 C510 C 0.91805 0.07760 0.21649
 C511 C 0.93706 0.05889 0.19867
 C512 C 0.94665 0.05290 0.05414
 C513 C 0.93675 0.06601 -0.07206
 C514 C 0.91772 0.08469 -0.05392
 H515 H 0.87627 0.16788 0.29853
 H516 H 0.84326 0.20122 0.33103
 H517 H 0.79293 0.16150 0.02163
 H518 H 0.82591 0.12806 -0.00961
 H519 H 0.91093 0.08199 0.32865
 H520 H 0.94427 0.04916 0.29805
 H521 H 0.94369 0.06187 -0.18488
 H522 H 0.91034 0.09458 -0.15238
 C523 C 0.35201 0.64487 0.63704
 C524 C 0.33434 0.64336 0.75662
 C525 C 0.31579 0.66244 0.77633
 C526 C 0.31475 0.68323 0.67670
 C527 C 0.33235 0.68451 0.55594
 C528 C 0.35093 0.66543 0.53647
 C529 C 0.37142 0.62545 0.61867
 C530 C 0.38775 0.60924 0.60395
 C531 C 0.40733 0.58998 0.58667
 C532 C 0.41688 0.57707 0.71341
 C533 C 0.43604 0.55847 0.69666
 C534 C 0.44592 0.55257 0.55268
 C535 C 0.43616 0.56565 0.42599
 C536 C 0.41700 0.58421 0.44303
 H537 H 0.33499 0.62752 0.83496
 H538 H 0.30235 0.66114 0.86998
 H539 H 0.33172 0.70033 0.47747
 H540 H 0.36449 0.66676 0.44347
 H541 H 0.40955 0.58141 0.82520
 H542 H 0.44314 0.54877 0.79643
 H543 H 0.44333 0.56157 0.31358
 H544 H 0.40975 0.59409 0.34419
   
