data_POSCAR
  _audit_creation_date              2014-09-24
  _audit_creation_method            'ToBaCCo'
  _symmetry_space_group_name_H-M    'P1'
  _symmetry_Int_Tables_number       1
  _symmetry_cell_setting            triclinic
  loop_
  _symmetry_equiv_pos_as_xyz
 x,y,z
_cell_length_a 23.1675
_cell_length_b 23.1647
_cell_length_c 23.0705
_cell_angle_alpha 89.802500
_cell_angle_beta 90.046800
_cell_angle_gamma 89.998900
loop_
  _atom_site_label
  _atom_site_type_symbol
  _atom_site_fract_x
  _atom_site_fract_y
  _atom_site_fract_z
O1 O 0.59197 0.14105 0.00327
 O2 O 0.65065 0.06136 0.00227
 C3 C 0.64246 0.11678 0.00393
 O4 O 0.41473 0.00562 0.14299
 O5 O 0.35360 0.01454 0.06539
 C6 C 0.36355 0.01028 0.12028
 O7 O 0.57517 0.00394 0.14792
 O8 O 0.64301 -0.00321 0.07626
 C9 C 0.62834 0.00088 0.13102
 O10 O 0.43173 0.15410 -0.00874
 O11 O 0.36154 0.08441 -0.00592
 C12 C 0.37811 0.13784 -0.00950
 Zr13 Zr 0.50830 0.10536 -0.00104
 O14 O 0.50533 0.16962 0.06401
 O15 O 0.52128 0.16960 -0.06516
 Zr16 Zr 0.49717 0.00340 0.10291
 O17 O 0.49328 0.06682 0.16859
 O18 O 0.49816 -0.06248 0.16682
 O19 O 0.55473 0.05844 0.06019
 O20 O 0.45314 0.06624 0.05750
 O21 O 0.41933 0.00932 -0.14610
 O22 O 0.35571 0.01458 -0.07018
 C23 C 0.36753 0.01428 -0.12473
 O24 O 0.56995 -0.14716 -0.00046
 O25 O 0.64033 -0.07762 0.00308
 C26 C 0.62364 -0.13112 0.00075
 O27 O 0.40911 -0.13580 0.00443
 O28 O 0.35036 -0.05627 0.00004
 C29 C 0.35854 -0.11173 0.00325
 O30 O 0.57922 -0.01400 -0.14507
 O31 O 0.64464 -0.01266 -0.07008
 C32 C 0.63132 -0.01723 -0.12497
 Zr33 Zr 0.50085 0.00282 -0.10319
 O34 O 0.49154 -0.05516 -0.17307
 O35 O 0.51411 0.07069 -0.16353
 Zr36 Zr 0.49241 -0.09936 0.00104
 O37 O 0.48251 -0.16347 -0.06346
 O38 O 0.49314 -0.16404 0.06610
 Zr39 Zr 0.58677 -0.00376 0.00176
 Zr40 Zr 0.41386 0.00970 -0.00168
 O41 O 0.44621 -0.05241 -0.05950
 O42 O 0.54748 -0.06035 -0.05817
 O43 O 0.45383 0.06620 -0.06123
 O44 O 0.54483 -0.05907 0.06082
 O45 O 0.55610 0.05715 -0.05893
 O46 O 0.44249 -0.05218 0.05905
 H47 H 0.42844 0.09239 0.08064
 H48 H 0.56874 -0.08436 0.08590
 H49 H 0.41896 -0.07494 -0.08361
 H50 H 0.58469 0.07811 -0.08303
 H51 H 0.46192 -0.08474 0.16316
 H52 H 0.46204 -0.15484 0.09391
 H53 H 0.51702 -0.16209 -0.08869
 H54 H 0.49935 -0.09410 -0.15737
 H55 H 0.47750 0.09243 -0.16706
 H56 H 0.49269 0.16276 -0.09624
 H57 H 0.53906 0.16389 0.08972
 H58 H 0.52287 0.09620 0.15943
 O59 O -0.00574 0.42584 -0.14824
 O60 O -0.00991 0.35894 -0.07468
 C61 C -0.00935 0.37319 -0.12955
 O62 O 0.15133 0.57193 0.00465
 O63 O 0.08102 0.64146 0.00250
 C64 C 0.13469 0.62543 0.00538
 O65 O 0.13957 0.41187 -0.00667
 O66 O 0.06044 0.35244 -0.00413
 C67 C 0.11574 0.36115 -0.00689
 O68 O -0.00538 0.58761 -0.14346
 O69 O 0.00993 0.64833 -0.06723
 C70 C 0.00168 0.63910 -0.12166
 Zr71 Zr 0.00044 0.50450 -0.10390
 O72 O 0.06966 0.50788 -0.16381
 O73 O -0.05708 0.50629 -0.17498
 Zr74 Zr 0.10298 0.49505 -0.00139
 O75 O 0.16671 0.49821 -0.06706
 O76 O 0.16770 0.48281 0.06229
 O77 O 0.05578 0.44728 -0.06135
 O78 O 0.06289 0.54983 -0.05996
 O79 O -0.13876 0.59236 -0.00261
 O80 O -0.05965 0.65152 0.00043
 C81 C -0.11500 0.64306 -0.00166
 O82 O -0.01294 0.42383 0.14539
 O83 O -0.01048 0.35791 0.07125
 C84 C -0.01496 0.37148 0.12600
 O85 O 0.00797 0.58429 0.14401
 O86 O 0.01057 0.64713 0.06708
 C87 C 0.01006 0.63605 0.12175
 O88 O -0.14957 0.43193 0.00422
 O89 O -0.07956 0.36217 0.00081
 C90 C -0.13306 0.37844 0.00431
 Zr91 Zr -0.10175 0.50921 -0.00022
 O92 O -0.16591 0.51919 0.06434
 O93 O -0.16648 0.50812 -0.06509
 Zr94 Zr 0.00204 0.50217 0.10238
 O95 O -0.05459 0.51123 0.17350
 O96 O 0.07119 0.49021 0.16137
 Zr97 Zr -0.00551 0.41542 -0.00142
 Zr98 Zr 0.00647 0.58845 -0.00027
 O99 O -0.05441 0.55579 0.05906
 O100 O -0.06143 0.45479 0.05905
 O101 O -0.05576 0.55866 -0.05978
 O102 O 0.05616 0.44707 0.05772
 O103 O -0.06177 0.45705 -0.06000
 O104 O 0.06420 0.54962 0.05884
 H105 H 0.08802 0.57531 -0.08356
 H106 H 0.07805 0.41884 0.08148
 H107 H -0.07716 0.58246 0.08355
 H108 H -0.08836 0.43343 -0.08379
 H109 H 0.16157 0.51221 0.09265
 H110 H 0.09189 0.52741 0.16482
 H111 H -0.09363 0.50207 0.15899
 H112 H -0.16227 0.48644 0.09174
 H113 H -0.15933 0.54122 -0.09136
 H114 H -0.09644 0.50565 -0.15862
 H115 H 0.08678 0.46881 -0.16606
 H116 H 0.15806 0.46708 -0.09499
 O117 O -0.14404 -0.00240 0.57920
 O118 O -0.06869 -0.00359 0.64405
 C119 C -0.12316 -0.00284 0.63192
 O120 O 0.01097 -0.14849 0.42114
 O121 O 0.01021 -0.07439 0.35510
 C122 C 0.01458 -0.12869 0.36900
 O123 O -0.00809 -0.14917 0.57736
 O124 O -0.00592 -0.07603 0.64380
 C125 C -0.01042 -0.13030 0.62974
 O126 O -0.13923 0.00513 0.41274
 O127 O -0.06170 -0.00072 0.35111
 C128 C -0.11663 0.00323 0.36087
 Zr129 Zr -0.10058 -0.00173 0.49669
 O130 O -0.16199 -0.06905 0.48898
 O131 O -0.16945 0.05813 0.49643
 Zr132 Zr 0.00034 -0.10530 0.49934
 O133 O -0.06651 -0.16676 0.48858
 O134 O 0.06161 -0.17254 0.50861
 O135 O -0.05951 -0.06157 0.54986
 O136 O -0.05616 -0.06091 0.44662
 O137 O 0.00192 0.14258 0.41726
 O138 O 0.00709 0.06641 0.35424
 C139 C 0.00415 0.12105 0.36512
 O140 O 0.14644 -0.00798 0.58282
 O141 O 0.07051 -0.00537 0.64645
 C142 C 0.12529 -0.00833 0.63453
 O143 O 0.14943 -0.01551 0.42438
 O144 O 0.07750 -0.00676 0.35662
 C145 C 0.13122 -0.01363 0.37141
 O146 O 0.00542 0.14111 0.58281
 O147 O 0.00243 0.06431 0.64601
 C148 C 0.00445 0.11915 0.63507
 Zr149 Zr 0.00433 0.10001 0.49971
 O150 O 0.07094 0.16243 0.49538
 O151 O -0.05827 0.16642 0.50377
 Zr152 Zr 0.10508 -0.00407 0.50240
 O153 O 0.16378 0.06600 0.49807
 O154 O 0.17628 -0.06106 0.50605
 Zr155 Zr 0.00075 -0.00383 0.58644
 Zr156 Zr 0.00515 -0.00311 0.41263
 O157 O 0.06380 0.05527 0.45015
 O158 O 0.06173 0.05549 0.55358
 O159 O -0.05451 0.05734 0.44633
 O160 O 0.05907 -0.06344 0.55136
 O161 O -0.05649 0.05638 0.54846
 O162 O 0.06240 -0.06307 0.45018
 H163 H -0.07880 -0.08452 0.41899
 H164 H 0.08102 -0.08914 0.57778
 H165 H 0.08881 0.07824 0.42395
 H166 H -0.08040 0.08086 0.57408
 H167 H 0.09485 -0.16291 0.48346
 H168 H 0.16097 -0.09953 0.51638
 H169 H 0.16659 0.08311 0.53722
 H170 H 0.09573 0.15696 0.52991
 H171 H -0.08636 0.15943 0.47222
 H172 H -0.15325 0.09585 0.50779
 H173 H -0.16454 -0.08897 0.52690
 H174 H -0.09507 -0.16056 0.51979
 C175 C -0.25062 0.13652 -0.00558
 C176 C -0.30700 0.15599 0.00577
 C177 C -0.31593 0.21483 0.01721
 C178 C -0.27016 0.25401 0.01565
 C179 C -0.21371 0.23470 0.00308
 C180 C -0.20430 0.17560 -0.00691
 C181 C -0.16822 0.27505 0.00006
 C182 C -0.17915 0.33427 0.00896
 C183 C -0.23566 0.35214 0.02225
 C184 C -0.28054 0.31252 0.02565
 H185 H -0.35893 0.23067 0.02669
 H186 H -0.16137 0.15977 -0.01650
 H187 H -0.12492 0.26056 -0.01007
 H188 H -0.32362 0.32784 0.03555
 H189 H -0.24249 0.09138 -0.01452
 H190 H -0.24556 0.39714 0.03000
 C191 C 0.25158 0.86797 -0.00651
 C192 C 0.30805 0.84879 0.00514
 C193 C 0.31712 0.78993 0.01710
 C194 C 0.27144 0.75055 0.01588
 C195 C 0.21492 0.76962 0.00310
 C196 C 0.20537 0.82868 -0.00752
 C197 C 0.16953 0.72907 0.00047
 C198 C 0.18062 0.66986 0.00997
 C199 C 0.23720 0.65225 0.02345
 C200 C 0.28198 0.69206 0.02648
 H201 H 0.36016 0.77422 0.02676
 H202 H 0.16238 0.84435 -0.01730
 H203 H 0.12618 0.74337 -0.00991
 H204 H 0.32511 0.67692 0.03656
 H205 H 0.24328 0.91307 -0.01582
 H206 H 0.24723 0.60729 0.03161
 C207 C 0.35166 0.24045 -0.02811
 C208 C 0.33398 0.18385 -0.01477
 C209 C 0.27482 0.17264 -0.00575
 C210 C 0.23433 0.21795 -0.00841
 C211 C 0.25337 0.27458 -0.02084
 C212 C 0.31183 0.28523 -0.03123
 C213 C 0.21398 0.32023 -0.02170
 C214 C 0.15526 0.31090 -0.00968
 C215 C 0.13611 0.25430 0.00142
 C216 C 0.17537 0.20815 0.00202
 H217 H 0.26049 0.12923 0.00442
 H218 H 0.32695 0.32845 -0.04106
 H219 H 0.22955 0.36342 -0.03099
 H220 H 0.15979 0.16505 0.01150
 H221 H 0.39665 0.25048 -0.03591
 H222 H 0.09109 0.24585 0.01076
 C223 C -0.35169 0.76430 -0.00163
 C224 C -0.33266 0.82201 -0.00020
 C225 C -0.27279 0.83331 0.00012
 C226 C -0.23289 0.78730 -0.00084
 C227 C -0.25334 0.72987 -0.00213
 C228 C -0.31258 0.71889 -0.00257
 C229 C -0.21446 0.68383 -0.00277
 C230 C -0.15459 0.69346 -0.00204
 C231 C -0.13415 0.75067 -0.00112
 C232 C -0.17301 0.79723 -0.00049
 H233 H -0.25735 0.87746 0.00112
 H234 H -0.32882 0.67502 -0.00358
 H235 H -0.23130 0.64017 -0.00357
 H236 H -0.15626 0.84088 0.00039
 H237 H -0.39723 0.75377 -0.00197
 H238 H -0.08825 0.75946 -0.00080
 C239 C -0.01775 -0.26238 0.14115
 C240 C 0.00928 -0.31359 0.15991
 C241 C 0.03582 -0.31561 0.21417
 C242 C 0.03495 -0.26699 0.24989
 C243 C 0.00632 -0.21593 0.23157
 C244 C -0.01948 -0.21400 0.17681
 C245 C 0.00242 -0.16855 0.26909
 C246 C 0.02605 -0.17244 0.32476
 C247 C 0.05701 -0.22219 0.34120
 C248 C 0.06141 -0.26904 0.30415
 H249 H 0.05732 -0.35479 0.22836
 H250 H -0.04150 -0.17544 0.16186
 H251 H -0.02139 -0.13025 0.25628
 H252 H 0.08417 -0.30738 0.31856
 H253 H -0.03855 -0.26012 0.09914
 H254 H 0.07657 -0.22556 0.38376
 C255 C -0.03439 0.34696 0.76902
 C256 C -0.01467 0.32888 0.82406
 C257 C 0.00282 0.27106 0.83132
 C258 C 0.00270 0.23296 0.78343
 C259 C -0.01529 0.25295 0.72820
 C260 C -0.03454 0.30969 0.72185
 C261 C -0.01372 0.21610 0.67992
 C262 C 0.00462 0.15868 0.68579
 C263 C 0.02140 0.13865 0.74109
 C264 C 0.02090 0.17546 0.78925
 H265 H 0.01810 0.25638 0.87328
 H266 H -0.04914 0.32561 0.68011
 H267 H -0.02760 0.23198 0.63790
 H268 H 0.03473 0.15892 0.83099
 H269 H -0.04911 0.39079 0.76190
 H270 H 0.03539 0.09443 0.74711
 C271 C -0.05086 0.34186 0.22315
 C272 C -0.02287 0.32638 0.17124
 C273 C 0.00205 0.27119 0.16700
 C274 C 0.00154 0.23344 0.21530
 C275 C -0.02461 0.25097 0.26788
 C276 C -0.05170 0.30475 0.27079
 C277 C -0.02288 0.21477 0.31697
 C278 C 0.00375 0.16047 0.31418
 C279 C 0.02852 0.14281 0.26134
 C280 C 0.02783 0.17902 0.21260
 H281 H 0.02396 0.25877 0.12746
 H282 H -0.07256 0.31871 0.31037
 H283 H -0.04289 0.22856 0.35708
 H284 H 0.04803 0.16450 0.17289
 H285 H -0.07106 0.38381 0.22753
 H286 H 0.04912 0.10102 0.25784
 C287 C 0.01344 -0.25851 0.86436
 C288 C -0.00034 -0.31426 0.84322
 C289 C -0.01716 -0.31972 0.78503
 C290 C -0.02011 -0.27124 0.74899
 C291 C -0.00383 -0.21618 0.76988
 C292 C 0.01248 -0.21032 0.82787
 C293 C -0.00303 -0.16845 0.73199
 C294 C -0.01874 -0.17577 0.67380
 C295 C -0.03870 -0.23016 0.65505
 C296 C -0.03883 -0.27739 0.69200
 H297 H -0.02910 -0.36151 0.76760
 H298 H 0.02468 -0.16856 0.84500
 H299 H 0.01180 -0.12672 0.74704
 H300 H -0.05264 -0.31896 0.67560
 H301 H 0.02644 -0.25186 0.90898
 H302 H -0.05271 -0.23696 0.61079
 C303 C 0.27146 0.05471 0.84891
 C304 C 0.31803 0.01805 0.83586
 C305 C 0.31466 -0.01868 0.78813
 C306 C 0.26497 -0.01928 0.75365
 C307 C 0.21847 0.01854 0.76599
 C308 C 0.22225 0.05544 0.81384
 C309 C 0.16987 0.01965 0.72941
 C310 C 0.16814 -0.01621 0.68067
 C311 C 0.21333 -0.05542 0.67064
 C312 C 0.26129 -0.05701 0.70676
 H313 H 0.35004 -0.04790 0.77886
 H314 H 0.18720 0.08459 0.82424
 H315 H 0.13532 0.05027 0.73690
 H316 H 0.29611 -0.08670 0.69713
 H317 H 0.27332 0.08292 0.88623
 H318 H 0.21241 -0.08362 0.63326
 C319 C -0.35083 0.00673 0.23279
 C320 C -0.33149 0.00236 0.17444
 C321 C -0.27110 0.00001 0.16495
 C322 C -0.23212 0.00185 0.21256
 C323 C -0.25359 0.00605 0.26979
 C324 C -0.31277 0.00854 0.27915
 C325 C -0.21587 0.00735 0.31741
 C326 C -0.15598 0.00428 0.30956
 C327 C -0.13445 0.00053 0.25243
 C328 C -0.17206 -0.00063 0.20453
 H329 H -0.25436 -0.00323 0.12121
 H330 H -0.32997 0.01177 0.32271
 H331 H -0.23348 0.01021 0.36084
 H332 H -0.15414 -0.00380 0.16130
 H333 H -0.39623 0.00881 0.24381
 H334 H -0.08843 -0.00198 0.24466
 C335 C 0.26070 0.03491 0.14219
 C336 C 0.31332 0.00964 0.15915
 C337 C 0.31727 -0.01833 0.21284
 C338 C 0.26955 -0.02067 0.24971
 C339 C 0.21697 0.00589 0.23323
 C340 C 0.21292 0.03335 0.17914
 C341 C 0.17005 0.00566 0.27176
 C342 C 0.17587 -0.02003 0.32663
 C343 C 0.22765 -0.04828 0.34128
 C344 C 0.27401 -0.04866 0.30319
 H345 H 0.35739 -0.03882 0.22577
 H346 H 0.17307 0.05385 0.16560
 H347 H 0.13028 0.02748 0.26018
 H348 H 0.31376 -0.06977 0.31613
 H349 H 0.25673 0.05648 0.10065
 H350 H 0.23284 -0.06918 0.38305
 C351 C -0.33870 -0.05946 0.78094
 C352 C -0.32370 -0.02714 0.83035
 C353 C -0.27003 0.00112 0.83159
 C354 C -0.23345 -0.00046 0.78260
 C355 C -0.25050 -0.03113 0.73233
 C356 C -0.30263 -0.06150 0.73262
 C357 C -0.21544 -0.03065 0.68243
 C358 C -0.16271 -0.00093 0.68244
 C359 C -0.14565 0.02861 0.73294
 C360 C -0.18077 0.02923 0.78227
 H361 H -0.25820 0.02657 0.86912
 H362 H -0.31624 -0.08576 0.69492
 H363 H -0.22857 -0.05426 0.64412
 H364 H -0.16671 0.05298 0.82011
 H365 H -0.37967 -0.08194 0.77895
 H366 H -0.10503 0.05177 0.73411
   
