data_POSCAR
  _audit_creation_date              2014-09-24
  _audit_creation_method            'ToBaCCo'
  _symmetry_space_group_name_H-M    'P1'
  _symmetry_Int_Tables_number       1
  _symmetry_cell_setting            triclinic
  loop_
  _symmetry_equiv_pos_as_xyz
 x,y,z
_cell_length_a 54.4982
_cell_length_b 54.5134
_cell_length_c 54.4376
_cell_angle_alpha 90.008600
_cell_angle_beta 90.000100
_cell_angle_gamma 89.944100
loop_
  _atom_site_label
  _atom_site_type_symbol
  _atom_site_fract_x
  _atom_site_fract_y
  _atom_site_fract_z
C1 C 0.15360 0.17081 0.18929
 C2 C 0.15374 0.18924 0.17131
 C3 C 0.17203 0.18967 0.15374
 C4 C 0.19042 0.17163 0.15389
 C5 C 0.19024 0.15354 0.17156
 C6 C 0.17167 0.15314 0.18943
 C7 C 0.13845 0.16622 0.20893
 N8 N 0.14677 0.14605 0.22132
 C9 C 0.16723 0.13805 0.20916
 C10 C 0.21031 0.13883 0.16741
 N11 N 0.22296 0.14742 0.14750
 C12 C 0.21059 0.16764 0.13927
 C13 C 0.16784 0.20976 0.13904
 N14 N 0.14741 0.22158 0.14722
 C15 C 0.13870 0.20904 0.16699
 H16 H 0.12269 0.17730 0.21361
 H17 H 0.17858 0.12257 0.21407
 H18 H 0.21498 0.12306 0.17846
 H19 H 0.21558 0.17908 0.12388
 H20 H 0.17921 0.21558 0.12383
 H21 H 0.12249 0.21378 0.17744
 C22 C -0.15278 0.82952 0.18920
 C23 C -0.15291 0.81111 0.17120
 C24 C -0.17121 0.81067 0.15364
 C25 C -0.18963 0.82866 0.15383
 C26 C -0.18947 0.84674 0.17152
 C27 C -0.17089 0.84716 0.18937
 C28 C -0.13764 0.83411 0.20885
 N29 N -0.14599 0.85425 0.22127
 C30 C -0.16646 0.86223 0.20912
 C31 C -0.20958 0.86141 0.16741
 N32 N -0.22223 0.85281 0.14750
 C33 C -0.20982 0.83262 0.13923
 C34 C -0.16700 0.79059 0.13891
 N35 N -0.14655 0.77879 0.14706
 C36 C -0.13784 0.79133 0.16684
 H37 H -0.12183 0.82309 0.21348
 H38 H -0.17787 0.87766 0.21409
 H39 H -0.21427 0.87716 0.17849
 H40 H -0.21479 0.82118 0.12383
 H41 H -0.17839 0.78477 0.12371
 H42 H -0.12162 0.78659 0.17728
 C43 C -0.15452 0.17226 -0.19045
 C44 C -0.15439 0.19028 -0.17205
 C45 C -0.17195 0.18986 -0.15374
 C46 C -0.18990 0.17144 -0.15361
 C47 C -0.19001 0.15377 -0.17171
 C48 C -0.17215 0.15418 -0.19028
 C49 C -0.13988 0.16827 -0.21062
 N50 N -0.14807 0.14805 -0.22300
 C51 C -0.16798 0.13947 -0.21036
 C52 C -0.20969 0.13866 -0.16726
 N53 N -0.22186 0.14663 -0.14678
 C54 C -0.20952 0.16681 -0.13845
 C55 C -0.16761 0.20964 -0.13867
 N56 N -0.14784 0.22215 -0.14738
 C57 C -0.13967 0.21033 -0.16784
 H58 H -0.12451 0.17972 -0.21560
 H59 H -0.17897 0.12368 -0.21502
 H60 H -0.21460 0.12322 -0.17866
 H61 H -0.21417 0.17781 -0.12262
 H62 H -0.17804 0.21439 -0.12245
 H63 H -0.12447 0.21613 -0.17922
 C64 C 0.15430 0.82847 -0.19018
 C65 C 0.15454 0.80999 -0.17226
 C66 C 0.17285 0.80956 -0.15471
 C67 C 0.19116 0.82764 -0.15482
 C68 C 0.19088 0.84578 -0.17244
 C69 C 0.17229 0.84619 -0.19028
 C70 C 0.13910 0.83310 -0.20979
 N71 N 0.14731 0.85334 -0.22212
 C72 C 0.16775 0.86134 -0.20995
 C73 C 0.21088 0.86054 -0.16826
 N74 N 0.22358 0.85195 -0.14838
 C75 C 0.21132 0.83166 -0.14020
 C76 C 0.16875 0.78944 -0.14003
 N77 N 0.14835 0.77759 -0.14821
 C78 C 0.13957 0.79015 -0.16795
 H79 H 0.12336 0.82203 -0.21447
 H80 H 0.17903 0.87687 -0.21482
 H81 H 0.21543 0.87639 -0.17924
 H82 H 0.21639 0.82018 -0.12485
 H83 H 0.18015 0.78362 -0.12483
 H84 H 0.12336 0.78541 -0.17838
 C85 C 0.17129 1.15350 0.81044
 C86 C 0.18935 1.15335 0.82880
 C87 C 0.18892 1.17086 0.84714
 C88 C 0.17044 1.18878 0.84737
 C89 C 0.15273 1.18892 0.82932
 C90 C 0.15315 1.17111 0.81070
 C91 C 0.16732 1.13895 0.79021
 N92 N 0.14707 1.14717 0.77788
 C93 C 0.13844 1.16701 0.79061
 C94 C 0.13761 1.20862 0.83382
 N95 N 0.14563 1.22076 0.85427
 C96 C 0.16584 1.20840 0.86255
 C97 C 0.20879 1.16656 0.86211
 N98 N 0.22137 1.14686 0.85331
 C99 C 0.20951 1.13870 0.83288
 H100 H 0.17885 1.12365 0.78511
 H101 H 0.12259 1.17800 0.78603
 H102 H 0.12213 1.21354 0.82246
 H103 H 0.17692 1.21307 0.87831
 H104 H 0.21356 1.17698 0.87834
 H105 H 0.21536 1.12355 0.82144
 C106 C 0.82919 0.84636 0.81014
 C107 C 0.81114 0.84644 0.82851
 C108 C 0.81159 0.82885 0.84678
 C109 C 0.83008 0.81093 0.84691
 C110 C 0.84777 0.81087 0.82884
 C111 C 0.84733 0.82876 0.81030
 C112 C 0.83313 0.86100 0.78997
 N113 N 0.85338 0.85283 0.77759
 C114 C 0.86203 0.83295 0.79022
 C115 C 0.86290 0.79116 0.83324
 N116 N 0.85492 0.77895 0.85367
 C117 C 0.83471 0.79127 0.86202
 C118 C 0.79175 0.83310 0.86180
 N119 N 0.77917 0.85285 0.85310
 C120 C 0.79099 0.86108 0.83269
 H121 H 0.82161 0.87633 0.78496
 H122 H 0.87785 0.82196 0.78556
 H123 H 0.87845 0.78636 0.82192
 H124 H 0.82359 0.78648 0.87771
 H125 H 0.78701 0.82262 0.87799
 H126 H 0.78515 0.87628 0.82132
 C127 C 0.17176 0.84627 1.18974
 C128 C 0.18947 0.84679 1.17104
 C129 C 0.18896 0.82940 1.15259
 C130 C 0.17080 0.81120 1.15260
 C131 C 0.15341 0.81066 1.17106
 C132 C 0.15391 0.82839 1.18975
 C133 C 0.16790 0.86071 1.21007
 N134 N 0.14797 0.85219 1.22271
 C135 C 0.13947 0.83224 1.21010
 C136 C 0.13860 0.79069 1.16677
 N137 N 0.14657 0.77904 1.14614
 C138 C 0.16628 0.79159 1.13738
 C139 C 0.20856 0.83395 1.13736
 N140 N 0.22107 0.85369 1.14611
 C141 C 0.20941 0.86165 1.16674
 H142 H 0.17915 0.87627 1.21490
 H143 H 0.12395 0.82095 1.21498
 H144 H 0.12353 0.78476 1.17827
 H145 H 0.17663 0.78693 1.12107
 H146 H 0.21324 0.82360 1.12106
 H147 H 0.21531 0.87672 1.17823
 C148 C 0.82850 1.15416 1.18974
 C149 C 0.81078 1.15362 1.17105
 C150 C 0.81126 1.17102 1.15260
 C151 C 0.82939 1.18924 1.15262
 C152 C 0.84678 1.18979 1.17107
 C153 C 0.84632 1.17207 1.18975
 C154 C 0.83239 1.13971 1.21006
 N155 N 0.85231 1.14826 1.22269
 C156 C 0.86078 1.16823 1.21009
 C157 C 0.86159 1.20977 1.16678
 N158 N 0.85360 1.22141 1.14615
 C159 C 0.83389 1.20885 1.13739
 C160 C 0.79166 1.16642 1.13737
 N161 N 0.77919 1.14665 1.14612
 C162 C 0.79087 1.13872 1.16674
 H163 H 0.82117 1.12413 1.21488
 H164 H 0.87629 1.17953 1.21496
 H165 H 0.87666 1.21570 1.17827
 H166 H 0.82354 1.21350 1.12109
 H167 H 0.78696 1.17676 1.12107
 H168 H 0.78501 1.12363 1.17823
 N169 N 0.52617 1.04322 0.97341
 N170 N 0.54541 1.05769 0.97096
 N171 N 0.47446 1.02622 0.95635
 N172 N 0.45524 1.02870 0.94181
 N173 N 0.47452 1.04331 0.97333
 N174 N 0.45537 1.05793 0.97077
 N175 N 0.52617 1.02618 0.95637
 N176 N 0.54543 1.02859 0.94187
 C177 C 0.55723 1.04839 0.95114
 C178 C 0.44354 1.04864 0.95097
 N179 N 0.47444 0.95642 0.97342
 N180 N 0.45532 0.94180 0.97080
 N181 N 0.52616 0.97340 0.95642
 N182 N 0.54540 0.97089 0.94191
 N183 N 0.52608 0.95632 0.97342
 N184 N 0.54524 0.94170 0.97090
 N185 N 0.47447 0.97343 0.95636
 N186 N 0.45537 0.97084 0.94167
 Mn187 Mn 0.50031 0.99981 0.95606
 C188 C 0.44362 0.95098 0.95086
 C189 C 0.55710 0.95097 0.95111
 N190 N 0.47444 1.04334 1.02622
 N191 N 0.45531 1.05799 1.02879
 N192 N 0.52614 1.02620 1.04329
 N193 N 0.54541 1.02861 1.05777
 N194 N 0.52609 1.04327 1.02629
 N195 N 0.54529 1.05780 1.02879
 N196 N 0.47444 1.02633 1.04328
 N197 N 0.45531 1.02894 1.05792
 Mn198 Mn 0.50030 1.04360 0.99981
 C199 C 0.44357 1.04882 1.04870
 C200 C 0.55715 1.04848 1.04857
 N201 N 0.52608 0.95638 1.02631
 N202 N 0.54522 0.94175 1.02891
 N203 N 0.47437 0.97356 1.04329
 N204 N 0.45508 0.97119 1.05775
 N205 N 0.47442 0.95646 1.02630
 N206 N 0.45521 0.94195 1.02879
 N207 N 0.52606 0.97342 1.04335
 N208 N 0.54519 0.97085 1.05800
 Mn209 Mn 0.50026 0.95608 0.99987
 Mn210 Mn 0.50025 0.99988 1.04362
 Cl211 Cl 0.50028 0.99984 0.99984
 C212 C 0.55694 0.95096 1.04881
 C213 C 0.44333 0.95132 1.04855
 N214 N 0.04374 0.47401 -0.02666
 N215 N 0.05810 0.45464 -0.02898
 N216 N 0.02694 0.52566 -0.04386
 N217 N 0.02961 0.54473 -0.05855
 N218 N 0.04388 0.52569 -0.02672
 N219 N 0.05849 0.54483 -0.02924
 N220 N 0.02671 0.47402 -0.04372
 N221 N 0.02905 0.45467 -0.05811
 C222 C 0.04878 0.44278 -0.04875
 C223 C 0.04942 0.55650 -0.04925
 N224 N -0.04293 0.52606 -0.02688
 N225 N -0.05730 0.54541 -0.02934
 N226 N -0.02608 0.47425 -0.04379
 N227 N -0.02864 0.45502 -0.05831
 N228 N -0.04319 0.47443 -0.02682
 N229 N -0.05790 0.45538 -0.02937
 N230 N -0.02589 0.52593 -0.04392
 N231 N -0.02820 0.54520 -0.05843
 Mn232 Mn 0.00042 0.49996 -0.04414
 C233 C -0.04795 0.55715 -0.04916
 C234 C -0.04864 0.44345 -0.04915
 N235 N 0.04381 0.52574 0.02617
 N236 N 0.05837 0.54491 0.02865
 N237 N 0.02663 0.47420 0.04324
 N238 N 0.02911 0.45506 0.05788
 N239 N 0.04364 0.47408 0.02617
 N240 N 0.05811 0.45481 0.02869
 N241 N 0.02671 0.52586 0.04315
 N242 N 0.02913 0.54516 0.05759
 Mn243 Mn 0.04408 0.49988 -0.00026
 C244 C 0.04904 0.55683 0.04839
 C245 C 0.04888 0.44315 0.04861
 N246 N -0.04326 0.47450 0.02608
 N247 N -0.05787 0.45536 0.02857
 N248 N -0.02608 0.52603 0.04311
 N249 N -0.02860 0.54518 0.05772
 N250 N -0.04302 0.52616 0.02596
 N251 N -0.05748 0.54545 0.02842
 N252 N -0.02619 0.47438 0.04309
 N253 N -0.02868 0.45512 0.05758
 Mn254 Mn -0.04342 0.50029 -0.00041
 Mn255 Mn 0.00027 0.50011 0.04346
 Cl256 Cl 0.00034 0.50006 -0.00034
 C257 C -0.04860 0.44347 0.04836
 C258 C -0.04831 0.55711 0.04838
 N259 N 1.04368 0.02660 0.47403
 N260 N 1.05817 0.02898 0.45476
 N261 N 1.02663 0.04371 0.52573
 N262 N 1.02918 0.05833 0.54489
 N263 N 1.04365 0.02666 0.52576
 N264 N 1.05824 0.02921 0.54494
 N265 N 1.02665 0.04365 0.47400
 N266 N 1.02911 0.05809 0.45470
 C267 C 1.04892 0.04877 0.44290
 C268 C 1.04904 0.04911 0.55668
 N269 N 0.95678 0.02677 0.52571
 N270 N 0.94212 0.02940 0.54483
 N271 N 0.97384 0.04374 0.47399
 N272 N 0.97121 0.05842 0.45489
 N273 N 0.95680 0.02674 0.47400
 N274 N 0.94212 0.02940 0.45490
 N275 N 0.97381 0.04378 0.52572
 N276 N 0.97120 0.05844 0.54485
 Mn277 Mn 1.00024 0.04404 0.49986
 C278 C 0.95129 0.04928 0.55658
 C279 C 0.95129 0.04929 0.44317
 N280 N 1.04363 -0.02613 0.52582
 N281 N 1.05812 -0.02859 0.54508
 N282 N 1.02664 -0.04319 0.47409
 N283 N 1.02928 -0.05789 0.45500
 N284 N 1.04368 -0.02619 0.47409
 N285 N 1.05838 -0.02887 0.45500
 N286 N 1.02659 -0.04314 0.52582
 N287 N 1.02904 -0.05763 0.54509
 Mn288 Mn 1.04397 0.00024 0.49993
 C289 C 1.04886 -0.04838 0.55691
 C290 C 1.04921 -0.04877 0.44328
 N291 N 0.95680 -0.02605 0.47401
 N292 N 0.94234 -0.02846 0.45472
 N293 N 0.97378 -0.04308 0.52575
 N294 N 0.97121 -0.05768 0.54490
 N295 N 0.95676 -0.02603 0.52574
 N296 N 0.94214 -0.02857 0.54491
 N297 N 0.97383 -0.04310 0.47402
 N298 N 0.97140 -0.05757 0.45473
 Mn299 Mn 0.95647 0.00036 0.49987
 Mn300 Mn 1.00021 -0.04344 0.49992
 Cl301 Cl 1.00022 0.00030 0.49989
 C302 C 0.95161 -0.04827 0.44289
 C303 C 0.95134 -0.04846 0.55667
 C304 C 1.11645 0.11576 0.28603
 C305 C 1.10568 0.13627 0.27482
 C306 C 1.11557 0.14622 0.25335
 C307 C 1.13673 0.13600 0.24227
 C308 C 1.14726 0.11516 0.25365
 C309 C 1.13729 0.10528 0.27512
 C310 C 1.10614 0.10550 0.30906
 N311 N 1.11661 0.08571 0.32004
 N312 N 1.10751 0.07667 0.34086
 C313 C 1.08754 0.08704 0.35162
 N314 N 1.07704 0.10680 0.34062
 N315 N 1.08614 0.11583 0.31980
 C316 C 1.07754 0.07713 0.37494
 C317 C 1.05701 0.08807 0.38616
 C318 C 1.04772 0.07886 0.40824
 C319 C 1.05876 0.05853 0.41958
 C320 C 1.07919 0.04750 0.40839
 C321 C 1.08849 0.05670 0.38631
 H322 H 1.08954 0.14481 0.28269
 H323 H 1.10635 0.16202 0.24581
 H324 H 1.16332 0.10620 0.24633
 H325 H 1.14607 0.08939 0.28323
 H326 H 1.04810 0.10381 0.37792
 H327 H 1.03190 0.08768 0.41642
 H328 H 1.08801 0.03174 0.41670
 H329 H 1.10429 0.04779 0.37820
 C330 C 0.88428 -0.11544 0.28600
 C331 C 0.86363 -0.10478 0.27491
 C332 C 0.85368 -0.11467 0.25342
 C333 C 0.86404 -0.13570 0.24223
 C334 C 0.88500 -0.14610 0.25350
 C335 C 0.89488 -0.13614 0.27497
 C336 C 0.89456 -0.10516 0.30904
 N337 N 0.91444 -0.11559 0.31990
 N338 N 0.92352 -0.10653 0.34073
 C339 C 0.91312 -0.08665 0.35161
 N340 N 0.89327 -0.07619 0.34072
 N341 N 0.88419 -0.08525 0.31989
 C342 C 0.92308 -0.07672 0.37493
 C343 C 0.91216 -0.05622 0.38623
 C344 C 0.92143 -0.04700 0.40831
 C345 C 0.94181 -0.05805 0.41957
 C346 C 0.95281 -0.07845 0.40831
 C347 C 0.94355 -0.08769 0.38622
 H348 H 0.85499 -0.08874 0.28286
 H349 H 0.83780 -0.10553 0.24593
 H350 H 0.89406 -0.16208 0.24612
 H351 H 0.91087 -0.14483 0.28299
 H352 H 0.89641 -0.04729 0.37805
 H353 H 0.91263 -0.03119 0.41655
 H354 H 0.96859 -0.08729 0.41655
 H355 H 0.95244 -0.10347 0.37805
 C356 C 0.88202 0.11816 0.71195
 C357 C 0.86111 0.10777 0.72275
 C358 C 0.85115 0.11759 0.74427
 C359 C 0.86178 0.13826 0.75582
 C360 C 0.88291 0.14852 0.74475
 C361 C 0.89280 0.13863 0.72323
 C362 C 0.89248 0.10778 0.68903
 N363 N 0.91260 0.11796 0.67841
 N364 N 0.92192 0.10871 0.65777
 C365 C 0.91152 0.08887 0.64684
 N366 N 0.89141 0.07868 0.65746
 N367 N 0.88210 0.08793 0.67811
 C368 C 0.92180 0.07865 0.62377
 C369 C 0.91099 0.05809 0.61253
 C370 C 0.92059 0.04856 0.59071
 C371 C 0.94118 0.05937 0.57965
 C372 C 0.95207 0.07984 0.59086
 C373 C 0.94249 0.08938 0.61268
 H374 H 0.85229 0.09196 0.71456
 H375 H 0.83500 0.10872 0.75147
 H376 H 0.89220 0.16419 0.75244
 H377 H 0.90898 0.14711 0.71544
 H378 H 0.89507 0.04933 0.62055
 H379 H 0.91186 0.03271 0.58250
 H380 H 0.96801 0.08850 0.58276
 H381 H 0.95131 0.10521 0.62082
 C382 C 1.11675 -0.11611 0.71337
 C383 C 1.10616 -0.13679 0.72441
 C384 C 1.11614 -0.14683 0.74582
 C385 C 1.13719 -0.13653 0.75700
 C386 C 1.14754 -0.11553 0.74579
 C387 C 1.13749 -0.10556 0.72438
 C388 C 1.10636 -0.10574 0.69041
 N389 N 1.11672 -0.08583 0.67957
 N390 N 1.10755 -0.07669 0.65881
 C391 C 1.08764 -0.08706 0.64798
 N392 N 1.07726 -0.10693 0.65885
 N393 N 1.08642 -0.11607 0.67961
 C394 C 1.07758 -0.07704 0.62473
 C395 C 1.05706 -0.08793 0.61348
 C396 C 1.04774 -0.07861 0.59145
 C397 C 1.05872 -0.05823 0.58019
 C398 C 1.07913 -0.04724 0.59142
 C399 C 1.08847 -0.05655 0.61344
 H400 H 1.09012 -0.14539 0.71647
 H401 H 1.10708 -0.16277 0.75322
 H402 H 1.16349 -0.10649 0.75319
 H403 H 1.14612 -0.08954 0.71641
 H404 H 1.04819 -0.10370 0.62165
 H405 H 1.03192 -0.08740 0.58323
 H406 H 1.08792 -0.03145 0.58318
 H407 H 1.10427 -0.04767 0.62159
 C408 C 0.28804 1.11756 1.11754
 C409 C 0.27707 1.10699 1.13830
 C410 C 0.25554 1.11680 1.14821
 C411 C 0.24415 1.13764 1.13769
 C412 C 0.25539 1.14806 1.11672
 C413 C 0.27692 1.13818 1.10687
 C414 C 0.31099 1.10719 1.10715
 N415 N 0.32175 1.11750 1.08715
 N416 N 0.34241 1.10826 1.07789
 C417 C 0.35322 1.08831 1.08822
 N418 N 0.34245 1.07798 1.10820
 N419 N 0.32178 1.08722 1.11746
 C420 C 0.37631 1.07811 1.07801
 C421 C 0.38746 1.05747 1.08878
 C422 C 0.40931 1.04796 1.07925
 C423 C 0.42048 1.05889 1.05876
 C424 C 0.40936 1.07944 1.04791
 C425 C 0.38752 1.08896 1.05742
 H426 H 0.28513 1.09106 1.14703
 H427 H 0.24819 1.10777 1.16422
 H428 H 0.24786 1.16388 1.10753
 H429 H 0.28486 1.14680 1.09082
 H430 H 0.37935 1.04862 1.10462
 H431 H 0.41744 1.03204 1.08794
 H432 H 0.41755 1.08819 1.03204
 H433 H 0.37945 1.10485 1.04864
 C434 C 0.28849 0.88197 0.88167
 C435 C 0.27761 0.89238 0.86077
 C436 C 0.25614 0.88251 0.85082
 C437 C 0.24471 0.86178 0.86146
 C438 C 0.25585 0.85152 0.88258
 C439 C 0.27732 0.86145 0.89245
 C440 C 0.31137 0.89240 0.89211
 N441 N 0.32205 0.88221 0.91222
 N442 N 0.34265 0.89149 0.92152
 C443 C 0.35348 0.91138 0.91112
 N444 N 0.34278 0.92159 0.89103
 N445 N 0.32218 0.91231 0.88173
 C446 C 0.37651 0.92162 0.92140
 C447 C 0.38766 0.94224 0.91060
 C448 C 0.40945 0.95177 0.92018
 C449 C 0.42057 0.94091 0.94075
 C450 C 0.40944 0.92040 0.95163
 C451 C 0.38765 0.91085 0.94206
 H452 H 0.28572 0.90823 0.85195
 H453 H 0.24889 0.89140 0.83469
 H454 H 0.24826 0.83580 0.89187
 H455 H 0.28517 0.85295 0.90862
 H456 H 0.37959 0.95103 0.89470
 H457 H 0.41760 0.96766 0.91147
 H458 H 0.41758 0.91169 0.96755
 H459 H 0.37958 0.89499 0.95087
 C460 C 0.71260 0.88254 1.11762
 C461 C 0.72359 0.89315 1.13835
 C462 C 0.74515 0.88338 1.14824
 C463 C 0.75656 0.86255 1.13772
 C464 C 0.74530 0.85209 1.11677
 C465 C 0.72373 0.86193 1.10695
 C466 C 0.68963 0.89286 1.10725
 N467 N 0.67887 0.88251 1.08727
 N468 N 0.65818 0.89170 1.07802
 C469 C 0.64735 0.91164 1.08835
 N470 N 0.65812 0.92201 1.10831
 N471 N 0.67881 0.91282 1.11756
 C472 C 0.62424 0.92180 1.07814
 C473 C 0.61306 0.94244 1.08889
 C474 C 0.59120 0.95191 1.07936
 C475 C 0.58004 0.94094 1.05888
 C476 C 0.59118 0.92038 1.04805
 C477 C 0.61304 0.91091 1.05757
 H478 H 0.71552 0.90908 1.14708
 H479 H 0.75252 0.89245 1.16422
 H480 H 0.75284 0.83626 1.10758
 H481 H 0.71579 0.85327 1.09092
 H482 H 0.62117 0.95132 1.10472
 H483 H 0.58305 0.96783 1.08804
 H484 H 0.58301 0.91160 1.03219
 H485 H 0.62113 0.89501 1.04879
 C486 C 0.71362 1.11610 0.88357
 C487 C 0.72441 1.13699 0.89402
 C488 C 0.74581 1.14703 0.88411
 C489 C 0.75725 1.13652 0.86327
 C490 C 0.74629 1.11531 0.85307
 C491 C 0.72488 1.10534 0.86305
 C492 C 0.69067 1.10572 0.89389
 N493 N 0.68001 1.08567 0.88363
 N494 N 0.65926 1.07652 0.89274
 C495 C 0.64826 1.08703 0.91251
 N496 N 0.65894 1.10705 0.92281
 N497 N 0.67969 1.11620 0.91370
 C498 C 0.62501 1.07700 0.92251
 C499 C 0.61364 1.08801 0.94293
 C500 C 0.59163 1.07870 0.95222
 C501 C 0.58050 1.05821 0.94130
 C502 C 0.59184 1.04712 0.92098
 C503 C 0.61386 1.05641 0.91167
 H504 H 0.71626 1.14576 0.90989
 H505 H 0.75298 1.16317 0.89301
 H506 H 0.75393 1.10607 0.83731
 H507 H 0.71712 1.08915 0.85454
 H508 H 0.62171 1.10386 0.95177
 H509 H 0.58333 1.08758 0.96797
 H510 H 0.58370 1.03124 0.91224
 H511 H 0.62210 1.04744 0.89595
 C512 C 0.11695 0.28731 0.11707
 C513 C 0.11269 0.28094 0.14171
 C514 C 0.12265 0.25946 0.15157
 C515 C 0.13703 0.24372 0.13700
 C516 C 0.14118 0.25005 0.11230
 C517 C 0.13132 0.27160 0.10247
 C518 C 0.10658 0.31024 0.10671
 N519 N 0.11323 0.31815 0.08401
 N520 N 0.10406 0.33886 0.07480
 C521 C 0.08778 0.35251 0.08787
 N522 N 0.08108 0.34456 0.11054
 N523 N 0.09030 0.32389 0.11978
 C524 C 0.07769 0.37565 0.07771
 C525 C 0.05864 0.38813 0.08988
 C526 C 0.04922 0.41002 0.08037
 C527 C 0.05876 0.41997 0.05860
 C528 C 0.07775 0.40754 0.04638
 C529 C 0.08707 0.38557 0.05579
 H530 H 0.10183 0.29268 0.15353
 H531 H 0.11938 0.25544 0.17074
 H532 H 0.15182 0.23822 0.10041
 H533 H 0.13486 0.27586 0.08337
 H534 H 0.05091 0.38098 0.10674
 H535 H 0.03452 0.41919 0.09013
 H536 H 0.08539 0.41476 0.02950
 H537 H 0.10175 0.37647 0.04595
 C538 C -0.11755 0.28781 -0.11701
 C539 C -0.10302 0.27203 -0.13135
 C540 C -0.11288 0.25050 -0.14117
 C541 C -0.13756 0.24425 -0.13700
 C542 C -0.15208 0.26005 -0.12262
 C543 C -0.14218 0.28151 -0.11270
 C544 C -0.10715 0.31074 -0.10671
 N545 N -0.12018 0.32450 -0.09049
 N546 N -0.11090 0.34517 -0.08134
 C547 C -0.08822 0.35300 -0.08806
 N548 N -0.07519 0.33924 -0.10428
 N549 N -0.08444 0.31854 -0.11338
 C550 C -0.07798 0.37612 -0.07800
 C551 C -0.05600 0.38589 -0.08734
 C552 C -0.04651 0.40782 -0.07802
 C553 C -0.05871 0.42035 -0.05908
 C554 C -0.08056 0.41055 -0.04960
 C555 C -0.09015 0.38872 -0.05902
 H556 H -0.08393 0.27623 -0.13492
 H557 H -0.10104 0.23862 -0.15180
 H558 H -0.17124 0.25607 -0.11932
 H559 H -0.15396 0.29330 -0.10185
 H560 H -0.04617 0.37670 -0.10197
 H561 H -0.02957 0.41491 -0.08560
 H562 H -0.09033 0.41981 -0.03496
 H563 H -0.10706 0.38169 -0.05134
 C564 C 0.11805 0.71185 -0.11803
 C565 C 0.13243 0.72754 -0.10346
 C566 C 0.14225 0.74909 -0.11329
 C567 C 0.13804 0.75544 -0.13798
 C568 C 0.12366 0.73971 -0.15253
 C569 C 0.11374 0.71823 -0.14267
 C570 C 0.10768 0.68895 -0.10765
 N571 N 0.09138 0.67533 -0.12069
 N572 N 0.08213 0.65470 -0.11143
 C573 C 0.08883 0.64675 -0.08875
 N574 N 0.10514 0.66036 -0.07571
 N575 N 0.11434 0.68103 -0.08494
 C576 C 0.07866 0.62369 -0.07854
 C577 C 0.08797 0.61376 -0.05658
 C578 C 0.07852 0.59189 -0.04711
 C579 C 0.05947 0.57956 -0.05930
 C580 C 0.05003 0.58950 -0.08113
 C581 C 0.05957 0.61129 -0.09070
 H582 H 0.13600 0.72327 -0.08436
 H583 H 0.15289 0.76091 -0.10142
 H584 H 0.12035 0.74374 -0.17170
 H585 H 0.10288 0.70651 -0.15447
 H586 H 0.10268 0.62280 -0.04675
 H587 H 0.08609 0.58467 -0.03019
 H588 H 0.03530 0.58040 -0.09088
 H589 H 0.05190 0.61844 -0.10759
 C590 C -0.11615 0.71307 0.11683
 C591 C -0.11185 0.71943 0.14148
 C592 C -0.12179 0.74091 0.15136
 C593 C -0.13617 0.75666 0.13681
 C594 C -0.14034 0.75035 0.11211
 C595 C -0.13051 0.72879 0.10226
 C596 C -0.10582 0.69013 0.10646
 N597 N -0.11250 0.68223 0.08376
 N598 N -0.10337 0.66150 0.07454
 C599 C -0.08711 0.64782 0.08761
 N600 N -0.08038 0.65576 0.11028
 N601 N -0.08956 0.67644 0.11952
 C602 C -0.07706 0.62466 0.07744
 C603 C -0.05805 0.61214 0.08963
 C604 C -0.04866 0.59024 0.08013
 C605 C -0.05818 0.58030 0.05834
 C606 C -0.07714 0.59276 0.04610
 C607 C -0.08643 0.61475 0.05551
 H608 H -0.10100 0.70768 0.15328
 H609 H -0.11850 0.74493 0.17053
 H610 H -0.15098 0.76220 0.10024
 H611 H -0.13407 0.72454 0.08316
 H612 H -0.05033 0.61928 0.10650
 H613 H -0.03399 0.58105 0.08991
 H614 H -0.08476 0.58556 0.02921
 H615 H -0.10108 0.62388 0.04565
 C616 C 1.11732 0.11745 0.71264
 C617 C 1.13763 0.10646 0.72403
 C618 C 1.14747 0.11622 0.74562
 C619 C 1.13732 0.13744 0.75665
 C620 C 1.11679 0.14828 0.74500
 C621 C 1.10702 0.13845 0.72341
 C622 C 1.10701 0.10714 0.68963
 N623 N 1.08728 0.11771 0.67862
 N624 N 1.07811 0.10852 0.65789
 C625 C 1.08826 0.08838 0.64727
 N626 N 1.10797 0.07780 0.65829
 N627 N 1.11714 0.08698 0.67902
 C628 C 1.07813 0.07824 0.62411
 C629 C 1.08886 0.05754 0.61301
 C630 C 1.07941 0.04809 0.59110
 C631 C 1.05903 0.05912 0.57982
 C632 C 1.04822 0.07972 0.59089
 C633 C 1.05766 0.08919 0.61279
 H634 H 1.14603 0.09021 0.71627
 H635 H 1.16300 0.10675 0.75341
 H636 H 1.10802 0.16452 0.75215
 H637 H 1.09134 0.14743 0.71512
 H638 H 1.10462 0.04861 0.62121
 H639 H 1.08807 0.03213 0.58300
 H640 H 1.03244 0.08855 0.58263
 H641 H 1.04890 0.10512 0.62082
 C642 C 0.88307 -0.11718 0.71245
 C643 C 0.89353 -0.13808 0.72325
 C644 C 0.88378 -0.14800 0.74480
 C645 C 0.86311 -0.13734 0.75639
 C646 C 0.85281 -0.11621 0.74533
 C647 C 0.86263 -0.10636 0.72377
 C648 C 0.89336 -0.10678 0.68947
 N649 N 0.88312 -0.08669 0.67884
 N650 N 0.89228 -0.07744 0.65814
 C651 C 0.91210 -0.08788 0.64717
 N652 N 0.92236 -0.10796 0.65782
 N653 N 0.91320 -0.11720 0.67851
 C654 C 0.92222 -0.07769 0.62403
 C655 C 0.94277 -0.08854 0.61277
 C656 C 0.95222 -0.07903 0.59089
 C657 C 0.94133 -0.05849 0.57979
 C658 C 0.92087 -0.04755 0.59102
 C659 C 0.91141 -0.05704 0.61291
 H660 H 0.90932 -0.14692 0.71502
 H661 H 0.89269 -0.16414 0.75199
 H662 H 0.83715 -0.10689 0.75306
 H663 H 0.85410 -0.09019 0.71599
 H664 H 0.95159 -0.10443 0.62081
 H665 H 0.96806 -0.08779 0.58266
 H666 H 0.91215 -0.03164 0.58290
 H667 H 0.89560 -0.04819 0.62107
 C668 C 1.11835 -0.11814 0.28807
 C669 C 1.13906 -0.10758 0.27704
 C670 C 1.14890 -0.11736 0.25545
 C671 C 1.13832 -0.13815 0.24404
 C672 C 1.11743 -0.14860 0.25537
 C673 C 1.10767 -0.13875 0.27697
 C674 C 1.10797 -0.10773 0.31102
 N675 N 1.08794 -0.11795 0.32177
 N676 N 1.07866 -0.10864 0.34240
 C677 C 1.08900 -0.08870 0.35319
 N678 N 1.10902 -0.07846 0.34243
 N679 N 1.11830 -0.08777 0.32180
 C680 C 1.07873 -0.07839 0.37622
 C681 C 1.08952 -0.05777 0.38737
 C682 C 1.07992 -0.04815 0.40915
 C683 C 1.05935 -0.05894 0.42026
 C684 C 1.04848 -0.07947 0.40914
 C685 C 1.05806 -0.08910 0.38736
 H686 H 1.14780 -0.09166 0.28510
 H687 H 1.16483 -0.10830 0.24803
 H688 H 1.10826 -0.16443 0.24787
 H689 H 1.09166 -0.14738 0.28496
 H690 H 1.10543 -0.04903 0.37930
 H691 H 1.08863 -0.03225 0.41729
 H692 H 1.03254 -0.08812 0.41727
 H693 H 1.04926 -0.10497 0.37929
 C694 C 0.88203 0.11860 0.28801
 C695 C 0.86127 0.10806 0.27703
 C696 C 0.85141 0.11784 0.25545
 C697 C 0.86199 0.13860 0.24400
 C698 C 0.88292 0.14903 0.25529
 C699 C 0.89271 0.13918 0.27687
 C700 C 0.89243 0.10819 0.31094
 N701 N 0.91248 0.11841 0.32166
 N702 N 0.92179 0.10910 0.34228
 C703 C 0.91145 0.08917 0.35309
 N704 N 0.89141 0.07894 0.34236
 N705 N 0.88211 0.08825 0.32174
 C706 C 0.92174 0.07887 0.37611
 C707 C 0.91096 0.05826 0.38727
 C708 C 0.92057 0.04865 0.40905
 C709 C 0.94115 0.05944 0.42014
 C710 C 0.95202 0.07996 0.40901
 C711 C 0.94242 0.08958 0.38724
 H712 H 0.85253 0.09217 0.28511
 H713 H 0.83544 0.10880 0.24807
 H714 H 0.89211 0.16483 0.24775
 H715 H 0.90875 0.14779 0.28482
 H716 H 0.89505 0.04951 0.37922
 H717 H 0.91186 0.03276 0.41719
 H718 H 0.96795 0.08861 0.41714
 H719 H 0.95122 0.10545 0.37916
 C720 C 0.11534 0.28546 -0.11543
 C721 C 0.10468 0.27439 -0.13610
 C722 C 0.11456 0.25291 -0.14605
 C723 C 0.13557 0.24169 -0.13567
 C724 C 0.14596 0.25293 -0.11467
 C725 C 0.13601 0.27440 -0.10479
 C726 C 0.10511 0.30852 -0.10519
 N727 N 0.11554 0.31939 -0.08531
 N728 N 0.10655 0.34026 -0.07630
 C729 C 0.08672 0.35118 -0.08677
 N730 N 0.07625 0.34028 -0.10661
 N731 N 0.08525 0.31941 -0.11562
 C732 C 0.07688 0.37456 -0.07690
 C733 C 0.05647 0.38592 -0.08791
 C734 C 0.04735 0.40808 -0.07876
 C735 C 0.05844 0.41937 -0.05842
 C736 C 0.07874 0.40804 -0.04732
 C737 C 0.08788 0.38588 -0.05645
 H738 H 0.08866 0.28236 -0.14475
 H739 H 0.10543 0.24545 -0.16195
 H740 H 0.16191 0.24552 -0.10559
 H741 H 0.14469 0.28240 -0.08879
 H742 H 0.04751 0.37773 -0.10366
 H743 H 0.03161 0.41637 -0.08764
 H744 H 0.08760 0.41630 -0.03155
 H745 H 0.10359 0.37765 -0.04749
 C746 C -0.11637 0.28719 0.11581
 C747 C -0.14092 0.28070 0.11136
 C748 C -0.15072 0.25920 0.12126
 C749 C -0.13619 0.24354 0.13577
 C750 C -0.11158 0.24997 0.14010
 C751 C -0.10181 0.27156 0.13029
 C752 C -0.10610 0.31019 0.10554
 N753 N -0.08351 0.31821 0.11234
 N754 N -0.07441 0.33900 0.10328
 C755 C -0.08748 0.35262 0.08697
 N756 N -0.11004 0.34455 0.08012
 N757 N -0.11916 0.32381 0.08923
 C758 C -0.07743 0.37584 0.07699
 C759 C -0.08964 0.38834 0.05797
 C760 C -0.08023 0.41028 0.04863
 C761 C -0.05852 0.42027 0.05821
 C762 C -0.04628 0.40784 0.07720
 C763 C -0.05560 0.38582 0.08645
 H764 H -0.15272 0.29238 0.10041
 H765 H -0.16983 0.25510 0.11786
 H766 H -0.09974 0.23821 0.15085
 H767 H -0.08278 0.27591 0.13398
 H768 H -0.10644 0.38114 0.05020
 H769 H -0.09001 0.41945 0.03394
 H770 H -0.02945 0.41509 0.08487
 H771 H -0.04574 0.37671 0.10111
 C772 C -0.11470 0.71422 -0.11622
 C773 C -0.10455 0.72490 -0.13734
 C774 C -0.11446 0.74638 -0.14724
 C775 C -0.13499 0.75800 -0.13635
 C776 C -0.14486 0.74716 -0.11491
 C777 C -0.13489 0.72567 -0.10508
 C778 C -0.10443 0.69117 -0.10598
 N779 N -0.11452 0.68059 -0.08578
 N780 N -0.10550 0.65974 -0.07675
 C781 C -0.08600 0.64855 -0.08753
 N782 N -0.07587 0.65915 -0.10771
 N783 N -0.08490 0.68000 -0.11674
 C784 C -0.07613 0.62520 -0.07762
 C785 C -0.05589 0.61367 -0.08877
 C786 C -0.04673 0.59156 -0.07953
 C787 C -0.05762 0.58049 -0.05896
 C788 C -0.07777 0.59199 -0.04773
 C789 C -0.08693 0.61411 -0.05695
 H790 H -0.08893 0.71659 -0.14640
 H791 H -0.10581 0.75347 -0.16357
 H792 H -0.16036 0.75495 -0.10537
 H793 H -0.14315 0.71801 -0.08871
 H794 H -0.04709 0.62169 -0.10469
 H795 H -0.03112 0.58313 -0.08850
 H796 H -0.08648 0.58391 -0.03179
 H797 H -0.10251 0.62246 -0.04787
 C798 C 0.11656 0.71325 0.11580
 C799 C 0.10199 0.72887 0.13029
 C800 C 0.11176 0.75047 0.14010
 C801 C 0.13637 0.75691 0.13577
 C802 C 0.15090 0.74125 0.12126
 C803 C 0.14111 0.71974 0.11135
 C804 C 0.10630 0.69025 0.10552
 N805 N 0.11937 0.67665 0.08919
 N806 N 0.11026 0.65590 0.08007
 C807 C 0.08771 0.64781 0.08693
 N808 N 0.07464 0.66141 0.10326
 N809 N 0.08372 0.68220 0.11233
 C810 C 0.07770 0.62457 0.07695
 C811 C 0.05590 0.61454 0.08643
 C812 C 0.04664 0.59248 0.07720
 C813 C 0.05889 0.58007 0.05821
 C814 C 0.08055 0.59013 0.04859
 C815 C 0.08991 0.61210 0.05791
 H816 H 0.08297 0.72451 0.13397
 H817 H 0.09992 0.76223 0.15086
 H818 H 0.17001 0.74535 0.11785
 H819 H 0.15290 0.70807 0.10040
 H820 H 0.04604 0.62363 0.10111
 H821 H 0.02983 0.58519 0.08490
 H822 H 0.09034 0.58097 0.03389
 H823 H 0.10669 0.61933 0.05011
 C824 C 0.28736 1.11686 0.88335
 C825 C 0.27163 1.10227 0.86904
 C826 C 0.24999 1.11204 0.85932
 C827 C 0.24359 1.13668 0.86356
 C828 C 0.25936 1.15125 0.87788
 C829 C 0.28093 1.14145 0.88770
 C830 C 0.31039 1.10656 0.89357
 N831 N 0.32408 1.11961 0.90981
 N832 N 0.34482 1.11043 0.91891
 C833 C 0.35281 1.08781 0.91213
 N834 N 0.33913 1.07475 0.89589
 N835 N 0.31835 1.08391 0.88683
 C836 C 0.37601 1.07768 0.92215
 C837 C 0.38595 1.05579 0.91275
 C838 C 0.40794 1.04640 0.92205
 C839 C 0.42037 1.05861 0.94104
 C840 C 0.41041 1.08038 0.95057
 C841 C 0.38851 1.08987 0.94117
 H842 H 0.27594 1.08321 0.86543
 H843 H 0.23814 1.10016 0.84872
 H844 H 0.25528 1.17038 0.88122
 H845 H 0.29268 1.15326 0.89852
 H846 H 0.37683 1.04595 0.89809
 H847 H 0.41517 1.02952 0.91443
 H848 H 0.41958 1.09015 0.96525
 H849 H 0.38134 1.10671 0.94890
 C850 C 0.28686 0.88379 1.11585
 C851 C 0.28040 0.85924 1.11138
 C852 C 0.25889 0.84941 1.12126
 C853 C 0.24320 0.86392 1.13575
 C854 C 0.24960 0.88854 1.14008
 C855 C 0.27119 0.89833 1.13031
 C856 C 0.30987 0.89406 1.10560
 N857 N 0.31788 0.91666 1.11240
 N858 N 0.33868 0.92575 1.10336
 C859 C 0.35233 0.91268 1.08708
 N860 N 0.34427 0.89012 1.08022
 N861 N 0.32351 0.88100 1.08931
 C862 C 0.37557 0.92270 1.07711
 C863 C 0.38806 0.91047 1.05810
 C864 C 0.41004 0.91982 1.04878
 C865 C 0.42008 0.94150 1.05838
 C866 C 0.40765 0.95377 1.07734
 C867 C 0.38559 0.94451 1.08657
 H868 H 0.29211 0.84745 1.10045
 H869 H 0.25482 0.83030 1.11785
 H870 H 0.23780 0.90036 1.15082
 H871 H 0.27552 0.91736 1.13400
 H872 H 0.38085 0.89368 1.05032
 H873 H 0.41921 0.91001 1.03411
 H874 H 0.41494 0.97059 1.08502
 H875 H 0.37647 0.95439 1.10122
 C876 C 0.71348 1.11638 1.11585
 C877 C 0.72918 1.10188 1.13031
 C878 C 0.75076 1.11173 1.14009
 C879 C 0.75710 1.13636 1.13575
 C880 C 0.74137 1.15082 1.12125
 C881 C 0.71988 1.14094 1.11137
 C882 C 0.69050 1.10604 1.10561
 N883 N 0.67684 1.11905 1.08929
 N884 N 0.65610 1.10987 1.08021
 C885 C 0.64807 1.08732 1.08710
 N886 N 0.66173 1.07430 1.10342
 N887 N 0.68252 1.08345 1.11245
 C888 C 0.62485 1.07724 1.07714
 C889 C 0.61485 1.05543 1.08664
 C890 C 0.59280 1.04613 1.07741
 C891 C 0.58038 1.05834 1.05841
 C892 C 0.59040 1.08001 1.04878
 C893 C 0.61236 1.08941 1.05809
 H894 H 0.72490 1.08284 1.13401
 H895 H 0.76258 1.09994 1.15083
 H896 H 0.74539 1.16994 1.11783
 H897 H 0.70815 1.15269 1.10044
 H898 H 0.62396 1.04560 1.10132
 H899 H 0.58553 1.02932 1.08511
 H900 H 0.58124 1.08977 1.03408
 H901 H 0.61956 1.10619 1.05029
 C902 C 0.71326 0.88281 0.88338
 C903 C 0.71968 0.85820 0.88764
 C904 C 0.74122 0.84841 0.87774
 C905 C 0.75698 0.86301 0.86344
 C906 C 0.75060 0.88768 0.85931
 C907 C 0.72899 0.89744 0.86910
 C908 C 0.69025 0.89311 0.89366
 N909 N 0.68231 0.91578 0.88700
 N910 N 0.66154 0.92493 0.89609
 C911 C 0.64785 0.91183 0.91229
 N912 N 0.65582 0.88919 0.91900
 N913 N 0.67656 0.88001 0.90986
 C914 C 0.62466 0.92195 0.92232
 C915 C 0.61214 0.90975 0.94132
 C916 C 0.59023 0.91923 0.95071
 C917 C 0.58028 0.94101 0.94120
 C918 C 0.59272 0.95324 0.92225
 C919 C 0.61472 0.94386 0.91295
 H920 H 0.70793 0.84636 0.89843
 H921 H 0.74529 0.82926 0.88099
 H922 H 0.76245 0.89958 0.84874
 H923 H 0.72469 0.91651 0.86558
 H924 H 0.61930 0.89289 0.94903
 H925 H 0.58104 0.90944 0.96537
 H926 H 0.58551 0.97013 0.91464
 H927 H 0.62385 0.95372 0.89831
   
