data_POSCAR
  _audit_creation_date              2014-09-24
  _audit_creation_method            'ToBaCCo'
  _symmetry_space_group_name_H-M    'P1'
  _symmetry_Int_Tables_number       1
  _symmetry_cell_setting            triclinic
  loop_
  _symmetry_equiv_pos_as_xyz
 x,y,z
_cell_length_a 37.0807
_cell_length_b 37.0836
_cell_length_c 37.9770
_cell_angle_alpha 89.920200
_cell_angle_beta 90.000000
_cell_angle_gamma 89.814100
loop_
  _atom_site_label
  _atom_site_type_symbol
  _atom_site_fract_x
  _atom_site_fract_y
  _atom_site_fract_z
C1 C -0.09788 0.31475 0.00062
 C2 C -0.07904 0.31953 0.03208
 C3 C -0.04140 0.32256 0.03175
 C4 C -0.02161 0.31827 0.00014
 C5 C -0.04135 0.31247 -0.03130
 C6 C -0.07916 0.31170 -0.03113
 C7 C 0.01910 0.31834 0.00021
 C8 C 0.03886 0.32266 -0.03141
 C9 C 0.07651 0.31979 -0.03169
 C10 C 0.09537 0.31510 -0.00024
 C11 C 0.07669 0.31200 0.03148
 C12 C 0.03891 0.31266 0.03167
 H13 H -0.12708 0.31255 0.00093
 H14 H -0.02803 0.32774 0.05649
 H15 H -0.02789 0.30763 -0.05607
 H16 H 0.02557 0.32770 -0.05623
 H17 H 0.12456 0.31297 -0.00054
 H18 H 0.02561 0.30778 0.05650
 C19 C 0.40267 0.81574 0.50013
 C20 C 0.42149 0.82051 0.53156
 C21 C 0.45912 0.82346 0.53127
 C22 C 0.47891 0.81919 0.49966
 C23 C 0.45915 0.81345 0.46821
 C24 C 0.42138 0.81267 0.46842
 C25 C 0.51961 0.81924 0.49972
 C26 C 0.53937 0.82354 0.46810
 C27 C 0.57701 0.82067 0.46780
 C28 C 0.59588 0.81594 0.49925
 C29 C 0.57720 0.81284 0.53097
 C30 C 0.53942 0.81354 0.53118
 H31 H 0.37350 0.81353 0.50045
 H32 H 0.47238 0.82853 0.55606
 H33 H 0.47250 0.80863 0.44340
 H34 H 0.52606 0.82858 0.44328
 H35 H 0.62507 0.81380 0.49894
 H36 H 0.52612 0.80870 0.55601
 C37 C 1.09785 0.68531 0.00032
 C38 C 1.07901 0.68051 0.03179
 C39 C 1.04136 0.67748 0.03144
 C40 C 1.02159 0.68180 -0.00018
 C41 C 1.04134 0.68762 -0.03162
 C42 C 1.07915 0.68839 -0.03144
 C43 C 0.98089 0.68172 -0.00013
 C44 C 0.96115 0.67730 -0.03173
 C45 C 0.92350 0.68016 -0.03204
 C46 C 0.90462 0.68494 -0.00062
 C47 C 0.92329 0.68814 0.03108
 C48 C 0.96107 0.68749 0.03130
 H49 H 1.12706 0.68751 0.00064
 H50 H 1.02797 0.67229 0.05619
 H51 H 1.02788 0.69248 -0.05641
 H52 H 0.97446 0.67219 -0.05651
 H53 H 0.87543 0.68707 -0.00096
 H54 H 0.97436 0.69245 0.05610
 C55 C 0.59732 0.18424 0.50082
 C56 C 0.57850 0.17948 0.53227
 C57 C 0.54088 0.17652 0.53198
 C58 C 0.52108 0.18077 0.50036
 C59 C 0.54085 0.18650 0.46890
 C60 C 0.57862 0.18729 0.46910
 C61 C 0.48037 0.18072 0.50041
 C62 C 0.46062 0.17649 0.46879
 C63 C 0.42297 0.17936 0.46849
 C64 C 0.40410 0.18401 0.49993
 C65 C 0.42278 0.18703 0.53165
 C66 C 0.46055 0.18633 0.53186
 H67 H 0.62649 0.18646 0.50114
 H68 H 0.52762 0.17146 0.55679
 H69 H 0.52751 0.19131 0.44406
 H70 H 0.47393 0.17152 0.44398
 H71 H 0.37492 0.18615 0.49961
 H72 H 0.47385 0.19111 0.55670
 C73 C 0.68509 -0.09632 0.00070
 C74 C 0.68049 -0.07743 0.03215
 C75 C 0.67753 -0.03975 0.03173
 C76 C 0.68171 -0.02004 0.00003
 C77 C 0.68731 -0.03990 -0.03137
 C78 C 0.68803 -0.07766 -0.03107
 C79 C 0.68174 0.02068 -0.00006
 C80 C 0.67762 0.04043 -0.03176
 C81 C 0.68064 0.07809 -0.03217
 C82 C 0.68525 0.09694 -0.00071
 C83 C 0.68814 0.07825 0.03105
 C84 C 0.68737 0.04049 0.03135
 H85 H 0.68726 -0.12552 0.00097
 H86 H 0.67250 -0.02634 0.05648
 H87 H 0.69207 -0.02666 -0.05625
 H88 H 0.67259 0.02706 -0.05651
 H89 H 0.68747 0.12612 -0.00097
 H90 H 0.69209 0.02721 0.05623
 C91 C 0.18417 0.40350 0.50042
 C92 C 0.17938 0.42222 0.53190
 C93 C 0.17648 0.45986 0.53172
 C94 C 0.18082 0.47975 0.50017
 C95 C 0.18659 0.46009 0.46866
 C96 C 0.18732 0.42231 0.46876
 C97 C 0.18079 0.52045 0.50037
 C98 C 0.17641 0.54035 0.46882
 C99 C 0.17929 0.57797 0.46862
 C100 C 0.18408 0.59668 0.50009
 C101 C 0.18725 0.57787 0.53176
 C102 C 0.18655 0.54009 0.53187
 H103 H 0.18634 0.37431 0.50067
 H104 H 0.17140 0.47307 0.55655
 H105 H 0.19146 0.47352 0.44389
 H106 H 0.17132 0.52717 0.44400
 H107 H 0.18623 0.62586 0.49983
 H108 H 0.19143 0.52664 0.55665
 C109 C 0.31501 1.09634 -0.00021
 C110 C 0.31972 1.07731 0.03116
 C111 C 0.32261 1.03967 0.03073
 C112 C 0.31828 1.02006 -0.00095
 C113 C 0.31257 1.04002 -0.03234
 C114 C 0.31190 1.07783 -0.03202
 C115 C 0.31820 0.97934 -0.00102
 C116 C 0.32231 0.95965 -0.03271
 C117 C 0.31926 0.92200 -0.03308
 C118 C 0.31464 0.90310 -0.00160
 C119 C 0.31176 0.92173 0.03015
 C120 C 0.31257 0.95948 0.03040
 H121 H 0.31289 1.12554 0.00031
 H122 H 0.32768 1.02625 0.05549
 H123 H 0.30769 1.02675 -0.05717
 H124 H 0.32735 0.97308 -0.05747
 H125 H 0.31240 0.87392 -0.00183
 H126 H 0.30786 0.97273 0.05527
 C127 C 0.81589 0.59648 0.49994
 C128 C 0.82072 0.57773 0.53146
 C129 C 0.82362 0.54009 0.53134
 C130 C 0.81924 0.52023 0.49984
 C131 C 0.81344 0.53991 0.46830
 C132 C 0.81272 0.57770 0.46832
 C133 C 0.81924 0.47954 0.50013
 C134 C 0.82361 0.45964 0.46863
 C135 C 0.82073 0.42202 0.46852
 C136 C 0.81593 0.40330 0.50004
 C137 C 0.81278 0.42211 0.53167
 C138 C 0.81348 0.45989 0.53168
 H139 H 0.81372 0.62567 0.50013
 H140 H 0.82872 0.52687 0.55620
 H141 H 0.80854 0.52650 0.44356
 H142 H 0.82869 0.47284 0.44378
 H143 H 0.81378 0.37413 0.49985
 H144 H 0.80860 0.47333 0.55643
 O145 O 0.23836 0.28378 0.20808
 O146 O 0.30386 0.25019 0.27365
 O147 O 0.28920 0.23564 0.20818
 O148 O 0.25540 0.30087 0.27306
 O149 O 0.21587 0.26104 0.29209
 O150 O 0.24930 0.19574 0.22635
 O151 O 0.26404 0.21022 0.29182
 O152 O 0.19861 0.24417 0.22711
 Cu153 Cu 0.27558 0.27170 0.23891
 Cu154 Cu 0.22788 0.22391 0.26118
 C155 C 0.20742 0.26920 0.20600
 C156 C 0.29502 0.22447 0.29407
 C157 C 0.27495 0.20466 0.20590
 C158 C 0.23043 0.29198 0.29419
 O159 O 0.75072 0.80470 0.22570
 O160 O 0.78411 0.73925 0.29149
 O161 O 0.80136 0.75620 0.22649
 O162 O 0.73597 0.79010 0.29118
 O163 O 0.69611 0.75021 0.27305
 O164 O 0.76158 0.71666 0.20752
 O165 O 0.74453 0.69949 0.27253
 O166 O 0.71079 0.76487 0.20757
 Cu167 Cu 0.77212 0.77644 0.26055
 Cu168 Cu 0.72437 0.72873 0.23834
 C169 C 0.72507 0.79584 0.20526
 C170 C 0.76952 0.70832 0.29363
 C171 C 0.79252 0.73121 0.20542
 C172 C 0.70497 0.77587 0.29344
 O173 O 0.80436 0.24939 0.22595
 O174 O 0.73943 0.21587 0.29190
 O175 O 0.75605 0.19891 0.22677
 O176 O 0.79013 0.26382 0.29156
 O177 O 0.75000 0.30391 0.27374
 O178 O 0.71628 0.23893 0.20810
 O179 O 0.69943 0.25567 0.27323
 O180 O 0.76430 0.28954 0.20813
 Cu181 Cu 0.77640 0.22790 0.26085
 Cu182 Cu 0.72840 0.27592 0.23901
 C183 C 0.79529 0.27517 0.20564
 C184 C 0.70846 0.23054 0.29421
 C185 C 0.73092 0.20795 0.20583
 C186 C 0.77581 0.29484 0.29399
 O187 O 0.24995 0.69602 0.27344
 O188 O 0.28365 0.76098 0.20760
 O189 O 0.30052 0.74425 0.27277
 O190 O 0.23563 0.71036 0.20780
 O191 O 0.19558 0.75053 0.22551
 O192 O 0.26054 0.78405 0.29134
 O193 O 0.24389 0.80100 0.22617
 O194 O 0.20982 0.73612 0.29116
 Cu195 Cu 0.27154 0.72399 0.23862
 Cu196 Cu 0.22355 0.77203 0.26033
 C197 C 0.22415 0.70510 0.29368
 C198 C 0.26901 0.79196 0.20524
 C199 C 0.29150 0.76938 0.29368
 C200 C 0.20463 0.72475 0.20527
 O201 O 0.75140 0.19592 0.77474
 O202 O 0.78479 0.26124 0.70905
 O203 O 0.80175 0.24438 0.77422
 O204 O 0.73691 0.21046 0.70920
 O205 O 0.69672 0.25041 0.72709
 O206 O 0.76164 0.28399 0.79292
 O207 O 0.74489 0.30106 0.72774
 O208 O 0.71115 0.23581 0.79263
 Cu209 Cu 0.77283 0.22412 0.74000
 Cu210 Cu 0.72469 0.27191 0.76190
 C211 C 0.72558 0.20482 0.79503
 C212 C 0.77003 0.29216 0.70676
 C213 C 0.79264 0.26940 0.79523
 C214 C 0.70584 0.22471 0.70678
 O215 O 0.30328 0.74970 0.72662
 O216 O 0.23838 0.71615 0.79256
 O217 O 0.25513 0.69904 0.72744
 O218 O 0.28884 0.76434 0.79211
 O219 O 0.24859 0.80421 0.77409
 O220 O 0.21521 0.73884 0.70862
 O221 O 0.19825 0.75573 0.77373
 O222 O 0.26308 0.78963 0.70859
 Cu223 Cu 0.27532 0.72822 0.76150
 Cu224 Cu 0.22716 0.77598 0.73944
 C225 C 0.29416 0.77539 0.70622
 C226 C 0.20737 0.73073 0.79482
 C227 C 0.22998 0.70792 0.70643
 C228 C 0.27441 0.79533 0.79441
 O229 O 0.19595 0.24858 0.77404
 O230 O 0.26140 0.21505 0.70848
 O231 O 0.24451 0.19799 0.77357
 O232 O 0.21052 0.26313 0.70856
 O233 O 0.25037 0.30309 0.72658
 O234 O 0.28401 0.23788 0.79242
 O235 O 0.30113 0.25471 0.72733
 O236 O 0.23575 0.28859 0.79206
 Cu237 Cu 0.22422 0.22708 0.73935
 Cu238 Cu 0.27190 0.27495 0.76141
 C239 C 0.20478 0.27432 0.79435
 C240 C 0.29231 0.22967 0.70630
 C241 C 0.26948 0.20694 0.79465
 C242 C 0.22469 0.29414 0.70622
 O243 O 0.73861 0.78456 0.70780
 O244 O 0.80410 0.75102 0.77339
 O245 O 0.78955 0.73654 0.70793
 O246 O 0.75549 0.80154 0.77285
 O247 O 0.71604 0.76159 0.79176
 O248 O 0.74974 0.69651 0.72602
 O249 O 0.76435 0.71094 0.79147
 O250 O 0.69893 0.74483 0.72670
 Cu251 Cu 0.77580 0.77252 0.73867
 Cu252 Cu 0.72818 0.72457 0.76081
 C253 C 0.70772 0.76991 0.70564
 C254 C 0.79531 0.72525 0.79375
 C255 C 0.77540 0.70551 0.70563
 C256 C 0.73053 0.79254 0.79394
 C257 C 0.30740 0.13404 0.12221
 C258 C 0.28074 0.12316 0.14603
 C259 C 0.27094 0.14559 0.17403
 C260 C 0.31788 0.09640 0.06408
 C261 C 0.31525 0.18944 0.15503
 C262 C 0.32498 0.16697 0.12706
 C263 C 0.31413 0.11312 0.09102
 C264 C 0.28763 0.17930 0.17845
 H265 H 0.26676 0.09784 0.14234
 H266 H 0.24961 0.13699 0.19158
 H267 H 0.32866 0.21519 0.15770
 H268 H 0.34545 0.17578 0.10862
 C269 C 0.80831 0.63489 0.62218
 C270 C 0.82565 0.66796 0.62689
 C271 C 0.81577 0.69045 0.65479
 C272 C 0.81891 0.59707 0.56421
 C273 C 0.77180 0.64634 0.67396
 C274 C 0.78175 0.62389 0.64604
 C275 C 0.81513 0.61392 0.59106
 C276 C 0.78824 0.68018 0.67825
 H277 H 0.84604 0.67686 0.60841
 H278 H 0.82898 0.71631 0.65737
 H279 H 0.75055 0.63763 0.69156
 H280 H 0.76796 0.59844 0.64245
 C281 C 0.69272 0.86665 0.12150
 C282 C 0.71936 0.87746 0.14533
 C283 C 0.72912 0.85497 0.17336
 C284 C 0.68237 0.90438 0.06329
 C285 C 0.68482 0.81119 0.15435
 C286 C 0.67512 0.83372 0.12635
 C287 C 0.68606 0.88762 0.09027
 C288 C 0.71242 0.82126 0.17778
 H289 H 0.73336 0.90279 0.14163
 H290 H 0.75044 0.86353 0.19092
 H291 H 0.67139 0.78544 0.15703
 H292 H 0.65467 0.82495 0.10790
 C293 C 0.19182 0.36494 0.62270
 C294 C 0.17445 0.33187 0.62746
 C295 C 0.18432 0.30932 0.65537
 C296 C 0.18121 0.40286 0.56469
 C297 C 0.22835 0.35336 0.67447
 C298 C 0.21840 0.37587 0.64653
 C299 C 0.18499 0.38597 0.59156
 C300 C 0.21188 0.31953 0.67880
 H301 H 0.15404 0.32303 0.60899
 H302 H 0.17108 0.28348 0.65799
 H303 H 0.24962 0.36201 0.69205
 H304 H 0.23222 0.40131 0.64290
 C305 C 0.86540 0.30749 0.12155
 C306 C 0.87651 0.28082 0.14534
 C307 C 0.85425 0.27107 0.17349
 C308 C 0.90280 0.31775 0.06321
 C309 C 0.81013 0.31547 0.15467
 C310 C 0.83242 0.32515 0.12656
 C311 C 0.88614 0.31412 0.09022
 C312 C 0.82049 0.28783 0.17806
 H313 H 0.90188 0.26678 0.14153
 H314 H 0.86302 0.24972 0.19102
 H315 H 0.78433 0.32893 0.15747
 H316 H 0.82344 0.34562 0.10813
 C317 C 0.36455 0.80807 0.62249
 C318 C 0.37567 0.78146 0.64635
 C319 C 0.35329 0.77158 0.67435
 C320 C 0.40226 0.81865 0.56441
 C321 C 0.30902 0.81572 0.65528
 C322 C 0.33143 0.82553 0.62730
 C323 C 0.38547 0.81486 0.59131
 C324 C 0.31941 0.78814 0.67874
 H325 H 0.40115 0.76757 0.64269
 H326 H 0.36208 0.75029 0.69194
 H327 H 0.28313 0.82903 0.65793
 H328 H 0.32245 0.84596 0.60883
 C329 C 0.13453 0.69247 0.12125
 C330 C 0.16750 0.67480 0.12631
 C331 C 0.18980 0.68445 0.15440
 C332 C 0.09715 0.68226 0.06292
 C333 C 0.14568 0.72885 0.17311
 C334 C 0.12342 0.71913 0.14499
 C335 C 0.11380 0.68587 0.08993
 C336 C 0.17944 0.71209 0.17773
 H337 H 0.17648 0.65433 0.10793
 H338 H 0.21559 0.67099 0.15723
 H339 H 0.13691 0.75020 0.19059
 H340 H 0.09806 0.73318 0.14114
 C341 C 0.63543 0.19199 0.62316
 C342 C 0.66855 0.17452 0.62803
 C343 C 0.69097 0.18435 0.65597
 C344 C 0.59773 0.18137 0.56511
 C345 C 0.64671 0.22852 0.67489
 C346 C 0.62433 0.21862 0.64692
 C347 C 0.61452 0.18517 0.59200
 C348 C 0.68059 0.21195 0.67933
 H349 H 0.67753 0.15407 0.60963
 H350 H 0.71685 0.17103 0.65867
 H351 H 0.63792 0.24982 0.69241
 H352 H 0.59885 0.23251 0.64321
 C353 C 0.69306 0.13403 0.87858
 C354 C 0.71987 0.12316 0.85487
 C355 C 0.72970 0.14566 0.82692
 C356 C 0.68257 0.09628 0.93671
 C357 C 0.68512 0.18955 0.84574
 C358 C 0.67536 0.16702 0.87366
 C359 C 0.68632 0.11305 0.90975
 C360 C 0.71289 0.17942 0.82244
 H361 H 0.73394 0.09779 0.85861
 H362 H 0.75114 0.13706 0.80945
 H363 H 0.67162 0.21533 0.84301
 H364 H 0.65478 0.17582 0.89202
 C365 C 0.19155 0.63488 0.37761
 C366 C 0.17398 0.66792 0.37259
 C367 C 0.18375 0.69026 0.34453
 C368 C 0.18107 0.59729 0.43580
 C369 C 0.22806 0.64606 0.32578
 C370 C 0.21822 0.62376 0.35387
 C371 C 0.18480 0.61405 0.40886
 C372 C 0.21139 0.67988 0.32120
 H373 H 0.15349 0.67690 0.39097
 H374 H 0.17035 0.71609 0.34173
 H375 H 0.24941 0.63728 0.30830
 H376 H 0.23218 0.59835 0.35768
 C377 C 0.30689 0.86615 0.87776
 C378 C 0.32462 0.83318 0.87292
 C379 C 0.31487 0.81065 0.84506
 C380 C 0.31734 0.90386 0.93582
 C381 C 0.27024 0.85449 0.82614
 C382 C 0.28006 0.87699 0.85404
 C383 C 0.31360 0.88712 0.90889
 C384 C 0.28709 0.82075 0.82174
 H385 H 0.34522 0.82440 0.89129
 H386 H 0.32841 0.78488 0.84239
 H387 H 0.24878 0.86307 0.80866
 H388 H 0.26595 0.90234 0.85772
 C389 C 0.80844 0.36510 0.37767
 C390 C 0.82601 0.33206 0.37277
 C391 C 0.81622 0.30970 0.34478
 C392 C 0.81894 0.40271 0.43575
 C393 C 0.77191 0.35389 0.32590
 C394 C 0.78177 0.37621 0.35391
 C395 C 0.81520 0.38594 0.40886
 C396 C 0.78857 0.32007 0.32143
 H397 H 0.84649 0.32308 0.39117
 H398 H 0.82961 0.28386 0.34206
 H399 H 0.75056 0.36267 0.30839
 H400 H 0.76781 0.40163 0.35764
 C401 C 0.13373 0.30720 0.87757
 C402 C 0.12296 0.28044 0.85386
 C403 C 0.14555 0.27048 0.82602
 C404 C 0.09578 0.31789 0.93549
 C405 C 0.18933 0.31483 0.84495
 C406 C 0.16671 0.32472 0.87277
 C407 C 0.11265 0.31406 0.90864
 C408 C 0.17930 0.28711 0.82166
 H409 H 0.09760 0.26650 0.85753
 H410 H 0.13702 0.24909 0.80855
 H411 H 0.21511 0.32820 0.84231
 H412 H 0.17543 0.34526 0.89113
 C413 C 0.63411 0.80840 0.37693
 C414 C 0.62327 0.78178 0.35311
 C415 C 0.64578 0.77196 0.32517
 C416 C 0.59627 0.81886 0.43497
 C417 C 0.68963 0.81618 0.34422
 C418 C 0.66708 0.82594 0.37213
 C419 C 0.61310 0.81512 0.40807
 C420 C 0.67953 0.78859 0.32081
 H421 H 0.59790 0.76783 0.35676
 H422 H 0.63721 0.75065 0.30762
 H423 H 0.71541 0.82955 0.34159
 H424 H 0.67585 0.84638 0.39057
 C425 C 0.86634 0.69250 0.87711
 C426 C 0.83338 0.67494 0.87235
 C427 C 0.81077 0.68478 0.84448
 C428 C 0.90425 0.68196 0.93511
 C429 C 0.85452 0.72915 0.82542
 C430 C 0.87710 0.71924 0.85331
 C431 C 0.88739 0.68572 0.90823
 C432 C 0.82079 0.71248 0.82110
 H433 H 0.82466 0.65442 0.89078
 H434 H 0.78500 0.67138 0.84188
 H435 H 0.86304 0.75053 0.80788
 H436 H 0.90245 0.73321 0.85694
 C437 C 0.36590 0.19183 0.37759
 C438 C 0.33296 0.17425 0.37278
 C439 C 0.31041 0.18405 0.34485
 C440 C 0.40373 0.18126 0.43565
 C441 C 0.35419 0.22841 0.32583
 C442 C 0.37670 0.21855 0.35379
 C443 C 0.38691 0.18506 0.40875
 C444 C 0.32047 0.21173 0.32145
 H445 H 0.32422 0.15374 0.39121
 H446 H 0.28466 0.17063 0.34220
 H447 H 0.36273 0.24979 0.30829
 H448 H 0.40204 0.23253 0.35745
 C449 C 0.70350 0.86315 0.87953
 C450 C 0.68596 0.82998 0.87605
 C451 C 0.69378 0.80745 0.84752
 C452 C 0.69316 0.90242 0.93677
 C453 C 0.73610 0.85169 0.82535
 C454 C 0.72823 0.87416 0.85389
 C455 C 0.69761 0.88492 0.91038
 C456 C 0.71938 0.81782 0.82213
 H457 H 0.66682 0.82115 0.89580
 H458 H 0.68049 0.78155 0.84586
 H459 H 0.75596 0.86049 0.80631
 H460 H 0.74202 0.89974 0.85636
 C461 C 0.20327 0.36303 0.37946
 C462 C 0.18564 0.32990 0.37601
 C463 C 0.19354 0.30722 0.34761
 C464 C 0.19266 0.40250 0.43655
 C465 C 0.23613 0.35121 0.32549
 C466 C 0.22818 0.37383 0.35390
 C467 C 0.19726 0.38496 0.41019
 C468 C 0.21930 0.31738 0.32230
 H469 H 0.16637 0.32122 0.39570
 H470 H 0.18016 0.28136 0.34598
 H471 H 0.25612 0.35986 0.30650
 H472 H 0.24206 0.39937 0.35634
 C473 C 0.29652 0.13616 0.88030
 C474 C 0.31411 0.16931 0.87674
 C475 C 0.30628 0.19189 0.84819
 C476 C 0.30695 0.09679 0.93756
 C477 C 0.26384 0.14775 0.82615
 C478 C 0.27173 0.12523 0.85471
 C479 C 0.30245 0.11433 0.91115
 C480 C 0.28062 0.18161 0.82286
 H481 H 0.33329 0.17807 0.89645
 H482 H 0.31961 0.21777 0.84648
 H483 H 0.24394 0.13902 0.80715
 H484 H 0.25790 0.09967 0.85724
 C485 C 0.79670 0.63709 0.37894
 C486 C 0.81437 0.67021 0.37543
 C487 C 0.80646 0.69295 0.34702
 C488 C 0.80735 0.59753 0.43608
 C489 C 0.76377 0.64905 0.32501
 C490 C 0.77173 0.62637 0.35344
 C491 C 0.80273 0.61511 0.40970
 C492 C 0.78064 0.68286 0.32176
 H493 H 0.83368 0.67882 0.39508
 H494 H 0.81988 0.71878 0.34534
 H495 H 0.74374 0.64046 0.30606
 H496 H 0.75782 0.60085 0.35592
 C497 C 0.13701 0.70382 0.88068
 C498 C 0.12591 0.72868 0.85512
 C499 C 0.14829 0.73653 0.82650
 C500 C 0.09792 0.69339 0.93807
 C501 C 0.19265 0.69392 0.84842
 C502 C 0.17021 0.68613 0.87703
 C503 C 0.11532 0.69791 0.91160
 C504 C 0.18218 0.71965 0.82311
 H505 H 0.10031 0.74260 0.85771
 H506 H 0.13941 0.75649 0.80752
 H507 H 0.21857 0.68051 0.84664
 H508 H 0.17911 0.66689 0.89672
 C509 C 0.63781 0.20328 0.37973
 C510 C 0.67101 0.18558 0.37611
 C511 C 0.69356 0.19351 0.34762
 C512 C 0.59849 0.19262 0.43692
 C513 C 0.64932 0.23628 0.32577
 C514 C 0.62683 0.22830 0.35427
 C515 C 0.61600 0.19723 0.41054
 C516 C 0.68320 0.21938 0.32240
 H517 H 0.67982 0.16622 0.39572
 H518 H 0.71947 0.18007 0.34585
 H519 H 0.64052 0.25635 0.30686
 H520 H 0.60123 0.24222 0.35685
 C521 C 0.86300 0.29631 0.88101
 C522 C 0.82980 0.31401 0.87731
 C523 C 0.80736 0.30621 0.84873
 C524 C 0.90208 0.30672 0.93838
 C525 C 0.85172 0.26360 0.82692
 C526 C 0.87410 0.27145 0.85551
 C527 C 0.88468 0.30221 0.91192
 C528 C 0.81783 0.28049 0.82348
 H529 H 0.82090 0.33324 0.89695
 H530 H 0.78144 0.31963 0.84691
 H531 H 0.86060 0.24364 0.80799
 H532 H 0.89970 0.25753 0.85814
 C533 C 0.36218 0.79666 0.37910
 C534 C 0.32898 0.81437 0.37543
 C535 C 0.30642 0.80643 0.34697
 C536 C 0.40151 0.80734 0.43625
 C537 C 0.35065 0.76364 0.32524
 C538 C 0.37315 0.77163 0.35371
 C539 C 0.38399 0.80272 0.40989
 C540 C 0.31677 0.78055 0.32183
 H541 H 0.32018 0.83373 0.39499
 H542 H 0.28052 0.81987 0.34517
 H543 H 0.35944 0.74357 0.30639
 H544 H 0.39874 0.75770 0.35633
 C545 C 0.29617 0.86253 0.11961
 C546 C 0.31383 0.82931 0.12325
 C547 C 0.30596 0.80679 0.15180
 C548 C 0.30660 0.90181 0.06233
 C549 C 0.26335 0.85113 0.17366
 C550 C 0.27128 0.87358 0.14511
 C551 C 0.30211 0.88430 0.08875
 C552 C 0.28019 0.81721 0.17704
 H553 H 0.33309 0.82045 0.10360
 H554 H 0.31934 0.78085 0.15357
 H555 H 0.24337 0.85997 0.19260
 H556 H 0.25739 0.89920 0.14252
 C557 C 0.79696 0.36301 0.62121
 C558 C 0.81486 0.32993 0.62493
 C559 C 0.80704 0.30733 0.65344
 C560 C 0.80747 0.40233 0.56393
 C561 C 0.76399 0.35131 0.67513
 C562 C 0.77186 0.37384 0.64661
 C563 C 0.80291 0.38484 0.59037
 C564 C 0.78109 0.31752 0.67858
 H565 H 0.83429 0.32122 0.60537
 H566 H 0.82063 0.28150 0.65526
 H567 H 0.74385 0.35997 0.69398
 H568 H 0.75778 0.39935 0.64397
 C569 C 0.70374 0.13736 0.12041
 C570 C 0.72865 0.12632 0.14592
 C571 C 0.73658 0.14878 0.17441
 C572 C 0.69331 0.09812 0.06321
 C573 C 0.69394 0.19309 0.15246
 C574 C 0.68606 0.17057 0.12398
 C575 C 0.69780 0.11561 0.08959
 C576 C 0.71973 0.18269 0.17771
 H577 H 0.74255 0.10071 0.14339
 H578 H 0.75659 0.13995 0.19335
 H579 H 0.68054 0.21902 0.15417
 H580 H 0.66678 0.17943 0.10432
 C581 C 0.20305 0.63699 0.62113
 C582 C 0.18515 0.67008 0.62473
 C583 C 0.19297 0.69271 0.65316
 C584 C 0.19255 0.59765 0.56398
 C585 C 0.23603 0.64875 0.67501
 C586 C 0.22816 0.62619 0.64657
 C587 C 0.19711 0.61514 0.59036
 C588 C 0.21893 0.68254 0.67834
 H589 H 0.16573 0.67877 0.60514
 H590 H 0.17938 0.71853 0.65489
 H591 H 0.25617 0.64010 0.69389
 H592 H 0.24224 0.60068 0.64402
 C593 C 0.86375 0.70403 0.12026
 C594 C 0.87451 0.72892 0.14580
 C595 C 0.85184 0.73687 0.17419
 C596 C 0.90334 0.69346 0.06323
 C597 C 0.80786 0.69431 0.15208
 C598 C 0.83060 0.68641 0.12370
 C599 C 0.88573 0.69804 0.08955
 C600 C 0.81799 0.72006 0.17737
 H601 H 0.90007 0.74279 0.14337
 H602 H 0.86045 0.75684 0.19316
 H603 H 0.78199 0.68094 0.15370
 H604 H 0.82195 0.66716 0.10403
 C605 C 0.36337 0.20265 0.62097
 C606 C 0.37414 0.22756 0.64649
 C607 C 0.35153 0.23545 0.67494
 C608 C 0.40285 0.19222 0.56383
 C609 C 0.30760 0.19278 0.65294
 C610 C 0.33027 0.18495 0.62450
 C611 C 0.38527 0.19672 0.59019
 C612 C 0.31773 0.21856 0.67820
 H613 H 0.39966 0.24148 0.64399
 H614 H 0.36015 0.25544 0.69389
 H615 H 0.28176 0.17936 0.65463
 H616 H 0.32162 0.16568 0.60484
 C617 C 0.13619 0.29632 0.12076
 C618 C 0.16933 0.31396 0.12415
 C619 C 0.19206 0.30609 0.15256
 C620 C 0.09662 0.30678 0.06366
 C621 C 0.14810 0.26353 0.17481
 C622 C 0.12543 0.27145 0.14639
 C623 C 0.11422 0.30226 0.09001
 C624 C 0.18195 0.28035 0.17793
 H625 H 0.17797 0.33320 0.10441
 H626 H 0.21793 0.31946 0.15414
 H627 H 0.13949 0.24356 0.19384
 H628 H 0.09988 0.25757 0.14399
 C629 C 0.63662 0.79703 0.62030
 C630 C 0.66968 0.81478 0.62382
 C631 C 0.69237 0.80691 0.65227
 C632 C 0.59713 0.80757 0.56315
 C633 C 0.64851 0.76411 0.67427
 C634 C 0.62589 0.77204 0.64582
 C635 C 0.61470 0.80301 0.58952
 C636 C 0.68228 0.78105 0.67753
 H637 H 0.67830 0.83412 0.60416
 H638 H 0.71818 0.82037 0.65395
 H639 H 0.63992 0.74405 0.69322
 H640 H 0.60039 0.75807 0.64332
   
