data_POSCAR
  _audit_creation_date              2014-09-24
  _audit_creation_method            'ToBaCCo'
  _symmetry_space_group_name_H-M    'P1'
  _symmetry_Int_Tables_number       1
  _symmetry_cell_setting            triclinic
  loop_
  _symmetry_equiv_pos_as_xyz
 x,y,z
_cell_length_a 42.2205
_cell_length_b 42.2517
_cell_length_c 13.9129
_cell_angle_alpha 90.158300
_cell_angle_beta 90.012000
_cell_angle_gamma 119.886600
loop_
  _atom_site_label
  _atom_site_type_symbol
  _atom_site_fract_x
  _atom_site_fract_y
  _atom_site_fract_z
C1 C 0.16333 0.49597 0.50072
 C2 C 0.18155 0.50056 0.41270
 C3 C 0.21589 0.50258 0.41324
 C4 C 0.22989 0.49543 0.49703
 C5 C 0.20951 0.48799 0.58239
 C6 C 0.17692 0.48948 0.58632
 C7 C 0.26474 0.49397 0.49476
 C8 C 0.28561 0.49995 0.57893
 C9 C 0.31603 0.49485 0.57986
 C10 C 0.32814 0.48755 0.49333
 C11 C 0.30861 0.48247 0.40782
 C12 C 0.27653 0.48480 0.40961
 H13 H 0.13744 0.49553 0.50180
 H14 H 0.23174 0.50956 0.34810
 H15 H 0.21902 0.48069 0.64573
 H16 H 0.27814 0.50825 0.64461
 H17 H 0.35187 0.48402 0.49336
 H18 H 0.26061 0.47899 0.34464
 C19 C 0.50412 -0.33413 0.50247
 C20 C 0.49830 -0.32129 0.41469
 C21 C 0.49596 -0.28914 0.41519
 C22 C 0.50398 -0.26743 0.49834
 C23 C 0.51253 -0.27964 0.58327
 C24 C 0.51137 -0.31352 0.58755
 C25 C 0.50532 -0.23121 0.49580
 C26 C 0.50028 -0.21577 0.58031
 C27 C 0.50578 -0.18015 0.58117
 C28 C 0.51239 -0.16118 0.49434
 C29 C 0.51639 -0.17623 0.40844
 C30 C 0.51370 -0.21078 0.41018
 H31 H 0.50481 -0.35944 0.50369
 H32 H 0.48818 -0.28076 0.35051
 H33 H 0.52054 -0.26237 0.64594
 H34 H 0.49251 -0.23118 0.64633
 H35 H 0.51627 -0.13382 0.49433
 H36 H 0.51872 -0.22137 0.34488
 C37 C 1.33856 0.83957 0.49897
 C38 C 1.32023 0.82528 0.41148
 C39 C 1.28665 0.79213 0.41297
 C40 C 1.27277 0.77175 0.49813
 C41 C 1.29279 0.78639 0.58365
 C42 C 1.32404 0.82120 0.58573
 C43 C 1.23663 0.73652 0.49854
 C44 C 1.21605 0.72334 0.58377
 C45 C 1.18215 0.69056 0.58532
 C46 C 1.16739 0.67240 0.49789
 C47 C 1.18597 0.68637 0.41107
 C48 C 1.22139 0.71672 0.41300
 H49 H 1.36325 0.86602 0.50042
 H50 H 1.27101 0.78247 0.34782
 H51 H 1.28405 0.77117 0.64973
 H52 H 1.22622 0.73888 0.64897
 H53 H 1.14043 0.64837 0.49653
 H54 H 1.23662 0.72493 0.34679
 C55 C 0.84139 0.51418 0.49968
 C56 C 0.82666 0.51858 0.41387
 C57 C 0.79235 0.51645 0.41552
 C58 C 0.77179 0.50826 0.50095
 C59 C 0.78692 0.50291 0.58553
 C60 C 0.82236 0.50779 0.58646
 C61 C 0.73580 0.50749 0.50303
 C62 C 0.72338 0.51594 0.58808
 C63 C 0.68987 0.51566 0.59138
 C64 C 0.66987 0.50931 0.50565
 C65 C 0.68291 0.50341 0.41861
 C66 C 0.71457 0.50035 0.41919
 H67 H 0.86859 0.51760 0.49966
 H68 H 0.78207 0.52176 0.35021
 H69 H 0.77144 0.49534 0.65149
 H70 H 0.74014 0.52315 0.65160
 H71 H 0.64501 0.51087 0.50548
 H72 H 0.72280 0.49287 0.35349
 C73 C 0.49594 0.33098 0.49548
 C74 C 0.49008 0.31087 0.41049
 C75 C 0.49187 0.27857 0.41285
 C76 C 0.50116 0.26695 0.49773
 C77 C 0.50767 0.28814 0.58160
 C78 C 0.50307 0.31898 0.58273
 C79 C 0.50204 0.23183 0.49987
 C80 C 0.49435 0.21142 0.58522
 C81 C 0.49449 0.17813 0.58822
 C82 C 0.49997 0.16403 0.50204
 C83 C 0.50523 0.18262 0.41490
 C84 C 0.50848 0.21736 0.41566
 H85 H 0.49304 0.35506 0.49426
 H86 H 0.48554 0.26227 0.34845
 H87 H 0.51626 0.28052 0.64626
 H88 H 0.48776 0.22136 0.64913
 H89 H 0.49825 0.13757 0.50170
 H90 H 0.51551 0.23283 0.34982
 C91 C 0.67512 0.16517 0.49901
 C92 C 0.69370 0.17980 0.41269
 C93 C 0.72546 0.21435 0.41358
 C94 C 0.73793 0.23527 0.49874
 C95 C 0.71789 0.22018 0.58384
 C96 C 0.68789 0.18454 0.58548
 C97 C 0.77286 0.27149 0.50000
 C98 C 0.79358 0.28479 0.58508
 C99 C 0.82672 0.31833 0.58751
 C100 C 0.84046 0.33740 0.50092
 C101 C 0.82163 0.32352 0.41402
 C102 C 0.78698 0.29198 0.41536
 H103 H 0.65174 0.13780 0.49962
 H104 H 0.74068 0.22450 0.34787
 H105 H 0.72568 0.23578 0.64977
 H106 H 0.78414 0.26860 0.64924
 H107 H 0.86683 0.36219 0.50010
 H108 H 0.77140 0.28327 0.34953
 N109 N 0.96517 0.54420 0.09781
 N110 N 0.93830 0.55136 0.10714
 N111 N 1.04104 0.56004 0.17069
 N112 N 1.06986 0.57721 0.22723
 N113 N 1.04228 0.58142 0.10069
 N114 N 1.07227 0.61359 0.10697
 N115 N 0.96433 0.52283 0.16725
 N116 N 0.93695 0.51511 0.22646
 C117 C 0.92095 0.53303 0.18748
 C118 C 1.08897 0.61055 0.18663
 N119 N 1.04084 0.47007 0.10887
 N120 N 1.07040 0.46714 0.11702
 N121 N 0.96344 0.45412 0.17237
 N122 N 0.93435 0.43707 0.22787
 N123 N 0.96348 0.43202 0.10589
 N124 N 0.93408 0.39950 0.11323
 N125 N 1.04014 0.49154 0.17620
 N126 N 1.06891 0.50327 0.23319
 Mn127 Mn 1.00216 0.50710 0.17285
 C128 C 1.08738 0.48767 0.19533
 C129 C 0.91638 0.40304 0.18991
 N130 N 1.04278 0.58012 -0.10563
 N131 N 1.07065 0.61336 -0.11624
 N132 N 0.96593 0.52032 -0.17486
 N133 N 0.93673 0.50822 -0.23036
 N134 N 0.96575 0.54228 -0.10804
 N135 N 0.93618 0.54522 -0.11527
 N136 N 1.04279 0.55826 -0.17289
 N137 N 1.07061 0.57634 -0.23216
 Mn138 Mn 1.00403 0.56238 -0.00389
 C139 C 1.08768 0.61067 -0.19536
 C140 C 0.91858 0.52413 -0.19226
 N141 N 0.96487 0.43057 -0.10009
 N142 N 0.93721 0.39712 -0.11008
 N143 N 1.04205 0.48929 -0.16770
 N144 N 1.06899 0.49661 -0.22814
 N145 N 1.04168 0.46835 -0.09757
 N146 N 1.06853 0.46121 -0.10763
 N147 N 0.96534 0.45152 -0.17025
 N148 N 0.93810 0.43262 -0.23083
 Mn149 Mn 1.00274 0.44991 0.00446
 Mn150 Mn 1.00405 0.50488 -0.17283
 Cl151 Cl 1.00326 0.50606 0.00000
 C152 C 0.92083 0.39876 -0.19182
 C153 C 1.08529 0.47898 -0.18918
 N154 N 0.54926 0.51058 0.17462
 N155 N 0.56648 0.49876 0.23058
 N156 N 0.53117 0.57040 0.11073
 N157 N 0.53307 0.60236 0.12022
 N158 N 0.50914 0.54735 0.17538
 N159 N 0.49601 0.56328 0.23194
 N160 N 0.57163 0.53345 0.11020
 N161 N 0.60447 0.53733 0.11943
 C162 C 0.60090 0.51581 0.19516
 C163 C 0.51133 0.59759 0.19655
 N164 N 0.51564 0.55423 -0.16737
 N165 N 0.50827 0.57363 -0.22839
 N166 N 0.57557 0.53786 -0.09576
 N167 N 0.60965 0.54513 -0.10415
 N168 N 0.55567 0.51758 -0.16790
 N169 N 0.57582 0.51084 -0.22806
 N170 N 0.53540 0.57465 -0.09525
 N171 N 0.54168 0.60833 -0.10453
 Mn172 Mn 0.55380 0.55445 0.00777
 C173 C 0.52457 0.60725 -0.18769
 C174 C 0.60936 0.52814 -0.18693
 N175 N 0.44197 0.47824 0.16225
 N176 N 0.42184 0.48513 0.22210
 N177 N 0.46219 0.42105 0.08992
 N178 N 0.45591 0.38735 0.09916
 N179 N 0.48210 0.44152 0.16176
 N180 N 0.48975 0.42221 0.22230
 N181 N 0.42202 0.45776 0.09045
 N182 N 0.38789 0.45034 0.09901
 Mn183 Mn 0.49563 0.49443 0.16979
 C184 C 0.38823 0.46760 0.18130
 C185 C 0.47333 0.38855 0.18179
 N186 N 0.48857 0.44841 -0.18051
 N187 N 0.50212 0.43267 -0.23621
 N188 N 0.42606 0.46225 -0.11527
 N189 N 0.39336 0.45877 -0.12344
 N190 N 0.44843 0.48516 -0.17963
 N191 N 0.43133 0.49742 -0.23451
 N192 N 0.46656 0.42534 -0.11587
 N193 N 0.46512 0.39355 -0.12450
 Mn194 Mn 0.50204 0.50131 -0.17513
 Mn195 Mn 0.44386 0.44123 -0.01301
 Cl196 Cl 0.49885 0.49788 -0.00263
 C197 C 0.48709 0.39845 -0.20036
 C198 C 0.39701 0.48057 -0.19850
 N199 N 0.43308 -0.03667 0.10264
 N200 N 0.39962 -0.06416 0.11344
 N201 N 0.49352 0.03973 0.17195
 N202 N 0.50554 0.06865 0.22854
 N203 N 0.47177 0.04029 0.10521
 N204 N 0.46888 0.06984 0.11362
 N205 N 0.45481 -0.03707 0.16954
 N206 N 0.43641 -0.06477 0.22885
 C207 C 0.40203 -0.08137 0.19233
 C208 C 0.48980 0.08704 0.19118
 N209 N 0.58284 0.03983 0.09588
 N210 N 0.61644 0.06726 0.10585
 N211 N 0.52341 -0.03724 0.16309
 N212 N 0.51520 -0.06474 0.22206
 N213 N 0.54452 -0.03688 0.09322
 N214 N 0.55100 -0.06420 0.10217
 N215 N 0.56193 0.03961 0.16606
 N216 N 0.58097 0.06692 0.22630
 Mn217 Mn 0.50840 0.00121 0.16910
 C218 C 0.61489 0.08388 0.18733
 C219 C 0.53255 -0.08131 0.18265
 N220 N 0.46978 0.04074 -0.10091
 N221 N 0.46332 0.06806 -0.10981
 N222 N 0.45280 -0.03563 -0.17354
 N223 N 0.43516 -0.06437 -0.23013
 N224 N 0.43161 -0.03635 -0.10347
 N225 N 0.39911 -0.06591 -0.10969
 N226 N 0.49066 0.04096 -0.17107
 N227 N 0.49861 0.06825 -0.23058
 Mn228 Mn 0.45121 0.00201 0.00095
 C229 C 0.48141 0.08491 -0.19090
 C230 C 0.40174 -0.08290 -0.18938
 N231 N 0.54265 -0.03616 -0.11273
 N232 N 0.54517 -0.06595 -0.12026
 N233 N 0.55906 0.04113 -0.17641
 N234 N 0.57598 0.07048 -0.23083
 N235 N 0.58116 0.04111 -0.11003
 N236 N 0.61356 0.07074 -0.11647
 N237 N 0.52094 -0.03559 -0.17940
 N238 N 0.50853 -0.06476 -0.23517
 Mn239 Mn 0.56315 0.00198 -0.00863
 Mn240 Mn 0.50590 0.00276 -0.17635
 Cl241 Cl 0.50715 0.00199 -0.00357
 C242 C 0.52403 -0.08328 -0.19733
 C243 C 0.60993 0.08857 -0.19250
 C244 C 1.16418 0.50036 0.32581
 C245 C 1.17607 0.49802 0.23437
 C246 C 1.14881 0.49330 0.17350
 C247 C 1.12260 0.49374 0.23113
 O248 O 1.13167 0.49806 0.32313
 H249 H 1.20057 0.49771 0.21350
 H250 H 1.14784 0.48941 0.09639
 C251 C 0.49766 0.66100 0.32788
 C252 C 0.49848 0.67436 0.23628
 C253 C 0.50312 0.65181 0.17517
 C254 C 0.50410 0.62596 0.23281
 O255 O 0.50076 0.63124 0.32510
 H256 H 0.49792 0.69868 0.21529
 H257 H 0.50619 0.65431 0.09786
 C258 C 0.33487 -0.15519 0.32538
 C259 C 0.31759 -0.16391 0.23647
 C260 C 0.34078 -0.13732 0.17568
 C261 C 0.37075 -0.11458 0.23045
 O262 O 0.36744 -0.12514 0.32107
 H263 H 0.29102 -0.18625 0.21685
 H264 H 0.33635 -0.13472 0.10016
 C265 C 0.84825 0.52700 0.32415
 C266 C 0.84313 0.54282 0.24309
 C267 C 0.86974 0.54696 0.18060
 C268 C 0.88898 0.53325 0.22769
 O269 O 0.87616 0.52118 0.31461
 H270 H 0.82315 0.55130 0.23120
 H271 H 0.87474 0.55882 0.10949
 C272 C 0.48070 0.32324 0.32069
 C273 C 0.46474 0.30182 0.24013
 C274 C 0.46006 0.32370 0.17693
 C275 C 0.47354 0.35679 0.22312
 O276 O 0.48601 0.35669 0.31016
 H277 H 0.45661 0.27344 0.22876
 H278 H 0.44803 0.31636 0.10591
 C279 C 0.68055 0.15782 0.32324
 C280 C 0.70127 0.16328 0.24145
 C281 C 0.67911 0.13627 0.17946
 C282 C 0.64653 0.11641 0.22746
 O283 O 0.64722 0.12926 0.31460
 H284 H 0.72941 0.18377 0.22865
 H285 H 0.68595 0.13142 0.10801
 C286 C 0.48808 0.15830 -0.32564
 C287 C 0.47780 0.16652 -0.23845
 C288 C 0.47378 0.13981 -0.17687
 C289 C 0.48231 0.11755 -0.22971
 O290 O 0.49093 0.12847 -0.31962
 H291 H 0.47297 0.18866 -0.22062
 H292 H 0.46572 0.13696 -0.10213
 C293 C 0.67668 0.52259 -0.32256
 C294 C 0.69546 0.53367 -0.23589
 C295 C 0.67268 0.53757 -0.17398
 C296 C 0.64158 0.52822 -0.22621
 O297 O 0.64379 0.51921 -0.31596
 H298 H 0.72264 0.53900 -0.21857
 H299 H 0.67797 0.54597 -0.09939
 C300 C 0.84675 0.33221 -0.32643
 C301 C 0.83846 0.31429 -0.23866
 C302 C 0.86532 0.33705 -0.17737
 C303 C 0.88781 0.36738 -0.23081
 O304 O 0.87683 0.36470 -0.32098
 H305 H 0.81616 0.28763 -0.22009
 H306 H 0.86818 0.33218 -0.10236
 C307 C 0.50845 -0.16107 -0.32705
 C308 C 0.51599 -0.17088 -0.23877
 C309 C 0.52220 -0.14311 -0.17778
 C310 C 0.51772 -0.11862 -0.23281
 O311 O 0.50943 -0.12927 -0.32316
 H312 H 0.51879 -0.19432 -0.22158
 H313 H 0.52995 -0.14056 -0.10277
 C314 C 0.33311 0.49344 -0.32839
 C315 C 0.31599 0.48608 -0.23986
 C316 C 0.33825 0.48100 -0.17878
 C317 C 0.36740 0.48598 -0.23399
 O318 O 0.36447 0.49346 -0.32459
 H319 H 0.28946 0.48260 -0.22259
 H320 H 0.33340 0.47363 -0.10358
 C321 C 1.16236 0.67654 -0.32858
 C322 C 1.17133 0.69403 -0.23989
 C323 C 1.14438 0.67141 -0.17901
 C324 C 1.12121 0.64154 -0.23355
 O325 O 1.13182 0.64441 -0.32407
 H326 H 1.19408 0.72038 -0.22055
 H327 H 1.14187 0.67611 -0.10358
 C328 C 0.84123 0.50999 -0.32179
 C329 C 0.83156 0.51763 -0.23332
 C330 C 0.85915 0.52329 -0.17239
 C331 C 0.88342 0.51840 -0.22762
 O332 O 0.87278 0.51038 -0.31806
 H333 H 0.80835 0.52085 -0.21594
 H334 H 0.86176 0.53095 -0.09727
 C335 C 0.50277 0.33619 -0.33049
 C336 C 0.50219 0.32296 -0.23889
 C337 C 0.49659 0.34497 -0.17798
 C338 C 0.49490 0.37040 -0.23587
 O339 O 0.49866 0.36534 -0.32798
 H340 H 0.50352 0.29903 -0.21797
 H341 H 0.49346 0.34245 -0.10069
 C342 C 0.67202 0.16580 -0.32241
 C343 C 0.68999 0.17548 -0.23481
 C344 C 0.66862 0.14789 -0.17358
 C345 C 0.63915 0.12365 -0.22786
 O346 O 0.64104 0.13428 -0.31789
 H347 H 0.71647 0.19869 -0.21840
 H348 H 0.67424 0.14529 -0.09899
 C349 C 1.15735 0.48352 -0.32698
 C350 C 1.16532 0.47271 -0.24038
 C351 C 1.13913 0.46949 -0.17785
 C352 C 1.11735 0.47894 -0.22951
 O353 O 1.12812 0.48742 -0.31966
 H354 H 1.18697 0.46705 -0.22345
 H355 H 1.13628 0.46133 -0.10324
 C356 C 0.51830 0.67356 -0.32590
 C357 C 0.52936 0.69269 -0.23965
 C358 C 0.53331 0.67025 -0.17698
 C359 C 0.52407 0.63898 -0.22825
 O360 O 0.51500 0.64074 -0.31826
 H361 H 0.53460 0.71987 -0.22292
 H362 H 0.54177 0.67593 -0.10250
 C363 C 0.33953 -0.15985 -0.32163
 C364 C 0.32118 -0.16926 -0.23465
 C365 C 0.34246 -0.14172 -0.17275
 C366 C 0.37223 -0.11771 -0.22598
 O367 O 0.37064 -0.12847 -0.31601
 H368 H 0.29458 -0.19230 -0.21888
 H369 H 0.33664 -0.13905 -0.09836
 C370 C 0.52502 -0.15468 0.31866
 C371 C 0.54035 -0.16031 0.23714
 C372 C 0.54499 -0.13351 0.17486
 C373 C 0.53204 -0.11366 0.22249
 O374 O 0.51997 -0.12629 0.30956
 H375 H 0.54818 -0.18075 0.22480
 H376 H 0.55668 -0.12880 0.10352
 C377 C 0.32149 0.47347 0.31825
 C378 C 0.30048 0.45747 0.23716
 C379 C 0.32290 0.45321 0.17454
 C380 C 0.35587 0.46700 0.22164
 O381 O 0.35517 0.47924 0.30861
 H382 H 0.27206 0.44910 0.22522
 H383 H 0.31603 0.44132 0.10328
 C384 C 1.16672 0.67132 0.31855
 C385 C 1.17646 0.68971 0.23175
 C386 C 1.14863 0.66900 0.16998
 C387 C 1.12412 0.63950 0.22314
 O388 O 1.13486 0.64073 0.31298
 H389 H 1.19998 0.71600 0.21606
 H390 H 1.14612 0.67502 0.09573
 C391 C 0.50348 0.16395 0.32281
 C392 C 0.49620 0.17384 0.23426
 C393 C 0.49086 0.14650 0.17280
 C394 C 0.49552 0.12209 0.22766
 O395 O 0.50313 0.13243 0.31852
 H396 H 0.49299 0.19702 0.21693
 H397 H 0.48352 0.14413 0.09751
 C398 C 0.66548 0.50425 0.32666
 C399 C 0.68251 0.51151 0.23795
 C400 C 0.65997 0.51600 0.17657
 C401 C 0.63073 0.51086 0.23159
 O402 O 0.63387 0.50378 0.32253
 H403 H 0.70914 0.51531 0.22054
 H404 H 0.66471 0.52314 0.10121
 C405 C 0.84002 0.33992 0.32165
 C406 C 0.83037 0.32213 0.23370
 C407 C 0.85753 0.34397 0.17204
 C408 C 0.88159 0.37354 0.22625
 O409 O 0.87121 0.37128 0.31682
 H410 H 0.80749 0.29548 0.21706
 H411 H 0.86002 0.33858 0.09713
   
