data_POSCAR
  _audit_creation_date              2014-09-24
  _audit_creation_method            'ToBaCCo'
  _symmetry_space_group_name_H-M    'P1'
  _symmetry_Int_Tables_number       1
  _symmetry_cell_setting            triclinic
  loop_
  _symmetry_equiv_pos_as_xyz
 x,y,z
_cell_length_a 34.1318
_cell_length_b 34.5411
_cell_length_c 87.7589
_cell_angle_alpha 85.480700
_cell_angle_beta 91.647700
_cell_angle_gamma 119.310500
loop_
  _atom_site_label
  _atom_site_type_symbol
  _atom_site_fract_x
  _atom_site_fract_y
  _atom_site_fract_z
C1 C 0.00366 0.07517 0.51979
 H2 H 0.03595 0.07705 0.51838
 C3 C -0.00097 0.10193 0.52985
 H4 H 0.02811 0.12469 0.53606
 C5 C -0.07309 0.04377 0.51305
 H6 H -0.10096 0.02115 0.50640
 C7 C -0.07922 0.07018 0.52299
 H8 H -0.11209 0.06725 0.52408
 N9 N -0.03220 0.04638 0.51182
 C10 C -0.00187 -0.05874 0.50317
 H11 H -0.00216 -0.05742 0.49082
 C12 C 0.00346 -0.09196 0.51157
 H13 H 0.00796 -0.11578 0.50559
 C14 C -0.00875 -0.03007 0.52600
 H15 H -0.01494 -0.00689 0.53163
 C16 C -0.00330 -0.06246 0.53481
 H17 H -0.00526 -0.06361 0.54714
 Zn18 Zn -0.02067 0.01213 0.49872
 N19 N -0.00791 -0.02870 0.51047
 C20 C 0.06669 0.04966 0.48488
 N21 N 0.02871 0.05278 0.48615
 C22 C 0.02459 0.08647 0.47860
 C23 C 0.05886 0.11803 0.46893
 C24 C 0.10198 0.08070 0.47531
 C25 C -0.10850 -0.05551 0.49323
 C26 C -0.14409 -0.08448 0.48440
 C27 C -0.10190 -0.04206 0.46172
 C28 C -0.06717 -0.01433 0.47101
 N29 N -0.07084 -0.02155 0.48645
 H30 H 0.06958 0.02305 0.49120
 H31 H -0.00570 0.08854 0.48004
 H32 H 0.05484 0.14460 0.46304
 H33 H 0.13163 0.07730 0.47415
 H34 H -0.11052 -0.06070 0.50557
 H35 H -0.17358 -0.11004 0.49050
 H36 H -0.09529 -0.03587 0.44957
 H37 H -0.03646 0.01191 0.46575
 C38 C 0.00252 -0.09421 0.52762
 C39 C -0.04290 0.09941 0.53166
 C40 C -0.14142 -0.07894 0.46819
 C41 C 0.09805 0.11518 0.46706
 C42 C 1.12060 0.05757 0.14834
 H43 H 1.12242 0.08975 0.14826
 C44 C 1.15120 0.05253 0.13970
 H45 H 1.17615 0.08096 0.13281
 C46 C 1.08508 -0.01864 0.15727
 H47 H 1.05952 -0.04610 0.16428
 C48 C 1.11501 -0.02524 0.14871
 H49 H 1.11225 -0.05791 0.14921
 N50 N 1.08816 0.02222 0.15678
 C51 C 0.97967 0.05310 0.16069
 H52 H 0.97732 0.05317 0.17295
 C53 C 0.94830 0.05767 0.15123
 H54 H 0.92230 0.06204 0.15628
 C55 C 1.01562 0.04583 0.13925
 H56 H 1.04095 0.03979 0.13464
 C57 C 0.98512 0.05041 0.12939
 H58 H 0.98751 0.04791 0.11727
 Zn59 Zn 1.04951 0.03429 0.16806
 N60 N 1.01232 0.04707 0.15459
 C61 C 1.08323 0.12090 0.17902
 N62 N 1.08664 0.08319 0.17955
 C63 C 1.11790 0.07885 0.18833
 C64 C 1.14638 0.11259 0.19748
 C65 C 1.11119 0.15564 0.18801
 C66 C 0.97901 -0.05271 0.17529
 C67 C 0.94632 -0.08756 0.18470
 C68 C 0.98051 -0.04472 0.20648
 C69 C 1.01240 -0.01077 0.19670
 N70 N 1.01094 -0.01510 0.18139
 H71 H 1.05864 0.12396 0.17176
 H72 H 1.12031 0.04877 0.18833
 H73 H 1.17099 0.10838 0.20440
 H74 H 1.10738 0.18501 0.18776
 H75 H 0.97801 -0.05493 0.16305
 H76 H 0.92025 -0.11658 0.17959
 H77 H 0.98211 -0.04037 0.21861
 H78 H 1.03732 0.01961 0.20134
 C79 C 0.95053 0.05587 0.13536
 C80 C 1.14863 0.01070 0.13978
 C81 C 0.94635 -0.08339 0.20050
 C82 C 1.14292 0.15144 0.19754
 C83 C 0.02392 0.91886 0.85358
 H84 H -0.00545 0.88670 0.85243
 C85 C 0.05866 0.92243 0.86315
 H86 H 0.05595 0.89269 0.86923
 C87 C 0.06319 0.99646 0.84673
 H88 H 0.06481 1.02515 0.84027
 C89 C 0.09883 1.00157 0.85620
 H90 H 0.12738 1.03445 0.85711
 N91 N 0.02639 0.95564 0.84581
 C92 C -0.11182 0.92755 0.83956
 H93 H -0.11378 0.93055 0.82723
 C94 C -0.14745 0.92221 0.84860
 H95 H -0.17708 0.91941 0.84286
 C96 C -0.07029 0.92751 0.86158
 H97 H -0.03952 0.93136 0.86666
 C98 C -0.10510 0.92178 0.87106
 H99 H -0.09922 0.92208 0.88322
 Zn100 Zn -0.02348 0.94646 0.83355
 N101 N -0.07398 0.93068 0.84614
 C102 C -0.07421 0.86365 0.81973
 N103 N -0.03369 0.90106 0.82071
 C104 C 0.00259 0.90760 0.81257
 C105 C -0.00125 0.87656 0.80259
 C106 C -0.07956 0.83152 0.80986
 C107 C -0.00758 1.03449 0.82865
 C108 C -0.00306 1.07241 0.82011
 C109 C -0.00775 1.03662 0.79704
 C110 C -0.01240 0.99940 0.80600
 N111 N -0.01214 0.99897 0.82151
 H112 H -0.10244 0.85885 0.82648
 H113 H 0.03457 0.93735 0.81378
 H114 H 0.02813 0.88247 0.79623
 H115 H -0.11220 0.80232 0.80894
 H116 H -0.00833 1.03298 0.84101
 H117 H 0.00039 1.10033 0.82598
 H118 H -0.00914 1.03579 0.78472
 H119 H -0.01740 0.97049 0.80050
 C120 C -0.14440 0.92005 0.86472
 C121 C 0.09657 0.96427 0.86469
 C122 C -0.00333 1.07366 0.80407
 C123 C -0.04283 0.83809 0.80100
 C124 C 0.43495 -0.00151 -0.01297
 C125 C 0.41856 0.00186 0.00099
 C126 C 0.44159 0.00418 0.01463
 C127 C 0.48327 0.00467 0.01429
 C128 C 0.50002 0.00050 0.00025
 C129 C 0.47567 -0.00286 -0.01342
 C130 C 0.49332 -0.00618 -0.02723
 C131 C 0.53347 -0.00733 -0.02757
 C132 C 0.55795 -0.00450 -0.01415
 C133 C 0.54159 0.00044 -0.00016
 C134 C 0.50925 0.01059 0.02751
 C135 C 0.55050 0.01167 0.02704
 C136 C 0.56706 0.00609 0.01337
 C137 C 0.60903 0.00728 0.01275
 C138 C 0.62429 0.00159 -0.00107
 C139 C 0.59909 -0.00510 -0.01442
 H140 H 0.47644 -0.00763 -0.03796
 H141 H 0.54559 -0.00950 -0.03855
 H142 H 0.49841 0.01544 0.03832
 H143 H 0.56937 0.01722 0.03751
 H144 H 0.38679 0.00184 0.00128
 H145 H 0.65603 0.00153 -0.00136
 C146 C -0.03048 0.39479 0.65314
 C147 C -0.02836 0.37449 0.66734
 C148 C -0.02723 0.39331 0.68098
 C149 C -0.02869 0.43361 0.68055
 C150 C -0.02969 0.45525 0.66623
 C151 C -0.03000 0.43609 0.65246
 C152 C -0.02828 0.45943 0.63841
 C153 C -0.02670 0.50055 0.63785
 C154 C -0.02756 0.51962 0.65132
 C155 C -0.02929 0.49668 0.66565
 C156 C -0.02775 0.45354 0.69402
 C157 C -0.02853 0.49353 0.69347
 C158 C -0.02954 0.51557 0.67942
 C159 C -0.02924 0.55679 0.67874
 C160 C -0.02639 0.57946 0.66453
 C161 C -0.02532 0.56168 0.65088
 H162 H -0.02705 0.44663 0.62767
 H163 H -0.02448 0.51736 0.62671
 H164 H -0.02607 0.43858 0.70515
 H165 H -0.02727 0.50751 0.70419
 H166 H -0.02804 0.34316 0.66780
 H167 H -0.02550 0.61137 0.66407
 C168 C 0.42591 0.45766 0.31846
 C169 C 0.40341 0.43569 0.33218
 C170 C 0.42185 0.45115 0.34633
 C171 C 0.46358 0.49078 0.34687
 C172 C 0.48695 0.51345 0.33304
 C173 C 0.46824 0.49669 0.31878
 C174 C 0.49181 0.51999 0.30525
 C175 C 0.53350 0.55825 0.30570
 C176 C 0.55294 0.57518 0.31969
 C177 C 0.52894 0.55321 0.33348
 C178 C 0.48212 0.50877 0.36082
 C179 C 0.52287 0.54810 0.36122
 C180 C 0.54664 0.57111 0.34769
 C181 C 0.58787 0.61140 0.34797
 C182 C 0.61177 0.63183 0.33433
 C183 C 0.59524 0.61416 0.32026
 H184 H 0.47817 0.50901 0.29414
 H185 H 0.54995 0.57490 0.29492
 H186 H 0.46501 0.49292 0.37158
 H187 H 0.53570 0.56011 0.37230
 H188 H 0.37139 0.40528 0.33184
 H189 H 0.64373 0.66230 0.33466
 C190 C -0.02999 0.16079 0.56700
 C191 C -0.05386 0.18332 0.56297
 C192 C -0.07567 0.17725 0.54888
 C193 C -0.07298 0.14922 0.53876
 C194 C -0.04822 0.12718 0.54262
 C195 C -0.02719 0.13293 0.55692
 C196 C -0.05463 0.21340 0.57326
 C197 C -0.05365 0.23852 0.58224
 C198 C -0.05090 0.26760 0.59317
 C199 C -0.04742 0.29198 0.60285
 C200 C -0.04217 0.32032 0.61481
 C201 C -0.07619 0.33019 0.61795
 C202 C -0.07190 0.35554 0.63020
 C203 C -0.03345 0.37133 0.63937
 C204 C 0.00072 0.36172 0.63605
 C205 C -0.00358 0.33644 0.62381
 H206 H -0.01312 0.16511 0.57789
 H207 H -0.09419 0.19460 0.54564
 H208 H -0.08922 0.14570 0.52778
 H209 H -0.00850 0.11586 0.56032
 H210 H -0.10633 0.31763 0.61112
 H211 H -0.09889 0.36208 0.63275
 H212 H 0.03041 0.37330 0.64308
 H213 H 0.02284 0.32880 0.62153
 C214 C 0.85801 0.80448 0.21854
 C215 C 0.84036 0.81778 0.22999
 C216 C 0.85713 0.86309 0.23170
 C217 C 0.89149 0.89504 0.22210
 C218 C 0.90975 0.88218 0.21061
 C219 C 0.89247 0.83651 0.20887
 C220 C 0.80543 0.78545 0.24021
 C221 C 0.77652 0.75998 0.24918
 C222 C 0.74320 0.73197 0.26013
 C223 C 0.71531 0.70950 0.26984
 C224 C 0.68285 0.68435 0.28184
 C225 C 0.66493 0.70529 0.29007
 C226 C 0.63553 0.68205 0.30236
 C227 C 0.62355 0.63751 0.30649
 C228 C 0.64122 0.61645 0.29810
 C229 C 0.67070 0.63978 0.28580
 H230 H 0.84532 0.76946 0.21714
 H231 H 0.84363 0.87377 0.24049
 H232 H 0.90340 0.92989 0.22355
 H233 H 0.90604 0.82561 0.20019
 H234 H 0.67431 0.73984 0.28716
 H235 H 0.62251 0.69890 0.30879
 H236 H 0.63285 0.58231 0.30128
 H237 H 0.68462 0.62335 0.27958
 C238 C 0.15645 -0.05159 -0.10031
 C239 C 0.20152 -0.02325 -0.10440
 C240 C 0.21249 0.00126 -0.11860
 C241 C 0.17844 -0.00263 -0.12869
 C242 C 0.13300 -0.03118 -0.12468
 C243 C 0.12242 -0.05554 -0.11036
 C244 C 0.23619 -0.01918 -0.09386
 C245 C 0.26428 -0.01630 -0.08468
 C246 C 0.29611 -0.01331 -0.07355
 C247 C 0.32247 -0.01086 -0.06373
 C248 C 0.35298 -0.00782 -0.05162
 C249 C 0.37550 0.03131 -0.04401
 C250 C 0.40299 0.03357 -0.03162
 C251 C 0.40839 -0.00323 -0.02678
 C252 C 0.38604 -0.04232 -0.03450
 C253 C 0.35850 -0.04456 -0.04691
 H254 H 0.14757 -0.07051 -0.08932
 H255 H 0.24731 0.02331 -0.12188
 H256 H 0.18765 0.01621 -0.13969
 H257 H 0.08778 -0.07723 -0.10683
 H258 H 0.37122 0.05980 -0.04749
 H259 H 0.41967 0.06380 -0.02568
 H260 H 0.38937 -0.07120 -0.03076
 H261 H 0.34093 -0.07512 -0.05264
 C262 C 0.02927 0.84364 0.56008
 C263 C 0.00412 0.79963 0.55611
 C264 C -0.01943 0.79054 0.54235
 C265 C -0.01873 0.82526 0.53278
 C266 C 0.00534 0.86947 0.53693
 C267 C 0.02993 0.87833 0.55056
 C268 C 0.00053 0.76392 0.56666
 C269 C -0.00272 0.73491 0.57598
 C270 C -0.00656 0.70215 0.58744
 C271 C -0.00962 0.67535 0.59767
 C272 C -0.01277 0.64491 0.61037
 C273 C -0.05241 0.60432 0.61319
 C274 C -0.05631 0.57646 0.62621
 C275 C -0.02052 0.58902 0.63647
 C276 C 0.01925 0.62948 0.63351
 C277 C 0.02313 0.65723 0.62051
 H278 H 0.04762 0.85106 0.57070
 H279 H -0.03920 0.75656 0.53920
 H280 H -0.03840 0.81735 0.52244
 H281 H 0.04921 0.91207 0.55396
 H282 H -0.08054 0.59465 0.60549
 H283 H -0.08741 0.54559 0.62846
 H284 H 0.04699 0.63979 0.64139
 H285 H 0.05379 0.68869 0.61851
 C286 C 0.21945 0.26510 0.21222
 C287 C 0.22819 0.25310 0.22702
 C288 C 0.20856 0.20815 0.23221
 C289 C 0.18062 0.17524 0.22266
 C290 C 0.17188 0.18680 0.20771
 C291 C 0.19138 0.23214 0.20261
 C292 C 0.25725 0.28647 0.23701
 C293 C 0.28122 0.31299 0.24586
 C294 C 0.30865 0.34239 0.25674
 C295 C 0.33132 0.36612 0.26648
 C296 C 0.35725 0.39280 0.27863
 C297 C 0.33910 0.41228 0.28750
 C298 C 0.36227 0.43469 0.30019
 C299 C 0.40393 0.43802 0.30410
 C300 C 0.42238 0.41908 0.29504
 C301 C 0.39915 0.39663 0.28234
 H302 H 0.23449 0.29983 0.20809
 H303 H 0.21489 0.19849 0.24367
 H304 H 0.16552 0.14070 0.22701
 H305 H 0.18558 0.24204 0.19113
 H306 H 0.30654 0.40917 0.28482
 H307 H 0.34735 0.44869 0.30717
 H308 H 0.45413 0.42072 0.29805
 H309 H 0.41328 0.38128 0.27565
 C310 C 0.76407 -0.06065 -0.12133
 C311 C 0.76114 -0.07554 -0.10592
 C312 C 0.78687 -0.09493 -0.10050
 C313 C 0.81672 -0.09793 -0.11026
 C314 C 0.82182 -0.08126 -0.12576
 C315 C 0.79380 -0.06369 -0.13119
 C316 C 0.73421 -0.06830 -0.09539
 C317 C 0.71333 -0.06121 -0.08620
 C318 C 0.69067 -0.05196 -0.07505
 C319 C 0.67270 -0.04348 -0.06521
 C320 C 0.65274 -0.03287 -0.05312
 C321 C 0.67686 0.00822 -0.04673
 C322 C 0.65891 0.01769 -0.03434
 C323 C 0.61653 -0.01379 -0.02828
 C324 C 0.59229 -0.05482 -0.03481
 C325 C 0.61028 -0.06426 -0.04720
 H326 H 0.74444 -0.04531 -0.12564
 H327 H 0.78452 -0.10703 -0.08860
 H328 H 0.83524 -0.11394 -0.10553
 H329 H 0.79656 -0.04937 -0.14277
 H330 H 0.70986 0.03263 -0.05115
 H331 H 0.67824 0.04932 -0.02936
 H332 H 0.55987 -0.07976 -0.03012
 H333 H 0.59150 -0.09629 -0.05198
 C334 C 0.25519 0.03435 0.11926
 C335 C 0.23946 -0.00230 0.11043
 C336 C 0.19456 -0.03602 0.11182
 C337 C 0.16522 -0.03257 0.12174
 C338 C 0.18044 0.00485 0.13031
 C339 C 0.22594 0.03791 0.12914
 C340 C 0.26871 -0.00369 0.09925
 C341 C 0.29307 -0.00364 0.08956
 C342 C 0.32119 -0.00244 0.07785
 C343 C 0.34467 -0.00072 0.06753
 C344 C 0.37182 0.00192 0.05482
 C345 C 0.38264 -0.03178 0.05322
 C346 C 0.40660 -0.03040 0.04033
 C347 C 0.42009 0.00483 0.02896
 C348 C 0.40960 0.03878 0.03073
 C349 C 0.38569 0.03739 0.04361
 H350 H 0.28986 0.06065 0.11827
 H351 H 0.18197 -0.06442 0.10497
 H352 H 0.13030 -0.05831 0.12227
 H353 H 0.23879 0.06678 0.13576
 H354 H 0.37181 -0.05953 0.06177
 H355 H 0.41375 -0.05726 0.03903
 H356 H 0.41935 0.06596 0.02200
 H357 H 0.37729 0.06351 0.04469
 C358 C 0.76368 0.81622 0.45531
 C359 C 0.76270 0.82790 0.43978
 C360 C 0.79149 0.87133 0.43395
 C361 C 0.82232 0.90266 0.44343
 C362 C 0.82564 0.89140 0.45916
 C363 C 0.79437 0.84745 0.46492
 C364 C 0.73407 0.79505 0.42955
 C365 C 0.71171 0.76832 0.42052
 C366 C 0.68726 0.73801 0.40946
 C367 C 0.66775 0.71307 0.39962
 C368 C 0.64599 0.68451 0.38743
 C369 C 0.66888 0.66745 0.37971
 C370 C 0.64937 0.64251 0.36711
 C371 C 0.60666 0.63421 0.36216
 C372 C 0.58357 0.65093 0.37006
 C373 C 0.60313 0.67589 0.38266
 H374 H 0.74159 0.78248 0.45994
 H375 H 0.79053 0.88097 0.42194
 H376 H 0.84237 0.93600 0.43823
 H377 H 0.79502 0.83527 0.47659
 H378 H 0.70219 0.67420 0.38323
 H379 H 0.66783 0.63027 0.36106
 H380 H 0.55092 0.64547 0.36623
 H381 H 0.58529 0.68927 0.38846
 C382 C 0.02343 0.16170 0.77138
 C383 C -0.00239 0.18079 0.77538
 C384 C -0.02665 0.16653 0.78918
 C385 C -0.02590 0.13257 0.79878
 C386 C -0.00102 0.11233 0.79463
 C387 C 0.02415 0.12774 0.78093
 C388 C -0.00569 0.21320 0.76487
 C389 C -0.00858 0.23931 0.75559
 C390 C -0.01188 0.26874 0.74419
 C391 C -0.01439 0.29297 0.73402
 C392 C -0.01681 0.32086 0.72137
 C393 C -0.05603 0.32377 0.71877
 C394 C -0.05922 0.34833 0.70579
 C395 C -0.02312 0.37022 0.69536
 C396 C 0.01624 0.36759 0.69812
 C397 C 0.01941 0.34312 0.71107
 H398 H 0.04235 0.17249 0.76073
 H399 H -0.04693 0.18093 0.79235
 H400 H -0.04603 0.12108 0.80917
 H401 H 0.04406 0.11320 0.77752
 H402 H -0.08439 0.30635 0.72660
 H403 H -0.09001 0.34961 0.70371
 H404 H 0.04421 0.38398 0.69010
 H405 H 0.04976 0.34083 0.71290
 C406 C 0.89445 0.07810 0.10040
 C407 C 0.84905 0.05336 0.10466
 C408 C 0.83694 0.03137 0.11926
 C409 C 0.87004 0.03328 0.12944
 C410 C 0.91572 0.05712 0.12510
 C411 C 0.92759 0.08002 0.11054
 C412 C 0.81496 0.04871 0.09376
 C413 C 0.78690 0.04425 0.08435
 C414 C 0.75472 0.03860 0.07301
 C415 C 0.72793 0.03363 0.06305
 C416 C 0.69689 0.02775 0.05083
 C417 C 0.65492 -0.01095 0.05085
 C418 C 0.62581 -0.01745 0.03856
 C419 C 0.63842 0.01484 0.02620
 C420 C 0.68044 0.05359 0.02627
 C421 C 0.70947 0.06006 0.03854
 H422 H 0.90421 0.09526 0.08913
 H423 H 0.80188 0.01192 0.12265
 H424 H 0.85978 0.01481 0.14048
 H425 H 0.96248 0.09906 0.10694
 H426 H 0.64498 -0.03631 0.06024
 H427 H 0.59374 -0.04779 0.03858
 H428 H 0.69080 0.07861 0.01675
 H429 H 0.74196 0.08996 0.03836
 C430 C 0.15672 0.19384 0.43241
 C431 C 0.20189 0.21212 0.43650
 C432 C 0.21341 0.19801 0.45047
 C433 C 0.17974 0.16599 0.46038
 C434 C 0.13418 0.14792 0.45643
 C435 C 0.12311 0.16199 0.44227
 C436 C 0.23596 0.24568 0.42632
 C437 C 0.26310 0.27375 0.41740
 C438 C 0.29329 0.30635 0.40654
 C439 C 0.31776 0.33380 0.39688
 C440 C 0.34543 0.36586 0.38492
 C441 C 0.38921 0.37391 0.38239
 C442 C 0.41474 0.40281 0.37007
 C443 C 0.39671 0.42402 0.36022
 C444 C 0.35302 0.41623 0.36292
 C445 C 0.32757 0.38739 0.37524
 H446 H 0.14744 0.20437 0.42159
 H447 H 0.24830 0.21198 0.45375
 H448 H 0.18925 0.15610 0.47125
 H449 H 0.08841 0.14817 0.43879
 H450 H 0.40322 0.35716 0.38974
 H451 H 0.44811 0.40789 0.36800
 H452 H 0.33845 0.43195 0.35534
 H453 H 0.29363 0.38118 0.37702
 C454 C -0.02849 0.79036 0.76550
 C455 C -0.05226 0.74461 0.76957
 C456 C -0.07429 0.72912 0.78378
 C457 C -0.07200 0.75940 0.79396
 C458 C -0.04743 0.80552 0.79005
 C459 C -0.02610 0.82059 0.77564
 C460 C -0.05283 0.71412 0.75918
 C461 C -0.05180 0.69019 0.75010
 C462 C -0.04908 0.66400 0.73906
 C463 C -0.04570 0.64311 0.72929
 C464 C -0.04064 0.61992 0.71723
 C465 C -0.07503 0.57737 0.71421
 C466 C -0.07087 0.55621 0.70189
 C467 C -0.03220 0.57739 0.69253
 C468 C 0.00232 0.61984 0.69571
 C469 C -0.00185 0.64093 0.70802
 H470 H -0.01146 0.80271 0.75451
 H471 H -0.09273 0.69375 0.78706
 H472 H -0.08847 0.74685 0.80503
 H473 H -0.00756 0.85583 0.77219
 H474 H -0.10531 0.56094 0.72119
 H475 H -0.09811 0.52375 0.69945
 H476 H 0.03219 0.63681 0.68854
 H477 H 0.02485 0.67394 0.71020
   
