data_POSCAR
  _audit_creation_date              2014-09-24
  _audit_creation_method            'ToBaCCo'
  _symmetry_space_group_name_H-M    'P1'
  _symmetry_Int_Tables_number       1
  _symmetry_cell_setting            triclinic
  loop_
  _symmetry_equiv_pos_as_xyz
 x,y,z
_cell_length_a 36.2390
_cell_length_b 36.1508
_cell_length_c 36.3826
_cell_angle_alpha 89.954300
_cell_angle_beta 90.000000
_cell_angle_gamma 89.994600
loop_
  _atom_site_label
  _atom_site_type_symbol
  _atom_site_fract_x
  _atom_site_fract_y
  _atom_site_fract_z
N1 N 0.27592 0.37856 1.35525
 N2 N 0.27818 0.35254 1.38049
 C3 C 0.25021 0.35665 1.40457
 C4 C 0.22969 0.38681 1.39371
 C5 C 0.24652 0.40019 1.36242
 H6 H 0.24512 0.33915 1.42816
 H7 H 0.23815 0.42383 1.34618
 Cu8 Cu 0.31745 0.31598 1.37872
 Cu9 Cu 0.31147 0.38270 1.31512
 Cu10 Cu 0.38085 0.31631 1.31179
 N11 N 0.35572 0.27830 1.37682
 N12 N 0.38037 0.27860 1.35023
 C13 C 0.40367 0.24995 1.35480
 C14 C 0.39291 0.23086 1.38579
 C15 C 0.36246 0.24932 1.39922
 H16 H 0.42672 0.24358 1.33702
 H17 H 0.34656 0.24221 1.42339
 N18 N 0.37647 0.35685 1.27557
 N19 N 0.35007 0.38205 1.27689
 C20 C 0.35476 0.40609 1.24895
 C21 C 0.38545 0.39546 1.22933
 C22 C 0.39864 0.36424 1.24671
 H23 H 0.33733 0.42970 1.24334
 H24 H 0.42267 0.34829 1.23900
 H25 H 0.32493 0.32711 1.31303
 H26 H 0.35516 0.35739 1.34144
 N27 N 1.22314 0.62375 0.85731
 N28 N 1.22123 0.65012 0.88216
 C29 C 1.24916 0.64591 0.90629
 C30 C 1.26929 0.61529 0.89596
 C31 C 1.25221 0.60182 0.86485
 H32 H 1.25452 0.66363 0.92963
 H33 H 1.26032 0.57794 0.84890
 Cu34 Cu 1.18260 0.68745 0.88021
 Cu35 Cu 1.18761 0.61961 0.81725
 Cu36 Cu 1.11812 0.68555 0.81388
 N37 N 1.14324 0.72409 0.87834
 N38 N 1.11824 0.72319 0.85210
 C39 C 1.09435 0.75129 0.85689
 C40 C 1.10507 0.77067 0.88763
 C41 C 1.13616 0.75298 0.90070
 H42 H 1.07100 0.75716 0.83933
 H43 H 1.15223 0.76052 0.92463
 N44 N 1.12259 0.64525 0.77767
 N45 N 1.14908 0.62016 0.77898
 C46 C 1.14450 0.59623 0.75097
 C47 C 1.11381 0.60687 0.73132
 C48 C 1.10048 0.63793 0.74878
 H49 H 1.16203 0.57271 0.74531
 H50 H 1.07641 0.65384 0.74108
 H51 H 1.17435 0.67518 0.81468
 H52 H 1.14466 0.64524 0.84415
 N53 N 0.72295 -0.12356 0.14288
 N54 N 0.72120 -0.15002 0.11811
 C55 C 0.74912 -0.14574 0.09400
 C56 C 0.76907 -0.11500 0.10425
 C57 C 0.75192 -0.10150 0.13530
 H58 H 0.75451 -0.16344 0.07065
 H59 H 0.75984 -0.07747 0.15112
 Cu60 Cu 0.68241 -0.18721 0.11969
 Cu61 Cu 0.68729 -0.11935 0.18275
 Cu62 Cu 0.61793 -0.18535 0.18608
 N63 N 0.64329 -0.22412 0.12188
 N64 N 0.61819 -0.22314 0.14802
 C65 C 0.59427 -0.25119 0.14320
 C66 C 0.60506 -0.27066 0.11252
 C67 C 0.63622 -0.25303 0.09953
 H68 H 0.57079 -0.25694 0.16063
 H69 H 0.65230 -0.26057 0.07562
 N70 N 0.62223 -0.14497 0.22217
 N71 N 0.64868 -0.11985 0.22088
 C72 C 0.64408 -0.09594 0.24889
 C73 C 0.61340 -0.10662 0.26851
 C74 C 0.60011 -0.13770 0.25107
 H75 H 0.66161 -0.07244 0.25461
 H76 H 0.57610 -0.15367 0.25881
 H77 H 0.67410 -0.17482 0.18509
 H78 H 0.64437 -0.14490 0.15555
 N79 N -0.22338 1.12223 -0.35464
 N80 N -0.22155 1.14863 -0.37948
 C81 C -0.24955 1.14451 -0.40351
 C82 C -0.26961 1.11388 -0.39312
 C83 C -0.25245 1.10029 -0.36212
 H84 H -0.25494 1.16221 -0.42690
 H85 H -0.26043 1.07627 -0.34627
 Cu86 Cu -0.18268 1.18562 -0.37767
 Cu87 Cu -0.18771 1.11794 -0.31475
 Cu88 Cu -0.11826 1.18407 -0.31144
 N89 N -0.14385 1.22271 -0.37586
 N90 N -0.11877 1.22190 -0.34970
 C91 C -0.09504 1.25011 -0.35461
 C92 C -0.10601 1.26950 -0.38532
 C93 C -0.13703 1.25166 -0.39827
 H94 H -0.07156 1.25598 -0.33724
 H95 H -0.15316 1.25911 -0.42220
 N96 N -0.12262 1.14352 -0.27532
 N97 N -0.14908 1.11840 -0.27665
 C98 C -0.14449 1.09435 -0.24872
 C99 C -0.11381 1.10490 -0.22908
 C100 C -0.10048 1.13606 -0.24645
 H101 H -0.16202 1.07082 -0.24309
 H102 H -0.07644 1.15197 -0.23871
 H103 H -0.17417 1.17349 -0.31220
 H104 H -0.14443 1.14362 -0.34154
 N105 N 0.72385 0.62319 0.64281
 N106 N 0.72209 0.64971 0.61806
 C107 C 0.74990 0.64541 0.59383
 C108 C 0.76987 0.61463 0.60406
 C109 C 0.75275 0.60109 0.63513
 H110 H 0.75521 0.66307 0.57040
 H111 H 0.76062 0.57696 0.65087
 Cu112 Cu 0.68309 0.68663 0.61980
 Cu113 Cu 0.68816 0.61880 0.68270
 Cu114 Cu 0.61867 0.68483 0.68603
 N115 N 0.64416 0.72369 0.62184
 N116 N 0.61904 0.72265 0.64796
 C117 C 0.59502 0.75059 0.64298
 C118 C 0.60575 0.77008 0.61228
 C119 C 0.63696 0.75249 0.59937
 H120 H 0.57145 0.75625 0.66029
 H121 H 0.65294 0.76001 0.57537
 N122 N 0.62305 0.64438 0.72212
 N123 N 0.64950 0.61926 0.72085
 C124 C 0.64498 0.59541 0.74897
 C125 C 0.61433 0.60614 0.76861
 C126 C 0.60100 0.63717 0.75109
 H127 H 0.66256 0.57196 0.75475
 H128 H 0.57704 0.65319 0.75885
 H129 H 0.64490 0.64421 0.65563
 H130 H 0.67455 0.67404 0.68508
 N131 N 0.77670 0.37782 0.14552
 N132 N 0.77840 0.35135 0.12081
 C133 C 0.75045 0.35554 0.09674
 C134 C 0.73053 0.38626 0.10703
 C135 C 0.74771 0.39987 0.13800
 H136 H 0.74502 0.33782 0.07343
 H137 H 0.73984 0.42398 0.15374
 Cu138 Cu 0.81713 0.31431 0.12267
 Cu139 Cu 0.81252 0.38211 0.18528
 Cu140 Cu 0.88182 0.31589 0.18866
 N141 N 0.85589 0.27726 0.12452
 N142 N 0.88103 0.27808 0.15057
 C143 C 0.90476 0.24987 0.14566
 C144 C 0.89370 0.23051 0.11502
 C145 C 0.86267 0.24833 0.10215
 H146 H 0.92831 0.24399 0.16295
 H147 H 0.84651 0.24088 0.07828
 N148 N 0.87765 0.35649 0.22457
 N149 N 0.85125 0.38167 0.22325
 C150 C 0.85595 0.40568 0.25115
 C151 C 0.88666 0.39503 0.27072
 C152 C 0.89985 0.36384 0.25338
 H153 H 0.83846 0.42922 0.25683
 H154 H 0.92383 0.34782 0.26112
 H155 H 0.85581 0.35620 0.15824
 H156 H 0.82608 0.32644 0.18790
 N157 N 0.27638 0.12182 0.85428
 N158 N 0.27812 0.14830 0.87901
 C159 C 0.25017 0.14411 0.90305
 C160 C 0.23025 0.11340 0.89279
 C161 C 0.24739 0.09979 0.86181
 H162 H 0.24477 0.16183 0.92636
 H163 H 0.23944 0.07572 0.84604
 Cu164 Cu 0.31678 0.18545 0.87744
 Cu165 Cu 0.31211 0.11752 0.81457
 Cu166 Cu 0.38143 0.18357 0.81118
 N167 N 0.35576 0.22232 0.87528
 N168 N 0.38090 0.22143 0.84919
 C169 C 0.40466 0.24961 0.85408
 C170 C 0.39369 0.26904 0.88473
 C171 C 0.36262 0.25125 0.89760
 H172 H 0.42816 0.25550 0.83672
 H173 H 0.34646 0.25874 0.92145
 N174 N 0.37720 0.14300 0.77524
 N175 N 0.35076 0.11787 0.77659
 C176 C 0.35538 0.09385 0.74869
 C177 C 0.38607 0.10444 0.72906
 C178 C 0.39934 0.13561 0.74640
 H179 H 0.33782 0.07036 0.74302
 H180 H 0.42332 0.15160 0.73860
 H181 H 0.35517 0.14336 0.84177
 H182 H 0.32543 0.17319 0.81209
 N183 N 0.22346 0.87668 0.35699
 N184 N 0.22177 0.85011 0.38167
 C185 C 0.24965 0.85434 0.40584
 C186 C 0.26955 0.88514 0.39562
 C187 C 0.25238 0.89875 0.36462
 H188 H 0.25502 0.83662 0.42921
 H189 H 0.26017 0.92293 0.34895
 Cu190 Cu 0.18278 0.81321 0.38002
 Cu191 Cu 0.18772 0.88113 0.31720
 Cu192 Cu 0.11833 0.81509 0.31379
 N193 N 0.14394 0.77609 0.37780
 N194 N 0.11880 0.77718 0.35173
 C195 C 0.09486 0.74917 0.35660
 C196 C 0.10565 0.72963 0.38723
 C197 C 0.13684 0.74719 0.40017
 H198 H 0.07127 0.74356 0.33932
 H199 H 0.15286 0.73961 0.42413
 N200 N 0.12259 0.85562 0.27788
 N201 N 0.14902 0.88076 0.27919
 C202 C 0.14446 0.90466 0.25113
 C203 C 0.11382 0.89394 0.23152
 C204 C 0.10052 0.86287 0.24895
 H205 H 0.16203 0.92812 0.24536
 H206 H 0.07658 0.84683 0.24114
 H207 H 0.14453 0.85563 0.34434
 H208 H 0.17422 0.82585 0.31483
 Zn209 Zn 0.00370 1.04642 -0.01845
 Zn210 Zn -0.01939 1.00309 0.04712
 Zn211 Zn -0.02846 0.97043 -0.02823
 Zn212 Zn 0.04699 0.98056 0.00461
 O213 O 0.00060 1.00000 0.00116
 O214 O -0.01422 1.08153 0.01112
 O215 O -0.06093 0.97727 0.05118
 O216 O -0.04588 0.99486 -0.06798
 O217 O -0.03153 1.04925 0.05995
 O218 O -0.02189 1.05069 -0.05986
 O219 O -0.06838 0.95272 -0.00416
 O220 O 0.05165 0.93885 -0.02076
 O221 O 0.01028 0.98536 0.08226
 O222 O -0.00371 0.93064 -0.04544
 O223 O 0.05982 0.96878 0.05062
 O224 O 0.08202 1.01050 -0.01312
 O225 O 0.04975 1.05958 -0.03034
 C226 C -0.02865 1.07959 0.04276
 C227 C -0.07895 0.95752 0.02879
 C228 C -0.04131 1.02818 -0.07813
 C229 C 0.02947 0.92047 -0.04044
 C230 C 0.04229 0.97140 0.08063
 C231 C 0.08005 1.04237 -0.02748
 Zn232 Zn 0.48036 0.00460 0.45218
 Zn233 Zn 0.47139 -0.02825 0.52758
 Zn234 Zn 0.54673 -0.01808 0.49473
 Zn235 Zn 0.50337 0.04785 0.51777
 O236 O 0.50036 0.00143 0.49816
 O237 O 0.43892 -0.02142 0.44821
 O238 O 0.49605 -0.06806 0.54479
 O239 O 0.55950 -0.02998 0.44871
 O240 O 0.43157 -0.04601 0.50359
 O241 O 0.51005 -0.01319 0.41701
 O242 O 0.55140 -0.05983 0.52014
 O243 O 0.54949 0.06098 0.52968
 O244 O 0.45399 -0.00401 0.56733
 O245 O 0.58173 0.01185 0.51254
 O246 O 0.47791 0.05188 0.55932
 O247 O 0.48508 0.08306 0.48826
 O248 O 0.46787 0.05084 0.43941
 C249 C 0.42100 -0.04125 0.47065
 C250 C 0.52920 -0.07825 0.53979
 C251 C 0.54198 -0.02739 0.41868
 C252 C 0.57977 0.04368 0.52694
 C253 C 0.45857 0.02925 0.57758
 C254 C 0.47051 0.08117 0.45665
 Zn255 Zn 1.00418 0.45196 0.48196
 Zn256 Zn 1.04739 0.51796 0.50491
 Zn257 Zn 0.97186 0.52789 0.47214
 Zn258 Zn 0.98108 0.49534 0.54756
 O259 O 1.00103 0.49838 0.50154
 O260 O 1.05033 0.43890 0.46998
 O261 O 1.05182 0.55966 0.47943
 O262 O 0.95450 0.50355 0.43241
 O263 O 1.08249 0.48809 0.48704
 O264 O 0.97864 0.44775 0.44045
 O265 O 0.99638 0.56771 0.45486
 O266 O 0.93953 0.52123 0.55157
 O267 O 1.06020 0.53001 0.55092
 O268 O 0.93199 0.54561 0.49614
 O269 O 1.01077 0.51327 0.58267
 O270 O 0.96883 0.44911 0.56041
 O271 O 0.98607 0.41680 0.51161
 C272 C 1.08060 0.45624 0.47266
 C273 C 1.02951 0.57798 0.45981
 C274 C 0.95920 0.47030 0.42219
 C275 C 0.92149 0.54094 0.52912
 C276 C 1.04269 0.52750 0.58096
 C277 C 0.97157 0.41875 0.54324
 Zn278 Zn 0.50368 0.45329 1.01862
 Zn279 Zn 0.48075 0.49665 0.95294
 Zn280 Zn 0.47166 0.52939 1.02834
 Zn281 Zn 0.54710 0.51919 0.99552
 O282 O 0.50068 0.49974 0.99897
 O283 O 0.48564 0.41815 0.98903
 O284 O 0.43924 0.52255 0.94886
 O285 O 0.45419 0.50501 1.06815
 O286 O 0.46853 0.45044 0.94013
 O287 O 0.47809 0.44912 1.06011
 O288 O 0.43179 0.54715 1.00419
 O289 O 0.55181 0.56093 1.02092
 O290 O 0.51047 0.51441 0.91780
 O291 O 0.49643 0.56922 1.04552
 O292 O 0.55996 0.53102 0.94949
 O293 O 0.58207 0.48916 1.01327
 O294 O 0.54976 0.44009 1.03050
 C295 C 0.47126 0.42008 0.95735
 C296 C 0.42125 0.54237 0.97123
 C297 C 0.45871 0.47170 1.07836
 C298 C 0.52962 0.57937 1.04055
 C299 C 0.54247 0.52844 0.91945
 C300 C 0.58008 0.45729 1.02762
 C301 C 1.19925 0.40067 0.41068
 C302 C 1.17227 0.41290 0.42579
 C303 C 1.14060 0.42737 0.44320
 C304 C 1.11335 0.44015 0.45734
 C305 C 0.30148 0.60056 0.91387
 C306 C 0.32856 0.58809 0.92867
 C307 C 0.36047 0.57307 0.94529
 C308 C 0.38802 0.55958 0.95821
 C309 C -0.19883 0.89981 0.08626
 C310 C -0.17180 0.91225 0.07138
 C311 C -0.13987 0.92711 0.05470
 C312 C -0.11226 0.94045 0.04177
 C313 C 0.69833 0.09917 0.58890
 C314 C 0.67139 0.08693 0.57378
 C315 C 0.63973 0.07250 0.55638
 C316 C 0.61249 0.05976 0.54224
 C317 C 0.40935 0.20030 0.40023
 C318 C 0.42408 0.17320 0.41287
 C319 C 0.44116 0.14139 0.42769
 C320 C 0.45515 0.11404 0.44062
 C321 C 0.91061 0.29989 0.60014
 C322 C 0.92543 0.32687 0.58741
 C323 C 0.94249 0.35860 0.57246
 C324 C 0.95639 0.38590 0.55941
 C325 C 0.08826 0.80104 -0.09803
 C326 C 0.07329 0.82801 -0.08547
 C327 C 0.05631 0.85979 -0.07057
 C328 C 0.04300 0.88727 -0.05729
 C329 C 0.58822 0.69899 1.09813
 C330 C 0.57329 0.67201 1.08553
 C331 C 0.55638 0.64018 1.07060
 C332 C 0.54313 0.61264 1.05736
 C333 C 0.40057 0.41346 1.19743
 C334 C 0.41320 0.42845 1.17059
 C335 C 0.42824 0.44533 1.13890
 C336 C 0.44166 0.45846 1.11149
 C337 C 0.59832 -0.08878 0.30044
 C338 C 0.58577 -0.07378 0.32725
 C339 C 0.57098 -0.05654 0.35879
 C340 C 0.55804 -0.04255 0.38595
 C341 C -0.09887 1.08686 -0.19715
 C342 C -0.08644 1.07178 -0.17029
 C343 C -0.07162 1.05476 -0.13860
 C344 C -0.05832 1.04150 -0.11121
 C345 C 1.09878 0.58902 0.69935
 C346 C 1.08630 0.57403 0.67248
 C347 C 1.07160 0.55678 0.64087
 C348 C 1.05873 0.54275 0.61368
 C349 C 0.80187 0.59968 0.58604
 C350 C 0.82883 0.58697 0.57126
 C351 C 0.86070 0.57176 0.55478
 C352 C 0.88826 0.55818 0.54202
 C353 C 0.69855 0.40104 1.08898
 C354 C 0.67168 0.41339 1.07385
 C355 C 0.64007 0.42804 1.05656
 C356 C 0.61283 0.44099 1.04262
 C357 C 0.19834 1.09859 -0.08910
 C358 C 0.17152 1.08623 -0.07390
 C359 C 0.13997 1.07159 -0.05652
 C360 C 0.11277 1.05864 -0.04253
 C361 C 0.30150 -0.09990 0.41367
 C362 C 0.32843 -0.08724 0.42848
 C363 C 0.36026 -0.07207 0.44500
 C364 C 0.38779 -0.05850 0.45778
 C365 C 0.58781 -0.19796 0.59703
 C366 C 0.57276 -0.17103 0.58449
 C367 C 0.55581 -0.13917 0.56969
 C368 C 0.54262 -0.11157 0.55653
 C369 C 1.08774 0.69767 0.40244
 C370 C 1.07275 0.67074 0.41499
 C371 C 1.05588 0.63890 0.42983
 C372 C 1.04278 0.61130 0.44303
 C373 C -0.08883 1.19845 0.09967
 C374 C -0.07413 1.17150 0.08692
 C375 C -0.05726 1.13979 0.07196
 C376 C -0.04357 1.11245 0.05891
 C377 C 0.41117 0.30113 0.90011
 C378 C 0.42582 0.32811 0.91293
 C379 C 0.44262 0.35986 0.92800
 C380 C 0.45630 0.38721 0.94113
 C381 C 0.59931 0.58848 0.80069
 C382 C 0.58670 0.57377 0.82764
 C383 C 0.57178 0.55693 0.85936
 C384 C 0.55870 0.54328 0.88664
 C385 C 0.40098 0.08663 0.69705
 C386 C 0.41344 0.07183 0.67009
 C387 C 0.42833 0.05522 0.63827
 C388 C 0.44164 0.04230 0.61076
 C389 C 0.09886 0.91159 0.19947
 C390 C 0.08633 0.92629 0.17250
 C391 C 0.07151 0.94308 0.14076
 C392 C 0.05849 0.95666 0.11344
 C393 C 0.90166 0.41283 0.30270
 C394 C 0.91416 0.42761 0.32965
 C395 C 0.92904 0.44422 0.36149
 C396 C 0.94231 0.45716 0.38900
   
