data_POSCAR
  _audit_creation_date              2014-09-24
  _audit_creation_method            'ToBaCCo'
  _symmetry_space_group_name_H-M    'P1'
  _symmetry_Int_Tables_number       1
  _symmetry_cell_setting            triclinic
  loop_
  _symmetry_equiv_pos_as_xyz
 x,y,z
_cell_length_a 30.4305
_cell_length_b 30.4311
_cell_length_c 30.4309
_cell_angle_alpha 89.918000
_cell_angle_beta 90.555100
_cell_angle_gamma 89.759300
loop_
  _atom_site_label
  _atom_site_type_symbol
  _atom_site_fract_x
  _atom_site_fract_y
  _atom_site_fract_z
O1 O 0.56006 0.49948 0.03595
 O2 O 0.43891 0.50030 0.03618
 O3 O 0.49932 0.43942 0.03613
 O4 O 0.49966 0.56035 0.03597
 O5 O 0.49881 0.56036 -0.03671
 O6 O 0.49848 0.43944 -0.03655
 O7 O 0.43806 0.50032 -0.03649
 O8 O 0.55922 0.49949 -0.03672
 Cu9 Cu 0.49957 0.49988 0.04339
 Cu10 Cu 0.49856 0.49990 -0.04395
 C11 C 0.58010 0.49936 -0.00042
 C12 C 0.41801 0.50044 -0.00012
 C13 C 0.49884 0.41902 -0.00018
 C14 C 0.49931 0.58076 -0.00040
 O15 O -0.03607 0.56168 0.49931
 O16 O -0.03611 0.44053 0.49948
 O17 O -0.03631 0.50112 0.55985
 O18 O -0.03586 0.50108 0.43893
 O19 O 0.03683 0.50075 0.43990
 O20 O 0.03638 0.50078 0.56082
 O21 O 0.03656 0.44019 0.50045
 O22 O 0.03659 0.56135 0.50029
 Cu23 Cu -0.04342 0.50114 0.49929
 Cu24 Cu 0.04392 0.50074 0.50046
 C25 C 0.00027 0.58199 0.49980
 C26 C 0.00021 0.41990 0.49998
 C27 C -0.00004 0.50097 0.58074
 C28 C 0.00056 0.50088 0.41901
 O29 O 0.50014 0.03605 0.56146
 O30 O 0.49976 0.03613 0.44029
 O31 O 0.43949 0.03607 0.50047
 O32 O 0.56043 0.03609 0.50127
 O33 O 0.56075 -0.03659 0.50133
 O34 O 0.43982 -0.03661 0.50053
 O35 O 0.50008 -0.03654 0.44036
 O36 O 0.50047 -0.03661 0.56152
 Cu37 Cu 0.49993 0.04342 0.50087
 Cu38 Cu 0.50031 -0.04392 0.50095
 C39 C 0.50037 -0.00029 0.58196
 C40 C 0.49985 -0.00019 0.41987
 C41 C 0.41925 -0.00028 0.50036
 C42 C 0.58099 -0.00025 0.50143
 C43 C 0.49832 0.11362 -0.08234
 C44 C 0.50041 0.08189 -0.11420
 C45 C 0.50105 0.04171 -0.09262
 N46 N 0.49950 0.04802 -0.04872
 C47 C 0.49788 0.09189 -0.04223
 C48 C 0.50164 0.00040 -0.11383
 C49 C 0.50055 -0.04072 -0.09195
 C50 C 0.49451 -0.08067 -0.11304
 C51 C 0.49447 -0.11253 -0.08107
 C52 C 0.50051 -0.09141 -0.04108
 N53 N 0.50493 -0.04769 -0.04811
 C54 C 0.50167 -0.11319 0.00013
 C55 C 0.50129 -0.09212 0.04151
 C56 C 0.50080 -0.11385 0.08162
 C57 C 0.49882 -0.08212 0.11348
 C58 C 0.49827 -0.04194 0.09191
 N59 N 0.49978 -0.04825 0.04801
 C60 C 0.49779 -0.00063 0.11312
 C61 C 0.49885 0.04049 0.09123
 C62 C 0.50493 0.08044 0.11231
 C63 C 0.50486 0.11230 0.08033
 C64 C 0.49873 0.09117 0.04036
 N65 N 0.49436 0.04746 0.04740
 C66 C 0.49745 0.11295 -0.00084
 H67 H 0.49754 0.14872 -0.08812
 H68 H 0.50111 0.08780 -0.14927
 H69 H 0.48553 0.02431 0.02409
 H70 H 0.48996 -0.08633 -0.14789
 H71 H 0.48991 -0.14733 -0.08671
 H72 H 0.50150 -0.14895 0.08740
 H73 H 0.49812 -0.08803 0.14855
 H74 H 0.50942 0.14710 0.08596
 H75 H 0.51369 -0.02454 -0.02479
 H76 H 0.50956 0.08610 0.14715
 C77 C -0.08225 0.50137 0.88589
 C78 C -0.11396 0.49927 0.91753
 C79 C -0.09217 0.49874 0.95777
 N80 N -0.04829 0.50036 0.95160
 C81 C -0.04203 0.50193 0.90775
 C82 C -0.11316 0.49817 0.99901
 C83 C -0.09105 0.49939 1.04020
 C84 C -0.11191 0.50548 1.08009
 C85 C -0.07977 0.50562 1.11205
 C86 C -0.03991 0.49958 1.09104
 N87 N -0.04720 0.49507 1.04730
 C88 C 0.00140 0.49850 1.11295
 C89 C 0.04268 0.49889 1.09202
 C90 C 0.08291 0.49944 1.11387
 C91 C 0.11461 0.50143 1.08223
 C92 C 0.09283 0.50192 1.04199
 N93 N 0.04895 0.50038 1.04817
 C94 C 0.11382 0.50239 1.00074
 C95 C 0.09170 0.50125 0.95955
 C96 C 0.11254 0.49516 0.91966
 C97 C 0.08040 0.49514 0.88770
 C98 C 0.04056 0.50122 0.90872
 N99 N 0.04785 0.50566 0.95246
 C100 C -0.00075 0.50240 0.88681
 H101 H -0.08821 0.50210 0.85078
 H102 H -0.14906 0.49850 0.91151
 H103 H 0.02470 0.51448 0.97556
 H104 H -0.14671 0.51000 1.08566
 H105 H -0.08521 0.51024 1.14684
 H106 H 0.08886 0.49877 1.14899
 H107 H 0.14972 0.50216 1.08824
 H108 H 0.08583 0.49055 0.85290
 H109 H -0.02403 0.48627 1.02421
 H110 H 0.14734 0.49058 0.91408
 C111 C 0.11393 -0.08248 0.49848
 C112 C 0.08226 -0.11432 0.50048
 C113 C 0.04207 -0.09269 0.50126
 N114 N 0.04830 -0.04877 0.49987
 C115 C 0.09214 -0.04233 0.49822
 C116 C 0.00079 -0.11383 0.50185
 C117 C -0.04037 -0.09186 0.50102
 C118 C -0.08041 -0.11279 0.49507
 C119 C -0.11230 -0.08076 0.49534
 C120 C -0.09111 -0.04090 0.50147
 N121 N -0.04731 -0.04808 0.50564
 C122 C -0.11291 0.00032 0.50290
 C123 C -0.09190 0.04167 0.50251
 C124 C -0.11368 0.08183 0.50220
 C125 C -0.08202 0.11366 0.50010
 C126 C -0.04183 0.09203 0.49932
 N127 N -0.04806 0.04811 0.50079
 C128 C -0.00056 0.11317 0.49867
 C129 C 0.04061 0.09120 0.49959
 C130 C 0.08063 0.11214 0.50560
 C131 C 0.11252 0.08012 0.50543
 C132 C 0.09134 0.04025 0.49930
 N133 N 0.04755 0.04742 0.49502
 C134 C 0.11315 -0.00097 0.49793
 H135 H 0.14902 -0.08830 0.49763
 H136 H 0.08822 -0.14940 0.50104
 H137 H 0.02428 0.02427 0.48622
 H138 H -0.08612 -0.14756 0.49039
 H139 H -0.14718 -0.08628 0.49092
 H140 H -0.14877 0.08765 0.50308
 H141 H -0.08798 0.14875 0.49949
 H142 H 0.14739 0.08564 0.50992
 H143 H -0.02402 -0.02493 0.51441
 H144 H 0.08633 0.14692 0.51026
 C145 C -0.37270 0.49912 0.99949
 C146 C -0.33306 0.49894 0.99943
 C147 C -0.28662 0.49875 0.99937
 C148 C -0.24698 0.49862 0.99931
 C149 C -0.20055 0.49848 0.99923
 C150 C -0.16090 0.49836 0.99914
 C151 C 0.37336 0.50071 0.99997
 C152 C 0.33372 0.50093 1.00007
 C153 C 0.28728 0.50119 1.00021
 C154 C 0.24764 0.50143 1.00034
 C155 C 0.20121 0.50174 1.00049
 C156 C 0.16156 0.50202 1.00061
 C157 C 0.00028 -0.37336 0.49988
 C158 C 0.00029 -0.33372 0.50003
 C159 C 0.00032 -0.28728 0.50028
 C160 C 0.00037 -0.24764 0.50056
 C161 C 0.00046 -0.20122 0.50096
 C162 C 0.00059 -0.16157 0.50134
 C163 C 0.00019 0.37270 0.49996
 C164 C 0.00014 0.33306 0.49989
 C165 C 0.00005 0.28662 0.49975
 C166 C -0.00005 0.24699 0.49958
 C167 C -0.00019 0.20056 0.49932
 C168 C -0.00034 0.16091 0.49905
 C169 C 0.50050 -0.00031 -0.37339
 C170 C 0.50063 -0.00029 -0.33374
 C171 C 0.50080 -0.00024 -0.28730
 C172 C 0.50096 -0.00016 -0.24766
 C173 C 0.50116 -0.00002 -0.20123
 C174 C 0.50136 0.00015 -0.16157
 C175 C 0.49964 -0.00016 0.37267
 C176 C 0.49943 -0.00014 0.33303
 C177 C 0.49914 -0.00013 0.28658
 C178 C 0.49887 -0.00016 0.24695
 C179 C 0.49852 -0.00025 0.20052
 C180 C 0.49821 -0.00039 0.16086
 C181 C 0.49955 -0.37217 -0.00045
 C182 C 0.49980 -0.33260 -0.00048
 C183 C 0.50015 -0.28627 -0.00048
 C184 C 0.50048 -0.24671 -0.00043
 C185 C 0.50089 -0.20040 -0.00031
 C186 C 0.50124 -0.16082 -0.00015
 C187 C 0.49868 0.37195 -0.00013
 C188 C 0.49852 0.33238 -0.00013
 C189 C 0.49832 0.28605 -0.00016
 C190 C 0.49813 0.24648 -0.00024
 C191 C 0.49791 0.20017 -0.00039
 C192 C 0.49771 0.16059 -0.00056
 C193 C -0.37193 -0.00024 0.50171
 C194 C -0.33235 -0.00022 0.50195
 C195 C -0.28602 -0.00017 0.50220
 C196 C -0.24645 -0.00011 0.50240
 C197 C -0.20013 -0.00000 0.50260
 C198 C -0.16055 0.00012 0.50275
 C199 C 0.37217 -0.00030 0.49999
 C200 C 0.33259 -0.00033 0.49967
 C201 C 0.28626 -0.00041 0.49927
 C202 C 0.24670 -0.00049 0.49894
 C203 C 0.20038 -0.00063 0.49856
 C204 C 0.16079 -0.00077 0.49826
 C205 C 0.00074 0.50071 1.37194
 C206 C 0.00089 0.50049 1.33237
 C207 C 0.00104 0.50015 1.28604
 C208 C 0.00116 0.49981 1.24648
 C209 C 0.00128 0.49937 1.20017
 C210 C 0.00135 0.49898 1.16058
 C211 C -0.00021 0.50107 0.62782
 C212 C -0.00034 0.50119 0.66739
 C213 C -0.00046 0.50139 0.71371
 C214 C -0.00056 0.50159 0.75328
 C215 C -0.00065 0.50186 0.79959
 C216 C -0.00070 0.50210 0.83918
   
